# Generated by pormake.
# Topology pyr, (3,6)-cn, num edge types: 1
# Building blocks:
#     Node 0, Type 0, BuildingBlock: VETTIZ_charged_linker_0, # of connection points: 3
#     Node 1, Type 0, BuildingBlock: VETTIZ_charged_linker_0, # of connection points: 3
#     Node 2, Type 0, BuildingBlock: VETTIZ_charged_linker_0, # of connection points: 3
#     Node 3, Type 0, BuildingBlock: VETTIZ_charged_linker_0, # of connection points: 3
#     Node 4, Type 0, BuildingBlock: VETTIZ_charged_linker_0, # of connection points: 3
#     Node 5, Type 0, BuildingBlock: VETTIZ_charged_linker_0, # of connection points: 3
#     Node 6, Type 0, BuildingBlock: VETTIZ_charged_linker_0, # of connection points: 3
#     Node 7, Type 0, BuildingBlock: VETTIZ_charged_linker_0, # of connection points: 3
#     Node 8, Type 1, BuildingBlock: VOLQOD_clean_sbu_1, # of connection points: 6
#     Node 9, Type 1, BuildingBlock: VOLQOD_clean_sbu_1, # of connection points: 6
#     Node 10, Type 1, BuildingBlock: VOLQOD_clean_sbu_1, # of connection points: 6
#     Node 11, Type 1, BuildingBlock: VOLQOD_clean_sbu_1, # of connection points: 6
#     Edge 12, Type (0, 1), BuildingBlock: OJICUG_clean_linker_0, # of connection points: 2
#     Edge 13, Type (0, 1), BuildingBlock: OJICUG_clean_linker_0, # of connection points: 2
#     Edge 14, Type (0, 1), BuildingBlock: OJICUG_clean_linker_0, # of connection points: 2
#     Edge 15, Type (0, 1), BuildingBlock: OJICUG_clean_linker_0, # of connection points: 2
#     Edge 16, Type (0, 1), BuildingBlock: OJICUG_clean_linker_0, # of connection points: 2
#     Edge 17, Type (0, 1), BuildingBlock: OJICUG_clean_linker_0, # of connection points: 2
#     Edge 18, Type (0, 1), BuildingBlock: OJICUG_clean_linker_0, # of connection points: 2
#     Edge 19, Type (0, 1), BuildingBlock: OJICUG_clean_linker_0, # of connection points: 2
#     Edge 20, Type (0, 1), BuildingBlock: OJICUG_clean_linker_0, # of connection points: 2
#     Edge 21, Type (0, 1), BuildingBlock: OJICUG_clean_linker_0, # of connection points: 2
#     Edge 22, Type (0, 1), BuildingBlock: OJICUG_clean_linker_0, # of connection points: 2
#     Edge 23, Type (0, 1), BuildingBlock: OJICUG_clean_linker_0, # of connection points: 2
#     Edge 24, Type (0, 1), BuildingBlock: OJICUG_clean_linker_0, # of connection points: 2
#     Edge 25, Type (0, 1), BuildingBlock: OJICUG_clean_linker_0, # of connection points: 2
#     Edge 26, Type (0, 1), BuildingBlock: OJICUG_clean_linker_0, # of connection points: 2
#     Edge 27, Type (0, 1), BuildingBlock: OJICUG_clean_linker_0, # of connection points: 2
#     Edge 28, Type (0, 1), BuildingBlock: OJICUG_clean_linker_0, # of connection points: 2
#     Edge 29, Type (0, 1), BuildingBlock: OJICUG_clean_linker_0, # of connection points: 2
#     Edge 30, Type (0, 1), BuildingBlock: OJICUG_clean_linker_0, # of connection points: 2
#     Edge 31, Type (0, 1), BuildingBlock: OJICUG_clean_linker_0, # of connection points: 2
#     Edge 32, Type (0, 1), BuildingBlock: OJICUG_clean_linker_0, # of connection points: 2
#     Edge 33, Type (0, 1), BuildingBlock: OJICUG_clean_linker_0, # of connection points: 2
#     Edge 34, Type (0, 1), BuildingBlock: OJICUG_clean_linker_0, # of connection points: 2
#     Edge 35, Type (0, 1), BuildingBlock: OJICUG_clean_linker_0, # of connection points: 2
# Relax obj value: 0.035
# Max RMSD: 0.119
# Mean RMSD: 0.042
data_MOF--net-pry--node1-VOLQOD_clean_sbu_1--node2-VETTIZ_charged_linker_0--edge1-OJICUG_clean_linker_0
_symmetry_space_group_name_H-M    P1
_symmetry_Int_Tables_number       1
_symmetry_cell_setting            triclinic
loop_
_symmetry_equiv_pos_as_xyz
'x, y, z'
_cell_length_a     35.526435
_cell_length_b     35.534525
_cell_length_c     35.691966
_cell_angle_alpha  89.994298
_cell_angle_beta   90.067712
_cell_angle_gamma 90.026735
loop_
_atom_site_label
_atom_site_type_symbol
_atom_site_fract_x
_atom_site_fract_y
_atom_site_fract_z
_atom_type_partial_charge
C0 C 0.09887 0.06833 0.24861 0.0
C1 C 0.06651 0.08077 0.26736 0.0
C2 C 0.04377 0.1086 0.25064 0.0
C3 C 0.08737 0.11317 0.19861 0.0
C4 C 0.10858 0.08466 0.21435 0.0
C5 C 0.14234 0.07478 0.19112 0.0
H6 H 0.25091 0.10717 0.03954 0.0
C7 C 0.10658 0.1255 0.164 0.0
C8 C 0.1385 0.10274 0.15928 0.0
H9 H 0.26633 0.02455 0.12756 0.0
H10 H 0.2094 0.04482 0.15687 0.0
H11 H 0.23397 0.17151 0.09303 0.0
H12 H 0.15756 0.10064 0.0319 0.0
H13 H 0.14335 0.14798 0.02672 0.0
H14 H 0.18923 0.13383 0.01075 0.0
H15 H 0.22103 0.18198 0.04563 0.0
H16 H 0.19401 0.19926 0.08487 0.0
C17 C 0.1781 0.0822 0.21501 0.0
C18 C 0.13773 0.03357 0.17752 0.0
C19 C 0.06096 0.24168 0.09448 0.0
C20 C 0.0763 0.2629 0.06483 0.0
C21 C 0.10857 0.24894 0.04634 0.0
C22 C 0.12547 0.21516 0.05749 0.0
C23 C 0.1106 0.19522 0.08799 0.0
C24 C 0.07881 0.20845 0.10589 0.0
C25 C 0.06835 0.18472 0.13923 0.0
C26 C 0.09939 0.15536 0.13853 0.0
C27 C 0.12385 0.16152 0.10824 0.0
C28 C 0.07044 0.20991 0.17462 0.0
C29 C 0.02915 0.1671 0.13192 0.0
C30 C 0.24213 0.09338 0.06512 0.0
C31 C 0.26327 0.06365 0.08068 0.0
C32 C 0.25037 0.04667 0.11407 0.0
C33 C 0.21733 0.05883 0.13147 0.0
C34 C 0.19697 0.0888 0.11589 0.0
C35 C 0.20942 0.10565 0.08332 0.0
C36 C 0.18517 0.13856 0.07216 0.0
C37 C 0.15552 0.13776 0.10283 0.0
C38 C 0.16269 0.10857 0.12826 0.0
C39 C 0.20961 0.17478 0.07369 0.0
C40 C 0.16794 0.13016 0.03322 0.0
H41 H 0.036 0.14639 0.20524 0.0
H42 H 0.11648 0.04649 0.26053 0.0
H43 H 0.10755 0.02644 0.17306 0.0
H44 H 0.15111 0.02838 0.15007 0.0
H45 H 0.14918 0.01338 0.19837 0.0
H46 H 0.17413 0.10703 0.23358 0.0
H47 H 0.18477 0.05768 0.23314 0.0
H48 H 0.20307 0.08919 0.19798 0.0
H49 H 0.03598 0.25095 0.10913 0.0
H50 H 0.12175 0.26468 0.02396 0.0
H51 H 0.15006 0.20637 0.04248 0.0
H52 H 0.0951 0.22917 0.17314 0.0
H53 H 0.04477 0.22753 0.17735 0.0
H54 H 0.07438 0.19388 0.20076 0.0
H55 H 0.02529 0.16056 0.10166 0.0
H56 H 0.02531 0.13988 0.1464 0.0
H57 H 0.00626 0.18661 0.14033 0.0
H58 H 0.01866 0.11856 0.26468 0.0
C59 C 0.05404 0.12488 0.21632 0.0
C60 C 0.27321 0.91902 0.57231 0.0
C61 C 0.25279 0.94841 0.58888 0.0
C62 C 0.26831 0.96779 0.61965 0.0
C63 C 0.32261 0.9265 0.61874 0.0
C64 C 0.30809 0.90878 0.58743 0.0
C65 C 0.33343 0.87811 0.57318 0.0
H66 H 0.47618 0.7587 0.60664 0.0
C67 C 0.35822 0.90755 0.62877 0.0
C68 C 0.36505 0.87959 0.60183 0.0
H69 H 0.40358 0.76379 0.50922 0.0
H70 H 0.37611 0.82114 0.53209 0.0
H71 H 0.49817 0.84495 0.60272 0.0
H72 H 0.41651 0.78571 0.66914 0.0
H73 H 0.44312 0.81571 0.69839 0.0
H74 H 0.46657 0.77934 0.67263 0.0
H75 H 0.51094 0.82314 0.64619 0.0
H76 H 0.49372 0.87098 0.64431 0.0
C77 C 0.34714 0.88896 0.53335 0.0
C78 C 0.3113 0.84058 0.57498 0.0
C79 C 0.42285 0.93869 0.75203 0.0
C80 C 0.45531 0.92456 0.76982 0.0
C81 C 0.47708 0.8972 0.75105 0.0
C82 C 0.46605 0.88328 0.71602 0.0
C83 C 0.43294 0.89682 0.69931 0.0
C84 C 0.41245 0.92471 0.71684 0.0
C85 C 0.3789 0.93681 0.69408 0.0
C86 C 0.38249 0.91121 0.66019 0.0
C87 C 0.41382 0.8874 0.66381 0.0
C88 C 0.38382 0.97886 0.68352 0.0
C89 C 0.34304 0.92818 0.71717 0.0
C90 C 0.45476 0.77232 0.58986 0.0
C91 C 0.44126 0.75573 0.55662 0.0
C92 C 0.41357 0.77497 0.53564 0.0
C93 C 0.39769 0.80844 0.54885 0.0
C94 C 0.40962 0.82313 0.58334 0.0
C95 C 0.43881 0.80608 0.60244 0.0
C96 C 0.44944 0.82733 0.63736 0.0
C97 C 0.4206 0.85893 0.63678 0.0
C98 C 0.39688 0.85574 0.60548 0.0
C99 C 0.49021 0.84227 0.63275 0.0
C100 C 0.44387 0.80079 0.67134 0.0
H101 H 0.31319 0.97226 0.6586 0.0
H102 H 0.26214 0.90421 0.54816 0.0
H103 H 0.29687 0.8377 0.60248 0.0
H104 H 0.32927 0.8155 0.57222 0.0
H105 H 0.28948 0.83942 0.55269 0.0
H106 H 0.34546 0.91985 0.52849 0.0
H107 H 0.32991 0.87505 0.51135 0.0
H108 H 0.37718 0.88194 0.52889 0.0
H109 H 0.40529 0.95958 0.76547 0.0
H110 H 0.50276 0.88648 0.76343 0.0
H111 H 0.48354 0.8622 0.70347 0.0
H112 H 0.41409 0.9867 0.68174 0.0
H113 H 0.37051 0.99753 0.70465 0.0
H114 H 0.37229 0.98549 0.65548 0.0
H115 H 0.34514 0.89995 0.73051 0.0
H116 H 0.31719 0.92728 0.70012 0.0
H117 H 0.33914 0.94927 0.73981 0.0
H118 H 0.25294 0.9906 0.63272 0.0
C119 C 0.30312 0.95695 0.63471 0.0
C120 C 0.59272 0.26778 0.94876 0.0
C121 C 0.55975 0.24949 0.93658 0.0
C122 C 0.53699 0.26747 0.90945 0.0
C123 C 0.58145 0.31905 0.90525 0.0
C124 C 0.60268 0.30248 0.93315 0.0
C125 C 0.63652 0.32562 0.94351 0.0
H126 H 0.74626 0.47749 0.91228 0.0
C127 C 0.60077 0.35399 0.8936 0.0
C128 C 0.63267 0.3583 0.91645 0.0
H129 H 0.76155 0.38911 0.99448 0.0
H130 H 0.70362 0.36034 0.97488 0.0
H131 H 0.65327 0.48645 0.92003 0.0
H132 H 0.72825 0.42458 0.84864 0.0
H133 H 0.68844 0.43376 0.82112 0.0
H134 H 0.71613 0.47253 0.83882 0.0
H135 H 0.68441 0.50759 0.88645 0.0
H136 H 0.63812 0.49171 0.8732 0.0
C137 C 0.63216 0.33828 0.98487 0.0
C138 C 0.67223 0.30188 0.93552 0.0
C139 C 0.55765 0.42378 0.77689 0.0
C140 C 0.57346 0.4536 0.75611 0.0
C141 C 0.60486 0.47278 0.77112 0.0
C142 C 0.62084 0.46178 0.80532 0.0
C143 C 0.60583 0.4308 0.82464 0.0
C144 C 0.57452 0.41257 0.81058 0.0
C145 C 0.56346 0.37914 0.83407 0.0
C146 C 0.59387 0.37987 0.86401 0.0
C147 C 0.61843 0.41034 0.85843 0.0
C148 C 0.52388 0.38651 0.85068 0.0
C149 C 0.56598 0.34355 0.80913 0.0
C150 C 0.73726 0.45194 0.92615 0.0
C151 C 0.75879 0.43579 0.95517 0.0
C152 C 0.74543 0.40272 0.97258 0.0
C153 C 0.71185 0.38573 0.96086 0.0
C154 C 0.69143 0.40158 0.93106 0.0
C155 C 0.70412 0.43423 0.91435 0.0
C156 C 0.6799 0.44591 0.88174 0.0
C157 C 0.64998 0.41539 0.88237 0.0
C158 C 0.65696 0.38954 0.91125 0.0
C159 C 0.66306 0.4851 0.89046 0.0
C160 C 0.70423 0.44444 0.84563 0.0
H161 H 0.52943 0.31401 0.87296 0.0
H162 H 0.61113 0.25507 0.96936 0.0
H163 H 0.66863 0.28495 0.90953 0.0
H164 H 0.69753 0.31917 0.93045 0.0
H165 H 0.6781 0.28205 0.95886 0.0
H166 H 0.602 0.34197 0.9924 0.0
H167 H 0.64429 0.31717 0.00439 0.0
H168 H 0.64507 0.36603 0.99044 0.0
H169 H 0.53312 0.40878 0.76682 0.0
H170 H 0.61813 0.49549 0.75583 0.0
H171 H 0.64495 0.47721 0.81487 0.0
H172 H 0.51917 0.41709 0.85548 0.0
H173 H 0.50139 0.3764 0.83152 0.0
H174 H 0.52011 0.37342 0.87854 0.0
H175 H 0.59197 0.34425 0.79177 0.0
H176 H 0.56764 0.31716 0.82522 0.0
H177 H 0.5415 0.34174 0.78982 0.0
H178 H 0.51084 0.25484 0.90023 0.0
C179 C 0.54768 0.30203 0.89374 0.0
C180 C 0.9577 0.7354 0.43005 0.0
C181 C 0.94245 0.75573 0.46014 0.0
C182 C 0.91248 0.74008 0.48074 0.0
C183 C 0.91104 0.68635 0.43894 0.0
C184 C 0.94174 0.70083 0.42008 0.0
C185 C 0.9538 0.67629 0.388 0.0
H186 H 0.91033 0.53899 0.26606 0.0
C187 C 0.89935 0.65147 0.41968 0.0
C188 C 0.92467 0.64506 0.39018 0.0
H189 H 0.00914 0.61033 0.26756 0.0
H190 H 0.99067 0.63532 0.32735 0.0
H191 H 0.91939 0.51314 0.35017 0.0
H192 H 0.85004 0.59854 0.30002 0.0
H193 H 0.82249 0.57002 0.3299 0.0
H194 H 0.84609 0.54894 0.29091 0.0
H195 H 0.87375 0.50217 0.33172 0.0
H196 H 0.88003 0.51752 0.37963 0.0
C197 C 0.99416 0.66167 0.39602 0.0
C198 C 0.95009 0.69968 0.35153 0.0
C199 C 0.77503 0.58957 0.45382 0.0
C200 C 0.75564 0.55823 0.43928 0.0
C201 C 0.77338 0.53605 0.41163 0.0
C202 C 0.80862 0.54606 0.39723 0.0
C203 C 0.82656 0.57856 0.41058 0.0
C204 C 0.81043 0.59897 0.4393 0.0
C205 C 0.83464 0.63162 0.45117 0.0
C206 C 0.86754 0.62773 0.42427 0.0
C207 C 0.86217 0.59707 0.40003 0.0
C208 C 0.84678 0.62546 0.49245 0.0
C209 C 0.81204 0.66826 0.44429 0.0
C210 C 0.92828 0.55967 0.27938 0.0
C211 C 0.96063 0.57355 0.26123 0.0
C212 C 0.98332 0.60013 0.28007 0.0
C213 C 0.97267 0.61456 0.31493 0.0
C214 C 0.93893 0.60241 0.33134 0.0
C215 C 0.91818 0.57426 0.31445 0.0
C216 C 0.88439 0.56326 0.33741 0.0
C217 C 0.88749 0.59079 0.36992 0.0
C218 C 0.91906 0.61412 0.36566 0.0
C219 C 0.88931 0.52185 0.35032 0.0
C220 C 0.84871 0.57032 0.31347 0.0
H221 H 0.87339 0.69537 0.48651 0.0
H222 H 0.98121 0.74651 0.41421 0.0
H223 H 0.92282 0.71506 0.35103 0.0
H224 H 0.95039 0.68252 0.32586 0.0
H225 H 0.97304 0.72081 0.34945 0.0
H226 H 0.00064 0.66178 0.42654 0.0
H227 H 0.01569 0.67935 0.38192 0.0
H228 H 0.99791 0.63197 0.38736 0.0
H229 H 0.7625 0.60723 0.47513 0.0
H230 H 0.75985 0.51102 0.40074 0.0
H231 H 0.82023 0.52848 0.37576 0.0
H232 H 0.84791 0.59499 0.49958 0.0
H233 H 0.82678 0.63904 0.51215 0.0
H234 H 0.87557 0.63593 0.49813 0.0
H235 H 0.79742 0.66713 0.41672 0.0
H236 H 0.82976 0.69368 0.44323 0.0
H237 H 0.7903 0.67229 0.46628 0.0
H238 H 0.9003 0.75532 0.50405 0.0
C239 C 0.89673 0.70545 0.47033 0.0
C240 C 0.93783 0.79166 0.96662 0.0
C241 C 0.96475 0.77019 0.94731 0.0
C242 C 0.98386 0.78618 0.91668 0.0
C243 C 0.94644 0.84279 0.92234 0.0
C244 C 0.92883 0.82773 0.95344 0.0
C245 C 0.8979 0.85282 0.96786 0.0
H246 H 0.77533 0.9924 0.93073 0.0
C247 C 0.92764 0.87858 0.91297 0.0
C248 C 0.89921 0.8848 0.93956 0.0
H249 H 0.77734 0.91918 0.02721 0.0
H250 H 0.83812 0.89472 0.00815 0.0
H251 H 0.80153 0.93546 0.87249 0.0
H252 H 0.86612 0.01512 0.9366 0.0
H253 H 0.886 0.01406 0.89158 0.0
H254 H 0.83774 0.02899 0.89735 0.0
H255 H 0.8005 0.98513 0.86339 0.0
H256 H 0.835 0.95491 0.84203 0.0
C257 C 0.86048 0.83049 0.96582 0.0
C258 C 0.90863 0.86623 0.00775 0.0
C259 C 0.95988 0.94346 0.79058 0.0
C260 C 0.94233 0.97242 0.7701 0.0
C261 C 0.91282 0.99276 0.78707 0.0
C262 C 0.89997 0.98329 0.82296 0.0
C263 C 0.91629 0.95271 0.84195 0.0
C264 C 0.94614 0.93378 0.82597 0.0
C265 C 0.95859 0.90065 0.84903 0.0
C266 C 0.93146 0.90304 0.88176 0.0
C267 C 0.90677 0.93351 0.87743 0.0
C268 C 0.95283 0.86434 0.82533 0.0
C269 C -0.00031 0.9076 0.8617 0.0
C270 C 0.78928 0.97152 0.94797 0.0
C271 C 0.77168 0.95717 0.98009 0.0
C272 C 0.79058 0.93044 0.00228 0.0
C273 C 0.82554 0.91604 0.99094 0.0
C274 C 0.84139 0.92843 0.95702 0.0
C275 C 0.82416 0.95703 0.93715 0.0
C276 C 0.84552 0.96753 0.90241 0.0
C277 C 0.87772 0.9396 0.90395 0.0
C278 C 0.87472 0.91616 0.93552 0.0
C279 C 0.81948 0.96076 0.86813 0.0
C280 C 0.85948 0.00863 0.90681 0.0
H281 H 0.99026 0.83291 0.88055 0.0
H282 H 0.92268 0.77982 0.99016 0.0
H283 H 0.93971 0.86821 0.01112 0.0
H284 H 0.89816 0.89489 0.01385 0.0
H285 H 0.898 0.84647 0.02941 0.0
H286 H 0.85818 0.81537 0.93861 0.0
H287 H 0.85891 0.80922 0.98858 0.0
H288 H 0.83524 0.84834 0.96749 0.0
H289 H 0.98304 0.92758 0.77884 0.0
H290 H 0.89846 0.015 0.77203 0.0
H291 H 0.87681 -0.00077 0.83389 0.0
H292 H 0.9319 0.86858 0.8025 0.0
H293 H 0.97954 0.85517 0.81202 0.0
H294 H 0.94117 0.84076 0.84188 0.0
H295 H 0.00364 0.93739 0.87048 0.0
H296 H 0.00774 0.89053 0.88631 0.0
H297 H 0.01972 0.90185 0.83853 0.0
H298 H 0.00505 0.77017 0.90179 0.0
C299 C 0.97516 0.82252 0.90437 0.0
C300 C 0.72755 0.07682 0.46827 0.0
C301 C 0.74654 0.04486 0.4548 0.0
C302 C 0.72801 0.02124 0.42883 0.0
C303 C 0.67502 0.06404 0.42665 0.0
C304 C 0.69193 0.08564 0.45408 0.0
C305 C 0.66886 0.11952 0.46427 0.0
H306 H 0.52359 0.23527 0.42559 0.0
C307 C 0.63993 0.08311 0.41513 0.0
C308 C 0.63581 0.11522 0.43767 0.0
H309 H 0.61004 0.24854 0.5096 0.0
H310 H 0.63488 0.18701 0.49483 0.0
H311 H 0.50784 0.14139 0.43947 0.0
H312 H 0.5734 0.21074 0.36602 0.0
H313 H 0.56413 0.17013 0.33992 0.0
H314 H 0.52548 0.19918 0.35538 0.0
H315 H 0.48859 0.1713 0.40371 0.0
H316 H 0.50289 0.12369 0.39356 0.0
C317 C 0.65668 0.11557 0.50577 0.0
C318 C 0.69255 0.15517 0.45556 0.0
C319 C 0.57348 0.04335 0.2954 0.0
C320 C 0.54473 0.06045 0.27448 0.0
C321 C 0.52441 0.0906 0.28997 0.0
C322 C 0.53366 0.10469 0.3254 0.0
C323 C 0.5642 0.08908 0.34505 0.0
C324 C 0.58303 0.05836 0.33047 0.0
C325 C 0.61595 0.04683 0.35447 0.0
C326 C 0.61435 0.0764 0.38522 0.0
C327 C 0.58399 0.10104 0.37942 0.0
C328 C 0.60838 0.00678 0.36985 0.0
C329 C 0.65212 0.05021 0.33046 0.0
C330 C 0.54725 0.22426 0.44133 0.0
C331 C 0.56488 0.24614 0.46891 0.0
C332 C 0.59614 0.23174 0.48834 0.0
C333 C 0.61053 0.19617 0.47957 0.0
C334 C 0.59395 0.17527 0.45046 0.0
C335 C 0.56244 0.18908 0.43231 0.0
C336 C 0.55014 0.16416 0.40053 0.0
C337 C 0.57925 0.13295 0.40286 0.0
C338 C 0.60486 0.13976 0.43202 0.0
C339 C 0.51014 0.14939 0.40941 0.0
C340 C 0.55311 0.18701 0.36349 0.0
H341 H 0.6801 0.01202 0.39448 0.0
H342 H 0.74075 0.09571 0.48814 0.0
H343 H 0.71003 0.15095 0.43005 0.0
H344 H 0.67528 0.18017 0.44921 0.0
H345 H 0.71188 0.16197 0.47909 0.0
H346 H 0.65243 0.08551 0.51346 0.0
H347 H 0.67834 0.12729 0.52497 0.0
H348 H 0.6293 0.12912 0.5116 0.0
H349 H 0.58966 0.02037 0.28367 0.0
H350 H 0.50213 0.10398 0.27405 0.0
H351 H 0.51767 0.12819 0.33542 0.0
H352 H 0.5777 0.0017 0.37359 0.0
H353 H 0.61923 0.98489 0.35046 0.0
H354 H 0.62068 0.0024 0.398 0.0
H355 H 0.65176 0.07673 0.31387 0.0
H356 H 0.67817 0.0514 0.34712 0.0
H357 H 0.65443 0.02635 0.31049 0.0
H358 H 0.74138 0.99579 0.41878 0.0
C359 C 0.69236 0.03061 0.41479 0.0
C360 C 0.46021 0.56375 0.22887 0.0
C361 C 0.44093 0.53514 0.24809 0.0
C362 C 0.41007 0.51736 0.23078 0.0
C363 C 0.41556 0.55926 0.17755 0.0
C364 C 0.44685 0.57563 0.19387 0.0
C365 C 0.46115 0.60869 0.17167 0.0
H366 H 0.42516 0.7407 0.04083 0.0
C367 C 0.40614 0.58091 0.14351 0.0
C368 C 0.43281 0.60989 0.13978 0.0
H369 H 0.52056 0.73493 0.11559 0.0
H370 H 0.50102 0.67281 0.1362 0.0
H371 H 0.36511 0.70985 0.09544 0.0
H372 H 0.43218 0.65376 0.01239 0.0
H373 H 0.38828 0.63108 0.01196 0.0
H374 H 0.39116 0.68046 0.00012 0.0
H375 H 0.35778 0.71546 0.04599 0.0
H376 H 0.33535 0.6783 0.07191 0.0
C377 C 0.45884 0.64406 0.19697 0.0
C378 C 0.50129 0.59943 0.15755 0.0
C379 C 0.28405 0.55324 0.07454 0.0
C380 C 0.26481 0.57245 0.04596 0.0
C381 C 0.28236 0.60303 0.02799 0.0
C382 C 0.31808 0.61523 0.03925 0.0
C383 C 0.33614 0.59711 0.0693 0.0
C384 C 0.31949 0.56619 0.08591 0.0
C385 C 0.34207 0.55159 0.11849 0.0
C386 C 0.37512 0.57874 0.11849 0.0
C387 C 0.37128 0.60543 0.0898 0.0
C388 C 0.31768 0.55514 0.15443 0.0
C389 C 0.35471 0.51096 0.10923 0.0
C390 C 0.44196 0.72576 0.06137 0.0
C391 C 0.47395 0.74258 0.07718 0.0
C392 C 0.49567 0.72233 0.10329 0.0
C393 C 0.4841 0.68655 0.11538 0.0
C394 C 0.45046 0.67115 0.10122 0.0
C395 C 0.43093 0.69006 0.07351 0.0
C396 C 0.39651 0.66913 0.0608 0.0
C397 C 0.39778 0.63508 0.08636 0.0
C398 C 0.42898 0.63674 0.11052 0.0
C399 C 0.36171 0.69432 0.06858 0.0
C400 C 0.40192 0.65814 0.0191 0.0
H401 H 0.37344 0.51485 0.18403 0.0
H402 H 0.48378 0.57811 0.24182 0.0
H403 H 0.50444 0.56879 0.15195 0.0
H404 H 0.50782 0.61322 0.13056 0.0
H405 H 0.5229 0.60744 0.17861 0.0
H406 H 0.43195 0.64432 0.21293 0.0
H407 H 0.48231 0.64457 0.21755 0.0
H408 H 0.45915 0.67072 0.18128 0.0
H409 H 0.2709 0.52997 0.08916 0.0
H410 H 0.26802 0.61799 0.0057 0.0
H411 H 0.32962 0.63913 0.02496 0.0
H412 H 0.29653 0.57808 0.15179 0.0
H413 H 0.30209 0.52867 0.16023 0.0
H414 H 0.33427 0.56294 0.17945 0.0
H415 H 0.36346 0.50872 0.07938 0.0
H416 H 0.37949 0.50193 0.12563 0.0
H417 H 0.33141 0.49063 0.11383 0.0
H418 H 0.39507 0.49503 0.24509 0.0
C419 C 0.39754 0.52899 0.19543 0.0
C420 C 0.04351 0.28749 0.58477 0.0
C421 C 0.0571 0.26756 0.55349 0.0
C422 C 0.08344 0.28518 0.52968 0.0
C423 C 0.08711 0.33838 0.57165 0.0
C424 C 0.05873 0.32294 0.59313 0.0
C425 C 0.04879 0.34756 0.626 0.0
H426 H 0.09909 0.48845 0.7422 0.0
C427 C 0.10013 0.37312 0.59007 0.0
C428 C 0.07716 0.37933 0.62143 0.0
H429 H 0.00208 0.41557 0.75039 0.0
H430 H 0.01622 0.38904 0.68959 0.0
H431 H 0.08671 0.51097 0.65745 0.0
H432 H 0.15629 0.42615 0.70848 0.0
H433 H 0.18347 0.4515 0.67586 0.0
H434 H 0.16292 0.47589 0.71471 0.0
H435 H 0.13217 0.52218 0.67629 0.0
H436 H 0.12636 0.50649 0.62843 0.0
C437 C 0.00772 0.36145 0.62103 0.0
C438 C 0.05565 0.32466 0.6623 0.0
C439 C 0.22588 0.42924 0.55226 0.0
C440 C 0.24711 0.45939 0.56641 0.0
C441 C 0.23137 0.48287 0.59403 0.0
C442 C 0.19572 0.47513 0.60887 0.0
C443 C 0.17573 0.4435 0.59606 0.0
C444 C 0.1902 0.42204 0.56721 0.0
C445 C 0.16409 0.39074 0.55584 0.0
C446 C 0.13225 0.39604 0.5838 0.0
C447 C 0.1397 0.42648 0.60774 0.0
C448 C 0.15104 0.39772 0.51491 0.0
C449 C 0.18514 0.35302 0.56174 0.0
C450 C 0.08091 0.46682 0.73074 0.0
C451 C 0.04985 0.45358 0.75115 0.0
C452 C 0.02622 0.4261 0.7351 0.0
C453 C 0.03463 0.41056 0.7 0.0
C454 C 0.06705 0.42255 0.68089 0.0
C455 C 0.08883 0.45113 0.69571 0.0
C456 C 0.12155 0.46108 0.67099 0.0
C457 C 0.11622 0.43321 0.63917 0.0
C458 C 0.08471 0.4102 0.64555 0.0
C459 C 0.11682 0.50236 0.65767 0.0
C460 C 0.15814 0.45354 0.69347 0.0
H461 H 0.11912 0.33186 0.51995 0.0
H462 H 0.02292 0.27508 0.60338 0.0
H463 H 0.08326 0.30996 0.66099 0.0
H464 H 0.05666 0.34215 0.68774 0.0
H465 H 0.03342 0.30301 0.66618 0.0
H466 H -0.00082 0.36165 0.59102 0.0
H467 H 0.98758 0.3431 0.63627 0.0
H468 H 0.004 0.39091 0.63041 0.0
H469 H 0.2371 0.41138 0.53036 0.0
H470 H 0.24727 0.5064 0.60512 0.0
H471 H 0.18556 0.49342 0.63049 0.0
H472 H 0.15481 0.42762 0.50641 0.0
H473 H 0.16719 0.38017 0.49481 0.0
H474 H 0.12056 0.3922 0.51114 0.0
H475 H 0.19855 0.35229 0.58992 0.0
H476 H 0.1667 0.32818 0.56036 0.0
H477 H 0.20765 0.3494 0.54047 0.0
H478 H 0.09332 0.27118 0.50459 0.0
C479 C 0.0984 0.32045 0.53855 0.0
O480 O 0.98954 0.09635 0.54265 0.0
Zn481 Zn 0.97051 0.04247 0.54307 0.0
O482 O 0.00404 0.009 0.51457 0.0
Zn483 Zn 0.97828 0.99046 0.47008 0.0
Zn484 Zn 0.04882 0.0364 0.49922 0.0
Zn485 Zn 0.01902 0.96621 0.54528 0.0
O486 O 0.9782 0.93389 0.46816 0.0
O487 O 0.00086 0.91723 0.52372 0.0
O488 O 0.91758 0.04108 0.5218 0.0
O489 O 0.92434 0.00615 0.47063 0.0
O490 O 0.00123 0.01066 0.42277 0.0
O491 O 0.05318 0.03879 0.44309 0.0
O492 O 0.09615 0.01397 0.52059 0.0
O493 O 0.9675 0.02583 0.5971 0.0
O494 O 0.0754 0.96318 0.55035 0.0
O495 O 0.99798 0.97121 0.59703 0.0
C496 C 0.0209 0.1101 0.53198 0.0
C497 C 0.98644 0.9087 0.49219 0.0
C498 C 0.03154 0.02866 0.41647 0.0
C499 C 0.9039 0.02552 0.49261 0.0
C500 C 0.10224 0.98445 0.53986 0.0
C501 C 0.97906 0.9964 0.61396 0.0
O502 O 0.04578 0.08966 0.51642 0.0
O503 O 0.50209 0.07971 0.97447 0.0
Zn504 Zn 0.48088 0.02827 0.98365 0.0
O505 O 0.51238 -0.00024 0.01853 0.0
Zn506 Zn 0.53535 0.95746 0.99236 0.0
Zn507 Zn 0.5514 0.03291 0.03894 0.0
Zn508 Zn 0.48156 0.97996 0.05912 0.0
O509 O 0.52419 0.90776 0.01743 0.0
O510 O 0.4818 0.92363 0.0602 0.0
O511 O 0.47724 0.00231 0.9336 0.0
O512 O 0.51573 0.95346 0.93969 0.0
O513 O 0.59122 0.96376 0.99038 0.0
O514 O 0.60339 0.01257 0.0275 0.0
O515 O 0.54619 0.03791 0.09479 0.0
O516 O 0.42845 0.03503 0.00424 0.0
O517 O 0.50022 0.99807 0.10934 0.0
O518 O 0.42809 0.99719 0.05388 0.0
C519 C 0.52798 0.09883 0.99011 0.0
C520 C 0.50101 0.89881 0.0431 0.0
C521 C 0.61442 0.98575 0.00653 0.0
C522 C 0.49287 0.97299 0.92027 0.0
C523 C 0.52536 0.02174 0.11895 0.0
C524 C 0.41142 0.01976 0.03169 0.0
O525 O 0.54826 0.08498 0.01616 0.0
O526 O 0.53905 0.51612 0.5879 0.0
Zn527 Zn 0.53499 0.53547 0.53461 0.0
O528 O 0.50279 0.50196 0.50436 0.0
Zn529 Zn 0.53174 0.48182 0.46264 0.0
Zn530 Zn 0.48388 0.46027 0.53482 0.0
Zn531 Zn 0.46003 0.52975 0.48438 0.0
O532 O 0.50813 0.49369 0.41278 0.0
O533 O 0.45756 0.52689 0.42813 0.0
O534 O 0.58782 0.53897 0.51292 0.0
O535 O 0.58336 0.50357 0.46185 0.0
O536 O 0.53724 0.42581 0.46682 0.0
O537 O 0.50018 0.41016 0.5144 0.0
O538 O 0.42722 0.46045 0.53822 0.0
O539 O 0.51338 0.58826 0.5361 0.0
O540 O 0.41111 0.51027 0.50435 0.0
O541 O 0.46279 0.58367 0.49972 0.0
C542 C 0.5258 0.48709 0.60426 0.0
C543 C 0.47863 0.51176 0.40356 0.0
C544 C 0.52244 0.40111 0.48801 0.0
C545 C 0.60221 0.52509 0.48327 0.0
C546 C 0.40227 0.48248 0.52497 0.0
C547 C 0.48464 0.60296 0.52046 0.0
O548 O 0.50477 0.46374 0.58704 0.0
O549 O 0.97609 0.50423 0.09253 0.0
Zn550 Zn 0.97809 0.48208 0.04037 0.0
O551 O 0.00807 0.5136 0.00629 0.0
Zn552 Zn 0.97716 0.53163 0.9647 0.0
Zn553 Zn 0.02757 0.55688 0.03367 0.0
Zn554 Zn 0.04996 0.48433 0.98607 0.0
O555 O 0.99685 0.51402 0.91495 0.0
O556 O 0.0488 0.48278 0.92982 0.0
O557 O 0.92476 0.47665 0.02089 0.0
O558 O 0.92495 0.51112 0.9689 0.0
O559 O 0.97484 0.58834 0.96313 0.0
O560 O 0.00926 0.60569 0.01211 0.0
O561 O 0.08405 0.55788 0.03254 0.0
O562 O 0.00051 0.42992 0.04482 0.0
O563 O 0.09994 0.50599 0.00169 0.0
O564 O 0.04784 0.43095 0.00412 0.0
C565 C 0.99083 0.53363 0.10677 0.0
C566 C 0.02577 0.49523 0.90547 0.0
C567 C 0.98883 0.61386 0.98398 0.0
C568 C 0.90807 0.48975 0.99205 0.0
C569 C 0.10893 0.53574 0.01943 0.0
C570 C 0.02749 0.41362 0.02784 0.0
O571 O 0.0111 0.55572 0.08728 0.0
C572 C 0.08575 0.0646 0.33267 0.0
C573 C 0.05762 0.06596 0.30503 0.0
H574 H 0.09957 0.05181 0.38959 0.0
C575 C 0.02112 0.05371 0.31383 0.0
H576 H 0.11407 0.07416 0.32663 0.0
C577 C 0.01287 0.04049 0.34979 0.0
C578 C 0.04085 0.0399 0.37771 0.0
H579 H -0.00097 0.05429 0.29289 0.0
H580 H 0.98438 0.03158 0.35592 0.0
C581 C 0.07741 0.05193 0.36871 0.0
C582 C 0.45961 0.97488 0.81939 0.0
C583 C 0.46589 0.93745 0.8081 0.0
H584 H 0.46299 0.01541 0.86367 0.0
C585 C 0.4816 0.91209 0.83404 0.0
H586 H 0.4482 0.99541 0.80006 0.0
C587 C 0.4908 0.92381 0.87024 0.0
C588 C 0.48397 0.96101 0.88161 0.0
H589 H 0.48613 0.88287 0.82673 0.0
H590 H 0.50258 0.90344 0.88956 0.0
C591 C 0.46827 0.98644 0.85582 0.0
C592 C 0.56029 0.50007 0.70409 0.0
C593 C 0.55903 0.46295 0.71794 0.0
H594 H 0.55107 0.53681 0.65731 0.0
C595 C 0.5455 0.43431 0.69422 0.0
H596 H 0.56983 0.52303 0.72162 0.0
C597 C 0.53391 0.44244 0.65773 0.0
C598 C 0.53619 0.47928 0.64366 0.0
H599 H 0.54486 0.40526 0.70332 0.0
H600 H 0.52422 0.41954 0.64016 0.0
C601 C 0.54933 0.50807 0.66726 0.0
C602 C 0.98407 0.5891 0.19685 0.0
C603 C 0.96953 0.56236 0.22204 0.0
H604 H 0.00226 0.60101 0.14113 0.0
C605 C 0.96235 0.52568 0.20896 0.0
H606 H 0.98907 0.61788 0.20551 0.0
C607 C 0.96922 0.51617 0.17152 0.0
C608 C 0.9838 0.54304 0.14652 0.0
H609 H 0.95157 0.50422 0.22763 0.0
H610 H 0.96332 0.48775 0.16224 0.0
C611 C 0.99136 0.5795 0.15971 0.0
C612 C 0.31163 0.01386 0.06687 0.0
C613 C 0.29959 0.05148 0.06372 0.0
H614 H 0.35666 0.9745 0.05957 0.0
C615 C 0.32372 0.07773 0.04645 0.0
H616 H 0.29353 0.99251 0.07884 0.0
C617 C 0.35945 0.06692 0.03412 0.0
C618 C 0.37208 0.02993 0.03962 0.0
H619 H 0.31584 0.10703 0.04388 0.0
H620 H 0.37792 0.08797 0.02211 0.0
C621 C 0.34768 0.00336 0.05551 0.0
C622 C 0.20511 0.99483 0.56583 0.0
C623 C 0.21467 0.95769 0.57515 0.0
H624 H 0.16203 0.03235 0.54662 0.0
C625 C 0.18736 0.92929 0.57206 0.0
H626 H 0.22581 0.01713 0.56792 0.0
C627 C 0.15083 0.93798 0.56051 0.0
C628 C 0.14116 0.97514 0.55112 0.0
H629 H 0.1941 0.90046 0.57935 0.0
H630 H 0.1302 0.91559 0.55883 0.0
C631 C 0.16875 0.00343 0.55351 0.0
C632 C 0.80954 0.45009 0.00266 0.0
C633 C 0.7961 0.45185 0.96555 0.0
H634 H 0.85554 0.46054 0.04022 0.0
C635 C 0.81941 0.46763 0.93786 0.0
H636 H 0.79219 0.43876 0.02488 0.0
C637 C 0.85522 0.48088 0.94686 0.0
C638 C 0.86902 0.47811 0.98366 0.0
H639 H 0.8106 0.46874 0.90884 0.0
H640 H 0.87258 0.4922 0.92461 0.0
C641 C 0.84575 0.46279 0.01155 0.0
C642 C 0.69016 0.5363 0.425 0.0
C643 C 0.71645 0.54966 0.45129 0.0
H644 H 0.63392 0.51814 0.41448 0.0
C645 C 0.70459 0.55552 0.48849 0.0
H646 H 0.69781 0.53244 0.3959 0.0
C647 C 0.66735 0.54804 0.49904 0.0
C648 C 0.64142 0.53414 0.4727 0.0
H649 H 0.72412 0.56545 0.50959 0.0
H650 H 0.65905 0.55258 0.52787 0.0
C651 C 0.65329 0.52838 0.43561 0.0
C652 C 0.06278 0.31394 0.0176 0.0
C653 C 0.06035 0.30039 0.0546 0.0
H654 H 0.0547 0.36049 0.98032 0.0
C655 C 0.0444 0.32393 0.08214 0.0
H656 H 0.0738 0.29649 0.99531 0.0
C657 C 0.03218 0.3602 0.0731 0.0
C658 C 0.03651 0.3741 0.03659 0.0
H659 H 0.04258 0.31504 0.11108 0.0
H660 H 0.02092 0.37796 0.09506 0.0
C661 C 0.05152 0.35054 0.00884 0.0
C662 C 0.55914 0.20075 0.98804 0.0
C663 C 0.54994 0.21137 0.95111 0.0
H664 H 0.55985 0.15681 0.02918 0.0
C665 C 0.53261 0.18466 0.92762 0.0
H666 H 0.57173 0.22064 0.00731 0.0
C667 C 0.5249 0.1484 0.94059 0.0
C668 C 0.53502 0.13766 0.9771 0.0
H669 H 0.52579 0.19132 0.89881 0.0
H670 H 0.5119 0.12845 0.92162 0.0
C671 C 0.55215 0.16419 0.00073 0.0
C672 C 0.95959 0.8205 0.43923 0.0
C673 C 0.95603 0.79418 0.46837 0.0
H674 H 0.97183 0.87738 0.42392 0.0
C675 C 0.96401 0.80532 0.50526 0.0
H676 H 0.95324 0.81269 0.41057 0.0
C677 C 0.97499 0.84231 0.51291 0.0
C678 C 0.97756 0.86894 0.48386 0.0
H679 H 0.96163 0.78546 0.52816 0.0
H680 H 0.98053 0.85025 0.5417 0.0
C681 C 0.97001 0.85757 0.44691 0.0
C682 C 0.49073 0.70482 0.55201 0.0
C683 C 0.45375 0.71741 0.54524 0.0
H684 H 0.52961 0.6587 0.54962 0.0
C685 C 0.42778 0.69226 0.52916 0.0
H686 H 0.51165 0.72351 0.56388 0.0
C687 C 0.43828 0.65557 0.52035 0.0
C688 C 0.47487 0.64271 0.52793 0.0
H689 H 0.39881 0.70042 0.52437 0.0
H690 H 0.41722 0.63693 0.50857 0.0
C691 C 0.50111 0.66775 0.54368 0.0
C692 C 0.96253 0.94882 0.70706 0.0
C693 C 0.95279 0.97926 0.73033 0.0
H694 H 0.97856 0.93044 0.65242 0.0
C695 C 0.95184 0.01567 0.71483 0.0
H696 H 0.96256 0.92024 0.71757 0.0
C697 C 0.96013 0.02137 0.67694 0.0
C698 C 0.97007 0.99086 0.65396 0.0
H699 H 0.94489 0.03983 0.73196 0.0
H700 H 0.95915 0.0497 0.66576 0.0
C701 C 0.97139 0.9546 0.6695 0.0
C702 C 0.54865 0.07606 0.2069 0.0
C703 C 0.53904 0.05016 0.23495 0.0
H704 H 0.55234 0.08707 0.14812 0.0
C705 C 0.52497 0.0147 0.22493 0.0
H706 H 0.55979 0.10349 0.21422 0.0
C707 C 0.52003 0.00548 0.18711 0.0
C708 C 0.53006 0.03128 0.15892 0.0
H709 H 0.51756 0.99437 0.24631 0.0
H710 H 0.50892 0.97801 0.17992 0.0
C711 C 0.54457 0.06657 0.16921 0.0
C712 C 0.48778 0.51882 0.29806 0.0
C713 C 0.45053 0.52659 0.28746 0.0
H714 H 0.52583 0.50735 0.34327 0.0
C715 C 0.42247 0.52836 0.31507 0.0
H716 H 0.50985 0.51739 0.27719 0.0
C717 C 0.43161 0.52334 0.35277 0.0
C718 C 0.46889 0.51579 0.36353 0.0
H719 H 0.39361 0.53474 0.30758 0.0
H720 H 0.40948 0.52547 0.37352 0.0
C721 C 0.49682 0.51302 0.33576 0.0
C722 C 0.07377 0.46563 0.81573 0.0
C723 C 0.04378 0.46635 0.79007 0.0
H724 H 0.09152 0.47398 0.87239 0.0
C725 C 0.00804 0.47782 0.80225 0.0
H726 H 0.10153 0.45653 0.80707 0.0
C727 C 0.00235 0.48822 0.83959 0.0
C728 C 0.03218 0.4866 0.86551 0.0
H729 H 0.98454 0.47869 0.7829 0.0
H730 H 0.97441 0.49662 0.84834 0.0
C731 C 0.06797 0.4754 0.85313 0.0
C732 C 0.72006 0.98186 0.0213 0.0
C733 C 0.73184 0.96616 0.9872 0.0
H734 H 0.6732 0.00133 0.05396 0.0
C735 C 0.70507 0.95768 0.95956 0.0
H736 H 0.74039 0.98849 0.04297 0.0
C737 C 0.66699 0.96418 0.96601 0.0
C738 C 0.65497 0.97999 -1e-05 0.0
H739 H 0.7136 0.94527 0.93316 0.0
H740 H 0.64693 0.95694 0.94429 0.0
C741 C 0.68183 0.98926 0.02747 0.0
C742 C 0.81215 0.02465 0.43878 0.0
C743 C 0.7864 0.03789 0.46557 0.0
H744 H 0.86915 0.0105 0.42625 0.0
C745 C 0.79963 0.04653 0.50177 0.0
H746 H 0.80328 0.0185 0.4104 0.0
C747 C 0.8378 0.04271 0.51067 0.0
C748 C 0.86345 0.02974 0.48368 0.0
H749 H 0.78052 0.05632 0.52329 0.0
H750 H 0.84714 0.04973 0.53871 0.0
C751 C 0.85011 0.02042 0.44778 0.0
C752 C 0.19774 0.59118 0.0381 0.0
C753 C 0.2253 0.56291 0.03729 0.0
H754 H 0.13928 0.60464 0.03348 0.0
C755 C 0.21457 0.52562 0.02991 0.0
H756 H 0.20533 0.62009 0.04416 0.0
C757 C 0.17677 0.51678 0.02336 0.0
C758 C 0.14907 0.54499 0.02493 0.0
H759 H 0.23542 0.50339 0.0292 0.0
H760 H 0.16915 0.48778 0.01785 0.0
C761 C 0.15996 0.58227 0.03228 0.0
C762 C 0.31204 0.43506 0.55561 0.0
C763 C 0.28636 0.46505 0.55408 0.0
H764 H 0.36907 0.41717 0.54802 0.0
C765 C 0.29876 0.50057 0.5422 0.0
H766 H 0.30311 0.40747 0.56501 0.0
C767 C 0.33632 0.50603 0.53202 0.0
C768 C 0.36228 0.47623 0.5343 0.0
H769 H 0.27938 0.52407 0.54077 0.0
H770 H 0.34519 0.5338 0.52311 0.0
C771 C 0.34975 0.44067 0.54613 0.0
C772 C 0.97978 0.71965 0.99388 0.0
C773 C 0.97093 0.73029 0.95707 0.0
H774 H 0.99289 0.67429 0.03122 0.0
C775 C 0.96734 0.70247 0.92935 0.0
H776 H 0.98261 0.74068 0.01568 0.0
C777 C 0.9725 0.66458 0.93826 0.0
C778 C 0.98202 0.65385 0.97493 0.0
H779 H 0.96013 0.71005 0.90083 0.0
H780 H 0.96961 0.64375 0.91628 0.0
C781 C 0.98571 0.68176 0.00267 0.0
C782 C 0.51641 0.79362 0.05333 0.0
C783 C 0.48205 0.78243 0.06912 0.0
H784 H 0.54927 0.83956 0.032 0.0
C785 C 0.45453 0.80959 0.07697 0.0
H786 H 0.53795 0.77299 0.04708 0.0
C787 C 0.46111 0.84741 0.06907 0.0
C788 C 0.4951 0.85877 0.05249 0.0
H789 H 0.4279 0.80149 0.08937 0.0
H790 H 0.43922 0.86766 0.07533 0.0
C791 C 0.52275 0.83154 0.04464 0.0
C792 C 0.01005 0.2142 0.55419 0.0
C793 C 0.04671 0.22752 0.54732 0.0
H794 H 0.97293 0.16652 0.55475 0.0
C795 C 0.07443 0.20185 0.53576 0.0
H796 H 0.98801 0.23328 0.56299 0.0
C797 C 0.0658 0.16399 0.53078 0.0
C798 C 0.02924 0.15053 0.53756 0.0
H799 H 0.10321 0.21081 0.53121 0.0
H800 H 0.08809 0.14519 0.52197 0.0
C801 C 0.0014 0.17601 0.5494 0.0
C802 C 0.51877 0.29462 0.49025 0.0
C803 C 0.55361 0.28552 0.47426 0.0
H804 H 0.48165 0.33883 0.50768 0.0
C805 C 0.57778 0.31429 0.46237 0.0
H806 H 0.49977 0.27261 0.49938 0.0
C807 C 0.56725 0.35186 0.46626 0.0
C808 C 0.53265 0.36125 0.4828 0.0
H809 H 0.60469 0.30763 0.44972 0.0
H810 H 0.58649 0.37355 0.45687 0.0
C811 C 0.50853 0.33232 0.49494 0.0
loop_
_geom_bond_atom_site_label_1
_geom_bond_atom_site_label_2
_geom_bond_distance
_geom_bond_site_symmetry_2
_ccdc_geom_bond_type
C0 C1 1.391 . S
C0 C4 1.391 . S
C0 H42 0.948 . S
C1 C0 1.391 . S
C1 C2 1.391 . S
C2 C1 1.391 . S
C2 H58 0.947 . S
C2 C59 1.392 . S
C3 C4 1.391 . S
C3 C7 1.397 . S
C3 C59 1.419 . S
C4 C0 1.391 . S
C4 C3 1.391 . S
C4 C5 1.399 . S
C5 C4 1.399 . S
C5 C8 1.396 . S
C5 C17 1.453 . S
C5 C18 1.684 . S
H6 C30 0.948 . S
C7 C3 1.397 . S
C7 C8 1.394 . S
C7 C26 1.723 . S
C8 C5 1.396 . S
C8 C7 1.394 . S
C8 C38 1.723 . S
H9 C32 0.947 . S
H10 C33 0.948 . S
H11 C39 0.982 . S
H12 C40 0.979 . S
H13 C40 0.980 . S
H14 C40 0.983 . S
H15 C39 0.979 . S
H16 C39 0.977 . S
C17 C5 1.453 . S
C17 H46 0.982 . S
C17 H47 0.979 . S
C17 H48 0.977 . S
C18 C5 1.684 . S
C18 H43 0.979 . S
C18 H44 0.980 . S
C18 H45 0.983 . S
C19 C20 1.391 . S
C19 C24 1.391 . S
C19 H49 0.948 . S
C20 C19 1.391 . S
C20 C21 1.391 . S
C21 C20 1.391 . S
C21 C22 1.392 . S
C21 H50 0.947 . S
C22 C21 1.392 . S
C22 C23 1.419 . S
C22 H51 0.948 . S
C23 C22 1.419 . S
C23 C24 1.391 . S
C23 C27 1.397 . S
C24 C19 1.391 . S
C24 C23 1.391 . S
C24 C25 1.399 . S
C25 C24 1.399 . S
C25 C26 1.396 . S
C25 C28 1.453 . S
C25 C29 1.684 . S
C26 C7 1.723 . S
C26 C25 1.396 . S
C26 C27 1.394 . S
C27 C23 1.397 . S
C27 C26 1.394 . S
C27 C37 1.723 . S
C28 C25 1.453 . S
C28 H52 0.982 . S
C28 H53 0.979 . S
C28 H54 0.977 . S
C29 C25 1.684 . S
C29 H55 0.979 . S
C29 H56 0.980 . S
C29 H57 0.983 . S
C30 H6 0.948 . S
C30 C31 1.391 . S
C30 C35 1.391 . S
C31 C30 1.391 . S
C31 C32 1.391 . S
C32 H9 0.947 . S
C32 C31 1.391 . S
C32 C33 1.392 . S
C33 H10 0.948 . S
C33 C32 1.392 . S
C33 C34 1.419 . S
C34 C33 1.419 . S
C34 C35 1.391 . S
C34 C38 1.397 . S
C35 C30 1.391 . S
C35 C34 1.391 . S
C35 C36 1.399 . S
C36 C35 1.399 . S
C36 C37 1.396 . S
C36 C39 1.453 . S
C36 C40 1.684 . S
C37 C27 1.723 . S
C37 C36 1.396 . S
C37 C38 1.394 . S
C38 C8 1.723 . S
C38 C34 1.397 . S
C38 C37 1.394 . S
C39 H11 0.982 . S
C39 H15 0.979 . S
C39 H16 0.977 . S
C39 C36 1.453 . S
C40 H12 0.979 . S
C40 H13 0.980 . S
C40 H14 0.983 . S
C40 C36 1.684 . S
H41 C59 0.948 . S
H42 C0 0.948 . S
H43 C18 0.979 . S
H44 C18 0.980 . S
H45 C18 0.983 . S
H46 C17 0.982 . S
H47 C17 0.979 . S
H48 C17 0.977 . S
H49 C19 0.948 . S
H50 C21 0.947 . S
H51 C22 0.948 . S
H52 C28 0.982 . S
H53 C28 0.979 . S
H54 C28 0.977 . S
H55 C29 0.979 . S
H56 C29 0.980 . S
H57 C29 0.983 . S
H58 C2 0.947 . S
C59 C2 1.392 . S
C59 C3 1.419 . S
C59 H41 0.948 . S
C60 C61 1.391 . S
C60 C64 1.391 . S
C60 H102 0.948 . S
C61 C60 1.391 . S
C61 C62 1.391 . S
C62 C61 1.391 . S
C62 H118 0.947 . S
C62 C119 1.392 . S
C63 C64 1.391 . S
C63 C67 1.397 . S
C63 C119 1.419 . S
C64 C60 1.391 . S
C64 C63 1.391 . S
C64 C65 1.399 . S
C65 C64 1.399 . S
C65 C68 1.396 . S
C65 C77 1.453 . S
C65 C78 1.684 . S
H66 C90 0.948 . S
C67 C63 1.397 . S
C67 C68 1.394 . S
C67 C86 1.723 . S
C68 C65 1.396 . S
C68 C67 1.394 . S
C68 C98 1.723 . S
H69 C92 0.947 . S
H70 C93 0.948 . S
H71 C99 0.982 . S
H72 C100 0.979 . S
H73 C100 0.980 . S
H74 C100 0.983 . S
H75 C99 0.979 . S
H76 C99 0.977 . S
C77 C65 1.453 . S
C77 H106 0.982 . S
C77 H107 0.979 . S
C77 H108 0.977 . S
C78 C65 1.684 . S
C78 H103 0.979 . S
C78 H104 0.980 . S
C78 H105 0.983 . S
C79 C80 1.391 . S
C79 C84 1.391 . S
C79 H109 0.948 . S
C80 C79 1.391 . S
C80 C81 1.391 . S
C81 C80 1.391 . S
C81 C82 1.392 . S
C81 H110 0.947 . S
C82 C81 1.392 . S
C82 C83 1.419 . S
C82 H111 0.948 . S
C83 C82 1.419 . S
C83 C84 1.391 . S
C83 C87 1.397 . S
C84 C79 1.391 . S
C84 C83 1.391 . S
C84 C85 1.399 . S
C85 C84 1.399 . S
C85 C86 1.396 . S
C85 C88 1.453 . S
C85 C89 1.684 . S
C86 C67 1.723 . S
C86 C85 1.396 . S
C86 C87 1.394 . S
C87 C83 1.397 . S
C87 C86 1.394 . S
C87 C97 1.723 . S
C88 C85 1.453 . S
C88 H112 0.982 . S
C88 H113 0.979 . S
C88 H114 0.977 . S
C89 C85 1.684 . S
C89 H115 0.979 . S
C89 H116 0.980 . S
C89 H117 0.983 . S
C90 H66 0.948 . S
C90 C91 1.391 . S
C90 C95 1.391 . S
C91 C90 1.391 . S
C91 C92 1.391 . S
C92 H69 0.947 . S
C92 C91 1.391 . S
C92 C93 1.392 . S
C93 H70 0.948 . S
C93 C92 1.392 . S
C93 C94 1.419 . S
C94 C93 1.419 . S
C94 C95 1.391 . S
C94 C98 1.397 . S
C95 C90 1.391 . S
C95 C94 1.391 . S
C95 C96 1.399 . S
C96 C95 1.399 . S
C96 C97 1.396 . S
C96 C99 1.453 . S
C96 C100 1.684 . S
C97 C87 1.723 . S
C97 C96 1.396 . S
C97 C98 1.394 . S
C98 C68 1.723 . S
C98 C94 1.397 . S
C98 C97 1.394 . S
C99 H71 0.982 . S
C99 H75 0.979 . S
C99 H76 0.977 . S
C99 C96 1.453 . S
C100 H72 0.979 . S
C100 H73 0.980 . S
C100 H74 0.983 . S
C100 C96 1.684 . S
H101 C119 0.948 . S
H102 C60 0.948 . S
H103 C78 0.979 . S
H104 C78 0.980 . S
H105 C78 0.983 . S
H106 C77 0.982 . S
H107 C77 0.979 . S
H108 C77 0.977 . S
H109 C79 0.948 . S
H110 C81 0.947 . S
H111 C82 0.948 . S
H112 C88 0.982 . S
H113 C88 0.979 . S
H114 C88 0.977 . S
H115 C89 0.979 . S
H116 C89 0.980 . S
H117 C89 0.983 . S
H118 C62 0.947 . S
C119 C62 1.392 . S
C119 C63 1.419 . S
C119 H101 0.948 . S
C120 C121 1.391 . S
C120 C124 1.391 . S
C120 H162 0.948 . S
C121 C120 1.391 . S
C121 C122 1.391 . S
C122 C121 1.391 . S
C122 H178 0.947 . S
C122 C179 1.392 . S
C123 C124 1.391 . S
C123 C127 1.397 . S
C123 C179 1.419 . S
C124 C120 1.391 . S
C124 C123 1.391 . S
C124 C125 1.399 . S
C125 C124 1.399 . S
C125 C128 1.396 . S
C125 C137 1.453 . S
C125 C138 1.684 . S
H126 C150 0.948 . S
C127 C123 1.397 . S
C127 C128 1.394 . S
C127 C146 1.723 . S
C128 C125 1.396 . S
C128 C127 1.394 . S
C128 C158 1.723 . S
H129 C152 0.947 . S
H130 C153 0.948 . S
H131 C159 0.982 . S
H132 C160 0.979 . S
H133 C160 0.980 . S
H134 C160 0.983 . S
H135 C159 0.979 . S
H136 C159 0.977 . S
C137 C125 1.453 . S
C137 H166 0.982 . S
C137 H167 0.979 . S
C137 H168 0.977 . S
C138 C125 1.684 . S
C138 H163 0.979 . S
C138 H164 0.980 . S
C138 H165 0.983 . S
C139 C140 1.391 . S
C139 C144 1.391 . S
C139 H169 0.948 . S
C140 C139 1.391 . S
C140 C141 1.391 . S
C141 C140 1.391 . S
C141 C142 1.392 . S
C141 H170 0.947 . S
C142 C141 1.392 . S
C142 C143 1.419 . S
C142 H171 0.948 . S
C143 C142 1.419 . S
C143 C144 1.391 . S
C143 C147 1.397 . S
C144 C139 1.391 . S
C144 C143 1.391 . S
C144 C145 1.399 . S
C145 C144 1.399 . S
C145 C146 1.396 . S
C145 C148 1.453 . S
C145 C149 1.684 . S
C146 C127 1.723 . S
C146 C145 1.396 . S
C146 C147 1.394 . S
C147 C143 1.397 . S
C147 C146 1.394 . S
C147 C157 1.723 . S
C148 C145 1.453 . S
C148 H172 0.982 . S
C148 H173 0.979 . S
C148 H174 0.977 . S
C149 C145 1.684 . S
C149 H175 0.979 . S
C149 H176 0.980 . S
C149 H177 0.983 . S
C150 H126 0.948 . S
C150 C151 1.391 . S
C150 C155 1.391 . S
C151 C150 1.391 . S
C151 C152 1.391 . S
C152 H129 0.947 . S
C152 C151 1.391 . S
C152 C153 1.392 . S
C153 H130 0.948 . S
C153 C152 1.392 . S
C153 C154 1.419 . S
C154 C153 1.419 . S
C154 C155 1.391 . S
C154 C158 1.397 . S
C155 C150 1.391 . S
C155 C154 1.391 . S
C155 C156 1.399 . S
C156 C155 1.399 . S
C156 C157 1.396 . S
C156 C159 1.453 . S
C156 C160 1.684 . S
C157 C147 1.723 . S
C157 C156 1.396 . S
C157 C158 1.394 . S
C158 C128 1.723 . S
C158 C154 1.397 . S
C158 C157 1.394 . S
C159 H131 0.982 . S
C159 H135 0.979 . S
C159 H136 0.977 . S
C159 C156 1.453 . S
C160 H132 0.979 . S
C160 H133 0.980 . S
C160 H134 0.983 . S
C160 C156 1.684 . S
H161 C179 0.948 . S
H162 C120 0.948 . S
H163 C138 0.979 . S
H164 C138 0.980 . S
H165 C138 0.983 . S
H166 C137 0.982 . S
H167 C137 0.979 . S
H168 C137 0.977 . S
H169 C139 0.948 . S
H170 C141 0.947 . S
H171 C142 0.948 . S
H172 C148 0.982 . S
H173 C148 0.979 . S
H174 C148 0.977 . S
H175 C149 0.979 . S
H176 C149 0.980 . S
H177 C149 0.983 . S
H178 C122 0.947 . S
C179 C122 1.392 . S
C179 C123 1.419 . S
C179 H161 0.948 . S
C180 C181 1.391 . S
C180 C184 1.391 . S
C180 H222 0.948 . S
C181 C180 1.391 . S
C181 C182 1.391 . S
C182 C181 1.391 . S
C182 H238 0.947 . S
C182 C239 1.392 . S
C183 C184 1.391 . S
C183 C187 1.397 . S
C183 C239 1.419 . S
C184 C180 1.391 . S
C184 C183 1.391 . S
C184 C185 1.399 . S
C185 C184 1.399 . S
C185 C188 1.396 . S
C185 C197 1.453 . S
C185 C198 1.684 . S
H186 C210 0.948 . S
C187 C183 1.397 . S
C187 C188 1.394 . S
C187 C206 1.723 . S
C188 C185 1.396 . S
C188 C187 1.394 . S
C188 C218 1.723 . S
H189 C212 0.947 . S
H190 C213 0.948 . S
H191 C219 0.982 . S
H192 C220 0.979 . S
H193 C220 0.980 . S
H194 C220 0.983 . S
H195 C219 0.979 . S
H196 C219 0.977 . S
C197 C185 1.453 . S
C197 H226 0.982 . S
C197 H227 0.979 . S
C197 H228 0.977 . S
C198 C185 1.684 . S
C198 H223 0.979 . S
C198 H224 0.980 . S
C198 H225 0.983 . S
C199 C200 1.391 . S
C199 C204 1.391 . S
C199 H229 0.948 . S
C200 C199 1.391 . S
C200 C201 1.391 . S
C201 C200 1.391 . S
C201 C202 1.392 . S
C201 H230 0.947 . S
C202 C201 1.392 . S
C202 C203 1.419 . S
C202 H231 0.948 . S
C203 C202 1.419 . S
C203 C204 1.391 . S
C203 C207 1.397 . S
C204 C199 1.391 . S
C204 C203 1.391 . S
C204 C205 1.399 . S
C205 C204 1.399 . S
C205 C206 1.396 . S
C205 C208 1.453 . S
C205 C209 1.684 . S
C206 C187 1.723 . S
C206 C205 1.396 . S
C206 C207 1.394 . S
C207 C203 1.397 . S
C207 C206 1.394 . S
C207 C217 1.723 . S
C208 C205 1.453 . S
C208 H232 0.982 . S
C208 H233 0.979 . S
C208 H234 0.977 . S
C209 C205 1.684 . S
C209 H235 0.979 . S
C209 H236 0.980 . S
C209 H237 0.983 . S
C210 H186 0.948 . S
C210 C211 1.391 . S
C210 C215 1.391 . S
C211 C210 1.391 . S
C211 C212 1.391 . S
C212 H189 0.947 . S
C212 C211 1.391 . S
C212 C213 1.392 . S
C213 H190 0.948 . S
C213 C212 1.392 . S
C213 C214 1.419 . S
C214 C213 1.419 . S
C214 C215 1.391 . S
C214 C218 1.397 . S
C215 C210 1.391 . S
C215 C214 1.391 . S
C215 C216 1.399 . S
C216 C215 1.399 . S
C216 C217 1.396 . S
C216 C219 1.453 . S
C216 C220 1.684 . S
C217 C207 1.723 . S
C217 C216 1.396 . S
C217 C218 1.394 . S
C218 C188 1.723 . S
C218 C214 1.397 . S
C218 C217 1.394 . S
C219 H191 0.982 . S
C219 H195 0.979 . S
C219 H196 0.977 . S
C219 C216 1.453 . S
C220 H192 0.979 . S
C220 H193 0.980 . S
C220 H194 0.983 . S
C220 C216 1.684 . S
H221 C239 0.948 . S
H222 C180 0.948 . S
H223 C198 0.979 . S
H224 C198 0.980 . S
H225 C198 0.983 . S
H226 C197 0.982 . S
H227 C197 0.979 . S
H228 C197 0.977 . S
H229 C199 0.948 . S
H230 C201 0.947 . S
H231 C202 0.948 . S
H232 C208 0.982 . S
H233 C208 0.979 . S
H234 C208 0.977 . S
H235 C209 0.979 . S
H236 C209 0.980 . S
H237 C209 0.983 . S
H238 C182 0.947 . S
C239 C182 1.392 . S
C239 C183 1.419 . S
C239 H221 0.948 . S
C240 C241 1.391 . S
C240 C244 1.391 . S
C240 H282 0.948 1_556 S
C241 C240 1.391 . S
C241 C242 1.391 . S
C242 C241 1.391 . S
C242 H298 0.947 1_655 S
C242 C299 1.392 . S
C243 C244 1.391 . S
C243 C247 1.397 . S
C243 C299 1.419 . S
C244 C240 1.391 . S
C244 C243 1.391 . S
C244 C245 1.399 . S
C245 C244 1.399 . S
C245 C248 1.396 . S
C245 C257 1.453 . S
C245 C258 1.684 1_556 S
H246 C270 0.948 . S
C247 C243 1.397 . S
C247 C248 1.394 . S
C247 C266 1.723 . S
C248 C245 1.396 . S
C248 C247 1.394 . S
C248 C278 1.723 . S
H249 C272 0.947 . S
H250 C273 0.948 1_554 S
H251 C279 0.982 . S
H252 C280 0.979 . S
H253 C280 0.980 . S
H254 C280 0.983 . S
H255 C279 0.979 1_545 S
H256 C279 0.981 . S
C257 C245 1.453 . S
C257 H286 0.982 . S
C257 H287 0.966 1_556 S
C257 H288 0.977 . S
C258 C245 1.684 1_554 S
C258 H283 0.979 . S
C258 H284 0.980 . S
C258 H285 0.983 . S
C259 C260 1.391 . S
C259 C264 1.391 . S
C259 H289 0.948 . S
C260 C259 1.391 . S
C260 C261 1.391 1_565 S
C261 C260 1.391 1_545 S
C261 C262 1.392 . S
C261 H290 0.947 . S
C262 C261 1.392 . S
C262 C263 1.419 1_545 S
C262 H291 0.948 . S
C263 C262 1.419 1_565 S
C263 C264 1.391 . S
C263 C267 1.397 . S
C264 C259 1.391 . S
C264 C263 1.391 . S
C264 C265 1.399 . S
C265 C264 1.399 . S
C265 C266 1.396 . S
C265 C268 1.453 . S
C265 C269 1.684 1_655 S
C266 C247 1.723 . S
C266 C265 1.396 . S
C266 C267 1.394 . S
C267 C263 1.397 . S
C267 C266 1.394 . S
C267 C277 1.723 . S
C268 C265 1.453 . S
C268 H292 0.982 . S
C268 H293 0.979 . S
C268 H294 0.977 . S
C269 C265 1.684 1_455 S
C269 H295 0.979 . S
C269 H296 0.980 . S
C269 H297 0.983 . S
C270 H246 0.948 . S
C270 C271 1.391 1_545 S
C270 C275 1.391 1_545 S
C271 C270 1.391 1_565 S
C271 C272 1.391 1_556 S
C272 H249 0.947 . S
C272 C271 1.391 1_554 S
C272 C273 1.392 1_554 S
C273 H250 0.948 1_556 S
C273 C272 1.392 1_556 S
C273 C274 1.419 . S
C274 C273 1.419 . S
C274 C275 1.391 . S
C274 C278 1.397 . S
C275 C270 1.391 1_565 S
C275 C274 1.391 . S
C275 C276 1.399 . S
C276 C275 1.399 . S
C276 C277 1.396 . S
C276 C279 1.453 . S
C276 C280 1.684 1_565 S
C277 C267 1.723 . S
C277 C276 1.396 . S
C277 C278 1.394 . S
C278 C248 1.723 . S
C278 C274 1.397 . S
C278 C277 1.394 . S
C279 H251 0.982 . S
C279 H255 0.979 1_565 S
C279 H256 0.981 . S
C279 C276 1.453 . S
C280 H252 0.979 . S
C280 H253 0.980 . S
C280 H254 0.983 . S
C280 C276 1.684 1_545 S
H281 C299 0.948 . S
H282 C240 0.948 1_554 S
H283 C258 0.979 . S
H284 C258 0.980 . S
H285 C258 0.983 . S
H286 C257 0.982 . S
H287 C257 0.966 1_554 S
H288 C257 0.977 . S
H289 C259 0.948 . S
H290 C261 0.947 . S
H291 C262 0.948 . S
H292 C268 0.982 . S
H293 C268 0.979 . S
H294 C268 0.977 . S
H295 C269 0.979 . S
H296 C269 0.980 . S
H297 C269 0.983 . S
H298 C242 0.947 1_455 S
C299 C242 1.392 . S
C299 C243 1.419 . S
C299 H281 0.948 . S
C300 C301 1.391 . S
C300 C304 1.391 . S
C300 H342 0.948 . S
C301 C300 1.391 . S
C301 C302 1.391 . S
C302 C301 1.391 . S
C302 H358 0.947 1_545 S
C302 C359 1.392 . S
C303 C304 1.391 . S
C303 C307 1.397 . S
C303 C359 1.419 . S
C304 C300 1.391 . S
C304 C303 1.391 . S
C304 C305 1.399 . S
C305 C304 1.399 . S
C305 C308 1.396 . S
C305 C317 1.453 . S
C305 C318 1.684 . S
H306 C330 0.948 . S
C307 C303 1.397 . S
C307 C308 1.394 . S
C307 C326 1.723 . S
C308 C305 1.396 . S
C308 C307 1.394 . S
C308 C338 1.723 . S
H309 C332 0.947 . S
H310 C333 0.948 . S
H311 C339 0.982 . S
H312 C340 0.979 . S
H313 C340 0.980 . S
H314 C340 0.983 . S
H315 C339 0.979 . S
H316 C339 0.977 . S
C317 C305 1.453 . S
C317 H346 0.982 . S
C317 H347 0.979 . S
C317 H348 0.977 . S
C318 C305 1.684 . S
C318 H343 0.979 . S
C318 H344 0.980 . S
C318 H345 0.983 . S
C319 C320 1.391 . S
C319 C324 1.391 . S
C319 H349 0.948 1_545 S
C320 C319 1.391 . S
C320 C321 1.391 . S
C321 C320 1.391 . S
C321 C322 1.392 . S
C321 H350 0.947 . S
C322 C321 1.392 . S
C322 C323 1.419 . S
C322 H351 0.948 . S
C323 C322 1.419 . S
C323 C324 1.391 . S
C323 C327 1.397 . S
C324 C319 1.391 . S
C324 C323 1.391 . S
C324 C325 1.399 . S
C325 C324 1.399 . S
C325 C326 1.396 . S
C325 C328 1.453 1_545 S
C325 C329 1.684 . S
C326 C307 1.723 . S
C326 C325 1.396 . S
C326 C327 1.394 . S
C327 C323 1.397 . S
C327 C326 1.394 . S
C327 C337 1.723 . S
C328 C325 1.453 1_565 S
C328 H352 0.982 . S
C328 H353 0.979 . S
C328 H354 0.977 . S
C329 C325 1.684 . S
C329 H355 0.979 . S
C329 H356 0.980 . S
C329 H357 0.983 1_545 S
C330 H306 0.948 . S
C330 C331 1.391 . S
C330 C335 1.391 . S
C331 C330 1.391 . S
C331 C332 1.391 . S
C332 H309 0.947 . S
C332 C331 1.391 . S
C332 C333 1.392 . S
C333 H310 0.948 . S
C333 C332 1.392 . S
C333 C334 1.419 . S
C334 C333 1.419 . S
C334 C335 1.391 . S
C334 C338 1.397 . S
C335 C330 1.391 . S
C335 C334 1.391 . S
C335 C336 1.399 . S
C336 C335 1.399 . S
C336 C337 1.396 . S
C336 C339 1.453 . S
C336 C340 1.684 . S
C337 C327 1.723 . S
C337 C336 1.396 . S
C337 C338 1.394 . S
C338 C308 1.723 . S
C338 C334 1.397 . S
C338 C337 1.394 . S
C339 H311 0.982 . S
C339 H315 0.979 . S
C339 H316 0.977 . S
C339 C336 1.453 . S
C340 H312 0.979 . S
C340 H313 0.980 . S
C340 H314 0.983 . S
C340 C336 1.684 . S
H341 C359 0.948 . S
H342 C300 0.948 . S
H343 C318 0.979 . S
H344 C318 0.980 . S
H345 C318 0.983 . S
H346 C317 0.982 . S
H347 C317 0.979 . S
H348 C317 0.977 . S
H349 C319 0.948 1_565 S
H350 C321 0.947 . S
H351 C322 0.948 . S
H352 C328 0.982 . S
H353 C328 0.979 . S
H354 C328 0.977 . S
H355 C329 0.979 . S
H356 C329 0.980 . S
H357 C329 0.983 1_565 S
H358 C302 0.947 1_565 S
C359 C302 1.392 . S
C359 C303 1.419 . S
C359 H341 0.948 . S
C360 C361 1.391 . S
C360 C364 1.391 . S
C360 H402 0.948 . S
C361 C360 1.391 . S
C361 C362 1.391 . S
C362 C361 1.391 . S
C362 H418 0.947 . S
C362 C419 1.392 . S
C363 C364 1.391 . S
C363 C367 1.397 . S
C363 C419 1.419 . S
C364 C360 1.391 . S
C364 C363 1.391 . S
C364 C365 1.399 . S
C365 C364 1.399 . S
C365 C368 1.396 . S
C365 C377 1.453 . S
C365 C378 1.684 . S
H366 C390 0.948 . S
C367 C363 1.397 . S
C367 C368 1.394 . S
C367 C386 1.723 . S
C368 C365 1.396 . S
C368 C367 1.394 . S
C368 C398 1.723 . S
H369 C392 0.947 . S
H370 C393 0.948 . S
H371 C399 0.982 . S
H372 C400 0.985 . S
H373 C400 0.981 . S
H374 C400 0.993 . S
H375 C399 0.979 . S
H376 C399 0.977 . S
C377 C365 1.453 . S
C377 H406 0.982 . S
C377 H407 0.979 . S
C377 H408 0.977 . S
C378 C365 1.684 . S
C378 H403 0.979 . S
C378 H404 0.980 . S
C378 H405 0.983 . S
C379 C380 1.391 . S
C379 C384 1.391 . S
C379 H409 0.948 . S
C380 C379 1.391 . S
C380 C381 1.391 . S
C381 C380 1.391 . S
C381 C382 1.392 . S
C381 H410 0.947 1_554 S
C382 C381 1.392 . S
C382 C383 1.419 . S
C382 H411 0.948 . S
C383 C382 1.419 . S
C383 C384 1.391 . S
C383 C387 1.397 . S
C384 C379 1.391 . S
C384 C383 1.391 . S
C384 C385 1.399 . S
C385 C384 1.399 . S
C385 C386 1.396 . S
C385 C388 1.453 . S
C385 C389 1.684 . S
C386 C367 1.723 . S
C386 C385 1.396 . S
C386 C387 1.394 . S
C387 C383 1.397 . S
C387 C386 1.394 . S
C387 C397 1.723 . S
C388 C385 1.453 . S
C388 H412 0.982 . S
C388 H413 0.979 . S
C388 H414 0.977 . S
C389 C385 1.684 . S
C389 H415 0.979 . S
C389 H416 0.980 . S
C389 H417 0.983 . S
C390 H366 0.948 . S
C390 C391 1.391 . S
C390 C395 1.391 . S
C391 C390 1.391 . S
C391 C392 1.391 . S
C392 H369 0.947 . S
C392 C391 1.391 . S
C392 C393 1.392 . S
C393 H370 0.948 . S
C393 C392 1.392 . S
C393 C394 1.419 . S
C394 C393 1.419 . S
C394 C395 1.391 . S
C394 C398 1.397 . S
C395 C390 1.391 . S
C395 C394 1.391 . S
C395 C396 1.399 . S
C396 C395 1.399 . S
C396 C397 1.396 . S
C396 C399 1.453 . S
C396 C400 1.666 1_554 S
C397 C387 1.723 . S
C397 C396 1.396 . S
C397 C398 1.394 . S
C398 C368 1.723 . S
C398 C394 1.397 . S
C398 C397 1.394 . S
C399 H371 0.982 . S
C399 H375 0.979 . S
C399 H376 0.977 . S
C399 C396 1.453 . S
C400 H372 0.985 . S
C400 H373 0.981 . S
C400 H374 0.993 . S
C400 C396 1.666 1_556 S
H401 C419 0.948 . S
H402 C360 0.948 . S
H403 C378 0.979 . S
H404 C378 0.980 . S
H405 C378 0.983 . S
H406 C377 0.982 . S
H407 C377 0.979 . S
H408 C377 0.977 . S
H409 C379 0.948 . S
H410 C381 0.947 1_556 S
H411 C382 0.948 . S
H412 C388 0.982 . S
H413 C388 0.979 . S
H414 C388 0.977 . S
H415 C389 0.979 . S
H416 C389 0.980 . S
H417 C389 0.983 . S
H418 C362 0.947 . S
C419 C362 1.392 . S
C419 C363 1.419 . S
C419 H401 0.948 . S
C420 C421 1.391 . S
C420 C424 1.391 . S
C420 H462 0.948 . S
C421 C420 1.391 . S
C421 C422 1.391 . S
C422 C421 1.391 . S
C422 H478 0.947 . S
C422 C479 1.392 . S
C423 C424 1.391 . S
C423 C427 1.397 . S
C423 C479 1.419 . S
C424 C420 1.391 . S
C424 C423 1.391 . S
C424 C425 1.399 . S
C425 C424 1.399 . S
C425 C428 1.396 . S
C425 C437 1.453 . S
C425 C438 1.684 . S
H426 C450 0.948 . S
C427 C423 1.397 . S
C427 C428 1.394 . S
C427 C446 1.723 . S
C428 C425 1.396 . S
C428 C427 1.394 . S
C428 C458 1.723 . S
H429 C452 0.947 . S
H430 C453 0.948 . S
H431 C459 0.982 . S
H432 C460 0.979 . S
H433 C460 0.980 . S
H434 C460 0.983 . S
H435 C459 0.979 . S
H436 C459 0.977 . S
C437 C425 1.453 . S
C437 H466 0.982 . S
C437 H467 0.979 1_455 S
C437 H468 0.977 . S
C438 C425 1.684 . S
C438 H463 0.979 . S
C438 H464 0.980 . S
C438 H465 0.983 . S
C439 C440 1.391 . S
C439 C444 1.391 . S
C439 H469 0.948 . S
C440 C439 1.391 . S
C440 C441 1.391 . S
C441 C440 1.391 . S
C441 C442 1.392 . S
C441 H470 0.947 . S
C442 C441 1.392 . S
C442 C443 1.419 . S
C442 H471 0.948 . S
C443 C442 1.419 . S
C443 C444 1.391 . S
C443 C447 1.397 . S
C444 C439 1.391 . S
C444 C443 1.391 . S
C444 C445 1.399 . S
C445 C444 1.399 . S
C445 C446 1.396 . S
C445 C448 1.453 . S
C445 C449 1.684 . S
C446 C427 1.723 . S
C446 C445 1.396 . S
C446 C447 1.394 . S
C447 C443 1.397 . S
C447 C446 1.394 . S
C447 C457 1.723 . S
C448 C445 1.453 . S
C448 H472 0.982 . S
C448 H473 0.979 . S
C448 H474 0.977 . S
C449 C445 1.684 . S
C449 H475 0.979 . S
C449 H476 0.980 . S
C449 H477 0.983 . S
C450 H426 0.948 . S
C450 C451 1.391 . S
C450 C455 1.391 . S
C451 C450 1.391 . S
C451 C452 1.391 . S
C452 H429 0.947 . S
C452 C451 1.391 . S
C452 C453 1.392 . S
C453 H430 0.948 . S
C453 C452 1.392 . S
C453 C454 1.419 . S
C454 C453 1.419 . S
C454 C455 1.391 . S
C454 C458 1.397 . S
C455 C450 1.391 . S
C455 C454 1.391 . S
C455 C456 1.399 . S
C456 C455 1.399 . S
C456 C457 1.396 . S
C456 C459 1.453 . S
C456 C460 1.684 . S
C457 C447 1.723 . S
C457 C456 1.396 . S
C457 C458 1.394 . S
C458 C428 1.723 . S
C458 C454 1.397 . S
C458 C457 1.394 . S
C459 H431 0.982 . S
C459 H435 0.979 . S
C459 H436 0.977 . S
C459 C456 1.453 . S
C460 H432 0.979 . S
C460 H433 0.980 . S
C460 H434 0.983 . S
C460 C456 1.684 . S
H461 C479 0.948 . S
H462 C420 0.948 . S
H463 C438 0.979 . S
H464 C438 0.980 . S
H465 C438 0.983 . S
H466 C437 0.982 . S
H467 C437 0.979 1_655 S
H468 C437 0.977 . S
H469 C439 0.948 . S
H470 C441 0.947 . S
H471 C442 0.948 . S
H472 C448 0.982 . S
H473 C448 0.979 . S
H474 C448 0.977 . S
H475 C449 0.979 . S
H476 C449 0.980 . S
H477 C449 0.983 . S
H478 C422 0.947 . S
C479 C422 1.392 . S
C479 C423 1.419 . S
C479 H461 0.948 . S
O480 Zn481 1.953 . S
O480 C496 1.225 1_655 S
Zn481 O480 1.953 . S
Zn481 O482 1.949 1_655 S
Zn481 O488 1.919 . S
Zn481 O493 1.924 . S
O482 Zn481 1.949 1_455 S
O482 Zn483 1.923 1_445 S
O482 Zn484 1.950 . S
O482 Zn485 1.945 1_545 S
Zn483 O482 1.923 1_665 S
Zn483 O486 1.933 . S
Zn483 O489 1.941 1_565 S
Zn483 O490 1.965 1_665 S
Zn484 O482 1.950 . S
Zn484 O491 1.938 . S
Zn484 O492 1.906 1_545 S
Zn484 O502 1.953 . S
Zn485 O482 1.945 1_565 S
Zn485 O487 1.932 1_455 S
Zn485 O494 1.977 . S
Zn485 O495 1.910 1_455 S
O486 Zn483 1.933 . S
O486 C497 1.226 . S
O487 Zn485 1.932 1_655 S
O487 C497 1.307 . S
O488 Zn481 1.919 . S
O488 C499 1.253 . S
O489 Zn483 1.941 1_545 S
O489 C499 1.283 . S
O490 Zn483 1.965 1_445 S
O490 C498 1.303 . S
O491 Zn484 1.938 . S
O491 C498 1.247 . S
O492 Zn484 1.906 1_565 S
O492 C500 1.304 . S
O493 Zn481 1.924 . S
O493 C501 1.311 1_545 S
O494 Zn485 1.977 . S
O494 C500 1.272 . S
O495 Zn485 1.910 1_655 S
O495 C501 1.231 . S
C496 O480 1.225 1_455 S
C496 O502 1.298 . S
C497 O486 1.226 . S
C497 O487 1.307 . S
C498 O490 1.303 . S
C498 O491 1.247 . S
C499 O488 1.253 . S
C499 O489 1.283 . S
C500 O492 1.304 . S
C500 O494 1.272 . S
C501 O493 1.311 1_565 S
C501 O495 1.231 . S
O502 Zn484 1.953 . S
O502 C496 1.298 . S
O503 Zn504 1.953 . S
O503 C519 1.225 . S
Zn504 O503 1.953 . S
Zn504 O505 1.949 1_556 S
Zn504 O511 1.919 . S
Zn504 O516 1.924 1_556 S
O505 Zn504 1.949 1_554 S
O505 Zn506 1.923 1_544 S
O505 Zn507 1.950 . S
O505 Zn508 1.945 1_545 S
Zn506 O505 1.923 1_566 S
Zn506 O509 1.933 1_556 S
Zn506 O512 1.941 . S
Zn506 O513 1.965 . S
Zn507 O505 1.950 . S
Zn507 O514 1.938 . S
Zn507 O515 1.906 . S
Zn507 O525 1.953 . S
Zn508 O505 1.945 1_565 S
Zn508 O510 1.932 . S
Zn508 O517 1.977 1_565 S
Zn508 O518 1.910 1_565 S
O509 Zn506 1.933 1_554 S
O509 C520 1.226 . S
O510 Zn508 1.932 . S
O510 C520 1.307 . S
O511 Zn504 1.919 . S
O511 C522 1.253 1_545 S
O512 Zn506 1.941 . S
O512 C522 1.283 . S
O513 Zn506 1.965 . S
O513 C521 1.303 . S
O514 Zn507 1.938 . S
O514 C521 1.247 1_544 S
O515 Zn507 1.906 . S
O515 C523 1.304 . S
O516 Zn504 1.924 1_554 S
O516 C524 1.311 . S
O517 Zn508 1.977 1_545 S
O517 C523 1.272 . S
O518 Zn508 1.910 1_545 S
O518 C524 1.231 . S
C519 O503 1.225 . S
C519 O525 1.298 1_556 S
C520 O509 1.226 . S
C520 O510 1.307 . S
C521 O513 1.303 . S
C521 O514 1.247 1_566 S
C522 O511 1.253 1_565 S
C522 O512 1.283 . S
C523 O515 1.304 . S
C523 O517 1.272 . S
C524 O516 1.311 . S
C524 O518 1.231 . S
O525 Zn507 1.953 . S
O525 C519 1.298 1_554 S
O526 Zn527 1.953 . S
O526 C542 1.225 . S
Zn527 O526 1.953 . S
Zn527 O528 1.949 . S
Zn527 O534 1.919 . S
Zn527 O539 1.924 . S
O528 Zn527 1.949 . S
O528 Zn529 1.923 . S
O528 Zn530 1.950 . S
O528 Zn531 1.945 . S
Zn529 O528 1.923 . S
Zn529 O532 1.933 . S
Zn529 O535 1.941 . S
Zn529 O536 1.965 . S
Zn530 O528 1.950 . S
Zn530 O537 1.938 . S
Zn530 O538 1.906 . S
Zn530 O548 1.953 . S
Zn531 O528 1.945 . S
Zn531 O533 1.932 . S
Zn531 O540 1.977 . S
Zn531 O541 1.910 . S
O532 Zn529 1.933 . S
O532 C543 1.226 . S
O533 Zn531 1.932 . S
O533 C543 1.307 . S
O534 Zn527 1.919 . S
O534 C545 1.253 . S
O535 Zn529 1.941 . S
O535 C545 1.283 . S
O536 Zn529 1.965 . S
O536 C544 1.303 . S
O537 Zn530 1.938 . S
O537 C544 1.247 . S
O538 Zn530 1.906 . S
O538 C546 1.304 . S
O539 Zn527 1.924 . S
O539 C547 1.311 . S
O540 Zn531 1.977 . S
O540 C546 1.272 . S
O541 Zn531 1.910 . S
O541 C547 1.231 . S
C542 O526 1.225 . S
C542 O548 1.298 . S
C543 O532 1.226 . S
C543 O533 1.307 . S
C544 O536 1.303 . S
C544 O537 1.247 . S
C545 O534 1.253 . S
C545 O535 1.283 . S
C546 O538 1.304 . S
C546 O540 1.272 . S
C547 O539 1.311 . S
C547 O541 1.231 . S
O548 Zn530 1.953 . S
O548 C542 1.298 . S
O549 Zn550 1.953 . S
O549 C565 1.225 . S
Zn550 O549 1.953 . S
Zn550 O551 1.949 1_655 S
Zn550 O557 1.919 . S
Zn550 O562 1.924 . S
O551 Zn550 1.949 1_455 S
O551 Zn552 1.923 1_454 S
O551 Zn553 1.950 . S
O551 Zn554 1.945 1_554 S
Zn552 O551 1.923 1_656 S
Zn552 O555 1.933 1_655 S
Zn552 O558 1.941 . S
Zn552 O559 1.965 . S
Zn553 O551 1.950 . S
Zn553 O560 1.938 . S
Zn553 O561 1.906 . S
Zn553 O571 1.953 . S
Zn554 O551 1.945 1_556 S
Zn554 O556 1.932 . S
Zn554 O563 1.977 1_556 S
Zn554 O564 1.910 1_556 S
O555 Zn552 1.933 1_455 S
O555 C566 1.226 . S
O556 Zn554 1.932 . S
O556 C566 1.307 . S
O557 Zn550 1.919 . S
O557 C568 1.253 1_554 S
O558 Zn552 1.941 . S
O558 C568 1.283 . S
O559 Zn552 1.965 . S
O559 C567 1.303 . S
O560 Zn553 1.938 . S
O560 C567 1.247 1_454 S
O561 Zn553 1.906 . S
O561 C569 1.304 . S
O562 Zn550 1.924 . S
O562 C570 1.311 1_655 S
O563 Zn554 1.977 1_554 S
O563 C569 1.272 . S
O564 Zn554 1.910 1_554 S
O564 C570 1.231 . S
C565 O549 1.225 . S
C565 O571 1.298 1_655 S
C566 O555 1.226 . S
C566 O556 1.307 . S
C567 O559 1.303 . S
C567 O560 1.247 1_656 S
C568 O557 1.253 1_556 S
C568 O558 1.283 . S
C569 O561 1.304 . S
C569 O563 1.272 . S
C570 O562 1.311 1_455 S
C570 O564 1.231 . S
O571 Zn553 1.953 . S
O571 C565 1.298 1_455 S
C572 C573 1.387 . S
C572 H576 0.950 . S
C572 C581 1.390 . S
C573 C572 1.387 . S
C573 C575 1.387 . S
H574 C581 0.950 . S
C575 C573 1.387 . S
C575 C577 1.390 . S
C575 H579 0.950 . S
H576 C572 0.950 . S
C577 C575 1.390 . S
C577 C578 1.387 . S
C577 H580 0.950 . S
C578 C577 1.387 . S
C578 C581 1.387 . S
H579 C575 0.950 . S
H580 C577 0.950 . S
C581 C572 1.390 . S
C581 H574 0.950 . S
C581 C578 1.387 . S
C582 C583 1.387 . S
C582 H586 0.950 . S
C582 C591 1.390 . S
C583 C582 1.387 . S
C583 C585 1.387 . S
H584 C591 0.950 1_545 S
C585 C583 1.387 . S
C585 C587 1.390 . S
C585 H589 0.950 . S
H586 C582 0.950 . S
C587 C585 1.390 . S
C587 C588 1.387 . S
C587 H590 0.950 . S
C588 C587 1.387 . S
C588 C591 1.387 . S
H589 C585 0.950 . S
H590 C587 0.950 . S
C591 C582 1.390 . S
C591 H584 0.950 1_565 S
C591 C588 1.387 . S
C592 C593 1.387 . S
C592 H596 0.950 . S
C592 C601 1.390 . S
C593 C592 1.387 . S
C593 C595 1.387 . S
H594 C601 0.950 . S
C595 C593 1.387 . S
C595 C597 1.390 . S
C595 H599 0.950 . S
H596 C592 0.950 . S
C597 C595 1.390 . S
C597 C598 1.387 . S
C597 H600 0.950 . S
C598 C597 1.387 . S
C598 C601 1.387 . S
H599 C595 0.950 . S
H600 C597 0.950 . S
C601 C592 1.390 . S
C601 H594 0.950 . S
C601 C598 1.387 . S
C602 C603 1.387 . S
C602 H606 0.950 . S
C602 C611 1.390 . S
C603 C602 1.387 . S
C603 C605 1.387 . S
H604 C611 0.950 . S
C605 C603 1.387 . S
C605 C607 1.390 . S
C605 H609 0.950 . S
H606 C602 0.950 . S
C607 C605 1.390 . S
C607 C608 1.387 . S
C607 H610 0.950 . S
C608 C607 1.387 . S
C608 C611 1.387 . S
H609 C605 0.950 . S
H610 C607 0.950 . S
C611 C602 1.390 . S
C611 H604 0.950 . S
C611 C608 1.387 . S
C612 C613 1.387 . S
C612 H616 0.950 . S
C612 C621 1.390 . S
C613 C612 1.387 . S
C613 C615 1.387 . S
H614 C621 0.950 . S
C615 C613 1.387 . S
C615 C617 1.390 . S
C615 H619 0.950 . S
H616 C612 0.950 . S
C617 C615 1.390 . S
C617 C618 1.387 . S
C617 H620 0.950 . S
C618 C617 1.387 . S
C618 C621 1.387 . S
H619 C615 0.950 . S
H620 C617 0.950 . S
C621 C612 1.390 . S
C621 H614 0.950 . S
C621 C618 1.387 . S
C622 C623 1.387 . S
C622 H626 0.950 . S
C622 C631 1.390 . S
C623 C622 1.387 . S
C623 C625 1.387 . S
H624 C631 0.950 . S
C625 C623 1.387 . S
C625 C627 1.390 . S
C625 H629 0.950 . S
H626 C622 0.950 . S
C627 C625 1.390 . S
C627 C628 1.387 . S
C627 H630 0.950 . S
C628 C627 1.387 . S
C628 C631 1.387 . S
H629 C625 0.950 . S
H630 C627 0.950 . S
C631 C622 1.390 . S
C631 H624 0.950 . S
C631 C628 1.387 . S
C632 C633 1.387 . S
C632 H636 0.950 1_556 S
C632 C641 1.390 . S
C633 C632 1.387 . S
C633 C635 1.387 . S
H634 C641 0.950 1_554 S
C635 C633 1.387 . S
C635 C637 1.390 . S
C635 H639 0.950 . S
H636 C632 0.950 1_554 S
C637 C635 1.390 . S
C637 C638 1.387 . S
C637 H640 0.950 . S
C638 C637 1.387 . S
C638 C641 1.387 . S
H639 C635 0.950 . S
H640 C637 0.950 . S
C641 C632 1.390 . S
C641 H634 0.950 1_556 S
C641 C638 1.387 . S
C642 C643 1.387 . S
C642 H646 0.950 . S
C642 C651 1.390 . S
C643 C642 1.387 . S
C643 C645 1.387 . S
H644 C651 0.950 . S
C645 C643 1.387 . S
C645 C647 1.390 . S
C645 H649 0.950 . S
H646 C642 0.950 . S
C647 C645 1.390 . S
C647 C648 1.387 . S
C647 H650 0.950 . S
C648 C647 1.387 . S
C648 C651 1.387 . S
H649 C645 0.950 . S
H650 C647 0.950 . S
C651 C642 1.390 . S
C651 H644 0.950 . S
C651 C648 1.387 . S
C652 C653 1.387 . S
C652 H656 0.950 . S
C652 C661 1.390 . S
C653 C652 1.387 . S
C653 C655 1.387 . S
H654 C661 0.950 . S
C655 C653 1.387 . S
C655 C657 1.390 . S
C655 H659 0.950 . S
H656 C652 0.950 . S
C657 C655 1.390 . S
C657 C658 1.387 . S
C657 H660 0.950 . S
C658 C657 1.387 . S
C658 C661 1.387 . S
H659 C655 0.950 . S
H660 C657 0.950 . S
C661 C652 1.390 . S
C661 H654 0.950 . S
C661 C658 1.387 . S
C662 C663 1.387 . S
C662 H666 0.950 1_556 S
C662 C671 1.390 . S
C663 C662 1.387 . S
C663 C665 1.387 . S
H664 C671 0.950 1_554 S
C665 C663 1.387 . S
C665 C667 1.390 . S
C665 H669 0.950 . S
H666 C662 0.950 1_554 S
C667 C665 1.390 . S
C667 C668 1.387 . S
C667 H670 0.950 . S
C668 C667 1.387 . S
C668 C671 1.387 . S
H669 C665 0.950 . S
H670 C667 0.950 . S
C671 C662 1.390 . S
C671 H664 0.950 1_556 S
C671 C668 1.387 . S
C672 C673 1.387 . S
C672 H676 0.950 . S
C672 C681 1.390 . S
C673 C672 1.387 . S
C673 C675 1.387 . S
H674 C681 0.950 . S
C675 C673 1.387 . S
C675 C677 1.390 . S
C675 H679 0.950 . S
H676 C672 0.950 . S
C677 C675 1.390 . S
C677 C678 1.387 . S
C677 H680 0.950 . S
C678 C677 1.387 . S
C678 C681 1.387 . S
H679 C675 0.950 . S
H680 C677 0.950 . S
C681 C672 1.390 . S
C681 H674 0.950 . S
C681 C678 1.387 . S
C682 C683 1.387 . S
C682 H686 0.950 . S
C682 C691 1.390 . S
C683 C682 1.387 . S
C683 C685 1.387 . S
H684 C691 0.950 . S
C685 C683 1.387 . S
C685 C687 1.390 . S
C685 H689 0.950 . S
H686 C682 0.950 . S
C687 C685 1.390 . S
C687 C688 1.387 . S
C687 H690 0.950 . S
C688 C687 1.387 . S
C688 C691 1.387 . S
H689 C685 0.950 . S
H690 C687 0.950 . S
C691 C682 1.390 . S
C691 H684 0.950 . S
C691 C688 1.387 . S
C692 C693 1.394 . S
C692 H696 0.950 . S
C692 C701 1.390 . S
C693 C692 1.394 . S
C693 C695 1.381 1_565 S
H694 C701 0.950 . S
C695 C693 1.381 1_545 S
C695 C697 1.390 . S
C695 H699 0.950 . S
H696 C692 0.950 . S
C697 C695 1.390 . S
C697 C698 1.379 1_545 S
C697 H700 0.950 . S
C698 C697 1.379 1_565 S
C698 C701 1.396 . S
H699 C695 0.950 . S
H700 C697 0.950 . S
C701 C692 1.390 . S
C701 H694 0.950 . S
C701 C698 1.396 . S
C702 C703 1.387 . S
C702 H706 0.950 . S
C702 C711 1.390 . S
C703 C702 1.387 . S
C703 C705 1.387 1_545 S
H704 C711 0.950 . S
C705 C703 1.387 1_565 S
C705 C707 1.390 . S
C705 H709 0.950 . S
H706 C702 0.950 . S
C707 C705 1.390 . S
C707 C708 1.387 1_565 S
C707 H710 0.950 . S
C708 C707 1.387 1_545 S
C708 C711 1.387 . S
H709 C705 0.950 . S
H710 C707 0.950 . S
C711 C702 1.390 . S
C711 H704 0.950 . S
C711 C708 1.387 . S
C712 C713 1.387 . S
C712 H716 0.950 . S
C712 C721 1.390 . S
C713 C712 1.387 . S
C713 C715 1.387 . S
H714 C721 0.950 . S
C715 C713 1.387 . S
C715 C717 1.390 . S
C715 H719 0.950 . S
H716 C712 0.950 . S
C717 C715 1.390 . S
C717 C718 1.387 . S
C717 H720 0.950 . S
C718 C717 1.387 . S
C718 C721 1.387 . S
H719 C715 0.950 . S
H720 C717 0.950 . S
C721 C712 1.390 . S
C721 H714 0.950 . S
C721 C718 1.387 . S
C722 C723 1.387 . S
C722 H726 0.950 . S
C722 C731 1.390 . S
C723 C722 1.387 . S
C723 C725 1.387 . S
H724 C731 0.950 . S
C725 C723 1.387 . S
C725 C727 1.390 . S
C725 H729 0.950 1_455 S
H726 C722 0.950 . S
C727 C725 1.390 . S
C727 C728 1.387 . S
C727 H730 0.950 1_455 S
C728 C727 1.387 . S
C728 C731 1.387 . S
H729 C725 0.950 1_655 S
H730 C727 0.950 1_655 S
C731 C722 1.390 . S
C731 H724 0.950 . S
C731 C728 1.387 . S
C732 C733 1.387 1_554 S
C732 H736 0.950 . S
C732 C741 1.390 . S
C733 C732 1.387 1_556 S
C733 C735 1.387 1_565 S
H734 C741 0.950 . S
C735 C733 1.387 1_545 S
C735 C737 1.390 . S
C735 H739 0.950 . S
H736 C732 0.950 . S
C737 C735 1.390 . S
C737 C738 1.387 1_545 S
C737 H740 0.950 . S
C738 C737 1.387 1_565 S
C738 C741 1.387 1_556 S
H739 C735 0.950 . S
H740 C737 0.950 . S
C741 C732 1.390 . S
C741 H734 0.950 . S
C741 C738 1.387 1_554 S
C742 C743 1.387 . S
C742 H746 0.950 1_545 S
C742 C751 1.390 . S
C743 C742 1.387 . S
C743 C745 1.387 . S
H744 C751 0.950 1_565 S
C745 C743 1.387 . S
C745 C747 1.390 . S
C745 H749 0.950 . S
H746 C742 0.950 1_565 S
C747 C745 1.390 . S
C747 C748 1.387 . S
C747 H750 0.950 . S
C748 C747 1.387 . S
C748 C751 1.387 . S
H749 C745 0.950 . S
H750 C747 0.950 . S
C751 C742 1.390 . S
C751 H744 0.950 1_545 S
C751 C748 1.387 . S
C752 C753 1.387 . S
C752 H756 0.950 . S
C752 C761 1.390 . S
C753 C752 1.387 . S
C753 C755 1.387 . S
H754 C761 0.950 . S
C755 C753 1.387 . S
C755 C757 1.390 . S
C755 H759 0.950 . S
H756 C752 0.950 . S
C757 C755 1.390 . S
C757 C758 1.387 . S
C757 H760 0.950 . S
C758 C757 1.387 . S
C758 C761 1.387 . S
H759 C755 0.950 . S
H760 C757 0.950 . S
C761 C752 1.390 . S
C761 H754 0.950 . S
C761 C758 1.387 . S
C762 C763 1.387 . S
C762 H766 0.950 . S
C762 C771 1.390 . S
C763 C762 1.387 . S
C763 C765 1.387 . S
H764 C771 0.950 . S
C765 C763 1.387 . S
C765 C767 1.390 . S
C765 H769 0.950 . S
H766 C762 0.950 . S
C767 C765 1.390 . S
C767 C768 1.387 . S
C767 H770 0.950 . S
C768 C767 1.387 . S
C768 C771 1.387 . S
H769 C765 0.950 . S
H770 C767 0.950 . S
C771 C762 1.390 . S
C771 H764 0.950 . S
C771 C768 1.387 . S
C772 C773 1.387 1_554 S
C772 H776 0.950 . S
C772 C781 1.390 . S
C773 C772 1.387 1_556 S
C773 C775 1.387 . S
H774 C781 0.950 . S
C775 C773 1.387 . S
C775 C777 1.390 . S
C775 H779 0.950 . S
H776 C772 0.950 . S
C777 C775 1.390 . S
C777 C778 1.387 . S
C777 H780 0.950 . S
C778 C777 1.387 . S
C778 C781 1.387 1_556 S
H779 C775 0.950 . S
H780 C777 0.950 . S
C781 C772 1.390 . S
C781 H774 0.950 . S
C781 C778 1.387 1_554 S
C782 C783 1.387 . S
C782 H786 0.950 . S
C782 C791 1.390 . S
C783 C782 1.387 . S
C783 C785 1.387 . S
H784 C791 0.950 . S
C785 C783 1.387 . S
C785 C787 1.390 . S
C785 H789 0.950 . S
H786 C782 0.950 . S
C787 C785 1.390 . S
C787 C788 1.387 . S
C787 H790 0.950 . S
C788 C787 1.387 . S
C788 C791 1.387 . S
H789 C785 0.950 . S
H790 C787 0.950 . S
C791 C782 1.390 . S
C791 H784 0.950 . S
C791 C788 1.387 . S
C792 C793 1.387 . S
C792 H796 0.950 . S
C792 C801 1.390 . S
C793 C792 1.387 . S
C793 C795 1.387 . S
H794 C801 0.950 . S
C795 C793 1.387 . S
C795 C797 1.390 . S
C795 H799 0.950 . S
H796 C792 0.950 . S
C797 C795 1.390 . S
C797 C798 1.387 . S
C797 H800 0.950 . S
C798 C797 1.387 . S
C798 C801 1.387 . S
H799 C795 0.950 . S
H800 C797 0.950 . S
C801 C792 1.390 . S
C801 H794 0.950 . S
C801 C798 1.387 . S
C802 C803 1.387 . S
C802 H806 0.950 . S
C802 C811 1.390 . S
C803 C802 1.387 . S
C803 C805 1.387 . S
H804 C811 0.950 . S
C805 C803 1.387 . S
C805 C807 1.390 . S
C805 H809 0.950 . S
H806 C802 0.950 . S
C807 C805 1.390 . S
C807 C808 1.387 . S
C807 H810 0.950 . S
C808 C807 1.387 . S
C808 C811 1.387 . S
H809 C805 0.950 . S
H810 C807 0.950 . S
C811 C802 1.390 . S
C811 H804 0.950 . S
C811 C808 1.387 . S
C573 C1 1.613 . S
C578 C498 1.592 . S
C583 C80 1.570 . S
C588 C522 1.565 . S
C598 C542 1.501 . S
C593 C140 1.424 . S
C603 C211 1.431 . S
C608 C565 1.514 . S
C618 C524 1.634 . S
C613 C31 1.690 . S
C628 C500 1.635 . S
C623 C61 1.647 . S
C638 C568 1.595 . S
C633 C151 1.597 . S
C648 C545 1.585 . S
C643 C200 1.572 . S
C653 C20 1.453 . S
C658 C570 1.400 . S
C668 C519 1.656 . S
C663 C121 1.572 . S
C673 C181 1.576 . S
C678 C497 1.649 . S
C683 C91 1.412 . S
C688 C547 1.397 . S
C698 C501 1.772 . S
C693 C260 1.727 . S
C703 C320 1.603 . S
C708 C523 1.714 . S
C713 C361 1.800 . S
C718 C543 1.830 . S
C723 C451 1.721 . S
C728 C566 1.833 . S
C733 C271 1.693 . S
C738 C521 1.661 . S
C748 C499 1.745 . S
C743 C301 1.586 . S
C758 C569 1.578 . S
C753 C380 1.580 . S
C768 C546 1.607 . S
C763 C440 1.570 . S
C773 C241 1.932 . S
C778 C567 1.889 . S
C788 C520 1.682 . S
C783 C391 1.656 . S
C798 C496 1.691 . S
C793 C421 1.587 . S
C803 C331 1.798 . S
C808 C544 1.868 . S
