# Generated by pormake.
# Topology zzz, (3,6)-cn, num edge types: 1
# Building blocks:
#     Node 0, Type 0, BuildingBlock: QEWDON_clean_linker_0, # of connection points: 3
#     Node 1, Type 0, BuildingBlock: QEWDON_clean_linker_0, # of connection points: 3
#     Node 2, Type 0, BuildingBlock: QEWDON_clean_linker_0, # of connection points: 3
#     Node 3, Type 0, BuildingBlock: QEWDON_clean_linker_0, # of connection points: 3
#     Node 4, Type 0, BuildingBlock: QEWDON_clean_linker_0, # of connection points: 3
#     Node 5, Type 0, BuildingBlock: QEWDON_clean_linker_0, # of connection points: 3
#     Node 6, Type 0, BuildingBlock: QEWDON_clean_linker_0, # of connection points: 3
#     Node 7, Type 0, BuildingBlock: QEWDON_clean_linker_0, # of connection points: 3
#     Node 8, Type 1, BuildingBlock: KUMJIN_clean_sbu_0, # of connection points: 6
#     Node 9, Type 1, BuildingBlock: KUMJIN_clean_sbu_0, # of connection points: 6
#     Node 10, Type 1, BuildingBlock: KUMJIN_clean_sbu_0, # of connection points: 6
#     Node 11, Type 1, BuildingBlock: KUMJIN_clean_sbu_0, # of connection points: 6
#     Edge 12, Type (0, 1), BuildingBlock: XUDNAN_clean_linker_2, # of connection points: 2
#     Edge 13, Type (0, 1), BuildingBlock: XUDNAN_clean_linker_2, # of connection points: 2
#     Edge 14, Type (0, 1), BuildingBlock: XUDNAN_clean_linker_2, # of connection points: 2
#     Edge 15, Type (0, 1), BuildingBlock: XUDNAN_clean_linker_2, # of connection points: 2
#     Edge 16, Type (0, 1), BuildingBlock: XUDNAN_clean_linker_2, # of connection points: 2
#     Edge 17, Type (0, 1), BuildingBlock: XUDNAN_clean_linker_2, # of connection points: 2
#     Edge 18, Type (0, 1), BuildingBlock: XUDNAN_clean_linker_2, # of connection points: 2
#     Edge 19, Type (0, 1), BuildingBlock: XUDNAN_clean_linker_2, # of connection points: 2
#     Edge 20, Type (0, 1), BuildingBlock: XUDNAN_clean_linker_2, # of connection points: 2
#     Edge 21, Type (0, 1), BuildingBlock: XUDNAN_clean_linker_2, # of connection points: 2
#     Edge 22, Type (0, 1), BuildingBlock: XUDNAN_clean_linker_2, # of connection points: 2
#     Edge 23, Type (0, 1), BuildingBlock: XUDNAN_clean_linker_2, # of connection points: 2
#     Edge 24, Type (0, 1), BuildingBlock: XUDNAN_clean_linker_2, # of connection points: 2
#     Edge 25, Type (0, 1), BuildingBlock: XUDNAN_clean_linker_2, # of connection points: 2
#     Edge 26, Type (0, 1), BuildingBlock: XUDNAN_clean_linker_2, # of connection points: 2
#     Edge 27, Type (0, 1), BuildingBlock: XUDNAN_clean_linker_2, # of connection points: 2
#     Edge 28, Type (0, 1), BuildingBlock: XUDNAN_clean_linker_2, # of connection points: 2
#     Edge 29, Type (0, 1), BuildingBlock: XUDNAN_clean_linker_2, # of connection points: 2
#     Edge 30, Type (0, 1), BuildingBlock: XUDNAN_clean_linker_2, # of connection points: 2
#     Edge 31, Type (0, 1), BuildingBlock: XUDNAN_clean_linker_2, # of connection points: 2
#     Edge 32, Type (0, 1), BuildingBlock: XUDNAN_clean_linker_2, # of connection points: 2
#     Edge 33, Type (0, 1), BuildingBlock: XUDNAN_clean_linker_2, # of connection points: 2
#     Edge 34, Type (0, 1), BuildingBlock: XUDNAN_clean_linker_2, # of connection points: 2
#     Edge 35, Type (0, 1), BuildingBlock: XUDNAN_clean_linker_2, # of connection points: 2
# Relax obj value: 0.114
# Max RMSD: 0.151
# Mean RMSD: 0.075
data_MOF--net-zzz--node1-KUMJIN_clean_sbu_0--node2-QEWDON_clean_linker_0--edge1-XUDNAN_clean_linker_2
_symmetry_space_group_name_H-M    P1
_symmetry_Int_Tables_number       1
_symmetry_cell_setting            triclinic
loop_
_symmetry_equiv_pos_as_xyz
'x, y, z'
_cell_length_a     54.82513
_cell_length_b     54.62399
_cell_length_c     14.359563
_cell_angle_alpha  91.228154
_cell_angle_beta   89.998542
_cell_angle_gamma 89.995746
loop_
_atom_site_label
_atom_site_type_symbol
_atom_site_fract_x
_atom_site_fract_y
_atom_site_fract_z
_atom_type_partial_charge
H0 H 0.76414 0.56152 0.07871 0.0
C1 C 0.77732 0.55535 0.12908 0.0
C2 C 0.80189 0.55889 0.10954 0.0
C3 C 0.76993 0.54431 0.21218 0.0
H4 H 0.83862 0.55427 0.15247 0.0
C5 C 0.8198 0.55224 0.17352 0.0
C6 C 0.8139 0.54317 0.26161 0.0
C7 C 0.78859 0.53859 0.27919 0.0
C8 C 0.74278 0.53999 0.22822 0.0
H9 H 0.78352 0.53067 0.34458 0.0
C10 C 0.7255 0.53827 0.15312 0.0
C11 C 0.70001 0.53576 0.1695 0.0
C12 C 0.7336 0.53866 0.31949 0.0
H13 H 0.74543 0.54056 0.37938 0.0
C14 C 0.70868 0.53564 0.33592 0.0
H15 H 0.73161 0.5385 0.0816 0.0
C16 C 0.6921 0.5343 0.26228 0.0
H17 H 0.67288 0.53276 0.27851 0.0
H18 H 0.70207 0.53483 0.40684 0.0
H19 H 0.98367 0.76798 0.14954 0.0
C20 C 0.9924 0.78349 0.18335 0.0
C21 C 0.98089 0.80647 0.17969 0.0
C22 C 0.0155 0.78064 0.22455 0.0
H23 H 0.98207 0.84386 0.23397 0.0
C24 C 0.99052 0.82599 0.23417 0.0
C25 C 0.01279 0.82419 0.28077 0.0
C26 C 0.0258 0.80161 0.27273 0.0
C27 C 0.02839 0.75584 0.2152 0.0
H28 H 0.0438 0.80066 0.30324 0.0
C29 C 0.02323 0.73812 0.14178 0.0
C30 C 0.03484 0.71463 0.1376 0.0
C31 C 0.04559 0.74923 0.28275 0.0
H32 H 0.04982 0.76134 0.34108 0.0
C33 C 0.05719 0.7265 0.27851 0.0
H34 H 1.01059 0.74252 0.08688 0.0
C35 C 0.05188 0.70946 0.20766 0.0
H36 H 0.06083 0.69181 0.20957 0.0
H37 H 0.0702 0.72184 0.33203 0.0
H38 H 0.77406 0.98846 0.12721 0.0
C39 C 0.75941 0.99528 0.17021 0.0
C40 C 0.73899 0.98011 0.18564 0.0
C41 C 0.75986 0.02009 0.19933 0.0
H42 H 0.70494 0.9781 0.26247 0.0
C43 C 0.72067 0.98909 0.24663 0.0
C44 C 0.71998 1.01354 0.27754 0.0
C45 C 0.73963 0.02905 0.25325 0.0
C46 C 0.77942 0.03691 0.16015 0.0
H47 H 0.73884 0.04802 0.27605 0.0
C48 C 0.80272 0.02825 0.12727 0.0
C49 C 0.81909 0.04376 0.07863 0.0
C50 C 0.77385 0.06175 0.14625 0.0
H51 H 0.7564 0.06941 0.16629 0.0
C52 C 0.79023 0.07721 0.10216 0.0
H53 H 0.80806 1.00945 0.13736 0.0
C54 C 0.81242 0.06838 0.06825 0.0
H55 H 0.82452 0.08104 0.03417 0.0
H56 H 0.78544 0.09621 0.09249 0.0
H57 H 0.56613 0.781 0.1184 0.0
C58 C 0.56007 0.76818 0.16999 0.0
C59 C 0.56941 0.7444 0.16607 0.0
C60 C 0.54358 0.77539 0.24092 0.0
H61 H 0.57024 0.70927 0.22836 0.0
C62 C 0.56242 0.72749 0.23263 0.0
C63 C 0.54495 0.73316 0.30094 0.0
C64 C 0.5358 0.75747 0.30564 0.0
C65 C 0.53573 0.80182 0.2491 0.0
H66 H 0.52234 0.76222 0.3581 0.0
C67 C 0.53401 0.81702 0.17002 0.0
C68 C 0.5299 0.84266 0.17947 0.0
C69 C 0.53192 0.81261 0.33762 0.0
H70 H 0.53349 0.80197 0.40008 0.0
C71 C 0.52719 0.8376 0.3476 0.0
H72 H 0.53588 0.80888 0.10112 0.0
C73 C 0.52653 0.85252 0.27002 0.0
H74 H 0.52405 0.87197 0.28212 0.0
H75 H 0.52473 0.84564 0.41654 0.0
H76 H 0.27535 0.48777 0.23277 0.0
C77 C 0.26361 0.49318 0.1763 0.0
C78 C 0.23891 0.48667 0.18011 0.0
C79 C 0.27297 0.50606 0.09969 0.0
H80 H 0.20429 0.48772 0.11152 0.0
C81 C 0.22327 0.49301 0.10754 0.0
C82 C 0.23095 0.50705 0.03305 0.0
C83 C 0.25608 0.51333 0.02863 0.0
C84 C 0.30024 0.51099 0.09279 0.0
H85 H 0.26218 0.52428 0.97128 0.0
C86 C 0.31614 0.51235 0.17222 0.0
C87 C 0.3418 0.51577 0.16205 0.0
C88 C 0.31092 0.51304 1.00412 0.0
H89 H 0.30015 0.51124 0.94129 0.0
C90 C 0.33594 0.51658 0.99392 0.0
H91 H 0.30876 0.51117 0.2418 0.0
C92 C 0.35118 0.51786 0.07143 0.0
H93 H 0.37059 0.5199 0.05979 0.0
H94 H 0.34369 0.5179 0.92485 0.0
H95 H 1.01114 0.27452 0.25373 0.0
C96 C 0.01517 0.26178 0.19717 0.0
C97 C 1.00306 0.2392 0.19541 0.0
C98 C 0.03296 0.26746 0.13033 0.0
H99 H 1.0004 0.20367 0.13036 0.0
C100 C 1.00875 0.22158 0.12632 0.0
C101 C 0.02603 0.22588 0.05658 0.0
C102 C 0.03817 0.24911 0.05916 0.0
C103 C 0.0471 0.29153 0.14162 0.0
H104 H 0.05146 0.25276 1.00562 0.0
C105 C 0.03793 0.31266 0.19263 0.0
C106 C 0.05278 0.33378 0.21117 0.0
C107 C 0.07108 0.29287 0.10734 0.0
H108 H 0.07939 0.27753 0.07068 0.0
C109 C 0.08535 0.31373 0.12246 0.0
H110 H 0.01949 0.31273 0.21922 0.0
C111 C 0.07647 0.33377 0.17379 0.0
H112 H 0.08826 0.34953 0.18324 0.0
H113 H 0.10374 0.31422 0.09508 0.0
H114 H 0.27675 0.04454 0.2291 0.0
C115 C 0.28912 0.04055 0.17219 0.0
C116 C 0.3137 0.03697 0.19396 0.0
C117 C 0.28054 0.03879 0.07989 0.0
H118 H 0.3497 0.03037 0.13897 0.0
C119 C 0.33072 0.03367 0.12204 0.0
C120 C 0.32361 0.03284 0.02847 0.0
C121 C 0.2983 0.03501 0.00725 0.0
C122 C 0.25319 0.04111 0.06275 0.0
H123 H 0.29264 0.03299 0.93535 0.0
C124 C 0.23548 0.03656 0.13393 0.0
C125 C 0.21015 0.04129 0.12121 0.0
C126 C 0.24447 0.04923 0.9767 0.0
H127 H 0.25687 0.0534 0.92064 0.0
C128 C 0.21955 0.05298 0.96219 0.0
H129 H 0.24116 0.02913 0.19956 0.0
C130 C 0.20264 0.04934 0.03342 0.0
H131 H 0.18369 0.05359 0.01999 0.0
H132 H 0.21331 0.05946 0.89555 0.0
H133 H 0.48623 0.27193 0.22963 0.0
C134 C 0.48893 0.28387 0.17137 0.0
C135 C 0.47606 0.30605 0.17045 0.0
C136 C 0.50655 0.27807 0.10282 0.0
H137 H 0.47077 0.33969 0.09795 0.0
C138 C 0.48043 0.32242 0.09823 0.0
C139 C 0.49857 0.31812 0.0311 0.0
C140 C 0.51109 0.29545 0.03198 0.0
C141 C 0.52206 0.25545 0.1136 0.0
H142 H 0.5249 0.29184 0.97967 0.0
C143 C 0.51321 0.23424 0.15886 0.0
C144 C 0.5289 0.21445 0.17946 0.0
C145 C 0.54672 0.25573 0.08617 0.0
H146 H 0.55466 0.27158 0.054 0.0
C147 C 0.562 0.23591 0.1034 0.0
H148 H 0.49431 0.23327 0.18022 0.0
C149 C 0.5533 0.21558 0.1501 0.0
H150 H 0.56573 0.20061 0.16287 0.0
H151 H 0.58092 0.23653 0.08192 0.0
Eu152 Eu 0.03842 0.01803 0.74535 0.0
C153 C 1.00132 1.00202 0.3684 0.0
C154 C 0.02354 0.01983 0.24049 0.0
C155 C 1.00279 0.98084 0.21765 0.0
C156 C 0.01577 0.02056 0.3342 0.0
C157 C 0.99401 0.98236 0.30952 0.0
C158 C 0.01757 0.99953 0.18323 0.0
C159 C 0.96772 0.96871 0.4331 0.0
N160 N 0.99303 1.00404 0.45732 0.0
C161 C 0.97603 0.98811 0.48978 0.0
C162 C 0.97719 0.96546 0.34336 0.0
Eu163 Eu 1.00578 0.03861 0.54567 0.0
N164 N 0.02086 0.0401 0.39085 0.0
C165 C 0.03168 0.06054 0.3558 0.0
C166 C 0.03619 0.03997 0.20609 0.0
C167 C 0.03996 0.06057 0.26363 0.0
H168 H 0.96885 0.99039 0.55946 0.0
H169 H 0.04918 0.07648 0.23694 0.0
H170 H 0.02357 0.99853 0.11133 0.0
H171 H 0.95404 0.9563 0.45875 0.0
H172 H 0.03455 0.07651 0.40019 0.0
H173 H 0.01275 0.08536 0.01937 0.0
H174 H 0.04247 0.0401 0.13455 0.0
H175 H 0.09389 0.99355 0.70669 0.0
H176 H 1.00523 0.05469 0.89857 0.0
H177 H 0.13682 1.0019 0.74689 0.0
H178 H 0.9976 0.96572 0.17175 0.0
H179 H 0.05466 0.09917 0.05434 0.0
H180 H 0.0994 0.09446 0.02729 0.0
H181 H 0.97082 0.95033 0.2998 0.0
H182 H 0.13318 0.07188 0.95302 0.0
N183 N 0.04289 0.0494 0.86301 0.0
C184 C 0.02386 0.05963 0.91202 0.0
C185 C 0.05163 0.08521 1.00085 0.0
C186 C 0.07114 0.07417 0.95365 0.0
C187 C 0.02796 0.07753 0.98118 0.0
C188 C 0.06621 0.05585 0.88512 0.0
H189 H 0.14728 0.03717 0.85003 0.0
N190 N 0.0801 0.02447 0.78277 0.0
C191 C 0.12256 1.01376 0.77396 0.0
C192 C 0.08532 0.04313 0.84339 0.0
C193 C 0.09819 1.00912 0.75122 0.0
C194 C 0.12838 0.03372 0.83193 0.0
C195 C 0.10968 0.0484 0.86892 0.0
O196 O 0.05253 0.99597 0.85904 0.0
O197 O 0.01841 1.0045 0.61635 0.0
O198 O 0.97704 0.02906 0.65696 0.0
O199 O 0.99932 0.02382 0.7926 0.0
O200 O 0.05235 0.98917 0.64276 0.0
O201 O 0.01748 0.98753 0.7995 0.0
O202 O 0.96753 0.04129 0.50475 0.0
O203 O 0.01893 0.05044 0.68942 0.0
O204 O 0.06626 0.03248 0.63935 0.0
O205 O 0.04544 0.03326 0.49805 0.0
O206 O 0.02564 0.07423 0.58238 0.0
O207 O 0.99034 0.07343 0.50172 0.0
C208 C 0.03395 0.98855 0.58719 0.0
C209 C 0.04097 0.95409 0.84546 0.0
C210 C 0.02713 0.91155 0.83984 0.0
C211 C 0.02213 0.93674 0.84858 0.0
C212 C 0.05148 0.90401 0.82662 0.0
C213 C 0.06509 0.94617 0.83165 0.0
C214 C 0.07024 0.92123 0.8221 0.0
C215 C 0.97832 0.02561 0.74811 0.0
C216 C 0.03476 0.98026 0.85395 0.0
C217 C 0.11459 0.06748 0.93315 0.0
C218 C 0.09536 0.08032 0.97549 0.0
C219 C 0.02838 0.07104 0.6704 0.0
C220 C 0.94766 0.07988 0.52445 0.0
C221 C 0.94948 0.10548 0.52281 0.0
C222 C 0.92905 0.12029 0.54092 0.0
C223 C 0.90667 0.10952 0.56281 0.0
C224 C 0.92504 0.06925 0.54628 0.0
C225 C 0.90477 0.08405 0.5662 0.0
C226 C 0.06593 0.03421 0.54707 0.0
C227 C 0.96839 0.06471 0.49105 0.0
H228 H 1.00348 0.943 0.85723 0.0
H229 H 0.05623 0.88479 0.82191 0.0
H230 H 0.07996 0.95916 0.82805 0.0
H231 H 0.08888 0.9152 0.81203 0.0
H232 H 0.96648 0.11398 0.50231 0.0
H233 H 0.89066 0.12075 0.57512 0.0
H234 H 0.92281 0.04955 0.54581 0.0
H235 H 0.88737 0.07576 0.58182 0.0
Eu236 Eu 0.52949 0.03804 0.74009 0.0
C237 C 0.5447 0.99785 0.35354 0.0
C238 C 0.5252 0.01975 0.22909 0.0
C239 C 0.56444 1.00026 0.202 0.0
C240 C 0.52557 1.01168 0.32181 0.0
C241 C 0.56401 0.99126 0.29291 0.0
C242 C 0.54506 0.01455 0.17015 0.0
C243 C 0.57937 0.965 0.41221 0.0
N244 N 0.54354 0.98931 0.4415 0.0
C245 C 0.56021 0.97248 0.47043 0.0
C246 C 0.58167 0.9749 0.32395 0.0
Eu247 Eu 0.51022 1.00267 0.53631 0.0
N248 N 0.50647 0.0158 0.3798 0.0
C249 C 0.48546 0.0261 0.34697 0.0
C250 C 0.50448 0.032 0.19742 0.0
C251 C 0.48434 0.0348 0.25615 0.0
H252 H 0.55904 0.96461 0.53826 0.0
H253 H 0.46796 0.04365 0.23157 0.0
H254 H 0.54521 0.02075 0.09895 0.0
H255 H 0.59234 0.95154 0.4356 0.0
H256 H 0.46986 0.02837 0.39236 0.0
H257 H 0.46321 0.01793 0.01637 0.0
H258 H 0.50362 0.0387 0.12708 0.0
H259 H 0.5555 0.09321 0.70653 0.0
H260 H 0.49714 1.00917 0.9116 0.0
H261 H 0.54575 0.13688 0.73179 0.0
H262 H 0.57925 0.99561 0.15486 0.0
H263 H 0.44623 0.05967 0.029 0.0
H264 H 0.44898 0.10377 0.9859 0.0
H265 H 0.59662 0.96915 0.27922 0.0
H266 H 0.47155 0.13638 0.90804 0.0
N267 N 0.49826 0.04493 0.85403 0.0
C268 C 0.48954 0.02725 0.91146 0.0
C269 C 0.46075 0.05579 0.9797 0.0
C270 C 0.47111 0.07438 0.92728 0.0
C271 C 0.47033 0.03223 0.97297 0.0
C272 C 0.49027 0.06837 0.865 0.0
H273 H 0.508 0.14896 0.81496 0.0
N274 N 0.52292 0.08051 0.77047 0.0
C275 C 0.53342 0.12299 0.75656 0.0
C276 C 0.50304 0.08675 0.82187 0.0
C277 C 0.53889 0.09819 0.74253 0.0
C278 C 0.51207 0.12972 0.8033 0.0
C279 C 0.49693 0.11156 0.83898 0.0
O280 O 0.55173 0.05115 0.85802 0.0
O281 O 0.54282 0.01796 0.61055 0.0
O282 O 0.52973 0.9793 0.64352 0.0
O283 O 0.51762 0.99936 0.77731 0.0
O284 O 0.55887 0.05141 0.64141 0.0
O285 O 0.55876 0.01577 0.79645 0.0
O286 O 0.50305 0.96376 0.56117 0.0
O287 O 0.49831 0.01768 0.67699 0.0
O288 O 0.51637 0.06532 0.63151 0.0
O289 O 0.51161 0.04247 0.49305 0.0
O290 O 0.47385 0.0216 0.57273 0.0
O291 O 0.48063 0.98301 0.46586 0.0
C292 C 0.55861 0.03324 0.58287 0.0
C293 C 0.59288 0.03751 0.84826 0.0
C294 C 0.63441 0.02132 0.84816 0.0
C295 C 0.60915 0.0179 0.85792 0.0
C296 C 0.64318 0.04488 0.82835 0.0
C297 C 0.60196 0.06082 0.82788 0.0
C298 C 0.62702 0.06442 0.81811 0.0
C299 C 0.52493 0.97914 0.73365 0.0
C300 C 0.56655 0.03262 0.85361 0.0
C301 C 0.47671 0.11746 0.89508 0.0
C302 C 0.46385 0.09889 0.93937 0.0
C303 C 0.47722 0.02589 0.6603 0.0
C304 C 0.4606 0.95693 0.5704 0.0
C305 C 0.43856 0.96908 0.55424 0.0
C306 C 0.41875 0.96723 0.61579 0.0
C307 C 0.42036 0.95068 0.68917 0.0
C308 C 0.46203 0.94072 0.64482 0.0
C309 C 0.44185 0.93737 0.70292 0.0
C310 C 0.51222 0.06346 0.54064 0.0
C311 C 0.48253 0.96373 0.51657 0.0
H312 H 0.60198 0.99982 0.87143 0.0
H313 H 0.66254 0.0484 0.82244 0.0
H314 H 0.58977 0.07617 0.81872 0.0
H315 H 0.63397 0.08244 0.80278 0.0
H316 H 0.4371 0.98064 0.49419 0.0
H317 H 0.40543 0.94858 0.73765 0.0
H318 H 0.47885 0.93112 0.65941 0.0
H319 H 0.44314 0.92501 0.76064 0.0
Eu320 Eu 0.54058 0.51756 0.56819 0.0
C321 C 0.445 0.51666 0.80229 0.0
C322 C 0.41776 0.53971 0.70485 0.0
C323 C 0.40131 0.50857 0.80522 0.0
C324 C 0.44156 0.53439 0.73671 0.0
C325 C 0.42482 0.50406 0.83943 0.0
C326 C 0.3978 0.52631 0.73774 0.0
C327 C 0.45213 0.48536 0.94862 0.0
N328 N 0.46788 0.51283 0.83433 0.0
C329 C 0.4715 0.49816 0.90933 0.0
C330 C 0.42872 0.48796 0.91236 0.0
Eu331 Eu 0.50053 0.53466 0.76412 0.0
N332 N 0.46127 0.5471 0.70676 0.0
C333 C 0.45785 0.56658 0.64936 0.0
C334 C 0.41459 0.55867 0.64237 0.0
C335 C 0.43468 0.57239 0.6157 0.0
H336 H 0.48954 0.49626 0.93875 0.0
H337 H 0.43241 0.58737 0.56833 0.0
H338 H 0.37949 0.53 0.71329 0.0
H339 H 0.45522 0.47371 0.00742 0.0
H340 H 0.47273 0.57751 0.62531 0.0
H341 H 0.60641 0.46324 0.76737 0.0
H342 H 0.39668 0.56319 0.61585 0.0
H343 H 0.5534 0.55712 0.3982 0.0
H344 H 0.56664 0.47372 0.70514 0.0
H345 H 0.58839 0.58027 0.33776 0.0
H346 H 0.38566 0.49891 0.83224 0.0
H347 H 0.64268 0.48764 0.72759 0.0
H348 H 0.66094 0.52154 0.63643 0.0
H349 H 0.41369 0.47812 0.94318 0.0
H350 H 0.65604 0.5536 0.52039 0.0
N351 N 0.57913 0.50468 0.62949 0.0
C352 C 0.58186 0.48475 0.68506 0.0
C353 C 0.62506 0.49243 0.69903 0.0
C354 C 0.62259 0.51188 0.63822 0.0
C355 C 0.60466 0.4786 0.72141 0.0
C356 C 0.59915 0.51755 0.60366 0.0
H357 H 0.62919 0.57537 0.40798 0.0
N358 N 0.57382 0.5401 0.50521 0.0
C359 C 0.59085 0.56816 0.39568 0.0
C360 C 0.59637 0.53588 0.53991 0.0
C361 C 0.57108 0.55506 0.43044 0.0
C362 C 0.61384 0.56532 0.43539 0.0
C363 C 0.61696 0.54868 0.50707 0.0
O364 O 0.53996 0.51272 0.41701 0.0
O365 O 0.50159 0.51903 0.61834 0.0
O366 O 0.50298 0.4931 0.76596 0.0
O367 O 0.52913 0.4827 0.64287 0.0
O368 O 0.50862 0.5326 0.48749 0.0
O369 O 0.54404 0.48114 0.50352 0.0
O370 O 0.49933 0.54179 0.91425 0.0
O371 O 0.53949 0.53259 0.71485 0.0
O372 O 0.53911 0.55915 0.56967 0.0
O373 O 0.51023 0.56905 0.6839 0.0
O374 O 0.53195 0.51842 0.84435 0.0
O375 O 0.50334 0.57194 0.82154 0.0
C376 C 0.49164 0.52767 0.54616 0.0
C377 C 0.52097 0.47658 0.3636 0.0
C378 C 0.48798 0.4466 0.3474 0.0
C379 C 0.50462 0.45996 0.40341 0.0
C380 C 0.48681 0.45171 0.2515 0.0
C381 C 0.51938 0.4813 0.26819 0.0
C382 C 0.50212 0.46919 0.21287 0.0
C383 C 0.51545 0.47689 0.7154 0.0
C384 C 0.53998 0.489 0.41977 0.0
C385 C 0.6401 0.54379 0.54405 0.0
C386 C 0.6429 0.52548 0.60982 0.0
C387 C 0.54918 0.5236 0.78698 0.0
C388 C 0.52749 0.57245 0.95924 0.0
C389 C 0.54278 0.59093 0.92535 0.0
C390 C 0.56337 0.59895 0.97618 0.0
C391 C 0.56922 0.58698 0.05933 0.0
C392 C 0.53368 0.56104 0.04274 0.0
C393 C 0.5546 0.56806 0.09156 0.0
C394 C 0.5252 0.57508 0.61561 0.0
C395 C 0.50546 0.5646 0.90688 0.0
H396 H 0.50533 0.45697 0.47758 0.0
H397 H 0.47488 0.44155 0.20479 0.0
H398 H 0.53164 0.49424 0.23632 0.0
H399 H 0.50114 0.47276 0.13908 0.0
H400 H 0.53841 0.59935 0.85997 0.0
H401 H 0.58446 0.59283 0.10219 0.0
H402 H 0.52237 0.54663 0.0703 0.0
H403 H 0.55916 0.55923 0.15608 0.0
Eu404 Eu 0.03169 0.54321 0.55178 0.0
C405 C 0.03763 0.4558 0.78848 0.0
C406 C 0.01492 0.42657 0.69433 0.0
C407 C 0.04961 0.41288 0.78436 0.0
C408 C 0.01918 0.45084 0.72621 0.0
C409 C 0.05259 0.43674 0.82089 0.0
C410 C 0.03071 0.40778 0.72135 0.0
C411 C 0.06977 0.4654 0.93273 0.0
N412 N 0.03949 0.4789 0.82378 0.0
C413 C 0.05418 0.4835 0.89951 0.0
C414 C 0.0693 0.442 0.8921 0.0
Eu415 Eu 0.01488 0.50993 0.75462 0.0
N416 N 1.0042 0.46944 0.70249 0.0
C417 C 0.98337 0.46449 0.65313 0.0
C418 C 0.99434 0.42174 0.63965 0.0
C419 C 0.97818 0.4407 0.62091 0.0
H420 H 0.05483 0.50165 0.93096 0.0
H421 H 0.96187 0.43711 0.58037 0.0
H422 H 0.02792 0.38911 0.69661 0.0
H423 H 0.08216 0.4695 0.98947 0.0
H424 H 0.97072 0.4787 0.63635 0.0
H425 H 0.12347 0.58354 0.52539 0.0
H426 H 0.99039 0.40337 0.61395 0.0
H427 H 0.97697 0.57535 0.56661 0.0
H428 H 0.09236 0.55162 0.50687 0.0
H429 H 0.96294 0.61645 0.6001 0.0
H430 H 0.06115 0.39807 0.80733 0.0
H431 H 0.11192 0.62477 0.58399 0.0
H432 H 0.07911 0.65415 0.62974 0.0
H433 H 0.08119 0.42792 0.91863 0.0
H434 H 0.03552 0.66318 0.64773 0.0
N435 N 0.0632 0.57363 0.56024 0.0
C436 C 0.08689 0.56937 0.53334 0.0
C437 C 0.09811 0.61066 0.57678 0.0
C438 C 0.0736 0.61573 0.59566 0.0
C439 C 0.10469 0.58748 0.5436 0.0
C440 C 0.05623 0.59669 0.58552 0.0
H441 H 0.99238 0.64959 0.63358 0.0
N442 N 0.01507 0.58339 0.58096 0.0
C443 C 0.9823 0.61259 0.59944 0.0
C444 C 0.03156 0.60179 0.5948 0.0
C445 C 0.99064 0.58883 0.58061 0.0
C446 C 0.99895 0.63122 0.61825 0.0
C447 C 0.02386 0.62607 0.61533 0.0
O448 O 0.01642 0.53013 0.41846 0.0
O449 O 0.02125 0.50581 0.60128 0.0
O450 O 0.05655 0.51167 0.75619 0.0
O451 O 0.06733 0.53446 0.62807 0.0
O452 O 0.0536 0.50807 0.52939 0.0
O453 O 0.04343 0.55835 0.41912 0.0
O454 O 1.00947 0.51477 0.90465 0.0
O455 O 0.01648 0.5482 0.69608 0.0
O456 O 0.99075 0.53653 0.5368 0.0
O457 O 0.97936 0.51966 0.67781 0.0
O458 O 0.03342 0.54284 0.82249 0.0
O459 O 0.9787 0.50673 0.8172 0.0
C460 C 0.03822 0.49294 0.56452 0.0
C461 C 0.04715 0.52693 0.30547 0.0
C462 C 0.08505 0.50391 0.27951 0.0
C463 C 0.07035 0.51947 0.3347 0.0
C464 C 0.07577 0.49566 0.19292 0.0
C465 C 0.0382 0.5184 0.21958 0.0
C466 C 0.05249 0.5028 0.16365 0.0
C467 C 0.073 0.52261 0.70442 0.0
C468 C 0.03194 0.54206 0.36878 0.0
C469 C 0.04117 0.64462 0.6305 0.0
C470 C 0.06598 0.63947 0.62057 0.0
C471 C 0.0278 0.55911 0.76279 0.0
C472 C 0.97382 0.53719 0.93588 0.0
C473 C 0.95463 0.54821 0.88723 0.0
C474 C 0.9429 0.56926 0.92334 0.0
C475 C 0.95187 0.58008 0.00657 0.0
C476 C 0.98225 0.54821 0.01899 0.0
C477 C 0.97153 0.56972 0.05325 0.0
C478 C 0.97392 0.52816 0.59426 0.0
C479 C 0.98593 0.51498 0.89812 0.0
H480 H 0.07671 0.52551 0.40206 0.0
H481 H 0.08649 0.48398 0.14714 0.0
H482 H 0.02014 0.52354 0.19648 0.0
H483 H 0.04544 0.49615 0.09752 0.0
H484 H 0.94851 0.54016 0.82176 0.0
H485 H 0.94311 0.59591 0.0384 0.0
H486 H 0.99724 0.54026 0.05708 0.0
H487 H 0.97809 0.57806 0.11756 0.0
H488 H 0.16064 0.02814 0.11376 0.0
H489 H 0.21717 0.05103 0.30896 0.0
H490 H 0.18697 0.05121 0.43608 0.0
H491 H 0.11301 0.06565 0.2117 0.0
H492 H 0.08932 0.04327 0.19214 0.0
H493 H 0.11559 0.04352 0.1172 0.0
H494 H 0.12386 0.99816 0.15296 0.0
H495 H 0.09759 0.99781 0.22838 0.0
H496 H 0.12706 0.98904 0.27228 0.0
H497 H 0.15003 0.05071 0.54309 0.0
H498 H 0.11005 0.04819 0.62083 0.0
H499 H 0.07666 0.02583 0.35857 0.0
C500 C 0.16683 0.03321 0.18307 0.0
C501 C 0.19175 0.03946 0.19999 0.0
C502 C 0.19861 0.04567 0.29294 0.0
C503 C 0.18141 0.04606 0.36605 0.0
C504 C 0.15712 0.04019 0.34644 0.0
C505 C 0.14983 0.03373 0.25724 0.0
C506 C 0.12245 0.02855 0.25489 0.0
C507 C 0.10932 0.04633 0.1902 0.0
C508 C 0.11746 1.00179 0.22538 0.0
C509 C 0.11546 0.0333 0.35653 0.0
C510 C 0.13581 0.03995 0.40803 0.0
C511 C 0.13407 0.04533 0.50327 0.0
C512 C 0.11117 0.0437 0.54719 0.0
C513 C 0.08995 0.03661 0.49684 0.0
C514 C 0.09231 0.03148 0.39961 0.0
H515 H 0.55239 0.19091 0.32188 0.0
H516 H 0.48633 0.18818 0.15579 0.0
H517 H 0.47391 0.15032 0.23508 0.0
H518 H 0.56401 0.12683 0.31891 0.0
H519 H 0.57516 0.12619 0.43687 0.0
H520 H 0.57822 0.15362 0.37051 0.0
H521 H 0.5552 0.17844 0.49931 0.0
H522 H 0.55255 0.15101 0.56598 0.0
H523 H 0.52561 0.16817 0.53699 0.0
H524 H 0.47034 0.11068 0.32505 0.0
H525 H 0.47477 0.07435 0.42388 0.0
H526 H 0.54257 0.10343 0.53432 0.0
C527 C 0.53523 0.18243 0.30234 0.0
C528 C 0.52035 0.19262 0.23213 0.0
C529 C 0.49794 0.18098 0.2097 0.0
C530 C 0.4908 0.15936 0.25416 0.0
C531 C 0.5061 0.14966 0.32196 0.0
C532 C 0.52775 0.16099 0.34658 0.0
C533 C 0.54112 0.14669 0.42056 0.0
C534 C 0.5661 0.13781 0.38453 0.0
C535 C 0.54376 0.162 0.51108 0.0
C536 C 0.52376 0.12539 0.43331 0.0
C537 C 0.50371 0.12736 0.37541 0.0
C538 C 0.48583 0.10918 0.37128 0.0
C539 C 0.48855 0.08853 0.42728 0.0
C540 C 0.50885 0.08621 0.48735 0.0
C541 C 0.52655 0.10502 0.4908 0.0
H542 H 0.38171 0.54604 0.18883 0.0
H543 H 0.34301 0.48642 0.31762 0.0
H544 H 0.37575 0.48382 0.43658 0.0
H545 H 0.4407 0.52181 0.21265 0.0
H546 H 0.45517 0.55094 0.23565 0.0
H547 H 0.42766 0.54943 0.16746 0.0
H548 H 0.40694 0.58059 0.28115 0.0
H549 H 0.43446 0.58221 0.34962 0.0
H550 H 0.40598 0.57429 0.40386 0.0
H551 H 0.4162 0.48573 0.53519 0.0
H552 H 0.45738 0.4934 0.6028 0.0
H553 H 0.46857 0.55161 0.40748 0.0
C554 C 0.37987 0.53253 0.24247 0.0
C555 C 0.35953 0.5164 0.24299 0.0
C556 C 0.35807 0.49923 0.31563 0.0
C557 C 0.37677 0.49751 0.38333 0.0
C558 C 0.39691 0.51322 0.37865 0.0
C559 C 0.3983 0.5306 0.31025 0.0
C560 C 0.42202 0.54489 0.31737 0.0
C561 C 0.43728 0.54156 0.228 0.0
C562 C 0.41704 0.57211 0.33929 0.0
C563 C 0.4341 0.53265 0.39925 0.0
C564 C 0.41944 0.51447 0.43449 0.0
C565 C 0.42752 0.50021 0.50848 0.0
C566 C 0.45093 0.50475 0.54698 0.0
C567 C 0.46602 0.52356 0.51236 0.0
C568 C 0.45734 0.53742 0.43695 0.0
H569 H 0.07911 0.36247 0.33896 0.0
H570 H 1.00754 0.35681 0.2116 0.0
H571 H 0.99554 0.39569 0.29138 0.0
H572 H 0.0592 0.38817 0.56086 0.0
H573 H 0.08483 0.40858 0.57506 0.0
H574 H 0.08825 0.38012 0.51044 0.0
H575 H 0.10361 0.40268 0.3666 0.0
H576 H 0.10121 0.43144 0.42962 0.0
H577 H 0.08577 0.42724 0.31963 0.0
H578 H 0.99276 0.43817 0.37578 0.0
H579 H 0.99821 0.47702 0.46569 0.0
H580 H 0.07098 0.45455 0.54318 0.0
C581 C 0.06082 0.36926 0.32764 0.0
C582 C 0.04434 0.35618 0.26768 0.0
C583 C 0.02054 0.36597 0.25715 0.0
C584 C 0.01361 0.38828 0.30195 0.0
C585 C 0.0305 0.40084 0.35857 0.0
C586 C 0.05357 0.39145 0.37225 0.0
C587 C 0.06846 0.40851 0.43591 0.0
C588 C 0.07561 0.39558 0.52593 0.0
C589 C 0.0911 0.41804 0.3849 0.0
C590 C 0.05032 0.42911 0.45569 0.0
C591 C 0.02855 0.42444 0.40991 0.0
C592 C 1.00957 0.44154 0.41343 0.0
C593 C 0.01274 0.46358 0.46552 0.0
C594 C 0.03452 0.46846 0.51591 0.0
C595 C 0.05371 0.45103 0.50888 0.0
H596 H 0.83992 0.05519 0.90874 0.0
H597 H 0.85353 1.01319 0.15634 0.0
H598 H 0.89475 1.00282 0.09649 0.0
H599 H 0.87246 0.01488 0.74654 0.0
H600 H 0.88474 0.03921 0.67827 0.0
H601 H 0.85587 0.04321 0.73679 0.0
H602 H 0.87134 0.08202 0.82153 0.0
H603 H 0.90055 0.07917 0.76503 0.0
H604 H 0.89884 0.08085 0.89012 0.0
H605 H 0.93631 0.9999 0.01384 0.0
H606 H 0.97269 1.0022 0.91326 0.0
H607 H 0.93207 0.04534 0.71658 0.0
C608 C 0.85146 0.04368 0.95052 0.0
C609 C 0.8432 0.0351 0.03812 0.0
C610 C 0.85905 0.01985 0.08907 0.0
C611 C 0.88266 1.014 0.05567 0.0
C612 C 0.89032 0.02325 0.97029 0.0
C613 C 0.87501 0.03755 0.9179 0.0
C614 C 0.88768 0.04548 0.82892 0.0
C615 C 0.87438 0.0351 0.74251 0.0
C616 C 0.8897 0.07354 0.82623 0.0
C617 C 0.91267 0.03372 0.83955 0.0
C618 C 0.91383 0.02104 0.92184 0.0
C619 C 0.93536 1.00956 0.94893 0.0
C620 C 0.95606 1.01105 0.89105 0.0
C621 C 0.95541 0.02373 0.80568 0.0
C622 C 0.93319 0.03509 0.77991 0.0
H623 H 0.5058 0.88726 0.15627 0.0
H624 H 0.55563 0.83703 0.01397 0.0
H625 H 0.5582 0.86534 0.88344 0.0
H626 H 0.47481 0.91013 0.95444 0.0
H627 H 0.47345 0.94118 0.99915 0.0
H628 H 0.47374 0.91605 0.0784 0.0
H629 H 0.51152 0.93482 0.16195 0.0
H630 H 0.5113 0.95995 0.08281 0.0
H631 H 0.5384 0.94164 0.09506 0.0
H632 H 0.55612 0.89991 0.76767 0.0
H633 H 0.55074 0.93815 0.68116 0.0
H634 H 0.50516 0.96725 0.90424 0.0
C635 C 0.51747 0.88205 0.09848 0.0
C636 C 0.53038 0.85941 0.09689 0.0
C637 C 0.54497 0.85369 0.01754 0.0
C638 C 0.54679 0.86987 0.94283 0.0
C639 C 0.53419 0.89205 0.94797 0.0
C640 C 0.51993 0.89823 0.02414 0.0
C641 C 0.50914 0.92372 0.01453 0.0
C642 C 0.48112 0.9227 0.01145 0.0
C643 C 0.51813 0.94105 0.09324 0.0
C644 C 0.51958 0.93091 0.92105 0.0
C645 C 0.53379 0.9123 0.88337 0.0
C646 C 0.54508 0.91459 0.7969 0.0
C647 C 0.54188 0.93643 0.74807 0.0
C648 C 0.52772 0.95596 0.7859 0.0
C649 C 0.5164 0.95296 0.87364 0.0
H650 H 0.65858 0.50695 0.15045 0.0
H651 H 0.69804 0.56485 0.014 0.0
H652 H 0.66469 0.56791 0.89805 0.0
H653 H 0.63356 0.4781 0.93913 0.0
H654 H 0.60501 0.4708 0.99418 0.0
H655 H 0.63255 0.4726 0.06247 0.0
H656 H 0.61192 0.50451 0.17305 0.0
H657 H 0.58444 0.50317 0.10448 0.0
H658 H 0.59945 0.53211 0.12563 0.0
H659 H 0.62398 0.56659 0.80243 0.0
H660 H 0.5831 0.55847 0.73316 0.0
H661 H 0.57165 0.50065 0.92996 0.0
C662 C 0.66039 0.52021 0.09591 0.0
C663 C 0.68121 0.53568 0.09216 0.0
C664 C 0.68262 0.55255 0.01848 0.0
C665 C 0.66357 0.55455 0.95247 0.0
C666 C 0.64312 0.53937 0.95969 0.0
C667 C 0.64167 0.52229 0.02918 0.0
C668 C 0.6178 0.50818 0.02292 0.0
C669 C 0.62252 0.4808 1.00354 0.0
C670 C 0.6025 0.51224 0.11178 0.0
C671 C 0.60588 0.52003 0.93976 0.0
C672 C 0.62059 0.5381 0.90405 0.0
C673 C 0.61266 0.55212 0.82922 0.0
C674 C 0.58943 0.54731 0.7897 0.0
C675 C 0.57445 0.52831 0.82359 0.0
C676 C 0.58287 0.51487 0.90059 0.0
H677 H 0.06627 0.68072 0.05224 0.0
H678 H 0.99014 0.70228 0.05771 0.0
H679 H 0.98015 0.66673 0.9544 0.0
H680 H 0.06776 0.6588 0.81299 0.0
H681 H 0.08749 0.63308 0.8341 0.0
H682 H 0.08969 0.66043 0.90616 0.0
H683 H 0.08238 0.6364 0.05551 0.0
H684 H 0.08135 0.60847 0.98678 0.0
H685 H 0.05631 0.61643 0.06297 0.0
H686 H 0.97806 0.62509 0.86079 0.0
H687 H 0.98474 0.58479 0.78184 0.0
H688 H 0.06214 0.59086 0.83526 0.0
C689 C 0.04743 0.67818 0.03177 0.0
C690 C 0.02902 0.69473 0.06459 0.0
C691 C 1.00475 0.69041 0.03367 0.0
C692 C 0.99886 0.67 0.97517 0.0
C693 C 0.01737 0.65383 0.94646 0.0
C694 C 0.04125 0.65792 0.97338 0.0
C695 C 0.05783 0.63765 0.93516 0.0
C696 C 0.07683 0.64809 0.86809 0.0
C697 C 0.07019 0.62393 0.01485 0.0
C698 C 0.03964 0.62124 0.88343 0.0
C699 C 0.01633 0.63081 0.89064 0.0
C700 C 0.99638 0.61795 0.85311 0.0
C701 C 1.00034 0.59506 0.80736 0.0
C702 C 0.02409 0.58506 0.79778 0.0
C703 C 0.04387 0.5984 0.83771 0.0
H704 H 0.95946 0.21567 0.17707 0.0
H705 H 1.00898 0.24641 0.38355 0.0
H706 H 0.98563 0.22664 0.50766 0.0
H707 H 0.90232 0.21201 0.33451 0.0
H708 H 0.89436 0.18296 0.28082 0.0
H709 H 0.90909 0.20616 0.21321 0.0
H710 H 0.94313 0.17526 0.16703 0.0
H711 H 0.92863 0.15217 0.23416 0.0
H712 H 0.95996 0.16025 0.25738 0.0
H713 H 0.96552 0.19511 0.60046 0.0
H714 H 0.9506 0.15484 0.65141 0.0
H715 H 0.91439 0.14338 0.38731 0.0
C716 C 0.96474 0.21899 0.2489 0.0
C717 C 0.98592 0.2326 0.27081 0.0
C718 C 0.99255 0.23642 0.36524 0.0
C719 C 0.97935 0.22522 0.4363 0.0
C720 C 0.95946 0.2105 0.41182 0.0
C721 C 0.95197 0.20764 0.32018 0.0
C722 C 0.93332 0.18735 0.30936 0.0
C723 C 0.90828 0.19775 0.28294 0.0
C724 C 0.94179 0.16761 0.2379 0.0
C725 C 0.93307 0.17781 0.40747 0.0
C726 C 0.94761 0.19194 0.46642 0.0
C727 C 0.95336 0.18448 0.55616 0.0
C728 C 0.94491 0.16163 0.58476 0.0
C729 C 0.931 0.14662 0.52387 0.0
C730 C 0.92416 0.1552 0.43598 0.0
H731 H 0.35538 0.0534 0.27992 0.0
H732 H 0.2898 1.01099 0.32649 0.0
H733 H 0.30676 0.9966 0.47398 0.0
H734 H 0.39371 1.00856 0.33552 0.0
H735 H 0.41683 0.02765 0.38897 0.0
H736 H 0.39687 0.04011 0.30326 0.0
H737 H 0.38545 0.07409 0.41892 0.0
H738 H 0.40332 0.06152 0.51181 0.0
H739 H 0.37102 0.0672 0.52736 0.0
H740 H 0.33478 0.97684 0.58299 0.0
H741 H 0.37043 0.95565 0.64675 0.0
H742 H 0.41719 1.01377 0.54812 0.0
C743 C 0.34425 0.0418 0.32298 0.0
C744 C 0.32128 0.03341 0.29187 0.0
C745 C 0.30728 0.01808 0.34963 0.0
C746 C 0.31681 1.00972 0.43363 0.0
C747 C 0.34022 0.01707 0.45948 0.0
C748 C 0.35363 0.0331 0.40638 0.0
C749 C 0.37968 0.03499 0.44006 0.0
C750 C 0.3978 0.02735 0.36238 0.0
C751 C 0.38521 0.06098 0.47701 0.0
C752 C 0.37919 0.01649 0.51715 0.0
C753 C 0.35626 1.00639 0.52763 0.0
C754 C 0.35263 0.98519 0.57852 0.0
C755 C 0.37306 0.97322 0.61482 0.0
C756 C 0.39677 0.98267 0.60072 0.0
C757 C 0.3994 1.00564 0.55812 0.0
H758 H 0.43388 0.33267 0.17687 0.0
H759 H 0.48918 0.30158 0.35306 0.0
H760 H 0.48195 0.33354 0.47021 0.0
H761 H 0.45412 0.38174 0.16572 0.0
H762 H 0.42869 0.40268 0.17257 0.0
H763 H 0.42362 0.37167 0.13708 0.0
H764 H 0.39242 0.36581 0.26891 0.0
H765 H 0.39669 0.39742 0.30432 0.0
H766 H 0.40048 0.3735 0.38762 0.0
H767 H 0.48811 0.37495 0.51405 0.0
H768 H 0.50281 0.41591 0.48574 0.0
H769 H 0.44375 0.42731 0.29095 0.0
C770 C 0.44327 0.33202 0.24304 0.0
C771 C 0.46263 0.31529 0.25432 0.0
C772 C 0.47435 0.31426 0.34175 0.0
C773 C 0.47037 0.33266 0.40918 0.0
C774 C 0.45474 0.35196 0.38806 0.0
C775 C 0.44037 0.35128 0.30834 0.0
C776 C 0.43055 0.37662 0.28754 0.0
C777 C 0.43456 0.38357 0.1848 0.0
C778 C 0.40343 0.37844 0.31373 0.0
C779 C 0.44586 0.39204 0.35424 0.0
C780 C 0.4583 0.37742 0.41609 0.0
C781 C 0.47768 0.38666 0.46905 0.0
C782 C 0.48596 0.41037 0.45269 0.0
C783 C 0.47463 0.42508 0.38514 0.0
C784 C 0.45308 0.41638 0.34171 0.0
H785 H 0.21094 0.446 0.19461 0.0
H786 H 0.23847 0.50833 0.35126 0.0
H787 H 0.20008 0.51112 0.43779 0.0
H788 H 0.16444 0.46866 0.12957 0.0
H789 H 0.14191 0.44479 0.13628 0.0
H790 H 0.17348 0.43689 0.12768 0.0
H791 H 0.17201 0.41266 0.28116 0.0
H792 H 0.13975 0.4189 0.28423 0.0
H793 H 0.1585 0.42662 0.38376 0.0
H794 H 0.15752 0.52125 0.43984 0.0
H795 H 0.11636 0.53116 0.39095 0.0
H796 H 0.11174 0.46184 0.23801 0.0
C797 C 0.20942 0.45873 0.25315 0.0
C798 C 0.2272 0.47728 0.26512 0.0
C799 C 0.22501 0.494 0.34083 0.0
C800 C 0.20295 0.49591 0.38955 0.0
C801 C 0.18371 0.48051 0.36291 0.0
C802 C 0.18699 0.46133 0.29928 0.0
C803 C 0.16254 0.45125 0.26595 0.0
C804 C 0.16052 0.4504 0.15864 0.0
C805 C 0.15793 0.42586 0.30632 0.0
C806 C 0.14541 0.47008 0.30887 0.0
C807 C 0.15789 0.48621 0.36718 0.0
C808 C 0.14722 0.50792 0.39922 0.0
C809 C 0.12348 0.51338 0.37093 0.0
C810 C 0.11002 0.497 0.31253 0.0
C811 C 0.12117 0.47477 0.28324 0.0
H812 H 0.9465 0.84377 0.16617 0.0
H813 H 0.97517 0.78161 0.00956 0.0
H814 H 0.97268 0.80433 0.86801 0.0
H815 H 0.92191 0.88107 0.93704 0.0
H816 H 0.93317 0.90871 0.99264 0.0
H817 H 0.91842 0.88565 0.061 0.0
H818 H 0.95632 0.88449 0.16866 0.0
H819 H 0.97079 0.90715 0.10055 0.0
H820 H 0.98592 0.8783 0.11796 0.0
H821 H 0.99322 0.83446 0.7823 0.0
H822 H 0.02275 0.86662 0.75094 0.0
H823 H 0.98755 0.91404 0.95578 0.0
C824 C 0.9516 0.83485 0.10114 0.0
C825 C 0.96365 0.81196 0.10142 0.0
C826 C 0.9673 0.79973 0.01443 0.0
C827 C 0.96601 0.81275 0.932 0.0
C828 C 0.96108 0.83777 0.93788 0.0
C829 C 0.95263 0.84869 0.02004 0.0
C830 C 0.95558 0.87636 0.01754 0.0
C831 C 0.9308 0.88867 1.001 0.0
C832 C 0.96792 0.88712 0.1063 0.0
C833 C 0.97169 0.87846 0.93239 0.0
C834 C 0.97328 0.85631 0.8841 0.0
C835 C 0.99115 0.85219 0.81638 0.0
C836 C 1.00821 0.87058 0.79983 0.0
C837 C 1.00719 0.89324 0.84912 0.0
C838 C 0.98814 0.89737 0.91388 0.0
H839 H 0.70173 0.94423 0.19069 0.0
H840 H 0.76331 0.96372 0.01997 0.0
H841 H 0.73826 0.96012 0.88221 0.0
H842 H 0.65918 0.91745 0.97709 0.0
H843 H 0.63351 0.93234 0.03258 0.0
H844 H 0.65649 0.91775 0.10221 0.0
H845 H 0.66217 0.95831 0.19637 0.0
H846 H 0.63971 0.97277 0.12682 0.0
H847 H 0.66983 0.98586 0.13545 0.0
H848 H 0.70823 0.98118 0.79413 0.0
H849 H 0.67753 1.01182 0.75682 0.0
H850 H 0.63121 0.98536 0.97704 0.0
C851 C 0.70995 0.94779 0.12405 0.0
C852 C 0.73314 0.95911 0.11846 0.0
C853 C 0.74452 0.95849 0.02959 0.0
C854 C 0.73029 0.95614 0.94915 0.0
C855 C 0.70515 0.95341 0.95934 0.0
C856 C 0.69499 0.94782 0.04486 0.0
C857 C 0.66769 0.9528 0.04516 0.0
C858 C 0.65338 0.92865 0.03881 0.0
C859 C 0.65945 0.96839 0.13084 0.0
C860 C 0.66534 0.96667 0.95537 0.0
C861 C 0.68674 0.96548 0.90422 0.0
C862 C 0.69094 0.98115 0.83044 0.0
C863 C 0.67339 0.99881 0.81014 0.0
C864 C 0.65154 1.0006 0.8621 0.0
C865 C 0.64724 0.98372 0.93346 0.0
H866 H 0.5512 0.7343 0.99829 0.0
H867 H 0.61704 0.73018 0.16079 0.0
H868 H 0.63068 0.69472 0.06651 0.0
H869 H 0.53449 0.683 0.01876 0.0
H870 H 0.52244 0.67449 0.90558 0.0
H871 H 0.52469 0.70599 0.93827 0.0
H872 H 0.55058 0.71419 0.79248 0.0
H873 H 0.54882 0.68228 0.75844 0.0
H874 H 0.57806 0.6969 0.77053 0.0
H875 H 0.62874 0.65255 0.01111 0.0
H876 H 0.61195 0.61089 1.00482 0.0
H877 H 0.5446 0.63924 0.89134 0.0
C878 C 0.56937 0.72701 0.00778 0.0
C879 C 0.58323 0.73488 0.08512 0.0
C880 C 0.60649 0.72464 0.1001 0.0
C881 C 0.61426 0.70431 0.04686 0.0
C882 C 0.5985 0.69449 0.9793 0.0
C883 C 0.57668 0.70601 0.95752 0.0
C884 C 0.55999 0.68884 0.90293 0.0
C885 C 0.53394 0.68802 0.94413 0.0
C886 C 0.55933 0.69598 0.80002 0.0
C887 C 0.57356 0.66494 0.91399 0.0
C888 C 0.59657 0.66884 0.95097 0.0
C889 C 0.61097 0.64937 0.98034 0.0
C890 C 0.60106 0.62571 0.97811 0.0
C891 C 0.57658 0.62174 0.95015 0.0
C892 C 0.56343 0.64142 0.91197 0.0
H893 H 0.81596 0.53457 0.95537 0.0
H894 H 0.80835 0.60701 0.07594 0.0
H895 H 0.83911 0.62256 0.96791 0.0
H896 H 0.86854 0.52778 0.96706 0.0
H897 H 0.87757 0.51334 0.85805 0.0
H898 H 0.84674 0.51129 0.89514 0.0
H899 H 0.83241 0.52998 0.74086 0.0
H900 H 0.8637 0.53221 0.70328 0.0
H901 H 0.84448 0.55893 0.70453 0.0
H902 H 0.88016 0.62577 0.91143 0.0
H903 H 0.92379 0.61614 0.91936 0.0
H904 H 0.90796 0.5409 0.83954 0.0
C905 C 0.81961 0.55401 0.95262 0.0
C906 C 0.80989 0.56973 0.02182 0.0
C907 C 0.81535 0.59491 0.02145 0.0
C908 C 0.83287 0.60384 0.95996 0.0
C909 C 0.84469 0.58731 0.89953 0.0
C910 C 0.83756 0.56288 0.89265 0.0
C911 C 0.8568 0.54757 0.84279 0.0
C912 C 0.86278 0.52368 0.89413 0.0
C913 C 0.84887 0.54186 0.74192 0.0
C914 C 0.87776 0.56563 0.84412 0.0
C915 C 0.86985 0.589 0.86839 0.0
C916 C 0.88641 0.6077 0.89037 0.0
C917 C 0.91125 0.60195 0.89632 0.0
C918 C 0.91927 0.5775 0.88321 0.0
C919 C 0.90254 0.55978 0.84922 0.0
H920 H 0.99405 0.1913 0.97879 0.0
H921 H 0.07054 0.21164 0.97773 0.0
H922 H 0.07978 0.17403 0.88415 0.0
H923 H 1.00409 0.12858 0.01359 0.0
H924 H 0.97952 0.11718 0.94105 0.0
H925 H 0.97717 0.14684 0.99782 0.0
H926 H 0.97039 0.1688 0.84389 0.0
H927 H 0.97048 0.13927 0.78568 0.0
H928 H 0.99083 0.16302 0.74752 0.0
H929 H 0.08044 0.13225 0.79064 0.0
H930 H 0.07221 0.09325 0.70439 0.0
H931 H 0.99573 0.09908 0.77548 0.0
C932 C 0.01286 0.18807 0.95925 0.0
C933 C 0.03156 0.20492 0.98733 0.0
C934 C 0.05571 0.1996 0.95729 0.0
C935 C 0.06117 0.17798 0.90459 0.0
C936 C 0.04238 0.16147 0.88167 0.0
C937 C 0.01865 0.16649 0.90776 0.0
C938 C 1.0017 0.14567 0.87727 0.0
C939 C 0.98992 0.13384 0.96243 0.0
C940 C 0.9822 0.15477 0.80952 0.0
C941 C 0.0194 0.12811 0.82836 0.0
C942 C 0.04285 0.13751 0.83174 0.0
C943 C 0.06214 0.12485 0.78868 0.0
C944 C 0.05733 0.10254 0.74003 0.0
C945 C 0.03351 0.09248 0.73551 0.0
C946 C 0.01431 0.1057 0.78028 0.0
H947 H 0.34842 0.06339 0.90639 0.0
H948 H 0.34547 0.98882 1.00224 0.0
H949 H 0.38495 0.97998 0.92558 0.0
H950 H 0.37626 0.04773 0.67819 0.0
H951 H 0.3951 0.07492 0.67684 0.0
H952 H 0.36617 0.07542 0.73639 0.0
H953 H 0.38756 0.09035 0.88442 0.0
H954 H 0.41716 0.08897 0.83 0.0
H955 H 0.41135 0.07229 0.9348 0.0
H956 H 0.42758 0.98083 0.85826 0.0
H957 H 0.46522 0.98733 0.76728 0.0
H958 H 0.44035 0.06004 0.69885 0.0
C959 C 0.35565 0.04496 0.90806 0.0
C960 C 0.34334 0.02659 0.95882 0.0
C961 C 0.35407 1.00299 0.96206 0.0
C962 C 0.37675 0.99791 0.91981 0.0
C963 C 0.38879 0.01655 0.87332 0.0
C964 C 0.37832 0.03941 0.86463 0.0
C965 C 0.39513 0.05591 0.80885 0.0
C966 C 0.38242 0.06398 0.71961 0.0
C967 C 0.4033 0.0782 0.86802 0.0
C968 C 0.41655 0.03875 0.78726 0.0
C969 C 0.41271 0.01638 0.82792 0.0
C970 C 0.43041 0.99801 0.82377 0.0
C971 C 0.45191 1.00194 0.77253 0.0
C972 C 0.45592 0.02413 0.72572 0.0
C973 C 0.43791 0.04285 0.7338 0.0
H974 H 0.50109 0.36757 0.07304 0.0
H975 H 0.51093 0.31566 0.84304 0.0
H976 H 0.51784 0.35034 0.73705 0.0
H977 H 0.46626 0.41059 0.94926 0.0
H978 H 0.4794 0.43686 0.00861 0.0
H979 H 0.4777 0.40811 0.06645 0.0
H980 H 0.52401 0.40959 0.09657 0.0
H981 H 0.52599 0.43838 0.03828 0.0
H982 H 0.5447 0.41298 1.00004 0.0
H983 H 0.52305 0.39218 0.65546 0.0
H984 H 0.52448 0.43554 0.60795 0.0
H985 H 0.50706 0.45881 0.89018 0.0
C986 C 0.50452 0.36326 1.00027 0.0
C987 C 0.5051 0.33859 0.96666 0.0
C988 C 0.51047 0.33421 0.87113 0.0
C989 C 0.51429 0.35387 0.81025 0.0
C990 C 0.51271 0.37791 0.84564 0.0
C991 C 0.50796 0.38255 0.93878 0.0
C992 C 0.50619 0.40984 0.95995 0.0
C993 C 0.48085 0.41673 0.9982 0.0
C994 C 0.52643 0.41817 0.0277 0.0
C995 C 0.51019 0.42002 0.86381 0.0
C996 C 0.51438 0.40144 0.79881 0.0
C997 C 0.51944 0.40672 0.70598 0.0
C998 C 0.52004 0.43144 0.67928 0.0
C999 C 0.51489 0.4507 0.7441 0.0
C1000 C 0.51014 0.44467 0.83777 0.0
H1001 H 0.18375 0.5223 0.06866 0.0
H1002 H 0.23349 0.5077 0.83925 0.0
H1003 H 0.19903 0.51214 0.72829 0.0
H1004 H 0.13609 0.48587 0.98312 0.0
H1005 H 0.11184 0.5056 0.02404 0.0
H1006 H 0.14051 0.5054 0.0847 0.0
H1007 H 0.14519 0.55194 0.06573 0.0
H1008 H 0.1161 0.55265 0.00754 0.0
H1009 H 0.14276 0.56486 0.95162 0.0
H1010 H 0.15712 0.51588 0.64228 0.0
H1011 H 0.11376 0.51776 0.59328 0.0
H1012 H 0.09177 0.52557 0.88208 0.0
C1013 C 0.18765 0.52017 0.99501 0.0
C1014 C 0.21166 0.51444 0.96336 0.0
C1015 C 0.21557 0.51233 0.86591 0.0
C1016 C 0.19595 0.51461 0.80233 0.0
C1017 C 0.17236 0.51894 0.83682 0.0
C1018 C 0.16828 0.52176 0.93133 0.0
C1019 C 0.14123 0.52473 0.9524 0.0
C1020 C 0.1319 0.50415 0.0147 0.0
C1021 C 0.13602 0.55005 0.99693 0.0
C1022 C 0.13046 0.52264 0.85519 0.0
C1023 C 0.14866 0.5198 0.78895 0.0
C1024 C 0.1429 0.51804 0.69409 0.0
C1025 C 0.11815 0.51917 0.66671 0.0
C1026 C 0.09923 0.52153 0.73368 0.0
C1027 C 0.10568 0.52328 0.82912 0.0
H1028 H 0.99305 0.85141 0.42728 0.0
H1029 H 0.05275 0.85152 0.23017 0.0
H1030 H 0.06249 0.89439 0.27802 0.0
H1031 H 0.97298 0.91228 0.3994 0.0
H1032 H 0.96643 0.9179 0.52139 0.0
H1033 H 0.96515 0.88727 0.47332 0.0
H1034 H 0.99608 0.87313 0.59693 0.0
H1035 H 0.99683 0.9039 0.64492 0.0
H1036 H 0.0248 0.88909 0.60904 0.0
H1037 H 0.06409 0.93915 0.34357 0.0
H1038 H 0.06141 0.97815 0.43421 0.0
H1039 H 1.00205 0.94868 0.59567 0.0
C1040 C 1.00866 0.86021 0.39612 0.0
C1041 C 0.0225 0.8476 0.32608 0.0
C1042 C 0.0423 0.86025 0.28559 0.0
C1043 C 0.04771 0.88486 0.31157 0.0
C1044 C 0.0333 0.89689 0.37905 0.0
C1045 C 0.01454 0.88469 0.42233 0.0
C1046 C 1.00214 0.90147 0.49434 0.0
C1047 C 0.97507 0.90498 0.47058 0.0
C1048 C 1.00514 0.89127 0.59216 0.0
C1049 C 0.01655 0.9252 0.48469 0.0
C1050 C 0.03432 0.92224 0.41689 0.0
C1051 C 0.05017 0.94147 0.39645 0.0
C1052 C 0.04839 0.96375 0.44801 0.0
C1053 C 0.03086 0.96716 0.51978 0.0
C1054 C 0.01487 0.94731 0.53844 0.0
H1055 H 0.6941 0.99428 0.4248 0.0
H1056 H 0.69122 0.05202 0.22305 0.0
H1057 H 0.64856 0.06108 0.27003 0.0
H1058 H 0.63426 0.97204 0.39379 0.0
H1059 H 0.62882 0.96621 0.51552 0.0
H1060 H 0.65936 0.96531 0.46981 0.0
H1061 H 0.67308 0.99743 0.59241 0.0
H1062 H 0.64263 0.99806 0.63974 0.0
H1063 H 0.65685 0.02608 0.60389 0.0
H1064 H 0.60472 0.06253 0.33651 0.0
H1065 H 0.56664 0.05993 0.42874 0.0
H1066 H 0.598 1.00161 0.58901 0.0
C1067 C 0.68469 1.00923 0.3919 0.0
C1068 C 0.69638 0.02265 0.3207 0.0
C1069 C 0.6831 0.04181 0.27895 0.0
C1070 C 0.65864 0.04684 0.30442 0.0
C1071 C 0.64748 0.03269 0.37255 0.0
C1072 C 0.66033 0.01462 0.41706 0.0
C1073 C 0.64436 1.00224 0.48896 0.0
C1074 C 0.64149 0.97482 0.46553 0.0
C1075 C 0.65486 1.00621 0.58707 0.0
C1076 C 0.62038 0.01596 0.4781 0.0
C1077 C 0.62249 0.03336 0.4099 0.0
C1078 C 0.60298 0.04883 0.38942 0.0
C1079 C 0.58125 0.04708 0.44167 0.0
C1080 C 0.57879 0.02986 0.5135 0.0
C1081 C 0.59878 1.01413 0.53163 0.0
H1082 H 0.53847 0.68413 0.2569 0.0
H1083 H 0.5332 0.73594 0.48953 0.0
H1084 H 0.5252 0.70145 0.59506 0.0
H1085 H 0.49417 0.63945 0.3349 0.0
H1086 H 0.51217 0.61386 0.29331 0.0
H1087 H 0.51401 0.64279 0.23582 0.0
H1088 H 0.56089 0.6434 0.26026 0.0
H1089 H 0.55889 0.61441 0.31679 0.0
H1090 H 0.57303 0.64015 0.37609 0.0
H1091 H 0.51853 0.65974 0.67584 0.0
H1092 H 0.51786 0.61653 0.72453 0.0
H1093 H 0.53212 0.59289 0.43985 0.0
C1094 C 0.53573 0.68848 0.33006 0.0
C1095 C 0.53679 0.71306 0.36443 0.0
C1096 C 0.5323 0.71749 0.46063 0.0
C1097 C 0.52789 0.69792 0.52133 0.0
C1098 C 0.52808 0.6739 0.48515 0.0
C1099 C 0.53198 0.66924 0.39146 0.0
C1100 C 0.53307 0.64193 0.36985 0.0
C1101 C 0.5121 0.63405 0.30463 0.0
C1102 C 0.55796 0.63456 0.32836 0.0
C1103 C 0.52968 0.63176 0.46637 0.0
C1104 C 0.52625 0.65039 0.53187 0.0
C1105 C 0.52182 0.64518 0.6252 0.0
C1106 C 0.52139 0.62051 0.65227 0.0
C1107 C 0.52571 0.6012 0.58674 0.0
C1108 C 0.52967 0.60711 0.49247 0.0
H1109 H 0.86061 0.56455 0.27005 0.0
H1110 H 0.8156 0.5122 0.41615 0.0
H1111 H 0.8502 0.50445 0.52198 0.0
H1112 H 0.91442 0.52713 0.26952 0.0
H1113 H 0.93471 0.55301 0.27966 0.0
H1114 H 0.90563 0.55623 0.22304 0.0
H1115 H 0.89483 0.59214 0.3362 0.0
H1116 H 0.9238 0.5889 0.39379 0.0
H1117 H 0.89594 0.58756 0.46011 0.0
H1118 H 0.89177 0.50242 0.61387 0.0
H1119 H 0.93438 0.50408 0.67046 0.0
H1120 H 0.95296 0.55271 0.44639 0.0
C1121 C 0.85764 0.55086 0.32196 0.0
C1122 C 0.83463 0.53877 0.33134 0.0
C1123 C 0.83243 0.52209 0.40571 0.0
C1124 C 0.85226 0.51737 0.46644 0.0
C1125 C 0.87467 0.52908 0.45218 0.0
C1126 C 0.87739 0.54528 0.38062 0.0
C1127 C 0.90355 0.55458 0.37534 0.0
C1128 C 0.91526 0.5473 0.28134 0.0
C1129 C 0.90457 0.58245 0.39238 0.0
C1130 C 0.91537 0.54108 0.45509 0.0
C1131 C 0.89837 0.5268 0.50006 0.0
C1132 C 0.90507 0.51342 0.57804 0.0
C1133 C 0.92951 0.51445 0.60982 0.0
C1134 C 0.94753 0.52826 0.56281 0.0
C1135 C 0.94 0.54176 0.48425 0.0
loop_
_geom_bond_atom_site_label_1
_geom_bond_atom_site_label_2
_geom_bond_distance
_geom_bond_site_symmetry_2
_ccdc_geom_bond_type
H0 C1 0.949 . S
C1 H0 0.949 . S
C1 C2 1.395 . S
C1 C3 1.391 . S
C2 C1 1.395 . S
C2 C5 1.390 . S
C3 C1 1.391 . S
C3 C7 1.387 . S
C3 C8 1.491 . S
H4 C5 0.950 . S
C5 C2 1.390 . S
C5 H4 0.950 . S
C5 C6 1.378 . S
C6 C5 1.378 . S
C6 C7 1.409 . S
C7 C3 1.387 . S
C7 C6 1.409 . S
C7 H9 0.951 . S
C8 C3 1.491 . S
C8 C10 1.382 . S
C8 C12 1.404 . S
H9 C7 0.951 . S
C10 C8 1.382 . S
C10 C11 1.390 . S
C10 H15 0.949 . S
C11 C10 1.390 . S
C11 C16 1.399 . S
C12 C8 1.404 . S
C12 H13 0.950 . S
C12 C14 1.375 . S
H13 C12 0.950 . S
C14 C12 1.375 . S
C14 C16 1.382 . S
C14 H18 0.950 . S
H15 C10 0.949 . S
C16 C11 1.399 . S
C16 C14 1.382 . S
C16 H17 0.952 . S
H17 C16 0.952 . S
H18 C14 0.950 . S
H19 C20 0.949 . S
C20 H19 0.949 . S
C20 C21 1.395 . S
C20 C22 1.391 . S
C21 C20 1.395 . S
C21 C24 1.390 . S
C22 C20 1.391 . S
C22 C26 1.387 . S
C22 C27 1.491 . S
H23 C24 0.950 . S
C24 C21 1.390 . S
C24 H23 0.950 . S
C24 C25 1.378 . S
C25 C24 1.378 . S
C25 C26 1.409 . S
C26 C22 1.387 . S
C26 C25 1.409 . S
C26 H28 0.951 . S
C27 C22 1.491 . S
C27 C29 1.382 . S
C27 C31 1.404 . S
H28 C26 0.951 . S
C29 C27 1.382 . S
C29 C30 1.390 . S
C29 H34 0.949 . S
C30 C29 1.390 . S
C30 C35 1.399 . S
C31 C27 1.404 . S
C31 H32 0.950 . S
C31 C33 1.375 . S
H32 C31 0.950 . S
C33 C31 1.375 . S
C33 C35 1.382 . S
C33 H37 0.950 . S
H34 C29 0.949 . S
C35 C30 1.399 . S
C35 C33 1.382 . S
C35 H36 0.952 . S
H36 C35 0.952 . S
H37 C33 0.950 . S
H38 C39 0.949 . S
C39 H38 0.949 . S
C39 C40 1.395 . S
C39 C41 1.391 . S
C40 C39 1.395 . S
C40 C43 1.390 . S
C41 C39 1.391 . S
C41 C45 1.387 . S
C41 C46 1.491 . S
H42 C43 0.950 . S
C43 C40 1.390 . S
C43 H42 0.950 . S
C43 C44 1.378 . S
C44 C43 1.378 . S
C44 C45 1.409 . S
C45 C41 1.387 . S
C45 C44 1.409 . S
C45 H47 0.951 . S
C46 C41 1.491 . S
C46 C48 1.382 . S
C46 C50 1.404 . S
H47 C45 0.951 . S
C48 C46 1.382 . S
C48 C49 1.390 . S
C48 H53 0.949 . S
C49 C48 1.390 . S
C49 C54 1.399 . S
C50 C46 1.404 . S
C50 H51 0.950 . S
C50 C52 1.375 . S
H51 C50 0.950 . S
C52 C50 1.375 . S
C52 C54 1.382 . S
C52 H56 0.950 . S
H53 C48 0.949 . S
C54 C49 1.399 . S
C54 C52 1.382 . S
C54 H55 0.952 . S
H55 C54 0.952 . S
H56 C52 0.950 . S
H57 C58 0.949 . S
C58 H57 0.949 . S
C58 C59 1.395 . S
C58 C60 1.391 . S
C59 C58 1.395 . S
C59 C62 1.390 . S
C60 C58 1.391 . S
C60 C64 1.387 . S
C60 C65 1.491 . S
H61 C62 0.950 . S
C62 C59 1.390 . S
C62 H61 0.950 . S
C62 C63 1.378 . S
C63 C62 1.378 . S
C63 C64 1.409 . S
C64 C60 1.387 . S
C64 C63 1.409 . S
C64 H66 0.951 . S
C65 C60 1.491 . S
C65 C67 1.382 . S
C65 C69 1.404 . S
H66 C64 0.951 . S
C67 C65 1.382 . S
C67 C68 1.390 . S
C67 H72 0.949 . S
C68 C67 1.390 . S
C68 C73 1.399 . S
C69 C65 1.404 . S
C69 H70 0.950 . S
C69 C71 1.375 . S
H70 C69 0.950 . S
C71 C69 1.375 . S
C71 C73 1.382 . S
C71 H75 0.950 . S
H72 C67 0.949 . S
C73 C68 1.399 . S
C73 C71 1.382 . S
C73 H74 0.952 . S
H74 C73 0.952 . S
H75 C71 0.950 . S
H76 C77 0.949 . S
C77 H76 0.949 . S
C77 C78 1.395 . S
C77 C79 1.391 1_554 S
C78 C77 1.395 . S
C78 C81 1.390 1_554 S
C79 C77 1.391 1_556 S
C79 C83 1.387 . S
C79 C84 1.491 . S
H80 C81 0.950 . S
C81 C78 1.390 1_556 S
C81 H80 0.950 . S
C81 C82 1.378 . S
C82 C81 1.378 . S
C82 C83 1.409 . S
C83 C79 1.387 . S
C83 C82 1.409 . S
C83 H85 0.951 . S
C84 C79 1.491 . S
C84 C86 1.382 1_556 S
C84 C88 1.404 . S
H85 C83 0.951 . S
C86 C84 1.382 1_554 S
C86 C87 1.390 . S
C86 H91 0.949 . S
C87 C86 1.390 . S
C87 C92 1.399 1_554 S
C88 C84 1.404 . S
C88 H89 0.950 . S
C88 C90 1.375 . S
H89 C88 0.950 . S
C90 C88 1.375 . S
C90 C92 1.382 . S
C90 H94 0.950 . S
H91 C86 0.949 . S
C92 C87 1.399 1_556 S
C92 C90 1.382 . S
C92 H93 0.952 . S
H93 C92 0.952 . S
H94 C90 0.950 . S
H95 C96 0.949 . S
C96 H95 0.949 . S
C96 C97 1.395 . S
C96 C98 1.391 1_554 S
C97 C96 1.395 . S
C97 C100 1.390 1_554 S
C98 C96 1.391 1_556 S
C98 C102 1.387 . S
C98 C103 1.491 . S
H99 C100 0.950 . S
C100 C97 1.390 1_556 S
C100 H99 0.950 . S
C100 C101 1.378 . S
C101 C100 1.378 . S
C101 C102 1.409 . S
C102 C98 1.387 . S
C102 C101 1.409 . S
C102 H104 0.951 . S
C103 C98 1.491 . S
C103 C105 1.382 1_556 S
C103 C107 1.404 . S
H104 C102 0.951 . S
C105 C103 1.382 1_554 S
C105 C106 1.390 . S
C105 H110 0.949 . S
C106 C105 1.390 . S
C106 C111 1.399 1_554 S
C107 C103 1.404 . S
C107 H108 0.950 . S
C107 C109 1.375 . S
H108 C107 0.950 . S
C109 C107 1.375 . S
C109 C111 1.382 . S
C109 H113 0.950 . S
H110 C105 0.949 . S
C111 C106 1.399 1_556 S
C111 C109 1.382 . S
C111 H112 0.952 . S
H112 C111 0.952 . S
H113 C109 0.950 . S
H114 C115 0.949 . S
C115 H114 0.949 . S
C115 C116 1.395 . S
C115 C117 1.391 1_554 S
C116 C115 1.395 . S
C116 C119 1.390 1_554 S
C117 C115 1.391 1_556 S
C117 C121 1.387 . S
C117 C122 1.491 . S
H118 C119 0.950 . S
C119 C116 1.390 1_556 S
C119 H118 0.950 . S
C119 C120 1.378 . S
C120 C119 1.378 . S
C120 C121 1.409 . S
C121 C117 1.387 . S
C121 C120 1.409 . S
C121 H123 0.951 . S
C122 C117 1.491 . S
C122 C124 1.382 1_556 S
C122 C126 1.404 . S
H123 C121 0.951 . S
C124 C122 1.382 1_554 S
C124 C125 1.390 . S
C124 H129 0.949 . S
C125 C124 1.390 . S
C125 C130 1.399 1_554 S
C126 C122 1.404 . S
C126 H127 0.950 . S
C126 C128 1.375 . S
H127 C126 0.950 . S
C128 C126 1.375 . S
C128 C130 1.382 . S
C128 H132 0.950 . S
H129 C124 0.949 . S
C130 C125 1.399 1_556 S
C130 C128 1.382 . S
C130 H131 0.952 . S
H131 C130 0.952 . S
H132 C128 0.950 . S
H133 C134 0.949 . S
C134 H133 0.949 . S
C134 C135 1.395 . S
C134 C136 1.391 1_554 S
C135 C134 1.395 . S
C135 C138 1.390 1_554 S
C136 C134 1.391 1_556 S
C136 C140 1.387 . S
C136 C141 1.491 . S
H137 C138 0.950 . S
C138 C135 1.390 1_556 S
C138 H137 0.950 . S
C138 C139 1.378 . S
C139 C138 1.378 . S
C139 C140 1.409 . S
C140 C136 1.387 . S
C140 C139 1.409 . S
C140 H142 0.951 . S
C141 C136 1.491 . S
C141 C143 1.382 1_556 S
C141 C145 1.404 . S
H142 C140 0.951 . S
C143 C141 1.382 1_554 S
C143 C144 1.390 . S
C143 H148 0.949 . S
C144 C143 1.390 . S
C144 C149 1.399 1_554 S
C145 C141 1.404 . S
C145 H146 0.950 . S
C145 C147 1.375 . S
H146 C145 0.950 . S
C147 C145 1.375 . S
C147 C149 1.382 . S
C147 H151 0.950 . S
H148 C143 0.949 . S
C149 C144 1.399 1_556 S
C149 C147 1.382 . S
C149 H150 0.952 . S
H150 C149 0.952 . S
H151 C147 0.950 . S
Eu152 N183 2.657 1_565 S
Eu152 N190 2.609 1_565 S
Eu152 O196 2.558 . S
Eu152 O197 2.612 1_455 S
Eu152 O199 2.339 1_465 S
Eu152 O200 2.563 . S
Eu152 O201 2.419 . S
Eu152 O203 2.380 1_565 S
Eu152 O204 2.439 . S
Eu152 C216 2.848 . S
C153 C156 1.429 1_545 S
C153 C157 1.411 . S
C153 N160 1.377 . S
C154 C156 1.420 . S
C154 C158 1.423 . S
C154 C166 1.392 . S
C155 C157 1.420 1_565 S
C155 C158 1.351 . S
C155 H178 0.931 . S
C156 C153 1.429 1_565 S
C156 C154 1.420 . S
C156 N164 1.362 1_565 S
C157 C153 1.411 . S
C157 C155 1.420 1_545 S
C157 C162 1.395 . S
C158 C154 1.423 . S
C158 C155 1.351 . S
C158 H170 0.930 . S
C159 C161 1.400 . S
C159 C162 1.386 . S
C159 H171 0.930 . S
N160 C153 1.377 . S
N160 C161 1.321 . S
N160 Eu163 2.609 . S
C161 C159 1.400 . S
C161 N160 1.321 . S
C161 H168 0.930 . S
C162 C157 1.395 . S
C162 C159 1.386 . S
C162 H181 0.930 . S
Eu163 N160 2.609 . S
Eu163 N164 2.657 . S
Eu163 O197 2.380 1_545 S
Eu163 O198 2.432 . S
Eu163 O202 2.558 . S
Eu163 O203 2.612 1_655 S
Eu163 O205 2.339 1_655 S
Eu163 O206 2.563 1_655 S
Eu163 O207 2.422 . S
Eu163 C227 2.848 . S
N164 C156 1.362 1_545 S
N164 Eu163 2.657 . S
N164 C165 1.334 1_645 S
C165 N164 1.334 1_465 S
C165 C167 1.413 . S
C165 H172 0.929 . S
C166 C154 1.392 . S
C166 C167 1.367 1_655 S
C166 H174 0.930 . S
C167 C165 1.413 . S
C167 C166 1.367 1_455 S
C167 H169 0.930 . S
H168 C161 0.930 . S
H169 C167 0.930 . S
H170 C158 0.930 . S
H171 C159 0.930 . S
H172 C165 0.929 . S
H173 C187 0.930 1_655 S
H174 C166 0.930 . S
H175 C193 0.930 . S
H176 C184 0.929 1_655 S
H177 C191 0.930 . S
H178 C155 0.931 . S
H179 C185 0.930 . S
H180 C218 0.930 . S
H181 C162 0.930 . S
H182 C217 0.931 . S
N183 Eu152 2.657 1_545 S
N183 C184 1.334 . S
N183 C188 1.362 . S
C184 H176 0.929 1_455 S
C184 N183 1.334 . S
C184 C187 1.413 1_556 S
C185 H179 0.930 . S
C185 C186 1.392 . S
C185 C187 1.367 . S
C186 C185 1.392 . S
C186 C188 1.420 1_554 S
C186 C218 1.423 . S
C187 H173 0.930 1_455 S
C187 C184 1.413 1_554 S
C187 C185 1.367 . S
C188 N183 1.362 . S
C188 C186 1.420 1_556 S
C188 C192 1.429 . S
H189 C194 0.930 . S
N190 Eu152 2.609 1_545 S
N190 C192 1.377 . S
N190 C193 1.321 1_545 S
C191 H177 0.930 . S
C191 C193 1.400 . S
C191 C194 1.386 1_565 S
C192 C188 1.429 . S
C192 N190 1.377 . S
C192 C195 1.411 . S
C193 H175 0.930 . S
C193 N190 1.321 1_565 S
C193 C191 1.400 . S
C194 H189 0.930 . S
C194 C191 1.386 1_545 S
C194 C195 1.395 . S
C195 C192 1.411 . S
C195 C194 1.395 . S
C195 C217 1.420 1_556 S
O196 Eu152 2.558 . S
O196 C216 1.257 . S
O197 Eu152 2.612 1_655 S
O197 Eu163 2.380 1_565 S
O197 C208 1.276 . S
O198 Eu163 2.432 . S
O198 C215 1.264 . S
O199 Eu152 2.339 1_645 S
O199 C215 1.253 . S
O200 Eu152 2.563 . S
O200 C208 1.235 1_455 S
O201 Eu152 2.419 . S
O201 C216 1.249 . S
O202 Eu163 2.558 . S
O202 C227 1.257 . S
O203 Eu152 2.380 1_545 S
O203 Eu163 2.612 1_455 S
O203 C219 1.276 . S
O204 Eu152 2.439 . S
O204 C226 1.235 1_565 S
O205 Eu163 2.339 1_455 S
O205 C226 1.254 . S
O206 Eu163 2.563 1_455 S
O206 C219 1.235 . S
O207 Eu163 2.422 . S
O207 C227 1.258 . S
C208 O197 1.276 . S
C208 O200 1.235 1_655 S
C209 C211 1.393 . S
C209 C213 1.395 . S
C209 C216 1.492 . S
C210 C211 1.392 . S
C210 C212 1.386 1_556 S
C211 C209 1.393 . S
C211 C210 1.392 . S
C211 H228 0.900 1_455 S
C212 C210 1.386 1_554 S
C212 C214 1.395 1_554 S
C212 H229 0.930 . S
C213 C209 1.395 . S
C213 C214 1.379 . S
C213 H230 0.930 . S
C214 C212 1.395 1_556 S
C214 C213 1.379 . S
C214 H231 0.930 . S
C215 O198 1.264 . S
C215 O199 1.253 . S
C216 Eu152 2.848 . S
C216 O196 1.257 . S
C216 O201 1.249 . S
C216 C209 1.492 . S
C217 H182 0.931 . S
C217 C195 1.420 1_554 S
C217 C218 1.351 . S
C218 H180 0.930 . S
C218 C186 1.423 . S
C218 C217 1.351 . S
C219 O203 1.276 . S
C219 O206 1.235 . S
C220 C221 1.394 . S
C220 C224 1.395 . S
C220 C227 1.492 . S
C221 C220 1.394 . S
C221 C222 1.393 . S
C221 H232 0.928 1_655 S
C222 C221 1.393 . S
C222 C223 1.386 . S
C223 C222 1.386 . S
C223 C225 1.395 . S
C223 H233 0.930 . S
C224 C220 1.395 . S
C224 C225 1.379 . S
C224 H234 0.930 . S
C225 C223 1.395 . S
C225 C224 1.379 . S
C225 H235 0.930 . S
C226 O204 1.235 1_545 S
C226 O205 1.254 . S
C227 Eu163 2.848 . S
C227 O202 1.257 . S
C227 O207 1.258 . S
C227 C220 1.492 . S
H228 C211 0.900 1_655 S
H229 C212 0.930 . S
H230 C213 0.930 . S
H231 C214 0.930 . S
H232 C221 0.928 1_455 S
H233 C223 0.930 . S
H234 C224 0.930 . S
H235 C225 0.930 . S
Eu236 N267 2.657 . S
Eu236 N274 2.609 . S
Eu236 O280 2.558 . S
Eu236 O281 2.625 . S
Eu236 O283 2.339 1_545 S
Eu236 O284 2.563 . S
Eu236 O285 2.419 . S
Eu236 O287 2.380 . S
Eu236 O288 2.432 . S
Eu236 C300 2.848 . S
C237 C240 1.429 . S
C237 C241 1.411 . S
C237 N244 1.377 . S
C238 C240 1.420 . S
C238 C242 1.423 . S
C238 C250 1.392 . S
C239 C241 1.420 . S
C239 C242 1.351 . S
C239 H262 0.931 . S
C240 C237 1.429 . S
C240 C238 1.420 . S
C240 N248 1.362 . S
C241 C237 1.411 . S
C241 C239 1.420 . S
C241 C246 1.395 . S
C242 C238 1.423 . S
C242 C239 1.351 . S
C242 H254 0.930 . S
C243 C245 1.400 . S
C243 C246 1.386 . S
C243 H255 0.930 . S
N244 C237 1.377 . S
N244 C245 1.321 . S
N244 Eu247 2.609 . S
C245 C243 1.400 . S
C245 N244 1.321 . S
C245 H252 0.930 . S
C246 C241 1.395 . S
C246 C243 1.386 . S
C246 H265 0.930 . S
Eu247 N244 2.609 . S
Eu247 N248 2.657 . S
Eu247 O281 2.377 1_565 S
Eu247 O282 2.432 . S
Eu247 O286 2.558 . S
Eu247 O287 2.612 1_565 S
Eu247 O289 2.339 1_565 S
Eu247 O290 2.563 1_565 S
Eu247 O291 2.419 1_565 S
Eu247 C311 2.848 . S
N248 C240 1.362 . S
N248 Eu247 2.657 . S
N248 C249 1.334 1_565 S
C249 N248 1.334 1_545 S
C249 C251 1.413 . S
C249 H256 0.929 . S
C250 C238 1.392 . S
C250 C251 1.367 1_565 S
C250 H258 0.930 . S
C251 C249 1.413 . S
C251 C250 1.367 1_545 S
C251 H253 0.930 . S
H252 C245 0.930 . S
H253 C251 0.930 . S
H254 C242 0.930 . S
H255 C243 0.930 . S
H256 C249 0.929 . S
H257 C271 0.930 1_565 S
H258 C250 0.930 . S
H259 C277 0.930 . S
H260 C268 0.929 1_565 S
H261 C275 0.930 . S
H262 C239 0.931 . S
H263 C269 0.930 . S
H264 C302 0.930 . S
H265 C246 0.930 . S
H266 C301 0.931 . S
N267 Eu236 2.657 . S
N267 C268 1.334 . S
N267 C272 1.362 . S
C268 H260 0.929 1_545 S
C268 N267 1.334 . S
C268 C271 1.413 1_556 S
C269 H263 0.930 . S
C269 C270 1.392 . S
C269 C271 1.367 . S
C270 C269 1.392 . S
C270 C272 1.420 1_554 S
C270 C302 1.423 . S
C271 H257 0.930 1_545 S
C271 C268 1.413 1_554 S
C271 C269 1.367 . S
C272 N267 1.362 . S
C272 C270 1.420 1_556 S
C272 C276 1.429 . S
H273 C278 0.930 . S
N274 Eu236 2.609 . S
N274 C276 1.377 . S
N274 C277 1.321 . S
C275 H261 0.930 . S
C275 C277 1.400 . S
C275 C278 1.386 . S
C276 C272 1.429 . S
C276 N274 1.377 . S
C276 C279 1.411 . S
C277 H259 0.930 . S
C277 N274 1.321 . S
C277 C275 1.400 . S
C278 H273 0.930 . S
C278 C275 1.386 . S
C278 C279 1.395 . S
C279 C276 1.411 . S
C279 C278 1.395 . S
C279 C301 1.420 1_556 S
O280 Eu236 2.558 . S
O280 C300 1.257 . S
O281 Eu236 2.625 . S
O281 Eu247 2.377 1_545 S
O281 C292 1.277 . S
O282 Eu247 2.432 . S
O282 C299 1.264 . S
O283 Eu236 2.339 1_565 S
O283 C299 1.254 . S
O284 Eu236 2.563 . S
O284 C292 1.235 . S
O285 Eu236 2.419 . S
O285 C300 1.249 . S
O286 Eu247 2.558 . S
O286 C311 1.257 . S
O287 Eu236 2.380 . S
O287 Eu247 2.612 1_545 S
O287 C303 1.276 . S
O288 Eu236 2.432 . S
O288 C310 1.264 . S
O289 Eu247 2.339 1_545 S
O289 C310 1.254 . S
O290 Eu247 2.563 1_545 S
O290 C303 1.235 . S
O291 Eu247 2.419 1_545 S
O291 C311 1.249 1_545 S
C292 O281 1.277 . S
C292 O284 1.235 . S
C293 C295 1.393 . S
C293 C297 1.395 . S
C293 C300 1.492 . S
C294 C295 1.392 . S
C294 C296 1.386 1_556 S
C295 C293 1.393 . S
C295 C294 1.392 . S
C295 H312 0.930 . S
C296 C294 1.386 1_554 S
C296 C298 1.395 1_554 S
C296 H313 0.930 . S
C297 C293 1.395 . S
C297 C298 1.379 . S
C297 H314 0.930 . S
C298 C296 1.395 1_556 S
C298 C297 1.379 . S
C298 H315 0.930 1_556 S
C299 O282 1.264 . S
C299 O283 1.254 . S
C300 Eu236 2.848 . S
C300 O280 1.257 . S
C300 O285 1.249 . S
C300 C293 1.492 . S
C301 H266 0.931 . S
C301 C279 1.420 1_554 S
C301 C302 1.351 . S
C302 H264 0.930 . S
C302 C270 1.423 . S
C302 C301 1.351 . S
C303 O287 1.276 . S
C303 O290 1.235 . S
C304 C305 1.393 1_565 S
C304 C308 1.395 . S
C304 C311 1.492 . S
C305 C304 1.393 1_545 S
C305 C306 1.394 . S
C305 H316 0.930 . S
C306 C305 1.394 . S
C306 C307 1.364 1_545 S
C307 C306 1.364 1_565 S
C307 C309 1.395 . S
C307 H317 0.930 . S
C308 C304 1.395 . S
C308 C309 1.379 . S
C308 H318 0.930 . S
C309 C307 1.395 . S
C309 C308 1.379 . S
C309 H319 0.930 . S
C310 O288 1.264 . S
C310 O289 1.254 . S
C311 Eu247 2.848 . S
C311 O286 1.257 . S
C311 O291 1.249 1_565 S
C311 C304 1.492 . S
H312 C295 0.930 . S
H313 C296 0.930 . S
H314 C297 0.930 . S
H315 C298 0.930 1_554 S
H316 C305 0.930 . S
H317 C307 0.930 . S
H318 C308 0.930 . S
H319 C309 0.930 . S
Eu320 N351 2.657 . S
Eu320 N358 2.609 . S
Eu320 O364 2.558 . S
Eu320 O365 2.612 . S
Eu320 O367 2.339 . S
Eu320 O368 2.563 . S
Eu320 O369 2.419 . S
Eu320 O371 2.380 . S
Eu320 O372 2.432 . S
Eu320 C384 2.848 . S
C321 C324 1.429 . S
C321 C325 1.411 . S
C321 N328 1.377 . S
C322 C324 1.420 . S
C322 C326 1.423 . S
C322 C334 1.392 . S
C323 C325 1.420 . S
C323 C326 1.351 . S
C323 H346 0.931 . S
C324 C321 1.429 . S
C324 C322 1.420 . S
C324 N332 1.362 . S
C325 C321 1.411 . S
C325 C323 1.420 . S
C325 C330 1.395 . S
C326 C322 1.423 . S
C326 C323 1.351 . S
C326 H338 0.930 . S
C327 C329 1.400 . S
C327 C330 1.386 . S
C327 H339 0.937 . S
N328 C321 1.377 . S
N328 C329 1.321 . S
N328 Eu331 2.609 . S
C329 C327 1.400 . S
C329 N328 1.321 . S
C329 H336 0.930 . S
C330 C325 1.395 . S
C330 C327 1.386 . S
C330 H349 0.930 . S
Eu331 N328 2.609 . S
Eu331 N332 2.657 . S
Eu331 O365 2.380 . S
Eu331 O366 2.432 . S
Eu331 O370 2.558 . S
Eu331 O371 2.612 . S
Eu331 O373 2.339 . S
Eu331 O374 2.563 . S
Eu331 O375 2.419 . S
Eu331 C395 2.848 . S
N332 C324 1.362 . S
N332 Eu331 2.657 . S
N332 C333 1.334 . S
C333 N332 1.334 . S
C333 C335 1.413 . S
C333 H340 0.929 . S
C334 C322 1.392 . S
C334 C335 1.367 . S
C334 H342 0.930 . S
C335 C333 1.413 . S
C335 C334 1.367 . S
C335 H337 0.930 . S
H336 C329 0.930 . S
H337 C335 0.930 . S
H338 C326 0.930 . S
H339 C327 0.937 . S
H340 C333 0.929 . S
H341 C355 0.930 . S
H342 C334 0.930 . S
H343 C361 0.930 . S
H344 C352 0.929 . S
H345 C359 0.930 . S
H346 C323 0.931 . S
H347 C353 0.930 . S
H348 C386 0.930 . S
H349 C330 0.930 . S
H350 C385 0.931 . S
N351 Eu320 2.657 . S
N351 C352 1.334 . S
N351 C356 1.362 . S
C352 H344 0.929 . S
C352 N351 1.334 . S
C352 C355 1.413 . S
C353 H347 0.930 . S
C353 C354 1.392 . S
C353 C355 1.367 . S
C354 C353 1.392 . S
C354 C356 1.420 . S
C354 C386 1.423 . S
C355 H341 0.930 . S
C355 C352 1.413 . S
C355 C353 1.367 . S
C356 N351 1.362 . S
C356 C354 1.420 . S
C356 C360 1.429 . S
H357 C362 0.930 . S
N358 Eu320 2.609 . S
N358 C360 1.377 . S
N358 C361 1.321 . S
C359 H345 0.930 . S
C359 C361 1.400 . S
C359 C362 1.386 . S
C360 C356 1.429 . S
C360 N358 1.377 . S
C360 C363 1.411 . S
C361 H343 0.930 . S
C361 N358 1.321 . S
C361 C359 1.400 . S
C362 H357 0.930 . S
C362 C359 1.386 . S
C362 C363 1.395 . S
C363 C360 1.411 . S
C363 C362 1.395 . S
C363 C385 1.420 . S
O364 Eu320 2.558 . S
O364 C384 1.257 . S
O365 Eu320 2.612 . S
O365 Eu331 2.380 . S
O365 C376 1.276 . S
O366 Eu331 2.432 . S
O366 C383 1.264 . S
O367 Eu320 2.339 . S
O367 C383 1.254 . S
O368 Eu320 2.563 . S
O368 C376 1.235 . S
O369 Eu320 2.419 . S
O369 C384 1.249 . S
O370 Eu331 2.558 . S
O370 C395 1.257 . S
O371 Eu320 2.380 . S
O371 Eu331 2.612 . S
O371 C387 1.276 . S
O372 Eu320 2.432 . S
O372 C394 1.264 . S
O373 Eu331 2.339 . S
O373 C394 1.254 . S
O374 Eu331 2.563 . S
O374 C387 1.235 . S
O375 Eu331 2.419 . S
O375 C395 1.249 . S
C376 O365 1.276 . S
C376 O368 1.235 . S
C377 C379 1.393 . S
C377 C381 1.395 . S
C377 C384 1.492 . S
C378 C379 1.392 . S
C378 C380 1.386 . S
C379 C377 1.393 . S
C379 C378 1.392 . S
C379 H396 0.930 . S
C380 C378 1.386 . S
C380 C382 1.395 . S
C380 H397 0.930 . S
C381 C377 1.395 . S
C381 C382 1.379 . S
C381 H398 0.930 . S
C382 C380 1.395 . S
C382 C381 1.379 . S
C382 H399 0.930 . S
C383 O366 1.264 . S
C383 O367 1.254 . S
C384 Eu320 2.848 . S
C384 O364 1.257 . S
C384 O369 1.249 . S
C384 C377 1.492 . S
C385 H350 0.931 . S
C385 C363 1.420 . S
C385 C386 1.351 . S
C386 H348 0.930 . S
C386 C354 1.423 . S
C386 C385 1.351 . S
C387 O371 1.276 . S
C387 O374 1.235 . S
C388 C389 1.393 . S
C388 C392 1.395 1_556 S
C388 C395 1.492 . S
C389 C388 1.393 . S
C389 C390 1.392 1_556 S
C389 H400 0.930 . S
C390 C389 1.392 1_554 S
C390 C391 1.386 . S
C391 C390 1.386 . S
C391 C393 1.395 . S
C391 H401 0.930 . S
C392 C388 1.395 1_554 S
C392 C393 1.379 . S
C392 H402 0.930 . S
C393 C391 1.395 . S
C393 C392 1.379 . S
C393 H403 0.930 . S
C394 O372 1.264 . S
C394 O373 1.254 . S
C395 Eu331 2.848 . S
C395 O370 1.257 . S
C395 O375 1.249 . S
C395 C388 1.492 . S
H396 C379 0.930 . S
H397 C380 0.930 . S
H398 C381 0.930 . S
H399 C382 0.930 . S
H400 C389 0.930 . S
H401 C391 0.930 . S
H402 C392 0.930 . S
H403 C393 0.930 . S
Eu404 N435 2.657 . S
Eu404 N442 2.609 . S
Eu404 O448 2.558 . S
Eu404 O449 2.612 . S
Eu404 O451 2.339 . S
Eu404 O452 2.563 . S
Eu404 O453 2.419 . S
Eu404 O455 2.380 . S
Eu404 O456 2.432 1_455 S
Eu404 C468 2.848 . S
C405 C408 1.429 . S
C405 C409 1.411 . S
C405 N412 1.377 . S
C406 C408 1.420 . S
C406 C410 1.423 . S
C406 C418 1.392 . S
C407 C409 1.420 . S
C407 C410 1.351 . S
C407 H430 0.931 . S
C408 C405 1.429 . S
C408 C406 1.420 . S
C408 N416 1.362 . S
C409 C405 1.411 . S
C409 C407 1.420 . S
C409 C414 1.395 1_655 S
C410 C406 1.423 . S
C410 C407 1.351 . S
C410 H422 0.930 . S
C411 C413 1.400 . S
C411 C414 1.386 . S
C411 H423 0.930 . S
N412 C405 1.377 . S
N412 C413 1.321 1_655 S
N412 Eu415 2.609 . S
C413 C411 1.400 . S
C413 N412 1.321 1_455 S
C413 H420 0.930 . S
C414 C409 1.395 1_455 S
C414 C411 1.386 . S
C414 H433 0.930 . S
Eu415 N412 2.609 . S
Eu415 N416 2.657 . S
Eu415 O449 2.380 1_655 S
Eu415 O450 2.432 1_655 S
Eu415 O454 2.558 . S
Eu415 O455 2.612 1_655 S
Eu415 O457 2.339 . S
Eu415 O458 2.563 . S
Eu415 O459 2.419 . S
Eu415 C479 2.848 . S
N416 C408 1.362 . S
N416 Eu415 2.657 . S
N416 C417 1.334 . S
C417 N416 1.334 . S
C417 C419 1.413 . S
C417 H424 0.929 . S
C418 C406 1.392 . S
C418 C419 1.367 . S
C418 H426 0.930 . S
C419 C417 1.413 . S
C419 C418 1.367 . S
C419 H421 0.930 . S
H420 C413 0.930 . S
H421 C419 0.930 . S
H422 C410 0.930 . S
H423 C411 0.930 . S
H424 C417 0.929 . S
H425 C439 0.930 . S
H426 C418 0.930 . S
H427 C445 0.930 1_655 S
H428 C436 0.929 . S
H429 C443 0.930 . S
H430 C407 0.931 . S
H431 C437 0.930 . S
H432 C470 0.930 . S
H433 C414 0.930 . S
H434 C469 0.931 . S
N435 Eu404 2.657 . S
N435 C436 1.334 . S
N435 C440 1.362 . S
C436 H428 0.929 . S
C436 N435 1.334 . S
C436 C439 1.413 . S
C437 H431 0.930 . S
C437 C438 1.392 . S
C437 C439 1.367 . S
C438 C437 1.392 . S
C438 C440 1.420 . S
C438 C470 1.423 . S
C439 H425 0.930 . S
C439 C436 1.413 . S
C439 C437 1.367 . S
C440 N435 1.362 . S
C440 C438 1.420 . S
C440 C444 1.429 . S
H441 C446 0.930 . S
N442 Eu404 2.609 . S
N442 C444 1.377 . S
N442 C445 1.321 . S
C443 H429 0.930 . S
C443 C445 1.400 1_655 S
C443 C446 1.386 1_655 S
C444 C440 1.429 . S
C444 N442 1.377 . S
C444 C447 1.411 . S
C445 H427 0.930 1_455 S
C445 N442 1.321 . S
C445 C443 1.400 1_455 S
C446 H441 0.930 . S
C446 C443 1.386 1_455 S
C446 C447 1.395 . S
C447 C444 1.411 . S
C447 C446 1.395 . S
C447 C469 1.420 . S
O448 Eu404 2.558 . S
O448 C468 1.257 . S
O449 Eu404 2.612 . S
O449 Eu415 2.380 1_455 S
O449 C460 1.276 . S
O450 Eu415 2.432 1_455 S
O450 C467 1.264 . S
O451 Eu404 2.339 . S
O451 C467 1.254 . S
O452 Eu404 2.563 . S
O452 C460 1.235 . S
O453 Eu404 2.419 . S
O453 C468 1.249 . S
O454 Eu415 2.558 . S
O454 C479 1.257 . S
O455 Eu404 2.380 . S
O455 Eu415 2.612 1_455 S
O455 C471 1.276 1_455 S
O456 Eu404 2.432 1_655 S
O456 C478 1.264 . S
O457 Eu415 2.339 . S
O457 C478 1.254 . S
O458 Eu415 2.563 . S
O458 C471 1.235 . S
O459 Eu415 2.419 . S
O459 C479 1.249 . S
C460 O449 1.276 . S
C460 O452 1.235 . S
C461 C463 1.393 . S
C461 C465 1.395 . S
C461 C468 1.492 . S
C462 C463 1.392 . S
C462 C464 1.386 . S
C463 C461 1.393 . S
C463 C462 1.392 . S
C463 H480 0.930 . S
C464 C462 1.386 . S
C464 C466 1.395 . S
C464 H481 0.930 . S
C465 C461 1.395 . S
C465 C466 1.379 . S
C465 H482 0.930 . S
C466 C464 1.395 . S
C466 C465 1.379 . S
C466 H483 0.930 . S
C467 O450 1.264 . S
C467 O451 1.254 . S
C468 Eu404 2.848 . S
C468 O448 1.257 . S
C468 O453 1.249 . S
C468 C461 1.492 . S
C469 H434 0.931 . S
C469 C447 1.420 . S
C469 C470 1.351 . S
C470 H432 0.930 . S
C470 C438 1.423 . S
C470 C469 1.351 . S
C471 O455 1.276 1_655 S
C471 O458 1.235 . S
C472 C473 1.393 . S
C472 C476 1.395 1_556 S
C472 C479 1.492 . S
C473 C472 1.393 . S
C473 C474 1.392 1_556 S
C473 H484 0.930 . S
C474 C473 1.392 1_554 S
C474 C475 1.386 . S
C475 C474 1.386 . S
C475 C477 1.395 . S
C475 H485 0.930 . S
C476 C472 1.395 1_554 S
C476 C477 1.379 . S
C476 H486 0.930 . S
C477 C475 1.395 . S
C477 C476 1.379 . S
C477 H487 0.930 . S
C478 O456 1.264 . S
C478 O457 1.254 . S
C479 Eu415 2.848 . S
C479 O454 1.257 . S
C479 O459 1.249 . S
C479 C472 1.492 . S
H480 C463 0.930 . S
H481 C464 0.930 . S
H482 C465 0.930 . S
H483 C466 0.930 . S
H484 C473 0.930 . S
H485 C475 0.930 . S
H486 C476 0.930 . S
H487 C477 0.930 . S
H488 C500 0.930 . S
H489 C502 0.930 . S
H490 C503 0.930 . S
H491 C507 0.959 . S
H492 C507 0.959 . S
H493 C507 0.961 . S
H494 C508 0.960 . S
H495 C508 0.961 . S
H496 C508 0.959 . S
H497 C511 0.929 . S
H498 C512 0.931 . S
H499 C514 0.930 . S
C500 H488 0.930 . S
C500 C501 1.399 . S
C500 C505 1.399 . S
C501 C500 1.399 . S
C501 C502 1.376 . S
C502 H489 0.930 . S
C502 C501 1.376 . S
C502 C503 1.388 . S
C503 H490 0.930 . S
C503 C502 1.388 . S
C503 C504 1.390 . S
C504 C503 1.390 . S
C504 C505 1.394 . S
C504 C510 1.465 . S
C505 C500 1.399 . S
C505 C504 1.394 . S
C505 C506 1.516 . S
C506 C505 1.516 . S
C506 C507 1.502 . S
C506 C508 1.561 1_545 S
C506 C509 1.526 . S
C507 H491 0.959 . S
C507 H492 0.959 . S
C507 H493 0.961 . S
C507 C506 1.502 . S
C508 H494 0.960 . S
C508 H495 0.961 . S
C508 H496 0.959 . S
C508 C506 1.561 1_565 S
C509 C506 1.526 . S
C509 C510 1.396 . S
C509 C514 1.390 . S
C510 C504 1.465 . S
C510 C509 1.396 . S
C510 C511 1.399 . S
C511 H497 0.929 . S
C511 C510 1.399 . S
C511 C512 1.385 . S
C512 H498 0.931 . S
C512 C511 1.385 . S
C512 C513 1.389 . S
C513 C512 1.389 . S
C513 C514 1.387 . S
C514 H499 0.930 . S
C514 C509 1.390 . S
C514 C513 1.387 . S
H515 C527 0.930 . S
H516 C529 0.930 . S
H517 C530 0.930 . S
H518 C534 0.959 . S
H519 C534 0.959 . S
H520 C534 0.961 . S
H521 C535 0.960 . S
H522 C535 0.961 . S
H523 C535 0.959 . S
H524 C538 0.929 . S
H525 C539 0.931 . S
H526 C541 0.930 . S
C527 H515 0.930 . S
C527 C528 1.399 . S
C527 C532 1.399 . S
C528 C527 1.399 . S
C528 C529 1.376 . S
C529 H516 0.930 . S
C529 C528 1.376 . S
C529 C530 1.388 . S
C530 H517 0.930 . S
C530 C529 1.388 . S
C530 C531 1.390 . S
C531 C530 1.390 . S
C531 C532 1.394 . S
C531 C537 1.465 . S
C532 C527 1.399 . S
C532 C531 1.394 . S
C532 C533 1.516 . S
C533 C532 1.516 . S
C533 C534 1.502 . S
C533 C535 1.561 . S
C533 C536 1.526 . S
C534 H518 0.959 . S
C534 H519 0.959 . S
C534 H520 0.961 . S
C534 C533 1.502 . S
C535 H521 0.960 . S
C535 H522 0.961 . S
C535 H523 0.959 . S
C535 C533 1.561 . S
C536 C533 1.526 . S
C536 C537 1.396 . S
C536 C541 1.390 . S
C537 C531 1.465 . S
C537 C536 1.396 . S
C537 C538 1.399 . S
C538 H524 0.929 . S
C538 C537 1.399 . S
C538 C539 1.385 . S
C539 H525 0.931 . S
C539 C538 1.385 . S
C539 C540 1.389 . S
C540 C539 1.389 . S
C540 C541 1.387 . S
C541 H526 0.930 . S
C541 C536 1.390 . S
C541 C540 1.387 . S
H542 C554 0.930 . S
H543 C556 0.930 . S
H544 C557 0.930 . S
H545 C561 0.959 . S
H546 C561 0.959 . S
H547 C561 0.961 . S
H548 C562 0.960 . S
H549 C562 0.961 . S
H550 C562 0.959 . S
H551 C565 0.929 . S
H552 C566 0.931 . S
H553 C568 0.930 . S
C554 H542 0.930 . S
C554 C555 1.399 . S
C554 C559 1.399 . S
C555 C554 1.399 . S
C555 C556 1.376 . S
C556 H543 0.930 . S
C556 C555 1.376 . S
C556 C557 1.388 . S
C557 H544 0.930 . S
C557 C556 1.388 . S
C557 C558 1.390 . S
C558 C557 1.390 . S
C558 C559 1.394 . S
C558 C564 1.465 . S
C559 C554 1.399 . S
C559 C558 1.394 . S
C559 C560 1.516 . S
C560 C559 1.516 . S
C560 C561 1.502 . S
C560 C562 1.561 . S
C560 C563 1.526 . S
C561 H545 0.959 . S
C561 H546 0.959 . S
C561 H547 0.961 . S
C561 C560 1.502 . S
C562 H548 0.960 . S
C562 H549 0.961 . S
C562 H550 0.959 . S
C562 C560 1.561 . S
C563 C560 1.526 . S
C563 C564 1.396 . S
C563 C568 1.390 . S
C564 C558 1.465 . S
C564 C563 1.396 . S
C564 C565 1.399 . S
C565 H551 0.929 . S
C565 C564 1.399 . S
C565 C566 1.385 . S
C566 H552 0.931 . S
C566 C565 1.385 . S
C566 C567 1.389 . S
C567 C566 1.389 . S
C567 C568 1.387 . S
C568 H553 0.930 . S
C568 C563 1.390 . S
C568 C567 1.387 . S
H569 C581 0.930 . S
H570 C583 0.930 . S
H571 C584 0.930 1_655 S
H572 C588 0.959 . S
H573 C588 0.959 . S
H574 C588 0.961 . S
H575 C589 0.960 . S
H576 C589 0.961 . S
H577 C589 0.959 . S
H578 C592 0.929 1_655 S
H579 C593 0.931 1_655 S
H580 C595 0.930 . S
C581 H569 0.930 . S
C581 C582 1.399 . S
C581 C586 1.399 . S
C582 C581 1.399 . S
C582 C583 1.376 . S
C583 H570 0.930 . S
C583 C582 1.376 . S
C583 C584 1.388 . S
C584 H571 0.930 1_455 S
C584 C583 1.388 . S
C584 C585 1.390 . S
C585 C584 1.390 . S
C585 C586 1.394 . S
C585 C591 1.465 . S
C586 C581 1.399 . S
C586 C585 1.394 . S
C586 C587 1.516 . S
C587 C586 1.516 . S
C587 C588 1.502 . S
C587 C589 1.561 . S
C587 C590 1.526 . S
C588 H572 0.959 . S
C588 H573 0.959 . S
C588 H574 0.961 . S
C588 C587 1.502 . S
C589 H575 0.960 . S
C589 H576 0.961 . S
C589 H577 0.959 . S
C589 C587 1.561 . S
C590 C587 1.526 . S
C590 C591 1.396 . S
C590 C595 1.390 . S
C591 C585 1.465 . S
C591 C590 1.396 . S
C591 C592 1.399 . S
C592 H578 0.929 1_455 S
C592 C591 1.399 . S
C592 C593 1.385 . S
C593 H579 0.931 1_455 S
C593 C592 1.385 . S
C593 C594 1.389 . S
C594 C593 1.389 . S
C594 C595 1.387 . S
C595 H580 0.930 . S
C595 C590 1.390 . S
C595 C594 1.387 . S
H596 C608 0.911 1_545 S
H597 C610 0.930 . S
H598 C611 0.930 . S
H599 C615 0.959 . S
H600 C615 0.959 . S
H601 C615 0.961 . S
H602 C616 0.960 . S
H603 C616 0.961 . S
H604 C616 0.959 . S
H605 C619 0.929 . S
H606 C620 0.931 . S
H607 C622 0.930 . S
C608 H596 0.911 1_565 S
C608 C609 1.399 . S
C608 C613 1.399 . S
C609 C608 1.399 . S
C609 C610 1.376 . S
C610 H597 0.930 . S
C610 C609 1.376 . S
C610 C611 1.388 . S
C611 H598 0.930 . S
C611 C610 1.388 . S
C611 C612 1.390 . S
C612 C611 1.390 . S
C612 C613 1.394 . S
C612 C618 1.465 1_554 S
C613 C608 1.399 . S
C613 C612 1.394 . S
C613 C614 1.516 1_564 S
C614 C613 1.516 1_546 S
C614 C615 1.502 . S
C614 C616 1.561 1_556 S
C614 C617 1.526 1_545 S
C615 H599 0.959 . S
C615 H600 0.959 . S
C615 H601 0.961 . S
C615 C614 1.502 . S
C616 H602 0.960 . S
C616 H603 0.961 . S
C616 H604 0.959 . S
C616 C614 1.561 1_554 S
C617 C614 1.526 1_565 S
C617 C618 1.396 . S
C617 C622 1.390 1_565 S
C618 C612 1.465 1_556 S
C618 C617 1.396 . S
C618 C619 1.399 . S
C619 H605 0.929 . S
C619 C618 1.399 . S
C619 C620 1.385 . S
C620 H606 0.931 . S
C620 C619 1.385 . S
C620 C621 1.389 . S
C621 C620 1.389 . S
C621 C622 1.387 1_565 S
C622 H607 0.930 . S
C622 C617 1.390 1_545 S
C622 C621 1.387 1_545 S
H623 C635 0.930 . S
H624 C637 0.930 . S
H625 C638 0.930 1_556 S
H626 C642 0.959 1_556 S
H627 C642 0.959 . S
H628 C642 0.961 . S
H629 C643 0.960 . S
H630 C643 0.961 . S
H631 C643 0.959 . S
H632 C646 0.929 . S
H633 C647 0.931 . S
H634 C649 0.930 . S
C635 H623 0.930 . S
C635 C636 1.399 . S
C635 C640 1.399 . S
C636 C635 1.399 . S
C636 C637 1.376 . S
C637 H624 0.930 . S
C637 C636 1.376 . S
C637 C638 1.388 . S
C638 H625 0.930 1_554 S
C638 C637 1.388 . S
C638 C639 1.390 1_554 S
C639 C638 1.390 1_556 S
C639 C640 1.394 1_556 S
C639 C645 1.465 . S
C640 C635 1.399 . S
C640 C639 1.394 1_554 S
C640 C641 1.516 . S
C641 C640 1.516 . S
C641 C642 1.502 . S
C641 C643 1.561 . S
C641 C644 1.526 1_554 S
C642 H626 0.959 1_554 S
C642 H627 0.959 . S
C642 H628 0.961 . S
C642 C641 1.502 . S
C643 H629 0.960 . S
C643 H630 0.961 . S
C643 H631 0.959 . S
C643 C641 1.561 . S
C644 C641 1.526 1_556 S
C644 C645 1.396 . S
C644 C649 1.390 . S
C645 C639 1.465 . S
C645 C644 1.396 . S
C645 C646 1.399 . S
C646 H632 0.929 . S
C646 C645 1.399 . S
C646 C647 1.385 . S
C647 H633 0.931 . S
C647 C646 1.385 . S
C647 C648 1.389 . S
C648 C647 1.389 . S
C648 C649 1.387 . S
C649 H634 0.930 . S
C649 C644 1.390 . S
C649 C648 1.387 . S
H650 C662 0.930 . S
H651 C664 0.930 . S
H652 C665 0.930 . S
H653 C669 0.959 . S
H654 C669 0.959 . S
H655 C669 0.961 1_554 S
H656 C670 0.960 . S
H657 C670 0.961 . S
H658 C670 0.959 . S
H659 C673 0.929 . S
H660 C674 0.931 . S
H661 C676 0.930 . S
C662 H650 0.930 . S
C662 C663 1.399 . S
C662 C667 1.399 . S
C663 C662 1.399 . S
C663 C664 1.376 . S
C664 H651 0.930 . S
C664 C663 1.376 . S
C664 C665 1.388 . S
C665 H652 0.930 . S
C665 C664 1.388 . S
C665 C666 1.390 . S
C666 C665 1.390 . S
C666 C667 1.394 . S
C666 C672 1.465 1_554 S
C667 C662 1.399 . S
C667 C666 1.394 . S
C667 C668 1.521 . S
C668 C667 1.521 . S
C668 C669 1.497 1_554 S
C668 C670 1.569 . S
C668 C671 1.519 1_554 S
C669 H653 0.959 . S
C669 H654 0.959 . S
C669 H655 0.961 1_556 S
C669 C668 1.497 1_556 S
C670 H656 0.960 . S
C670 H657 0.961 . S
C670 H658 0.959 . S
C670 C668 1.569 . S
C671 C668 1.519 1_556 S
C671 C672 1.396 . S
C671 C676 1.390 . S
C672 C666 1.465 1_556 S
C672 C671 1.396 . S
C672 C673 1.399 . S
C673 H659 0.929 . S
C673 C672 1.399 . S
C673 C674 1.385 . S
C674 H660 0.931 . S
C674 C673 1.385 . S
C674 C675 1.389 . S
C675 C674 1.389 . S
C675 C676 1.387 . S
C676 H661 0.930 . S
C676 C671 1.390 . S
C676 C675 1.387 . S
H677 C689 0.930 . S
H678 C691 0.930 . S
H679 C692 0.930 1_556 S
H680 C696 0.959 1_556 S
H681 C696 0.959 . S
H682 C696 0.961 . S
H683 C697 0.960 . S
H684 C697 0.961 1_455 S
H685 C697 0.959 . S
H686 C700 0.929 . S
H687 C701 0.931 . S
H688 C703 0.930 1_455 S
C689 H677 0.930 . S
C689 C690 1.399 . S
C689 C694 1.399 . S
C690 C689 1.399 . S
C690 C691 1.376 . S
C691 H678 0.930 . S
C691 C690 1.376 . S
C691 C692 1.388 . S
C692 H679 0.930 1_554 S
C692 C691 1.388 . S
C692 C693 1.390 1_554 S
C693 C692 1.390 1_556 S
C693 C694 1.394 1_556 S
C693 C699 1.465 . S
C694 C689 1.399 . S
C694 C693 1.394 1_554 S
C694 C695 1.516 . S
C695 C694 1.516 . S
C695 C696 1.502 1_655 S
C695 C697 1.561 . S
C695 C698 1.526 1_554 S
C696 H680 0.959 1_554 S
C696 H681 0.959 . S
C696 H682 0.961 . S
C696 C695 1.502 1_455 S
C697 H683 0.960 . S
C697 H684 0.961 1_655 S
C697 H685 0.959 . S
C697 C695 1.561 . S
C698 C695 1.526 1_556 S
C698 C699 1.396 . S
C698 C703 1.390 . S
C699 C693 1.465 . S
C699 C698 1.396 . S
C699 C700 1.399 . S
C700 H686 0.929 . S
C700 C699 1.399 . S
C700 C701 1.385 . S
C701 H687 0.931 . S
C701 C700 1.385 . S
C701 C702 1.389 . S
C702 C701 1.389 . S
C702 C703 1.387 . S
C703 H688 0.930 1_655 S
C703 C698 1.390 . S
C703 C702 1.387 . S
H704 C716 0.918 1_556 S
H705 C718 0.930 . S
H706 C719 0.930 . S
H707 C723 0.959 1_655 S
H708 C723 0.959 1_655 S
H709 C723 0.961 1_556 S
H710 C724 0.960 1_556 S
H711 C724 0.961 . S
H712 C724 0.959 . S
H713 C727 0.929 . S
H714 C728 0.931 . S
H715 C730 0.930 . S
C716 H704 0.918 1_554 S
C716 C717 1.399 . S
C716 C721 1.399 . S
C717 C716 1.399 . S
C717 C718 1.376 . S
C718 H705 0.930 . S
C718 C717 1.376 . S
C718 C719 1.388 . S
C719 H706 0.930 . S
C719 C718 1.388 . S
C719 C720 1.390 . S
C720 C719 1.390 . S
C720 C721 1.394 . S
C720 C726 1.465 . S
C721 C716 1.399 . S
C721 C720 1.394 . S
C721 C722 1.516 . S
C722 C721 1.516 . S
C722 C723 1.502 . S
C722 C724 1.561 . S
C722 C725 1.526 . S
C723 H707 0.959 1_455 S
C723 H708 0.959 1_455 S
C723 H709 0.961 1_554 S
C723 C722 1.502 . S
C724 H710 0.960 1_554 S
C724 H711 0.961 . S
C724 H712 0.959 . S
C724 C722 1.561 . S
C725 C722 1.526 . S
C725 C726 1.396 . S
C725 C730 1.390 . S
C726 C720 1.465 . S
C726 C725 1.396 . S
C726 C727 1.399 . S
C727 H713 0.929 . S
C727 C726 1.399 . S
C727 C728 1.385 . S
C728 H714 0.931 . S
C728 C727 1.385 . S
C728 C729 1.389 . S
C729 C728 1.389 . S
C729 C730 1.387 . S
C730 H715 0.930 . S
C730 C725 1.390 . S
C730 C729 1.387 . S
H731 C743 0.930 . S
H732 C745 0.930 1_556 S
H733 C746 0.930 . S
H734 C750 0.959 . S
H735 C750 0.959 . S
H736 C750 0.961 . S
H737 C751 0.960 . S
H738 C751 0.961 . S
H739 C751 0.959 . S
H740 C754 0.940 . S
H741 C755 0.931 . S
H742 C757 0.930 . S
C743 H731 0.930 . S
C743 C744 1.399 . S
C743 C748 1.399 . S
C744 C743 1.399 . S
C744 C745 1.376 . S
C745 H732 0.930 1_554 S
C745 C744 1.376 . S
C745 C746 1.388 . S
C746 H733 0.930 . S
C746 C745 1.388 . S
C746 C747 1.390 . S
C747 C746 1.390 . S
C747 C748 1.394 . S
C747 C753 1.465 . S
C748 C743 1.399 . S
C748 C747 1.394 . S
C748 C749 1.516 . S
C749 C748 1.516 . S
C749 C750 1.502 . S
C749 C751 1.561 . S
C749 C752 1.526 . S
C750 H734 0.959 . S
C750 H735 0.959 . S
C750 H736 0.961 . S
C750 C749 1.502 . S
C751 H737 0.960 . S
C751 H738 0.961 . S
C751 H739 0.959 . S
C751 C749 1.561 . S
C752 C749 1.526 . S
C752 C753 1.396 . S
C752 C757 1.390 . S
C753 C747 1.465 . S
C753 C752 1.396 . S
C753 C754 1.385 1_545 S
C754 H740 0.940 . S
C754 C753 1.385 1_565 S
C754 C755 1.389 . S
C755 H741 0.931 . S
C755 C754 1.389 . S
C755 C756 1.389 1_565 S
C756 C755 1.389 1_545 S
C756 C757 1.387 . S
C757 H742 0.930 . S
C757 C752 1.390 . S
C757 C756 1.387 . S
H758 C770 0.930 . S
H759 C772 0.930 . S
H760 C773 0.930 . S
H761 C777 0.959 . S
H762 C777 0.959 . S
H763 C777 0.961 1_556 S
H764 C778 0.960 . S
H765 C778 0.961 . S
H766 C778 0.959 . S
H767 C781 0.929 . S
H768 C782 0.931 . S
H769 C784 0.930 . S
C770 H758 0.930 . S
C770 C771 1.399 . S
C770 C775 1.399 . S
C771 C770 1.399 . S
C771 C772 1.376 . S
C772 H759 0.930 . S
C772 C771 1.376 . S
C772 C773 1.388 . S
C773 H760 0.930 . S
C773 C772 1.388 . S
C773 C774 1.390 . S
C774 C773 1.390 . S
C774 C775 1.394 . S
C774 C780 1.465 . S
C775 C770 1.399 . S
C775 C774 1.394 . S
C775 C776 1.516 . S
C776 C775 1.516 . S
C776 C777 1.502 . S
C776 C778 1.561 . S
C776 C779 1.526 . S
C777 H761 0.959 . S
C777 H762 0.959 . S
C777 H763 0.961 1_554 S
C777 C776 1.502 . S
C778 H764 0.960 . S
C778 H765 0.961 . S
C778 H766 0.959 . S
C778 C776 1.561 . S
C779 C776 1.526 . S
C779 C780 1.396 . S
C779 C784 1.390 . S
C780 C774 1.465 . S
C780 C779 1.396 . S
C780 C781 1.399 . S
C781 H767 0.929 . S
C781 C780 1.399 . S
C781 C782 1.385 . S
C782 H768 0.931 . S
C782 C781 1.385 . S
C782 C783 1.389 . S
C783 C782 1.389 . S
C783 C784 1.387 . S
C784 H769 0.930 . S
C784 C779 1.390 . S
C784 C783 1.387 . S
H785 C797 0.930 . S
H786 C799 0.930 1_556 S
H787 C800 0.930 . S
H788 C804 0.959 . S
H789 C804 0.959 . S
H790 C804 0.961 . S
H791 C805 0.960 . S
H792 C805 0.961 . S
H793 C805 0.959 . S
H794 C808 0.929 . S
H795 C809 0.931 . S
H796 C811 0.930 . S
C797 H785 0.930 . S
C797 C798 1.399 . S
C797 C802 1.399 . S
C798 C797 1.399 . S
C798 C799 1.376 . S
C799 H786 0.930 1_554 S
C799 C798 1.376 . S
C799 C800 1.388 . S
C800 H787 0.930 . S
C800 C799 1.388 . S
C800 C801 1.390 . S
C801 C800 1.390 . S
C801 C802 1.394 . S
C801 C807 1.465 . S
C802 C797 1.399 . S
C802 C801 1.394 . S
C802 C803 1.516 . S
C803 C802 1.516 . S
C803 C804 1.502 . S
C803 C805 1.561 . S
C803 C806 1.526 . S
C804 H788 0.959 . S
C804 H789 0.959 . S
C804 H790 0.961 . S
C804 C803 1.502 . S
C805 H791 0.960 . S
C805 H792 0.961 . S
C805 H793 0.959 . S
C805 C803 1.561 . S
C806 C803 1.526 . S
C806 C807 1.396 . S
C806 C811 1.390 . S
C807 C801 1.465 . S
C807 C806 1.396 . S
C807 C808 1.399 . S
C808 H794 0.929 . S
C808 C807 1.399 . S
C808 C809 1.385 . S
C809 H795 0.931 . S
C809 C808 1.385 . S
C809 C810 1.389 . S
C810 C809 1.389 . S
C810 C811 1.387 . S
C811 H796 0.930 . S
C811 C806 1.390 . S
C811 C810 1.387 . S
H812 C824 0.930 . S
H813 C826 0.930 . S
H814 C827 0.930 1_556 S
H815 C831 0.959 . S
H816 C831 0.959 . S
H817 C831 0.961 . S
H818 C832 0.960 1_655 S
H819 C832 0.961 . S
H820 C832 0.959 . S
H821 C835 0.929 . S
H822 C836 0.931 . S
H823 C838 0.934 . S
C824 H812 0.930 . S
C824 C825 1.399 . S
C824 C829 1.399 . S
C825 C824 1.399 . S
C825 C826 1.376 . S
C826 H813 0.930 . S
C826 C825 1.376 . S
C826 C827 1.388 . S
C827 H814 0.930 1_554 S
C827 C826 1.388 . S
C827 C828 1.390 . S
C828 C827 1.390 . S
C828 C829 1.394 . S
C828 C834 1.465 . S
C829 C824 1.399 . S
C829 C828 1.394 . S
C829 C830 1.516 . S
C830 C829 1.516 . S
C830 C831 1.502 . S
C830 C832 1.561 1_655 S
C830 C833 1.526 . S
C831 H815 0.959 . S
C831 H816 0.959 . S
C831 H817 0.961 . S
C831 C830 1.502 . S
C832 H818 0.960 1_455 S
C832 H819 0.961 . S
C832 H820 0.959 . S
C832 C830 1.561 1_455 S
C833 C830 1.526 . S
C833 C834 1.396 . S
C833 C838 1.390 . S
C834 C828 1.465 . S
C834 C833 1.396 . S
C834 C835 1.399 1_554 S
C835 H821 0.929 . S
C835 C834 1.399 1_556 S
C835 C836 1.385 1_655 S
C836 H822 0.931 . S
C836 C835 1.385 1_455 S
C836 C837 1.389 . S
C837 C836 1.389 . S
C837 C838 1.387 1_456 S
C838 H823 0.934 . S
C838 C833 1.390 . S
C838 C837 1.387 1_654 S
H839 C851 0.930 . S
H840 C853 0.930 . S
H841 C854 0.930 . S
H842 C858 0.959 1_556 S
H843 C858 0.959 . S
H844 C858 0.961 . S
H845 C859 0.960 . S
H846 C859 0.961 . S
H847 C859 0.959 . S
H848 C862 0.929 . S
H849 C863 0.931 1_556 S
H850 C865 0.930 . S
C851 H839 0.930 . S
C851 C852 1.399 . S
C851 C856 1.399 . S
C852 C851 1.399 . S
C852 C853 1.376 . S
C853 H840 0.930 . S
C853 C852 1.376 . S
C853 C854 1.388 1_565 S
C854 H841 0.930 . S
C854 C853 1.388 1_545 S
C854 C855 1.390 1_545 S
C855 C854 1.390 1_565 S
C855 C856 1.394 . S
C855 C861 1.465 1_565 S
C856 C851 1.399 . S
C856 C855 1.394 . S
C856 C857 1.516 . S
C857 C856 1.516 . S
C857 C858 1.502 . S
C857 C859 1.561 . S
C857 C860 1.526 . S
C858 H842 0.959 1_554 S
C858 H843 0.959 . S
C858 H844 0.961 . S
C858 C857 1.502 . S
C859 H845 0.960 . S
C859 H846 0.961 . S
C859 H847 0.959 . S
C859 C857 1.561 . S
C860 C857 1.526 . S
C860 C861 1.396 1_565 S
C860 C865 1.390 . S
C861 C855 1.465 1_545 S
C861 C860 1.396 1_545 S
C861 C862 1.399 . S
C862 H848 0.929 . S
C862 C861 1.399 . S
C862 C863 1.385 . S
C863 H849 0.931 1_554 S
C863 C862 1.385 . S
C863 C864 1.389 1_554 S
C864 C863 1.389 1_556 S
C864 C865 1.386 1_546 S
C865 H850 0.930 . S
C865 C860 1.390 . S
C865 C864 1.386 1_564 S
H866 C878 0.930 . S
H867 C880 0.930 . S
H868 C881 0.930 . S
H869 C885 0.959 1_554 S
H870 C885 0.959 . S
H871 C885 0.961 . S
H872 C886 0.960 . S
H873 C886 0.961 . S
H874 C886 0.959 . S
H875 C889 0.929 . S
H876 C890 0.931 . S
H877 C892 0.930 . S
C878 H866 0.930 . S
C878 C879 1.399 . S
C878 C883 1.399 . S
C879 C878 1.399 . S
C879 C880 1.376 . S
C880 H867 0.930 . S
C880 C879 1.376 . S
C880 C881 1.388 . S
C881 H868 0.930 . S
C881 C880 1.388 . S
C881 C882 1.390 . S
C882 C881 1.390 . S
C882 C883 1.394 . S
C882 C888 1.465 . S
C883 C878 1.399 . S
C883 C882 1.394 . S
C883 C884 1.516 . S
C884 C883 1.516 . S
C884 C885 1.502 1_554 S
C884 C886 1.561 1_554 S
C884 C887 1.526 . S
C885 H869 0.959 1_556 S
C885 H870 0.959 . S
C885 H871 0.961 . S
C885 C884 1.502 1_556 S
C886 H872 0.960 . S
C886 H873 0.961 . S
C886 H874 0.959 . S
C886 C884 1.561 1_556 S
C887 C884 1.526 . S
C887 C888 1.396 . S
C887 C892 1.390 1_554 S
C888 C882 1.465 . S
C888 C887 1.396 . S
C888 C889 1.399 . S
C889 H875 0.929 . S
C889 C888 1.399 . S
C889 C890 1.385 . S
C890 H876 0.931 . S
C890 C889 1.385 . S
C890 C891 1.389 . S
C891 C890 1.389 . S
C891 C892 1.387 1_554 S
C892 H877 0.930 . S
C892 C887 1.390 1_556 S
C892 C891 1.387 1_556 S
H893 C905 0.930 . S
H894 C907 0.930 . S
H895 C908 0.930 . S
H896 C912 0.959 1_554 S
H897 C912 0.959 . S
H898 C912 0.961 . S
H899 C913 0.960 . S
H900 C913 0.961 . S
H901 C913 0.959 . S
H902 C916 0.929 . S
H903 C917 0.931 . S
H904 C919 0.930 . S
C905 H893 0.930 . S
C905 C906 1.399 . S
C905 C910 1.399 . S
C906 C905 1.399 . S
C906 C907 1.376 . S
C907 H894 0.930 . S
C907 C906 1.376 . S
C907 C908 1.388 . S
C908 H895 0.930 . S
C908 C907 1.388 . S
C908 C909 1.390 . S
C909 C908 1.390 . S
C909 C910 1.394 . S
C909 C915 1.465 . S
C910 C905 1.399 . S
C910 C909 1.394 . S
C910 C911 1.516 . S
C911 C910 1.516 . S
C911 C912 1.502 1_554 S
C911 C913 1.561 1_554 S
C911 C914 1.526 . S
C912 H896 0.959 1_556 S
C912 H897 0.959 . S
C912 H898 0.961 . S
C912 C911 1.502 1_556 S
C913 H899 0.960 . S
C913 H900 0.961 . S
C913 H901 0.959 . S
C913 C911 1.561 1_556 S
C914 C911 1.526 . S
C914 C915 1.396 . S
C914 C919 1.390 1_554 S
C915 C909 1.465 . S
C915 C914 1.396 . S
C915 C916 1.399 . S
C916 H902 0.929 . S
C916 C915 1.399 . S
C916 C917 1.385 . S
C917 H903 0.931 . S
C917 C916 1.385 . S
C917 C918 1.389 . S
C918 C917 1.389 . S
C918 C919 1.387 1_554 S
C919 H904 0.930 . S
C919 C914 1.390 1_556 S
C919 C918 1.387 1_556 S
H920 C932 0.930 . S
H921 C934 0.930 . S
H922 C935 0.930 . S
H923 C939 0.959 1_655 S
H924 C939 0.959 . S
H925 C939 0.961 . S
H926 C940 0.960 . S
H927 C940 0.961 . S
H928 C940 0.959 . S
H929 C943 0.929 . S
H930 C944 0.931 . S
H931 C946 0.930 . S
C932 H920 0.930 . S
C932 C933 1.399 . S
C932 C937 1.399 . S
C933 C932 1.399 . S
C933 C934 1.376 . S
C934 H921 0.930 . S
C934 C933 1.376 . S
C934 C935 1.388 . S
C935 H922 0.930 . S
C935 C934 1.388 . S
C935 C936 1.390 . S
C936 C935 1.390 . S
C936 C937 1.394 . S
C936 C942 1.465 . S
C937 C932 1.399 . S
C937 C936 1.394 . S
C937 C938 1.516 . S
C938 C937 1.516 . S
C938 C939 1.502 . S
C938 C940 1.561 . S
C938 C941 1.526 . S
C939 H923 0.959 1_455 S
C939 H924 0.959 . S
C939 H925 0.961 . S
C939 C938 1.502 . S
C940 H926 0.960 . S
C940 H927 0.961 . S
C940 H928 0.959 . S
C940 C938 1.561 . S
C941 C938 1.526 . S
C941 C942 1.396 . S
C941 C946 1.390 . S
C942 C936 1.465 . S
C942 C941 1.396 . S
C942 C943 1.399 . S
C943 H929 0.929 . S
C943 C942 1.399 . S
C943 C944 1.385 . S
C944 H930 0.931 . S
C944 C943 1.385 . S
C944 C945 1.389 . S
C945 C944 1.389 . S
C945 C946 1.387 . S
C946 H931 0.930 . S
C946 C941 1.390 . S
C946 C945 1.387 . S
H947 C959 0.930 . S
H948 C961 0.930 . S
H949 C962 0.930 . S
H950 C966 0.959 . S
H951 C966 0.959 . S
H952 C966 0.961 . S
H953 C967 0.960 . S
H954 C967 0.961 . S
H955 C967 0.959 . S
H956 C970 0.929 . S
H957 C971 0.931 . S
H958 C973 0.930 . S
C959 H947 0.930 . S
C959 C960 1.399 . S
C959 C964 1.399 . S
C960 C959 1.399 . S
C960 C961 1.376 . S
C961 H948 0.930 . S
C961 C960 1.376 . S
C961 C962 1.388 . S
C962 H949 0.930 . S
C962 C961 1.388 . S
C962 C963 1.390 . S
C963 C962 1.390 . S
C963 C964 1.394 . S
C963 C969 1.465 . S
C964 C959 1.399 . S
C964 C963 1.394 . S
C964 C965 1.516 . S
C965 C964 1.516 . S
C965 C966 1.502 . S
C965 C967 1.561 . S
C965 C968 1.526 . S
C966 H950 0.959 . S
C966 H951 0.959 . S
C966 H952 0.961 . S
C966 C965 1.502 . S
C967 H953 0.960 . S
C967 H954 0.961 . S
C967 H955 0.959 . S
C967 C965 1.561 . S
C968 C965 1.526 . S
C968 C969 1.396 . S
C968 C973 1.390 . S
C969 C963 1.465 . S
C969 C968 1.396 . S
C969 C970 1.399 . S
C970 H956 0.929 . S
C970 C969 1.399 . S
C970 C971 1.385 . S
C971 H957 0.931 . S
C971 C970 1.385 . S
C971 C972 1.389 . S
C972 C971 1.389 . S
C972 C973 1.387 . S
C973 H958 0.930 . S
C973 C968 1.390 . S
C973 C972 1.387 . S
H974 C986 0.930 . S
H975 C988 0.930 . S
H976 C989 0.930 . S
H977 C993 0.959 . S
H978 C993 0.959 . S
H979 C993 0.961 . S
H980 C994 0.960 . S
H981 C994 0.961 . S
H982 C994 0.959 . S
H983 C997 0.929 . S
H984 C998 0.931 . S
H985 C1000 0.930 . S
C986 H974 0.930 . S
C986 C987 1.399 . S
C986 C991 1.399 . S
C987 C986 1.399 . S
C987 C988 1.376 . S
C988 H975 0.930 . S
C988 C987 1.376 . S
C988 C989 1.388 . S
C989 H976 0.930 . S
C989 C988 1.388 . S
C989 C990 1.390 . S
C990 C989 1.390 . S
C990 C991 1.394 . S
C990 C996 1.465 . S
C991 C986 1.399 . S
C991 C990 1.394 . S
C991 C992 1.516 . S
C992 C991 1.516 . S
C992 C993 1.502 . S
C992 C994 1.561 . S
C992 C995 1.526 . S
C993 H977 0.959 . S
C993 H978 0.959 . S
C993 H979 0.961 . S
C993 C992 1.502 . S
C994 H980 0.960 . S
C994 H981 0.961 . S
C994 H982 0.959 . S
C994 C992 1.561 . S
C995 C992 1.526 . S
C995 C996 1.396 . S
C995 C1000 1.390 . S
C996 C990 1.465 . S
C996 C995 1.396 . S
C996 C997 1.399 . S
C997 H983 0.929 . S
C997 C996 1.399 . S
C997 C998 1.385 . S
C998 H984 0.931 . S
C998 C997 1.385 . S
C998 C999 1.389 . S
C999 C998 1.389 . S
C999 C1000 1.387 . S
C1000 H985 0.930 . S
C1000 C995 1.390 . S
C1000 C999 1.387 . S
H1001 C1013 0.930 . S
H1002 C1015 0.930 . S
H1003 C1016 0.930 . S
H1004 C1020 0.959 . S
H1005 C1020 0.959 . S
H1006 C1020 0.961 1_554 S
H1007 C1021 0.960 . S
H1008 C1021 0.961 . S
H1009 C1021 0.959 . S
H1010 C1024 0.929 . S
H1011 C1025 0.931 . S
H1012 C1027 0.930 . S
C1013 H1001 0.930 . S
C1013 C1014 1.399 . S
C1013 C1018 1.399 . S
C1014 C1013 1.399 . S
C1014 C1015 1.376 . S
C1015 H1002 0.930 . S
C1015 C1014 1.376 . S
C1015 C1016 1.388 . S
C1016 H1003 0.930 . S
C1016 C1015 1.388 . S
C1016 C1017 1.390 . S
C1017 C1016 1.390 . S
C1017 C1018 1.394 . S
C1017 C1023 1.465 . S
C1018 C1013 1.399 . S
C1018 C1017 1.394 . S
C1018 C1019 1.516 . S
C1019 C1018 1.516 . S
C1019 C1020 1.502 . S
C1019 C1021 1.561 . S
C1019 C1022 1.526 . S
C1020 H1004 0.959 . S
C1020 H1005 0.959 . S
C1020 H1006 0.961 1_556 S
C1020 C1019 1.502 . S
C1021 H1007 0.960 . S
C1021 H1008 0.961 . S
C1021 H1009 0.959 . S
C1021 C1019 1.561 . S
C1022 C1019 1.526 . S
C1022 C1023 1.396 . S
C1022 C1027 1.390 . S
C1023 C1017 1.465 . S
C1023 C1022 1.396 . S
C1023 C1024 1.399 . S
C1024 H1010 0.929 . S
C1024 C1023 1.399 . S
C1024 C1025 1.385 . S
C1025 H1011 0.931 . S
C1025 C1024 1.385 . S
C1025 C1026 1.389 . S
C1026 C1025 1.389 . S
C1026 C1027 1.387 . S
C1027 H1012 0.930 . S
C1027 C1022 1.390 . S
C1027 C1026 1.387 . S
H1028 C1040 0.930 . S
H1029 C1042 0.930 . S
H1030 C1043 0.930 . S
H1031 C1047 0.959 . S
H1032 C1047 0.959 . S
H1033 C1047 0.961 . S
H1034 C1048 0.960 . S
H1035 C1048 0.961 . S
H1036 C1048 0.959 . S
H1037 C1051 0.929 . S
H1038 C1052 0.946 . S
H1039 C1054 0.930 . S
C1040 H1028 0.930 . S
C1040 C1041 1.399 . S
C1040 C1045 1.399 . S
C1041 C1040 1.399 . S
C1041 C1042 1.376 . S
C1042 H1029 0.930 . S
C1042 C1041 1.376 . S
C1042 C1043 1.388 . S
C1043 H1030 0.930 . S
C1043 C1042 1.388 . S
C1043 C1044 1.390 . S
C1044 C1043 1.390 . S
C1044 C1045 1.394 . S
C1044 C1050 1.465 . S
C1045 C1040 1.399 . S
C1045 C1044 1.394 . S
C1045 C1046 1.516 . S
C1046 C1045 1.516 . S
C1046 C1047 1.502 . S
C1046 C1048 1.561 . S
C1046 C1049 1.526 . S
C1047 H1031 0.959 . S
C1047 H1032 0.959 . S
C1047 H1033 0.961 . S
C1047 C1046 1.502 . S
C1048 H1034 0.960 . S
C1048 H1035 0.961 . S
C1048 H1036 0.959 . S
C1048 C1046 1.561 . S
C1049 C1046 1.526 . S
C1049 C1050 1.396 . S
C1049 C1054 1.390 . S
C1050 C1044 1.465 . S
C1050 C1049 1.396 . S
C1050 C1051 1.399 . S
C1051 H1037 0.929 . S
C1051 C1050 1.399 . S
C1051 C1052 1.385 . S
C1052 H1038 0.946 . S
C1052 C1051 1.385 . S
C1052 C1053 1.389 . S
C1053 C1052 1.389 . S
C1053 C1054 1.387 . S
C1054 H1039 0.930 . S
C1054 C1049 1.390 . S
C1054 C1053 1.387 . S
H1055 C1067 0.930 . S
H1056 C1069 0.930 1_545 S
H1057 C1070 0.930 . S
H1058 C1074 0.959 . S
H1059 C1074 0.959 . S
H1060 C1074 0.961 . S
H1061 C1075 0.960 . S
H1062 C1075 0.961 . S
H1063 C1075 0.959 . S
H1064 C1078 0.929 . S
H1065 C1079 0.931 . S
H1066 C1081 0.930 . S
C1067 H1055 0.930 . S
C1067 C1068 1.399 . S
C1067 C1072 1.399 . S
C1068 C1067 1.399 . S
C1068 C1069 1.376 . S
C1069 H1056 0.930 1_565 S
C1069 C1068 1.376 . S
C1069 C1070 1.388 1_565 S
C1070 H1057 0.930 . S
C1070 C1069 1.388 1_545 S
C1070 C1071 1.390 1_545 S
C1071 C1070 1.390 1_565 S
C1071 C1072 1.394 . S
C1071 C1077 1.465 . S
C1072 C1067 1.399 . S
C1072 C1071 1.394 . S
C1072 C1073 1.516 . S
C1073 C1072 1.516 . S
C1073 C1074 1.502 . S
C1073 C1075 1.561 . S
C1073 C1076 1.526 . S
C1074 H1058 0.959 . S
C1074 H1059 0.959 . S
C1074 H1060 0.961 . S
C1074 C1073 1.502 . S
C1075 H1061 0.960 . S
C1075 H1062 0.961 . S
C1075 H1063 0.959 . S
C1075 C1073 1.561 . S
C1076 C1073 1.526 . S
C1076 C1077 1.396 . S
C1076 C1081 1.390 . S
C1077 C1071 1.465 . S
C1077 C1076 1.396 . S
C1077 C1078 1.399 1_565 S
C1078 H1064 0.929 . S
C1078 C1077 1.399 1_545 S
C1078 C1079 1.385 . S
C1079 H1065 0.931 . S
C1079 C1078 1.385 . S
C1079 C1080 1.389 1_545 S
C1080 C1079 1.389 1_565 S
C1080 C1081 1.387 . S
C1081 H1066 0.930 . S
C1081 C1076 1.390 . S
C1081 C1080 1.387 . S
H1082 C1094 0.930 . S
H1083 C1096 0.930 . S
H1084 C1097 0.930 . S
H1085 C1101 0.959 . S
H1086 C1101 0.959 . S
H1087 C1101 0.961 . S
H1088 C1102 0.960 . S
H1089 C1102 0.961 . S
H1090 C1102 0.959 . S
H1091 C1105 0.929 . S
H1092 C1106 0.931 . S
H1093 C1108 0.930 . S
C1094 H1082 0.930 . S
C1094 C1095 1.399 . S
C1094 C1099 1.399 . S
C1095 C1094 1.399 . S
C1095 C1096 1.376 . S
C1096 H1083 0.930 . S
C1096 C1095 1.376 . S
C1096 C1097 1.388 . S
C1097 H1084 0.930 . S
C1097 C1096 1.388 . S
C1097 C1098 1.390 . S
C1098 C1097 1.390 . S
C1098 C1099 1.394 . S
C1098 C1104 1.465 . S
C1099 C1094 1.399 . S
C1099 C1098 1.394 . S
C1099 C1100 1.516 . S
C1100 C1099 1.516 . S
C1100 C1101 1.502 . S
C1100 C1102 1.561 . S
C1100 C1103 1.526 . S
C1101 H1085 0.959 . S
C1101 H1086 0.959 . S
C1101 H1087 0.961 . S
C1101 C1100 1.502 . S
C1102 H1088 0.960 . S
C1102 H1089 0.961 . S
C1102 H1090 0.959 . S
C1102 C1100 1.561 . S
C1103 C1100 1.526 . S
C1103 C1104 1.396 . S
C1103 C1108 1.390 . S
C1104 C1098 1.465 . S
C1104 C1103 1.396 . S
C1104 C1105 1.399 . S
C1105 H1091 0.929 . S
C1105 C1104 1.399 . S
C1105 C1106 1.385 . S
C1106 H1092 0.931 . S
C1106 C1105 1.385 . S
C1106 C1107 1.389 . S
C1107 C1106 1.389 . S
C1107 C1108 1.387 . S
C1108 H1093 0.930 . S
C1108 C1103 1.390 . S
C1108 C1107 1.387 . S
H1109 C1121 0.930 . S
H1110 C1123 0.930 . S
H1111 C1124 0.930 . S
H1112 C1128 0.959 . S
H1113 C1128 0.959 . S
H1114 C1128 0.961 . S
H1115 C1129 0.960 . S
H1116 C1129 0.961 . S
H1117 C1129 0.959 . S
H1118 C1132 0.929 . S
H1119 C1133 0.931 . S
H1120 C1135 0.930 . S
C1121 H1109 0.930 . S
C1121 C1122 1.399 . S
C1121 C1126 1.399 . S
C1122 C1121 1.399 . S
C1122 C1123 1.376 . S
C1123 H1110 0.930 . S
C1123 C1122 1.376 . S
C1123 C1124 1.388 . S
C1124 H1111 0.930 . S
C1124 C1123 1.388 . S
C1124 C1125 1.390 . S
C1125 C1124 1.390 . S
C1125 C1126 1.394 . S
C1125 C1131 1.465 . S
C1126 C1121 1.399 . S
C1126 C1125 1.394 . S
C1126 C1127 1.516 . S
C1127 C1126 1.516 . S
C1127 C1128 1.502 . S
C1127 C1129 1.561 . S
C1127 C1130 1.526 . S
C1128 H1112 0.959 . S
C1128 H1113 0.959 . S
C1128 H1114 0.961 . S
C1128 C1127 1.502 . S
C1129 H1115 0.960 . S
C1129 H1116 0.961 . S
C1129 H1117 0.959 . S
C1129 C1127 1.561 . S
C1130 C1127 1.526 . S
C1130 C1131 1.396 . S
C1130 C1135 1.390 . S
C1131 C1125 1.465 . S
C1131 C1130 1.396 . S
C1131 C1132 1.399 . S
C1132 H1118 0.929 . S
C1132 C1131 1.399 . S
C1132 C1133 1.385 . S
C1133 H1119 0.931 . S
C1133 C1132 1.385 . S
C1133 C1134 1.389 . S
C1134 C1133 1.389 . S
C1134 C1135 1.387 . S
C1135 H1120 0.930 . S
C1135 C1130 1.390 . S
C1135 C1134 1.387 . S
C501 C125 1.915 . S
C513 C226 1.962 . S
C540 C310 1.967 . S
C528 C144 1.944 . S
C567 C376 1.967 . S
C555 C87 2.015 . S
C594 C460 1.926 . S
C582 C106 1.953 . S
C621 C215 1.939 1_565 S
C609 C49 1.978 . S
C636 C68 1.998 . S
C648 C299 1.979 . S
C663 C11 2.097 . S
C675 C387 1.926 . S
C690 C30 2.078 . S
C702 C471 1.931 . S
C729 C222 0.739 1_455 S
C717 C97 0.792 . S
C756 C306 0.606 . S
C744 C116 0.597 . S
C783 C378 0.705 . S
C771 C135 0.748 . S
C798 C78 0.591 . S
C810 C462 0.590 . S
C825 C21 0.742 . S
C837 C210 0.685 . S
C864 C294 0.578 . S
C852 C40 0.603 . S
C891 C390 0.591 . S
C879 C59 0.618 . S
C906 C2 0.660 . S
C918 C474 0.632 . S
C933 C101 2.004 . S
C945 C219 2.111 . S
C960 C120 1.949 . S
C972 C303 2.054 . S
C999 C383 2.097 . S
C987 C139 1.909 . S
C1026 C467 2.123 . S
C1014 C82 1.982 . S
C1041 C25 1.998 . S
C1053 C208 2.085 . S
C1080 C292 2.030 1_565 S
C1068 C44 1.988 . S
C1107 C394 2.093 . S
C1095 C63 1.942 . S
C1122 C6 1.988 . S
C1134 C478 2.108 . S
