# Generated by pormake.
# Topology nom, (4,4)-cn, num edge types: 1
# Building blocks:
#     Node 0, Type 0, BuildingBlock: AZAVOO_clean_linker_0, # of connection points: 4
#     Node 1, Type 0, BuildingBlock: AZAVOO_clean_linker_0, # of connection points: 4
#     Node 2, Type 0, BuildingBlock: AZAVOO_clean_linker_0, # of connection points: 4
#     Node 3, Type 0, BuildingBlock: AZAVOO_clean_linker_0, # of connection points: 4
#     Node 4, Type 0, BuildingBlock: AZAVOO_clean_linker_0, # of connection points: 4
#     Node 5, Type 0, BuildingBlock: AZAVOO_clean_linker_0, # of connection points: 4
#     Node 6, Type 1, BuildingBlock: GALJAG_clean_sbu_0, # of connection points: 4
#     Node 7, Type 1, BuildingBlock: GALJAG_clean_sbu_0, # of connection points: 4
#     Node 8, Type 1, BuildingBlock: GALJAG_clean_sbu_0, # of connection points: 4
#     Node 9, Type 1, BuildingBlock: GALJAG_clean_sbu_0, # of connection points: 4
#     Node 10, Type 1, BuildingBlock: GALJAG_clean_sbu_0, # of connection points: 4
#     Node 11, Type 1, BuildingBlock: GALJAG_clean_sbu_0, # of connection points: 4
#     Edge 12, Type (0, 1), BuildingBlock: KIFKEQ_clean_linker_1, # of connection points: 2
#     Edge 13, Type (0, 1), BuildingBlock: KIFKEQ_clean_linker_1, # of connection points: 2
#     Edge 14, Type (0, 1), BuildingBlock: KIFKEQ_clean_linker_1, # of connection points: 2
#     Edge 15, Type (0, 1), BuildingBlock: KIFKEQ_clean_linker_1, # of connection points: 2
#     Edge 16, Type (0, 1), BuildingBlock: KIFKEQ_clean_linker_1, # of connection points: 2
#     Edge 17, Type (0, 1), BuildingBlock: KIFKEQ_clean_linker_1, # of connection points: 2
#     Edge 18, Type (0, 1), BuildingBlock: KIFKEQ_clean_linker_1, # of connection points: 2
#     Edge 19, Type (0, 1), BuildingBlock: KIFKEQ_clean_linker_1, # of connection points: 2
#     Edge 20, Type (0, 1), BuildingBlock: KIFKEQ_clean_linker_1, # of connection points: 2
#     Edge 21, Type (0, 1), BuildingBlock: KIFKEQ_clean_linker_1, # of connection points: 2
#     Edge 22, Type (0, 1), BuildingBlock: KIFKEQ_clean_linker_1, # of connection points: 2
#     Edge 23, Type (0, 1), BuildingBlock: KIFKEQ_clean_linker_1, # of connection points: 2
#     Edge 24, Type (0, 1), BuildingBlock: KIFKEQ_clean_linker_1, # of connection points: 2
#     Edge 25, Type (0, 1), BuildingBlock: KIFKEQ_clean_linker_1, # of connection points: 2
#     Edge 26, Type (0, 1), BuildingBlock: KIFKEQ_clean_linker_1, # of connection points: 2
#     Edge 27, Type (0, 1), BuildingBlock: KIFKEQ_clean_linker_1, # of connection points: 2
#     Edge 28, Type (0, 1), BuildingBlock: KIFKEQ_clean_linker_1, # of connection points: 2
#     Edge 29, Type (0, 1), BuildingBlock: KIFKEQ_clean_linker_1, # of connection points: 2
#     Edge 30, Type (0, 1), BuildingBlock: KIFKEQ_clean_linker_1, # of connection points: 2
#     Edge 31, Type (0, 1), BuildingBlock: KIFKEQ_clean_linker_1, # of connection points: 2
#     Edge 32, Type (0, 1), BuildingBlock: KIFKEQ_clean_linker_1, # of connection points: 2
#     Edge 33, Type (0, 1), BuildingBlock: KIFKEQ_clean_linker_1, # of connection points: 2
#     Edge 34, Type (0, 1), BuildingBlock: KIFKEQ_clean_linker_1, # of connection points: 2
#     Edge 35, Type (0, 1), BuildingBlock: KIFKEQ_clean_linker_1, # of connection points: 2
# Relax obj value: 0.112
# Max RMSD: 0.223
# Mean RMSD: 0.142
data_MOF--net-nom--node1-GALJAG_clean_sbu_0--node2-AZAVOO_clean_linker_0--edge1-KIFKEQ_clean_linker_1
_symmetry_space_group_name_H-M    P1
_symmetry_Int_Tables_number       1
_symmetry_cell_setting            triclinic
loop_
_symmetry_equiv_pos_as_xyz
'x, y, z'
_cell_length_a     48.713772
_cell_length_b     50.019425
_cell_length_c     62.2918
_cell_angle_alpha  90.136985
_cell_angle_beta   89.850395
_cell_angle_gamma 121.53276
loop_
_atom_site_label
_atom_site_type_symbol
_atom_site_fract_x
_atom_site_fract_y
_atom_site_fract_z
_atom_type_partial_charge
H0 H 0.08253 0.5623 0.17533 0.0
H1 H 0.21717 0.71041 0.39835 0.0
H2 H 0.00701 0.51458 0.28516 0.0
H3 H 0.97438 0.48751 0.25384 0.0
H4 H 0.94764 0.5572 0.24867 0.0
H5 H 0.98155 0.58481 0.27982 0.0
H6 H 0.07592 0.55434 0.2691 0.0
H7 H 0.08215 0.55178 0.23027 0.0
H8 H 0.05073 0.61733 0.22069 0.0
H9 H 0.04494 0.61987 0.25957 0.0
H10 H 0.1242 0.58553 0.29924 0.0
H11 H 0.1808 0.61736 0.28771 0.0
H12 H 0.1696 0.69665 0.27832 0.0
H13 H 0.11295 0.66454 0.28929 0.0
H14 H 0.1013 0.57909 0.35199 0.0
H15 H 0.14575 0.60506 0.37763 0.0
H16 H 0.16112 0.69505 0.35871 0.0
H17 H 0.1163 0.66871 0.33339 0.0
H18 H 0.02808 0.54416 0.36362 0.0
H19 H 0.04071 0.55092 0.40204 0.0
H20 H 0.07056 0.64858 0.39723 0.0
H21 H 0.05742 0.64154 0.35894 0.0
H22 H 0.96794 0.51381 0.32359 0.0
H23 H 0.91412 0.49521 0.33853 0.0
H24 H 0.9432 0.59056 0.35433 0.0
H25 H 0.99629 0.60908 0.33878 0.0
O26 O 0.08024 0.56391 0.19065 0.0
O27 O 0.06379 0.59753 0.18661 0.0
O28 O 0.19066 0.6527 0.39744 0.0
O29 O 0.19988 0.69959 0.38808 0.0
C30 C 0.02364 0.57199 0.29923 0.0
C31 C 0.05516 0.58798 0.29055 0.0
C32 C 0.08188 0.60506 0.30409 0.0
C33 C 0.07738 0.60593 0.32633 0.0
C34 C 0.04589 0.59126 0.33495 0.0
C35 C 0.01884 0.57475 0.32134 0.0
C36 C 0.99653 0.55155 0.28476 0.0
C37 C 0.99319 0.52338 0.2777 0.0
C38 C 0.97453 0.50796 0.25973 0.0
C39 C 0.95864 0.52035 0.24852 0.0
C40 C 0.96005 0.54735 0.25669 0.0
C41 C 0.97894 0.56289 0.27468 0.0
C42 C 0.06008 0.58734 0.26707 0.0
C43 C 0.07069 0.56832 0.25857 0.0
C44 C 0.07408 0.56681 0.23639 0.0
C45 C 0.06689 0.58432 0.22236 0.0
C46 C 0.05646 0.60354 0.23103 0.0
C47 C 0.05316 0.60506 0.25321 0.0
C48 C 0.11473 0.62287 0.29503 0.0
C49 C 0.1339 0.60958 0.29426 0.0
C50 C 0.16602 0.62768 0.28771 0.0
C51 C 0.17932 0.65934 0.28228 0.0
C52 C 0.15978 0.67229 0.28255 0.0
C53 C 0.12757 0.65405 0.28871 0.0
C54 C 0.10577 0.62205 0.34077 0.0
C55 C 0.11447 0.60442 0.35331 0.0
C56 C 0.13982 0.61931 0.36796 0.0
C57 C 0.15701 0.65216 0.37021 0.0
C58 C 0.14844 0.66975 0.35736 0.0
C59 C 0.12299 0.6548 0.34279 0.0
C60 C 0.04217 0.59244 0.35851 0.0
C61 C 0.03581 0.56659 0.37109 0.0
C62 C 0.04317 0.57053 0.39299 0.0
C63 C 0.05712 0.6004 0.40242 0.0
C64 C 0.06014 0.6254 0.39025 0.0
C65 C 0.05244 0.62137 0.36846 0.0
C66 C 0.98606 0.56282 0.33007 0.0
C67 C 0.96255 0.53068 0.33006 0.0
C68 C 0.93195 0.52009 0.33865 0.0
C69 C 0.92471 0.54148 0.34772 0.0
C70 C 0.94833 0.57357 0.34772 0.0
C71 C 0.97859 0.58415 0.33882 0.0
C72 C 0.07018 0.58241 0.1988 0.0
C73 C 0.18352 0.66804 0.38606 0.0
H74 H 0.49741 0.09663 0.34695 0.0
H75 H 0.49107 0.21995 0.58087 0.0
H76 H 0.47788 0.01685 0.46805 0.0
H77 H 0.47812 0.98652 0.43732 0.0
H78 H 0.39598 0.98613 0.41087 0.0
H79 H 0.39602 0.01661 0.44172 0.0
H80 H 0.50129 0.07632 0.43903 0.0
H81 H 0.50778 0.08434 0.40017 0.0
H82 H 0.42608 0.09634 0.39872 0.0
H83 H 0.4196 0.08782 0.43756 0.0
H84 H 0.52522 0.13965 0.46623 0.0
H85 H 0.54906 0.19337 0.45296 0.0
H86 H 0.45717 0.18624 0.46042 0.0
H87 H 0.43343 0.13218 0.4731 0.0
H88 H 0.5187 0.12487 0.52178 0.0
H89 H 0.53678 0.16622 0.54891 0.0
H90 H 0.44738 0.16419 0.54194 0.0
H91 H 0.42949 0.12257 0.51504 0.0
H92 H 0.49132 0.05482 0.53101 0.0
H93 H 0.50252 0.06274 0.56942 0.0
H94 H 0.42162 0.07469 0.57805 0.0
H95 H 0.40951 0.06514 0.53957 0.0
H96 H 0.46379 0.00547 0.51243 0.0
H97 H 0.43379 0.95129 0.52572 0.0
H98 H 0.34463 0.94323 0.50649 0.0
H99 H 0.37469 0.99757 0.49376 0.0
O100 O 0.4946 0.09382 0.36233 0.0
O101 O 0.45294 0.10055 0.36251 0.0
O102 O 0.52998 0.20359 0.57327 0.0
O103 O 0.48474 0.20397 0.56997 0.0
C104 C 0.44282 0.04424 0.4723 0.0
C105 C 0.45511 0.07501 0.46446 0.0
C106 C 0.46362 0.09987 0.4789 0.0
C107 C 0.46115 0.09429 0.50118 0.0
C108 C 0.4489 0.06355 0.50907 0.0
C109 C 0.43885 0.03835 0.49459 0.0
C110 C 0.43704 0.01903 0.45703 0.0
C111 C 0.45921 0.00921 0.45602 0.0
C112 C 0.45938 0.99199 0.4384 0.0
C113 C 0.4374 0.98441 0.42151 0.0
C114 C 0.41358 0.99215 0.42346 0.0
C115 C 0.41334 0.00924 0.44114 0.0
C116 C 0.45993 0.08141 0.44105 0.0
C117 C 0.48485 0.08072 0.43027 0.0
C118 C 0.4885 0.08531 0.40809 0.0
C119 C 0.4674 0.09092 0.39633 0.0
C120 C 0.44272 0.09205 0.40729 0.0
C121 C 0.43903 0.08731 0.42946 0.0
C122 C 0.47773 0.13225 0.47073 0.0
C123 C 0.5103 0.14975 0.46491 0.0
C124 C 0.52386 0.18043 0.45745 0.0
C125 C 0.50505 0.19415 0.45573 0.0
C126 C 0.47223 0.17627 0.46134 0.0
C127 C 0.45869 0.14554 0.46876 0.0
C128 C 0.47291 0.12094 0.51641 0.0
C129 C 0.50321 0.1336 0.52603 0.0
C130 C 0.51341 0.15713 0.54155 0.0
C131 C 0.4935 0.1685 0.54761 0.0
C132 C 0.46332 0.156 0.53764 0.0
C133 C 0.4531 0.13237 0.52219 0.0
C134 C 0.4493 0.0589 0.53253 0.0
C135 C 0.4748 0.05719 0.54134 0.0
C136 C 0.48135 0.06201 0.56327 0.0
C137 C 0.46295 0.06939 0.5766 0.0
C138 C 0.43605 0.06893 0.56805 0.0
C139 C 0.42904 0.06335 0.54616 0.0
C140 C 0.42134 0.0056 0.50251 0.0
C141 C 0.43777 0.99218 0.51146 0.0
C142 C 0.42064 0.96126 0.51896 0.0
C143 C 0.38689 0.94316 0.51721 0.0
C144 C 0.37062 0.9566 0.50796 0.0
C145 C 0.38771 0.98759 0.50075 0.0
C146 C 0.47111 0.09542 0.37272 0.0
C147 C 0.50396 0.19308 0.56437 0.0
H148 H 0.50657 0.50011 0.78861 0.0
H149 H 0.5563 0.42163 0.55039 0.0
H150 H 0.49973 0.57441 0.67413 0.0
H151 H 0.49302 0.59304 0.70893 0.0
H152 H 0.41059 0.50104 0.72219 0.0
H153 H 0.41719 0.48271 0.68717 0.0
H154 H 0.5261 0.53729 0.69831 0.0
H155 H 0.52639 0.53012 0.73714 0.0
H156 H 0.44522 0.43519 0.73064 0.0
H157 H 0.4449 0.44289 0.69186 0.0
H158 H 0.55759 0.50277 0.6673 0.0
H159 H 0.57636 0.46911 0.68107 0.0
H160 H 0.48148 0.38758 0.67067 0.0
H161 H 0.46299 0.42147 0.6573 0.0
H162 H 0.55904 0.52929 0.61537 0.0
H163 H 0.58537 0.51488 0.58816 0.0
H164 H 0.50248 0.42029 0.58739 0.0
H165 H 0.47621 0.43523 0.61432 0.0
H166 H 0.52795 0.56779 0.60854 0.0
H167 H 0.54722 0.57868 0.5716 0.0
H168 H 0.47516 0.48337 0.55417 0.0
H169 H 0.45456 0.47369 0.59077 0.0
H170 H 0.49237 0.58033 0.62674 0.0
H171 H 0.45953 0.60167 0.61492 0.0
H172 H 0.37326 0.51147 0.62592 0.0
H173 H 0.40617 0.49018 0.63716 0.0
O174 O 0.5065 0.50217 0.77318 0.0
O175 O 0.46605 0.45291 0.76888 0.0
O176 O 0.58813 0.47711 0.56178 0.0
O177 O 0.54659 0.42788 0.56129 0.0
C178 C 0.47071 0.51367 0.662 0.0
C179 C 0.48406 0.496 0.66903 0.0
C180 C 0.49711 0.4846 0.65403 0.0
C181 C 0.49912 0.49277 0.63224 0.0
C182 C 0.48596 0.51065 0.62517 0.0
C183 C 0.47072 0.52017 0.63998 0.0
C184 C 0.45916 0.52716 0.6783 0.0
C185 C 0.47925 0.55874 0.68407 0.0
C186 C 0.47552 0.56927 0.70401 0.0
C187 C 0.45173 0.54823 0.71838 0.0
C188 C 0.42943 0.51755 0.7115 0.0
C189 C 0.43294 0.50716 0.69146 0.0
C190 C 0.48558 0.49057 0.69232 0.0
C191 C 0.50857 0.5149 0.70531 0.0
C192 C 0.50863 0.51075 0.72748 0.0
C193 C 0.48582 0.48208 0.737 0.0
C194 C 0.46315 0.45754 0.72382 0.0
C195 C 0.46302 0.4618 0.70167 0.0
C196 C 0.50904 0.46441 0.66132 0.0
C197 C 0.54103 0.47761 0.66794 0.0
C198 C 0.55165 0.45838 0.67573 0.0
C199 C 0.53032 0.42571 0.67705 0.0
C200 C 0.49833 0.41268 0.67017 0.0
C201 C 0.4878 0.4319 0.66237 0.0
C202 C 0.5158 0.48327 0.61682 0.0
C203 C 0.54671 0.50544 0.60937 0.0
C204 C 0.56166 0.49715 0.59381 0.0
C205 C 0.54601 0.46641 0.58559 0.0
C206 C 0.5152 0.44414 0.59338 0.0
C207 C 0.50021 0.45254 0.60885 0.0
C208 C 0.48973 0.52001 0.60231 0.0
C209 C 0.51507 0.54991 0.59645 0.0
C210 C 0.52654 0.55583 0.57539 0.0
C211 C 0.51341 0.53165 0.55999 0.0
C212 C 0.48587 0.50267 0.56547 0.0
C213 C 0.47395 0.49702 0.58645 0.0
C214 C 0.45164 0.53358 0.63243 0.0
C215 C 0.46645 0.56507 0.62616 0.0
C216 C 0.44769 0.57722 0.61953 0.0
C217 C 0.41389 0.55817 0.61951 0.0
C218 C 0.39924 0.5267 0.62591 0.0
C219 C 0.41797 0.51451 0.63225 0.0
C220 C 0.48546 0.47803 0.76062 0.0
C221 C 0.56162 0.45758 0.56886 0.0
H222 H 0.04796 0.47683 0.96032 0.0
H223 H 0.21737 0.52056 0.74221 0.0
H224 H 0.99494 0.4894 0.84638 0.0
H225 H 0.96019 0.48061 0.8771 0.0
H226 H 0.92799 0.38202 0.87603 0.0
H227 H 0.96339 0.39131 0.84519 0.0
H228 H 0.05932 0.50548 0.86856 0.0
H229 H 0.05878 0.50297 0.90782 0.0
H230 H 0.0198 0.40303 0.90428 0.0
H231 H 0.02073 0.40599 0.86503 0.0
H232 H 0.11686 0.52779 0.83579 0.0
H233 H 0.16728 0.54382 0.85444 0.0
H234 H 0.13588 0.44643 0.86475 0.0
H235 H 0.08564 0.43064 0.8456 0.0
H236 H 0.09813 0.53002 0.78704 0.0
H237 H 0.14681 0.55332 0.7649 0.0
H238 H 0.15309 0.47116 0.775 0.0
H239 H 0.10405 0.44791 0.79682 0.0
H240 H 0.02313 0.50257 0.77574 0.0
H241 H 0.03893 0.52388 0.73937 0.0
H242 H 0.07047 0.45931 0.72637 0.0
H243 H 0.05347 0.43719 0.76246 0.0
H244 H 0.96497 0.46919 0.80717 0.0
H245 H 0.91106 0.44151 0.79128 0.0
H246 H 0.92893 0.37163 0.76552 0.0
H247 H 0.98204 0.39865 0.78226 0.0
O248 O 0.04839 0.47738 0.94479 0.0
O249 O 0.0282 0.42604 0.94209 0.0
O250 O 0.19357 0.55347 0.74607 0.0
O251 O 0.19829 0.51205 0.7511 0.0
C252 C 0.00968 0.44873 0.82993 0.0
C253 C 0.03893 0.45736 0.84027 0.0
C254 C 0.06731 0.46864 0.82819 0.0
C255 C 0.06688 0.47244 0.80581 0.0
C256 C 0.03736 0.46281 0.79526 0.0
C257 C 0.00857 0.45018 0.80732 0.0
C258 C 0.98144 0.44096 0.84348 0.0
C259 C 0.97935 0.46568 0.8522 0.0
C260 C 0.95955 0.46059 0.86985 0.0
C261 C 0.94156 0.43065 0.87917 0.0
C262 C 0.9419 0.40543 0.86937 0.0
C263 C 0.96168 0.41055 0.85158 0.0
C264 C 0.04004 0.45592 0.86404 0.0
C265 C 0.05091 0.48314 0.87633 0.0
C266 C 0.05047 0.4816 0.89873 0.0
C267 C 0.03915 0.45278 0.9092 0.0
C268 C 0.02862 0.42559 0.89674 0.0
C269 C 0.02915 0.4272 0.87434 0.0
C270 C 0.09786 0.47813 0.8393 0.0
C271 C 0.12098 0.50998 0.84203 0.0
C272 C 0.14954 0.51903 0.85286 0.0
C273 C 0.15537 0.49633 0.86119 0.0
C274 C 0.13208 0.46438 0.8584 0.0
C275 C 0.10345 0.45535 0.84756 0.0
C276 C 0.09754 0.48725 0.79346 0.0
C277 C 0.11011 0.51714 0.78448 0.0
C278 C 0.13791 0.53039 0.77185 0.0
C279 C 0.15381 0.51406 0.76814 0.0
C280 C 0.14143 0.48434 0.77751 0.0
C281 C 0.11351 0.47105 0.79006 0.0
C282 C 0.03758 0.46863 0.77185 0.0
C283 C 0.03206 0.49203 0.76473 0.0
C284 C 0.04124 0.5043 0.74402 0.0
C285 C 0.05634 0.49351 0.73031 0.0
C286 C 0.05912 0.46815 0.73678 0.0
C287 C 0.04933 0.45547 0.7573 0.0
C288 C 0.97715 0.43561 0.79618 0.0
C289 C 0.95713 0.44786 0.79815 0.0
C290 C 0.92651 0.4322 0.78885 0.0
C291 C 0.91558 0.40418 0.7773 0.0
C292 C 0.93634 0.39279 0.77466 0.0
C293 C 0.96678 0.40831 0.78406 0.0
C294 C 0.03822 0.45113 0.933 0.0
C295 C 0.18307 0.52782 0.75445 0.0
H296 H 0.49827 -0.00138 0.84343 0.0
H297 H 0.4942 0.84847 0.05633 0.0
H298 H 0.51352 0.06611 0.95323 0.0
H299 H 0.5272 0.10238 0.92313 0.0
H300 H 0.62658 0.12819 0.92765 0.0
H301 H 0.61274 0.09211 0.95799 0.0
H302 H 0.48599 0.994 0.93701 0.0
H303 H 0.48129 0.9913 0.89783 0.0
H304 H 0.58483 0.03714 0.89245 0.0
H305 H 0.58909 0.0392 0.93162 0.0
H306 H 0.47384 0.93747 0.96883 0.0
H307 H 0.46431 0.88858 0.95252 0.0
H308 H 0.56544 0.93429 0.93657 0.0
H309 H 0.57476 0.98267 0.9532 0.0
H310 H 0.47794 0.96494 0.02008 0.0
H311 H 0.45788 0.91771 0.04197 0.0
H312 H 0.53934 0.91114 0.02222 0.0
H313 H 0.55934 0.95861 0.00064 0.0
H314 H 0.51421 0.04327 0.03262 0.0
H315 H 0.51152 0.04076 0.07178 0.0
H316 H 0.57392 0.00319 0.07177 0.0
H317 H 0.57855 0.00844 0.03294 0.0
H318 H 0.53899 0.09519 0.99754 0.0
H319 H 0.57104 0.14736 0.014 0.0
H320 H 0.64559 0.12807 0.02911 0.0
H321 H 0.61351 0.07627 0.01281 0.0
O322 O 0.50065 -0.00032 0.85888 0.0
O323 O 0.55402 0.02382 0.857 0.0
O324 O 0.46019 0.87166 0.05751 0.0
O325 O 0.50155 0.86715 0.04778 0.0
C326 C 0.55227 0.04859 0.97113 0.0
C327 C 0.54055 0.0194 0.96087 0.0
C328 C 0.5317 0.99248 0.97314 0.0
C329 C 0.53223 0.9941 0.99576 0.0
C330 C 0.54454 0.02346 0.00607 0.0
C331 C 0.55563 0.05088 0.99365 0.0
C332 C 0.56216 0.07658 0.95771 0.0
C333 C 0.53846 0.08059 0.94829 0.0
C334 C 0.54628 0.10121 0.93109 0.0
C335 C 0.57786 0.11774 0.92299 0.0
C336 C 0.60203 0.1155 0.93356 0.0
C337 C 0.59426 0.09519 0.95096 0.0
C338 C 0.53787 0.01703 0.93709 0.0
C339 C 0.50759 0.00331 0.92731 0.0
C340 C 0.505 0.00187 0.90495 0.0
C341 C 0.53271 0.01414 0.892 0.0
C342 C 0.56303 0.02757 0.90193 0.0
C343 C 0.56554 0.02886 0.92429 0.0
C344 C 0.52495 0.96341 0.96218 0.0
C345 C 0.49379 0.93685 0.96166 0.0
C346 C 0.48841 0.90913 0.95225 0.0
C347 C 0.5142 0.90771 0.94334 0.0
C348 C 0.54523 0.93465 0.94351 0.0
C349 C 0.55054 0.96228 0.95285 0.0
C350 C 0.51995 0.96506 0.00867 0.0
C351 C 0.49137 0.95322 0.02049 0.0
C352 C 0.47998 0.92626 0.03297 0.0
C353 C 0.49698 0.9106 0.03381 0.0
C354 C 0.52562 0.92255 0.0219 0.0
C355 C 0.53703 0.94958 0.00948 0.0
C356 C 0.54601 0.02539 0.0299 0.0
C357 C 0.5279 0.03524 0.04118 0.0
C358 C 0.52612 0.03343 0.06357 0.0
C359 C 0.54197 0.02118 0.07507 0.0
C360 C 0.56156 0.01302 0.06367 0.0
C361 C 0.56388 0.01552 0.04135 0.0
C362 C 0.57399 0.08206 0.00402 0.0
C363 C 0.56222 0.10232 0.00447 0.0
C364 C 0.58052 0.13202 0.01384 0.0
C365 C 0.61074 0.14171 0.02294 0.0
C366 C 0.62216 0.12109 0.02261 0.0
C367 C 0.60398 0.09158 0.0132 0.0
C368 C 0.52991 0.01289 0.86825 0.0
C369 C 0.48503 0.88199 0.04709 0.0
H370 H 0.62599 0.6281 0.00999 0.0
H371 H 0.764 0.59712 0.23757 0.0
H372 H 0.58105 0.63556 0.13555 0.0
H373 H 0.54918 0.63461 0.10529 0.0
H374 H 0.63286 0.7175 0.07945 0.0
H375 H 0.66487 0.71746 0.10965 0.0
H376 H 0.612 0.61383 0.10313 0.0
H377 H 0.60902 0.61159 0.06394 0.0
H378 H 0.70805 0.68851 0.06045 0.0
H379 H 0.71047 0.69088 0.09975 0.0
H380 H 0.65141 0.59003 0.11858 0.0
H381 H 0.67895 0.56502 0.10344 0.0
H382 H 0.77011 0.6427 0.12548 0.0
H383 H 0.74245 0.66798 0.14015 0.0
H384 H 0.64952 0.58365 0.17166 0.0
H385 H 0.67057 0.55908 0.19495 0.0
H386 H 0.75454 0.65034 0.20813 0.0
H387 H 0.73321 0.67451 0.18473 0.0
H388 H 0.60752 0.61069 0.19216 0.0
H389 H 0.60284 0.59425 0.22945 0.0
H390 H 0.69395 0.67862 0.24359 0.0
H391 H 0.69844 0.69476 0.20593 0.0
H392 H 0.58753 0.64953 0.18067 0.0
H393 H 0.56708 0.68095 0.19626 0.0
H394 H 0.65561 0.76574 0.17839 0.0
H395 H 0.67553 0.7342 0.1627 0.0
O396 O 0.628 0.6289 0.02545 0.0
O397 O 0.67964 0.66696 0.02443 0.0
O398 O 0.71176 0.55977 0.22067 0.0
O399 O 0.7553 0.60615 0.22807 0.0
C400 C 0.64571 0.66914 0.13795 0.0
C401 C 0.662 0.65586 0.12798 0.0
C402 C 0.6781 0.64497 0.14063 0.0
C403 C 0.67628 0.64561 0.1632 0.0
C404 C 0.65958 0.65842 0.17312 0.0
C405 C 0.6455 0.6714 0.16049 0.0
C406 C 0.62528 0.67637 0.12464 0.0
C407 C 0.59214 0.65432 0.12386 0.0
C408 C 0.57397 0.65377 0.10642 0.0
C409 C 0.58864 0.67553 0.08961 0.0
C410 C 0.62105 0.69987 0.09181 0.0
C411 C 0.63928 0.70024 0.10922 0.0
C412 C 0.66137 0.65267 0.10423 0.0
C413 C 0.63305 0.63011 0.09386 0.0
C414 C 0.63141 0.62889 0.07148 0.0
C415 C 0.65824 0.64998 0.05906 0.0
C416 C 0.68692 0.67199 0.06955 0.0
C417 C 0.68844 0.67331 0.09197 0.0
C418 C 0.695 0.63083 0.13036 0.0
C419 C 0.67739 0.60192 0.11975 0.0
C420 C 0.69311 0.58773 0.11111 0.0
C421 C 0.72661 0.60204 0.11328 0.0
C422 C 0.74425 0.6312 0.12368 0.0
C423 C 0.72854 0.6456 0.13204 0.0
C424 C 0.68989 0.63078 0.17656 0.0
C425 C 0.67255 0.59821 0.1795 0.0
C426 C 0.68459 0.58429 0.19284 0.0
C427 C 0.71422 0.60277 0.20345 0.0
C428 C 0.73164 0.63543 0.20024 0.0
C429 C 0.71957 0.6493 0.18688 0.0
C430 C 0.65325 0.6539 0.19644 0.0
C431 C 0.62583 0.6262 0.20351 0.0
C432 C 0.62325 0.61684 0.22484 0.0
C433 C 0.6482 0.63499 0.23944 0.0
C434 C 0.67455 0.66397 0.23263 0.0
C435 C 0.67702 0.6734 0.21124 0.0
C436 C 0.63299 0.68968 0.17064 0.0
C437 C 0.60253 0.67488 0.18034 0.0
C438 C 0.59099 0.69285 0.18928 0.0
C439 C 0.60974 0.72584 0.18851 0.0
C440 C 0.64044 0.74042 0.17899 0.0
C441 C 0.6519 0.72248 0.17012 0.0
C442 C 0.65609 0.64919 0.03528 0.0
C443 C 0.72691 0.58816 0.21788 0.0
In444 In 0.64761 0.48328 0.4036 0.0
O445 O 0.70162 0.50788 0.41046 0.0
O446 O 0.6811 0.47001 0.38817 0.0
C447 C 0.62599 0.50552 0.43439 0.0
C448 C 0.64642 0.51557 0.36957 0.0
C449 C 0.61197 0.42187 0.41338 0.0
O450 O 0.65198 0.50581 0.43634 0.0
O451 O 0.6113 0.49434 0.41692 0.0
O452 O 0.61057 0.43205 0.39508 0.0
O453 O 0.63104 0.44262 0.42641 0.0
C454 C 0.70607 0.49086 0.39765 0.0
O455 O 0.62578 0.48669 0.37199 0.0
O456 O 0.66743 0.52767 0.38412 0.0
In457 In 0.22516 0.65408 0.57098 0.0
O458 O 0.25052 0.62755 0.56277 0.0
O459 O 0.26426 0.65484 0.5913 0.0
C460 C 0.18493 0.63735 0.5373 0.0
C461 C 0.18394 0.62343 0.60353 0.0
C462 C 0.26148 0.71626 0.5627 0.0
O463 O 0.20761 0.63206 0.53799 0.0
O464 O 0.18233 0.65075 0.55371 0.0
O465 O 0.24211 0.70558 0.57834 0.0
O466 O 0.26263 0.69574 0.55167 0.0
C467 C 0.26819 0.63684 0.57924 0.0
O468 O 0.20515 0.65233 0.60455 0.0
O469 O 0.1833 0.61029 0.58607 0.0
In470 In 0.6168 0.23633 0.73587 0.0
O471 O 0.66812 0.24814 0.72937 0.0
O472 O 0.66181 0.28204 0.74558 0.0
C473 C 0.58563 0.19075 0.70615 0.0
C474 C 0.6059 0.20863 0.77457 0.0
C475 C 0.59758 0.27613 0.72503 0.0
O476 O 0.61408 0.21346 0.70366 0.0
O477 O 0.57316 0.1903 0.72401 0.0
O478 O 0.59312 0.26447 0.7436 0.0
O479 O 0.61148 0.26757 0.71212 0.0
C480 C 0.68121 0.27483 0.73816 0.0
O481 O 0.58927 0.2194 0.76757 0.0
O482 O 0.62725 0.21107 0.76182 0.0
In483 In 0.44935 0.63149 0.90896 0.0
O484 O 0.39996 0.58695 0.91449 0.0
O485 O 0.40295 0.62417 0.89598 0.0
C486 C 0.47284 0.62884 0.94762 0.0
C487 C 0.46527 0.61348 0.87258 0.0
C488 C 0.46592 0.69182 0.90925 0.0
O489 O 0.44759 0.62953 0.94532 0.0
O490 O 0.48579 0.62796 0.93029 0.0
O491 O 0.48622 0.68403 0.90507 0.0
O492 O 0.43783 0.6693 0.91311 0.0
C493 C 0.38527 0.59724 0.90392 0.0
O494 O 0.47509 0.64177 0.87674 0.0
O495 O 0.44897 0.59446 0.88733 0.0
In496 In 0.82822 0.42146 0.06638 0.0
O497 O 0.83717 0.41024 0.10001 0.0
O498 O 0.87416 0.45246 0.08581 0.0
C499 C 0.77896 0.36164 0.06346 0.0
C500 C 0.80891 0.46217 0.07363 0.0
C501 C 0.85444 0.42594 0.02731 0.0
O502 O 0.80747 0.36868 0.06714 0.0
O503 O 0.7754 0.38472 0.06147 0.0
O504 O 0.8293 0.42679 0.03021 0.0
O505 O 0.86717 0.42362 0.04431 0.0
C506 C 0.86421 0.43512 0.10223 0.0
O507 O 0.8297 0.46711 0.05953 0.0
O508 O 0.79778 0.43673 0.0837 0.0
In509 In 0.46897 0.86859 0.24719 0.0
O510 O 0.50774 0.85682 0.25465 0.0
O511 O 0.48501 0.84441 0.22415 0.0
C512 C 0.46903 0.89985 0.28249 0.0
C513 C 0.48423 0.91175 0.21632 0.0
C514 C 0.41112 0.81556 0.25209 0.0
O515 O 0.48984 0.89232 0.27962 0.0
O516 O 0.44918 0.89243 0.26735 0.0
O517 O 0.41816 0.83301 0.23587 0.0
O518 O 0.4334 0.82462 0.26569 0.0
C519 C 0.50525 0.84425 0.23657 0.0
O520 O 0.45681 0.88714 0.21799 0.0
O521 O 0.5042 0.91507 0.23058 0.0
H522 H 0.21442 0.65075 0.25183 0.0
H523 H 0.22197 0.7131 0.30261 0.0
H524 H 0.27212 0.68559 0.24397 0.0
H525 H 0.27943 0.74749 0.29506 0.0
H526 H 0.38645 0.78366 0.28943 0.0
H527 H 0.33059 0.74264 0.29663 0.0
H528 H 0.30648 0.74485 0.2303 0.0
H529 H 0.36231 0.78625 0.22307 0.0
C530 C 0.22854 0.67178 0.26134 0.0
C531 C 0.214 0.67952 0.2777 0.0
C532 C 0.26134 0.69163 0.25685 0.0
C533 C 0.28004 0.71902 0.26901 0.0
C534 C 0.26552 0.72633 0.28562 0.0
C535 C 0.23273 0.70687 0.28982 0.0
C536 C 0.36934 0.77507 0.27631 0.0
C537 C 0.37856 0.78824 0.25573 0.0
C538 C 0.33744 0.75172 0.28046 0.0
C539 C 0.31439 0.74082 0.26402 0.0
C540 C 0.32393 0.75281 0.24318 0.0
C541 C 0.35575 0.77654 0.2391 0.0
H542 H 0.47994 0.21922 0.42864 0.0
H543 H 0.56373 0.24411 0.46709 0.0
H544 H 0.50402 0.27413 0.41823 0.0
H545 H 0.58825 0.29847 0.45601 0.0
H546 H 0.6079 0.39681 0.45269 0.0
H547 H 0.58072 0.34173 0.46245 0.0
H548 H 0.54835 0.31563 0.39699 0.0
H549 H 0.57512 0.37118 0.38728 0.0
C550 C 0.50349 0.23638 0.43484 0.0
C551 C 0.51989 0.22729 0.44873 0.0
C552 C 0.51742 0.26777 0.42869 0.0
C553 C 0.54798 0.29071 0.43636 0.0
C554 C 0.56446 0.28149 0.45005 0.0
C555 C 0.55057 0.25022 0.45619 0.0
C556 C 0.59487 0.37935 0.44037 0.0
C557 C 0.5938 0.3883 0.41918 0.0
C558 C 0.57944 0.34775 0.44595 0.0
C559 C 0.5627 0.32426 0.43045 0.0
C560 C 0.5609 0.33317 0.40933 0.0
C561 C 0.57631 0.36494 0.40375 0.0
H562 H 0.36264 0.55263 0.64121 0.0
H563 H 0.41971 0.59267 0.5839 0.0
H564 H 0.32844 0.57275 0.63088 0.0
H565 H 0.38532 0.61286 0.57351 0.0
H566 H 0.28861 0.60637 0.55329 0.0
H567 H 0.32541 0.58866 0.56268 0.0
H568 H 0.33574 0.62688 0.62641 0.0
H569 H 0.29934 0.64479 0.61705 0.0
C570 C 0.36779 0.56571 0.62638 0.0
C571 C 0.39375 0.57108 0.61333 0.0
C572 C 0.34838 0.57738 0.62055 0.0
C573 C 0.35428 0.59435 0.60141 0.0
C574 C 0.38018 0.59968 0.58829 0.0
C575 C 0.39993 0.58837 0.59429 0.0
C576 C 0.29889 0.61109 0.56926 0.0
C577 C 0.29107 0.62687 0.58446 0.0
C578 C 0.32003 0.60111 0.57458 0.0
C579 C 0.33329 0.60634 0.59528 0.0
C580 C 0.32564 0.62233 0.61039 0.0
C581 C 0.30492 0.63268 0.605 0.0
H582 H 0.881 0.42646 0.75779 0.0
H583 H 0.87433 0.34072 0.77818 0.0
H584 H 0.82508 0.39626 0.74567 0.0
H585 H 0.81881 0.31071 0.76594 0.0
H586 H 0.72766 0.26261 0.72651 0.0
H587 H 0.78547 0.29507 0.73337 0.0
H588 H 0.77168 0.3655 0.76283 0.0
H589 H 0.71408 0.33331 0.75572 0.0
C590 C 0.86764 0.40122 0.75968 0.0
C591 C 0.88214 0.38601 0.76893 0.0
C592 C 0.83567 0.38394 0.7527 0.0
C593 C 0.8176 0.35111 0.7548 0.0
C594 C 0.83227 0.3359 0.76373 0.0
C595 C 0.86413 0.35314 0.77075 0.0
C596 C 0.73707 0.28518 0.73424 0.0
C597 C 0.71638 0.29536 0.7407 0.0
C598 C 0.77011 0.30368 0.73825 0.0
C599 C 0.78308 0.33276 0.74874 0.0
C600 C 0.76248 0.34337 0.75454 0.0
C601 C 0.72945 0.32483 0.75058 0.0
H602 H 0.55084 0.88223 0.95076 0.0
H603 H 0.46603 0.86577 0.91695 0.0
H604 H 0.54061 0.83136 0.93903 0.0
H605 H 0.45594 0.81488 0.90493 0.0
H606 H 0.42509 0.71205 0.91744 0.0
H607 H 0.43832 0.76559 0.9226 0.0
H608 H 0.53828 0.79948 0.90865 0.0
H609 H 0.52501 0.74538 0.90397 0.0
C610 C 0.53035 0.86795 0.94045 0.0
C611 C 0.5091 0.87782 0.93485 0.0
C612 C 0.52456 0.83886 0.93367 0.0
C613 C 0.49743 0.81906 0.9211 0.0
C614 C 0.47679 0.82943 0.91488 0.0
C615 C 0.48251 0.85849 0.92176 0.0
C616 C 0.44987 0.73091 0.91529 0.0
C617 C 0.4741 0.72458 0.91047 0.0
C618 C 0.45741 0.76165 0.91806 0.0
C619 C 0.48934 0.78679 0.91603 0.0
C620 C 0.51349 0.78053 0.91055 0.0
C621 C 0.50592 0.74964 0.90778 0.0
H622 H 0.76783 0.59194 0.13602 0.0
H623 H 0.72098 0.57433 0.07438 0.0
H624 H 0.79036 0.56017 0.1255 0.0
H625 H 0.74366 0.54252 0.06383 0.0
H626 H 0.81784 0.51154 0.04926 0.0
H627 H 0.80051 0.54842 0.05789 0.0
H628 H 0.76054 0.50018 0.11782 0.0
H629 H 0.77729 0.46323 0.10916 0.0
C630 C 0.76286 0.58172 0.12009 0.0
C631 C 0.74267 0.58546 0.106 0.0
C632 C 0.77554 0.56343 0.11415 0.0
C633 C 0.76858 0.54891 0.09392 0.0
C634 C 0.74947 0.55367 0.07947 0.0
C635 C 0.73639 0.57162 0.08554 0.0
C636 C 0.80536 0.50891 0.06426 0.0
C637 C 0.79883 0.48458 0.07854 0.0
C638 C 0.79543 0.52989 0.06914 0.0
C639 C 0.77943 0.52714 0.08855 0.0
C640 C 0.77316 0.50295 0.10286 0.0
C641 C 0.78256 0.48174 0.09783 0.0
H642 H 0.39212 0.91959 0.55554 0.0
H643 H 0.34051 0.89225 0.49543 0.0
H644 H 0.36178 0.86477 0.56746 0.0
H645 H 0.31032 0.83766 0.50729 0.0
H646 H 0.29486 0.74174 0.52584 0.0
H647 H 0.3253 0.79686 0.51552 0.0
H648 H 0.30217 0.82216 0.57626 0.0
H649 H 0.27123 0.76663 0.58662 0.0
C650 C 0.37436 0.90184 0.54489 0.0
C651 C 0.36865 0.9101 0.52456 0.0
C652 C 0.35687 0.8706 0.55176 0.0
C653 C 0.33377 0.84703 0.53827 0.0
C654 C 0.32814 0.85534 0.51795 0.0
C655 C 0.34525 0.88656 0.51122 0.0
C656 C 0.2963 0.75903 0.53705 0.0
C657 C 0.28061 0.74989 0.55703 0.0
C658 C 0.3136 0.79055 0.53108 0.0
C659 C 0.31596 0.81372 0.54505 0.0
C660 C 0.30082 0.80473 0.56524 0.0
C661 C 0.28305 0.77302 0.57111 0.0
H662 H 0.58688 0.42869 0.6684 0.0
H663 H 0.49853 0.37631 0.70464 0.0
H664 H 0.60406 0.39369 0.68123 0.0
H665 H 0.51516 0.34059 0.71683 0.0
H666 H 0.56961 0.30034 0.75017 0.0
H667 H 0.55456 0.33804 0.73962 0.0
H668 H 0.58834 0.33941 0.67517 0.0
H669 H 0.60389 0.30237 0.68579 0.0
C670 C 0.57123 0.40982 0.67921 0.0
C671 C 0.5413 0.40515 0.68544 0.0
C672 C 0.5809 0.38957 0.68637 0.0
C673 C 0.56086 0.36425 0.69993 0.0
C674 C 0.53123 0.36 0.70652 0.0
C675 C 0.52155 0.38023 0.69934 0.0
C676 C 0.5738 0.30875 0.73377 0.0
C677 C 0.58792 0.29847 0.7188 0.0
C678 C 0.5651 0.33022 0.72771 0.0
C679 C 0.57039 0.34179 0.70659 0.0
C680 C 0.58445 0.33137 0.69166 0.0
C681 C 0.59314 0.30997 0.6977 0.0
H682 H 0.19411 0.47223 0.8563 0.0
H683 H 0.18616 0.54295 0.89079 0.0
H684 H 0.24843 0.49373 0.87055 0.0
H685 H 0.24046 0.56453 0.90482 0.0
H686 H 0.34969 0.62068 0.88988 0.0
H687 H 0.29209 0.59275 0.88349 0.0
H688 H 0.28337 0.5065 0.90475 0.0
H689 H 0.34173 0.53479 0.91133 0.0
C690 C 0.20367 0.49188 0.86731 0.0
C691 C 0.18618 0.50629 0.87216 0.0
C692 C 0.2347 0.50412 0.87548 0.0
C693 C 0.24866 0.53096 0.88855 0.0
C694 C 0.23036 0.54408 0.89449 0.0
C695 C 0.1994 0.53184 0.8864 0.0
C696 C 0.33553 0.5958 0.89335 0.0
C697 C 0.35012 0.57984 0.90105 0.0
C698 C 0.3025 0.57987 0.88986 0.0
C699 C 0.28331 0.54755 0.89381 0.0
C700 C 0.29775 0.53146 0.90162 0.0
C701 C 0.33098 0.54759 0.90541 0.0
H702 H 0.64627 0.15891 0.05983 0.0
H703 H 0.62189 0.19679 0.00596 0.0
H704 H 0.68487 0.212 0.0722 0.0
H705 H 0.66036 0.2498 0.01834 0.0
H706 H 0.71644 0.34161 0.05434 0.0
H707 H 0.67264 0.28801 0.04722 0.0
H708 H 0.73716 0.25466 0.05873 0.0
H709 H 0.78082 0.3082 0.06615 0.0
C710 C 0.64905 0.17859 0.05071 0.0
C711 C 0.63125 0.17372 0.03184 0.0
C712 C 0.67113 0.20894 0.05778 0.0
C713 C 0.6758 0.23503 0.04615 0.0
C714 C 0.65703 0.23015 0.02778 0.0
C715 C 0.63497 0.19979 0.02069 0.0
C716 C 0.72116 0.32277 0.05554 0.0
C717 C 0.75205 0.32904 0.06068 0.0
C718 C 0.69613 0.29213 0.05138 0.0
C719 C 0.7015 0.26717 0.05234 0.0
C720 C 0.73218 0.27337 0.05811 0.0
C721 C 0.75723 0.30403 0.06223 0.0
H722 H 0.57654 0.71816 0.22591 0.0
H723 H 0.61395 0.77696 0.16964 0.0
H724 H 0.55366 0.74888 0.23845 0.0
H725 H 0.59191 0.80799 0.18241 0.0
H726 H 0.5093 0.8243 0.19688 0.0
H727 H 0.53655 0.79718 0.18632 0.0
H728 H 0.56962 0.80315 0.25143 0.0
H729 H 0.54199 0.83041 0.26213 0.0
C730 C 0.57998 0.73769 0.21629 0.0
C731 C 0.59695 0.74508 0.19676 0.0
C732 C 0.56721 0.75547 0.22358 0.0
C733 C 0.57096 0.78078 0.21137 0.0
C734 C 0.58841 0.78845 0.19206 0.0
C735 C 0.60126 0.77083 0.18485 0.0
C736 C 0.52254 0.82003 0.20895 0.0
C737 C 0.52354 0.82946 0.23033 0.0
C738 C 0.53829 0.80463 0.20287 0.0
C739 C 0.55527 0.79811 0.21804 0.0
C740 C 0.55651 0.80772 0.23944 0.0
C741 C 0.54092 0.82346 0.24552 0.0
H742 H 0.86631 0.50322 0.32906 0.0
H743 H 0.91074 0.55587 0.38685 0.0
H744 H 0.81355 0.48944 0.3427 0.0
H745 H 0.85794 0.5411 0.40106 0.0
H746 H 0.76473 0.54238 0.407 0.0
H747 H 0.81745 0.55262 0.39611 0.0
H748 H 0.77241 0.46017 0.36762 0.0
H749 H 0.71971 0.45074 0.37764 0.0
C750 C 0.86462 0.51129 0.34489 0.0
C751 C 0.8925 0.5307 0.35687 0.0
C752 C 0.83439 0.50332 0.35279 0.0
C753 C 0.83135 0.51423 0.37301 0.0
C754 C 0.85932 0.53281 0.38526 0.0
C755 C 0.88957 0.54114 0.3772 0.0
C756 C 0.7662 0.52421 0.39856 0.0
C757 C 0.73817 0.49588 0.39303 0.0
C758 C 0.79645 0.52996 0.3924 0.0
C759 C 0.79932 0.5073 0.38083 0.0
C760 C 0.77118 0.47847 0.37606 0.0
C761 C 0.74095 0.47293 0.38195 0.0
H762 H 0.11872 0.64514 0.41148 0.0
H763 H 0.03264 0.56883 0.44037 0.0
H764 H 0.1482 0.65262 0.44478 0.0
H765 H 0.06224 0.57679 0.47407 0.0
H766 H 0.12719 0.63391 0.53494 0.0
H767 H 0.09406 0.62414 0.50289 0.0
H768 H 0.16289 0.61491 0.46491 0.0
H769 H 0.19565 0.62399 0.4969 0.0
C770 C 0.10598 0.63036 0.42512 0.0
C771 C 0.07336 0.60656 0.42347 0.0
C772 C 0.12291 0.63447 0.44407 0.0
C773 C 0.10745 0.61518 0.46187 0.0
C774 C 0.07458 0.59198 0.46052 0.0
C775 C 0.05773 0.58743 0.44134 0.0
C776 C 0.13505 0.62952 0.51976 0.0
C777 C 0.16399 0.62977 0.51835 0.0
C778 C 0.11607 0.62383 0.50151 0.0
C779 C 0.1261 0.61896 0.48152 0.0
C780 C 0.15481 0.61882 0.48017 0.0
C781 C 0.17343 0.62388 0.49846 0.0
H782 H 0.47575 0.12552 0.59161 0.0
H783 H 0.47961 0.04415 0.60935 0.0
H784 H 0.50468 0.15215 0.62444 0.0
H785 H 0.50809 0.07078 0.64262 0.0
H786 H 0.52774 0.13519 0.70869 0.0
H787 H 0.49482 0.10211 0.67861 0.0
H788 H 0.56845 0.16463 0.63408 0.0
H789 H 0.60168 0.19717 0.6639 0.0
C790 C 0.48194 0.11301 0.60287 0.0
C791 C 0.47528 0.08273 0.59812 0.0
C792 C 0.49866 0.12831 0.6215 0.0
C793 C 0.5085 0.11339 0.63587 0.0
C794 C 0.50051 0.08255 0.63173 0.0
C795 C 0.48431 0.06742 0.61281 0.0
C796 C 0.53707 0.14152 0.69249 0.0
C797 C 0.56723 0.16874 0.6886 0.0
C798 C 0.51828 0.12264 0.67538 0.0
C799 C 0.52918 0.13114 0.65419 0.0
C800 C 0.55961 0.15782 0.65035 0.0
C801 C 0.57861 0.17629 0.6674 0.0
H802 H 0.45762 0.60159 0.73514 0.0
H803 H 0.45047 0.51486 0.75302 0.0
H804 H 0.46363 0.61697 0.77288 0.0
H805 H 0.45766 0.53051 0.79059 0.0
H806 H 0.43391 0.55382 0.85696 0.0
H807 H 0.431 0.53773 0.81974 0.0
H808 H 0.50044 0.63364 0.80207 0.0
H809 H 0.50227 0.64984 0.83925 0.0
C810 C 0.45735 0.58587 0.74719 0.0
C811 C 0.45317 0.55691 0.74124 0.0
C812 C 0.46113 0.59476 0.76878 0.0
C813 C 0.4613 0.57505 0.78482 0.0
C814 C 0.45712 0.54605 0.77876 0.0
C815 C 0.45294 0.53703 0.75723 0.0
C816 C 0.44896 0.57136 0.84518 0.0
C817 C 0.46818 0.6031 0.85096 0.0
C818 C 0.44733 0.56215 0.82381 0.0
C819 C 0.46516 0.58445 0.80781 0.0
C820 C 0.48576 0.61597 0.81387 0.0
C821 C 0.48713 0.62521 0.83521 0.0
H822 H 0.90662 0.45639 0.89225 0.0
H823 H 0.94095 0.39702 0.9139 0.0
H824 H 0.88603 0.45536 0.92808 0.0
H825 H 0.91889 0.39462 0.94949 0.0
H826 H 0.91002 0.428 0.01637 0.0
H827 H 0.92962 0.42768 0.98027 0.0
H828 H 0.84542 0.42272 0.95324 0.0
H829 H 0.82655 0.4241 0.98916 0.0
C830 C 0.90939 0.44277 0.9046 0.0
C831 C 0.92538 0.42676 0.90019 0.0
C832 C 0.89735 0.44195 0.92513 0.0
C833 C 0.90088 0.42498 0.94175 0.0
C834 C 0.91614 0.40829 0.93717 0.0
C835 C 0.9283 0.40921 0.91665 0.0
C836 C 0.89585 0.42699 0.00268 0.0
C837 C 0.86687 0.42625 0.00558 0.0
C838 C 0.90689 0.42652 0.98199 0.0
C839 C 0.88908 0.42513 0.9638 0.0
C840 C 0.86003 0.4243 0.96682 0.0
C841 C 0.84913 0.42496 0.98744 0.0
H842 H 0.48575 0.0016 0.09714 0.0
H843 H 0.58351 0.02376 0.10614 0.0
H844 H 0.47285 0.98237 0.1336 0.0
H845 H 0.56964 0.0017 0.14203 0.0
H846 H 0.53992 0.9685 0.2099 0.0
H847 H 0.55476 0.00193 0.17811 0.0
H848 H 0.46262 0.93599 0.14956 0.0
H849 H 0.44753 0.90379 0.18146 0.0
C850 C 0.50474 0.00289 0.10692 0.0
C851 C 0.53563 0.01387 0.09841 0.0
C852 C 0.49711 0.99126 0.12782 0.0
C853 C 0.51989 0.98964 0.14065 0.0
C854 C 0.55139 0.00251 0.13268 0.0
C855 C 0.55922 0.01472 0.11189 0.0
C856 C 0.52276 0.96155 0.19691 0.0
C857 C 0.49263 0.93352 0.19811 0.0
C858 C 0.53129 0.98057 0.17864 0.0
C859 C 0.50995 0.97173 0.16117 0.0
C860 C 0.4795 0.94404 0.16278 0.0
C861 C 0.47089 0.92533 0.18105 0.0
H862 H 0.59775 0.60253 0.26739 0.0
H863 H 0.69886 0.6363 0.259 0.0
H864 H 0.59679 0.57451 0.29975 0.0
H865 H 0.69794 0.60868 0.29136 0.0
H866 H 0.69064 0.57655 0.36056 0.0
H867 H 0.69073 0.60787 0.33064 0.0
H868 H 0.60185 0.52829 0.30743 0.0
H869 H 0.60157 0.4969 0.3376 0.0
C870 C 0.61982 0.60423 0.27257 0.0
C871 C 0.64839 0.6217 0.26066 0.0
C872 C 0.61923 0.58811 0.29103 0.0
C873 C 0.64724 0.58926 0.298 0.0
C874 C 0.67606 0.60764 0.28653 0.0
C875 C 0.67662 0.62363 0.26805 0.0
C876 C 0.67107 0.56573 0.3491 0.0
C877 C 0.64614 0.53424 0.35135 0.0
C878 C 0.6712 0.58366 0.33194 0.0
C879 C 0.64632 0.57055 0.31671 0.0
C880 C 0.62116 0.53913 0.31908 0.0
C881 C 0.62111 0.5211 0.33622 0.0
H882 H 0.45027 0.93756 0.41611 0.0
H883 H 0.43466 0.00273 0.38085 0.0
H884 H 0.45944 0.91835 0.38236 0.0
H885 H 0.44389 0.9837 0.34726 0.0
H886 H 0.42584 0.91716 0.29134 0.0
H887 H 0.4182 0.93718 0.32498 0.0
H888 H 0.49832 0.93514 0.35268 0.0
H889 H 0.50558 0.91437 0.31893 0.0
C890 C 0.4488 0.94775 0.40115 0.0
C891 C 0.44135 0.97137 0.40112 0.0
C892 C 0.45421 0.93689 0.38185 0.0
C893 C 0.45237 0.94948 0.36212 0.0
C894 C 0.44496 0.97312 0.36214 0.0
C895 C 0.43951 0.98393 0.38139 0.0
C896 C 0.442 0.92117 0.30455 0.0
C897 C 0.46634 0.91423 0.3025 0.0
C898 C 0.43768 0.93277 0.32382 0.0
C899 C 0.45763 0.93774 0.34153 0.0
C900 C 0.4823 0.93118 0.3394 0.0
C901 C 0.48664 0.91957 0.32005 0.0
H902 H 0.57863 0.56266 0.55394 0.0
H903 H 0.48846 0.50717 0.52014 0.0
H904 H 0.60768 0.56243 0.52244 0.0
H905 H 0.51749 0.50473 0.48914 0.0
H906 H 0.57791 0.5178 0.43113 0.0
H907 H 0.55253 0.53014 0.46007 0.0
H908 H 0.61711 0.52608 0.50565 0.0
H909 H 0.64335 0.51532 0.47653 0.0
C910 C 0.56492 0.55085 0.53968 0.0
C911 C 0.53106 0.53491 0.53967 0.0
C912 C 0.58166 0.5502 0.52169 0.0
C913 C 0.56501 0.53312 0.50331 0.0
C914 C 0.53123 0.51833 0.50292 0.0
C915 C 0.51448 0.51938 0.52084 0.0
C916 C 0.5869 0.51998 0.44733 0.0
C917 C 0.61251 0.51552 0.45163 0.0
C918 C 0.57222 0.52684 0.46394 0.0
C919 C 0.58255 0.52893 0.48528 0.0
C920 C 0.6088 0.52522 0.48942 0.0
C921 C 0.62377 0.51884 0.47275 0.0
H922 H 0.11939 0.5193 0.72065 0.0
H923 H 0.03131 0.5089 0.69655 0.0
H924 H 0.1488 0.55214 0.68979 0.0
H925 H 0.06077 0.54136 0.66526 0.0
H926 H 0.12762 0.56682 0.60228 0.0
H927 H 0.09478 0.53544 0.63277 0.0
H928 H 0.16028 0.60811 0.67631 0.0
H929 H 0.19276 0.63989 0.64583 0.0
C930 C 0.1063 0.52373 0.70855 0.0
C931 C 0.07309 0.51141 0.71078 0.0
C932 C 0.12314 0.54271 0.69106 0.0
C933 C 0.107 0.5493 0.67528 0.0
C934 C 0.07366 0.53651 0.67725 0.0
C935 C 0.05688 0.51803 0.69505 0.0
C936 C 0.13475 0.57624 0.61835 0.0
C937 C 0.16274 0.60574 0.62174 0.0
C938 C 0.11592 0.55835 0.63573 0.0
C939 C 0.12516 0.56937 0.6568 0.0
C940 C 0.1528 0.5991 0.66018 0.0
C941 C 0.17125 0.61728 0.64277 0.0
H942 H 0.6067 0.10966 0.88849 0.0
H943 H 0.56255 0.16061 0.91003 0.0
H944 H 0.61319 0.13156 0.85272 0.0
H945 H 0.57014 0.18374 0.87433 0.0
H946 H 0.55615 0.19164 0.80256 0.0
H947 H 0.55026 0.17073 0.83877 0.0
H948 H 0.64206 0.17737 0.83224 0.0
H949 H 0.64702 0.19677 0.79582 0.0
C950 C 0.59912 0.12623 0.88564 0.0
C951 C 0.58446 0.13377 0.90202 0.0
C952 C 0.60282 0.13881 0.86513 0.0
C953 C 0.59227 0.15954 0.86056 0.0
C954 C 0.57808 0.16748 0.87714 0.0
C955 C 0.57398 0.15451 0.89763 0.0
C956 C 0.57492 0.18843 0.80889 0.0
C957 C 0.60191 0.19559 0.79636 0.0
C958 C 0.57173 0.17673 0.82971 0.0
C959 C 0.5957 0.17235 0.83851 0.0
C960 C 0.62281 0.17983 0.82591 0.0
C961 C 0.62575 0.19109 0.80504 0.0
H962 H 0.52464 0.65428 0.08325 0.0
H963 H 0.61336 0.68393 0.04901 0.0
H964 H 0.49552 0.6397 0.04948 0.0
H965 H 0.58478 0.67194 0.01516 0.0
H966 H 0.52198 0.61999 0.95836 0.0
H967 H 0.54911 0.63049 0.99301 0.0
H968 H 0.48588 0.65929 0.01868 0.0
H969 H 0.45787 0.64704 0.9846 0.0
C970 C 0.53803 0.6581 0.06851 0.0
C971 C 0.57139 0.67041 0.06892 0.0
C972 C 0.52136 0.65003 0.04906 0.0
C973 C 0.53769 0.65454 0.02947 0.0
C974 C 0.57121 0.66757 0.02988 0.0
C975 C 0.58778 0.67516 0.04934 0.0
C976 C 0.5137 0.62813 0.97157 0.0
C977 C 0.48779 0.63259 0.96884 0.0
C978 C 0.52943 0.6345 0.99136 0.0
C979 C 0.51993 0.64603 0.00871 0.0
C980 C 0.49362 0.64997 0.00592 0.0
C981 C 0.47759 0.64306 0.9863 0.0
H982 H 0.95978 0.55168 0.21222 0.0
H983 H 0.92369 0.45829 0.23675 0.0
H984 H 0.93792 0.52991 0.17706 0.0
H985 H 0.9038 0.43666 0.20121 0.0
H986 H 0.84123 0.40645 0.14077 0.0
H987 H 0.86356 0.42654 0.17611 0.0
H988 H 0.94642 0.50635 0.14682 0.0
H989 H 0.92318 0.48675 0.11137 0.0
C990 C 0.94695 0.52646 0.21019 0.0
C991 C 0.94334 0.50675 0.22742 0.0
C992 C 0.93497 0.51399 0.18986 0.0
C993 C 0.91934 0.4815 0.18615 0.0
C994 C 0.91544 0.46176 0.20345 0.0
C995 C 0.92714 0.47421 0.22383 0.0
C996 C 0.86443 0.42809 0.14185 0.0
C997 C 0.88042 0.44508 0.12329 0.0
C998 C 0.87732 0.43961 0.16217 0.0
C999 C 0.90671 0.46827 0.16442 0.0
C1000 C 0.92338 0.48457 0.14575 0.0
C1001 C 0.91028 0.47318 0.1254 0.0
loop_
_geom_bond_atom_site_label_1
_geom_bond_atom_site_label_2
_geom_bond_distance
_geom_bond_site_symmetry_2
_ccdc_geom_bond_type
H0 O26 0.856 . S
H1 O29 0.854 . S
H2 C37 0.930 . S
H3 C38 0.930 . S
H4 C40 0.930 . S
H5 C41 0.930 . S
H6 C43 0.931 . S
H7 C44 0.930 . S
H8 C46 0.930 . S
H9 C47 0.929 . S
H10 C49 0.930 . S
H11 C50 0.931 . S
H12 C52 0.930 . S
H13 C53 0.929 . S
H14 C55 0.931 . S
H15 C56 0.930 . S
H16 C58 0.930 . S
H17 C59 0.932 . S
H18 C61 0.930 . S
H19 C62 0.929 . S
H20 C64 0.931 . S
H21 C65 0.930 . S
H22 C67 0.929 . S
H23 C68 0.931 . S
H24 C70 0.930 . S
H25 C71 0.929 1_455 S
O26 H0 0.856 . S
O26 C72 1.300 . S
O27 C72 1.209 . S
O28 C73 1.199 . S
O29 H1 0.854 . S
O29 C73 1.297 . S
C30 C31 1.404 . S
C30 C35 1.397 . S
C30 C36 1.492 . S
C31 C30 1.404 . S
C31 C32 1.396 . S
C31 C42 1.492 . S
C32 C31 1.396 . S
C32 C33 1.397 . S
C32 C48 1.509 . S
C33 C32 1.397 . S
C33 C34 1.412 . S
C33 C54 1.485 . S
C34 C33 1.412 . S
C34 C35 1.388 . S
C34 C60 1.490 . S
C35 C30 1.397 . S
C35 C34 1.388 . S
C35 C66 1.519 . S
C36 C30 1.492 . S
C36 C37 1.363 . S
C36 C41 1.390 1_455 S
C37 H2 0.930 . S
C37 C36 1.363 . S
C37 C38 1.372 1_455 S
C38 H3 0.930 . S
C38 C37 1.372 1_655 S
C38 C39 1.383 . S
C39 C38 1.383 . S
C39 C40 1.395 . S
C40 H4 0.930 . S
C40 C39 1.395 . S
C40 C41 1.362 . S
C41 H5 0.930 . S
C41 C36 1.390 1_655 S
C41 C40 1.362 . S
C42 C31 1.492 . S
C42 C43 1.377 . S
C42 C47 1.397 . S
C43 H6 0.931 . S
C43 C42 1.377 . S
C43 C44 1.376 . S
C44 H7 0.930 . S
C44 C43 1.376 . S
C44 C45 1.376 . S
C45 C44 1.376 . S
C45 C46 1.378 . S
C45 C72 1.486 . S
C46 H8 0.930 . S
C46 C45 1.378 . S
C46 C47 1.376 . S
C47 H9 0.929 . S
C47 C42 1.397 . S
C47 C46 1.376 . S
C48 C32 1.509 . S
C48 C49 1.391 . S
C48 C53 1.386 . S
C49 H10 0.930 . S
C49 C48 1.391 . S
C49 C50 1.375 . S
C50 H11 0.931 . S
C50 C49 1.375 . S
C50 C51 1.375 . S
C51 C50 1.375 . S
C51 C52 1.361 . S
C52 H12 0.930 . S
C52 C51 1.361 . S
C52 C53 1.399 . S
C53 H13 0.929 . S
C53 C48 1.386 . S
C53 C52 1.399 . S
C54 C33 1.485 . S
C54 C55 1.394 . S
C54 C59 1.360 . S
C55 H14 0.931 . S
C55 C54 1.394 . S
C55 C56 1.372 . S
C56 H15 0.930 . S
C56 C55 1.372 . S
C56 C57 1.397 . S
C57 C56 1.397 . S
C57 C58 1.390 . S
C57 C73 1.476 . S
C58 H16 0.930 . S
C58 C57 1.390 . S
C58 C59 1.366 . S
C59 H17 0.932 . S
C59 C54 1.360 . S
C59 C58 1.366 . S
C60 C34 1.490 . S
C60 C61 1.380 . S
C60 C65 1.386 . S
C61 H18 0.930 . S
C61 C60 1.380 . S
C61 C62 1.381 . S
C62 H19 0.929 . S
C62 C61 1.381 . S
C62 C63 1.371 . S
C63 C62 1.371 . S
C63 C64 1.380 . S
C64 H20 0.931 . S
C64 C63 1.380 . S
C64 C65 1.387 . S
C65 H21 0.930 . S
C65 C60 1.386 . S
C65 C64 1.387 . S
C66 C35 1.519 . S
C66 C67 1.377 1_455 S
C66 C71 1.361 1_455 S
C67 H22 0.929 . S
C67 C66 1.377 1_655 S
C67 C68 1.386 . S
C68 H23 0.931 . S
C68 C67 1.386 . S
C68 C69 1.363 . S
C69 C68 1.363 . S
C69 C70 1.385 . S
C70 H24 0.930 . S
C70 C69 1.385 . S
C70 C71 1.396 . S
C71 H25 0.929 1_655 S
C71 C66 1.361 1_655 S
C71 C70 1.396 . S
C72 O26 1.300 . S
C72 O27 1.209 . S
C72 C45 1.486 . S
C73 O28 1.199 . S
C73 O29 1.297 . S
C73 C57 1.476 . S
H74 O100 0.856 . S
H75 O103 0.854 . S
H76 C111 0.930 . S
H77 C112 0.930 . S
H78 C114 0.930 . S
H79 C115 0.930 . S
H80 C117 0.931 . S
H81 C118 0.930 . S
H82 C120 0.930 . S
H83 C121 0.929 . S
H84 C123 0.930 . S
H85 C124 0.931 . S
H86 C126 0.930 . S
H87 C127 0.929 . S
H88 C129 0.931 . S
H89 C130 0.930 . S
H90 C132 0.930 . S
H91 C133 0.932 . S
H92 C135 0.930 . S
H93 C136 0.929 . S
H94 C138 0.931 . S
H95 C139 0.930 . S
H96 C141 0.929 . S
H97 C142 0.931 . S
H98 C144 0.930 . S
H99 C145 0.929 . S
O100 H74 0.856 . S
O100 C146 1.300 . S
O101 C146 1.209 . S
O102 C147 1.199 . S
O103 H75 0.854 . S
O103 C147 1.297 . S
C104 C105 1.404 . S
C104 C109 1.397 . S
C104 C110 1.492 . S
C105 C104 1.404 . S
C105 C106 1.396 . S
C105 C116 1.492 . S
C106 C105 1.396 . S
C106 C107 1.397 . S
C106 C122 1.509 . S
C107 C106 1.397 . S
C107 C108 1.412 . S
C107 C128 1.485 . S
C108 C107 1.412 . S
C108 C109 1.388 . S
C108 C134 1.490 . S
C109 C104 1.397 . S
C109 C108 1.388 . S
C109 C140 1.519 . S
C110 C104 1.492 . S
C110 C111 1.363 . S
C110 C115 1.390 . S
C111 H76 0.930 . S
C111 C110 1.363 . S
C111 C112 1.372 . S
C112 H77 0.930 . S
C112 C111 1.372 . S
C112 C113 1.383 1_545 S
C113 C112 1.383 1_565 S
C113 C114 1.395 . S
C114 H78 0.930 . S
C114 C113 1.395 . S
C114 C115 1.362 1_565 S
C115 H79 0.930 . S
C115 C110 1.390 . S
C115 C114 1.362 1_545 S
C116 C105 1.492 . S
C116 C117 1.377 . S
C116 C121 1.397 . S
C117 H80 0.931 . S
C117 C116 1.377 . S
C117 C118 1.376 . S
C118 H81 0.930 . S
C118 C117 1.376 . S
C118 C119 1.376 . S
C119 C118 1.376 . S
C119 C120 1.378 . S
C119 C146 1.486 . S
C120 H82 0.930 . S
C120 C119 1.378 . S
C120 C121 1.376 . S
C121 H83 0.929 . S
C121 C116 1.397 . S
C121 C120 1.376 . S
C122 C106 1.509 . S
C122 C123 1.391 . S
C122 C127 1.386 . S
C123 H84 0.930 . S
C123 C122 1.391 . S
C123 C124 1.375 . S
C124 H85 0.931 . S
C124 C123 1.375 . S
C124 C125 1.375 . S
C125 C124 1.375 . S
C125 C126 1.361 . S
C126 H86 0.930 . S
C126 C125 1.361 . S
C126 C127 1.399 . S
C127 H87 0.929 . S
C127 C122 1.386 . S
C127 C126 1.399 . S
C128 C107 1.485 . S
C128 C129 1.394 . S
C128 C133 1.360 . S
C129 H88 0.931 . S
C129 C128 1.394 . S
C129 C130 1.372 . S
C130 H89 0.930 . S
C130 C129 1.372 . S
C130 C131 1.397 . S
C131 C130 1.397 . S
C131 C132 1.390 . S
C131 C147 1.476 . S
C132 H90 0.930 . S
C132 C131 1.390 . S
C132 C133 1.366 . S
C133 H91 0.932 . S
C133 C128 1.360 . S
C133 C132 1.366 . S
C134 C108 1.490 . S
C134 C135 1.380 . S
C134 C139 1.386 . S
C135 H92 0.930 . S
C135 C134 1.380 . S
C135 C136 1.381 . S
C136 H93 0.929 . S
C136 C135 1.381 . S
C136 C137 1.371 . S
C137 C136 1.371 . S
C137 C138 1.380 . S
C138 H94 0.931 . S
C138 C137 1.380 . S
C138 C139 1.387 . S
C139 H95 0.930 . S
C139 C134 1.386 . S
C139 C138 1.387 . S
C140 C109 1.519 . S
C140 C141 1.377 . S
C140 C145 1.361 . S
C141 H96 0.929 . S
C141 C140 1.377 . S
C141 C142 1.386 1_545 S
C142 H97 0.931 . S
C142 C141 1.386 1_565 S
C142 C143 1.363 . S
C143 C142 1.363 . S
C143 C144 1.385 . S
C144 H98 0.930 . S
C144 C143 1.385 . S
C144 C145 1.396 1_565 S
C145 H99 0.929 . S
C145 C140 1.361 . S
C145 C144 1.396 1_545 S
C146 O100 1.300 . S
C146 O101 1.209 . S
C146 C119 1.486 . S
C147 O102 1.199 . S
C147 O103 1.297 . S
C147 C131 1.476 . S
H148 O174 0.856 . S
H149 O177 0.854 . S
H150 C185 0.930 . S
H151 C186 0.930 . S
H152 C188 0.930 . S
H153 C189 0.930 . S
H154 C191 0.931 . S
H155 C192 0.930 . S
H156 C194 0.930 . S
H157 C195 0.929 . S
H158 C197 0.930 . S
H159 C198 0.931 . S
H160 C200 0.930 . S
H161 C201 0.929 . S
H162 C203 0.931 . S
H163 C204 0.930 . S
H164 C206 0.930 . S
H165 C207 0.932 . S
H166 C209 0.930 . S
H167 C210 0.929 . S
H168 C212 0.931 . S
H169 C213 0.930 . S
H170 C215 0.929 . S
H171 C216 0.931 . S
H172 C218 0.930 . S
H173 C219 0.929 . S
O174 H148 0.856 . S
O174 C220 1.300 . S
O175 C220 1.209 . S
O176 C221 1.199 . S
O177 H149 0.854 . S
O177 C221 1.297 . S
C178 C179 1.404 . S
C178 C183 1.397 . S
C178 C184 1.492 . S
C179 C178 1.404 . S
C179 C180 1.396 . S
C179 C190 1.492 . S
C180 C179 1.396 . S
C180 C181 1.397 . S
C180 C196 1.509 . S
C181 C180 1.397 . S
C181 C182 1.412 . S
C181 C202 1.485 . S
C182 C181 1.412 . S
C182 C183 1.388 . S
C182 C208 1.490 . S
C183 C178 1.397 . S
C183 C182 1.388 . S
C183 C214 1.519 . S
C184 C178 1.492 . S
C184 C185 1.363 . S
C184 C189 1.390 . S
C185 H150 0.930 . S
C185 C184 1.363 . S
C185 C186 1.372 . S
C186 H151 0.930 . S
C186 C185 1.372 . S
C186 C187 1.383 . S
C187 C186 1.383 . S
C187 C188 1.395 . S
C188 H152 0.930 . S
C188 C187 1.395 . S
C188 C189 1.362 . S
C189 H153 0.930 . S
C189 C184 1.390 . S
C189 C188 1.362 . S
C190 C179 1.492 . S
C190 C191 1.377 . S
C190 C195 1.397 . S
C191 H154 0.931 . S
C191 C190 1.377 . S
C191 C192 1.376 . S
C192 H155 0.930 . S
C192 C191 1.376 . S
C192 C193 1.376 . S
C193 C192 1.376 . S
C193 C194 1.378 . S
C193 C220 1.486 . S
C194 H156 0.930 . S
C194 C193 1.378 . S
C194 C195 1.376 . S
C195 H157 0.929 . S
C195 C190 1.397 . S
C195 C194 1.376 . S
C196 C180 1.509 . S
C196 C197 1.391 . S
C196 C201 1.386 . S
C197 H158 0.930 . S
C197 C196 1.391 . S
C197 C198 1.375 . S
C198 H159 0.931 . S
C198 C197 1.375 . S
C198 C199 1.375 . S
C199 C198 1.375 . S
C199 C200 1.361 . S
C200 H160 0.930 . S
C200 C199 1.361 . S
C200 C201 1.399 . S
C201 H161 0.929 . S
C201 C196 1.386 . S
C201 C200 1.399 . S
C202 C181 1.485 . S
C202 C203 1.394 . S
C202 C207 1.360 . S
C203 H162 0.931 . S
C203 C202 1.394 . S
C203 C204 1.372 . S
C204 H163 0.930 . S
C204 C203 1.372 . S
C204 C205 1.397 . S
C205 C204 1.397 . S
C205 C206 1.390 . S
C205 C221 1.476 . S
C206 H164 0.930 . S
C206 C205 1.390 . S
C206 C207 1.366 . S
C207 H165 0.932 . S
C207 C202 1.360 . S
C207 C206 1.366 . S
C208 C182 1.490 . S
C208 C209 1.380 . S
C208 C213 1.386 . S
C209 H166 0.930 . S
C209 C208 1.380 . S
C209 C210 1.381 . S
C210 H167 0.929 . S
C210 C209 1.381 . S
C210 C211 1.371 . S
C211 C210 1.371 . S
C211 C212 1.380 . S
C212 H168 0.931 . S
C212 C211 1.380 . S
C212 C213 1.387 . S
C213 H169 0.930 . S
C213 C208 1.386 . S
C213 C212 1.387 . S
C214 C183 1.519 . S
C214 C215 1.377 . S
C214 C219 1.361 . S
C215 H170 0.929 . S
C215 C214 1.377 . S
C215 C216 1.386 . S
C216 H171 0.931 . S
C216 C215 1.386 . S
C216 C217 1.363 . S
C217 C216 1.363 . S
C217 C218 1.385 . S
C218 H172 0.930 . S
C218 C217 1.385 . S
C218 C219 1.396 . S
C219 H173 0.929 . S
C219 C214 1.361 . S
C219 C218 1.396 . S
C220 O174 1.300 . S
C220 O175 1.209 . S
C220 C193 1.486 . S
C221 O176 1.199 . S
C221 O177 1.297 . S
C221 C205 1.476 . S
H222 O248 0.856 . S
H223 O251 0.854 . S
H224 C259 0.930 1_455 S
H225 C260 0.930 . S
H226 C262 0.930 . S
H227 C263 0.930 . S
H228 C265 0.931 . S
H229 C266 0.930 . S
H230 C268 0.930 . S
H231 C269 0.929 . S
H232 C271 0.930 . S
H233 C272 0.931 . S
H234 C274 0.930 . S
H235 C275 0.929 . S
H236 C277 0.931 . S
H237 C278 0.930 . S
H238 C280 0.930 . S
H239 C281 0.932 . S
H240 C283 0.930 . S
H241 C284 0.929 . S
H242 C286 0.931 . S
H243 C287 0.930 . S
H244 C289 0.929 . S
H245 C290 0.931 . S
H246 C292 0.930 . S
H247 C293 0.929 . S
O248 H222 0.856 . S
O248 C294 1.300 . S
O249 C294 1.209 . S
O250 C295 1.199 . S
O251 H223 0.854 . S
O251 C295 1.297 . S
C252 C253 1.404 . S
C252 C257 1.397 . S
C252 C258 1.492 . S
C253 C252 1.404 . S
C253 C254 1.396 . S
C253 C264 1.492 . S
C254 C253 1.396 . S
C254 C255 1.397 . S
C254 C270 1.509 . S
C255 C254 1.397 . S
C255 C256 1.412 . S
C255 C276 1.485 . S
C256 C255 1.412 . S
C256 C257 1.388 . S
C256 C282 1.490 . S
C257 C252 1.397 . S
C257 C256 1.388 . S
C257 C288 1.519 1_455 S
C258 C252 1.492 . S
C258 C259 1.363 1_455 S
C258 C263 1.390 1_455 S
C259 H224 0.930 1_655 S
C259 C258 1.363 1_655 S
C259 C260 1.372 . S
C260 H225 0.930 . S
C260 C259 1.372 . S
C260 C261 1.383 . S
C261 C260 1.383 . S
C261 C262 1.395 . S
C262 H226 0.930 . S
C262 C261 1.395 . S
C262 C263 1.362 . S
C263 H227 0.930 . S
C263 C258 1.390 1_655 S
C263 C262 1.362 . S
C264 C253 1.492 . S
C264 C265 1.377 . S
C264 C269 1.397 . S
C265 H228 0.931 . S
C265 C264 1.377 . S
C265 C266 1.376 . S
C266 H229 0.930 . S
C266 C265 1.376 . S
C266 C267 1.376 . S
C267 C266 1.376 . S
C267 C268 1.378 . S
C267 C294 1.486 . S
C268 H230 0.930 . S
C268 C267 1.378 . S
C268 C269 1.376 . S
C269 H231 0.929 . S
C269 C264 1.397 . S
C269 C268 1.376 . S
C270 C254 1.509 . S
C270 C271 1.391 . S
C270 C275 1.386 . S
C271 H232 0.930 . S
C271 C270 1.391 . S
C271 C272 1.375 . S
C272 H233 0.931 . S
C272 C271 1.375 . S
C272 C273 1.375 . S
C273 C272 1.375 . S
C273 C274 1.361 . S
C274 H234 0.930 . S
C274 C273 1.361 . S
C274 C275 1.399 . S
C275 H235 0.929 . S
C275 C270 1.386 . S
C275 C274 1.399 . S
C276 C255 1.485 . S
C276 C277 1.394 . S
C276 C281 1.360 . S
C277 H236 0.931 . S
C277 C276 1.394 . S
C277 C278 1.372 . S
C278 H237 0.930 . S
C278 C277 1.372 . S
C278 C279 1.397 . S
C279 C278 1.397 . S
C279 C280 1.390 . S
C279 C295 1.476 . S
C280 H238 0.930 . S
C280 C279 1.390 . S
C280 C281 1.366 . S
C281 H239 0.932 . S
C281 C276 1.360 . S
C281 C280 1.366 . S
C282 C256 1.490 . S
C282 C283 1.380 . S
C282 C287 1.386 . S
C283 H240 0.930 . S
C283 C282 1.380 . S
C283 C284 1.381 . S
C284 H241 0.929 . S
C284 C283 1.381 . S
C284 C285 1.371 . S
C285 C284 1.371 . S
C285 C286 1.380 . S
C286 H242 0.931 . S
C286 C285 1.380 . S
C286 C287 1.387 . S
C287 H243 0.930 . S
C287 C282 1.386 . S
C287 C286 1.387 . S
C288 C257 1.519 1_655 S
C288 C289 1.377 . S
C288 C293 1.361 . S
C289 H244 0.929 . S
C289 C288 1.377 . S
C289 C290 1.386 . S
C290 H245 0.931 . S
C290 C289 1.386 . S
C290 C291 1.363 . S
C291 C290 1.363 . S
C291 C292 1.385 . S
C292 H246 0.930 . S
C292 C291 1.385 . S
C292 C293 1.396 . S
C293 H247 0.929 . S
C293 C288 1.361 . S
C293 C292 1.396 . S
C294 O248 1.300 . S
C294 O249 1.209 . S
C294 C267 1.486 . S
C295 O250 1.199 . S
C295 O251 1.297 . S
C295 C279 1.476 . S
H296 O322 0.856 . S
H297 O325 0.854 . S
H298 C333 0.930 . S
H299 C334 0.930 . S
H300 C336 0.930 . S
H301 C337 0.930 . S
H302 C339 0.931 . S
H303 C340 0.930 . S
H304 C342 0.930 . S
H305 C343 0.929 . S
H306 C345 0.930 . S
H307 C346 0.931 . S
H308 C348 0.930 . S
H309 C349 0.929 . S
H310 C351 0.931 . S
H311 C352 0.930 . S
H312 C354 0.930 . S
H313 C355 0.932 . S
H314 C357 0.930 . S
H315 C358 0.929 . S
H316 C360 0.931 . S
H317 C361 0.930 . S
H318 C363 0.936 . S
H319 C364 0.931 . S
H320 C366 0.930 . S
H321 C367 0.929 . S
O322 H296 0.856 . S
O322 C368 1.300 . S
O323 C368 1.209 1_545 S
O324 C369 1.199 . S
O325 H297 0.854 . S
O325 C369 1.297 . S
C326 C327 1.404 . S
C326 C331 1.397 . S
C326 C332 1.492 . S
C327 C326 1.404 . S
C327 C328 1.396 1_545 S
C327 C338 1.492 . S
C328 C327 1.396 1_565 S
C328 C329 1.397 . S
C328 C344 1.509 . S
C329 C328 1.397 . S
C329 C330 1.412 1_566 S
C329 C350 1.485 1_556 S
C330 C329 1.412 1_544 S
C330 C331 1.388 1_554 S
C330 C356 1.490 . S
C331 C326 1.397 . S
C331 C330 1.388 1_556 S
C331 C362 1.519 1_556 S
C332 C326 1.492 . S
C332 C333 1.363 . S
C332 C337 1.390 . S
C333 H298 0.930 . S
C333 C332 1.363 . S
C333 C334 1.372 . S
C334 H299 0.930 . S
C334 C333 1.372 . S
C334 C335 1.383 . S
C335 C334 1.383 . S
C335 C336 1.395 . S
C336 H300 0.930 . S
C336 C335 1.395 . S
C336 C337 1.362 . S
C337 H301 0.930 . S
C337 C332 1.390 . S
C337 C336 1.362 . S
C338 C327 1.492 . S
C338 C339 1.377 1_545 S
C338 C343 1.397 . S
C339 H302 0.931 . S
C339 C338 1.377 1_565 S
C339 C340 1.376 . S
C340 H303 0.930 . S
C340 C339 1.376 . S
C340 C341 1.376 . S
C341 C340 1.376 . S
C341 C342 1.378 1_565 S
C341 C368 1.486 . S
C342 H304 0.930 . S
C342 C341 1.378 1_545 S
C342 C343 1.376 . S
C343 H305 0.929 . S
C343 C338 1.397 . S
C343 C342 1.376 . S
C344 C328 1.509 . S
C344 C345 1.391 . S
C344 C349 1.386 . S
C345 H306 0.930 . S
C345 C344 1.391 . S
C345 C346 1.375 . S
C346 H307 0.931 . S
C346 C345 1.375 . S
C346 C347 1.375 . S
C347 C346 1.375 . S
C347 C348 1.361 . S
C348 H308 0.930 . S
C348 C347 1.361 . S
C348 C349 1.399 . S
C349 H309 0.929 . S
C349 C344 1.386 . S
C349 C348 1.399 . S
C350 C329 1.485 1_554 S
C350 C351 1.394 . S
C350 C355 1.360 . S
C351 H310 0.931 . S
C351 C350 1.394 . S
C351 C352 1.372 . S
C352 H311 0.930 . S
C352 C351 1.372 . S
C352 C353 1.397 . S
C353 C352 1.397 . S
C353 C354 1.390 . S
C353 C369 1.476 . S
C354 H312 0.930 . S
C354 C353 1.390 . S
C354 C355 1.366 . S
C355 H313 0.932 . S
C355 C350 1.360 . S
C355 C354 1.366 . S
C356 C330 1.490 . S
C356 C357 1.380 . S
C356 C361 1.386 . S
C357 H314 0.930 . S
C357 C356 1.380 . S
C357 C358 1.381 . S
C358 H315 0.929 . S
C358 C357 1.381 . S
C358 C359 1.371 . S
C359 C358 1.371 . S
C359 C360 1.380 . S
C360 H316 0.931 . S
C360 C359 1.380 . S
C360 C361 1.387 . S
C361 H317 0.930 . S
C361 C356 1.386 . S
C361 C360 1.387 . S
C362 C331 1.519 1_554 S
C362 C363 1.376 1_554 S
C362 C367 1.361 . S
C363 H318 0.936 . S
C363 C362 1.376 1_556 S
C363 C364 1.380 1_556 S
C364 H319 0.931 . S
C364 C363 1.380 1_554 S
C364 C365 1.363 . S
C365 C364 1.363 . S
C365 C366 1.385 . S
C366 H320 0.930 . S
C366 C365 1.385 . S
C366 C367 1.396 . S
C367 H321 0.929 . S
C367 C362 1.361 . S
C367 C366 1.396 . S
C368 O322 1.300 . S
C368 O323 1.209 1_565 S
C368 C341 1.486 . S
C369 O324 1.199 . S
C369 O325 1.297 . S
C369 C353 1.476 . S
H370 O396 0.856 . S
H371 O399 0.854 . S
H372 C407 0.930 . S
H373 C408 0.930 . S
H374 C410 0.930 . S
H375 C411 0.930 . S
H376 C413 0.931 . S
H377 C414 0.930 . S
H378 C416 0.930 . S
H379 C417 0.929 . S
H380 C419 0.930 . S
H381 C420 0.931 . S
H382 C422 0.930 . S
H383 C423 0.929 . S
H384 C425 0.931 . S
H385 C426 0.930 . S
H386 C428 0.930 . S
H387 C429 0.932 . S
H388 C431 0.930 . S
H389 C432 0.929 . S
H390 C434 0.931 . S
H391 C435 0.930 . S
H392 C437 0.929 . S
H393 C438 0.931 . S
H394 C440 0.930 . S
H395 C441 0.929 . S
O396 H370 0.856 . S
O396 C442 1.300 . S
O397 C442 1.209 . S
O398 C443 1.199 . S
O399 H371 0.854 . S
O399 C443 1.297 . S
C400 C401 1.404 . S
C400 C405 1.397 . S
C400 C406 1.492 . S
C401 C400 1.404 . S
C401 C402 1.396 . S
C401 C412 1.492 . S
C402 C401 1.396 . S
C402 C403 1.397 . S
C402 C418 1.509 . S
C403 C402 1.397 . S
C403 C404 1.412 . S
C403 C424 1.485 . S
C404 C403 1.412 . S
C404 C405 1.388 . S
C404 C430 1.490 . S
C405 C400 1.397 . S
C405 C404 1.388 . S
C405 C436 1.519 . S
C406 C400 1.492 . S
C406 C407 1.363 . S
C406 C411 1.390 . S
C407 H372 0.930 . S
C407 C406 1.363 . S
C407 C408 1.372 . S
C408 H373 0.930 . S
C408 C407 1.372 . S
C408 C409 1.383 . S
C409 C408 1.383 . S
C409 C410 1.395 . S
C410 H374 0.930 . S
C410 C409 1.395 . S
C410 C411 1.362 . S
C411 H375 0.930 . S
C411 C406 1.390 . S
C411 C410 1.362 . S
C412 C401 1.492 . S
C412 C413 1.377 . S
C412 C417 1.397 . S
C413 H376 0.931 . S
C413 C412 1.377 . S
C413 C414 1.376 . S
C414 H377 0.930 . S
C414 C413 1.376 . S
C414 C415 1.376 . S
C415 C414 1.376 . S
C415 C416 1.378 . S
C415 C442 1.486 . S
C416 H378 0.930 . S
C416 C415 1.378 . S
C416 C417 1.376 . S
C417 H379 0.929 . S
C417 C412 1.397 . S
C417 C416 1.376 . S
C418 C402 1.509 . S
C418 C419 1.391 . S
C418 C423 1.386 . S
C419 H380 0.930 . S
C419 C418 1.391 . S
C419 C420 1.375 . S
C420 H381 0.931 . S
C420 C419 1.375 . S
C420 C421 1.375 . S
C421 C420 1.375 . S
C421 C422 1.361 . S
C422 H382 0.930 . S
C422 C421 1.361 . S
C422 C423 1.399 . S
C423 H383 0.929 . S
C423 C418 1.386 . S
C423 C422 1.399 . S
C424 C403 1.485 . S
C424 C425 1.394 . S
C424 C429 1.360 . S
C425 H384 0.931 . S
C425 C424 1.394 . S
C425 C426 1.372 . S
C426 H385 0.930 . S
C426 C425 1.372 . S
C426 C427 1.397 . S
C427 C426 1.397 . S
C427 C428 1.390 . S
C427 C443 1.476 . S
C428 H386 0.930 . S
C428 C427 1.390 . S
C428 C429 1.366 . S
C429 H387 0.932 . S
C429 C424 1.360 . S
C429 C428 1.366 . S
C430 C404 1.490 . S
C430 C431 1.380 . S
C430 C435 1.386 . S
C431 H388 0.930 . S
C431 C430 1.380 . S
C431 C432 1.381 . S
C432 H389 0.929 . S
C432 C431 1.381 . S
C432 C433 1.371 . S
C433 C432 1.371 . S
C433 C434 1.380 . S
C434 H390 0.931 . S
C434 C433 1.380 . S
C434 C435 1.387 . S
C435 H391 0.930 . S
C435 C430 1.386 . S
C435 C434 1.387 . S
C436 C405 1.519 . S
C436 C437 1.377 . S
C436 C441 1.361 . S
C437 H392 0.929 . S
C437 C436 1.377 . S
C437 C438 1.386 . S
C438 H393 0.931 . S
C438 C437 1.386 . S
C438 C439 1.363 . S
C439 C438 1.363 . S
C439 C440 1.385 . S
C440 H394 0.930 . S
C440 C439 1.385 . S
C440 C441 1.396 . S
C441 H395 0.929 . S
C441 C436 1.361 . S
C441 C440 1.396 . S
C442 O396 1.300 . S
C442 O397 1.209 . S
C442 C415 1.486 . S
C443 O398 1.199 . S
C443 O399 1.297 . S
C443 C427 1.476 . S
In444 O445 2.294 . S
In444 O446 2.326 . S
In444 O450 2.266 . S
In444 O451 2.326 . S
In444 O452 2.266 . S
In444 O453 2.326 . S
In444 O455 2.294 . S
In444 O456 2.326 . S
O445 In444 2.294 . S
O445 C454 1.240 . S
O446 In444 2.326 . S
O446 C454 1.252 . S
C447 O450 1.252 . S
C447 O451 1.260 . S
C448 O455 1.240 . S
C448 O456 1.252 . S
C449 O452 1.252 . S
C449 O453 1.260 . S
O450 In444 2.266 . S
O450 C447 1.252 . S
O451 In444 2.326 . S
O451 C447 1.260 . S
O452 In444 2.266 . S
O452 C449 1.252 . S
O453 In444 2.326 . S
O453 C449 1.260 . S
C454 O445 1.240 . S
C454 O446 1.252 . S
O455 In444 2.294 . S
O455 C448 1.240 . S
O456 In444 2.326 . S
O456 C448 1.252 . S
In457 O458 2.294 . S
In457 O459 2.326 . S
In457 O463 2.266 . S
In457 O464 2.326 . S
In457 O465 2.266 . S
In457 O466 2.326 . S
In457 O468 2.294 . S
In457 O469 2.326 . S
O458 In457 2.294 . S
O458 C467 1.240 . S
O459 In457 2.326 . S
O459 C467 1.252 . S
C460 O463 1.252 . S
C460 O464 1.260 . S
C461 O468 1.240 . S
C461 O469 1.252 . S
C462 O465 1.252 . S
C462 O466 1.260 . S
O463 In457 2.266 . S
O463 C460 1.252 . S
O464 In457 2.326 . S
O464 C460 1.260 . S
O465 In457 2.266 . S
O465 C462 1.252 . S
O466 In457 2.326 . S
O466 C462 1.260 . S
C467 O458 1.240 . S
C467 O459 1.252 . S
O468 In457 2.294 . S
O468 C461 1.240 . S
O469 In457 2.326 . S
O469 C461 1.252 . S
In470 O471 2.294 . S
In470 O472 2.326 . S
In470 O476 2.266 . S
In470 O477 2.326 . S
In470 O478 2.266 . S
In470 O479 2.326 . S
In470 O481 2.294 . S
In470 O482 2.326 . S
O471 In470 2.294 . S
O471 C480 1.240 . S
O472 In470 2.326 . S
O472 C480 1.252 . S
C473 O476 1.252 . S
C473 O477 1.260 . S
C474 O481 1.240 . S
C474 O482 1.252 . S
C475 O478 1.252 . S
C475 O479 1.260 . S
O476 In470 2.266 . S
O476 C473 1.252 . S
O477 In470 2.326 . S
O477 C473 1.260 . S
O478 In470 2.266 . S
O478 C475 1.252 . S
O479 In470 2.326 . S
O479 C475 1.260 . S
C480 O471 1.240 . S
C480 O472 1.252 . S
O481 In470 2.294 . S
O481 C474 1.240 . S
O482 In470 2.326 . S
O482 C474 1.252 . S
In483 O484 2.294 . S
In483 O485 2.326 . S
In483 O489 2.266 . S
In483 O490 2.326 . S
In483 O491 2.266 . S
In483 O492 2.326 . S
In483 O494 2.294 . S
In483 O495 2.326 . S
O484 In483 2.294 . S
O484 C493 1.240 . S
O485 In483 2.326 . S
O485 C493 1.252 . S
C486 O489 1.252 . S
C486 O490 1.260 . S
C487 O494 1.240 . S
C487 O495 1.252 . S
C488 O491 1.252 . S
C488 O492 1.260 . S
O489 In483 2.266 . S
O489 C486 1.252 . S
O490 In483 2.326 . S
O490 C486 1.260 . S
O491 In483 2.266 . S
O491 C488 1.252 . S
O492 In483 2.326 . S
O492 C488 1.260 . S
C493 O484 1.240 . S
C493 O485 1.252 . S
O494 In483 2.294 . S
O494 C487 1.240 . S
O495 In483 2.326 . S
O495 C487 1.252 . S
In496 O497 2.294 . S
In496 O498 2.326 . S
In496 O502 2.266 . S
In496 O503 2.326 . S
In496 O504 2.266 . S
In496 O505 2.326 . S
In496 O507 2.294 . S
In496 O508 2.326 . S
O497 In496 2.294 . S
O497 C506 1.240 . S
O498 In496 2.326 . S
O498 C506 1.252 . S
C499 O502 1.252 . S
C499 O503 1.260 . S
C500 O507 1.240 . S
C500 O508 1.252 . S
C501 O504 1.252 . S
C501 O505 1.260 . S
O502 In496 2.266 . S
O502 C499 1.252 . S
O503 In496 2.326 . S
O503 C499 1.260 . S
O504 In496 2.266 . S
O504 C501 1.252 . S
O505 In496 2.326 . S
O505 C501 1.260 . S
C506 O497 1.240 . S
C506 O498 1.252 . S
O507 In496 2.294 . S
O507 C500 1.240 . S
O508 In496 2.326 . S
O508 C500 1.252 . S
In509 O510 2.294 . S
In509 O511 2.326 . S
In509 O515 2.266 . S
In509 O516 2.326 . S
In509 O517 2.266 . S
In509 O518 2.326 . S
In509 O520 2.294 . S
In509 O521 2.326 . S
O510 In509 2.294 . S
O510 C519 1.240 . S
O511 In509 2.326 . S
O511 C519 1.252 . S
C512 O515 1.252 . S
C512 O516 1.260 . S
C513 O520 1.240 . S
C513 O521 1.252 . S
C514 O517 1.252 . S
C514 O518 1.260 . S
O515 In509 2.266 . S
O515 C512 1.252 . S
O516 In509 2.326 . S
O516 C512 1.260 . S
O517 In509 2.266 . S
O517 C514 1.252 . S
O518 In509 2.326 . S
O518 C514 1.260 . S
C519 O510 1.240 . S
C519 O511 1.252 . S
O520 In509 2.294 . S
O520 C513 1.240 . S
O521 In509 2.326 . S
O521 C513 1.252 . S
H522 C530 0.950 . S
H523 C535 0.950 . S
H524 C532 0.950 . S
H525 C534 0.950 . S
H526 C536 0.950 . S
H527 C538 0.950 . S
H528 C540 0.950 . S
H529 C541 0.950 . S
C530 H522 0.950 . S
C530 C531 1.386 . S
C530 C532 1.391 . S
C531 C530 1.386 . S
C531 C535 1.393 . S
C532 H524 0.950 . S
C532 C530 1.391 . S
C532 C533 1.400 . S
C533 C532 1.400 . S
C533 C534 1.398 . S
C533 C539 1.491 . S
C534 H525 0.950 . S
C534 C533 1.398 . S
C534 C535 1.391 . S
C535 H523 0.950 . S
C535 C531 1.393 . S
C535 C534 1.391 . S
C536 H526 0.950 . S
C536 C537 1.386 . S
C536 C538 1.391 . S
C537 C536 1.386 . S
C537 C541 1.393 . S
C538 H527 0.950 . S
C538 C536 1.391 . S
C538 C539 1.400 . S
C539 C533 1.491 . S
C539 C538 1.400 . S
C539 C540 1.398 . S
C540 H528 0.950 . S
C540 C539 1.398 . S
C540 C541 1.391 . S
C541 H529 0.950 . S
C541 C537 1.393 . S
C541 C540 1.391 . S
H542 C550 0.950 . S
H543 C555 0.950 . S
H544 C552 0.950 . S
H545 C554 0.950 . S
H546 C556 0.950 . S
H547 C558 0.950 . S
H548 C560 0.950 . S
H549 C561 0.950 . S
C550 H542 0.950 . S
C550 C551 1.386 . S
C550 C552 1.391 . S
C551 C550 1.386 . S
C551 C555 1.393 . S
C552 H544 0.950 . S
C552 C550 1.391 . S
C552 C553 1.400 . S
C553 C552 1.400 . S
C553 C554 1.398 . S
C553 C559 1.491 . S
C554 H545 0.950 . S
C554 C553 1.398 . S
C554 C555 1.391 . S
C555 H543 0.950 . S
C555 C551 1.393 . S
C555 C554 1.391 . S
C556 H546 0.950 . S
C556 C557 1.386 . S
C556 C558 1.391 . S
C557 C556 1.386 . S
C557 C561 1.393 . S
C558 H547 0.950 . S
C558 C556 1.391 . S
C558 C559 1.400 . S
C559 C553 1.491 . S
C559 C558 1.400 . S
C559 C560 1.398 . S
C560 H548 0.950 . S
C560 C559 1.398 . S
C560 C561 1.391 . S
C561 H549 0.950 . S
C561 C557 1.393 . S
C561 C560 1.391 . S
H562 C570 0.950 . S
H563 C575 0.950 . S
H564 C572 0.950 . S
H565 C574 0.950 . S
H566 C576 0.950 . S
H567 C578 0.950 . S
H568 C580 0.950 . S
H569 C581 0.950 . S
C570 H562 0.950 . S
C570 C571 1.386 . S
C570 C572 1.391 . S
C571 C570 1.386 . S
C571 C575 1.393 . S
C572 H564 0.950 . S
C572 C570 1.391 . S
C572 C573 1.400 . S
C573 C572 1.400 . S
C573 C574 1.398 . S
C573 C579 1.491 . S
C574 H565 0.950 . S
C574 C573 1.398 . S
C574 C575 1.391 . S
C575 H563 0.950 . S
C575 C571 1.393 . S
C575 C574 1.391 . S
C576 H566 0.950 . S
C576 C577 1.386 . S
C576 C578 1.391 . S
C577 C576 1.386 . S
C577 C581 1.393 . S
C578 H567 0.950 . S
C578 C576 1.391 . S
C578 C579 1.400 . S
C579 C573 1.491 . S
C579 C578 1.400 . S
C579 C580 1.398 . S
C580 H568 0.950 . S
C580 C579 1.398 . S
C580 C581 1.391 . S
C581 H569 0.950 . S
C581 C577 1.393 . S
C581 C580 1.391 . S
H582 C590 0.950 . S
H583 C595 0.950 . S
H584 C592 0.950 . S
H585 C594 0.950 . S
H586 C596 0.950 . S
H587 C598 0.950 . S
H588 C600 0.950 . S
H589 C601 0.950 . S
C590 H582 0.950 . S
C590 C591 1.386 . S
C590 C592 1.391 . S
C591 C590 1.386 . S
C591 C595 1.393 . S
C592 H584 0.950 . S
C592 C590 1.391 . S
C592 C593 1.400 . S
C593 C592 1.400 . S
C593 C594 1.398 . S
C593 C599 1.491 . S
C594 H585 0.950 . S
C594 C593 1.398 . S
C594 C595 1.391 . S
C595 H583 0.950 . S
C595 C591 1.393 . S
C595 C594 1.391 . S
C596 H586 0.950 . S
C596 C597 1.386 . S
C596 C598 1.391 . S
C597 C596 1.386 . S
C597 C601 1.393 . S
C598 H587 0.950 . S
C598 C596 1.391 . S
C598 C599 1.400 . S
C599 C593 1.491 . S
C599 C598 1.400 . S
C599 C600 1.398 . S
C600 H588 0.950 . S
C600 C599 1.398 . S
C600 C601 1.391 . S
C601 H589 0.950 . S
C601 C597 1.393 . S
C601 C600 1.391 . S
H602 C610 0.950 . S
H603 C615 0.950 . S
H604 C612 0.950 . S
H605 C614 0.950 . S
H606 C616 0.950 . S
H607 C618 0.950 . S
H608 C620 0.950 . S
H609 C621 0.950 . S
C610 H602 0.950 . S
C610 C611 1.386 . S
C610 C612 1.391 . S
C611 C610 1.386 . S
C611 C615 1.393 . S
C612 H604 0.950 . S
C612 C610 1.391 . S
C612 C613 1.400 . S
C613 C612 1.400 . S
C613 C614 1.398 . S
C613 C619 1.491 . S
C614 H605 0.950 . S
C614 C613 1.398 . S
C614 C615 1.391 . S
C615 H603 0.950 . S
C615 C611 1.393 . S
C615 C614 1.391 . S
C616 H606 0.950 . S
C616 C617 1.386 . S
C616 C618 1.391 . S
C617 C616 1.386 . S
C617 C621 1.393 . S
C618 H607 0.950 . S
C618 C616 1.391 . S
C618 C619 1.400 . S
C619 C613 1.491 . S
C619 C618 1.400 . S
C619 C620 1.398 . S
C620 H608 0.950 . S
C620 C619 1.398 . S
C620 C621 1.391 . S
C621 H609 0.950 . S
C621 C617 1.393 . S
C621 C620 1.391 . S
H622 C630 0.950 . S
H623 C635 0.950 . S
H624 C632 0.950 . S
H625 C634 0.950 . S
H626 C636 0.950 . S
H627 C638 0.950 . S
H628 C640 0.950 . S
H629 C641 0.950 . S
C630 H622 0.950 . S
C630 C631 1.386 . S
C630 C632 1.391 . S
C631 C630 1.386 . S
C631 C635 1.393 . S
C632 H624 0.950 . S
C632 C630 1.391 . S
C632 C633 1.400 . S
C633 C632 1.400 . S
C633 C634 1.398 . S
C633 C639 1.491 . S
C634 H625 0.950 . S
C634 C633 1.398 . S
C634 C635 1.391 . S
C635 H623 0.950 . S
C635 C631 1.393 . S
C635 C634 1.391 . S
C636 H626 0.950 . S
C636 C637 1.386 . S
C636 C638 1.391 . S
C637 C636 1.386 . S
C637 C641 1.393 . S
C638 H627 0.950 . S
C638 C636 1.391 . S
C638 C639 1.400 . S
C639 C633 1.491 . S
C639 C638 1.400 . S
C639 C640 1.398 . S
C640 H628 0.950 . S
C640 C639 1.398 . S
C640 C641 1.391 . S
C641 H629 0.950 . S
C641 C637 1.393 . S
C641 C640 1.391 . S
H642 C650 0.950 . S
H643 C655 0.950 . S
H644 C652 0.950 . S
H645 C654 0.950 . S
H646 C656 0.950 . S
H647 C658 0.950 . S
H648 C660 0.950 . S
H649 C661 0.950 . S
C650 H642 0.950 . S
C650 C651 1.386 . S
C650 C652 1.391 . S
C651 C650 1.386 . S
C651 C655 1.393 . S
C652 H644 0.950 . S
C652 C650 1.391 . S
C652 C653 1.400 . S
C653 C652 1.400 . S
C653 C654 1.398 . S
C653 C659 1.491 . S
C654 H645 0.950 . S
C654 C653 1.398 . S
C654 C655 1.391 . S
C655 H643 0.950 . S
C655 C651 1.393 . S
C655 C654 1.391 . S
C656 H646 0.950 . S
C656 C657 1.386 . S
C656 C658 1.391 . S
C657 C656 1.386 . S
C657 C661 1.393 . S
C658 H647 0.950 . S
C658 C656 1.391 . S
C658 C659 1.400 . S
C659 C653 1.491 . S
C659 C658 1.400 . S
C659 C660 1.398 . S
C660 H648 0.950 . S
C660 C659 1.398 . S
C660 C661 1.391 . S
C661 H649 0.950 . S
C661 C657 1.393 . S
C661 C660 1.391 . S
H662 C670 0.950 . S
H663 C675 0.950 . S
H664 C672 0.950 . S
H665 C674 0.950 . S
H666 C676 0.950 . S
H667 C678 0.950 . S
H668 C680 0.950 . S
H669 C681 0.950 . S
C670 H662 0.950 . S
C670 C671 1.386 . S
C670 C672 1.391 . S
C671 C670 1.386 . S
C671 C675 1.393 . S
C672 H664 0.950 . S
C672 C670 1.391 . S
C672 C673 1.400 . S
C673 C672 1.400 . S
C673 C674 1.398 . S
C673 C679 1.491 . S
C674 H665 0.950 . S
C674 C673 1.398 . S
C674 C675 1.391 . S
C675 H663 0.950 . S
C675 C671 1.393 . S
C675 C674 1.391 . S
C676 H666 0.950 . S
C676 C677 1.386 . S
C676 C678 1.391 . S
C677 C676 1.386 . S
C677 C681 1.393 . S
C678 H667 0.950 . S
C678 C676 1.391 . S
C678 C679 1.400 . S
C679 C673 1.491 . S
C679 C678 1.400 . S
C679 C680 1.398 . S
C680 H668 0.950 . S
C680 C679 1.398 . S
C680 C681 1.391 . S
C681 H669 0.950 . S
C681 C677 1.393 . S
C681 C680 1.391 . S
H682 C690 0.950 . S
H683 C695 0.950 . S
H684 C692 0.950 . S
H685 C694 0.950 . S
H686 C696 0.950 . S
H687 C698 0.950 . S
H688 C700 0.950 . S
H689 C701 0.950 . S
C690 H682 0.950 . S
C690 C691 1.386 . S
C690 C692 1.391 . S
C691 C690 1.386 . S
C691 C695 1.393 . S
C692 H684 0.950 . S
C692 C690 1.391 . S
C692 C693 1.400 . S
C693 C692 1.400 . S
C693 C694 1.398 . S
C693 C699 1.491 . S
C694 H685 0.950 . S
C694 C693 1.398 . S
C694 C695 1.391 . S
C695 H683 0.950 . S
C695 C691 1.393 . S
C695 C694 1.391 . S
C696 H686 0.950 . S
C696 C697 1.386 . S
C696 C698 1.391 . S
C697 C696 1.386 . S
C697 C701 1.393 . S
C698 H687 0.950 . S
C698 C696 1.391 . S
C698 C699 1.400 . S
C699 C693 1.491 . S
C699 C698 1.400 . S
C699 C700 1.398 . S
C700 H688 0.950 . S
C700 C699 1.398 . S
C700 C701 1.391 . S
C701 H689 0.950 . S
C701 C697 1.393 . S
C701 C700 1.391 . S
H702 C710 0.950 . S
H703 C715 0.950 . S
H704 C712 0.950 . S
H705 C714 0.950 . S
H706 C716 0.950 . S
H707 C718 0.950 . S
H708 C720 0.950 . S
H709 C721 0.950 . S
C710 H702 0.950 . S
C710 C711 1.386 . S
C710 C712 1.391 . S
C711 C710 1.386 . S
C711 C715 1.393 . S
C712 H704 0.950 . S
C712 C710 1.391 . S
C712 C713 1.400 . S
C713 C712 1.400 . S
C713 C714 1.398 . S
C713 C719 1.491 . S
C714 H705 0.950 . S
C714 C713 1.398 . S
C714 C715 1.391 . S
C715 H703 0.950 . S
C715 C711 1.393 . S
C715 C714 1.391 . S
C716 H706 0.950 . S
C716 C717 1.386 . S
C716 C718 1.391 . S
C717 C716 1.386 . S
C717 C721 1.393 . S
C718 H707 0.950 . S
C718 C716 1.391 . S
C718 C719 1.400 . S
C719 C713 1.491 . S
C719 C718 1.400 . S
C719 C720 1.398 . S
C720 H708 0.950 . S
C720 C719 1.398 . S
C720 C721 1.391 . S
C721 H709 0.950 . S
C721 C717 1.393 . S
C721 C720 1.391 . S
H722 C730 0.950 . S
H723 C735 0.950 . S
H724 C732 0.950 . S
H725 C734 0.950 . S
H726 C736 0.950 . S
H727 C738 0.950 . S
H728 C740 0.950 . S
H729 C741 0.950 . S
C730 H722 0.950 . S
C730 C731 1.386 . S
C730 C732 1.391 . S
C731 C730 1.386 . S
C731 C735 1.393 . S
C732 H724 0.950 . S
C732 C730 1.391 . S
C732 C733 1.400 . S
C733 C732 1.400 . S
C733 C734 1.398 . S
C733 C739 1.491 . S
C734 H725 0.950 . S
C734 C733 1.398 . S
C734 C735 1.391 . S
C735 H723 0.950 . S
C735 C731 1.393 . S
C735 C734 1.391 . S
C736 H726 0.950 . S
C736 C737 1.386 . S
C736 C738 1.391 . S
C737 C736 1.386 . S
C737 C741 1.393 . S
C738 H727 0.950 . S
C738 C736 1.391 . S
C738 C739 1.400 . S
C739 C733 1.491 . S
C739 C738 1.400 . S
C739 C740 1.398 . S
C740 H728 0.950 . S
C740 C739 1.398 . S
C740 C741 1.391 . S
C741 H729 0.950 . S
C741 C737 1.393 . S
C741 C740 1.391 . S
H742 C750 0.950 . S
H743 C755 0.950 . S
H744 C752 0.950 . S
H745 C754 0.950 . S
H746 C756 0.950 . S
H747 C758 0.950 . S
H748 C760 0.950 . S
H749 C761 0.950 . S
C750 H742 0.950 . S
C750 C751 1.386 . S
C750 C752 1.391 . S
C751 C750 1.386 . S
C751 C755 1.393 . S
C752 H744 0.950 . S
C752 C750 1.391 . S
C752 C753 1.400 . S
C753 C752 1.400 . S
C753 C754 1.398 . S
C753 C759 1.491 . S
C754 H745 0.950 . S
C754 C753 1.398 . S
C754 C755 1.391 . S
C755 H743 0.950 . S
C755 C751 1.393 . S
C755 C754 1.391 . S
C756 H746 0.950 . S
C756 C757 1.386 . S
C756 C758 1.391 . S
C757 C756 1.386 . S
C757 C761 1.393 . S
C758 H747 0.950 . S
C758 C756 1.391 . S
C758 C759 1.400 . S
C759 C753 1.491 . S
C759 C758 1.400 . S
C759 C760 1.398 . S
C760 H748 0.950 . S
C760 C759 1.398 . S
C760 C761 1.391 . S
C761 H749 0.950 . S
C761 C757 1.393 . S
C761 C760 1.391 . S
H762 C770 0.950 . S
H763 C775 0.950 . S
H764 C772 0.950 . S
H765 C774 0.950 . S
H766 C776 0.950 . S
H767 C778 0.950 . S
H768 C780 0.950 . S
H769 C781 0.950 . S
C770 H762 0.950 . S
C770 C771 1.386 . S
C770 C772 1.391 . S
C771 C770 1.386 . S
C771 C775 1.393 . S
C772 H764 0.950 . S
C772 C770 1.391 . S
C772 C773 1.400 . S
C773 C772 1.400 . S
C773 C774 1.398 . S
C773 C779 1.491 . S
C774 H765 0.950 . S
C774 C773 1.398 . S
C774 C775 1.391 . S
C775 H763 0.950 . S
C775 C771 1.393 . S
C775 C774 1.391 . S
C776 H766 0.950 . S
C776 C777 1.386 . S
C776 C778 1.391 . S
C777 C776 1.386 . S
C777 C781 1.393 . S
C778 H767 0.950 . S
C778 C776 1.391 . S
C778 C779 1.400 . S
C779 C773 1.491 . S
C779 C778 1.400 . S
C779 C780 1.398 . S
C780 H768 0.950 . S
C780 C779 1.398 . S
C780 C781 1.391 . S
C781 H769 0.950 . S
C781 C777 1.393 . S
C781 C780 1.391 . S
H782 C790 0.950 . S
H783 C795 0.950 . S
H784 C792 0.950 . S
H785 C794 0.950 . S
H786 C796 0.950 . S
H787 C798 0.950 . S
H788 C800 0.950 . S
H789 C801 0.950 . S
C790 H782 0.950 . S
C790 C791 1.386 . S
C790 C792 1.391 . S
C791 C790 1.386 . S
C791 C795 1.393 . S
C792 H784 0.950 . S
C792 C790 1.391 . S
C792 C793 1.400 . S
C793 C792 1.400 . S
C793 C794 1.398 . S
C793 C799 1.491 . S
C794 H785 0.950 . S
C794 C793 1.398 . S
C794 C795 1.391 . S
C795 H783 0.950 . S
C795 C791 1.393 . S
C795 C794 1.391 . S
C796 H786 0.950 . S
C796 C797 1.386 . S
C796 C798 1.391 . S
C797 C796 1.386 . S
C797 C801 1.393 . S
C798 H787 0.950 . S
C798 C796 1.391 . S
C798 C799 1.400 . S
C799 C793 1.491 . S
C799 C798 1.400 . S
C799 C800 1.398 . S
C800 H788 0.950 . S
C800 C799 1.398 . S
C800 C801 1.391 . S
C801 H789 0.950 . S
C801 C797 1.393 . S
C801 C800 1.391 . S
H802 C810 0.950 . S
H803 C815 0.950 . S
H804 C812 0.950 . S
H805 C814 0.950 . S
H806 C816 0.950 . S
H807 C818 0.950 . S
H808 C820 0.950 . S
H809 C821 0.950 . S
C810 H802 0.950 . S
C810 C811 1.386 . S
C810 C812 1.391 . S
C811 C810 1.386 . S
C811 C815 1.393 . S
C812 H804 0.950 . S
C812 C810 1.391 . S
C812 C813 1.400 . S
C813 C812 1.400 . S
C813 C814 1.398 . S
C813 C819 1.491 . S
C814 H805 0.950 . S
C814 C813 1.398 . S
C814 C815 1.391 . S
C815 H803 0.950 . S
C815 C811 1.393 . S
C815 C814 1.391 . S
C816 H806 0.950 . S
C816 C817 1.386 . S
C816 C818 1.391 . S
C817 C816 1.386 . S
C817 C821 1.393 . S
C818 H807 0.950 . S
C818 C816 1.391 . S
C818 C819 1.400 . S
C819 C813 1.491 . S
C819 C818 1.400 . S
C819 C820 1.398 . S
C820 H808 0.950 . S
C820 C819 1.398 . S
C820 C821 1.391 . S
C821 H809 0.950 . S
C821 C817 1.393 . S
C821 C820 1.391 . S
H822 C830 0.950 . S
H823 C835 0.950 . S
H824 C832 0.950 . S
H825 C834 0.950 . S
H826 C836 0.950 . S
H827 C838 0.950 . S
H828 C840 0.950 . S
H829 C841 0.950 . S
C830 H822 0.950 . S
C830 C831 1.386 . S
C830 C832 1.391 . S
C831 C830 1.386 . S
C831 C835 1.393 . S
C832 H824 0.950 . S
C832 C830 1.391 . S
C832 C833 1.400 . S
C833 C832 1.400 . S
C833 C834 1.398 . S
C833 C839 1.491 . S
C834 H825 0.950 . S
C834 C833 1.398 . S
C834 C835 1.391 . S
C835 H823 0.950 . S
C835 C831 1.393 . S
C835 C834 1.391 . S
C836 H826 0.950 . S
C836 C837 1.386 . S
C836 C838 1.391 1_554 S
C837 C836 1.386 . S
C837 C841 1.393 1_554 S
C838 H827 0.950 . S
C838 C836 1.391 1_556 S
C838 C839 1.400 . S
C839 C833 1.491 . S
C839 C838 1.400 . S
C839 C840 1.398 . S
C840 H828 0.950 . S
C840 C839 1.398 . S
C840 C841 1.391 . S
C841 H829 0.950 . S
C841 C837 1.393 1_556 S
C841 C840 1.391 . S
H842 C850 0.950 . S
H843 C855 0.950 . S
H844 C852 0.950 . S
H845 C854 0.950 . S
H846 C856 0.950 . S
H847 C858 0.950 1_545 S
H848 C860 0.950 . S
H849 C861 0.950 . S
C850 H842 0.950 . S
C850 C851 1.386 1_565 S
C850 C852 1.391 . S
C851 C850 1.386 1_545 S
C851 C855 1.393 . S
C852 H844 0.950 . S
C852 C850 1.391 . S
C852 C853 1.400 . S
C853 C852 1.400 . S
C853 C854 1.398 1_565 S
C853 C859 1.491 . S
C854 H845 0.950 . S
C854 C853 1.398 1_545 S
C854 C855 1.391 . S
C855 H843 0.950 . S
C855 C851 1.393 . S
C855 C854 1.391 . S
C856 H846 0.950 . S
C856 C857 1.386 . S
C856 C858 1.391 . S
C857 C856 1.386 . S
C857 C861 1.393 . S
C858 H847 0.950 1_565 S
C858 C856 1.391 . S
C858 C859 1.400 . S
C859 C853 1.491 . S
C859 C858 1.400 . S
C859 C860 1.398 . S
C860 H848 0.950 . S
C860 C859 1.398 . S
C860 C861 1.391 . S
C861 H849 0.950 . S
C861 C857 1.393 . S
C861 C860 1.391 . S
H862 C870 0.950 . S
H863 C875 0.950 . S
H864 C872 0.950 . S
H865 C874 0.950 . S
H866 C876 0.950 . S
H867 C878 0.950 . S
H868 C880 0.950 . S
H869 C881 0.950 . S
C870 H862 0.950 . S
C870 C871 1.386 . S
C870 C872 1.391 . S
C871 C870 1.386 . S
C871 C875 1.393 . S
C872 H864 0.950 . S
C872 C870 1.391 . S
C872 C873 1.400 . S
C873 C872 1.400 . S
C873 C874 1.398 . S
C873 C879 1.491 . S
C874 H865 0.950 . S
C874 C873 1.398 . S
C874 C875 1.391 . S
C875 H863 0.950 . S
C875 C871 1.393 . S
C875 C874 1.391 . S
C876 H866 0.950 . S
C876 C877 1.386 . S
C876 C878 1.391 . S
C877 C876 1.386 . S
C877 C881 1.393 . S
C878 H867 0.950 . S
C878 C876 1.391 . S
C878 C879 1.400 . S
C879 C873 1.491 . S
C879 C878 1.400 . S
C879 C880 1.398 . S
C880 H868 0.950 . S
C880 C879 1.398 . S
C880 C881 1.391 . S
C881 H869 0.950 . S
C881 C877 1.393 . S
C881 C880 1.391 . S
H882 C890 0.950 . S
H883 C895 0.950 . S
H884 C892 0.950 . S
H885 C894 0.950 . S
H886 C896 0.950 . S
H887 C898 0.950 . S
H888 C900 0.950 . S
H889 C901 0.950 . S
C890 H882 0.950 . S
C890 C891 1.386 . S
C890 C892 1.391 . S
C891 C890 1.386 . S
C891 C895 1.393 . S
C892 H884 0.950 . S
C892 C890 1.391 . S
C892 C893 1.400 . S
C893 C892 1.400 . S
C893 C894 1.398 . S
C893 C899 1.491 . S
C894 H885 0.950 . S
C894 C893 1.398 . S
C894 C895 1.391 . S
C895 H883 0.950 . S
C895 C891 1.393 . S
C895 C894 1.391 . S
C896 H886 0.950 . S
C896 C897 1.386 . S
C896 C898 1.391 . S
C897 C896 1.386 . S
C897 C901 1.393 . S
C898 H887 0.950 . S
C898 C896 1.391 . S
C898 C899 1.400 . S
C899 C893 1.491 . S
C899 C898 1.400 . S
C899 C900 1.398 . S
C900 H888 0.950 . S
C900 C899 1.398 . S
C900 C901 1.391 . S
C901 H889 0.950 . S
C901 C897 1.393 . S
C901 C900 1.391 . S
H902 C910 0.950 . S
H903 C915 0.950 . S
H904 C912 0.950 . S
H905 C914 0.950 . S
H906 C916 0.950 . S
H907 C918 0.950 . S
H908 C920 0.950 . S
H909 C921 0.950 . S
C910 H902 0.950 . S
C910 C911 1.386 . S
C910 C912 1.391 . S
C911 C910 1.386 . S
C911 C915 1.393 . S
C912 H904 0.950 . S
C912 C910 1.391 . S
C912 C913 1.400 . S
C913 C912 1.400 . S
C913 C914 1.398 . S
C913 C919 1.491 . S
C914 H905 0.950 . S
C914 C913 1.398 . S
C914 C915 1.391 . S
C915 H903 0.950 . S
C915 C911 1.393 . S
C915 C914 1.391 . S
C916 H906 0.950 . S
C916 C917 1.386 . S
C916 C918 1.391 . S
C917 C916 1.386 . S
C917 C921 1.393 . S
C918 H907 0.950 . S
C918 C916 1.391 . S
C918 C919 1.400 . S
C919 C913 1.491 . S
C919 C918 1.400 . S
C919 C920 1.398 . S
C920 H908 0.950 . S
C920 C919 1.398 . S
C920 C921 1.391 . S
C921 H909 0.950 . S
C921 C917 1.393 . S
C921 C920 1.391 . S
H922 C930 0.950 . S
H923 C935 0.950 . S
H924 C932 0.950 . S
H925 C934 0.950 . S
H926 C936 0.950 . S
H927 C938 0.950 . S
H928 C940 0.950 . S
H929 C941 0.950 . S
C930 H922 0.950 . S
C930 C931 1.386 . S
C930 C932 1.391 . S
C931 C930 1.386 . S
C931 C935 1.393 . S
C932 H924 0.950 . S
C932 C930 1.391 . S
C932 C933 1.400 . S
C933 C932 1.400 . S
C933 C934 1.398 . S
C933 C939 1.491 . S
C934 H925 0.950 . S
C934 C933 1.398 . S
C934 C935 1.391 . S
C935 H923 0.950 . S
C935 C931 1.393 . S
C935 C934 1.391 . S
C936 H926 0.950 . S
C936 C937 1.386 . S
C936 C938 1.391 . S
C937 C936 1.386 . S
C937 C941 1.393 . S
C938 H927 0.950 . S
C938 C936 1.391 . S
C938 C939 1.400 . S
C939 C933 1.491 . S
C939 C938 1.400 . S
C939 C940 1.398 . S
C940 H928 0.950 . S
C940 C939 1.398 . S
C940 C941 1.391 . S
C941 H929 0.950 . S
C941 C937 1.393 . S
C941 C940 1.391 . S
H942 C950 0.950 . S
H943 C955 0.950 . S
H944 C952 0.950 . S
H945 C954 0.950 . S
H946 C956 0.950 . S
H947 C958 0.950 . S
H948 C960 0.950 . S
H949 C961 0.950 . S
C950 H942 0.950 . S
C950 C951 1.386 . S
C950 C952 1.391 . S
C951 C950 1.386 . S
C951 C955 1.393 . S
C952 H944 0.950 . S
C952 C950 1.391 . S
C952 C953 1.400 . S
C953 C952 1.400 . S
C953 C954 1.398 . S
C953 C959 1.491 . S
C954 H945 0.950 . S
C954 C953 1.398 . S
C954 C955 1.391 . S
C955 H943 0.950 . S
C955 C951 1.393 . S
C955 C954 1.391 . S
C956 H946 0.950 . S
C956 C957 1.386 . S
C956 C958 1.391 . S
C957 C956 1.386 . S
C957 C961 1.393 . S
C958 H947 0.950 . S
C958 C956 1.391 . S
C958 C959 1.400 . S
C959 C953 1.491 . S
C959 C958 1.400 . S
C959 C960 1.398 . S
C960 H948 0.950 . S
C960 C959 1.398 . S
C960 C961 1.391 . S
C961 H949 0.950 . S
C961 C957 1.393 . S
C961 C960 1.391 . S
H962 C970 0.950 . S
H963 C975 0.950 . S
H964 C972 0.950 . S
H965 C974 0.950 . S
H966 C976 0.950 . S
H967 C978 0.950 . S
H968 C980 0.950 1_554 S
H969 C981 0.950 . S
C970 H962 0.950 . S
C970 C971 1.386 . S
C970 C972 1.391 . S
C971 C970 1.386 . S
C971 C975 1.393 . S
C972 H964 0.950 . S
C972 C970 1.391 . S
C972 C973 1.400 . S
C973 C972 1.400 . S
C973 C974 1.398 . S
C973 C979 1.491 . S
C974 H965 0.950 . S
C974 C973 1.398 . S
C974 C975 1.391 . S
C975 H963 0.950 . S
C975 C971 1.393 . S
C975 C974 1.391 . S
C976 H966 0.950 . S
C976 C977 1.386 . S
C976 C978 1.391 . S
C977 C976 1.386 . S
C977 C981 1.393 . S
C978 H967 0.950 . S
C978 C976 1.391 . S
C978 C979 1.400 1_556 S
C979 C973 1.491 . S
C979 C978 1.400 1_554 S
C979 C980 1.398 1_554 S
C980 H968 0.950 1_556 S
C980 C979 1.398 1_556 S
C980 C981 1.391 . S
C981 H969 0.950 . S
C981 C977 1.393 . S
C981 C980 1.391 . S
H982 C990 0.950 . S
H983 C995 0.950 . S
H984 C992 0.950 . S
H985 C994 0.950 . S
H986 C996 0.950 . S
H987 C998 0.950 . S
H988 C1000 0.950 . S
H989 C1001 0.950 . S
C990 H982 0.950 . S
C990 C991 1.386 . S
C990 C992 1.391 . S
C991 C990 1.386 . S
C991 C995 1.393 . S
C992 H984 0.950 . S
C992 C990 1.391 . S
C992 C993 1.400 . S
C993 C992 1.400 . S
C993 C994 1.398 . S
C993 C999 1.491 . S
C994 H985 0.950 . S
C994 C993 1.398 . S
C994 C995 1.391 . S
C995 H983 0.950 . S
C995 C991 1.393 . S
C995 C994 1.391 . S
C996 H986 0.950 . S
C996 C997 1.386 . S
C996 C998 1.391 . S
C997 C996 1.386 . S
C997 C1001 1.393 . S
C998 H987 0.950 . S
C998 C996 1.391 . S
C998 C999 1.400 . S
C999 C993 1.491 . S
C999 C998 1.400 . S
C999 C1000 1.398 . S
C1000 H988 0.950 . S
C1000 C999 1.398 . S
C1000 C1001 1.391 . S
C1001 H989 0.950 . S
C1001 C997 1.393 . S
C1001 C1000 1.391 . S
C537 C514 1.252 . S
C531 C51 1.235 . S
C551 C125 1.522 . S
C557 C449 1.525 . S
C571 C217 2.507 . S
C577 C467 2.518 . S
C591 C291 1.652 . S
C597 C480 1.653 . S
C617 C488 0.700 . S
C611 C347 0.697 . S
C631 C421 0.966 . S
C637 C500 0.970 . S
C651 C143 2.384 . S
C657 C462 2.383 . S
C671 C199 1.381 . S
C677 C475 1.383 . S
C691 C273 0.626 . S
C697 C493 0.630 . S
C717 C499 1.498 . S
C711 C365 1.488 . S
C737 C519 1.878 . S
C731 C439 1.882 . S
C757 C454 2.357 . S
C751 C69 2.344 . S
C771 C63 1.438 . S
C777 C460 1.523 . S
C791 C137 1.627 . S
C797 C473 1.704 . S
C817 C487 1.431 . S
C811 C187 1.397 . S
C831 C261 1.609 . S
C837 C501 1.651 . S
C857 C513 1.350 . S
C851 C359 1.269 . S
C877 C448 1.269 . S
C871 C433 1.198 . S
C897 C512 1.797 . S
C891 C113 1.762 . S
C911 C211 1.315 . S
C917 C447 1.386 . S
C937 C461 1.652 . S
C931 C285 1.566 . S
C951 C335 1.271 . S
C957 C474 1.312 . S
C971 C409 1.494 . S
C977 C486 1.538 . S
C991 C39 1.669 . S
C997 C506 1.704 . S
