# Generated by pormake.
# Topology pth, (4,4)-cn, num edge types: 1
# Building blocks:
#     Node 0, Type 0, BuildingBlock: TATPOV_clean_sbu_0, # of connection points: 4
#     Node 1, Type 0, BuildingBlock: TATPOV_clean_sbu_0, # of connection points: 4
#     Node 2, Type 0, BuildingBlock: TATPOV_clean_sbu_0, # of connection points: 4
#     Node 3, Type 1, BuildingBlock: NAWXER_clean_linker_0, # of connection points: 4
#     Node 4, Type 1, BuildingBlock: NAWXER_clean_linker_0, # of connection points: 4
#     Node 5, Type 1, BuildingBlock: NAWXER_clean_linker_0, # of connection points: 4
#     Edge 6, Type (0, 1), BuildingBlock: EZIPEK_clean_linker_0, # of connection points: 2
#     Edge 7, Type (0, 1), BuildingBlock: EZIPEK_clean_linker_0, # of connection points: 2
#     Edge 8, Type (0, 1), BuildingBlock: EZIPEK_clean_linker_0, # of connection points: 2
#     Edge 9, Type (0, 1), BuildingBlock: EZIPEK_clean_linker_0, # of connection points: 2
#     Edge 10, Type (0, 1), BuildingBlock: EZIPEK_clean_linker_0, # of connection points: 2
#     Edge 11, Type (0, 1), BuildingBlock: EZIPEK_clean_linker_0, # of connection points: 2
#     Edge 12, Type (0, 1), BuildingBlock: EZIPEK_clean_linker_0, # of connection points: 2
#     Edge 13, Type (0, 1), BuildingBlock: EZIPEK_clean_linker_0, # of connection points: 2
#     Edge 14, Type (0, 1), BuildingBlock: EZIPEK_clean_linker_0, # of connection points: 2
#     Edge 15, Type (0, 1), BuildingBlock: EZIPEK_clean_linker_0, # of connection points: 2
#     Edge 16, Type (0, 1), BuildingBlock: EZIPEK_clean_linker_0, # of connection points: 2
#     Edge 17, Type (0, 1), BuildingBlock: EZIPEK_clean_linker_0, # of connection points: 2
# Relax obj value: 0.037
# Max RMSD: 0.162
# Mean RMSD: 0.080
data_MOF--net-pth--node1-TATPOV_clean_sbu_0--node2-NAWXER_clean_linker_0--edge1-EZIPEK_clean_linker_0
_symmetry_space_group_name_H-M    P1
_symmetry_Int_Tables_number       1
_symmetry_cell_setting            triclinic
loop_
_symmetry_equiv_pos_as_xyz
'x, y, z'
_cell_length_a     22.909385
_cell_length_b     22.685407
_cell_length_c     49.73577
_cell_angle_alpha  92.640281
_cell_angle_beta   92.263456
_cell_angle_gamma 120.96055
loop_
_atom_site_label
_atom_site_type_symbol
_atom_site_fract_x
_atom_site_fract_y
_atom_site_fract_z
_atom_type_partial_charge
Zn0 Zn 0.09911 0.98442 0.01628 0.0
Zn1 Zn 0.06793 0.0586 0.05006 0.0
O2 O 0.06875 0.98591 0.07294 0.0
O3 O 0.1069 0.9333 0.04708 0.0
O4 O 0.0505 0.11714 0.07613 0.0
O5 O 0.17614 0.07203 0.00373 0.0
O6 O 0.15534 0.13104 0.03422 0.0
C7 C 0.08609 0.94124 0.0694 0.0
C8 C 0.969 0.97168 0.00268 0.0
O9 O 0.98621 0.01707 0.02222 0.0
O10 O 0.00696 0.94817 0.99699 0.0
C11 C 0.07384 0.13044 0.10067 0.0
O12 O 0.10943 0.10429 0.10997 0.0
C13 C 0.18915 0.12925 0.01482 0.0
Zn14 Zn 0.16966 0.11974 0.3531 0.0
Zn15 Zn 0.05913 0.08018 0.3825 0.0
O16 O 0.13771 0.1 0.40992 0.0
O17 O 0.22734 0.1293 0.38661 0.0
O18 O 0.98172 0.06401 0.4051 0.0
O19 O 0.16263 0.19843 0.33951 0.0
O20 O 0.06654 0.15584 0.35961 0.0
C21 C 0.19962 0.11626 0.4088 0.0
C22 C 0.0533 0.97944 0.33975 0.0
O23 O 0.02527 -0.00885 0.3592 0.0
O24 O 0.11167 0.02513 0.33324 0.0
C25 C 0.98209 0.05851 0.43042 0.0
O26 O 0.03353 0.05917 0.44334 0.0
C27 C 0.10857 0.19816 0.34412 0.0
Zn28 Zn 0.10189 0.9223 0.73986 0.0
Zn29 Zn 0.03047 0.96758 0.71089 0.0
O30 O 0.08261 0.94703 0.68302 0.0
O31 O 0.14187 0.91149 0.70574 0.0
O32 O 0.9685 0.98864 0.68893 0.0
O33 O 0.01468 0.84645 0.75382 0.0
O34 O 0.96204 0.89157 0.73288 0.0
C35 C 0.12608 0.928 0.68384 0.0
C36 C 0.13778 0.06465 0.75387 0.0
O37 O 0.09373 0.05455 0.73499 0.0
O38 O 0.1492 0.01753 0.75973 0.0
C39 C 0.9737 0.00095 0.66419 0.0
O40 O 0.02469 0.00481 0.65157 0.0
C41 C 0.96113 0.84807 0.74833 0.0
C42 C 0.9726 0.32559 0.26313 0.0
C43 C 0.02722 0.35814 0.28303 0.0
C44 C 0.95857 0.365 0.24622 0.0
C45 C -0.00131 0.43722 0.24928 0.0
C46 C 0.06548 0.43026 0.2867 0.0
C47 C 0.05085 0.46952 0.2701 0.0
C48 C -0.00975 0.4803 0.23012 0.0
C49 C 0.07774 0.36868 0.18513 0.0
C50 C 0.03298 0.32479 0.16348 0.0
C51 C 0.06643 0.41747 0.19811 0.0
C52 C 0.0101 0.42264 0.1896 0.0
C53 C 0.97661 0.3297 0.15504 0.0
C54 C 0.96553 0.37871 0.16791 0.0
C55 C -0.00104 0.47568 0.20236 0.0
C56 C 0.07609 0.7138 0.14782 0.0
C57 C 0.03082 0.73782 0.14583 0.0
C58 C 0.06335 0.66109 0.16439 0.0
C59 C 0.00553 0.63209 0.17941 0.0
C60 C 0.97269 0.70881 0.16063 0.0
C61 C 0.96001 0.65609 0.17732 0.0
C62 C -0.00578 0.57705 0.19709 0.0
C63 C 0.92174 0.67441 0.26825 0.0
C64 C 0.97997 0.74077 0.27106 0.0
C65 C 0.92179 0.62227 0.25222 0.0
C66 C 0.97928 0.6366 0.23834 0.0
C67 C 0.03667 0.75556 0.25658 0.0
C68 C 0.03634 0.70373 0.24026 0.0
C69 C 0.98269 0.5798 0.22464 0.0
H70 H 0.94256 0.26986 0.26011 0.0
H71 H 0.9177 0.33929 0.2304 0.0
H72 H 0.1078 0.45606 0.30194 0.0
H73 H 0.08228 0.52525 0.27273 0.0
H74 H 0.12177 0.36573 0.19167 0.0
H75 H 0.10219 0.45187 0.21447 0.0
H76 H 0.94202 0.29642 0.13819 0.0
H77 H 0.92219 0.38241 0.16095 0.0
H78 H 0.12083 0.73537 0.13631 0.0
H79 H 0.09912 0.64337 0.16569 0.0
H80 H 0.93691 0.72644 0.15899 0.0
H81 H 0.91442 0.63365 0.18832 0.0
H82 H 0.87766 0.66251 0.27933 0.0
H83 H 0.87767 0.57045 0.25111 0.0
H84 H 0.0819 0.80671 0.25858 0.0
H85 H 0.08157 0.71534 0.23006 0.0
N86 N 0.98198 0.53189 0.24019 0.0
N87 N 0.00107 0.52446 0.18689 0.0
C88 C 0.78208 0.09667 0.51274 0.0
C89 C 0.76704 0.05355 0.48916 0.0
C90 C 0.72927 0.09324 0.52704 0.0
C91 C 0.66086 0.04605 0.51806 0.0
C92 C 0.69887 0.00803 0.47969 0.0
C93 C 0.64609 0.00458 0.49399 0.0
C94 C 0.60431 0.03839 0.53379 0.0
C95 C 0.72442 0.96946 0.58196 0.0
C96 C 0.75649 0.01182 0.60578 0.0
C97 C 0.6723 0.97235 0.56772 0.0
C98 C 0.65233 0.01842 0.57694 0.0
C99 C 0.73523 0.05631 0.61546 0.0
C100 C 0.68323 0.05935 0.60118 0.0
C101 C 0.60006 0.02505 0.56131 0.0
C102 C 0.31017 0.94248 0.57904 0.0
C103 C 0.31948 0.96962 0.60582 0.0
C104 C 0.36677 0.95937 0.56429 0.0
C105 C 0.43335 0.00469 0.57598 0.0
C106 C 0.38578 0.01415 0.6176 0.0
C107 C 0.44225 0.03128 0.60285 0.0
C108 C 0.49402 0.02122 0.56107 0.0
C109 C 0.38828 0.11041 0.51505 0.0
C110 C 0.36609 0.08236 0.48833 0.0
C111 C 0.43142 0.09564 0.53012 0.0
C112 C 0.45191 0.05174 0.51876 0.0
C113 C 0.38685 0.03904 0.47692 0.0
C114 C 0.4297 0.02413 0.49196 0.0
C115 C 0.50002 0.03794 0.53388 0.0
H116 H 0.83457 0.13238 0.52016 0.0
H117 H 0.74179 0.12674 0.54527 0.0
H118 H 0.68664 0.97474 0.46142 0.0
H119 H 0.59368 0.96823 0.48665 0.0
H120 H 0.73997 0.93445 0.57439 0.0
H121 H 0.64805 0.93914 0.54939 0.0
H122 H 0.75928 0.08893 0.63394 0.0
H123 H 0.66816 0.09479 0.60871 0.0
H124 H 0.25926 0.90799 0.5697 0.0
H125 H 0.35847 0.93632 0.54389 0.0
H126 H 0.39372 0.03562 0.63826 0.0
H127 H 0.49297 0.06566 0.6124 0.0
H128 H 0.37268 0.14405 0.52408 0.0
H129 H 0.4495 0.1193 0.55048 0.0
H130 H 0.36999 0.01696 0.4563 0.0
H131 H 0.44537 -0.00921 0.48268 0.0
N132 N 0.55429 0.04455 0.52116 0.0
N133 N 0.54502 0.01675 0.57388 0.0
C134 C 0.35234 0.30894 0.8411 0.0
C135 C 0.31262 0.31433 0.82028 0.0
C136 C 0.40078 0.36773 0.85705 0.0
C137 C 0.40896 0.43215 0.85257 0.0
C138 C 0.3206 0.37849 0.81583 0.0
C139 C 0.3687 0.43713 0.83185 0.0
C140 C 0.46372 0.49567 0.86739 0.0
C141 C 0.32357 0.36184 0.92866 0.0
C142 C 0.35768 0.35617 0.95162 0.0
C143 C 0.35965 0.41191 0.91072 0.0
C144 C 0.4309 0.4551 0.91486 0.0
C145 C 0.42803 0.4019 0.95661 0.0
C146 C 0.46434 0.45025 0.93827 0.0
C147 C 0.47234 0.50705 0.89589 0.0
C148 C 0.69565 0.80543 0.91318 0.0
C149 C 0.73261 0.80007 0.93513 0.0
C150 C 0.64379 0.74576 0.89862 0.0
C151 C 0.62775 0.68053 0.9063 0.0
C152 C 0.71612 0.73487 0.94281 0.0
C153 C 0.66367 0.67555 0.92867 0.0
C154 C 0.57191 0.61689 0.89196 0.0
C155 C 0.74171 0.68883 0.83743 0.0
C156 C 0.72983 0.70855 0.8125 0.0
C157 C 0.68891 0.65636 0.85441 0.0
C158 C 0.62337 0.64348 0.84682 0.0
C159 C 0.66447 0.69566 0.80473 0.0
C160 C 0.6113 0.66263 0.82171 0.0
C161 C 0.56648 0.60308 0.86381 0.0
H162 H 0.34703 0.25963 0.84449 0.0
H163 H 0.43274 0.3632 0.87245 0.0
H164 H 0.29053 0.38325 0.79965 0.0
H165 H 0.37518 0.48664 0.82785 0.0
H166 H 0.26894 0.32773 0.92476 0.0
H167 H 0.33171 0.41658 0.89373 0.0
H168 H 0.45503 0.39908 0.97442 0.0
H169 H 0.51908 0.48343 0.94228 0.0
H170 H 0.70752 0.85553 0.90722 0.0
H171 H 0.61568 0.75043 0.88165 0.0
H172 H 0.74405 0.72998 0.9598 0.0
H173 H 0.65174 0.62567 0.93496 0.0
H174 H 0.79187 0.69828 0.84365 0.0
H175 H 0.69898 0.63966 0.87317 0.0
H176 H 0.65468 0.71078 0.78552 0.0
H177 H 0.56081 0.65189 0.81526 0.0
N178 N 0.51158 0.54383 0.85252 0.0
N179 N 0.52557 0.56799 0.90688 0.0
C180 C 0.02609 0.15905 0.14034 0.0
C181 C 0.06657 0.18079 0.11787 0.0
C182 C 0.08517 0.29689 0.12542 0.0
C183 C 0.04699 0.27597 0.14852 0.0
N184 N -0.00962 0.19188 0.18084 0.0
N185 N 0.14605 0.27262 0.09215 0.0
C186 C 0.02039 0.20842 0.15691 0.0
C187 C 0.09934 0.2504 0.11127 0.0
N188 N -0.00926 0.09074 0.14509 0.0
N189 N 0.10668 0.36079 0.11671 0.0
H190 H 0.15841 0.24024 0.08154 0.0
H191 H 0.17711 0.32421 0.08843 0.0
H192 H 0.09996 0.39753 0.12718 0.0
H193 H 0.12727 0.376 0.09821 0.0
H194 H 0.95441 0.07028 0.15926 0.0
H195 H -0.006 0.05321 0.13347 0.0
H196 H 0.97654 0.14605 0.18958 0.0
H197 H 0.9838 0.2263 0.1931 0.0
C198 C 0.91582 0.11307 0.44472 0.0
C199 C 0.92737 0.05735 0.44565 0.0
C200 C 0.83902 0.00348 0.47762 0.0
C201 C 0.82283 0.05539 0.47442 0.0
N202 N 0.83824 0.154 0.45206 0.0
N203 N 0.89349 0.94424 0.45956 0.0
C204 C 0.85906 0.10862 0.45713 0.0
C205 C 0.88737 0.00113 0.46126 0.0
N206 N 0.96091 0.17167 0.43312 0.0
N207 N 0.80936 0.95744 0.49676 0.0
H208 H 0.9277 0.94018 0.44752 0.0
H209 H 0.86063 0.89867 0.46818 0.0
H210 H 0.77325 0.95722 0.50897 0.0
H211 H 0.82458 0.92323 0.50209 0.0
H212 H 0.95908 0.21663 0.43437 0.0
H213 H 0.00428 0.17797 0.42444 0.0
H214 H 0.85772 0.18895 0.43727 0.0
H215 H 0.79748 0.15304 0.46111 0.0
C216 C 0.84666 0.74467 0.75504 0.0
C217 C 0.90187 0.81072 0.7645 0.0
C218 C 0.83964 0.81315 0.80305 0.0
C219 C 0.78714 0.74449 0.79503 0.0
N220 N 0.74373 0.64077 0.76564 0.0
N221 N 0.95651 0.90434 0.79933 0.0
C222 C 0.79126 0.70906 0.77155 0.0
C223 C 0.89998 0.84395 0.78906 0.0
N224 N 0.84683 0.71661 0.73015 0.0
N225 N 0.83083 0.8496 0.82353 0.0
H226 H 0.0016 0.92914 0.78954 0.0
H227 H 0.96091 0.92702 0.81856 0.0
H228 H 0.78696 0.8289 0.83415 0.0
H229 H 0.86403 0.90213 0.82844 0.0
H230 H 0.80487 0.67207 0.72078 0.0
H231 H 0.8877 0.74064 0.71799 0.0
H232 H 0.74789 0.61017 0.7505 0.0
H233 H 0.70234 0.61309 0.7772 0.0
C234 C 0.10699 0.91119 0.11542 0.0
C235 C 0.07089 0.89043 0.08963 0.0
C236 C 0.00941 0.76985 0.10064 0.0
C237 C 0.04275 0.79086 0.12692 0.0
N238 N 0.11481 0.88128 0.16116 0.0
N239 N 0.97676 0.80332 0.05989 0.0
C240 C 0.08905 0.86161 0.13489 0.0
C241 C 0.01898 0.82064 0.08284 0.0
N242 N 0.15988 0.97757 0.1209 0.0
N243 N 0.97004 0.70123 0.09242 0.0
H244 H 0.981 0.83912 0.04647 0.0
H245 H 0.93338 0.75475 0.05541 0.0
H246 H 0.96035 0.6622 0.10505 0.0
H247 H 0.95127 0.68289 0.07249 0.0
H248 H 0.19292 -0.00562 0.13823 0.0
H249 H 0.17397 0.01511 0.1071 0.0
H250 H 0.14326 0.93246 0.16897 0.0
H251 H 0.10332 0.84609 0.1758 0.0
C252 C 0.2116 0.04868 0.44502 0.0
C253 C 0.23748 0.11209 0.43275 0.0
C254 C 0.34679 0.15959 0.4593 0.0
C255 C 0.32009 0.09688 0.47196 0.0
N256 N 0.22267 0.98974 0.48253 0.0
N257 N 0.32255 0.23279 0.43285 0.0
C258 C 0.25082 0.0442 0.46673 0.0
C259 C 0.30293 0.16922 0.44141 0.0
N260 N 0.15225 -0.00887 0.43473 0.0
N261 N 0.41461 0.20857 0.4634 0.0
H262 H 0.29094 0.24152 0.42009 0.0
H263 H 0.36703 0.27776 0.44039 0.0
H264 H 0.44807 0.20387 0.47671 0.0
H265 H 0.43868 0.2517 0.4523 0.0
H266 H 0.13559 0.94208 0.44098 0.0
H267 H 0.12246 0.99051 0.41823 0.0
H268 H 0.17062 0.95324 0.48143 0.0
H269 H 0.25033 0.98491 0.49857 0.0
C270 C 0.24387 0.17997 0.76068 0.0
C271 C 0.17827 0.13266 0.76887 0.0
C272 C 0.19707 0.20971 0.80867 0.0
C273 C 0.26532 0.25318 0.80203 0.0
N274 N 0.35639 0.27951 0.77305 0.0
N275 N 0.09132 0.09926 0.80037 0.0
C276 C 0.28939 0.23856 0.77827 0.0
C277 C 0.15425 0.14689 0.7927 0.0
N278 N 0.26199 0.16911 0.73588 0.0
N279 N 0.17324 0.22916 0.83003 0.0
H280 H 0.05733 0.0546 0.78831 0.0
H281 H 0.07369 0.10213 0.81906 0.0
H282 H 0.20387 0.27409 0.84252 0.0
H283 H 0.12228 0.20355 0.83443 0.0
H284 H 0.30626 0.2049 0.72742 0.0
H285 H 0.22984 0.12619 0.72264 0.0
H286 H 0.37924 0.26735 0.75785 0.0
H287 H 0.39086 0.32411 0.78504 0.0
C288 C 0.93362 0.06328 0.6354 0.0
C289 C 0.91849 0.00394 0.64902 0.0
C290 C 0.79657 0.95287 0.63629 0.0
C291 C 0.81234 0.00931 0.62072 0.0
N292 N 0.89617 0.11269 0.60152 0.0
N293 N 0.83765 0.88591 0.65754 0.0
C294 C 0.88104 0.06301 0.61912 0.0
C295 C 0.85048 0.94694 0.64819 0.0
N296 N -0.00255 0.12089 0.63889 0.0
N297 N 0.73008 0.90577 0.64028 0.0
H298 H 0.87586 0.87842 0.6656 0.0
H299 H 0.7901 0.84061 0.65485 0.0
H300 H 0.68905 0.9081 0.63174 0.0
H301 H 0.71587 0.86794 0.6539 0.0
H302 H 0.00952 0.1681 0.63182 0.0
H303 H 0.0371 0.1234 0.65093 0.0
H304 H 0.94581 0.1488 0.5973 0.0
H305 H 0.85895 0.11435 0.58935 0.0
C306 C 0.91052 0.94824 0.95712 0.0
C307 C 0.90561 0.94655 0.98541 0.0
C308 C 0.78169 0.87338 0.9782 0.0
C309 C 0.78911 0.86168 0.95067 0.0
N310 N 0.86101 0.88723 0.9134 0.0
N311 N 0.83612 0.90726 0.02348 0.0
C312 C 0.85338 0.90009 0.93975 0.0
C313 C 0.8409 0.91055 0.99623 0.0
N314 N 0.97017 -0.00437 0.94703 0.0
N315 N 0.71789 0.84763 0.98702 0.0
H316 H 0.8781 0.93361 0.03748 0.0
H317 H 0.79088 0.87477 0.0322 0.0
H318 H 0.67384 0.82029 0.97399 0.0
H319 H 0.70905 0.85917 0.0064 0.0
H320 H 0.97521 0.00323 0.92656 0.0
H321 H 0.01247 0.03222 0.95951 0.0
H322 H 0.90837 0.90788 0.90536 0.0
H323 H 0.82048 0.85236 0.89989 0.0
C324 C 0.02599 0.85789 0.33478 0.0
C325 C 0.01908 0.91147 0.3246 0.0
C326 C 0.97442 0.84698 0.28051 0.0
C327 C 0.98409 0.79465 0.2903 0.0
N328 N 0.00506 0.74187 0.32756 0.0
N329 N 0.97352 0.95234 0.29076 0.0
C330 C 0.00485 0.79719 0.31782 0.0
C331 C 0.98873 0.90429 0.29836 0.0
N332 N 0.05633 0.86694 0.36011 0.0
N333 N 0.95391 0.84277 0.25392 0.0
H334 H 0.98353 -0.00529 0.30361 0.0
H335 H 0.94636 0.94781 0.27275 0.0
H336 H 0.93981 0.79976 0.2407 0.0
H337 H 0.95334 0.88259 0.24459 0.0
H338 H 0.07091 0.83404 0.36766 0.0
H339 H 0.07009 0.90973 0.37339 0.0
H340 H 0.0128 0.73737 0.34793 0.0
H341 H -0.00731 0.69765 0.31547 0.0
C342 C 0.17203 0.87795 0.65083 0.0
C343 C 0.16588 0.9344 0.6602 0.0
C344 C 0.24525 0.00562 0.62752 0.0
C345 C 0.26031 0.95341 0.62176 0.0
N346 N 0.24173 0.84076 0.62901 0.0
N347 N 0.20543 0.05631 0.66016 0.0
C348 C 0.22418 0.88937 0.63347 0.0
C349 C 0.20398 -0.00075 0.64901 0.0
N350 N 0.12732 0.81336 0.65824 0.0
N351 N 0.2707 0.06149 0.61247 0.0
H352 H 0.17881 0.05586 0.6767 0.0
H353 H 0.23858 0.10596 0.65465 0.0
H354 H 0.3013 0.06767 0.59656 0.0
H355 H 0.25585 0.09784 0.61397 0.0
H356 H 0.12513 0.76906 0.65012 0.0
H357 H 0.08787 0.80335 0.67056 0.0
H358 H 0.22269 0.79648 0.63945 0.0
H359 H 0.27903 0.8469 0.61615 0.0
C360 C 0.29958 0.20194 0.99396 0.0
C361 C 0.2376 0.19354 0.00253 0.0
C362 C 0.26526 0.30194 0.98354 0.0
C363 C 0.31942 0.30255 0.97054 0.0
N364 N 0.38128 0.24535 0.95999 0.0
N365 N 0.15435 0.22962 -0.00034 0.0
C366 C 0.33519 0.25069 0.97493 0.0
C367 C 0.21857 0.24225 0.99607 0.0
N368 N 0.32493 0.16409 0.00424 0.0
N369 N 0.25846 0.35838 0.98409 0.0
H370 H 0.11548 0.18425 0.00653 0.0
H371 H 0.1371 0.26105 0.99269 0.0
H372 H 0.29274 0.40377 0.97562 0.0
H373 H 0.22329 0.36249 0.99548 0.0
H374 H 0.37292 0.17256 0.00035 0.0
H375 H 0.30133 0.12976 0.019 0.0
H376 H 0.38929 0.20417 0.96067 0.0
H377 H 0.40643 0.27798 0.94494 0.0
C378 C 0.06981 0.2834 0.34243 0.0
C379 C 0.08948 0.24077 0.32875 0.0
C380 C 0.07452 0.28051 0.28554 0.0
C381 C 0.04769 0.31707 0.29884 0.0
N382 N 0.00814 0.3436 0.33929 0.0
N383 N 0.09262 0.18487 0.2866 0.0
C384 C 0.04199 0.3158 0.32715 0.0
C385 C 0.08703 0.23546 0.3001 0.0
N386 N 0.07976 0.29476 0.36991 0.0
N387 N 0.09 0.29016 0.25922 0.0
H388 H 0.09812 0.148 0.29625 0.0
H389 H 0.08407 0.17471 0.26571 0.0
H390 H 0.08297 0.32382 0.24785 0.0
H391 H 0.11611 0.26994 0.24951 0.0
H392 H 0.07258 0.33068 0.38072 0.0
H393 H 0.1014 0.27308 0.38173 0.0
H394 H -0.00368 0.33792 0.35937 0.0
H395 H 0.98629 0.36693 0.32865 0.0
loop_
_geom_bond_atom_site_label_1
_geom_bond_atom_site_label_2
_geom_bond_distance
_geom_bond_site_symmetry_2
_ccdc_geom_bond_type
Zn0 O3 2.031 . S
Zn0 O5 2.049 1_564 S
Zn0 O10 2.067 . S
Zn1 O2 1.962 . S
Zn1 O4 1.986 . S
Zn1 O6 1.996 . S
Zn1 O9 1.943 . S
O2 Zn1 1.962 . S
O2 C7 1.254 1_545 S
O3 Zn0 2.031 . S
O3 C7 1.269 . S
O4 Zn1 1.986 . S
O4 C11 1.262 . S
O5 Zn0 2.049 1_546 S
O5 C13 1.260 1_556 S
O6 Zn1 1.996 . S
O6 C13 1.257 . S
C7 O2 1.254 1_565 S
C7 O3 1.269 . S
C8 O9 1.249 1_665 S
C8 O10 1.270 1_655 S
O9 Zn1 1.943 . S
O9 C8 1.249 1_445 S
O10 Zn0 2.067 . S
O10 C8 1.270 1_455 S
C11 O4 1.262 . S
C11 O12 1.232 . S
O12 C11 1.232 . S
C13 O5 1.260 1_554 S
C13 O6 1.257 . S
Zn14 O17 2.031 . S
Zn14 O19 2.049 . S
Zn14 O24 2.067 . S
Zn15 O16 1.962 . S
Zn15 O18 1.986 1_455 S
Zn15 O20 1.996 . S
Zn15 O23 1.943 1_445 S
O16 Zn15 1.962 . S
O16 C21 1.254 . S
O17 Zn14 2.031 . S
O17 C21 1.269 . S
O18 Zn15 1.986 1_655 S
O18 C25 1.262 . S
O19 Zn14 2.049 . S
O19 C27 1.260 . S
O20 Zn15 1.996 . S
O20 C27 1.257 . S
C21 O16 1.254 . S
C21 O17 1.269 . S
C22 O23 1.249 1_455 S
C22 O24 1.270 1_565 S
O23 Zn15 1.943 1_665 S
O23 C22 1.249 1_655 S
O24 Zn14 2.067 . S
O24 C22 1.270 1_545 S
C25 O18 1.262 . S
C25 O26 1.232 . S
O26 C25 1.232 . S
C27 O19 1.260 . S
C27 O20 1.257 . S
Zn28 O31 2.031 1_565 S
Zn28 O33 2.049 . S
Zn28 O38 2.067 1_565 S
Zn29 O30 1.962 1_545 S
Zn29 O32 1.993 1_445 S
Zn29 O34 1.996 1_445 S
Zn29 O37 1.943 . S
O30 Zn29 1.962 1_565 S
O30 C35 1.254 . S
O31 Zn28 2.031 1_545 S
O31 C35 1.269 1_545 S
O32 Zn29 1.993 1_665 S
O32 C39 1.250 1_565 S
O33 Zn28 2.049 . S
O33 C41 1.260 1_455 S
O34 Zn29 1.996 1_665 S
O34 C41 1.257 . S
C35 O30 1.254 . S
C35 O31 1.269 1_565 S
C36 O37 1.249 . S
C36 O38 1.270 . S
O37 Zn29 1.943 . S
O37 C36 1.249 . S
O38 Zn28 2.067 1_545 S
O38 C36 1.270 . S
C39 O32 1.250 1_545 S
C39 O40 1.232 1_655 S
O40 C39 1.232 1_455 S
C41 O33 1.260 1_655 S
C41 O34 1.257 . S
C42 C43 1.384 . S
C42 C44 1.384 . S
C42 H70 0.931 1_455 S
C43 C42 1.384 . S
C43 C46 1.382 . S
C44 C42 1.384 . S
C44 C45 1.381 . S
C44 H71 0.930 1_455 S
C45 C44 1.381 . S
C45 C47 1.381 . S
C45 C48 1.487 . S
C46 C43 1.382 . S
C46 C47 1.387 . S
C46 H72 0.930 . S
C47 C45 1.381 . S
C47 C46 1.387 . S
C47 H73 0.931 . S
C48 C45 1.487 . S
C48 C55 1.399 . S
C48 N86 1.343 . S
C49 C50 1.384 . S
C49 C51 1.384 . S
C49 H74 0.931 . S
C50 C49 1.384 . S
C50 C53 1.382 . S
C51 C49 1.384 . S
C51 C52 1.381 . S
C51 H75 0.930 . S
C52 C51 1.381 . S
C52 C54 1.381 . S
C52 C55 1.487 . S
C53 C50 1.382 . S
C53 C54 1.387 . S
C53 H76 0.930 1_455 S
C54 C52 1.381 . S
C54 C53 1.387 . S
C54 H77 0.931 1_455 S
C55 C48 1.399 . S
C55 C52 1.487 . S
C55 N87 1.343 . S
C56 C57 1.384 . S
C56 C58 1.384 . S
C56 H78 0.931 . S
C57 C56 1.384 . S
C57 C60 1.382 . S
C58 C56 1.384 . S
C58 C59 1.381 . S
C58 H79 0.930 . S
C59 C58 1.381 . S
C59 C61 1.381 . S
C59 C62 1.487 . S
C60 C57 1.382 . S
C60 C61 1.387 . S
C60 H80 0.930 1_455 S
C61 C59 1.381 . S
C61 C60 1.387 . S
C61 H81 0.931 1_455 S
C62 C59 1.487 . S
C62 C69 1.399 . S
C62 N87 1.343 . S
C63 C64 1.384 . S
C63 C65 1.384 . S
C63 H82 0.931 1_455 S
C64 C63 1.384 . S
C64 C67 1.382 . S
C65 C63 1.384 . S
C65 C66 1.381 . S
C65 H83 0.930 1_455 S
C66 C65 1.381 . S
C66 C68 1.381 . S
C66 C69 1.487 . S
C67 C64 1.382 . S
C67 C68 1.387 . S
C67 H84 0.930 . S
C68 C66 1.381 . S
C68 C67 1.387 . S
C68 H85 0.931 . S
C69 C62 1.399 . S
C69 C66 1.487 . S
C69 N86 1.343 . S
H70 C42 0.931 1_655 S
H71 C44 0.930 1_655 S
H72 C46 0.930 . S
H73 C47 0.931 . S
H74 C49 0.931 . S
H75 C51 0.930 . S
H76 C53 0.930 1_655 S
H77 C54 0.931 1_655 S
H78 C56 0.931 . S
H79 C58 0.930 . S
H80 C60 0.930 1_655 S
H81 C61 0.931 1_655 S
H82 C63 0.931 1_655 S
H83 C65 0.930 1_655 S
H84 C67 0.930 . S
H85 C68 0.931 . S
N86 C48 1.343 . S
N86 C69 1.343 . S
N87 C55 1.343 . S
N87 C62 1.343 . S
C88 C89 1.384 . S
C88 C90 1.384 . S
C88 H116 0.931 . S
C89 C88 1.384 . S
C89 C92 1.382 . S
C90 C88 1.384 . S
C90 C91 1.381 . S
C90 H117 0.930 . S
C91 C90 1.381 . S
C91 C93 1.382 1_545 S
C91 C94 1.487 . S
C92 C89 1.382 . S
C92 C93 1.387 1_545 S
C92 H118 0.930 1_545 S
C93 C91 1.382 1_565 S
C93 C92 1.387 1_565 S
C93 H119 0.931 . S
C94 C91 1.487 . S
C94 C101 1.399 . S
C94 N132 1.343 . S
C95 C96 1.384 1_565 S
C95 C97 1.384 . S
C95 H120 0.931 . S
C96 C95 1.384 1_545 S
C96 C99 1.382 . S
C97 C95 1.384 . S
C97 C98 1.381 1_565 S
C97 H121 0.930 . S
C98 C97 1.381 1_545 S
C98 C100 1.381 . S
C98 C101 1.487 . S
C99 C96 1.382 . S
C99 C100 1.387 . S
C99 H122 0.930 . S
C100 C98 1.381 . S
C100 C99 1.387 . S
C100 H123 0.931 . S
C101 C94 1.399 . S
C101 C98 1.487 . S
C101 N133 1.343 . S
C102 C103 1.384 1_565 S
C102 C104 1.384 . S
C102 H124 0.931 . S
C103 C102 1.384 1_545 S
C103 C106 1.382 . S
C104 C102 1.384 . S
C104 C105 1.381 1_565 S
C104 H125 0.930 . S
C105 C104 1.381 1_545 S
C105 C107 1.381 . S
C105 C108 1.487 . S
C106 C103 1.382 . S
C106 C107 1.387 . S
C106 H126 0.930 . S
C107 C105 1.381 . S
C107 C106 1.387 . S
C107 H127 0.931 . S
C108 C105 1.487 . S
C108 C115 1.399 . S
C108 N133 1.343 . S
C109 C110 1.384 . S
C109 C111 1.384 . S
C109 H128 0.931 . S
C110 C109 1.384 . S
C110 C113 1.382 . S
C111 C109 1.384 . S
C111 C112 1.381 . S
C111 H129 0.930 . S
C112 C111 1.381 . S
C112 C114 1.382 1_545 S
C112 C115 1.487 . S
C113 C110 1.382 . S
C113 C114 1.389 1_545 S
C113 H130 0.930 1_545 S
C114 C112 1.382 1_565 S
C114 C113 1.389 1_565 S
C114 H131 0.929 . S
C115 C108 1.399 . S
C115 C112 1.487 . S
C115 N132 1.343 . S
H116 C88 0.931 . S
H117 C90 0.930 . S
H118 C92 0.930 1_565 S
H119 C93 0.931 . S
H120 C95 0.931 . S
H121 C97 0.930 . S
H122 C99 0.930 . S
H123 C100 0.931 . S
H124 C102 0.931 . S
H125 C104 0.930 . S
H126 C106 0.930 . S
H127 C107 0.931 . S
H128 C109 0.931 . S
H129 C111 0.930 . S
H130 C113 0.930 1_565 S
H131 C114 0.929 . S
N132 C94 1.343 . S
N132 C115 1.343 . S
N133 C101 1.343 . S
N133 C108 1.343 . S
C134 C135 1.384 . S
C134 C136 1.384 . S
C134 H162 0.931 . S
C135 C134 1.384 . S
C135 C138 1.382 . S
C136 C134 1.384 . S
C136 C137 1.381 . S
C136 H163 0.930 . S
C137 C136 1.381 . S
C137 C139 1.381 . S
C137 C140 1.487 . S
C138 C135 1.382 . S
C138 C139 1.387 . S
C138 H164 0.930 . S
C139 C137 1.381 . S
C139 C138 1.387 . S
C139 H165 0.931 . S
C140 C137 1.487 . S
C140 C147 1.399 . S
C140 N178 1.343 . S
C141 C142 1.384 . S
C141 C143 1.384 . S
C141 H166 0.931 . S
C142 C141 1.384 . S
C142 C145 1.382 . S
C143 C141 1.384 . S
C143 C144 1.381 . S
C143 H167 0.930 . S
C144 C143 1.381 . S
C144 C146 1.381 . S
C144 C147 1.487 . S
C145 C142 1.382 . S
C145 C146 1.387 . S
C145 H168 0.930 . S
C146 C144 1.381 . S
C146 C145 1.387 . S
C146 H169 0.931 . S
C147 C140 1.399 . S
C147 C144 1.487 . S
C147 N179 1.343 . S
C148 C149 1.384 . S
C148 C150 1.384 . S
C148 H170 0.931 . S
C149 C148 1.384 . S
C149 C152 1.382 . S
C150 C148 1.384 . S
C150 C151 1.381 . S
C150 H171 0.930 . S
C151 C150 1.381 . S
C151 C153 1.381 . S
C151 C154 1.487 . S
C152 C149 1.382 . S
C152 C153 1.387 . S
C152 H172 0.930 . S
C153 C151 1.381 . S
C153 C152 1.387 . S
C153 H173 0.931 . S
C154 C151 1.487 . S
C154 C161 1.399 . S
C154 N179 1.343 . S
C155 C156 1.384 . S
C155 C157 1.384 . S
C155 H174 0.931 . S
C156 C155 1.384 . S
C156 C159 1.382 . S
C157 C155 1.384 . S
C157 C158 1.381 . S
C157 H175 0.930 . S
C158 C157 1.381 . S
C158 C160 1.381 . S
C158 C161 1.487 . S
C159 C156 1.382 . S
C159 C160 1.387 . S
C159 H176 0.930 . S
C160 C158 1.381 . S
C160 C159 1.387 . S
C160 H177 0.931 . S
C161 C154 1.399 . S
C161 C158 1.487 . S
C161 N178 1.343 . S
H162 C134 0.931 . S
H163 C136 0.930 . S
H164 C138 0.930 . S
H165 C139 0.931 . S
H166 C141 0.931 . S
H167 C143 0.930 . S
H168 C145 0.930 . S
H169 C146 0.931 . S
H170 C148 0.931 . S
H171 C150 0.930 . S
H172 C152 0.930 . S
H173 C153 0.931 . S
H174 C155 0.931 . S
H175 C157 0.930 . S
H176 C159 0.930 . S
H177 C160 0.931 . S
N178 C140 1.343 . S
N178 C161 1.343 . S
N179 C147 1.343 . S
N179 C154 1.343 . S
C180 C181 1.363 1_655 S
C180 C186 1.379 1_655 S
C180 N188 1.356 . S
C181 C180 1.363 1_455 S
C181 C187 1.363 . S
C182 C183 1.363 . S
C182 C187 1.379 . S
C182 N189 1.356 . S
C183 C182 1.363 . S
C183 C186 1.363 . S
N184 C186 1.356 1_655 S
N184 H196 0.984 . S
N184 H197 0.985 . S
N185 C187 1.356 . S
N185 H190 0.984 . S
N185 H191 0.985 . S
C186 C180 1.379 1_455 S
C186 C183 1.363 . S
C186 N184 1.356 1_455 S
C187 C181 1.363 . S
C187 C182 1.379 . S
C187 N185 1.356 . S
N188 C180 1.356 . S
N188 H194 0.984 . S
N188 H195 0.984 . S
N189 C182 1.356 . S
N189 H192 0.984 . S
N189 H193 0.985 . S
H190 N185 0.984 . S
H191 N185 0.985 . S
H192 N189 0.984 . S
H193 N189 0.985 . S
H194 N188 0.984 . S
H195 N188 0.984 . S
H196 N184 0.984 . S
H197 N184 0.985 . S
C198 C199 1.363 . S
C198 C204 1.379 . S
C198 N206 1.356 . S
C199 C198 1.363 . S
C199 C205 1.363 1_545 S
C200 C201 1.363 1_565 S
C200 C205 1.379 . S
C200 N207 1.356 . S
C201 C200 1.363 1_545 S
C201 C204 1.363 . S
N202 C204 1.356 . S
N202 H214 0.984 . S
N202 H215 0.985 . S
N203 C205 1.356 . S
N203 H208 0.984 . S
N203 H209 0.985 . S
C204 C198 1.379 . S
C204 C201 1.363 . S
C204 N202 1.356 . S
C205 C199 1.363 1_565 S
C205 C200 1.379 . S
C205 N203 1.356 . S
N206 C198 1.356 . S
N206 H212 0.984 . S
N206 H213 0.984 . S
N207 C200 1.356 . S
N207 H210 0.984 . S
N207 H211 0.985 . S
H208 N203 0.984 . S
H209 N203 0.985 . S
H210 N207 0.984 . S
H211 N207 0.985 . S
H212 N206 0.984 . S
H213 N206 0.984 . S
H214 N202 0.984 . S
H215 N202 0.985 . S
C216 C217 1.363 . S
C216 C222 1.379 . S
C216 N224 1.356 . S
C217 C216 1.363 . S
C217 C223 1.363 . S
C218 C219 1.363 . S
C218 C223 1.379 . S
C218 N225 1.356 . S
C219 C218 1.363 . S
C219 C222 1.363 . S
N220 C222 1.356 . S
N220 H232 0.984 . S
N220 H233 0.985 . S
N221 C223 1.356 1_455 S
N221 H226 0.984 . S
N221 H227 0.985 . S
C222 C216 1.379 . S
C222 C219 1.363 . S
C222 N220 1.356 . S
C223 C217 1.363 . S
C223 C218 1.379 . S
C223 N221 1.356 1_655 S
N224 C216 1.356 . S
N224 H230 0.984 . S
N224 H231 0.984 . S
N225 C218 1.356 . S
N225 H228 0.984 . S
N225 H229 0.985 . S
H226 N221 0.984 . S
H227 N221 0.985 . S
H228 N225 0.984 . S
H229 N225 0.985 . S
H230 N224 0.984 . S
H231 N224 0.984 . S
H232 N220 0.984 . S
H233 N220 0.985 . S
C234 C235 1.363 . S
C234 C240 1.379 . S
C234 N242 1.356 1_565 S
C235 C234 1.363 . S
C235 C241 1.363 . S
C236 C237 1.363 . S
C236 C241 1.379 . S
C236 N243 1.356 . S
C237 C236 1.363 . S
C237 C240 1.363 . S
N238 C240 1.356 . S
N238 H250 0.984 . S
N238 H251 0.985 . S
N239 C241 1.356 . S
N239 H244 0.984 . S
N239 H245 0.985 . S
C240 C234 1.379 . S
C240 C237 1.363 . S
C240 N238 1.356 . S
C241 C235 1.363 . S
C241 C236 1.379 . S
C241 N239 1.356 . S
N242 C234 1.356 1_545 S
N242 H248 0.984 . S
N242 H249 0.984 . S
N243 C236 1.356 . S
N243 H246 0.984 . S
N243 H247 0.985 . S
H244 N239 0.984 . S
H245 N239 0.985 . S
H246 N243 0.984 . S
H247 N243 0.985 . S
H248 N242 0.984 . S
H249 N242 0.984 . S
H250 N238 0.984 . S
H251 N238 0.985 . S
C252 C253 1.363 . S
C252 C258 1.379 . S
C252 N260 1.356 1_545 S
C253 C252 1.363 . S
C253 C259 1.363 . S
C254 C255 1.363 . S
C254 C259 1.379 . S
C254 N261 1.356 . S
C255 C254 1.363 . S
C255 C258 1.363 . S
N256 C258 1.356 1_565 S
N256 H268 0.984 . S
N256 H269 0.985 . S
N257 C259 1.356 . S
N257 H262 0.984 . S
N257 H263 0.985 . S
C258 C252 1.379 . S
C258 C255 1.363 . S
C258 N256 1.356 1_545 S
C259 C253 1.363 . S
C259 C254 1.379 . S
C259 N257 1.356 . S
N260 C252 1.356 1_565 S
N260 H266 0.984 . S
N260 H267 0.984 1_565 S
N261 C254 1.356 . S
N261 H264 0.984 . S
N261 H265 0.985 . S
H262 N257 0.984 . S
H263 N257 0.985 . S
H264 N261 0.984 . S
H265 N261 0.985 . S
H266 N260 0.984 . S
H267 N260 0.984 1_545 S
H268 N256 0.984 . S
H269 N256 0.985 . S
C270 C271 1.363 . S
C270 C276 1.379 . S
C270 N278 1.356 . S
C271 C270 1.363 . S
C271 C277 1.363 . S
C272 C273 1.363 . S
C272 C277 1.379 . S
C272 N279 1.356 . S
C273 C272 1.363 . S
C273 C276 1.363 . S
N274 C276 1.356 . S
N274 H286 0.984 . S
N274 H287 0.985 . S
N275 C277 1.356 . S
N275 H280 0.984 . S
N275 H281 0.985 . S
C276 C270 1.379 . S
C276 C273 1.363 . S
C276 N274 1.356 . S
C277 C271 1.363 . S
C277 C272 1.379 . S
C277 N275 1.356 . S
N278 C270 1.356 . S
N278 H284 0.984 . S
N278 H285 0.984 . S
N279 C272 1.356 . S
N279 H282 0.984 . S
N279 H283 0.985 . S
H280 N275 0.984 . S
H281 N275 0.985 . S
H282 N279 0.984 . S
H283 N279 0.985 . S
H284 N278 0.984 . S
H285 N278 0.984 . S
H286 N274 0.984 . S
H287 N274 0.985 . S
C288 C289 1.363 . S
C288 C294 1.379 . S
C288 N296 1.356 . S
C289 C288 1.363 . S
C289 C295 1.363 1_545 S
C290 C291 1.363 1_565 S
C290 C295 1.379 . S
C290 N297 1.356 . S
C291 C290 1.363 1_545 S
C291 C294 1.363 . S
N292 C294 1.356 . S
N292 H304 0.984 . S
N292 H305 0.985 . S
N293 C295 1.356 . S
N293 H298 0.984 . S
N293 H299 0.985 . S
C294 C288 1.379 . S
C294 C291 1.363 . S
C294 N292 1.356 . S
C295 C289 1.363 1_565 S
C295 C290 1.379 . S
C295 N293 1.356 . S
N296 C288 1.356 . S
N296 H302 0.984 . S
N296 H303 0.984 . S
N297 C290 1.356 . S
N297 H300 0.984 . S
N297 H301 0.985 . S
H298 N293 0.984 . S
H299 N293 0.985 . S
H300 N297 0.984 . S
H301 N297 0.985 . S
H302 N296 0.984 . S
H303 N296 0.984 . S
H304 N292 0.984 . S
H305 N292 0.985 . S
C306 C307 1.363 1_556 S
C306 C312 1.379 . S
C306 N314 1.356 1_655 S
C307 C306 1.363 1_554 S
C307 C313 1.363 . S
C308 C309 1.363 . S
C308 C313 1.379 1_556 S
C308 N315 1.356 . S
C309 C308 1.363 . S
C309 C312 1.363 . S
N310 C312 1.356 . S
N310 H322 0.984 . S
N310 H323 0.985 . S
N311 C313 1.356 . S
N311 H316 0.984 . S
N311 H317 0.985 . S
C312 C306 1.379 . S
C312 C309 1.363 . S
C312 N310 1.356 . S
C313 C307 1.363 . S
C313 C308 1.379 1_554 S
C313 N311 1.356 . S
N314 C306 1.356 1_455 S
N314 H320 0.984 . S
N314 H321 0.995 . S
N315 C308 1.356 . S
N315 H318 0.984 . S
N315 H319 0.985 1_556 S
H316 N311 0.984 . S
H317 N311 0.985 . S
H318 N315 0.984 . S
H319 N315 0.985 1_554 S
H320 N314 0.984 . S
H321 N314 0.995 . S
H322 N310 0.984 . S
H323 N310 0.985 . S
C324 C325 1.363 . S
C324 C330 1.379 . S
C324 N332 1.356 . S
C325 C324 1.363 . S
C325 C331 1.363 . S
C326 C327 1.363 . S
C326 C331 1.379 . S
C326 N333 1.356 . S
C327 C326 1.363 . S
C327 C330 1.363 . S
N328 C330 1.356 . S
N328 H340 0.984 . S
N328 H341 0.985 . S
N329 C331 1.356 1_655 S
N329 H334 0.984 . S
N329 H335 0.985 . S
C330 C324 1.379 . S
C330 C327 1.363 . S
C330 N328 1.356 . S
C331 C325 1.363 . S
C331 C326 1.379 . S
C331 N329 1.356 1_455 S
N332 C324 1.356 . S
N332 H338 0.984 . S
N332 H339 0.984 . S
N333 C326 1.356 . S
N333 H336 0.984 . S
N333 H337 0.985 1_455 S
H334 N329 0.984 . S
H335 N329 0.985 . S
H336 N333 0.984 . S
H337 N333 0.985 1_655 S
H338 N332 0.984 . S
H339 N332 0.984 . S
H340 N328 0.984 . S
H341 N328 0.985 . S
C342 C343 1.363 1_565 S
C342 C348 1.379 . S
C342 N350 1.356 . S
C343 C342 1.363 1_545 S
C343 C349 1.363 . S
C344 C345 1.363 . S
C344 C349 1.379 . S
C344 N351 1.356 . S
C345 C344 1.363 . S
C345 C348 1.363 1_545 S
N346 C348 1.356 . S
N346 H358 0.984 . S
N346 H359 0.985 . S
N347 C349 1.356 . S
N347 H352 0.984 . S
N347 H353 0.985 . S
C348 C342 1.379 . S
C348 C345 1.363 1_565 S
C348 N346 1.356 . S
C349 C343 1.363 . S
C349 C344 1.379 . S
C349 N347 1.356 . S
N350 C342 1.356 . S
N350 H356 0.984 . S
N350 H357 0.984 . S
N351 C344 1.356 . S
N351 H354 0.984 . S
N351 H355 0.985 . S
H352 N347 0.984 . S
H353 N347 0.985 . S
H354 N351 0.984 . S
H355 N351 0.985 . S
H356 N350 0.984 . S
H357 N350 0.984 . S
H358 N346 0.984 . S
H359 N346 0.985 . S
C360 C361 1.379 . S
C360 C366 1.379 . S
C360 N368 1.356 . S
C361 C360 1.379 . S
C361 C367 1.363 1_556 S
C362 C363 1.363 . S
C362 C367 1.379 1_556 S
C362 N369 1.356 . S
C363 C362 1.363 . S
C363 C366 1.363 . S
N364 C366 1.356 . S
N364 H376 0.984 . S
N364 H377 0.985 . S
N365 C367 1.356 . S
N365 H370 0.984 . S
N365 H371 0.985 . S
C366 C360 1.379 . S
C366 C363 1.363 . S
C366 N364 1.356 . S
C367 C361 1.363 1_554 S
C367 C362 1.379 1_554 S
C367 N365 1.356 . S
N368 C360 1.356 . S
N368 H374 0.984 . S
N368 H375 0.984 . S
N369 C362 1.356 . S
N369 H372 0.984 . S
N369 H373 0.985 . S
H370 N365 0.984 . S
H371 N365 0.985 . S
H372 N369 0.984 . S
H373 N369 0.985 . S
H374 N368 0.984 . S
H375 N368 0.984 . S
H376 N364 0.984 . S
H377 N364 0.985 . S
C378 C379 1.363 . S
C378 C384 1.379 . S
C378 N386 1.356 . S
C379 C378 1.363 . S
C379 C385 1.363 . S
C380 C381 1.363 . S
C380 C385 1.379 . S
C380 N387 1.356 . S
C381 C380 1.363 . S
C381 C384 1.363 . S
N382 C384 1.356 . S
N382 H394 0.984 . S
N382 H395 0.985 . S
N383 C385 1.356 . S
N383 H388 0.984 . S
N383 H389 0.985 . S
C384 C378 1.379 . S
C384 C381 1.363 . S
C384 N382 1.356 . S
C385 C379 1.363 . S
C385 C380 1.379 . S
C385 N383 1.356 . S
N386 C378 1.356 . S
N386 H392 0.984 . S
N386 H393 0.984 . S
N387 C380 1.356 . S
N387 H390 0.984 . S
N387 H391 0.985 . S
H388 N383 0.984 . S
H389 N383 0.985 . S
H390 N387 0.984 . S
H391 N387 0.985 . S
H392 N386 0.984 . S
H393 N386 0.984 . S
H394 N382 0.984 . S
H395 N382 0.985 . S
C183 C50 1.372 . S
C181 C11 1.355 . S
C199 C25 1.415 . S
C201 C89 1.432 . S
C217 C41 1.397 . S
C219 C156 1.460 . S
C235 C7 1.398 . S
C237 C57 1.402 . S
C255 C110 1.459 . S
C253 C21 1.452 . S
C271 C36 1.422 . S
C273 C135 1.494 . S
C291 C96 1.425 . S
C289 C39 1.409 . S
C307 C8 1.419 . S
C309 C149 1.499 . S
C327 C64 1.527 . S
C325 C22 1.455 . S
C345 C103 1.451 . S
C343 C35 1.446 1_545 S
C363 C142 1.458 . S
C361 C13 1.378 1_556 S
C379 C27 1.462 . S
C381 C43 1.496 . S
