# Generated by pormake.
# Topology zzz, (3,6)-cn, num edge types: 1
# Building blocks:
#     Node 0, Type 0, BuildingBlock: KAKCAD_clean_linker_0, # of connection points: 3
#     Node 1, Type 0, BuildingBlock: KAKCAD_clean_linker_0, # of connection points: 3
#     Node 2, Type 0, BuildingBlock: KAKCAD_clean_linker_0, # of connection points: 3
#     Node 3, Type 0, BuildingBlock: KAKCAD_clean_linker_0, # of connection points: 3
#     Node 4, Type 0, BuildingBlock: KAKCAD_clean_linker_0, # of connection points: 3
#     Node 5, Type 0, BuildingBlock: KAKCAD_clean_linker_0, # of connection points: 3
#     Node 6, Type 0, BuildingBlock: KAKCAD_clean_linker_0, # of connection points: 3
#     Node 7, Type 0, BuildingBlock: KAKCAD_clean_linker_0, # of connection points: 3
#     Node 8, Type 1, BuildingBlock: VOLQOD_clean_sbu_1, # of connection points: 6
#     Node 9, Type 1, BuildingBlock: VOLQOD_clean_sbu_1, # of connection points: 6
#     Node 10, Type 1, BuildingBlock: VOLQOD_clean_sbu_1, # of connection points: 6
#     Node 11, Type 1, BuildingBlock: VOLQOD_clean_sbu_1, # of connection points: 6
#     Edge 12, Type (0, 1), BuildingBlock: OJICUG_clean_linker_0, # of connection points: 2
#     Edge 13, Type (0, 1), BuildingBlock: OJICUG_clean_linker_0, # of connection points: 2
#     Edge 14, Type (0, 1), BuildingBlock: OJICUG_clean_linker_0, # of connection points: 2
#     Edge 15, Type (0, 1), BuildingBlock: OJICUG_clean_linker_0, # of connection points: 2
#     Edge 16, Type (0, 1), BuildingBlock: OJICUG_clean_linker_0, # of connection points: 2
#     Edge 17, Type (0, 1), BuildingBlock: OJICUG_clean_linker_0, # of connection points: 2
#     Edge 18, Type (0, 1), BuildingBlock: OJICUG_clean_linker_0, # of connection points: 2
#     Edge 19, Type (0, 1), BuildingBlock: OJICUG_clean_linker_0, # of connection points: 2
#     Edge 20, Type (0, 1), BuildingBlock: OJICUG_clean_linker_0, # of connection points: 2
#     Edge 21, Type (0, 1), BuildingBlock: OJICUG_clean_linker_0, # of connection points: 2
#     Edge 22, Type (0, 1), BuildingBlock: OJICUG_clean_linker_0, # of connection points: 2
#     Edge 23, Type (0, 1), BuildingBlock: OJICUG_clean_linker_0, # of connection points: 2
#     Edge 24, Type (0, 1), BuildingBlock: OJICUG_clean_linker_0, # of connection points: 2
#     Edge 25, Type (0, 1), BuildingBlock: OJICUG_clean_linker_0, # of connection points: 2
#     Edge 26, Type (0, 1), BuildingBlock: OJICUG_clean_linker_0, # of connection points: 2
#     Edge 27, Type (0, 1), BuildingBlock: OJICUG_clean_linker_0, # of connection points: 2
#     Edge 28, Type (0, 1), BuildingBlock: OJICUG_clean_linker_0, # of connection points: 2
#     Edge 29, Type (0, 1), BuildingBlock: OJICUG_clean_linker_0, # of connection points: 2
#     Edge 30, Type (0, 1), BuildingBlock: OJICUG_clean_linker_0, # of connection points: 2
#     Edge 31, Type (0, 1), BuildingBlock: OJICUG_clean_linker_0, # of connection points: 2
#     Edge 32, Type (0, 1), BuildingBlock: OJICUG_clean_linker_0, # of connection points: 2
#     Edge 33, Type (0, 1), BuildingBlock: OJICUG_clean_linker_0, # of connection points: 2
#     Edge 34, Type (0, 1), BuildingBlock: OJICUG_clean_linker_0, # of connection points: 2
#     Edge 35, Type (0, 1), BuildingBlock: OJICUG_clean_linker_0, # of connection points: 2
# Relax obj value: 0.357
# Max RMSD: 0.257
# Mean RMSD: 0.208
data_MOF--net-zzz--node1-VOLQOD_clean_sbu_1--node2-KAKCAD_clean_linker_0--edge1-OJICUG_clean_linker_0
_symmetry_space_group_name_H-M    P1
_symmetry_Int_Tables_number       1
_symmetry_cell_setting            triclinic
loop_
_symmetry_equiv_pos_as_xyz
'x, y, z'
_cell_length_a     45.705979
_cell_length_b     44.956329
_cell_length_c     17.92505
_cell_angle_alpha  90.077359
_cell_angle_beta   90.19383
_cell_angle_gamma 92.286072
loop_
_atom_site_label
_atom_site_type_symbol
_atom_site_fract_x
_atom_site_fract_y
_atom_site_fract_z
_atom_type_partial_charge
C0 C 0.85989 0.4421 0.9287 0.0
C1 C 0.88196 0.42522 0.96036 0.0
C2 C 0.83661 0.45127 0.97197 0.0
C3 C 0.8347 0.44349 0.04778 0.0
C4 C 0.85537 0.42427 0.07748 0.0
C5 C 0.87894 0.41546 0.03436 0.0
C6 C 0.81371 0.45846 0.09723 0.0
C7 C 0.78594 0.46594 0.07131 0.0
C8 C 0.76775 0.48342 0.11485 0.0
C9 C 0.77719 0.49329 0.1857 0.0
C10 C 0.80476 0.48561 0.21252 0.0
C11 C 0.82272 0.46823 0.1683 0.0
C12 C 0.81659 0.49681 0.28439 0.0
C13 C 0.82406 0.52718 0.29381 0.0
C14 C 0.82592 0.47634 0.3374 0.0
C15 C 0.84414 0.4857 0.39605 0.0
C16 C 0.85359 0.51578 0.40284 0.0
C17 C 0.73938 0.4919 0.0837 0.0
C18 C 0.73873 0.50858 0.01766 0.0
C19 C 0.71304 0.48072 0.11467 0.0
C20 C 0.68648 0.48488 0.07778 0.0
C21 C 0.68592 0.5007 0.01017 0.0
C22 C 0.7122 0.51318 0.98154 0.0
C23 C 0.84252 0.53661 0.35256 0.0
H24 H 0.86182 0.45033 0.87207 0.0
H25 H 0.82139 0.46627 0.94717 0.0
H26 H 0.85414 0.41721 0.13516 0.0
H27 H 0.89554 0.40221 0.05985 0.0
H28 H 0.77845 0.45843 0.01675 0.0
H29 H 0.84453 0.46375 0.18818 0.0
H30 H 0.76342 0.50714 0.21907 0.0
H31 H 0.81736 0.54326 0.25283 0.0
H32 H 0.82067 0.45277 0.33057 0.0
H33 H 0.85249 0.46889 0.43274 0.0
H34 H 0.7589 0.51723 0.99279 0.0
H35 H 0.71318 0.4676 0.16531 0.0
H36 H 0.84918 0.55994 0.35663 0.0
H37 H 0.71242 0.52519 0.92918 0.0
H38 H 0.66647 0.47512 0.101 0.0
C39 C 0.07292 0.86704 0.0905 0.0
C40 C 0.09111 0.86265 0.02889 0.0
C41 C 0.06409 0.84317 0.13571 0.0
C42 C 0.07357 0.81432 0.12111 0.0
C43 C 0.09387 0.81048 0.06338 0.0
C44 C 0.10243 0.83439 0.01742 0.0
C45 C 0.0595 0.78828 0.1602 0.0
C46 C 0.05151 0.76221 0.12055 0.0
C47 C 0.03389 0.73955 0.15351 0.0
C48 C 0.02354 0.74324 0.22655 0.0
C49 C 0.03153 0.76911 0.26683 0.0
C50 C 0.05028 0.79087 0.23437 0.0
C51 C 0.01684 0.77699 0.33686 0.0
C52 C 0.98759 0.78533 0.33367 0.0
C53 C 0.03378 0.78447 0.40006 0.0
C54 C 0.02265 0.8027 0.45546 0.0
C55 C 0.99461 0.81412 0.44769 0.0
C56 C 0.0253 0.71295 0.10895 0.0
C57 C 0.01056 0.71614 0.04086 0.0
C58 C 0.03421 0.68474 0.13043 0.0
C59 C 0.02984 0.66034 0.08254 0.0
C60 C 0.01608 0.66365 0.01267 0.0
C61 C 0.00573 0.69172 0.99357 0.0
C62 C 0.97659 0.80395 0.38852 0.0
H63 H 0.06341 0.88839 0.10012 0.0
H64 H 0.04809 0.84712 0.1786 0.0
H65 H 0.10212 0.78873 0.05152 0.0
H66 H 0.11665 0.83045 0.97051 0.0
H67 H 0.05795 0.75988 0.06277 0.0
H68 H 0.05601 0.81093 0.26567 0.0
H69 H 0.00859 0.72663 0.25081 0.0
H70 H 0.97429 0.78014 0.28485 0.0
H71 H 0.05651 0.77858 0.40301 0.0
H72 H 0.03712 0.81033 0.50013 0.0
H73 H 0.00332 0.73774 0.02354 0.0
H74 H 0.04584 0.68189 0.18255 0.0
H75 H 0.95486 0.81234 0.38149 0.0
H76 H 0.99437 0.69504 0.94133 0.0
H77 H 0.03844 0.63923 0.09903 0.0
C78 C 0.67884 0.04985 0.92422 0.0
C79 C 0.65584 0.06535 0.95599 0.0
C80 C 0.70274 0.04199 0.96749 0.0
C81 C 0.70433 0.04965 0.04349 0.0
C82 C 0.68251 0.06736 0.07356 0.0
C83 C 0.65838 0.07493 0.03038 0.0
C84 C 0.72635 0.03592 0.09271 0.0
C85 C 0.75462 0.03042 0.06695 0.0
C86 C 0.77388 0.01373 0.10976 0.0
C87 C 0.76489 0.00263 0.17975 0.0
C88 C 0.73676 0.00824 0.2062 0.0
C89 C 0.71786 0.02498 0.16293 0.0
C90 C 0.72479 0.99443 0.27474 0.0
C91 C 0.71179 0.96567 0.2709 0.0
C92 C 0.71942 0.01237 0.33688 0.0
C93 C 0.69969 0.00251 0.39185 0.0
C94 C 0.6846 0.97476 0.38467 0.0
C95 C 0.8026 0.0067 0.07798 0.0
C96 C 0.80376 0.99074 0.01077 0.0
C97 C 0.82872 0.01804 0.11042 0.0
C98 C 0.85551 0.01457 0.07427 0.0
C99 C 0.85659 0.9992 0.00594 0.0
C100 C 0.83051 0.98678 0.97543 0.0
C101 C 0.69177 0.95592 0.32534 0.0
H102 H 0.67735 0.04175 0.86733 0.0
H103 H 0.71883 0.02807 0.94245 0.0
H104 H 0.68339 0.07423 0.13148 0.0
H105 H 0.64109 0.08714 0.05605 0.0
H106 H 0.76163 0.03872 0.01286 0.0
H107 H 0.69572 0.0278 0.1825 0.0
H108 H 0.77928 0.98902 0.21216 0.0
H109 H 0.71521 0.95174 0.22256 0.0
H110 H 0.72875 0.03488 0.33993 0.0
H111 H 0.69441 0.01764 0.43644 0.0
H112 H 0.78381 0.98191 0.98474 0.0
H113 H 0.82824 0.03059 0.162 0.0
H114 H 0.68055 0.9344 0.31863 0.0
H115 H 0.83066 0.97509 0.92256 0.0
H116 H 0.87534 0.02426 0.09905 0.0
C117 C 0.52081 0.69325 0.44797 0.0
C118 C 0.54908 0.68248 0.43952 0.0
C119 C 0.50888 0.71104 0.39274 0.0
C120 C 0.52522 0.71872 0.32903 0.0
C121 C 0.55466 0.71109 0.32513 0.0
C122 C 0.56648 0.6929 0.37982 0.0
C123 C 0.50986 0.72599 0.25938 0.0
C124 C 0.51667 0.75211 0.21923 0.0
C125 C 0.50568 0.75545 0.14651 0.0
C126 C 0.48859 0.7322 0.1138 0.0
C127 C 0.48179 0.70588 0.15338 0.0
C128 C 0.49165 0.7036 0.22722 0.0
C129 C 0.46828 0.67941 0.11447 0.0
C130 C 0.44736 0.68255 0.05755 0.0
C131 C 0.47886 0.65095 0.12841 0.0
C132 C 0.47049 0.62684 0.08319 0.0
C133 C 0.45167 0.63061 0.02224 0.0
C134 C 0.51286 0.78249 0.1024 0.0
C135 C 0.50448 0.81047 0.12744 0.0
C136 C 0.52579 0.78003 0.0318 0.0
C137 C 0.5293 0.80495 0.98576 0.0
C138 C 0.5195 0.83266 0.00906 0.0
C139 C 0.50752 0.83533 0.08082 0.0
C140 C 0.43925 0.6584 0.01158 0.0
H141 H 0.50681 0.68541 0.49306 0.0
H142 H 0.48602 0.71638 0.39624 0.0
H143 H 0.56751 0.71644 0.2759 0.0
H144 H 0.58836 0.68501 0.37226 0.0
H145 H 0.53118 0.76922 0.24335 0.0
H146 H 0.48683 0.68337 0.25848 0.0
H147 H 0.48155 0.73433 0.05633 0.0
H148 H 0.43826 0.70396 0.04627 0.0
H149 H 0.49535 0.64756 0.1707 0.0
H150 H 0.48084 0.60586 0.09218 0.0
H151 H 0.49435 0.8128 0.18158 0.0
H152 H 0.53247 0.75864 0.01151 0.0
H153 H 0.42452 0.66185 0.9652 0.0
H154 H 0.49993 0.85652 0.10012 0.0
H155 H 0.53842 0.80225 0.93057 0.0
C156 C 0.1927 0.58019 0.41245 0.0
C157 C 0.16849 0.5936 0.38 0.0
C158 C 0.21681 0.5733 0.36929 0.0
C159 C 0.21744 0.57984 0.29261 0.0
C160 C 0.19455 0.59602 0.26193 0.0
C161 C 0.17019 0.60265 0.30511 0.0
C162 C 0.23913 0.56549 0.24383 0.0
C163 C 0.26756 0.5604 0.26958 0.0
C164 C 0.28562 0.54092 0.23142 0.0
C165 C 0.2755 0.52715 0.16521 0.0
C166 C 0.24782 0.53348 0.13674 0.0
C167 C 0.22986 0.55253 0.17606 0.0
C168 C 0.23563 0.51848 0.06979 0.0
C169 C 0.23034 0.53527 0.00566 0.0
C170 C 0.22354 0.48941 0.07535 0.0
C171 C 0.20452 0.47811 0.01993 0.0
C172 C 0.19756 0.49569 0.95801 0.0
C173 C 0.31384 0.53325 0.26547 0.0
C174 C 0.33419 0.55587 0.28702 0.0
C175 C 0.31919 0.50358 0.28372 0.0
C176 C 0.34395 0.49679 0.32554 0.0
C177 C 0.36398 0.51952 0.34855 0.0
C178 C 0.35917 0.54904 0.3276 0.0
C179 C 0.21167 0.52387 0.94983 0.0
H180 H 0.19201 0.57256 0.46973 0.0
H181 H 0.23372 0.56055 0.39503 0.0
H182 H 0.19464 0.60205 0.20346 0.0
H183 H 0.15201 0.61336 0.27888 0.0
H184 H 0.27513 0.57028 0.32173 0.0
H185 H 0.20776 0.55546 0.15596 0.0
H186 H 0.28898 0.51157 0.13625 0.0
H187 H 0.23911 0.55795 0.00112 0.0
H188 H 0.22703 0.47634 0.1251 0.0
H189 H 0.19402 0.4563 0.02746 0.0
H190 H 0.3304 0.57891 0.27381 0.0
H191 H 0.3036 0.48582 0.26838 0.0
H192 H 0.20647 0.53808 0.90328 0.0
H193 H 0.37417 0.567 0.34506 0.0
H194 H 0.34728 0.47385 0.34069 0.0
C195 C 0.97726 0.16377 0.34642 0.0
C196 C 0.99042 0.13607 0.34805 0.0
C197 C 0.99025 0.18756 0.30666 0.0
C198 C 0.01673 0.18407 0.26843 0.0
C199 C 0.0298 0.15634 0.27037 0.0
C200 C 0.01677 0.13264 0.30944 0.0
C201 C 0.03068 0.20893 0.22542 0.0
C202 C 0.03172 0.23809 0.25308 0.0
C203 C 0.04472 0.26168 0.21154 0.0
C204 C 0.05736 0.25563 0.1417 0.0
C205 C 0.05647 0.22634 0.11412 0.0
C206 C 0.04309 0.20337 0.15592 0.0
C207 C 0.06705 0.21835 0.03959 0.0
C208 C 0.04639 0.21536 0.98197 0.0
C209 C 0.09347 0.2037 0.03364 0.0
C210 C 0.0977 0.18371 0.97507 0.0
C211 C 0.07525 0.17756 0.92256 0.0
C212 C 0.04431 0.29233 0.24234 0.0
C213 C 0.01875 0.30198 0.27644 0.0
C214 C 0.06965 0.31109 0.24386 0.0
C215 C 0.06972 0.33833 0.28218 0.0
C216 C 0.04442 0.3473 0.31936 0.0
C217 C 0.01884 0.32893 0.31478 0.0
C218 C 0.05033 0.19508 0.92421 0.0
H219 H 0.95701 0.16703 0.376 0.0
H220 H 0.97948 0.20858 0.30542 0.0
H221 H 0.05049 0.15306 0.24285 0.0
H222 H 0.02795 0.11185 0.31151 0.0
H223 H 0.02278 0.24239 0.3078 0.0
H224 H 0.04175 0.18102 0.13288 0.0
H225 H 0.0671 0.27352 0.10846 0.0
H226 H 0.02558 0.22597 0.98642 0.0
H227 H 0.10952 0.20538 0.07822 0.0
H228 H 0.11759 0.17141 0.9745 0.0
H229 H 0.99875 0.2882 0.27537 0.0
H230 H 0.08969 0.30418 0.21812 0.0
H231 H 0.03233 0.19112 0.88565 0.0
H232 H 0.99903 0.3347 0.34339 0.0
H233 H 0.0897 0.3521 0.28369 0.0
C234 C 0.34526 0.91677 0.32687 0.0
C235 C 0.37382 0.92956 0.32442 0.0
C236 C 0.32267 0.92922 0.28567 0.0
C237 C 0.32824 0.9549 0.24226 0.0
C238 C 0.35702 0.96711 0.23907 0.0
C239 C 0.37945 0.9545 0.27895 0.0
C240 C 0.30436 0.97048 0.20376 0.0
C241 C 0.27685 0.97325 0.23697 0.0
C242 C 0.25603 0.99182 0.20555 0.0
C243 C 0.26301 0.00821 0.14047 0.0
C244 C 0.29033 0.00503 0.10627 0.0
C245 C 0.31022 0.98551 0.13681 0.0
C246 C 0.30018 0.02214 0.0401 0.0
C247 C 0.29252 0.01156 0.96884 0.0
C248 C 0.32458 0.04191 0.04805 0.0
C249 C 0.34337 0.04758 0.98799 0.0
C250 C 0.33798 0.03367 0.91868 0.0
C251 C 0.22783 0.99479 0.2446 0.0
C252 C 0.21015 0.96926 0.25958 0.0
C253 C 0.2203 0.02219 0.27519 0.0
C254 C 0.19612 0.02375 0.32274 0.0
C255 C 0.17887 0.99801 0.33935 0.0
C256 C 0.18577 0.97089 0.30594 0.0
C257 C 0.31115 0.01753 0.90833 0.0
H258 H 0.3403 0.89763 0.36191 0.0
H259 H 0.30082 0.91908 0.2889 0.0
H260 H 0.36218 0.98739 0.20852 0.0
H261 H 0.40095 0.96553 0.27761 0.0
H262 H 0.27203 0.96219 0.28945 0.0
H263 H 0.33097 0.98281 0.10891 0.0
H264 H 0.2475 0.02327 0.11707 0.0
H265 H 0.27395 0.99608 0.96154 0.0
H266 H 0.33106 0.05004 0.10285 0.0
H267 H 0.36367 0.06013 0.99854 0.0
H268 H 0.21573 0.94785 0.23701 0.0
H269 H 0.23386 0.04208 0.26508 0.0
H270 H 0.30582 0.00723 0.8551 0.0
H271 H 0.17301 0.95067 0.3181 0.0
H272 H 0.19115 0.04497 0.34737 0.0
C273 C 0.46738 0.31134 0.97558 0.0
C274 C 0.48774 0.31946 0.91959 0.0
C275 C 0.47508 0.29207 0.03316 0.0
C276 C 0.50304 0.2803 0.03503 0.0
C277 C 0.52222 0.28593 0.97552 0.0
C278 C 0.5147 0.30529 0.91844 0.0
C279 C 0.51539 0.27063 0.10659 0.0
C280 C 0.51228 0.24122 0.13276 0.0
C281 C 0.52532 0.23338 0.20108 0.0
C282 C 0.54099 0.25544 0.2425 0.0
C283 C 0.54377 0.2849 0.21716 0.0
C284 C 0.53098 0.29216 0.14892 0.0
C285 C 0.558 0.30864 0.26411 0.0
C286 C 0.55303 0.30912 0.3414 0.0
C287 C 0.5745 0.33231 0.23152 0.0
C288 C 0.58412 0.35679 0.27448 0.0
C289 C 0.57778 0.35785 0.35097 0.0
C290 C 0.52198 0.20282 0.23254 0.0
C291 C 0.49459 0.18735 0.23319 0.0
C292 C 0.54565 0.19041 0.27011 0.0
C293 C 0.54156 0.16458 0.31235 0.0
C294 C 0.51387 0.15018 0.31666 0.0
C295 C 0.4906 0.16109 0.27477 0.0
C296 C 0.56291 0.33338 0.38434 0.0
H297 H 0.44622 0.3213 0.97762 0.0
H298 H 0.46016 0.28838 0.07938 0.0
H299 H 0.54414 0.2776 0.97687 0.0
H300 H 0.53124 0.31109 0.87733 0.0
H301 H 0.50017 0.22462 0.09989 0.0
H302 H 0.53236 0.31496 0.12912 0.0
H303 H 0.55059 0.2498 0.29572 0.0
H304 H 0.54004 0.29158 0.36828 0.0
H305 H 0.57923 0.33235 0.17236 0.0
H306 H 0.59571 0.37529 0.24752 0.0
H307 H 0.4759 0.19637 0.20511 0.0
H308 H 0.5672 0.20134 0.26928 0.0
H309 H 0.55722 0.33377 0.44294 0.0
H310 H 0.46905 0.15021 0.2774 0.0
H311 H 0.55988 0.15627 0.34345 0.0
O312 O 0.09015 0.00314 0.62393 0.0
Zn313 Zn 0.06423 0.00408 0.71611 0.0
O314 O 0.02265 0.99593 0.68803 0.0
Zn315 Zn 0.9999 0.03033 0.71293 0.0
Zn316 Zn 0.0192 0.98795 0.58119 0.0
Zn317 Zn 0.00615 0.9613 0.74084 0.0
O318 O 0.96829 0.0202 0.78816 0.0
O319 O 0.97172 0.97156 0.80582 0.0
O320 O 0.07039 0.0451 0.76327 0.0
O321 O 0.02594 0.06318 0.75434 0.0
O322 O 0.9821 0.04809 0.62185 0.0
O323 O 0.99596 0.01884 0.52993 0.0
O324 O 0.00167 0.94709 0.55914 0.0
O325 O 0.07793 0.97285 0.7891 0.0
O326 O 0.99382 0.92779 0.67138 0.0
O327 O 0.0373 0.94439 0.80376 0.0
C328 C 0.08479 0.99693 0.55562 0.0
C329 C 0.95954 0.99601 0.81939 0.0
C330 C 0.98284 0.04156 0.55283 0.0
C331 C 0.0529 0.06622 0.7717 0.0
C332 C 0.99327 0.92546 0.60065 0.0
C333 C 0.0642 0.95041 0.81754 0.0
O334 O 0.05889 0.99025 0.53328 0.0
O335 O 0.50286 0.05717 0.59392 0.0
Zn336 Zn 0.50241 0.03081 0.68541 0.0
O337 O 0.51073 0.98949 0.65605 0.0
Zn338 Zn 0.4786 0.96287 0.68808 0.0
Zn339 Zn 0.51496 0.9864 0.54787 0.0
Zn340 Zn 0.54683 0.9766 0.70252 0.0
O341 O 0.4916 0.93371 0.76492 0.0
O342 O 0.53992 0.94083 0.7698 0.0
O343 O 0.46214 0.03334 0.73463 0.0
O344 O 0.44676 0.98592 0.73332 0.0
O345 O 0.45977 0.94067 0.60205 0.0
O346 O 0.48521 0.95721 0.50435 0.0
O347 O 0.55539 0.97437 0.5188 0.0
O348 O 0.5339 0.04767 0.75607 0.0
O349 O 0.57822 0.9684 0.62683 0.0
O350 O 0.56345 0.00958 0.76561 0.0
C351 C 0.50512 0.05221 0.52414 0.0
C352 C 0.51647 0.92708 0.79086 0.0
C353 C 0.46465 0.94088 0.53221 0.0
C354 C 0.44257 0.01306 0.74844 0.0
C355 C 0.57828 0.96847 0.55579 0.0
C356 C 0.55677 0.03598 0.78188 0.0
O357 O 0.50902 0.02614 0.49909 0.0
O358 O 0.45629 0.49378 0.61559 0.0
Zn359 Zn 0.48268 0.49111 0.70686 0.0
O360 O 0.52387 0.50084 0.67833 0.0
Zn361 Zn 0.54788 0.46751 0.70271 0.0
Zn362 Zn 0.52714 0.50876 0.57154 0.0
Zn363 Zn 0.53914 0.53601 0.73162 0.0
O364 O 0.57816 0.47843 0.78063 0.0
O365 O 0.57311 0.5268 0.79926 0.0
O366 O 0.47783 0.44935 0.75126 0.0
O367 O 0.52312 0.43348 0.74174 0.0
O368 O 0.5674 0.45127 0.6125 0.0
O369 O 0.55032 0.47788 0.51915 0.0
O370 O 0.54485 0.54963 0.55028 0.0
O371 O 0.46839 0.52105 0.78245 0.0
O372 O 0.55138 0.56945 0.66269 0.0
O373 O 0.50732 0.55223 0.79288 0.0
C374 C 0.46129 0.50129 0.54803 0.0
C375 C 0.58579 0.50269 0.81333 0.0
C376 C 0.5655 0.45673 0.54309 0.0
C377 C 0.49633 0.42906 0.75882 0.0
C378 C 0.55259 0.57151 0.59202 0.0
C379 C 0.48099 0.54461 0.80873 0.0
O380 O 0.48714 0.50775 0.52539 0.0
O381 O 0.97672 0.54418 0.58756 0.0
Zn382 Zn 0.01657 0.54448 0.64002 0.0
O383 O 0.02748 0.50394 0.66982 0.0
Zn384 Zn 0.03017 0.50074 0.77827 0.0
Zn385 Zn 0.99777 0.47522 0.63498 0.0
Zn386 Zn 0.06495 0.4939 0.62602 0.0
O387 O 0.07056 0.48975 0.81066 0.0
O388 O 0.0953 0.48601 0.70493 0.0
O389 O 0.01437 0.57067 0.73169 0.0
O390 O 0.02246 0.54014 0.82633 0.0
O391 O 0.00056 0.47073 0.81906 0.0
O392 O 0.98041 0.45041 0.71759 0.0
O393 O 0.01309 0.44881 0.55519 0.0
O394 O 0.04739 0.56369 0.57232 0.0
O395 O 0.06106 0.45886 0.5545 0.0
O396 O 0.08063 0.52878 0.56771 0.0
C397 C 0.95827 0.52262 0.57612 0.0
C398 C 0.09421 0.48511 0.77589 0.0
C399 C 0.98266 0.45204 0.78821 0.0
C400 C 0.01688 0.56583 0.80147 0.0
C401 C 0.03854 0.44422 0.53016 0.0
C402 C 0.07187 0.55437 0.55042 0.0
O403 O 0.96398 0.49601 0.59268 0.0
C404 C 0.15867 0.01258 0.46377 0.0
C405 C 0.15447 0.99892 0.39372 0.0
H406 H 0.14016 0.02231 0.57042 0.0
C407 C 0.12722 0.98487 0.37729 0.0
H408 H 0.17958 0.0233 0.4782 0.0
C409 C 0.10465 0.98441 0.42973 0.0
C410 C 0.10892 0.99765 0.50033 0.0
H411 H 0.12334 0.97425 0.32367 0.0
H412 H 0.08393 0.97335 0.4151 0.0
C413 C 0.13619 0.01178 0.51676 0.0
C414 C 0.51434 0.13013 0.44593 0.0
C415 C 0.50918 0.1253 0.36956 0.0
H416 H 0.51657 0.11093 0.5548 0.0
C417 C 0.50106 0.09658 0.34442 0.0
H418 H 0.52055 0.15218 0.46641 0.0
C419 C 0.49924 0.07278 0.39481 0.0
C420 C 0.50494 0.0775 0.47129 0.0
H421 H 0.49704 0.09243 0.28566 0.0
H422 H 0.49366 0.05067 0.37383 0.0
C423 C 0.51196 0.10655 0.49641 0.0
C424 C 0.38509 0.49616 0.46263 0.0
C425 C 0.38921 0.51287 0.397 0.0
H426 H 0.40459 0.47958 0.56248 0.0
C427 C 0.4173 0.52457 0.37999 0.0
H428 H 0.36355 0.48711 0.47727 0.0
C429 C 0.44077 0.52006 0.42816 0.0
C430 C 0.43659 0.50413 0.49508 0.0
H431 H 0.42107 0.5374 0.32957 0.0
H432 H 0.46208 0.52976 0.41371 0.0
C433 C 0.40852 0.49202 0.51154 0.0
C434 C 0.01944 0.39144 0.37172 0.0
C435 C 0.04466 0.37463 0.36657 0.0
H436 H 0.99771 0.42623 0.42775 0.0
C437 C 0.06898 0.38269 0.41179 0.0
H438 H 0.00058 0.38652 0.33641 0.0
C439 C 0.06752 0.40607 0.4633 0.0
C440 C 0.04158 0.42148 0.47133 0.0
H441 H 0.0887 0.37014 0.40987 0.0
H442 H 0.08623 0.41121 0.49898 0.0
C443 C 0.0178 0.41431 0.42397 0.0
C444 C 0.89299 0.97081 0.93246 0.0
C445 C 0.88435 0.99779 0.96358 0.0
H446 H 0.92377 0.94898 0.86339 0.0
C447 C 0.90134 0.02389 0.94963 0.0
H448 H 0.8803 0.95035 0.94251 0.0
C449 C 0.92592 0.02323 0.90349 0.0
C450 C 0.93433 0.99635 0.87125 0.0
H451 H 0.89503 0.04504 0.97232 0.0
H452 H 0.93821 0.04387 0.89258 0.0
C453 C 0.91789 0.97004 0.88734 0.0
C454 C 0.49367 0.873 0.94356 0.0
C455 C 0.51954 0.85794 0.95617 0.0
H456 H 0.47235 0.9063 0.88083 0.0
C457 C 0.54469 0.86606 0.91492 0.0
H458 H 0.47388 0.86693 0.97399 0.0
C459 C 0.54393 0.88885 0.86186 0.0
C460 C 0.51782 0.90346 0.84806 0.0
H461 H 0.5649 0.85475 0.92369 0.0
H462 H 0.56361 0.89464 0.83071 0.0
C463 C 0.49275 0.89534 0.88971 0.0
C464 C 0.65005 0.52884 0.9342 0.0
C465 C 0.65862 0.50194 0.96572 0.0
H466 H 0.61997 0.55029 0.86196 0.0
C467 C 0.64227 0.4756 0.94959 0.0
H468 H 0.66231 0.54945 0.9459 0.0
C469 C 0.61841 0.47596 0.9008 0.0
C470 C 0.61012 0.50275 0.86799 0.0
H471 H 0.64861 0.45451 0.9725 0.0
H472 H 0.60662 0.45517 0.88821 0.0
C473 C 0.62583 0.5293 0.88633 0.0
C474 C 0.01767 0.64393 0.88125 0.0
C475 C 0.01417 0.63852 0.95816 0.0
H476 H 0.02099 0.62541 0.77172 0.0
C477 C 0.01017 0.60888 0.98239 0.0
H478 H 0.02139 0.66633 0.86032 0.0
C479 C 0.01057 0.58531 0.93142 0.0
C480 C 0.01458 0.59081 0.85486 0.0
H481 H 0.00686 0.6038 0.04085 0.0
H482 H 0.00787 0.56275 0.95214 0.0
C483 C 0.01765 0.6204 0.83024 0.0
C484 C 0.97177 0.11688 0.47036 0.0
C485 C 0.97886 0.11143 0.39557 0.0
H486 H 0.96662 0.09854 0.57954 0.0
C487 C 0.97971 0.08187 0.37042 0.0
H488 H 0.97082 0.13944 0.49126 0.0
C489 C 0.97749 0.05836 0.42104 0.0
C490 C 0.97438 0.06409 0.49763 0.0
H491 H 0.9844 0.07705 0.31254 0.0
H492 H 0.98078 0.03601 0.40092 0.0
C493 C 0.96942 0.09335 0.52103 0.0
C494 C 0.42632 0.92102 0.35298 0.0
C495 C 0.39702 0.92057 0.37667 0.0
H496 H 0.47125 0.92759 0.38468 0.0
C497 C 0.39098 0.91861 0.45331 0.0
H498 H 0.43157 0.92182 0.29409 0.0
C499 C 0.41375 0.92155 0.50532 0.0
C500 C 0.44276 0.92678 0.48118 0.0
H501 H 0.36863 0.91814 0.47327 0.0
H502 H 0.40822 0.92298 0.5639 0.0
C503 C 0.44904 0.92431 0.40484 0.0
C504 C 0.57314 0.41267 0.36592 0.0
C505 C 0.58274 0.38562 0.39442 0.0
H506 H 0.56051 0.45685 0.39075 0.0
C507 C 0.59236 0.38447 0.46877 0.0
H508 H 0.56555 0.4142 0.30879 0.0
C509 C 0.58945 0.4089 0.51589 0.0
C510 C 0.57665 0.43484 0.48954 0.0
H511 H 0.60033 0.36402 0.49174 0.0
H512 H 0.59517 0.40655 0.57421 0.0
C513 C 0.57012 0.43709 0.41309 0.0
C514 C 0.13967 0.59799 0.498 0.0
C515 C 0.14024 0.5928 0.42064 0.0
H516 H 0.11665 0.58986 0.60046 0.0
C517 C 0.11486 0.58079 0.38532 0.0
H518 H 0.15879 0.60745 0.52658 0.0
C519 C 0.09073 0.571 0.42763 0.0
C520 C 0.09157 0.57342 0.50549 0.0
H521 H 0.11467 0.57619 0.32599 0.0
H522 H 0.07255 0.55923 0.40018 0.0
C523 C 0.11556 0.58815 0.54019 0.0
C524 C 0.0964 0.91614 0.98834 0.0
C525 C 0.09304 0.88572 0.96996 0.0
H526 H 0.09037 0.96113 0.95254 0.0
C527 C 0.08554 0.87762 0.89643 0.0
H528 H 0.10221 0.92294 0.04464 0.0
C529 C 0.07851 0.8993 0.84466 0.0
C530 C 0.07944 0.92944 0.86495 0.0
H531 H 0.0824 0.85444 0.88071 0.0
H532 H 0.07042 0.89237 0.79018 0.0
C533 C 0.08978 0.93794 0.93583 0.0
C534 C 0.60155 0.05688 0.94915 0.0
C535 C 0.62775 0.06698 0.91482 0.0
H536 H 0.55767 0.03931 0.9325 0.0
C537 C 0.62762 0.07306 0.83793 0.0
H538 H 0.60105 0.05168 0.00813 0.0
C539 C 0.6027 0.06613 0.795 0.0
C540 C 0.57759 0.05325 0.82845 0.0
H541 H 0.64743 0.08101 0.81017 0.0
H542 H 0.60391 0.06841 0.7349 0.0
C543 C 0.57668 0.04984 0.90606 0.0
C544 C 0.45699 0.61614 0.88939 0.0
C545 C 0.45022 0.60762 0.96288 0.0
H546 H 0.47217 0.60228 0.78261 0.0
C547 C 0.44817 0.5771 0.98068 0.0
H548 H 0.4591 0.63943 0.87409 0.0
C549 C 0.45542 0.55573 0.92761 0.0
C550 C 0.46509 0.56478 0.85678 0.0
H551 H 0.44294 0.56997 0.03694 0.0
H552 H 0.45586 0.53255 0.94386 0.0
C553 C 0.46465 0.59492 0.83708 0.0
C554 C 0.91007 0.41657 0.84328 0.0
C555 C 0.90998 0.42271 0.92008 0.0
H556 H 0.93371 0.42029 0.74097 0.0
C557 C 0.93626 0.43226 0.95512 0.0
H558 H 0.89018 0.40881 0.81516 0.0
C559 C 0.9612 0.43905 0.91272 0.0
C560 C 0.96028 0.43627 0.83463 0.0
H561 H 0.93683 0.43722 0.01428 0.0
H562 H 0.98039 0.44874 0.94055 0.0
C563 C 0.93508 0.42312 0.80092 0.0
C564 C 0.0596 0.14883 0.80726 0.0
C565 C 0.07518 0.15016 0.87514 0.0
H566 H 0.03995 0.12102 0.72224 0.0
C567 C 0.08692 0.12371 0.90265 0.0
H568 H 0.05098 0.16868 0.78282 0.0
C569 C 0.08141 0.0965 0.86613 0.0
C570 C 0.06351 0.09509 0.80253 0.0
H571 H 0.09871 0.12348 0.95507 0.0
H572 H 0.08942 0.07633 0.89054 0.0
C573 C 0.0534 0.12155 0.77217 0.0
C574 C 0.36656 0.00323 0.82994 0.0
C575 C 0.36244 0.03087 0.86435 0.0
H576 H 0.3946 0.97614 0.76687 0.0
C577 C 0.38407 0.05378 0.85458 0.0
H578 H 0.35088 0.98477 0.83704 0.0
C579 C 0.40978 0.04859 0.81471 0.0
C580 C 0.41441 0.02036 0.78403 0.0
H581 H 0.38155 0.07544 0.87968 0.0
H582 H 0.42642 0.06633 0.81024 0.0
C583 C 0.39206 0.99809 0.79038 0.0
C584 C 0.49622 0.347 0.79885 0.0
C585 C 0.48324 0.34557 0.86991 0.0
H586 H 0.51073 0.37487 0.70833 0.0
C587 C 0.46993 0.37115 0.89746 0.0
H588 H 0.50591 0.32766 0.7746 0.0
C589 C 0.47186 0.39803 0.85793 0.0
C590 C 0.48757 0.39991 0.79098 0.0
H591 H 0.45994 0.37118 0.95211 0.0
H592 H 0.46317 0.41781 0.88267 0.0
C593 C 0.49879 0.37398 0.76048 0.0
C594 C 0.14551 0.47805 0.94011 0.0
C595 C 0.17253 0.48706 0.90856 0.0
H596 H 0.0995 0.47027 0.9228 0.0
C597 C 0.17417 0.49162 0.83113 0.0
H598 H 0.14348 0.47468 -0.00027 0.0
C599 C 0.14894 0.48892 0.78683 0.0
C600 C 0.12153 0.4821 0.8194 0.0
H601 H 0.19476 0.49846 0.80537 0.0
H602 H 0.15068 0.49393 0.72788 0.0
C603 C 0.12025 0.47575 0.89609 0.0
C604 C 0.97931 0.86665 0.45319 0.0
C605 C 0.98712 0.8408 0.49127 0.0
H606 H 0.97511 0.91385 0.45815 0.0
C607 C 0.9925 0.84242 0.56838 0.0
H608 H 0.97538 0.86617 0.39355 0.0
C609 C 0.99204 0.86977 0.60564 0.0
C610 C 0.9868 0.89604 0.56599 0.0
H611 H 0.99857 0.82282 0.59897 0.0
H612 H 0.99789 0.87061 0.66423 0.0
C613 C 0.97937 0.89403 0.49005 0.0
C614 C 0.6591 0.9731 0.50891 0.0
C615 C 0.65849 0.96786 0.4316 0.0
H616 H 0.6342 0.97669 0.60938 0.0
C617 C 0.63168 0.95949 0.39737 0.0
H618 H 0.67946 0.97953 0.5367 0.0
C619 C 0.60577 0.95823 0.43858 0.0
C620 C 0.60612 0.96491 0.51517 0.0
H621 H 0.63043 0.95566 0.33774 0.0
H622 H 0.5853 0.95309 0.4098 0.0
C623 C 0.63319 0.97135 0.55046 0.0
C624 C 0.56546 0.63034 0.44472 0.0
C625 C 0.55742 0.65608 0.48295 0.0
H626 H 0.57031 0.58322 0.44947 0.0
C627 C 0.55247 0.65447 0.56012 0.0
H628 H 0.56909 0.63081 0.38503 0.0
C629 C 0.55344 0.62718 0.59727 0.0
C630 C 0.55879 0.60095 0.55748 0.0
H631 H 0.54625 0.674 0.59083 0.0
H632 H 0.54783 0.62634 0.65592 0.0
C633 C 0.56594 0.603 0.4815 0.0
C634 C 0.90156 0.54262 0.43349 0.0
C635 C 0.87763 0.52406 0.45612 0.0
H636 H 0.94619 0.55715 0.45502 0.0
C637 C 0.87909 0.5097 0.52554 0.0
H638 H 0.90128 0.55388 0.38014 0.0
C639 C 0.90492 0.5111 0.56717 0.0
C640 C 0.92962 0.52749 0.54132 0.0
H641 H 0.86085 0.49585 0.54557 0.0
H642 H 0.90607 0.4981 0.6179 0.0
C643 C 0.92735 0.54447 0.47613 0.0
loop_
_geom_bond_atom_site_label_1
_geom_bond_atom_site_label_2
_geom_bond_distance
_geom_bond_site_symmetry_2
_ccdc_geom_bond_type
C0 C1 1.386 . S
C0 C2 1.397 . S
C0 H24 0.931 . S
C1 C0 1.386 . S
C1 C5 1.397 . S
C2 C0 1.397 . S
C2 C3 1.384 . S
C2 H25 0.930 . S
C3 C2 1.384 . S
C3 C4 1.377 . S
C3 C6 1.481 . S
C4 C3 1.377 . S
C4 C5 1.389 . S
C4 H26 0.929 . S
C5 C1 1.397 . S
C5 C4 1.389 . S
C5 H27 0.931 . S
C6 C3 1.481 . S
C6 C7 1.387 . S
C6 C11 1.390 1_556 S
C7 C6 1.387 . S
C7 C8 1.401 1_556 S
C7 H28 0.930 . S
C8 C7 1.401 1_554 S
C8 C9 1.376 . S
C8 C17 1.511 1_554 S
C9 C8 1.376 . S
C9 C10 1.392 . S
C9 H30 0.931 . S
C10 C9 1.392 . S
C10 C11 1.361 . S
C10 C12 1.500 . S
C11 C6 1.390 1_554 S
C11 C10 1.361 . S
C11 H29 0.931 . S
C12 C10 1.500 . S
C12 C13 1.371 . S
C12 C14 1.365 . S
C13 C12 1.371 . S
C13 C23 1.386 . S
C13 H31 0.931 . S
C14 C12 1.365 . S
C14 C15 1.409 . S
C14 H32 0.929 . S
C15 C14 1.409 . S
C15 C16 1.380 . S
C15 H33 0.930 . S
C16 C15 1.380 . S
C16 C23 1.357 . S
C17 C8 1.511 1_556 S
C17 C18 1.341 . S
C17 C19 1.371 1_556 S
C18 C17 1.341 . S
C18 C22 1.394 . S
C18 H34 0.930 . S
C19 C17 1.371 1_554 S
C19 C20 1.392 . S
C19 H35 0.931 . S
C20 C19 1.392 . S
C20 C21 1.331 1_554 S
C20 H38 0.932 . S
C21 C20 1.331 1_556 S
C21 C22 1.336 . S
C22 C18 1.394 . S
C22 C21 1.336 . S
C22 H37 0.929 . S
C23 C13 1.386 . S
C23 C16 1.357 . S
C23 H36 0.928 . S
H24 C0 0.931 . S
H25 C2 0.930 . S
H26 C4 0.929 . S
H27 C5 0.931 . S
H28 C7 0.930 . S
H29 C11 0.931 . S
H30 C9 0.931 . S
H31 C13 0.931 . S
H32 C14 0.929 . S
H33 C15 0.930 . S
H34 C18 0.930 . S
H35 C19 0.931 . S
H36 C23 0.928 . S
H37 C22 0.929 . S
H38 C20 0.932 . S
C39 C40 1.386 . S
C39 C41 1.397 . S
C39 H63 0.931 . S
C40 C39 1.386 . S
C40 C44 1.397 1_655 S
C41 C39 1.397 . S
C41 C42 1.384 . S
C41 H64 0.930 . S
C42 C41 1.384 . S
C42 C43 1.377 1_655 S
C42 C45 1.481 1_556 S
C43 C42 1.377 1_455 S
C43 C44 1.389 . S
C43 H65 0.929 1_556 S
C44 C40 1.397 1_455 S
C44 C43 1.389 . S
C44 H66 0.931 . S
C45 C42 1.481 1_554 S
C45 C46 1.387 . S
C45 C50 1.390 . S
C46 C45 1.387 . S
C46 C47 1.401 . S
C46 H67 0.930 1_554 S
C47 C46 1.401 . S
C47 C48 1.376 . S
C47 C56 1.511 . S
C48 C47 1.376 . S
C48 C49 1.392 . S
C48 H69 0.931 . S
C49 C48 1.392 . S
C49 C50 1.361 . S
C49 C51 1.500 . S
C50 C45 1.390 . S
C50 C49 1.361 . S
C50 H68 0.931 . S
C51 C49 1.500 . S
C51 C52 1.371 . S
C51 C53 1.365 1_655 S
C52 C51 1.371 . S
C52 C62 1.386 . S
C52 H70 0.931 . S
C53 C51 1.365 1_455 S
C53 C54 1.409 . S
C53 H71 0.929 . S
C54 C53 1.409 . S
C54 C55 1.380 1_455 S
C54 H72 0.930 . S
C55 C54 1.380 1_655 S
C55 C62 1.357 . S
C56 C47 1.511 . S
C56 C57 1.341 1_554 S
C56 C58 1.371 . S
C57 C56 1.341 1_556 S
C57 C61 1.394 . S
C57 H73 0.930 . S
C58 C56 1.371 . S
C58 C59 1.392 . S
C58 H74 0.931 1_655 S
C59 C58 1.392 . S
C59 C60 1.331 . S
C59 H77 0.932 1_655 S
C60 C59 1.331 . S
C60 C61 1.336 1_554 S
C61 C57 1.394 . S
C61 C60 1.336 1_556 S
C61 H76 0.929 . S
C62 C52 1.386 . S
C62 C55 1.357 . S
C62 H75 0.928 . S
H63 C39 0.931 . S
H64 C41 0.930 . S
H65 C43 0.929 1_554 S
H66 C44 0.931 . S
H67 C46 0.930 1_556 S
H68 C50 0.931 . S
H69 C48 0.931 . S
H70 C52 0.931 . S
H71 C53 0.929 . S
H72 C54 0.930 . S
H73 C57 0.930 . S
H74 C58 0.931 1_455 S
H75 C62 0.928 . S
H76 C61 0.929 . S
H77 C59 0.932 1_455 S
C78 C79 1.387 . S
C78 C80 1.397 . S
C78 H102 0.931 . S
C79 C78 1.387 . S
C79 C83 1.396 1_565 S
C80 C78 1.397 . S
C80 C81 1.385 . S
C80 H103 0.930 . S
C81 C80 1.385 . S
C81 C82 1.376 1_565 S
C81 C84 1.479 1_556 S
C82 C81 1.376 1_545 S
C82 C83 1.389 . S
C82 H104 0.929 . S
C83 C79 1.396 1_545 S
C83 C82 1.389 . S
C83 H105 0.931 . S
C84 C81 1.479 1_554 S
C84 C85 1.390 1_554 S
C84 C89 1.390 . S
C85 C84 1.390 1_556 S
C85 C86 1.401 1_556 S
C85 H106 0.930 . S
C86 C85 1.401 1_554 S
C86 C87 1.377 . S
C86 C95 1.515 . S
C87 C86 1.377 . S
C87 C88 1.392 . S
C87 H108 0.931 . S
C88 C87 1.392 . S
C88 C89 1.361 . S
C88 C90 1.499 1_565 S
C89 C84 1.390 . S
C89 C88 1.361 . S
C89 H107 0.931 . S
C90 C88 1.499 1_545 S
C90 C91 1.359 1_545 S
C90 C92 1.378 . S
C91 C90 1.359 1_565 S
C91 C101 1.386 . S
C91 H109 0.931 . S
C92 C90 1.378 . S
C92 C93 1.409 . S
C92 H110 0.929 . S
C93 C92 1.409 . S
C93 C94 1.383 . S
C93 H111 0.930 . S
C94 C93 1.383 . S
C94 C101 1.355 1_545 S
C95 C86 1.515 . S
C95 C96 1.341 1_554 S
C95 C97 1.371 1_565 S
C96 C95 1.341 1_556 S
C96 C100 1.394 . S
C96 H112 0.930 . S
C97 C95 1.371 1_545 S
C97 C98 1.392 . S
C97 H113 0.931 . S
C98 C97 1.392 . S
C98 C99 1.331 1_544 S
C98 H116 0.932 . S
C99 C98 1.331 1_566 S
C99 C100 1.336 . S
C100 C96 1.394 . S
C100 C99 1.336 . S
C100 H115 0.929 . S
C101 C91 1.386 . S
C101 C94 1.355 1_565 S
C101 H114 0.928 . S
H102 C78 0.931 . S
H103 C80 0.930 . S
H104 C82 0.929 . S
H105 C83 0.931 . S
H106 C85 0.930 . S
H107 C89 0.931 . S
H108 C87 0.931 . S
H109 C91 0.931 . S
H110 C92 0.929 . S
H111 C93 0.930 . S
H112 C96 0.930 . S
H113 C97 0.931 . S
H114 C101 0.928 . S
H115 C100 0.929 . S
H116 C98 0.932 . S
C117 C118 1.386 . S
C117 C119 1.397 . S
C117 H141 0.931 . S
C118 C117 1.386 . S
C118 C122 1.397 . S
C119 C117 1.397 . S
C119 C120 1.384 . S
C119 H142 0.930 . S
C120 C119 1.384 . S
C120 C121 1.377 . S
C120 C123 1.481 . S
C121 C120 1.377 . S
C121 C122 1.389 . S
C121 H143 0.929 . S
C122 C118 1.397 . S
C122 C121 1.389 . S
C122 H144 0.931 . S
C123 C120 1.481 . S
C123 C124 1.387 . S
C123 C128 1.390 . S
C124 C123 1.387 . S
C124 C125 1.401 . S
C124 H145 0.930 . S
C125 C124 1.401 . S
C125 C126 1.376 1_554 S
C125 C134 1.511 . S
C126 C125 1.376 1_556 S
C126 C127 1.392 . S
C126 H147 0.931 . S
C127 C126 1.392 . S
C127 C128 1.361 1_556 S
C127 C129 1.500 . S
C128 C123 1.390 . S
C128 C127 1.361 1_554 S
C128 H146 0.931 . S
C129 C127 1.500 . S
C129 C130 1.371 . S
C129 C131 1.365 . S
C130 C129 1.371 . S
C130 C140 1.386 . S
C130 H148 0.931 . S
C131 C129 1.365 . S
C131 C132 1.409 . S
C131 H149 0.929 . S
C132 C131 1.409 . S
C132 C133 1.380 . S
C132 H150 0.930 . S
C133 C132 1.380 . S
C133 C140 1.357 . S
C134 C125 1.511 . S
C134 C135 1.341 . S
C134 C136 1.371 1_554 S
C135 C134 1.341 . S
C135 C139 1.394 . S
C135 H151 0.930 . S
C136 C134 1.371 1_556 S
C136 C137 1.392 . S
C136 H152 0.931 . S
C137 C136 1.392 . S
C137 C138 1.331 . S
C137 H155 0.932 . S
C138 C137 1.331 . S
C138 C139 1.336 1_556 S
C139 C135 1.394 . S
C139 C138 1.336 1_554 S
C139 H154 0.929 . S
C140 C130 1.386 . S
C140 C133 1.357 . S
C140 H153 0.928 . S
H141 C117 0.931 . S
H142 C119 0.930 . S
H143 C121 0.929 . S
H144 C122 0.931 . S
H145 C124 0.930 . S
H146 C128 0.931 . S
H147 C126 0.931 . S
H148 C130 0.931 . S
H149 C131 0.929 . S
H150 C132 0.930 . S
H151 C135 0.930 . S
H152 C136 0.931 . S
H153 C140 0.928 . S
H154 C139 0.929 . S
H155 C137 0.932 . S
C156 C157 1.386 . S
C156 C158 1.397 . S
C156 H180 0.931 . S
C157 C156 1.386 . S
C157 C161 1.397 . S
C158 C156 1.397 . S
C158 C159 1.384 . S
C158 H181 0.930 . S
C159 C158 1.384 . S
C159 C160 1.377 . S
C159 C162 1.481 . S
C160 C159 1.377 . S
C160 C161 1.389 . S
C160 H182 0.929 . S
C161 C157 1.397 . S
C161 C160 1.389 . S
C161 H183 0.931 . S
C162 C159 1.481 . S
C162 C163 1.387 . S
C162 C167 1.390 . S
C163 C162 1.387 . S
C163 C164 1.401 . S
C163 H184 0.930 . S
C164 C163 1.401 . S
C164 C165 1.376 . S
C164 C173 1.511 . S
C165 C164 1.376 . S
C165 C166 1.392 . S
C165 H186 0.931 . S
C166 C165 1.392 . S
C166 C167 1.361 . S
C166 C168 1.500 . S
C167 C162 1.390 . S
C167 C166 1.361 . S
C167 H185 0.931 . S
C168 C166 1.500 . S
C168 C169 1.371 . S
C168 C170 1.365 . S
C169 C168 1.371 . S
C169 C179 1.386 1_554 S
C169 H187 0.931 . S
C170 C168 1.365 . S
C170 C171 1.409 . S
C170 H188 0.929 . S
C171 C170 1.409 . S
C171 C172 1.380 1_554 S
C171 H189 0.930 1_554 S
C172 C171 1.380 1_556 S
C172 C179 1.357 . S
C173 C164 1.511 . S
C173 C174 1.341 . S
C173 C175 1.371 . S
C174 C173 1.341 . S
C174 C178 1.394 . S
C174 H190 0.930 . S
C175 C173 1.371 . S
C175 C176 1.392 . S
C175 H191 0.931 . S
C176 C175 1.392 . S
C176 C177 1.331 . S
C176 H194 0.932 . S
C177 C176 1.331 . S
C177 C178 1.336 . S
C178 C174 1.394 . S
C178 C177 1.336 . S
C178 H193 0.929 . S
C179 C169 1.386 1_556 S
C179 C172 1.357 . S
C179 H192 0.928 . S
H180 C156 0.931 . S
H181 C158 0.930 . S
H182 C160 0.929 . S
H183 C161 0.931 . S
H184 C163 0.930 . S
H185 C167 0.931 . S
H186 C165 0.931 . S
H187 C169 0.931 . S
H188 C170 0.929 . S
H189 C171 0.930 1_556 S
H190 C174 0.930 . S
H191 C175 0.931 . S
H192 C179 0.928 . S
H193 C178 0.929 . S
H194 C176 0.932 . S
C195 C196 1.386 . S
C195 C197 1.397 . S
C195 H219 0.931 . S
C196 C195 1.386 . S
C196 C200 1.397 . S
C197 C195 1.397 . S
C197 C198 1.384 . S
C197 H220 0.930 . S
C198 C197 1.384 . S
C198 C199 1.377 . S
C198 C201 1.481 . S
C199 C198 1.377 . S
C199 C200 1.389 . S
C199 H221 0.929 . S
C200 C196 1.397 . S
C200 C199 1.389 . S
C200 H222 0.931 . S
C201 C198 1.481 . S
C201 C202 1.387 . S
C201 C206 1.390 . S
C202 C201 1.387 . S
C202 C203 1.401 . S
C202 H223 0.930 . S
C203 C202 1.401 . S
C203 C204 1.376 . S
C203 C212 1.511 . S
C204 C203 1.376 . S
C204 C205 1.392 . S
C204 H225 0.931 . S
C205 C204 1.392 . S
C205 C206 1.361 . S
C205 C207 1.500 . S
C206 C201 1.390 . S
C206 C205 1.361 . S
C206 H224 0.931 . S
C207 C205 1.500 . S
C207 C208 1.371 . S
C207 C209 1.365 . S
C208 C207 1.371 . S
C208 C218 1.386 . S
C208 H226 0.931 . S
C209 C207 1.365 . S
C209 C210 1.409 . S
C209 H227 0.929 . S
C210 C209 1.409 . S
C210 C211 1.380 . S
C210 H228 0.930 . S
C211 C210 1.380 . S
C211 C218 1.357 . S
C212 C203 1.511 . S
C212 C213 1.341 . S
C212 C214 1.371 . S
C213 C212 1.341 . S
C213 C217 1.394 . S
C213 H229 0.930 . S
C214 C212 1.371 . S
C214 C215 1.392 . S
C214 H230 0.931 . S
C215 C214 1.392 . S
C215 C216 1.331 . S
C215 H233 0.932 . S
C216 C215 1.331 . S
C216 C217 1.336 . S
C217 C213 1.394 . S
C217 C216 1.336 . S
C217 H232 0.929 . S
C218 C208 1.386 . S
C218 C211 1.357 . S
C218 H231 0.928 . S
H219 C195 0.931 . S
H220 C197 0.930 . S
H221 C199 0.929 . S
H222 C200 0.931 . S
H223 C202 0.930 . S
H224 C206 0.931 . S
H225 C204 0.931 . S
H226 C208 0.931 . S
H227 C209 0.929 . S
H228 C210 0.930 . S
H229 C213 0.930 . S
H230 C214 0.931 . S
H231 C218 0.928 . S
H232 C217 0.929 . S
H233 C215 0.932 . S
C234 C235 1.387 1_565 S
C234 C236 1.397 . S
C234 H258 0.931 . S
C235 C234 1.387 1_545 S
C235 C239 1.397 . S
C236 C234 1.397 . S
C236 C237 1.385 1_565 S
C236 H259 0.930 . S
C237 C236 1.385 1_545 S
C237 C238 1.376 . S
C237 C240 1.481 1_545 S
C238 C237 1.376 . S
C238 C239 1.389 . S
C238 H260 0.929 . S
C239 C235 1.397 . S
C239 C238 1.389 . S
C239 H261 0.931 . S
C240 C237 1.481 1_565 S
C240 C241 1.387 . S
C240 C245 1.390 . S
C241 C240 1.387 . S
C241 C242 1.403 . S
C241 H262 0.930 . S
C242 C241 1.403 . S
C242 C243 1.377 . S
C242 C251 1.511 . S
C243 C242 1.377 . S
C243 C244 1.392 1_565 S
C243 H264 0.931 . S
C244 C243 1.392 1_545 S
C244 C245 1.361 1_545 S
C244 C246 1.499 . S
C245 C240 1.390 . S
C245 C244 1.361 1_565 S
C245 H263 0.931 1_565 S
C246 C244 1.499 . S
C246 C247 1.357 1_545 S
C246 C248 1.380 . S
C247 C246 1.357 1_565 S
C247 C257 1.386 . S
C247 H265 0.931 . S
C248 C246 1.380 . S
C248 C249 1.409 . S
C248 H266 0.929 . S
C249 C248 1.409 . S
C249 C250 1.386 1_554 S
C249 H267 0.930 . S
C250 C249 1.386 1_556 S
C250 C257 1.351 1_546 S
C251 C242 1.511 . S
C251 C252 1.341 . S
C251 C253 1.371 1_565 S
C252 C251 1.341 . S
C252 C256 1.394 . S
C252 H268 0.930 . S
C253 C251 1.371 1_545 S
C253 C254 1.392 . S
C253 H269 0.931 . S
C254 C253 1.392 . S
C254 C255 1.320 1_545 S
C254 H272 0.932 . S
C255 C254 1.320 1_565 S
C255 C256 1.349 . S
C256 C252 1.394 . S
C256 C255 1.349 . S
C256 H271 0.929 . S
C257 C247 1.386 . S
C257 C250 1.351 1_564 S
C257 H270 0.928 1_554 S
H258 C234 0.931 . S
H259 C236 0.930 . S
H260 C238 0.929 . S
H261 C239 0.931 . S
H262 C241 0.930 . S
H263 C245 0.931 1_545 S
H264 C243 0.931 . S
H265 C247 0.931 . S
H266 C248 0.929 . S
H267 C249 0.930 . S
H268 C252 0.930 . S
H269 C253 0.931 . S
H270 C257 0.928 1_556 S
H271 C256 0.929 . S
H272 C254 0.932 . S
C273 C274 1.386 . S
C273 C275 1.397 1_556 S
C273 H297 0.931 . S
C274 C273 1.386 . S
C274 C278 1.397 1_556 S
C275 C273 1.397 1_554 S
C275 C276 1.384 . S
C275 H298 0.930 . S
C276 C275 1.384 . S
C276 C277 1.377 . S
C276 C279 1.481 . S
C277 C276 1.377 . S
C277 C278 1.389 . S
C277 H299 0.929 . S
C278 C274 1.397 1_554 S
C278 C277 1.389 . S
C278 H300 0.931 1_554 S
C279 C276 1.481 . S
C279 C280 1.387 . S
C279 C284 1.390 . S
C280 C279 1.387 . S
C280 C281 1.401 . S
C280 H301 0.930 . S
C281 C280 1.401 . S
C281 C282 1.376 . S
C281 C290 1.511 . S
C282 C281 1.376 . S
C282 C283 1.392 . S
C282 H303 0.931 . S
C283 C282 1.392 . S
C283 C284 1.361 . S
C283 C285 1.500 . S
C284 C279 1.390 . S
C284 C283 1.361 . S
C284 H302 0.931 . S
C285 C283 1.500 . S
C285 C286 1.371 . S
C285 C287 1.365 . S
C286 C285 1.371 . S
C286 C296 1.386 . S
C286 H304 0.931 . S
C287 C285 1.365 . S
C287 C288 1.409 . S
C287 H305 0.929 . S
C288 C287 1.409 . S
C288 C289 1.380 . S
C288 H306 0.930 . S
C289 C288 1.380 . S
C289 C296 1.357 . S
C290 C281 1.511 . S
C290 C291 1.341 . S
C290 C292 1.371 . S
C291 C290 1.341 . S
C291 C295 1.394 . S
C291 H307 0.930 . S
C292 C290 1.371 . S
C292 C293 1.392 . S
C292 H308 0.931 . S
C293 C292 1.392 . S
C293 C294 1.331 . S
C293 H311 0.932 . S
C294 C293 1.331 . S
C294 C295 1.336 . S
C295 C291 1.394 . S
C295 C294 1.336 . S
C295 H310 0.929 . S
C296 C286 1.386 . S
C296 C289 1.357 . S
C296 H309 0.928 . S
H297 C273 0.931 . S
H298 C275 0.930 . S
H299 C277 0.929 . S
H300 C278 0.931 1_556 S
H301 C280 0.930 . S
H302 C284 0.931 . S
H303 C282 0.931 . S
H304 C286 0.931 . S
H305 C287 0.929 . S
H306 C288 0.930 . S
H307 C291 0.930 . S
H308 C292 0.931 . S
H309 C296 0.928 . S
H310 C295 0.929 . S
H311 C293 0.932 . S
O312 Zn313 1.953 . S
O312 C328 1.233 . S
Zn313 O312 1.953 . S
Zn313 O314 1.950 . S
Zn313 O320 1.919 1_565 S
Zn313 O325 1.924 . S
O314 Zn313 1.950 . S
O314 Zn315 1.900 1_565 S
O314 Zn316 1.953 . S
O314 Zn317 1.964 . S
Zn315 O314 1.900 1_545 S
Zn315 O318 1.933 1_455 S
Zn315 O321 1.941 . S
Zn315 O322 1.965 . S
Zn316 O314 1.953 . S
Zn316 O323 1.938 1_565 S
Zn316 O324 1.906 . S
Zn316 O334 1.953 . S
Zn317 O314 1.964 . S
Zn317 O319 1.932 1_455 S
Zn317 O326 1.977 1_455 S
Zn317 O327 1.910 . S
O318 Zn315 1.933 1_655 S
O318 C329 1.226 . S
O319 Zn317 1.932 1_655 S
O319 C329 1.307 1_565 S
O320 Zn313 1.919 1_545 S
O320 C331 1.253 . S
O321 Zn315 1.941 . S
O321 C331 1.283 . S
O322 Zn315 1.965 . S
O322 C330 1.303 . S
O323 Zn316 1.938 1_545 S
O323 C330 1.247 . S
O324 Zn316 1.906 . S
O324 C332 1.304 . S
O325 Zn313 1.924 . S
O325 C333 1.311 . S
O326 Zn317 1.977 1_655 S
O326 C332 1.272 1_655 S
O327 Zn317 1.910 . S
O327 C333 1.231 . S
C328 O312 1.233 . S
C328 O334 1.298 . S
C329 O318 1.226 . S
C329 O319 1.307 1_545 S
C330 O322 1.303 . S
C330 O323 1.247 . S
C331 O320 1.253 . S
C331 O321 1.283 . S
C332 O324 1.304 . S
C332 O326 1.272 1_455 S
C333 O325 1.311 . S
C333 O327 1.231 . S
O334 Zn316 1.953 . S
O334 C328 1.298 . S
O335 Zn336 1.953 . S
O335 C351 1.225 . S
Zn336 O335 1.953 . S
Zn336 O337 1.949 . S
Zn336 O343 1.919 . S
Zn336 O348 1.924 . S
O337 Zn336 1.949 . S
O337 Zn338 1.923 1_545 S
O337 Zn339 1.950 . S
O337 Zn340 1.945 1_545 S
Zn338 O337 1.923 1_565 S
Zn338 O341 1.933 . S
Zn338 O344 1.941 . S
Zn338 O345 1.965 . S
Zn339 O337 1.950 . S
Zn339 O346 1.938 . S
Zn339 O347 1.906 1_545 S
Zn339 O357 1.953 . S
Zn340 O337 1.945 1_565 S
Zn340 O342 1.932 . S
Zn340 O349 1.977 . S
Zn340 O350 1.910 1_565 S
O341 Zn338 1.933 . S
O341 C352 1.226 . S
O342 Zn340 1.932 . S
O342 C352 1.307 . S
O343 Zn336 1.919 . S
O343 C354 1.253 . S
O344 Zn338 1.941 . S
O344 C354 1.283 1_565 S
O345 Zn338 1.965 . S
O345 C353 1.303 . S
O346 Zn339 1.938 . S
O346 C353 1.247 1_545 S
O347 Zn339 1.906 1_565 S
O347 C355 1.304 . S
O348 Zn336 1.924 . S
O348 C356 1.311 . S
O349 Zn340 1.977 . S
O349 C355 1.272 . S
O350 Zn340 1.910 1_545 S
O350 C356 1.231 . S
C351 O335 1.225 . S
C351 O357 1.298 . S
C352 O341 1.226 . S
C352 O342 1.307 . S
C353 O345 1.303 . S
C353 O346 1.247 1_565 S
C354 O343 1.253 . S
C354 O344 1.283 1_545 S
C355 O347 1.304 . S
C355 O349 1.272 . S
C356 O348 1.311 . S
C356 O350 1.231 . S
O357 Zn339 1.953 . S
O357 C351 1.298 . S
O358 Zn359 1.953 . S
O358 C374 1.225 . S
Zn359 O358 1.953 . S
Zn359 O360 1.949 . S
Zn359 O366 1.919 . S
Zn359 O371 1.924 . S
O360 Zn359 1.949 . S
O360 Zn361 1.923 . S
O360 Zn362 1.950 . S
O360 Zn363 1.945 . S
Zn361 O360 1.923 . S
Zn361 O364 1.933 . S
Zn361 O367 1.941 . S
Zn361 O368 1.965 . S
Zn362 O360 1.950 . S
Zn362 O369 1.938 . S
Zn362 O370 1.906 . S
Zn362 O380 1.953 . S
Zn363 O360 1.945 . S
Zn363 O365 1.932 . S
Zn363 O372 1.977 . S
Zn363 O373 1.910 . S
O364 Zn361 1.933 . S
O364 C375 1.226 . S
O365 Zn363 1.932 . S
O365 C375 1.307 . S
O366 Zn359 1.919 . S
O366 C377 1.253 . S
O367 Zn361 1.941 . S
O367 C377 1.283 . S
O368 Zn361 1.965 . S
O368 C376 1.303 . S
O369 Zn362 1.938 . S
O369 C376 1.247 . S
O370 Zn362 1.906 . S
O370 C378 1.304 . S
O371 Zn359 1.924 . S
O371 C379 1.311 . S
O372 Zn363 1.977 . S
O372 C378 1.272 . S
O373 Zn363 1.910 . S
O373 C379 1.231 . S
C374 O358 1.225 . S
C374 O380 1.298 . S
C375 O364 1.226 . S
C375 O365 1.307 . S
C376 O368 1.303 . S
C376 O369 1.247 . S
C377 O366 1.253 . S
C377 O367 1.283 . S
C378 O370 1.304 . S
C378 O372 1.272 . S
C379 O371 1.311 . S
C379 O373 1.231 . S
O380 Zn362 1.953 . S
O380 C374 1.298 . S
O381 Zn382 1.953 1_655 S
O381 C397 1.225 . S
Zn382 O381 1.953 1_455 S
Zn382 O383 1.949 . S
Zn382 O389 1.919 . S
Zn382 O394 1.924 . S
O383 Zn382 1.949 . S
O383 Zn384 1.923 . S
O383 Zn385 1.950 1_455 S
O383 Zn386 1.945 . S
Zn384 O383 1.923 . S
Zn384 O387 1.933 . S
Zn384 O390 1.937 1_455 S
Zn384 O391 1.965 1_455 S
Zn385 O383 1.950 1_655 S
Zn385 O392 1.938 . S
Zn385 O393 1.906 1_655 S
Zn385 O403 1.953 . S
Zn386 O383 1.945 . S
Zn386 O388 1.932 . S
Zn386 O395 1.977 . S
Zn386 O396 1.910 . S
O387 Zn384 1.933 . S
O387 C398 1.226 . S
O388 Zn386 1.932 . S
O388 C398 1.307 . S
O389 Zn382 1.919 . S
O389 C400 1.253 . S
O390 Zn384 1.937 1_655 S
O390 C400 1.278 1_655 S
O391 Zn384 1.965 1_655 S
O391 C399 1.303 . S
O392 Zn385 1.938 . S
O392 C399 1.247 . S
O393 Zn385 1.906 1_455 S
O393 C401 1.304 . S
O394 Zn382 1.924 . S
O394 C402 1.311 . S
O395 Zn386 1.977 . S
O395 C401 1.272 . S
O396 Zn386 1.910 . S
O396 C402 1.231 . S
C397 O381 1.225 . S
C397 O403 1.298 . S
C398 O387 1.226 . S
C398 O388 1.307 . S
C399 O391 1.303 . S
C399 O392 1.247 . S
C400 O389 1.253 . S
C400 O390 1.278 1_455 S
C401 O393 1.304 . S
C401 O395 1.272 . S
C402 O394 1.311 . S
C402 O396 1.231 . S
O403 Zn385 1.953 . S
O403 C397 1.298 . S
C404 C405 1.387 1_545 S
C404 H408 0.950 . S
C404 C413 1.390 . S
C405 C404 1.387 1_565 S
C405 C407 1.387 . S
H406 C413 0.950 . S
C407 C405 1.387 . S
C407 C409 1.390 . S
C407 H411 0.950 . S
H408 C404 0.950 . S
C409 C407 1.390 . S
C409 C410 1.387 . S
C409 H412 0.950 . S
C410 C409 1.387 . S
C410 C413 1.387 1_565 S
H411 C407 0.950 . S
H412 C409 0.950 . S
C413 C404 1.390 . S
C413 H406 0.950 . S
C413 C410 1.387 1_545 S
C414 C415 1.387 . S
C414 H418 0.950 . S
C414 C423 1.390 . S
C415 C414 1.387 . S
C415 C417 1.387 . S
H416 C423 0.950 . S
C417 C415 1.387 . S
C417 C419 1.390 . S
C417 H421 0.950 . S
H418 C414 0.950 . S
C419 C417 1.390 . S
C419 C420 1.387 . S
C419 H422 0.950 . S
C420 C419 1.387 . S
C420 C423 1.387 . S
H421 C417 0.950 . S
H422 C419 0.950 . S
C423 C414 1.390 . S
C423 H416 0.950 . S
C423 C420 1.387 . S
C424 C425 1.387 . S
C424 H428 0.950 . S
C424 C433 1.390 . S
C425 C424 1.387 . S
C425 C427 1.387 . S
H426 C433 0.950 . S
C427 C425 1.387 . S
C427 C429 1.390 . S
C427 H431 0.950 . S
H428 C424 0.950 . S
C429 C427 1.390 . S
C429 C430 1.387 . S
C429 H432 0.950 . S
C430 C429 1.387 . S
C430 C433 1.387 . S
H431 C427 0.950 . S
H432 C429 0.950 . S
C433 C424 1.390 . S
C433 H426 0.950 . S
C433 C430 1.387 . S
C434 C435 1.387 . S
C434 H438 0.950 . S
C434 C443 1.390 . S
C435 C434 1.387 . S
C435 C437 1.387 . S
H436 C443 0.950 . S
C437 C435 1.387 . S
C437 C439 1.390 . S
C437 H441 0.950 . S
H438 C434 0.950 . S
C439 C437 1.390 . S
C439 C440 1.387 . S
C439 H442 0.950 . S
C440 C439 1.387 . S
C440 C443 1.387 . S
H441 C437 0.950 . S
H442 C439 0.950 . S
C443 C434 1.390 . S
C443 H436 0.950 . S
C443 C440 1.387 . S
C444 C445 1.387 1_565 S
C444 H448 0.950 . S
C444 C453 1.390 . S
C445 C444 1.387 1_545 S
C445 C447 1.387 . S
H446 C453 0.950 . S
C447 C445 1.387 . S
C447 C449 1.390 . S
C447 H451 0.950 . S
H448 C444 0.950 . S
C449 C447 1.390 . S
C449 C450 1.387 . S
C449 H452 0.950 . S
C450 C449 1.387 . S
C450 C453 1.387 1_545 S
H451 C447 0.950 . S
H452 C449 0.950 . S
C453 C444 1.390 . S
C453 H446 0.950 . S
C453 C450 1.387 1_565 S
C454 C455 1.387 . S
C454 H458 0.950 . S
C454 C463 1.390 . S
C455 C454 1.387 . S
C455 C457 1.387 . S
H456 C463 0.950 . S
C457 C455 1.387 . S
C457 C459 1.390 . S
C457 H461 0.950 . S
H458 C454 0.950 . S
C459 C457 1.390 . S
C459 C460 1.387 . S
C459 H462 0.950 . S
C460 C459 1.387 . S
C460 C463 1.387 . S
H461 C457 0.950 . S
H462 C459 0.950 . S
C463 C454 1.390 . S
C463 H456 0.950 . S
C463 C460 1.387 . S
C464 C465 1.387 . S
C464 H468 0.950 . S
C464 C473 1.390 . S
C465 C464 1.387 . S
C465 C467 1.387 . S
H466 C473 0.950 . S
C467 C465 1.387 . S
C467 C469 1.390 . S
C467 H471 0.950 . S
H468 C464 0.950 . S
C469 C467 1.390 . S
C469 C470 1.387 . S
C469 H472 0.950 . S
C470 C469 1.387 . S
C470 C473 1.387 . S
H471 C467 0.950 . S
H472 C469 0.950 . S
C473 C464 1.390 . S
C473 H466 0.950 . S
C473 C470 1.387 . S
C474 C475 1.387 1_455 S
C474 H478 0.950 . S
C474 C483 1.390 . S
C475 C474 1.387 1_655 S
C475 C477 1.387 . S
H476 C483 0.950 . S
C477 C475 1.387 . S
C477 C479 1.390 . S
C477 H481 0.950 . S
H478 C474 0.950 . S
C479 C477 1.390 . S
C479 C480 1.387 1_655 S
C479 H482 0.950 . S
C480 C479 1.387 1_455 S
C480 C483 1.387 . S
H481 C477 0.950 . S
H482 C479 0.950 . S
C483 C474 1.390 . S
C483 H476 0.950 . S
C483 C480 1.387 . S
C484 C485 1.387 . S
C484 H488 0.950 . S
C484 C493 1.390 . S
C485 C484 1.387 . S
C485 C487 1.387 . S
H486 C493 0.950 . S
C487 C485 1.387 . S
C487 C489 1.390 . S
C487 H491 0.950 . S
H488 C484 0.950 . S
C489 C487 1.390 . S
C489 C490 1.387 . S
C489 H492 0.950 . S
C490 C489 1.387 . S
C490 C493 1.387 . S
H491 C487 0.950 . S
H492 C489 0.950 . S
C493 C484 1.390 . S
C493 H486 0.950 . S
C493 C490 1.387 . S
C494 C495 1.387 1_565 S
C494 H498 0.950 . S
C494 C503 1.390 . S
C495 C494 1.387 1_545 S
C495 C497 1.387 . S
H496 C503 0.950 . S
C497 C495 1.387 . S
C497 C499 1.390 . S
C497 H501 0.950 . S
H498 C494 0.950 . S
C499 C497 1.390 . S
C499 C500 1.387 1_545 S
C499 H502 0.950 . S
C500 C499 1.387 1_565 S
C500 C503 1.387 . S
H501 C497 0.950 . S
H502 C499 0.950 . S
C503 C494 1.390 . S
C503 H496 0.950 . S
C503 C500 1.387 . S
C504 C505 1.387 . S
C504 H508 0.950 . S
C504 C513 1.390 . S
C505 C504 1.387 . S
C505 C507 1.387 . S
H506 C513 0.950 . S
C507 C505 1.387 . S
C507 C509 1.390 . S
C507 H511 0.950 . S
H508 C504 0.950 . S
C509 C507 1.390 . S
C509 C510 1.387 . S
C509 H512 0.950 . S
C510 C509 1.387 . S
C510 C513 1.387 . S
H511 C507 0.950 . S
H512 C509 0.950 . S
C513 C504 1.390 . S
C513 H506 0.950 . S
C513 C510 1.387 . S
C514 C515 1.387 . S
C514 H518 0.950 . S
C514 C523 1.390 . S
C515 C514 1.387 . S
C515 C517 1.387 . S
H516 C523 0.950 . S
C517 C515 1.387 . S
C517 C519 1.390 . S
C517 H521 0.950 . S
H518 C514 0.950 . S
C519 C517 1.390 . S
C519 C520 1.387 . S
C519 H522 0.950 . S
C520 C519 1.387 . S
C520 C523 1.387 . S
H521 C517 0.950 . S
H522 C519 0.950 . S
C523 C514 1.390 . S
C523 H516 0.950 . S
C523 C520 1.387 . S
C524 C525 1.405 . S
C524 H528 0.950 . S
C524 C533 1.390 . S
C525 C524 1.405 . S
C525 C527 1.398 . S
H526 C533 0.950 . S
C527 C525 1.398 . S
C527 C529 1.390 . S
C527 H531 0.938 1_455 S
H528 C524 0.950 . S
C529 C527 1.390 . S
C529 C530 1.387 . S
C529 H532 0.950 . S
C530 C529 1.387 . S
C530 C533 1.387 . S
H531 C527 0.938 1_655 S
H532 C529 0.950 . S
C533 C524 1.390 . S
C533 H526 0.950 . S
C533 C530 1.387 . S
C534 C535 1.403 . S
C534 H538 0.950 . S
C534 C543 1.390 . S
C535 C534 1.403 . S
C535 C537 1.399 . S
H536 C543 0.950 . S
C537 C535 1.399 . S
C537 C539 1.390 . S
C537 H541 0.963 . S
H538 C534 0.950 . S
C539 C537 1.390 . S
C539 C540 1.387 . S
C539 H542 0.950 . S
C540 C539 1.387 . S
C540 C543 1.387 . S
H541 C537 0.963 . S
H542 C539 0.950 . S
C543 C534 1.390 . S
C543 H536 0.950 . S
C543 C540 1.387 . S
C544 C545 1.387 . S
C544 H548 0.950 . S
C544 C553 1.390 . S
C545 C544 1.387 . S
C545 C547 1.387 . S
H546 C553 0.950 . S
C547 C545 1.387 . S
C547 C549 1.390 . S
C547 H551 0.950 . S
H548 C544 0.950 . S
C549 C547 1.390 . S
C549 C550 1.387 . S
C549 H552 0.950 . S
C550 C549 1.387 . S
C550 C553 1.387 . S
H551 C547 0.950 . S
H552 C549 0.950 . S
C553 C544 1.390 . S
C553 H546 0.950 . S
C553 C550 1.387 . S
C554 C555 1.387 . S
C554 H558 0.950 . S
C554 C563 1.390 . S
C555 C554 1.387 . S
C555 C557 1.387 . S
H556 C563 0.950 . S
C557 C555 1.387 . S
C557 C559 1.390 . S
C557 H561 0.950 . S
H558 C554 0.950 . S
C559 C557 1.390 . S
C559 C560 1.387 . S
C559 H562 0.950 . S
C560 C559 1.387 . S
C560 C563 1.387 . S
H561 C557 0.950 . S
H562 C559 0.950 . S
C563 C554 1.390 . S
C563 H556 0.950 . S
C563 C560 1.387 . S
C564 C565 1.387 . S
C564 H568 0.950 . S
C564 C573 1.390 . S
C565 C564 1.387 . S
C565 C567 1.387 1_556 S
H566 C573 0.950 . S
C567 C565 1.387 1_554 S
C567 C569 1.390 1_554 S
C567 H571 0.950 . S
H568 C564 0.950 . S
C569 C567 1.390 1_556 S
C569 C570 1.387 . S
C569 H572 0.950 1_556 S
C570 C569 1.387 . S
C570 C573 1.387 . S
H571 C567 0.950 . S
H572 C569 0.950 1_554 S
C573 C564 1.390 . S
C573 H566 0.950 . S
C573 C570 1.387 . S
C574 C575 1.384 . S
C574 H578 0.950 . S
C574 C583 1.390 . S
C575 C574 1.384 . S
C575 C577 1.390 1_565 S
H576 C583 0.950 . S
C577 C575 1.390 1_545 S
C577 C579 1.390 . S
C577 H581 0.950 . S
H578 C574 0.950 . S
C579 C577 1.390 . S
C579 C580 1.368 1_545 S
C579 H582 0.950 . S
C580 C579 1.368 1_565 S
C580 C583 1.406 . S
H581 C577 0.950 . S
H582 C579 0.950 . S
C583 C574 1.390 . S
C583 H576 0.950 . S
C583 C580 1.406 . S
C584 C585 1.387 . S
C584 H588 0.950 . S
C584 C593 1.390 . S
C585 C584 1.387 . S
C585 C587 1.387 . S
H586 C593 0.950 . S
C587 C585 1.387 . S
C587 C589 1.390 . S
C587 H591 0.950 . S
H588 C584 0.950 . S
C589 C587 1.390 . S
C589 C590 1.387 . S
C589 H592 0.950 . S
C590 C589 1.387 . S
C590 C593 1.387 . S
H591 C587 0.950 . S
H592 C589 0.950 . S
C593 C584 1.390 . S
C593 H586 0.950 . S
C593 C590 1.387 . S
C594 C595 1.387 . S
C594 H598 0.950 . S
C594 C603 1.390 . S
C595 C594 1.387 . S
C595 C597 1.387 . S
H596 C603 0.950 . S
C597 C595 1.387 . S
C597 C599 1.390 . S
C597 H601 0.950 . S
H598 C594 0.950 . S
C599 C597 1.390 . S
C599 C600 1.387 . S
C599 H602 0.950 . S
C600 C599 1.387 . S
C600 C603 1.387 . S
H601 C597 0.950 . S
H602 C599 0.950 . S
C603 C594 1.390 . S
C603 H596 0.950 . S
C603 C600 1.387 . S
C604 C605 1.387 . S
C604 H608 0.950 . S
C604 C613 1.390 . S
C605 C604 1.387 . S
C605 C607 1.387 1_655 S
H606 C613 0.950 . S
C607 C605 1.387 1_455 S
C607 C609 1.390 . S
C607 H611 0.950 . S
H608 C604 0.950 . S
C609 C607 1.390 . S
C609 C610 1.387 1_455 S
C609 H612 0.950 . S
C610 C609 1.387 1_655 S
C610 C613 1.387 . S
H611 C607 0.950 . S
H612 C609 0.950 . S
C613 C604 1.390 . S
C613 H606 0.950 . S
C613 C610 1.387 . S
C614 C615 1.387 1_545 S
C614 H618 0.950 . S
C614 C623 1.390 . S
C615 C614 1.387 1_565 S
C615 C617 1.387 . S
H616 C623 0.950 . S
C617 C615 1.387 . S
C617 C619 1.390 . S
C617 H621 0.950 . S
H618 C614 0.950 . S
C619 C617 1.390 . S
C619 C620 1.387 . S
C619 H622 0.950 . S
C620 C619 1.387 . S
C620 C623 1.387 1_565 S
H621 C617 0.950 . S
H622 C619 0.950 . S
C623 C614 1.390 . S
C623 H616 0.950 . S
C623 C620 1.387 1_545 S
C624 C625 1.387 . S
C624 H628 0.950 . S
C624 C633 1.390 . S
C625 C624 1.387 . S
C625 C627 1.387 . S
H626 C633 0.950 . S
C627 C625 1.387 . S
C627 C629 1.390 . S
C627 H631 0.950 . S
H628 C624 0.950 . S
C629 C627 1.390 . S
C629 C630 1.387 . S
C629 H632 0.950 . S
C630 C629 1.387 . S
C630 C633 1.387 . S
H631 C627 0.950 . S
H632 C629 0.950 . S
C633 C624 1.390 . S
C633 H626 0.950 . S
C633 C630 1.387 . S
C634 C635 1.387 . S
C634 H638 0.950 . S
C634 C643 1.390 . S
C635 C634 1.387 . S
C635 C637 1.387 . S
H636 C643 0.950 . S
C637 C635 1.387 . S
C637 C639 1.390 . S
C637 H641 0.950 . S
H638 C634 0.950 . S
C639 C637 1.390 . S
C639 C640 1.387 . S
C639 H642 0.950 . S
C640 C639 1.387 . S
C640 C643 1.387 . S
H641 C637 0.950 . S
H642 C639 0.950 . S
C643 C634 1.390 . S
C643 H636 0.950 . S
C643 C640 1.387 . S
C405 C255 1.844 . S
C410 C328 1.847 . S
C420 C351 2.027 . S
C415 C294 1.996 . S
C430 C374 1.872 . S
C425 C177 1.856 . S
C440 C401 1.744 . S
C435 C216 1.851 . S
C450 C329 1.718 . S
C445 C99 1.702 1_545 S
C455 C138 1.748 . S
C460 C352 1.815 . S
C465 C21 1.637 . S
C470 C375 1.660 . S
C475 C60 1.837 1_556 S
C480 C400 1.863 . S
C490 C330 0.853 . S
C485 C196 0.793 . S
C500 C353 0.443 . S
C495 C235 0.583 . S
C510 C376 0.637 . S
C505 C289 0.688 . S
C515 C157 0.714 . S
C520 C402 0.738 . S
C525 C40 0.855 1_455 S
C530 C333 0.817 . S
C540 C356 0.772 . S
C535 C79 0.786 1_545 S
C550 C379 0.853 . S
C545 C133 0.933 . S
C555 C1 0.494 . S
C560 C399 0.376 . S
C565 C211 2.011 1_556 S
C570 C331 2.027 . S
C575 C250 1.945 1_565 S
C580 C354 1.999 1_565 S
C590 C377 2.054 . S
C585 C274 1.994 . S
C600 C398 1.894 . S
C595 C172 1.741 . S
C605 C55 2.083 . S
C610 C332 2.074 1_655 S
C620 C355 1.917 . S
C615 C94 1.941 1_565 S
C630 C378 1.939 . S
C625 C118 1.951 . S
C635 C16 2.037 . S
C640 C397 2.174 . S
