# Generated by pormake.
# Topology dag, (6,3)-cn, num edge types: 1
# Building blocks:
#     Node 0, Type 0, BuildingBlock: MIDCAF_clean_sbu_0, # of connection points: 6
#     Node 1, Type 0, BuildingBlock: MIDCAF_clean_sbu_0, # of connection points: 6
#     Node 2, Type 0, BuildingBlock: MIDCAF_clean_sbu_0, # of connection points: 6
#     Node 3, Type 0, BuildingBlock: MIDCAF_clean_sbu_0, # of connection points: 6
#     Node 4, Type 1, BuildingBlock: ESEHIV_clean_linker_0, # of connection points: 3
#     Node 5, Type 1, BuildingBlock: ESEHIV_clean_linker_0, # of connection points: 3
#     Node 6, Type 1, BuildingBlock: ESEHIV_clean_linker_0, # of connection points: 3
#     Node 7, Type 1, BuildingBlock: ESEHIV_clean_linker_0, # of connection points: 3
#     Node 8, Type 1, BuildingBlock: ESEHIV_clean_linker_0, # of connection points: 3
#     Node 9, Type 1, BuildingBlock: ESEHIV_clean_linker_0, # of connection points: 3
#     Node 10, Type 1, BuildingBlock: ESEHIV_clean_linker_0, # of connection points: 3
#     Node 11, Type 1, BuildingBlock: ESEHIV_clean_linker_0, # of connection points: 3
#     Edge 12, Type (0, 1), BuildingBlock: OJICUG_clean_linker_0, # of connection points: 2
#     Edge 13, Type (0, 1), BuildingBlock: OJICUG_clean_linker_0, # of connection points: 2
#     Edge 14, Type (0, 1), BuildingBlock: OJICUG_clean_linker_0, # of connection points: 2
#     Edge 15, Type (0, 1), BuildingBlock: OJICUG_clean_linker_0, # of connection points: 2
#     Edge 16, Type (0, 1), BuildingBlock: OJICUG_clean_linker_0, # of connection points: 2
#     Edge 17, Type (0, 1), BuildingBlock: OJICUG_clean_linker_0, # of connection points: 2
#     Edge 18, Type (0, 1), BuildingBlock: OJICUG_clean_linker_0, # of connection points: 2
#     Edge 19, Type (0, 1), BuildingBlock: OJICUG_clean_linker_0, # of connection points: 2
#     Edge 20, Type (0, 1), BuildingBlock: OJICUG_clean_linker_0, # of connection points: 2
#     Edge 21, Type (0, 1), BuildingBlock: OJICUG_clean_linker_0, # of connection points: 2
#     Edge 22, Type (0, 1), BuildingBlock: OJICUG_clean_linker_0, # of connection points: 2
#     Edge 23, Type (0, 1), BuildingBlock: OJICUG_clean_linker_0, # of connection points: 2
#     Edge 24, Type (0, 1), BuildingBlock: OJICUG_clean_linker_0, # of connection points: 2
#     Edge 25, Type (0, 1), BuildingBlock: OJICUG_clean_linker_0, # of connection points: 2
#     Edge 26, Type (0, 1), BuildingBlock: OJICUG_clean_linker_0, # of connection points: 2
#     Edge 27, Type (0, 1), BuildingBlock: OJICUG_clean_linker_0, # of connection points: 2
#     Edge 28, Type (0, 1), BuildingBlock: OJICUG_clean_linker_0, # of connection points: 2
#     Edge 29, Type (0, 1), BuildingBlock: OJICUG_clean_linker_0, # of connection points: 2
#     Edge 30, Type (0, 1), BuildingBlock: OJICUG_clean_linker_0, # of connection points: 2
#     Edge 31, Type (0, 1), BuildingBlock: OJICUG_clean_linker_0, # of connection points: 2
#     Edge 32, Type (0, 1), BuildingBlock: OJICUG_clean_linker_0, # of connection points: 2
#     Edge 33, Type (0, 1), BuildingBlock: OJICUG_clean_linker_0, # of connection points: 2
#     Edge 34, Type (0, 1), BuildingBlock: OJICUG_clean_linker_0, # of connection points: 2
#     Edge 35, Type (0, 1), BuildingBlock: OJICUG_clean_linker_0, # of connection points: 2
# Relax obj value: 0.305
# Max RMSD: 0.191
# Mean RMSD: 0.180
data_MOF--net-dag--node1-MIDCAF_clean_sbu_0--node2-ESEHIV_clean_linker_0--edge1-OJICUG_clean_linker_0
_symmetry_space_group_name_H-M    P1
_symmetry_Int_Tables_number       1
_symmetry_cell_setting            triclinic
loop_
_symmetry_equiv_pos_as_xyz
'x, y, z'
_cell_length_a     26.960555
_cell_length_b     27.415415
_cell_length_c     19.705568
_cell_angle_alpha  94.024141
_cell_angle_beta   88.723448
_cell_angle_gamma 90.241337
loop_
_atom_site_label
_atom_site_type_symbol
_atom_site_fract_x
_atom_site_fract_y
_atom_site_fract_z
_atom_type_partial_charge
Zn0 Zn 0.1284 0.77719 0.16264 0.0
Zn1 Zn 0.26007 0.86168 0.90839 0.0
Zn2 Zn 0.17708 0.81224 0.06754 0.0
C3 C 0.22217 0.92646 0.02934 0.0
C4 C 0.14824 0.81244 0.92278 0.0
O5 O 0.22454 0.76066 0.12109 0.0
O6 O 0.17662 0.73569 0.20445 0.0
C7 C 0.14253 0.8839 0.18047 0.0
O8 O 0.19886 0.89125 0.05781 0.0
O9 O 0.24876 0.92046 0.97463 0.0
O10 O 0.19105 0.83111 0.91786 0.0
O11 O 0.1338 0.79719 0.97982 0.0
O12 O 0.12082 0.84668 0.20186 0.0
O13 O 0.17074 0.87973 0.12723 0.0
O14 O 0.10168 0.78752 0.03498 0.0
O15 O 0.06977 0.74637 0.1178 0.0
C16 C 0.06591 0.76244 0.05971 0.0
O17 O 0.23987 0.76553 0.055 0.0
O18 O 0.24587 0.81464 0.97611 0.0
C19 C 0.21812 0.73594 0.17382 0.0
C20 C 0.26307 0.77809 1.0023 0.0
Zn21 Zn 0.64643 0.74192 0.38742 0.0
Zn22 Zn 0.74752 0.59793 0.58321 0.0
Zn23 Zn 0.6998 0.63834 0.49504 0.0
C24 C 0.73067 0.52397 0.49721 0.0
C25 C 0.64894 0.62993 0.63234 0.0
O26 O 0.74728 0.68253 0.4293 0.0
O27 O 0.70924 0.75251 0.44211 0.0
C28 C 0.65272 0.64645 0.34742 0.0
O29 O 0.70349 0.55901 0.48011 0.0
O30 O 0.76527 0.53336 0.53812 0.0
O31 O 0.68544 0.60288 0.64378 0.0
O32 O 0.64816 0.65219 0.57739 0.0
O33 O 0.64023 0.68245 0.31464 0.0
O34 O 0.67332 0.65666 0.40379 0.0
O35 O 0.62169 0.66375 0.50867 0.0
O36 O 0.59179 0.72674 0.45434 0.0
C37 C 0.58623 0.69313 0.4954 0.0
O38 O 0.76338 0.6848 0.52703 0.0
O39 O 0.801 0.64422 0.60286 0.0
C40 C 0.74394 0.72717 0.41417 0.0
C41 C 0.7982 0.68166 0.56956 0.0
Zn42 Zn 0.83688 0.19378 0.91599 0.0
Zn43 Zn 0.72909 0.13735 0.10877 0.0
Zn44 Zn 0.78529 0.1628 0.01371 0.0
C45 C 0.8232 0.16197 0.16255 0.0
C46 C 0.73942 0.05295 0.03433 0.0
O47 O 0.73999 0.21472 0.95717 0.0
O48 O 0.79274 0.23927 0.87877 0.0
C49 C 0.89739 0.21116 0.01967 0.0
O50 O 0.83018 0.17643 0.10244 0.0
O51 O 0.78306 0.14102 0.17795 0.0
O52 O 0.70836 0.07139 0.07738 0.0
O53 O 0.77074 0.08111 1.00533 0.0
O54 O 0.89522 0.2231 0.95932 0.0
O55 O 0.8607 0.18836 0.04645 0.0
O56 O 0.799 0.0964 0.94796 0.0
O57 O 0.84448 0.12764 0.8667 0.0
C58 C 0.82471 0.09102 0.89211 0.0
O59 O 0.72037 0.21503 0.02805 0.0
O60 O 0.67866 0.18808 0.11582 0.0
C61 C 0.75009 0.24033 0.90593 0.0
C62 C 0.68433 0.21939 0.07251 0.0
Zn63 Zn 0.35548 0.30331 0.77914 0.0
Zn64 Zn 0.21255 0.35979 0.41554 0.0
Zn65 Zn 0.26314 0.33465 0.59579 0.0
C66 C 0.32222 0.34328 0.43661 0.0
C67 C 0.22199 0.41861 0.55602 0.0
O68 O 0.22893 0.27549 0.65113 0.0
O69 O 0.29464 0.29081 0.71113 0.0
C70 C 0.36176 0.30802 0.61618 0.0
O71 O 0.31532 0.33606 0.50102 0.0
O72 O 0.28695 0.35323 0.39727 0.0
O73 O 0.21023 0.38155 0.51726 0.0
O74 O 0.23774 0.40865 0.61381 0.0
O75 O 0.33826 0.30864 0.67345 0.0
O76 O 0.33698 0.31694 0.56415 0.0
O77 O 0.26584 0.39756 0.66896 0.0
O78 O 0.30887 0.34703 0.72378 0.0
C79 C 0.29404 0.39077 0.71866 0.0
O80 O 0.20579 0.27952 0.58648 0.0
O81 O 0.20517 0.32805 0.50562 0.0
C82 C 0.25305 0.26827 0.70479 0.0
C83 C 0.18963 0.28863 0.52861 0.0
H84 H 0.00826 0.06203 0.23161 0.0
H85 H 0.1388 0.09658 0.34719 0.0
H86 H 0.01768 0.19891 0.35011 0.0
C87 C 0.02858 0.08679 0.26627 0.0
C88 C 0.00742 0.13176 0.28894 0.0
C89 C 0.07582 0.07365 0.28723 0.0
C90 C 0.10235 0.10646 0.33059 0.0
C91 C 0.08162 0.15184 0.35314 0.0
C92 C 0.03426 0.16434 0.33184 0.0
H93 H 0.45994 0.54095 0.75124 0.0
H94 H 0.34119 0.59625 0.88308 0.0
H95 H 0.46477 0.68941 0.83889 0.0
C96 C 0.44407 0.57016 0.78472 0.0
C97 C 0.46858 0.6156 0.79241 0.0
C98 C 0.39778 0.5632 0.81663 0.0
C99 C 0.37705 0.60139 0.85849 0.0
C100 C 0.40106 0.64678 0.86691 0.0
C101 C 0.44646 0.65413 0.83294 0.0
H102 H 0.8518 0.85101 0.98839 0.0
H103 H 0.86478 0.7434 0.1363 0.0
H104 H 0.74218 0.84194 0.14889 0.0
C105 C 0.83673 0.83259 0.03111 0.0
C106 C 0.79442 0.85197 0.06625 0.0
C107 C 0.86228 0.79253 0.05496 0.0
C108 C 0.84359 0.77118 0.11348 0.0
C109 C 0.80082 0.7891 0.14806 0.0
C110 C 0.77538 0.82807 0.12229 0.0
H111 H 0.58041 0.34167 0.51921 0.0
H112 H 0.57729 0.26682 0.702 0.0
H113 H 0.70848 0.34539 0.64732 0.0
C114 C 0.59985 0.33011 0.56279 0.0
C115 C 0.64833 0.34681 0.57612 0.0
C116 C 0.57407 0.30286 0.6095 0.0
C117 C 0.59829 0.2872 0.66586 0.0
C118 C 0.64674 0.30202 0.68025 0.0
C119 C 0.67174 0.332 0.63502 0.0
H120 H 0.5186 0.46094 0.36419 0.0
H121 H 0.62817 0.43309 0.20685 0.0
H122 H 0.51942 0.32214 0.24735 0.0
C123 C 0.53382 0.43633 0.32369 0.0
C124 C 0.51202 0.39006 0.30886 0.0
C125 C 0.57567 0.45156 0.28724 0.0
C126 C 0.59705 0.41987 0.23603 0.0
C127 C 0.57794 0.37244 0.22126 0.0
C128 C 0.53506 0.35811 0.25813 0.0
H129 H 0.11062 0.13306 0.10652 0.0
H130 H 0.10542 0.2325 0.94688 0.0
H131 H 0.22224 0.12722 0.94727 0.0
C132 C 0.12657 0.14771 0.06123 0.0
C133 C 0.16883 0.12544 0.03041 0.0
C134 C 0.10212 0.18524 0.03053 0.0
C135 C 0.12397 0.20407 0.97203 0.0
C136 C 0.1684 0.18452 0.94315 0.0
C137 C 0.1904 0.14502 0.9726 0.0
H138 H 0.37048 0.58576 0.52938 0.0
H139 H 0.39723 0.68673 0.37513 0.0
H140 H 0.26508 0.59837 0.37134 0.0
C141 C 0.35861 0.60269 0.4844 0.0
C142 C 0.3145 0.5874 0.45278 0.0
C143 C 0.38808 0.63914 0.45741 0.0
C144 C 0.37363 0.65976 0.39747 0.0
C145 C 0.32983 0.64448 0.365 0.0
C146 C 0.30015 0.60891 0.39395 0.0
H147 H 0.97401 0.92689 0.83218 0.0
H148 H 0.98451 0.80188 0.69018 0.0
H149 H 0.84989 0.88712 0.7065 0.0
C150 C 0.95772 0.90357 0.79181 0.0
C151 C 0.90976 0.9133 0.76988 0.0
C152 C 0.984 0.86276 0.76393 0.0
C153 C 0.96304 0.83262 0.71208 0.0
C154 C 0.91405 0.8398 0.69178 0.0
C155 C 0.88802 0.88122 0.71998 0.0
C156 C 0.16134 0.97228 0.21441 0.0
C157 C 0.12885 0.93212 0.213 0.0
H158 H 0.16976 0.04953 0.23836 0.0
C159 C 0.08086 0.93819 0.24141 0.0
H160 H 0.19894 0.96812 0.19449 0.0
C161 C 0.0646 0.98388 0.26727 0.0
C162 C 0.09585 0.02477 0.26533 0.0
H163 H 0.05503 0.9078 0.2417 0.0
H164 H 0.02707 0.98737 0.28784 0.0
C165 C 0.14485 0.01853 0.24017 0.0
C166 C 0.56859 0.66658 0.67848 0.0
C167 C 0.60505 0.63014 0.67868 0.0
H168 H 0.49641 0.69058 0.71457 0.0
C169 C 0.59775 0.59115 0.72056 0.0
H170 H 0.57364 0.69747 0.6477 0.0
C171 C 0.55396 0.58729 0.75871 0.0
C172 C 0.51662 0.62256 0.75645 0.0
H173 H 0.62512 0.56244 0.72202 0.0
H174 H 0.54891 0.55619 0.78922 0.0
C175 C 0.5247 0.66288 0.71719 0.0
C176 C 0.75019 0.982 0.1021 0.0
C177 C 0.74936 0.00014 0.0373 0.0
H178 H 0.76611 0.92294 0.16181 0.0
C179 C 0.76089 0.96843 0.98011 0.0
H180 H 0.7424 0.0057 0.14744 0.0
C181 C 0.77429 0.91956 0.98834 0.0
C182 C 0.77599 0.90188 0.05391 0.0
H183 H 0.75969 0.98139 0.92956 0.0
H184 H 0.78363 0.89585 0.94366 0.0
C185 C 0.76357 0.93403 0.11034 0.0
C186 C 0.44245 0.31753 0.67137 0.0
C187 C 0.41577 0.30344 0.61318 0.0
H188 H 0.51308 0.3294 0.71488 0.0
C189 C 0.44126 0.28722 0.553 0.0
H190 H 0.42398 0.33082 0.71814 0.0
C191 C 0.49316 0.28618 0.55084 0.0
C192 C 0.51958 0.30076 0.60943 0.0
H193 H 0.42104 0.27496 0.50831 0.0
H194 H 0.51251 0.274 0.50397 0.0
C195 C 0.49367 0.31652 0.66946 0.0
C196 C 0.66548 0.55582 0.3307 0.0
C197 C 0.63454 0.59667 0.32837 0.0
H198 H 0.67107 0.47748 0.3186 0.0
C199 C 0.58449 0.58963 0.31195 0.0
H200 H 0.70421 0.56051 0.34317 0.0
C201 C 0.56538 0.54247 0.2993 0.0
C202 C 0.59622 0.50148 0.30135 0.0
H203 H 0.55976 0.62061 0.31078 0.0
H204 H 0.52649 0.53799 0.28748 0.0
C205 C 0.6466 0.50856 0.31649 0.0
C206 C 0.9791 0.25098 0.03911 0.0
C207 C 0.94665 0.21197 0.04986 0.0
H208 H 0.05454 0.27406 0.02803 0.0
C209 C 0.96587 0.16795 0.06975 0.0
H210 H 0.96493 0.28529 0.0235 0.0
C211 C 0.017 0.16083 0.07016 0.0
C212 C 0.04992 0.19789 0.05113 0.0
H213 H 0.94159 0.13709 0.07735 0.0
H214 H 0.03001 0.12449 0.07843 0.0
C215 C 0.03039 0.2442 0.04061 0.0
C216 C 0.241 0.47011 0.45891 0.0
C217 C 0.23654 0.46554 0.52923 0.0
H218 H 0.27059 0.51155 0.3796 0.0
C219 C 0.25287 0.50405 0.57416 0.0
H220 H 0.22836 0.44156 0.42284 0.0
C221 C 0.27669 0.54458 0.54942 0.0
C222 C 0.28445 0.54738 0.47919 0.0
H223 H 0.24903 0.502 0.62859 0.0
H224 H 0.29009 0.57311 0.5853 0.0
C225 C 0.2651 0.51047 0.4341 0.0
C226 C 0.11062 0.86642 0.84246 0.0
C227 C 0.11128 0.82106 0.87158 0.0
H228 H 0.06886 0.91579 0.78624 0.0
C229 C 0.07214 0.78803 0.85987 0.0
H230 H 0.14009 0.89286 0.852 0.0
C231 C 0.03198 0.80087 0.82149 0.0
C232 C 0.0299 0.84735 0.7957 0.0
H233 H 0.07174 0.75316 0.88257 0.0
H234 H 0.00126 0.77549 0.81508 0.0
C235 C 0.06985 0.87976 0.80551 0.0
C236 C 0.83846 0.03238 0.79091 0.0
C237 C 0.83811 0.04208 0.86185 0.0
H238 H 0.86079 0.98334 0.70617 0.0
C239 C 0.85858 0.00774 0.90264 0.0
H240 H 0.82374 0.05888 0.75843 0.0
C241 C 0.88018 0.96493 0.87289 0.0
C242 C 0.88189 0.95583 0.80172 0.0
H243 H 0.85988 0.01503 0.95734 0.0
H244 H 0.89668 0.93949 0.90546 0.0
C245 C 0.85965 0.98932 0.76111 0.0
C246 C 0.3851 0.40188 0.39872 0.0
C247 C 0.37285 0.35337 0.41024 0.0
H248 H 0.43617 0.45114 0.35608 0.0
C249 C 0.40638 0.31622 0.38834 0.0
H250 H 0.35921 0.43113 0.41329 0.0
C251 C 0.45208 0.32776 0.35707 0.0
C252 C 0.46441 0.37663 0.34489 0.0
H253 H 0.3969 0.27831 0.3942 0.0
H254 H 0.47743 0.29825 0.34219 0.0
C255 C 0.42977 0.41332 0.36617 0.0
C256 C 0.16073 -0.00856 0.05969 0.0
C257 C 0.21052 0.97743 0.05123 0.0
H258 H 0.10857 0.04961 0.06079 0.0
C259 C 0.24737 0.01353 0.04728 0.0
H260 H 0.13156 0.96418 0.06105 0.0
C261 C 0.2343 0.06273 0.04673 0.0
C262 C 0.18413 0.07644 0.04955 0.0
H263 H 0.286 0.00335 0.03979 0.0
H264 H 0.26318 0.08961 0.0397 0.0
C265 C 0.14765 0.04054 0.0594 0.0
C266 C 0.52019 0.63163 0.51426 0.0
C267 C 0.53451 0.68093 0.51338 0.0
H268 H 0.46175 0.5795 0.49603 0.0
C269 C 0.49775 0.7168 0.5098 0.0
H270 H 0.54771 0.60318 0.51696 0.0
C271 C 0.4488 0.70323 0.49702 0.0
C272 C 0.4358 0.65364 0.48854 0.0
H273 H 0.5077 0.75515 0.50995 0.0
H274 H 0.4219 0.73137 0.48885 0.0
C275 C 0.47102 0.61804 0.50172 0.0
C276 C 0.29334 0.47858 0.76015 0.0
C277 C 0.31657 0.43281 0.75737 0.0
H278 H 0.30111 0.55582 0.7806 0.0
C279 C 0.36497 0.42947 0.78164 0.0
H280 H 0.25579 0.482 0.74277 0.0
C281 C 0.39118 0.47173 0.80283 0.0
C282 C 0.36893 0.51783 0.80153 0.0
H283 H 0.38365 0.39462 0.78053 0.0
H284 H 0.42922 0.46852 0.81854 0.0
C285 C 0.31923 0.52072 0.7821 0.0
C286 C -0.00208 0.80729 1.0098 0.0
C287 C 0.01632 0.76289 0.02999 0.0
H288 H 0.9345 0.85237 1.00315 0.0
C289 C 0.98321 0.72423 0.03915 0.0
H290 H 0.02279 0.8377 1.00226 0.0
C291 C 0.9321 0.73191 0.03686 0.0
C292 C 0.91334 0.77908 0.02909 0.0
H293 H -0.00338 0.68939 0.05388 0.0
H294 H 0.90744 0.70211 0.04814 0.0
C295 C 0.94684 0.81562 1.01021 0.0
C296 C 0.74309 0.43469 0.50757 0.0
C297 C 0.71227 0.47303 0.49043 0.0
H298 H 0.74728 0.36377 0.546 0.0
C299 C 0.66101 0.46469 0.48695 0.0
H300 H 0.7829 0.43986 0.50993 0.0
C301 C 0.64042 0.42199 0.51021 0.0
C302 C 0.67077 0.38588 0.53564 0.0
H303 H 0.63613 0.49342 0.47407 0.0
H304 H 0.60039 0.41993 0.5139 0.0
C305 C 0.72255 0.3914 0.52952 0.0
C306 C 0.87324 0.11768 0.24198 0.0
C307 C 0.8656 0.16017 0.20787 0.0
H308 H 0.9247 0.07536 0.29418 0.0
C309 C 0.90247 0.19647 0.20889 0.0
H310 H 0.84536 0.08909 0.24187 0.0
C311 C 0.94802 0.18856 0.23883 0.0
C312 C 0.95714 0.14407 0.26751 0.0
H313 H 0.89703 0.22972 0.1834 0.0
H314 H 0.97707 0.21578 0.23566 0.0
C315 C 0.91877 0.10955 0.27115 0.0
C316 C 0.29009 0.74004 0.24848 0.0
C317 C 0.25953 0.71197 0.20423 0.0
H318 H 0.33612 0.74064 0.33546 0.0
C319 C 0.25984 0.661 0.20459 0.0
H320 H 0.28956 0.77961 0.24938 0.0
C321 C 0.28708 0.63849 0.25292 0.0
C322 C 0.31297 0.66687 0.30301 0.0
H323 H 0.23612 0.6389 0.17096 0.0
H324 H 0.2849 0.5991 0.25411 0.0
C325 C 0.31657 0.71766 0.29786 0.0
C326 C 0.87412 0.71316 0.62565 0.0
C327 C 0.83257 0.72259 0.58709 0.0
H328 H 0.93 0.74136 0.69087 0.0
C329 C 0.82116 0.77131 0.57577 0.0
H330 H 0.88422 0.67607 0.63517 0.0
C331 C 0.84905 0.80987 0.60669 0.0
C332 C 0.88848 0.80021 0.64968 0.0
H333 H 0.78926 0.7797 0.5463 0.0
H334 H 0.83867 0.8471 0.59869 0.0
C335 C 0.90108 0.75115 0.65718 0.0
C336 C 0.60419 0.26274 0.09436 0.0
C337 C 0.65602 0.26506 0.08616 0.0
H338 H 0.53852 0.29538 0.13977 0.0
C339 C 0.68107 0.30603 0.11499 0.0
H340 H 0.58407 0.23094 0.07384 0.0
C341 C 0.65561 0.34152 0.15671 0.0
C342 C 0.6039 0.33787 0.16916 0.0
H343 H 0.72121 0.30791 0.11156 0.0
H344 H 0.67758 0.36975 0.18285 0.0
C345 C 0.57832 0.29912 0.13419 0.0
C346 C 0.18074 0.23174 0.76611 0.0
C347 C 0.23189 0.24135 0.76135 0.0
H348 H 0.12044 0.20639 0.82733 0.0
C349 C 0.26213 0.2298 0.81516 0.0
H350 H 0.15644 0.24037 0.7256 0.0
C351 C 0.24157 0.21069 0.87343 0.0
C352 C 0.19018 0.20293 0.87959 0.0
H353 H 0.3017 0.23652 0.81301 0.0
H354 H 0.2658 0.20332 0.91461 0.0
C355 C 0.16006 0.21292 0.82477 0.0
C356 C 0.76299 0.79179 0.33489 0.0
C357 C 0.76366 0.74207 0.3479 0.0
H358 H 0.77424 0.84541 0.26251 0.0
C359 C 0.77766 0.7075 0.2949 0.0
H360 H 0.75255 0.81934 0.37472 0.0
C361 C 0.78937 0.72247 0.22976 0.0
C362 C 0.7873 0.77223 0.21644 0.0
H363 H 0.77791 0.66884 0.30304 0.0
H364 H 0.79913 0.69503 0.1895 0.0
C365 C 0.77472 0.80668 0.2702 0.0
C366 C 0.72055 0.30885 0.84308 0.0
C367 C 0.71165 0.2624 0.86682 0.0
H368 H 0.70681 0.35821 0.76622 0.0
C369 C 0.67805 0.23092 0.8327 0.0
H370 H 0.74736 0.33326 0.86785 0.0
C371 C 0.65723 0.24381 0.77228 0.0
C372 C 0.6683 0.28922 0.74578 0.0
H373 H 0.67207 0.19424 0.84855 0.0
H374 H 0.63447 0.21692 0.7446 0.0
C375 C 0.69867 0.32238 0.78355 0.0
C376 C 0.1571 0.2042 0.50084 0.0
C377 C 0.16035 0.25352 0.48633 0.0
H378 H 0.12967 0.13286 0.46915 0.0
C379 C 0.13724 0.26909 0.42853 0.0
H380 H 0.17476 0.19134 0.54507 0.0
C381 C 0.11182 0.23592 0.38537 0.0
C382 C 0.10908 0.18648 0.39908 0.0
H383 H 0.13884 0.30699 0.41642 0.0
H384 H 0.0948 0.24885 0.3407 0.0
C385 C 0.13183 0.17079 0.4572 0.0
C386 C 0.32352 0.7103 1.00623 0.0
C387 C 0.30666 0.75094 0.97392 0.0
H388 H 0.36783 0.64554 0.99742 0.0
C389 C 0.32797 0.76148 0.9108 0.0
H390 H 0.30815 0.70148 0.05515 0.0
C391 C 0.36254 0.72952 0.87804 0.0
C392 C 0.37588 0.68666 0.90795 0.0
H393 H 0.31579 0.79262 0.88477 0.0
H394 H 0.37592 0.73637 0.82732 0.0
C395 C 0.35774 0.67835 0.97341 0.0
loop_
_geom_bond_atom_site_label_1
_geom_bond_atom_site_label_2
_geom_bond_distance
_geom_bond_site_symmetry_2
_ccdc_geom_bond_type
Zn0 O6 1.920 . S
Zn0 O12 1.898 . S
Zn0 O15 1.905 . S
Zn1 O9 1.905 . S
Zn1 O10 1.898 . S
Zn1 O18 1.920 . S
Zn2 O5 2.080 . S
Zn2 O8 2.114 . S
Zn2 O11 2.120 1_554 S
Zn2 O13 2.120 . S
Zn2 O14 2.114 . S
Zn2 O17 2.080 . S
C3 O8 1.166 1_556 S
C3 O9 1.182 . S
C4 O10 1.167 . S
C4 O11 1.299 . S
O5 Zn2 2.080 . S
O5 C19 1.305 . S
O6 Zn0 1.920 . S
O6 C19 1.234 . S
C7 O12 1.167 . S
C7 O13 1.299 . S
O8 Zn2 2.114 . S
O8 C3 1.166 1_554 S
O9 Zn1 1.905 . S
O9 C3 1.182 . S
O10 Zn1 1.898 . S
O10 C4 1.167 . S
O11 Zn2 2.120 1_556 S
O11 C4 1.299 . S
O12 Zn0 1.898 . S
O12 C7 1.167 . S
O13 Zn2 2.120 . S
O13 C7 1.299 . S
O14 Zn2 2.114 . S
O14 C16 1.166 . S
O15 Zn0 1.905 . S
O15 C16 1.182 . S
C16 O14 1.166 . S
C16 O15 1.182 . S
O17 Zn2 2.080 . S
O17 C20 1.305 1_554 S
O18 Zn1 1.920 . S
O18 C20 1.234 . S
C19 O5 1.305 . S
C19 O6 1.234 . S
C20 O17 1.305 1_556 S
C20 O18 1.234 . S
Zn21 O27 1.920 . S
Zn21 O33 1.898 . S
Zn21 O36 1.905 . S
Zn22 O30 1.905 . S
Zn22 O31 1.898 . S
Zn22 O39 1.920 . S
Zn23 O26 2.080 . S
Zn23 O29 2.114 . S
Zn23 O32 2.120 . S
Zn23 O34 2.120 . S
Zn23 O35 2.114 . S
Zn23 O38 2.080 . S
C24 O29 1.166 . S
C24 O30 1.182 . S
C25 O31 1.167 . S
C25 O32 1.299 . S
O26 Zn23 2.080 . S
O26 C40 1.305 . S
O27 Zn21 1.920 . S
O27 C40 1.234 . S
C28 O33 1.167 . S
C28 O34 1.299 . S
O29 Zn23 2.114 . S
O29 C24 1.166 . S
O30 Zn22 1.905 . S
O30 C24 1.182 . S
O31 Zn22 1.898 . S
O31 C25 1.167 . S
O32 Zn23 2.120 . S
O32 C25 1.299 . S
O33 Zn21 1.898 . S
O33 C28 1.167 . S
O34 Zn23 2.120 . S
O34 C28 1.299 . S
O35 Zn23 2.114 . S
O35 C37 1.166 . S
O36 Zn21 1.905 . S
O36 C37 1.182 . S
C37 O35 1.166 . S
C37 O36 1.182 . S
O38 Zn23 2.080 . S
O38 C41 1.305 . S
O39 Zn22 1.920 . S
O39 C41 1.234 . S
C40 O26 1.305 . S
C40 O27 1.234 . S
C41 O38 1.305 . S
C41 O39 1.234 . S
Zn42 O48 1.920 . S
Zn42 O54 1.898 . S
Zn42 O57 1.905 . S
Zn43 O51 1.905 . S
Zn43 O52 1.898 . S
Zn43 O60 1.920 . S
Zn44 O47 2.069 1_554 S
Zn44 O50 2.125 . S
Zn44 O53 2.125 . S
Zn44 O55 2.115 1_554 S
Zn44 O56 2.107 1_554 S
Zn44 O59 2.088 . S
C45 O50 1.166 . S
C45 O51 1.182 . S
C46 O52 1.167 . S
C46 O53 1.299 . S
O47 Zn44 2.069 1_556 S
O47 C61 1.305 . S
O48 Zn42 1.920 . S
O48 C61 1.234 . S
C49 O54 1.167 . S
C49 O55 1.299 . S
O50 Zn44 2.125 . S
O50 C45 1.166 . S
O51 Zn43 1.905 . S
O51 C45 1.182 . S
O52 Zn43 1.898 . S
O52 C46 1.167 . S
O53 Zn44 2.125 . S
O53 C46 1.299 . S
O54 Zn42 1.898 . S
O54 C49 1.167 . S
O55 Zn44 2.115 1_556 S
O55 C49 1.299 . S
O56 Zn44 2.107 1_556 S
O56 C58 1.166 . S
O57 Zn42 1.905 . S
O57 C58 1.182 . S
C58 O56 1.166 . S
C58 O57 1.182 . S
O59 Zn44 2.088 . S
O59 C62 1.305 . S
O60 Zn43 1.920 . S
O60 C62 1.234 . S
C61 O47 1.305 . S
C61 O48 1.234 . S
C62 O59 1.305 . S
C62 O60 1.234 . S
Zn63 O69 1.920 . S
Zn63 O75 1.898 . S
Zn63 O78 1.905 . S
Zn64 O72 1.905 . S
Zn64 O73 1.898 . S
Zn64 O81 1.920 . S
Zn65 O68 2.080 . S
Zn65 O71 2.114 . S
Zn65 O74 2.120 . S
Zn65 O76 2.120 . S
Zn65 O77 2.114 . S
Zn65 O80 2.080 . S
C66 O71 1.166 . S
C66 O72 1.182 . S
C67 O73 1.167 . S
C67 O74 1.299 . S
O68 Zn65 2.080 . S
O68 C82 1.305 . S
O69 Zn63 1.920 . S
O69 C82 1.234 . S
C70 O75 1.167 . S
C70 O76 1.299 . S
O71 Zn65 2.114 . S
O71 C66 1.166 . S
O72 Zn64 1.905 . S
O72 C66 1.182 . S
O73 Zn64 1.898 . S
O73 C67 1.167 . S
O74 Zn65 2.120 . S
O74 C67 1.299 . S
O75 Zn63 1.898 . S
O75 C70 1.167 . S
O76 Zn65 2.120 . S
O76 C70 1.299 . S
O77 Zn65 2.114 . S
O77 C79 1.166 . S
O78 Zn63 1.905 . S
O78 C79 1.182 . S
C79 O77 1.166 . S
C79 O78 1.182 . S
O80 Zn65 2.080 . S
O80 C83 1.305 . S
O81 Zn64 1.920 . S
O81 C83 1.234 . S
C82 O68 1.305 . S
C82 O69 1.234 . S
C83 O80 1.305 . S
C83 O81 1.234 . S
H84 C87 0.931 . S
H85 C90 0.928 . S
H86 C92 0.930 . S
C87 H84 0.931 . S
C87 C88 1.413 . S
C87 C89 1.360 . S
C88 C87 1.413 . S
C88 C92 1.429 . S
C89 C87 1.360 . S
C89 C90 1.372 . S
C90 H85 0.928 . S
C90 C89 1.372 . S
C90 C91 1.404 . S
C91 C90 1.404 . S
C91 C92 1.391 . S
C92 H86 0.930 . S
C92 C88 1.429 . S
C92 C91 1.391 . S
H93 C96 0.931 . S
H94 C99 0.928 . S
H95 C101 0.930 . S
C96 H93 0.931 . S
C96 C97 1.413 . S
C96 C98 1.360 . S
C97 C96 1.413 . S
C97 C101 1.429 . S
C98 C96 1.360 . S
C98 C99 1.372 . S
C99 H94 0.928 . S
C99 C98 1.372 . S
C99 C100 1.404 . S
C100 C99 1.404 . S
C100 C101 1.391 . S
C101 H95 0.930 . S
C101 C97 1.429 . S
C101 C100 1.391 . S
H102 C105 0.931 . S
H103 C108 0.928 . S
H104 C110 0.930 . S
C105 H102 0.931 . S
C105 C106 1.413 . S
C105 C107 1.360 . S
C106 C105 1.413 . S
C106 C110 1.429 . S
C107 C105 1.360 . S
C107 C108 1.372 . S
C108 H103 0.928 . S
C108 C107 1.372 . S
C108 C109 1.404 . S
C109 C108 1.404 . S
C109 C110 1.391 . S
C110 H104 0.930 . S
C110 C106 1.429 . S
C110 C109 1.391 . S
H111 C114 0.931 . S
H112 C117 0.928 . S
H113 C119 0.930 . S
C114 H111 0.931 . S
C114 C115 1.413 . S
C114 C116 1.360 . S
C115 C114 1.413 . S
C115 C119 1.429 . S
C116 C114 1.360 . S
C116 C117 1.372 . S
C117 H112 0.928 . S
C117 C116 1.372 . S
C117 C118 1.404 . S
C118 C117 1.404 . S
C118 C119 1.391 . S
C119 H113 0.930 . S
C119 C115 1.429 . S
C119 C118 1.391 . S
H120 C123 0.931 . S
H121 C126 0.928 . S
H122 C128 0.930 . S
C123 H120 0.931 . S
C123 C124 1.413 . S
C123 C125 1.360 . S
C124 C123 1.413 . S
C124 C128 1.429 . S
C125 C123 1.360 . S
C125 C126 1.372 . S
C126 H121 0.928 . S
C126 C125 1.372 . S
C126 C127 1.404 . S
C127 C126 1.404 . S
C127 C128 1.391 . S
C128 H122 0.930 . S
C128 C124 1.429 . S
C128 C127 1.391 . S
H129 C132 0.931 . S
H130 C135 0.928 . S
H131 C137 0.930 . S
C132 H129 0.931 . S
C132 C133 1.413 . S
C132 C134 1.360 . S
C133 C132 1.413 . S
C133 C137 1.429 . S
C134 C132 1.360 . S
C134 C135 1.372 . S
C135 H130 0.928 . S
C135 C134 1.372 . S
C135 C136 1.404 . S
C136 C135 1.404 . S
C136 C137 1.391 . S
C137 H131 0.930 . S
C137 C133 1.429 . S
C137 C136 1.391 . S
H138 C141 0.931 . S
H139 C144 0.928 . S
H140 C146 0.930 . S
C141 H138 0.931 . S
C141 C142 1.413 . S
C141 C143 1.360 . S
C142 C141 1.413 . S
C142 C146 1.429 . S
C143 C141 1.360 . S
C143 C144 1.372 . S
C144 H139 0.928 . S
C144 C143 1.372 . S
C144 C145 1.404 . S
C145 C144 1.404 . S
C145 C146 1.391 . S
C146 H140 0.930 . S
C146 C142 1.429 . S
C146 C145 1.391 . S
H147 C150 0.931 . S
H148 C153 0.928 . S
H149 C155 0.930 . S
C150 H147 0.931 . S
C150 C151 1.413 . S
C150 C152 1.360 . S
C151 C150 1.413 . S
C151 C155 1.429 . S
C152 C150 1.360 . S
C152 C153 1.372 . S
C153 H148 0.928 . S
C153 C152 1.372 . S
C153 C154 1.404 . S
C154 C153 1.404 . S
C154 C155 1.391 . S
C155 H149 0.930 . S
C155 C151 1.429 . S
C155 C154 1.391 . S
C156 C157 1.387 . S
C156 H160 0.950 . S
C156 C165 1.390 1_565 S
C157 C156 1.387 . S
C157 C159 1.387 . S
H158 C165 0.950 . S
C159 C157 1.387 . S
C159 C161 1.390 . S
C159 H163 0.950 . S
H160 C156 0.950 . S
C161 C159 1.390 . S
C161 C162 1.387 1_565 S
C161 H164 0.950 . S
C162 C161 1.387 1_545 S
C162 C165 1.387 . S
H163 C159 0.950 . S
H164 C161 0.950 . S
C165 C156 1.390 1_545 S
C165 H158 0.950 . S
C165 C162 1.387 . S
C166 C167 1.387 . S
C166 H170 0.950 . S
C166 C175 1.390 . S
C167 C166 1.387 . S
C167 C169 1.387 . S
H168 C175 0.950 . S
C169 C167 1.387 . S
C169 C171 1.390 . S
C169 H173 0.950 . S
H170 C166 0.950 . S
C171 C169 1.390 . S
C171 C172 1.387 . S
C171 H174 0.950 . S
C172 C171 1.387 . S
C172 C175 1.387 . S
H173 C169 0.950 . S
H174 C171 0.950 . S
C175 C166 1.390 . S
C175 H168 0.950 . S
C175 C172 1.387 . S
C176 C177 1.387 . S
C176 H180 0.950 . S
C176 C185 1.390 1_545 S
C177 C176 1.387 . S
C177 C179 1.387 1_545 S
H178 C185 0.950 . S
C179 C177 1.387 1_565 S
C179 C181 1.390 . S
C179 H183 0.950 1_554 S
H180 C176 0.950 . S
C181 C179 1.390 . S
C181 C182 1.387 . S
C181 H184 0.950 . S
C182 C181 1.387 . S
C182 C185 1.387 . S
H183 C179 0.950 1_556 S
H184 C181 0.950 . S
C185 C176 1.390 1_565 S
C185 H178 0.950 . S
C185 C182 1.387 . S
C186 C187 1.387 . S
C186 H190 0.950 . S
C186 C195 1.390 . S
C187 C186 1.387 . S
C187 C189 1.387 . S
H188 C195 0.950 . S
C189 C187 1.387 . S
C189 C191 1.390 . S
C189 H193 0.950 . S
H190 C186 0.950 . S
C191 C189 1.390 . S
C191 C192 1.387 . S
C191 H194 0.950 . S
C192 C191 1.387 . S
C192 C195 1.387 . S
H193 C189 0.950 . S
H194 C191 0.950 . S
C195 C186 1.390 . S
C195 H188 0.950 . S
C195 C192 1.387 . S
C196 C197 1.387 . S
C196 H200 0.950 . S
C196 C205 1.390 . S
C197 C196 1.387 . S
C197 C199 1.387 . S
H198 C205 0.950 . S
C199 C197 1.387 . S
C199 C201 1.390 . S
C199 H203 0.950 . S
H200 C196 0.950 . S
C201 C199 1.390 . S
C201 C202 1.387 . S
C201 H204 0.950 . S
C202 C201 1.387 . S
C202 C205 1.387 . S
H203 C199 0.950 . S
H204 C201 0.950 . S
C205 C196 1.390 . S
C205 H198 0.950 . S
C205 C202 1.387 . S
C206 C207 1.387 1_455 S
C206 H210 0.950 1_455 S
C206 C215 1.390 . S
C207 C206 1.387 1_655 S
C207 C209 1.387 1_655 S
H208 C215 0.950 . S
C209 C207 1.387 1_455 S
C209 C211 1.390 . S
C209 H213 0.950 1_456 S
H210 C206 0.950 1_655 S
C211 C209 1.390 . S
C211 C212 1.387 . S
C211 H214 0.950 1_556 S
C212 C211 1.387 . S
C212 C215 1.387 . S
H213 C209 0.950 1_654 S
H214 C211 0.950 1_554 S
C215 C206 1.390 . S
C215 H208 0.950 . S
C215 C212 1.387 . S
C216 C217 1.387 . S
C216 H220 0.950 . S
C216 C225 1.390 . S
C217 C216 1.387 . S
C217 C219 1.387 . S
H218 C225 0.950 . S
C219 C217 1.387 . S
C219 C221 1.390 . S
C219 H223 0.950 . S
H220 C216 0.950 . S
C221 C219 1.390 . S
C221 C222 1.387 . S
C221 H224 0.950 . S
C222 C221 1.387 . S
C222 C225 1.387 . S
H223 C219 0.950 . S
H224 C221 0.950 . S
C225 C216 1.390 . S
C225 H218 0.950 . S
C225 C222 1.387 . S
C226 C227 1.387 . S
C226 H230 0.950 . S
C226 C235 1.390 . S
C227 C226 1.387 . S
C227 C229 1.387 . S
H228 C235 0.950 . S
C229 C227 1.387 . S
C229 C231 1.390 . S
C229 H233 0.950 . S
H230 C226 0.950 . S
C231 C229 1.390 . S
C231 C232 1.387 . S
C231 H234 0.950 . S
C232 C231 1.387 . S
C232 C235 1.387 . S
H233 C229 0.950 . S
H234 C231 0.950 . S
C235 C226 1.390 . S
C235 H228 0.950 . S
C235 C232 1.387 . S
C236 C237 1.387 . S
C236 H240 0.950 . S
C236 C245 1.390 1_545 S
C237 C236 1.387 . S
C237 C239 1.387 1_545 S
H238 C245 0.950 . S
C239 C237 1.387 1_565 S
C239 C241 1.390 . S
C239 H243 0.950 . S
H240 C236 0.950 . S
C241 C239 1.390 . S
C241 C242 1.387 . S
C241 H244 0.950 . S
C242 C241 1.387 . S
C242 C245 1.387 . S
H243 C239 0.950 . S
H244 C241 0.950 . S
C245 C236 1.390 1_565 S
C245 H238 0.950 . S
C245 C242 1.387 . S
C246 C247 1.387 . S
C246 H250 0.950 . S
C246 C255 1.390 . S
C247 C246 1.387 . S
C247 C249 1.387 . S
H248 C255 0.950 . S
C249 C247 1.387 . S
C249 C251 1.390 . S
C249 H253 0.950 . S
H250 C246 0.950 . S
C251 C249 1.390 . S
C251 C252 1.387 . S
C251 H254 0.950 . S
C252 C251 1.387 . S
C252 C255 1.387 . S
H253 C249 0.950 . S
H254 C251 0.950 . S
C255 C246 1.390 . S
C255 H248 0.950 . S
C255 C252 1.387 . S
C256 C257 1.387 1_544 S
C256 H260 0.950 . S
C256 C265 1.390 . S
C257 C256 1.387 1_566 S
C257 C259 1.387 1_565 S
H258 C265 0.950 . S
C259 C257 1.387 1_545 S
C259 C261 1.390 . S
C259 H263 0.950 1_545 S
H260 C256 0.950 . S
C261 C259 1.390 . S
C261 C262 1.387 . S
C261 H264 0.950 . S
C262 C261 1.387 . S
C262 C265 1.387 1_556 S
H263 C259 0.950 1_565 S
H264 C261 0.950 . S
C265 C256 1.390 . S
C265 H258 0.950 . S
C265 C262 1.387 1_554 S
C266 C267 1.387 . S
C266 H270 0.950 . S
C266 C275 1.390 . S
C267 C266 1.387 . S
C267 C269 1.387 . S
H268 C275 0.950 . S
C269 C267 1.387 . S
C269 C271 1.390 . S
C269 H273 0.950 . S
H270 C266 0.950 . S
C271 C269 1.390 . S
C271 C272 1.387 . S
C271 H274 0.950 . S
C272 C271 1.387 . S
C272 C275 1.387 . S
H273 C269 0.950 . S
H274 C271 0.950 . S
C275 C266 1.390 . S
C275 H268 0.950 . S
C275 C272 1.387 . S
C276 C277 1.387 . S
C276 H280 0.950 . S
C276 C285 1.390 . S
C277 C276 1.387 . S
C277 C279 1.387 . S
H278 C285 0.950 . S
C279 C277 1.387 . S
C279 C281 1.390 . S
C279 H283 0.950 . S
H280 C276 0.950 . S
C281 C279 1.390 . S
C281 C282 1.387 . S
C281 H284 0.950 . S
C282 C281 1.387 . S
C282 C285 1.387 . S
H283 C279 0.950 . S
H284 C281 0.950 . S
C285 C276 1.390 . S
C285 H278 0.950 . S
C285 C282 1.387 . S
C286 C287 1.387 . S
C286 H290 0.950 . S
C286 C295 1.390 . S
C287 C286 1.387 . S
C287 C289 1.387 . S
H288 C295 0.950 . S
C289 C287 1.387 . S
C289 C291 1.390 . S
C289 H293 0.950 . S
H290 C286 0.950 . S
C291 C289 1.390 . S
C291 C292 1.387 . S
C291 H294 0.950 . S
C292 C291 1.387 . S
C292 C295 1.387 . S
H293 C289 0.950 . S
H294 C291 0.950 . S
C295 C286 1.390 . S
C295 H288 0.950 . S
C295 C292 1.387 . S
C296 C297 1.387 . S
C296 H300 0.950 . S
C296 C305 1.390 . S
C297 C296 1.387 . S
C297 C299 1.387 . S
H298 C305 0.950 . S
C299 C297 1.387 . S
C299 C301 1.390 . S
C299 H303 0.950 . S
H300 C296 0.950 . S
C301 C299 1.390 . S
C301 C302 1.387 . S
C301 H304 0.950 . S
C302 C301 1.387 . S
C302 C305 1.387 . S
H303 C299 0.950 . S
H304 C301 0.950 . S
C305 C296 1.390 . S
C305 H298 0.950 . S
C305 C302 1.387 . S
C306 C307 1.387 . S
C306 H310 0.950 . S
C306 C315 1.390 1_655 S
C307 C306 1.387 . S
C307 C309 1.387 . S
H308 C315 0.950 . S
C309 C307 1.387 . S
C309 C311 1.390 1_655 S
C309 H313 0.950 . S
H310 C306 0.950 . S
C311 C309 1.390 1_455 S
C311 C312 1.387 . S
C311 H314 0.950 . S
C312 C311 1.387 . S
C312 C315 1.387 . S
H313 C309 0.950 . S
H314 C311 0.950 . S
C315 C306 1.390 1_455 S
C315 H308 0.950 . S
C315 C312 1.387 . S
C316 C317 1.387 . S
C316 H320 0.950 . S
C316 C325 1.390 . S
C317 C316 1.387 . S
C317 C319 1.387 . S
H318 C325 0.950 . S
C319 C317 1.387 . S
C319 C321 1.390 . S
C319 H323 0.950 . S
H320 C316 0.950 . S
C321 C319 1.390 . S
C321 C322 1.387 . S
C321 H324 0.950 . S
C322 C321 1.387 . S
C322 C325 1.387 . S
H323 C319 0.950 . S
H324 C321 0.950 . S
C325 C316 1.390 . S
C325 H318 0.950 . S
C325 C322 1.387 . S
C326 C327 1.387 . S
C326 H330 0.950 . S
C326 C335 1.390 . S
C327 C326 1.387 . S
C327 C329 1.387 . S
H328 C335 0.950 . S
C329 C327 1.387 . S
C329 C331 1.390 . S
C329 H333 0.950 . S
H330 C326 0.950 . S
C331 C329 1.390 . S
C331 C332 1.387 . S
C331 H334 0.950 . S
C332 C331 1.387 . S
C332 C335 1.387 . S
H333 C329 0.950 . S
H334 C331 0.950 . S
C335 C326 1.390 . S
C335 H328 0.950 . S
C335 C332 1.387 . S
C336 C337 1.387 . S
C336 H340 0.950 . S
C336 C345 1.390 . S
C337 C336 1.387 . S
C337 C339 1.387 . S
H338 C345 0.950 . S
C339 C337 1.387 . S
C339 C341 1.390 . S
C339 H343 0.950 . S
H340 C336 0.950 . S
C341 C339 1.390 . S
C341 C342 1.387 . S
C341 H344 0.950 . S
C342 C341 1.387 . S
C342 C345 1.387 . S
H343 C339 0.950 . S
H344 C341 0.950 . S
C345 C336 1.390 . S
C345 H338 0.950 . S
C345 C342 1.387 . S
C346 C347 1.387 . S
C346 H350 0.950 . S
C346 C355 1.390 . S
C347 C346 1.387 . S
C347 C349 1.387 . S
H348 C355 0.950 . S
C349 C347 1.387 . S
C349 C351 1.390 . S
C349 H353 0.950 . S
H350 C346 0.950 . S
C351 C349 1.390 . S
C351 C352 1.387 . S
C351 H354 0.950 . S
C352 C351 1.387 . S
C352 C355 1.387 . S
H353 C349 0.950 . S
H354 C351 0.950 . S
C355 C346 1.390 . S
C355 H348 0.950 . S
C355 C352 1.387 . S
C356 C357 1.387 . S
C356 H360 0.950 . S
C356 C365 1.390 . S
C357 C356 1.387 . S
C357 C359 1.387 . S
H358 C365 0.950 . S
C359 C357 1.387 . S
C359 C361 1.390 . S
C359 H363 0.950 . S
H360 C356 0.950 . S
C361 C359 1.390 . S
C361 C362 1.387 . S
C361 H364 0.950 . S
C362 C361 1.387 . S
C362 C365 1.387 . S
H363 C359 0.950 . S
H364 C361 0.950 . S
C365 C356 1.390 . S
C365 H358 0.950 . S
C365 C362 1.387 . S
C366 C367 1.387 . S
C366 H370 0.950 . S
C366 C375 1.390 . S
C367 C366 1.387 . S
C367 C369 1.387 . S
H368 C375 0.950 . S
C369 C367 1.387 . S
C369 C371 1.390 . S
C369 H373 0.950 . S
H370 C366 0.950 . S
C371 C369 1.390 . S
C371 C372 1.387 . S
C371 H374 0.950 . S
C372 C371 1.387 . S
C372 C375 1.387 . S
H373 C369 0.950 . S
H374 C371 0.950 . S
C375 C366 1.390 . S
C375 H368 0.950 . S
C375 C372 1.387 . S
C376 C377 1.387 . S
C376 H380 0.950 . S
C376 C385 1.390 . S
C377 C376 1.387 . S
C377 C379 1.387 . S
H378 C385 0.950 . S
C379 C377 1.387 . S
C379 C381 1.390 . S
C379 H383 0.950 . S
H380 C376 0.950 . S
C381 C379 1.390 . S
C381 C382 1.387 . S
C381 H384 0.950 . S
C382 C381 1.387 . S
C382 C385 1.387 . S
H383 C379 0.950 . S
H384 C381 0.950 . S
C385 C376 1.390 . S
C385 H378 0.950 . S
C385 C382 1.387 . S
C386 C387 1.387 1_554 S
C386 H390 0.950 . S
C386 C395 1.390 1_554 S
C387 C386 1.387 1_556 S
C387 C389 1.387 . S
H388 C395 0.950 . S
C389 C387 1.387 . S
C389 C391 1.390 . S
C389 H393 0.950 . S
H390 C386 0.950 . S
C391 C389 1.390 . S
C391 C392 1.387 . S
C391 H394 0.950 . S
C392 C391 1.387 . S
C392 C395 1.387 . S
H393 C389 0.950 . S
H394 C391 0.950 . S
C395 C386 1.390 1_556 S
C395 H388 0.950 . S
C395 C392 1.387 . S
C157 C7 0.973 . S
C162 C89 1.072 . S
C167 C25 1.009 . S
C172 C97 1.098 . S
C177 C46 1.092 . S
C182 C106 1.141 . S
C192 C116 1.140 . S
C187 C70 1.100 . S
C202 C125 1.069 . S
C197 C28 0.970 . S
C207 C49 1.102 . S
C212 C134 1.140 . S
C217 C67 1.093 . S
C222 C142 1.139 . S
C227 C4 1.015 . S
C232 C152 1.105 1_455 S
C237 C58 1.547 . S
C242 C151 1.659 . S
C252 C124 1.513 . S
C247 C66 1.449 . S
C262 C133 1.652 . S
C257 C3 1.666 . S
C267 C37 1.602 . S
C272 C143 1.669 . S
C282 C98 1.657 . S
C277 C79 1.548 . S
C287 C16 1.602 1_655 S
C292 C107 1.669 . S
C302 C115 1.647 . S
C297 C24 1.663 . S
C312 C88 1.513 . S
C307 C45 1.448 . S
C322 C145 1.497 . S
C317 C19 1.252 . S
C332 C154 1.391 . S
C327 C41 1.249 . S
C337 C62 1.187 . S
C342 C127 1.277 . S
C352 C136 1.377 . S
C347 C82 1.193 . S
C362 C109 1.495 . S
C357 C40 1.248 . S
C367 C61 1.194 . S
C372 C118 1.376 . S
C382 C91 1.279 . S
C377 C83 1.189 . S
C392 C100 1.385 . S
C387 C20 1.253 . S
