# Generated by pormake.
# Topology ssc, (4,4)-cn, num edge types: 1
# Building blocks:
#     Node 0, Type 0, BuildingBlock: GALJAG_clean_sbu_0, # of connection points: 4
#     Node 1, Type 0, BuildingBlock: GALJAG_clean_sbu_0, # of connection points: 4
#     Node 2, Type 0, BuildingBlock: GALJAG_clean_sbu_0, # of connection points: 4
#     Node 3, Type 0, BuildingBlock: GALJAG_clean_sbu_0, # of connection points: 4
#     Node 4, Type 0, BuildingBlock: GALJAG_clean_sbu_0, # of connection points: 4
#     Node 5, Type 0, BuildingBlock: GALJAG_clean_sbu_0, # of connection points: 4
#     Node 6, Type 0, BuildingBlock: GALJAG_clean_sbu_0, # of connection points: 4
#     Node 7, Type 0, BuildingBlock: GALJAG_clean_sbu_0, # of connection points: 4
#     Node 8, Type 0, BuildingBlock: GALJAG_clean_sbu_0, # of connection points: 4
#     Node 9, Type 0, BuildingBlock: GALJAG_clean_sbu_0, # of connection points: 4
#     Node 10, Type 0, BuildingBlock: GALJAG_clean_sbu_0, # of connection points: 4
#     Node 11, Type 0, BuildingBlock: GALJAG_clean_sbu_0, # of connection points: 4
#     Node 12, Type 1, BuildingBlock: KUFVIS_clean_linker_0, # of connection points: 4
#     Node 13, Type 1, BuildingBlock: KUFVIS_clean_linker_0, # of connection points: 4
#     Node 14, Type 1, BuildingBlock: KUFVIS_clean_linker_0, # of connection points: 4
#     Node 15, Type 1, BuildingBlock: KUFVIS_clean_linker_0, # of connection points: 4
#     Node 16, Type 1, BuildingBlock: KUFVIS_clean_linker_0, # of connection points: 4
#     Node 17, Type 1, BuildingBlock: KUFVIS_clean_linker_0, # of connection points: 4
#     Node 18, Type 1, BuildingBlock: KUFVIS_clean_linker_0, # of connection points: 4
#     Node 19, Type 1, BuildingBlock: KUFVIS_clean_linker_0, # of connection points: 4
#     Node 20, Type 1, BuildingBlock: KUFVIS_clean_linker_0, # of connection points: 4
#     Node 21, Type 1, BuildingBlock: KUFVIS_clean_linker_0, # of connection points: 4
#     Node 22, Type 1, BuildingBlock: KUFVIS_clean_linker_0, # of connection points: 4
#     Node 23, Type 1, BuildingBlock: KUFVIS_clean_linker_0, # of connection points: 4
#     Edge 24, Type (0, 1), BuildingBlock: EZIPEK_clean_linker_0, # of connection points: 2
#     Edge 25, Type (0, 1), BuildingBlock: EZIPEK_clean_linker_0, # of connection points: 2
#     Edge 26, Type (0, 1), BuildingBlock: EZIPEK_clean_linker_0, # of connection points: 2
#     Edge 27, Type (0, 1), BuildingBlock: EZIPEK_clean_linker_0, # of connection points: 2
#     Edge 28, Type (0, 1), BuildingBlock: EZIPEK_clean_linker_0, # of connection points: 2
#     Edge 29, Type (0, 1), BuildingBlock: EZIPEK_clean_linker_0, # of connection points: 2
#     Edge 30, Type (0, 1), BuildingBlock: EZIPEK_clean_linker_0, # of connection points: 2
#     Edge 31, Type (0, 1), BuildingBlock: EZIPEK_clean_linker_0, # of connection points: 2
#     Edge 32, Type (0, 1), BuildingBlock: EZIPEK_clean_linker_0, # of connection points: 2
#     Edge 33, Type (0, 1), BuildingBlock: EZIPEK_clean_linker_0, # of connection points: 2
#     Edge 34, Type (0, 1), BuildingBlock: EZIPEK_clean_linker_0, # of connection points: 2
#     Edge 35, Type (0, 1), BuildingBlock: EZIPEK_clean_linker_0, # of connection points: 2
#     Edge 36, Type (0, 1), BuildingBlock: EZIPEK_clean_linker_0, # of connection points: 2
#     Edge 37, Type (0, 1), BuildingBlock: EZIPEK_clean_linker_0, # of connection points: 2
#     Edge 38, Type (0, 1), BuildingBlock: EZIPEK_clean_linker_0, # of connection points: 2
#     Edge 39, Type (0, 1), BuildingBlock: EZIPEK_clean_linker_0, # of connection points: 2
#     Edge 40, Type (0, 1), BuildingBlock: EZIPEK_clean_linker_0, # of connection points: 2
#     Edge 41, Type (0, 1), BuildingBlock: EZIPEK_clean_linker_0, # of connection points: 2
#     Edge 42, Type (0, 1), BuildingBlock: EZIPEK_clean_linker_0, # of connection points: 2
#     Edge 43, Type (0, 1), BuildingBlock: EZIPEK_clean_linker_0, # of connection points: 2
#     Edge 44, Type (0, 1), BuildingBlock: EZIPEK_clean_linker_0, # of connection points: 2
#     Edge 45, Type (0, 1), BuildingBlock: EZIPEK_clean_linker_0, # of connection points: 2
#     Edge 46, Type (0, 1), BuildingBlock: EZIPEK_clean_linker_0, # of connection points: 2
#     Edge 47, Type (0, 1), BuildingBlock: EZIPEK_clean_linker_0, # of connection points: 2
#     Edge 48, Type (0, 1), BuildingBlock: EZIPEK_clean_linker_0, # of connection points: 2
#     Edge 49, Type (0, 1), BuildingBlock: EZIPEK_clean_linker_0, # of connection points: 2
#     Edge 50, Type (0, 1), BuildingBlock: EZIPEK_clean_linker_0, # of connection points: 2
#     Edge 51, Type (0, 1), BuildingBlock: EZIPEK_clean_linker_0, # of connection points: 2
#     Edge 52, Type (0, 1), BuildingBlock: EZIPEK_clean_linker_0, # of connection points: 2
#     Edge 53, Type (0, 1), BuildingBlock: EZIPEK_clean_linker_0, # of connection points: 2
#     Edge 54, Type (0, 1), BuildingBlock: EZIPEK_clean_linker_0, # of connection points: 2
#     Edge 55, Type (0, 1), BuildingBlock: EZIPEK_clean_linker_0, # of connection points: 2
#     Edge 56, Type (0, 1), BuildingBlock: EZIPEK_clean_linker_0, # of connection points: 2
#     Edge 57, Type (0, 1), BuildingBlock: EZIPEK_clean_linker_0, # of connection points: 2
#     Edge 58, Type (0, 1), BuildingBlock: EZIPEK_clean_linker_0, # of connection points: 2
#     Edge 59, Type (0, 1), BuildingBlock: EZIPEK_clean_linker_0, # of connection points: 2
#     Edge 60, Type (0, 1), BuildingBlock: EZIPEK_clean_linker_0, # of connection points: 2
#     Edge 61, Type (0, 1), BuildingBlock: EZIPEK_clean_linker_0, # of connection points: 2
#     Edge 62, Type (0, 1), BuildingBlock: EZIPEK_clean_linker_0, # of connection points: 2
#     Edge 63, Type (0, 1), BuildingBlock: EZIPEK_clean_linker_0, # of connection points: 2
#     Edge 64, Type (0, 1), BuildingBlock: EZIPEK_clean_linker_0, # of connection points: 2
#     Edge 65, Type (0, 1), BuildingBlock: EZIPEK_clean_linker_0, # of connection points: 2
#     Edge 66, Type (0, 1), BuildingBlock: EZIPEK_clean_linker_0, # of connection points: 2
#     Edge 67, Type (0, 1), BuildingBlock: EZIPEK_clean_linker_0, # of connection points: 2
#     Edge 68, Type (0, 1), BuildingBlock: EZIPEK_clean_linker_0, # of connection points: 2
#     Edge 69, Type (0, 1), BuildingBlock: EZIPEK_clean_linker_0, # of connection points: 2
#     Edge 70, Type (0, 1), BuildingBlock: EZIPEK_clean_linker_0, # of connection points: 2
#     Edge 71, Type (0, 1), BuildingBlock: EZIPEK_clean_linker_0, # of connection points: 2
# Relax obj value: 0.073
# Max RMSD: 0.279
# Mean RMSD: 0.240
data_MOF--net-ssc--node1-GALJAG_clean_sbu_0--node2-KUFVIS_clean_linker_0--edge1-EZIPEK_clean_linker_0
_symmetry_space_group_name_H-M    P1
_symmetry_Int_Tables_number       1
_symmetry_cell_setting            triclinic
loop_
_symmetry_equiv_pos_as_xyz
'x, y, z'
_cell_length_a     24.011831
_cell_length_b     23.63
_cell_length_c     23.663028
_cell_angle_alpha  90.276767
_cell_angle_beta   90.392545
_cell_angle_gamma 90.505291
loop_
_atom_site_label
_atom_site_type_symbol
_atom_site_fract_x
_atom_site_fract_y
_atom_site_fract_z
_atom_type_partial_charge
In0 In -0.00386 0.25734 0.11155 0.0
O1 O 0.07304 0.23727 0.16589 0.0
O2 O 0.03791 0.31931 0.17278 0.0
C3 C -0.00064 0.18314 0.02337 0.0
C4 C 0.9173 0.22949 0.1868 0.0
C5 C -0.00981 0.34099 0.03665 0.0
O6 O 0.04304 0.19805 0.0499 0.0
O7 O 0.95468 0.20116 0.04442 0.0
O8 O 0.94908 0.32838 0.06731 0.0
O9 O 0.03439 0.3148 0.04801 0.0
C10 C 0.07384 0.28496 0.1905 0.0
O11 O 0.91755 0.27677 0.16213 0.0
O12 O 0.95442 0.19538 0.17104 0.0
In13 In -0.0164 0.74743 0.36281 0.0
O14 O 0.955 0.67835 0.42192 0.0
O15 O 0.04225 0.68955 0.40979 0.0
C16 C 0.89885 0.77043 0.29453 0.0
C17 C 0.97949 0.81947 0.4521 0.0
C18 C 0.04565 0.73218 0.26958 0.0
O19 O 0.89993 0.72403 0.32129 0.0
O20 O 0.93775 0.80492 0.30578 0.0
O21 O 0.05177 0.77563 0.30102 0.0
O22 O 0.01203 0.69534 0.28813 0.0
C23 C 0.00387 0.66718 0.43857 0.0
O24 O 0.02346 0.81395 0.42316 0.0
O25 O 0.93711 0.79507 0.43136 0.0
In26 In 0.49793 0.7449 0.62712 0.0
O27 O 0.52106 0.67038 0.56762 0.0
O28 O 0.43699 0.69628 0.56759 0.0
C29 C 0.57922 0.74528 0.70553 0.0
C30 C 0.51595 0.81416 0.54061 0.0
C31 C 0.43362 0.77 0.71824 0.0
O32 O 0.54614 0.70365 0.69956 0.0
O33 O 0.5768 0.78028 0.66538 0.0
O34 O 0.44603 0.80732 0.68196 0.0
O35 O 0.44717 0.7203 0.7042 0.0
C36 C 0.47421 0.66819 0.54265 0.0
O37 O 0.46884 0.80972 0.56435 0.0
O38 O 0.5559 0.7924 0.56779 0.0
In39 In 0.47957 0.22744 0.85605 0.0
O40 O 0.54718 0.26394 0.79571 0.0
O41 O 0.51104 0.18508 0.77358 0.0
C42 C 0.47534 0.30573 0.93727 0.0
C43 C 0.39257 0.25851 0.79506 0.0
C44 C 0.481 0.1468 0.93947 0.0
O45 O 0.52092 0.29509 0.91268 0.0
O46 O 0.43311 0.28057 0.91719 0.0
O47 O 0.43955 0.15369 0.90704 0.0
O48 O 0.52384 0.17466 0.92489 0.0
C49 C 0.54184 0.22597 0.75817 0.0
O50 O 0.39713 0.20814 0.81254 0.0
O51 O 0.42932 0.29293 0.8124 0.0
In52 In 0.11144 0.98913 0.23817 0.0
O53 O 0.13388 0.89754 0.25953 0.0
O54 O 0.18084 0.93882 0.19581 0.0
C55 C 0.04005 0.00829 0.32338 0.0
C56 C 0.19176 0.06941 0.25823 0.0
C57 C 0.03576 0.9831 0.15205 0.0
O58 O 0.07385 0.96775 0.3243 0.0
O59 O 0.04366 0.03992 0.2809 0.0
O60 O 0.07058 0.02332 0.15645 0.0
O61 O 0.04147 0.94478 0.18839 0.0
C62 C 0.17414 0.89509 0.22565 0.0
O63 O 0.15905 0.07098 0.21617 0.0
O64 O 0.18345 0.02795 0.29056 0.0
In65 In 0.24808 0.83499 0.50122 0.0
O66 O 0.20612 0.7726 0.4417 0.0
O67 O 0.29474 0.7795 0.44003 0.0
C68 C 0.16516 0.90717 0.52604 0.0
C69 C 0.25987 0.74452 0.57128 0.0
C70 C 0.31006 0.92393 0.4635 0.0
O71 O 0.16364 0.87568 0.48256 0.0
O72 O 0.20502 0.89746 0.56 0.0
O73 O 0.32099 0.89974 0.51021 0.0
O74 O 0.27081 0.90102 0.43599 0.0
C75 C 0.25174 0.75195 0.42515 0.0
O76 O 0.30123 0.77597 0.55903 0.0
O77 O 0.21336 0.76535 0.55773 0.0
In78 In 0.34804 0.00483 0.70975 0.0
O79 O 0.28635 0.94365 0.66643 0.0
O80 O 0.27566 0.95937 0.7541 0.0
C81 C 0.43172 0.00637 0.63352 0.0
C82 C 0.27878 0.09329 0.69481 0.0
C83 C 0.41996 0.98256 0.7969 0.0
O84 O 0.39868 0.96476 0.63829 0.0
O85 O 0.41976 0.04865 0.66381 0.0
O86 O 0.39707 0.03028 0.79091 0.0
O87 O 0.40289 0.94529 0.76222 0.0
C88 C 0.25654 0.93622 0.70958 0.0
O89 O 0.30844 0.08834 0.73896 0.0
O90 O 0.28827 0.0569 0.65719 0.0
In91 In 0.22795 0.1064 -0.00181 0.0
O92 O 0.18793 0.1636 0.06498 0.0
O93 O 0.2746 0.17336 0.04771 0.0
C94 C 0.1591 0.01994 0.97601 0.0
C95 C 0.21381 0.18348 0.91832 0.0
C96 C 0.30876 0.03455 0.02611 0.0
O97 O 0.15542 0.04828 0.02151 0.0
O98 O 0.19457 0.03766 0.94088 0.0
O99 O 0.30988 0.06031 0.97922 0.0
O100 O 0.26938 0.04767 0.05843 0.0
C101 C 0.23241 0.19194 0.07296 0.0
O102 O 0.26151 0.16472 0.93095 0.0
O103 O 0.17323 0.15854 0.94132 0.0
In104 In 0.71397 0.36435 -0.00922 0.0
O105 O 0.75313 0.31368 0.06338 0.0
O106 O 0.66497 0.31326 0.05487 0.0
C107 C 0.79152 0.43974 0.95802 0.0
C108 C 0.72116 0.26953 0.92639 0.0
C109 C 0.6406 0.44996 0.00122 0.0
O110 O 0.79403 0.41632 0.00613 0.0
O111 O 0.75244 0.42221 0.9262 0.0
O112 O 0.63801 0.41544 0.95996 0.0
O113 O 0.67683 0.4384 0.03838 0.0
C114 C 0.7072 0.29168 0.07803 0.0
O115 O 0.67534 0.29479 0.93356 0.0
O116 O 0.76304 0.29756 0.94335 0.0
In117 In 0.87028 0.49829 0.24417 0.0
O118 O 0.81841 0.42198 0.21313 0.0
O119 O 0.80637 0.45323 0.29687 0.0
C120 C 0.95235 0.50541 0.16658 0.0
C121 C 0.79261 0.57825 0.22787 0.0
C122 C 0.93752 0.48598 0.33449 0.0
O123 O 0.92403 0.46074 0.17338 0.0
O124 O 0.93712 0.54718 0.19594 0.0
O125 O 0.91035 0.53077 0.32612 0.0
O126 O 0.92884 0.44697 0.29881 0.0
C127 C 0.79113 0.41912 0.25858 0.0
O128 O 0.82618 0.58005 0.26922 0.0
O129 O 0.8014 0.53926 0.1925 0.0
In130 In 0.73908 0.60761 0.48603 0.0
O131 O 0.71662 0.66836 0.55568 0.0
O132 O 0.80213 0.663 0.5342 0.0
C133 C 0.652 0.53621 0.48133 0.0
C134 C 0.7255 0.69531 0.41326 0.0
C135 C 0.80333 0.51452 0.49984 0.0
O136 O 0.66091 0.5673 0.52434 0.0
O137 O 0.68299 0.54638 0.43949 0.0
O138 O 0.80296 0.54168 0.45351 0.0
O139 O 0.77567 0.53713 0.5389 0.0
C140 C 0.76485 0.6901 0.56001 0.0
O141 O 0.77093 0.6683 0.41624 0.0
O142 O 0.68574 0.67207 0.4392 0.0
In143 In 0.62681 0.49474 0.75772 0.0
O144 O 0.68821 0.43537 0.8037 0.0
O145 O 0.68729 0.43481 0.71394 0.0
C146 C 0.54151 0.51071 0.83172 0.0
C147 C 0.69846 0.58442 0.75526 0.0
C148 C 0.55341 0.47356 0.67312 0.0
O149 O 0.56946 0.4656 0.83135 0.0
O150 O 0.55995 0.54845 0.79935 0.0
O151 O 0.58846 0.51372 0.67107 0.0
O152 O 0.55923 0.44109 0.71495 0.0
C153 C 0.71008 0.41726 0.75874 0.0
O154 O 0.66306 0.57471 0.71662 0.0
O155 O 0.69493 0.55128 0.79678 0.0
H156 H 0.80477 0.32302 0.61976 0.0
H157 H 0.9282 0.22539 0.70577 0.0
H158 H 0.93982 0.25161 0.52647 0.0
H159 H 0.9546 0.11581 0.56815 0.0
H160 H 0.12594 0.10693 0.61763 0.0
H161 H 0.03291 0.25431 0.66128 0.0
C162 C 0.84005 0.29449 0.61789 0.0
C163 C 0.87071 0.29235 0.56844 0.0
C164 C 0.86319 0.27576 0.66838 0.0
C165 C 0.90955 0.2394 0.66659 0.0
C166 C 0.93397 0.22448 0.61396 0.0
C167 C 0.91562 0.25377 0.56487 0.0
C168 C -0.01319 0.19041 0.61321 0.0
C169 C -0.00909 0.13569 0.58693 0.0
C170 C 0.04268 0.10651 0.58752 0.0
C171 C 0.08714 0.13043 0.61555 0.0
C172 C 0.0842 0.18266 0.64155 0.0
C173 C 0.0345 0.21329 0.64069 0.0
H174 H 0.84847 0.60532 0.80283 0.0
H175 H -0.01367 0.65409 0.90842 0.0
H176 H 0.93545 0.7599 0.76871 0.0
H177 H 0.03666 0.74608 0.75172 0.0
H178 H 0.15237 0.84261 0.85103 0.0
H179 H 0.01103 0.76556 0.93093 0.0
C180 C 0.88236 0.63461 0.81242 0.0
C181 C 0.88774 0.68396 0.78114 0.0
C182 C 0.91379 0.62571 0.86059 0.0
C183 C 0.95942 0.66229 0.87259 0.0
C184 C 0.9704 0.70894 0.83638 0.0
C185 C 0.93187 0.72118 0.79272 0.0
C186 C 0.02167 0.74478 0.84211 0.0
C187 C 0.05091 0.76055 0.79274 0.0
C188 C 0.09702 0.79725 0.79633 0.0
C189 C 0.11681 0.81377 0.84896 0.0
C190 C 0.0832 0.80814 0.896 0.0
C191 C 0.03736 0.77024 0.89421 0.0
H192 H 0.34005 0.87029 0.17276 0.0
H193 H 0.40008 0.70236 0.20105 0.0
H194 H 0.49466 0.82039 0.09929 0.0
H195 H 0.47334 0.68253 0.06908 0.0
H196 H 0.60972 0.59524 0.14659 0.0
H197 H 0.54936 0.74856 0.22113 0.0
C198 C 0.37276 0.83902 0.16817 0.0
C199 C 0.41619 0.85043 0.13188 0.0
C200 C 0.36423 0.78536 0.18994 0.0
C201 C 0.40629 0.74445 0.18414 0.0
C202 C 0.4559 0.75834 0.15459 0.0
C203 C 0.45972 0.81111 0.12657 0.0
C204 C 0.50149 0.71623 0.14961 0.0
C205 C 0.50302 0.67821 0.10326 0.0
C206 C 0.54373 0.63542 0.10181 0.0
C207 C 0.57941 0.62923 0.1474 0.0
C208 C 0.58563 0.67228 0.18693 0.0
C209 C 0.54559 0.71546 0.18962 0.0
H210 H 0.36698 0.09162 0.31619 0.0
H211 H 0.49836 0.15321 0.42464 0.0
H212 H 0.4208 0.264 0.30421 0.0
H213 H 0.56519 0.23024 0.29473 0.0
H214 H 0.6373 0.36057 0.39924 0.0
H215 H 0.47558 0.29425 0.43922 0.0
C216 C 0.39639 0.12476 0.32878 0.0
C217 C 0.38743 0.17859 0.30879 0.0
C218 C 0.43015 0.11644 0.37542 0.0
C219 C 0.46981 0.15903 0.38986 0.0
C220 C 0.4712 0.21057 0.35895 0.0
C221 C 0.42623 0.22207 0.32159 0.0
C222 C 0.51668 0.2534 0.36893 0.0
C223 C 0.56304 0.25723 0.33177 0.0
C224 C 0.6062 0.29705 0.34302 0.0
C225 C 0.60403 0.32986 0.39119 0.0
C226 C 0.55694 0.33167 0.42413 0.0
C227 C 0.51301 0.29265 0.41417 0.0
H228 H 0.61555 0.89392 0.41352 0.0
H229 H 0.69394 0.95454 0.26566 0.0
H230 H 0.51688 0.93567 0.26917 0.0
H231 H 0.5167 0.98743 0.19022 0.0
H232 H 0.59127 0.13158 0.11218 0.0
H233 H 0.68419 0.04057 0.23435 0.0
C234 C 0.61273 0.91147 0.37135 0.0
C235 C 0.56169 0.90812 0.34366 0.0
C236 C 0.65974 0.91296 0.33783 0.0
C237 C 0.65653 0.94616 0.28866 0.0
C238 C 0.60383 0.96354 0.26704 0.0
C239 C 0.55625 0.93639 0.29112 0.0
C240 C 0.6002 0.00748 0.22013 0.0
C241 C 0.55145 0.01559 0.18617 0.0
C242 C 0.54892 0.06002 0.14584 0.0
C243 C 0.59353 0.09671 0.14189 0.0
C244 C 0.64233 0.0889 0.17178 0.0
C245 C 0.64608 0.04463 0.21079 0.0
H246 H 0.0969 0.39497 0.36812 0.0
H247 H 0.1589 0.44785 0.52978 0.0
H248 H 0.26266 0.3488 0.41745 0.0
H249 H 0.21564 0.34697 0.58014 0.0
H250 H 0.36573 0.41679 0.64976 0.0
H251 H 0.32485 0.4481 0.47603 0.0
C252 C 0.1306 0.39602 0.39922 0.0
C253 C 0.17931 0.36816 0.38746 0.0
C254 C 0.12298 0.42472 0.44927 0.0
C255 C 0.16582 0.42629 0.49002 0.0
C256 C 0.21765 0.40019 0.47866 0.0
C257 C 0.22425 0.37062 0.42657 0.0
C258 C 0.26215 0.4013 0.52336 0.0
C259 C 0.25243 0.37301 0.57494 0.0
C260 C 0.29228 0.37637 0.61862 0.0
C261 C 0.33648 0.41335 0.61445 0.0
C262 C 0.35023 0.43751 0.56347 0.0
C263 C 0.31362 0.43089 0.51654 0.0
H264 H 0.86278 0.15741 0.85117 0.0
H265 H 0.77214 0.02338 0.76837 0.0
H266 H 0.95082 0.01552 0.78836 0.0
H267 H 0.95366 0.97834 0.7039 0.0
H268 H 0.88099 0.82193 0.65285 0.0
H269 H 0.77601 0.95681 0.70281 0.0
C270 C 0.8626 0.11827 0.82683 0.0
C271 C 0.91114 0.08747 0.82458 0.0
C272 C 0.81171 0.09271 0.81278 0.0
C273 C 0.81153 0.04315 0.77909 0.0
C274 C 0.86279 0.01836 0.76243 0.0
C275 C 0.91225 0.03871 0.79018 0.0
C276 C 0.86535 0.96844 0.72176 0.0
C277 C 0.91764 0.95157 0.69958 0.0
C278 C 0.92163 0.90181 0.66734 0.0
C279 C 0.87704 0.86449 0.66968 0.0
C280 C 0.8247 0.88785 0.6692 0.0
C281 C 0.81726 0.93952 0.69903 0.0
H282 H 0.3708 0.6388 0.83875 0.0
H283 H 0.28186 0.54991 0.96785 0.0
H284 H 0.25092 0.72744 0.93769 0.0
H285 H 0.22098 0.71726 0.03008 0.0
H286 H 0.06234 0.64647 0.06902 0.0
H287 H 0.18139 0.54654 0.97923 0.0
C288 C 0.33821 0.63825 0.87045 0.0
C289 C 0.3133 0.68903 0.88568 0.0
C290 C 0.33136 0.58985 0.90286 0.0
C291 C 0.28783 0.58781 0.94301 0.0
C292 C 0.25467 0.63656 0.95319 0.0
C293 C 0.27081 0.68815 0.92656 0.0
C294 C 0.2047 0.63527 -0.00783 0.0
C295 C 0.1914 0.68331 0.02564 0.0
C296 C 0.14074 0.68576 0.05536 0.0
C297 C 0.1019 0.64335 0.04699 0.0
C298 C 0.11882 0.59099 0.02766 0.0
C299 C 0.16959 0.58665 -0.00242 0.0
H300 H 0.57991 0.84796 0.87546 0.0
H301 H 0.64006 0.96345 0.00363 0.0
H302 H 0.74114 0.823 0.94707 0.0
H303 H 0.70458 0.84211 0.08468 0.0
H304 H 0.8671 0.90352 0.12985 0.0
H305 H 0.7913 0.95992 0.97548 0.0
C306 C 0.6112 0.86081 0.90654 0.0
C307 C 0.66026 0.83066 0.90849 0.0
C308 C 0.60408 0.91081 0.93623 0.0
C309 C 0.64579 0.92654 0.97706 0.0
C310 C 0.6953 0.89332 0.98276 0.0
C311 C 0.70252 0.84643 0.94647 0.0
C312 C 0.73976 0.90382 0.02668 0.0
C313 C 0.73953 0.86999 0.0761 0.0
C314 C 0.78629 0.8698 0.11239 0.0
C315 C 0.83153 0.90406 0.10102 0.0
C316 C 0.83435 0.93657 0.05282 0.0
C317 C 0.78844 0.9367 0.01464 0.0
H318 H 0.35811 0.65278 0.33342 0.0
H319 H 0.27828 0.51045 0.25916 0.0
H320 H 0.45669 0.51049 0.28563 0.0
H321 H 0.44625 0.47955 0.17662 0.0
H322 H 0.37552 0.31848 0.12943 0.0
H323 H 0.29268 0.42017 0.2505 0.0
C324 C 0.36221 0.61194 0.31293 0.0
C325 C 0.41143 0.582 0.31985 0.0
C326 C 0.31343 0.58137 0.30254 0.0
C327 C 0.31676 0.531 0.27169 0.0
C328 C 0.36949 0.50726 0.25943 0.0
C329 C 0.41718 0.53182 0.28691 0.0
C330 C 0.37277 0.45414 0.22392 0.0
C331 C 0.41561 0.44644 0.18351 0.0
C332 C 0.41522 0.39761 0.14847 0.0
C333 C 0.37563 0.35551 0.15696 0.0
C334 C 0.32835 0.36696 0.18808 0.0
C335 C 0.32826 0.41415 0.22414 0.0
H336 H 0.87203 0.08237 0.34237 0.0
H337 H 0.81024 0.04428 0.50751 0.0
H338 H 0.72042 0.15746 0.3977 0.0
H339 H 0.71965 0.18746 0.52445 0.0
H340 H 0.60325 0.0862 0.61875 0.0
H341 H 0.68013 0.01686 0.4718 0.0
C342 C 0.83977 0.08692 0.37421 0.0
C343 C 0.79899 0.12654 0.36605 0.0
C344 C 0.8465 0.06085 0.42584 0.0
C345 C 0.80528 0.06573 0.46743 0.0
C346 C 0.7578 0.09927 0.45667 0.0
C347 C 0.75558 0.13101 0.40597 0.0
C348 C 0.71113 0.09941 0.49814 0.0
C349 C 0.69897 0.14741 0.53233 0.0
C350 C 0.65905 0.14277 0.57606 0.0
C351 C 0.63393 0.09009 0.58538 0.0
C352 C 0.63659 0.04712 0.54499 0.0
C353 C 0.67708 0.05057 0.50265 0.0
H354 H 0.06933 0.3257 0.84977 0.0
H355 H 0.17529 0.40695 0.7315 0.0
H356 H 0.02733 0.48837 0.78542 0.0
H357 H 0.02621 0.5104 0.68438 0.0
H358 H 0.14355 0.62914 0.61767 0.0
H359 H 0.20124 0.50256 0.73041 0.0
C360 C 0.07631 0.35922 0.81968 0.0
C361 C 0.04191 0.40606 0.82102 0.0
C362 C 0.12795 0.36243 0.79373 0.0
C363 C 0.13786 0.40636 0.75534 0.0
C364 C 0.09953 0.45078 0.7492 0.0
C365 C 0.0519 0.4507 0.78338 0.0
C366 C 0.11202 0.50057 0.71274 0.0
C367 C 0.06848 0.52663 0.68184 0.0
C368 C 0.08029 0.57153 0.64499 0.0
C369 C 0.1343 0.59342 0.64449 0.0
C370 C 0.17852 0.5675 0.67203 0.0
C371 C 0.16734 0.52146 0.70733 0.0
C372 C 0.94949 0.36369 0.94169 0.0
C373 C -0.01258 0.37773 0.98608 0.0
C374 C 0.04075 0.43638 0.9204 0.0
C375 C 0.01047 0.41249 0.87445 0.0
N376 N 0.94129 0.34611 0.84092 0.0
N377 N 0.07313 0.42239 0.01614 0.0
C378 C 0.96529 0.3751 0.88499 0.0
C379 C 0.03365 0.41355 0.97513 0.0
N380 N 0.90067 0.336 0.95291 0.0
N381 N 0.07962 0.4777 0.91094 0.0
H382 H 0.06692 0.41179 0.05838 0.0
H383 H 0.11282 0.43828 0.00802 0.0
H384 H 0.08438 0.4977 0.87223 0.0
H385 H 0.10427 0.49568 0.94252 0.0
H386 H 0.87168 0.32471 0.92192 0.0
H387 H 0.8861 0.32911 -0.00642 0.0
H388 H 0.91341 0.31252 0.84589 0.0
H389 H 0.95188 0.35412 0.79906 0.0
C390 C 0.85334 0.75663 0.19953 0.0
C391 C 0.85601 0.7854 0.25228 0.0
C392 C 0.79811 0.86155 0.21549 0.0
C393 C 0.79435 0.83318 0.1625 0.0
N394 N 0.82425 0.75843 0.10072 0.0
N395 N 0.82493 0.85895 0.31427 0.0
C396 C 0.82235 0.78094 0.15407 0.0
C397 C 0.82646 0.83599 0.26119 0.0
N398 N 0.88224 0.70745 0.19257 0.0
N399 N 0.77897 0.91566 0.22012 0.0
H400 H 0.83974 0.8373 0.34957 0.0
H401 H 0.80549 0.89673 0.32449 0.0
H402 H 0.75435 0.93442 0.18898 0.0
H403 H 0.79005 0.94312 0.25291 0.0
H404 H 0.88291 0.68359 0.15565 0.0
H405 H 0.90555 0.689 0.22474 0.0
H406 H 0.84947 0.72507 0.08858 0.0
H407 H 0.80067 0.77416 0.06722 0.0
C408 C 0.47147 0.58602 0.47201 0.0
C409 C 0.4666 0.64453 0.48324 0.0
C410 C 0.45579 0.65758 0.38054 0.0
C411 C 0.44545 0.59895 0.37179 0.0
N412 N 0.4295 0.5092 0.4189 0.0
N413 N 0.43619 0.73409 0.44454 0.0
C414 C 0.44965 0.56324 0.42018 0.0
C415 C 0.45398 0.68014 0.43647 0.0
N416 N 0.49641 0.55205 0.51047 0.0
N417 N 0.46233 0.69226 0.33514 0.0
H418 H 0.42994 0.7515 0.48428 0.0
H419 H 0.4215 0.75894 0.41143 0.0
H420 H 0.46376 0.67634 0.29391 0.0
H421 H 0.47055 0.73545 0.33917 0.0
H422 H 0.49904 0.50849 0.50524 0.0
H423 H 0.51827 0.56829 0.54517 0.0
H424 H 0.42811 0.4839 0.45471 0.0
H425 H 0.4102 0.49095 0.38378 0.0
C426 C 0.62532 0.24695 0.69335 0.0
C427 C 0.57023 0.22711 0.70112 0.0
C428 C 0.5732 0.19459 0.60293 0.0
C429 C 0.63213 0.19134 0.60645 0.0
N430 N 0.71476 0.22873 0.65331 0.0
N431 N 0.48573 0.20632 0.65022 0.0
C432 C 0.65859 0.22232 0.65043 0.0
C433 C 0.54219 0.2079 0.65183 0.0
N434 N 0.6437 0.29375 0.72089 0.0
N435 N 0.54616 0.18369 0.55348 0.0
H436 H 0.46295 0.22344 0.68326 0.0
H437 H 0.46328 0.19225 0.61485 0.0
H438 H 0.5671 0.17566 0.51577 0.0
H439 H 0.5671 0.17566 0.51577 0.0
H440 H 0.67926 0.31446 0.70652 0.0
H441 H 0.61893 0.31629 0.74896 0.0
H442 H 0.74175 0.21168 0.6235 0.0
H443 H 0.74175 0.21168 0.6235 0.0
C444 C 0.0448 0.67457 0.53701 0.0
C445 C 0.01476 0.6427 0.49536 0.0
C446 C 0.01384 0.56246 0.55981 0.0
C447 C 0.04075 0.59578 0.60212 0.0
N448 N 0.05511 0.68974 0.63775 0.0
N449 N 0.95201 0.564 0.47806 0.0
C450 C 0.04517 0.6545 0.59305 0.0
C451 C -0.00826 0.58965 0.51096 0.0
N452 N 0.07217 0.72383 0.52458 0.0
N453 N 0.01412 0.50515 0.56258 0.0
H454 H 0.93561 0.58197 0.44156 0.0
H455 H 0.93339 0.52564 0.48816 0.0
H456 H 0.03769 0.4825 0.59146 0.0
H457 H -0.00636 0.48002 0.53303 0.0
H458 H 0.09847 0.74434 0.55347 0.0
H459 H 0.07216 0.74272 0.48517 0.0
H460 H 0.06136 0.73309 0.63349 0.0
H461 H 0.05357 0.67478 0.67918 0.0
C462 C 0.62887 0.8157 0.7689 0.0
C463 C 0.6105 0.7591 0.75951 0.0
C464 C 0.64089 0.74106 0.85708 0.0
C465 C 0.66821 0.79426 0.85853 0.0
N466 N 0.70317 0.8739 0.80742 0.0
N467 N 0.60489 0.66451 0.79874 0.0
C468 C 0.67135 0.82585 0.80869 0.0
C469 C 0.61885 0.72008 0.80458 0.0
N470 N 0.59938 0.86027 0.74852 0.0
N471 N 0.63411 0.71233 0.90631 0.0
H472 H 0.59205 0.64647 0.76072 0.0
H473 H 0.61211 0.63523 0.83049 0.0
H474 H 0.6521 0.72698 0.94395 0.0
H475 H 0.60992 0.6759 0.90971 0.0
H476 H 0.61016 0.90221 0.75777 0.0
H477 H 0.55979 0.8546 0.73113 0.0
H478 H 0.70126 0.90298 0.77462 0.0
H479 H 0.73287 0.88265 0.83879 0.0
C480 C 0.42384 0.37877 -0.00842 0.0
C481 C 0.46993 0.34147 0.9886 0.0
C482 C 0.49196 0.3607 0.0885 0.0
C483 C 0.44329 0.39331 0.09277 0.0
N484 N 0.36867 0.44346 0.04797 0.0
N485 N 0.54328 0.29031 0.0366 0.0
C486 C 0.41063 0.40491 0.04398 0.0
C487 C 0.50388 0.33175 0.03722 0.0
N488 N 0.39409 0.39058 0.94356 0.0
N489 N 0.52602 0.35668 0.13451 0.0
H490 H 0.55333 0.26672 0.00098 0.0
H491 H 0.5625 0.27508 0.07297 0.0
H492 H 0.5159 0.37644 0.17245 0.0
H493 H 0.56542 0.33863 0.13366 0.0
H494 H 0.35662 0.4122 0.9425 0.0
H495 H 0.40772 0.37927 0.90337 0.0
H496 H 0.34395 0.45691 0.01454 0.0
H497 H 0.36097 0.46572 0.08523 0.0
C498 C 0.83691 0.17144 0.21851 0.0
C499 C 0.87641 0.21412 0.23092 0.0
C500 C 0.85075 0.21102 0.33117 0.0
C501 C 0.8121 0.1661 0.31902 0.0
N502 N 0.78128 0.09371 0.25364 0.0
N503 N 0.9191 0.27936 0.29662 0.0
C504 C 0.80818 0.14413 0.26304 0.0
C505 C 0.8823 0.23586 0.28652 0.0
N506 N 0.82621 0.15788 0.16343 0.0
N507 N 0.86205 0.22488 0.38637 0.0
H508 H 0.94364 0.29726 0.26509 0.0
H509 H 0.92365 0.30015 0.3352 0.0
H510 H 0.83928 0.20878 0.42011 0.0
H511 H 0.89473 0.25098 0.39961 0.0
H512 H 0.79849 0.12636 0.15078 0.0
H513 H 0.84269 0.18109 0.12994 0.0
H514 H 0.78447 0.07048 0.21631 0.0
H515 H 0.75841 0.07319 0.2849 0.0
C516 C -0.00764 0.06839 0.39568 0.0
C517 C -0.00381 0.01611 0.36626 0.0
C518 C 0.90977 0.98328 0.4106 0.0
C519 C 0.90248 0.03736 0.43371 0.0
N520 N 0.93992 0.12778 0.46027 0.0
N521 N 0.95463 0.92653 0.33965 0.0
C522 C 0.94624 0.07793 0.43174 0.0
C523 C 0.95437 0.97384 0.37273 0.0
N524 N 0.03042 0.11026 0.38541 0.0
N525 N 0.87262 0.94166 0.42403 0.0
H526 H -0.01428 0.91718 0.31065 0.0
H527 H 0.92084 0.89917 0.33781 0.0
H528 H 0.83825 0.94997 0.44942 0.0
H529 H 0.87936 0.89905 0.41548 0.0
H530 H 0.02615 0.15209 0.3984 0.0
H531 H 0.06694 0.10295 0.36316 0.0
H532 H 0.97021 0.15941 0.46319 0.0
H533 H 0.90448 0.1356 0.48436 0.0
C534 C 0.2849 0.67595 0.65122 0.0
C535 C 0.26389 0.68582 0.59585 0.0
C536 C 0.24008 0.58519 0.59392 0.0
C537 C 0.23503 0.58563 0.65303 0.0
N538 N 0.26389 0.62925 0.74003 0.0
N539 N 0.21006 0.64462 0.51834 0.0
C540 C 0.26271 0.62957 0.68256 0.0
C541 C 0.23998 0.63843 0.56687 0.0
N542 N 0.3252 0.7096 0.67372 0.0
N543 N 0.23063 0.53624 0.56502 0.0
H544 H 0.20221 0.68354 0.50023 0.0
H545 H 0.18864 0.61118 0.49919 0.0
H546 H 0.22553 0.49819 0.58674 0.0
H547 H 0.2329 0.53391 0.52107 0.0
H548 H 0.34323 0.70004 0.71258 0.0
H549 H 0.34308 0.74258 0.65078 0.0
H550 H 0.27794 0.66384 0.76381 0.0
H551 H 0.24845 0.59487 0.76286 0.0
C552 C 0.45747 0.92426 0.87774 0.0
C553 C 0.46437 0.97071 0.84051 0.0
C554 C 0.55645 -0.0082 0.88471 0.0
C555 C 0.55199 0.94213 0.91811 0.0
N556 N 0.49609 0.86489 0.95211 0.0
N557 N 0.52287 0.0455 0.80403 0.0
C558 C 0.50123 0.90998 0.91642 0.0
C559 C 0.51415 0.00423 0.84343 0.0
N560 N 0.40801 0.89513 0.87748 0.0
N561 N 0.60128 0.02706 0.89227 0.0
H562 H 0.4942 0.05498 0.77229 0.0
H563 H 0.56027 0.06751 0.79948 0.0
H564 H 0.63286 0.01892 0.92134 0.0
H565 H 0.6048 0.0669 0.87402 0.0
H566 H 0.39935 0.86048 0.9026 0.0
H567 H 0.37357 0.90687 0.85336 0.0
H568 H 0.46491 0.83437 0.94965 0.0
H569 H 0.52488 0.85732 0.98442 0.0
C570 C 0.22693 0.24752 0.16368 0.0
C571 C 0.23534 0.24625 0.10456 0.0
C572 C 0.2635 0.345 0.11055 0.0
C573 C 0.27684 0.3378 0.16795 0.0
N574 N 0.26176 0.28683 0.25286 0.0
N575 N 0.26757 0.29691 0.02149 0.0
C576 C 0.25512 0.29042 0.19605 0.0
C577 C 0.2542 0.29629 0.07736 0.0
N578 N 0.19442 0.20728 0.18818 0.0
N579 N 0.26344 0.39768 0.08777 0.0
H580 H 0.26446 0.26135 -0.00438 0.0
H581 H 0.28583 0.33208 0.00229 0.0
H582 H 0.26987 0.43352 0.11312 0.0
H583 H 0.25116 0.40508 0.04607 0.0
H584 H 0.18658 0.20592 0.23112 0.0
H585 H 0.17273 0.1767 0.16481 0.0
H586 H 0.24239 0.25596 0.27659 0.0
H587 H 0.28415 0.31704 0.27622 0.0
C588 C 0.94574 0.02213 0.1131 0.0
C589 C -0.01096 0.9818 0.11015 0.0
C590 C 0.93553 0.92873 0.03789 0.0
C591 C 0.8896 0.96506 0.04647 0.0
N592 N 0.8573 0.05499 0.07703 0.0
N593 N 0.03181 0.90585 0.05999 0.0
C594 C 0.89764 0.01521 0.07807 0.0
C595 C -0.01415 0.93762 0.06958 0.0
N596 N 0.94794 0.06419 0.15283 0.0
N597 N 0.9283 0.88281 0.00331 0.0
H598 H 0.06942 0.9119 0.08163 0.0
H599 H 0.03385 0.87665 0.02752 0.0
H600 H 0.89218 0.87766 0.97886 0.0
H601 H 0.95649 0.84983 -0.00029 0.0
H602 H 0.91419 0.08991 0.16179 0.0
H603 H 0.98212 0.07115 0.17942 0.0
H604 H 0.86642 0.09708 0.08621 0.0
H605 H 0.81768 0.04657 0.06063 0.0
C606 C 0.21933 0.68041 0.35235 0.0
C607 C 0.25481 0.69506 0.39856 0.0
C608 C 0.28598 0.59665 0.39937 0.0
C609 C 0.26786 0.59162 0.34329 0.0
N610 N 0.18089 0.6015 0.30019 0.0
N611 N 0.32232 0.66214 0.46873 0.0
C612 C 0.22434 0.62615 0.32728 0.0
C613 C 0.28792 0.65152 0.42375 0.0
N614 N 0.18234 0.71792 0.33053 0.0
N615 N 0.30821 0.55055 0.42466 0.0
H616 H 0.3267 0.70135 0.48797 0.0
H617 H 0.34891 0.63205 0.48571 0.0
H618 H 0.30869 0.51171 0.40335 0.0
H619 H 0.32128 0.55009 0.46661 0.0
H620 H 0.16085 0.7094 0.29317 0.0
H621 H 0.17508 0.75779 0.34753 0.0
H622 H 0.14147 0.618 0.30622 0.0
H623 H 0.18341 0.56058 0.28344 0.0
C624 C 0.52491 0.96303 0.60875 0.0
C625 C 0.48324 0.00447 0.59869 0.0
C626 C 0.53885 0.03942 0.52028 0.0
C627 C 0.58579 0.01071 0.54076 0.0
N628 N 0.62256 0.93809 0.59901 0.0
N629 N 0.45679 0.08856 0.54782 0.0
C630 C 0.57789 0.96878 0.58204 0.0
C631 C 0.49166 0.04415 0.55497 0.0
N632 N 0.5148 0.91914 0.64439 0.0
N633 N 0.54109 0.0682 0.47089 0.0
H634 H 0.42234 0.09586 0.57319 0.0
H635 H 0.46486 0.11985 0.51801 0.0
H636 H 0.57535 0.06672 0.44399 0.0
H637 H 0.57535 0.06672 0.44399 0.0
H638 H 0.53948 0.8833 0.64453 0.0
H639 H 0.47983 0.91636 0.67001 0.0
H640 H 0.62137 0.9115 0.63375 0.0
H641 H 0.66099 0.94149 0.57873 0.0
C642 C 0.22344 0.24049 0.82958 0.0
C643 C 0.20614 0.23643 0.88642 0.0
C644 C 0.17604 0.33377 0.88097 0.0
C645 C 0.17281 0.32931 0.82173 0.0
N646 N 0.20333 0.28304 0.73811 0.0
N647 N 0.15988 0.28164 0.96582 0.0
C648 C 0.2 0.28408 0.79522 0.0
C649 C 0.18105 0.28391 0.9125 0.0
N650 N 0.25993 0.20205 0.80867 0.0
N651 N 0.17165 0.38521 0.90646 0.0
H652 H 0.16223 0.24607 -0.00862 0.0
H653 H 0.1372 0.31485 0.98319 0.0
H654 H 0.16962 0.42216 0.88252 0.0
H655 H 0.17743 0.39068 0.94987 0.0
H656 H 0.27435 0.20244 0.76773 0.0
H657 H 0.27772 0.17008 0.83269 0.0
H658 H 0.22806 0.25465 0.71676 0.0
H659 H 0.18333 0.31225 0.71232 0.0
C660 C 0.34999 0.93748 0.0167 0.0
C661 C 0.34943 0.99119 0.04377 0.0
C662 C 0.40308 0.95415 0.12347 0.0
C663 C 0.40699 0.90084 0.09561 0.0
N664 N 0.37897 0.83895 0.01897 0.0
N665 N 0.38102 0.0536 0.11753 0.0
C666 C 0.38009 0.89213 0.0422 0.0
C667 C 0.37785 0.00017 0.09551 0.0
N668 N 0.31946 0.92949 0.96819 0.0
N669 N 0.41909 0.9591 0.17886 0.0
H670 H 0.36964 0.08884 0.09385 0.0
H671 H 0.40022 0.0641 0.15574 0.0
H672 H 0.44025 0.92726 0.2003 0.0
H673 H 0.40922 -0.00672 0.2047 0.0
H674 H 0.31397 0.89109 0.94734 0.0
H675 H 0.29774 0.96186 0.94833 0.0
H676 H 0.35624 0.82693 0.98339 0.0
H677 H 0.40129 0.80521 0.03548 0.0
C678 C 0.86085 0.47822 0.889 0.0
C679 C 0.83029 0.48554 0.93941 0.0
C680 C 0.85914 0.58584 0.94211 0.0
C681 C 0.89454 0.57669 0.89522 0.0
N682 N 0.93132 0.51417 0.82501 0.0
N683 N 0.80493 0.54506 0.01813 0.0
C684 C 0.89672 0.52227 0.86983 0.0
C685 C 0.83125 0.53883 0.96752 0.0
N686 N 0.854 0.42979 0.85809 0.0
N687 N 0.85014 0.63979 0.96089 0.0
H688 H 0.78211 0.51288 0.03733 0.0
H689 H 0.80877 0.58126 0.043 0.0
H690 H 0.8713 0.67488 0.94487 0.0
H691 H 0.81936 0.65022 -0.01018 0.0
H692 H 0.87082 0.42405 0.81849 0.0
H693 H 0.8301 0.39522 0.87066 0.0
H694 H 0.93575 0.47612 0.80353 0.0
H695 H 0.95823 0.54576 0.81061 0.0
C696 C 0.73393 0.64977 0.17723 0.0
C697 C 0.74231 0.61424 0.22459 0.0
C698 C 0.65081 0.64203 0.2617 0.0
C699 C 0.64179 0.67453 0.21304 0.0
N700 N 0.67991 0.72503 0.1348 0.0
N701 N 0.70509 0.57018 0.30853 0.0
C702 C 0.68577 0.68399 0.17471 0.0
C703 C 0.70028 0.60951 0.26674 0.0
N704 N 0.76976 0.64797 0.13282 0.0
N705 N 0.61171 0.64288 0.30308 0.0
H706 H 0.74024 0.54532 0.31436 0.0
H707 H 0.67202 0.55863 0.33427 0.0
H708 H 0.57461 0.66515 0.29837 0.0
H709 H 0.61919 0.62779 0.34354 0.0
H710 H 0.76037 0.66513 0.09347 0.0
H711 H 0.80685 0.62548 0.1337 0.0
H712 H 0.71125 0.73674 0.10697 0.0
H713 H 0.64461 0.75051 0.1332 0.0
C714 C 0.57468 0.48389 0.43201 0.0
C715 C 0.61105 0.48839 0.47942 0.0
C716 C 0.58921 0.38994 0.50495 0.0
C717 C 0.55393 0.38517 0.4569 0.0
N718 N 0.50771 0.42713 0.37805 0.0
N719 N 0.64532 0.44896 0.5673 0.0
C720 C 0.54339 0.43315 0.42293 0.0
C721 C 0.61495 0.44291 0.51856 0.0
N722 N 0.56932 0.52914 0.39673 0.0
N723 N 0.60357 0.34173 0.53303 0.0
H724 H 0.66779 0.48531 0.57797 0.0
H725 H 0.64514 0.41908 0.59948 0.0
H726 H 0.58374 0.30299 0.52484 0.0
H727 H 0.63579 0.33954 0.5626 0.0
H728 H 0.54863 0.52843 0.35804 0.0
H729 H 0.58426 0.5692 0.40792 0.0
H730 H 0.50251 0.45675 0.34645 0.0
H731 H 0.48198 0.39163 0.37307 0.0
C732 C 0.24465 0.82935 0.26961 0.0
C733 C 0.21248 0.84586 0.222 0.0
C734 C 0.26679 0.78214 0.16218 0.0
C735 C 0.30541 0.77496 0.20712 0.0
N736 N 0.32904 0.78344 0.30436 0.0
N737 N 0.1859 0.8307 0.12531 0.0
C738 C 0.29181 0.79361 0.26188 0.0
C739 C 0.22113 0.81946 0.16915 0.0
N740 N 0.23161 0.84964 0.32174 0.0
N741 N 0.28168 0.7634 0.1099 0.0
H742 H 0.15182 0.85755 0.12883 0.0
H743 H 0.18795 0.81022 0.08651 0.0
H744 H 0.31312 0.73355 0.10471 0.0
H745 H 0.26871 0.78299 0.07289 0.0
H746 H 0.25182 0.83699 0.35797 0.0
H747 H 0.19955 0.87781 0.32975 0.0
H748 H 0.32918 0.80401 0.3432 0.0
H749 H 0.36237 0.75595 0.29853 0.0
C750 C 0.09373 0.95494 0.58621 0.0
C751 C 0.12501 0.95426 0.53594 0.0
C752 C 0.08999 0.04935 0.51277 0.0
C753 C 0.05726 0.04989 0.56282 0.0
N754 N 0.04123 0.00932 0.65417 0.0
N755 N 0.14723 -0.00238 0.44657 0.0
C756 C 0.06257 0.00394 0.60116 0.0
C757 C 0.12118 0.00032 0.49766 0.0
N758 N 0.09144 0.9072 0.61839 0.0
N759 N 0.09694 0.09848 0.48342 0.0
H760 H 0.17366 0.96495 0.43497 0.0
H761 H 0.13953 0.02606 0.41402 0.0
H762 H 0.07402 0.13488 0.49164 0.0
H763 H 0.12786 0.10432 0.45338 0.0
H764 H 0.06546 0.90272 0.65289 0.0
H765 H 0.11126 0.86964 0.60745 0.0
H766 H 0.04988 0.98152 0.68673 0.0
H767 H 0.01653 0.04329 0.66647 0.0
C768 C 0.75359 0.33856 0.314 0.0
C769 C 0.74654 0.37707 0.26909 0.0
C770 C 0.64742 0.35223 0.26305 0.0
C771 C 0.6545 0.31154 0.30636 0.0
N772 N 0.71456 0.26364 0.37138 0.0
N773 N 0.68963 0.41345 0.19334 0.0
C774 C 0.70822 0.30356 0.33051 0.0
C775 C 0.69455 0.38115 0.24082 0.0
N776 N 0.80354 0.33672 0.34178 0.0
N777 N 0.59516 0.36891 0.24828 0.0
H778 H 0.72261 0.43689 0.17677 0.0
H779 H 0.65393 0.41308 0.16798 0.0
H780 H 0.55922 0.34813 0.26192 0.0
H781 H 0.58803 0.4066 0.22683 0.0
H782 H 0.80911 0.31799 0.3809 0.0
H783 H 0.83933 0.35679 0.32696 0.0
H784 H 0.75254 0.25283 0.38917 0.0
H785 H 0.6812 0.23918 0.38563 0.0
C786 C 0.78068 0.62615 0.70221 0.0
C787 C 0.74385 0.62775 0.74974 0.0
C788 C 0.79413 0.71169 0.78425 0.0
C789 C 0.83796 0.69919 0.74785 0.0
N790 N 0.86705 0.66279 0.65982 0.0
N791 N 0.73189 0.66191 0.84581 0.0
C792 C 0.82782 0.6637 0.70123 0.0
C793 C 0.75369 0.66872 0.79324 0.0
N794 N 0.77379 0.58585 0.66125 0.0
N795 N 0.79972 0.75739 0.81915 0.0
H796 H 0.70437 0.6296 0.85647 0.0
H797 H 0.74554 0.68571 0.88054 0.0
H798 H 0.83216 0.78661 0.81372 0.0
H799 H 0.77178 0.76689 0.85104 0.0
H800 H 0.80179 0.58001 0.62874 0.0
H801 H 0.74173 0.55595 0.66082 0.0
H802 H 0.86542 0.63749 0.62381 0.0
H803 H 0.90151 0.69013 0.66182 0.0
C804 C 0.48654 0.87463 0.45869 0.0
C805 C 0.52052 0.8306 0.47979 0.0
C806 C 0.54899 0.81214 0.38116 0.0
C807 C 0.52324 0.8634 0.36561 0.0
N808 N 0.42804 0.87516 0.37794 0.0
N809 N 0.57066 0.74451 0.45457 0.0
C810 C 0.47992 0.88008 0.3999 0.0
C811 C 0.54799 0.79495 0.43915 0.0
N812 N 0.45735 0.90915 0.49336 0.0
N813 N 0.57982 0.78507 0.3415 0.0
H814 H 0.57216 0.72982 0.49572 0.0
H815 H 0.58447 0.71457 0.42567 0.0
H816 H 0.58019 0.79946 0.29986 0.0
H817 H 0.60546 0.75088 0.34972 0.0
H818 H 0.43671 0.94398 0.47713 0.0
H819 H 0.45753 0.90586 0.53711 0.0
H820 H 0.39369 0.86953 0.4042 0.0
H821 H 0.42168 0.86934 0.3345 0.0
C822 C 0.32154 0.32799 0.76661 0.0
C823 C 0.35013 0.2775 0.75434 0.0
C824 C 0.32434 0.28365 0.6545 0.0
C825 C 0.29802 0.33615 0.66574 0.0
N826 N 0.27435 0.41058 0.73056 0.0
N827 N 0.36495 0.19823 0.69189 0.0
C828 C 0.29682 0.35855 0.72165 0.0
C829 C 0.34682 0.25226 0.7 0.0
N830 N 0.31801 0.34582 0.8216 0.0
N831 N 0.33327 0.26681 0.59991 0.0
H832 H 0.38007 0.17273 0.72402 0.0
H833 H 0.36374 0.17709 0.65344 0.0
H834 H 0.31598 0.28678 0.56492 0.0
H835 H 0.36082 0.23496 0.58868 0.0
H836 H 0.29799 0.38218 0.83509 0.0
H837 H 0.33232 0.32129 0.85519 0.0
H838 H 0.26617 0.42767 0.77005 0.0
H839 H 0.2598 0.4357 0.69762 0.0
C840 C -0.01093 0.09576 0.96502 0.0
C841 C -0.00057 0.15391 0.96734 0.0
C842 C 0.97798 0.15904 0.8656 0.0
C843 C 0.95461 0.10359 0.86763 0.0
N844 N 0.93411 0.02137 0.92638 0.0
N845 N 0.01364 0.24072 0.91814 0.0
C846 C 0.95985 0.07218 0.91856 0.0
C847 C -0.00245 0.18544 0.91673 0.0
N848 N 0.00775 0.06225 0.00721 0.0
N849 N 0.97876 0.1867 0.81508 0.0
H850 H 0.03261 0.25905 0.95356 0.0
H851 H 0.0076 0.26803 0.88479 0.0
H852 H 0.96683 0.16651 0.7775 0.0
H853 H -0.00636 0.22769 0.80941 0.0
H854 H 0.00678 0.01858 0.00228 0.0
H855 H 0.03029 0.07831 0.04173 0.0
H856 H 0.90897 0.00111 0.89628 0.0
H857 H 0.90897 0.00111 0.89628 0.0
C858 C 0.10579 0.67883 0.20082 0.0
C859 C 0.07294 0.7264 0.21329 0.0
C860 C 0.08711 0.75429 0.11487 0.0
C861 C 0.13212 0.71577 0.10992 0.0
N862 N 0.19141 0.64941 0.15842 0.0
N863 N 0.02879 0.81018 0.17416 0.0
C864 C 0.14584 0.68331 0.15793 0.0
C865 C 0.06376 0.76554 0.16878 0.0
N866 N 0.09221 0.62677 0.22082 0.0
N867 N 0.06268 0.77589 0.06783 0.0
H868 H 0.00775 0.82015 0.21127 0.0
H869 H 0.00775 0.82015 0.21127 0.0
H870 H 0.07842 0.76925 0.02741 0.0
H871 H 0.02378 0.79498 0.06999 0.0
H872 H 0.11266 0.59054 0.20702 0.0
H873 H 0.05821 0.6192 0.24675 0.0
H874 H 0.20084 0.62376 0.19285 0.0
H875 H 0.22146 0.65098 0.12686 0.0
C876 C 0.46993 0.15227 0.04643 0.0
C877 C 0.47673 0.11933 -0.00321 0.0
C878 C 0.49828 0.03669 0.0547 0.0
C879 C 0.50408 0.07187 0.103 0.0
N880 N 0.48231 0.15999 0.14856 0.0
N881 N 0.45464 0.02717 0.96273 0.0
C882 C 0.48379 0.12845 0.10011 0.0
C883 C 0.47838 0.06031 0.00312 0.0
N884 N 0.44637 0.20432 0.04227 0.0
N885 N 0.51388 0.98151 0.05704 0.0
H886 H 0.43657 0.04433 0.9265 0.0
H887 H 0.44451 0.98524 0.971 0.0
H888 H 0.52761 0.96217 0.09393 0.0
H889 H 0.51325 0.95516 0.02194 0.0
H890 H 0.43615 0.22962 0.0767 0.0
H891 H 0.43155 0.21937 0.00382 0.0
H892 H 0.4756 0.20342 0.14968 0.0
H893 H 0.48946 0.14183 0.1881 0.0
C894 C 0.14502 0.35004 0.23455 0.0
C895 C 0.11235 0.29998 0.23807 0.0
C896 C 0.14919 0.28326 0.33409 0.0
C897 C 0.17631 0.33689 0.33293 0.0
N898 N 0.1952 0.42424 0.28483 0.0
N899 N 0.08575 0.21593 0.289 0.0
C900 C 0.17389 0.37046 0.28328 0.0
C901 C 0.11527 0.26558 0.28723 0.0
N902 N 0.15059 0.37675 0.18378 0.0
N903 N 0.15162 0.25241 0.38279 0.0
H904 H 0.05574 0.20428 0.25908 0.0
H905 H 0.09215 0.18493 0.3191 0.0
H906 H 0.17826 0.26356 0.41614 0.0
H907 H 0.12732 0.21687 0.39117 0.0
H908 H 0.17886 0.40963 0.17722 0.0
H909 H 0.13159 0.36226 0.1466 0.0
H910 H 0.18888 0.45387 0.25313 0.0
H911 H 0.21846 0.43966 0.31913 0.0
C912 C 0.98211 0.90327 0.51897 0.0
C913 C 0.97878 0.84431 0.51038 0.0
C914 C 0.97724 0.83429 0.61256 0.0
C915 C 0.96115 0.89122 0.61968 0.0
N916 N 0.9427 0.9804 0.57215 0.0
N917 N 0.95502 0.75503 0.55618 0.0
C918 C 0.96255 0.92654 0.57087 0.0
C919 C 0.97199 0.80982 0.55882 0.0
N920 N 0.00401 0.9368 0.4784 0.0
N921 N -0.01373 0.80055 0.65787 0.0
H922 H 0.94333 0.73468 0.51878 0.0
H923 H 0.94333 0.73468 0.51878 0.0
H924 H -0.01117 0.81665 0.69898 0.0
H925 H -0.01117 0.81665 0.69898 0.0
H926 H 0.00685 0.98043 0.48299 0.0
H927 H 0.02368 0.92003 0.44298 0.0
H928 H 0.93878 0.00474 0.53589 0.0
H929 H 0.92828 0.00032 0.60829 0.0
C930 C 0.43308 0.76304 0.82444 0.0
C931 C 0.40668 0.78138 0.77431 0.0
C932 C 0.31629 0.77389 0.82052 0.0
C933 C 0.34121 0.74123 0.86333 0.0
N934 N 0.42238 0.72883 0.921 0.0
N935 N 0.32867 0.83341 0.73969 0.0
C936 C 0.39979 0.74509 0.87069 0.0
C937 C 0.35041 0.79713 0.77754 0.0
N938 N 0.48957 0.76405 0.82727 0.0
N939 N 0.26037 0.78195 0.81994 0.0
H940 H 0.35236 0.85249 0.7081 0.0
H941 H 0.35236 0.85249 0.7081 0.0
H942 H 0.23415 0.76477 0.85039 0.0
H943 H 0.24148 0.80795 0.79037 0.0
H944 H 0.51297 0.74888 0.86099 0.0
H945 H 0.51217 0.78396 0.79563 0.0
H946 H 0.46481 0.72886 0.93013 0.0
H947 H 0.3969 0.71826 0.95504 0.0
C948 C 0.43899 0.48925 0.8433 0.0
C949 C 0.48774 0.51823 0.86242 0.0
C950 C 0.42982 0.57354 0.92733 0.0
C951 C 0.38068 0.55134 0.90187 0.0
N952 N 0.33965 0.49565 0.82756 0.0
N953 N 0.52822 0.59434 0.91684 0.0
C954 C 0.38551 0.51025 0.85853 0.0
C955 C 0.48271 0.56218 0.90294 0.0
N956 N 0.44325 0.44308 0.80873 0.0
N957 N 0.42511 0.60869 0.97287 0.0
H958 H 0.56836 0.58368 0.90441 0.0
H959 H 0.52574 0.63267 0.93847 0.0
H960 H 0.38715 0.61582 -0.00722 0.0
H961 H 0.4588 0.62812 -0.00728 0.0
H962 H 0.40905 0.41819 0.7969 0.0
H963 H 0.48126 0.42677 0.79578 0.0
H964 H 0.34323 0.47665 0.78804 0.0
H965 H 0.29951 0.50773 0.83893 0.0
C966 C 0.69165 0.18578 0.07308 0.0
C967 C 0.70398 0.23513 0.10567 0.0
C968 C 0.69695 0.17737 0.19051 0.0
C969 C 0.68768 0.12873 0.15679 0.0
N970 N 0.70289 0.08432 0.06688 0.0
N971 N 0.74314 0.26867 0.19347 0.0
C972 C 0.69811 0.13238 0.09841 0.0
C973 C 0.71482 0.2283 0.16399 0.0
N974 N 0.66724 0.18891 0.02118 0.0
N975 N 0.68593 0.17597 0.24675 0.0
H976 H 0.75819 0.30539 0.17439 0.0
H977 H 0.75779 0.26072 0.23411 0.0
H978 H 0.6728 0.13938 0.26738 0.0
H979 H 0.68927 0.21162 0.27207 0.0
H980 H 0.65445 0.15308 -0.00153 0.0
H981 H 0.65229 0.22652 0.00507 0.0
H982 H 0.7106 0.08532 0.02354 0.0
H983 H 0.70388 0.0445 0.08588 0.0
C984 C 0.97503 0.43075 0.41605 0.0
C985 C 0.97846 0.47941 0.38117 0.0
C986 C 0.06641 0.50673 0.42739 0.0
C987 C 0.06852 0.45297 0.45273 0.0
N988 N 0.0234 0.36702 0.48031 0.0
N989 N 0.02843 0.56352 0.35182 0.0
C990 C 0.02136 0.41651 0.45084 0.0
C991 C 0.0239 0.51811 0.38706 0.0
N992 N 0.9279 0.398 0.41463 0.0
N993 N 0.10757 0.545 0.43974 0.0
H994 H -0.00047 0.5729 0.32037 0.0
H995 H 0.06262 0.59066 0.3515 0.0
H996 H 0.13875 0.53549 0.46895 0.0
H997 H 0.1081 0.58668 0.42574 0.0
H998 H 0.92335 0.35972 0.43547 0.0
H999 H 0.89179 0.4106 0.39366 0.0
H1000 H -0.00679 0.33527 0.4785 0.0
H1001 H 0.0568 0.35816 0.50732 0.0
C1002 C 0.80427 0.79115 0.5521 0.0
C1003 C 0.77343 0.74898 0.5827 0.0
C1004 C 0.74539 0.82491 0.64751 0.0
C1005 C 0.78634 0.86034 0.62714 0.0
N1006 N 0.83673 0.88648 0.54388 0.0
N1007 N 0.71127 0.73084 0.66118 0.0
C1008 C 0.80856 0.84674 0.5737 0.0
C1009 C 0.74245 0.76747 0.63026 0.0
N1010 N 0.82893 0.7815 0.50142 0.0
N1011 N 0.70231 0.84926 0.67366 0.0
H1012 H 0.70402 0.68867 0.65069 0.0
H1013 H 0.69735 0.74252 0.70096 0.0
H1014 H 0.7024 0.89254 0.68261 0.0
H1015 H 0.66402 0.8291 0.67139 0.0
H1016 H 0.82765 0.74334 0.47935 0.0
H1017 H 0.82765 0.74334 0.47935 0.0
H1018 H 0.83977 0.92855 0.55737 0.0
H1019 H 0.83977 0.92855 0.55737 0.0
C1020 C 0.49344 0.41799 0.6043 0.0
C1021 C 0.50455 0.46927 0.63394 0.0
C1022 C 0.41861 0.50993 0.59364 0.0
C1023 C 0.40859 0.45881 0.56361 0.0
N1024 N 0.44156 0.3699 0.52956 0.0
N1025 N 0.47597 0.5638 0.66027 0.0
C1026 C 0.44891 0.41554 0.56442 0.0
C1027 C 0.46688 0.51555 0.62916 0.0
N1028 N 0.52291 0.3704 0.61683 0.0
N1029 N 0.38 0.55178 0.58931 0.0
H1030 H 0.50728 0.56787 0.6907 0.0
H1031 H 0.45247 0.60033 0.65693 0.0
H1032 H 0.34635 0.54789 0.56148 0.0
H1033 H 0.38095 0.58984 0.61147 0.0
H1034 H 0.51049 0.32993 0.60414 0.0
H1035 H 0.55832 0.37038 0.64248 0.0
H1036 H 0.46942 0.33656 0.52716 0.0
H1037 H 0.40917 0.368 0.49992 0.0
C1038 C 0.76462 0.17192 0.93196 0.0
C1039 C 0.72668 0.20957 0.9052 0.0
C1040 C 0.72025 0.14449 0.82417 0.0
C1041 C 0.76392 0.11289 0.84744 0.0
N1042 N 0.8027 0.07688 0.93273 0.0
N1043 N 0.64499 0.20774 0.84524 0.0
C1044 C 0.77548 0.11916 0.90562 0.0
C1045 C 0.6966 0.18855 0.85744 0.0
N1046 N 0.79106 0.18634 0.98131 0.0
N1047 N 0.70303 0.13452 0.77011 0.0
H1048 H 0.62525 0.23858 0.86914 0.0
H1049 H 0.61956 0.1851 0.81743 0.0
H1050 H 0.71971 0.10231 0.74539 0.0
H1051 H 0.67334 0.15926 0.75005 0.0
H1052 H 0.82399 0.16336 -0.00179 0.0
H1053 H 0.78116 0.22197 0.00497 0.0
H1054 H 0.81247 0.07833 0.97536 0.0
H1055 H 0.8112 0.03869 0.91226 0.0
C1056 C -0.01574 0.53226 0.07044 0.0
C1057 C -0.00263 0.51039 0.1241 0.0
C1058 C 0.09735 0.52059 0.10311 0.0
C1059 C 0.08344 0.544 0.04955 0.0
N1060 N 0.01484 0.56091 0.97802 0.0
N1061 N 0.06505 0.48016 0.19225 0.0
C1062 C 0.02726 0.54451 0.03165 0.0
C1063 C 0.05376 0.50239 0.14026 0.0
N1064 N 0.93116 0.54847 0.05898 0.0
N1065 N 0.15212 0.51846 0.11883 0.0
H1066 H 0.03388 0.46544 0.21913 0.0
H1067 H 0.10465 0.47615 0.2093 0.0
H1068 H 0.18415 0.52862 0.09104 0.0
H1069 H 0.16634 0.50715 0.15871 0.0
H1070 H 0.92311 0.57907 0.02878 0.0
H1071 H 0.89724 0.53775 0.0842 0.0
H1072 H 0.97564 0.55422 0.96062 0.0
H1073 H 0.04497 0.57559 0.94994 0.0
C1074 C 0.71313 0.80192 0.4276 0.0
C1075 C 0.72122 0.75474 0.39091 0.0
C1076 C 0.70412 0.81836 0.31129 0.0
C1077 C 0.70034 0.86585 0.34869 0.0
N1078 N 0.72379 0.90243 0.44085 0.0
N1079 N 0.74742 0.72726 0.29727 0.0
C1080 C 0.71576 0.85725 0.40573 0.0
C1081 C 0.72461 0.76592 0.33252 0.0
N1082 N 0.69805 0.79645 0.4824 0.0
N1083 N 0.68543 0.82106 0.25689 0.0
H1084 H 0.76679 0.69099 0.31234 0.0
H1085 H 0.75292 0.73535 0.25455 0.0
H1086 H 0.6713 0.85753 0.23754 0.0
H1087 H 0.682 0.78533 0.23137 0.0
H1088 H 0.68811 0.75794 0.50104 0.0
H1089 H 0.68811 0.75794 0.50104 0.0
H1090 H 0.7319 0.89765 0.48397 0.0
H1091 H 0.72568 0.94358 0.42504 0.0
C1092 C 0.87144 0.44857 0.54731 0.0
C1093 C 0.82792 0.4568 0.50738 0.0
C1094 C 0.81642 0.35293 0.50031 0.0
C1095 C 0.8651 0.34512 0.53373 0.0
N1096 N 0.94313 0.38641 0.58355 0.0
N1097 N 0.75871 0.41599 0.44462 0.0
C1098 C 0.8945 0.39358 0.5543 0.0
C1099 C 0.80096 0.40862 0.48276 0.0
N1100 N 0.88908 0.49279 0.58052 0.0
N1101 N 0.78252 0.30746 0.48939 0.0
H1102 H 0.74585 0.45561 0.43093 0.0
H1103 H 0.73802 0.38282 0.42429 0.0
H1104 H 0.7942 0.26608 0.49875 0.0
H1105 H 0.7417 0.31118 0.47487 0.0
H1106 H 0.9146 0.48807 0.61586 0.0
H1107 H 0.87582 0.53425 0.5747 0.0
H1108 H 0.9654 0.41878 0.60315 0.0
H1109 H 0.96301 0.34761 0.5868 0.0
C1110 C 0.36375 0.97758 0.38818 0.0
C1111 C 0.33992 0.97598 0.44276 0.0
C1112 C 0.37628 0.07268 0.45594 0.0
C1113 C 0.41307 0.06586 0.40942 0.0
N1114 N 0.44519 0.00476 0.33535 0.0
N1115 N 0.32362 0.02644 0.52981 0.0
C1116 C 0.40955 0.0144 0.37877 0.0
C1117 C 0.34714 0.02449 0.47766 0.0
N1118 N 0.34134 0.94739 0.34425 0.0
N1119 N 0.36476 0.12546 0.4761 0.0
H1120 H 0.29719 -0.00509 0.54515 0.0
H1121 H 0.33291 0.05878 0.55832 0.0
H1122 H 0.3849 0.16196 0.46202 0.0
H1123 H 0.33286 0.13275 0.50467 0.0
H1124 H 0.35475 0.95217 0.3027 0.0
H1125 H 0.30597 0.92244 0.34807 0.0
H1126 H 0.44222 0.96862 0.31027 0.0
H1127 H 0.47908 0.03151 0.32729 0.0
C1128 C 0.22758 0.16803 0.63888 0.0
C1129 C 0.23234 0.13455 0.68886 0.0
C1130 C 0.14388 0.17392 0.72254 0.0
C1131 C 0.13625 0.19965 0.66974 0.0
N1132 N 0.17605 0.24029 0.58756 0.0
N1133 N 0.19206 0.10379 0.77791 0.0
C1134 C 0.18122 0.20445 0.63223 0.0
C1135 C 0.18994 0.13747 0.7311 0.0
N1136 N 0.26473 0.16208 0.596 0.0
N1137 N 0.10553 0.18413 0.7634 0.0
H1138 H 0.22417 0.07577 0.78639 0.0
H1139 H 0.16015 0.10082 0.8073 0.0
H1140 H 0.07289 0.21198 0.75568 0.0
H1141 H 0.10902 0.17062 0.80507 0.0
H1142 H 0.25916 0.17925 0.55599 0.0
H1143 H 0.30037 0.13786 0.59929 0.0
H1144 H 0.20749 0.24843 0.55859 0.0
H1145 H 0.1405 0.2651 0.58267 0.0
C1146 C 0.15712 0.91525 0.98846 0.0
C1147 C 0.13105 0.96462 0.96751 0.0
C1148 C 0.05972 0.90624 0.92115 0.0
C1149 C 0.08931 0.85653 0.93588 0.0
N1150 N 0.17202 0.8148 0.97442 0.0
N1151 N 0.06801 0.00617 0.90054 0.0
C1152 C 0.13935 0.8613 0.96797 0.0
C1153 C 0.08502 0.96001 0.93031 0.0
N1154 N 0.20066 0.92034 0.02563 0.0
N1155 N 0.00864 0.90187 0.8958 0.0
H1156 H 0.0853 0.04646 0.90638 0.0
H1157 H 0.0399 0.00363 0.86693 0.0
H1158 H -0.01237 0.86355 0.89024 0.0
H1159 H -0.01481 0.93653 0.88389 0.0
H1160 H 0.22409 0.88672 0.04032 0.0
H1161 H 0.21229 0.95879 0.04394 0.0
H1162 H 0.21316 0.81663 0.98847 0.0
H1163 H 0.15884 0.77461 0.96139 0.0
C1164 C 0.81016 0.40485 0.73061 0.0
C1165 C 0.76202 0.38283 0.7573 0.0
C1166 C 0.80136 0.2877 0.75284 0.0
C1167 C 0.84517 0.30833 0.71927 0.0
N1168 N 0.9056 0.38712 0.70188 0.0
N1169 N 0.72204 0.30492 0.80948 0.0
C1170 C 0.85451 0.36753 0.7174 0.0
C1171 C 0.76213 0.32568 0.77527 0.0
N1172 N 0.81367 0.46117 0.71856 0.0
N1173 N 0.79422 0.23144 0.76148 0.0
H1174 H 0.69069 0.32975 0.82681 0.0
H1175 H 0.69069 0.32975 0.82681 0.0
H1176 H 0.82119 0.20112 0.74519 0.0
H1177 H 0.82119 0.20112 0.74519 0.0
H1178 H 0.84536 0.47894 0.69446 0.0
H1179 H 0.78407 0.48999 0.73255 0.0
H1180 H 0.91718 0.42967 0.70348 0.0
H1181 H 0.938 0.35913 0.69353 0.0
C1182 C 0.55116 0.50333 0.01376 0.0
C1183 C 0.60873 0.50384 0.00435 0.0
C1184 C 0.61054 0.60494 0.0277 0.0
C1185 C 0.55696 0.59884 0.05249 0.0
N1186 N 0.47566 0.54191 0.06809 0.0
N1187 N 0.68717 0.56048 0.97756 0.0
C1188 C 0.52661 0.54839 0.04412 0.0
C1189 C 0.63699 0.55657 0.00392 0.0
N1190 N 0.51894 0.46377 0.98786 0.0
N1191 N 0.63693 0.65619 0.03087 0.0
H1192 H 0.70444 0.52577 0.9569 0.0
H1193 H 0.70912 0.59812 0.97177 0.0
H1194 H 0.61604 0.69241 0.04421 0.0
H1195 H 0.6785 0.66297 0.02067 0.0
H1196 H 0.47661 0.47118 0.98268 0.0
H1197 H 0.53577 0.43208 0.96253 0.0
H1198 H 0.455 0.50342 0.06774 0.0
H1199 H 0.45551 0.57422 0.08982 0.0
C1200 C 0.15508 0.9275 0.73408 0.0
C1201 C 0.20267 0.90363 0.70888 0.0
C1202 C 0.15905 0.80929 0.71322 0.0
C1203 C 0.11818 0.83159 0.74863 0.0
N1204 N 0.06363 0.9113 0.77567 0.0
N1205 N 0.24437 0.82478 0.66335 0.0
C1206 C 0.11156 0.89103 0.75288 0.0
C1207 C 0.20126 0.84611 0.69235 0.0
N1208 N 0.15195 0.98482 0.73918 0.0
N1209 N 0.15867 0.75271 0.70144 0.0
H1210 H 0.27224 0.84931 0.64032 0.0
H1211 H 0.2556 0.78339 0.66977 0.0
H1212 H 0.13069 0.72478 0.72027 0.0
H1213 H 0.18317 0.73421 0.67052 0.0
H1214 H 0.1209 0.00601 0.76093 0.0
H1215 H 0.18044 0.01113 0.71878 0.0
H1216 H 0.05497 0.9539 0.78148 0.0
H1217 H 0.03062 0.88416 0.78567 0.0
C1218 C 0.27522 0.12548 0.22368 0.0
C1219 C 0.23767 0.11188 0.26811 0.0
C1220 C 0.2886 0.1781 0.33079 0.0
C1221 C 0.32952 0.18537 0.28838 0.0
N1222 N 0.35341 0.18429 0.19143 0.0
N1223 N 0.20412 0.13065 0.36216 0.0
C1224 C 0.31894 0.16585 0.23324 0.0
C1225 C 0.24273 0.14031 0.32115 0.0
N1226 N 0.26976 0.0989 0.1728 0.0
N1227 N 0.29567 0.20693 0.38053 0.0
H1228 H 0.1676 0.10765 0.35477 0.0
H1229 H 0.20761 0.14542 0.40346 0.0
H1230 H 0.3288 0.23538 0.38626 0.0
H1231 H 0.26858 0.20527 0.41455 0.0
H1232 H 0.29158 0.11119 0.1375 0.0
H1233 H 0.24373 0.0641 0.16567 0.0
H1234 H 0.34898 0.1744 0.14881 0.0
H1235 H 0.38478 0.21409 0.2001 0.0
loop_
_geom_bond_atom_site_label_1
_geom_bond_atom_site_label_2
_geom_bond_distance
_geom_bond_site_symmetry_2
_ccdc_geom_bond_type
In0 O1 2.294 . S
In0 O2 2.326 . S
In0 O6 2.266 . S
In0 O7 2.326 1_455 S
In0 O8 2.266 1_455 S
In0 O9 2.326 . S
In0 O11 2.294 1_455 S
In0 O12 2.326 1_455 S
O1 In0 2.294 . S
O1 C10 1.240 . S
O2 In0 2.326 . S
O2 C10 1.252 . S
C3 O6 1.252 1_655 S
C3 O7 1.260 . S
C4 O11 1.240 . S
C4 O12 1.252 . S
C5 O8 1.252 1_455 S
C5 O9 1.260 . S
O6 In0 2.266 . S
O6 C3 1.252 1_455 S
O7 In0 2.326 1_655 S
O7 C3 1.260 . S
O8 In0 2.266 1_655 S
O8 C5 1.252 1_655 S
O9 In0 2.326 . S
O9 C5 1.260 . S
C10 O1 1.240 . S
C10 O2 1.252 . S
O11 In0 2.294 1_655 S
O11 C4 1.240 . S
O12 In0 2.326 1_655 S
O12 C4 1.252 . S
In13 O14 2.293 1_455 S
In13 O15 2.327 . S
In13 O19 2.264 1_455 S
In13 O20 2.325 1_455 S
In13 O21 2.268 . S
In13 O22 2.326 . S
In13 O24 2.295 . S
In13 O25 2.325 1_455 S
O14 In13 2.293 1_655 S
O14 C23 1.240 1_655 S
O15 In13 2.327 . S
O15 C23 1.252 . S
C16 O19 1.252 . S
C16 O20 1.260 . S
C17 O24 1.240 1_655 S
C17 O25 1.252 . S
C18 O21 1.252 . S
C18 O22 1.260 . S
O19 In13 2.264 1_655 S
O19 C16 1.252 . S
O20 In13 2.325 1_655 S
O20 C16 1.260 . S
O21 In13 2.268 . S
O21 C18 1.252 . S
O22 In13 2.326 . S
O22 C18 1.260 . S
C23 O14 1.240 1_455 S
C23 O15 1.252 . S
O24 In13 2.295 . S
O24 C17 1.240 1_455 S
O25 In13 2.325 1_655 S
O25 C17 1.252 . S
In26 O27 2.294 . S
In26 O28 2.326 . S
In26 O32 2.266 . S
In26 O33 2.326 . S
In26 O34 2.266 . S
In26 O35 2.326 . S
In26 O37 2.294 . S
In26 O38 2.326 . S
O27 In26 2.294 . S
O27 C36 1.240 . S
O28 In26 2.326 . S
O28 C36 1.252 . S
C29 O32 1.252 . S
C29 O33 1.260 . S
C30 O37 1.240 . S
C30 O38 1.252 . S
C31 O34 1.252 . S
C31 O35 1.260 . S
O32 In26 2.266 . S
O32 C29 1.252 . S
O33 In26 2.326 . S
O33 C29 1.260 . S
O34 In26 2.266 . S
O34 C31 1.252 . S
O35 In26 2.326 . S
O35 C31 1.260 . S
C36 O27 1.240 . S
C36 O28 1.252 . S
O37 In26 2.294 . S
O37 C30 1.240 . S
O38 In26 2.326 . S
O38 C30 1.252 . S
In39 O40 2.294 . S
In39 O41 2.326 . S
In39 O45 2.266 . S
In39 O46 2.326 . S
In39 O47 2.266 . S
In39 O48 2.326 . S
In39 O50 2.294 . S
In39 O51 2.326 . S
O40 In39 2.294 . S
O40 C49 1.240 . S
O41 In39 2.326 . S
O41 C49 1.252 . S
C42 O45 1.252 . S
C42 O46 1.260 . S
C43 O50 1.240 . S
C43 O51 1.252 . S
C44 O47 1.252 . S
C44 O48 1.260 . S
O45 In39 2.266 . S
O45 C42 1.252 . S
O46 In39 2.326 . S
O46 C42 1.260 . S
O47 In39 2.266 . S
O47 C44 1.252 . S
O48 In39 2.326 . S
O48 C44 1.260 . S
C49 O40 1.240 . S
C49 O41 1.252 . S
O50 In39 2.294 . S
O50 C43 1.240 . S
O51 In39 2.326 . S
O51 C43 1.252 . S
In52 O53 2.294 1_545 S
In52 O54 2.326 1_545 S
In52 O58 2.266 1_545 S
In52 O59 2.326 . S
In52 O60 2.266 . S
In52 O61 2.326 1_545 S
In52 O63 2.294 . S
In52 O64 2.326 . S
O53 In52 2.294 1_565 S
O53 C62 1.240 . S
O54 In52 2.326 1_565 S
O54 C62 1.252 . S
C55 O58 1.252 1_545 S
C55 O59 1.260 . S
C56 O63 1.240 . S
C56 O64 1.252 . S
C57 O60 1.252 1_565 S
C57 O61 1.260 . S
O58 In52 2.266 1_565 S
O58 C55 1.252 1_565 S
O59 In52 2.326 . S
O59 C55 1.260 . S
O60 In52 2.266 . S
O60 C57 1.252 1_545 S
O61 In52 2.326 1_565 S
O61 C57 1.260 . S
C62 O53 1.240 . S
C62 O54 1.252 . S
O63 In52 2.294 . S
O63 C56 1.240 . S
O64 In52 2.326 . S
O64 C56 1.252 . S
In65 O66 2.294 . S
In65 O67 2.326 . S
In65 O71 2.266 . S
In65 O72 2.326 . S
In65 O73 2.266 . S
In65 O74 2.326 . S
In65 O76 2.294 . S
In65 O77 2.326 . S
O66 In65 2.294 . S
O66 C75 1.240 . S
O67 In65 2.326 . S
O67 C75 1.252 . S
C68 O71 1.252 . S
C68 O72 1.260 . S
C69 O76 1.240 . S
C69 O77 1.252 . S
C70 O73 1.252 . S
C70 O74 1.260 . S
O71 In65 2.266 . S
O71 C68 1.252 . S
O72 In65 2.326 . S
O72 C68 1.260 . S
O73 In65 2.266 . S
O73 C70 1.252 . S
O74 In65 2.326 . S
O74 C70 1.260 . S
C75 O66 1.240 . S
C75 O67 1.252 . S
O76 In65 2.294 . S
O76 C69 1.240 . S
O77 In65 2.326 . S
O77 C69 1.252 . S
In78 O79 2.289 1_545 S
In78 O80 2.324 1_545 S
In78 O84 2.264 1_545 S
In78 O85 2.329 . S
In78 O86 2.268 . S
In78 O87 2.322 1_545 S
In78 O89 2.299 . S
In78 O90 2.329 . S
O79 In78 2.289 1_565 S
O79 C88 1.240 . S
O80 In78 2.324 1_565 S
O80 C88 1.252 . S
C81 O84 1.252 1_545 S
C81 O85 1.260 . S
C82 O89 1.240 . S
C82 O90 1.252 . S
C83 O86 1.252 1_565 S
C83 O87 1.260 . S
O84 In78 2.264 1_565 S
O84 C81 1.252 1_565 S
O85 In78 2.329 . S
O85 C81 1.260 . S
O86 In78 2.268 . S
O86 C83 1.252 1_545 S
O87 In78 2.322 1_565 S
O87 C83 1.260 . S
C88 O79 1.240 . S
C88 O80 1.252 . S
O89 In78 2.299 . S
O89 C82 1.240 . S
O90 In78 2.329 . S
O90 C82 1.252 . S
In91 O92 2.294 . S
In91 O93 2.326 . S
In91 O97 2.266 . S
In91 O98 2.326 1_554 S
In91 O99 2.266 1_554 S
In91 O100 2.326 . S
In91 O102 2.294 1_554 S
In91 O103 2.326 1_554 S
O92 In91 2.294 . S
O92 C101 1.240 . S
O93 In91 2.326 . S
O93 C101 1.252 . S
C94 O97 1.252 1_556 S
C94 O98 1.260 . S
C95 O102 1.240 . S
C95 O103 1.252 . S
C96 O99 1.252 1_554 S
C96 O100 1.260 . S
O97 In91 2.266 . S
O97 C94 1.252 1_554 S
O98 In91 2.326 1_556 S
O98 C94 1.260 . S
O99 In91 2.266 1_556 S
O99 C96 1.252 1_556 S
O100 In91 2.326 . S
O100 C96 1.260 . S
C101 O92 1.240 . S
C101 O93 1.252 . S
O102 In91 2.294 1_556 S
O102 C95 1.240 . S
O103 In91 2.326 1_556 S
O103 C95 1.252 . S
In104 O105 2.297 . S
In104 O106 2.328 . S
In104 O110 2.267 . S
In104 O111 2.323 1_554 S
In104 O112 2.265 1_554 S
In104 O113 2.328 . S
In104 O115 2.291 1_554 S
In104 O116 2.325 1_554 S
O105 In104 2.297 . S
O105 C114 1.240 . S
O106 In104 2.328 . S
O106 C114 1.252 . S
C107 O110 1.252 1_556 S
C107 O111 1.260 . S
C108 O115 1.240 . S
C108 O116 1.252 . S
C109 O112 1.252 1_554 S
C109 O113 1.260 . S
O110 In104 2.267 . S
O110 C107 1.252 1_554 S
O111 In104 2.323 1_556 S
O111 C107 1.260 . S
O112 In104 2.265 1_556 S
O112 C109 1.252 1_556 S
O113 In104 2.328 . S
O113 C109 1.260 . S
C114 O105 1.240 . S
C114 O106 1.252 . S
O115 In104 2.291 1_556 S
O115 C108 1.240 . S
O116 In104 2.325 1_556 S
O116 C108 1.252 . S
In117 O118 2.294 . S
In117 O119 2.326 . S
In117 O123 2.266 . S
In117 O124 2.326 . S
In117 O125 2.266 . S
In117 O126 2.326 . S
In117 O128 2.294 . S
In117 O129 2.326 . S
O118 In117 2.294 . S
O118 C127 1.240 . S
O119 In117 2.326 . S
O119 C127 1.252 . S
C120 O123 1.252 . S
C120 O124 1.260 . S
C121 O128 1.240 . S
C121 O129 1.252 . S
C122 O125 1.252 . S
C122 O126 1.260 . S
O123 In117 2.266 . S
O123 C120 1.252 . S
O124 In117 2.326 . S
O124 C120 1.260 . S
O125 In117 2.266 . S
O125 C122 1.252 . S
O126 In117 2.326 . S
O126 C122 1.260 . S
C127 O118 1.240 . S
C127 O119 1.252 . S
O128 In117 2.294 . S
O128 C121 1.240 . S
O129 In117 2.326 . S
O129 C121 1.252 . S
In130 O131 2.294 . S
In130 O132 2.326 . S
In130 O136 2.266 . S
In130 O137 2.326 . S
In130 O138 2.266 . S
In130 O139 2.326 . S
In130 O141 2.294 . S
In130 O142 2.326 . S
O131 In130 2.294 . S
O131 C140 1.240 . S
O132 In130 2.326 . S
O132 C140 1.252 . S
C133 O136 1.252 . S
C133 O137 1.260 . S
C134 O141 1.240 . S
C134 O142 1.252 . S
C135 O138 1.252 . S
C135 O139 1.260 . S
O136 In130 2.266 . S
O136 C133 1.252 . S
O137 In130 2.326 . S
O137 C133 1.260 . S
O138 In130 2.266 . S
O138 C135 1.252 . S
O139 In130 2.326 . S
O139 C135 1.260 . S
C140 O131 1.240 . S
C140 O132 1.252 . S
O141 In130 2.294 . S
O141 C134 1.240 . S
O142 In130 2.326 . S
O142 C134 1.252 . S
In143 O144 2.294 . S
In143 O145 2.326 . S
In143 O149 2.266 . S
In143 O150 2.326 . S
In143 O151 2.266 . S
In143 O152 2.326 . S
In143 O154 2.294 . S
In143 O155 2.326 . S
O144 In143 2.294 . S
O144 C153 1.240 . S
O145 In143 2.326 . S
O145 C153 1.252 . S
C146 O149 1.252 . S
C146 O150 1.260 . S
C147 O154 1.240 . S
C147 O155 1.252 . S
C148 O151 1.252 . S
C148 O152 1.260 . S
O149 In143 2.266 . S
O149 C146 1.252 . S
O150 In143 2.326 . S
O150 C146 1.260 . S
O151 In143 2.266 . S
O151 C148 1.252 . S
O152 In143 2.326 . S
O152 C148 1.260 . S
C153 O144 1.240 . S
C153 O145 1.252 . S
O154 In143 2.294 . S
O154 C147 1.240 . S
O155 In143 2.326 . S
O155 C147 1.252 . S
H156 C162 0.930 . S
H157 C165 0.931 . S
H158 C167 0.931 . S
H159 C169 0.930 . S
H160 C171 0.930 . S
H161 C173 0.931 . S
C162 H156 0.930 . S
C162 C163 1.380 . S
C162 C164 1.394 . S
C163 C162 1.380 . S
C163 C167 1.382 . S
C164 C162 1.394 . S
C164 C165 1.400 . S
C165 H157 0.931 . S
C165 C164 1.400 . S
C165 C166 1.375 . S
C166 C165 1.375 . S
C166 C167 1.415 . S
C166 C168 1.501 1_655 S
C167 H158 0.931 . S
C167 C163 1.382 . S
C167 C166 1.415 . S
C168 C166 1.501 1_455 S
C168 C169 1.384 . S
C168 C173 1.408 . S
C169 H159 0.930 . S
C169 C168 1.384 . S
C169 C170 1.389 . S
C170 C169 1.389 . S
C170 C171 1.405 . S
C171 H160 0.930 . S
C171 C170 1.405 . S
C171 C172 1.364 . S
C172 C171 1.364 . S
C172 C173 1.400 . S
C173 H161 0.931 . S
C173 C168 1.408 . S
C173 C172 1.400 . S
H174 C180 0.930 . S
H175 C183 0.931 . S
H176 C185 0.931 . S
H177 C187 0.930 . S
H178 C189 0.930 . S
H179 C191 0.931 . S
C180 H174 0.930 . S
C180 C181 1.380 . S
C180 C182 1.394 . S
C181 C180 1.380 . S
C181 C185 1.382 . S
C182 C180 1.394 . S
C182 C183 1.400 . S
C183 H175 0.931 . S
C183 C182 1.400 . S
C183 C184 1.375 . S
C184 C183 1.375 . S
C184 C185 1.415 . S
C184 C186 1.501 1_655 S
C185 H176 0.931 . S
C185 C181 1.382 . S
C185 C184 1.415 . S
C186 C184 1.501 1_455 S
C186 C187 1.384 . S
C186 C191 1.408 . S
C187 H177 0.930 . S
C187 C186 1.384 . S
C187 C188 1.389 . S
C188 C187 1.389 . S
C188 C189 1.405 . S
C189 H178 0.930 . S
C189 C188 1.405 . S
C189 C190 1.364 . S
C190 C189 1.364 . S
C190 C191 1.400 . S
C191 H179 0.931 . S
C191 C186 1.408 . S
C191 C190 1.400 . S
H192 C198 0.930 . S
H193 C201 0.931 . S
H194 C203 0.931 . S
H195 C205 0.930 . S
H196 C207 0.930 . S
H197 C209 0.931 . S
C198 H192 0.930 . S
C198 C199 1.380 . S
C198 C200 1.394 . S
C199 C198 1.380 . S
C199 C203 1.382 . S
C200 C198 1.394 . S
C200 C201 1.400 . S
C201 H193 0.931 . S
C201 C200 1.400 . S
C201 C202 1.375 . S
C202 C201 1.375 . S
C202 C203 1.415 . S
C202 C204 1.501 . S
C203 H194 0.931 . S
C203 C199 1.382 . S
C203 C202 1.415 . S
C204 C202 1.501 . S
C204 C205 1.384 . S
C204 C209 1.408 . S
C205 H195 0.930 . S
C205 C204 1.384 . S
C205 C206 1.389 . S
C206 C205 1.389 . S
C206 C207 1.405 . S
C207 H196 0.930 . S
C207 C206 1.405 . S
C207 C208 1.364 . S
C208 C207 1.364 . S
C208 C209 1.400 . S
C209 H197 0.931 . S
C209 C204 1.408 . S
C209 C208 1.400 . S
H210 C216 0.930 . S
H211 C219 0.931 . S
H212 C221 0.931 . S
H213 C223 0.930 . S
H214 C225 0.930 . S
H215 C227 0.931 . S
C216 H210 0.930 . S
C216 C217 1.380 . S
C216 C218 1.394 . S
C217 C216 1.380 . S
C217 C221 1.382 . S
C218 C216 1.394 . S
C218 C219 1.400 . S
C219 H211 0.931 . S
C219 C218 1.400 . S
C219 C220 1.375 . S
C220 C219 1.375 . S
C220 C221 1.415 . S
C220 C222 1.501 . S
C221 H212 0.931 . S
C221 C217 1.382 . S
C221 C220 1.415 . S
C222 C220 1.501 . S
C222 C223 1.384 . S
C222 C227 1.408 . S
C223 H213 0.930 . S
C223 C222 1.384 . S
C223 C224 1.389 . S
C224 C223 1.389 . S
C224 C225 1.405 . S
C225 H214 0.930 . S
C225 C224 1.405 . S
C225 C226 1.364 . S
C226 C225 1.364 . S
C226 C227 1.400 . S
C227 H215 0.931 . S
C227 C222 1.408 . S
C227 C226 1.400 . S
H228 C234 0.930 . S
H229 C237 0.931 . S
H230 C239 0.931 . S
H231 C241 0.930 . S
H232 C243 0.930 . S
H233 C245 0.931 . S
C234 H228 0.930 . S
C234 C235 1.380 . S
C234 C236 1.394 . S
C235 C234 1.380 . S
C235 C239 1.382 . S
C236 C234 1.394 . S
C236 C237 1.400 . S
C237 H229 0.931 . S
C237 C236 1.400 . S
C237 C238 1.375 . S
C238 C237 1.375 . S
C238 C239 1.415 . S
C238 C240 1.501 1_565 S
C239 H230 0.931 . S
C239 C235 1.382 . S
C239 C238 1.415 . S
C240 C238 1.501 1_545 S
C240 C241 1.384 . S
C240 C245 1.408 . S
C241 H231 0.930 . S
C241 C240 1.384 . S
C241 C242 1.389 . S
C242 C241 1.389 . S
C242 C243 1.405 . S
C243 H232 0.930 . S
C243 C242 1.405 . S
C243 C244 1.364 . S
C244 C243 1.364 . S
C244 C245 1.400 . S
C245 H233 0.931 . S
C245 C240 1.408 . S
C245 C244 1.400 . S
H246 C252 0.930 . S
H247 C255 0.931 . S
H248 C257 0.931 . S
H249 C259 0.930 . S
H250 C261 0.930 . S
H251 C263 0.931 . S
C252 H246 0.930 . S
C252 C253 1.380 . S
C252 C254 1.394 . S
C253 C252 1.380 . S
C253 C257 1.382 . S
C254 C252 1.394 . S
C254 C255 1.400 . S
C255 H247 0.931 . S
C255 C254 1.400 . S
C255 C256 1.375 . S
C256 C255 1.375 . S
C256 C257 1.415 . S
C256 C258 1.501 . S
C257 H248 0.931 . S
C257 C253 1.382 . S
C257 C256 1.415 . S
C258 C256 1.501 . S
C258 C259 1.384 . S
C258 C263 1.408 . S
C259 H249 0.930 . S
C259 C258 1.384 . S
C259 C260 1.389 . S
C260 C259 1.389 . S
C260 C261 1.405 . S
C261 H250 0.930 . S
C261 C260 1.405 . S
C261 C262 1.364 . S
C262 C261 1.364 . S
C262 C263 1.400 . S
C263 H251 0.931 . S
C263 C258 1.408 . S
C263 C262 1.400 . S
H264 C270 0.930 . S
H265 C273 0.931 . S
H266 C275 0.931 . S
H267 C277 0.930 . S
H268 C279 0.930 . S
H269 C281 0.931 . S
C270 H264 0.930 . S
C270 C271 1.380 . S
C270 C272 1.394 . S
C271 C270 1.380 . S
C271 C275 1.382 . S
C272 C270 1.394 . S
C272 C273 1.400 . S
C273 H265 0.931 . S
C273 C272 1.400 . S
C273 C274 1.375 . S
C274 C273 1.375 . S
C274 C275 1.415 . S
C274 C276 1.501 1_545 S
C275 H266 0.931 . S
C275 C271 1.382 . S
C275 C274 1.415 . S
C276 C274 1.501 1_565 S
C276 C277 1.384 . S
C276 C281 1.408 . S
C277 H267 0.930 . S
C277 C276 1.384 . S
C277 C278 1.389 . S
C278 C277 1.389 . S
C278 C279 1.405 . S
C279 H268 0.930 . S
C279 C278 1.405 . S
C279 C280 1.364 . S
C280 C279 1.364 . S
C280 C281 1.400 . S
C281 H269 0.931 . S
C281 C276 1.408 . S
C281 C280 1.400 . S
H282 C288 0.930 . S
H283 C291 0.931 . S
H284 C293 0.931 . S
H285 C295 0.930 . S
H286 C297 0.930 . S
H287 C299 0.931 . S
C288 H282 0.930 . S
C288 C289 1.380 . S
C288 C290 1.394 . S
C289 C288 1.380 . S
C289 C293 1.382 . S
C290 C288 1.394 . S
C290 C291 1.400 . S
C291 H283 0.931 . S
C291 C290 1.400 . S
C291 C292 1.375 . S
C292 C291 1.375 . S
C292 C293 1.415 . S
C292 C294 1.501 1_556 S
C293 H284 0.931 . S
C293 C289 1.382 . S
C293 C292 1.415 . S
C294 C292 1.501 1_554 S
C294 C295 1.384 . S
C294 C299 1.408 . S
C295 H285 0.930 . S
C295 C294 1.384 . S
C295 C296 1.389 . S
C296 C295 1.389 . S
C296 C297 1.405 . S
C297 H286 0.930 . S
C297 C296 1.405 . S
C297 C298 1.364 . S
C298 C297 1.364 . S
C298 C299 1.400 . S
C299 H287 0.931 . S
C299 C294 1.408 . S
C299 C298 1.400 . S
H300 C306 0.930 . S
H301 C309 0.931 . S
H302 C311 0.931 . S
H303 C313 0.930 . S
H304 C315 0.930 . S
H305 C317 0.931 . S
C306 H300 0.930 . S
C306 C307 1.380 . S
C306 C308 1.394 . S
C307 C306 1.380 . S
C307 C311 1.382 . S
C308 C306 1.394 . S
C308 C309 1.400 . S
C309 H301 0.931 . S
C309 C308 1.400 . S
C309 C310 1.375 . S
C310 C309 1.375 . S
C310 C311 1.415 . S
C310 C312 1.501 1_556 S
C311 H302 0.931 . S
C311 C307 1.382 . S
C311 C310 1.415 . S
C312 C310 1.501 1_554 S
C312 C313 1.384 . S
C312 C317 1.408 . S
C313 H303 0.930 . S
C313 C312 1.384 . S
C313 C314 1.389 . S
C314 C313 1.389 . S
C314 C315 1.405 . S
C315 H304 0.930 . S
C315 C314 1.405 . S
C315 C316 1.364 . S
C316 C315 1.364 . S
C316 C317 1.400 . S
C317 H305 0.931 . S
C317 C312 1.408 . S
C317 C316 1.400 . S
H318 C324 0.930 . S
H319 C327 0.931 . S
H320 C329 0.931 . S
H321 C331 0.930 . S
H322 C333 0.930 . S
H323 C335 0.931 . S
C324 H318 0.930 . S
C324 C325 1.380 . S
C324 C326 1.394 . S
C325 C324 1.380 . S
C325 C329 1.382 . S
C326 C324 1.394 . S
C326 C327 1.400 . S
C327 H319 0.931 . S
C327 C326 1.400 . S
C327 C328 1.375 . S
C328 C327 1.375 . S
C328 C329 1.415 . S
C328 C330 1.501 . S
C329 H320 0.931 . S
C329 C325 1.382 . S
C329 C328 1.415 . S
C330 C328 1.501 . S
C330 C331 1.384 . S
C330 C335 1.408 . S
C331 H321 0.930 . S
C331 C330 1.384 . S
C331 C332 1.389 . S
C332 C331 1.389 . S
C332 C333 1.405 . S
C333 H322 0.930 . S
C333 C332 1.405 . S
C333 C334 1.364 . S
C334 C333 1.364 . S
C334 C335 1.400 . S
C335 H323 0.931 . S
C335 C330 1.408 . S
C335 C334 1.400 . S
H336 C342 0.930 . S
H337 C345 0.931 . S
H338 C347 0.931 . S
H339 C349 0.930 . S
H340 C351 0.930 . S
H341 C353 0.931 . S
C342 H336 0.930 . S
C342 C343 1.380 . S
C342 C344 1.394 . S
C343 C342 1.380 . S
C343 C347 1.382 . S
C344 C342 1.394 . S
C344 C345 1.400 . S
C345 H337 0.931 . S
C345 C344 1.400 . S
C345 C346 1.375 . S
C346 C345 1.375 . S
C346 C347 1.415 . S
C346 C348 1.501 . S
C347 H338 0.931 . S
C347 C343 1.382 . S
C347 C346 1.415 . S
C348 C346 1.501 . S
C348 C349 1.384 . S
C348 C353 1.408 . S
C349 H339 0.930 . S
C349 C348 1.384 . S
C349 C350 1.389 . S
C350 C349 1.389 . S
C350 C351 1.405 . S
C351 H340 0.930 . S
C351 C350 1.405 . S
C351 C352 1.364 . S
C352 C351 1.364 . S
C352 C353 1.400 . S
C353 H341 0.931 . S
C353 C348 1.408 . S
C353 C352 1.400 . S
H354 C360 0.930 . S
H355 C363 0.931 . S
H356 C365 0.931 . S
H357 C367 0.930 . S
H358 C369 0.930 . S
H359 C371 0.931 . S
C360 H354 0.930 . S
C360 C361 1.380 . S
C360 C362 1.394 . S
C361 C360 1.380 . S
C361 C365 1.382 . S
C362 C360 1.394 . S
C362 C363 1.400 . S
C363 H355 0.931 . S
C363 C362 1.400 . S
C363 C364 1.375 . S
C364 C363 1.375 . S
C364 C365 1.415 . S
C364 C366 1.501 . S
C365 H356 0.931 . S
C365 C361 1.382 . S
C365 C364 1.415 . S
C366 C364 1.501 . S
C366 C367 1.384 . S
C366 C371 1.408 . S
C367 H357 0.930 . S
C367 C366 1.384 . S
C367 C368 1.389 . S
C368 C367 1.389 . S
C368 C369 1.405 . S
C369 H358 0.930 . S
C369 C368 1.405 . S
C369 C370 1.364 . S
C370 C369 1.364 . S
C370 C371 1.400 . S
C371 H359 0.931 . S
C371 C366 1.408 . S
C371 C370 1.400 . S
C372 C373 1.363 1_655 S
C372 C378 1.379 . S
C372 N380 1.356 . S
C373 C372 1.363 1_455 S
C373 C379 1.363 . S
C374 C375 1.363 . S
C374 C379 1.379 . S
C374 N381 1.356 . S
C375 C374 1.363 . S
C375 C378 1.363 1_455 S
N376 C378 1.356 . S
N376 H388 0.984 . S
N376 H389 0.985 . S
N377 C379 1.356 1_554 S
N377 H382 0.984 . S
N377 H383 0.985 . S
C378 C372 1.379 . S
C378 C375 1.363 1_655 S
C378 N376 1.356 . S
C379 C373 1.363 . S
C379 C374 1.379 . S
C379 N377 1.356 1_556 S
N380 C372 1.356 . S
N380 H386 0.984 . S
N380 H387 0.984 1_556 S
N381 C374 1.356 . S
N381 H384 0.984 . S
N381 H385 0.985 . S
H382 N377 0.984 . S
H383 N377 0.985 . S
H384 N381 0.984 . S
H385 N381 0.985 . S
H386 N380 0.984 . S
H387 N380 0.984 1_554 S
H388 N376 0.984 . S
H389 N376 0.985 . S
C390 C391 1.363 . S
C390 C396 1.379 . S
C390 N398 1.356 . S
C391 C390 1.363 . S
C391 C397 1.363 . S
C392 C393 1.363 . S
C392 C397 1.379 . S
C392 N399 1.356 . S
C393 C392 1.363 . S
C393 C396 1.363 . S
N394 C396 1.356 . S
N394 H406 0.984 . S
N394 H407 0.985 . S
N395 C397 1.356 . S
N395 H400 0.984 . S
N395 H401 0.985 . S
C396 C390 1.379 . S
C396 C393 1.363 . S
C396 N394 1.356 . S
C397 C391 1.363 . S
C397 C392 1.379 . S
C397 N395 1.356 . S
N398 C390 1.356 . S
N398 H404 0.984 . S
N398 H405 0.984 . S
N399 C392 1.356 . S
N399 H402 0.984 . S
N399 H403 0.985 . S
H400 N395 0.984 . S
H401 N395 0.985 . S
H402 N399 0.984 . S
H403 N399 0.985 . S
H404 N398 0.984 . S
H405 N398 0.984 . S
H406 N394 0.984 . S
H407 N394 0.985 . S
C408 C409 1.363 . S
C408 C414 1.379 . S
C408 N416 1.356 . S
C409 C408 1.363 . S
C409 C415 1.363 . S
C410 C411 1.363 . S
C410 C415 1.379 . S
C410 N417 1.356 . S
C411 C410 1.363 . S
C411 C414 1.363 . S
N412 C414 1.356 . S
N412 H424 0.984 . S
N412 H425 0.985 . S
N413 C415 1.356 . S
N413 H418 0.984 . S
N413 H419 0.985 . S
C414 C408 1.379 . S
C414 C411 1.363 . S
C414 N412 1.356 . S
C415 C409 1.363 . S
C415 C410 1.379 . S
C415 N413 1.356 . S
N416 C408 1.356 . S
N416 H422 0.984 . S
N416 H423 0.984 . S
N417 C410 1.356 . S
N417 H420 0.984 . S
N417 H421 0.985 . S
H418 N413 0.984 . S
H419 N413 0.985 . S
H420 N417 0.984 . S
H421 N417 0.985 . S
H422 N416 0.984 . S
H423 N416 0.984 . S
H424 N412 0.984 . S
H425 N412 0.985 . S
C426 C427 1.363 . S
C426 C432 1.379 . S
C426 N434 1.356 . S
C427 C426 1.363 . S
C427 C433 1.363 . S
C428 C429 1.363 . S
C428 C433 1.379 . S
C428 N435 1.356 . S
C429 C428 1.363 . S
C429 C432 1.363 . S
N430 C432 1.356 . S
N430 H442 0.984 . S
N430 H443 0.985 . S
N431 C433 1.356 . S
N431 H436 0.984 . S
N431 H437 0.985 . S
C432 C426 1.379 . S
C432 C429 1.363 . S
C432 N430 1.356 . S
C433 C427 1.363 . S
C433 C428 1.379 . S
C433 N431 1.356 . S
N434 C426 1.356 . S
N434 H440 0.984 . S
N434 H441 0.984 . S
N435 C428 1.356 . S
N435 H438 0.984 . S
N435 H439 0.985 . S
H436 N431 0.984 . S
H437 N431 0.985 . S
H438 N435 0.984 . S
H439 N435 0.985 . S
H440 N434 0.984 . S
H441 N434 0.984 . S
H442 N430 0.984 . S
H443 N430 0.985 . S
C444 C445 1.363 . S
C444 C450 1.379 . S
C444 N452 1.356 . S
C445 C444 1.363 . S
C445 C451 1.366 . S
C446 C447 1.363 . S
C446 C451 1.379 . S
C446 N453 1.356 1_455 S
C447 C446 1.363 . S
C447 C450 1.363 . S
N448 C450 1.356 . S
N448 H460 0.984 . S
N448 H461 0.985 . S
N449 C451 1.353 1_655 S
N449 H454 0.984 . S
N449 H455 0.985 . S
C450 C444 1.379 . S
C450 C447 1.363 . S
C450 N448 1.356 . S
C451 C445 1.366 . S
C451 C446 1.379 . S
C451 N449 1.353 1_455 S
N452 C444 1.356 . S
N452 H458 0.984 . S
N452 H459 0.984 . S
N453 C446 1.356 1_655 S
N453 H456 0.984 1_655 S
N453 H457 0.985 . S
H454 N449 0.984 . S
H455 N449 0.985 . S
H456 N453 0.984 1_455 S
H457 N453 0.985 . S
H458 N452 0.984 . S
H459 N452 0.984 . S
H460 N448 0.984 . S
H461 N448 0.985 . S
C462 C463 1.363 . S
C462 C468 1.379 . S
C462 N470 1.356 . S
C463 C462 1.363 . S
C463 C469 1.363 . S
C464 C465 1.363 . S
C464 C469 1.379 . S
C464 N471 1.356 . S
C465 C464 1.363 . S
C465 C468 1.363 . S
N466 C468 1.356 . S
N466 H478 0.984 . S
N466 H479 0.985 . S
N467 C469 1.356 . S
N467 H472 0.984 . S
N467 H473 0.985 . S
C468 C462 1.379 . S
C468 C465 1.363 . S
C468 N466 1.356 . S
C469 C463 1.363 . S
C469 C464 1.379 . S
C469 N467 1.356 . S
N470 C462 1.356 . S
N470 H476 0.984 . S
N470 H477 0.984 . S
N471 C464 1.356 . S
N471 H474 0.984 . S
N471 H475 0.985 . S
H472 N467 0.984 . S
H473 N467 0.985 . S
H474 N471 0.984 . S
H475 N471 0.985 . S
H476 N470 0.984 . S
H477 N470 0.984 . S
H478 N466 0.984 . S
H479 N466 0.985 . S
C480 C481 1.363 . S
C480 C486 1.379 . S
C480 N488 1.356 1_554 S
C481 C480 1.363 . S
C481 C487 1.363 . S
C482 C483 1.363 . S
C482 C487 1.379 . S
C482 N489 1.356 . S
C483 C482 1.363 . S
C483 C486 1.363 . S
N484 C486 1.356 . S
N484 H496 0.984 . S
N484 H497 0.985 . S
N485 C487 1.356 . S
N485 H490 0.984 1_554 S
N485 H491 0.985 . S
C486 C480 1.379 . S
C486 C483 1.363 . S
C486 N484 1.356 . S
C487 C481 1.363 . S
C487 C482 1.379 . S
C487 N485 1.356 . S
N488 C480 1.356 1_556 S
N488 H494 0.984 . S
N488 H495 0.984 . S
N489 C482 1.356 . S
N489 H492 0.984 . S
N489 H493 0.985 . S
H490 N485 0.984 1_556 S
H491 N485 0.985 . S
H492 N489 0.984 . S
H493 N489 0.985 . S
H494 N488 0.984 . S
H495 N488 0.984 . S
H496 N484 0.984 . S
H497 N484 0.985 . S
C498 C499 1.363 . S
C498 C504 1.379 . S
C498 N506 1.356 . S
C499 C498 1.363 . S
C499 C505 1.363 . S
C500 C501 1.363 . S
C500 C505 1.379 . S
C500 N507 1.356 . S
C501 C500 1.363 . S
C501 C504 1.363 . S
N502 C504 1.356 . S
N502 H514 0.984 . S
N502 H515 0.985 . S
N503 C505 1.356 . S
N503 H508 0.984 . S
N503 H509 0.985 . S
C504 C498 1.379 . S
C504 C501 1.363 . S
C504 N502 1.356 . S
C505 C499 1.363 . S
C505 C500 1.379 . S
C505 N503 1.356 . S
N506 C498 1.356 . S
N506 H512 0.984 . S
N506 H513 0.984 . S
N507 C500 1.356 . S
N507 H510 0.984 . S
N507 H511 0.985 . S
H508 N503 0.984 . S
H509 N503 0.985 . S
H510 N507 0.984 . S
H511 N507 0.985 . S
H512 N506 0.984 . S
H513 N506 0.984 . S
H514 N502 0.984 . S
H515 N502 0.985 . S
C516 C517 1.363 . S
C516 C522 1.379 . S
C516 N524 1.356 1_655 S
C517 C516 1.363 . S
C517 C523 1.363 1_545 S
C518 C519 1.363 1_565 S
C518 C523 1.379 . S
C518 N525 1.356 . S
C519 C518 1.363 1_545 S
C519 C522 1.363 . S
N520 C522 1.356 . S
N520 H532 0.984 . S
N520 H533 0.985 . S
N521 C523 1.356 . S
N521 H526 0.984 1_655 S
N521 H527 0.985 . S
C522 C516 1.379 . S
C522 C519 1.363 . S
C522 N520 1.356 . S
C523 C517 1.363 1_565 S
C523 C518 1.379 . S
C523 N521 1.356 . S
N524 C516 1.356 1_455 S
N524 H530 0.984 . S
N524 H531 0.984 . S
N525 C518 1.356 . S
N525 H528 0.984 . S
N525 H529 0.985 . S
H526 N521 0.984 1_455 S
H527 N521 0.985 . S
H528 N525 0.984 . S
H529 N525 0.985 . S
H530 N524 0.984 . S
H531 N524 0.984 . S
H532 N520 0.984 . S
H533 N520 0.985 . S
C534 C535 1.363 . S
C534 C540 1.379 . S
C534 N542 1.356 . S
C535 C534 1.363 . S
C535 C541 1.363 . S
C536 C537 1.363 . S
C536 C541 1.379 . S
C536 N543 1.356 . S
C537 C536 1.363 . S
C537 C540 1.363 . S
N538 C540 1.356 . S
N538 H550 0.984 . S
N538 H551 0.985 . S
N539 C541 1.356 . S
N539 H544 0.984 . S
N539 H545 0.985 . S
C540 C534 1.379 . S
C540 C537 1.363 . S
C540 N538 1.356 . S
C541 C535 1.363 . S
C541 C536 1.379 . S
C541 N539 1.356 . S
N542 C534 1.356 . S
N542 H548 0.984 . S
N542 H549 0.984 . S
N543 C536 1.356 . S
N543 H546 0.984 . S
N543 H547 0.985 . S
H544 N539 0.984 . S
H545 N539 0.985 . S
H546 N543 0.984 . S
H547 N543 0.985 . S
H548 N542 0.984 . S
H549 N542 0.984 . S
H550 N538 0.984 . S
H551 N538 0.985 . S
C552 C553 1.363 . S
C552 C558 1.379 . S
C552 N560 1.356 . S
C553 C552 1.363 . S
C553 C559 1.363 1_565 S
C554 C555 1.363 1_545 S
C554 C559 1.379 . S
C554 N561 1.356 . S
C555 C554 1.363 1_565 S
C555 C558 1.363 . S
N556 C558 1.356 . S
N556 H568 0.984 . S
N556 H569 0.985 . S
N557 C559 1.356 . S
N557 H562 0.984 . S
N557 H563 0.985 . S
C558 C552 1.379 . S
C558 C555 1.363 . S
C558 N556 1.356 . S
C559 C553 1.363 1_545 S
C559 C554 1.379 . S
C559 N557 1.356 . S
N560 C552 1.356 . S
N560 H566 0.984 . S
N560 H567 0.984 . S
N561 C554 1.356 . S
N561 H564 0.984 . S
N561 H565 0.985 . S
H562 N557 0.984 . S
H563 N557 0.985 . S
H564 N561 0.984 . S
H565 N561 0.985 . S
H566 N560 0.984 . S
H567 N560 0.984 . S
H568 N556 0.984 . S
H569 N556 0.985 . S
C570 C571 1.363 . S
C570 C576 1.379 . S
C570 N578 1.356 . S
C571 C570 1.363 . S
C571 C577 1.363 . S
C572 C573 1.363 . S
C572 C577 1.379 . S
C572 N579 1.356 . S
C573 C572 1.363 . S
C573 C576 1.363 . S
N574 C576 1.356 . S
N574 H586 0.984 . S
N574 H587 0.985 . S
N575 C577 1.356 . S
N575 H580 0.984 . S
N575 H581 0.985 . S
C576 C570 1.379 . S
C576 C573 1.363 . S
C576 N574 1.356 . S
C577 C571 1.363 . S
C577 C572 1.379 . S
C577 N575 1.356 . S
N578 C570 1.356 . S
N578 H584 0.984 . S
N578 H585 0.984 . S
N579 C572 1.356 . S
N579 H582 0.984 . S
N579 H583 0.985 . S
H580 N575 0.984 . S
H581 N575 0.985 . S
H582 N579 0.984 . S
H583 N579 0.985 . S
H584 N578 0.984 . S
H585 N578 0.984 . S
H586 N574 0.984 . S
H587 N574 0.985 . S
C588 C589 1.363 1_545 S
C588 C594 1.379 . S
C588 N596 1.357 . S
C589 C588 1.363 1_565 S
C589 C595 1.363 . S
C590 C591 1.363 . S
C590 C595 1.379 . S
C590 N597 1.356 . S
C591 C590 1.363 . S
C591 C594 1.363 1_565 S
N592 C594 1.356 . S
N592 H604 0.984 . S
N592 H605 0.985 . S
N593 C595 1.356 1_455 S
N593 H598 0.984 . S
N593 H599 0.985 . S
C594 C588 1.379 . S
C594 C591 1.363 1_545 S
C594 N592 1.356 . S
C595 C589 1.363 . S
C595 C590 1.379 . S
C595 N593 1.356 1_655 S
N596 C588 1.357 . S
N596 H602 0.985 . S
N596 H603 0.983 1_655 S
N597 C590 1.356 . S
N597 H600 0.984 . S
N597 H601 0.985 . S
H598 N593 0.984 . S
H599 N593 0.985 . S
H600 N597 0.984 . S
H601 N597 0.985 . S
H602 N596 0.985 . S
H603 N596 0.983 1_455 S
H604 N592 0.984 . S
H605 N592 0.985 . S
C606 C607 1.363 . S
C606 C612 1.379 . S
C606 N614 1.356 . S
C607 C606 1.363 . S
C607 C613 1.363 . S
C608 C609 1.363 . S
C608 C613 1.379 . S
C608 N615 1.356 . S
C609 C608 1.363 . S
C609 C612 1.363 . S
N610 C612 1.356 . S
N610 H622 0.984 . S
N610 H623 0.985 . S
N611 C613 1.356 . S
N611 H616 0.984 . S
N611 H617 0.985 . S
C612 C606 1.379 . S
C612 C609 1.363 . S
C612 N610 1.356 . S
C613 C607 1.363 . S
C613 C608 1.379 . S
C613 N611 1.356 . S
N614 C606 1.356 . S
N614 H620 0.984 . S
N614 H621 0.984 . S
N615 C608 1.356 . S
N615 H618 0.984 . S
N615 H619 0.985 . S
H616 N611 0.984 . S
H617 N611 0.985 . S
H618 N615 0.984 . S
H619 N615 0.985 . S
H620 N614 0.984 . S
H621 N614 0.984 . S
H622 N610 0.984 . S
H623 N610 0.985 . S
C624 C625 1.363 1_565 S
C624 C630 1.379 . S
C624 N632 1.356 . S
C625 C624 1.363 1_545 S
C625 C631 1.363 . S
C626 C627 1.363 . S
C626 C631 1.379 . S
C626 N633 1.356 . S
C627 C626 1.363 . S
C627 C630 1.363 1_545 S
N628 C630 1.356 . S
N628 H640 0.984 . S
N628 H641 0.985 . S
N629 C631 1.356 . S
N629 H634 0.984 . S
N629 H635 0.985 . S
C630 C624 1.379 . S
C630 C627 1.363 1_565 S
C630 N628 1.356 . S
C631 C625 1.363 . S
C631 C626 1.379 . S
C631 N629 1.356 . S
N632 C624 1.356 . S
N632 H638 0.984 . S
N632 H639 0.984 . S
N633 C626 1.356 . S
N633 H636 0.984 . S
N633 H637 0.985 . S
H634 N629 0.984 . S
H635 N629 0.985 . S
H636 N633 0.984 . S
H637 N633 0.985 . S
H638 N632 0.984 . S
H639 N632 0.984 . S
H640 N628 0.984 . S
H641 N628 0.985 . S
C642 C643 1.363 . S
C642 C648 1.379 . S
C642 N650 1.356 . S
C643 C642 1.363 . S
C643 C649 1.363 . S
C644 C645 1.363 . S
C644 C649 1.379 . S
C644 N651 1.356 . S
C645 C644 1.363 . S
C645 C648 1.363 . S
N646 C648 1.356 . S
N646 H658 0.984 . S
N646 H659 0.985 . S
N647 C649 1.356 . S
N647 H652 0.984 . S
N647 H653 0.969 1_556 S
C648 C642 1.379 . S
C648 C645 1.363 . S
C648 N646 1.356 . S
C649 C643 1.363 . S
C649 C644 1.379 . S
C649 N647 1.356 . S
N650 C642 1.356 . S
N650 H656 0.984 . S
N650 H657 0.984 . S
N651 C644 1.356 . S
N651 H654 0.984 . S
N651 H655 0.985 . S
H652 N647 0.984 . S
H653 N647 0.969 1_554 S
H654 N651 0.984 . S
H655 N651 0.985 . S
H656 N650 0.984 . S
H657 N650 0.984 . S
H658 N646 0.984 . S
H659 N646 0.985 . S
C660 C661 1.363 1_556 S
C660 C666 1.379 . S
C660 N668 1.356 . S
C661 C660 1.363 1_554 S
C661 C667 1.363 . S
C662 C663 1.363 . S
C662 C667 1.379 . S
C662 N669 1.356 . S
C663 C662 1.363 . S
C663 C666 1.363 1_554 S
N664 C666 1.356 . S
N664 H676 0.984 . S
N664 H677 0.985 . S
N665 C667 1.356 1_545 S
N665 H670 0.984 . S
N665 H671 0.985 . S
C666 C660 1.379 . S
C666 C663 1.363 1_556 S
C666 N664 1.356 . S
C667 C661 1.363 . S
C667 C662 1.379 . S
C667 N665 1.356 1_565 S
N668 C660 1.356 . S
N668 H674 0.984 . S
N668 H675 0.984 1_565 S
N669 C662 1.356 . S
N669 H672 0.984 . S
N669 H673 0.985 . S
H670 N665 0.984 . S
H671 N665 0.985 . S
H672 N669 0.984 . S
H673 N669 0.985 . S
H674 N668 0.984 . S
H675 N668 0.984 1_545 S
H676 N664 0.984 . S
H677 N664 0.985 . S
C678 C679 1.363 . S
C678 C684 1.379 . S
C678 N686 1.356 . S
C679 C678 1.363 . S
C679 C685 1.363 1_556 S
C680 C681 1.363 . S
C680 C685 1.379 1_556 S
C680 N687 1.356 1_556 S
C681 C680 1.363 . S
C681 C684 1.363 . S
N682 C684 1.356 . S
N682 H694 0.984 . S
N682 H695 0.985 . S
N683 C685 1.356 . S
N683 H688 0.984 . S
N683 H689 0.985 . S
C684 C678 1.379 . S
C684 C681 1.363 . S
C684 N682 1.356 . S
C685 C679 1.363 1_554 S
C685 C680 1.379 1_554 S
C685 N683 1.356 . S
N686 C678 1.356 . S
N686 H692 0.984 . S
N686 H693 0.984 . S
N687 C680 1.356 1_554 S
N687 H690 0.984 . S
N687 H691 0.985 . S
H688 N683 0.984 . S
H689 N683 0.985 . S
H690 N687 0.984 . S
H691 N687 0.985 . S
H692 N686 0.984 . S
H693 N686 0.984 . S
H694 N682 0.984 . S
H695 N682 0.985 . S
C696 C697 1.363 . S
C696 C702 1.379 . S
C696 N704 1.356 . S
C697 C696 1.363 . S
C697 C703 1.363 . S
C698 C699 1.363 . S
C698 C703 1.379 . S
C698 N705 1.356 . S
C699 C698 1.363 . S
C699 C702 1.363 . S
N700 C702 1.356 . S
N700 H712 0.984 . S
N700 H713 0.985 . S
N701 C703 1.356 . S
N701 H706 0.984 . S
N701 H707 0.985 . S
C702 C696 1.379 . S
C702 C699 1.363 . S
C702 N700 1.356 . S
C703 C697 1.363 . S
C703 C698 1.379 . S
C703 N701 1.356 . S
N704 C696 1.356 . S
N704 H710 0.984 . S
N704 H711 0.984 . S
N705 C698 1.356 . S
N705 H708 0.984 . S
N705 H709 0.985 . S
H706 N701 0.984 . S
H707 N701 0.985 . S
H708 N705 0.984 . S
H709 N705 0.985 . S
H710 N704 0.984 . S
H711 N704 0.984 . S
H712 N700 0.984 . S
H713 N700 0.985 . S
C714 C715 1.363 . S
C714 C720 1.379 . S
C714 N722 1.356 . S
C715 C714 1.363 . S
C715 C721 1.363 . S
C716 C717 1.363 . S
C716 C721 1.379 . S
C716 N723 1.356 . S
C717 C716 1.363 . S
C717 C720 1.363 . S
N718 C720 1.356 . S
N718 H730 0.984 . S
N718 H731 0.985 . S
N719 C721 1.356 . S
N719 H724 0.984 . S
N719 H725 0.985 . S
C720 C714 1.379 . S
C720 C717 1.363 . S
C720 N718 1.356 . S
C721 C715 1.363 . S
C721 C716 1.379 . S
C721 N719 1.356 . S
N722 C714 1.356 . S
N722 H728 0.984 . S
N722 H729 0.984 . S
N723 C716 1.356 . S
N723 H726 0.984 . S
N723 H727 0.985 . S
H724 N719 0.984 . S
H725 N719 0.985 . S
H726 N723 0.984 . S
H727 N723 0.985 . S
H728 N722 0.984 . S
H729 N722 0.984 . S
H730 N718 0.984 . S
H731 N718 0.985 . S
C732 C733 1.363 . S
C732 C738 1.379 . S
C732 N740 1.356 . S
C733 C732 1.363 . S
C733 C739 1.363 . S
C734 C735 1.363 . S
C734 C739 1.379 . S
C734 N741 1.356 . S
C735 C734 1.363 . S
C735 C738 1.363 . S
N736 C738 1.356 . S
N736 H748 0.984 . S
N736 H749 0.985 . S
N737 C739 1.356 . S
N737 H742 0.984 . S
N737 H743 0.985 . S
C738 C732 1.379 . S
C738 C735 1.363 . S
C738 N736 1.356 . S
C739 C733 1.363 . S
C739 C734 1.379 . S
C739 N737 1.356 . S
N740 C732 1.356 . S
N740 H746 0.984 . S
N740 H747 0.984 . S
N741 C734 1.356 . S
N741 H744 0.984 . S
N741 H745 0.985 . S
H742 N737 0.984 . S
H743 N737 0.985 . S
H744 N741 0.984 . S
H745 N741 0.985 . S
H746 N740 0.984 . S
H747 N740 0.984 . S
H748 N736 0.984 . S
H749 N736 0.985 . S
C750 C751 1.363 . S
C750 C756 1.379 . S
C750 N758 1.356 1_545 S
C751 C750 1.363 . S
C751 C757 1.363 . S
C752 C753 1.363 . S
C752 C757 1.379 . S
C752 N759 1.356 . S
C753 C752 1.363 . S
C753 C756 1.363 . S
N754 C756 1.356 . S
N754 H766 0.984 . S
N754 H767 0.985 . S
N755 C757 1.356 . S
N755 H760 0.984 1_545 S
N755 H761 0.985 . S
C756 C750 1.379 . S
C756 C753 1.363 . S
C756 N754 1.356 . S
C757 C751 1.363 . S
C757 C752 1.379 . S
C757 N755 1.356 . S
N758 C750 1.356 1_565 S
N758 H764 0.984 . S
N758 H765 0.984 . S
N759 C752 1.356 . S
N759 H762 0.984 . S
N759 H763 0.985 . S
H760 N755 0.984 1_565 S
H761 N755 0.985 . S
H762 N759 0.984 . S
H763 N759 0.985 . S
H764 N758 0.984 . S
H765 N758 0.984 . S
H766 N754 0.984 . S
H767 N754 0.985 . S
C768 C769 1.363 . S
C768 C774 1.379 . S
C768 N776 1.356 . S
C769 C768 1.363 . S
C769 C775 1.363 . S
C770 C771 1.363 . S
C770 C775 1.379 . S
C770 N777 1.356 . S
C771 C770 1.363 . S
C771 C774 1.363 . S
N772 C774 1.356 . S
N772 H784 0.984 . S
N772 H785 0.985 . S
N773 C775 1.356 . S
N773 H778 0.984 . S
N773 H779 0.985 . S
C774 C768 1.379 . S
C774 C771 1.363 . S
C774 N772 1.356 . S
C775 C769 1.363 . S
C775 C770 1.379 . S
C775 N773 1.356 . S
N776 C768 1.356 . S
N776 H782 0.984 . S
N776 H783 0.984 . S
N777 C770 1.356 . S
N777 H780 0.984 . S
N777 H781 0.985 . S
H778 N773 0.984 . S
H779 N773 0.985 . S
H780 N777 0.984 . S
H781 N777 0.985 . S
H782 N776 0.984 . S
H783 N776 0.984 . S
H784 N772 0.984 . S
H785 N772 0.985 . S
C786 C787 1.363 . S
C786 C792 1.379 . S
C786 N794 1.356 . S
C787 C786 1.363 . S
C787 C793 1.363 . S
C788 C789 1.363 . S
C788 C793 1.379 . S
C788 N795 1.356 . S
C789 C788 1.363 . S
C789 C792 1.363 . S
N790 C792 1.356 . S
N790 H802 0.984 . S
N790 H803 0.985 . S
N791 C793 1.356 . S
N791 H796 0.984 . S
N791 H797 0.985 . S
C792 C786 1.379 . S
C792 C789 1.363 . S
C792 N790 1.356 . S
C793 C787 1.363 . S
C793 C788 1.379 . S
C793 N791 1.356 . S
N794 C786 1.356 . S
N794 H800 0.984 . S
N794 H801 0.984 . S
N795 C788 1.356 . S
N795 H798 0.984 . S
N795 H799 0.985 . S
H796 N791 0.984 . S
H797 N791 0.985 . S
H798 N795 0.984 . S
H799 N795 0.985 . S
H800 N794 0.984 . S
H801 N794 0.984 . S
H802 N790 0.984 . S
H803 N790 0.985 . S
C804 C805 1.363 . S
C804 C810 1.379 . S
C804 N812 1.356 . S
C805 C804 1.363 . S
C805 C811 1.363 . S
C806 C807 1.363 . S
C806 C811 1.379 . S
C806 N813 1.356 . S
C807 C806 1.363 . S
C807 C810 1.363 . S
N808 C810 1.356 . S
N808 H820 0.984 . S
N808 H821 0.985 . S
N809 C811 1.356 . S
N809 H814 0.984 . S
N809 H815 0.985 . S
C810 C804 1.379 . S
C810 C807 1.363 . S
C810 N808 1.356 . S
C811 C805 1.363 . S
C811 C806 1.379 . S
C811 N809 1.356 . S
N812 C804 1.356 . S
N812 H818 0.984 . S
N812 H819 0.984 . S
N813 C806 1.356 . S
N813 H816 0.984 . S
N813 H817 0.985 . S
H814 N809 0.984 . S
H815 N809 0.985 . S
H816 N813 0.984 . S
H817 N813 0.985 . S
H818 N812 0.984 . S
H819 N812 0.984 . S
H820 N808 0.984 . S
H821 N808 0.985 . S
C822 C823 1.363 . S
C822 C828 1.379 . S
C822 N830 1.356 . S
C823 C822 1.363 . S
C823 C829 1.363 . S
C824 C825 1.363 . S
C824 C829 1.379 . S
C824 N831 1.356 . S
C825 C824 1.363 . S
C825 C828 1.363 . S
N826 C828 1.356 . S
N826 H838 0.984 . S
N826 H839 0.985 . S
N827 C829 1.356 . S
N827 H832 0.984 . S
N827 H833 0.985 . S
C828 C822 1.379 . S
C828 C825 1.363 . S
C828 N826 1.356 . S
C829 C823 1.363 . S
C829 C824 1.379 . S
C829 N827 1.356 . S
N830 C822 1.356 . S
N830 H836 0.984 . S
N830 H837 0.984 . S
N831 C824 1.356 . S
N831 H834 0.984 . S
N831 H835 0.985 . S
H832 N827 0.984 . S
H833 N827 0.985 . S
H834 N831 0.984 . S
H835 N831 0.985 . S
H836 N830 0.984 . S
H837 N830 0.984 . S
H838 N826 0.984 . S
H839 N826 0.985 . S
C840 C841 1.363 1_455 S
C840 C846 1.379 . S
C840 N848 1.356 1_556 S
C841 C840 1.363 1_655 S
C841 C847 1.363 . S
C842 C843 1.363 . S
C842 C847 1.379 . S
C842 N849 1.356 . S
C843 C842 1.363 . S
C843 C846 1.363 1_655 S
N844 C846 1.356 . S
N844 H856 0.984 . S
N844 H857 0.985 . S
N845 C847 1.356 . S
N845 H850 0.984 1_556 S
N845 H851 0.985 . S
C846 C840 1.379 . S
C846 C843 1.363 1_455 S
C846 N844 1.356 . S
C847 C841 1.363 . S
C847 C842 1.379 . S
C847 N845 1.356 . S
N848 C840 1.356 1_554 S
N848 H854 0.984 . S
N848 H855 0.984 . S
N849 C842 1.356 . S
N849 H852 0.984 . S
N849 H853 0.985 . S
H850 N845 0.984 1_554 S
H851 N845 0.985 . S
H852 N849 0.984 . S
H853 N849 0.985 . S
H854 N848 0.984 . S
H855 N848 0.984 . S
H856 N844 0.984 . S
H857 N844 0.985 . S
C858 C859 1.363 . S
C858 C864 1.379 . S
C858 N866 1.356 . S
C859 C858 1.363 . S
C859 C865 1.363 . S
C860 C861 1.363 . S
C860 C865 1.379 . S
C860 N867 1.356 . S
C861 C860 1.363 . S
C861 C864 1.363 . S
N862 C864 1.356 . S
N862 H874 0.984 . S
N862 H875 0.985 . S
N863 C865 1.356 . S
N863 H868 0.984 . S
N863 H869 0.985 . S
C864 C858 1.379 . S
C864 C861 1.363 . S
C864 N862 1.356 . S
C865 C859 1.363 . S
C865 C860 1.379 . S
C865 N863 1.356 . S
N866 C858 1.356 . S
N866 H872 0.984 . S
N866 H873 0.984 . S
N867 C860 1.356 . S
N867 H870 0.984 . S
N867 H871 0.985 . S
H868 N863 0.984 . S
H869 N863 0.985 . S
H870 N867 0.984 . S
H871 N867 0.985 . S
H872 N866 0.984 . S
H873 N866 0.984 . S
H874 N862 0.984 . S
H875 N862 0.985 . S
C876 C877 1.363 . S
C876 C882 1.379 . S
C876 N884 1.356 . S
C877 C876 1.363 . S
C877 C883 1.363 . S
C878 C879 1.363 . S
C878 C883 1.379 . S
C878 N885 1.356 . S
C879 C878 1.363 . S
C879 C882 1.363 . S
N880 C882 1.356 . S
N880 H892 0.984 . S
N880 H893 0.985 . S
N881 C883 1.356 1_556 S
N881 H886 0.984 . S
N881 H887 0.985 . S
C882 C876 1.379 . S
C882 C879 1.363 . S
C882 N880 1.356 . S
C883 C877 1.363 . S
C883 C878 1.379 . S
C883 N881 1.356 1_554 S
N884 C876 1.356 . S
N884 H890 0.984 . S
N884 H891 0.984 1_554 S
N885 C878 1.356 . S
N885 H888 0.984 . S
N885 H889 0.985 . S
H886 N881 0.984 . S
H887 N881 0.985 . S
H888 N885 0.984 . S
H889 N885 0.985 . S
H890 N884 0.984 . S
H891 N884 0.984 1_556 S
H892 N880 0.984 . S
H893 N880 0.985 . S
C894 C895 1.363 . S
C894 C900 1.379 . S
C894 N902 1.356 . S
C895 C894 1.363 . S
C895 C901 1.363 . S
C896 C897 1.363 . S
C896 C901 1.379 . S
C896 N903 1.356 . S
C897 C896 1.363 . S
C897 C900 1.363 . S
N898 C900 1.356 . S
N898 H910 0.984 . S
N898 H911 0.985 . S
N899 C901 1.356 . S
N899 H904 0.984 . S
N899 H905 0.985 . S
C900 C894 1.379 . S
C900 C897 1.363 . S
C900 N898 1.356 . S
C901 C895 1.363 . S
C901 C896 1.379 . S
C901 N899 1.356 . S
N902 C894 1.356 . S
N902 H908 0.984 . S
N902 H909 0.984 . S
N903 C896 1.356 . S
N903 H906 0.984 . S
N903 H907 0.985 . S
H904 N899 0.984 . S
H905 N899 0.985 . S
H906 N903 0.984 . S
H907 N903 0.985 . S
H908 N902 0.984 . S
H909 N902 0.984 . S
H910 N898 0.984 . S
H911 N898 0.985 . S
C912 C913 1.363 1_455 S
C912 C918 1.379 . S
C912 N920 1.356 . S
C913 C912 1.363 1_655 S
C913 C919 1.363 . S
C914 C915 1.363 . S
C914 C919 1.379 . S
C914 N921 1.356 . S
C915 C914 1.363 . S
C915 C918 1.363 1_655 S
N916 C918 1.356 . S
N916 H928 0.984 . S
N916 H929 0.985 . S
N917 C919 1.356 . S
N917 H922 0.984 . S
N917 H923 0.985 . S
C918 C912 1.379 . S
C918 C915 1.363 1_455 S
C918 N916 1.356 . S
C919 C913 1.363 . S
C919 C914 1.379 . S
C919 N917 1.356 . S
N920 C912 1.356 . S
N920 H926 0.984 . S
N920 H927 0.984 . S
N921 C914 1.356 . S
N921 H924 0.984 . S
N921 H925 0.985 . S
H922 N917 0.984 . S
H923 N917 0.985 . S
H924 N921 0.984 . S
H925 N921 0.985 . S
H926 N920 0.984 . S
H927 N920 0.984 . S
H928 N916 0.984 . S
H929 N916 0.985 . S
C930 C931 1.363 . S
C930 C936 1.379 . S
C930 N938 1.356 . S
C931 C930 1.363 . S
C931 C937 1.363 . S
C932 C933 1.363 . S
C932 C937 1.379 . S
C932 N939 1.356 . S
C933 C932 1.363 . S
C933 C936 1.363 . S
N934 C936 1.356 . S
N934 H946 0.984 . S
N934 H947 0.985 . S
N935 C937 1.356 . S
N935 H940 0.984 . S
N935 H941 0.985 . S
C936 C930 1.379 . S
C936 C933 1.363 . S
C936 N934 1.356 . S
C937 C931 1.363 . S
C937 C932 1.379 . S
C937 N935 1.356 . S
N938 C930 1.356 . S
N938 H944 0.984 . S
N938 H945 0.984 . S
N939 C932 1.356 . S
N939 H942 0.984 . S
N939 H943 0.985 . S
H940 N935 0.984 . S
H941 N935 0.985 . S
H942 N939 0.984 . S
H943 N939 0.985 . S
H944 N938 0.984 . S
H945 N938 0.984 . S
H946 N934 0.984 . S
H947 N934 0.985 . S
C948 C949 1.363 . S
C948 C954 1.379 . S
C948 N956 1.356 . S
C949 C948 1.363 . S
C949 C955 1.363 . S
C950 C951 1.363 . S
C950 C955 1.379 . S
C950 N957 1.356 . S
C951 C950 1.363 . S
C951 C954 1.363 . S
N952 C954 1.356 . S
N952 H964 0.984 . S
N952 H965 0.985 . S
N953 C955 1.356 . S
N953 H958 0.984 . S
N953 H959 0.985 . S
C954 C948 1.379 . S
C954 C951 1.363 . S
C954 N952 1.356 . S
C955 C949 1.363 . S
C955 C950 1.379 . S
C955 N953 1.356 . S
N956 C948 1.356 . S
N956 H962 0.984 . S
N956 H963 0.984 . S
N957 C950 1.356 . S
N957 H960 0.984 . S
N957 H961 0.985 . S
H958 N953 0.984 . S
H959 N953 0.985 . S
H960 N957 0.984 . S
H961 N957 0.985 . S
H962 N956 0.984 . S
H963 N956 0.984 . S
H964 N952 0.984 . S
H965 N952 0.985 . S
C966 C967 1.363 . S
C966 C972 1.379 . S
C966 N974 1.356 . S
C967 C966 1.363 . S
C967 C973 1.363 . S
C968 C969 1.363 . S
C968 C973 1.379 . S
C968 N975 1.356 . S
C969 C968 1.363 . S
C969 C972 1.363 . S
N970 C972 1.356 . S
N970 H982 0.984 . S
N970 H983 0.985 . S
N971 C973 1.356 . S
N971 H976 0.984 . S
N971 H977 0.985 . S
C972 C966 1.379 . S
C972 C969 1.363 . S
C972 N970 1.356 . S
C973 C967 1.363 . S
C973 C968 1.379 . S
C973 N971 1.356 . S
N974 C966 1.356 . S
N974 H980 0.984 1_554 S
N974 H981 0.984 . S
N975 C968 1.356 . S
N975 H978 0.984 . S
N975 H979 0.985 . S
H976 N971 0.984 . S
H977 N971 0.985 . S
H978 N975 0.984 . S
H979 N975 0.985 . S
H980 N974 0.984 1_556 S
H981 N974 0.984 . S
H982 N970 0.984 . S
H983 N970 0.985 . S
C984 C985 1.363 . S
C984 C990 1.379 . S
C984 N992 1.356 1_455 S
C985 C984 1.363 . S
C985 C991 1.363 . S
C986 C987 1.363 . S
C986 C991 1.379 . S
C986 N993 1.356 . S
C987 C986 1.363 . S
C987 C990 1.363 . S
N988 C990 1.356 . S
N988 H1000 0.984 . S
N988 H1001 0.985 . S
N989 C991 1.356 . S
N989 H994 0.984 1_455 S
N989 H995 0.985 . S
C990 C984 1.379 . S
C990 C987 1.363 . S
C990 N988 1.356 . S
C991 C985 1.363 . S
C991 C986 1.379 . S
C991 N989 1.356 . S
N992 C984 1.356 1_655 S
N992 H998 0.984 . S
N992 H999 0.984 . S
N993 C986 1.356 . S
N993 H996 0.984 . S
N993 H997 0.985 . S
H994 N989 0.984 1_655 S
H995 N989 0.985 . S
H996 N993 0.984 . S
H997 N993 0.985 . S
H998 N992 0.984 . S
H999 N992 0.984 . S
H1000 N988 0.984 . S
H1001 N988 0.985 . S
C1002 C1003 1.363 . S
C1002 C1008 1.379 . S
C1002 N1010 1.356 . S
C1003 C1002 1.363 . S
C1003 C1009 1.363 . S
C1004 C1005 1.363 . S
C1004 C1009 1.379 . S
C1004 N1011 1.356 . S
C1005 C1004 1.363 . S
C1005 C1008 1.363 . S
N1006 C1008 1.356 . S
N1006 H1018 0.984 . S
N1006 H1019 0.985 . S
N1007 C1009 1.356 . S
N1007 H1012 0.984 . S
N1007 H1013 0.985 . S
C1008 C1002 1.379 . S
C1008 C1005 1.363 . S
C1008 N1006 1.356 . S
C1009 C1003 1.363 . S
C1009 C1004 1.379 . S
C1009 N1007 1.356 . S
N1010 C1002 1.356 . S
N1010 H1016 0.984 . S
N1010 H1017 0.984 . S
N1011 C1004 1.356 . S
N1011 H1014 0.984 . S
N1011 H1015 0.985 . S
H1012 N1007 0.984 . S
H1013 N1007 0.985 . S
H1014 N1011 0.984 . S
H1015 N1011 0.985 . S
H1016 N1010 0.984 . S
H1017 N1010 0.984 . S
H1018 N1006 0.984 . S
H1019 N1006 0.985 . S
C1020 C1021 1.363 . S
C1020 C1026 1.379 . S
C1020 N1028 1.356 . S
C1021 C1020 1.363 . S
C1021 C1027 1.363 . S
C1022 C1023 1.363 . S
C1022 C1027 1.379 . S
C1022 N1029 1.356 . S
C1023 C1022 1.363 . S
C1023 C1026 1.363 . S
N1024 C1026 1.356 . S
N1024 H1036 0.984 . S
N1024 H1037 0.985 . S
N1025 C1027 1.356 . S
N1025 H1030 0.984 . S
N1025 H1031 0.985 . S
C1026 C1020 1.379 . S
C1026 C1023 1.363 . S
C1026 N1024 1.356 . S
C1027 C1021 1.363 . S
C1027 C1022 1.379 . S
C1027 N1025 1.356 . S
N1028 C1020 1.356 . S
N1028 H1034 0.984 . S
N1028 H1035 0.984 . S
N1029 C1022 1.356 . S
N1029 H1032 0.984 . S
N1029 H1033 0.985 . S
H1030 N1025 0.984 . S
H1031 N1025 0.985 . S
H1032 N1029 0.984 . S
H1033 N1029 0.985 . S
H1034 N1028 0.984 . S
H1035 N1028 0.984 . S
H1036 N1024 0.984 . S
H1037 N1024 0.985 . S
C1038 C1039 1.363 . S
C1038 C1044 1.379 . S
C1038 N1046 1.356 . S
C1039 C1038 1.363 . S
C1039 C1045 1.363 . S
C1040 C1041 1.363 . S
C1040 C1045 1.379 . S
C1040 N1047 1.356 . S
C1041 C1040 1.363 . S
C1041 C1044 1.363 . S
N1042 C1044 1.356 . S
N1042 H1054 0.984 . S
N1042 H1055 0.985 . S
N1043 C1045 1.356 . S
N1043 H1048 0.984 . S
N1043 H1049 0.985 . S
C1044 C1038 1.379 . S
C1044 C1041 1.363 . S
C1044 N1042 1.356 . S
C1045 C1039 1.363 . S
C1045 C1040 1.379 . S
C1045 N1043 1.356 . S
N1046 C1038 1.356 . S
N1046 H1052 0.984 1_556 S
N1046 H1053 0.984 . S
N1047 C1040 1.356 . S
N1047 H1050 0.984 . S
N1047 H1051 0.985 . S
H1048 N1043 0.984 . S
H1049 N1043 0.985 . S
H1050 N1047 0.984 . S
H1051 N1047 0.985 . S
H1052 N1046 0.984 1_554 S
H1053 N1046 0.984 . S
H1054 N1042 0.984 . S
H1055 N1042 0.985 . S
C1056 C1057 1.363 . S
C1056 C1062 1.379 . S
C1056 N1064 1.356 1_455 S
C1057 C1056 1.363 . S
C1057 C1063 1.363 . S
C1058 C1059 1.363 . S
C1058 C1063 1.379 . S
C1058 N1065 1.356 . S
C1059 C1058 1.363 . S
C1059 C1062 1.363 . S
N1060 C1062 1.356 . S
N1060 H1072 0.984 . S
N1060 H1073 0.985 . S
N1061 C1063 1.356 . S
N1061 H1066 0.984 1_455 S
N1061 H1067 0.985 . S
C1062 C1056 1.379 . S
C1062 C1059 1.363 . S
C1062 N1060 1.356 . S
C1063 C1057 1.363 . S
C1063 C1058 1.379 . S
C1063 N1061 1.356 . S
N1064 C1056 1.356 1_655 S
N1064 H1070 0.984 . S
N1064 H1071 0.984 . S
N1065 C1058 1.356 . S
N1065 H1068 0.984 . S
N1065 H1069 0.985 . S
H1066 N1061 0.984 1_655 S
H1067 N1061 0.985 . S
H1068 N1065 0.984 . S
H1069 N1065 0.985 . S
H1070 N1064 0.984 . S
H1071 N1064 0.984 . S
H1072 N1060 0.984 . S
H1073 N1060 0.985 . S
C1074 C1075 1.363 . S
C1074 C1080 1.379 . S
C1074 N1082 1.356 . S
C1075 C1074 1.363 . S
C1075 C1081 1.363 . S
C1076 C1077 1.363 . S
C1076 C1081 1.379 . S
C1076 N1083 1.356 . S
C1077 C1076 1.363 . S
C1077 C1080 1.363 . S
N1078 C1080 1.356 . S
N1078 H1090 0.984 . S
N1078 H1091 0.985 . S
N1079 C1081 1.356 . S
N1079 H1084 0.984 . S
N1079 H1085 0.985 . S
C1080 C1074 1.379 . S
C1080 C1077 1.363 . S
C1080 N1078 1.356 . S
C1081 C1075 1.363 . S
C1081 C1076 1.379 . S
C1081 N1079 1.356 . S
N1082 C1074 1.356 . S
N1082 H1088 0.984 . S
N1082 H1089 0.984 . S
N1083 C1076 1.356 . S
N1083 H1086 0.984 . S
N1083 H1087 0.985 . S
H1084 N1079 0.984 . S
H1085 N1079 0.985 . S
H1086 N1083 0.984 . S
H1087 N1083 0.985 . S
H1088 N1082 0.984 . S
H1089 N1082 0.984 . S
H1090 N1078 0.984 . S
H1091 N1078 0.985 . S
C1092 C1093 1.363 . S
C1092 C1098 1.379 . S
C1092 N1100 1.356 . S
C1093 C1092 1.363 . S
C1093 C1099 1.363 . S
C1094 C1095 1.363 . S
C1094 C1099 1.379 . S
C1094 N1101 1.356 . S
C1095 C1094 1.363 . S
C1095 C1098 1.363 . S
N1096 C1098 1.356 . S
N1096 H1108 0.984 . S
N1096 H1109 0.985 . S
N1097 C1099 1.356 . S
N1097 H1102 0.984 . S
N1097 H1103 0.985 . S
C1098 C1092 1.379 . S
C1098 C1095 1.363 . S
C1098 N1096 1.356 . S
C1099 C1093 1.363 . S
C1099 C1094 1.379 . S
C1099 N1097 1.356 . S
N1100 C1092 1.356 . S
N1100 H1106 0.984 . S
N1100 H1107 0.984 . S
N1101 C1094 1.356 . S
N1101 H1104 0.984 . S
N1101 H1105 0.985 . S
H1102 N1097 0.984 . S
H1103 N1097 0.985 . S
H1104 N1101 0.984 . S
H1105 N1101 0.985 . S
H1106 N1100 0.984 . S
H1107 N1100 0.984 . S
H1108 N1096 0.984 . S
H1109 N1096 0.985 . S
C1110 C1111 1.363 . S
C1110 C1116 1.379 . S
C1110 N1118 1.356 1_545 S
C1111 C1110 1.363 . S
C1111 C1117 1.363 . S
C1112 C1113 1.363 . S
C1112 C1117 1.379 . S
C1112 N1119 1.356 . S
C1113 C1112 1.363 . S
C1113 C1116 1.363 . S
N1114 C1116 1.356 . S
N1114 H1126 0.984 . S
N1114 H1127 0.985 . S
N1115 C1117 1.356 . S
N1115 H1120 0.984 1_545 S
N1115 H1121 0.985 . S
C1116 C1110 1.379 . S
C1116 C1113 1.363 . S
C1116 N1114 1.356 . S
C1117 C1111 1.363 . S
C1117 C1112 1.379 . S
C1117 N1115 1.356 . S
N1118 C1110 1.356 1_565 S
N1118 H1124 0.984 . S
N1118 H1125 0.984 . S
N1119 C1112 1.356 . S
N1119 H1122 0.984 . S
N1119 H1123 0.985 . S
H1120 N1115 0.984 1_565 S
H1121 N1115 0.985 . S
H1122 N1119 0.984 . S
H1123 N1119 0.985 . S
H1124 N1118 0.984 . S
H1125 N1118 0.984 . S
H1126 N1114 0.984 . S
H1127 N1114 0.985 . S
C1128 C1129 1.363 . S
C1128 C1134 1.379 . S
C1128 N1136 1.356 . S
C1129 C1128 1.363 . S
C1129 C1135 1.363 . S
C1130 C1131 1.363 . S
C1130 C1135 1.379 . S
C1130 N1137 1.356 . S
C1131 C1130 1.363 . S
C1131 C1134 1.363 . S
N1132 C1134 1.356 . S
N1132 H1144 0.984 . S
N1132 H1145 0.985 . S
N1133 C1135 1.356 . S
N1133 H1138 0.984 . S
N1133 H1139 0.985 . S
C1134 C1128 1.379 . S
C1134 C1131 1.363 . S
C1134 N1132 1.356 . S
C1135 C1129 1.363 . S
C1135 C1130 1.379 . S
C1135 N1133 1.356 . S
N1136 C1128 1.356 . S
N1136 H1142 0.984 . S
N1136 H1143 0.984 . S
N1137 C1130 1.356 . S
N1137 H1140 0.984 . S
N1137 H1141 0.985 . S
H1138 N1133 0.984 . S
H1139 N1133 0.985 . S
H1140 N1137 0.984 . S
H1141 N1137 0.985 . S
H1142 N1136 0.984 . S
H1143 N1136 0.984 . S
H1144 N1132 0.984 . S
H1145 N1132 0.985 . S
C1146 C1147 1.363 1_554 S
C1146 C1152 1.379 . S
C1146 N1154 1.356 . S
C1147 C1146 1.363 1_556 S
C1147 C1153 1.363 . S
C1148 C1149 1.363 . S
C1148 C1153 1.379 . S
C1148 N1155 1.356 . S
C1149 C1148 1.363 . S
C1149 C1152 1.363 1_556 S
N1150 C1152 1.356 . S
N1150 H1162 0.984 . S
N1150 H1163 0.985 . S
N1151 C1153 1.356 1_545 S
N1151 H1156 0.984 . S
N1151 H1157 0.985 . S
C1152 C1146 1.379 . S
C1152 C1149 1.363 1_554 S
C1152 N1150 1.356 . S
C1153 C1147 1.363 . S
C1153 C1148 1.379 . S
C1153 N1151 1.356 1_565 S
N1154 C1146 1.356 . S
N1154 H1160 0.984 . S
N1154 H1161 0.984 1_565 S
N1155 C1148 1.356 . S
N1155 H1158 0.984 . S
N1155 H1159 0.985 . S
H1156 N1151 0.984 . S
H1157 N1151 0.985 . S
H1158 N1155 0.984 . S
H1159 N1155 0.985 . S
H1160 N1154 0.984 . S
H1161 N1154 0.984 1_545 S
H1162 N1150 0.984 . S
H1163 N1150 0.985 . S
C1164 C1165 1.363 . S
C1164 C1170 1.379 . S
C1164 N1172 1.356 . S
C1165 C1164 1.363 . S
C1165 C1171 1.363 . S
C1166 C1167 1.363 . S
C1166 C1171 1.379 . S
C1166 N1173 1.356 . S
C1167 C1166 1.363 . S
C1167 C1170 1.363 . S
N1168 C1170 1.356 . S
N1168 H1180 0.984 . S
N1168 H1181 0.985 . S
N1169 C1171 1.356 . S
N1169 H1174 0.984 . S
N1169 H1175 0.985 . S
C1170 C1164 1.379 . S
C1170 C1167 1.363 . S
C1170 N1168 1.356 . S
C1171 C1165 1.363 . S
C1171 C1166 1.379 . S
C1171 N1169 1.356 . S
N1172 C1164 1.356 . S
N1172 H1178 0.984 . S
N1172 H1179 0.984 . S
N1173 C1166 1.356 . S
N1173 H1176 0.984 . S
N1173 H1177 0.985 . S
H1174 N1169 0.984 . S
H1175 N1169 0.985 . S
H1176 N1173 0.984 . S
H1177 N1173 0.985 . S
H1178 N1172 0.984 . S
H1179 N1172 0.984 . S
H1180 N1168 0.984 . S
H1181 N1168 0.985 . S
C1182 C1183 1.355 1_556 S
C1182 C1188 1.377 1_556 S
C1182 N1190 1.365 . S
C1183 C1182 1.355 1_554 S
C1183 C1189 1.363 . S
C1184 C1185 1.363 . S
C1184 C1189 1.379 . S
C1184 N1191 1.356 . S
C1185 C1184 1.363 . S
C1185 C1188 1.363 . S
N1186 C1188 1.356 1_556 S
N1186 H1198 0.984 . S
N1186 H1199 0.983 1_556 S
N1187 C1189 1.356 . S
N1187 H1192 0.984 . S
N1187 H1193 0.985 . S
C1188 C1182 1.377 1_554 S
C1188 C1185 1.363 . S
C1188 N1186 1.356 1_554 S
C1189 C1183 1.363 . S
C1189 C1184 1.379 . S
C1189 N1187 1.356 . S
N1190 C1182 1.365 . S
N1190 H1196 0.984 . S
N1190 H1197 0.984 . S
N1191 C1184 1.356 . S
N1191 H1194 0.984 . S
N1191 H1195 0.985 . S
H1192 N1187 0.984 . S
H1193 N1187 0.985 . S
H1194 N1191 0.984 . S
H1195 N1191 0.985 . S
H1196 N1190 0.984 . S
H1197 N1190 0.984 . S
H1198 N1186 0.984 . S
H1199 N1186 0.983 1_554 S
C1200 C1201 1.363 . S
C1200 C1206 1.379 . S
C1200 N1208 1.356 . S
C1201 C1200 1.363 . S
C1201 C1207 1.363 . S
C1202 C1203 1.363 . S
C1202 C1207 1.379 . S
C1202 N1209 1.356 . S
C1203 C1202 1.363 . S
C1203 C1206 1.363 . S
N1204 C1206 1.356 . S
N1204 H1216 0.984 . S
N1204 H1217 0.985 . S
N1205 C1207 1.356 . S
N1205 H1210 0.984 . S
N1205 H1211 0.985 . S
C1206 C1200 1.379 . S
C1206 C1203 1.363 . S
C1206 N1204 1.356 . S
C1207 C1201 1.363 . S
C1207 C1202 1.379 . S
C1207 N1205 1.356 . S
N1208 C1200 1.356 . S
N1208 H1214 0.984 1_565 S
N1208 H1215 0.984 . S
N1209 C1202 1.356 . S
N1209 H1212 0.984 . S
N1209 H1213 0.985 . S
H1210 N1205 0.984 . S
H1211 N1205 0.985 . S
H1212 N1209 0.984 . S
H1213 N1209 0.985 . S
H1214 N1208 0.984 1_545 S
H1215 N1208 0.984 . S
H1216 N1204 0.984 . S
H1217 N1204 0.985 . S
C1218 C1219 1.363 . S
C1218 C1224 1.379 . S
C1218 N1226 1.356 . S
C1219 C1218 1.363 . S
C1219 C1225 1.363 . S
C1220 C1221 1.363 . S
C1220 C1225 1.379 . S
C1220 N1227 1.356 . S
C1221 C1220 1.363 . S
C1221 C1224 1.363 . S
N1222 C1224 1.356 . S
N1222 H1234 0.984 . S
N1222 H1235 0.985 . S
N1223 C1225 1.356 . S
N1223 H1228 0.984 . S
N1223 H1229 0.985 . S
C1224 C1218 1.379 . S
C1224 C1221 1.363 . S
C1224 N1222 1.356 . S
C1225 C1219 1.363 . S
C1225 C1220 1.379 . S
C1225 N1223 1.356 . S
N1226 C1218 1.356 . S
N1226 H1232 0.984 . S
N1226 H1233 0.984 . S
N1227 C1220 1.356 . S
N1227 H1230 0.984 . S
N1227 H1231 0.985 . S
H1228 N1223 0.984 . S
H1229 N1223 0.985 . S
H1230 N1227 0.984 . S
H1231 N1227 0.985 . S
H1232 N1226 0.984 . S
H1233 N1226 0.984 . S
H1234 N1222 0.984 . S
H1235 N1222 0.985 . S
C375 C361 1.237 . S
C373 C5 1.359 1_556 S
C391 C16 1.361 . S
C393 C314 1.237 . S
C409 C36 1.348 . S
C411 C325 1.229 . S
C429 C350 1.237 . S
C427 C49 1.355 . S
C445 C23 1.351 . S
C447 C368 1.219 . S
C465 C307 1.247 . S
C463 C29 1.361 . S
C483 C332 1.224 . S
C481 C42 1.360 1_554 S
C501 C343 1.247 . S
C499 C4 1.356 . S
C517 C55 1.357 1_655 S
C519 C344 1.229 . S
C537 C370 1.261 . S
C535 C69 1.356 . S
C555 C308 1.232 . S
C553 C83 1.355 . S
C573 C334 1.253 . S
C571 C101 1.349 . S
C589 C57 1.355 1_655 S
C591 C316 1.249 . S
C607 C75 1.356 . S
C609 C326 1.247 . S
C625 C81 1.358 . S
C627 C352 1.247 . S
C645 C362 1.243 . S
C643 C95 1.351 . S
C663 C199 1.231 . S
C661 C96 1.355 1_565 S
C681 C182 1.225 . S
C679 C107 1.352 . S
C699 C208 1.256 . S
C697 C121 1.351 . S
C717 C226 1.245 . S
C715 C133 1.358 . S
C733 C62 1.351 . S
C735 C200 1.240 . S
C751 C68 1.361 1_545 S
C753 C170 1.226 . S
C769 C127 1.354 . S
C771 C224 1.237 . S
C787 C147 1.350 . S
C789 C181 1.245 . S
C807 C235 1.231 . S
C805 C30 1.350 . S
C825 C260 1.238 . S
C823 C43 1.355 . S
C841 C3 1.358 1_556 S
C843 C271 1.236 . S
C859 C18 1.361 . S
C861 C296 1.235 . S
C879 C242 1.225 . S
C877 C44 1.361 1_554 S
C897 C253 1.248 . S
C895 C10 1.354 . S
C913 C17 1.350 . S
C915 C278 1.218 . S
C933 C289 1.246 . S
C931 C31 1.361 . S
C949 C146 1.356 . S
C951 C290 1.231 . S
C967 C114 1.349 . S
C969 C244 1.254 . S
C987 C254 1.229 . S
C985 C122 1.356 1_455 S
C1003 C140 1.357 . S
C1005 C280 1.260 . S
C1023 C262 1.246 . S
C1021 C148 1.356 . S
C1039 C108 1.350 . S
C1041 C272 1.241 . S
C1059 C298 1.250 . S
C1057 C120 1.357 1_455 S
C1077 C236 1.249 . S
C1075 C134 1.357 . S
C1095 C163 1.237 . S
C1093 C135 1.361 . S
C1113 C218 1.231 . S
C1111 C70 1.357 1_545 S
C1129 C82 1.354 . S
C1131 C172 1.259 . S
C1149 C190 1.240 . S
C1147 C94 1.353 1_565 S
C1167 C164 1.243 . S
C1165 C153 1.354 . S
C1183 C109 1.356 . S
C1185 C206 1.221 . S
C1201 C88 1.352 . S
C1203 C188 1.234 . S
C1219 C56 1.353 . S
C1221 C217 1.248 . S
