# Generated by pormake.
# Topology ptr, (4,4)-cn, num edge types: 1
# Building blocks:
#     Node 0, Type 0, BuildingBlock: QUQFOY_clean_sbu_1, # of connection points: 4
#     Node 1, Type 0, BuildingBlock: QUQFOY_clean_sbu_1, # of connection points: 4
#     Node 2, Type 0, BuildingBlock: QUQFOY_clean_sbu_1, # of connection points: 4
#     Node 3, Type 0, BuildingBlock: QUQFOY_clean_sbu_1, # of connection points: 4
#     Node 4, Type 0, BuildingBlock: QUQFOY_clean_sbu_1, # of connection points: 4
#     Node 5, Type 0, BuildingBlock: QUQFOY_clean_sbu_1, # of connection points: 4
#     Node 6, Type 0, BuildingBlock: QUQFOY_clean_sbu_1, # of connection points: 4
#     Node 7, Type 0, BuildingBlock: QUQFOY_clean_sbu_1, # of connection points: 4
#     Node 8, Type 0, BuildingBlock: QUQFOY_clean_sbu_1, # of connection points: 4
#     Node 9, Type 0, BuildingBlock: QUQFOY_clean_sbu_1, # of connection points: 4
#     Node 10, Type 0, BuildingBlock: QUQFOY_clean_sbu_1, # of connection points: 4
#     Node 11, Type 0, BuildingBlock: QUQFOY_clean_sbu_1, # of connection points: 4
#     Node 12, Type 0, BuildingBlock: QUQFOY_clean_sbu_1, # of connection points: 4
#     Node 13, Type 0, BuildingBlock: QUQFOY_clean_sbu_1, # of connection points: 4
#     Node 14, Type 0, BuildingBlock: QUQFOY_clean_sbu_1, # of connection points: 4
#     Node 15, Type 0, BuildingBlock: QUQFOY_clean_sbu_1, # of connection points: 4
#     Node 16, Type 0, BuildingBlock: QUQFOY_clean_sbu_1, # of connection points: 4
#     Node 17, Type 0, BuildingBlock: QUQFOY_clean_sbu_1, # of connection points: 4
#     Node 18, Type 1, BuildingBlock: GIZVER_clean_linker_0, # of connection points: 4
#     Node 19, Type 1, BuildingBlock: GIZVER_clean_linker_0, # of connection points: 4
#     Node 20, Type 1, BuildingBlock: GIZVER_clean_linker_0, # of connection points: 4
#     Node 21, Type 1, BuildingBlock: GIZVER_clean_linker_0, # of connection points: 4
#     Node 22, Type 1, BuildingBlock: GIZVER_clean_linker_0, # of connection points: 4
#     Node 23, Type 1, BuildingBlock: GIZVER_clean_linker_0, # of connection points: 4
#     Node 24, Type 1, BuildingBlock: GIZVER_clean_linker_0, # of connection points: 4
#     Node 25, Type 1, BuildingBlock: GIZVER_clean_linker_0, # of connection points: 4
#     Node 26, Type 1, BuildingBlock: GIZVER_clean_linker_0, # of connection points: 4
#     Node 27, Type 1, BuildingBlock: GIZVER_clean_linker_0, # of connection points: 4
#     Node 28, Type 1, BuildingBlock: GIZVER_clean_linker_0, # of connection points: 4
#     Node 29, Type 1, BuildingBlock: GIZVER_clean_linker_0, # of connection points: 4
#     Node 30, Type 1, BuildingBlock: GIZVER_clean_linker_0, # of connection points: 4
#     Node 31, Type 1, BuildingBlock: GIZVER_clean_linker_0, # of connection points: 4
#     Node 32, Type 1, BuildingBlock: GIZVER_clean_linker_0, # of connection points: 4
#     Node 33, Type 1, BuildingBlock: GIZVER_clean_linker_0, # of connection points: 4
#     Node 34, Type 1, BuildingBlock: GIZVER_clean_linker_0, # of connection points: 4
#     Node 35, Type 1, BuildingBlock: GIZVER_clean_linker_0, # of connection points: 4
#     Edge 36, Type (0, 1), BuildingBlock: TEMPAE_clean_linker_10, # of connection points: 2
#     Edge 37, Type (0, 1), BuildingBlock: TEMPAE_clean_linker_10, # of connection points: 2
#     Edge 38, Type (0, 1), BuildingBlock: TEMPAE_clean_linker_10, # of connection points: 2
#     Edge 39, Type (0, 1), BuildingBlock: TEMPAE_clean_linker_10, # of connection points: 2
#     Edge 40, Type (0, 1), BuildingBlock: TEMPAE_clean_linker_10, # of connection points: 2
#     Edge 41, Type (0, 1), BuildingBlock: TEMPAE_clean_linker_10, # of connection points: 2
#     Edge 42, Type (0, 1), BuildingBlock: TEMPAE_clean_linker_10, # of connection points: 2
#     Edge 43, Type (0, 1), BuildingBlock: TEMPAE_clean_linker_10, # of connection points: 2
#     Edge 44, Type (0, 1), BuildingBlock: TEMPAE_clean_linker_10, # of connection points: 2
#     Edge 45, Type (0, 1), BuildingBlock: TEMPAE_clean_linker_10, # of connection points: 2
#     Edge 46, Type (0, 1), BuildingBlock: TEMPAE_clean_linker_10, # of connection points: 2
#     Edge 47, Type (0, 1), BuildingBlock: TEMPAE_clean_linker_10, # of connection points: 2
#     Edge 48, Type (0, 1), BuildingBlock: TEMPAE_clean_linker_10, # of connection points: 2
#     Edge 49, Type (0, 1), BuildingBlock: TEMPAE_clean_linker_10, # of connection points: 2
#     Edge 50, Type (0, 1), BuildingBlock: TEMPAE_clean_linker_10, # of connection points: 2
#     Edge 51, Type (0, 1), BuildingBlock: TEMPAE_clean_linker_10, # of connection points: 2
#     Edge 52, Type (0, 1), BuildingBlock: TEMPAE_clean_linker_10, # of connection points: 2
#     Edge 53, Type (0, 1), BuildingBlock: TEMPAE_clean_linker_10, # of connection points: 2
#     Edge 54, Type (0, 1), BuildingBlock: TEMPAE_clean_linker_10, # of connection points: 2
#     Edge 55, Type (0, 1), BuildingBlock: TEMPAE_clean_linker_10, # of connection points: 2
#     Edge 56, Type (0, 1), BuildingBlock: TEMPAE_clean_linker_10, # of connection points: 2
#     Edge 57, Type (0, 1), BuildingBlock: TEMPAE_clean_linker_10, # of connection points: 2
#     Edge 58, Type (0, 1), BuildingBlock: TEMPAE_clean_linker_10, # of connection points: 2
#     Edge 59, Type (0, 1), BuildingBlock: TEMPAE_clean_linker_10, # of connection points: 2
#     Edge 60, Type (0, 1), BuildingBlock: TEMPAE_clean_linker_10, # of connection points: 2
#     Edge 61, Type (0, 1), BuildingBlock: TEMPAE_clean_linker_10, # of connection points: 2
#     Edge 62, Type (0, 1), BuildingBlock: TEMPAE_clean_linker_10, # of connection points: 2
#     Edge 63, Type (0, 1), BuildingBlock: TEMPAE_clean_linker_10, # of connection points: 2
#     Edge 64, Type (0, 1), BuildingBlock: TEMPAE_clean_linker_10, # of connection points: 2
#     Edge 65, Type (0, 1), BuildingBlock: TEMPAE_clean_linker_10, # of connection points: 2
#     Edge 66, Type (0, 1), BuildingBlock: TEMPAE_clean_linker_10, # of connection points: 2
#     Edge 67, Type (0, 1), BuildingBlock: TEMPAE_clean_linker_10, # of connection points: 2
#     Edge 68, Type (0, 1), BuildingBlock: TEMPAE_clean_linker_10, # of connection points: 2
#     Edge 69, Type (0, 1), BuildingBlock: TEMPAE_clean_linker_10, # of connection points: 2
#     Edge 70, Type (0, 1), BuildingBlock: TEMPAE_clean_linker_10, # of connection points: 2
#     Edge 71, Type (0, 1), BuildingBlock: TEMPAE_clean_linker_10, # of connection points: 2
#     Edge 72, Type (0, 1), BuildingBlock: TEMPAE_clean_linker_10, # of connection points: 2
#     Edge 73, Type (0, 1), BuildingBlock: TEMPAE_clean_linker_10, # of connection points: 2
#     Edge 74, Type (0, 1), BuildingBlock: TEMPAE_clean_linker_10, # of connection points: 2
#     Edge 75, Type (0, 1), BuildingBlock: TEMPAE_clean_linker_10, # of connection points: 2
#     Edge 76, Type (0, 1), BuildingBlock: TEMPAE_clean_linker_10, # of connection points: 2
#     Edge 77, Type (0, 1), BuildingBlock: TEMPAE_clean_linker_10, # of connection points: 2
#     Edge 78, Type (0, 1), BuildingBlock: TEMPAE_clean_linker_10, # of connection points: 2
#     Edge 79, Type (0, 1), BuildingBlock: TEMPAE_clean_linker_10, # of connection points: 2
#     Edge 80, Type (0, 1), BuildingBlock: TEMPAE_clean_linker_10, # of connection points: 2
#     Edge 81, Type (0, 1), BuildingBlock: TEMPAE_clean_linker_10, # of connection points: 2
#     Edge 82, Type (0, 1), BuildingBlock: TEMPAE_clean_linker_10, # of connection points: 2
#     Edge 83, Type (0, 1), BuildingBlock: TEMPAE_clean_linker_10, # of connection points: 2
#     Edge 84, Type (0, 1), BuildingBlock: TEMPAE_clean_linker_10, # of connection points: 2
#     Edge 85, Type (0, 1), BuildingBlock: TEMPAE_clean_linker_10, # of connection points: 2
#     Edge 86, Type (0, 1), BuildingBlock: TEMPAE_clean_linker_10, # of connection points: 2
#     Edge 87, Type (0, 1), BuildingBlock: TEMPAE_clean_linker_10, # of connection points: 2
#     Edge 88, Type (0, 1), BuildingBlock: TEMPAE_clean_linker_10, # of connection points: 2
#     Edge 89, Type (0, 1), BuildingBlock: TEMPAE_clean_linker_10, # of connection points: 2
#     Edge 90, Type (0, 1), BuildingBlock: TEMPAE_clean_linker_10, # of connection points: 2
#     Edge 91, Type (0, 1), BuildingBlock: TEMPAE_clean_linker_10, # of connection points: 2
#     Edge 92, Type (0, 1), BuildingBlock: TEMPAE_clean_linker_10, # of connection points: 2
#     Edge 93, Type (0, 1), BuildingBlock: TEMPAE_clean_linker_10, # of connection points: 2
#     Edge 94, Type (0, 1), BuildingBlock: TEMPAE_clean_linker_10, # of connection points: 2
#     Edge 95, Type (0, 1), BuildingBlock: TEMPAE_clean_linker_10, # of connection points: 2
#     Edge 96, Type (0, 1), BuildingBlock: TEMPAE_clean_linker_10, # of connection points: 2
#     Edge 97, Type (0, 1), BuildingBlock: TEMPAE_clean_linker_10, # of connection points: 2
#     Edge 98, Type (0, 1), BuildingBlock: TEMPAE_clean_linker_10, # of connection points: 2
#     Edge 99, Type (0, 1), BuildingBlock: TEMPAE_clean_linker_10, # of connection points: 2
#     Edge 100, Type (0, 1), BuildingBlock: TEMPAE_clean_linker_10, # of connection points: 2
#     Edge 101, Type (0, 1), BuildingBlock: TEMPAE_clean_linker_10, # of connection points: 2
#     Edge 102, Type (0, 1), BuildingBlock: TEMPAE_clean_linker_10, # of connection points: 2
#     Edge 103, Type (0, 1), BuildingBlock: TEMPAE_clean_linker_10, # of connection points: 2
#     Edge 104, Type (0, 1), BuildingBlock: TEMPAE_clean_linker_10, # of connection points: 2
#     Edge 105, Type (0, 1), BuildingBlock: TEMPAE_clean_linker_10, # of connection points: 2
#     Edge 106, Type (0, 1), BuildingBlock: TEMPAE_clean_linker_10, # of connection points: 2
#     Edge 107, Type (0, 1), BuildingBlock: TEMPAE_clean_linker_10, # of connection points: 2
# Relax obj value: 0.020
# Max RMSD: 0.064
# Mean RMSD: 0.054
data_MOF--net-ptr--node1-QUQFOY_clean_sbu_1--node2-GIZVER_clean_linker_0--edge1-TEMPAE_clean_linker_10
_symmetry_space_group_name_H-M    P1
_symmetry_Int_Tables_number       1
_symmetry_cell_setting            triclinic
loop_
_symmetry_equiv_pos_as_xyz
'x, y, z'
_cell_length_a     82.049278
_cell_length_b     82.078225
_cell_length_c     50.63789
_cell_angle_alpha  90.136207
_cell_angle_beta   90.33558
_cell_angle_gamma 119.97475
loop_
_atom_site_label
_atom_site_type_symbol
_atom_site_fract_x
_atom_site_fract_y
_atom_site_fract_z
_atom_type_partial_charge
O0 O 0.03199 0.4198 0.03631 0.0
Cd1 Cd 0.03493 0.40684 0.00285 0.0
Cd2 Cd 0.99623 0.38782 0.0086 0.0
O3 O 1.00167 0.4018 0.04422 0.0
O4 O 0.06233 0.41477 0.00376 0.0
O5 O 0.03982 0.38501 0.00568 0.0
C6 C 0.05755 0.39732 0.00614 0.0
C7 C 0.9747 0.35546 0.00589 0.0
C8 C 0.0177 0.41554 0.05057 0.0
C9 C 1.01323 0.41344 0.96121 0.0
O10 O 0.99898 0.40391 0.97571 0.0
O11 O 0.02911 0.41512 0.96705 0.0
O12 O 0.96918 0.3676 0.00796 0.0
O13 O 0.9926 0.36162 0.00593 0.0
O14 O 0.60745 0.6135 0.0523 0.0
Cd15 Cd 0.61742 0.62808 0.01716 0.0
Cd16 Cd 0.63583 0.60725 0.01731 0.0
O17 O 0.62306 0.59805 0.05331 0.0
O18 O 0.61057 0.64827 0.01949 0.0
O19 O 0.63997 0.65445 0.01644 0.0
C20 C 0.62825 0.66054 0.01872 0.0
C21 C 0.6677 0.6166 0.01214 0.0
C22 C 0.61134 0.60199 0.06355 0.0
C23 C 0.60769 0.59981 0.97342 0.0
O24 O 0.61875 0.59533 0.98474 0.0
O25 O 0.6057 0.61321 0.98241 0.0
O26 O 0.65508 0.59919 0.01507 0.0
O27 O 0.66228 0.62892 0.01283 0.0
O28 O 0.42259 0.0219 0.97669 0.0
Cd29 Cd 0.41486 0.02994 0.01084 0.0
Cd30 Cd 0.393 0.99044 0.0163 0.0
O31 O 0.40706 0.99104 0.98202 0.0
O32 O 0.42394 0.05743 0.00707 0.0
O33 O 0.39384 0.03603 0.01005 0.0
C34 C 0.40664 0.05348 0.00748 0.0
C35 C 0.36072 0.96859 0.01932 0.0
C36 C 0.41841 1.00549 0.96891 0.0
C37 C 0.42191 0.01302 0.05897 0.0
O38 O 0.40825 0.99731 0.05131 0.0
O39 O 0.42705 0.0278 0.04546 0.0
O40 O 0.37322 0.96361 0.02214 0.0
O41 O 0.36639 0.98603 0.01429 0.0
O42 O 0.99878 0.60243 0.97083 0.0
Cd43 Cd 0.99606 0.61449 0.00535 0.0
Cd44 Cd 0.03479 0.63459 0.00185 0.0
O45 O 0.02948 0.62063 0.96628 0.0
O46 O 0.96888 0.60707 0.008 0.0
O47 O 0.99156 0.63647 0.00237 0.0
C48 C 0.97383 0.62451 0.00476 0.0
C49 C 0.05562 0.66706 0.00436 0.0
C50 C 1.01379 0.6073 0.95797 0.0
C51 C 0.01834 0.60837 0.04775 0.0
O52 O 0.03302 0.61899 0.03462 0.0
O53 O 1.00235 0.60578 0.04041 0.0
O54 O 0.06151 0.65544 -0.00027 0.0
O55 O 0.03773 0.66032 0.00711 0.0
O56 O 0.42096 0.40143 0.98582 0.0
Cd57 Cd 0.4079 0.38557 0.01869 0.0
Cd58 Cd 0.38932 0.40626 0.01634 0.0
O59 O 0.40456 0.41602 0.98164 0.0
O60 O 0.41368 0.3646 0.01988 0.0
O61 O 0.38492 0.35991 0.01362 0.0
C62 C 0.39604 0.35308 0.01579 0.0
C63 C 0.35726 0.39731 0.01736 0.0
C64 C 0.41738 0.41281 0.97355 0.0
C65 C 0.41478 0.41206 0.06363 0.0
O66 O 0.40413 0.41675 0.05153 0.0
O67 O 0.41749 0.39921 0.05439 0.0
O68 O 0.37026 0.41475 0.01733 0.0
O69 O 0.36235 0.38476 0.01597 0.0
O70 O 0.60886 0.9895 0.03779 0.0
Cd71 Cd 0.62151 0.98748 0.0036 0.0
Cd72 Cd 0.64023 0.02646 0.01187 0.0
O73 O 0.62763 0.01931 0.04841 0.0
O74 O 0.61282 0.9599 0.00241 0.0
O75 O 0.64282 0.98173 0.00529 0.0
C76 C 0.63013 0.96412 0.00481 0.0
C77 C 0.67221 0.04912 0.00759 0.0
C78 C 0.61374 1.00321 0.05368 0.0
C79 C 0.61369 0.01014 0.96496 0.0
O80 O 0.6227 0.02397 0.98069 0.0
O81 O 0.6131 0.99453 0.96884 0.0
O82 O 0.65991 0.05377 0.01409 0.0
O83 O 0.66644 0.03143 0.00417 0.0
O84 O 0.70078 0.75277 0.36873 0.0
Cd85 Cd 0.70007 0.73667 0.33673 0.0
Cd86 Cd 0.6624 0.71925 0.34771 0.0
O87 O 0.67194 0.73395 0.38285 0.0
O88 O 0.7267 0.74237 0.33225 0.0
O89 O 0.7036 0.71441 0.34387 0.0
C90 C 0.72131 0.72536 0.33939 0.0
C91 C 0.63975 0.68709 0.34644 0.0
C92 C 0.68805 0.74852 0.38593 0.0
C93 C 0.67581 0.74223 0.29811 0.0
O94 O 0.66302 0.73496 0.31547 0.0
O95 O 0.69123 0.74224 0.30113 0.0
O96 O 0.63536 0.69961 0.35293 0.0
O97 O 0.65722 0.69277 0.34145 0.0
O98 O 0.27326 0.95325 0.37587 0.0
Cd99 Cd 0.28551 0.96923 0.3426 0.0
Cd100 Cd 0.30683 0.9515 0.34846 0.0
O101 O 0.29414 0.9445 0.385 0.0
O102 O 0.27743 0.98857 0.34317 0.0
O103 O 0.30729 0.99591 0.34473 0.0
C104 C 0.29494 1.0013 0.34498 0.0
C105 C 0.33868 0.95996 0.34473 0.0
C106 C 0.27938 0.94505 0.39084 0.0
C107 C 0.27961 0.94096 0.30167 0.0
O108 O 0.29001 0.93719 0.31618 0.0
O109 O 0.27717 0.95469 0.30733 0.0
O110 O 0.32579 0.94294 0.34958 0.0
O111 O 0.33357 0.97247 0.34267 0.0
O112 O 0.09172 0.36483 0.32312 0.0
Cd113 Cd 0.07809 0.36769 0.35553 0.0
Cd114 Cd 0.05714 0.32933 0.3488 0.0
O115 O 0.07117 0.33523 0.31313 0.0
O116 O 0.08538 0.39481 0.3575 0.0
O117 O 0.05622 0.37202 0.34969 0.0
C118 C 0.06807 0.38979 0.35244 0.0
C119 C 0.0249 0.30722 0.35104 0.0
C120 C 0.08601 0.35064 0.30787 0.0
C121 C 0.08252 0.34512 0.39738 0.0
O122 O 0.07263 0.33111 0.38233 0.0
O123 O 0.08514 0.3613 0.39156 0.0
O124 O 0.03732 0.30212 0.34846 0.0
O125 O 0.03061 0.32501 0.35141 0.0
O126 O 0.6639 0.92929 0.31274 0.0
Cd127 Cd 0.65656 0.93731 0.34728 0.0
Cd128 Cd 0.69551 0.9564 0.35438 0.0
O129 O 0.69457 0.94297 0.31929 0.0
O130 O 0.6302 0.93152 0.3403 0.0
O131 O 0.65347 0.96024 0.34942 0.0
C132 C 0.63597 0.94917 0.34345 0.0
C133 C 0.71845 0.98829 0.35919 0.0
C134 C 0.68004 0.93254 0.3054 0.0
C135 C 0.67125 0.92721 0.39502 0.0
O136 O 0.68747 0.94023 0.38817 0.0
O137 O 0.65675 0.92336 0.38118 0.0
O138 O 0.72275 0.9752 0.35989 0.0
O139 O 0.70096 0.98331 0.35553 0.0
O140 O 0.08777 0.73904 0.30496 0.0
Cd141 Cd 0.0762 0.72363 0.3387 0.0
Cd142 Cd 0.05591 0.74258 0.33621 0.0
O143 O 0.07037 0.75257 0.30098 0.0
O144 O 0.08448 0.70448 0.34 0.0
O145 O 0.05466 0.69683 0.33592 0.0
C146 C 0.06709 0.69159 0.33747 0.0
C147 C 0.02338 0.73123 0.33854 0.0
C148 C 0.08347 0.74988 0.29263 0.0
C149 C 0.08267 0.75082 0.38253 0.0
O150 O 0.07111 0.75441 0.3707 0.0
O151 O 0.08607 0.73837 0.37355 0.0
O152 O 0.03536 0.74898 0.3375 0.0
O153 O 0.02978 0.71971 0.33732 0.0
O154 O 0.27365 0.3222 0.3774 0.0
Cd155 Cd 0.2878 0.32155 0.34396 0.0
Cd156 Cd 0.3055 0.36008 0.35399 0.0
O157 O 0.29154 0.35186 0.38949 0.0
O158 O 0.28011 0.29425 0.34134 0.0
O159 O 0.30971 0.31676 0.34635 0.0
C160 C 0.29753 0.29903 0.34447 0.0
C161 C 0.33753 0.38292 0.35198 0.0
C162 C 0.27767 0.33553 0.39369 0.0
C163 C 0.28083 0.34477 0.30526 0.0
O164 O 0.28911 0.35827 0.3217 0.0
O165 O 0.28031 0.32918 0.30897 0.0
O166 O 0.32498 0.38732 0.35812 0.0
O167 O 0.33197 0.36537 0.3477 0.0
O168 O 0.36044 0.0804 0.72134 0.0
Cd169 Cd 0.36616 0.07099 0.68663 0.0
Cd170 Cd 0.32629 0.05099 0.68336 0.0
O171 O 0.32936 0.06515 0.71845 0.0
O172 O 0.39374 0.07953 0.68811 0.0
O173 O 0.37167 0.04957 0.68821 0.0
C174 C 0.38933 0.06212 0.68915 0.0
C175 C 0.30448 0.01869 0.68042 0.0
C176 C 0.34451 0.0766 0.73042 0.0
C177 C 0.34732 0.07893 0.64041 0.0
O178 O 0.33144 0.06672 0.64952 0.0
O179 O 0.36253 0.08225 0.65192 0.0
O180 O 0.29911 0.03096 0.68227 0.0
O181 O 0.32234 0.02468 0.68053 0.0
O182 O 0.93453 0.28158 0.70676 0.0
Cd183 Cd 0.94945 0.29653 0.6741 0.0
Cd184 Cd 0.96907 0.27896 0.68626 0.0
O185 O 0.95481 0.27351 0.72163 0.0
O186 O 0.94256 0.3166 0.67025 0.0
O187 O 0.97175 0.32282 0.67742 0.0
C188 C 0.96002 0.32885 0.67437 0.0
C189 C 1.00155 0.29035 0.68494 0.0
C190 C 0.93969 0.27405 0.72434 0.0
C191 C 0.94493 0.26667 0.6368 0.0
O192 O 0.95374 0.26274 0.6541 0.0
O193 O 0.94317 0.28113 0.63956 0.0
O194 O 0.98996 0.2734 0.69225 0.0
O195 O 0.99479 0.30116 0.67921 0.0
O196 O 0.74678 0.68263 0.63591 0.0
Cd197 Cd 0.7394 0.69069 0.67039 0.0
Cd198 Cd 0.7191 0.65203 0.67639 0.0
O199 O 0.73259 0.65193 0.64184 0.0
O200 O 0.74651 0.7174 0.66379 0.0
O201 O 0.71733 0.69522 0.67235 0.0
C202 C 0.72908 0.71256 0.66677 0.0
C203 C 0.6868 0.63103 0.68073 0.0
C204 C 0.74325 0.66641 0.62828 0.0
C205 C 0.74844 0.67556 0.71823 0.0
O206 O 0.73489 0.65966 0.71094 0.0
O207 O 0.75316 0.69015 0.70443 0.0
O208 O 0.69896 0.62559 0.68345 0.0
O209 O 0.69283 0.64843 0.67494 0.0
O210 O 0.33103 0.26873 0.64884 0.0
Cd211 Cd 0.32474 0.27898 0.68243 0.0
Cd212 Cd 0.3635 0.29891 0.68498 0.0
O213 O 0.36208 0.28437 0.65103 0.0
O214 O 0.29782 0.27172 0.67696 0.0
O215 O 0.32064 0.3013 0.68154 0.0
C216 C 0.30302 0.28935 0.67771 0.0
C217 C 0.38431 0.33134 0.68768 0.0
C218 C 0.3469 0.2723 0.63972 0.0
C219 C 0.34225 0.27194 0.72956 0.0
O220 O 0.35787 0.28384 0.7195 0.0
O221 O 0.32682 0.26806 0.71828 0.0
O222 O 0.39013 0.31945 0.68993 0.0
O223 O 0.3666 0.32494 0.68334 0.0
O224 O 0.75535 0.07722 0.63226 0.0
Cd225 Cd 0.74649 0.06072 0.66575 0.0
Cd226 Cd 0.72732 0.08103 0.6721 0.0
O227 O 0.74182 0.09446 0.63818 0.0
O228 O 0.75507 0.042 0.6607 0.0
O229 O 0.72511 0.03378 0.66371 0.0
C230 C 0.73769 0.02886 0.66068 0.0
C231 C 0.69498 0.07029 0.67579 0.0
C232 C 0.75247 0.09041 0.62496 0.0
C233 C 0.75486 0.08449 0.71496 0.0
O234 O 0.74264 0.08859 0.70694 0.0
O235 O 0.75849 0.07363 0.70143 0.0
O236 O 0.70739 0.08787 0.67811 0.0
O237 O 0.70086 0.05869 0.67052 0.0
O238 O 0.93933 0.65737 0.69883 0.0
Cd239 Cd 0.95323 0.6555 0.66587 0.0
Cd240 Cd 0.97225 0.6946 0.67429 0.0
O241 O 0.95786 0.68735 0.7093 0.0
O242 O 0.9453 0.62814 0.66237 0.0
O243 O 0.9745 0.6501 0.67163 0.0
C244 C 0.96235 0.63251 0.66801 0.0
C245 C 1.0041 0.71804 0.67369 0.0
C246 C 0.94382 0.67128 0.71428 0.0
C247 C 0.94738 0.67855 0.62561 0.0
O248 O 0.95622 0.69235 0.64139 0.0
O249 O 0.94626 0.66279 0.63012 0.0
O250 O 0.99095 0.72217 0.67603 0.0
O251 O 0.99928 0.70048 0.67225 0.0
H252 H 0.16962 0.34871 0.1453 0.0
H253 H 0.16002 0.35407 0.06278 0.0
H254 H 0.13352 0.36975 0.12261 0.0
H255 H 0.17175 0.32804 0.10501 0.0
H256 H 0.17735 0.33921 0.07383 0.0
H257 H 0.19448 0.34757 0.14541 0.0
H258 H 0.25159 0.36865 0.12347 0.0
H259 H 0.20961 0.35427 0.0631 0.0
C260 C 0.16409 0.35358 0.1299 0.0
C261 C 0.15205 0.36036 0.13714 0.0
C262 C 0.16798 0.35209 0.10312 0.0
C263 C 0.15841 0.35645 0.08341 0.0
C264 C 0.14548 0.36228 0.09044 0.0
C265 C 0.14327 0.36504 0.11721 0.0
C266 C 0.17879 0.34208 0.09545 0.0
C267 C 0.1996 0.35175 0.10337 0.0
C268 C 0.20492 0.35277 0.1302 0.0
C269 C 0.22372 0.35937 0.13766 0.0
C270 C 0.23718 0.36424 0.11792 0.0
C271 C 0.23224 0.36186 0.0911 0.0
C272 C 0.21355 0.35631 0.08381 0.0
H273 H 0.6741 0.82766 0.13537 0.0
H274 H 0.67691 0.81068 0.05535 0.0
H275 H 0.65657 0.77032 0.1178 0.0
H276 H 0.70149 0.84798 0.09127 0.0
H277 H 0.68716 0.84273 0.06283 0.0
H278 H 0.69197 0.85816 0.13424 0.0
H279 H 0.66686 0.89214 0.12028 0.0
H280 H 0.67126 0.85994 0.05648 0.0
C281 C 0.67146 0.81705 0.1208 0.0
C282 C 0.6645 0.79851 0.12956 0.0
C283 C 0.67569 0.82176 0.09386 0.0
C284 C 0.67283 0.8073 0.0758 0.0
C285 C 0.6661 0.78876 0.08449 0.0
C286 C 0.6615 0.78456 0.11111 0.0
C287 C 0.68663 0.84223 0.08478 0.0
C288 C 0.6801 0.85551 0.09499 0.0
C289 C 0.68423 0.86235 0.12122 0.0
C290 C 0.67941 0.87551 0.13035 0.0
C291 C 0.67107 0.88239 0.11287 0.0
C292 C 0.66911 0.87791 0.08588 0.0
C293 C 0.67285 0.86373 0.07722 0.0
H294 H 0.18048 0.81766 0.13836 0.0
H295 H 0.17899 0.80119 0.05724 0.0
H296 H 0.12759 0.7821 0.09933 0.0
H297 H 0.20762 0.81531 0.11311 0.0
H298 H 0.20835 0.81812 0.07838 0.0
H299 H 0.21123 0.84122 0.14338 0.0
H300 H 0.24773 0.89628 0.11315 0.0
H301 H 0.22189 0.84908 0.05978 0.0
C302 C 0.17256 0.81128 0.12046 0.0
C303 C 0.15283 0.80002 0.12173 0.0
C304 C 0.18221 0.81262 0.09681 0.0
C305 C 0.17177 0.80196 0.07465 0.0
C306 C 0.1521 0.79088 0.07574 0.0
C307 C 0.14278 0.79094 0.09868 0.0
C308 C 0.20351 0.82167 0.09687 0.0
C309 C 0.21406 0.84286 0.10086 0.0
C310 C 0.21716 0.85046 0.12661 0.0
C311 C 0.22938 0.86973 0.13104 0.0
C312 C 0.23801 0.88149 0.10946 0.0
C313 C 0.23574 0.87432 0.08369 0.0
C314 C 0.22343 0.85493 0.07945 0.0
H315 H 0.36969 0.20509 0.88309 0.0
H316 H 0.38371 0.21773 0.96521 0.0
H317 H 0.34993 0.23683 0.92618 0.0
H318 H 0.39701 0.20422 0.90579 0.0
H319 H 0.39787 0.20361 0.94082 0.0
H320 H 0.36428 0.17606 0.88417 0.0
H321 H 0.35963 0.12428 0.9099 0.0
H322 H 0.39102 0.17406 0.95677 0.0
C323 C 0.36739 0.21002 0.90174 0.0
C324 C 0.35803 0.22046 0.90189 0.0
C325 C 0.37562 0.20773 0.92497 0.0
C326 C 0.3756 0.21741 0.94805 0.0
C327 C 0.36661 0.22817 0.94824 0.0
C328 C 0.35678 0.22845 0.92576 0.0
C329 C 0.38803 0.19886 0.92361 0.0
C330 C 0.37752 0.17746 0.92188 0.0
C331 C 0.36665 0.1682 0.89923 0.0
C332 C 0.35993 0.14894 0.89486 0.0
C333 C 0.36397 0.13892 0.9136 0.0
C334 C 0.3753 0.14783 0.9357 0.0
C335 C 0.38168 0.16701 0.94019 0.0
H336 H 0.85205 0.1887 0.88599 0.0
H337 H 0.87289 0.20656 0.96556 0.0
H338 H 0.89174 0.2464 0.90241 0.0
H339 H 0.85947 0.16896 0.9311 0.0
H340 H 0.85018 0.17453 0.95879 0.0
H341 H 0.84028 0.15736 0.88835 0.0
H342 H 0.78087 0.12439 0.90082 0.0
H343 H 0.81664 0.16102 0.96258 0.0
C344 C 0.86019 0.19956 0.90029 0.0
C345 C 0.87155 0.21804 0.8912 0.0
C346 C 0.86008 0.19519 0.92731 0.0
C347 C 0.87192 0.20979 0.94507 0.0
C348 C 0.88357 0.22826 0.93605 0.0
C349 C 0.88268 0.2322 0.90938 0.0
C350 C 0.85041 0.17487 0.93682 0.0
C351 C 0.83069 0.16181 0.92605 0.0
C352 C 0.82819 0.15378 0.90061 0.0
C353 C 0.8102 0.1405 0.89132 0.0
C354 C 0.79472 0.13487 0.90787 0.0
C355 C 0.79681 0.14195 0.93363 0.0
C356 C 0.81485 0.15562 0.94258 0.0
H357 H 0.84485 0.64156 0.8685 0.0
H358 H 0.84852 0.63351 0.95184 0.0
H359 H 0.89823 0.65782 0.90455 0.0
H360 H 0.81723 0.61822 0.89612 0.0
H361 H 0.8186 0.6201 0.93111 0.0
H362 H 0.82503 0.65208 0.87234 0.0
H363 H 0.78162 0.66227 0.89975 0.0
H364 H 0.79828 0.62985 0.9471 0.0
C365 C 0.85326 0.64424 0.88621 0.0
C366 C 0.87266 0.65115 0.88371 0.0
C367 C 0.84445 0.63891 0.91106 0.0
C368 C 0.85532 0.63946 0.93322 0.0
C369 C 0.87464 0.64588 0.9306 0.0
C370 C 0.88329 0.65283 0.90632 0.0
C371 C 0.8231 0.62854 0.91268 0.0
C372 C 0.81404 0.6408 0.91097 0.0
C373 C 0.81565 0.6511 0.88785 0.0
C374 C 0.80417 0.65912 0.8837 0.0
C375 C 0.79116 0.65693 0.90317 0.0
C376 C 0.78884 0.64633 0.92589 0.0
C377 C 0.80061 0.63869 0.93005 0.0
H378 H 0.82536 0.66043 0.46279 0.0
H379 H 0.83024 0.6889 0.38913 0.0
H380 H 0.79192 0.6863 0.44865 0.0
H381 H 0.8377 0.65333 0.42119 0.0
H382 H 0.8427 0.66798 0.39299 0.0
H383 H 0.85749 0.67829 0.46589 0.0
H384 H 0.91552 0.69919 0.44802 0.0
H385 H 0.87484 0.67972 0.38513 0.0
C386 C 0.82192 0.66907 0.45045 0.0
C387 C 0.8081 0.6732 0.45888 0.0
C388 C 0.83046 0.67509 0.42551 0.0
C389 C 0.82447 0.68493 0.40879 0.0
C390 C 0.81053 0.68903 0.41707 0.0
C391 C 0.80278 0.68335 0.44223 0.0
C392 C 0.84329 0.66815 0.41496 0.0
C393 C 0.86375 0.67914 0.42417 0.0
C394 C 0.86838 0.68218 0.45136 0.0
C395 C 0.88708 0.68954 0.46009 0.0
C396 C 0.90114 0.69385 0.44138 0.0
C397 C 0.89695 0.69007 0.41445 0.0
C398 C 0.87826 0.68309 0.40585 0.0
H399 H 0.3594 0.16836 0.47449 0.0
H400 H 0.3431 0.1491 0.39417 0.0
H401 H 0.33114 0.10963 0.45687 0.0
H402 H 0.3742 0.18897 0.43188 0.0
H403 H 0.36054 0.18185 0.40236 0.0
H404 H 0.35828 0.194 0.47445 0.0
H405 H 0.33116 0.22534 0.45568 0.0
H406 H 0.34424 0.19819 0.39344 0.0
C407 C 0.3518 0.15713 0.46041 0.0
C408 C 0.34514 0.13858 0.4687 0.0
C409 C 0.35011 0.16113 0.4337 0.0
C410 C 0.34287 0.14614 0.41505 0.0
C411 C 0.33685 0.12758 0.4232 0.0
C412 C 0.33668 0.12399 0.45024 0.0
C413 C 0.35948 0.18146 0.42427 0.0
C414 C 0.35015 0.19259 0.43324 0.0
C415 C 0.3512 0.19797 0.46003 0.0
C416 C 0.34464 0.21002 0.46804 0.0
C417 C 0.33671 0.21647 0.44925 0.0
C418 C 0.33748 0.21331 0.42222 0.0
C419 C 0.34353 0.20071 0.41429 0.0
H420 H 0.84634 0.16426 0.46171 0.0
H421 H 0.83757 0.12568 0.39764 0.0
H422 H 0.79269 0.11459 0.45042 0.0
H423 H 0.87123 0.14838 0.42701 0.0
H424 H 0.86584 0.15662 0.3982 0.0
H425 H 0.87643 0.16923 0.47111 0.0
H426 H 0.91727 0.22635 0.45388 0.0
H427 H 0.88486 0.18888 0.39066 0.0
C428 C 0.83744 0.1518 0.45023 0.0
C429 C 0.81873 0.14017 0.45843 0.0
C430 C 0.84445 0.14684 0.42798 0.0
C431 C 0.83222 0.13012 0.41401 0.0
C432 C 0.81357 0.11844 0.42207 0.0
C433 C 0.80696 0.12385 0.44385 0.0
C434 C 0.86514 0.15707 0.42011 0.0
C435 C 0.87794 0.17706 0.42999 0.0
C436 C 0.88288 0.18058 0.45698 0.0
C437 C 0.89678 0.19848 0.46561 0.0
C438 C 0.90615 0.21275 0.44706 0.0
C439 C 0.90223 0.20954 0.41996 0.0
C440 C 0.88783 0.19167 0.41158 0.0
H441 H 0.04819 0.54193 0.20598 0.0
H442 H 0.06095 0.55901 0.28745 0.0
H443 H 0.03082 0.57859 0.24022 0.0
H444 H 0.07555 0.54259 0.23311 0.0
H445 H 0.07409 0.54205 0.26806 0.0
H446 H 0.04933 0.51529 0.20595 0.0
H447 H 0.0326 0.462 0.24185 0.0
H448 H 0.06047 0.51234 0.28856 0.0
C449 C 0.04623 0.54847 0.22328 0.0
C450 C 0.03818 0.55999 0.22024 0.0
C451 C 0.05364 0.54713 0.2479 0.0
C452 C 0.05356 0.55823 0.26927 0.0
C453 C 0.04565 0.56986 0.2662 0.0
C454 C 0.03687 0.56953 0.24234 0.0
C455 C 0.06538 0.53756 0.2497 0.0
C456 C 0.05415 0.51621 0.24816 0.0
C457 C 0.04729 0.50708 0.22355 0.0
C458 C 0.03965 0.48752 0.22103 0.0
C459 C 0.03831 0.47708 0.24355 0.0
C460 C 0.04631 0.48593 0.2676 0.0
C461 C 0.05371 0.50542 0.27016 0.0
H462 H 0.53023 0.51873 0.23112 0.0
H463 H 0.52713 0.54081 0.30726 0.0
H464 H 0.56095 0.57806 0.24566 0.0
H465 H 0.52175 0.49949 0.27423 0.0
H466 H 0.51502 0.50775 0.30225 0.0
H467 H 0.50167 0.49272 0.23071 0.0
H468 H 0.44281 0.46278 0.24776 0.0
H469 H 0.48235 0.49524 0.30896 0.0
C470 C 0.53336 0.53051 0.24393 0.0
C471 C 0.54601 0.54877 0.23527 0.0
C472 C 0.52599 0.52741 0.26974 0.0
C473 C 0.53187 0.54301 0.28697 0.0
C474 C 0.54447 0.56138 0.27832 0.0
C475 C 0.55101 0.56399 0.25234 0.0
C476 C 0.51471 0.50748 0.28028 0.0
C477 C 0.49444 0.49657 0.27046 0.0
C478 C 0.49037 0.48961 0.24427 0.0
C479 C 0.47175 0.47731 0.23611 0.0
C480 C 0.45715 0.47242 0.25406 0.0
C481 C 0.46071 0.47859 0.28036 0.0
C482 C 0.47943 0.49079 0.28848 0.0
H483 H 0.51491 0.97519 0.21017 0.0
H484 H 0.52267 0.97675 0.29458 0.0
H485 H 0.56963 0.99355 0.2427 0.0
H486 H 0.48861 0.9552 0.24155 0.0
H487 H 0.49185 0.9596 0.27613 0.0
H488 H 0.49816 0.99007 0.21548 0.0
H489 H 0.45374 0.99976 0.23976 0.0
H490 H 0.46967 0.96781 0.28928 0.0
C491 C 0.52414 0.97925 0.22726 0.0
C492 C 0.54333 0.98555 0.22359 0.0
C493 C 0.51658 0.97664 0.25289 0.0
C494 C 0.52853 0.97986 0.2749 0.0
C495 C 0.54773 0.98577 0.27143 0.0
C496 C 0.55496 0.98922 0.24574 0.0
C497 C 0.49537 0.96663 0.25655 0.0
C498 C 0.48628 0.97881 0.25377 0.0
C499 C 0.48833 0.989 0.23038 0.0
C500 C 0.47681 0.99685 0.22528 0.0
C501 C 0.46332 0.99459 0.24398 0.0
C502 C 0.46061 0.98414 0.26693 0.0
C503 C 0.47235 0.97659 0.27207 0.0
H504 H 0.49677 0.99705 0.79953 0.0
H505 H 0.50143 0.0283 0.72871 0.0
H506 H 0.46331 0.02332 0.79013 0.0
H507 H 0.50901 0.99167 0.75617 0.0
H508 H 0.5145 1.00791 0.72981 0.0
H509 H 0.52837 0.01528 0.80324 0.0
H510 H 0.5863 0.03508 0.78641 0.0
H511 H 0.54663 0.01893 0.72253 0.0
C512 C 0.49331 1.00614 0.7883 0.0
C513 C 0.47962 0.01002 0.79802 0.0
C514 C 0.50178 0.01314 0.76356 0.0
C515 C 0.49571 0.02356 0.74823 0.0
C516 C 0.48175 0.02725 0.75771 0.0
C517 C 0.47414 0.02065 0.78272 0.0
C518 C 0.51475 1.00681 0.75169 0.0
C519 C 0.53508 0.01717 0.76158 0.0
C520 C 0.53936 0.01925 0.78889 0.0
C521 C 0.55784 0.02581 0.798 0.0
C522 C 0.5721 0.03036 0.77952 0.0
C523 C 0.56828 0.02776 0.75237 0.0
C524 C 0.54978 0.02147 0.74345 0.0
H525 H 1.00761 0.49582 0.79642 0.0
H526 H 1.00512 0.47677 0.71612 0.0
H527 H 0.98941 0.43803 0.78044 0.0
H528 H 0.03036 0.51606 0.75223 0.0
H529 H 0.01655 0.50904 0.72301 0.0
H530 H 0.01962 0.52657 0.79254 0.0
H531 H 0.98887 0.55454 0.77385 0.0
H532 H 0.99464 0.51992 0.71516 0.0
C533 C 1.00396 0.48469 0.78222 0.0
C534 C 0.99784 0.46643 0.79158 0.0
C535 C 1.00608 0.48861 0.75487 0.0
C536 C 1.00246 0.47383 0.73699 0.0
C537 C 0.99679 0.4556 0.74621 0.0
C538 C 0.99385 0.45207 0.77332 0.0
C539 C 0.01556 0.50881 0.74492 0.0
C540 C 1.00669 0.52038 0.75363 0.0
C541 C 1.0106 0.5287 0.77902 0.0
C542 C 1.00404 0.54088 0.78644 0.0
C543 C 0.99368 0.54491 0.76821 0.0
C544 C 0.99047 0.53778 0.74238 0.0
C545 C 0.9968 0.52527 0.73522 0.0
H546 H 0.5115 0.47997 0.81209 0.0
H547 H 0.50191 0.4707 0.72827 0.0
H548 H 0.45562 0.4453 0.78222 0.0
H549 H 0.53643 0.48223 0.77908 0.0
H550 H 0.53304 0.48437 0.74489 0.0
H551 H 0.53778 0.50793 0.81108 0.0
H552 H 0.57367 0.56277 0.77994 0.0
H553 H 0.54813 0.51504 0.72746 0.0
C554 C 0.50194 0.47465 0.7954 0.0
C555 C 0.48264 0.46289 0.80004 0.0
C556 C 0.50905 0.47808 0.76945 0.0
C557 C 0.49647 0.4691 0.74812 0.0
C558 C 0.47712 0.457 0.75253 0.0
C559 C 0.47042 0.45473 0.77846 0.0
C560 C 0.53014 0.48792 0.7649 0.0
C561 C 0.54032 0.50915 0.76855 0.0
C562 C 0.54347 0.51699 0.79414 0.0
C563 C 0.5555 0.53635 0.79829 0.0
C564 C 0.56407 0.54793 0.7765 0.0
C565 C 0.56193 0.5405 0.7509 0.0
C566 C 0.54966 0.52106 0.747 0.0
H567 H 0.69174 0.85392 0.5578 0.0
H568 H 0.72136 0.89236 0.6222 0.0
H569 H 0.6857 0.90222 0.57067 0.0
H570 H 0.73257 0.87019 0.58913 0.0
H571 H 0.72155 0.86309 0.61994 0.0
H572 H 0.71629 0.84784 0.5482 0.0
H573 H 0.6984 0.79082 0.56889 0.0
H574 H 0.70628 0.83071 0.62978 0.0
C575 C 0.69484 0.86607 0.56968 0.0
C576 C 0.68703 0.8772 0.56198 0.0
C577 C 0.70711 0.87121 0.59175 0.0
C578 C 0.71124 0.88767 0.60607 0.0
C579 C 0.70357 0.8989 0.59847 0.0
C580 C 0.69118 0.89325 0.57691 0.0
C581 C 0.71853 0.8617 0.59834 0.0
C582 C 0.71069 0.84135 0.58977 0.0
C583 C 0.71136 0.8369 0.56299 0.0
C584 C 0.70661 0.81858 0.55546 0.0
C585 C 0.70148 0.80477 0.57484 0.0
C586 C 0.7015 0.80892 0.6017 0.0
C587 C 0.70584 0.82723 0.60903 0.0
H588 H 0.195 0.85637 0.5508 0.0
H589 H 0.19583 0.87279 0.63209 0.0
H590 H 0.22673 0.91429 0.57332 0.0
H591 H 0.19013 0.8345 0.59136 0.0
H592 H 0.18379 0.84037 0.62195 0.0
H593 H 0.16853 0.83 0.54987 0.0
H594 H 0.1103 0.79761 0.56923 0.0
H595 H 0.15127 0.82371 0.6313 0.0
C596 C 0.1989 0.86712 0.56571 0.0
C597 C 0.21041 0.88604 0.55858 0.0
C598 C 0.19312 0.86207 0.59211 0.0
C599 C 0.19957 0.87642 0.61159 0.0
C600 C 0.21146 0.89539 0.60475 0.0
C601 C 0.21671 0.89986 0.57834 0.0
C602 C 0.18277 0.84146 0.60017 0.0
C603 C 0.16224 0.83035 0.59139 0.0
C604 C 0.15761 0.82558 0.56445 0.0
C605 C 0.13892 0.81351 0.55648 0.0
C606 C 0.1248 0.80659 0.57548 0.0
C607 C 0.12912 0.80915 0.60247 0.0
C608 C 0.14779 0.8217 0.61043 0.0
H609 H 0.1738 0.30362 0.54616 0.0
H610 H 0.18221 0.30512 0.63049 0.0
H611 H 0.22922 0.32463 0.57801 0.0
H612 H 0.14805 0.28263 0.57674 0.0
H613 H 0.15143 0.28531 0.61154 0.0
H614 H 0.14979 0.31166 0.55108 0.0
H615 H 0.11356 0.32818 0.58923 0.0
H616 H 0.13423 0.29737 0.63239 0.0
C617 C 0.18316 0.30786 0.56313 0.0
C618 C 0.20249 0.31506 0.55925 0.0
C619 C 0.17569 0.30453 0.58888 0.0
C620 C 0.18794 0.30857 0.61075 0.0
C621 C 0.20737 0.31587 0.60703 0.0
C622 C 0.2144 0.31953 0.58125 0.0
C623 C 0.15455 0.29332 0.59277 0.0
C624 C 0.145 0.3051 0.5926 0.0
C625 C 0.14332 0.3131 0.56883 0.0
C626 C 0.13167 0.32112 0.56726 0.0
C627 C 0.12267 0.32213 0.59016 0.0
C628 C 0.12321 0.3133 0.61341 0.0
C629 C 0.13453 0.30497 0.61475 0.0
C630 C 0.03594 0.44483 0.07761 0.0
C631 C 0.01978 0.42712 0.07426 0.0
C632 C 0.03835 0.45593 0.10002 0.0
C633 C 0.0244 0.44905 0.11982 0.0
C634 C 1.00784 0.4314 0.11626 0.0
C635 C 1.00566 0.42069 0.09343 0.0
C636 C 0.05613 0.47475 0.10292 0.0
C637 C 0.99277 0.42345 0.13709 0.0
C638 C 0.04173 0.4651 0.18968 0.0
C639 C 0.03576 0.47815 0.19467 0.0
C640 C 0.03788 0.45546 0.1656 0.0
C641 C 0.02821 0.45923 0.1455 0.0
C642 C 0.02257 0.47276 0.14998 0.0
C643 C 0.02637 0.48205 0.1746 0.0
C644 C 0.0442 0.44119 0.16171 0.0
C645 C 1.0125 0.47735 0.12882 0.0
H646 H 0.0468 0.45006 0.06272 0.0
H647 H 0.9931 0.40707 0.09095 0.0
H648 H 0.0527 0.48581 0.10822 0.0
H649 H 0.06492 0.47411 0.11916 0.0
H650 H 0.06458 0.47899 0.08456 0.0
H651 H 0.98007 0.41032 0.13041 0.0
H652 H 0.99841 0.42034 0.15518 0.0
H653 H 0.98856 0.43391 0.14261 0.0
H654 H 0.04959 0.46245 0.20468 0.0
H655 H 0.02181 0.49217 0.17826 0.0
H656 H 0.05429 0.44551 0.14515 0.0
H657 H 0.03196 0.4273 0.15642 0.0
H658 H 0.05106 0.4395 0.17966 0.0
H659 H 0.02106 0.4819 0.1106 0.0
H660 H 1.0096 0.48864 0.13508 0.0
H661 H 0.99896 0.4646 0.1237 0.0
C662 C 0.60115 0.57597 0.09648 0.0
C663 C 0.60141 0.5924 0.08807 0.0
C664 C 0.59129 0.56641 0.1192 0.0
C665 C 0.58174 0.57362 0.13412 0.0
C666 C 0.58188 0.59013 0.12567 0.0
C667 C 0.59159 0.59923 0.10266 0.0
C668 C 0.59127 0.54873 0.12739 0.0
C669 C 0.57212 0.59844 0.14127 0.0
C670 C 0.5448 0.54532 0.1858 0.0
C671 C 0.5553 0.55244 0.20914 0.0
C672 C 0.55339 0.55136 0.161 0.0
C673 C 0.57284 0.56486 0.1597 0.0
C674 C 0.58365 0.57116 0.18323 0.0
C675 C 0.57478 0.56475 0.20758 0.0
C676 C 0.54148 0.54403 0.13629 0.0
C677 C 0.6044 0.58551 0.18282 0.0
H678 H 0.60849 0.57045 0.08514 0.0
H679 H 0.59169 0.61188 0.09629 0.0
H680 H 0.59871 0.55107 0.1466 0.0
H681 H 0.57662 0.53712 0.1302 0.0
H682 H 0.59821 0.54421 0.11264 0.0
H683 H 0.57305 0.61101 0.1316 0.0
H684 H 0.55706 0.5878 0.14384 0.0
H685 H 0.57854 0.60256 0.16127 0.0
H686 H 0.52976 0.53576 0.18694 0.0
H687 H 0.58303 0.56995 0.22562 0.0
H688 H 0.54851 0.53969 0.12149 0.0
H689 H 0.53971 0.55538 0.12734 0.0
H690 H 0.52731 0.53188 0.14041 0.0
H691 H 0.61192 0.58083 0.16942 0.0
H692 H 0.61099 0.58808 0.20275 0.0
H693 H 0.60642 0.59904 0.17512 0.0
C694 C 0.45193 0.02652 0.08505 0.0
C695 C 0.43255 0.01374 0.08305 0.0
C696 C 0.46248 0.02623 0.10685 0.0
C697 C 0.45331 0.01319 0.1274 0.0
C698 C 0.43363 1.00064 0.12578 0.0
C699 C 0.42356 1.00089 0.10345 0.0
C700 C 0.48348 0.03946 0.10752 0.0
C701 C 0.42321 0.98683 0.14758 0.0
C702 C 0.47583 0.99503 0.17575 0.0
C703 C 0.47618 1.00461 0.19894 0.0
C704 C 0.47001 0.99892 0.15158 0.0
C705 C 0.46405 0.01241 0.15072 0.0
C706 C 0.46604 0.0233 0.17348 0.0
C707 C 0.47238 0.01948 0.19719 0.0
C708 C 0.46874 0.98746 0.12751 0.0
C709 C 0.45975 0.03773 0.17356 0.0
H710 H 0.45896 0.03632 0.06913 0.0
H711 H 0.40858 0.99104 0.10199 0.0
H712 H 0.48767 0.04791 0.12601 0.0
H713 H 0.49085 0.03122 0.10737 0.0
H714 H 0.48837 0.04919 0.09044 0.0
H715 H 0.40779 0.97872 0.14389 0.0
H716 H 0.42845 0.97678 0.14956 0.0
H717 H 0.42583 0.99439 0.16672 0.0
H718 H 0.4787 0.98352 0.17678 0.0
H719 H 0.47305 0.02725 0.21489 0.0
H720 H 0.47383 0.99649 0.10974 0.0
H721 H 0.45383 0.97663 0.12386 0.0
H722 H 0.47704 0.98023 0.13004 0.0
H723 H 0.46503 0.04687 0.15594 0.0
H724 H 0.4646 0.04674 0.19156 0.0
H725 H 0.44415 0.03041 0.17279 0.0
C726 C 0.43633 0.01855 0.9272 0.0
C727 C 0.42731 1.00342 0.94466 0.0
C728 C 0.44508 0.0171 0.90432 0.0
C729 C 0.44506 1.00016 0.89884 0.0
C730 C 0.43622 0.98488 0.91653 0.0
C731 C 0.42731 0.98664 0.93915 0.0
C732 C 0.4541 0.03365 0.88579 0.0
C733 C 0.43612 0.9667 0.91151 0.0
C734 C 0.45092 0.99478 0.82595 0.0
C735 C 0.47053 1.0031 0.82402 0.0
C736 C 0.44224 0.99245 0.85049 0.0
C737 C 0.45343 0.99836 0.87373 0.0
C738 C 0.47302 1.00503 0.87208 0.0
C739 C 0.48138 1.00738 0.84715 0.0
C740 C 0.42133 0.98524 0.85123 0.0
C741 C 0.48538 0.01112 0.89644 0.0
H742 H 0.43639 0.03156 0.93124 0.0
H743 H 0.42053 0.97493 0.95267 0.0
H744 H 0.46916 0.03811 0.8831 0.0
H745 H 0.44719 0.0295 0.86608 0.0
H746 H 0.4531 0.04589 0.89309 0.0
H747 H 0.42949 0.95651 0.92784 0.0
H748 H 0.42835 0.96012 0.89293 0.0
H749 H 0.45073 0.96953 0.90895 0.0
H750 H 0.44247 0.99118 0.80805 0.0
H751 H 0.49654 0.01377 0.84571 0.0
H752 H 0.41889 0.99704 0.85606 0.0
H753 H 0.41456 0.97449 0.86682 0.0
H754 H 0.41434 0.97902 0.83202 0.0
H755 H 0.4875 0.02487 0.90343 0.0
H756 H 0.49939 0.01267 0.89248 0.0
H757 H 0.4786 1.00087 0.91264 0.0
C758 C 0.02014 0.42409 0.9143 0.0
C759 C 1.01134 0.42341 0.93819 0.0
C760 C 0.01756 0.43278 0.89203 0.0
C761 C 1.00653 0.44163 0.89407 0.0
C762 C 0.99834 0.4417 0.91856 0.0
C763 C 1.00053 0.43225 0.94018 0.0
C764 C 0.02611 0.43194 0.8661 0.0
C765 C 0.98715 0.45161 0.92187 0.0
C766 C 1.01313 0.47409 0.83659 0.0
C767 C 0.99783 0.46224 0.82025 0.0
C768 C 0.0155 0.46807 0.8616 0.0
C769 C 1.00256 0.44962 0.87009 0.0
C770 C 0.98641 0.43815 0.85451 0.0
C771 C 0.98404 0.44478 0.83012 0.0
C772 C 0.03246 0.48106 0.87818 0.0
C773 C 0.97233 0.41831 0.86258 0.0
H774 H 0.02848 0.41723 0.9128 0.0
H775 H 0.99396 0.43197 0.95882 0.0
H776 H 0.01482 0.42458 0.85107 0.0
H777 H 0.03558 0.44636 0.85876 0.0
H778 H 0.03425 0.4245 0.86781 0.0
H779 H 0.98339 0.45202 0.94281 0.0
H780 H 0.99529 0.46624 0.91447 0.0
H781 H 0.97399 0.44433 0.91002 0.0
H782 H 0.02389 0.4876 0.82926 0.0
H783 H 0.9719 0.43574 0.81794 0.0
H784 H 0.04302 0.47641 0.8772 0.0
H785 H 0.0285 0.48062 0.89919 0.0
H786 H 0.03916 0.49583 0.87121 0.0
H787 H 0.97929 0.40968 0.86299 0.0
H788 H 0.96008 0.41154 0.84885 0.0
H789 H 0.9671 0.41817 0.88275 0.0
C790 C 0.58905 0.5965 0.93224 0.0
C791 C 0.59708 0.58914 0.94963 0.0
C792 C 0.58013 0.58696 0.90875 0.0
C793 C 0.57901 0.56955 0.90273 0.0
C794 C 0.58622 0.56162 0.92089 0.0
C795 C 0.59528 0.57156 0.94399 0.0
C796 C 0.5728 0.59597 0.88973 0.0
C797 C 0.58513 0.543 0.9154 0.0
C798 C 0.54791 0.53941 0.84565 0.0
C799 C 0.56114 0.54439 0.82541 0.0
C800 C 0.55343 0.54746 0.87104 0.0
C801 C 0.57257 0.56085 0.87612 0.0
C802 C 0.58596 0.56575 0.85581 0.0
C803 C 0.58013 0.55731 0.83091 0.0
C804 C 0.53882 0.54167 0.89237 0.0
C805 C 0.60653 0.57991 0.86036 0.0
H806 H 0.59031 0.61003 0.93651 0.0
H807 H 0.60118 0.56562 0.95752 0.0
H808 H 0.58156 0.60034 0.87169 0.0
H809 H 0.55818 0.58574 0.88353 0.0
H810 H 0.57304 0.60853 0.89841 0.0
H811 H 0.5893 0.5377 0.93284 0.0
H812 H 0.57064 0.53228 0.90933 0.0
H813 H 0.59459 0.54459 0.89883 0.0
H814 H 0.53323 0.52941 0.84156 0.0
H815 H 0.59058 0.5608 0.81569 0.0
H816 H 0.53804 0.55409 0.8993 0.0
H817 H 0.54291 0.53615 0.90963 0.0
H818 H 0.52463 0.53073 0.88544 0.0
H819 H 0.6081 0.59341 0.86751 0.0
H820 H 0.615 0.58267 0.84217 0.0
H821 H 0.61243 0.57475 0.87583 0.0
C822 C 0.99625 0.58573 0.92015 0.0
C823 C 1.01324 0.59686 0.93375 0.0
C824 C 0.99566 0.57587 0.89711 0.0
C825 C 1.01239 0.57691 0.88774 0.0
C826 C 0.02947 0.58769 0.90182 0.0
C827 C 0.02973 0.59768 0.9245 0.0
C828 C 0.97723 0.56479 0.88238 0.0
C829 C 0.04754 0.5889 0.8927 0.0
C830 C 1.00605 0.54037 0.83601 0.0
C831 C 1.00859 0.55045 0.81263 0.0
C832 C 1.00792 0.54897 0.86079 0.0
C833 C 1.01226 0.56798 0.86206 0.0
C834 C 0.01569 0.57841 0.83853 0.0
C835 C 1.01404 0.56959 0.81418 0.0
C836 C 1.00458 0.53753 0.88552 0.0
C837 C 0.02033 0.5987 0.83894 0.0
H838 H 0.98346 0.58501 0.92721 0.0
H839 H 0.04287 0.60604 0.93512 0.0
H840 H 0.97843 0.57082 0.86241 0.0
H841 H 0.97385 0.55001 0.87968 0.0
H842 H 0.96537 0.56483 0.89278 0.0
H843 H 0.05927 0.59659 0.90703 0.0
H844 H 0.04544 0.57458 0.88965 0.0
H845 H 0.05172 0.59622 0.87344 0.0
H846 H 1.00188 0.52559 0.83491 0.0
H847 H 0.01651 0.57759 0.79618 0.0
H848 H 0.9914 0.53512 0.895 0.0
H849 H 0.0162 0.5453 0.89993 0.0
H850 H 1.00335 0.52367 0.88135 0.0
H851 H 1.00845 0.59968 0.84759 0.0
H852 H 0.02311 0.60495 0.81889 0.0
H853 H 0.03288 0.60725 0.85157 0.0
C854 C 0.44577 0.42336 0.94525 0.0
C855 C 0.42853 0.42254 0.94985 0.0
C856 C 0.45628 0.43191 0.92254 0.0
C857 C 0.44923 0.43957 0.90367 0.0
C858 C 0.4321 0.43929 0.90854 0.0
C859 C 0.42202 0.43091 0.93168 0.0
C860 C 0.4746 0.43215 0.91829 0.0
C861 C 0.42397 0.44707 0.88872 0.0
C862 C 0.48047 0.47033 0.84786 0.0
C863 C 0.47516 0.45716 0.82725 0.0
C864 C 0.47237 0.46485 0.87306 0.0
C865 C 0.45859 0.44581 0.87757 0.0
C866 C 0.45357 0.43243 0.85698 0.0
C867 C 0.46207 0.43822 0.83229 0.0
C868 C 0.47834 0.47944 0.89471 0.0
C869 C 0.43898 0.41199 0.86087 0.0
H870 H 0.45107 0.41718 0.95938 0.0
H871 H 0.40874 0.4304 0.93512 0.0
H872 H 0.47297 0.42258 0.90171 0.0
H873 H 0.48586 0.44647 0.91283 0.0
H874 H 0.47919 0.42761 0.93613 0.0
H875 H 0.41133 0.44714 0.89633 0.0
H876 H 0.43465 0.46163 0.88327 0.0
H877 H 0.41998 0.43843 0.8704 0.0
H878 H 0.49062 0.48497 0.84414 0.0
H879 H 0.45832 0.42781 0.81674 0.0
H880 H 0.48288 0.4748 0.91247 0.0
H881 H 0.46623 0.48108 0.90055 0.0
H882 H 0.49004 0.49336 0.88853 0.0
H883 H 0.44354 0.4059 0.87686 0.0
H884 H 0.43645 0.40344 0.84266 0.0
H885 H 0.42545 0.41077 0.867 0.0
C886 C 0.60258 1.00388 0.91802 0.0
C887 C 0.60333 0.01221 0.94248 0.0
C888 C 0.59349 1.00655 0.89626 0.0
C889 C 0.58434 0.01723 0.89935 0.0
C890 C 0.58438 0.02497 0.92436 0.0
C891 C 0.5942 0.02269 0.9455 0.0
C892 C 0.5942 0.99846 0.86976 0.0
C893 C 0.57419 0.03579 0.92873 0.0
C894 C 0.57986 0.03979 0.83662 0.0
C895 C 0.56243 0.02578 0.82656 0.0
C896 C 0.58687 0.03752 0.86079 0.0
C897 C 0.57583 0.02121 0.87593 0.0
C898 C 0.55737 1.00801 0.86731 0.0
C899 C 0.55097 0.01032 0.84253 0.0
C900 C 0.6067 0.05186 0.86903 0.0
C901 C 0.54483 0.99085 0.88344 0.0
H902 H 0.60967 0.99581 0.9157 0.0
H903 H 0.59455 0.0289 0.96456 0.0
H904 H 0.57973 0.98883 0.86237 0.0
H905 H 0.60116 0.00996 0.85517 0.0
H906 H 0.60195 0.9906 0.87065 0.0
H907 H 0.57403 0.03931 0.94989 0.0
H908 H 0.58107 0.04906 0.91736 0.0
H909 H 0.55946 0.02749 0.92145 0.0
H910 H 0.58859 0.05205 0.82475 0.0
H911 H 0.53748 0.99939 0.83505 0.0
H912 H 0.61567 0.04527 0.8686 0.0
H913 H 0.60697 0.05673 0.88954 0.0
H914 H 0.613 0.0643 0.85586 0.0
H915 H 0.54973 0.98051 0.88175 0.0
H916 H 0.52995 0.98397 0.87661 0.0
H917 H 0.54549 0.99461 0.90464 0.0
C918 C 0.58469 0.98437 0.0804 0.0
C919 C 0.60247 1.00052 0.07778 0.0
C920 C 0.57359 0.9817 0.10274 0.0
C921 C 0.58052 0.99535 0.12318 0.0
C922 C 0.59838 0.01175 0.12059 0.0
C923 C 0.60908 0.0142 0.09784 0.0
C924 C 0.55456 0.96411 0.10464 0.0
C925 C 0.60637 0.02651 0.14214 0.0
C926 C 0.54783 0.9958 0.17605 0.0
C927 C 0.55129 0.98669 0.19689 0.0
C928 C 0.55692 0.9984 0.15164 0.0
C929 C 0.56979 0.9918 0.14815 0.0
C930 C 0.57278 0.98203 0.16884 0.0
C931 C 0.56337 0.97944 0.19278 0.0
C932 C 0.55313 1.0086 0.12984 0.0
C933 C 0.58633 0.97473 0.16598 0.0
H934 H 0.57934 0.97381 0.06488 0.0
H935 H 0.62277 0.02673 0.09596 0.0
H936 H 0.55459 0.95535 0.12126 0.0
H937 H 0.54357 0.96785 0.10882 0.0
H938 H 0.55064 0.95552 0.08625 0.0
H939 H 0.6201 0.03881 0.13664 0.0
H940 H 0.59637 0.0315 0.14672 0.0
H941 H 0.60836 0.0203 0.16046 0.0
H942 H 0.53848 1.00138 0.17912 0.0
H943 H 0.56572 0.97193 0.20856 0.0
H944 H 0.54909 1.00011 0.11139 0.0
H945 H 0.56614 0.02208 0.12567 0.0
H946 H 0.54179 0.01166 0.13501 0.0
H947 H 0.5822 0.96495 0.14888 0.0
H948 H 0.58691 0.96725 0.18391 0.0
H949 H 0.60069 0.98659 0.16209 0.0
C950 C 1.00527 0.59073 0.08989 0.0
C951 C 0.01987 0.59864 0.07144 0.0
C952 C 1.00699 0.5822 0.11294 0.0
C953 C 0.02359 0.58131 0.11744 0.0
C954 C 0.03797 0.58846 0.09827 0.0
C955 C 0.03601 0.59717 0.07563 0.0
C956 C 0.99147 0.575 0.13309 0.0
C957 C 0.05579 0.5876 0.10217 0.0
C958 C 0.03991 0.58377 0.18805 0.0
C959 C 0.03418 0.5649 0.19361 0.0
C960 C 0.03624 0.58911 0.16355 0.0
C961 C 0.02705 0.57536 0.14361 0.0
C962 C 0.0216 0.55633 0.14869 0.0
C963 C 0.02519 0.55129 0.17374 0.0
C964 C 0.04231 0.60956 0.15903 0.0
C965 C 1.01205 0.54136 0.12769 0.0
H966 H 0.99272 0.59173 0.08674 0.0
H967 H 0.04723 0.60296 0.06126 0.0
H968 H 0.98746 0.56049 0.13908 0.0
H969 H 0.99655 0.58398 0.15107 0.0
H970 H 0.97874 0.57502 0.12554 0.0
H971 H 0.0645 0.5916 0.08406 0.0
H972 H 0.0643 0.59732 0.11837 0.0
H973 H 0.0524 0.57323 0.10802 0.0
H974 H 0.04752 0.59454 0.20287 0.0
H975 H 0.02083 0.53673 0.17783 0.0
H976 H 0.03006 0.61092 0.15282 0.0
H977 H 0.05276 0.61527 0.1429 0.0
H978 H 0.04868 0.61836 0.17698 0.0
H979 H 0.99855 0.54037 0.12173 0.0
H980 H 1.00917 0.52732 0.13453 0.0
H981 H 0.02097 0.5452 0.10984 0.0
C982 C 0.44103 0.42202 0.09655 0.0
C983 C 0.42485 0.42228 0.088 0.0
C984 C 0.45101 0.432 0.11922 0.0
C985 C 0.44444 0.44218 0.13403 0.0
C986 C 0.42821 0.44263 0.12538 0.0
C987 C 0.41872 0.43283 0.10235 0.0
C988 C 0.46841 0.43142 0.12754 0.0
C989 C 0.42055 0.45304 0.14089 0.0
C990 C 0.45408 0.44882 0.2076 0.0
C991 C 0.46709 0.46814 0.20962 0.0
C992 C 0.44703 0.44016 0.18309 0.0
C993 C 0.45345 0.45095 0.1598 0.0
C994 C 0.46755 0.4702 0.1615 0.0
C995 C 0.47417 0.47862 0.18647 0.0
C996 C 0.43201 0.41962 0.18227 0.0
C997 C 0.47506 0.48206 0.13704 0.0
H998 H 0.44603 0.41413 0.08535 0.0
H999 H 0.40627 0.43313 0.09585 0.0
H1000 H 0.48032 0.4459 0.13076 0.0
H1001 H 0.46586 0.42387 0.14655 0.0
H1002 H 0.4726 0.42426 0.11266 0.0
H1003 H 0.40822 0.45262 0.131 0.0
H1004 H 0.41625 0.44674 0.16079 0.0
H1005 H 0.43163 0.46795 0.14372 0.0
H1006 H 0.44893 0.44053 0.22542 0.0
H1007 H 0.48428 0.49353 0.18792 0.0
H1008 H 0.4363 0.41166 0.16906 0.0
H1009 H 0.41876 0.41817 0.17412 0.0
H1010 H 0.42907 0.41306 0.20213 0.0
H1011 H 0.47896 0.47472 0.12208 0.0
H1012 H 0.48756 0.49601 0.14143 0.0
H1013 H 0.46396 0.4843 0.12813 0.0
C1014 C 0.67958 0.7549 0.4307 0.0
C1015 C 0.69184 0.761 0.40915 0.0
C1016 C 0.68304 0.76655 0.45283 0.0
C1017 C 0.69901 0.78486 0.4533 0.0
C1018 C 0.71117 0.7913 0.43133 0.0
C1019 C 0.70753 0.77924 0.4096 0.0
C1020 C 0.66985 0.75907 0.47602 0.0
C1021 C 0.72819 0.8108 0.43095 0.0
C1022 C 0.69794 0.81654 0.50745 0.0
C1023 C 0.70778 0.81346 0.5277 0.0
C1024 C 0.69587 0.80822 0.4824 0.0
C1025 C 0.70372 0.79652 0.47775 0.0
C1026 C 0.7148 0.79454 0.49761 0.0
C1027 C 0.71681 0.80316 0.52222 0.0
C1028 C 0.68432 0.81103 0.46151 0.0
C1029 C 0.72345 0.78224 0.49356 0.0
H1030 H 0.66741 0.74086 0.4305 0.0
H1031 H 0.71696 0.78417 0.39289 0.0
H1032 H 0.67759 0.75842 0.49368 0.0
H1033 H 0.66444 0.76867 0.48086 0.0
H1034 H 0.6577 0.74479 0.47217 0.0
H1035 H 0.73534 0.81423 0.41152 0.0
H1036 H 0.72404 0.82144 0.43565 0.0
H1037 H 0.73842 0.812 0.44633 0.0
H1038 H 0.69099 0.82454 0.51164 0.0
H1039 H 0.72473 0.80107 0.53775 0.0
H1040 H 0.67049 0.79797 0.45938 0.0
H1041 H 0.69139 0.81391 0.44208 0.0
H1042 H 0.68183 0.82278 0.46659 0.0
H1043 H 0.71214 0.76733 0.49162 0.0
H1044 H 0.73284 0.78336 0.51022 0.0
H1045 H 0.73168 0.78606 0.47506 0.0
C1046 C 0.24873 0.92413 0.41236 0.0
C1047 C 0.26839 0.93489 0.4142 0.0
C1048 C 0.23793 0.91401 0.43411 0.0
C1049 C 0.24697 0.91534 0.45856 0.0
C1050 C 0.26686 0.92622 0.46049 0.0
C1051 C 0.27738 0.93557 0.43808 0.0
C1052 C 0.21685 0.90201 0.43098 0.0
C1053 C 0.27699 0.92848 0.48641 0.0
C1054 C 0.21954 0.9089 0.52133 0.0
C1055 C 0.2172 0.89185 0.53105 0.0
C1056 C 0.22902 0.91657 0.49768 0.0
C1057 C 0.2356 0.90654 0.48259 0.0
C1058 C 0.23199 0.88861 0.49112 0.0
C1059 C 0.22307 0.88158 0.51547 0.0
C1060 C 0.23281 0.93586 0.48958 0.0
C1061 C 0.23813 0.87716 0.47501 0.0
H1062 H 0.24182 0.92336 0.39369 0.0
H1063 H 0.29259 0.94389 0.43943 0.0
H1064 H 0.21202 0.88761 0.43844 0.0
H1065 H 0.20978 0.908 0.44286 0.0
H1066 H 0.21223 0.90099 0.41007 0.0
H1067 H 0.2925 0.93735 0.48456 0.0
H1068 H 0.27209 0.93502 0.50126 0.0
H1069 H 0.27367 0.91453 0.4941 0.0
H1070 H 0.21455 0.91669 0.53278 0.0
H1071 H 0.22141 0.86844 0.52272 0.0
H1072 H 0.22689 0.93525 0.46962 0.0
H1073 H 0.24821 0.94564 0.48855 0.0
H1074 H 0.22671 0.94179 0.50356 0.0
H1075 H 0.23393 0.87662 0.45401 0.0
H1076 H 0.23203 0.86256 0.48244 0.0
H1077 H 0.25368 0.8839 0.47568 0.0
C1078 C 0.09947 0.35671 0.44076 0.0
C1079 C 0.09155 0.34262 0.42129 0.0
C1080 C 0.10778 0.35429 0.46364 0.0
C1081 C 0.1084 0.33748 0.46698 0.0
C1082 C 0.10102 0.32349 0.44698 0.0
C1083 C 0.09257 0.32616 0.42449 0.0
C1084 C 0.11524 0.36941 0.48471 0.0
C1085 C 0.10155 0.30544 0.44967 0.0
C1086 C 0.13942 0.33483 0.52132 0.0
C1087 C 0.12623 0.32564 0.54133 0.0
C1088 C 0.13391 0.33883 0.4969 0.0
C1089 C 0.11481 0.3336 0.49255 0.0
C1090 C 0.10147 0.32423 0.51262 0.0
C1091 C 0.10728 0.32017 0.5365 0.0
C1092 C 0.14845 0.34859 0.47576 0.0
C1093 C 0.08096 0.31837 0.50886 0.0
H1094 H 0.09881 0.36949 0.43841 0.0
H1095 H 0.08673 0.3153 0.40939 0.0
H1096 H 0.1066 0.36394 0.50276 0.0
H1097 H 0.12988 0.37338 0.49018 0.0
H1098 H 0.11502 0.38223 0.47828 0.0
H1099 H 0.09694 0.29684 0.43128 0.0
H1100 H 0.11599 0.30853 0.45481 0.0
H1101 H 0.09219 0.29694 0.46595 0.0
H1102 H 0.15405 0.33902 0.52483 0.0
H1103 H 0.0968 0.31244 0.55139 0.0
H1104 H 0.1493 0.36212 0.47058 0.0
H1105 H 0.14426 0.33982 0.45756 0.0
H1106 H 0.16264 0.35145 0.48205 0.0
H1107 H 0.0796 0.33077 0.50367 0.0
H1108 H 0.07252 0.31181 0.52683 0.0
H1109 H 0.07485 0.30817 0.49228 0.0
C1110 C 0.11681 0.36269 0.28519 0.0
C1111 C 0.09711 0.35201 0.28426 0.0
C1112 C 0.12763 0.3641 0.26302 0.0
C1113 C 0.11849 0.35522 0.23907 0.0
C1114 C 0.09857 0.34445 0.23804 0.0
C1115 C 0.08813 0.34269 0.26081 0.0
C1116 C 0.14883 0.37512 0.2652 0.0
C1117 C 0.08826 0.33519 0.21269 0.0
C1118 C 0.14308 0.37483 0.17395 0.0
C1119 C 0.1466 0.36063 0.16518 0.0
C1120 C 0.13432 0.37344 0.19819 0.0
C1121 C 0.12963 0.35785 0.2147 0.0
C1122 C 0.13455 0.34427 0.20705 0.0
C1123 C 0.14272 0.34565 0.18221 0.0
C1124 C 0.12909 0.38811 0.20537 0.0
C1125 C 0.13042 0.3278 0.22455 0.0
H1126 H 0.12378 0.36969 0.30346 0.0
H1127 H 0.07289 0.33449 0.26008 0.0
H1128 H 0.15482 0.36633 0.25847 0.0
H1129 H 0.15452 0.38758 0.25218 0.0
H1130 H 0.15375 0.37998 0.28572 0.0
H1131 H 0.07274 0.3275 0.21513 0.0
H1132 H 0.09199 0.34599 0.19717 0.0
H1133 H 0.0926 0.32515 0.20554 0.0
H1134 H 0.14648 0.38672 0.16129 0.0
H1135 H 0.1452 0.3345 0.17571 0.0
H1136 H 0.1349 0.39426 0.22507 0.0
H1137 H 0.11355 0.38143 0.20654 0.0
H1138 H 0.13426 0.39968 0.19075 0.0
H1139 H 0.13492 0.3326 0.24518 0.0
H1140 H 0.13757 0.32013 0.21765 0.0
H1141 H 0.11504 0.31783 0.22475 0.0
C1142 C 0.68165 0.75235 0.2509 0.0
C1143 C 0.67307 0.75164 0.27502 0.0
C1144 C 0.67912 0.76129 0.22892 0.0
C1145 C 0.66826 0.77028 0.23138 0.0
C1146 C 0.65995 0.77 0.2559 0.0
C1147 C 0.6622 0.76042 0.27731 0.0
C1148 C 0.68785 0.76087 0.20293 0.0
C1149 C 0.6488 0.77992 0.25956 0.0
C1150 C 0.67752 0.80479 0.17583 0.0
C1151 C 0.66287 0.79363 0.15815 0.0
C1152 C 0.67869 0.79791 0.20077 0.0
C1153 C 0.66512 0.77931 0.20788 0.0
C1154 C 0.64949 0.76862 0.19104 0.0
C1155 C 0.64838 0.77606 0.16663 0.0
C1156 C 0.69518 0.81006 0.21863 0.0
C1157 C 0.63477 0.74869 0.19767 0.0
H1158 H 0.69003 0.74556 0.24907 0.0
H1159 H 0.65578 0.76015 0.29607 0.0
H1160 H 0.67676 0.75427 0.18747 0.0
H1161 H 0.69781 0.77542 0.19648 0.0
H1162 H 0.69554 0.75294 0.20416 0.0
H1163 H 0.644 0.77913 0.28023 0.0
H1164 H 0.65749 0.79494 0.25404 0.0
H1165 H 0.63629 0.77362 0.24633 0.0
H1166 H 0.68881 0.81837 0.16955 0.0
H1167 H 0.63677 0.76753 0.15333 0.0
H1168 H 0.7055 0.80509 0.2179 0.0
H1169 H 0.69057 0.80904 0.23941 0.0
H1170 H 0.70241 0.82506 0.21261 0.0
H1171 H 0.64118 0.73957 0.19694 0.0
H1172 H 0.62264 0.74292 0.18371 0.0
H1173 H 0.62947 0.74792 0.21798 0.0
C1174 C 0.26826 0.91106 0.27608 0.0
C1175 C 0.27001 0.92891 0.27836 0.0
C1176 C 0.25963 0.8996 0.25389 0.0
C1177 C 0.25287 0.90628 0.23324 0.0
C1178 C 0.25412 0.92407 0.23573 0.0
C1179 C 0.26255 0.93512 0.25837 0.0
C1180 C 0.25833 0.88062 0.25215 0.0
C1181 C 0.24732 0.9318 0.21396 0.0
C1182 C 0.2542 0.88997 0.16376 0.0
C1183 C 0.23509 0.87766 0.15815 0.0
C1184 C 0.26008 0.8992 0.18814 0.0
C1185 C 0.24658 0.89573 0.20781 0.0
C1186 C 0.22733 0.88262 0.20284 0.0
C1187 C 0.22178 0.87375 0.17795 0.0
C1188 C 0.28075 0.91303 0.19257 0.0
C1189 C 0.2126 0.87832 0.22356 0.0
H1190 H 0.27373 0.90602 0.29163 0.0
H1191 H 0.26378 0.94886 0.26003 0.0
H1192 H 0.24385 0.86961 0.24652 0.0
H1193 H 0.26791 0.88087 0.23657 0.0
H1194 H 0.26222 0.87657 0.27108 0.0
H1195 H 0.248 0.9452 0.21975 0.0
H1196 H 0.25609 0.93438 0.19616 0.0
H1197 H 0.23261 0.92144 0.20836 0.0
H1198 H 0.26463 0.89263 0.1488 0.0
H1199 H 0.20701 0.86417 0.17374 0.0
H1200 H 0.28605 0.90879 0.20991 0.0
H1201 H 0.28279 0.9272 0.19688 0.0
H1202 H 0.28942 0.91408 0.17519 0.0
H1203 H 0.21671 0.87441 0.24239 0.0
H1204 H 0.19852 0.86671 0.21739 0.0
H1205 H 0.21154 0.89105 0.22754 0.0
C1206 C 0.6981 0.9228 0.27565 0.0
C1207 C 0.68172 0.92359 0.28087 0.0
C1208 C 0.69958 0.91397 0.25268 0.0
C1209 C 0.68445 0.90603 0.23433 0.0
C1210 C 0.66785 0.90667 0.23961 0.0
C1211 C 0.66664 0.91533 0.26285 0.0
C1212 C 0.7174 0.91335 0.24788 0.0
C1213 C 0.65149 0.89862 0.22037 0.0
C1214 C 0.69209 0.90279 0.16142 0.0
C1215 C 0.68388 0.88331 0.15761 0.0
C1216 C 0.69328 0.91046 0.18655 0.0
C1217 C 0.68635 0.89837 0.20857 0.0
C1218 C 0.67945 0.87882 0.20518 0.0
C1219 C 0.67825 0.87148 0.17963 0.0
C1220 C 0.70076 0.93135 0.18919 0.0
C1221 C 0.67227 0.86553 0.22827 0.0
H1222 H 0.70973 0.92896 0.28961 0.0
H1223 H 0.65393 0.91585 0.26671 0.0
H1224 H 0.714 0.8987 0.24374 0.0
H1225 H 0.72465 0.92183 0.23025 0.0
H1226 H 0.72727 0.91886 0.26498 0.0
H1227 H 0.63936 0.89972 0.22781 0.0
H1228 H 0.656 0.90617 0.2013 0.0
H1229 H 0.64672 0.8836 0.21635 0.0
H1230 H 0.69683 0.91202 0.14444 0.0
H1231 H 0.67198 0.85643 0.17675 0.0
H1232 H 0.71151 0.93742 0.20514 0.0
H1233 H 0.68911 0.93387 0.19464 0.0
H1234 H 0.7071 0.93898 0.17057 0.0
H1235 H 0.68215 0.87135 0.24529 0.0
H1236 H 0.67023 0.85146 0.22313 0.0
H1237 H 0.65858 0.86376 0.2347 0.0
C1238 C 0.08764 0.76827 0.25108 0.0
C1239 C 0.09433 0.75981 0.26882 0.0
C1240 C 0.09763 0.77701 0.228 0.0
C1241 C 0.11483 0.77751 0.22275 0.0
C1242 C 0.12203 0.76973 0.24119 0.0
C1243 C 0.11165 0.76088 0.26385 0.0
C1244 C 0.08937 0.78493 0.20865 0.0
C1245 C 0.14038 0.7701 0.2365 0.0
C1246 C 0.12886 0.77617 0.15207 0.0
C1247 C 0.14285 0.79492 0.14757 0.0
C1248 C 0.11929 0.7706 0.17605 0.0
C1249 C 0.1241 0.78394 0.19662 0.0
C1250 C 0.1383 0.80288 0.1925 0.0
C1251 C 0.14748 0.80818 0.16795 0.0
C1252 C 0.10428 0.75024 0.17953 0.0
C1253 C 0.14398 0.81743 0.21415 0.0
H1254 H 0.07432 0.76759 0.25483 0.0
H1255 H 0.11711 0.75466 0.27763 0.0
H1256 H 0.10006 0.79945 0.20306 0.0
H1257 H 0.08503 0.77628 0.19033 0.0
H1258 H 0.07691 0.78512 0.21676 0.0
H1259 H 0.14505 0.76534 0.25403 0.0
H1260 H 0.13873 0.76077 0.21959 0.0
H1261 H 0.1516 0.78451 0.23134 0.0
H1262 H 0.12559 0.76559 0.13695 0.0
H1263 H 0.15828 0.82266 0.16473 0.0
H1264 H 0.09099 0.7493 0.18623 0.0
H1265 H 0.10876 0.74369 0.19496 0.0
H1266 H 0.10137 0.74193 0.161 0.0
H1267 H 0.13154 0.8182 0.2209 0.0
H1268 H 0.15496 0.83163 0.20765 0.0
H1269 H 0.14945 0.81328 0.23141 0.0
C1270 C 0.2621 0.35772 0.28445 0.0
C1271 C 0.27111 0.34709 0.28217 0.0
C1272 C 0.25256 0.3599 0.26286 0.0
C1273 C 0.25264 0.35182 0.23817 0.0
C1274 C 0.26181 0.34113 0.23576 0.0
C1275 C 0.27065 0.33861 0.25795 0.0
C1276 C 0.24239 0.37081 0.26646 0.0
C1277 C 0.26266 0.33272 0.2096 0.0
C1278 C 0.21842 0.34374 0.18202 0.0
C1279 C 0.22941 0.35913 0.16565 0.0
C1280 C 0.22535 0.34176 0.20654 0.0
C1281 C 0.24389 0.35518 0.2145 0.0
C1282 C 0.25464 0.37124 0.19877 0.0
C1283 C 0.24711 0.3732 0.17485 0.0
C1284 C 0.21319 0.3248 0.22326 0.0
C1285 C 0.27456 0.38577 0.2063 0.0
H1286 H 0.26223 0.36406 0.30332 0.0
H1287 H 0.27766 0.33043 0.25618 0.0
H1288 H 0.24897 0.38363 0.2541 0.0
H1289 H 0.22754 0.36219 0.25981 0.0
H1290 H 0.2426 0.37511 0.28734 0.0
H1291 H 0.27058 0.32504 0.21097 0.0
H1292 H 0.24823 0.32286 0.2023 0.0
H1293 H 0.26952 0.34401 0.1947 0.0
H1294 H 0.20479 0.3327 0.17516 0.0
H1295 H 0.25552 0.38538 0.16267 0.0
H1296 H 0.21371 0.32899 0.24424 0.0
H1297 H 0.21858 0.31482 0.22239 0.0
H1298 H 0.1983 0.31734 0.21643 0.0
H1299 H 0.27506 0.39116 0.22655 0.0
H1300 H 0.28072 0.39786 0.1925 0.0
H1301 H 0.28353 0.37917 0.20629 0.0
C1302 C 0.24756 0.31594 0.41799 0.0
C1303 C 0.26541 0.33217 0.41687 0.0
C1304 C 0.23553 0.31273 0.43939 0.0
C1305 C 0.24157 0.3259 0.46043 0.0
C1306 C 0.25948 0.34239 0.45933 0.0
C1307 C 0.27113 0.34539 0.43749 0.0
C1308 C 0.21648 0.29507 0.4397 0.0
C1309 C 0.26655 0.35663 0.48156 0.0
C1310 C 0.20739 0.32536 0.5117 0.0
C1311 C 0.21048 0.31607 0.53263 0.0
C1312 C 0.21698 0.32821 0.48764 0.0
C1313 C 0.22994 0.32167 0.48465 0.0
C1314 C 0.23241 0.31156 0.50537 0.0
C1315 C 0.22253 0.30874 0.52892 0.0
C1316 C 0.21374 0.33876 0.46579 0.0
C1317 C 0.24603 0.3043 0.50308 0.0
H1318 H 0.24289 0.30575 0.402 0.0
H1319 H 0.28484 0.35798 0.43676 0.0
H1320 H 0.21593 0.28586 0.45606 0.0
H1321 H 0.20531 0.29866 0.44331 0.0
H1322 H 0.21327 0.28702 0.42089 0.0
H1323 H 0.28043 0.36912 0.47717 0.0
H1324 H 0.25632 0.36141 0.48552 0.0
H1325 H 0.26792 0.35003 0.49991 0.0
H1326 H 0.19804 0.33097 0.51448 0.0
H1327 H 0.22463 0.30116 0.54486 0.0
H1328 H 0.21055 0.33077 0.44696 0.0
H1329 H 0.22673 0.35248 0.46274 0.0
H1330 H 0.20202 0.34141 0.47027 0.0
H1331 H 0.24254 0.29504 0.48548 0.0
H1332 H 0.24593 0.29628 0.52079 0.0
H1333 H 0.26052 0.31626 0.50042 0.0
C1334 C 0.65576 0.89706 0.42047 0.0
C1335 C 0.66956 0.91613 0.41888 0.0
C1336 C 0.65512 0.88614 0.44227 0.0
C1337 C 0.66832 0.89467 0.46314 0.0
C1338 C 0.68194 0.91407 0.46186 0.0
C1339 C 0.68253 0.92446 0.43962 0.0
C1340 C 0.64075 0.86544 0.44258 0.0
C1341 C 0.69601 0.92388 0.48396 0.0
C1342 C 0.66259 0.8785 0.53375 0.0
C1343 C 0.67737 0.8746 0.53605 0.0
C1344 C 0.65808 0.88335 0.50935 0.0
C1345 C 0.6682 0.88371 0.48661 0.0
C1346 C 0.68103 0.87694 0.48819 0.0
C1347 C 0.68562 0.87261 0.51298 0.0
C1348 C 0.64421 0.89035 0.50867 0.0
C1349 C 0.69154 0.87631 0.46421 0.0
H1350 H 0.64586 0.89052 0.40427 0.0
H1351 H 0.69316 0.93922 0.43849 0.0
H1352 H 0.64802 0.85715 0.44098 0.0
H1353 H 0.633 0.86155 0.4615 0.0
H1354 H 0.63045 0.86132 0.42605 0.0
H1355 H 0.70508 0.93919 0.48043 0.0
H1356 H 0.68857 0.92194 0.50294 0.0
H1357 H 0.70518 0.9176 0.48618 0.0
H1358 H 0.65581 0.87957 0.55146 0.0
H1359 H 0.69694 0.86946 0.51446 0.0
H1360 H 0.63515 0.88522 0.49078 0.0
H1361 H 0.65206 0.90596 0.50803 0.0
H1362 H 0.63511 0.88592 0.5264 0.0
H1363 H 0.68223 0.87145 0.44653 0.0
H1364 H 0.69747 0.86689 0.4673 0.0
H1365 H 0.70333 0.89066 0.46014 0.0
C1366 C 0.10984 0.76293 0.41416 0.0
C1367 C 0.09282 0.76173 0.4064 0.0
C1368 C 0.11966 0.7732 0.43672 0.0
C1369 C 0.11208 0.78215 0.45222 0.0
C1370 C 0.09511 0.78133 0.44419 0.0
C1371 C 0.08578 0.77128 0.42122 0.0
C1372 C 0.13787 0.77401 0.44437 0.0
C1373 C 0.08637 0.79037 0.46047 0.0
C1374 C 0.12163 0.78634 0.52577 0.0
C1375 C 0.13389 0.80574 0.5292 0.0
C1376 C 0.11471 0.77856 0.50082 0.0
C1377 C 0.12055 0.79034 0.47844 0.0
C1378 C 0.1338 0.80978 0.48145 0.0
C1379 C 0.14029 0.8173 0.50692 0.0
C1380 C 0.10061 0.75778 0.49859 0.0
C1381 C 0.14067 0.82267 0.45792 0.0
H1382 H 0.11553 0.75585 0.40254 0.0
H1383 H 0.07268 0.77047 0.41528 0.0
H1384 H 0.1489 0.78872 0.44876 0.0
H1385 H 0.13579 0.76573 0.46258 0.0
H1386 H 0.14302 0.76831 0.42861 0.0
H1387 H 0.07383 0.78953 0.45063 0.0
H1388 H 0.08204 0.78326 0.47988 0.0
H1389 H 0.09679 0.80536 0.46437 0.0
H1390 H 0.11708 0.77722 0.54285 0.0
H1391 H 0.14987 0.83226 0.50946 0.0
H1392 H 0.10586 0.75087 0.48495 0.0
H1393 H 0.08717 0.75573 0.49023 0.0
H1394 H 0.09767 0.75056 0.51797 0.0
H1395 H 0.14559 0.81666 0.4423 0.0
H1396 H 0.15232 0.83693 0.46322 0.0
H1397 H 0.12891 0.824 0.4494 0.0
C1398 C 0.32962 0.0914 0.75679 0.0
C1399 C 0.34368 0.08652 0.7543 0.0
C1400 C 0.32954 0.10213 0.7784 0.0
C1401 C 0.34352 0.1076 0.7983 0.0
C1402 C 0.35742 0.10222 0.7962 0.0
C1403 C 0.3575 0.09201 0.774 0.0
C1404 C 0.31487 0.10808 0.77954 0.0
C1405 C 0.37229 0.10734 0.81735 0.0
C1406 C 0.35997 0.14886 0.84531 0.0
C1407 C 0.35169 0.13967 0.86899 0.0
C1408 C 0.35605 0.13879 0.82144 0.0
C1409 C 0.34392 0.11904 0.82141 0.0
C1410 C 0.33419 0.11001 0.84469 0.0
C1411 C 0.33794 0.12052 0.86808 0.0
C1412 C 0.36615 0.14907 0.79677 0.0
C1413 C 0.32124 0.08898 0.84564 0.0
H1414 H 0.31906 0.08737 0.74136 0.0
H1415 H 0.36833 0.08819 0.77212 0.0
H1416 H 0.30709 0.10359 0.79841 0.0
H1417 H 0.32185 0.12365 0.77888 0.0
H1418 H 0.3046 0.10215 0.76293 0.0
H1419 H 0.38143 0.1012 0.81342 0.0
H1420 H 0.3813 0.12285 0.81867 0.0
H1421 H 0.36556 0.10235 0.83686 0.0
H1422 H 0.37062 0.16363 0.84565 0.0
H1423 H 0.33111 0.11341 0.88617 0.0
H1424 H 0.35651 0.14399 0.77944 0.0
H1425 H 0.37784 0.14632 0.79275 0.0
H1426 H 0.37214 0.16451 0.79879 0.0
H1427 H 0.31149 0.084 0.82844 0.0
H1428 H 0.31283 0.08452 0.86403 0.0
H1429 H 0.32976 0.08192 0.8447 0.0
C1430 C 0.93494 0.26403 0.77158 0.0
C1431 C 0.92733 0.26474 0.7471 0.0
C1432 C 0.92324 0.25505 0.7932 0.0
C1433 C 0.90341 0.24602 0.78997 0.0
C1434 C 0.89565 0.24632 0.76508 0.0
C1435 C 0.90772 0.25596 0.74405 0.0
C1436 C 0.9321 0.25546 0.8196 0.0
C1437 C 0.87463 0.23633 0.76061 0.0
C1438 C 0.87803 0.2115 0.84518 0.0
C1439 C 0.87444 0.22265 0.86255 0.0
C1440 C 0.88607 0.21834 0.82033 0.0
C1441 C 0.891 0.23689 0.81303 0.0
C1442 C 0.88584 0.24751 0.82947 0.0
C1443 C 0.87727 0.24009 0.85377 0.0
C1444 C 0.89062 0.20625 0.80284 0.0
C1445 C 0.89093 0.2674 0.82264 0.0
H1446 H 0.95009 0.27081 0.77395 0.0
H1447 H 0.90178 0.25623 0.72498 0.0
H1448 H 0.92732 0.26191 0.83475 0.0
H1449 H 0.92756 0.24091 0.82605 0.0
H1450 H 0.94771 0.26351 0.81897 0.0
H1451 H 0.87085 0.23723 0.73977 0.0
H1452 H 0.86832 0.22128 0.76597 0.0
H1453 H 0.86819 0.24246 0.77353 0.0
H1454 H 0.87589 0.198 0.85169 0.0
H1455 H 0.87409 0.2486 0.86685 0.0
H1456 H 0.90589 0.2112 0.80421 0.0
H1457 H 0.88728 0.20735 0.78188 0.0
H1458 H 0.88276 0.19123 0.80874 0.0
H1459 H 0.90643 0.27665 0.82403 0.0
H1460 H 0.88425 0.27302 0.83611 0.0
H1461 H 0.88668 0.26817 0.80207 0.0
C1462 C 0.77854 0.68957 0.74435 0.0
C1463 C 0.75919 0.67666 0.74238 0.0
C1464 C 0.78915 0.68941 0.76618 0.0
C1465 C 0.78007 0.67635 0.78677 0.0
C1466 C 0.76041 0.66376 0.78524 0.0
C1467 C 0.75029 0.6639 0.76292 0.0
C1468 C 0.81013 0.70273 0.76679 0.0
C1469 C 0.75006 0.64993 0.80704 0.0
C1470 C 0.80263 0.65764 0.83412 0.0
C1471 C 0.80309 0.66698 0.85761 0.0
C1472 C 0.7968 0.66183 0.81019 0.0
C1473 C 0.79091 0.67537 0.80985 0.0
C1474 C 0.79294 0.68599 0.83293 0.0
C1475 C 0.79928 0.68186 0.85642 0.0
C1476 C 0.79543 0.65059 0.78579 0.0
C1477 C 0.78676 0.7005 0.83356 0.0
H1478 H 0.78551 0.69931 0.72834 0.0
H1479 H 0.73532 0.65398 0.76152 0.0
H1480 H 0.81442 0.71081 0.78559 0.0
H1481 H 0.81755 0.69456 0.76583 0.0
H1482 H 0.81487 0.71278 0.75008 0.0
H1483 H 0.73462 0.64188 0.80352 0.0
H1484 H 0.75525 0.63981 0.80878 0.0
H1485 H 0.75282 0.65744 0.82624 0.0
H1486 H 0.80548 0.6461 0.83467 0.0
H1487 H 0.80004 0.68948 0.87433 0.0
H1488 H 0.8006 0.65983 0.76824 0.0
H1489 H 0.78049 0.63991 0.78202 0.0
H1490 H 0.8036 0.64321 0.78798 0.0
H1491 H 0.79196 0.70975 0.81604 0.0
H1492 H 0.79176 0.70938 0.85167 0.0
H1493 H 0.77115 0.69325 0.833 0.0
C1494 C 0.76118 0.68007 0.58672 0.0
C1495 C 0.75231 0.66472 0.6039 0.0
C1496 C 0.77042 0.67918 0.56403 0.0
C1497 C 0.77102 0.66258 0.55835 0.0
C1498 C 0.7622 0.64704 0.57563 0.0
C1499 C 0.75284 0.64825 0.59814 0.0
C1500 C 0.7794 0.696 0.54595 0.0
C1501 C 0.76268 0.62919 0.57035 0.0
C1502 C 0.7788 0.65827 0.48571 0.0
C1503 C 0.79846 0.6667 0.48467 0.0
C1504 C 0.76953 0.65565 0.50981 0.0
C1505 C 0.78015 0.66146 0.53356 0.0
C1506 C 0.79983 0.66848 0.53282 0.0
C1507 C 0.8088 0.67105 0.50831 0.0
C1508 C 0.74854 0.64807 0.50959 0.0
C1509 C 0.81163 0.67456 0.55772 0.0
H1510 H 0.76083 0.69284 0.59093 0.0
H1511 H 0.74618 0.63638 0.61141 0.0
H1512 H 0.7946 0.7009 0.5438 0.0
H1513 H 0.77289 0.69197 0.52599 0.0
H1514 H 0.77786 0.70791 0.55335 0.0
H1515 H 0.75568 0.61859 0.58613 0.0
H1516 H 0.75561 0.62292 0.55124 0.0
H1517 H 0.77747 0.63238 0.56869 0.0
H1518 H 0.77074 0.65459 0.46745 0.0
H1519 H 0.82399 0.67754 0.50757 0.0
H1520 H 0.74568 0.65959 0.51449 0.0
H1521 H 0.74157 0.63701 0.52475 0.0
H1522 H 0.74207 0.6421 0.49003 0.0
H1523 H 0.81298 0.68796 0.56499 0.0
H1524 H 0.82597 0.67679 0.55438 0.0
H1525 H 0.80478 0.66396 0.57349 0.0
C1526 C 0.33221 0.08359 0.60022 0.0
C1527 C 0.34805 0.08986 0.6167 0.0
C1528 C 0.3327 0.09371 0.57764 0.0
C1529 C 0.34934 0.11069 0.57156 0.0
C1530 C 0.36518 0.11743 0.58857 0.0
C1531 C 0.36442 0.10685 0.61079 0.0
C1532 C 0.3156 0.08586 0.55978 0.0
C1533 C 0.38308 0.1356 0.58297 0.0
C1534 C 0.35595 0.12182 0.49865 0.0
C1535 C 0.34871 0.13401 0.49575 0.0
C1536 C 0.35684 0.11471 0.52335 0.0
C1537 C 0.35069 0.12019 0.54596 0.0
C1538 C 0.34461 0.13356 0.54349 0.0
C1539 C 0.34363 0.14031 0.5183 0.0
C1540 C 0.36343 0.10052 0.52497 0.0
C1541 C 0.33832 0.14005 0.56724 0.0
H1542 H 0.3195 0.07052 0.60466 0.0
H1543 H 0.37664 0.11195 0.62363 0.0
H1544 H 0.31131 0.09656 0.55651 0.0
H1545 H 0.31906 0.08232 0.54021 0.0
H1546 H 0.30346 0.07301 0.56798 0.0
H1547 H 0.3934 0.13989 0.5995 0.0
H1548 H 0.3897 0.134 0.56486 0.0
H1549 H 0.3799 0.14706 0.57929 0.0
H1550 H 0.36034 0.11729 0.4813 0.0
H1551 H 0.33815 0.14982 0.51613 0.0
H1552 H 0.35165 0.08675 0.53141 0.0
H1553 H 0.37488 0.10503 0.53984 0.0
H1554 H 0.36863 0.09848 0.50572 0.0
H1555 H 0.32468 0.1284 0.57426 0.0
H1556 H 0.33653 0.1523 0.56266 0.0
H1557 H 0.34863 0.14393 0.58368 0.0
C1558 C 0.93377 0.23583 0.61358 0.0
C1559 C 0.93634 0.25408 0.61363 0.0
C1560 C 0.9257 0.22378 0.59172 0.0
C1561 C 0.92041 0.23026 0.56919 0.0
C1562 C 0.9227 0.24856 0.56928 0.0
C1563 C 0.9305 0.26018 0.59156 0.0
C1564 C 0.92318 0.20427 0.59252 0.0
C1565 C 0.91746 0.2561 0.5455 0.0
C1566 C 0.92155 0.21272 0.50056 0.0
C1567 C 0.90238 0.20275 0.4938 0.0
C1568 C 0.92757 0.22089 0.52559 0.0
C1569 C 0.91405 0.21873 0.54456 0.0
C1570 C 0.89462 0.20718 0.53869 0.0
C1571 C 0.88898 0.19936 0.51323 0.0
C1572 C 0.94842 0.23305 0.53095 0.0
C1573 C 0.87978 0.20412 0.55864 0.0
H1574 H 0.93801 0.2309 0.6307 0.0
H1575 H 0.93241 0.27424 0.59145 0.0
H1576 H 0.90857 0.19366 0.58682 0.0
H1577 H 0.93268 0.20316 0.57804 0.0
H1578 H 0.9263 0.20072 0.61238 0.0
H1579 H 0.91948 0.27035 0.54909 0.0
H1580 H 0.9262 0.25681 0.52841 0.0
H1581 H 0.90255 0.24649 0.53991 0.0
H1582 H 0.93193 0.21502 0.48567 0.0
H1583 H 0.87414 0.19159 0.50808 0.0
H1584 H 0.95231 0.22908 0.54988 0.0
H1585 H 0.95204 0.24797 0.53275 0.0
H1586 H 0.95705 0.23196 0.51497 0.0
H1587 H 0.88359 0.20124 0.57844 0.0
H1588 H 0.86572 0.19228 0.55287 0.0
H1589 H 0.87877 0.21707 0.56032 0.0
C1590 C 0.36389 0.26116 0.61027 0.0
C1591 C 0.34756 0.26188 0.61617 0.0
C1592 C 0.36458 0.25119 0.58809 0.0
C1593 C 0.34869 0.24205 0.57115 0.0
C1594 C 0.33208 0.24246 0.57727 0.0
C1595 C 0.33167 0.25223 0.5998 0.0
C1596 C 0.38244 0.25083 0.58245 0.0
C1597 C 0.31494 0.23318 0.55947 0.0
C1598 C 0.35524 0.23753 0.4982 0.0
C1599 C 0.34795 0.2181 0.49515 0.0
C1600 C 0.35615 0.24553 0.52296 0.0
C1601 C 0.35 0.23389 0.54549 0.0
C1602 C 0.34386 0.21444 0.54288 0.0
C1603 C 0.34284 0.20672 0.51763 0.0
C1604 C 0.36279 0.26631 0.52473 0.0
C1605 C 0.3376 0.20166 0.56656 0.0
H1606 H 0.37614 0.26834 0.62304 0.0
H1607 H 0.31899 0.25267 0.60425 0.0
H1608 H 0.37922 0.2362 0.57859 0.0
H1609 H 0.38911 0.25909 0.56442 0.0
H1610 H 0.39273 0.25678 0.59902 0.0
H1611 H 0.30281 0.2339 0.56776 0.0
H1612 H 0.31837 0.24016 0.53993 0.0
H1613 H 0.31066 0.2182 0.55613 0.0
H1614 H 0.35971 0.24648 0.48093 0.0
H1615 H 0.33735 0.19172 0.51535 0.0
H1616 H 0.3743 0.27322 0.53952 0.0
H1617 H 0.35105 0.26834 0.53138 0.0
H1618 H 0.36791 0.27353 0.5055 0.0
H1619 H 0.34792 0.20808 0.58299 0.0
H1620 H 0.33579 0.18762 0.56186 0.0
H1621 H 0.32396 0.1997 0.57365 0.0
C1622 C 0.7671 0.09302 0.58103 0.0
C1623 C 0.76227 0.10144 0.60127 0.0
C1624 C 0.77714 0.10333 0.55892 0.0
C1625 C 0.78296 0.12272 0.55727 0.0
C1626 C 0.7782 0.13137 0.57772 0.0
C1627 C 0.76768 0.12055 0.59936 0.0
C1628 C 0.78149 0.09339 0.53729 0.0
C1629 C 0.78458 0.15208 0.57703 0.0
C1630 C 0.82212 0.14482 0.50744 0.0
C1631 C 0.81175 0.14274 0.4843 0.0
C1632 C 0.8133 0.14043 0.5322 0.0
C1633 C 0.79367 0.13351 0.53367 0.0
C1634 C 0.78375 0.1337 0.51081 0.0
C1635 C 0.79302 0.13861 0.48646 0.0
C1636 C 0.8246 0.14123 0.55628 0.0
C1637 C 0.76285 0.12649 0.51131 0.0
H1638 H 0.76289 0.07825 0.58239 0.0
H1639 H 0.76419 0.12717 0.61517 0.0
H1640 H 0.77593 0.09509 0.51809 0.0
H1641 H 0.79695 0.09975 0.5353 0.0
H1642 H 0.77535 0.07812 0.54115 0.0
H1643 H 0.77898 0.15649 0.59382 0.0
H1644 H 0.80018 0.16036 0.57775 0.0
H1645 H 0.78007 0.15567 0.55829 0.0
H1646 H 0.83664 0.14814 0.50603 0.0
H1647 H 0.78506 0.13741 0.46867 0.0
H1648 H 0.82221 0.12694 0.56045 0.0
H1649 H 0.82014 0.14605 0.57388 0.0
H1650 H 0.83991 0.15077 0.55326 0.0
H1651 H 0.75524 0.1109 0.51231 0.0
H1652 H 0.75798 0.13063 0.49336 0.0
H1653 H 0.75894 0.13175 0.52897 0.0
C1654 C 0.9275 0.69062 0.60624 0.0
C1655 C 0.93704 0.68056 0.60304 0.0
C1656 C 0.91712 0.69233 0.58537 0.0
C1657 C 0.91691 0.68444 0.56042 0.0
C1658 C 0.92662 0.67432 0.55708 0.0
C1659 C 0.93627 0.67219 0.57861 0.0
C1660 C 0.90635 0.70255 0.59003 0.0
C1661 C 0.92719 0.66614 0.53059 0.0
C1662 C 0.88166 0.67512 0.50521 0.0
C1663 C 0.89222 0.69046 0.48857 0.0
C1664 C 0.88896 0.67361 0.52971 0.0
C1665 C 0.90741 0.68751 0.53736 0.0
C1666 C 0.91748 0.70371 0.52161 0.0
C1667 C 0.90957 0.70517 0.49775 0.0
C1668 C 0.87741 0.65653 0.54654 0.0
C1669 C 0.93727 0.71879 0.52877 0.0
H1670 H 0.92783 0.69682 0.6253 0.0
H1671 H 0.94364 0.6644 0.57618 0.0
H1672 H 0.91227 0.71544 0.57784 0.0
H1673 H 0.89143 0.69352 0.5839 0.0
H1674 H 0.90681 0.70663 0.61107 0.0
H1675 H 0.93565 0.65899 0.53118 0.0
H1676 H 0.91272 0.65584 0.52394 0.0
H1677 H 0.93329 0.67746 0.51562 0.0
H1678 H 0.86824 0.66366 0.49839 0.0
H1679 H 0.91761 0.71731 0.48531 0.0
H1680 H 0.8784 0.66058 0.56766 0.0
H1681 H 0.88294 0.64671 0.54475 0.0
H1682 H 0.86236 0.64895 0.54042 0.0
H1683 H 0.9379 0.72378 0.54931 0.0
H1684 H 0.9427 0.73106 0.51534 0.0
H1685 H 0.94678 0.71283 0.52773 0.0
C1686 C 0.91441 0.6528 0.74043 0.0
C1687 C 0.93226 0.66883 0.73791 0.0
C1688 C 0.90332 0.65025 0.76272 0.0
C1689 C 0.91036 0.66391 0.78316 0.0
C1690 C 0.9282 0.68029 0.78052 0.0
C1691 C 0.93889 0.6826 0.75785 0.0
C1692 C 0.88427 0.63269 0.76471 0.0
C1693 C 0.9363 0.69504 0.80207 0.0
C1694 C 0.87799 0.66348 0.83715 0.0
C1695 C 0.88157 0.65402 0.85737 0.0
C1696 C 0.88703 0.66661 0.81262 0.0
C1697 C 0.89997 0.66019 0.80841 0.0
C1698 C 0.9033 0.65031 0.82857 0.0
C1699 C 0.89392 0.64717 0.85261 0.0
C1700 C 0.88295 0.67696 0.79137 0.0
C1701 C 0.91697 0.64322 0.82493 0.0
H1702 H 0.90906 0.6422 0.72496 0.0
H1703 H 0.95264 0.69505 0.75603 0.0
H1704 H 0.88451 0.6237 0.78086 0.0
H1705 H 0.87337 0.63641 0.76967 0.0
H1706 H 0.88009 0.62435 0.74609 0.0
H1707 H 0.9498 0.70752 0.79626 0.0
H1708 H 0.92618 0.69974 0.8073 0.0
H1709 H 0.9388 0.68892 0.82011 0.0
H1710 H 0.86839 0.66871 0.84069 0.0
H1711 H 0.8963 0.63929 0.8678 0.0
H1712 H 0.87842 0.66846 0.77292 0.0
H1713 H 0.89593 0.69035 0.78682 0.0
H1714 H 0.87183 0.68017 0.79727 0.0
H1715 H 0.91254 0.63335 0.80791 0.0
H1716 H 0.91805 0.6359 0.8427 0.0
H1717 H 0.93117 0.65516 0.82047 0.0
C1718 C 0.35877 0.26216 0.76184 0.0
C1719 C 0.34232 0.26216 0.75409 0.0
C1720 C 0.35945 0.25333 0.78511 0.0
C1721 C 0.34337 0.24447 0.80135 0.0
C1722 C 0.32657 0.24403 0.79341 0.0
C1723 C 0.32619 0.25277 0.76973 0.0
C1724 C 0.3776 0.25395 0.79269 0.0
C1725 C 0.30923 0.23495 0.81041 0.0
C1726 C 0.34487 0.21304 0.85539 0.0
C1727 C 0.35241 0.22574 0.87666 0.0
C1728 C 0.34117 0.21868 0.83091 0.0
C1729 C 0.34492 0.23738 0.82774 0.0
C1730 C 0.35186 0.25003 0.84937 0.0
C1731 C 0.35575 0.24417 0.87333 0.0
C1732 C 0.33396 0.20486 0.80818 0.0
C1733 C 0.356 0.2701 0.84691 0.0
H1734 H 0.37122 0.26914 0.74968 0.0
H1735 H 0.31342 0.25267 0.76382 0.0
H1736 H 0.38358 0.26267 0.81077 0.0
H1737 H 0.37491 0.23961 0.79727 0.0
H1738 H 0.38827 0.25994 0.77683 0.0
H1739 H 0.29687 0.23442 0.80047 0.0
H1740 H 0.30568 0.22044 0.81566 0.0
H1741 H 0.31204 0.243 0.82914 0.0
H1742 H 0.34213 0.19877 0.85776 0.0
H1743 H 0.36213 0.25437 0.88918 0.0
H1744 H 0.34487 0.20958 0.79266 0.0
H1745 H 0.32135 0.2043 0.79912 0.0
H1746 H 0.33031 0.19046 0.81438 0.0
H1747 H 0.36806 0.27795 0.83347 0.0
H1748 H 0.3595 0.27754 0.86626 0.0
H1749 H 0.34373 0.27044 0.83822 0.0
C1750 C 0.75895 0.1018 0.75743 0.0
C1751 C 0.76524 0.09285 0.74 0.0
C1752 C 0.76858 0.1099 0.78114 0.0
C1753 C 0.78508 0.10924 0.78751 0.0
C1754 C 0.79172 0.10052 0.76983 0.0
C1755 C 0.78164 0.0923 0.74636 0.0
C1756 C 0.76088 0.11885 0.79962 0.0
C1757 C 0.80936 0.09974 0.77581 0.0
C1758 C 0.81413 0.14358 0.84214 0.0
C1759 C 0.80705 0.13211 0.86444 0.0
C1760 C 0.80806 0.13608 0.81661 0.0
C1761 C 0.79457 0.11674 0.81348 0.0
C1762 C 0.78851 0.10491 0.83583 0.0
C1763 C 0.79493 0.11272 0.86099 0.0
C1764 C 0.81514 0.1491 0.79322 0.0
C1765 C 0.77417 0.08422 0.83345 0.0
H1766 H 0.7463 0.1023 0.75272 0.0
H1767 H 0.78672 0.08557 0.73289 0.0
H1768 H 0.75726 0.11139 0.8188 0.0
H1769 H 0.77172 0.1337 0.80363 0.0
H1770 H 0.74812 0.11854 0.7915 0.0
H1771 H 0.81326 0.09342 0.75934 0.0
H1772 H 0.82127 0.11411 0.7798 0.0
H1773 H 0.80734 0.09133 0.79386 0.0
H1774 H 0.82353 0.15857 0.84472 0.0
H1775 H 0.78973 0.10375 0.87818 0.0
H1776 H 0.80386 0.15169 0.78593 0.0
H1777 H 0.81884 0.1426 0.77679 0.0
H1778 H 0.82766 0.16286 0.79837 0.0
H1779 H 0.76037 0.08254 0.82751 0.0
H1780 H 0.77236 0.07664 0.85231 0.0
H1781 H 0.77832 0.07748 0.81793 0.0
C1782 C 0.0699 0.37484 0.00254 0.0
C1783 C 0.07196 0.3919 0.01172 0.0
C1784 C 0.08299 0.36922 0.00966 0.0
C1785 C 0.09787 0.38045 0.02747 0.0
C1786 C 0.10022 0.39793 0.03617 0.0
C1787 C 0.08748 0.4036 0.02774 0.0
C1788 C 0.08047 0.35095 -0.00116 0.0
C1789 C 0.11541 0.4101 0.05586 0.0
C1790 C 0.11377 0.35704 0.07761 0.0
C1791 C 0.13272 0.36406 0.07092 0.0
C1792 C 0.10213 0.3617 0.06306 0.0
C1793 C 0.10921 0.3729 0.0402 0.0
C1794 C 0.12769 0.37835 0.03163 0.0
C1795 C 0.13937 0.37411 0.04732 0.0
C1796 C 0.08271 0.35578 0.07339 0.0
C1797 C 0.13544 0.38943 0.00661 0.0
H1798 H 0.05803 0.36587 0.98988 0.0
H1799 H 0.08906 0.41676 0.03497 0.0
H1800 H 0.09428 0.35236 0.99389 0.0
H1801 H 0.07381 0.33981 0.01395 0.0
H1802 H 0.07136 0.34629 0.98092 0.0
H1803 H 0.11575 0.42357 0.05995 0.0
H1804 H 0.11301 0.4024 0.07473 0.0
H1805 H 0.1294 0.41331 0.04851 0.0
H1806 H 0.10825 0.34862 0.09525 0.0
H1807 H 0.15388 0.37936 0.04175 0.0
H1808 H 0.0719 0.34772 0.05809 0.0
H1809 H 0.08169 0.36843 0.07825 0.0
H1810 H 0.0793 0.34697 0.09137 0.0
H1811 H 0.12456 0.38411 0.99076 0.0
H1812 H 0.1479 0.38878 -0.00045 0.0
H1813 H 0.13979 0.40438 0.01031 0.0
C1814 C 0.62402 0.68633 0.03723 0.0
C1815 C 0.63474 0.68084 0.02213 0.0
C1816 C 0.63052 0.70535 0.04294 0.0
C1817 C 0.6479 0.71938 0.03251 0.0
C1818 C 0.65825 0.71397 0.01588 0.0
C1819 C 0.65175 0.69472 0.01135 0.0
C1820 C 0.61925 0.71034 0.06141 0.0
C1821 C 0.67644 0.72845 0.00347 0.0
C1822 C 0.65494 0.76849 0.04333 0.0
C1823 C 0.66509 0.77355 0.06717 0.0
C1824 C 0.65054 0.75152 0.03035 0.0
C1825 C 0.65608 0.73926 0.04186 0.0
C1826 C 0.66761 0.74512 0.06477 0.0
C1827 C 0.67225 0.76231 0.07677 0.0
C1828 C 0.63898 0.7462 0.00526 0.0
C1829 C 0.67367 0.73253 0.07809 0.0
H1830 H 0.6109 0.67565 0.04569 0.0
H1831 H 0.65998 0.69054 -0.00061 0.0
H1832 H 0.62764 0.71711 0.07952 0.0
H1833 H 0.61603 0.72058 0.05194 0.0
H1834 H 0.6058 0.69782 0.06729 0.0
H1835 H 0.68075 0.72235 0.98719 0.0
H1836 H 0.6751 0.74035 0.99564 0.0
H1837 H 0.68781 0.73424 0.0186 0.0
H1838 H 0.64951 0.77719 0.03567 0.0
H1839 H 0.68054 0.76642 0.09484 0.0
H1840 H 0.62414 0.73576 0.00976 0.0
H1841 H 0.64415 0.73961 0.99088 0.0
H1842 H 0.6393 0.75859 -0.00407 0.0
H1843 H 0.66111 0.71978 0.08563 0.0
H1844 H 0.68349 0.73964 0.0949 0.0
H1845 H 0.68064 0.72779 0.06379 0.0
C1846 C 0.33542 0.94431 0.04688 0.0
C1847 C 0.34066 0.95484 0.02363 0.0
C1848 C 0.31653 0.93112 0.05185 0.0
C1849 C 0.30257 0.92772 0.03254 0.0
C1850 C 0.30789 0.93804 0.00866 0.0
C1851 C 0.32688 0.95181 0.00472 0.0
C1852 C 0.31151 0.92097 0.078 0.0
C1853 C 0.29362 0.93427 0.98713 0.0
C1854 C 0.25924 0.88104 0.04772 0.0
C1855 C 0.24891 0.88694 0.06303 0.0
C1856 C 0.27582 0.8942 0.03492 0.0
C1857 C 0.28248 0.9137 0.03817 0.0
C1858 C 0.27103 0.91957 0.05113 0.0
C1859 C 0.25417 0.90608 0.06281 0.0
C1860 C 0.2871 0.88727 0.02011 0.0
C1861 C 0.27756 0.94014 0.05553 0.0
H1862 H 0.34613 0.94674 0.0615 0.0
H1863 H 0.33104 0.95983 0.98659 0.0
H1864 H 0.30062 0.92295 0.08801 0.0
H1865 H 0.30552 0.90566 0.07469 0.0
H1866 H 0.32387 0.92602 0.09143 0.0
H1867 H 0.29999 0.94352 0.96978 0.0
H1868 H 0.28711 0.91939 0.98056 0.0
H1869 H 0.28213 0.93634 0.99473 0.0
H1870 H 0.25532 0.86632 0.04752 0.0
H1871 H 0.24598 0.91073 0.07395 0.0
H1872 H 0.29871 0.88858 0.03293 0.0
H1873 H 0.29348 0.89583 0.0022 0.0
H1874 H 0.27829 0.87227 0.01417 0.0
H1875 H 0.28879 0.94584 0.0709 0.0
H1876 H 0.26595 0.94238 0.06223 0.0
H1877 H 0.28363 0.94835 0.03729 0.0
C1878 C 0.38357 0.06404 -0.00393 0.0
C1879 C 0.4018 0.0685 0.0037 0.0
C1880 C 0.37952 0.07822 0.98904 0.0
C1881 C 0.39398 0.09733 0.99002 0.0
C1882 C 0.41206 0.10196 -0.0005 0.0
C1883 C 0.4158 0.0875 0.00599 0.0
C1884 C 0.36009 0.07264 0.97884 0.0
C1885 C 0.42779 0.12213 0.00132 0.0
C1886 C 0.39067 0.12835 0.93748 0.0
C1887 C 0.38243 0.13727 0.95113 0.0
C1888 C 0.39484 0.11572 0.95011 0.0
C1889 C 0.39099 0.11205 0.97734 0.0
C1890 C 0.38369 0.12185 0.99167 0.0
C1891 C 0.37943 0.13436 0.97833 0.0
C1892 C 0.40264 0.10569 0.93397 0.0
C1893 C 0.37972 0.11857 0.0208 0.0
H1894 H 0.37267 0.04941 0.99433 0.0
H1895 H 0.42988 0.09109 0.01221 0.0
H1896 H 0.3547 0.08108 0.98866 0.0
H1897 H 0.36076 0.07554 0.95735 0.0
H1898 H 0.34992 0.05748 0.98198 0.0
H1899 H 0.43998 0.12356 0.0129 0.0
H1900 H 0.43268 0.12761 0.98117 0.0
H1901 H 0.42276 0.13108 0.01055 0.0
H1902 H 0.39324 0.13079 0.91648 0.0
H1903 H 0.37305 0.14123 0.9889 0.0
H1904 H 0.39264 0.09031 0.93411 0.0
H1905 H 0.41607 0.10805 0.94274 0.0
H1906 H 0.40521 0.11046 0.91312 0.0
H1907 H 0.36767 0.1042 0.02389 0.0
H1908 H 0.37627 0.12886 0.02969 0.0
H1909 H 0.39202 0.11948 0.03141 0.0
C1910 C 0.9441 0.33013 0.98796 0.0
C1911 C 0.96085 0.33527 0.00178 0.0
C1912 C 0.93147 0.31127 0.98146 0.0
C1913 C 0.9353 0.29704 0.98984 0.0
C1914 C 0.95162 0.30205 0.00529 0.0
C1915 C 0.96444 0.32117 0.01056 0.0
C1916 C 0.91461 0.30673 0.96424 0.0
C1917 C 0.95583 0.2873 0.01559 0.0
C1918 C 0.89341 0.24792 0.97788 0.0
C1919 C 0.89796 0.24361 0.95316 0.0
C1920 C 0.90612 0.26465 0.99132 0.0
C1921 C 0.92347 0.27748 0.97939 0.0
C1922 C 0.9286 0.27245 0.95539 0.0
C1923 C 0.91599 0.25545 0.94297 0.0
C1924 C 0.90052 0.26906 0.01752 0.0
C1925 C 0.94675 0.28569 0.94162 0.0
H1926 H 0.94131 0.341 0.98105 0.0
H1927 H 0.97728 0.32509 0.02155 0.0
H1928 H 0.91572 0.30065 0.94519 0.0
H1929 H 0.9015 0.29605 0.97388 0.0
H1930 H 0.91335 0.31933 0.96003 0.0
H1931 H 0.9667 0.29296 0.03147 0.0
H1932 H 0.94289 0.27506 0.02334 0.0
H1933 H 0.96106 0.28214 -0.00072 0.0
H1934 H 0.87961 0.23875 0.98606 0.0
H1935 H 0.91987 0.25189 0.92429 0.0
H1936 H 0.89581 0.27946 0.01463 0.0
H1937 H 0.91268 0.27535 0.03141 0.0
H1938 H 0.88884 0.2563 0.02666 0.0
H1939 H 0.94662 0.29867 0.93589 0.0
H1940 H 0.94895 0.27933 0.92356 0.0
H1941 H 0.95893 0.28993 0.95508 0.0
C1942 C 0.70052 0.64028 -0.00155 0.0
C1943 C 0.68746 0.62193 0.00626 0.0
C1944 C 0.7184 0.64471 0.98921 0.0
C1945 C 0.72335 0.63048 0.98781 0.0
C1946 C 0.7107 0.61228 -0.00263 0.0
C1947 C 0.69292 0.60821 0.00642 0.0
C1948 C 0.73147 0.66431 0.97927 0.0
C1949 C 0.71542 0.59671 -0.00361 0.0
C1950 C 0.75446 0.63392 0.93061 0.0
C1951 C 0.77218 0.64114 0.94271 0.0
C1952 C 0.73856 0.63026 0.94517 0.0
C1953 C 0.74028 0.63379 0.9727 0.0
C1954 C 0.75802 0.64052 0.98529 0.0
C1955 C 0.77382 0.64408 0.9701 0.0
C1956 C 0.71993 0.62292 0.9309 0.0
C1957 C 0.76037 0.64435 0.01461 0.0
H1958 H 0.69648 0.651 -0.00159 0.0
H1959 H 0.68302 0.59404 0.01267 0.0
H1960 H 0.74593 0.66963 0.9871 0.0
H1961 H 0.73219 0.664 0.95741 0.0
H1962 H 0.72669 0.67434 0.9849 0.0
H1963 H 0.70541 0.58427 0.00801 0.0
H1964 H 0.71495 0.5922 0.97559 0.0
H1965 H 0.72988 0.60173 0.004 0.0
H1966 H 0.75309 0.6313 0.90948 0.0
H1967 H 0.7875 0.64965 0.97948 0.0
H1968 H 0.71473 0.63298 0.93328 0.0
H1969 H 0.70928 0.60937 0.93959 0.0
H1970 H 0.72096 0.62071 0.90946 0.0
H1971 H 0.75743 0.65581 0.01951 0.0
H1972 H 0.77479 0.6485 0.02164 0.0
H1973 H 0.75011 0.63169 0.02558 0.0
C1974 C 0.94179 0.61969 0.0139 0.0
C1975 C 0.95937 0.63016 0.00182 0.0
C1976 C 0.92697 0.62312 0.00821 0.0
C1977 C 0.92959 0.63683 0.9892 0.0
C1978 C 0.94764 0.64812 0.97804 0.0
C1979 C 0.9624 0.64483 0.98481 0.0
C1980 C 0.90821 0.61129 0.02136 0.0
C1981 C 0.95101 0.66263 0.9573 0.0
C1982 C 0.88932 0.6271 0.94286 0.0
C1983 C 0.8852 0.64115 0.94996 0.0
C1984 C 0.90321 0.62513 0.95618 0.0
C1985 C 0.913 0.63724 0.97769 0.0
C1986 C 0.90784 0.6505 0.98632 0.0
C1987 C 0.89414 0.65253 0.97203 0.0
C1988 C 0.90833 0.61096 0.94593 0.0
C1989 C 0.91746 0.66322 0.00969 0.0
H1990 H 0.93946 0.60848 0.02735 0.0
H1991 H 0.97595 0.65292 0.97538 0.0
H1992 H 0.90208 0.6201 0.0273 0.0
H1993 H 0.89826 0.6005 0.00724 0.0
H1994 H 0.90943 0.604 0.03907 0.0
H1995 H 0.96612 0.67128 0.95217 0.0
H1996 H 0.94297 0.65547 0.9391 0.0
H1997 H 0.94591 0.67212 0.96418 0.0
H1998 H 0.88249 0.61846 0.92557 0.0
H1999 H 0.89109 0.66354 0.9773 0.0
H2000 H 0.9075 0.60143 0.96198 0.0
H2001 H 0.92305 0.6184 0.93878 0.0
H2002 H 0.89899 0.6023 0.92945 0.0
H2003 H 0.91943 0.65533 0.02598 0.0
H2004 H 0.90935 0.66977 0.01716 0.0
H2005 H 0.93159 0.67463 0.0038 0.0
C2006 C 0.39549 0.32347 0.02873 0.0
C2007 C 0.3892 0.33282 0.01203 0.0
C2008 C 0.39075 0.30475 0.02364 0.0
C2009 C 0.38032 0.29555 0.00057 0.0
C2010 C 0.37358 0.30487 0.984 0.0
C2011 C 0.37778 0.32326 0.99027 0.0
C2012 C 0.39743 0.29505 0.04248 0.0
C2013 C 0.36293 0.29587 0.95875 0.0
C2014 C 0.389 0.25986 0.96516 0.0
C2015 C 0.37163 0.24334 0.96788 0.0
C2016 C 0.39231 0.2768 0.97671 0.0
C2017 C 0.3781 0.2771 0.99211 0.0
C2018 C 0.36115 0.26005 -0.00311 0.0
C2019 C 0.35792 0.24341 0.98415 0.0
C2020 C 0.41036 0.29466 0.97038 0.0
C2021 C 0.34598 0.25957 0.01409 0.0
H2022 H 0.40425 0.33087 0.04567 0.0
H2023 H 0.37308 0.33059 0.97725 0.0
H2024 H 0.3859 0.28057 0.04662 0.0
H2025 H 0.40907 0.29387 0.0334 0.0
H2026 H 0.40259 0.30285 0.06145 0.0
H2027 H 0.35841 0.30485 0.94828 0.0
H2028 H 0.37195 0.29312 0.94532 0.0
H2029 H 0.35029 0.28213 0.96298 0.0
H2030 H 0.39939 0.25986 0.952 0.0
H2031 H 0.34436 0.23069 0.98585 0.0
H2032 H 0.41743 0.3024 0.98875 0.0
H2033 H 0.40711 0.304 0.95839 0.0
H2034 H 0.42034 0.29188 0.95921 0.0
H2035 H 0.35218 0.26844 0.03199 0.0
H2036 H 0.3357 0.24501 0.02026 0.0
H2037 H 0.33826 0.26528 0.00302 0.0
C2038 C 0.70357 0.0598 0.98678 0.0
C2039 C 0.69204 0.06379 0.00263 0.0
C2040 C 0.72154 0.0741 0.97921 0.0
C2041 C 0.72834 0.09281 0.98816 0.0
C2042 C 0.71718 0.09669 0.00542 0.0
C2043 C 0.69908 0.0822 0.01218 0.0
C2044 C 0.73285 0.06935 0.96049 0.0
C2045 C 0.72406 0.1163 0.01599 0.0
C2046 C 0.78061 0.12556 0.97546 0.0
C2047 C 0.78002 0.13335 0.95109 0.0
C2048 C 0.76389 0.11323 0.98879 0.0
C2049 C 0.74624 0.10843 0.97727 0.0
C2050 C 0.7457 0.11741 0.9537 0.0
C2051 C 0.76257 0.12989 0.94111 0.0
C2052 C 0.76512 0.10441 0.01427 0.0
C2053 C 0.72727 0.11277 0.94062 0.0
H2054 H 0.69822 0.04563 0.97926 0.0
H2055 H 0.69031 0.08537 0.02465 0.0
H2056 H 0.73464 0.07678 0.94151 0.0
H2057 H 0.7471 0.07421 0.96878 0.0
H2058 H 0.72601 0.05401 0.95638 0.0
H2059 H 0.71492 0.1165 0.03192 0.0
H2060 H 0.73864 0.12242 0.02377 0.0
H2061 H 0.72434 0.12549 -0.00023 0.0
H2062 H 0.79402 0.1281 0.98325 0.0
H2063 H 0.76206 0.13607 0.92245 0.0
H2064 H 0.76121 0.08957 0.01053 0.0
H2065 H 0.75512 0.10436 0.02897 0.0
H2066 H 0.77955 0.11189 0.02288 0.0
H2067 H 0.71995 0.0979 0.93379 0.0
H2068 H 0.72926 0.1219 0.92337 0.0
H2069 H 0.71792 0.11428 0.95492 0.0
C2070 C 0.62363 0.93443 0.02677 0.0
C2071 C 0.63496 0.94925 0.00985 0.0
C2072 C 0.62906 0.92148 0.03499 0.0
C2073 C 0.64583 0.92286 0.02511 0.0
C2074 C 0.65652 0.93694 0.00629 0.0
C2075 C 0.65124 0.95031 -0.00055 0.0
C2076 C 0.61757 0.90724 0.05579 0.0
C2077 C 0.67391 0.93833 0.99415 0.0
C2078 C 0.67207 0.90875 0.07319 0.0
C2079 C 0.66473 0.88953 0.06748 0.0
C2080 C 0.66626 0.91969 0.05929 0.0
C2081 C 0.65361 0.9117 0.03776 0.0
C2082 C 0.64748 0.89283 0.03013 0.0
C2083 C 0.65285 0.88183 0.04536 0.0
C2084 C 0.67294 0.93957 0.06869 0.0
C2085 C 0.6348 0.88405 0.00644 0.0
H2086 H 0.61108 0.93365 0.03494 0.0
H2087 H 0.6599 0.96164 0.98609 0.0
H2088 H 0.61369 0.89287 0.04912 0.0
H2089 H 0.6261 0.91021 0.07413 0.0
H2090 H 0.60449 0.90746 0.06061 0.0
H2091 H 0.67799 0.94687 0.97585 0.0
H2092 H 0.68582 0.94507 0.00837 0.0
H2093 H 0.67166 0.92413 0.98942 0.0
H2094 H 0.68204 0.91523 0.08933 0.0
H2095 H 0.64729 0.86713 0.0404 0.0
H2096 H 0.66067 0.9412 0.07368 0.0
H2097 H 0.68077 0.94971 0.0528 0.0
H2098 H 0.68225 0.94342 0.08637 0.0
H2099 H 0.62011 0.87972 0.0118 0.0
H2100 H 0.6351 0.87138 -0.00065 0.0
H2101 H 0.63894 0.89426 0.99001 0.0
C2102 C 0.08614 0.69593 0.99418 0.0
C2103 C 0.06924 0.68729 0.00825 0.0
C2104 C 0.10028 0.71446 4e-05 0.0
C2105 C 0.09775 0.72425 0.02123 0.0
C2106 C 0.08038 0.7158 0.03483 0.0
C2107 C 0.0662 0.69754 0.02784 0.0
C2108 C 0.11823 0.72321 0.98434 0.0
C2109 C 0.07725 0.7255 0.05801 0.0
C2110 C 0.14005 0.7579 0.06259 0.0
C2111 C 0.14148 0.77524 0.05693 0.0
C2112 C 0.12631 0.7413 0.05037 0.0
C2113 C 0.11395 0.74213 0.03146 0.0
C2114 C 0.11626 0.75986 0.02425 0.0
C2115 C 0.12979 0.77623 0.03753 0.0
C2116 C 0.12415 0.72275 0.05919 0.0
C2117 C 0.10383 0.76143 0.00355 0.0
H2118 H 0.08844 0.68807 0.97884 0.0
H2119 H 0.05318 0.69082 0.03885 0.0
H2120 H 0.12249 0.73792 0.97908 0.0
H2121 H 0.12974 0.72362 -0.00354 0.0
H2122 H 0.11677 0.71517 0.96594 0.0
H2123 H 0.06265 0.71749 0.06558 0.0
H2124 H 0.08712 0.72721 0.07427 0.0
H2125 H 0.08021 0.73976 0.05238 0.0
H2126 H 0.14886 0.75717 0.07808 0.0
H2127 H 0.1307 0.78963 0.03355 0.0
H2128 H 0.12463 0.71465 0.04196 0.0
H2129 H 0.11024 0.71419 0.06865 0.0
H2130 H 0.13528 0.72461 0.07349 0.0
H2131 H 0.10209 0.75235 0.98625 0.0
H2132 H 0.10962 0.77615 -0.00325 0.0
H2133 H 0.08967 0.75658 0.01184 0.0
C2134 C 0.33304 0.40282 0.03828 0.0
C2135 C 0.33733 0.39203 0.02125 0.0
C2136 C 0.31435 0.39712 0.04486 0.0
C2137 C 0.29944 0.3806 0.03325 0.0
C2138 C 0.30367 0.37039 0.01451 0.0
C2139 C 0.3226 0.37595 0.00925 0.0
C2140 C 0.31067 0.40811 0.06562 0.0
C2141 C 0.28826 0.35326 0.00065 0.0
C2142 C 0.25759 0.35517 0.07833 0.0
C2143 C 0.24674 0.36351 0.07193 0.0
C2144 C 0.2743 0.35995 0.06507 0.0
C2145 C 0.27996 0.37275 0.04381 0.0
C2146 C 0.26795 0.37955 0.03521 0.0
C2147 C 0.25155 0.37507 0.04965 0.0
C2148 C 0.28665 0.35252 0.0754 0.0
C2149 C 0.27292 0.39237 0.01171 0.0
H2150 H 0.34441 0.41522 0.04766 0.0
H2151 H 0.32587 0.3677 -0.0042 0.0
H2152 H 0.30074 0.41243 0.05792 0.0
H2153 H 0.30403 0.39908 0.08308 0.0
H2154 H 0.32376 0.4209 0.07221 0.0
H2155 H 0.29345 0.34986 0.98241 0.0
H2156 H 0.28287 0.34096 0.01396 0.0
H2157 H 0.2763 0.35538 0.99541 0.0
H2158 H 0.25362 0.34574 0.09505 0.0
H2159 H 0.24313 0.38139 0.04435 0.0
H2160 H 0.30018 0.3644 0.08274 0.0
H2161 H 0.28998 0.34547 0.05937 0.0
H2162 H 0.27997 0.34236 0.09176 0.0
H2163 H 0.28366 0.40688 0.01762 0.0
H2164 H 0.26044 0.39275 0.00385 0.0
H2165 H 0.27898 0.38782 -0.00429 0.0
C2166 C 0.73056 0.7033 0.35978 0.0
C2167 C 0.73532 0.71923 0.34441 0.0
C2168 C 0.74431 0.69887 0.36791 0.0
C2169 C 0.76328 0.71047 0.36012 0.0
C2170 C 0.76794 0.7259 0.34325 0.0
C2171 C 0.75397 0.7302 0.33582 0.0
C2172 C 0.73871 0.68236 0.38606 0.0
C2173 C 0.78786 0.73837 0.33399 0.0
C2174 C 0.79884 0.71153 0.40944 0.0
C2175 C 0.80234 0.69764 0.39937 0.0
C2176 C 0.78687 0.71646 0.3962 0.0
C2177 C 0.77836 0.70752 0.37196 0.0
C2178 C 0.78312 0.69466 0.36055 0.0
C2179 C 0.795 0.68979 0.37447 0.0
C2180 C 0.78228 0.73027 0.40917 0.0
C2181 C 0.77474 0.68514 0.33447 0.0
H2182 H 0.71622 0.69475 0.36656 0.0
H2183 H 0.75777 0.74247 0.32376 0.0
H2184 H 0.74356 0.67294 0.37805 0.0
H2185 H 0.74559 0.6875 0.40563 0.0
H2186 H 0.72324 0.67404 0.38895 0.0
H2187 H 0.7887 0.74807 0.31811 0.0
H2188 H 0.79679 0.74691 0.35082 0.0
H2189 H 0.79385 0.72974 0.32659 0.0
H2190 H 0.80464 0.71779 0.42857 0.0
H2191 H 0.79754 0.67896 0.36663 0.0
H2192 H 0.76725 0.72289 0.41495 0.0
H2193 H 0.78441 0.7415 0.39513 0.0
H2194 H 0.79103 0.73692 0.42708 0.0
H2195 H 0.75971 0.67445 0.3372 0.0
H2196 H 0.7821 0.67802 0.32626 0.0
H2197 H 0.77531 0.69547 0.31986 0.0
C2198 C 0.2896 0.0256 0.36616 0.0
C2199 C 0.30047 0.02123 0.3495 0.0
C2200 C 0.29564 0.04427 0.37359 0.0
C2201 C 0.31259 0.05906 0.3632 0.0
C2202 C 0.32282 0.05479 0.34464 0.0
C2203 C 0.31691 0.03587 0.33856 0.0
C2204 C 0.28458 0.04799 0.3941 0.0
C2205 C 0.34041 0.07014 0.33202 0.0
C2206 C 0.32121 0.10793 0.38208 0.0
C2207 C 0.33278 0.11187 0.40444 0.0
C2208 C 0.31549 0.09136 0.3671 0.0
C2209 C 0.32104 0.07827 0.37521 0.0
C2210 C 0.33359 0.08281 0.39683 0.0
C2211 C 0.33968 0.0997 0.41056 0.0
C2212 C 0.30293 0.08754 0.34331 0.0
C2213 C 0.33971 0.06929 0.40668 0.0
H2214 H 0.27689 0.01428 0.3747 0.0
H2215 H 0.3252 0.03253 0.32536 0.0
H2216 H 0.29323 0.05368 0.41233 0.0
H2217 H 0.28119 0.05871 0.38694 0.0
H2218 H 0.27125 0.03509 0.39928 0.0
H2219 H 0.34414 0.06504 0.31396 0.0
H2220 H 0.33864 0.08229 0.32676 0.0
H2221 H 0.35237 0.07524 0.34616 0.0
H2222 H 0.31604 0.11736 0.3769 0.0
H2223 H 0.3493 0.10299 0.42711 0.0
H2224 H 0.28813 0.07761 0.34872 0.0
H2225 H 0.30679 0.08099 0.32714 0.0
H2226 H 0.3037 0.10063 0.33588 0.0
H2227 H 0.32718 0.0558 0.41234 0.0
H2228 H 0.34931 0.07489 0.42405 0.0
H2229 H 0.347 0.06615 0.39083 0.0
C2230 C 0.99021 0.2935 0.34284 0.0
C2231 C 1.00504 0.29301 0.35596 0.0
C2232 C 0.97135 0.2798 0.34783 0.0
C2233 C 0.96732 0.26601 0.36747 0.0
C2234 C 0.98238 0.26571 0.3809 0.0
C2235 C 1.00101 0.27891 0.37451 0.0
C2236 C 0.9559 0.28033 0.33224 0.0
C2237 C 0.97887 0.25179 0.40267 0.0
C2238 C 0.92263 0.24346 0.40764 0.0
C2239 C 0.91512 0.22436 0.40112 0.0
C2240 C 0.93898 0.25747 0.39553 0.0
C2241 C 0.94756 0.25243 0.37542 0.0
C2242 C 0.93852 0.23358 0.36616 0.0
C2243 C 0.92258 0.21968 0.3794 0.0
C2244 C 0.94806 0.27733 0.40616 0.0
C2245 C 0.94651 0.22784 0.34357 0.0
H2246 H 0.99336 0.30437 0.32835 0.0
H2247 H 1.0125 0.27864 0.38479 0.0
H2248 H 0.94376 0.26599 0.32887 0.0
H2249 H 0.95085 0.2886 0.34332 0.0
H2250 H 0.96107 0.2872 0.31282 0.0
H2251 H 0.99213 0.25398 0.41195 0.0
H2252 H 0.97005 0.25301 0.41823 0.0
H2253 H 0.97105 0.23723 0.39474 0.0
H2254 H 0.91655 0.24732 0.42373 0.0
H2255 H 0.91687 0.20505 0.3739 0.0
H2256 H 0.95112 0.28741 0.38984 0.0
H2257 H 0.96166 0.28102 0.41583 0.0
H2258 H 0.93907 0.27918 0.42079 0.0
H2259 H 0.95137 0.23848 0.32763 0.0
H2260 H 0.93601 0.21393 0.33523 0.0
H2261 H 0.95885 0.22692 0.35062 0.0
C2262 C 0.07414 0.42275 0.35664 0.0
C2263 C 0.06249 0.40419 0.34787 0.0
C2264 C 0.07071 0.43722 0.34896 0.0
C2265 C 0.05554 0.43309 0.33159 0.0
C2266 C 0.043 0.41416 0.32415 0.0
C2267 C 0.04653 0.3999 0.33259 0.0
C2268 C 0.08412 0.4571 0.35794 0.0
C2269 C 0.02674 0.40913 0.30545 0.0
C2270 C 0.04135 0.46912 0.31099 0.0
C2271 C 0.05073 0.47513 0.28688 0.0
C2272 C 0.04336 0.45599 0.32658 0.0
C2273 C 0.05476 0.44864 0.3175 0.0
C2274 C 0.06487 0.45543 0.2937 0.0
C2275 C 0.06282 0.46865 0.27886 0.0
C2276 C 0.03268 0.44939 0.3521 0.0
C2277 C 0.07714 0.44803 0.28311 0.0
H2278 H 0.08636 0.42613 0.3688 0.0
H2279 H 0.03745 0.38558 0.3258 0.0
H2280 H 0.09361 0.46508 0.34147 0.0
H2281 H 0.07632 0.46438 0.36357 0.0
H2282 H 0.09292 0.45752 0.37499 0.0
H2283 H 0.01705 0.3937 0.3041 0.0
H2284 H 0.01862 0.41591 0.31181 0.0
H2285 H 0.03225 0.41444 0.28544 0.0
H2286 H 0.03191 0.47406 0.31705 0.0
H2287 H 0.07004 0.47334 0.26014 0.0
H2288 H 0.04185 0.44907 0.36804 0.0
H2289 H 0.02075 0.43484 0.3495 0.0
H2290 H 0.02698 0.45851 0.35846 0.0
H2291 H 0.08795 0.44998 0.29799 0.0
H2292 H 0.08438 0.45514 0.26461 0.0
H2293 H 0.06843 0.43272 0.27906 0.0
C2294 C 0.62786 0.65524 0.32615 0.0
C2295 C 0.62492 0.66709 0.34299 0.0
C2296 C 0.61313 0.63707 0.31982 0.0
C2297 C 0.59513 0.63038 0.33112 0.0
C2298 C 0.59243 0.64187 0.34945 0.0
C2299 C 0.60727 0.66018 0.35486 0.0
C2300 C 0.6166 0.62545 0.29987 0.0
C2301 C 0.57368 0.6351 0.36258 0.0
C2302 C 0.55532 0.59523 0.28733 0.0
C2303 C 0.55303 0.57805 0.29632 0.0
C2304 C 0.56825 0.61231 0.29942 0.0
C2305 C 0.57884 0.61225 0.32155 0.0
C2306 C 0.57513 0.59482 0.33244 0.0
C2307 C 0.56235 0.57789 0.31955 0.0
C2308 C 0.57172 0.63047 0.287 0.0
C2309 C 0.58562 0.59408 0.35653 0.0
H2310 H 0.64143 0.66049 0.31684 0.0
H2311 H 0.60495 0.6692 0.3681 0.0
H2312 H 0.61253 0.61143 0.30813 0.0
H2313 H 0.60775 0.62313 0.28204 0.0
H2314 H 0.63156 0.63231 0.29376 0.0
H2315 H 0.57466 0.64443 0.37918 0.0
H2316 H 0.56336 0.63465 0.34793 0.0
H2317 H 0.56811 0.62061 0.37017 0.0
H2318 H 0.54799 0.59539 0.26953 0.0
H2319 H 0.56072 0.56469 0.32657 0.0
H2320 H 0.58601 0.63782 0.27832 0.0
H2321 H 0.57116 0.63997 0.30211 0.0
H2322 H 0.56132 0.62811 0.27116 0.0
H2323 H 0.60013 0.59783 0.35093 0.0
H2324 H 0.57869 0.57983 0.36541 0.0
H2325 H 0.58673 0.60439 0.37167 0.0
C2326 C 0.36346 0.95067 0.34322 0.0
C2327 C 0.35835 0.96451 0.33986 0.0
C2328 C 0.3812 0.95379 0.33542 0.0
C2329 C 0.39416 0.97116 0.32382 0.0
C2330 C 0.38952 0.98559 0.32184 0.0
C2331 C 0.37168 0.98211 0.32992 0.0
C2332 C 0.38559 0.93806 0.33808 0.0
C2333 C 0.40292 1.00432 0.30962 0.0
C2334 C 0.44485 0.98362 0.3098 0.0
C2335 C 0.44361 0.97905 0.28291 0.0
C2336 C 0.42881 0.98082 0.32371 0.0
C2337 C 0.41123 0.97323 0.31034 0.0
C2338 C 0.40989 0.96793 0.28345 0.0
C2339 C 0.42604 0.97087 0.27015 0.0
C2340 C 0.43076 0.98652 0.3524 0.0
C2341 C 0.39147 0.95964 0.2684 0.0
H2342 H 0.35334 0.93707 0.35112 0.0
H2343 H 0.36791 0.99293 0.32736 0.0
H2344 H 0.38529 0.93212 0.31825 0.0
H2345 H 0.39991 0.94343 0.34644 0.0
H2346 H 0.3753 0.92654 0.3508 0.0
H2347 H 0.39823 0.01478 0.31239 0.0
H2348 H 0.41722 0.01008 0.31828 0.0
H2349 H 0.40399 1.00239 0.28813 0.0
H2350 H 0.45844 0.98999 0.31964 0.0
H2351 H 0.42504 0.96714 0.2494 0.0
H2352 H 0.42003 0.9748 0.36437 0.0
H2353 H 0.42826 0.99854 0.35463 0.0
H2354 H 0.44495 0.99072 0.36049 0.0
H2355 H 0.38059 0.94687 0.27851 0.0
H2356 H 0.39273 0.9558 0.24777 0.0
H2357 H 0.38642 0.96991 0.26788 0.0
C2358 C 0.62134 0.96858 0.35616 0.0
C2359 C 0.62307 0.95647 0.3383 0.0
C2360 C 0.60857 0.97501 0.35124 0.0
C2361 C 0.59799 0.96984 0.32737 0.0
C2362 C 0.60006 0.95787 0.30912 0.0
C2363 C 0.61224 0.95102 0.31511 0.0
C2364 C 0.60613 0.987 0.3717 0.0
C2365 C 0.5896 0.95248 0.28301 0.0
C2366 C 0.55299 0.96957 0.30985 0.0
C2367 C 0.55986 0.98524 0.29318 0.0
C2368 C 0.56539 0.96555 0.32392 0.0
C2369 C 0.58507 0.97714 0.3206 0.0
C2370 C 0.592 0.9941 0.30629 0.0
C2371 C 0.57928 0.99815 0.29333 0.0
C2372 C 0.55739 0.94784 0.34014 0.0
C2373 C 0.6128 1.00683 0.3018 0.0
H2374 H 0.6296 0.9726 0.37425 0.0
H2375 H 0.61369 0.94173 0.30126 0.0
H2376 H 0.60903 1.00057 0.36302 0.0
H2377 H 0.59132 0.97975 0.37848 0.0
H2378 H 0.61551 0.98992 0.38911 0.0
H2379 H 0.59363 0.94397 0.27042 0.0
H2380 H 0.57423 0.94422 0.28645 0.0
H2381 H 0.59246 0.96531 0.27199 0.0
H2382 H 0.53803 0.95952 0.31016 0.0
H2383 H 0.5847 0.01061 0.28116 0.0
H2384 H 0.56596 0.95009 0.35825 0.0
H2385 H 0.55757 0.93651 0.32839 0.0
H2386 H 0.54261 0.94297 0.3459 0.0
H2387 H 0.62098 0.00895 0.32023 0.0
H2388 H 0.61601 0.02078 0.29412 0.0
H2389 H 0.61767 1.00014 0.28713 0.0
C2390 C 0.04602 0.65903 0.32005 0.0
C2391 C 0.06195 0.6716 0.33472 0.0
C2392 C 0.04276 0.64096 0.31354 0.0
C2393 C 0.0555 0.63519 0.3225 0.0
C2394 C 0.0707 0.64729 0.33923 0.0
C2395 C 0.07391 0.66545 0.34479 0.0
C2396 C 0.02654 0.62867 0.29533 0.0
C2397 C 0.08426 0.6415 0.3499 0.0
C2398 C 0.04115 0.58399 0.30785 0.0
C2399 C 0.05056 0.58599 0.28406 0.0
C2400 C 0.04331 0.59997 0.32155 0.0
C2401 C 0.05478 0.61814 0.31074 0.0
C2402 C 0.06492 0.6201 0.28731 0.0
C2403 C 0.06281 0.60404 0.27448 0.0
C2404 C 0.03268 0.59734 0.34684 0.0
C2405 C 0.07716 0.63909 0.27483 0.0
H2406 H 0.03673 0.66371 0.31222 0.0
H2407 H 0.08612 0.67503 0.35648 0.0
H2408 H 0.03209 0.62762 0.27584 0.0
H2409 H 0.01839 0.61422 0.3033 0.0
H2410 H 0.01688 0.63431 0.29229 0.0
H2411 H 0.09309 0.65087 0.36624 0.0
H2412 H 0.07656 0.62681 0.35715 0.0
H2413 H 0.09369 0.64209 0.33387 0.0
H2414 H 0.03154 0.57 0.31508 0.0
H2415 H 0.06998 0.60551 0.25595 0.0
H2416 H 0.02064 0.59961 0.34307 0.0
H2417 H 0.04184 0.60779 0.36194 0.0
H2418 H 0.02715 0.58297 0.35495 0.0
H2419 H 0.06844 0.64543 0.2693 0.0
H2420 H 0.08437 0.63817 0.25686 0.0
H2421 H 0.088 0.64877 0.28913 0.0
C2422 C 0.36455 0.41543 0.3604 0.0
C2423 C 0.3574 0.39779 0.34811 0.0
C2424 C 0.38266 0.43032 0.35462 0.0
C2425 C 0.39364 0.42771 0.33542 0.0
C2426 C 0.38671 0.40971 0.32364 0.0
C2427 C 0.3688 0.39492 0.33042 0.0
C2428 C 0.38975 0.44904 0.36834 0.0
C2429 C 0.39777 0.40634 0.30273 0.0
C2430 C 0.42717 0.46763 0.29141 0.0
C2431 C 0.44467 0.46995 0.29912 0.0
C2432 C 0.41053 0.45463 0.304 0.0
C2433 C 0.4114 0.44405 0.32547 0.0
C2434 C 0.4292 0.44785 0.33522 0.0
C2435 C 0.44566 0.46065 0.32176 0.0
C2436 C 0.39192 0.45105 0.29276 0.0
C2437 C 0.43082 0.43743 0.35866 0.0
H2438 H 0.35585 0.41768 0.37429 0.0
H2439 H 0.36332 0.38135 0.32077 0.0
H2440 H 0.40452 0.45474 0.37508 0.0
H2441 H 0.38955 0.45929 0.35431 0.0
H2442 H 0.38098 0.44795 0.38561 0.0
H2443 H 0.39077 0.3914 0.29623 0.0
H2444 H 0.39952 0.41521 0.28526 0.0
H2445 H 0.41204 0.41046 0.31025 0.0
H2446 H 0.42636 0.47499 0.27414 0.0
H2447 H 0.4591 0.4623 0.32784 0.0
H2448 H 0.38294 0.45162 0.30858 0.0
H2449 H 0.38431 0.43673 0.28392 0.0
H2450 H 0.3937 0.46138 0.27729 0.0
H2451 H 0.42096 0.43622 0.37444 0.0
H2452 H 0.44535 0.44448 0.36691 0.0
H2453 H 0.42703 0.42297 0.35252 0.0
C2454 C 0.31973 0.28661 0.33824 0.0
C2455 C 0.30298 0.28453 0.34853 0.0
C2456 C 0.32552 0.27348 0.34411 0.0
C2457 C 0.31486 0.2586 0.36187 0.0
C2458 C 0.29762 0.25618 0.37156 0.0
C2459 C 0.29171 0.26893 0.36428 0.0
C2460 C 0.34342 0.27599 0.33212 0.0
C2461 C 0.28608 0.24099 0.39125 0.0
C2462 C 0.32298 0.218 0.38043 0.0
C2463 C 0.334 0.22528 0.40337 0.0
C2464 C 0.3177 0.22913 0.36535 0.0
C2465 C 0.32308 0.24766 0.37395 0.0
C2466 C 0.33512 0.25532 0.39616 0.0
C2467 C 0.34084 0.24427 0.40997 0.0
C2468 C 0.30574 0.22077 0.34092 0.0
C2469 C 0.34101 0.27479 0.40657 0.0
H2470 H 0.32834 0.29853 0.32574 0.0
H2471 H 0.27878 0.26734 0.37232 0.0
H2472 H 0.35509 0.28281 0.34668 0.0
H2473 H 0.34189 0.26217 0.32671 0.0
H2474 H 0.34739 0.28496 0.31425 0.0
H2475 H 0.27267 0.24052 0.39607 0.0
H2476 H 0.28279 0.22703 0.38347 0.0
H2477 H 0.29432 0.24351 0.40978 0.0
H2478 H 0.31788 0.20348 0.37486 0.0
H2479 H 0.35007 0.25034 0.42696 0.0
H2480 H 0.30971 0.23151 0.32525 0.0
H2481 H 0.29076 0.21543 0.34579 0.0
H2482 H 0.30704 0.20883 0.33305 0.0
H2483 H 0.34877 0.28547 0.39124 0.0
H2484 H 0.35012 0.27847 0.42444 0.0
H2485 H 0.32836 0.27573 0.41163 0.0
C2486 C 0.72821 0.02217 0.3675 0.0
C2487 C 0.73313 1.00826 0.36349 0.0
C2488 C 0.74194 0.04073 0.37409 0.0
C2489 C 0.76105 0.04554 0.37657 0.0
C2490 C 0.76619 0.03177 0.37123 0.0
C2491 C 0.75218 0.01331 0.36488 0.0
C2492 C 0.73585 0.05497 0.37971 0.0
C2493 C 0.78639 0.0363 0.37345 0.0
C2494 C 0.79879 0.09742 0.38226 0.0
C2495 C 0.80121 0.09966 0.40973 0.0
C2496 C 0.7859 0.07984 0.37102 0.0
C2497 C 0.77526 0.06422 0.38767 0.0
C2498 C 0.77807 0.06636 0.41534 0.0
C2499 C 0.79105 0.08396 0.42596 0.0
C2500 C 0.7834 0.07806 0.34142 0.0
C2501 C 0.76716 0.05011 0.43387 0.0
H2502 H 0.71355 0.01842 0.36639 0.0
H2503 H 0.75617 1.00272 0.36157 0.0
H2504 H 0.73786 0.05867 0.40103 0.0
H2505 H 0.74465 0.0681 0.36857 0.0
H2506 H 0.72084 0.04958 0.37447 0.0
H2507 H 0.78837 0.02471 0.3658 0.0
H2508 H 0.79576 0.04933 0.36246 0.0
H2509 H 0.79093 0.03886 0.39446 0.0
H2510 H 0.80659 0.1095 0.36965 0.0
H2511 H 0.79315 0.08549 0.44718 0.0
H2512 H 0.76881 0.07436 0.33608 0.0
H2513 H 0.78553 0.06652 0.33404 0.0
H2514 H 0.79333 0.09127 0.33115 0.0
H2515 H 0.75186 0.04473 0.43144 0.0
H2516 H 0.77106 0.05413 0.45491 0.0
H2517 H 0.7697 0.03838 0.42901 0.0
C2518 C 0.99807 0.73565 0.35816 0.0
C2519 C 1.00318 0.72453 0.34322 0.0
C2520 C 0.97932 0.72891 0.36557 0.0
C2521 C 0.96513 0.71084 0.35701 0.0
C2522 C 0.97005 0.70005 0.34039 0.0
C2523 C 0.98909 0.70684 0.3342 0.0
C2524 C 0.97492 0.74069 0.38398 0.0
C2525 C 0.9553 0.68109 0.32987 0.0
C2526 C 0.925 0.68663 0.40527 0.0
C2527 C 0.91233 0.69232 0.39648 0.0
C2528 C 0.94183 0.69192 0.392 0.0
C2529 C 0.94585 0.70246 0.36847 0.0
C2530 C 0.93224 0.70658 0.35792 0.0
C2531 C 0.91571 0.70167 0.37224 0.0
C2532 C 0.95592 0.68741 0.40435 0.0
C2533 C 0.93556 0.71698 0.33223 0.0
H2534 H 1.00892 0.7493 0.36529 0.0
H2535 H 0.99296 0.69828 0.32239 0.0
H2536 H 0.96364 0.7428 0.37545 0.0
H2537 H 0.96968 0.73323 0.40301 0.0
H2538 H 0.98741 0.75469 0.38809 0.0
H2539 H 0.96066 0.67638 0.31313 0.0
H2540 H 0.95093 0.67048 0.34575 0.0
H2541 H 0.9426 0.68151 0.32321 0.0
H2542 H 0.92218 0.67878 0.42348 0.0
H2543 H 0.90592 0.70592 0.3651 0.0
H2544 H 0.96891 0.70067 0.40979 0.0
H2545 H 0.95994 0.67981 0.39005 0.0
H2546 H 0.95041 0.67868 0.42237 0.0
H2547 H 0.9457 0.73213 0.3355 0.0
H2548 H 0.92234 0.71563 0.32404 0.0
H2549 H 0.94171 0.71168 0.3174 0.0
C2550 C 0.39995 0.0402 0.70577 0.0
C2551 C 0.40412 0.05694 0.69298 0.0
C2552 C 0.41429 0.03631 0.71267 0.0
C2553 C 0.43321 0.04923 0.70596 0.0
C2554 C 0.4373 0.06558 0.69153 0.0
C2555 C 0.42277 0.0694 0.6856 0.0
C2556 C 0.4093 0.01886 0.72846 0.0
C2557 C 0.45714 0.07941 0.68322 0.0
C2558 C 0.46924 0.04935 0.75339 0.0
C2559 C 0.4734 0.03642 0.74144 0.0
C2560 C 0.45683 0.05427 0.7415 0.0
C2561 C 0.44875 0.04652 0.71654 0.0
C2562 C 0.45435 0.03493 0.70317 0.0
C2563 C 0.4665 0.02987 0.71588 0.0
C2564 C 0.45126 0.06659 0.75664 0.0
C2565 C 0.4466 0.02692 0.67616 0.0
H2566 H 0.38559 0.03056 0.71162 0.0
H2567 H 0.42605 0.08229 0.67546 0.0
H2568 H 0.41474 0.01047 0.71863 0.0
H2569 H 0.41606 0.02296 0.74827 0.0
H2570 H 0.39388 0.00982 0.73106 0.0
H2571 H 0.45756 0.0898 0.66881 0.0
H2572 H 0.46565 0.08717 0.70079 0.0
H2573 H 0.46388 0.07192 0.67428 0.0
H2574 H 0.47478 0.05471 0.77297 0.0
H2575 H 0.46959 0.01984 0.70651 0.0
H2576 H 0.43614 0.0583 0.76186 0.0
H2577 H 0.45309 0.07851 0.74428 0.0
H2578 H 0.45961 0.07232 0.77511 0.0
H2579 H 0.4318 0.01543 0.67795 0.0
H2580 H 0.45477 0.02113 0.66654 0.0
H2581 H 0.44666 0.03784 0.6632 0.0
C2582 C 0.98344 0.36322 0.66918 0.0
C2583 C 0.96594 0.34895 0.67804 0.0
C2584 C 0.98951 0.38228 0.67453 0.0
C2585 C 0.97826 0.38703 0.69033 0.0
C2586 C 0.96037 0.37261 0.69873 0.0
C2587 C 0.95428 0.35382 0.69198 0.0
C2588 C 1.00823 0.39722 0.66402 0.0
C2589 C 0.94815 0.37684 0.71641 0.0
C2590 C 1.00153 0.42822 0.73785 0.0
C2591 C 0.99503 0.44011 0.72865 0.0
C2592 C 0.99675 0.41127 0.72501 0.0
C2593 C 0.98604 0.40644 0.70136 0.0
C2594 C 0.9812 0.41936 0.6903 0.0
C2595 C 0.98549 0.43595 0.7043 0.0
C2596 C 1.00201 0.39793 0.73793 0.0
C2597 C 0.97073 0.41526 0.66436 0.0
H2598 H 0.99239 0.35949 0.65813 0.0
H2599 H 0.94079 0.34278 0.69896 0.0
H2600 H 1.0075 0.40976 0.65758 0.0
H2601 H 0.01907 0.40178 0.67981 0.0
H2602 H 1.01286 0.3919 0.64713 0.0
H2603 H 0.93442 0.36411 0.72062 0.0
H2604 H 0.95558 0.38281 0.73544 0.0
H2605 H 0.94544 0.3875 0.70719 0.0
H2606 H 1.00963 0.4317 0.75606 0.0
H2607 H 0.98065 0.44516 0.69678 0.0
H2608 H 1.01023 0.39438 0.72415 0.0
H2609 H 0.98906 0.3846 0.74293 0.0
H2610 H 1.01044 0.40388 0.7563 0.0
H2611 H 0.97622 0.40896 0.65001 0.0
H2612 H 0.9718 0.42817 0.65565 0.0
H2613 H 0.95563 0.40498 0.66748 0.0
C2614 C 0.65264 0.61508 0.6679 0.0
C2615 C 0.66675 0.61789 0.68611 0.0
C2616 C 0.63361 0.60192 0.67291 0.0
C2617 C 0.62864 0.59203 0.69715 0.0
C2618 C 0.64294 0.59524 0.71576 0.0
C2619 C 0.66182 0.6078 0.70973 0.0
C2620 C 0.61892 0.59829 0.6521 0.0
C2621 C 0.63832 0.58556 0.74225 0.0
C2622 C 0.58104 0.57208 0.72955 0.0
C2623 C 0.57521 0.5528 0.73005 0.0
C2624 C 0.59783 0.58507 0.71718 0.0
C2625 C 0.60859 0.57855 0.70378 0.0
C2626 C 0.60135 0.55893 0.70094 0.0
C2627 C 0.5849 0.54628 0.71444 0.0
C2628 C 0.60503 0.60581 0.72116 0.0
C2629 C 0.61188 0.55132 0.68572 0.0
H2630 H 0.65655 0.62277 0.64948 0.0
H2631 H 0.67278 0.61009 0.72382 0.0
H2632 H 0.61189 0.58331 0.64584 0.0
H2633 H 0.60788 0.60084 0.66026 0.0
H2634 H 0.62504 0.60727 0.63443 0.0
H2635 H 0.65097 0.59049 0.75508 0.0
H2636 H 0.62795 0.58813 0.7527 0.0
H2637 H 0.63183 0.57015 0.73941 0.0
H2638 H 0.57332 0.57723 0.7408 0.0
H2639 H 0.58058 0.53146 0.71442 0.0
H2640 H 0.61082 0.61369 0.70261 0.0
H2641 H 0.61662 0.61144 0.73599 0.0
H2642 H 0.59386 0.60857 0.72836 0.0
H2643 H 0.61796 0.55952 0.66744 0.0
H2644 H 0.60262 0.53628 0.68032 0.0
H2645 H 0.62366 0.5525 0.69802 0.0
C2646 C 0.73103 0.73957 0.64214 0.0
C2647 C 0.72283 0.7264 0.66238 0.0
C2648 C 0.72516 0.75261 0.63678 0.0
C2649 C 0.71126 0.75304 0.65277 0.0
C2650 C 0.7033 0.74011 0.67382 0.0
C2651 C 0.7089 0.72663 0.67803 0.0
C2652 C 0.73364 0.7657 0.61359 0.0
C2653 C 0.68905 0.74063 0.69197 0.0
C2654 C 0.7132 0.79954 0.64154 0.0
C2655 C 0.69976 0.79459 0.62131 0.0
C2656 C 0.71567 0.78573 0.65442 0.0
C2657 C 0.70478 0.76666 0.64636 0.0
C2658 C 0.68981 0.76143 0.62812 0.0
C2659 C 0.68724 0.77543 0.61628 0.0
C2660 C 0.73118 0.79182 0.67474 0.0
C2661 C 0.67796 0.74138 0.61855 0.0
H2662 H 0.74171 0.73932 0.62993 0.0
H2663 H 0.7027 0.71655 0.69388 0.0
H2664 H 0.72234 0.76412 0.59984 0.0
H2665 H 0.74119 0.78051 0.62056 0.0
H2666 H 0.74367 0.76298 0.60245 0.0
H2667 H 0.68492 0.73025 0.7082 0.0
H2668 H 0.6949 0.7549 0.70071 0.0
H2669 H 0.67624 0.73768 0.68066 0.0
H2670 H 0.72289 0.81426 0.64578 0.0
H2671 H 0.67646 0.77146 0.60118 0.0
H2672 H 0.74379 0.79274 0.66532 0.0
H2673 H 0.72688 0.78146 0.69098 0.0
H2674 H 0.73521 0.80584 0.68324 0.0
H2675 H 0.68643 0.73798 0.60497 0.0
H2676 H 0.66517 0.73914 0.60775 0.0
H2677 H 0.6736 0.73137 0.63521 0.0
C2678 C 0.27288 0.99067 0.68889 0.0
C2679 C 0.29045 0.99856 0.67656 0.0
C2680 C 0.25861 0.97219 0.68302 0.0
C2681 C 0.2617 0.9617 0.66343 0.0
C2682 C 0.2797 0.96942 0.65165 0.0
C2683 C 0.29396 0.98762 0.65876 0.0
C2684 C 0.23999 0.96422 0.69697 0.0
C2685 C 0.28352 0.95897 0.63021 0.0
C2686 C 0.22995 0.90979 0.64659 0.0
C2687 C 0.22016 0.91097 0.62455 0.0
C2688 C 0.24251 0.92607 0.66098 0.0
C2689 C 0.24566 0.9439 0.65263 0.0
C2690 C 0.23463 0.94487 0.63174 0.0
C2691 C 0.22177 0.92838 0.61841 0.0
C2692 C 0.25328 0.9243 0.68396 0.0
C2693 C 0.23757 0.9635 0.62185 0.0
H2694 H 0.27021 0.99906 0.7029 0.0
H2695 H 0.30751 0.99375 0.64911 0.0
H2696 H 0.2294 0.9645 0.68355 0.0
H2697 H 0.23473 0.94935 0.70252 0.0
H2698 H 0.24106 0.97242 0.71503 0.0
H2699 H 0.29843 0.96656 0.62381 0.0
H2700 H 0.28002 0.9448 0.63713 0.0
H2701 H 0.27441 0.95701 0.6128 0.0
H2702 H 0.22877 0.8964 0.65153 0.0
H2703 H 0.21396 0.9293 0.60168 0.0
H2704 H 0.25461 0.93394 0.7003 0.0
H2705 H 0.26769 0.92823 0.67758 0.0
H2706 H 0.2464 0.90968 0.69157 0.0
H2707 H 0.23631 0.97174 0.63827 0.0
H2708 H 0.22732 0.96176 0.60611 0.0
H2709 H 0.25199 0.97188 0.61379 0.0
C2710 C 0.0316 0.3086 0.66032 0.0
C2711 C 0.02167 0.29646 0.68105 0.0
C2712 C 0.0496 0.31199 0.65341 0.0
C2713 C 0.05814 0.30354 0.66818 0.0
C2714 C 0.04872 0.29243 0.6904 0.0
C2715 C 0.03043 0.2887 0.69624 0.0
C2716 C 0.0589 0.32357 0.62919 0.0
C2717 C 0.05761 0.2838 0.7073 0.0
C2718 C 0.09069 0.29277 0.6284 0.0
C2719 C 0.10817 0.30892 0.63276 0.0
C2720 C 0.07442 0.29049 0.64073 0.0
C2721 C 0.07575 0.30454 0.65838 0.0
C2722 C 0.09367 0.32021 0.66441 0.0
C2723 C 0.10968 0.32242 0.65107 0.0
C2724 C 0.05564 0.27377 0.63318 0.0
C2725 C 0.09582 0.33515 0.68378 0.0
H2726 H 0.02482 0.31451 0.64843 0.0
H2727 H 0.02284 0.27942 0.71243 0.0
H2728 H 0.07331 0.33504 0.63408 0.0
H2729 H 0.06021 0.31456 0.61395 0.0
H2730 H 0.05083 0.32986 0.62059 0.0
H2731 H 0.04995 0.27824 0.72613 0.0
H2732 H 0.05757 0.27204 0.6964 0.0
H2733 H 0.07249 0.29431 0.71187 0.0
H2734 H 0.08953 0.28258 0.61374 0.0
H2735 H 0.12317 0.33508 0.65402 0.0
H2736 H 0.04696 0.27868 0.62274 0.0
H2737 H 0.04785 0.26618 0.65106 0.0
H2738 H 0.05713 0.26371 0.6201 0.0
H2739 H 0.09091 0.34418 0.67446 0.0
H2740 H 0.1107 0.34426 0.69011 0.0
H2741 H 0.08707 0.32869 0.70151 0.0
C2742 C 0.27847 0.28948 0.64925 0.0
C2743 C 0.28924 0.2955 0.67244 0.0
C2744 C 0.26514 0.29491 0.64347 0.0
C2745 C 0.26191 0.306 0.66193 0.0
C2746 C 0.27254 0.31182 0.68573 0.0
C2747 C 0.28641 0.3068 0.69048 0.0
C2748 C 0.25463 0.28889 0.61742 0.0
C2749 C 0.26897 0.32293 0.70637 0.0
C2750 C 0.23923 0.33085 0.62854 0.0
C2751 C 0.22021 0.31666 0.62864 0.0
C2752 C 0.25304 0.32834 0.64128 0.0
C2753 C 0.24761 0.31161 0.65554 0.0
C2754 C 0.22822 0.29864 0.65912 0.0
C2755 C 0.21472 0.30117 0.64531 0.0
C2756 C 0.27349 0.3425 0.63657 0.0
C2757 C 0.22177 0.28108 0.67527 0.0
H2758 H 0.28077 0.28077 0.63533 0.0
H2759 H 0.29464 0.31122 0.70859 0.0
H2760 H 0.23939 0.27953 0.62097 0.0
H2761 H 0.2563 0.30136 0.60658 0.0
H2762 H 0.25963 0.28128 0.60463 0.0
H2763 H 0.27889 0.32696 0.72338 0.0
H2764 H 0.27018 0.33587 0.69767 0.0
H2765 H 0.25439 0.31442 0.71378 0.0
H2766 H 0.24353 0.34314 0.6163 0.0
H2767 H 0.20009 0.29015 0.64578 0.0
H2768 H 0.27916 0.33674 0.62167 0.0
H2769 H 0.28197 0.34528 0.65487 0.0
H2770 H 0.27537 0.35605 0.62908 0.0
H2771 H 0.22314 0.27044 0.66342 0.0
H2772 H 0.20682 0.27489 0.68116 0.0
H2773 H 0.2306 0.28408 0.6933 0.0
C2774 C 0.71375 0.99491 0.6523 0.0
C2775 C 0.73255 0.00893 0.65637 0.0
C2776 C 0.70902 0.97636 0.64585 0.0
C2777 C 0.72343 0.97171 0.64353 0.0
C2778 C 0.74232 0.9856 0.64887 0.0
C2779 C 0.74665 1.00403 0.65513 0.0
C2780 C 0.68871 0.96198 0.64026 0.0
C2781 C 0.75811 0.98125 0.64675 0.0
C2782 C 0.70985 0.91995 0.63818 0.0
C2783 C 0.70983 0.91765 0.61074 0.0
C2784 C 0.71438 0.9375 0.64931 0.0
C2785 C 0.71905 0.95304 0.63256 0.0
C2786 C 0.71955 0.95083 0.6049 0.0
C2787 C 0.71504 0.93326 0.5944 0.0
C2788 C 0.71384 0.93935 0.67889 0.0
C2789 C 0.72458 0.967 0.58627 0.0
H2790 H 0.70275 0.99854 0.65332 0.0
H2791 H 0.76121 0.01471 0.65847 0.0
H2792 H 0.6869 0.95822 0.61896 0.0
H2793 H 0.68458 0.94891 0.65148 0.0
H2794 H 0.67902 0.96726 0.64542 0.0
H2795 H 0.77168 0.99294 0.65434 0.0
H2796 H 0.75465 0.96829 0.65786 0.0
H2797 H 0.75995 0.97863 0.62577 0.0
H2798 H 0.70583 0.90793 0.65086 0.0
H2799 H 0.71544 0.93166 0.57319 0.0
H2800 H 0.70291 0.94296 0.68414 0.0
H2801 H 0.72751 0.95097 0.68625 0.0
H2802 H 0.71073 0.9262 0.68925 0.0
H2803 H 0.71453 0.97221 0.58859 0.0
H2804 H 0.72437 0.96295 0.56526 0.0
H2805 H 0.73881 0.97885 0.59111 0.0
C2806 C 0.02791 0.74861 0.65468 0.0
C2807 C 0.02388 0.73308 0.6705 0.0
C2808 C 0.04654 0.76205 0.64862 0.0
C2809 C 0.06158 0.76039 0.6596 0.0
C2810 C 0.05756 0.74553 0.67736 0.0
C2811 C 0.03872 0.73173 0.68202 0.0
C2812 C 0.05002 0.77721 0.62888 0.0
C2813 C 0.07312 0.74379 0.69064 0.0
C2814 C 0.10313 0.77726 0.61397 0.0
C2815 C 0.11416 0.79633 0.62103 0.0
C2816 C 0.08641 0.76529 0.62705 0.0
C2817 C 0.08093 0.77219 0.64887 0.0
C2818 C 0.09306 0.79085 0.65803 0.0
C2819 C 0.10946 0.80286 0.64372 0.0
C2820 C 0.07392 0.74569 0.61609 0.0
C2821 C 0.08828 0.79843 0.68211 0.0
H2822 H 0.01642 0.74963 0.64574 0.0
H2823 H 0.0356 0.71987 0.69461 0.0
H2824 H 0.05994 0.79127 0.63722 0.0
H2825 H 0.0566 0.77529 0.61092 0.0
H2826 H 0.03686 0.77698 0.62294 0.0
H2827 H 0.06799 0.73469 0.70837 0.0
H2828 H 0.07878 0.73745 0.67669 0.0
H2829 H 0.08488 0.75782 0.69658 0.0
H2830 H 0.10705 0.77191 0.59701 0.0
H2831 H 0.11807 0.81747 0.64957 0.0
H2832 H 0.06021 0.74407 0.60972 0.0
H2833 H 0.071 0.73505 0.63152 0.0
H2834 H 0.08029 0.74256 0.59892 0.0
H2835 H 0.07799 0.80287 0.67662 0.0
H2836 H 0.10095 0.81082 0.69055 0.0
H2837 H 0.0818 0.78747 0.69754 0.0
C2838 C 0.95659 0.59985 0.6602 0.0
C2839 C 0.9673 0.6176 0.67214 0.0
C2840 C 0.95977 0.58493 0.66629 0.0
C2841 C 0.97353 0.58763 0.68549 0.0
C2842 C 0.9848 0.60572 0.69693 0.0
C2843 C 0.98174 0.62054 0.68981 0.0
C2844 C 0.94792 0.56611 0.6529 0.0
C2845 C 0.99941 0.6092 0.71785 0.0
C2846 C 0.96747 0.54814 0.73047 0.0
C2847 C 0.98261 0.54576 0.72302 0.0
C2848 C 0.96369 0.56097 0.71745 0.0
C2849 C 0.97493 0.5713 0.6958 0.0
C2850 C 0.98882 0.56735 0.68628 0.0
C2851 C 0.99263 0.55473 0.70016 0.0
C2852 C 0.9488 0.56472 0.72849 0.0
C2853 C 1.00063 0.57746 0.66264 0.0
H2854 H 0.94551 0.59753 0.64633 0.0
H2855 H 0.98999 0.63419 0.6992 0.0
H2856 H 0.95683 0.56022 0.64642 0.0
H2857 H 0.93751 0.55605 0.66705 0.0
H2858 H 0.94017 0.56712 0.6355 0.0
H2859 H 1.00745 0.62419 0.72412 0.0
H2860 H 0.99244 0.60048 0.73544 0.0
H2861 H 1.00945 0.60497 0.71043 0.0
H2862 H 0.95953 0.54105 0.74794 0.0
H2863 H 1.00438 0.55303 0.69429 0.0
H2864 H 0.93915 0.56408 0.7126 0.0
H2865 H 0.95563 0.5791 0.73712 0.0
H2866 H 0.94035 0.55452 0.74408 0.0
H2867 H 0.99184 0.57859 0.6468 0.0
H2868 H 1.00792 0.57023 0.65457 0.0
H2869 H 1.01144 0.59195 0.66849 0.0
C2870 C 0.4085 0.35731 0.71501 0.0
C2871 C 0.39749 0.35156 0.69202 0.0
C2872 C 0.42122 0.37637 0.72 0.0
C2873 C 0.4236 0.39001 0.70093 0.0
C2874 C 0.41272 0.38421 0.67734 0.0
C2875 C 0.39946 0.36501 0.67339 0.0
C2876 C 0.43201 0.3819 0.74585 0.0
C2877 C 0.41543 0.39816 0.65605 0.0
C2878 C 0.44497 0.43832 0.73205 0.0
C2879 C 0.46419 0.44389 0.73172 0.0
C2880 C 0.43145 0.42141 0.72014 0.0
C2881 C 0.43736 0.41024 0.70642 0.0
C2882 C 0.45683 0.41727 0.70254 0.0
C2883 C 0.47004 0.43388 0.71556 0.0
C2884 C 0.4109 0.4145 0.72513 0.0
C2885 C 0.46376 0.40629 0.6869 0.0
H2886 H 0.40686 0.34684 0.72941 0.0
H2887 H 0.39105 0.36045 0.65545 0.0
H2888 H 0.44728 0.38824 0.74207 0.0
H2889 H 0.4299 0.39265 0.75618 0.0
H2890 H 0.42761 0.36972 0.75922 0.0
H2891 H 0.40527 0.39155 0.63945 0.0
H2892 H 0.41391 0.40986 0.66427 0.0
H2893 H 0.42992 0.40442 0.64818 0.0
H2894 H 0.44033 0.4463 0.74376 0.0
H2895 H 0.48481 0.43801 0.71488 0.0
H2896 H 0.40578 0.40345 0.74053 0.0
H2897 H 0.4023 0.4081 0.70709 0.0
H2898 H 0.40851 0.42598 0.73209 0.0
H2899 H 0.46304 0.39482 0.69928 0.0
H2900 H 0.47857 0.41535 0.68061 0.0
H2901 H 0.45481 0.39975 0.66914 0.0
C2902 C 0.66995 0.07415 0.69771 0.0
C2903 C 0.67483 0.06366 0.68094 0.0
C2904 C 0.65122 0.06737 0.70526 0.0
C2905 C 0.63683 0.04992 0.69513 0.0
C2906 C 0.64152 0.03982 0.67687 0.0
C2907 C 0.66053 0.04662 0.67039 0.0
C2908 C 0.64702 0.0784 0.72533 0.0
C2909 C 0.62657 0.02153 0.66482 0.0
C2910 C 0.5961 0.02418 0.74209 0.0
C2911 C 0.5838 0.03056 0.73431 0.0
C2912 C 0.61299 0.02972 0.7288 0.0
C2913 C 0.61747 0.04138 0.70635 0.0
C2914 C 0.60426 0.04636 0.69677 0.0
C2915 C 0.58763 0.04106 0.71104 0.0
C2916 C 0.62664 0.0242 0.74005 0.0
C2917 C 0.60813 0.0581 0.67226 0.0
H2918 H 0.68094 0.08729 0.70601 0.0
H2919 H 0.6642 0.03855 0.65719 0.0
H2920 H 0.63597 0.08119 0.71769 0.0
H2921 H 0.64157 0.07002 0.74363 0.0
H2922 H 0.65967 0.09205 0.73052 0.0
H2923 H 0.63193 0.01728 0.64758 0.0
H2924 H 0.62162 0.01022 0.67975 0.0
H2925 H 0.61423 0.02271 0.65844 0.0
H2926 H 0.59295 0.0155 0.75953 0.0
H2927 H 0.57813 0.0459 0.70471 0.0
H2928 H 0.63964 0.03699 0.7468 0.0
H2929 H 0.63075 0.01734 0.72468 0.0
H2930 H 0.62069 0.01446 0.75702 0.0
H2931 H 0.61867 0.07294 0.67686 0.0
H2932 H 0.5952 0.05765 0.66457 0.0
H2933 H 0.61406 0.05319 0.65653 0.0
loop_
_geom_bond_atom_site_label_1
_geom_bond_atom_site_label_2
_geom_bond_distance
_geom_bond_site_symmetry_2
_ccdc_geom_bond_type
O0 Cd1 2.223 . S
O0 C8 1.315 . S
Cd1 O0 2.223 . S
Cd1 O4 2.297 . S
Cd1 O5 2.439 . S
Cd1 O11 2.240 1_554 S
Cd2 O3 2.240 . S
Cd2 O10 2.223 1_554 S
Cd2 O12 2.297 1_554 S
Cd2 O13 2.439 1_554 S
O3 Cd2 2.240 . S
O3 C8 1.279 1_655 S
O4 Cd1 2.297 . S
O4 C6 1.247 . S
O5 Cd1 2.439 . S
O5 C6 1.208 . S
C6 O4 1.247 . S
C6 O5 1.208 . S
C7 O12 1.247 . S
C7 O13 1.208 . S
C8 O0 1.315 . S
C8 O3 1.279 1_455 S
C9 O10 1.315 . S
C9 O11 1.279 1_655 S
O10 Cd2 2.223 1_556 S
O10 C9 1.315 . S
O11 Cd1 2.240 1_556 S
O11 C9 1.279 1_455 S
O12 Cd2 2.297 1_556 S
O12 C7 1.247 . S
O13 Cd2 2.439 1_556 S
O13 C7 1.208 . S
O14 Cd15 2.223 . S
O14 C22 1.315 . S
Cd15 O14 2.223 . S
Cd15 O18 2.297 . S
Cd15 O19 2.439 . S
Cd15 O25 2.240 1_554 S
Cd16 O17 2.240 . S
Cd16 O24 2.223 1_554 S
Cd16 O26 2.297 1_554 S
Cd16 O27 2.439 1_554 S
O17 Cd16 2.240 . S
O17 C22 1.279 . S
O18 Cd15 2.297 . S
O18 C20 1.247 . S
O19 Cd15 2.439 . S
O19 C20 1.208 . S
C20 O18 1.247 . S
C20 O19 1.208 . S
C21 O26 1.247 . S
C21 O27 1.208 . S
C22 O14 1.315 . S
C22 O17 1.279 . S
C23 O24 1.315 . S
C23 O25 1.279 . S
O24 Cd16 2.223 1_556 S
O24 C23 1.315 . S
O25 Cd15 2.240 1_556 S
O25 C23 1.279 . S
O26 Cd16 2.297 1_556 S
O26 C21 1.247 . S
O27 Cd16 2.439 1_556 S
O27 C21 1.208 . S
O28 Cd29 2.223 1_556 S
O28 C36 1.315 . S
Cd29 O28 2.223 1_554 S
Cd29 O32 2.297 1_554 S
Cd29 O33 2.439 1_554 S
Cd29 O39 2.240 . S
Cd30 O31 2.240 1_554 S
Cd30 O38 2.223 . S
Cd30 O40 2.297 . S
Cd30 O41 2.439 . S
O31 Cd30 2.240 1_556 S
O31 C36 1.279 1_565 S
O32 Cd29 2.297 1_556 S
O32 C34 1.247 . S
O33 Cd29 2.439 1_556 S
O33 C34 1.208 . S
C34 O32 1.247 . S
C34 O33 1.208 . S
C35 O40 1.247 . S
C35 O41 1.208 . S
C36 O28 1.315 . S
C36 O31 1.279 1_545 S
C37 O38 1.315 . S
C37 O39 1.279 1_565 S
O38 Cd30 2.223 . S
O38 C37 1.315 . S
O39 Cd29 2.240 . S
O39 C37 1.279 1_545 S
O40 Cd30 2.297 . S
O40 C35 1.247 . S
O41 Cd30 2.439 . S
O41 C35 1.208 . S
O42 Cd43 2.223 1_556 S
O42 C50 1.315 . S
Cd43 O42 2.223 1_554 S
Cd43 O46 2.297 1_554 S
Cd43 O47 2.439 1_554 S
Cd43 O53 2.240 . S
Cd44 O45 2.240 1_554 S
Cd44 O52 2.223 . S
Cd44 O54 2.297 . S
Cd44 O55 2.439 . S
O45 Cd44 2.240 1_556 S
O45 C50 1.279 1_455 S
O46 Cd43 2.297 1_556 S
O46 C48 1.247 . S
O47 Cd43 2.439 1_556 S
O47 C48 1.208 . S
C48 O46 1.247 . S
C48 O47 1.208 . S
C49 O54 1.247 . S
C49 O55 1.208 . S
C50 O42 1.315 . S
C50 O45 1.279 1_655 S
C51 O52 1.315 . S
C51 O53 1.279 1_455 S
O52 Cd44 2.223 . S
O52 C51 1.315 . S
O53 Cd43 2.240 . S
O53 C51 1.279 1_655 S
O54 Cd44 2.297 . S
O54 C49 1.247 . S
O55 Cd44 2.439 . S
O55 C49 1.208 . S
O56 Cd57 2.223 1_556 S
O56 C64 1.315 . S
Cd57 O56 2.223 1_554 S
Cd57 O60 2.297 1_554 S
Cd57 O61 2.439 1_554 S
Cd57 O67 2.240 . S
Cd58 O59 2.240 1_554 S
Cd58 O66 2.223 . S
Cd58 O68 2.297 . S
Cd58 O69 2.439 . S
O59 Cd58 2.240 1_556 S
O59 C64 1.279 . S
O60 Cd57 2.297 1_556 S
O60 C62 1.247 . S
O61 Cd57 2.439 1_556 S
O61 C62 1.208 . S
C62 O60 1.247 . S
C62 O61 1.208 . S
C63 O68 1.247 . S
C63 O69 1.208 . S
C64 O56 1.315 . S
C64 O59 1.279 . S
C65 O66 1.315 . S
C65 O67 1.279 . S
O66 Cd58 2.223 . S
O66 C65 1.315 . S
O67 Cd57 2.240 . S
O67 C65 1.279 . S
O68 Cd58 2.297 . S
O68 C63 1.247 . S
O69 Cd58 2.439 . S
O69 C63 1.208 . S
O70 Cd71 2.223 . S
O70 C78 1.315 . S
Cd71 O70 2.223 . S
Cd71 O74 2.297 . S
Cd71 O75 2.439 . S
Cd71 O81 2.240 1_554 S
Cd72 O73 2.240 . S
Cd72 O80 2.223 1_554 S
Cd72 O82 2.297 1_554 S
Cd72 O83 2.439 1_554 S
O73 Cd72 2.240 . S
O73 C78 1.279 1_545 S
O74 Cd71 2.297 . S
O74 C76 1.247 . S
O75 Cd71 2.439 . S
O75 C76 1.208 . S
C76 O74 1.247 . S
C76 O75 1.208 . S
C77 O82 1.247 . S
C77 O83 1.208 . S
C78 O70 1.315 . S
C78 O73 1.279 1_565 S
C79 O80 1.315 . S
C79 O81 1.279 1_545 S
O80 Cd72 2.223 1_556 S
O80 C79 1.315 . S
O81 Cd71 2.240 1_556 S
O81 C79 1.279 1_565 S
O82 Cd72 2.297 1_556 S
O82 C77 1.247 . S
O83 Cd72 2.439 1_556 S
O83 C77 1.208 . S
O84 Cd85 2.223 . S
O84 C92 1.315 . S
Cd85 O84 2.223 . S
Cd85 O88 2.297 . S
Cd85 O89 2.439 . S
Cd85 O95 2.240 . S
Cd86 O87 2.240 . S
Cd86 O94 2.223 . S
Cd86 O96 2.297 . S
Cd86 O97 2.439 . S
O87 Cd86 2.240 . S
O87 C92 1.279 . S
O88 Cd85 2.297 . S
O88 C90 1.247 . S
O89 Cd85 2.439 . S
O89 C90 1.208 . S
C90 O88 1.247 . S
C90 O89 1.208 . S
C91 O96 1.247 . S
C91 O97 1.208 . S
C92 O84 1.315 . S
C92 O87 1.279 . S
C93 O94 1.315 . S
C93 O95 1.279 . S
O94 Cd86 2.223 . S
O94 C93 1.315 . S
O95 Cd85 2.240 . S
O95 C93 1.279 . S
O96 Cd86 2.297 . S
O96 C91 1.247 . S
O97 Cd86 2.439 . S
O97 C91 1.208 . S
O98 Cd99 2.223 . S
O98 C106 1.315 . S
Cd99 O98 2.223 . S
Cd99 O102 2.297 1_565 S
Cd99 O103 2.439 1_565 S
Cd99 O109 2.240 . S
Cd100 O101 2.240 . S
Cd100 O108 2.223 . S
Cd100 O110 2.297 . S
Cd100 O111 2.439 . S
O101 Cd100 2.240 . S
O101 C106 1.279 . S
O102 Cd99 2.297 1_545 S
O102 C104 1.247 . S
O103 Cd99 2.439 1_545 S
O103 C104 1.208 . S
C104 O102 1.247 . S
C104 O103 1.208 . S
C105 O110 1.247 . S
C105 O111 1.208 . S
C106 O98 1.315 . S
C106 O101 1.279 . S
C107 O108 1.315 . S
C107 O109 1.279 . S
O108 Cd100 2.223 . S
O108 C107 1.315 . S
O109 Cd99 2.240 . S
O109 C107 1.279 . S
O110 Cd100 2.297 . S
O110 C105 1.247 . S
O111 Cd100 2.439 . S
O111 C105 1.208 . S
O112 Cd113 2.223 . S
O112 C120 1.315 . S
Cd113 O112 2.223 . S
Cd113 O116 2.297 . S
Cd113 O117 2.439 . S
Cd113 O123 2.240 . S
Cd114 O115 2.240 . S
Cd114 O122 2.223 . S
Cd114 O124 2.297 1_455 S
Cd114 O125 2.439 1_455 S
O115 Cd114 2.240 . S
O115 C120 1.279 . S
O116 Cd113 2.297 . S
O116 C118 1.247 . S
O117 Cd113 2.439 . S
O117 C118 1.208 . S
C118 O116 1.247 . S
C118 O117 1.208 . S
C119 O124 1.247 . S
C119 O125 1.208 . S
C120 O112 1.315 . S
C120 O115 1.279 . S
C121 O122 1.315 . S
C121 O123 1.279 . S
O122 Cd114 2.223 . S
O122 C121 1.315 . S
O123 Cd113 2.240 . S
O123 C121 1.279 . S
O124 Cd114 2.297 1_655 S
O124 C119 1.247 . S
O125 Cd114 2.439 1_655 S
O125 C119 1.208 . S
O126 Cd127 2.223 . S
O126 C134 1.315 . S
Cd127 O126 2.223 . S
Cd127 O130 2.297 . S
Cd127 O131 2.439 . S
Cd127 O137 2.240 . S
Cd128 O129 2.240 . S
Cd128 O136 2.223 . S
Cd128 O138 2.297 1_565 S
Cd128 O139 2.439 1_565 S
O129 Cd128 2.240 . S
O129 C134 1.279 . S
O130 Cd127 2.297 . S
O130 C132 1.247 . S
O131 Cd127 2.439 . S
O131 C132 1.208 . S
C132 O130 1.247 . S
C132 O131 1.208 . S
C133 O138 1.247 . S
C133 O139 1.208 . S
C134 O126 1.315 . S
C134 O129 1.279 . S
C135 O136 1.315 . S
C135 O137 1.279 . S
O136 Cd128 2.223 . S
O136 C135 1.315 . S
O137 Cd127 2.240 . S
O137 C135 1.279 . S
O138 Cd128 2.297 1_545 S
O138 C133 1.247 . S
O139 Cd128 2.439 1_545 S
O139 C133 1.208 . S
O140 Cd141 2.223 . S
O140 C148 1.315 . S
Cd141 O140 2.223 . S
Cd141 O144 2.297 . S
Cd141 O145 2.439 . S
Cd141 O151 2.240 . S
Cd142 O143 2.240 . S
Cd142 O150 2.223 . S
Cd142 O152 2.297 1_455 S
Cd142 O153 2.439 1_455 S
O143 Cd142 2.240 . S
O143 C148 1.279 . S
O144 Cd141 2.297 . S
O144 C146 1.247 . S
O145 Cd141 2.439 . S
O145 C146 1.208 . S
C146 O144 1.247 . S
C146 O145 1.208 . S
C147 O152 1.247 . S
C147 O153 1.208 . S
C148 O140 1.315 . S
C148 O143 1.279 . S
C149 O150 1.315 . S
C149 O151 1.279 . S
O150 Cd142 2.223 . S
O150 C149 1.315 . S
O151 Cd141 2.240 . S
O151 C149 1.279 . S
O152 Cd142 2.297 1_655 S
O152 C147 1.247 . S
O153 Cd142 2.439 1_655 S
O153 C147 1.208 . S
O154 Cd155 2.223 . S
O154 C162 1.315 . S
Cd155 O154 2.223 . S
Cd155 O158 2.297 . S
Cd155 O159 2.439 . S
Cd155 O165 2.240 . S
Cd156 O157 2.240 . S
Cd156 O164 2.223 . S
Cd156 O166 2.297 . S
Cd156 O167 2.439 . S
O157 Cd156 2.240 . S
O157 C162 1.279 . S
O158 Cd155 2.297 . S
O158 C160 1.247 . S
O159 Cd155 2.439 . S
O159 C160 1.208 . S
C160 O158 1.247 . S
C160 O159 1.208 . S
C161 O166 1.247 . S
C161 O167 1.208 . S
C162 O154 1.315 . S
C162 O157 1.279 . S
C163 O164 1.315 . S
C163 O165 1.279 . S
O164 Cd156 2.223 . S
O164 C163 1.315 . S
O165 Cd155 2.240 . S
O165 C163 1.279 . S
O166 Cd156 2.297 . S
O166 C161 1.247 . S
O167 Cd156 2.439 . S
O167 C161 1.208 . S
O168 Cd169 2.223 . S
O168 C176 1.315 . S
Cd169 O168 2.223 . S
Cd169 O172 2.297 . S
Cd169 O173 2.439 . S
Cd169 O179 2.240 . S
Cd170 O171 2.240 . S
Cd170 O178 2.223 . S
Cd170 O180 2.297 1_545 S
Cd170 O181 2.439 1_545 S
O171 Cd170 2.240 . S
O171 C176 1.279 . S
O172 Cd169 2.297 . S
O172 C174 1.247 . S
O173 Cd169 2.439 . S
O173 C174 1.208 . S
C174 O172 1.247 . S
C174 O173 1.208 . S
C175 O180 1.247 . S
C175 O181 1.208 . S
C176 O168 1.315 . S
C176 O171 1.279 . S
C177 O178 1.315 . S
C177 O179 1.279 . S
O178 Cd170 2.223 . S
O178 C177 1.315 . S
O179 Cd169 2.240 . S
O179 C177 1.279 . S
O180 Cd170 2.297 1_565 S
O180 C175 1.247 . S
O181 Cd170 2.439 1_565 S
O181 C175 1.208 . S
O182 Cd183 2.223 . S
O182 C190 1.315 . S
Cd183 O182 2.223 . S
Cd183 O186 2.297 . S
Cd183 O187 2.439 . S
Cd183 O193 2.240 . S
Cd184 O185 2.240 . S
Cd184 O192 2.223 . S
Cd184 O194 2.297 1_655 S
Cd184 O195 2.439 1_655 S
O185 Cd184 2.240 . S
O185 C190 1.279 . S
O186 Cd183 2.297 . S
O186 C188 1.247 . S
O187 Cd183 2.439 . S
O187 C188 1.208 . S
C188 O186 1.247 . S
C188 O187 1.208 . S
C189 O194 1.247 . S
C189 O195 1.208 . S
C190 O182 1.315 . S
C190 O185 1.279 . S
C191 O192 1.315 . S
C191 O193 1.279 . S
O192 Cd184 2.223 . S
O192 C191 1.315 . S
O193 Cd183 2.240 . S
O193 C191 1.279 . S
O194 Cd184 2.297 1_455 S
O194 C189 1.247 . S
O195 Cd184 2.439 1_455 S
O195 C189 1.208 . S
O196 Cd197 2.223 . S
O196 C204 1.315 . S
Cd197 O196 2.223 . S
Cd197 O200 2.297 . S
Cd197 O201 2.439 . S
Cd197 O207 2.240 . S
Cd198 O199 2.240 . S
Cd198 O206 2.223 . S
Cd198 O208 2.297 . S
Cd198 O209 2.439 . S
O199 Cd198 2.240 . S
O199 C204 1.279 . S
O200 Cd197 2.297 . S
O200 C202 1.247 . S
O201 Cd197 2.439 . S
O201 C202 1.208 . S
C202 O200 1.247 . S
C202 O201 1.208 . S
C203 O208 1.247 . S
C203 O209 1.208 . S
C204 O196 1.315 . S
C204 O199 1.279 . S
C205 O206 1.315 . S
C205 O207 1.279 . S
O206 Cd198 2.223 . S
O206 C205 1.315 . S
O207 Cd197 2.240 . S
O207 C205 1.279 . S
O208 Cd198 2.297 . S
O208 C203 1.247 . S
O209 Cd198 2.439 . S
O209 C203 1.208 . S
O210 Cd211 2.223 . S
O210 C218 1.315 . S
Cd211 O210 2.223 . S
Cd211 O214 2.297 . S
Cd211 O215 2.439 . S
Cd211 O221 2.240 . S
Cd212 O213 2.240 . S
Cd212 O220 2.223 . S
Cd212 O222 2.297 . S
Cd212 O223 2.439 . S
O213 Cd212 2.240 . S
O213 C218 1.279 . S
O214 Cd211 2.297 . S
O214 C216 1.247 . S
O215 Cd211 2.439 . S
O215 C216 1.208 . S
C216 O214 1.247 . S
C216 O215 1.208 . S
C217 O222 1.247 . S
C217 O223 1.208 . S
C218 O210 1.315 . S
C218 O213 1.279 . S
C219 O220 1.315 . S
C219 O221 1.279 . S
O220 Cd212 2.223 . S
O220 C219 1.315 . S
O221 Cd211 2.240 . S
O221 C219 1.279 . S
O222 Cd212 2.297 . S
O222 C217 1.247 . S
O223 Cd212 2.439 . S
O223 C217 1.208 . S
O224 Cd225 2.223 . S
O224 C232 1.315 . S
Cd225 O224 2.223 . S
Cd225 O228 2.297 1_545 S
Cd225 O229 2.439 1_545 S
Cd225 O235 2.240 . S
Cd226 O227 2.240 . S
Cd226 O234 2.223 . S
Cd226 O236 2.297 . S
Cd226 O237 2.439 . S
O227 Cd226 2.240 . S
O227 C232 1.279 . S
O228 Cd225 2.297 1_565 S
O228 C230 1.247 . S
O229 Cd225 2.439 1_565 S
O229 C230 1.208 . S
C230 O228 1.247 . S
C230 O229 1.208 . S
C231 O236 1.247 . S
C231 O237 1.208 . S
C232 O224 1.315 . S
C232 O227 1.279 . S
C233 O234 1.315 . S
C233 O235 1.279 . S
O234 Cd226 2.223 . S
O234 C233 1.315 . S
O235 Cd225 2.240 . S
O235 C233 1.279 . S
O236 Cd226 2.297 . S
O236 C231 1.247 . S
O237 Cd226 2.439 . S
O237 C231 1.208 . S
O238 Cd239 2.223 . S
O238 C246 1.315 . S
Cd239 O238 2.223 . S
Cd239 O242 2.297 . S
Cd239 O243 2.439 . S
Cd239 O249 2.240 . S
Cd240 O241 2.240 . S
Cd240 O248 2.223 . S
Cd240 O250 2.297 1_655 S
Cd240 O251 2.439 1_655 S
O241 Cd240 2.240 . S
O241 C246 1.279 . S
O242 Cd239 2.297 . S
O242 C244 1.247 . S
O243 Cd239 2.439 . S
O243 C244 1.208 . S
C244 O242 1.247 . S
C244 O243 1.208 . S
C245 O250 1.247 . S
C245 O251 1.208 . S
C246 O238 1.315 . S
C246 O241 1.279 . S
C247 O248 1.315 . S
C247 O249 1.279 . S
O248 Cd240 2.223 . S
O248 C247 1.315 . S
O249 Cd239 2.240 . S
O249 C247 1.279 . S
O250 Cd240 2.297 1_455 S
O250 C245 1.247 . S
O251 Cd240 2.439 1_455 S
O251 C245 1.208 . S
H252 C260 0.930 . S
H253 C263 0.930 . S
H254 C265 0.930 . S
H255 C266 0.970 . S
H256 C266 0.970 . S
H257 C268 0.930 . S
H258 C270 0.930 . S
H259 C272 0.930 . S
C260 H252 0.930 . S
C260 C261 1.382 . S
C260 C262 1.426 . S
C261 C260 1.382 . S
C261 C265 1.389 . S
C262 C260 1.426 . S
C262 C263 1.375 . S
C262 C266 1.532 . S
C263 H253 0.930 . S
C263 C262 1.375 . S
C263 C264 1.416 . S
C264 C263 1.416 . S
C264 C265 1.371 . S
C265 H254 0.930 . S
C265 C261 1.389 . S
C265 C264 1.371 . S
C266 H255 0.970 . S
C266 H256 0.970 . S
C266 C262 1.532 . S
C266 C267 1.499 . S
C267 C266 1.499 . S
C267 C268 1.370 . S
C267 C272 1.415 . S
C268 H257 0.930 . S
C268 C267 1.370 . S
C268 C269 1.407 . S
C269 C268 1.407 . S
C269 C270 1.365 . S
C270 H258 0.930 . S
C270 C269 1.365 . S
C270 C271 1.393 . S
C271 C270 1.393 . S
C271 C272 1.387 . S
C272 H259 0.930 . S
C272 C267 1.415 . S
C272 C271 1.387 . S
H273 C281 0.930 . S
H274 C284 0.930 . S
H275 C286 0.930 . S
H276 C287 0.970 . S
H277 C287 0.970 . S
H278 C289 0.930 . S
H279 C291 0.930 . S
H280 C293 0.930 . S
C281 H273 0.930 . S
C281 C282 1.382 . S
C281 C283 1.426 . S
C282 C281 1.382 . S
C282 C286 1.389 . S
C283 C281 1.426 . S
C283 C284 1.375 . S
C283 C287 1.532 . S
C284 H274 0.930 . S
C284 C283 1.375 . S
C284 C285 1.416 . S
C285 C284 1.416 . S
C285 C286 1.371 . S
C286 H275 0.930 . S
C286 C282 1.389 . S
C286 C285 1.371 . S
C287 H276 0.970 . S
C287 H277 0.970 . S
C287 C283 1.532 . S
C287 C288 1.499 . S
C288 C287 1.499 . S
C288 C289 1.370 . S
C288 C293 1.415 . S
C289 H278 0.930 . S
C289 C288 1.370 . S
C289 C290 1.407 . S
C290 C289 1.407 . S
C290 C291 1.365 . S
C291 H279 0.930 . S
C291 C290 1.365 . S
C291 C292 1.393 . S
C292 C291 1.393 . S
C292 C293 1.387 . S
C293 H280 0.930 . S
C293 C288 1.415 . S
C293 C292 1.387 . S
H294 C302 0.930 . S
H295 C305 0.930 . S
H296 C307 0.930 . S
H297 C308 0.970 . S
H298 C308 0.970 . S
H299 C310 0.930 . S
H300 C312 0.930 . S
H301 C314 0.930 . S
C302 H294 0.930 . S
C302 C303 1.382 . S
C302 C304 1.426 . S
C303 C302 1.382 . S
C303 C307 1.389 . S
C304 C302 1.426 . S
C304 C305 1.375 . S
C304 C308 1.532 . S
C305 H295 0.930 . S
C305 C304 1.375 . S
C305 C306 1.416 . S
C306 C305 1.416 . S
C306 C307 1.371 . S
C307 H296 0.930 . S
C307 C303 1.389 . S
C307 C306 1.371 . S
C308 H297 0.970 . S
C308 H298 0.970 . S
C308 C304 1.532 . S
C308 C309 1.499 . S
C309 C308 1.499 . S
C309 C310 1.370 . S
C309 C314 1.415 . S
C310 H299 0.930 . S
C310 C309 1.370 . S
C310 C311 1.407 . S
C311 C310 1.407 . S
C311 C312 1.365 . S
C312 H300 0.930 . S
C312 C311 1.365 . S
C312 C313 1.393 . S
C313 C312 1.393 . S
C313 C314 1.387 . S
C314 H301 0.930 . S
C314 C309 1.415 . S
C314 C313 1.387 . S
H315 C323 0.930 . S
H316 C326 0.930 . S
H317 C328 0.930 . S
H318 C329 0.970 . S
H319 C329 0.970 . S
H320 C331 0.930 . S
H321 C333 0.930 . S
H322 C335 0.930 . S
C323 H315 0.930 . S
C323 C324 1.382 . S
C323 C325 1.426 . S
C324 C323 1.382 . S
C324 C328 1.389 . S
C325 C323 1.426 . S
C325 C326 1.375 . S
C325 C329 1.532 . S
C326 H316 0.930 . S
C326 C325 1.375 . S
C326 C327 1.416 . S
C327 C326 1.416 . S
C327 C328 1.371 . S
C328 H317 0.930 . S
C328 C324 1.389 . S
C328 C327 1.371 . S
C329 H318 0.970 . S
C329 H319 0.970 . S
C329 C325 1.532 . S
C329 C330 1.499 . S
C330 C329 1.499 . S
C330 C331 1.370 . S
C330 C335 1.415 . S
C331 H320 0.930 . S
C331 C330 1.370 . S
C331 C332 1.407 . S
C332 C331 1.407 . S
C332 C333 1.365 . S
C333 H321 0.930 . S
C333 C332 1.365 . S
C333 C334 1.393 . S
C334 C333 1.393 . S
C334 C335 1.387 . S
C335 H322 0.930 . S
C335 C330 1.415 . S
C335 C334 1.387 . S
H336 C344 0.930 . S
H337 C347 0.930 . S
H338 C349 0.930 . S
H339 C350 0.970 . S
H340 C350 0.970 . S
H341 C352 0.930 . S
H342 C354 0.930 . S
H343 C356 0.930 . S
C344 H336 0.930 . S
C344 C345 1.382 . S
C344 C346 1.426 . S
C345 C344 1.382 . S
C345 C349 1.389 . S
C346 C344 1.426 . S
C346 C347 1.375 . S
C346 C350 1.532 . S
C347 H337 0.930 . S
C347 C346 1.375 . S
C347 C348 1.416 . S
C348 C347 1.416 . S
C348 C349 1.371 . S
C349 H338 0.930 . S
C349 C345 1.389 . S
C349 C348 1.371 . S
C350 H339 0.970 . S
C350 H340 0.970 . S
C350 C346 1.532 . S
C350 C351 1.499 . S
C351 C350 1.499 . S
C351 C352 1.370 . S
C351 C356 1.415 . S
C352 H341 0.930 . S
C352 C351 1.370 . S
C352 C353 1.407 . S
C353 C352 1.407 . S
C353 C354 1.365 . S
C354 H342 0.930 . S
C354 C353 1.365 . S
C354 C355 1.393 . S
C355 C354 1.393 . S
C355 C356 1.387 . S
C356 H343 0.930 . S
C356 C351 1.415 . S
C356 C355 1.387 . S
H357 C365 0.930 . S
H358 C368 0.930 . S
H359 C370 0.930 . S
H360 C371 0.970 . S
H361 C371 0.970 . S
H362 C373 0.930 . S
H363 C375 0.930 . S
H364 C377 0.930 . S
C365 H357 0.930 . S
C365 C366 1.382 . S
C365 C367 1.426 . S
C366 C365 1.382 . S
C366 C370 1.389 . S
C367 C365 1.426 . S
C367 C368 1.375 . S
C367 C371 1.532 . S
C368 H358 0.930 . S
C368 C367 1.375 . S
C368 C369 1.416 . S
C369 C368 1.416 . S
C369 C370 1.371 . S
C370 H359 0.930 . S
C370 C366 1.389 . S
C370 C369 1.371 . S
C371 H360 0.970 . S
C371 H361 0.970 . S
C371 C367 1.532 . S
C371 C372 1.499 . S
C372 C371 1.499 . S
C372 C373 1.370 . S
C372 C377 1.415 . S
C373 H362 0.930 . S
C373 C372 1.370 . S
C373 C374 1.407 . S
C374 C373 1.407 . S
C374 C375 1.365 . S
C375 H363 0.930 . S
C375 C374 1.365 . S
C375 C376 1.393 . S
C376 C375 1.393 . S
C376 C377 1.387 . S
C377 H364 0.930 . S
C377 C372 1.415 . S
C377 C376 1.387 . S
H378 C386 0.930 . S
H379 C389 0.930 . S
H380 C391 0.930 . S
H381 C392 0.970 . S
H382 C392 0.970 . S
H383 C394 0.930 . S
H384 C396 0.930 . S
H385 C398 0.930 . S
C386 H378 0.930 . S
C386 C387 1.382 . S
C386 C388 1.426 . S
C387 C386 1.382 . S
C387 C391 1.389 . S
C388 C386 1.426 . S
C388 C389 1.375 . S
C388 C392 1.532 . S
C389 H379 0.930 . S
C389 C388 1.375 . S
C389 C390 1.416 . S
C390 C389 1.416 . S
C390 C391 1.371 . S
C391 H380 0.930 . S
C391 C387 1.389 . S
C391 C390 1.371 . S
C392 H381 0.970 . S
C392 H382 0.970 . S
C392 C388 1.532 . S
C392 C393 1.499 . S
C393 C392 1.499 . S
C393 C394 1.370 . S
C393 C398 1.415 . S
C394 H383 0.930 . S
C394 C393 1.370 . S
C394 C395 1.407 . S
C395 C394 1.407 . S
C395 C396 1.365 . S
C396 H384 0.930 . S
C396 C395 1.365 . S
C396 C397 1.393 . S
C397 C396 1.393 . S
C397 C398 1.387 . S
C398 H385 0.930 . S
C398 C393 1.415 . S
C398 C397 1.387 . S
H399 C407 0.930 . S
H400 C410 0.930 . S
H401 C412 0.930 . S
H402 C413 0.970 . S
H403 C413 0.970 . S
H404 C415 0.930 . S
H405 C417 0.930 . S
H406 C419 0.930 . S
C407 H399 0.930 . S
C407 C408 1.382 . S
C407 C409 1.426 . S
C408 C407 1.382 . S
C408 C412 1.389 . S
C409 C407 1.426 . S
C409 C410 1.375 . S
C409 C413 1.532 . S
C410 H400 0.930 . S
C410 C409 1.375 . S
C410 C411 1.416 . S
C411 C410 1.416 . S
C411 C412 1.371 . S
C412 H401 0.930 . S
C412 C408 1.389 . S
C412 C411 1.371 . S
C413 H402 0.970 . S
C413 H403 0.970 . S
C413 C409 1.532 . S
C413 C414 1.499 . S
C414 C413 1.499 . S
C414 C415 1.370 . S
C414 C419 1.415 . S
C415 H404 0.930 . S
C415 C414 1.370 . S
C415 C416 1.407 . S
C416 C415 1.407 . S
C416 C417 1.365 . S
C417 H405 0.930 . S
C417 C416 1.365 . S
C417 C418 1.393 . S
C418 C417 1.393 . S
C418 C419 1.387 . S
C419 H406 0.930 . S
C419 C414 1.415 . S
C419 C418 1.387 . S
H420 C428 0.930 . S
H421 C431 0.930 . S
H422 C433 0.930 . S
H423 C434 0.970 . S
H424 C434 0.970 . S
H425 C436 0.930 . S
H426 C438 0.930 . S
H427 C440 0.930 . S
C428 H420 0.930 . S
C428 C429 1.382 . S
C428 C430 1.426 . S
C429 C428 1.382 . S
C429 C433 1.389 . S
C430 C428 1.426 . S
C430 C431 1.375 . S
C430 C434 1.532 . S
C431 H421 0.930 . S
C431 C430 1.375 . S
C431 C432 1.416 . S
C432 C431 1.416 . S
C432 C433 1.371 . S
C433 H422 0.930 . S
C433 C429 1.389 . S
C433 C432 1.371 . S
C434 H423 0.970 . S
C434 H424 0.970 . S
C434 C430 1.532 . S
C434 C435 1.499 . S
C435 C434 1.499 . S
C435 C436 1.370 . S
C435 C440 1.415 . S
C436 H425 0.930 . S
C436 C435 1.370 . S
C436 C437 1.407 . S
C437 C436 1.407 . S
C437 C438 1.365 . S
C438 H426 0.930 . S
C438 C437 1.365 . S
C438 C439 1.393 . S
C439 C438 1.393 . S
C439 C440 1.387 . S
C440 H427 0.930 . S
C440 C435 1.415 . S
C440 C439 1.387 . S
H441 C449 0.930 . S
H442 C452 0.930 . S
H443 C454 0.930 . S
H444 C455 0.970 . S
H445 C455 0.970 . S
H446 C457 0.930 . S
H447 C459 0.930 . S
H448 C461 0.930 . S
C449 H441 0.930 . S
C449 C450 1.382 . S
C449 C451 1.426 . S
C450 C449 1.382 . S
C450 C454 1.389 1_455 S
C451 C449 1.426 . S
C451 C452 1.375 . S
C451 C455 1.532 . S
C452 H442 0.930 . S
C452 C451 1.375 . S
C452 C453 1.416 . S
C453 C452 1.416 . S
C453 C454 1.371 1_455 S
C454 H443 0.930 . S
C454 C450 1.389 1_655 S
C454 C453 1.371 1_655 S
C455 H444 0.970 . S
C455 H445 0.970 . S
C455 C451 1.532 . S
C455 C456 1.499 . S
C456 C455 1.499 . S
C456 C457 1.370 . S
C456 C461 1.415 . S
C457 H446 0.930 . S
C457 C456 1.370 . S
C457 C458 1.411 . S
C458 C457 1.411 . S
C458 C459 1.369 1_455 S
C459 H447 0.930 . S
C459 C458 1.369 1_655 S
C459 C460 1.393 1_655 S
C460 C459 1.393 1_455 S
C460 C461 1.387 . S
C461 H448 0.930 . S
C461 C456 1.415 . S
C461 C460 1.387 . S
H462 C470 0.930 . S
H463 C473 0.930 . S
H464 C475 0.930 . S
H465 C476 0.970 . S
H466 C476 0.970 . S
H467 C478 0.930 . S
H468 C480 0.930 . S
H469 C482 0.930 . S
C470 H462 0.930 . S
C470 C471 1.382 . S
C470 C472 1.426 . S
C471 C470 1.382 . S
C471 C475 1.389 . S
C472 C470 1.426 . S
C472 C473 1.375 . S
C472 C476 1.532 . S
C473 H463 0.930 . S
C473 C472 1.375 . S
C473 C474 1.416 . S
C474 C473 1.416 . S
C474 C475 1.371 . S
C475 H464 0.930 . S
C475 C471 1.389 . S
C475 C474 1.371 . S
C476 H465 0.970 . S
C476 H466 0.970 . S
C476 C472 1.532 . S
C476 C477 1.499 . S
C477 C476 1.499 . S
C477 C478 1.370 . S
C477 C482 1.415 . S
C478 H467 0.930 . S
C478 C477 1.370 . S
C478 C479 1.407 . S
C479 C478 1.407 . S
C479 C480 1.365 . S
C480 H468 0.930 . S
C480 C479 1.365 . S
C480 C481 1.393 . S
C481 C480 1.393 . S
C481 C482 1.387 . S
C482 H469 0.930 . S
C482 C477 1.415 . S
C482 C481 1.387 . S
H483 C491 0.930 . S
H484 C494 0.930 . S
H485 C496 0.930 . S
H486 C497 0.970 . S
H487 C497 0.970 . S
H488 C499 0.930 . S
H489 C501 0.930 . S
H490 C503 0.930 . S
C491 H483 0.930 . S
C491 C492 1.382 . S
C491 C493 1.426 . S
C492 C491 1.382 . S
C492 C496 1.389 1_565 S
C493 C491 1.426 . S
C493 C494 1.375 . S
C493 C497 1.532 . S
C494 H484 0.930 . S
C494 C493 1.375 . S
C494 C495 1.416 . S
C495 C494 1.416 . S
C495 C496 1.371 1_565 S
C496 H485 0.930 . S
C496 C492 1.389 1_545 S
C496 C495 1.371 1_545 S
C497 H486 0.970 . S
C497 H487 0.970 . S
C497 C493 1.532 . S
C497 C498 1.499 . S
C498 C497 1.499 . S
C498 C499 1.370 . S
C498 C503 1.415 . S
C499 H488 0.930 . S
C499 C498 1.370 . S
C499 C500 1.452 . S
C500 C499 1.452 . S
C500 C501 1.347 1_565 S
C501 H489 0.930 . S
C501 C500 1.347 1_545 S
C501 C502 1.393 1_545 S
C502 C501 1.393 1_565 S
C502 C503 1.387 . S
C503 H490 0.930 . S
C503 C498 1.415 . S
C503 C502 1.387 . S
H504 C512 0.930 . S
H505 C515 0.930 . S
H506 C517 0.930 . S
H507 C518 0.970 . S
H508 C518 0.970 . S
H509 C520 0.930 . S
H510 C522 0.930 . S
H511 C524 0.930 . S
C512 H504 0.930 . S
C512 C513 1.382 . S
C512 C514 1.426 . S
C513 C512 1.382 . S
C513 C517 1.389 1_565 S
C514 C512 1.426 . S
C514 C515 1.375 . S
C514 C518 1.532 . S
C515 H505 0.930 . S
C515 C514 1.375 . S
C515 C516 1.416 . S
C516 C515 1.416 . S
C516 C517 1.371 1_565 S
C517 H506 0.930 . S
C517 C513 1.389 1_545 S
C517 C516 1.371 1_545 S
C518 H507 0.970 . S
C518 H508 0.970 . S
C518 C514 1.532 . S
C518 C519 1.499 . S
C519 C518 1.499 . S
C519 C520 1.370 . S
C519 C524 1.415 . S
C520 H509 0.930 . S
C520 C519 1.370 . S
C520 C521 1.407 . S
C521 C520 1.407 . S
C521 C522 1.365 1_565 S
C522 H510 0.930 . S
C522 C521 1.365 1_545 S
C522 C523 1.393 1_545 S
C523 C522 1.393 1_565 S
C523 C524 1.387 . S
C524 H511 0.930 . S
C524 C519 1.415 . S
C524 C523 1.387 . S
H525 C533 0.930 . S
H526 C536 0.930 . S
H527 C538 0.930 . S
H528 C539 0.970 . S
H529 C539 0.970 . S
H530 C541 0.930 . S
H531 C543 0.930 . S
H532 C545 0.930 . S
C533 H525 0.930 . S
C533 C534 1.382 . S
C533 C535 1.426 . S
C534 C533 1.382 . S
C534 C538 1.389 1_455 S
C535 C533 1.426 . S
C535 C536 1.375 . S
C535 C539 1.532 . S
C536 H526 0.930 . S
C536 C535 1.375 . S
C536 C537 1.416 . S
C537 C536 1.416 . S
C537 C538 1.371 1_455 S
C538 H527 0.930 . S
C538 C534 1.389 1_655 S
C538 C537 1.371 1_655 S
C539 H528 0.970 . S
C539 H529 0.970 . S
C539 C535 1.532 . S
C539 C540 1.499 . S
C540 C539 1.499 . S
C540 C541 1.370 . S
C540 C545 1.415 . S
C541 H530 0.930 . S
C541 C540 1.370 . S
C541 C542 1.407 . S
C542 C541 1.407 . S
C542 C543 1.365 1_455 S
C543 H531 0.930 . S
C543 C542 1.365 1_655 S
C543 C544 1.393 1_655 S
C544 C543 1.393 1_455 S
C544 C545 1.387 . S
C545 H532 0.930 . S
C545 C540 1.415 . S
C545 C544 1.387 . S
H546 C554 0.930 . S
H547 C557 0.930 . S
H548 C559 0.930 . S
H549 C560 0.970 . S
H550 C560 0.970 . S
H551 C562 0.930 . S
H552 C564 0.930 . S
H553 C566 0.930 . S
C554 H546 0.930 . S
C554 C555 1.382 . S
C554 C556 1.426 . S
C555 C554 1.382 . S
C555 C559 1.389 . S
C556 C554 1.426 . S
C556 C557 1.375 . S
C556 C560 1.532 . S
C557 H547 0.930 . S
C557 C556 1.375 . S
C557 C558 1.416 . S
C558 C557 1.416 . S
C558 C559 1.371 . S
C559 H548 0.930 . S
C559 C555 1.389 . S
C559 C558 1.371 . S
C560 H549 0.970 . S
C560 H550 0.970 . S
C560 C556 1.532 . S
C560 C561 1.499 . S
C561 C560 1.499 . S
C561 C562 1.370 . S
C561 C566 1.415 . S
C562 H551 0.930 . S
C562 C561 1.370 . S
C562 C563 1.407 . S
C563 C562 1.407 . S
C563 C564 1.365 . S
C564 H552 0.930 . S
C564 C563 1.365 . S
C564 C565 1.393 . S
C565 C564 1.393 . S
C565 C566 1.387 . S
C566 H553 0.930 . S
C566 C561 1.415 . S
C566 C565 1.387 . S
H567 C575 0.930 . S
H568 C578 0.930 . S
H569 C580 0.930 . S
H570 C581 0.970 . S
H571 C581 0.970 . S
H572 C583 0.930 . S
H573 C585 0.930 . S
H574 C587 0.930 . S
C575 H567 0.930 . S
C575 C576 1.382 . S
C575 C577 1.426 . S
C576 C575 1.382 . S
C576 C580 1.389 . S
C577 C575 1.426 . S
C577 C578 1.375 . S
C577 C581 1.532 . S
C578 H568 0.930 . S
C578 C577 1.375 . S
C578 C579 1.416 . S
C579 C578 1.416 . S
C579 C580 1.371 . S
C580 H569 0.930 . S
C580 C576 1.389 . S
C580 C579 1.371 . S
C581 H570 0.970 . S
C581 H571 0.970 . S
C581 C577 1.532 . S
C581 C582 1.499 . S
C582 C581 1.499 . S
C582 C583 1.370 . S
C582 C587 1.415 . S
C583 H572 0.930 . S
C583 C582 1.370 . S
C583 C584 1.407 . S
C584 C583 1.407 . S
C584 C585 1.365 . S
C585 H573 0.930 . S
C585 C584 1.365 . S
C585 C586 1.393 . S
C586 C585 1.393 . S
C586 C587 1.387 . S
C587 H574 0.930 . S
C587 C582 1.415 . S
C587 C586 1.387 . S
H588 C596 0.930 . S
H589 C599 0.930 . S
H590 C601 0.930 . S
H591 C602 0.970 . S
H592 C602 0.970 . S
H593 C604 0.930 . S
H594 C606 0.930 . S
H595 C608 0.930 . S
C596 H588 0.930 . S
C596 C597 1.382 . S
C596 C598 1.426 . S
C597 C596 1.382 . S
C597 C601 1.389 . S
C598 C596 1.426 . S
C598 C599 1.375 . S
C598 C602 1.532 . S
C599 H589 0.930 . S
C599 C598 1.375 . S
C599 C600 1.416 . S
C600 C599 1.416 . S
C600 C601 1.371 . S
C601 H590 0.930 . S
C601 C597 1.389 . S
C601 C600 1.371 . S
C602 H591 0.970 . S
C602 H592 0.970 . S
C602 C598 1.532 . S
C602 C603 1.499 . S
C603 C602 1.499 . S
C603 C604 1.370 . S
C603 C608 1.415 . S
C604 H593 0.930 . S
C604 C603 1.370 . S
C604 C605 1.407 . S
C605 C604 1.407 . S
C605 C606 1.365 . S
C606 H594 0.930 . S
C606 C605 1.365 . S
C606 C607 1.393 . S
C607 C606 1.393 . S
C607 C608 1.387 . S
C608 H595 0.930 . S
C608 C603 1.415 . S
C608 C607 1.387 . S
H609 C617 0.930 . S
H610 C620 0.930 . S
H611 C622 0.930 . S
H612 C623 0.970 . S
H613 C623 0.970 . S
H614 C625 0.930 . S
H615 C627 0.930 . S
H616 C629 0.930 . S
C617 H609 0.930 . S
C617 C618 1.382 . S
C617 C619 1.426 . S
C618 C617 1.382 . S
C618 C622 1.389 . S
C619 C617 1.426 . S
C619 C620 1.375 . S
C619 C623 1.532 . S
C620 H610 0.930 . S
C620 C619 1.375 . S
C620 C621 1.416 . S
C621 C620 1.416 . S
C621 C622 1.371 . S
C622 H611 0.930 . S
C622 C618 1.389 . S
C622 C621 1.371 . S
C623 H612 0.970 . S
C623 H613 0.970 . S
C623 C619 1.532 . S
C623 C624 1.499 . S
C624 C623 1.499 . S
C624 C625 1.370 . S
C624 C629 1.415 . S
C625 H614 0.930 . S
C625 C624 1.370 . S
C625 C626 1.407 . S
C626 C625 1.407 . S
C626 C627 1.365 . S
C627 H615 0.930 . S
C627 C626 1.365 . S
C627 C628 1.393 . S
C628 C627 1.393 . S
C628 C629 1.387 . S
C629 H616 0.930 . S
C629 C624 1.415 . S
C629 C628 1.387 . S
C630 C631 1.422 . S
C630 C632 1.394 . S
C630 H646 0.931 . S
C631 C630 1.422 . S
C631 C635 1.319 1_455 S
C632 C630 1.394 . S
C632 C633 1.345 1_455 S
C632 C636 1.531 . S
C633 C632 1.345 1_655 S
C633 C634 1.423 . S
C633 C641 1.514 . S
C634 C633 1.423 . S
C634 C635 1.392 . S
C634 C637 1.511 . S
C635 C631 1.319 1_655 S
C635 C634 1.392 . S
C635 H647 0.929 . S
C636 C632 1.531 . S
C636 H648 0.960 . S
C636 H649 0.962 . S
C636 H650 0.960 . S
C637 C634 1.511 . S
C637 H651 0.961 . S
C637 H652 0.961 . S
C637 H653 0.961 . S
C638 C639 1.370 . S
C638 C640 1.363 . S
C638 H654 0.931 . S
C639 C638 1.370 . S
C639 C643 1.408 . S
C640 C638 1.363 . S
C640 C641 1.370 . S
C640 C644 1.524 . S
C641 C633 1.514 . S
C641 C640 1.370 . S
C641 C642 1.403 . S
C642 C641 1.403 . S
C642 C643 1.404 . S
C642 C645 1.539 . S
C643 C639 1.408 . S
C643 C642 1.404 . S
C643 H655 0.930 . S
C644 C640 1.524 . S
C644 H656 0.956 1_655 S
C644 H657 0.961 . S
C644 H658 0.961 . S
C645 C642 1.539 . S
C645 H659 0.958 1_655 S
C645 H660 0.961 . S
C645 H661 0.960 . S
H646 C630 0.931 . S
H647 C635 0.929 . S
H648 C636 0.960 . S
H649 C636 0.962 . S
H650 C636 0.960 . S
H651 C637 0.961 . S
H652 C637 0.961 . S
H653 C637 0.961 . S
H654 C638 0.931 . S
H655 C643 0.930 . S
H656 C644 0.956 1_455 S
H657 C644 0.961 . S
H658 C644 0.961 . S
H659 C645 0.958 1_455 S
H660 C645 0.961 . S
H661 C645 0.960 . S
C662 C663 1.391 . S
C662 C664 1.394 . S
C662 H678 0.931 . S
C663 C662 1.391 . S
C663 C667 1.376 . S
C664 C662 1.394 . S
C664 C665 1.369 . S
C664 C668 1.531 . S
C665 C664 1.369 . S
C665 C666 1.410 . S
C665 C673 1.503 . S
C666 C665 1.410 . S
C666 C667 1.392 . S
C666 C669 1.511 . S
C667 C663 1.376 . S
C667 C666 1.392 . S
C667 H679 0.929 . S
C668 C664 1.531 . S
C668 H680 0.960 . S
C668 H681 0.962 . S
C668 H682 0.960 . S
C669 C666 1.511 . S
C669 H683 0.961 . S
C669 H684 0.961 . S
C669 H685 0.961 . S
C670 C671 1.370 . S
C670 C672 1.363 . S
C670 H686 0.931 . S
C671 C670 1.370 . S
C671 C675 1.408 . S
C672 C670 1.363 . S
C672 C673 1.370 . S
C672 C676 1.524 . S
C673 C665 1.503 . S
C673 C672 1.370 . S
C673 C674 1.403 . S
C674 C673 1.403 . S
C674 C675 1.404 . S
C674 C677 1.539 . S
C675 C671 1.408 . S
C675 C674 1.404 . S
C675 H687 0.930 . S
C676 C672 1.524 . S
C676 H688 0.956 . S
C676 H689 0.961 . S
C676 H690 0.961 . S
C677 C674 1.539 . S
C677 H691 0.958 . S
C677 H692 0.961 . S
C677 H693 0.960 . S
H678 C662 0.931 . S
H679 C667 0.929 . S
H680 C668 0.960 . S
H681 C668 0.962 . S
H682 C668 0.960 . S
H683 C669 0.961 . S
H684 C669 0.961 . S
H685 C669 0.961 . S
H686 C670 0.931 . S
H687 C675 0.930 . S
H688 C676 0.956 . S
H689 C676 0.961 . S
H690 C676 0.961 . S
H691 C677 0.958 . S
H692 C677 0.961 . S
H693 C677 0.960 . S
C694 C695 1.390 . S
C694 C696 1.394 . S
C694 H710 0.931 . S
C695 C694 1.390 . S
C695 C699 1.362 1_545 S
C696 C694 1.394 . S
C696 C697 1.369 . S
C696 C700 1.531 . S
C697 C696 1.369 . S
C697 C698 1.410 1_545 S
C697 C705 1.503 . S
C698 C697 1.410 1_565 S
C698 C699 1.392 . S
C698 C701 1.511 . S
C699 C695 1.362 1_565 S
C699 C698 1.392 . S
C699 H711 0.929 . S
C700 C696 1.531 . S
C700 H712 0.960 . S
C700 H713 0.962 . S
C700 H714 0.960 . S
C701 C698 1.511 . S
C701 H715 0.961 . S
C701 H716 0.961 . S
C701 H717 0.945 1_565 S
C702 C703 1.370 1_565 S
C702 C704 1.363 . S
C702 H718 0.931 . S
C703 C702 1.370 1_545 S
C703 C707 1.408 . S
C704 C702 1.363 . S
C704 C705 1.370 1_565 S
C704 C708 1.524 . S
C705 C697 1.503 . S
C705 C704 1.370 1_545 S
C705 C706 1.403 . S
C706 C705 1.403 . S
C706 C707 1.404 . S
C706 C709 1.539 . S
C707 C703 1.408 . S
C707 C706 1.404 . S
C707 H719 0.930 . S
C708 C704 1.524 . S
C708 H720 0.956 . S
C708 H721 0.961 . S
C708 H722 0.961 . S
C709 C706 1.539 . S
C709 H723 0.958 . S
C709 H724 0.961 . S
C709 H725 0.960 . S
H710 C694 0.931 . S
H711 C699 0.929 . S
H712 C700 0.960 . S
H713 C700 0.962 . S
H714 C700 0.960 . S
H715 C701 0.961 . S
H716 C701 0.961 . S
H717 C701 0.945 1_545 S
H718 C702 0.931 . S
H719 C707 0.930 . S
H720 C708 0.956 . S
H721 C708 0.961 . S
H722 C708 0.961 . S
H723 C709 0.958 . S
H724 C709 0.961 . S
H725 C709 0.960 . S
C726 C727 1.391 1_565 S
C726 C728 1.394 . S
C726 H742 0.931 . S
C727 C726 1.391 1_545 S
C727 C731 1.376 . S
C728 C726 1.394 . S
C728 C729 1.369 1_565 S
C728 C732 1.531 . S
C729 C728 1.369 1_545 S
C729 C730 1.410 . S
C729 C737 1.503 . S
C730 C729 1.410 . S
C730 C731 1.392 . S
C730 C733 1.511 . S
C731 C727 1.376 . S
C731 C730 1.392 . S
C731 H743 0.929 . S
C732 C728 1.531 . S
C732 H744 0.960 1_565 S
C732 H745 0.962 . S
C732 H746 0.960 . S
C733 C730 1.511 . S
C733 H747 0.961 . S
C733 H748 0.961 . S
C733 H749 0.961 . S
C734 C735 1.370 . S
C734 C736 1.363 . S
C734 H750 0.931 . S
C735 C734 1.370 . S
C735 C739 1.408 1_565 S
C736 C734 1.363 . S
C736 C737 1.370 1_565 S
C736 C740 1.524 . S
C737 C729 1.503 . S
C737 C736 1.370 1_545 S
C737 C738 1.403 . S
C738 C737 1.403 . S
C738 C739 1.404 . S
C738 C741 1.539 . S
C739 C735 1.408 1_545 S
C739 C738 1.404 . S
C739 H751 0.930 . S
C740 C736 1.524 . S
C740 H752 0.956 . S
C740 H753 0.961 . S
C740 H754 0.961 . S
C741 C738 1.539 . S
C741 H755 0.958 . S
C741 H756 0.961 . S
C741 H757 0.960 . S
H742 C726 0.931 . S
H743 C731 0.929 . S
H744 C732 0.960 1_545 S
H745 C732 0.962 . S
H746 C732 0.960 . S
H747 C733 0.961 . S
H748 C733 0.961 . S
H749 C733 0.961 . S
H750 C734 0.931 . S
H751 C739 0.930 . S
H752 C740 0.956 . S
H753 C740 0.961 . S
H754 C740 0.961 . S
H755 C741 0.958 . S
H756 C741 0.961 . S
H757 C741 0.960 . S
C758 C759 1.391 1_455 S
C758 C760 1.394 . S
C758 H774 0.931 . S
C759 C758 1.391 1_655 S
C759 C763 1.376 . S
C760 C758 1.394 . S
C760 C761 1.369 1_455 S
C760 C764 1.531 . S
C761 C760 1.369 1_655 S
C761 C762 1.410 . S
C761 C769 1.503 . S
C762 C761 1.410 . S
C762 C763 1.392 . S
C762 C765 1.511 . S
C763 C759 1.376 . S
C763 C762 1.392 . S
C763 H775 0.929 . S
C764 C760 1.531 . S
C764 H776 0.960 . S
C764 H777 0.962 . S
C764 H778 0.960 . S
C765 C762 1.511 . S
C765 H779 0.961 . S
C765 H780 0.961 . S
C765 H781 0.961 . S
C766 C767 1.370 . S
C766 C768 1.363 . S
C766 H782 0.931 . S
C767 C766 1.370 . S
C767 C771 1.408 1_455 S
C768 C766 1.363 . S
C768 C769 1.370 1_455 S
C768 C772 1.524 . S
C769 C761 1.503 . S
C769 C768 1.370 1_655 S
C769 C770 1.403 . S
C770 C769 1.403 . S
C770 C771 1.404 . S
C770 C773 1.539 . S
C771 C767 1.408 1_655 S
C771 C770 1.404 . S
C771 H783 0.930 . S
C772 C768 1.524 . S
C772 H784 0.956 . S
C772 H785 0.961 . S
C772 H786 0.961 . S
C773 C770 1.539 . S
C773 H787 0.958 . S
C773 H788 0.961 . S
C773 H789 0.960 . S
H774 C758 0.931 . S
H775 C763 0.929 . S
H776 C764 0.960 . S
H777 C764 0.962 . S
H778 C764 0.960 . S
H779 C765 0.961 . S
H780 C765 0.961 . S
H781 C765 0.961 . S
H782 C766 0.931 . S
H783 C771 0.930 . S
H784 C772 0.956 . S
H785 C772 0.961 . S
H786 C772 0.961 . S
H787 C773 0.958 . S
H788 C773 0.961 . S
H789 C773 0.960 . S
C790 C791 1.391 . S
C790 C792 1.394 . S
C790 H806 0.931 . S
C791 C790 1.391 . S
C791 C795 1.376 . S
C792 C790 1.394 . S
C792 C793 1.369 . S
C792 C796 1.531 . S
C793 C792 1.369 . S
C793 C794 1.410 . S
C793 C801 1.503 . S
C794 C793 1.410 . S
C794 C795 1.392 . S
C794 C797 1.511 . S
C795 C791 1.376 . S
C795 C794 1.392 . S
C795 H807 0.929 . S
C796 C792 1.531 . S
C796 H808 0.960 . S
C796 H809 0.962 . S
C796 H810 0.960 . S
C797 C794 1.511 . S
C797 H811 0.961 . S
C797 H812 0.961 . S
C797 H813 0.961 . S
C798 C799 1.370 . S
C798 C800 1.363 . S
C798 H814 0.931 . S
C799 C798 1.370 . S
C799 C803 1.408 . S
C800 C798 1.363 . S
C800 C801 1.370 . S
C800 C804 1.524 . S
C801 C793 1.503 . S
C801 C800 1.370 . S
C801 C802 1.403 . S
C802 C801 1.403 . S
C802 C803 1.404 . S
C802 C805 1.539 . S
C803 C799 1.408 . S
C803 C802 1.404 . S
C803 H815 0.930 . S
C804 C800 1.524 . S
C804 H816 0.956 . S
C804 H817 0.961 . S
C804 H818 0.961 . S
C805 C802 1.539 . S
C805 H819 0.958 . S
C805 H820 0.961 . S
C805 H821 0.960 . S
H806 C790 0.931 . S
H807 C795 0.929 . S
H808 C796 0.960 . S
H809 C796 0.962 . S
H810 C796 0.960 . S
H811 C797 0.961 . S
H812 C797 0.961 . S
H813 C797 0.961 . S
H814 C798 0.931 . S
H815 C803 0.930 . S
H816 C804 0.956 . S
H817 C804 0.961 . S
H818 C804 0.961 . S
H819 C805 0.958 . S
H820 C805 0.961 . S
H821 C805 0.960 . S
C822 C823 1.397 . S
C822 C824 1.394 . S
C822 H838 0.931 . S
C823 C822 1.397 . S
C823 C827 1.365 1_655 S
C824 C822 1.394 . S
C824 C825 1.369 1_655 S
C824 C828 1.531 . S
C825 C824 1.369 1_455 S
C825 C826 1.410 . S
C825 C833 1.503 . S
C826 C825 1.410 . S
C826 C827 1.392 . S
C826 C829 1.511 . S
C827 C823 1.365 1_455 S
C827 C826 1.392 . S
C827 H839 0.929 . S
C828 C824 1.531 . S
C828 H840 0.960 . S
C828 H841 0.962 . S
C828 H842 0.960 . S
C829 C826 1.511 . S
C829 H843 0.961 . S
C829 H844 0.961 . S
C829 H845 0.961 . S
C830 C831 1.353 1_655 S
C830 C832 1.363 . S
C830 H846 0.931 . S
C831 C830 1.353 1_455 S
C831 C835 1.404 . S
C832 C830 1.363 . S
C832 C833 1.370 1_655 S
C832 C836 1.524 . S
C833 C825 1.503 . S
C833 C832 1.370 1_455 S
C833 C834 1.403 . S
C834 C833 1.403 . S
C834 C835 1.404 . S
C834 C837 1.539 . S
C835 C831 1.404 . S
C835 C834 1.404 . S
C835 H847 0.930 . S
C836 C832 1.524 . S
C836 H848 0.956 . S
C836 H849 0.961 . S
C836 H850 0.961 . S
C837 C834 1.539 . S
C837 H851 0.958 . S
C837 H852 0.961 . S
C837 H853 0.960 . S
H838 C822 0.931 . S
H839 C827 0.929 . S
H840 C828 0.960 . S
H841 C828 0.962 . S
H842 C828 0.960 . S
H843 C829 0.961 . S
H844 C829 0.961 . S
H845 C829 0.961 . S
H846 C830 0.931 . S
H847 C835 0.930 . S
H848 C836 0.956 . S
H849 C836 0.961 . S
H850 C836 0.961 . S
H851 C837 0.958 . S
H852 C837 0.961 . S
H853 C837 0.960 . S
C854 C855 1.391 . S
C854 C856 1.394 . S
C854 H870 0.931 . S
C855 C854 1.391 . S
C855 C859 1.376 . S
C856 C854 1.394 . S
C856 C857 1.369 . S
C856 C860 1.531 . S
C857 C856 1.369 . S
C857 C858 1.410 . S
C857 C865 1.503 . S
C858 C857 1.410 . S
C858 C859 1.392 . S
C858 C861 1.511 . S
C859 C855 1.376 . S
C859 C858 1.392 . S
C859 H871 0.929 . S
C860 C856 1.531 . S
C860 H872 0.960 . S
C860 H873 0.962 . S
C860 H874 0.960 . S
C861 C858 1.511 . S
C861 H875 0.961 . S
C861 H876 0.961 . S
C861 H877 0.961 . S
C862 C863 1.370 . S
C862 C864 1.363 . S
C862 H878 0.931 . S
C863 C862 1.370 . S
C863 C867 1.408 . S
C864 C862 1.363 . S
C864 C865 1.370 . S
C864 C868 1.524 . S
C865 C857 1.503 . S
C865 C864 1.370 . S
C865 C866 1.403 . S
C866 C865 1.403 . S
C866 C867 1.404 . S
C866 C869 1.539 . S
C867 C863 1.408 . S
C867 C866 1.404 . S
C867 H879 0.930 . S
C868 C864 1.524 . S
C868 H880 0.956 . S
C868 H881 0.961 . S
C868 H882 0.961 . S
C869 C866 1.539 . S
C869 H883 0.958 . S
C869 H884 0.961 . S
C869 H885 0.960 . S
H870 C854 0.931 . S
H871 C859 0.929 . S
H872 C860 0.960 . S
H873 C860 0.962 . S
H874 C860 0.960 . S
H875 C861 0.961 . S
H876 C861 0.961 . S
H877 C861 0.961 . S
H878 C862 0.931 . S
H879 C867 0.930 . S
H880 C868 0.956 . S
H881 C868 0.961 . S
H882 C868 0.961 . S
H883 C869 0.958 . S
H884 C869 0.961 . S
H885 C869 0.960 . S
C886 C887 1.391 . S
C886 C888 1.394 . S
C886 H902 0.931 . S
C887 C886 1.391 . S
C887 C891 1.375 1_565 S
C888 C886 1.394 . S
C888 C889 1.369 . S
C888 C892 1.531 . S
C889 C888 1.369 . S
C889 C890 1.410 1_565 S
C889 C897 1.503 . S
C890 C889 1.410 1_545 S
C890 C891 1.392 . S
C890 C893 1.511 . S
C891 C887 1.375 1_545 S
C891 C890 1.392 . S
C891 H903 0.929 . S
C892 C888 1.531 . S
C892 H904 0.960 . S
C892 H905 0.962 . S
C892 H906 0.960 . S
C893 C890 1.511 . S
C893 H907 0.961 . S
C893 H908 0.961 . S
C893 H909 0.961 . S
C894 C895 1.370 1_545 S
C894 C896 1.363 . S
C894 H910 0.931 . S
C895 C894 1.370 1_565 S
C895 C899 1.424 . S
C896 C894 1.363 . S
C896 C897 1.370 1_545 S
C896 C900 1.524 . S
C897 C889 1.503 . S
C897 C896 1.370 1_565 S
C897 C898 1.403 . S
C898 C897 1.403 . S
C898 C899 1.404 . S
C898 C901 1.539 . S
C899 C895 1.424 . S
C899 C898 1.404 . S
C899 H911 0.930 . S
C900 C896 1.524 . S
C900 H912 0.956 . S
C900 H913 0.961 . S
C900 H914 0.961 . S
C901 C898 1.539 . S
C901 H915 0.958 . S
C901 H916 0.961 . S
C901 H917 0.960 . S
H902 C886 0.931 . S
H903 C891 0.929 . S
H904 C892 0.960 . S
H905 C892 0.962 . S
H906 C892 0.960 . S
H907 C893 0.961 . S
H908 C893 0.961 . S
H909 C893 0.961 . S
H910 C894 0.931 . S
H911 C899 0.930 . S
H912 C900 0.956 . S
H913 C900 0.961 . S
H914 C900 0.961 . S
H915 C901 0.958 . S
H916 C901 0.961 . S
H917 C901 0.960 . S
C918 C919 1.391 . S
C918 C920 1.394 . S
C918 H934 0.931 . S
C919 C918 1.391 . S
C919 C923 1.376 1_565 S
C920 C918 1.394 . S
C920 C921 1.369 . S
C920 C924 1.531 . S
C921 C920 1.369 . S
C921 C922 1.410 1_565 S
C921 C929 1.503 . S
C922 C921 1.410 1_545 S
C922 C923 1.392 . S
C922 C925 1.511 . S
C923 C919 1.376 1_545 S
C923 C922 1.392 . S
C923 H935 0.929 . S
C924 C920 1.531 . S
C924 H936 0.960 . S
C924 H937 0.962 . S
C924 H938 0.960 . S
C925 C922 1.511 . S
C925 H939 0.961 . S
C925 H940 0.961 . S
C925 H941 0.904 1_545 S
C926 C927 1.368 1_545 S
C926 C928 1.363 . S
C926 H942 0.931 . S
C927 C926 1.368 1_565 S
C927 C931 1.412 . S
C928 C926 1.363 . S
C928 C929 1.370 1_545 S
C928 C932 1.524 . S
C929 C921 1.503 . S
C929 C928 1.370 1_565 S
C929 C930 1.403 . S
C930 C929 1.403 . S
C930 C931 1.404 . S
C930 C933 1.539 . S
C931 C927 1.412 . S
C931 C930 1.404 . S
C931 H943 0.930 . S
C932 C928 1.524 . S
C932 H944 0.956 . S
C932 H945 0.961 . S
C932 H946 0.961 . S
C933 C930 1.539 . S
C933 H947 0.958 . S
C933 H948 0.961 . S
C933 H949 0.960 . S
H934 C918 0.931 . S
H935 C923 0.929 . S
H936 C924 0.960 . S
H937 C924 0.962 . S
H938 C924 0.960 . S
H939 C925 0.961 . S
H940 C925 0.961 . S
H941 C925 0.904 1_565 S
H942 C926 0.931 . S
H943 C931 0.930 . S
H944 C932 0.956 . S
H945 C932 0.961 . S
H946 C932 0.961 . S
H947 C933 0.958 . S
H948 C933 0.961 . S
H949 C933 0.960 . S
C950 C951 1.392 . S
C950 C952 1.394 . S
C950 H966 0.931 . S
C951 C950 1.392 . S
C951 C955 1.374 1_655 S
C952 C950 1.394 . S
C952 C953 1.369 . S
C952 C956 1.531 . S
C953 C952 1.369 . S
C953 C954 1.410 1_655 S
C953 C961 1.503 . S
C954 C953 1.410 1_455 S
C954 C955 1.392 . S
C954 C957 1.511 . S
C955 C951 1.374 1_455 S
C955 C954 1.392 . S
C955 H967 0.929 . S
C956 C952 1.531 . S
C956 H968 0.960 . S
C956 H969 0.962 . S
C956 H970 0.960 . S
C957 C954 1.511 . S
C957 H971 0.961 . S
C957 H972 0.961 . S
C957 H973 0.961 . S
C958 C959 1.366 1_455 S
C958 C960 1.363 . S
C958 H974 0.931 . S
C959 C958 1.366 1_655 S
C959 C963 1.434 . S
C960 C958 1.363 . S
C960 C961 1.370 1_455 S
C960 C964 1.524 . S
C961 C953 1.503 . S
C961 C960 1.370 1_655 S
C961 C962 1.403 . S
C962 C961 1.403 . S
C962 C963 1.404 . S
C962 C965 1.539 . S
C963 C959 1.434 . S
C963 C962 1.404 . S
C963 H975 0.930 . S
C964 C960 1.524 . S
C964 H976 0.956 . S
C964 H977 0.961 . S
C964 H978 0.961 . S
C965 C962 1.539 . S
C965 H979 0.958 . S
C965 H980 0.961 . S
C965 H981 0.960 . S
H966 C950 0.931 . S
H967 C955 0.929 . S
H968 C956 0.960 . S
H969 C956 0.962 . S
H970 C956 0.960 . S
H971 C957 0.961 . S
H972 C957 0.961 . S
H973 C957 0.961 . S
H974 C958 0.931 . S
H975 C963 0.930 . S
H976 C964 0.956 . S
H977 C964 0.961 . S
H978 C964 0.961 . S
H979 C965 0.958 . S
H980 C965 0.961 . S
H981 C965 0.960 . S
C982 C983 1.391 . S
C982 C984 1.394 . S
C982 H998 0.931 . S
C983 C982 1.391 . S
C983 C987 1.376 . S
C984 C982 1.394 . S
C984 C985 1.369 . S
C984 C988 1.531 . S
C985 C984 1.369 . S
C985 C986 1.410 . S
C985 C993 1.503 . S
C986 C985 1.410 . S
C986 C987 1.392 . S
C986 C989 1.511 . S
C987 C983 1.376 . S
C987 C986 1.392 . S
C987 H999 0.929 . S
C988 C984 1.531 . S
C988 H1000 0.960 . S
C988 H1001 0.962 . S
C988 H1002 0.960 . S
C989 C986 1.511 . S
C989 H1003 0.961 . S
C989 H1004 0.961 . S
C989 H1005 0.961 . S
C990 C991 1.370 . S
C990 C992 1.363 . S
C990 H1006 0.931 . S
C991 C990 1.370 . S
C991 C995 1.408 . S
C992 C990 1.363 . S
C992 C993 1.370 . S
C992 C996 1.524 . S
C993 C985 1.503 . S
C993 C992 1.370 . S
C993 C994 1.403 . S
C994 C993 1.403 . S
C994 C995 1.404 . S
C994 C997 1.539 . S
C995 C991 1.408 . S
C995 C994 1.404 . S
C995 H1007 0.930 . S
C996 C992 1.524 . S
C996 H1008 0.956 . S
C996 H1009 0.961 . S
C996 H1010 0.961 . S
C997 C994 1.539 . S
C997 H1011 0.958 . S
C997 H1012 0.961 . S
C997 H1013 0.960 . S
H998 C982 0.931 . S
H999 C987 0.929 . S
H1000 C988 0.960 . S
H1001 C988 0.962 . S
H1002 C988 0.960 . S
H1003 C989 0.961 . S
H1004 C989 0.961 . S
H1005 C989 0.961 . S
H1006 C990 0.931 . S
H1007 C995 0.930 . S
H1008 C996 0.956 . S
H1009 C996 0.961 . S
H1010 C996 0.961 . S
H1011 C997 0.958 . S
H1012 C997 0.961 . S
H1013 C997 0.960 . S
C1014 C1015 1.391 . S
C1014 C1016 1.394 . S
C1014 H1030 0.931 . S
C1015 C1014 1.391 . S
C1015 C1019 1.376 . S
C1016 C1014 1.394 . S
C1016 C1017 1.369 . S
C1016 C1020 1.531 . S
C1017 C1016 1.369 . S
C1017 C1018 1.410 . S
C1017 C1025 1.503 . S
C1018 C1017 1.410 . S
C1018 C1019 1.392 . S
C1018 C1021 1.511 . S
C1019 C1015 1.376 . S
C1019 C1018 1.392 . S
C1019 H1031 0.929 . S
C1020 C1016 1.531 . S
C1020 H1032 0.960 . S
C1020 H1033 0.962 . S
C1020 H1034 0.960 . S
C1021 C1018 1.511 . S
C1021 H1035 0.961 . S
C1021 H1036 0.961 . S
C1021 H1037 0.961 . S
C1022 C1023 1.370 . S
C1022 C1024 1.363 . S
C1022 H1038 0.931 . S
C1023 C1022 1.370 . S
C1023 C1027 1.408 . S
C1024 C1022 1.363 . S
C1024 C1025 1.370 . S
C1024 C1028 1.524 . S
C1025 C1017 1.503 . S
C1025 C1024 1.370 . S
C1025 C1026 1.403 . S
C1026 C1025 1.403 . S
C1026 C1027 1.404 . S
C1026 C1029 1.539 . S
C1027 C1023 1.408 . S
C1027 C1026 1.404 . S
C1027 H1039 0.930 . S
C1028 C1024 1.524 . S
C1028 H1040 0.956 . S
C1028 H1041 0.961 . S
C1028 H1042 0.961 . S
C1029 C1026 1.539 . S
C1029 H1043 0.958 . S
C1029 H1044 0.961 . S
C1029 H1045 0.960 . S
H1030 C1014 0.931 . S
H1031 C1019 0.929 . S
H1032 C1020 0.960 . S
H1033 C1020 0.962 . S
H1034 C1020 0.960 . S
H1035 C1021 0.961 . S
H1036 C1021 0.961 . S
H1037 C1021 0.961 . S
H1038 C1022 0.931 . S
H1039 C1027 0.930 . S
H1040 C1028 0.956 . S
H1041 C1028 0.961 . S
H1042 C1028 0.961 . S
H1043 C1029 0.958 . S
H1044 C1029 0.961 . S
H1045 C1029 0.960 . S
C1046 C1047 1.391 . S
C1046 C1048 1.394 . S
C1046 H1062 0.931 . S
C1047 C1046 1.391 . S
C1047 C1051 1.376 . S
C1048 C1046 1.394 . S
C1048 C1049 1.369 . S
C1048 C1052 1.531 . S
C1049 C1048 1.369 . S
C1049 C1050 1.410 . S
C1049 C1057 1.503 . S
C1050 C1049 1.410 . S
C1050 C1051 1.392 . S
C1050 C1053 1.511 . S
C1051 C1047 1.376 . S
C1051 C1050 1.392 . S
C1051 H1063 0.929 . S
C1052 C1048 1.531 . S
C1052 H1064 0.960 . S
C1052 H1065 0.962 . S
C1052 H1066 0.960 . S
C1053 C1050 1.511 . S
C1053 H1067 0.961 . S
C1053 H1068 0.961 . S
C1053 H1069 0.961 . S
C1054 C1055 1.370 . S
C1054 C1056 1.363 . S
C1054 H1070 0.931 . S
C1055 C1054 1.370 . S
C1055 C1059 1.408 . S
C1056 C1054 1.363 . S
C1056 C1057 1.370 . S
C1056 C1060 1.524 . S
C1057 C1049 1.503 . S
C1057 C1056 1.370 . S
C1057 C1058 1.403 . S
C1058 C1057 1.403 . S
C1058 C1059 1.404 . S
C1058 C1061 1.539 . S
C1059 C1055 1.408 . S
C1059 C1058 1.404 . S
C1059 H1071 0.930 . S
C1060 C1056 1.524 . S
C1060 H1072 0.956 . S
C1060 H1073 0.961 . S
C1060 H1074 0.961 . S
C1061 C1058 1.539 . S
C1061 H1075 0.958 . S
C1061 H1076 0.961 . S
C1061 H1077 0.960 . S
H1062 C1046 0.931 . S
H1063 C1051 0.929 . S
H1064 C1052 0.960 . S
H1065 C1052 0.962 . S
H1066 C1052 0.960 . S
H1067 C1053 0.961 . S
H1068 C1053 0.961 . S
H1069 C1053 0.961 . S
H1070 C1054 0.931 . S
H1071 C1059 0.930 . S
H1072 C1060 0.956 . S
H1073 C1060 0.961 . S
H1074 C1060 0.961 . S
H1075 C1061 0.958 . S
H1076 C1061 0.961 . S
H1077 C1061 0.960 . S
C1078 C1079 1.391 . S
C1078 C1080 1.394 . S
C1078 H1094 0.931 . S
C1079 C1078 1.391 . S
C1079 C1083 1.376 . S
C1080 C1078 1.394 . S
C1080 C1081 1.369 . S
C1080 C1084 1.531 . S
C1081 C1080 1.369 . S
C1081 C1082 1.410 . S
C1081 C1089 1.503 . S
C1082 C1081 1.410 . S
C1082 C1083 1.392 . S
C1082 C1085 1.511 . S
C1083 C1079 1.376 . S
C1083 C1082 1.392 . S
C1083 H1095 0.929 . S
C1084 C1080 1.531 . S
C1084 H1096 0.960 . S
C1084 H1097 0.962 . S
C1084 H1098 0.960 . S
C1085 C1082 1.511 . S
C1085 H1099 0.961 . S
C1085 H1100 0.961 . S
C1085 H1101 0.961 . S
C1086 C1087 1.370 . S
C1086 C1088 1.363 . S
C1086 H1102 0.931 . S
C1087 C1086 1.370 . S
C1087 C1091 1.408 . S
C1088 C1086 1.363 . S
C1088 C1089 1.370 . S
C1088 C1092 1.524 . S
C1089 C1081 1.503 . S
C1089 C1088 1.370 . S
C1089 C1090 1.403 . S
C1090 C1089 1.403 . S
C1090 C1091 1.404 . S
C1090 C1093 1.539 . S
C1091 C1087 1.408 . S
C1091 C1090 1.404 . S
C1091 H1103 0.930 . S
C1092 C1088 1.524 . S
C1092 H1104 0.956 . S
C1092 H1105 0.961 . S
C1092 H1106 0.961 . S
C1093 C1090 1.539 . S
C1093 H1107 0.958 . S
C1093 H1108 0.961 . S
C1093 H1109 0.960 . S
H1094 C1078 0.931 . S
H1095 C1083 0.929 . S
H1096 C1084 0.960 . S
H1097 C1084 0.962 . S
H1098 C1084 0.960 . S
H1099 C1085 0.961 . S
H1100 C1085 0.961 . S
H1101 C1085 0.961 . S
H1102 C1086 0.931 . S
H1103 C1091 0.930 . S
H1104 C1092 0.956 . S
H1105 C1092 0.961 . S
H1106 C1092 0.961 . S
H1107 C1093 0.958 . S
H1108 C1093 0.961 . S
H1109 C1093 0.960 . S
C1110 C1111 1.391 . S
C1110 C1112 1.394 . S
C1110 H1126 0.931 . S
C1111 C1110 1.391 . S
C1111 C1115 1.376 . S
C1112 C1110 1.394 . S
C1112 C1113 1.369 . S
C1112 C1116 1.531 . S
C1113 C1112 1.369 . S
C1113 C1114 1.410 . S
C1113 C1121 1.503 . S
C1114 C1113 1.410 . S
C1114 C1115 1.392 . S
C1114 C1117 1.511 . S
C1115 C1111 1.376 . S
C1115 C1114 1.392 . S
C1115 H1127 0.929 . S
C1116 C1112 1.531 . S
C1116 H1128 0.960 . S
C1116 H1129 0.962 . S
C1116 H1130 0.960 . S
C1117 C1114 1.511 . S
C1117 H1131 0.961 . S
C1117 H1132 0.961 . S
C1117 H1133 0.961 . S
C1118 C1119 1.370 . S
C1118 C1120 1.363 . S
C1118 H1134 0.931 . S
C1119 C1118 1.370 . S
C1119 C1123 1.408 . S
C1120 C1118 1.363 . S
C1120 C1121 1.370 . S
C1120 C1124 1.524 . S
C1121 C1113 1.503 . S
C1121 C1120 1.370 . S
C1121 C1122 1.403 . S
C1122 C1121 1.403 . S
C1122 C1123 1.404 . S
C1122 C1125 1.539 . S
C1123 C1119 1.408 . S
C1123 C1122 1.404 . S
C1123 H1135 0.930 . S
C1124 C1120 1.524 . S
C1124 H1136 0.956 . S
C1124 H1137 0.961 . S
C1124 H1138 0.961 . S
C1125 C1122 1.539 . S
C1125 H1139 0.958 . S
C1125 H1140 0.961 . S
C1125 H1141 0.960 . S
H1126 C1110 0.931 . S
H1127 C1115 0.929 . S
H1128 C1116 0.960 . S
H1129 C1116 0.962 . S
H1130 C1116 0.960 . S
H1131 C1117 0.961 . S
H1132 C1117 0.961 . S
H1133 C1117 0.961 . S
H1134 C1118 0.931 . S
H1135 C1123 0.930 . S
H1136 C1124 0.956 . S
H1137 C1124 0.961 . S
H1138 C1124 0.961 . S
H1139 C1125 0.958 . S
H1140 C1125 0.961 . S
H1141 C1125 0.960 . S
C1142 C1143 1.391 . S
C1142 C1144 1.394 . S
C1142 H1158 0.931 . S
C1143 C1142 1.391 . S
C1143 C1147 1.376 . S
C1144 C1142 1.394 . S
C1144 C1145 1.369 . S
C1144 C1148 1.531 . S
C1145 C1144 1.369 . S
C1145 C1146 1.410 . S
C1145 C1153 1.503 . S
C1146 C1145 1.410 . S
C1146 C1147 1.392 . S
C1146 C1149 1.511 . S
C1147 C1143 1.376 . S
C1147 C1146 1.392 . S
C1147 H1159 0.929 . S
C1148 C1144 1.531 . S
C1148 H1160 0.960 . S
C1148 H1161 0.962 . S
C1148 H1162 0.960 . S
C1149 C1146 1.511 . S
C1149 H1163 0.961 . S
C1149 H1164 0.961 . S
C1149 H1165 0.961 . S
C1150 C1151 1.370 . S
C1150 C1152 1.363 . S
C1150 H1166 0.931 . S
C1151 C1150 1.370 . S
C1151 C1155 1.408 . S
C1152 C1150 1.363 . S
C1152 C1153 1.370 . S
C1152 C1156 1.524 . S
C1153 C1145 1.503 . S
C1153 C1152 1.370 . S
C1153 C1154 1.403 . S
C1154 C1153 1.403 . S
C1154 C1155 1.404 . S
C1154 C1157 1.539 . S
C1155 C1151 1.408 . S
C1155 C1154 1.404 . S
C1155 H1167 0.930 . S
C1156 C1152 1.524 . S
C1156 H1168 0.956 . S
C1156 H1169 0.961 . S
C1156 H1170 0.961 . S
C1157 C1154 1.539 . S
C1157 H1171 0.958 . S
C1157 H1172 0.961 . S
C1157 H1173 0.960 . S
H1158 C1142 0.931 . S
H1159 C1147 0.929 . S
H1160 C1148 0.960 . S
H1161 C1148 0.962 . S
H1162 C1148 0.960 . S
H1163 C1149 0.961 . S
H1164 C1149 0.961 . S
H1165 C1149 0.961 . S
H1166 C1150 0.931 . S
H1167 C1155 0.930 . S
H1168 C1156 0.956 . S
H1169 C1156 0.961 . S
H1170 C1156 0.961 . S
H1171 C1157 0.958 . S
H1172 C1157 0.961 . S
H1173 C1157 0.960 . S
C1174 C1175 1.391 . S
C1174 C1176 1.394 . S
C1174 H1190 0.931 . S
C1175 C1174 1.391 . S
C1175 C1179 1.376 . S
C1176 C1174 1.394 . S
C1176 C1177 1.369 . S
C1176 C1180 1.531 . S
C1177 C1176 1.369 . S
C1177 C1178 1.410 . S
C1177 C1185 1.503 . S
C1178 C1177 1.410 . S
C1178 C1179 1.392 . S
C1178 C1181 1.511 . S
C1179 C1175 1.376 . S
C1179 C1178 1.392 . S
C1179 H1191 0.929 . S
C1180 C1176 1.531 . S
C1180 H1192 0.960 . S
C1180 H1193 0.962 . S
C1180 H1194 0.960 . S
C1181 C1178 1.511 . S
C1181 H1195 0.961 . S
C1181 H1196 0.961 . S
C1181 H1197 0.961 . S
C1182 C1183 1.370 . S
C1182 C1184 1.363 . S
C1182 H1198 0.931 . S
C1183 C1182 1.370 . S
C1183 C1187 1.408 . S
C1184 C1182 1.363 . S
C1184 C1185 1.370 . S
C1184 C1188 1.524 . S
C1185 C1177 1.503 . S
C1185 C1184 1.370 . S
C1185 C1186 1.403 . S
C1186 C1185 1.403 . S
C1186 C1187 1.404 . S
C1186 C1189 1.539 . S
C1187 C1183 1.408 . S
C1187 C1186 1.404 . S
C1187 H1199 0.930 . S
C1188 C1184 1.524 . S
C1188 H1200 0.956 . S
C1188 H1201 0.961 . S
C1188 H1202 0.961 . S
C1189 C1186 1.539 . S
C1189 H1203 0.958 . S
C1189 H1204 0.961 . S
C1189 H1205 0.960 . S
H1190 C1174 0.931 . S
H1191 C1179 0.929 . S
H1192 C1180 0.960 . S
H1193 C1180 0.962 . S
H1194 C1180 0.960 . S
H1195 C1181 0.961 . S
H1196 C1181 0.961 . S
H1197 C1181 0.961 . S
H1198 C1182 0.931 . S
H1199 C1187 0.930 . S
H1200 C1188 0.956 . S
H1201 C1188 0.961 . S
H1202 C1188 0.961 . S
H1203 C1189 0.958 . S
H1204 C1189 0.961 . S
H1205 C1189 0.960 . S
C1206 C1207 1.391 . S
C1206 C1208 1.394 . S
C1206 H1222 0.931 . S
C1207 C1206 1.391 . S
C1207 C1211 1.376 . S
C1208 C1206 1.394 . S
C1208 C1209 1.369 . S
C1208 C1212 1.531 . S
C1209 C1208 1.369 . S
C1209 C1210 1.410 . S
C1209 C1217 1.503 . S
C1210 C1209 1.410 . S
C1210 C1211 1.392 . S
C1210 C1213 1.511 . S
C1211 C1207 1.376 . S
C1211 C1210 1.392 . S
C1211 H1223 0.929 . S
C1212 C1208 1.531 . S
C1212 H1224 0.960 . S
C1212 H1225 0.962 . S
C1212 H1226 0.960 . S
C1213 C1210 1.511 . S
C1213 H1227 0.961 . S
C1213 H1228 0.961 . S
C1213 H1229 0.961 . S
C1214 C1215 1.370 . S
C1214 C1216 1.363 . S
C1214 H1230 0.931 . S
C1215 C1214 1.370 . S
C1215 C1219 1.408 . S
C1216 C1214 1.363 . S
C1216 C1217 1.370 . S
C1216 C1220 1.524 . S
C1217 C1209 1.503 . S
C1217 C1216 1.370 . S
C1217 C1218 1.403 . S
C1218 C1217 1.403 . S
C1218 C1219 1.404 . S
C1218 C1221 1.539 . S
C1219 C1215 1.408 . S
C1219 C1218 1.404 . S
C1219 H1231 0.930 . S
C1220 C1216 1.524 . S
C1220 H1232 0.956 . S
C1220 H1233 0.961 . S
C1220 H1234 0.961 . S
C1221 C1218 1.539 . S
C1221 H1235 0.958 . S
C1221 H1236 0.961 . S
C1221 H1237 0.960 . S
H1222 C1206 0.931 . S
H1223 C1211 0.929 . S
H1224 C1212 0.960 . S
H1225 C1212 0.962 . S
H1226 C1212 0.960 . S
H1227 C1213 0.961 . S
H1228 C1213 0.961 . S
H1229 C1213 0.961 . S
H1230 C1214 0.931 . S
H1231 C1219 0.930 . S
H1232 C1220 0.956 . S
H1233 C1220 0.961 . S
H1234 C1220 0.961 . S
H1235 C1221 0.958 . S
H1236 C1221 0.961 . S
H1237 C1221 0.960 . S
C1238 C1239 1.391 . S
C1238 C1240 1.394 . S
C1238 H1254 0.931 . S
C1239 C1238 1.391 . S
C1239 C1243 1.376 . S
C1240 C1238 1.394 . S
C1240 C1241 1.369 . S
C1240 C1244 1.531 . S
C1241 C1240 1.369 . S
C1241 C1242 1.410 . S
C1241 C1249 1.503 . S
C1242 C1241 1.410 . S
C1242 C1243 1.392 . S
C1242 C1245 1.511 . S
C1243 C1239 1.376 . S
C1243 C1242 1.392 . S
C1243 H1255 0.929 . S
C1244 C1240 1.531 . S
C1244 H1256 0.960 . S
C1244 H1257 0.962 . S
C1244 H1258 0.960 . S
C1245 C1242 1.511 . S
C1245 H1259 0.961 . S
C1245 H1260 0.961 . S
C1245 H1261 0.961 . S
C1246 C1247 1.370 . S
C1246 C1248 1.363 . S
C1246 H1262 0.931 . S
C1247 C1246 1.370 . S
C1247 C1251 1.408 . S
C1248 C1246 1.363 . S
C1248 C1249 1.370 . S
C1248 C1252 1.524 . S
C1249 C1241 1.503 . S
C1249 C1248 1.370 . S
C1249 C1250 1.403 . S
C1250 C1249 1.403 . S
C1250 C1251 1.404 . S
C1250 C1253 1.539 . S
C1251 C1247 1.408 . S
C1251 C1250 1.404 . S
C1251 H1263 0.930 . S
C1252 C1248 1.524 . S
C1252 H1264 0.956 . S
C1252 H1265 0.961 . S
C1252 H1266 0.961 . S
C1253 C1250 1.539 . S
C1253 H1267 0.958 . S
C1253 H1268 0.961 . S
C1253 H1269 0.960 . S
H1254 C1238 0.931 . S
H1255 C1243 0.929 . S
H1256 C1244 0.960 . S
H1257 C1244 0.962 . S
H1258 C1244 0.960 . S
H1259 C1245 0.961 . S
H1260 C1245 0.961 . S
H1261 C1245 0.961 . S
H1262 C1246 0.931 . S
H1263 C1251 0.930 . S
H1264 C1252 0.956 . S
H1265 C1252 0.961 . S
H1266 C1252 0.961 . S
H1267 C1253 0.958 . S
H1268 C1253 0.961 . S
H1269 C1253 0.960 . S
C1270 C1271 1.391 . S
C1270 C1272 1.394 . S
C1270 H1286 0.931 . S
C1271 C1270 1.391 . S
C1271 C1275 1.376 . S
C1272 C1270 1.394 . S
C1272 C1273 1.369 . S
C1272 C1276 1.531 . S
C1273 C1272 1.369 . S
C1273 C1274 1.410 . S
C1273 C1281 1.503 . S
C1274 C1273 1.410 . S
C1274 C1275 1.392 . S
C1274 C1277 1.511 . S
C1275 C1271 1.376 . S
C1275 C1274 1.392 . S
C1275 H1287 0.929 . S
C1276 C1272 1.531 . S
C1276 H1288 0.960 . S
C1276 H1289 0.962 . S
C1276 H1290 0.960 . S
C1277 C1274 1.511 . S
C1277 H1291 0.961 . S
C1277 H1292 0.961 . S
C1277 H1293 0.961 . S
C1278 C1279 1.370 . S
C1278 C1280 1.363 . S
C1278 H1294 0.931 . S
C1279 C1278 1.370 . S
C1279 C1283 1.408 . S
C1280 C1278 1.363 . S
C1280 C1281 1.370 . S
C1280 C1284 1.524 . S
C1281 C1273 1.503 . S
C1281 C1280 1.370 . S
C1281 C1282 1.403 . S
C1282 C1281 1.403 . S
C1282 C1283 1.404 . S
C1282 C1285 1.539 . S
C1283 C1279 1.408 . S
C1283 C1282 1.404 . S
C1283 H1295 0.930 . S
C1284 C1280 1.524 . S
C1284 H1296 0.956 . S
C1284 H1297 0.961 . S
C1284 H1298 0.961 . S
C1285 C1282 1.539 . S
C1285 H1299 0.958 . S
C1285 H1300 0.961 . S
C1285 H1301 0.960 . S
H1286 C1270 0.931 . S
H1287 C1275 0.929 . S
H1288 C1276 0.960 . S
H1289 C1276 0.962 . S
H1290 C1276 0.960 . S
H1291 C1277 0.961 . S
H1292 C1277 0.961 . S
H1293 C1277 0.961 . S
H1294 C1278 0.931 . S
H1295 C1283 0.930 . S
H1296 C1284 0.956 . S
H1297 C1284 0.961 . S
H1298 C1284 0.961 . S
H1299 C1285 0.958 . S
H1300 C1285 0.961 . S
H1301 C1285 0.960 . S
C1302 C1303 1.391 . S
C1302 C1304 1.394 . S
C1302 H1318 0.931 . S
C1303 C1302 1.391 . S
C1303 C1307 1.376 . S
C1304 C1302 1.394 . S
C1304 C1305 1.369 . S
C1304 C1308 1.531 . S
C1305 C1304 1.369 . S
C1305 C1306 1.410 . S
C1305 C1313 1.503 . S
C1306 C1305 1.410 . S
C1306 C1307 1.392 . S
C1306 C1309 1.511 . S
C1307 C1303 1.376 . S
C1307 C1306 1.392 . S
C1307 H1319 0.929 . S
C1308 C1304 1.531 . S
C1308 H1320 0.960 . S
C1308 H1321 0.962 . S
C1308 H1322 0.960 . S
C1309 C1306 1.511 . S
C1309 H1323 0.961 . S
C1309 H1324 0.961 . S
C1309 H1325 0.961 . S
C1310 C1311 1.370 . S
C1310 C1312 1.363 . S
C1310 H1326 0.931 . S
C1311 C1310 1.370 . S
C1311 C1315 1.408 . S
C1312 C1310 1.363 . S
C1312 C1313 1.370 . S
C1312 C1316 1.524 . S
C1313 C1305 1.503 . S
C1313 C1312 1.370 . S
C1313 C1314 1.403 . S
C1314 C1313 1.403 . S
C1314 C1315 1.404 . S
C1314 C1317 1.539 . S
C1315 C1311 1.408 . S
C1315 C1314 1.404 . S
C1315 H1327 0.930 . S
C1316 C1312 1.524 . S
C1316 H1328 0.956 . S
C1316 H1329 0.961 . S
C1316 H1330 0.961 . S
C1317 C1314 1.539 . S
C1317 H1331 0.958 . S
C1317 H1332 0.961 . S
C1317 H1333 0.960 . S
H1318 C1302 0.931 . S
H1319 C1307 0.929 . S
H1320 C1308 0.960 . S
H1321 C1308 0.962 . S
H1322 C1308 0.960 . S
H1323 C1309 0.961 . S
H1324 C1309 0.961 . S
H1325 C1309 0.961 . S
H1326 C1310 0.931 . S
H1327 C1315 0.930 . S
H1328 C1316 0.956 . S
H1329 C1316 0.961 . S
H1330 C1316 0.961 . S
H1331 C1317 0.958 . S
H1332 C1317 0.961 . S
H1333 C1317 0.960 . S
C1334 C1335 1.391 . S
C1334 C1336 1.394 . S
C1334 H1350 0.931 . S
C1335 C1334 1.391 . S
C1335 C1339 1.376 . S
C1336 C1334 1.394 . S
C1336 C1337 1.369 . S
C1336 C1340 1.531 . S
C1337 C1336 1.369 . S
C1337 C1338 1.410 . S
C1337 C1345 1.503 . S
C1338 C1337 1.410 . S
C1338 C1339 1.392 . S
C1338 C1341 1.511 . S
C1339 C1335 1.376 . S
C1339 C1338 1.392 . S
C1339 H1351 0.929 . S
C1340 C1336 1.531 . S
C1340 H1352 0.960 . S
C1340 H1353 0.962 . S
C1340 H1354 0.960 . S
C1341 C1338 1.511 . S
C1341 H1355 0.961 . S
C1341 H1356 0.961 . S
C1341 H1357 0.961 . S
C1342 C1343 1.370 . S
C1342 C1344 1.363 . S
C1342 H1358 0.931 . S
C1343 C1342 1.370 . S
C1343 C1347 1.408 . S
C1344 C1342 1.363 . S
C1344 C1345 1.370 . S
C1344 C1348 1.524 . S
C1345 C1337 1.503 . S
C1345 C1344 1.370 . S
C1345 C1346 1.403 . S
C1346 C1345 1.403 . S
C1346 C1347 1.404 . S
C1346 C1349 1.539 . S
C1347 C1343 1.408 . S
C1347 C1346 1.404 . S
C1347 H1359 0.930 . S
C1348 C1344 1.524 . S
C1348 H1360 0.956 . S
C1348 H1361 0.961 . S
C1348 H1362 0.961 . S
C1349 C1346 1.539 . S
C1349 H1363 0.958 . S
C1349 H1364 0.961 . S
C1349 H1365 0.960 . S
H1350 C1334 0.931 . S
H1351 C1339 0.929 . S
H1352 C1340 0.960 . S
H1353 C1340 0.962 . S
H1354 C1340 0.960 . S
H1355 C1341 0.961 . S
H1356 C1341 0.961 . S
H1357 C1341 0.961 . S
H1358 C1342 0.931 . S
H1359 C1347 0.930 . S
H1360 C1348 0.956 . S
H1361 C1348 0.961 . S
H1362 C1348 0.961 . S
H1363 C1349 0.958 . S
H1364 C1349 0.961 . S
H1365 C1349 0.960 . S
C1366 C1367 1.391 . S
C1366 C1368 1.394 . S
C1366 H1382 0.931 . S
C1367 C1366 1.391 . S
C1367 C1371 1.376 . S
C1368 C1366 1.394 . S
C1368 C1369 1.369 . S
C1368 C1372 1.531 . S
C1369 C1368 1.369 . S
C1369 C1370 1.410 . S
C1369 C1377 1.503 . S
C1370 C1369 1.410 . S
C1370 C1371 1.392 . S
C1370 C1373 1.511 . S
C1371 C1367 1.376 . S
C1371 C1370 1.392 . S
C1371 H1383 0.929 . S
C1372 C1368 1.531 . S
C1372 H1384 0.960 . S
C1372 H1385 0.962 . S
C1372 H1386 0.960 . S
C1373 C1370 1.511 . S
C1373 H1387 0.961 . S
C1373 H1388 0.961 . S
C1373 H1389 0.961 . S
C1374 C1375 1.370 . S
C1374 C1376 1.363 . S
C1374 H1390 0.931 . S
C1375 C1374 1.370 . S
C1375 C1379 1.408 . S
C1376 C1374 1.363 . S
C1376 C1377 1.370 . S
C1376 C1380 1.524 . S
C1377 C1369 1.503 . S
C1377 C1376 1.370 . S
C1377 C1378 1.403 . S
C1378 C1377 1.403 . S
C1378 C1379 1.404 . S
C1378 C1381 1.539 . S
C1379 C1375 1.408 . S
C1379 C1378 1.404 . S
C1379 H1391 0.930 . S
C1380 C1376 1.524 . S
C1380 H1392 0.956 . S
C1380 H1393 0.961 . S
C1380 H1394 0.961 . S
C1381 C1378 1.539 . S
C1381 H1395 0.958 . S
C1381 H1396 0.961 . S
C1381 H1397 0.960 . S
H1382 C1366 0.931 . S
H1383 C1371 0.929 . S
H1384 C1372 0.960 . S
H1385 C1372 0.962 . S
H1386 C1372 0.960 . S
H1387 C1373 0.961 . S
H1388 C1373 0.961 . S
H1389 C1373 0.961 . S
H1390 C1374 0.931 . S
H1391 C1379 0.930 . S
H1392 C1380 0.956 . S
H1393 C1380 0.961 . S
H1394 C1380 0.961 . S
H1395 C1381 0.958 . S
H1396 C1381 0.961 . S
H1397 C1381 0.960 . S
C1398 C1399 1.391 . S
C1398 C1400 1.394 . S
C1398 H1414 0.931 . S
C1399 C1398 1.391 . S
C1399 C1403 1.376 . S
C1400 C1398 1.394 . S
C1400 C1401 1.369 . S
C1400 C1404 1.531 . S
C1401 C1400 1.369 . S
C1401 C1402 1.410 . S
C1401 C1409 1.503 . S
C1402 C1401 1.410 . S
C1402 C1403 1.392 . S
C1402 C1405 1.511 . S
C1403 C1399 1.376 . S
C1403 C1402 1.392 . S
C1403 H1415 0.929 . S
C1404 C1400 1.531 . S
C1404 H1416 0.960 . S
C1404 H1417 0.962 . S
C1404 H1418 0.960 . S
C1405 C1402 1.511 . S
C1405 H1419 0.961 . S
C1405 H1420 0.961 . S
C1405 H1421 0.961 . S
C1406 C1407 1.370 . S
C1406 C1408 1.363 . S
C1406 H1422 0.931 . S
C1407 C1406 1.370 . S
C1407 C1411 1.408 . S
C1408 C1406 1.363 . S
C1408 C1409 1.370 . S
C1408 C1412 1.524 . S
C1409 C1401 1.503 . S
C1409 C1408 1.370 . S
C1409 C1410 1.403 . S
C1410 C1409 1.403 . S
C1410 C1411 1.404 . S
C1410 C1413 1.539 . S
C1411 C1407 1.408 . S
C1411 C1410 1.404 . S
C1411 H1423 0.930 . S
C1412 C1408 1.524 . S
C1412 H1424 0.956 . S
C1412 H1425 0.961 . S
C1412 H1426 0.961 . S
C1413 C1410 1.539 . S
C1413 H1427 0.958 . S
C1413 H1428 0.961 . S
C1413 H1429 0.960 . S
H1414 C1398 0.931 . S
H1415 C1403 0.929 . S
H1416 C1404 0.960 . S
H1417 C1404 0.962 . S
H1418 C1404 0.960 . S
H1419 C1405 0.961 . S
H1420 C1405 0.961 . S
H1421 C1405 0.961 . S
H1422 C1406 0.931 . S
H1423 C1411 0.930 . S
H1424 C1412 0.956 . S
H1425 C1412 0.961 . S
H1426 C1412 0.961 . S
H1427 C1413 0.958 . S
H1428 C1413 0.961 . S
H1429 C1413 0.960 . S
C1430 C1431 1.391 . S
C1430 C1432 1.394 . S
C1430 H1446 0.931 . S
C1431 C1430 1.391 . S
C1431 C1435 1.376 . S
C1432 C1430 1.394 . S
C1432 C1433 1.369 . S
C1432 C1436 1.531 . S
C1433 C1432 1.369 . S
C1433 C1434 1.410 . S
C1433 C1441 1.503 . S
C1434 C1433 1.410 . S
C1434 C1435 1.392 . S
C1434 C1437 1.511 . S
C1435 C1431 1.376 . S
C1435 C1434 1.392 . S
C1435 H1447 0.929 . S
C1436 C1432 1.531 . S
C1436 H1448 0.960 . S
C1436 H1449 0.962 . S
C1436 H1450 0.960 . S
C1437 C1434 1.511 . S
C1437 H1451 0.961 . S
C1437 H1452 0.961 . S
C1437 H1453 0.961 . S
C1438 C1439 1.370 . S
C1438 C1440 1.363 . S
C1438 H1454 0.931 . S
C1439 C1438 1.370 . S
C1439 C1443 1.408 . S
C1440 C1438 1.363 . S
C1440 C1441 1.370 . S
C1440 C1444 1.524 . S
C1441 C1433 1.503 . S
C1441 C1440 1.370 . S
C1441 C1442 1.403 . S
C1442 C1441 1.403 . S
C1442 C1443 1.404 . S
C1442 C1445 1.539 . S
C1443 C1439 1.408 . S
C1443 C1442 1.404 . S
C1443 H1455 0.930 . S
C1444 C1440 1.524 . S
C1444 H1456 0.956 . S
C1444 H1457 0.961 . S
C1444 H1458 0.961 . S
C1445 C1442 1.539 . S
C1445 H1459 0.958 . S
C1445 H1460 0.961 . S
C1445 H1461 0.960 . S
H1446 C1430 0.931 . S
H1447 C1435 0.929 . S
H1448 C1436 0.960 . S
H1449 C1436 0.962 . S
H1450 C1436 0.960 . S
H1451 C1437 0.961 . S
H1452 C1437 0.961 . S
H1453 C1437 0.961 . S
H1454 C1438 0.931 . S
H1455 C1443 0.930 . S
H1456 C1444 0.956 . S
H1457 C1444 0.961 . S
H1458 C1444 0.961 . S
H1459 C1445 0.958 . S
H1460 C1445 0.961 . S
H1461 C1445 0.960 . S
C1462 C1463 1.391 . S
C1462 C1464 1.394 . S
C1462 H1478 0.931 . S
C1463 C1462 1.391 . S
C1463 C1467 1.376 . S
C1464 C1462 1.394 . S
C1464 C1465 1.369 . S
C1464 C1468 1.531 . S
C1465 C1464 1.369 . S
C1465 C1466 1.410 . S
C1465 C1473 1.503 . S
C1466 C1465 1.410 . S
C1466 C1467 1.392 . S
C1466 C1469 1.511 . S
C1467 C1463 1.376 . S
C1467 C1466 1.392 . S
C1467 H1479 0.929 . S
C1468 C1464 1.531 . S
C1468 H1480 0.960 . S
C1468 H1481 0.962 . S
C1468 H1482 0.960 . S
C1469 C1466 1.511 . S
C1469 H1483 0.961 . S
C1469 H1484 0.961 . S
C1469 H1485 0.961 . S
C1470 C1471 1.370 . S
C1470 C1472 1.363 . S
C1470 H1486 0.931 . S
C1471 C1470 1.370 . S
C1471 C1475 1.408 . S
C1472 C1470 1.363 . S
C1472 C1473 1.370 . S
C1472 C1476 1.524 . S
C1473 C1465 1.503 . S
C1473 C1472 1.370 . S
C1473 C1474 1.403 . S
C1474 C1473 1.403 . S
C1474 C1475 1.404 . S
C1474 C1477 1.539 . S
C1475 C1471 1.408 . S
C1475 C1474 1.404 . S
C1475 H1487 0.930 . S
C1476 C1472 1.524 . S
C1476 H1488 0.956 . S
C1476 H1489 0.961 . S
C1476 H1490 0.961 . S
C1477 C1474 1.539 . S
C1477 H1491 0.958 . S
C1477 H1492 0.961 . S
C1477 H1493 0.960 . S
H1478 C1462 0.931 . S
H1479 C1467 0.929 . S
H1480 C1468 0.960 . S
H1481 C1468 0.962 . S
H1482 C1468 0.960 . S
H1483 C1469 0.961 . S
H1484 C1469 0.961 . S
H1485 C1469 0.961 . S
H1486 C1470 0.931 . S
H1487 C1475 0.930 . S
H1488 C1476 0.956 . S
H1489 C1476 0.961 . S
H1490 C1476 0.961 . S
H1491 C1477 0.958 . S
H1492 C1477 0.961 . S
H1493 C1477 0.960 . S
C1494 C1495 1.391 . S
C1494 C1496 1.394 . S
C1494 H1510 0.931 . S
C1495 C1494 1.391 . S
C1495 C1499 1.376 . S
C1496 C1494 1.394 . S
C1496 C1497 1.369 . S
C1496 C1500 1.531 . S
C1497 C1496 1.369 . S
C1497 C1498 1.410 . S
C1497 C1505 1.503 . S
C1498 C1497 1.410 . S
C1498 C1499 1.392 . S
C1498 C1501 1.511 . S
C1499 C1495 1.376 . S
C1499 C1498 1.392 . S
C1499 H1511 0.929 . S
C1500 C1496 1.531 . S
C1500 H1512 0.960 . S
C1500 H1513 0.962 . S
C1500 H1514 0.960 . S
C1501 C1498 1.511 . S
C1501 H1515 0.961 . S
C1501 H1516 0.961 . S
C1501 H1517 0.961 . S
C1502 C1503 1.370 . S
C1502 C1504 1.363 . S
C1502 H1518 0.931 . S
C1503 C1502 1.370 . S
C1503 C1507 1.408 . S
C1504 C1502 1.363 . S
C1504 C1505 1.370 . S
C1504 C1508 1.524 . S
C1505 C1497 1.503 . S
C1505 C1504 1.370 . S
C1505 C1506 1.403 . S
C1506 C1505 1.403 . S
C1506 C1507 1.404 . S
C1506 C1509 1.539 . S
C1507 C1503 1.408 . S
C1507 C1506 1.404 . S
C1507 H1519 0.930 . S
C1508 C1504 1.524 . S
C1508 H1520 0.956 . S
C1508 H1521 0.961 . S
C1508 H1522 0.961 . S
C1509 C1506 1.539 . S
C1509 H1523 0.958 . S
C1509 H1524 0.961 . S
C1509 H1525 0.960 . S
H1510 C1494 0.931 . S
H1511 C1499 0.929 . S
H1512 C1500 0.960 . S
H1513 C1500 0.962 . S
H1514 C1500 0.960 . S
H1515 C1501 0.961 . S
H1516 C1501 0.961 . S
H1517 C1501 0.961 . S
H1518 C1502 0.931 . S
H1519 C1507 0.930 . S
H1520 C1508 0.956 . S
H1521 C1508 0.961 . S
H1522 C1508 0.961 . S
H1523 C1509 0.958 . S
H1524 C1509 0.961 . S
H1525 C1509 0.960 . S
C1526 C1527 1.391 . S
C1526 C1528 1.394 . S
C1526 H1542 0.931 . S
C1527 C1526 1.391 . S
C1527 C1531 1.376 . S
C1528 C1526 1.394 . S
C1528 C1529 1.369 . S
C1528 C1532 1.531 . S
C1529 C1528 1.369 . S
C1529 C1530 1.410 . S
C1529 C1537 1.503 . S
C1530 C1529 1.410 . S
C1530 C1531 1.392 . S
C1530 C1533 1.511 . S
C1531 C1527 1.376 . S
C1531 C1530 1.392 . S
C1531 H1543 0.929 . S
C1532 C1528 1.531 . S
C1532 H1544 0.960 . S
C1532 H1545 0.962 . S
C1532 H1546 0.960 . S
C1533 C1530 1.511 . S
C1533 H1547 0.961 . S
C1533 H1548 0.961 . S
C1533 H1549 0.961 . S
C1534 C1535 1.370 . S
C1534 C1536 1.363 . S
C1534 H1550 0.931 . S
C1535 C1534 1.370 . S
C1535 C1539 1.408 . S
C1536 C1534 1.363 . S
C1536 C1537 1.370 . S
C1536 C1540 1.524 . S
C1537 C1529 1.503 . S
C1537 C1536 1.370 . S
C1537 C1538 1.403 . S
C1538 C1537 1.403 . S
C1538 C1539 1.404 . S
C1538 C1541 1.539 . S
C1539 C1535 1.408 . S
C1539 C1538 1.404 . S
C1539 H1551 0.930 . S
C1540 C1536 1.524 . S
C1540 H1552 0.956 . S
C1540 H1553 0.961 . S
C1540 H1554 0.961 . S
C1541 C1538 1.539 . S
C1541 H1555 0.958 . S
C1541 H1556 0.961 . S
C1541 H1557 0.960 . S
H1542 C1526 0.931 . S
H1543 C1531 0.929 . S
H1544 C1532 0.960 . S
H1545 C1532 0.962 . S
H1546 C1532 0.960 . S
H1547 C1533 0.961 . S
H1548 C1533 0.961 . S
H1549 C1533 0.961 . S
H1550 C1534 0.931 . S
H1551 C1539 0.930 . S
H1552 C1540 0.956 . S
H1553 C1540 0.961 . S
H1554 C1540 0.961 . S
H1555 C1541 0.958 . S
H1556 C1541 0.961 . S
H1557 C1541 0.960 . S
C1558 C1559 1.391 . S
C1558 C1560 1.394 . S
C1558 H1574 0.931 . S
C1559 C1558 1.391 . S
C1559 C1563 1.376 . S
C1560 C1558 1.394 . S
C1560 C1561 1.369 . S
C1560 C1564 1.531 . S
C1561 C1560 1.369 . S
C1561 C1562 1.410 . S
C1561 C1569 1.503 . S
C1562 C1561 1.410 . S
C1562 C1563 1.392 . S
C1562 C1565 1.511 . S
C1563 C1559 1.376 . S
C1563 C1562 1.392 . S
C1563 H1575 0.929 . S
C1564 C1560 1.531 . S
C1564 H1576 0.960 . S
C1564 H1577 0.962 . S
C1564 H1578 0.960 . S
C1565 C1562 1.511 . S
C1565 H1579 0.961 . S
C1565 H1580 0.961 . S
C1565 H1581 0.961 . S
C1566 C1567 1.370 . S
C1566 C1568 1.363 . S
C1566 H1582 0.931 . S
C1567 C1566 1.370 . S
C1567 C1571 1.408 . S
C1568 C1566 1.363 . S
C1568 C1569 1.370 . S
C1568 C1572 1.524 . S
C1569 C1561 1.503 . S
C1569 C1568 1.370 . S
C1569 C1570 1.403 . S
C1570 C1569 1.403 . S
C1570 C1571 1.404 . S
C1570 C1573 1.539 . S
C1571 C1567 1.408 . S
C1571 C1570 1.404 . S
C1571 H1583 0.930 . S
C1572 C1568 1.524 . S
C1572 H1584 0.956 . S
C1572 H1585 0.961 . S
C1572 H1586 0.961 . S
C1573 C1570 1.539 . S
C1573 H1587 0.958 . S
C1573 H1588 0.961 . S
C1573 H1589 0.960 . S
H1574 C1558 0.931 . S
H1575 C1563 0.929 . S
H1576 C1564 0.960 . S
H1577 C1564 0.962 . S
H1578 C1564 0.960 . S
H1579 C1565 0.961 . S
H1580 C1565 0.961 . S
H1581 C1565 0.961 . S
H1582 C1566 0.931 . S
H1583 C1571 0.930 . S
H1584 C1572 0.956 . S
H1585 C1572 0.961 . S
H1586 C1572 0.961 . S
H1587 C1573 0.958 . S
H1588 C1573 0.961 . S
H1589 C1573 0.960 . S
C1590 C1591 1.391 . S
C1590 C1592 1.394 . S
C1590 H1606 0.931 . S
C1591 C1590 1.391 . S
C1591 C1595 1.376 . S
C1592 C1590 1.394 . S
C1592 C1593 1.369 . S
C1592 C1596 1.531 . S
C1593 C1592 1.369 . S
C1593 C1594 1.410 . S
C1593 C1601 1.503 . S
C1594 C1593 1.410 . S
C1594 C1595 1.392 . S
C1594 C1597 1.511 . S
C1595 C1591 1.376 . S
C1595 C1594 1.392 . S
C1595 H1607 0.929 . S
C1596 C1592 1.531 . S
C1596 H1608 0.960 . S
C1596 H1609 0.962 . S
C1596 H1610 0.960 . S
C1597 C1594 1.511 . S
C1597 H1611 0.961 . S
C1597 H1612 0.961 . S
C1597 H1613 0.961 . S
C1598 C1599 1.370 . S
C1598 C1600 1.363 . S
C1598 H1614 0.931 . S
C1599 C1598 1.370 . S
C1599 C1603 1.408 . S
C1600 C1598 1.363 . S
C1600 C1601 1.370 . S
C1600 C1604 1.524 . S
C1601 C1593 1.503 . S
C1601 C1600 1.370 . S
C1601 C1602 1.403 . S
C1602 C1601 1.403 . S
C1602 C1603 1.404 . S
C1602 C1605 1.539 . S
C1603 C1599 1.408 . S
C1603 C1602 1.404 . S
C1603 H1615 0.930 . S
C1604 C1600 1.524 . S
C1604 H1616 0.956 . S
C1604 H1617 0.961 . S
C1604 H1618 0.961 . S
C1605 C1602 1.539 . S
C1605 H1619 0.958 . S
C1605 H1620 0.961 . S
C1605 H1621 0.960 . S
H1606 C1590 0.931 . S
H1607 C1595 0.929 . S
H1608 C1596 0.960 . S
H1609 C1596 0.962 . S
H1610 C1596 0.960 . S
H1611 C1597 0.961 . S
H1612 C1597 0.961 . S
H1613 C1597 0.961 . S
H1614 C1598 0.931 . S
H1615 C1603 0.930 . S
H1616 C1604 0.956 . S
H1617 C1604 0.961 . S
H1618 C1604 0.961 . S
H1619 C1605 0.958 . S
H1620 C1605 0.961 . S
H1621 C1605 0.960 . S
C1622 C1623 1.391 . S
C1622 C1624 1.394 . S
C1622 H1638 0.931 . S
C1623 C1622 1.391 . S
C1623 C1627 1.376 . S
C1624 C1622 1.394 . S
C1624 C1625 1.369 . S
C1624 C1628 1.531 . S
C1625 C1624 1.369 . S
C1625 C1626 1.410 . S
C1625 C1633 1.503 . S
C1626 C1625 1.410 . S
C1626 C1627 1.392 . S
C1626 C1629 1.511 . S
C1627 C1623 1.376 . S
C1627 C1626 1.392 . S
C1627 H1639 0.929 . S
C1628 C1624 1.531 . S
C1628 H1640 0.960 . S
C1628 H1641 0.962 . S
C1628 H1642 0.960 . S
C1629 C1626 1.511 . S
C1629 H1643 0.961 . S
C1629 H1644 0.961 . S
C1629 H1645 0.961 . S
C1630 C1631 1.370 . S
C1630 C1632 1.363 . S
C1630 H1646 0.931 . S
C1631 C1630 1.370 . S
C1631 C1635 1.408 . S
C1632 C1630 1.363 . S
C1632 C1633 1.370 . S
C1632 C1636 1.524 . S
C1633 C1625 1.503 . S
C1633 C1632 1.370 . S
C1633 C1634 1.403 . S
C1634 C1633 1.403 . S
C1634 C1635 1.404 . S
C1634 C1637 1.539 . S
C1635 C1631 1.408 . S
C1635 C1634 1.404 . S
C1635 H1647 0.930 . S
C1636 C1632 1.524 . S
C1636 H1648 0.956 . S
C1636 H1649 0.961 . S
C1636 H1650 0.961 . S
C1637 C1634 1.539 . S
C1637 H1651 0.958 . S
C1637 H1652 0.961 . S
C1637 H1653 0.960 . S
H1638 C1622 0.931 . S
H1639 C1627 0.929 . S
H1640 C1628 0.960 . S
H1641 C1628 0.962 . S
H1642 C1628 0.960 . S
H1643 C1629 0.961 . S
H1644 C1629 0.961 . S
H1645 C1629 0.961 . S
H1646 C1630 0.931 . S
H1647 C1635 0.930 . S
H1648 C1636 0.956 . S
H1649 C1636 0.961 . S
H1650 C1636 0.961 . S
H1651 C1637 0.958 . S
H1652 C1637 0.961 . S
H1653 C1637 0.960 . S
C1654 C1655 1.391 . S
C1654 C1656 1.394 . S
C1654 H1670 0.931 . S
C1655 C1654 1.391 . S
C1655 C1659 1.376 . S
C1656 C1654 1.394 . S
C1656 C1657 1.369 . S
C1656 C1660 1.531 . S
C1657 C1656 1.369 . S
C1657 C1658 1.410 . S
C1657 C1665 1.503 . S
C1658 C1657 1.410 . S
C1658 C1659 1.392 . S
C1658 C1661 1.511 . S
C1659 C1655 1.376 . S
C1659 C1658 1.392 . S
C1659 H1671 0.929 . S
C1660 C1656 1.531 . S
C1660 H1672 0.960 . S
C1660 H1673 0.962 . S
C1660 H1674 0.960 . S
C1661 C1658 1.511 . S
C1661 H1675 0.961 . S
C1661 H1676 0.961 . S
C1661 H1677 0.961 . S
C1662 C1663 1.370 . S
C1662 C1664 1.363 . S
C1662 H1678 0.931 . S
C1663 C1662 1.370 . S
C1663 C1667 1.408 . S
C1664 C1662 1.363 . S
C1664 C1665 1.370 . S
C1664 C1668 1.524 . S
C1665 C1657 1.503 . S
C1665 C1664 1.370 . S
C1665 C1666 1.403 . S
C1666 C1665 1.403 . S
C1666 C1667 1.404 . S
C1666 C1669 1.539 . S
C1667 C1663 1.408 . S
C1667 C1666 1.404 . S
C1667 H1679 0.930 . S
C1668 C1664 1.524 . S
C1668 H1680 0.956 . S
C1668 H1681 0.961 . S
C1668 H1682 0.961 . S
C1669 C1666 1.539 . S
C1669 H1683 0.958 . S
C1669 H1684 0.961 . S
C1669 H1685 0.960 . S
H1670 C1654 0.931 . S
H1671 C1659 0.929 . S
H1672 C1660 0.960 . S
H1673 C1660 0.962 . S
H1674 C1660 0.960 . S
H1675 C1661 0.961 . S
H1676 C1661 0.961 . S
H1677 C1661 0.961 . S
H1678 C1662 0.931 . S
H1679 C1667 0.930 . S
H1680 C1668 0.956 . S
H1681 C1668 0.961 . S
H1682 C1668 0.961 . S
H1683 C1669 0.958 . S
H1684 C1669 0.961 . S
H1685 C1669 0.960 . S
C1686 C1687 1.391 . S
C1686 C1688 1.394 . S
C1686 H1702 0.931 . S
C1687 C1686 1.391 . S
C1687 C1691 1.376 . S
C1688 C1686 1.394 . S
C1688 C1689 1.369 . S
C1688 C1692 1.531 . S
C1689 C1688 1.369 . S
C1689 C1690 1.410 . S
C1689 C1697 1.503 . S
C1690 C1689 1.410 . S
C1690 C1691 1.392 . S
C1690 C1693 1.511 . S
C1691 C1687 1.376 . S
C1691 C1690 1.392 . S
C1691 H1703 0.929 . S
C1692 C1688 1.531 . S
C1692 H1704 0.960 . S
C1692 H1705 0.962 . S
C1692 H1706 0.960 . S
C1693 C1690 1.511 . S
C1693 H1707 0.961 . S
C1693 H1708 0.961 . S
C1693 H1709 0.961 . S
C1694 C1695 1.370 . S
C1694 C1696 1.363 . S
C1694 H1710 0.931 . S
C1695 C1694 1.370 . S
C1695 C1699 1.408 . S
C1696 C1694 1.363 . S
C1696 C1697 1.370 . S
C1696 C1700 1.524 . S
C1697 C1689 1.503 . S
C1697 C1696 1.370 . S
C1697 C1698 1.403 . S
C1698 C1697 1.403 . S
C1698 C1699 1.404 . S
C1698 C1701 1.539 . S
C1699 C1695 1.408 . S
C1699 C1698 1.404 . S
C1699 H1711 0.930 . S
C1700 C1696 1.524 . S
C1700 H1712 0.956 . S
C1700 H1713 0.961 . S
C1700 H1714 0.961 . S
C1701 C1698 1.539 . S
C1701 H1715 0.958 . S
C1701 H1716 0.961 . S
C1701 H1717 0.960 . S
H1702 C1686 0.931 . S
H1703 C1691 0.929 . S
H1704 C1692 0.960 . S
H1705 C1692 0.962 . S
H1706 C1692 0.960 . S
H1707 C1693 0.961 . S
H1708 C1693 0.961 . S
H1709 C1693 0.961 . S
H1710 C1694 0.931 . S
H1711 C1699 0.930 . S
H1712 C1700 0.956 . S
H1713 C1700 0.961 . S
H1714 C1700 0.961 . S
H1715 C1701 0.958 . S
H1716 C1701 0.961 . S
H1717 C1701 0.960 . S
C1718 C1719 1.391 . S
C1718 C1720 1.394 . S
C1718 H1734 0.931 . S
C1719 C1718 1.391 . S
C1719 C1723 1.376 . S
C1720 C1718 1.394 . S
C1720 C1721 1.369 . S
C1720 C1724 1.531 . S
C1721 C1720 1.369 . S
C1721 C1722 1.410 . S
C1721 C1729 1.503 . S
C1722 C1721 1.410 . S
C1722 C1723 1.392 . S
C1722 C1725 1.511 . S
C1723 C1719 1.376 . S
C1723 C1722 1.392 . S
C1723 H1735 0.929 . S
C1724 C1720 1.531 . S
C1724 H1736 0.960 . S
C1724 H1737 0.962 . S
C1724 H1738 0.960 . S
C1725 C1722 1.511 . S
C1725 H1739 0.961 . S
C1725 H1740 0.961 . S
C1725 H1741 0.961 . S
C1726 C1727 1.370 . S
C1726 C1728 1.363 . S
C1726 H1742 0.931 . S
C1727 C1726 1.370 . S
C1727 C1731 1.408 . S
C1728 C1726 1.363 . S
C1728 C1729 1.370 . S
C1728 C1732 1.524 . S
C1729 C1721 1.503 . S
C1729 C1728 1.370 . S
C1729 C1730 1.403 . S
C1730 C1729 1.403 . S
C1730 C1731 1.404 . S
C1730 C1733 1.539 . S
C1731 C1727 1.408 . S
C1731 C1730 1.404 . S
C1731 H1743 0.930 . S
C1732 C1728 1.524 . S
C1732 H1744 0.956 . S
C1732 H1745 0.961 . S
C1732 H1746 0.961 . S
C1733 C1730 1.539 . S
C1733 H1747 0.958 . S
C1733 H1748 0.961 . S
C1733 H1749 0.960 . S
H1734 C1718 0.931 . S
H1735 C1723 0.929 . S
H1736 C1724 0.960 . S
H1737 C1724 0.962 . S
H1738 C1724 0.960 . S
H1739 C1725 0.961 . S
H1740 C1725 0.961 . S
H1741 C1725 0.961 . S
H1742 C1726 0.931 . S
H1743 C1731 0.930 . S
H1744 C1732 0.956 . S
H1745 C1732 0.961 . S
H1746 C1732 0.961 . S
H1747 C1733 0.958 . S
H1748 C1733 0.961 . S
H1749 C1733 0.960 . S
C1750 C1751 1.391 . S
C1750 C1752 1.394 . S
C1750 H1766 0.931 . S
C1751 C1750 1.391 . S
C1751 C1755 1.376 . S
C1752 C1750 1.394 . S
C1752 C1753 1.369 . S
C1752 C1756 1.531 . S
C1753 C1752 1.369 . S
C1753 C1754 1.410 . S
C1753 C1761 1.503 . S
C1754 C1753 1.410 . S
C1754 C1755 1.392 . S
C1754 C1757 1.511 . S
C1755 C1751 1.376 . S
C1755 C1754 1.392 . S
C1755 H1767 0.929 . S
C1756 C1752 1.531 . S
C1756 H1768 0.960 . S
C1756 H1769 0.962 . S
C1756 H1770 0.960 . S
C1757 C1754 1.511 . S
C1757 H1771 0.961 . S
C1757 H1772 0.961 . S
C1757 H1773 0.961 . S
C1758 C1759 1.370 . S
C1758 C1760 1.363 . S
C1758 H1774 0.931 . S
C1759 C1758 1.370 . S
C1759 C1763 1.408 . S
C1760 C1758 1.363 . S
C1760 C1761 1.370 . S
C1760 C1764 1.524 . S
C1761 C1753 1.503 . S
C1761 C1760 1.370 . S
C1761 C1762 1.403 . S
C1762 C1761 1.403 . S
C1762 C1763 1.404 . S
C1762 C1765 1.539 . S
C1763 C1759 1.408 . S
C1763 C1762 1.404 . S
C1763 H1775 0.930 . S
C1764 C1760 1.524 . S
C1764 H1776 0.956 . S
C1764 H1777 0.961 . S
C1764 H1778 0.961 . S
C1765 C1762 1.539 . S
C1765 H1779 0.958 . S
C1765 H1780 0.961 . S
C1765 H1781 0.960 . S
H1766 C1750 0.931 . S
H1767 C1755 0.929 . S
H1768 C1756 0.960 . S
H1769 C1756 0.962 . S
H1770 C1756 0.960 . S
H1771 C1757 0.961 . S
H1772 C1757 0.961 . S
H1773 C1757 0.961 . S
H1774 C1758 0.931 . S
H1775 C1763 0.930 . S
H1776 C1764 0.956 . S
H1777 C1764 0.961 . S
H1778 C1764 0.961 . S
H1779 C1765 0.958 . S
H1780 C1765 0.961 . S
H1781 C1765 0.960 . S
C1782 C1783 1.391 . S
C1782 C1784 1.394 . S
C1782 H1798 0.931 . S
C1783 C1782 1.391 . S
C1783 C1787 1.376 . S
C1784 C1782 1.394 . S
C1784 C1785 1.369 . S
C1784 C1788 1.531 . S
C1785 C1784 1.369 . S
C1785 C1786 1.410 . S
C1785 C1793 1.503 . S
C1786 C1785 1.410 . S
C1786 C1787 1.392 . S
C1786 C1789 1.511 . S
C1787 C1783 1.376 . S
C1787 C1786 1.392 . S
C1787 H1799 0.929 . S
C1788 C1784 1.531 . S
C1788 H1800 0.960 . S
C1788 H1801 0.962 . S
C1788 H1802 0.960 . S
C1789 C1786 1.511 . S
C1789 H1803 0.961 . S
C1789 H1804 0.961 . S
C1789 H1805 0.961 . S
C1790 C1791 1.370 . S
C1790 C1792 1.363 . S
C1790 H1806 0.931 . S
C1791 C1790 1.370 . S
C1791 C1795 1.408 . S
C1792 C1790 1.363 . S
C1792 C1793 1.370 . S
C1792 C1796 1.524 . S
C1793 C1785 1.503 . S
C1793 C1792 1.370 . S
C1793 C1794 1.403 . S
C1794 C1793 1.403 . S
C1794 C1795 1.404 . S
C1794 C1797 1.539 . S
C1795 C1791 1.408 . S
C1795 C1794 1.404 . S
C1795 H1807 0.930 . S
C1796 C1792 1.524 . S
C1796 H1808 0.956 . S
C1796 H1809 0.961 . S
C1796 H1810 0.961 . S
C1797 C1794 1.539 . S
C1797 H1811 0.958 . S
C1797 H1812 0.961 . S
C1797 H1813 0.960 . S
H1798 C1782 0.931 . S
H1799 C1787 0.929 . S
H1800 C1788 0.960 . S
H1801 C1788 0.962 . S
H1802 C1788 0.960 . S
H1803 C1789 0.961 . S
H1804 C1789 0.961 . S
H1805 C1789 0.961 . S
H1806 C1790 0.931 . S
H1807 C1795 0.930 . S
H1808 C1796 0.956 . S
H1809 C1796 0.961 . S
H1810 C1796 0.961 . S
H1811 C1797 0.958 . S
H1812 C1797 0.961 . S
H1813 C1797 0.960 . S
C1814 C1815 1.391 . S
C1814 C1816 1.394 . S
C1814 H1830 0.931 . S
C1815 C1814 1.391 . S
C1815 C1819 1.376 . S
C1816 C1814 1.394 . S
C1816 C1817 1.369 . S
C1816 C1820 1.531 . S
C1817 C1816 1.369 . S
C1817 C1818 1.410 . S
C1817 C1825 1.503 . S
C1818 C1817 1.410 . S
C1818 C1819 1.392 . S
C1818 C1821 1.511 . S
C1819 C1815 1.376 . S
C1819 C1818 1.392 . S
C1819 H1831 0.929 . S
C1820 C1816 1.531 . S
C1820 H1832 0.960 . S
C1820 H1833 0.962 . S
C1820 H1834 0.960 . S
C1821 C1818 1.511 . S
C1821 H1835 0.961 . S
C1821 H1836 0.961 . S
C1821 H1837 0.961 . S
C1822 C1823 1.370 . S
C1822 C1824 1.363 . S
C1822 H1838 0.931 . S
C1823 C1822 1.370 . S
C1823 C1827 1.408 . S
C1824 C1822 1.363 . S
C1824 C1825 1.370 . S
C1824 C1828 1.524 . S
C1825 C1817 1.503 . S
C1825 C1824 1.370 . S
C1825 C1826 1.403 . S
C1826 C1825 1.403 . S
C1826 C1827 1.404 . S
C1826 C1829 1.539 . S
C1827 C1823 1.408 . S
C1827 C1826 1.404 . S
C1827 H1839 0.930 . S
C1828 C1824 1.524 . S
C1828 H1840 0.956 . S
C1828 H1841 0.961 . S
C1828 H1842 0.961 . S
C1829 C1826 1.539 . S
C1829 H1843 0.958 . S
C1829 H1844 0.961 . S
C1829 H1845 0.960 . S
H1830 C1814 0.931 . S
H1831 C1819 0.929 . S
H1832 C1820 0.960 . S
H1833 C1820 0.962 . S
H1834 C1820 0.960 . S
H1835 C1821 0.961 . S
H1836 C1821 0.961 . S
H1837 C1821 0.961 . S
H1838 C1822 0.931 . S
H1839 C1827 0.930 . S
H1840 C1828 0.956 . S
H1841 C1828 0.961 . S
H1842 C1828 0.961 . S
H1843 C1829 0.958 . S
H1844 C1829 0.961 . S
H1845 C1829 0.960 . S
C1846 C1847 1.391 . S
C1846 C1848 1.394 . S
C1846 H1862 0.931 . S
C1847 C1846 1.391 . S
C1847 C1851 1.376 . S
C1848 C1846 1.394 . S
C1848 C1849 1.369 . S
C1848 C1852 1.531 . S
C1849 C1848 1.369 . S
C1849 C1850 1.410 . S
C1849 C1857 1.503 . S
C1850 C1849 1.410 . S
C1850 C1851 1.392 . S
C1850 C1853 1.511 . S
C1851 C1847 1.376 . S
C1851 C1850 1.392 . S
C1851 H1863 0.929 . S
C1852 C1848 1.531 . S
C1852 H1864 0.960 . S
C1852 H1865 0.962 . S
C1852 H1866 0.960 . S
C1853 C1850 1.511 . S
C1853 H1867 0.961 . S
C1853 H1868 0.961 . S
C1853 H1869 0.961 . S
C1854 C1855 1.370 . S
C1854 C1856 1.363 . S
C1854 H1870 0.931 . S
C1855 C1854 1.370 . S
C1855 C1859 1.408 . S
C1856 C1854 1.363 . S
C1856 C1857 1.370 . S
C1856 C1860 1.524 . S
C1857 C1849 1.503 . S
C1857 C1856 1.370 . S
C1857 C1858 1.403 . S
C1858 C1857 1.403 . S
C1858 C1859 1.404 . S
C1858 C1861 1.539 . S
C1859 C1855 1.408 . S
C1859 C1858 1.404 . S
C1859 H1871 0.930 . S
C1860 C1856 1.524 . S
C1860 H1872 0.956 . S
C1860 H1873 0.961 . S
C1860 H1874 0.961 . S
C1861 C1858 1.539 . S
C1861 H1875 0.958 . S
C1861 H1876 0.961 . S
C1861 H1877 0.960 . S
H1862 C1846 0.931 . S
H1863 C1851 0.929 . S
H1864 C1852 0.960 . S
H1865 C1852 0.962 . S
H1866 C1852 0.960 . S
H1867 C1853 0.961 . S
H1868 C1853 0.961 . S
H1869 C1853 0.961 . S
H1870 C1854 0.931 . S
H1871 C1859 0.930 . S
H1872 C1860 0.956 . S
H1873 C1860 0.961 . S
H1874 C1860 0.961 . S
H1875 C1861 0.958 . S
H1876 C1861 0.961 . S
H1877 C1861 0.960 . S
C1878 C1879 1.391 . S
C1878 C1880 1.394 . S
C1878 H1894 0.931 . S
C1879 C1878 1.391 . S
C1879 C1883 1.376 . S
C1880 C1878 1.394 . S
C1880 C1881 1.369 . S
C1880 C1884 1.531 . S
C1881 C1880 1.369 . S
C1881 C1882 1.410 . S
C1881 C1889 1.503 . S
C1882 C1881 1.410 . S
C1882 C1883 1.392 . S
C1882 C1885 1.511 . S
C1883 C1879 1.376 . S
C1883 C1882 1.392 . S
C1883 H1895 0.929 . S
C1884 C1880 1.531 . S
C1884 H1896 0.960 . S
C1884 H1897 0.962 . S
C1884 H1898 0.960 . S
C1885 C1882 1.511 . S
C1885 H1899 0.961 . S
C1885 H1900 0.961 . S
C1885 H1901 0.961 . S
C1886 C1887 1.370 . S
C1886 C1888 1.363 . S
C1886 H1902 0.931 . S
C1887 C1886 1.370 . S
C1887 C1891 1.408 . S
C1888 C1886 1.363 . S
C1888 C1889 1.370 . S
C1888 C1892 1.524 . S
C1889 C1881 1.503 . S
C1889 C1888 1.370 . S
C1889 C1890 1.403 . S
C1890 C1889 1.403 . S
C1890 C1891 1.404 . S
C1890 C1893 1.539 . S
C1891 C1887 1.408 . S
C1891 C1890 1.404 . S
C1891 H1903 0.930 . S
C1892 C1888 1.524 . S
C1892 H1904 0.956 . S
C1892 H1905 0.961 . S
C1892 H1906 0.961 . S
C1893 C1890 1.539 . S
C1893 H1907 0.958 . S
C1893 H1908 0.961 . S
C1893 H1909 0.960 . S
H1894 C1878 0.931 . S
H1895 C1883 0.929 . S
H1896 C1884 0.960 . S
H1897 C1884 0.962 . S
H1898 C1884 0.960 . S
H1899 C1885 0.961 . S
H1900 C1885 0.961 . S
H1901 C1885 0.961 . S
H1902 C1886 0.931 . S
H1903 C1891 0.930 . S
H1904 C1892 0.956 . S
H1905 C1892 0.961 . S
H1906 C1892 0.961 . S
H1907 C1893 0.958 . S
H1908 C1893 0.961 . S
H1909 C1893 0.960 . S
C1910 C1911 1.391 . S
C1910 C1912 1.394 . S
C1910 H1926 0.931 . S
C1911 C1910 1.391 . S
C1911 C1915 1.376 . S
C1912 C1910 1.394 . S
C1912 C1913 1.369 . S
C1912 C1916 1.531 . S
C1913 C1912 1.369 . S
C1913 C1914 1.410 . S
C1913 C1921 1.503 . S
C1914 C1913 1.410 . S
C1914 C1915 1.392 . S
C1914 C1917 1.511 . S
C1915 C1911 1.376 . S
C1915 C1914 1.392 . S
C1915 H1927 0.929 . S
C1916 C1912 1.531 . S
C1916 H1928 0.960 . S
C1916 H1929 0.962 . S
C1916 H1930 0.960 . S
C1917 C1914 1.511 . S
C1917 H1931 0.961 . S
C1917 H1932 0.961 . S
C1917 H1933 0.961 . S
C1918 C1919 1.370 . S
C1918 C1920 1.363 . S
C1918 H1934 0.931 . S
C1919 C1918 1.370 . S
C1919 C1923 1.408 . S
C1920 C1918 1.363 . S
C1920 C1921 1.370 . S
C1920 C1924 1.524 . S
C1921 C1913 1.503 . S
C1921 C1920 1.370 . S
C1921 C1922 1.403 . S
C1922 C1921 1.403 . S
C1922 C1923 1.404 . S
C1922 C1925 1.539 . S
C1923 C1919 1.408 . S
C1923 C1922 1.404 . S
C1923 H1935 0.930 . S
C1924 C1920 1.524 . S
C1924 H1936 0.956 . S
C1924 H1937 0.961 . S
C1924 H1938 0.961 . S
C1925 C1922 1.539 . S
C1925 H1939 0.958 . S
C1925 H1940 0.961 . S
C1925 H1941 0.960 . S
H1926 C1910 0.931 . S
H1927 C1915 0.929 . S
H1928 C1916 0.960 . S
H1929 C1916 0.962 . S
H1930 C1916 0.960 . S
H1931 C1917 0.961 . S
H1932 C1917 0.961 . S
H1933 C1917 0.961 . S
H1934 C1918 0.931 . S
H1935 C1923 0.930 . S
H1936 C1924 0.956 . S
H1937 C1924 0.961 . S
H1938 C1924 0.961 . S
H1939 C1925 0.958 . S
H1940 C1925 0.961 . S
H1941 C1925 0.960 . S
C1942 C1943 1.391 . S
C1942 C1944 1.394 . S
C1942 H1958 0.931 . S
C1943 C1942 1.391 . S
C1943 C1947 1.376 . S
C1944 C1942 1.394 . S
C1944 C1945 1.369 . S
C1944 C1948 1.531 . S
C1945 C1944 1.369 . S
C1945 C1946 1.410 . S
C1945 C1953 1.503 . S
C1946 C1945 1.410 . S
C1946 C1947 1.392 . S
C1946 C1949 1.511 . S
C1947 C1943 1.376 . S
C1947 C1946 1.392 . S
C1947 H1959 0.929 . S
C1948 C1944 1.531 . S
C1948 H1960 0.960 . S
C1948 H1961 0.962 . S
C1948 H1962 0.960 . S
C1949 C1946 1.511 . S
C1949 H1963 0.961 . S
C1949 H1964 0.961 . S
C1949 H1965 0.961 . S
C1950 C1951 1.370 . S
C1950 C1952 1.363 . S
C1950 H1966 0.931 . S
C1951 C1950 1.370 . S
C1951 C1955 1.408 . S
C1952 C1950 1.363 . S
C1952 C1953 1.370 . S
C1952 C1956 1.524 . S
C1953 C1945 1.503 . S
C1953 C1952 1.370 . S
C1953 C1954 1.403 . S
C1954 C1953 1.403 . S
C1954 C1955 1.404 . S
C1954 C1957 1.539 . S
C1955 C1951 1.408 . S
C1955 C1954 1.404 . S
C1955 H1967 0.930 . S
C1956 C1952 1.524 . S
C1956 H1968 0.956 . S
C1956 H1969 0.961 . S
C1956 H1970 0.961 . S
C1957 C1954 1.539 . S
C1957 H1971 0.958 . S
C1957 H1972 0.961 . S
C1957 H1973 0.960 . S
H1958 C1942 0.931 . S
H1959 C1947 0.929 . S
H1960 C1948 0.960 . S
H1961 C1948 0.962 . S
H1962 C1948 0.960 . S
H1963 C1949 0.961 . S
H1964 C1949 0.961 . S
H1965 C1949 0.961 . S
H1966 C1950 0.931 . S
H1967 C1955 0.930 . S
H1968 C1956 0.956 . S
H1969 C1956 0.961 . S
H1970 C1956 0.961 . S
H1971 C1957 0.958 . S
H1972 C1957 0.961 . S
H1973 C1957 0.960 . S
C1974 C1975 1.391 . S
C1974 C1976 1.394 . S
C1974 H1990 0.933 1_556 S
C1975 C1974 1.391 . S
C1975 C1979 1.376 . S
C1976 C1974 1.394 . S
C1976 C1977 1.369 . S
C1976 C1980 1.531 . S
C1977 C1976 1.369 . S
C1977 C1978 1.410 . S
C1977 C1985 1.503 . S
C1978 C1977 1.410 . S
C1978 C1979 1.392 . S
C1978 C1981 1.511 . S
C1979 C1975 1.376 . S
C1979 C1978 1.392 . S
C1979 H1991 0.929 . S
C1980 C1976 1.531 . S
C1980 H1992 0.960 . S
C1980 H1993 0.962 . S
C1980 H1994 0.960 1_556 S
C1981 C1978 1.511 . S
C1981 H1995 0.961 . S
C1981 H1996 0.961 . S
C1981 H1997 0.961 . S
C1982 C1983 1.370 . S
C1982 C1984 1.363 . S
C1982 H1998 0.931 . S
C1983 C1982 1.370 . S
C1983 C1987 1.408 . S
C1984 C1982 1.363 . S
C1984 C1985 1.370 . S
C1984 C1988 1.524 . S
C1985 C1977 1.503 . S
C1985 C1984 1.370 . S
C1985 C1986 1.403 . S
C1986 C1985 1.403 . S
C1986 C1987 1.404 . S
C1986 C1989 1.539 . S
C1987 C1983 1.408 . S
C1987 C1986 1.404 . S
C1987 H1999 0.930 . S
C1988 C1984 1.524 . S
C1988 H2000 0.956 . S
C1988 H2001 0.961 . S
C1988 H2002 0.961 . S
C1989 C1986 1.539 . S
C1989 H2003 0.958 . S
C1989 H2004 0.961 . S
C1989 H2005 0.960 . S
H1990 C1974 0.933 1_554 S
H1991 C1979 0.929 . S
H1992 C1980 0.960 . S
H1993 C1980 0.962 . S
H1994 C1980 0.960 1_554 S
H1995 C1981 0.961 . S
H1996 C1981 0.961 . S
H1997 C1981 0.961 . S
H1998 C1982 0.931 . S
H1999 C1987 0.930 . S
H2000 C1988 0.956 . S
H2001 C1988 0.961 . S
H2002 C1988 0.961 . S
H2003 C1989 0.958 . S
H2004 C1989 0.961 . S
H2005 C1989 0.960 . S
C2006 C2007 1.391 . S
C2006 C2008 1.394 . S
C2006 H2022 0.931 1_556 S
C2007 C2006 1.391 . S
C2007 C2011 1.376 . S
C2008 C2006 1.394 . S
C2008 C2009 1.369 . S
C2008 C2012 1.531 . S
C2009 C2008 1.369 . S
C2009 C2010 1.410 . S
C2009 C2017 1.503 . S
C2010 C2009 1.410 . S
C2010 C2011 1.392 . S
C2010 C2013 1.511 . S
C2011 C2007 1.376 . S
C2011 C2010 1.392 . S
C2011 H2023 0.929 . S
C2012 C2008 1.531 . S
C2012 H2024 0.960 . S
C2012 H2025 0.962 . S
C2012 H2026 0.960 1_556 S
C2013 C2010 1.511 . S
C2013 H2027 0.961 . S
C2013 H2028 0.961 . S
C2013 H2029 0.961 . S
C2014 C2015 1.370 . S
C2014 C2016 1.363 . S
C2014 H2030 0.931 . S
C2015 C2014 1.370 . S
C2015 C2019 1.408 . S
C2016 C2014 1.363 . S
C2016 C2017 1.370 . S
C2016 C2020 1.524 . S
C2017 C2009 1.503 . S
C2017 C2016 1.370 . S
C2017 C2018 1.403 . S
C2018 C2017 1.403 . S
C2018 C2019 1.404 . S
C2018 C2021 1.539 . S
C2019 C2015 1.408 . S
C2019 C2018 1.404 . S
C2019 H2031 0.930 . S
C2020 C2016 1.524 . S
C2020 H2032 0.956 . S
C2020 H2033 0.961 . S
C2020 H2034 0.961 . S
C2021 C2018 1.539 . S
C2021 H2035 0.958 . S
C2021 H2036 0.961 . S
C2021 H2037 0.960 . S
H2022 C2006 0.931 1_554 S
H2023 C2011 0.929 . S
H2024 C2012 0.960 . S
H2025 C2012 0.962 . S
H2026 C2012 0.960 1_554 S
H2027 C2013 0.961 . S
H2028 C2013 0.961 . S
H2029 C2013 0.961 . S
H2030 C2014 0.931 . S
H2031 C2019 0.930 . S
H2032 C2020 0.956 . S
H2033 C2020 0.961 . S
H2034 C2020 0.961 . S
H2035 C2021 0.958 . S
H2036 C2021 0.961 . S
H2037 C2021 0.960 . S
C2038 C2039 1.391 . S
C2038 C2040 1.394 . S
C2038 H2054 0.931 . S
C2039 C2038 1.391 . S
C2039 C2043 1.376 . S
C2040 C2038 1.394 . S
C2040 C2041 1.369 . S
C2040 C2044 1.531 . S
C2041 C2040 1.369 . S
C2041 C2042 1.410 . S
C2041 C2049 1.503 . S
C2042 C2041 1.410 . S
C2042 C2043 1.392 . S
C2042 C2045 1.511 . S
C2043 C2039 1.376 . S
C2043 C2042 1.392 . S
C2043 H2055 0.929 1_556 S
C2044 C2040 1.531 . S
C2044 H2056 0.960 . S
C2044 H2057 0.962 . S
C2044 H2058 0.960 . S
C2045 C2042 1.511 . S
C2045 H2059 0.961 1_556 S
C2045 H2060 0.961 . S
C2045 H2061 0.964 . S
C2046 C2047 1.370 . S
C2046 C2048 1.363 . S
C2046 H2062 0.931 . S
C2047 C2046 1.370 . S
C2047 C2051 1.408 . S
C2048 C2046 1.363 . S
C2048 C2049 1.370 . S
C2048 C2052 1.524 . S
C2049 C2041 1.503 . S
C2049 C2048 1.370 . S
C2049 C2050 1.403 . S
C2050 C2049 1.403 . S
C2050 C2051 1.404 . S
C2050 C2053 1.539 . S
C2051 C2047 1.408 . S
C2051 C2050 1.404 . S
C2051 H2063 0.930 . S
C2052 C2048 1.524 . S
C2052 H2064 0.956 . S
C2052 H2065 0.961 . S
C2052 H2066 0.961 . S
C2053 C2050 1.539 . S
C2053 H2067 0.958 . S
C2053 H2068 0.961 . S
C2053 H2069 0.960 . S
H2054 C2038 0.931 . S
H2055 C2043 0.929 1_554 S
H2056 C2044 0.960 . S
H2057 C2044 0.962 . S
H2058 C2044 0.960 . S
H2059 C2045 0.961 1_554 S
H2060 C2045 0.961 . S
H2061 C2045 0.964 . S
H2062 C2046 0.931 . S
H2063 C2051 0.930 . S
H2064 C2052 0.956 . S
H2065 C2052 0.961 . S
H2066 C2052 0.961 . S
H2067 C2053 0.958 . S
H2068 C2053 0.961 . S
H2069 C2053 0.960 . S
C2070 C2071 1.391 . S
C2070 C2072 1.394 . S
C2070 H2086 0.931 . S
C2071 C2070 1.391 . S
C2071 C2075 1.376 . S
C2072 C2070 1.394 . S
C2072 C2073 1.369 . S
C2072 C2076 1.531 . S
C2073 C2072 1.369 . S
C2073 C2074 1.410 . S
C2073 C2081 1.503 . S
C2074 C2073 1.410 . S
C2074 C2075 1.392 . S
C2074 C2077 1.511 . S
C2075 C2071 1.376 . S
C2075 C2074 1.392 . S
C2075 H2087 0.929 . S
C2076 C2072 1.531 . S
C2076 H2088 0.960 . S
C2076 H2089 0.962 . S
C2076 H2090 0.960 . S
C2077 C2074 1.511 . S
C2077 H2091 0.961 . S
C2077 H2092 0.961 . S
C2077 H2093 0.961 . S
C2078 C2079 1.370 . S
C2078 C2080 1.363 . S
C2078 H2094 0.931 . S
C2079 C2078 1.370 . S
C2079 C2083 1.408 . S
C2080 C2078 1.363 . S
C2080 C2081 1.370 . S
C2080 C2084 1.524 . S
C2081 C2073 1.503 . S
C2081 C2080 1.370 . S
C2081 C2082 1.403 . S
C2082 C2081 1.403 . S
C2082 C2083 1.404 . S
C2082 C2085 1.539 . S
C2083 C2079 1.408 . S
C2083 C2082 1.404 . S
C2083 H2095 0.930 . S
C2084 C2080 1.524 . S
C2084 H2096 0.956 . S
C2084 H2097 0.961 . S
C2084 H2098 0.961 . S
C2085 C2082 1.539 . S
C2085 H2099 0.958 . S
C2085 H2100 0.961 . S
C2085 H2101 0.960 . S
H2086 C2070 0.931 . S
H2087 C2075 0.929 . S
H2088 C2076 0.960 . S
H2089 C2076 0.962 . S
H2090 C2076 0.960 . S
H2091 C2077 0.961 . S
H2092 C2077 0.961 . S
H2093 C2077 0.961 . S
H2094 C2078 0.931 . S
H2095 C2083 0.930 . S
H2096 C2084 0.956 . S
H2097 C2084 0.961 . S
H2098 C2084 0.961 . S
H2099 C2085 0.958 . S
H2100 C2085 0.961 . S
H2101 C2085 0.960 . S
C2102 C2103 1.391 . S
C2102 C2104 1.394 . S
C2102 H2118 0.931 . S
C2103 C2102 1.391 . S
C2103 C2107 1.376 . S
C2104 C2102 1.394 . S
C2104 C2105 1.369 . S
C2104 C2108 1.531 . S
C2105 C2104 1.369 . S
C2105 C2106 1.410 . S
C2105 C2113 1.503 . S
C2106 C2105 1.410 . S
C2106 C2107 1.392 . S
C2106 C2109 1.511 . S
C2107 C2103 1.376 . S
C2107 C2106 1.392 . S
C2107 H2119 0.929 . S
C2108 C2104 1.531 . S
C2108 H2120 0.960 . S
C2108 H2121 0.962 . S
C2108 H2122 0.960 . S
C2109 C2106 1.511 . S
C2109 H2123 0.961 . S
C2109 H2124 0.961 . S
C2109 H2125 0.961 . S
C2110 C2111 1.370 . S
C2110 C2112 1.363 . S
C2110 H2126 0.931 . S
C2111 C2110 1.370 . S
C2111 C2115 1.408 . S
C2112 C2110 1.363 . S
C2112 C2113 1.370 . S
C2112 C2116 1.524 . S
C2113 C2105 1.503 . S
C2113 C2112 1.370 . S
C2113 C2114 1.403 . S
C2114 C2113 1.403 . S
C2114 C2115 1.404 . S
C2114 C2117 1.539 . S
C2115 C2111 1.408 . S
C2115 C2114 1.404 . S
C2115 H2127 0.930 . S
C2116 C2112 1.524 . S
C2116 H2128 0.956 . S
C2116 H2129 0.961 . S
C2116 H2130 0.961 . S
C2117 C2114 1.539 . S
C2117 H2131 0.958 . S
C2117 H2132 0.961 . S
C2117 H2133 0.960 . S
H2118 C2102 0.931 . S
H2119 C2107 0.929 . S
H2120 C2108 0.960 . S
H2121 C2108 0.962 . S
H2122 C2108 0.960 . S
H2123 C2109 0.961 . S
H2124 C2109 0.961 . S
H2125 C2109 0.961 . S
H2126 C2110 0.931 . S
H2127 C2115 0.930 . S
H2128 C2116 0.956 . S
H2129 C2116 0.961 . S
H2130 C2116 0.961 . S
H2131 C2117 0.958 . S
H2132 C2117 0.961 . S
H2133 C2117 0.960 . S
C2134 C2135 1.391 . S
C2134 C2136 1.394 . S
C2134 H2150 0.931 . S
C2135 C2134 1.391 . S
C2135 C2139 1.376 . S
C2136 C2134 1.394 . S
C2136 C2137 1.369 . S
C2136 C2140 1.531 . S
C2137 C2136 1.369 . S
C2137 C2138 1.410 . S
C2137 C2145 1.503 . S
C2138 C2137 1.410 . S
C2138 C2139 1.392 . S
C2138 C2141 1.511 . S
C2139 C2135 1.376 . S
C2139 C2138 1.392 . S
C2139 H2151 0.929 . S
C2140 C2136 1.531 . S
C2140 H2152 0.960 . S
C2140 H2153 0.962 . S
C2140 H2154 0.960 . S
C2141 C2138 1.511 . S
C2141 H2155 0.961 . S
C2141 H2156 0.961 . S
C2141 H2157 0.961 . S
C2142 C2143 1.370 . S
C2142 C2144 1.363 . S
C2142 H2158 0.931 . S
C2143 C2142 1.370 . S
C2143 C2147 1.408 . S
C2144 C2142 1.363 . S
C2144 C2145 1.370 . S
C2144 C2148 1.524 . S
C2145 C2137 1.503 . S
C2145 C2144 1.370 . S
C2145 C2146 1.403 . S
C2146 C2145 1.403 . S
C2146 C2147 1.404 . S
C2146 C2149 1.539 . S
C2147 C2143 1.408 . S
C2147 C2146 1.404 . S
C2147 H2159 0.930 . S
C2148 C2144 1.524 . S
C2148 H2160 0.956 . S
C2148 H2161 0.961 . S
C2148 H2162 0.961 . S
C2149 C2146 1.539 . S
C2149 H2163 0.958 . S
C2149 H2164 0.961 . S
C2149 H2165 0.960 . S
H2150 C2134 0.931 . S
H2151 C2139 0.929 . S
H2152 C2140 0.960 . S
H2153 C2140 0.962 . S
H2154 C2140 0.960 . S
H2155 C2141 0.961 . S
H2156 C2141 0.961 . S
H2157 C2141 0.961 . S
H2158 C2142 0.931 . S
H2159 C2147 0.930 . S
H2160 C2148 0.956 . S
H2161 C2148 0.961 . S
H2162 C2148 0.961 . S
H2163 C2149 0.958 . S
H2164 C2149 0.961 . S
H2165 C2149 0.960 . S
C2166 C2167 1.391 . S
C2166 C2168 1.394 . S
C2166 H2182 0.931 . S
C2167 C2166 1.391 . S
C2167 C2171 1.376 . S
C2168 C2166 1.394 . S
C2168 C2169 1.369 . S
C2168 C2172 1.531 . S
C2169 C2168 1.369 . S
C2169 C2170 1.410 . S
C2169 C2177 1.503 . S
C2170 C2169 1.410 . S
C2170 C2171 1.392 . S
C2170 C2173 1.511 . S
C2171 C2167 1.376 . S
C2171 C2170 1.392 . S
C2171 H2183 0.929 . S
C2172 C2168 1.531 . S
C2172 H2184 0.960 . S
C2172 H2185 0.962 . S
C2172 H2186 0.960 . S
C2173 C2170 1.511 . S
C2173 H2187 0.961 . S
C2173 H2188 0.961 . S
C2173 H2189 0.961 . S
C2174 C2175 1.370 . S
C2174 C2176 1.363 . S
C2174 H2190 0.931 . S
C2175 C2174 1.370 . S
C2175 C2179 1.408 . S
C2176 C2174 1.363 . S
C2176 C2177 1.370 . S
C2176 C2180 1.524 . S
C2177 C2169 1.503 . S
C2177 C2176 1.370 . S
C2177 C2178 1.403 . S
C2178 C2177 1.403 . S
C2178 C2179 1.404 . S
C2178 C2181 1.539 . S
C2179 C2175 1.408 . S
C2179 C2178 1.404 . S
C2179 H2191 0.930 . S
C2180 C2176 1.524 . S
C2180 H2192 0.956 . S
C2180 H2193 0.961 . S
C2180 H2194 0.961 . S
C2181 C2178 1.539 . S
C2181 H2195 0.958 . S
C2181 H2196 0.961 . S
C2181 H2197 0.960 . S
H2182 C2166 0.931 . S
H2183 C2171 0.929 . S
H2184 C2172 0.960 . S
H2185 C2172 0.962 . S
H2186 C2172 0.960 . S
H2187 C2173 0.961 . S
H2188 C2173 0.961 . S
H2189 C2173 0.961 . S
H2190 C2174 0.931 . S
H2191 C2179 0.930 . S
H2192 C2180 0.956 . S
H2193 C2180 0.961 . S
H2194 C2180 0.961 . S
H2195 C2181 0.958 . S
H2196 C2181 0.961 . S
H2197 C2181 0.960 . S
C2198 C2199 1.391 . S
C2198 C2200 1.394 . S
C2198 H2214 0.931 . S
C2199 C2198 1.391 . S
C2199 C2203 1.376 . S
C2200 C2198 1.394 . S
C2200 C2201 1.369 . S
C2200 C2204 1.531 . S
C2201 C2200 1.369 . S
C2201 C2202 1.410 . S
C2201 C2209 1.503 . S
C2202 C2201 1.410 . S
C2202 C2203 1.392 . S
C2202 C2205 1.511 . S
C2203 C2199 1.376 . S
C2203 C2202 1.392 . S
C2203 H2215 0.929 . S
C2204 C2200 1.531 . S
C2204 H2216 0.960 . S
C2204 H2217 0.962 . S
C2204 H2218 0.960 . S
C2205 C2202 1.511 . S
C2205 H2219 0.961 . S
C2205 H2220 0.961 . S
C2205 H2221 0.961 . S
C2206 C2207 1.370 . S
C2206 C2208 1.363 . S
C2206 H2222 0.931 . S
C2207 C2206 1.370 . S
C2207 C2211 1.408 . S
C2208 C2206 1.363 . S
C2208 C2209 1.370 . S
C2208 C2212 1.524 . S
C2209 C2201 1.503 . S
C2209 C2208 1.370 . S
C2209 C2210 1.403 . S
C2210 C2209 1.403 . S
C2210 C2211 1.404 . S
C2210 C2213 1.539 . S
C2211 C2207 1.408 . S
C2211 C2210 1.404 . S
C2211 H2223 0.930 . S
C2212 C2208 1.524 . S
C2212 H2224 0.956 . S
C2212 H2225 0.961 . S
C2212 H2226 0.961 . S
C2213 C2210 1.539 . S
C2213 H2227 0.958 . S
C2213 H2228 0.961 . S
C2213 H2229 0.960 . S
H2214 C2198 0.931 . S
H2215 C2203 0.929 . S
H2216 C2204 0.960 . S
H2217 C2204 0.962 . S
H2218 C2204 0.960 . S
H2219 C2205 0.961 . S
H2220 C2205 0.961 . S
H2221 C2205 0.961 . S
H2222 C2206 0.931 . S
H2223 C2211 0.930 . S
H2224 C2212 0.956 . S
H2225 C2212 0.961 . S
H2226 C2212 0.961 . S
H2227 C2213 0.958 . S
H2228 C2213 0.961 . S
H2229 C2213 0.960 . S
C2230 C2231 1.391 . S
C2230 C2232 1.394 . S
C2230 H2246 0.931 . S
C2231 C2230 1.391 . S
C2231 C2235 1.376 . S
C2232 C2230 1.394 . S
C2232 C2233 1.369 . S
C2232 C2236 1.531 . S
C2233 C2232 1.369 . S
C2233 C2234 1.410 . S
C2233 C2241 1.503 . S
C2234 C2233 1.410 . S
C2234 C2235 1.392 . S
C2234 C2237 1.511 . S
C2235 C2231 1.376 . S
C2235 C2234 1.392 . S
C2235 H2247 0.929 . S
C2236 C2232 1.531 . S
C2236 H2248 0.960 . S
C2236 H2249 0.962 . S
C2236 H2250 0.960 . S
C2237 C2234 1.511 . S
C2237 H2251 0.961 . S
C2237 H2252 0.961 . S
C2237 H2253 0.961 . S
C2238 C2239 1.370 . S
C2238 C2240 1.363 . S
C2238 H2254 0.931 . S
C2239 C2238 1.370 . S
C2239 C2243 1.408 . S
C2240 C2238 1.363 . S
C2240 C2241 1.370 . S
C2240 C2244 1.524 . S
C2241 C2233 1.503 . S
C2241 C2240 1.370 . S
C2241 C2242 1.403 . S
C2242 C2241 1.403 . S
C2242 C2243 1.404 . S
C2242 C2245 1.539 . S
C2243 C2239 1.408 . S
C2243 C2242 1.404 . S
C2243 H2255 0.930 . S
C2244 C2240 1.524 . S
C2244 H2256 0.956 . S
C2244 H2257 0.961 . S
C2244 H2258 0.961 . S
C2245 C2242 1.539 . S
C2245 H2259 0.958 . S
C2245 H2260 0.961 . S
C2245 H2261 0.960 . S
H2246 C2230 0.931 . S
H2247 C2235 0.929 . S
H2248 C2236 0.960 . S
H2249 C2236 0.962 . S
H2250 C2236 0.960 . S
H2251 C2237 0.961 . S
H2252 C2237 0.961 . S
H2253 C2237 0.961 . S
H2254 C2238 0.931 . S
H2255 C2243 0.930 . S
H2256 C2244 0.956 . S
H2257 C2244 0.961 . S
H2258 C2244 0.961 . S
H2259 C2245 0.958 . S
H2260 C2245 0.961 . S
H2261 C2245 0.960 . S
C2262 C2263 1.391 . S
C2262 C2264 1.394 . S
C2262 H2278 0.931 . S
C2263 C2262 1.391 . S
C2263 C2267 1.376 1_455 S
C2264 C2262 1.394 . S
C2264 C2265 1.369 . S
C2264 C2268 1.531 . S
C2265 C2264 1.369 . S
C2265 C2266 1.410 1_455 S
C2265 C2273 1.503 . S
C2266 C2265 1.410 1_655 S
C2266 C2267 1.392 . S
C2266 C2269 1.511 . S
C2267 C2263 1.376 1_655 S
C2267 C2266 1.392 . S
C2267 H2279 0.929 . S
C2268 C2264 1.531 . S
C2268 H2280 0.960 . S
C2268 H2281 0.962 . S
C2268 H2282 0.960 . S
C2269 C2266 1.511 . S
C2269 H2283 0.961 . S
C2269 H2284 0.961 . S
C2269 H2285 0.961 . S
C2270 C2271 1.370 . S
C2270 C2272 1.363 . S
C2270 H2286 0.931 . S
C2271 C2270 1.370 . S
C2271 C2275 1.408 1_455 S
C2272 C2270 1.363 . S
C2272 C2273 1.370 . S
C2272 C2276 1.524 . S
C2273 C2265 1.503 . S
C2273 C2272 1.370 . S
C2273 C2274 1.403 1_455 S
C2274 C2273 1.403 1_655 S
C2274 C2275 1.404 . S
C2274 C2277 1.539 . S
C2275 C2271 1.408 1_655 S
C2275 C2274 1.404 . S
C2275 H2287 0.930 . S
C2276 C2272 1.524 . S
C2276 H2288 0.956 . S
C2276 H2289 0.961 . S
C2276 H2290 0.961 . S
C2277 C2274 1.539 . S
C2277 H2291 0.958 . S
C2277 H2292 0.961 . S
C2277 H2293 0.960 . S
H2278 C2262 0.931 . S
H2279 C2267 0.929 . S
H2280 C2268 0.960 . S
H2281 C2268 0.962 . S
H2282 C2268 0.960 . S
H2283 C2269 0.961 . S
H2284 C2269 0.961 . S
H2285 C2269 0.961 . S
H2286 C2270 0.931 . S
H2287 C2275 0.930 . S
H2288 C2276 0.956 . S
H2289 C2276 0.961 . S
H2290 C2276 0.961 . S
H2291 C2277 0.958 . S
H2292 C2277 0.961 . S
H2293 C2277 0.960 . S
C2294 C2295 1.391 . S
C2294 C2296 1.394 . S
C2294 H2310 0.931 . S
C2295 C2294 1.391 . S
C2295 C2299 1.376 . S
C2296 C2294 1.394 . S
C2296 C2297 1.369 . S
C2296 C2300 1.531 . S
C2297 C2296 1.369 . S
C2297 C2298 1.410 . S
C2297 C2305 1.503 . S
C2298 C2297 1.410 . S
C2298 C2299 1.392 . S
C2298 C2301 1.511 . S
C2299 C2295 1.376 . S
C2299 C2298 1.392 . S
C2299 H2311 0.929 . S
C2300 C2296 1.531 . S
C2300 H2312 0.960 . S
C2300 H2313 0.962 . S
C2300 H2314 0.960 . S
C2301 C2298 1.511 . S
C2301 H2315 0.961 . S
C2301 H2316 0.961 . S
C2301 H2317 0.961 . S
C2302 C2303 1.370 . S
C2302 C2304 1.363 . S
C2302 H2318 0.931 . S
C2303 C2302 1.370 . S
C2303 C2307 1.408 . S
C2304 C2302 1.363 . S
C2304 C2305 1.370 . S
C2304 C2308 1.524 . S
C2305 C2297 1.503 . S
C2305 C2304 1.370 . S
C2305 C2306 1.403 . S
C2306 C2305 1.403 . S
C2306 C2307 1.404 . S
C2306 C2309 1.539 . S
C2307 C2303 1.408 . S
C2307 C2306 1.404 . S
C2307 H2319 0.930 . S
C2308 C2304 1.524 . S
C2308 H2320 0.956 . S
C2308 H2321 0.961 . S
C2308 H2322 0.961 . S
C2309 C2306 1.539 . S
C2309 H2323 0.958 . S
C2309 H2324 0.961 . S
C2309 H2325 0.960 . S
H2310 C2294 0.931 . S
H2311 C2299 0.929 . S
H2312 C2300 0.960 . S
H2313 C2300 0.962 . S
H2314 C2300 0.960 . S
H2315 C2301 0.961 . S
H2316 C2301 0.961 . S
H2317 C2301 0.961 . S
H2318 C2302 0.931 . S
H2319 C2307 0.930 . S
H2320 C2308 0.956 . S
H2321 C2308 0.961 . S
H2322 C2308 0.961 . S
H2323 C2309 0.958 . S
H2324 C2309 0.961 . S
H2325 C2309 0.960 . S
C2326 C2327 1.391 . S
C2326 C2328 1.394 . S
C2326 H2342 0.931 . S
C2327 C2326 1.391 . S
C2327 C2331 1.376 . S
C2328 C2326 1.394 . S
C2328 C2329 1.369 . S
C2328 C2332 1.531 . S
C2329 C2328 1.369 . S
C2329 C2330 1.410 . S
C2329 C2337 1.503 . S
C2330 C2329 1.410 . S
C2330 C2331 1.392 . S
C2330 C2333 1.511 . S
C2331 C2327 1.376 . S
C2331 C2330 1.392 . S
C2331 H2343 0.929 . S
C2332 C2328 1.531 . S
C2332 H2344 0.960 . S
C2332 H2345 0.962 1_565 S
C2332 H2346 0.960 . S
C2333 C2330 1.511 . S
C2333 H2347 0.961 . S
C2333 H2348 0.961 . S
C2333 H2349 0.961 . S
C2334 C2335 1.370 1_545 S
C2334 C2336 1.363 . S
C2334 H2350 0.931 . S
C2335 C2334 1.370 1_565 S
C2335 C2339 1.408 . S
C2336 C2334 1.363 . S
C2336 C2337 1.370 1_545 S
C2336 C2340 1.524 . S
C2337 C2329 1.503 . S
C2337 C2336 1.370 1_565 S
C2337 C2338 1.403 . S
C2338 C2337 1.403 . S
C2338 C2339 1.404 . S
C2338 C2341 1.539 . S
C2339 C2335 1.408 . S
C2339 C2338 1.404 . S
C2339 H2351 0.930 . S
C2340 C2336 1.524 . S
C2340 H2352 0.956 . S
C2340 H2353 0.961 . S
C2340 H2354 0.961 . S
C2341 C2338 1.539 . S
C2341 H2355 0.958 . S
C2341 H2356 0.961 . S
C2341 H2357 0.960 . S
H2342 C2326 0.931 . S
H2343 C2331 0.929 . S
H2344 C2332 0.960 . S
H2345 C2332 0.962 1_545 S
H2346 C2332 0.960 . S
H2347 C2333 0.961 . S
H2348 C2333 0.961 . S
H2349 C2333 0.961 . S
H2350 C2334 0.931 . S
H2351 C2339 0.930 . S
H2352 C2340 0.956 . S
H2353 C2340 0.961 . S
H2354 C2340 0.961 . S
H2355 C2341 0.958 . S
H2356 C2341 0.961 . S
H2357 C2341 0.960 . S
C2358 C2359 1.337 1_545 S
C2358 C2360 1.436 . S
C2358 H2374 0.947 . S
C2359 C2358 1.337 1_565 S
C2359 C2363 1.376 . S
C2360 C2358 1.436 . S
C2360 C2361 1.369 1_545 S
C2360 C2364 1.531 . S
C2361 C2360 1.369 1_565 S
C2361 C2362 1.410 . S
C2361 C2369 1.503 . S
C2362 C2361 1.410 . S
C2362 C2363 1.392 . S
C2362 C2365 1.511 . S
C2363 C2359 1.376 . S
C2363 C2362 1.392 . S
C2363 H2375 0.929 . S
C2364 C2360 1.531 . S
C2364 H2376 0.960 . S
C2364 H2377 0.962 . S
C2364 H2378 0.960 . S
C2365 C2362 1.511 . S
C2365 H2379 0.961 . S
C2365 H2380 0.961 . S
C2365 H2381 0.961 . S
C2366 C2367 1.415 . S
C2366 C2368 1.363 . S
C2366 H2382 0.931 . S
C2367 C2366 1.415 . S
C2367 C2371 1.388 1_565 S
C2368 C2366 1.363 . S
C2368 C2369 1.370 . S
C2368 C2372 1.524 . S
C2369 C2361 1.503 . S
C2369 C2368 1.370 . S
C2369 C2370 1.403 1_565 S
C2370 C2369 1.403 1_545 S
C2370 C2371 1.404 . S
C2370 C2373 1.539 . S
C2371 C2367 1.388 1_545 S
C2371 C2370 1.404 . S
C2371 H2383 0.930 . S
C2372 C2368 1.524 . S
C2372 H2384 0.956 . S
C2372 H2385 0.961 . S
C2372 H2386 0.961 . S
C2373 C2370 1.539 . S
C2373 H2387 0.958 . S
C2373 H2388 0.961 . S
C2373 H2389 0.960 . S
H2374 C2358 0.947 . S
H2375 C2363 0.929 . S
H2376 C2364 0.960 . S
H2377 C2364 0.962 . S
H2378 C2364 0.960 . S
H2379 C2365 0.961 . S
H2380 C2365 0.961 . S
H2381 C2365 0.961 . S
H2382 C2366 0.931 . S
H2383 C2371 0.930 . S
H2384 C2372 0.956 . S
H2385 C2372 0.961 . S
H2386 C2372 0.961 . S
H2387 C2373 0.958 . S
H2388 C2373 0.961 . S
H2389 C2373 0.960 . S
C2390 C2391 1.391 1_655 S
C2390 C2392 1.394 . S
C2390 H2406 0.931 . S
C2391 C2390 1.391 1_455 S
C2391 C2395 1.376 . S
C2392 C2390 1.394 . S
C2392 C2393 1.369 1_655 S
C2392 C2396 1.531 . S
C2393 C2392 1.369 1_455 S
C2393 C2394 1.410 . S
C2393 C2401 1.503 . S
C2394 C2393 1.410 . S
C2394 C2395 1.392 . S
C2394 C2397 1.511 . S
C2395 C2391 1.376 . S
C2395 C2394 1.392 . S
C2395 H2407 0.929 . S
C2396 C2392 1.531 . S
C2396 H2408 0.960 . S
C2396 H2409 0.962 . S
C2396 H2410 0.960 . S
C2397 C2394 1.511 . S
C2397 H2411 0.961 . S
C2397 H2412 0.961 . S
C2397 H2413 0.961 . S
C2398 C2399 1.370 1_655 S
C2398 C2400 1.367 1_655 S
C2398 H2414 0.931 . S
C2399 C2398 1.370 1_455 S
C2399 C2403 1.408 . S
C2400 C2398 1.367 1_455 S
C2400 C2401 1.369 . S
C2400 C2404 1.522 1_455 S
C2401 C2393 1.503 . S
C2401 C2400 1.369 . S
C2401 C2402 1.403 . S
C2402 C2401 1.403 . S
C2402 C2403 1.404 . S
C2402 C2405 1.539 . S
C2403 C2399 1.408 . S
C2403 C2402 1.404 . S
C2403 H2415 0.930 . S
C2404 C2400 1.522 1_655 S
C2404 H2416 0.956 . S
C2404 H2417 0.961 1_655 S
C2404 H2418 0.961 . S
C2405 C2402 1.539 . S
C2405 H2419 0.958 . S
C2405 H2420 0.961 . S
C2405 H2421 0.960 . S
H2406 C2390 0.931 . S
H2407 C2395 0.929 . S
H2408 C2396 0.960 . S
H2409 C2396 0.962 . S
H2410 C2396 0.960 . S
H2411 C2397 0.961 . S
H2412 C2397 0.961 . S
H2413 C2397 0.961 . S
H2414 C2398 0.931 . S
H2415 C2403 0.930 . S
H2416 C2404 0.956 . S
H2417 C2404 0.961 1_455 S
H2418 C2404 0.961 . S
H2419 C2405 0.958 . S
H2420 C2405 0.961 . S
H2421 C2405 0.960 . S
C2422 C2423 1.391 . S
C2422 C2424 1.394 . S
C2422 H2438 0.931 . S
C2423 C2422 1.391 . S
C2423 C2427 1.376 . S
C2424 C2422 1.394 . S
C2424 C2425 1.369 . S
C2424 C2428 1.531 . S
C2425 C2424 1.369 . S
C2425 C2426 1.410 . S
C2425 C2433 1.503 . S
C2426 C2425 1.410 . S
C2426 C2427 1.392 . S
C2426 C2429 1.511 . S
C2427 C2423 1.376 . S
C2427 C2426 1.392 . S
C2427 H2439 0.929 . S
C2428 C2424 1.531 . S
C2428 H2440 0.960 . S
C2428 H2441 0.962 . S
C2428 H2442 0.960 . S
C2429 C2426 1.511 . S
C2429 H2443 0.961 . S
C2429 H2444 0.961 . S
C2429 H2445 0.961 . S
C2430 C2431 1.370 . S
C2430 C2432 1.363 . S
C2430 H2446 0.931 . S
C2431 C2430 1.370 . S
C2431 C2435 1.408 . S
C2432 C2430 1.363 . S
C2432 C2433 1.370 . S
C2432 C2436 1.524 . S
C2433 C2425 1.503 . S
C2433 C2432 1.370 . S
C2433 C2434 1.403 . S
C2434 C2433 1.403 . S
C2434 C2435 1.404 . S
C2434 C2437 1.539 . S
C2435 C2431 1.408 . S
C2435 C2434 1.404 . S
C2435 H2447 0.930 . S
C2436 C2432 1.524 . S
C2436 H2448 0.956 . S
C2436 H2449 0.961 . S
C2436 H2450 0.961 . S
C2437 C2434 1.539 . S
C2437 H2451 0.958 . S
C2437 H2452 0.961 . S
C2437 H2453 0.960 . S
H2438 C2422 0.931 . S
H2439 C2427 0.929 . S
H2440 C2428 0.960 . S
H2441 C2428 0.962 . S
H2442 C2428 0.960 . S
H2443 C2429 0.961 . S
H2444 C2429 0.961 . S
H2445 C2429 0.961 . S
H2446 C2430 0.931 . S
H2447 C2435 0.930 . S
H2448 C2436 0.956 . S
H2449 C2436 0.961 . S
H2450 C2436 0.961 . S
H2451 C2437 0.958 . S
H2452 C2437 0.961 . S
H2453 C2437 0.960 . S
C2454 C2455 1.391 . S
C2454 C2456 1.394 . S
C2454 H2470 0.931 . S
C2455 C2454 1.391 . S
C2455 C2459 1.376 . S
C2456 C2454 1.394 . S
C2456 C2457 1.369 . S
C2456 C2460 1.531 . S
C2457 C2456 1.369 . S
C2457 C2458 1.410 . S
C2457 C2465 1.503 . S
C2458 C2457 1.410 . S
C2458 C2459 1.392 . S
C2458 C2461 1.511 . S
C2459 C2455 1.376 . S
C2459 C2458 1.392 . S
C2459 H2471 0.929 . S
C2460 C2456 1.531 . S
C2460 H2472 0.960 . S
C2460 H2473 0.962 . S
C2460 H2474 0.960 . S
C2461 C2458 1.511 . S
C2461 H2475 0.961 . S
C2461 H2476 0.961 . S
C2461 H2477 0.961 . S
C2462 C2463 1.370 . S
C2462 C2464 1.363 . S
C2462 H2478 0.931 . S
C2463 C2462 1.370 . S
C2463 C2467 1.408 . S
C2464 C2462 1.363 . S
C2464 C2465 1.370 . S
C2464 C2468 1.524 . S
C2465 C2457 1.503 . S
C2465 C2464 1.370 . S
C2465 C2466 1.403 . S
C2466 C2465 1.403 . S
C2466 C2467 1.404 . S
C2466 C2469 1.539 . S
C2467 C2463 1.408 . S
C2467 C2466 1.404 . S
C2467 H2479 0.930 . S
C2468 C2464 1.524 . S
C2468 H2480 0.956 . S
C2468 H2481 0.961 . S
C2468 H2482 0.961 . S
C2469 C2466 1.539 . S
C2469 H2483 0.958 . S
C2469 H2484 0.961 . S
C2469 H2485 0.960 . S
H2470 C2454 0.931 . S
H2471 C2459 0.929 . S
H2472 C2460 0.960 . S
H2473 C2460 0.962 . S
H2474 C2460 0.960 . S
H2475 C2461 0.961 . S
H2476 C2461 0.961 . S
H2477 C2461 0.961 . S
H2478 C2462 0.931 . S
H2479 C2467 0.930 . S
H2480 C2468 0.956 . S
H2481 C2468 0.961 . S
H2482 C2468 0.961 . S
H2483 C2469 0.958 . S
H2484 C2469 0.961 . S
H2485 C2469 0.960 . S
C2486 C2487 1.391 . S
C2486 C2488 1.394 . S
C2486 H2502 0.931 . S
C2487 C2486 1.391 . S
C2487 C2491 1.376 . S
C2488 C2486 1.394 . S
C2488 C2489 1.369 . S
C2488 C2492 1.531 . S
C2489 C2488 1.369 . S
C2489 C2490 1.410 . S
C2489 C2497 1.503 . S
C2490 C2489 1.410 . S
C2490 C2491 1.392 . S
C2490 C2493 1.511 . S
C2491 C2487 1.376 . S
C2491 C2490 1.392 . S
C2491 H2503 0.929 . S
C2492 C2488 1.531 . S
C2492 H2504 0.960 . S
C2492 H2505 0.962 . S
C2492 H2506 0.960 . S
C2493 C2490 1.511 . S
C2493 H2507 0.961 . S
C2493 H2508 0.961 . S
C2493 H2509 0.961 . S
C2494 C2495 1.370 . S
C2494 C2496 1.363 . S
C2494 H2510 0.931 . S
C2495 C2494 1.370 . S
C2495 C2499 1.408 . S
C2496 C2494 1.363 . S
C2496 C2497 1.370 . S
C2496 C2500 1.524 . S
C2497 C2489 1.503 . S
C2497 C2496 1.370 . S
C2497 C2498 1.403 . S
C2498 C2497 1.403 . S
C2498 C2499 1.404 . S
C2498 C2501 1.539 . S
C2499 C2495 1.408 . S
C2499 C2498 1.404 . S
C2499 H2511 0.930 . S
C2500 C2496 1.524 . S
C2500 H2512 0.956 . S
C2500 H2513 0.961 . S
C2500 H2514 0.961 . S
C2501 C2498 1.539 . S
C2501 H2515 0.958 . S
C2501 H2516 0.961 . S
C2501 H2517 0.960 . S
H2502 C2486 0.931 . S
H2503 C2491 0.929 . S
H2504 C2492 0.960 . S
H2505 C2492 0.962 . S
H2506 C2492 0.960 . S
H2507 C2493 0.961 . S
H2508 C2493 0.961 . S
H2509 C2493 0.961 . S
H2510 C2494 0.931 . S
H2511 C2499 0.930 . S
H2512 C2500 0.956 . S
H2513 C2500 0.961 . S
H2514 C2500 0.961 . S
H2515 C2501 0.958 . S
H2516 C2501 0.961 . S
H2517 C2501 0.960 . S
C2518 C2519 1.391 . S
C2518 C2520 1.394 . S
C2518 H2534 0.931 . S
C2519 C2518 1.391 . S
C2519 C2523 1.376 . S
C2520 C2518 1.394 . S
C2520 C2521 1.369 . S
C2520 C2524 1.531 . S
C2521 C2520 1.369 . S
C2521 C2522 1.410 . S
C2521 C2529 1.503 . S
C2522 C2521 1.410 . S
C2522 C2523 1.392 . S
C2522 C2525 1.511 . S
C2523 C2519 1.376 . S
C2523 C2522 1.392 . S
C2523 H2535 0.929 . S
C2524 C2520 1.531 . S
C2524 H2536 0.960 . S
C2524 H2537 0.962 . S
C2524 H2538 0.960 . S
C2525 C2522 1.511 . S
C2525 H2539 0.961 . S
C2525 H2540 0.961 . S
C2525 H2541 0.961 . S
C2526 C2527 1.370 . S
C2526 C2528 1.363 . S
C2526 H2542 0.931 . S
C2527 C2526 1.370 . S
C2527 C2531 1.408 . S
C2528 C2526 1.363 . S
C2528 C2529 1.370 . S
C2528 C2532 1.524 . S
C2529 C2521 1.503 . S
C2529 C2528 1.370 . S
C2529 C2530 1.403 . S
C2530 C2529 1.403 . S
C2530 C2531 1.404 . S
C2530 C2533 1.539 . S
C2531 C2527 1.408 . S
C2531 C2530 1.404 . S
C2531 H2543 0.930 . S
C2532 C2528 1.524 . S
C2532 H2544 0.956 . S
C2532 H2545 0.961 . S
C2532 H2546 0.961 . S
C2533 C2530 1.539 . S
C2533 H2547 0.958 . S
C2533 H2548 0.961 . S
C2533 H2549 0.960 . S
H2534 C2518 0.931 . S
H2535 C2523 0.929 . S
H2536 C2524 0.960 . S
H2537 C2524 0.962 . S
H2538 C2524 0.960 . S
H2539 C2525 0.961 . S
H2540 C2525 0.961 . S
H2541 C2525 0.961 . S
H2542 C2526 0.931 . S
H2543 C2531 0.930 . S
H2544 C2532 0.956 . S
H2545 C2532 0.961 . S
H2546 C2532 0.961 . S
H2547 C2533 0.958 . S
H2548 C2533 0.961 . S
H2549 C2533 0.960 . S
C2550 C2551 1.417 . S
C2550 C2552 1.356 1_545 S
C2550 H2566 0.947 1_545 S
C2551 C2550 1.417 . S
C2551 C2555 1.376 . S
C2552 C2550 1.356 1_565 S
C2552 C2553 1.369 1_565 S
C2552 C2556 1.531 . S
C2553 C2552 1.369 1_545 S
C2553 C2554 1.410 . S
C2553 C2561 1.503 . S
C2554 C2553 1.410 . S
C2554 C2555 1.392 . S
C2554 C2557 1.511 . S
C2555 C2551 1.376 . S
C2555 C2554 1.392 . S
C2555 H2567 0.929 . S
C2556 C2552 1.531 . S
C2556 H2568 0.960 . S
C2556 H2569 0.962 1_565 S
C2556 H2570 0.960 . S
C2557 C2554 1.511 . S
C2557 H2571 0.961 . S
C2557 H2572 0.961 . S
C2557 H2573 0.961 . S
C2558 C2559 1.370 . S
C2558 C2560 1.363 . S
C2558 H2574 0.931 . S
C2559 C2558 1.370 . S
C2559 C2563 1.408 1_545 S
C2560 C2558 1.363 . S
C2560 C2561 1.370 . S
C2560 C2564 1.524 . S
C2561 C2553 1.503 . S
C2561 C2560 1.370 . S
C2561 C2562 1.403 1_545 S
C2562 C2561 1.403 1_565 S
C2562 C2563 1.404 . S
C2562 C2565 1.539 . S
C2563 C2559 1.408 1_565 S
C2563 C2562 1.404 . S
C2563 H2575 0.930 . S
C2564 C2560 1.524 . S
C2564 H2576 0.956 . S
C2564 H2577 0.961 . S
C2564 H2578 0.961 . S
C2565 C2562 1.539 . S
C2565 H2579 0.958 . S
C2565 H2580 0.961 . S
C2565 H2581 0.960 . S
H2566 C2550 0.947 1_565 S
H2567 C2555 0.929 . S
H2568 C2556 0.960 . S
H2569 C2556 0.962 1_545 S
H2570 C2556 0.960 . S
H2571 C2557 0.961 . S
H2572 C2557 0.961 . S
H2573 C2557 0.961 . S
H2574 C2558 0.931 . S
H2575 C2563 0.930 . S
H2576 C2564 0.956 . S
H2577 C2564 0.961 . S
H2578 C2564 0.961 . S
H2579 C2565 0.958 . S
H2580 C2565 0.961 . S
H2581 C2565 0.960 . S
C2582 C2583 1.391 1_455 S
C2582 C2584 1.394 . S
C2582 H2598 0.931 . S
C2583 C2582 1.391 1_655 S
C2583 C2587 1.376 . S
C2584 C2582 1.394 . S
C2584 C2585 1.369 1_455 S
C2584 C2588 1.531 . S
C2585 C2584 1.369 1_655 S
C2585 C2586 1.410 . S
C2585 C2593 1.503 . S
C2586 C2585 1.410 . S
C2586 C2587 1.392 . S
C2586 C2589 1.511 . S
C2587 C2583 1.376 . S
C2587 C2586 1.392 . S
C2587 H2599 0.929 . S
C2588 C2584 1.531 . S
C2588 H2600 0.960 . S
C2588 H2601 0.962 . S
C2588 H2602 0.960 . S
C2589 C2586 1.511 . S
C2589 H2603 0.961 . S
C2589 H2604 0.961 . S
C2589 H2605 0.961 . S
C2590 C2591 1.370 1_455 S
C2590 C2592 1.351 . S
C2590 H2606 0.931 . S
C2591 C2590 1.370 1_655 S
C2591 C2595 1.408 . S
C2592 C2590 1.351 . S
C2592 C2593 1.360 1_455 S
C2592 C2596 1.548 . S
C2593 C2585 1.503 . S
C2593 C2592 1.360 1_655 S
C2593 C2594 1.403 . S
C2594 C2593 1.403 . S
C2594 C2595 1.404 . S
C2594 C2597 1.539 . S
C2595 C2591 1.408 . S
C2595 C2594 1.404 . S
C2595 H2607 0.930 . S
C2596 C2592 1.548 . S
C2596 H2608 0.956 . S
C2596 H2609 0.961 1_455 S
C2596 H2610 0.961 . S
C2597 C2594 1.539 . S
C2597 H2611 0.958 . S
C2597 H2612 0.961 . S
C2597 H2613 0.960 . S
H2598 C2582 0.931 . S
H2599 C2587 0.929 . S
H2600 C2588 0.960 . S
H2601 C2588 0.962 . S
H2602 C2588 0.960 . S
H2603 C2589 0.961 . S
H2604 C2589 0.961 . S
H2605 C2589 0.961 . S
H2606 C2590 0.931 . S
H2607 C2595 0.930 . S
H2608 C2596 0.956 . S
H2609 C2596 0.961 1_655 S
H2610 C2596 0.961 . S
H2611 C2597 0.958 . S
H2612 C2597 0.961 . S
H2613 C2597 0.960 . S
C2614 C2615 1.391 . S
C2614 C2616 1.394 . S
C2614 H2630 0.931 . S
C2615 C2614 1.391 . S
C2615 C2619 1.376 . S
C2616 C2614 1.394 . S
C2616 C2617 1.369 . S
C2616 C2620 1.531 . S
C2617 C2616 1.369 . S
C2617 C2618 1.410 . S
C2617 C2625 1.503 . S
C2618 C2617 1.410 . S
C2618 C2619 1.392 . S
C2618 C2621 1.511 . S
C2619 C2615 1.376 . S
C2619 C2618 1.392 . S
C2619 H2631 0.929 . S
C2620 C2616 1.531 . S
C2620 H2632 0.960 . S
C2620 H2633 0.962 . S
C2620 H2634 0.960 . S
C2621 C2618 1.511 . S
C2621 H2635 0.961 . S
C2621 H2636 0.961 . S
C2621 H2637 0.961 . S
C2622 C2623 1.370 . S
C2622 C2624 1.363 . S
C2622 H2638 0.931 . S
C2623 C2622 1.370 . S
C2623 C2627 1.408 . S
C2624 C2622 1.363 . S
C2624 C2625 1.370 . S
C2624 C2628 1.524 . S
C2625 C2617 1.503 . S
C2625 C2624 1.370 . S
C2625 C2626 1.403 . S
C2626 C2625 1.403 . S
C2626 C2627 1.404 . S
C2626 C2629 1.539 . S
C2627 C2623 1.408 . S
C2627 C2626 1.404 . S
C2627 H2639 0.930 . S
C2628 C2624 1.524 . S
C2628 H2640 0.956 . S
C2628 H2641 0.961 . S
C2628 H2642 0.961 . S
C2629 C2626 1.539 . S
C2629 H2643 0.958 . S
C2629 H2644 0.961 . S
C2629 H2645 0.960 . S
H2630 C2614 0.931 . S
H2631 C2619 0.929 . S
H2632 C2620 0.960 . S
H2633 C2620 0.962 . S
H2634 C2620 0.960 . S
H2635 C2621 0.961 . S
H2636 C2621 0.961 . S
H2637 C2621 0.961 . S
H2638 C2622 0.931 . S
H2639 C2627 0.930 . S
H2640 C2628 0.956 . S
H2641 C2628 0.961 . S
H2642 C2628 0.961 . S
H2643 C2629 0.958 . S
H2644 C2629 0.961 . S
H2645 C2629 0.960 . S
C2646 C2647 1.391 . S
C2646 C2648 1.394 . S
C2646 H2662 0.931 . S
C2647 C2646 1.391 . S
C2647 C2651 1.376 . S
C2648 C2646 1.394 . S
C2648 C2649 1.369 . S
C2648 C2652 1.531 . S
C2649 C2648 1.369 . S
C2649 C2650 1.410 . S
C2649 C2657 1.503 . S
C2650 C2649 1.410 . S
C2650 C2651 1.392 . S
C2650 C2653 1.511 . S
C2651 C2647 1.376 . S
C2651 C2650 1.392 . S
C2651 H2663 0.929 . S
C2652 C2648 1.531 . S
C2652 H2664 0.960 . S
C2652 H2665 0.962 . S
C2652 H2666 0.960 . S
C2653 C2650 1.511 . S
C2653 H2667 0.961 . S
C2653 H2668 0.961 . S
C2653 H2669 0.961 . S
C2654 C2655 1.370 . S
C2654 C2656 1.363 . S
C2654 H2670 0.931 . S
C2655 C2654 1.370 . S
C2655 C2659 1.408 . S
C2656 C2654 1.363 . S
C2656 C2657 1.370 . S
C2656 C2660 1.524 . S
C2657 C2649 1.503 . S
C2657 C2656 1.370 . S
C2657 C2658 1.403 . S
C2658 C2657 1.403 . S
C2658 C2659 1.404 . S
C2658 C2661 1.539 . S
C2659 C2655 1.408 . S
C2659 C2658 1.404 . S
C2659 H2671 0.930 . S
C2660 C2656 1.524 . S
C2660 H2672 0.956 . S
C2660 H2673 0.961 . S
C2660 H2674 0.961 . S
C2661 C2658 1.539 . S
C2661 H2675 0.958 . S
C2661 H2676 0.961 . S
C2661 H2677 0.960 . S
H2662 C2646 0.931 . S
H2663 C2651 0.929 . S
H2664 C2652 0.960 . S
H2665 C2652 0.962 . S
H2666 C2652 0.960 . S
H2667 C2653 0.961 . S
H2668 C2653 0.961 . S
H2669 C2653 0.961 . S
H2670 C2654 0.931 . S
H2671 C2659 0.930 . S
H2672 C2660 0.956 . S
H2673 C2660 0.961 . S
H2674 C2660 0.961 . S
H2675 C2661 0.958 . S
H2676 C2661 0.961 . S
H2677 C2661 0.960 . S
C2678 C2679 1.391 . S
C2678 C2680 1.394 . S
C2678 H2694 0.931 . S
C2679 C2678 1.391 . S
C2679 C2683 1.376 . S
C2680 C2678 1.394 . S
C2680 C2681 1.369 . S
C2680 C2684 1.531 . S
C2681 C2680 1.369 . S
C2681 C2682 1.410 . S
C2681 C2689 1.503 . S
C2682 C2681 1.410 . S
C2682 C2683 1.392 . S
C2682 C2685 1.511 . S
C2683 C2679 1.376 . S
C2683 C2682 1.392 . S
C2683 H2695 0.929 . S
C2684 C2680 1.531 . S
C2684 H2696 0.960 . S
C2684 H2697 0.962 . S
C2684 H2698 0.960 . S
C2685 C2682 1.511 . S
C2685 H2699 0.961 . S
C2685 H2700 0.961 . S
C2685 H2701 0.961 . S
C2686 C2687 1.370 . S
C2686 C2688 1.363 . S
C2686 H2702 0.931 . S
C2687 C2686 1.370 . S
C2687 C2691 1.408 . S
C2688 C2686 1.363 . S
C2688 C2689 1.370 . S
C2688 C2692 1.524 . S
C2689 C2681 1.503 . S
C2689 C2688 1.370 . S
C2689 C2690 1.403 . S
C2690 C2689 1.403 . S
C2690 C2691 1.404 . S
C2690 C2693 1.539 . S
C2691 C2687 1.408 . S
C2691 C2690 1.404 . S
C2691 H2703 0.930 . S
C2692 C2688 1.524 . S
C2692 H2704 0.956 . S
C2692 H2705 0.961 . S
C2692 H2706 0.961 . S
C2693 C2690 1.539 . S
C2693 H2707 0.958 . S
C2693 H2708 0.961 . S
C2693 H2709 0.960 . S
H2694 C2678 0.931 . S
H2695 C2683 0.929 . S
H2696 C2684 0.960 . S
H2697 C2684 0.962 . S
H2698 C2684 0.960 . S
H2699 C2685 0.961 . S
H2700 C2685 0.961 . S
H2701 C2685 0.961 . S
H2702 C2686 0.931 . S
H2703 C2691 0.930 . S
H2704 C2692 0.956 . S
H2705 C2692 0.961 . S
H2706 C2692 0.961 . S
H2707 C2693 0.958 . S
H2708 C2693 0.961 . S
H2709 C2693 0.960 . S
C2710 C2711 1.391 . S
C2710 C2712 1.394 . S
C2710 H2726 0.931 . S
C2711 C2710 1.391 . S
C2711 C2715 1.376 . S
C2712 C2710 1.394 . S
C2712 C2713 1.369 . S
C2712 C2716 1.531 . S
C2713 C2712 1.369 . S
C2713 C2714 1.410 . S
C2713 C2721 1.503 . S
C2714 C2713 1.410 . S
C2714 C2715 1.392 . S
C2714 C2717 1.511 . S
C2715 C2711 1.376 . S
C2715 C2714 1.392 . S
C2715 H2727 0.929 . S
C2716 C2712 1.531 . S
C2716 H2728 0.960 . S
C2716 H2729 0.962 . S
C2716 H2730 0.960 . S
C2717 C2714 1.511 . S
C2717 H2731 0.961 . S
C2717 H2732 0.961 . S
C2717 H2733 0.961 . S
C2718 C2719 1.370 . S
C2718 C2720 1.363 . S
C2718 H2734 0.931 . S
C2719 C2718 1.370 . S
C2719 C2723 1.408 . S
C2720 C2718 1.363 . S
C2720 C2721 1.370 . S
C2720 C2724 1.524 . S
C2721 C2713 1.503 . S
C2721 C2720 1.370 . S
C2721 C2722 1.403 . S
C2722 C2721 1.403 . S
C2722 C2723 1.404 . S
C2722 C2725 1.539 . S
C2723 C2719 1.408 . S
C2723 C2722 1.404 . S
C2723 H2735 0.930 . S
C2724 C2720 1.524 . S
C2724 H2736 0.956 . S
C2724 H2737 0.961 . S
C2724 H2738 0.961 . S
C2725 C2722 1.539 . S
C2725 H2739 0.958 . S
C2725 H2740 0.961 . S
C2725 H2741 0.960 . S
H2726 C2710 0.931 . S
H2727 C2715 0.929 . S
H2728 C2716 0.960 . S
H2729 C2716 0.962 . S
H2730 C2716 0.960 . S
H2731 C2717 0.961 . S
H2732 C2717 0.961 . S
H2733 C2717 0.961 . S
H2734 C2718 0.931 . S
H2735 C2723 0.930 . S
H2736 C2724 0.956 . S
H2737 C2724 0.961 . S
H2738 C2724 0.961 . S
H2739 C2725 0.958 . S
H2740 C2725 0.961 . S
H2741 C2725 0.960 . S
C2742 C2743 1.391 . S
C2742 C2744 1.394 . S
C2742 H2758 0.931 . S
C2743 C2742 1.391 . S
C2743 C2747 1.376 . S
C2744 C2742 1.394 . S
C2744 C2745 1.369 . S
C2744 C2748 1.531 . S
C2745 C2744 1.369 . S
C2745 C2746 1.410 . S
C2745 C2753 1.503 . S
C2746 C2745 1.410 . S
C2746 C2747 1.392 . S
C2746 C2749 1.511 . S
C2747 C2743 1.376 . S
C2747 C2746 1.392 . S
C2747 H2759 0.929 . S
C2748 C2744 1.531 . S
C2748 H2760 0.960 . S
C2748 H2761 0.962 . S
C2748 H2762 0.960 . S
C2749 C2746 1.511 . S
C2749 H2763 0.961 . S
C2749 H2764 0.961 . S
C2749 H2765 0.961 . S
C2750 C2751 1.370 . S
C2750 C2752 1.363 . S
C2750 H2766 0.931 . S
C2751 C2750 1.370 . S
C2751 C2755 1.408 . S
C2752 C2750 1.363 . S
C2752 C2753 1.370 . S
C2752 C2756 1.524 . S
C2753 C2745 1.503 . S
C2753 C2752 1.370 . S
C2753 C2754 1.403 . S
C2754 C2753 1.403 . S
C2754 C2755 1.404 . S
C2754 C2757 1.539 . S
C2755 C2751 1.408 . S
C2755 C2754 1.404 . S
C2755 H2767 0.930 . S
C2756 C2752 1.524 . S
C2756 H2768 0.956 . S
C2756 H2769 0.961 . S
C2756 H2770 0.961 . S
C2757 C2754 1.539 . S
C2757 H2771 0.958 . S
C2757 H2772 0.961 . S
C2757 H2773 0.960 . S
H2758 C2742 0.931 . S
H2759 C2747 0.929 . S
H2760 C2748 0.960 . S
H2761 C2748 0.962 . S
H2762 C2748 0.960 . S
H2763 C2749 0.961 . S
H2764 C2749 0.961 . S
H2765 C2749 0.961 . S
H2766 C2750 0.931 . S
H2767 C2755 0.930 . S
H2768 C2756 0.956 . S
H2769 C2756 0.961 . S
H2770 C2756 0.961 . S
H2771 C2757 0.958 . S
H2772 C2757 0.961 . S
H2773 C2757 0.960 . S
C2774 C2775 1.391 . S
C2774 C2776 1.394 . S
C2774 H2790 0.931 . S
C2775 C2774 1.391 . S
C2775 C2779 1.376 . S
C2776 C2774 1.394 . S
C2776 C2777 1.369 . S
C2776 C2780 1.531 . S
C2777 C2776 1.369 . S
C2777 C2778 1.410 . S
C2777 C2785 1.503 . S
C2778 C2777 1.410 . S
C2778 C2779 1.392 . S
C2778 C2781 1.511 . S
C2779 C2775 1.376 . S
C2779 C2778 1.392 . S
C2779 H2791 0.929 . S
C2780 C2776 1.531 . S
C2780 H2792 0.960 . S
C2780 H2793 0.962 . S
C2780 H2794 0.960 . S
C2781 C2778 1.511 . S
C2781 H2795 0.961 . S
C2781 H2796 0.961 . S
C2781 H2797 0.961 . S
C2782 C2783 1.370 . S
C2782 C2784 1.363 . S
C2782 H2798 0.931 . S
C2783 C2782 1.370 . S
C2783 C2787 1.408 . S
C2784 C2782 1.363 . S
C2784 C2785 1.370 . S
C2784 C2788 1.524 . S
C2785 C2777 1.503 . S
C2785 C2784 1.370 . S
C2785 C2786 1.403 . S
C2786 C2785 1.403 . S
C2786 C2787 1.404 . S
C2786 C2789 1.539 . S
C2787 C2783 1.408 . S
C2787 C2786 1.404 . S
C2787 H2799 0.930 . S
C2788 C2784 1.524 . S
C2788 H2800 0.956 . S
C2788 H2801 0.961 . S
C2788 H2802 0.961 . S
C2789 C2786 1.539 . S
C2789 H2803 0.958 . S
C2789 H2804 0.961 . S
C2789 H2805 0.960 . S
H2790 C2774 0.931 . S
H2791 C2779 0.929 . S
H2792 C2780 0.960 . S
H2793 C2780 0.962 . S
H2794 C2780 0.960 . S
H2795 C2781 0.961 . S
H2796 C2781 0.961 . S
H2797 C2781 0.961 . S
H2798 C2782 0.931 . S
H2799 C2787 0.930 . S
H2800 C2788 0.956 . S
H2801 C2788 0.961 . S
H2802 C2788 0.961 . S
H2803 C2789 0.958 . S
H2804 C2789 0.961 . S
H2805 C2789 0.960 . S
C2806 C2807 1.391 . S
C2806 C2808 1.394 . S
C2806 H2822 0.931 . S
C2807 C2806 1.391 . S
C2807 C2811 1.376 . S
C2808 C2806 1.394 . S
C2808 C2809 1.369 . S
C2808 C2812 1.531 . S
C2809 C2808 1.369 . S
C2809 C2810 1.410 . S
C2809 C2817 1.503 . S
C2810 C2809 1.410 . S
C2810 C2811 1.392 . S
C2810 C2813 1.511 . S
C2811 C2807 1.376 . S
C2811 C2810 1.392 . S
C2811 H2823 0.929 . S
C2812 C2808 1.531 . S
C2812 H2824 0.960 . S
C2812 H2825 0.962 . S
C2812 H2826 0.960 . S
C2813 C2810 1.511 . S
C2813 H2827 0.961 . S
C2813 H2828 0.961 . S
C2813 H2829 0.961 . S
C2814 C2815 1.370 . S
C2814 C2816 1.363 . S
C2814 H2830 0.931 . S
C2815 C2814 1.370 . S
C2815 C2819 1.408 . S
C2816 C2814 1.363 . S
C2816 C2817 1.370 . S
C2816 C2820 1.524 . S
C2817 C2809 1.503 . S
C2817 C2816 1.370 . S
C2817 C2818 1.403 . S
C2818 C2817 1.403 . S
C2818 C2819 1.404 . S
C2818 C2821 1.539 . S
C2819 C2815 1.408 . S
C2819 C2818 1.404 . S
C2819 H2831 0.930 . S
C2820 C2816 1.524 . S
C2820 H2832 0.956 . S
C2820 H2833 0.961 . S
C2820 H2834 0.961 . S
C2821 C2818 1.539 . S
C2821 H2835 0.958 . S
C2821 H2836 0.961 . S
C2821 H2837 0.960 . S
H2822 C2806 0.931 . S
H2823 C2811 0.929 . S
H2824 C2812 0.960 . S
H2825 C2812 0.962 . S
H2826 C2812 0.960 . S
H2827 C2813 0.961 . S
H2828 C2813 0.961 . S
H2829 C2813 0.961 . S
H2830 C2814 0.931 . S
H2831 C2819 0.930 . S
H2832 C2820 0.956 . S
H2833 C2820 0.961 . S
H2834 C2820 0.961 . S
H2835 C2821 0.958 . S
H2836 C2821 0.961 . S
H2837 C2821 0.960 . S
C2838 C2839 1.391 . S
C2838 C2840 1.394 . S
C2838 H2854 0.931 . S
C2839 C2838 1.391 . S
C2839 C2843 1.376 1_655 S
C2840 C2838 1.394 . S
C2840 C2841 1.369 . S
C2840 C2844 1.531 . S
C2841 C2840 1.369 . S
C2841 C2842 1.410 1_655 S
C2841 C2849 1.503 . S
C2842 C2841 1.410 1_455 S
C2842 C2843 1.392 . S
C2842 C2845 1.511 . S
C2843 C2839 1.376 1_455 S
C2843 C2842 1.392 . S
C2843 H2855 0.929 . S
C2844 C2840 1.531 . S
C2844 H2856 0.960 . S
C2844 H2857 0.962 . S
C2844 H2858 0.960 . S
C2845 C2842 1.511 . S
C2845 H2859 0.961 . S
C2845 H2860 0.961 . S
C2845 H2861 0.961 . S
C2846 C2847 1.370 . S
C2846 C2848 1.363 . S
C2846 H2862 0.931 . S
C2847 C2846 1.370 . S
C2847 C2851 1.408 1_655 S
C2848 C2846 1.363 . S
C2848 C2849 1.370 . S
C2848 C2852 1.524 . S
C2849 C2841 1.503 . S
C2849 C2848 1.370 . S
C2849 C2850 1.403 1_655 S
C2850 C2849 1.403 1_455 S
C2850 C2851 1.404 . S
C2850 C2853 1.539 . S
C2851 C2847 1.408 1_455 S
C2851 C2850 1.404 . S
C2851 H2863 0.930 . S
C2852 C2848 1.524 . S
C2852 H2864 0.956 . S
C2852 H2865 0.961 . S
C2852 H2866 0.961 . S
C2853 C2850 1.539 . S
C2853 H2867 0.958 . S
C2853 H2868 0.961 . S
C2853 H2869 0.960 . S
H2854 C2838 0.931 . S
H2855 C2843 0.929 . S
H2856 C2844 0.960 . S
H2857 C2844 0.962 . S
H2858 C2844 0.960 . S
H2859 C2845 0.961 . S
H2860 C2845 0.961 . S
H2861 C2845 0.961 . S
H2862 C2846 0.931 . S
H2863 C2851 0.930 . S
H2864 C2852 0.956 . S
H2865 C2852 0.961 . S
H2866 C2852 0.961 . S
H2867 C2853 0.958 . S
H2868 C2853 0.961 . S
H2869 C2853 0.960 . S
C2870 C2871 1.391 . S
C2870 C2872 1.394 . S
C2870 H2886 0.931 . S
C2871 C2870 1.391 . S
C2871 C2875 1.376 . S
C2872 C2870 1.394 . S
C2872 C2873 1.369 . S
C2872 C2876 1.531 . S
C2873 C2872 1.369 . S
C2873 C2874 1.410 . S
C2873 C2881 1.503 . S
C2874 C2873 1.410 . S
C2874 C2875 1.392 . S
C2874 C2877 1.511 . S
C2875 C2871 1.376 . S
C2875 C2874 1.392 . S
C2875 H2887 0.929 . S
C2876 C2872 1.531 . S
C2876 H2888 0.960 . S
C2876 H2889 0.962 . S
C2876 H2890 0.960 . S
C2877 C2874 1.511 . S
C2877 H2891 0.961 . S
C2877 H2892 0.961 . S
C2877 H2893 0.961 . S
C2878 C2879 1.370 . S
C2878 C2880 1.363 . S
C2878 H2894 0.931 . S
C2879 C2878 1.370 . S
C2879 C2883 1.408 . S
C2880 C2878 1.363 . S
C2880 C2881 1.370 . S
C2880 C2884 1.524 . S
C2881 C2873 1.503 . S
C2881 C2880 1.370 . S
C2881 C2882 1.403 . S
C2882 C2881 1.403 . S
C2882 C2883 1.404 . S
C2882 C2885 1.539 . S
C2883 C2879 1.408 . S
C2883 C2882 1.404 . S
C2883 H2895 0.930 . S
C2884 C2880 1.524 . S
C2884 H2896 0.956 . S
C2884 H2897 0.961 . S
C2884 H2898 0.961 . S
C2885 C2882 1.539 . S
C2885 H2899 0.958 . S
C2885 H2900 0.961 . S
C2885 H2901 0.960 . S
H2886 C2870 0.931 . S
H2887 C2875 0.929 . S
H2888 C2876 0.960 . S
H2889 C2876 0.962 . S
H2890 C2876 0.960 . S
H2891 C2877 0.961 . S
H2892 C2877 0.961 . S
H2893 C2877 0.961 . S
H2894 C2878 0.931 . S
H2895 C2883 0.930 . S
H2896 C2884 0.956 . S
H2897 C2884 0.961 . S
H2898 C2884 0.961 . S
H2899 C2885 0.958 . S
H2900 C2885 0.961 . S
H2901 C2885 0.960 . S
C2902 C2903 1.391 . S
C2902 C2904 1.394 . S
C2902 H2918 0.931 . S
C2903 C2902 1.391 . S
C2903 C2907 1.376 1_545 S
C2904 C2902 1.394 . S
C2904 C2905 1.369 . S
C2904 C2908 1.531 . S
C2905 C2904 1.369 . S
C2905 C2906 1.410 1_545 S
C2905 C2913 1.503 . S
C2906 C2905 1.410 1_565 S
C2906 C2907 1.392 . S
C2906 C2909 1.511 . S
C2907 C2903 1.376 1_565 S
C2907 C2906 1.392 . S
C2907 H2919 0.929 . S
C2908 C2904 1.531 . S
C2908 H2920 0.960 . S
C2908 H2921 0.962 . S
C2908 H2922 0.960 . S
C2909 C2906 1.511 . S
C2909 H2923 0.961 . S
C2909 H2924 0.961 . S
C2909 H2925 0.961 . S
C2910 C2911 1.370 1_565 S
C2910 C2912 1.342 . S
C2910 H2926 0.931 . S
C2911 C2910 1.370 1_545 S
C2911 C2915 1.408 . S
C2912 C2910 1.342 . S
C2912 C2913 1.354 1_565 S
C2912 C2916 1.565 . S
C2913 C2905 1.503 . S
C2913 C2912 1.354 1_545 S
C2913 C2914 1.403 . S
C2914 C2913 1.403 . S
C2914 C2915 1.404 . S
C2914 C2917 1.539 . S
C2915 C2911 1.408 . S
C2915 C2914 1.404 . S
C2915 H2927 0.930 . S
C2916 C2912 1.565 . S
C2916 H2928 0.956 1_565 S
C2916 H2929 0.961 . S
C2916 H2930 0.961 . S
C2917 C2914 1.539 . S
C2917 H2931 0.958 . S
C2917 H2932 0.961 . S
C2917 H2933 0.960 . S
H2918 C2902 0.931 . S
H2919 C2907 0.929 . S
H2920 C2908 0.960 . S
H2921 C2908 0.962 . S
H2922 C2908 0.960 . S
H2923 C2909 0.961 . S
H2924 C2909 0.961 . S
H2925 C2909 0.961 . S
H2926 C2910 0.931 . S
H2927 C2915 0.930 . S
H2928 C2916 0.956 1_545 S
H2929 C2916 0.961 . S
H2930 C2916 0.961 . S
H2931 C2917 0.958 . S
H2932 C2917 0.961 . S
H2933 C2917 0.960 . S
C631 C8 1.580 . S
C639 C458 1.511 1_655 S
C663 C22 1.548 . S
C671 C471 1.506 . S
C703 C500 1.458 1_545 S
C695 C37 1.572 1_545 S
C727 C36 1.521 . S
C735 C513 1.512 . S
C759 C9 1.534 . S
C767 C534 1.522 . S
C791 C23 1.544 . S
C799 C563 1.469 . S
C823 C50 1.559 . S
C831 C542 1.505 . S
C863 C555 1.479 . S
C855 C64 1.532 . S
C895 C521 1.494 . S
C887 C79 1.538 1_565 S
C919 C78 1.510 . S
C927 C492 1.468 . S
C959 C450 1.488 1_655 S
C951 C51 1.547 1_655 S
C983 C65 1.516 . S
C991 C479 1.507 . S
C1015 C92 1.565 . S
C1023 C584 1.483 . S
C1047 C106 1.558 . S
C1055 C597 1.514 . S
C1087 C626 1.472 . S
C1079 C121 1.552 . S
C1111 C120 1.550 . S
C1119 C261 1.509 . S
C1143 C93 1.535 . S
C1151 C282 1.519 . S
C1175 C107 1.547 . S
C1183 C311 1.499 . S
C1207 C134 1.522 . S
C1215 C290 1.512 . S
C1239 C148 1.542 . S
C1247 C303 1.505 . S
C1279 C269 1.493 . S
C1271 C163 1.513 . S
C1311 C618 1.476 . S
C1303 C162 1.508 . S
C1343 C576 1.493 . S
C1335 C135 1.520 . S
C1375 C605 1.510 . S
C1367 C149 1.526 . S
C1399 C176 1.568 . S
C1407 C332 1.499 . S
C1431 C190 1.533 . S
C1439 C345 1.515 . S
C1463 C205 1.560 . S
C1471 C374 1.487 . S
C1495 C204 1.526 . S
C1503 C387 1.522 . S
C1535 C408 1.525 . S
C1527 C177 1.551 . S
C1567 C437 1.493 . S
C1559 C191 1.562 . S
C1599 C416 1.512 . S
C1591 C218 1.522 . S
C1631 C429 1.493 . S
C1623 C232 1.550 . S
C1655 C247 1.521 . S
C1663 C395 1.487 . S
C1695 C366 1.474 . S
C1687 C246 1.508 . S
C1719 C219 1.527 . S
C1727 C324 1.481 . S
C1759 C353 1.484 . S
C1751 C233 1.551 . S
C1791 C264 1.423 . S
C1783 C6 1.451 . S
C1815 C20 1.497 . S
C1823 C285 1.382 . S
C1855 C313 1.419 . S
C1847 C35 1.495 . S
C1887 C334 1.434 . S
C1879 C34 1.471 . S
C1919 C348 1.383 . S
C1911 C7 1.494 . S
C1951 C376 1.444 . S
C1943 C21 1.482 . S
C1975 C48 1.505 . S
C1983 C369 1.422 . S
C2007 C62 1.502 . S
C2015 C327 1.402 . S
C2039 C77 1.453 . S
C2047 C355 1.445 . S
C2071 C76 1.471 . S
C2079 C292 1.444 . S
C2111 C306 1.412 . S
C2103 C49 1.493 . S
C2135 C63 1.456 . S
C2143 C271 1.451 . S
C2175 C390 1.420 . S
C2167 C90 1.486 . S
C2199 C104 1.484 . S
C2207 C411 1.383 . S
C2231 C119 1.444 . S
C2239 C439 1.421 . S
C2271 C460 1.410 . S
C2263 C118 1.479 . S
C2295 C91 1.501 . S
C2303 C474 1.386 . S
C2327 C105 1.448 . S
C2335 C502 1.424 . S
C2359 C132 1.515 . S
C2367 C495 1.387 . S
C2391 C146 1.483 . S
C2399 C453 1.376 . S
C2431 C481 1.443 . S
C2423 C161 1.482 . S
C2455 C160 1.486 . S
C2463 C418 1.413 . S
C2487 C133 1.476 . S
C2495 C432 1.376 . S
C2527 C397 1.454 . S
C2519 C147 1.463 . S
C2559 C516 1.407 1_545 S
C2551 C174 1.497 . S
C2583 C188 1.453 . S
C2591 C537 1.420 1_655 S
C2615 C203 1.444 . S
C2623 C565 1.422 . S
C2655 C586 1.412 . S
C2647 C202 1.487 . S
C2687 C600 1.394 . S
C2679 C175 1.470 . S
C2711 C189 1.481 . S
C2719 C628 1.445 . S
C2743 C216 1.465 . S
C2751 C621 1.404 . S
C2775 C230 1.473 . S
C2783 C579 1.374 . S
C2815 C607 1.446 . S
C2807 C245 1.474 . S
C2847 C544 1.434 1_655 S
C2839 C244 1.471 . S
C2879 C558 1.393 . S
C2871 C217 1.457 . S
C2903 C231 1.464 . S
C2911 C523 1.455 1_545 S
