# Generated by pormake.
# Topology hwx, (6,3)-cn, num edge types: 1
# Building blocks:
#     Node 0, Type 0, BuildingBlock: IZENUY_clean_sbu_0, # of connection points: 6
#     Node 1, Type 0, BuildingBlock: IZENUY_clean_sbu_0, # of connection points: 6
#     Node 2, Type 0, BuildingBlock: IZENUY_clean_sbu_0, # of connection points: 6
#     Node 3, Type 0, BuildingBlock: IZENUY_clean_sbu_0, # of connection points: 6
#     Node 4, Type 1, BuildingBlock: KAKCAD_clean_linker_0, # of connection points: 3
#     Node 5, Type 1, BuildingBlock: KAKCAD_clean_linker_0, # of connection points: 3
#     Node 6, Type 1, BuildingBlock: KAKCAD_clean_linker_0, # of connection points: 3
#     Node 7, Type 1, BuildingBlock: KAKCAD_clean_linker_0, # of connection points: 3
#     Node 8, Type 1, BuildingBlock: KAKCAD_clean_linker_0, # of connection points: 3
#     Node 9, Type 1, BuildingBlock: KAKCAD_clean_linker_0, # of connection points: 3
#     Node 10, Type 1, BuildingBlock: KAKCAD_clean_linker_0, # of connection points: 3
#     Node 11, Type 1, BuildingBlock: KAKCAD_clean_linker_0, # of connection points: 3
#     Edge 12, Type (0, 1), BuildingBlock: CIFDUS_clean_linker_0, # of connection points: 2
#     Edge 13, Type (0, 1), BuildingBlock: CIFDUS_clean_linker_0, # of connection points: 2
#     Edge 14, Type (0, 1), BuildingBlock: CIFDUS_clean_linker_0, # of connection points: 2
#     Edge 15, Type (0, 1), BuildingBlock: CIFDUS_clean_linker_0, # of connection points: 2
#     Edge 16, Type (0, 1), BuildingBlock: CIFDUS_clean_linker_0, # of connection points: 2
#     Edge 17, Type (0, 1), BuildingBlock: CIFDUS_clean_linker_0, # of connection points: 2
#     Edge 18, Type (0, 1), BuildingBlock: CIFDUS_clean_linker_0, # of connection points: 2
#     Edge 19, Type (0, 1), BuildingBlock: CIFDUS_clean_linker_0, # of connection points: 2
#     Edge 20, Type (0, 1), BuildingBlock: CIFDUS_clean_linker_0, # of connection points: 2
#     Edge 21, Type (0, 1), BuildingBlock: CIFDUS_clean_linker_0, # of connection points: 2
#     Edge 22, Type (0, 1), BuildingBlock: CIFDUS_clean_linker_0, # of connection points: 2
#     Edge 23, Type (0, 1), BuildingBlock: CIFDUS_clean_linker_0, # of connection points: 2
#     Edge 24, Type (0, 1), BuildingBlock: CIFDUS_clean_linker_0, # of connection points: 2
#     Edge 25, Type (0, 1), BuildingBlock: CIFDUS_clean_linker_0, # of connection points: 2
#     Edge 26, Type (0, 1), BuildingBlock: CIFDUS_clean_linker_0, # of connection points: 2
#     Edge 27, Type (0, 1), BuildingBlock: CIFDUS_clean_linker_0, # of connection points: 2
#     Edge 28, Type (0, 1), BuildingBlock: CIFDUS_clean_linker_0, # of connection points: 2
#     Edge 29, Type (0, 1), BuildingBlock: CIFDUS_clean_linker_0, # of connection points: 2
#     Edge 30, Type (0, 1), BuildingBlock: CIFDUS_clean_linker_0, # of connection points: 2
#     Edge 31, Type (0, 1), BuildingBlock: CIFDUS_clean_linker_0, # of connection points: 2
#     Edge 32, Type (0, 1), BuildingBlock: CIFDUS_clean_linker_0, # of connection points: 2
#     Edge 33, Type (0, 1), BuildingBlock: CIFDUS_clean_linker_0, # of connection points: 2
#     Edge 34, Type (0, 1), BuildingBlock: CIFDUS_clean_linker_0, # of connection points: 2
#     Edge 35, Type (0, 1), BuildingBlock: CIFDUS_clean_linker_0, # of connection points: 2
# Relax obj value: 0.051
# Max RMSD: 0.075
# Mean RMSD: 0.067
data_MOF--net-hwx--node1-IZENUY_clean_sbu_0--node2-KAKCAD_clean_linker_0--edge1-CIFDUS_clean_linker_0
_symmetry_space_group_name_H-M    P1
_symmetry_Int_Tables_number       1
_symmetry_cell_setting            triclinic
loop_
_symmetry_equiv_pos_as_xyz
'x, y, z'
_cell_length_a     52.370496
_cell_length_b     52.42102
_cell_length_c     25.31837
_cell_angle_alpha  89.890061
_cell_angle_beta   90.169017
_cell_angle_gamma 90.010759
loop_
_atom_site_label
_atom_site_type_symbol
_atom_site_fract_x
_atom_site_fract_y
_atom_site_fract_z
_atom_type_partial_charge
Fe0 Fe 0.24093 0.2106 0.049 0.0
Fe1 Fe 0.23932 0.20823 0.92823 0.0
O2 O 0.23177 0.1947 0.99029 0.0
Fe3 Fe 0.21515 0.16524 0.99349 0.0
O4 O 0.18898 0.17949 0.02968 0.0
O5 O 0.21311 0.20001 0.0869 0.0
O6 O 0.22255 0.2387 0.03158 0.0
C7 C 0.2254 0.25124 0.98948 0.0
C8 C 0.25141 0.16125 0.07652 0.0
O9 O 0.23676 0.24149 0.95031 0.0
C10 C 0.24786 0.15542 0.91227 0.0
O11 O 0.27031 0.22423 0.02144 0.0
O12 O 0.27328 0.20712 0.94252 0.0
O13 O 0.2307 0.15452 0.05467 0.0
O14 O 0.25998 0.18356 0.07057 0.0
C15 C 0.19094 0.19126 0.90886 0.0
O16 O 0.24322 0.17755 0.89458 0.0
O17 O 0.24021 0.14885 0.95751 0.0
C18 C 0.28352 0.21769 0.98194 0.0
O19 O 0.20588 0.21013 0.91018 0.0
O20 O 0.19648 0.17076 0.93293 0.0
C21 C 0.19149 0.19185 0.07205 0.0
Fe22 Fe 0.25313 0.71379 0.56703 0.0
Fe23 Fe 0.2792 0.66598 0.52206 0.0
O24 O 0.2628 0.6953 0.51226 0.0
Fe25 Fe 0.25606 0.70629 0.44754 0.0
O26 O 0.27471 0.73497 0.45754 0.0
O27 O 0.25742 0.74472 0.53378 0.0
O28 O 0.28571 0.717 0.58962 0.0
C29 C 0.30075 0.69881 0.59936 0.0
C30 C 0.2114 0.71966 0.50382 0.0
O31 O 0.29627 0.67657 0.58192 0.0
C32 C 0.2452 0.65559 0.43693 0.0
O33 O 0.24741 0.68639 0.61051 0.0
O34 O 0.25307 0.65278 0.56027 0.0
O35 O 0.22634 0.72264 0.46513 0.0
O36 O 0.21971 0.71183 0.54774 0.0
C37 C 0.30557 0.68577 0.43843 0.0
O38 O 0.26499 0.65037 0.46393 0.0
O39 O 0.23711 0.67822 0.43341 0.0
C40 C 0.24382 0.66296 0.60103 0.0
O41 O 0.30667 0.67689 0.48464 0.0
O42 O 0.28453 0.69227 0.41793 0.0
C43 C 0.27089 0.75075 0.49417 0.0
Fe44 Fe 0.75492 0.79503 0.93292 0.0
Fe45 Fe 0.75828 0.79281 0.05292 0.0
O46 O 0.76361 0.80954 0.99339 0.0
Fe47 Fe 0.77736 0.84047 0.99427 0.0
O48 O 0.75856 0.85211 0.93722 0.0
O49 O 0.73252 0.82032 0.91841 0.0
O50 O 0.72804 0.77674 0.96018 0.0
C51 C 0.71455 0.78107 0.00055 0.0
C52 C 0.80056 0.82114 0.90662 0.0
O53 O 0.72412 0.79163 0.04064 0.0
C54 C 0.80532 0.81307 0.07322 0.0
O55 O 0.77709 0.76884 0.94393 0.0
O56 O 0.76327 0.76114 0.02416 0.0
O57 O 0.80375 0.83058 0.95197 0.0
O58 O 0.7797 0.81067 0.89405 0.0
C59 C 0.74567 0.84346 0.08013 0.0
O60 O 0.79193 0.79315 0.06884 0.0
O61 O 0.79835 0.83386 0.05159 0.0
C62 C 0.77552 0.75431 0.98353 0.0
O63 O 0.75247 0.82115 0.09272 0.0
O64 O 0.75211 0.85296 0.03633 0.0
C65 C 0.73849 0.8436 0.91494 0.0
Fe66 Fe 0.71315 0.33904 0.50643 0.0
Fe67 Fe 0.73337 0.2911 0.56212 0.0
O68 O 0.72827 0.30877 0.50344 0.0
Fe69 Fe 0.73827 0.29616 0.44208 0.0
O70 O 0.75874 0.32332 0.42964 0.0
O71 O 0.73053 0.35264 0.44991 0.0
O72 O 0.73807 0.3517 0.5493 0.0
C73 C 0.74406 0.34185 0.5932 0.0
C74 C 0.69018 0.31849 0.4191 0.0
O75 O 0.73763 0.31918 0.60409 0.0
C76 C 0.71964 0.25295 0.48841 0.0
O77 O 0.69277 0.33084 0.5632 0.0
O78 O 0.69943 0.28987 0.57526 0.0
O79 O 0.71169 0.31004 0.40444 0.0
O80 O 0.6873 0.32844 0.46405 0.0
C81 C 0.77878 0.28343 0.5118 0.0
O82 O 0.73014 0.25969 0.53119 0.0
O83 O 0.71854 0.26802 0.44972 0.0
C84 C 0.68564 0.30938 0.58109 0.0
O85 O 0.76759 0.2913 0.55266 0.0
O86 O 0.7666 0.28001 0.46907 0.0
C87 C 0.75108 0.34606 0.42743 0.0
C88 C 0.19032 0.53809 0.81885 0.0
C89 C 0.20571 0.56006 0.81785 0.0
C90 C 0.18639 0.52486 0.86637 0.0
C91 C 0.19794 0.53332 0.91345 0.0
C92 C 0.21405 0.55477 0.91159 0.0
C93 C 0.21776 0.56802 0.86456 0.0
C94 C 0.19342 0.52031 0.96488 0.0
C95 C 0.19332 0.49361 0.96904 0.0
C96 C 0.19162 0.48161 0.01877 0.0
C97 C 0.19044 0.49679 0.06462 0.0
C98 C 0.19054 0.52356 0.06111 0.0
C99 C 0.19099 0.53495 0.0109 0.0
C100 C 0.19193 0.53989 0.10925 0.0
C101 C 0.17924 0.53322 0.15633 0.0
C102 C 0.2065 0.56248 0.10832 0.0
C103 C 0.20775 0.5783 0.15235 0.0
C104 C 0.19502 0.57169 0.19894 0.0
C105 C 0.19246 0.45328 0.02282 0.0
C106 C 0.17938 0.43801 0.98599 0.0
C107 C 0.20683 0.44128 0.06279 0.0
C108 C 0.20829 0.41469 0.06551 0.0
C109 C 0.19557 0.39946 0.02816 0.0
C110 C 0.18097 0.41141 0.98855 0.0
C111 C 0.18098 0.54891 0.20102 0.0
H112 H 0.18087 0.53155 0.78326 0.0
H113 H 0.17389 0.5084 0.86649 0.0
H114 H 0.22393 0.56137 0.94664 0.0
H115 H 0.23023 0.58451 0.86467 0.0
H116 H 0.19575 0.48217 0.93381 0.0
H117 H 0.18993 0.55553 0.00751 0.0
H118 H 0.18996 0.48772 0.10306 0.0
H119 H 0.16774 0.51609 0.15853 0.0
H120 H 0.21731 0.56792 0.0737 0.0
H121 H 0.21906 0.59558 0.15033 0.0
H122 H 0.16783 0.44661 0.95519 0.0
H123 H 0.21753 0.45241 0.09123 0.0
H124 H 0.1711 0.54349 0.23685 0.0
H125 H 0.17071 0.40016 0.95958 0.0
H126 H 0.22 0.40606 0.09601 0.0
C127 C 0.89216 0.78407 0.36339 0.0
C128 C 0.90135 0.79377 0.31526 0.0
C129 C 0.90721 0.78497 0.40896 0.0
C130 C 0.93191 0.79539 0.40743 0.0
C131 C 0.94121 0.80501 0.35928 0.0
C132 C 0.92598 0.8044 0.31369 0.0
C133 C 0.94779 0.79618 0.45612 0.0
C134 C 0.97321 0.78758 0.45546 0.0
C135 C 0.98793 0.78765 0.50188 0.0
C136 C 0.97722 0.79645 0.54915 0.0
C137 C 0.95174 0.80469 0.55083 0.0
C138 C 0.93722 0.80465 0.50399 0.0
C139 C 0.93981 0.81188 0.6019 0.0
C140 C 0.94403 0.79702 0.64743 0.0
C141 C 0.92307 0.83277 0.60494 0.0
C142 C 0.90998 0.83797 0.65172 0.0
C143 C 0.91328 0.82236 0.6965 0.0
C144 C 0.01423 0.7775 0.50204 0.0
C145 C 0.01883 0.75197 0.48839 0.0
C146 C 0.03464 0.79289 0.5187 0.0
C147 C 0.05933 0.7829 0.52155 0.0
C148 C 0.06387 0.75722 0.50901 0.0
C149 C 0.04346 0.74181 0.49241 0.0
C150 C 0.93092 0.80221 0.69421 0.0
H151 H 0.87316 0.77599 0.36593 0.0
H152 H 0.89962 0.77722 0.44537 0.0
H153 H 0.96013 0.81328 0.35707 0.0
H154 H 0.93358 0.81192 0.27708 0.0
H155 H 0.98143 0.78047 0.4191 0.0
H156 H 0.91746 0.81078 0.50491 0.0
H157 H 0.98865 0.79636 0.58493 0.0
H158 H 0.9566 0.78062 0.64628 0.0
H159 H 0.91977 0.84486 0.57086 0.0
H160 H 0.8968 0.85388 0.65249 0.0
H161 H 0.00327 0.73975 0.4759 0.0
H162 H 0.03143 0.81261 0.52955 0.0
H163 H 0.93365 0.78963 0.72774 0.0
H164 H 0.04661 0.72199 0.4823 0.0
H165 H 0.07483 0.79509 0.53456 0.0
C166 C 0.7842 0.46793 0.18976 0.0
C167 C 0.78995 0.44192 0.19584 0.0
C168 C 0.79071 0.4809 0.14362 0.0
C169 C 0.80367 0.46843 0.10242 0.0
C170 C 0.81048 0.44267 0.10942 0.0
C171 C 0.80362 0.42954 0.15551 0.0
C172 C 0.8081 0.48197 0.0513 0.0
C173 C 0.81241 0.50844 0.05084 0.0
C174 C 0.81058 0.5227 0.00385 0.0
C175 C 0.8071 0.50961 0.95594 0.0
C176 C 0.80475 0.48293 0.95499 0.0
C177 C 0.80497 0.46927 0.00283 0.0
C178 C 0.80012 0.46949 0.90435 0.0
C179 C 0.78172 0.47859 0.86844 0.0
C180 C 0.81372 0.44723 0.89206 0.0
C181 C 0.80881 0.43412 0.8451 0.0
C182 C 0.78994 0.44282 0.80966 0.0
C183 C 0.80905 0.55114 0.00574 0.0
C184 C 0.7974 0.56319 0.04906 0.0
C185 C 0.81707 0.56639 0.963 0.0
C186 C 0.81214 0.59265 0.96231 0.0
C187 C 0.7995 0.60435 0.00481 0.0
C188 C 0.79312 0.58938 0.04895 0.0
C189 C 0.77664 0.46537 0.8217 0.0
H190 H 0.77413 0.47825 0.22031 0.0
H191 H 0.78464 0.50056 0.13971 0.0
H192 H 0.8207 0.43248 0.07893 0.0
H193 H 0.80825 0.40946 0.15864 0.0
H194 H 0.81615 0.51812 0.08778 0.0
H195 H 0.80115 0.44896 0.00222 0.0
H196 H 0.80536 0.52013 0.91926 0.0
H197 H 0.77071 0.49554 0.87722 0.0
H198 H 0.82822 0.43999 0.91877 0.0
H199 H 0.81974 0.41709 0.8367 0.0
H200 H 0.79047 0.55238 0.08253 0.0
H201 H 0.82662 0.55801 0.92937 0.0
H202 H 0.7617 0.4724 0.79585 0.0
H203 H 0.78409 0.59777 0.08319 0.0
H204 H 0.81739 0.60352 0.92762 0.0
C205 C 0.08812 0.19483 0.64799 0.0
C206 C 0.08551 0.21397 0.6864 0.0
C207 C 0.07373 0.1957 0.60155 0.0
C208 C 0.05634 0.21564 0.59263 0.0
C209 C 0.05283 0.23414 0.63204 0.0
C210 C 0.06737 0.23337 0.67843 0.0
C211 C 0.04358 0.21834 0.5406 0.0
C212 C 0.01747 0.224 0.53696 0.0
C213 C 0.00576 0.22773 0.48746 0.0
C214 C 0.02071 0.22622 0.44144 0.0
C215 C 0.04699 0.221 0.44453 0.0
C216 C 0.05808 0.21657 0.49429 0.0
C217 C 0.06323 0.22125 0.39639 0.0
C218 C 0.05447 0.21102 0.34831 0.0
C219 C 0.08785 0.23189 0.39842 0.0
C220 C 0.10351 0.23185 0.35405 0.0
C221 C 0.09487 0.22159 0.30593 0.0
C222 C 0.97807 0.2338 0.48399 0.0
C223 C 0.96046 0.22154 0.51734 0.0
C224 C 0.96905 0.25204 0.44764 0.0
C225 C 0.94306 0.25786 0.44469 0.0
C226 C 0.92556 0.24574 0.47833 0.0
C227 C 0.9345 0.22753 0.51469 0.0
C228 C 0.07009 0.21125 0.30352 0.0
H229 H 0.1021 0.17977 0.65275 0.0
H230 H 0.07666 0.1811 0.57195 0.0
H231 H 0.03965 0.24981 0.62602 0.0
H232 H 0.0648 0.24824 0.70757 0.0
H233 H 0.00636 0.22575 0.57282 0.0
H234 H 0.07828 0.21232 0.49721 0.0
H235 H 0.01195 0.22948 0.40322 0.0
H236 H 0.03568 0.20251 0.3454 0.0
H237 H 0.0951 0.24041 0.4344 0.0
H238 H 0.1226 0.23957 0.35787 0.0
H239 H 0.96668 0.2071 0.54519 0.0
H240 H 0.98212 0.26219 0.42204 0.0
H241 H 0.0627 0.20341 0.26703 0.0
H242 H 0.92135 0.21768 0.54064 0.0
H243 H 0.93671 0.27221 0.41675 0.0
C244 C 0.68338 0.96331 0.68817 0.0
C245 C 0.69783 0.94082 0.68955 0.0
C246 C 0.67921 0.97604 0.64024 0.0
C247 C 0.68998 0.96684 0.59296 0.0
C248 C 0.70443 0.94418 0.59492 0.0
C249 C 0.70805 0.93121 0.64252 0.0
C250 C 0.68734 0.98129 0.54229 0.0
C251 C 0.68698 0.0081 0.54214 0.0
C252 C 0.68648 0.02192 0.49452 0.0
C253 C 0.68708 0.00864 0.44636 0.0
C254 C 0.68781 0.98186 0.44544 0.0
C255 C 0.68698 0.96842 0.49357 0.0
C256 C 0.69148 0.9679 0.39478 0.0
C257 C 0.67996 0.97624 0.34743 0.0
C258 C 0.70762 0.94647 0.39325 0.0
C259 C 0.71192 0.93358 0.34605 0.0
C260 C 0.70046 0.94189 0.29888 0.0
C261 C 0.68687 0.05026 0.49552 0.0
C262 C 0.67227 0.06371 0.53277 0.0
C263 C 0.70259 0.06405 0.46072 0.0
C264 C 0.7041 0.0906 0.46393 0.0
C265 C 0.69007 0.10392 0.5022 0.0
C266 C 0.67392 0.09024 0.53619 0.0
C267 C 0.68456 0.96344 0.29983 0.0
H268 H 0.67524 0.97096 0.7241 0.0
H269 H 0.6676 0.99312 0.6404 0.0
H270 H 0.71366 0.93674 0.56001 0.0
H271 H 0.71954 0.91402 0.64288 0.0
H272 H 0.68828 0.01837 0.57911 0.0
H273 H 0.68642 0.94778 0.49299 0.0
H274 H 0.68764 0.01923 0.40961 0.0
H275 H 0.66727 0.99255 0.34714 0.0
H276 H 0.71746 0.93988 0.4284 0.0
H277 H 0.72466 0.91729 0.34627 0.0
H278 H 0.65966 0.05369 0.55957 0.0
H279 H 0.7144 0.05429 0.43213 0.0
H280 H 0.67543 0.97016 0.26396 0.0
H281 H 0.66265 0.10006 0.56564 0.0
H282 H 0.71698 0.10063 0.43769 0.0
C283 C 0.57664 0.28236 0.16694 0.0
C284 C 0.59131 0.30372 0.18125 0.0
C285 C 0.56019 0.28349 0.12343 0.0
C286 C 0.55851 0.30584 0.09295 0.0
C287 C 0.57288 0.32731 0.10773 0.0
C288 C 0.58897 0.32633 0.15181 0.0
C289 C 0.54272 0.30641 0.04442 0.0
C290 C 0.51711 0.29858 0.04556 0.0
C291 C 0.50228 0.29904 0.99934 0.0
C292 C 0.51335 0.30673 0.95149 0.0
C293 C 0.53921 0.31377 0.94937 0.0
C294 C 0.55362 0.31401 0.9963 0.0
C295 C 0.55174 0.31903 0.89793 0.0
C296 C 0.54702 0.30317 0.85424 0.0
C297 C 0.56981 0.33872 0.89308 0.0
C298 C 0.5836 0.34181 0.84634 0.0
C299 C 0.57966 0.32524 0.80347 0.0
C300 C 0.47525 0.29111 0.00075 0.0
C301 C 0.46856 0.26668 0.01882 0.0
C302 C 0.45605 0.30787 0.98354 0.0
C303 C 0.43045 0.30042 0.985 0.0
C304 C 0.42377 0.2759 0.00254 0.0
C305 C 0.44299 0.25902 0.01915 0.0
C306 C 0.56083 0.30624 0.80755 0.0
H307 H 0.57811 0.26474 0.18917 0.0
H308 H 0.54939 0.26666 0.11259 0.0
H309 H 0.57181 0.34478 0.08489 0.0
H310 H 0.60024 0.34297 0.16186 0.0
H311 H 0.50859 0.29261 0.08256 0.0
H312 H 0.57371 0.31896 0.99513 0.0
H313 H 0.50191 0.30673 0.91573 0.0
H314 H 0.53338 0.28769 0.8568 0.0
H315 H 0.57367 0.35141 0.92585 0.0
H316 H 0.5981 0.35652 0.84461 0.0
H317 H 0.48314 0.25345 0.03202 0.0
H318 H 0.46085 0.32682 0.96957 0.0
H319 H 0.55716 0.29337 0.77499 0.0
H320 H 0.43818 0.24006 0.03304 0.0
H321 H 0.41587 0.31369 0.97193 0.0
C322 C 0.28533 0.03487 0.30519 0.0
C323 C 0.29266 0.0605 0.2985 0.0
C324 C 0.29186 0.02148 0.35101 0.0
C325 C 0.30646 0.03313 0.39101 0.0
C326 C 0.31532 0.05816 0.38261 0.0
C327 C 0.30831 0.07175 0.33726 0.0
C328 C 0.3104 0.02004 0.44287 0.0
C329 C 0.31239 0.99331 0.44601 0.0
C330 C 0.31239 0.98068 0.49514 0.0
C331 C 0.31163 0.99527 0.5417 0.0
C332 C 0.31062 0.02199 0.5394 0.0
C333 C 0.30983 0.03416 0.49001 0.0
C334 C 0.30848 0.03743 0.58821 0.0
C335 C 0.29033 0.03126 0.62694 0.0
C336 C 0.3233 0.05955 0.59441 0.0
C337 C 0.3193 0.07578 0.63724 0.0
C338 C 0.30019 0.0704 0.67459 0.0
C339 C 0.31123 0.95231 0.49776 0.0
C340 C 0.29611 0.93863 0.46153 0.0
C341 C 0.32403 0.93878 0.53793 0.0
C342 C 0.32116 0.91234 0.54265 0.0
C343 C 0.30564 0.89884 0.507 0.0
C344 C 0.29346 0.91221 0.46595 0.0
C345 C 0.28617 0.04762 0.66964 0.0
H346 H 0.27386 0.02526 0.27566 0.0
H347 H 0.28443 0.00235 0.35583 0.0
H348 H 0.32712 0.06762 0.41179 0.0
H349 H 0.3143 0.09144 0.3339 0.0
H350 H 0.3136 0.98222 0.41007 0.0
H351 H 0.30733 0.05466 0.48864 0.0
H352 H 0.31118 0.98589 0.57986 0.0
H353 H 0.27849 0.01443 0.62287 0.0
H354 H 0.33766 0.06455 0.56547 0.0
H355 H 0.33081 0.09288 0.64045 0.0
H356 H 0.28554 0.94839 0.43074 0.0
H357 H 0.33615 0.94862 0.566 0.0
H358 H 0.27113 0.04301 0.6973 0.0
H359 H 0.28108 0.90236 0.43836 0.0
H360 H 0.33098 0.90245 0.57435 0.0
C361 C 0.4325 0.68711 0.8275 0.0
C362 C 0.40836 0.69866 0.82234 0.0
C363 C 0.4467 0.68993 0.87415 0.0
C364 C 0.4368 0.70403 0.91658 0.0
C365 C 0.4129 0.71587 0.91094 0.0
C366 C 0.39887 0.71322 0.86446 0.0
C367 C 0.45069 0.70595 0.96754 0.0
C368 C 0.47647 0.71323 0.96944 0.0
C369 C 0.48894 0.71695 0.0183 0.0
C370 C 0.47508 0.71308 0.06532 0.0
C371 C 0.44913 0.70638 0.06388 0.0
C372 C 0.43738 0.70218 0.01484 0.0
C373 C 0.43355 0.70612 0.1129 0.0
C374 C 0.44309 0.69615 0.16068 0.0
C375 C 0.40895 0.71682 0.1122 0.0
C376 C 0.39422 0.71749 0.1578 0.0
C377 C 0.40375 0.70785 0.20578 0.0
C378 C 0.51586 0.72634 0.02025 0.0
C379 C 0.5336 0.71921 0.98137 0.0
C380 C 0.52394 0.743 0.06053 0.0
C381 C 0.54902 0.75198 0.06227 0.0
C382 C 0.56667 0.74519 0.02296 0.0
C383 C 0.55853 0.72874 0.98234 0.0
C384 C 0.4283 0.69697 0.20672 0.0
H385 H 0.44034 0.67588 0.79555 0.0
H386 H 0.46508 0.68059 0.87758 0.0
H387 H 0.40493 0.7271 0.94277 0.0
H388 H 0.38022 0.72209 0.86206 0.0
H389 H 0.48632 0.71717 0.93277 0.0
H390 H 0.41753 0.69635 0.01333 0.0
H391 H 0.48421 0.71605 0.10321 0.0
H392 H 0.46192 0.68764 0.16247 0.0
H393 H 0.40112 0.72511 0.07645 0.0
H394 H 0.3752 0.72552 0.15526 0.0
H395 H 0.52832 0.7062 0.95003 0.0
H396 H 0.51085 0.74951 0.09062 0.0
H397 H 0.43622 0.68943 0.24309 0.0
H398 H 0.57127 0.72336 0.95068 0.0
H399 H 0.5545 0.76422 0.09476 0.0
H400 H 0.18219 0.23154 0.13631 0.0
H401 H 0.15188 0.15875 0.08792 0.0
H402 H 0.1182 0.16205 0.15458 0.0
H403 H 0.09975 0.1842 0.23124 0.0
H404 H 0.12876 0.2584 0.27503 0.0
H405 H 0.16072 0.25585 0.20569 0.0
C406 C 0.16808 0.21649 0.14022 0.0
C407 C 0.16962 0.1948 0.10797 0.0
C408 C 0.14874 0.21866 0.17805 0.0
C409 C 0.15103 0.17562 0.11251 0.0
C410 C 0.13187 0.17746 0.15071 0.0
C411 C 0.11268 0.20007 0.22502 0.0
C412 C 0.11212 0.22122 0.25928 0.0
C413 C 0.13082 0.19871 0.18433 0.0
C414 C 0.12919 0.24152 0.25048 0.0
C415 C 0.14741 0.24018 0.21055 0.0
H416 H 0.239 0.61089 0.60286 0.0
H417 H 0.22151 0.67881 0.69223 0.0
H418 H 0.20615 0.65277 0.7651 0.0
H419 H 0.20098 0.611 0.80664 0.0
H420 H 0.21883 0.54278 0.71954 0.0
H421 H 0.23031 0.56862 0.64226 0.0
C422 C 0.23157 0.62 0.63803 0.0
C423 C 0.23181 0.64682 0.64221 0.0
C424 C 0.2229 0.60487 0.68029 0.0
C425 C 0.22189 0.65825 0.688 0.0
C426 C 0.21308 0.64338 0.72983 0.0
C427 C 0.20724 0.60181 0.77057 0.0
C428 C 0.2094 0.57511 0.76885 0.0
C429 C 0.21406 0.61673 0.72688 0.0
C430 C 0.21703 0.56334 0.72168 0.0
C431 C 0.22374 0.57811 0.67769 0.0
H432 H 0.82192 0.77323 0.13299 0.0
H433 H 0.8375 0.8525 0.09945 0.0
H434 H 0.86998 0.85308 0.16907 0.0
H435 H 0.89162 0.83184 0.24421 0.0
H436 H 0.87448 0.75307 0.27862 0.0
H437 H 0.8449 0.75158 0.20401 0.0
C438 C 0.83254 0.79063 0.1404 0.0
C439 C 0.82705 0.81285 0.11112 0.0
C440 C 0.85079 0.79097 0.18109 0.0
C441 C 0.84119 0.83513 0.12141 0.0
C442 C 0.85974 0.8355 0.16137 0.0
C443 C 0.88165 0.81429 0.23484 0.0
C444 C 0.88507 0.79265 0.26715 0.0
C445 C 0.86435 0.81366 0.19216 0.0
C446 C 0.87189 0.77007 0.25481 0.0
C447 C 0.85504 0.76918 0.21207 0.0
H448 H 0.7521 0.39363 0.59481 0.0
H449 H 0.7623 0.32507 0.68753 0.0
H450 H 0.77818 0.35011 0.76121 0.0
H451 H 0.78667 0.39131 0.80169 0.0
H452 H 0.77755 0.46031 0.71031 0.0
H453 H 0.76347 0.43525 0.63421 0.0
C454 C 0.75801 0.38417 0.63095 0.0
C455 C 0.75571 0.3575 0.63562 0.0
C456 C 0.76709 0.39875 0.67374 0.0
C457 C 0.76356 0.34557 0.68281 0.0
C458 C 0.77269 0.35987 0.72514 0.0
C459 C 0.78212 0.40093 0.76488 0.0
C460 C 0.78315 0.42768 0.76194 0.0
C461 C 0.77418 0.38646 0.72133 0.0
C462 C 0.7766 0.43974 0.71404 0.0
C463 C 0.76867 0.42542 0.67037 0.0
H464 H 0.68247 0.28516 0.33953 0.0
H465 H 0.64988 0.3516 0.41359 0.0
H466 H 0.61597 0.35272 0.34682 0.0
H467 H 0.59656 0.33558 0.26517 0.0
H468 H 0.62831 0.26803 0.19409 0.0
H469 H 0.66153 0.26642 0.26207 0.0
C470 C 0.66791 0.29987 0.34104 0.0
C471 C 0.6688 0.31844 0.38095 0.0
C472 C 0.64836 0.30016 0.3031 0.0
C473 C 0.64959 0.33711 0.38314 0.0
C474 C 0.63027 0.3378 0.34491 0.0
C475 C 0.61074 0.3205 0.26488 0.0
C476 C 0.61015 0.30201 0.22475 0.0
C477 C 0.62961 0.31956 0.30441 0.0
C478 C 0.62837 0.28236 0.22486 0.0
C479 C 0.64741 0.28151 0.26351 0.0
H480 H 0.26697 0.16383 0.81454 0.0
H481 H 0.25497 0.10408 0.92941 0.0
H482 H 0.2714 0.07255 0.86697 0.0
H483 H 0.28731 0.0618 0.77798 0.0
H484 H 0.29751 0.12202 0.66329 0.0
H485 H 0.28401 0.15349 0.72786 0.0
C486 C 0.26799 0.14394 0.82619 0.0
C487 C 0.25948 0.13635 0.87648 0.0
C488 C 0.27721 0.12595 0.79009 0.0
C489 C 0.26126 0.11048 0.89089 0.0
C490 C 0.27062 0.09242 0.85515 0.0
C491 C 0.28655 0.08181 0.76714 0.0
C492 C 0.29351 0.08946 0.71577 0.0
C493 C 0.2783 0.0999 0.80433 0.0
C494 C 0.29272 0.11554 0.70268 0.0
C495 C 0.28477 0.13359 0.73947 0.0
H496 H 0.31881 0.72486 0.37663 0.0
H497 H 0.34346 0.65022 0.42664 0.0
H498 H 0.37793 0.65112 0.36097 0.0
H499 H 0.39778 0.6716 0.28299 0.0
H500 H 0.37372 0.74735 0.23741 0.0
H501 H 0.34226 0.74757 0.30787 0.0
C502 C 0.33198 0.70894 0.37349 0.0
C503 C 0.32858 0.68738 0.40553 0.0
C504 C 0.35161 0.70971 0.33618 0.0
C505 C 0.34585 0.66699 0.40209 0.0
C506 C 0.3654 0.66748 0.36444 0.0
C507 C 0.38604 0.68836 0.28918 0.0
C508 C 0.38766 0.70915 0.25397 0.0
C509 C 0.36805 0.68851 0.33033 0.0
C510 C 0.37232 0.73075 0.26278 0.0
C511 C 0.3544 0.73099 0.30326 0.0
H512 H 0.74211 0.89516 0.90073 0.0
H513 H 0.70418 0.82803 0.84039 0.0
H514 H 0.68682 0.85271 0.76719 0.0
H515 H 0.68581 0.89231 0.71523 0.0
H516 H 0.72234 0.95986 0.77575 0.0
H517 H 0.7367 0.93619 0.85406 0.0
C518 C 0.72977 0.88602 0.87196 0.0
C519 C 0.72482 0.85968 0.87578 0.0
C520 C 0.71974 0.90035 0.82973 0.0
C521 C 0.70849 0.84822 0.83847 0.0
C522 C 0.69859 0.86229 0.79633 0.0
C523 C 0.69661 0.90184 0.74606 0.0
C524 C 0.70324 0.9276 0.73992 0.0
C525 C 0.70464 0.88818 0.79081 0.0
C526 C 0.71703 0.93998 0.78 0.0
C527 C 0.72533 0.92644 0.82451 0.0
H528 H 0.85291 0.82134 0.91323 0.0
H529 H 0.78997 0.83064 0.80444 0.0
H530 H 0.81946 0.834 0.73081 0.0
H531 H 0.86247 0.83078 0.69603 0.0
H532 H 0.92618 0.81982 0.80188 0.0
H533 H 0.89717 0.82046 0.87773 0.0
C534 C 0.84581 0.82442 0.87345 0.0
C535 C 0.81934 0.82551 0.86419 0.0
C536 C 0.86296 0.82578 0.83067 0.0
C537 C 0.81028 0.82939 0.81246 0.0
C538 C 0.82711 0.83136 0.77028 0.0
C539 C 0.87015 0.8291 0.73574 0.0
C540 C 0.89645 0.82536 0.74326 0.0
C541 C 0.8534 0.82908 0.77876 0.0
C542 C 0.90595 0.82257 0.795 0.0
C543 C 0.88938 0.82298 0.83837 0.0
H544 H 0.7308 0.38857 0.38288 0.0
H545 H 0.79931 0.34288 0.38675 0.0
H546 H 0.81803 0.3693 0.31717 0.0
H547 H 0.81392 0.40398 0.25185 0.0
H548 H 0.74383 0.44731 0.24469 0.0
H549 H 0.72702 0.42346 0.31929 0.0
C550 C 0.74998 0.3846 0.36911 0.0
C551 C 0.76362 0.36379 0.39001 0.0
C552 C 0.76034 0.3994 0.32822 0.0
C553 C 0.78836 0.35876 0.37123 0.0
C554 C 0.79905 0.37381 0.33134 0.0
C555 C 0.79493 0.40815 0.26644 0.0
C556 C 0.78031 0.42758 0.2426 0.0
C557 C 0.78502 0.39389 0.30882 0.0
C558 C 0.75583 0.43287 0.26268 0.0
C559 C 0.74604 0.41908 0.30521 0.0
H560 H 0.17105 0.23242 0.85756 0.0
H561 H 0.16022 0.15146 0.88018 0.0
H562 H 0.12538 0.15171 0.81608 0.0
H563 H 0.09977 0.17435 0.74944 0.0
H564 H 0.11099 0.25511 0.72599 0.0
H565 H 0.14354 0.25556 0.79521 0.0
C566 C 0.161 0.21484 0.84869 0.0
C567 C 0.16849 0.19191 0.87319 0.0
C568 C 0.141 0.21507 0.81167 0.0
C569 C 0.15499 0.16938 0.86173 0.0
C570 C 0.13507 0.16947 0.82498 0.0
C571 C 0.10929 0.19205 0.75969 0.0
C572 C 0.10308 0.21461 0.73244 0.0
C573 C 0.12821 0.19211 0.79905 0.0
C574 C 0.11525 0.23751 0.74668 0.0
C575 C 0.13402 0.23775 0.78596 0.0
H576 H 0.21126 0.66221 0.35655 0.0
H577 H 0.25389 0.60416 0.43984 0.0
H578 H 0.23921 0.57208 0.37681 0.0
H579 H 0.21787 0.56144 0.29257 0.0
H580 H 0.17799 0.62024 0.20661 0.0
H581 H 0.18765 0.65107 0.27638 0.0
C582 C 0.21709 0.64249 0.36143 0.0
C583 C 0.23388 0.63568 0.40259 0.0
C584 C 0.20909 0.62427 0.32437 0.0
C585 C 0.24118 0.60999 0.40821 0.0
C586 C 0.2328 0.59162 0.37218 0.0
C587 C 0.21086 0.58088 0.28999 0.0
C588 C 0.19718 0.5887 0.24505 0.0
C589 C 0.21727 0.59865 0.32935 0.0
C590 C 0.18849 0.61395 0.24121 0.0
C591 C 0.19411 0.63154 0.28087 0.0
H592 H 0.33433 0.66369 0.63924 0.0
H593 H 0.31587 0.74402 0.64245 0.0
H594 H 0.34905 0.75125 0.7082 0.0
H595 H 0.38133 0.73456 0.76904 0.0
H596 H 0.39937 0.6543 0.7685 0.0
H597 H 0.3688 0.64739 0.69662 0.0
C598 C 0.33767 0.68281 0.65403 0.0
C599 C 0.32232 0.70318 0.63633 0.0
C600 C 0.35676 0.68689 0.69228 0.0
C601 C 0.32712 0.72788 0.65569 0.0
C602 C 0.34615 0.73209 0.69332 0.0
C603 C 0.37862 0.71556 0.75306 0.0
C604 C 0.39239 0.69494 0.77442 0.0
C605 C 0.36073 0.71168 0.71258 0.0
C606 C 0.38909 0.67053 0.75257 0.0
C607 C 0.37146 0.66653 0.71178 0.0
H608 H 0.73974 0.89557 0.08389 0.0
H609 H 0.72158 0.82597 0.16741 0.0
H610 H 0.70399 0.85039 0.2401 0.0
H611 H 0.69705 0.89118 0.28373 0.0
H612 H 0.71536 0.96125 0.20316 0.0
H613 H 0.72913 0.9371 0.12532 0.0
C614 C 0.73164 0.8858 0.1177 0.0
C615 C 0.73242 0.85897 0.12048 0.0
C616 C 0.72166 0.90003 0.16006 0.0
C617 C 0.72168 0.84659 0.16451 0.0
C618 C 0.71154 0.86052 0.2062 0.0
C619 C 0.7039 0.90114 0.24894 0.0
C620 C 0.70553 0.92785 0.24926 0.0
C621 C 0.71202 0.88719 0.20498 0.0
C622 C 0.71395 0.94064 0.20369 0.0
C623 C 0.72197 0.92683 0.15939 0.0
H624 H 0.65752 0.34879 0.62005 0.0
H625 H 0.66372 0.26662 0.62299 0.0
H626 H 0.63014 0.26434 0.68934 0.0
H627 H 0.60164 0.28573 0.75164 0.0
H628 H 0.59578 0.36782 0.75024 0.0
H629 H 0.62676 0.37005 0.67829 0.0
C630 C 0.65134 0.33034 0.6347 0.0
C631 C 0.66334 0.30793 0.61683 0.0
C632 C 0.63227 0.32915 0.6735 0.0
C633 C 0.655 0.28421 0.63629 0.0
C634 C 0.6358 0.28286 0.67432 0.0
C635 C 0.60673 0.30409 0.7349 0.0
C636 C 0.59646 0.32658 0.75638 0.0
C637 C 0.62467 0.30523 0.69394 0.0
C638 C 0.60364 0.35025 0.73482 0.0
C639 C 0.62128 0.35152 0.6936 0.0
H640 H 0.23073 0.11929 0.12195 0.0
H641 H 0.2999 0.16399 0.1172 0.0
H642 H 0.31947 0.13576 0.183 0.0
H643 H 0.31635 0.09908 0.24357 0.0
H644 H 0.24542 0.0571 0.25251 0.0
H645 H 0.22752 0.08317 0.18232 0.0
C646 C 0.25017 0.12281 0.13494 0.0
C647 C 0.26382 0.14373 0.11468 0.0
C648 C 0.26108 0.10687 0.17337 0.0
C649 C 0.28892 0.14807 0.13235 0.0
C650 C 0.30013 0.13193 0.16992 0.0
C651 C 0.29692 0.09569 0.23053 0.0
C652 C 0.28245 0.07588 0.25348 0.0
C653 C 0.28627 0.11141 0.19113 0.0
C654 C 0.25739 0.07167 0.23508 0.0
C655 C 0.24694 0.08681 0.19519 0.0
H656 H 0.21105 0.2817 0.07157 0.0
H657 H 0.22355 0.28228 0.90304 0.0
H658 H 0.21422 0.32782 0.89991 0.0
H659 H 0.20466 0.36793 0.94541 0.0
H660 H 0.19303 0.3678 0.11399 0.0
H661 H 0.20001 0.32169 0.11672 0.0
C662 C 0.21157 0.29173 0.03409 0.0
C663 C 0.21816 0.27856 0.98767 0.0
C664 C 0.20651 0.31806 0.0326 0.0
C665 C 0.21874 0.29193 0.93947 0.0
C666 C 0.21339 0.318 0.93759 0.0
C667 C 0.2033 0.35775 0.98264 0.0
C668 C 0.19836 0.37127 0.02942 0.0
C669 C 0.20755 0.33131 0.98396 0.0
C670 C 0.19707 0.35786 0.07749 0.0
C671 C 0.20097 0.33149 0.07905 0.0
H672 H 0.16907 0.70227 0.55494 0.0
H673 H 0.19459 0.75842 0.44196 0.0
H674 H 0.15132 0.7752 0.43422 0.0
H675 H 0.10618 0.7742 0.45974 0.0
H676 H 0.07957 0.71653 0.56774 0.0
H677 H 0.12315 0.69993 0.5772 0.0
C678 C 0.16507 0.71818 0.52875 0.0
C679 C 0.18496 0.72916 0.49926 0.0
C680 C 0.13996 0.72741 0.52352 0.0
C681 C 0.17955 0.74957 0.46491 0.0
C682 C 0.15484 0.75924 0.46053 0.0
C683 C 0.11003 0.758 0.4853 0.0
C684 C 0.08994 0.74664 0.51328 0.0
C685 C 0.13492 0.74834 0.48965 0.0
C686 C 0.09489 0.72547 0.5458 0.0
C687 C 0.11975 0.71607 0.5513 0.0
H688 H 0.75091 0.71389 0.02315 0.0
H689 H 0.81777 0.73481 0.93421 0.0
H690 H 0.8315 0.68995 0.93276 0.0
H691 H 0.82486 0.64505 0.96026 0.0
H692 H 0.75545 0.62502 0.04266 0.0
H693 H 0.74262 0.66941 0.04394 0.0
C694 C 0.76854 0.70863 0.00351 0.0
C695 C 0.78354 0.72749 0.97947 0.0
C696 C 0.77594 0.68303 0.00212 0.0
C697 C 0.806 0.72047 0.95308 0.0
C698 C 0.81383 0.6949 0.95243 0.0
C699 C 0.8068 0.65032 0.97795 0.0
C700 C 0.79154 0.6316 0.00255 0.0
C701 C 0.79901 0.67602 0.97723 0.0
C702 C 0.76815 0.63896 0.02519 0.0
C703 C 0.76057 0.66437 0.02548 0.0
H704 H 0.81037 0.27242 0.43008 0.0
H705 H 0.80879 0.27916 0.60001 0.0
H706 H 0.85392 0.26772 0.60456 0.0
H707 H 0.89394 0.25606 0.56026 0.0
H708 H 0.89568 0.25014 0.39042 0.0
H709 H 0.85035 0.26113 0.38584 0.0
C710 C 0.81984 0.27129 0.46816 0.0
C711 C 0.80614 0.2765 0.51463 0.0
C712 C 0.84584 0.26492 0.4705 0.0
C713 C 0.81884 0.27523 0.56359 0.0
C714 C 0.84465 0.26866 0.56627 0.0
C715 C 0.8843 0.25699 0.52232 0.0
C716 C 0.89805 0.25224 0.47576 0.0
C717 C 0.85833 0.26346 0.51999 0.0
C718 C 0.8855 0.25391 0.42676 0.0
C719 C 0.85959 0.26009 0.42414 0.0
H720 H 0.71337 0.21769 0.56567 0.0
H721 H 0.70695 0.22806 0.39693 0.0
H722 H 0.69621 0.18298 0.38647 0.0
H723 H 0.69067 0.14014 0.42501 0.0
H724 H 0.69718 0.13015 0.59371 0.0
H725 H 0.70562 0.17564 0.60444 0.0
C726 C 0.70956 0.21013 0.52657 0.0
C727 C 0.71127 0.22616 0.48212 0.0
C728 C 0.70341 0.18426 0.52083 0.0
C729 C 0.70588 0.21613 0.43183 0.0
C730 C 0.6998 0.19033 0.42578 0.0
C731 C 0.69392 0.14799 0.46407 0.0
C732 C 0.6934 0.13183 0.50847 0.0
C733 C 0.69886 0.17415 0.46994 0.0
C734 C 0.69726 0.14225 0.55897 0.0
C735 C 0.70224 0.16822 0.56511 0.0
H736 H 0.306 0.25705 0.03287 0.0
H737 H 0.32184 0.19506 0.92603 0.0
H738 H 0.36701 0.20717 0.92409 0.0
H739 H 0.402 0.23558 0.95307 0.0
H740 H 0.38523 0.29904 0.05519 0.0
H741 H 0.34032 0.2862 0.05887 0.0
C742 C 0.31936 0.24613 0.00931 0.0
C743 C 0.3107 0.22509 0.97994 0.0
C744 C 0.34507 0.2535 0.00758 0.0
C745 C 0.32811 0.21136 0.94891 0.0
C746 C 0.3539 0.21824 0.9479 0.0
C747 C 0.38842 0.24646 0.97616 0.0
C748 C 0.39671 0.26808 0.00409 0.0
C749 C 0.3626 0.23927 0.97712 0.0
C750 C 0.3791 0.28235 0.03339 0.0
C751 C 0.35351 0.275 0.03554 0.0
H752 H 0.27449 0.78675 0.57071 0.0
H753 H 0.28805 0.7744 0.4046 0.0
H754 H 0.30095 0.81891 0.39431 0.0
H755 H 0.30672 0.86184 0.43184 0.0
H756 H 0.29375 0.87387 0.5981 0.0
H757 H 0.2826 0.82891 0.60911 0.0
C758 C 0.28027 0.79378 0.53224 0.0
C759 C 0.27997 0.77735 0.48838 0.0
C760 C 0.28785 0.81933 0.52665 0.0
C761 C 0.28796 0.78666 0.43899 0.0
C762 C 0.29532 0.81213 0.43303 0.0
C763 C 0.30149 0.85455 0.47046 0.0
C764 C 0.30094 0.87114 0.51404 0.0
C765 C 0.29506 0.8287 0.47647 0.0
C766 C 0.29451 0.86142 0.56403 0.0
C767 C 0.28796 0.83577 0.57028 0.0
H768 H 0.67253 0.80339 0.04196 0.0
H769 H 0.69864 0.73519 0.96411 0.0
H770 H 0.65544 0.7175 0.96648 0.0
H771 H 0.61045 0.72157 0.99019 0.0
H772 H 0.58322 0.79205 0.05821 0.0
H773 H 0.62668 0.80837 0.06134 0.0
C774 C 0.66866 0.78463 0.0258 0.0
C775 C 0.68856 0.77052 0.00311 0.0
C776 C 0.64364 0.77494 0.02575 0.0
C777 C 0.68346 0.74638 0.98158 0.0
C778 C 0.65882 0.73627 0.98301 0.0
C779 C 0.61379 0.74068 0.00492 0.0
C780 C 0.59331 0.75536 0.02418 0.0
C781 C 0.63873 0.75046 0.00466 0.0
C782 C 0.59847 0.7799 0.0442 0.0
C783 C 0.62337 0.78945 0.04557 0.0
loop_
_geom_bond_atom_site_label_1
_geom_bond_atom_site_label_2
_geom_bond_distance
_geom_bond_site_symmetry_2
_ccdc_geom_bond_type
Fe0 O2 1.918 . S
Fe0 O5 1.997 . S
Fe0 O6 2.002 . S
Fe0 O11 1.976 . S
Fe0 O14 1.996 . S
Fe1 O2 1.918 1_556 S
Fe1 O9 1.997 . S
Fe1 O12 1.996 . S
Fe1 O16 1.976 . S
Fe1 O19 2.002 . S
O2 Fe0 1.918 . S
O2 Fe1 1.918 1_554 S
O2 Fe3 1.918 . S
Fe3 O2 1.918 . S
Fe3 O4 2.012 . S
Fe3 O13 1.986 . S
Fe3 O17 1.985 1_554 S
Fe3 O20 1.986 1_554 S
O4 Fe3 2.012 . S
O4 C21 1.295 . S
O5 Fe0 1.997 . S
O5 C21 1.235 . S
O6 Fe0 2.002 . S
O6 C7 1.295 . S
C7 O6 1.295 . S
C7 O9 1.235 1_554 S
C8 O13 1.287 . S
C8 O14 1.255 . S
O9 Fe1 1.997 . S
O9 C7 1.235 1_556 S
C10 O16 1.287 . S
C10 O17 1.255 . S
O11 Fe0 1.976 . S
O11 C18 1.280 1_554 S
O12 Fe1 1.996 . S
O12 C18 1.261 . S
O13 Fe3 1.986 . S
O13 C8 1.287 . S
O14 Fe0 1.996 . S
O14 C8 1.255 . S
C15 O19 1.295 . S
C15 O20 1.235 . S
O16 Fe1 1.976 . S
O16 C10 1.287 . S
O17 Fe3 1.985 1_556 S
O17 C10 1.255 . S
C18 O11 1.280 1_556 S
C18 O12 1.261 . S
O19 Fe1 2.002 . S
O19 C15 1.295 . S
O20 Fe3 1.986 1_556 S
O20 C15 1.235 . S
C21 O4 1.295 . S
C21 O5 1.235 . S
Fe22 O24 1.918 . S
Fe22 O27 1.997 . S
Fe22 O28 2.002 . S
Fe22 O33 1.976 . S
Fe22 O36 1.996 . S
Fe23 O24 1.918 . S
Fe23 O31 1.997 . S
Fe23 O34 1.996 . S
Fe23 O38 1.976 . S
Fe23 O41 2.002 . S
O24 Fe22 1.918 . S
O24 Fe23 1.918 . S
O24 Fe25 1.918 . S
Fe25 O24 1.918 . S
Fe25 O26 2.002 . S
Fe25 O35 1.976 . S
Fe25 O39 1.996 . S
Fe25 O42 1.997 . S
O26 Fe25 2.002 . S
O26 C43 1.295 . S
O27 Fe22 1.997 . S
O27 C43 1.235 . S
O28 Fe22 2.002 . S
O28 C29 1.295 . S
C29 O28 1.295 . S
C29 O31 1.235 . S
C30 O35 1.287 . S
C30 O36 1.255 . S
O31 Fe23 1.997 . S
O31 C29 1.235 . S
C32 O38 1.287 . S
C32 O39 1.255 . S
O33 Fe22 1.976 . S
O33 C40 1.287 . S
O34 Fe23 1.996 . S
O34 C40 1.255 . S
O35 Fe25 1.976 . S
O35 C30 1.287 . S
O36 Fe22 1.996 . S
O36 C30 1.255 . S
C37 O41 1.295 . S
C37 O42 1.235 . S
O38 Fe23 1.976 . S
O38 C32 1.287 . S
O39 Fe25 1.996 . S
O39 C32 1.255 . S
C40 O33 1.287 . S
C40 O34 1.255 . S
O41 Fe23 2.002 . S
O41 C37 1.295 . S
O42 Fe25 1.997 . S
O42 C37 1.235 . S
C43 O26 1.295 . S
C43 O27 1.235 . S
Fe44 O46 1.901 1_556 S
Fe44 O49 1.997 . S
Fe44 O50 2.002 . S
Fe44 O55 1.976 . S
Fe44 O58 1.996 . S
Fe45 O46 1.935 . S
Fe45 O53 1.997 . S
Fe45 O56 1.996 . S
Fe45 O60 1.976 . S
Fe45 O63 2.002 . S
O46 Fe44 1.901 1_554 S
O46 Fe45 1.935 . S
O46 Fe47 1.918 . S
Fe47 O46 1.918 . S
Fe47 O48 2.002 1_554 S
Fe47 O57 1.976 1_554 S
Fe47 O61 1.996 . S
Fe47 O64 1.997 . S
O48 Fe47 2.002 1_556 S
O48 C65 1.295 . S
O49 Fe44 1.997 . S
O49 C65 1.235 . S
O50 Fe44 2.002 . S
O50 C51 1.305 . S
C51 O50 1.305 . S
C51 O53 1.226 1_556 S
C52 O57 1.287 . S
C52 O58 1.255 . S
O53 Fe45 1.997 . S
O53 C51 1.226 1_554 S
C54 O60 1.287 . S
C54 O61 1.255 . S
O55 Fe44 1.976 . S
O55 C62 1.287 1_556 S
O56 Fe45 1.996 . S
O56 C62 1.255 . S
O57 Fe47 1.976 1_556 S
O57 C52 1.287 . S
O58 Fe44 1.996 . S
O58 C52 1.255 . S
C59 O63 1.295 . S
C59 O64 1.235 . S
O60 Fe45 1.976 . S
O60 C54 1.287 . S
O61 Fe47 1.996 . S
O61 C54 1.255 . S
C62 O55 1.287 1_554 S
C62 O56 1.255 . S
O63 Fe45 2.002 . S
O63 C59 1.295 . S
O64 Fe47 1.997 . S
O64 C59 1.235 . S
C65 O48 1.295 . S
C65 O49 1.235 . S
Fe66 O68 1.918 . S
Fe66 O71 1.997 . S
Fe66 O72 2.002 . S
Fe66 O77 1.976 . S
Fe66 O80 1.996 . S
Fe67 O68 1.918 . S
Fe67 O75 1.997 . S
Fe67 O78 1.996 . S
Fe67 O82 1.976 . S
Fe67 O85 2.002 . S
O68 Fe66 1.918 . S
O68 Fe67 1.918 . S
O68 Fe69 1.918 . S
Fe69 O68 1.918 . S
Fe69 O70 2.002 . S
Fe69 O79 1.976 . S
Fe69 O83 1.996 . S
Fe69 O86 1.997 . S
O70 Fe69 2.002 . S
O70 C87 1.295 . S
O71 Fe66 1.997 . S
O71 C87 1.235 . S
O72 Fe66 2.002 . S
O72 C73 1.295 . S
C73 O72 1.295 . S
C73 O75 1.235 . S
C74 O79 1.287 . S
C74 O80 1.255 . S
O75 Fe67 1.997 . S
O75 C73 1.235 . S
C76 O82 1.287 . S
C76 O83 1.255 . S
O77 Fe66 1.976 . S
O77 C84 1.287 . S
O78 Fe67 1.996 . S
O78 C84 1.255 . S
O79 Fe69 1.976 . S
O79 C74 1.287 . S
O80 Fe66 1.996 . S
O80 C74 1.255 . S
C81 O85 1.295 . S
C81 O86 1.235 . S
O82 Fe67 1.976 . S
O82 C76 1.287 . S
O83 Fe69 1.996 . S
O83 C76 1.255 . S
C84 O77 1.287 . S
C84 O78 1.255 . S
O85 Fe67 2.002 . S
O85 C81 1.295 . S
O86 Fe69 1.997 . S
O86 C81 1.235 . S
C87 O70 1.295 . S
C87 O71 1.235 . S
C88 C89 1.386 . S
C88 C90 1.397 . S
C88 H112 0.931 . S
C89 C88 1.386 . S
C89 C93 1.397 . S
C90 C88 1.397 . S
C90 C91 1.384 . S
C90 H113 0.930 . S
C91 C90 1.384 . S
C91 C92 1.377 . S
C91 C94 1.481 . S
C92 C91 1.377 . S
C92 C93 1.389 . S
C92 H114 0.929 . S
C93 C89 1.397 . S
C93 C92 1.389 . S
C93 H115 0.931 . S
C94 C91 1.481 . S
C94 C95 1.387 . S
C94 C99 1.390 1_556 S
C95 C94 1.387 . S
C95 C96 1.401 1_556 S
C95 H116 0.930 . S
C96 C95 1.401 1_554 S
C96 C97 1.376 . S
C96 C105 1.511 . S
C97 C96 1.376 . S
C97 C98 1.392 . S
C97 H118 0.931 . S
C98 C97 1.392 . S
C98 C99 1.361 . S
C98 C100 1.500 . S
C99 C94 1.390 1_554 S
C99 C98 1.361 . S
C99 H117 0.931 . S
C100 C98 1.500 . S
C100 C101 1.371 . S
C100 C102 1.365 . S
C101 C100 1.371 . S
C101 C111 1.386 . S
C101 H119 0.931 . S
C102 C100 1.365 . S
C102 C103 1.409 . S
C102 H120 0.929 . S
C103 C102 1.409 . S
C103 C104 1.380 . S
C103 H121 0.930 . S
C104 C103 1.380 . S
C104 C111 1.357 . S
C105 C96 1.511 . S
C105 C106 1.341 1_554 S
C105 C107 1.371 . S
C106 C105 1.341 1_556 S
C106 C110 1.394 . S
C106 H122 0.930 . S
C107 C105 1.371 . S
C107 C108 1.392 . S
C107 H123 0.931 . S
C108 C107 1.392 . S
C108 C109 1.331 . S
C108 H126 0.932 . S
C109 C108 1.331 . S
C109 C110 1.336 1_554 S
C110 C106 1.394 . S
C110 C109 1.336 1_556 S
C110 H125 0.929 . S
C111 C101 1.386 . S
C111 C104 1.357 . S
C111 H124 0.928 . S
H112 C88 0.931 . S
H113 C90 0.930 . S
H114 C92 0.929 . S
H115 C93 0.931 . S
H116 C95 0.930 . S
H117 C99 0.931 . S
H118 C97 0.931 . S
H119 C101 0.931 . S
H120 C102 0.929 . S
H121 C103 0.930 . S
H122 C106 0.930 . S
H123 C107 0.931 . S
H124 C111 0.928 . S
H125 C110 0.929 . S
H126 C108 0.932 . S
C127 C128 1.386 . S
C127 C129 1.397 . S
C127 H151 0.931 . S
C128 C127 1.386 . S
C128 C132 1.397 . S
C129 C127 1.397 . S
C129 C130 1.384 . S
C129 H152 0.930 . S
C130 C129 1.384 . S
C130 C131 1.377 . S
C130 C133 1.481 . S
C131 C130 1.377 . S
C131 C132 1.389 . S
C131 H153 0.929 . S
C132 C128 1.397 . S
C132 C131 1.389 . S
C132 H154 0.931 . S
C133 C130 1.481 . S
C133 C134 1.387 . S
C133 C138 1.390 . S
C134 C133 1.387 . S
C134 C135 1.401 1_655 S
C134 H155 0.944 . S
C135 C134 1.401 1_455 S
C135 C136 1.376 1_455 S
C135 C144 1.511 . S
C136 C135 1.376 1_655 S
C136 C137 1.392 . S
C136 H157 0.931 . S
C137 C136 1.392 . S
C137 C138 1.361 . S
C137 C139 1.500 . S
C138 C133 1.390 . S
C138 C137 1.361 . S
C138 H156 0.931 . S
C139 C137 1.500 . S
C139 C140 1.371 . S
C139 C141 1.365 . S
C140 C139 1.371 . S
C140 C150 1.386 . S
C140 H158 0.931 . S
C141 C139 1.365 . S
C141 C142 1.409 . S
C141 H159 0.929 . S
C142 C141 1.409 . S
C142 C143 1.380 . S
C142 H160 0.930 . S
C143 C142 1.380 . S
C143 C150 1.357 . S
C144 C135 1.511 . S
C144 C145 1.341 . S
C144 C146 1.371 . S
C145 C144 1.341 . S
C145 C149 1.394 . S
C145 H161 0.930 . S
C146 C144 1.371 . S
C146 C147 1.392 . S
C146 H162 0.931 . S
C147 C146 1.392 . S
C147 C148 1.331 . S
C147 H165 0.932 . S
C148 C147 1.331 . S
C148 C149 1.336 . S
C149 C145 1.394 . S
C149 C148 1.336 . S
C149 H164 0.929 . S
C150 C140 1.386 . S
C150 C143 1.357 . S
C150 H163 0.928 . S
H151 C127 0.931 . S
H152 C129 0.930 . S
H153 C131 0.929 . S
H154 C132 0.931 . S
H155 C134 0.944 . S
H156 C138 0.931 . S
H157 C136 0.931 . S
H158 C140 0.931 . S
H159 C141 0.929 . S
H160 C142 0.930 . S
H161 C145 0.930 . S
H162 C146 0.931 . S
H163 C150 0.928 . S
H164 C149 0.929 . S
H165 C147 0.932 . S
C166 C167 1.386 . S
C166 C168 1.397 . S
C166 H190 0.931 . S
C167 C166 1.386 . S
C167 C171 1.397 . S
C168 C166 1.397 . S
C168 C169 1.384 . S
C168 H191 0.930 . S
C169 C168 1.384 . S
C169 C170 1.377 . S
C169 C172 1.481 . S
C170 C169 1.377 . S
C170 C171 1.389 . S
C170 H192 0.929 . S
C171 C167 1.397 . S
C171 C170 1.389 . S
C171 H193 0.931 . S
C172 C169 1.481 . S
C172 C173 1.387 . S
C172 C177 1.396 . S
C173 C172 1.387 . S
C173 C174 1.386 1_554 S
C173 H194 0.930 . S
C174 C173 1.386 1_556 S
C174 C175 1.391 . S
C174 C183 1.511 . S
C175 C174 1.391 . S
C175 C176 1.392 . S
C175 H196 0.931 . S
C176 C175 1.392 . S
C176 C177 1.355 1_556 S
C176 C178 1.500 . S
C177 C172 1.396 . S
C177 C176 1.355 1_554 S
C177 H195 0.931 . S
C178 C176 1.500 . S
C178 C179 1.371 . S
C178 C180 1.365 . S
C179 C178 1.371 . S
C179 C189 1.386 . S
C179 H197 0.931 . S
C180 C178 1.365 . S
C180 C181 1.409 . S
C180 H198 0.929 . S
C181 C180 1.409 . S
C181 C182 1.380 . S
C181 H199 0.930 . S
C182 C181 1.380 . S
C182 C189 1.357 . S
C183 C174 1.511 . S
C183 C184 1.331 1_556 S
C183 C185 1.381 . S
C184 C183 1.331 1_554 S
C184 C188 1.394 . S
C184 H200 0.930 . S
C185 C183 1.381 . S
C185 C186 1.392 . S
C185 H201 0.931 . S
C186 C185 1.392 . S
C186 C187 1.320 1_556 S
C186 H204 0.932 . S
C187 C186 1.320 1_554 S
C187 C188 1.347 . S
C188 C184 1.394 . S
C188 C187 1.347 . S
C188 H203 0.929 . S
C189 C179 1.386 . S
C189 C182 1.357 . S
C189 H202 0.928 . S
H190 C166 0.931 . S
H191 C168 0.930 . S
H192 C170 0.929 . S
H193 C171 0.931 . S
H194 C173 0.930 . S
H195 C177 0.931 . S
H196 C175 0.931 . S
H197 C179 0.931 . S
H198 C180 0.929 . S
H199 C181 0.930 . S
H200 C184 0.930 . S
H201 C185 0.931 . S
H202 C189 0.928 . S
H203 C188 0.929 . S
H204 C186 0.932 . S
C205 C206 1.386 . S
C205 C207 1.397 . S
C205 H229 0.931 . S
C206 C205 1.386 . S
C206 C210 1.397 . S
C207 C205 1.397 . S
C207 C208 1.384 . S
C207 H230 0.930 . S
C208 C207 1.384 . S
C208 C209 1.377 . S
C208 C211 1.481 . S
C209 C208 1.377 . S
C209 C210 1.389 . S
C209 H231 0.929 . S
C210 C206 1.397 . S
C210 C209 1.389 . S
C210 H232 0.931 . S
C211 C208 1.481 . S
C211 C212 1.387 . S
C211 C216 1.390 . S
C212 C211 1.387 . S
C212 C213 1.401 1_455 S
C212 H233 0.930 1_455 S
C213 C212 1.401 1_655 S
C213 C214 1.376 1_655 S
C213 C222 1.511 . S
C214 C213 1.376 1_455 S
C214 C215 1.392 . S
C214 H235 0.931 1_455 S
C215 C214 1.392 . S
C215 C216 1.361 . S
C215 C217 1.500 . S
C216 C211 1.390 . S
C216 C215 1.361 . S
C216 H234 0.931 . S
C217 C215 1.500 . S
C217 C218 1.371 . S
C217 C219 1.365 . S
C218 C217 1.371 . S
C218 C228 1.386 . S
C218 H236 0.931 . S
C219 C217 1.365 . S
C219 C220 1.409 . S
C219 H237 0.929 . S
C220 C219 1.409 . S
C220 C221 1.380 . S
C220 H238 0.930 . S
C221 C220 1.380 . S
C221 C228 1.357 . S
C222 C213 1.511 . S
C222 C223 1.341 . S
C222 C224 1.371 . S
C223 C222 1.341 . S
C223 C227 1.394 . S
C223 H239 0.930 . S
C224 C222 1.371 . S
C224 C225 1.392 . S
C224 H240 0.931 . S
C225 C224 1.392 . S
C225 C226 1.331 . S
C225 H243 0.932 . S
C226 C225 1.331 . S
C226 C227 1.336 . S
C227 C223 1.394 . S
C227 C226 1.336 . S
C227 H242 0.929 . S
C228 C218 1.386 . S
C228 C221 1.357 . S
C228 H241 0.928 . S
H229 C205 0.931 . S
H230 C207 0.930 . S
H231 C209 0.929 . S
H232 C210 0.931 . S
H233 C212 0.930 1_655 S
H234 C216 0.931 . S
H235 C214 0.931 1_655 S
H236 C218 0.931 . S
H237 C219 0.929 . S
H238 C220 0.930 . S
H239 C223 0.930 . S
H240 C224 0.931 . S
H241 C228 0.928 . S
H242 C227 0.929 . S
H243 C225 0.932 . S
C244 C245 1.386 . S
C244 C246 1.397 . S
C244 H268 0.931 . S
C245 C244 1.386 . S
C245 C249 1.397 . S
C246 C244 1.397 . S
C246 C247 1.384 . S
C246 H269 0.930 . S
C247 C246 1.384 . S
C247 C248 1.377 . S
C247 C250 1.481 . S
C248 C247 1.377 . S
C248 C249 1.389 . S
C248 H270 0.929 . S
C249 C245 1.397 . S
C249 C248 1.389 . S
C249 H271 0.931 . S
C250 C247 1.481 . S
C250 C251 1.387 1_565 S
C250 C255 1.390 . S
C251 C250 1.387 1_545 S
C251 C252 1.401 . S
C251 H272 0.930 . S
C252 C251 1.401 . S
C252 C253 1.376 . S
C252 C261 1.511 . S
C253 C252 1.376 . S
C253 C254 1.392 1_545 S
C253 H274 0.931 . S
C254 C253 1.392 1_565 S
C254 C255 1.361 . S
C254 C256 1.500 . S
C255 C250 1.390 . S
C255 C254 1.361 . S
C255 H273 0.931 . S
C256 C254 1.500 . S
C256 C257 1.371 . S
C256 C258 1.365 . S
C257 C256 1.371 . S
C257 C267 1.386 . S
C257 H275 0.931 . S
C258 C256 1.365 . S
C258 C259 1.409 . S
C258 H276 0.929 . S
C259 C258 1.409 . S
C259 C260 1.380 . S
C259 H277 0.930 . S
C260 C259 1.380 . S
C260 C267 1.357 . S
C261 C252 1.511 . S
C261 C262 1.341 . S
C261 C263 1.371 . S
C262 C261 1.341 . S
C262 C266 1.394 . S
C262 H278 0.930 . S
C263 C261 1.371 . S
C263 C264 1.392 . S
C263 H279 0.931 . S
C264 C263 1.392 . S
C264 C265 1.331 . S
C264 H282 0.932 . S
C265 C264 1.331 . S
C265 C266 1.336 . S
C266 C262 1.394 . S
C266 C265 1.336 . S
C266 H281 0.929 . S
C267 C257 1.386 . S
C267 C260 1.357 . S
C267 H280 0.928 . S
H268 C244 0.931 . S
H269 C246 0.930 . S
H270 C248 0.929 . S
H271 C249 0.931 . S
H272 C251 0.930 . S
H273 C255 0.931 . S
H274 C253 0.931 . S
H275 C257 0.931 . S
H276 C258 0.929 . S
H277 C259 0.930 . S
H278 C262 0.930 . S
H279 C263 0.931 . S
H280 C267 0.928 . S
H281 C266 0.929 . S
H282 C264 0.932 . S
C283 C284 1.386 . S
C283 C285 1.397 . S
C283 H307 0.931 . S
C284 C283 1.386 . S
C284 C288 1.397 . S
C285 C283 1.397 . S
C285 C286 1.384 . S
C285 H308 0.930 . S
C286 C285 1.384 . S
C286 C287 1.377 . S
C286 C289 1.481 . S
C287 C286 1.377 . S
C287 C288 1.389 . S
C287 H309 0.929 . S
C288 C284 1.397 . S
C288 C287 1.389 . S
C288 H310 0.931 . S
C289 C286 1.481 . S
C289 C290 1.387 . S
C289 C294 1.387 1_554 S
C290 C289 1.387 . S
C290 C291 1.401 1_554 S
C290 H311 0.930 . S
C291 C290 1.401 1_556 S
C291 C292 1.376 . S
C291 C300 1.511 . S
C292 C291 1.376 . S
C292 C293 1.392 . S
C292 H313 0.931 . S
C293 C292 1.392 . S
C293 C294 1.365 . S
C293 C295 1.500 . S
C294 C289 1.387 1_556 S
C294 C293 1.365 . S
C294 H312 0.931 . S
C295 C293 1.500 . S
C295 C296 1.371 . S
C295 C297 1.365 . S
C296 C295 1.371 . S
C296 C306 1.386 . S
C296 H314 0.931 . S
C297 C295 1.365 . S
C297 C298 1.409 . S
C297 H315 0.929 . S
C298 C297 1.409 . S
C298 C299 1.380 . S
C298 H316 0.930 . S
C299 C298 1.380 . S
C299 C306 1.357 . S
C300 C291 1.511 . S
C300 C301 1.341 1_556 S
C300 C302 1.371 . S
C301 C300 1.341 1_554 S
C301 C305 1.394 . S
C301 H317 0.930 . S
C302 C300 1.371 . S
C302 C303 1.392 . S
C302 H318 0.931 . S
C303 C302 1.392 . S
C303 C304 1.331 1_556 S
C303 H321 0.932 . S
C304 C303 1.331 1_554 S
C304 C305 1.336 . S
C305 C301 1.394 . S
C305 C304 1.336 . S
C305 H320 0.929 . S
C306 C296 1.386 . S
C306 C299 1.357 . S
C306 H319 0.928 . S
H307 C283 0.931 . S
H308 C285 0.930 . S
H309 C287 0.929 . S
H310 C288 0.931 . S
H311 C290 0.930 . S
H312 C294 0.931 . S
H313 C292 0.931 . S
H314 C296 0.931 . S
H315 C297 0.929 . S
H316 C298 0.930 . S
H317 C301 0.930 . S
H318 C302 0.931 . S
H319 C306 0.928 . S
H320 C305 0.929 . S
H321 C303 0.932 . S
C322 C323 1.386 . S
C322 C324 1.397 . S
C322 H346 0.931 . S
C323 C322 1.386 . S
C323 C327 1.397 . S
C324 C322 1.397 . S
C324 C325 1.384 . S
C324 H347 0.930 . S
C325 C324 1.384 . S
C325 C326 1.377 . S
C325 C328 1.481 . S
C326 C325 1.377 . S
C326 C327 1.389 . S
C326 H348 0.929 . S
C327 C323 1.397 . S
C327 C326 1.389 . S
C327 H349 0.931 . S
C328 C325 1.481 . S
C328 C329 1.355 1_545 S
C328 C333 1.390 . S
C329 C328 1.355 1_565 S
C329 C330 1.417 . S
C329 H350 0.947 . S
C330 C329 1.417 . S
C330 C331 1.382 . S
C330 C339 1.511 . S
C331 C330 1.382 . S
C331 C332 1.382 1_565 S
C331 H352 0.936 . S
C332 C331 1.382 1_545 S
C332 C333 1.361 . S
C332 C334 1.500 . S
C333 C328 1.390 . S
C333 C332 1.361 . S
C333 H351 0.931 . S
C334 C332 1.500 . S
C334 C335 1.371 . S
C334 C336 1.365 . S
C335 C334 1.371 . S
C335 C345 1.386 . S
C335 H353 0.931 . S
C336 C334 1.365 . S
C336 C337 1.409 . S
C336 H354 0.929 . S
C337 C336 1.409 . S
C337 C338 1.380 . S
C337 H355 0.930 . S
C338 C337 1.380 . S
C338 C345 1.357 . S
C339 C330 1.511 . S
C339 C340 1.341 . S
C339 C341 1.371 . S
C340 C339 1.341 . S
C340 C344 1.394 . S
C340 H356 0.930 . S
C341 C339 1.371 . S
C341 C342 1.392 . S
C341 H357 0.931 . S
C342 C341 1.392 . S
C342 C343 1.331 . S
C342 H360 0.932 . S
C343 C342 1.331 . S
C343 C344 1.336 . S
C344 C340 1.394 . S
C344 C343 1.336 . S
C344 H359 0.929 . S
C345 C335 1.386 . S
C345 C338 1.357 . S
C345 H358 0.928 . S
H346 C322 0.931 . S
H347 C324 0.930 . S
H348 C326 0.929 . S
H349 C327 0.931 . S
H350 C329 0.947 . S
H351 C333 0.931 . S
H352 C331 0.936 . S
H353 C335 0.931 . S
H354 C336 0.929 . S
H355 C337 0.930 . S
H356 C340 0.930 . S
H357 C341 0.931 . S
H358 C345 0.928 . S
H359 C344 0.929 . S
H360 C342 0.932 . S
C361 C362 1.386 . S
C361 C363 1.397 . S
C361 H385 0.931 . S
C362 C361 1.386 . S
C362 C366 1.397 . S
C363 C361 1.397 . S
C363 C364 1.384 . S
C363 H386 0.930 . S
C364 C363 1.384 . S
C364 C365 1.377 . S
C364 C367 1.481 . S
C365 C364 1.377 . S
C365 C366 1.389 . S
C365 H387 0.929 . S
C366 C362 1.397 . S
C366 C365 1.389 . S
C366 H388 0.931 . S
C367 C364 1.481 . S
C367 C368 1.387 . S
C367 C372 1.390 1_556 S
C368 C367 1.387 . S
C368 C369 1.401 1_556 S
C368 H389 0.930 . S
C369 C368 1.401 1_554 S
C369 C370 1.376 . S
C369 C378 1.511 . S
C370 C369 1.376 . S
C370 C371 1.392 . S
C370 H391 0.931 . S
C371 C370 1.392 . S
C371 C372 1.361 . S
C371 C373 1.500 . S
C372 C367 1.390 1_554 S
C372 C371 1.361 . S
C372 H390 0.931 . S
C373 C371 1.500 . S
C373 C374 1.371 . S
C373 C375 1.365 . S
C374 C373 1.371 . S
C374 C384 1.386 . S
C374 H392 0.931 . S
C375 C373 1.365 . S
C375 C376 1.409 . S
C375 H393 0.929 . S
C376 C375 1.409 . S
C376 C377 1.380 . S
C376 H394 0.930 . S
C377 C376 1.380 . S
C377 C384 1.357 . S
C378 C369 1.511 . S
C378 C379 1.341 1_554 S
C378 C380 1.371 . S
C379 C378 1.341 1_556 S
C379 C383 1.394 . S
C379 H395 0.930 . S
C380 C378 1.371 . S
C380 C381 1.392 . S
C380 H396 0.931 . S
C381 C380 1.392 . S
C381 C382 1.331 . S
C381 H399 0.932 . S
C382 C381 1.331 . S
C382 C383 1.336 1_554 S
C383 C379 1.394 . S
C383 C382 1.336 1_556 S
C383 H398 0.929 . S
C384 C374 1.386 . S
C384 C377 1.357 . S
C384 H397 0.928 . S
H385 C361 0.931 . S
H386 C363 0.930 . S
H387 C365 0.929 . S
H388 C366 0.931 . S
H389 C368 0.930 . S
H390 C372 0.931 . S
H391 C370 0.931 . S
H392 C374 0.931 . S
H393 C375 0.929 . S
H394 C376 0.930 . S
H395 C379 0.930 . S
H396 C380 0.931 . S
H397 C384 0.928 . S
H398 C383 0.929 . S
H399 C381 0.932 . S
H400 C406 0.930 . S
H401 C409 0.930 . S
H402 C410 0.930 . S
H403 C411 0.930 . S
H404 C414 0.930 . S
H405 C415 0.930 . S
C406 H400 0.930 . S
C406 C407 1.355 . S
C406 C408 1.415 . S
C407 C406 1.355 . S
C407 C409 1.419 . S
C408 C406 1.415 . S
C408 C413 1.425 . S
C408 C415 1.409 . S
C409 H401 0.930 . S
C409 C407 1.419 . S
C409 C410 1.362 . S
C410 H402 0.930 . S
C410 C409 1.362 . S
C410 C413 1.409 . S
C411 H403 0.930 . S
C411 C412 1.355 . S
C411 C413 1.415 . S
C412 C411 1.355 . S
C412 C414 1.419 . S
C413 C408 1.425 . S
C413 C410 1.409 . S
C413 C411 1.415 . S
C414 H404 0.930 . S
C414 C412 1.419 . S
C414 C415 1.362 . S
C415 H405 0.930 . S
C415 C408 1.409 . S
C415 C414 1.362 . S
H416 C422 0.930 . S
H417 C425 0.930 . S
H418 C426 0.930 . S
H419 C427 0.930 . S
H420 C430 0.930 . S
H421 C431 0.930 . S
C422 H416 0.930 . S
C422 C423 1.355 . S
C422 C424 1.415 . S
C423 C422 1.355 . S
C423 C425 1.419 . S
C424 C422 1.415 . S
C424 C429 1.425 . S
C424 C431 1.409 . S
C425 H417 0.930 . S
C425 C423 1.419 . S
C425 C426 1.362 . S
C426 H418 0.930 . S
C426 C425 1.362 . S
C426 C429 1.409 . S
C427 H419 0.930 . S
C427 C428 1.355 . S
C427 C429 1.415 . S
C428 C427 1.355 . S
C428 C430 1.419 . S
C429 C424 1.425 . S
C429 C426 1.409 . S
C429 C427 1.415 . S
C430 H420 0.930 . S
C430 C428 1.419 . S
C430 C431 1.362 . S
C431 H421 0.930 . S
C431 C424 1.409 . S
C431 C430 1.362 . S
H432 C438 0.930 . S
H433 C441 0.930 . S
H434 C442 0.930 . S
H435 C443 0.930 . S
H436 C446 0.930 . S
H437 C447 0.930 . S
C438 H432 0.930 . S
C438 C439 1.355 . S
C438 C440 1.415 . S
C439 C438 1.355 . S
C439 C441 1.419 . S
C440 C438 1.415 . S
C440 C445 1.425 . S
C440 C447 1.409 . S
C441 H433 0.930 . S
C441 C439 1.419 . S
C441 C442 1.362 . S
C442 H434 0.930 . S
C442 C441 1.362 . S
C442 C445 1.409 . S
C443 H435 0.930 . S
C443 C444 1.355 . S
C443 C445 1.415 . S
C444 C443 1.355 . S
C444 C446 1.419 . S
C445 C440 1.425 . S
C445 C442 1.409 . S
C445 C443 1.415 . S
C446 H436 0.930 . S
C446 C444 1.419 . S
C446 C447 1.362 . S
C447 H437 0.930 . S
C447 C440 1.409 . S
C447 C446 1.362 . S
H448 C454 0.930 . S
H449 C457 0.930 . S
H450 C458 0.930 . S
H451 C459 0.930 . S
H452 C462 0.930 . S
H453 C463 0.930 . S
C454 H448 0.930 . S
C454 C455 1.355 . S
C454 C456 1.415 . S
C455 C454 1.355 . S
C455 C457 1.419 . S
C456 C454 1.415 . S
C456 C461 1.425 . S
C456 C463 1.409 . S
C457 H449 0.930 . S
C457 C455 1.419 . S
C457 C458 1.362 . S
C458 H450 0.930 . S
C458 C457 1.362 . S
C458 C461 1.409 . S
C459 H451 0.930 . S
C459 C460 1.355 . S
C459 C461 1.415 . S
C460 C459 1.355 . S
C460 C462 1.419 . S
C461 C456 1.425 . S
C461 C458 1.409 . S
C461 C459 1.415 . S
C462 H452 0.930 . S
C462 C460 1.419 . S
C462 C463 1.362 . S
C463 H453 0.930 . S
C463 C456 1.409 . S
C463 C462 1.362 . S
H464 C470 0.930 . S
H465 C473 0.930 . S
H466 C474 0.930 . S
H467 C475 0.930 . S
H468 C478 0.930 . S
H469 C479 0.930 . S
C470 H464 0.930 . S
C470 C471 1.355 . S
C470 C472 1.415 . S
C471 C470 1.355 . S
C471 C473 1.419 . S
C472 C470 1.415 . S
C472 C477 1.425 . S
C472 C479 1.409 . S
C473 H465 0.930 . S
C473 C471 1.419 . S
C473 C474 1.362 . S
C474 H466 0.930 . S
C474 C473 1.362 . S
C474 C477 1.409 . S
C475 H467 0.930 . S
C475 C476 1.355 . S
C475 C477 1.415 . S
C476 C475 1.355 . S
C476 C478 1.419 . S
C477 C472 1.425 . S
C477 C474 1.409 . S
C477 C475 1.415 . S
C478 H468 0.930 . S
C478 C476 1.419 . S
C478 C479 1.362 . S
C479 H469 0.930 . S
C479 C472 1.409 . S
C479 C478 1.362 . S
H480 C486 0.930 . S
H481 C489 0.930 . S
H482 C490 0.930 . S
H483 C491 0.930 . S
H484 C494 0.930 . S
H485 C495 0.930 . S
C486 H480 0.930 . S
C486 C487 1.355 . S
C486 C488 1.415 . S
C487 C486 1.355 . S
C487 C489 1.419 . S
C488 C486 1.415 . S
C488 C493 1.425 . S
C488 C495 1.409 . S
C489 H481 0.930 . S
C489 C487 1.419 . S
C489 C490 1.362 . S
C490 H482 0.930 . S
C490 C489 1.362 . S
C490 C493 1.409 . S
C491 H483 0.930 . S
C491 C492 1.355 . S
C491 C493 1.415 . S
C492 C491 1.355 . S
C492 C494 1.419 . S
C493 C488 1.425 . S
C493 C490 1.409 . S
C493 C491 1.415 . S
C494 H484 0.930 . S
C494 C492 1.419 . S
C494 C495 1.362 . S
C495 H485 0.930 . S
C495 C488 1.409 . S
C495 C494 1.362 . S
H496 C502 0.930 . S
H497 C505 0.930 . S
H498 C506 0.930 . S
H499 C507 0.930 . S
H500 C510 0.930 . S
H501 C511 0.930 . S
C502 H496 0.930 . S
C502 C503 1.355 . S
C502 C504 1.415 . S
C503 C502 1.355 . S
C503 C505 1.419 . S
C504 C502 1.415 . S
C504 C509 1.425 . S
C504 C511 1.409 . S
C505 H497 0.930 . S
C505 C503 1.419 . S
C505 C506 1.362 . S
C506 H498 0.930 . S
C506 C505 1.362 . S
C506 C509 1.409 . S
C507 H499 0.930 . S
C507 C508 1.355 . S
C507 C509 1.415 . S
C508 C507 1.355 . S
C508 C510 1.419 . S
C509 C504 1.425 . S
C509 C506 1.409 . S
C509 C507 1.415 . S
C510 H500 0.930 . S
C510 C508 1.419 . S
C510 C511 1.362 . S
C511 H501 0.930 . S
C511 C504 1.409 . S
C511 C510 1.362 . S
H512 C518 0.930 . S
H513 C521 0.930 . S
H514 C522 0.930 . S
H515 C523 0.930 . S
H516 C526 0.930 . S
H517 C527 0.930 . S
C518 H512 0.930 . S
C518 C519 1.355 . S
C518 C520 1.415 . S
C519 C518 1.355 . S
C519 C521 1.419 . S
C520 C518 1.415 . S
C520 C525 1.425 . S
C520 C527 1.409 . S
C521 H513 0.930 . S
C521 C519 1.419 . S
C521 C522 1.362 . S
C522 H514 0.930 . S
C522 C521 1.362 . S
C522 C525 1.409 . S
C523 H515 0.930 . S
C523 C524 1.355 . S
C523 C525 1.415 . S
C524 C523 1.355 . S
C524 C526 1.419 . S
C525 C520 1.425 . S
C525 C522 1.409 . S
C525 C523 1.415 . S
C526 H516 0.930 . S
C526 C524 1.419 . S
C526 C527 1.362 . S
C527 H517 0.930 . S
C527 C520 1.409 . S
C527 C526 1.362 . S
H528 C534 0.930 . S
H529 C537 0.930 . S
H530 C538 0.930 . S
H531 C539 0.930 . S
H532 C542 0.930 . S
H533 C543 0.930 . S
C534 H528 0.930 . S
C534 C535 1.355 . S
C534 C536 1.415 . S
C535 C534 1.355 . S
C535 C537 1.419 . S
C536 C534 1.415 . S
C536 C541 1.425 . S
C536 C543 1.409 . S
C537 H529 0.930 . S
C537 C535 1.419 . S
C537 C538 1.362 . S
C538 H530 0.930 . S
C538 C537 1.362 . S
C538 C541 1.409 . S
C539 H531 0.930 . S
C539 C540 1.355 . S
C539 C541 1.415 . S
C540 C539 1.355 . S
C540 C542 1.419 . S
C541 C536 1.425 . S
C541 C538 1.409 . S
C541 C539 1.415 . S
C542 H532 0.930 . S
C542 C540 1.419 . S
C542 C543 1.362 . S
C543 H533 0.930 . S
C543 C536 1.409 . S
C543 C542 1.362 . S
H544 C550 0.930 . S
H545 C553 0.930 . S
H546 C554 0.930 . S
H547 C555 0.930 . S
H548 C558 0.930 . S
H549 C559 0.930 . S
C550 H544 0.930 . S
C550 C551 1.355 . S
C550 C552 1.415 . S
C551 C550 1.355 . S
C551 C553 1.419 . S
C552 C550 1.415 . S
C552 C557 1.425 . S
C552 C559 1.409 . S
C553 H545 0.930 . S
C553 C551 1.419 . S
C553 C554 1.362 . S
C554 H546 0.930 . S
C554 C553 1.362 . S
C554 C557 1.409 . S
C555 H547 0.930 . S
C555 C556 1.355 . S
C555 C557 1.415 . S
C556 C555 1.355 . S
C556 C558 1.419 . S
C557 C552 1.425 . S
C557 C554 1.409 . S
C557 C555 1.415 . S
C558 H548 0.930 . S
C558 C556 1.419 . S
C558 C559 1.362 . S
C559 H549 0.930 . S
C559 C552 1.409 . S
C559 C558 1.362 . S
H560 C566 0.930 . S
H561 C569 0.930 . S
H562 C570 0.930 . S
H563 C571 0.930 . S
H564 C574 0.930 . S
H565 C575 0.930 . S
C566 H560 0.930 . S
C566 C567 1.355 . S
C566 C568 1.415 . S
C567 C566 1.355 . S
C567 C569 1.419 . S
C568 C566 1.415 . S
C568 C573 1.425 . S
C568 C575 1.409 . S
C569 H561 0.930 . S
C569 C567 1.419 . S
C569 C570 1.362 . S
C570 H562 0.930 . S
C570 C569 1.362 . S
C570 C573 1.409 . S
C571 H563 0.930 . S
C571 C572 1.355 . S
C571 C573 1.415 . S
C572 C571 1.355 . S
C572 C574 1.419 . S
C573 C568 1.425 . S
C573 C570 1.409 . S
C573 C571 1.415 . S
C574 H564 0.930 . S
C574 C572 1.419 . S
C574 C575 1.362 . S
C575 H565 0.930 . S
C575 C568 1.409 . S
C575 C574 1.362 . S
H576 C582 0.930 . S
H577 C585 0.930 . S
H578 C586 0.930 . S
H579 C587 0.930 . S
H580 C590 0.930 . S
H581 C591 0.930 . S
C582 H576 0.930 . S
C582 C583 1.355 . S
C582 C584 1.415 . S
C583 C582 1.355 . S
C583 C585 1.419 . S
C584 C582 1.415 . S
C584 C589 1.425 . S
C584 C591 1.409 . S
C585 H577 0.930 . S
C585 C583 1.419 . S
C585 C586 1.362 . S
C586 H578 0.930 . S
C586 C585 1.362 . S
C586 C589 1.409 . S
C587 H579 0.930 . S
C587 C588 1.355 . S
C587 C589 1.415 . S
C588 C587 1.355 . S
C588 C590 1.419 . S
C589 C584 1.425 . S
C589 C586 1.409 . S
C589 C587 1.415 . S
C590 H580 0.930 . S
C590 C588 1.419 . S
C590 C591 1.362 . S
C591 H581 0.930 . S
C591 C584 1.409 . S
C591 C590 1.362 . S
H592 C598 0.930 . S
H593 C601 0.930 . S
H594 C602 0.930 . S
H595 C603 0.930 . S
H596 C606 0.930 . S
H597 C607 0.930 . S
C598 H592 0.930 . S
C598 C599 1.355 . S
C598 C600 1.415 . S
C599 C598 1.355 . S
C599 C601 1.419 . S
C600 C598 1.415 . S
C600 C605 1.425 . S
C600 C607 1.409 . S
C601 H593 0.930 . S
C601 C599 1.419 . S
C601 C602 1.362 . S
C602 H594 0.930 . S
C602 C601 1.362 . S
C602 C605 1.409 . S
C603 H595 0.930 . S
C603 C604 1.355 . S
C603 C605 1.415 . S
C604 C603 1.355 . S
C604 C606 1.419 . S
C605 C600 1.425 . S
C605 C602 1.409 . S
C605 C603 1.415 . S
C606 H596 0.930 . S
C606 C604 1.419 . S
C606 C607 1.362 . S
C607 H597 0.930 . S
C607 C600 1.409 . S
C607 C606 1.362 . S
H608 C614 0.930 . S
H609 C617 0.930 . S
H610 C618 0.930 . S
H611 C619 0.930 . S
H612 C622 0.930 . S
H613 C623 0.930 . S
C614 H608 0.930 . S
C614 C615 1.355 . S
C614 C616 1.415 . S
C615 C614 1.355 . S
C615 C617 1.419 . S
C616 C614 1.415 . S
C616 C621 1.425 . S
C616 C623 1.409 . S
C617 H609 0.930 . S
C617 C615 1.419 . S
C617 C618 1.362 . S
C618 H610 0.930 . S
C618 C617 1.362 . S
C618 C621 1.409 . S
C619 H611 0.930 . S
C619 C620 1.355 . S
C619 C621 1.415 . S
C620 C619 1.355 . S
C620 C622 1.419 . S
C621 C616 1.425 . S
C621 C618 1.409 . S
C621 C619 1.415 . S
C622 H612 0.930 . S
C622 C620 1.419 . S
C622 C623 1.362 . S
C623 H613 0.930 . S
C623 C616 1.409 . S
C623 C622 1.362 . S
H624 C630 0.930 . S
H625 C633 0.930 . S
H626 C634 0.930 . S
H627 C635 0.930 . S
H628 C638 0.930 . S
H629 C639 0.930 . S
C630 H624 0.930 . S
C630 C631 1.355 . S
C630 C632 1.415 . S
C631 C630 1.355 . S
C631 C633 1.419 . S
C632 C630 1.415 . S
C632 C637 1.425 . S
C632 C639 1.409 . S
C633 H625 0.930 . S
C633 C631 1.419 . S
C633 C634 1.362 . S
C634 H626 0.930 . S
C634 C633 1.362 . S
C634 C637 1.409 . S
C635 H627 0.930 . S
C635 C636 1.355 . S
C635 C637 1.415 . S
C636 C635 1.355 . S
C636 C638 1.419 . S
C637 C632 1.425 . S
C637 C634 1.409 . S
C637 C635 1.415 . S
C638 H628 0.930 . S
C638 C636 1.419 . S
C638 C639 1.362 . S
C639 H629 0.930 . S
C639 C632 1.409 . S
C639 C638 1.362 . S
H640 C646 0.930 . S
H641 C649 0.930 . S
H642 C650 0.930 . S
H643 C651 0.930 . S
H644 C654 0.930 . S
H645 C655 0.930 . S
C646 H640 0.930 . S
C646 C647 1.355 . S
C646 C648 1.415 . S
C647 C646 1.355 . S
C647 C649 1.419 . S
C648 C646 1.415 . S
C648 C653 1.425 . S
C648 C655 1.409 . S
C649 H641 0.930 . S
C649 C647 1.419 . S
C649 C650 1.362 . S
C650 H642 0.930 . S
C650 C649 1.362 . S
C650 C653 1.409 . S
C651 H643 0.930 . S
C651 C652 1.355 . S
C651 C653 1.415 . S
C652 C651 1.355 . S
C652 C654 1.419 . S
C653 C648 1.425 . S
C653 C650 1.409 . S
C653 C651 1.415 . S
C654 H644 0.930 . S
C654 C652 1.419 . S
C654 C655 1.362 . S
C655 H645 0.930 . S
C655 C648 1.409 . S
C655 C654 1.362 . S
H656 C662 0.930 . S
H657 C665 0.930 . S
H658 C666 0.930 . S
H659 C667 0.930 . S
H660 C670 0.930 . S
H661 C671 0.930 . S
C662 H656 0.930 . S
C662 C663 1.354 1_556 S
C662 C664 1.415 . S
C663 C662 1.354 1_554 S
C663 C665 1.420 . S
C664 C662 1.415 . S
C664 C669 1.425 1_556 S
C664 C671 1.409 . S
C665 H657 0.930 . S
C665 C663 1.420 . S
C665 C666 1.362 . S
C666 H658 0.930 . S
C666 C665 1.362 . S
C666 C669 1.409 . S
C667 H659 0.930 . S
C667 C668 1.355 . S
C667 C669 1.415 . S
C668 C667 1.355 . S
C668 C670 1.419 1_554 S
C669 C664 1.425 1_554 S
C669 C666 1.409 . S
C669 C667 1.415 . S
C670 H660 0.930 . S
C670 C668 1.419 1_556 S
C670 C671 1.362 . S
C671 H661 0.930 . S
C671 C664 1.409 . S
C671 C670 1.362 . S
H672 C678 0.930 . S
H673 C681 0.930 . S
H674 C682 0.930 . S
H675 C683 0.930 . S
H676 C686 0.930 . S
H677 C687 0.930 . S
C678 H672 0.930 . S
C678 C679 1.355 . S
C678 C680 1.415 . S
C679 C678 1.355 . S
C679 C681 1.419 . S
C680 C678 1.415 . S
C680 C685 1.425 . S
C680 C687 1.409 . S
C681 H673 0.930 . S
C681 C679 1.419 . S
C681 C682 1.362 . S
C682 H674 0.930 . S
C682 C681 1.362 . S
C682 C685 1.409 . S
C683 H675 0.930 . S
C683 C684 1.355 . S
C683 C685 1.415 . S
C684 C683 1.355 . S
C684 C686 1.419 . S
C685 C680 1.425 . S
C685 C682 1.409 . S
C685 C683 1.415 . S
C686 H676 0.930 . S
C686 C684 1.419 . S
C686 C687 1.362 . S
C687 H677 0.930 . S
C687 C680 1.409 . S
C687 C686 1.362 . S
H688 C694 0.930 . S
H689 C697 0.930 . S
H690 C698 0.930 . S
H691 C699 0.930 . S
H692 C702 0.930 . S
H693 C703 0.930 . S
C694 H688 0.930 . S
C694 C695 1.357 . S
C694 C696 1.415 . S
C695 C694 1.357 . S
C695 C697 1.416 1_554 S
C696 C694 1.415 . S
C696 C701 1.425 1_554 S
C696 C703 1.409 . S
C697 H689 0.930 . S
C697 C695 1.416 1_556 S
C697 C698 1.362 . S
C698 H690 0.930 . S
C698 C697 1.362 . S
C698 C701 1.409 . S
C699 H691 0.930 . S
C699 C700 1.355 1_556 S
C699 C701 1.415 . S
C700 C699 1.355 1_554 S
C700 C702 1.419 . S
C701 C696 1.425 1_556 S
C701 C698 1.409 . S
C701 C699 1.415 . S
C702 H692 0.930 . S
C702 C700 1.419 . S
C702 C703 1.362 . S
C703 H693 0.930 . S
C703 C696 1.409 . S
C703 C702 1.362 . S
H704 C710 0.930 . S
H705 C713 0.930 . S
H706 C714 0.930 . S
H707 C715 0.930 . S
H708 C718 0.930 . S
H709 C719 0.930 . S
C710 H704 0.930 . S
C710 C711 1.355 . S
C710 C712 1.415 . S
C711 C710 1.355 . S
C711 C713 1.419 . S
C712 C710 1.415 . S
C712 C717 1.425 . S
C712 C719 1.409 . S
C713 H705 0.930 . S
C713 C711 1.419 . S
C713 C714 1.362 . S
C714 H706 0.930 . S
C714 C713 1.362 . S
C714 C717 1.409 . S
C715 H707 0.930 . S
C715 C716 1.355 . S
C715 C717 1.415 . S
C716 C715 1.355 . S
C716 C718 1.419 . S
C717 C712 1.425 . S
C717 C714 1.409 . S
C717 C715 1.415 . S
C718 H708 0.930 . S
C718 C716 1.419 . S
C718 C719 1.362 . S
C719 H709 0.930 . S
C719 C712 1.409 . S
C719 C718 1.362 . S
H720 C726 0.930 . S
H721 C729 0.930 . S
H722 C730 0.930 . S
H723 C731 0.930 . S
H724 C734 0.930 . S
H725 C735 0.930 . S
C726 H720 0.930 . S
C726 C727 1.355 . S
C726 C728 1.415 . S
C727 C726 1.355 . S
C727 C729 1.419 . S
C728 C726 1.415 . S
C728 C733 1.425 . S
C728 C735 1.409 . S
C729 H721 0.930 . S
C729 C727 1.419 . S
C729 C730 1.362 . S
C730 H722 0.930 . S
C730 C729 1.362 . S
C730 C733 1.409 . S
C731 H723 0.930 . S
C731 C732 1.355 . S
C731 C733 1.415 . S
C732 C731 1.355 . S
C732 C734 1.419 . S
C733 C728 1.425 . S
C733 C730 1.409 . S
C733 C731 1.415 . S
C734 H724 0.930 . S
C734 C732 1.419 . S
C734 C735 1.362 . S
C735 H725 0.930 . S
C735 C728 1.409 . S
C735 C734 1.362 . S
H736 C742 0.930 . S
H737 C745 0.931 . S
H738 C746 0.930 . S
H739 C747 0.930 . S
H740 C750 0.930 1_556 S
H741 C751 0.930 . S
C742 H736 0.930 . S
C742 C743 1.355 . S
C742 C744 1.415 . S
C743 C742 1.355 . S
C743 C745 1.418 1_556 S
C744 C742 1.415 . S
C744 C749 1.425 1_556 S
C744 C751 1.409 1_556 S
C745 H737 0.931 . S
C745 C743 1.418 1_554 S
C745 C746 1.363 . S
C746 H738 0.930 . S
C746 C745 1.363 . S
C746 C749 1.409 . S
C747 H739 0.930 . S
C747 C748 1.355 . S
C747 C749 1.415 . S
C748 C747 1.355 . S
C748 C750 1.420 . S
C749 C744 1.425 1_554 S
C749 C746 1.409 . S
C749 C747 1.415 . S
C750 H740 0.930 1_554 S
C750 C748 1.420 . S
C750 C751 1.362 . S
C751 H741 0.930 . S
C751 C744 1.409 1_554 S
C751 C750 1.362 . S
H752 C758 0.930 . S
H753 C761 0.930 . S
H754 C762 0.930 . S
H755 C763 0.930 . S
H756 C766 0.930 . S
H757 C767 0.930 . S
C758 H752 0.930 . S
C758 C759 1.355 . S
C758 C760 1.415 . S
C759 C758 1.355 . S
C759 C761 1.419 . S
C760 C758 1.415 . S
C760 C765 1.425 . S
C760 C767 1.409 . S
C761 H753 0.930 . S
C761 C759 1.419 . S
C761 C762 1.362 . S
C762 H754 0.930 . S
C762 C761 1.362 . S
C762 C765 1.409 . S
C763 H755 0.930 . S
C763 C764 1.355 . S
C763 C765 1.415 . S
C764 C763 1.355 . S
C764 C766 1.419 . S
C765 C760 1.425 . S
C765 C762 1.409 . S
C765 C763 1.415 . S
C766 H756 0.930 . S
C766 C764 1.419 . S
C766 C767 1.362 . S
C767 H757 0.930 . S
C767 C760 1.409 . S
C767 C766 1.362 . S
H768 C774 0.930 . S
H769 C777 0.930 . S
H770 C778 0.930 . S
H771 C779 0.930 . S
H772 C782 0.930 . S
H773 C783 0.930 . S
C774 H768 0.930 . S
C774 C775 1.355 1_556 S
C774 C776 1.415 . S
C775 C774 1.355 1_554 S
C775 C777 1.419 . S
C776 C774 1.415 . S
C776 C781 1.425 1_556 S
C776 C783 1.409 . S
C777 H769 0.930 . S
C777 C775 1.419 . S
C777 C778 1.362 . S
C778 H770 0.930 . S
C778 C777 1.362 . S
C778 C781 1.409 . S
C779 H771 0.930 . S
C779 C780 1.355 1_554 S
C779 C781 1.415 . S
C780 C779 1.355 1_556 S
C780 C782 1.419 . S
C781 C776 1.425 1_554 S
C781 C778 1.409 . S
C781 C779 1.415 . S
C782 H772 0.930 . S
C782 C780 1.419 . S
C782 C783 1.362 . S
C783 H773 0.930 . S
C783 C776 1.409 . S
C783 C782 1.362 . S
C407 C21 1.610 . S
C412 C221 1.596 . S
C423 C40 1.760 . S
C428 C89 1.709 . S
C444 C128 1.584 . S
C439 C54 1.604 . S
C455 C73 1.793 . S
C460 C182 1.750 . S
C476 C284 1.559 . S
C471 C74 1.596 . S
C492 C338 1.705 . S
C487 C10 1.766 . S
C508 C377 1.599 . S
C503 C37 1.608 . S
C524 C245 1.706 . S
C519 C65 1.806 . S
C535 C52 1.609 . S
C540 C143 1.594 . S
C551 C87 1.796 . S
C556 C167 1.694 . S
C567 C15 1.654 . S
C572 C206 1.610 . S
C588 C104 1.691 . S
C583 C32 1.763 . S
C599 C29 1.651 . S
C604 C362 1.646 . S
C620 C260 1.740 . S
C615 C59 1.787 . S
C636 C299 1.576 . S
C631 C84 1.603 . S
C647 C8 1.745 . S
C652 C323 1.665 . S
C668 C109 1.826 . S
C663 C7 1.859 . S
C684 C148 1.626 . S
C679 C30 1.664 . S
C695 C62 1.862 . S
C700 C187 1.764 . S
C711 C81 1.665 . S
C716 C226 1.673 . S
C732 C265 1.791 . S
C727 C76 1.862 . S
C743 C18 1.700 . S
C748 C304 1.682 . S
C759 C43 1.857 . S
C764 C343 1.795 . S
C775 C51 1.636 1_554 S
C780 C382 1.649 1_556 S
