# Generated by pormake.
# Topology pyr, (3,6)-cn, num edge types: 1
# Building blocks:
#     Node 0, Type 0, BuildingBlock: QEWDON_clean_linker_0, # of connection points: 3
#     Node 1, Type 0, BuildingBlock: QEWDON_clean_linker_0, # of connection points: 3
#     Node 2, Type 0, BuildingBlock: QEWDON_clean_linker_0, # of connection points: 3
#     Node 3, Type 0, BuildingBlock: QEWDON_clean_linker_0, # of connection points: 3
#     Node 4, Type 0, BuildingBlock: QEWDON_clean_linker_0, # of connection points: 3
#     Node 5, Type 0, BuildingBlock: QEWDON_clean_linker_0, # of connection points: 3
#     Node 6, Type 0, BuildingBlock: QEWDON_clean_linker_0, # of connection points: 3
#     Node 7, Type 0, BuildingBlock: QEWDON_clean_linker_0, # of connection points: 3
#     Node 8, Type 1, BuildingBlock: MIFKUJ_clean_sbu_0, # of connection points: 6
#     Node 9, Type 1, BuildingBlock: MIFKUJ_clean_sbu_0, # of connection points: 6
#     Node 10, Type 1, BuildingBlock: MIFKUJ_clean_sbu_0, # of connection points: 6
#     Node 11, Type 1, BuildingBlock: MIFKUJ_clean_sbu_0, # of connection points: 6
#     Edge 12, Type (0, 1), BuildingBlock: CIFDUS_clean_linker_0, # of connection points: 2
#     Edge 13, Type (0, 1), BuildingBlock: CIFDUS_clean_linker_0, # of connection points: 2
#     Edge 14, Type (0, 1), BuildingBlock: CIFDUS_clean_linker_0, # of connection points: 2
#     Edge 15, Type (0, 1), BuildingBlock: CIFDUS_clean_linker_0, # of connection points: 2
#     Edge 16, Type (0, 1), BuildingBlock: CIFDUS_clean_linker_0, # of connection points: 2
#     Edge 17, Type (0, 1), BuildingBlock: CIFDUS_clean_linker_0, # of connection points: 2
#     Edge 18, Type (0, 1), BuildingBlock: CIFDUS_clean_linker_0, # of connection points: 2
#     Edge 19, Type (0, 1), BuildingBlock: CIFDUS_clean_linker_0, # of connection points: 2
#     Edge 20, Type (0, 1), BuildingBlock: CIFDUS_clean_linker_0, # of connection points: 2
#     Edge 21, Type (0, 1), BuildingBlock: CIFDUS_clean_linker_0, # of connection points: 2
#     Edge 22, Type (0, 1), BuildingBlock: CIFDUS_clean_linker_0, # of connection points: 2
#     Edge 23, Type (0, 1), BuildingBlock: CIFDUS_clean_linker_0, # of connection points: 2
#     Edge 24, Type (0, 1), BuildingBlock: CIFDUS_clean_linker_0, # of connection points: 2
#     Edge 25, Type (0, 1), BuildingBlock: CIFDUS_clean_linker_0, # of connection points: 2
#     Edge 26, Type (0, 1), BuildingBlock: CIFDUS_clean_linker_0, # of connection points: 2
#     Edge 27, Type (0, 1), BuildingBlock: CIFDUS_clean_linker_0, # of connection points: 2
#     Edge 28, Type (0, 1), BuildingBlock: CIFDUS_clean_linker_0, # of connection points: 2
#     Edge 29, Type (0, 1), BuildingBlock: CIFDUS_clean_linker_0, # of connection points: 2
#     Edge 30, Type (0, 1), BuildingBlock: CIFDUS_clean_linker_0, # of connection points: 2
#     Edge 31, Type (0, 1), BuildingBlock: CIFDUS_clean_linker_0, # of connection points: 2
#     Edge 32, Type (0, 1), BuildingBlock: CIFDUS_clean_linker_0, # of connection points: 2
#     Edge 33, Type (0, 1), BuildingBlock: CIFDUS_clean_linker_0, # of connection points: 2
#     Edge 34, Type (0, 1), BuildingBlock: CIFDUS_clean_linker_0, # of connection points: 2
#     Edge 35, Type (0, 1), BuildingBlock: CIFDUS_clean_linker_0, # of connection points: 2
# Relax obj value: 0.097
# Max RMSD: 0.267
# Mean RMSD: 0.178
data_MOF--net-pyr--node1-MIFKUJ_clean_sbu_0--node2-QEWDON_clean_linker_0--edge1-CIFDUS_clean_linker_0
_symmetry_space_group_name_H-M    P1
_symmetry_Int_Tables_number       1
_symmetry_cell_setting            triclinic
loop_
_symmetry_equiv_pos_as_xyz
'x, y, z'
_cell_length_a     34.648048
_cell_length_b     31.171206
_cell_length_c     35.366547
_cell_angle_alpha  85.477187
_cell_angle_beta   88.284934
_cell_angle_gamma 107.98356
loop_
_atom_site_label
_atom_site_type_symbol
_atom_site_fract_x
_atom_site_fract_y
_atom_site_fract_z
_atom_type_partial_charge
H0 H 0.26767 0.21888 0.2006 0.0
C1 C 0.24567 0.20361 0.22413 0.0
C2 C 0.24701 0.16378 0.24482 0.0
C3 C 0.2183 0.22608 0.2354 0.0
H4 H 0.22096 0.11577 0.29321 0.0
C5 C 0.22 0.14625 0.27676 0.0
C6 C 0.19284 0.16857 0.28875 0.0
C7 C 0.19147 0.20804 0.26739 0.0
C8 C 0.22384 0.27262 0.21838 0.0
H9 H 0.17198 0.22663 0.27734 0.0
C10 C 0.19438 0.28347 0.19619 0.0
C11 C 0.20236 0.32782 0.17868 0.0
C12 C 0.26026 0.30655 0.2239 0.0
H13 H 0.28311 0.29886 0.24104 0.0
C14 C 0.26762 0.35058 0.2074 0.0
H15 H 0.16635 0.25741 0.19147 0.0
C16 C 0.23904 0.36114 0.18474 0.0
H17 H 0.24562 0.39547 0.1717 0.0
H18 H 0.29577 0.37651 0.21185 0.0
H19 H 0.33041 0.90364 0.78563 0.0
C20 C 0.34769 0.88817 0.7682 0.0
C21 C 0.3878 0.89057 0.7766 0.0
C22 C 0.32924 0.86444 0.73805 0.0
H23 H 0.43922 0.86872 0.76151 0.0
C24 C 0.40915 0.86887 0.7541 0.0
C25 C 0.39098 0.84509 0.7236 0.0
C26 C 0.35125 0.8441 0.71554 0.0
C27 C 0.2854 0.85529 0.73246 0.0
H28 H 0.33665 0.82655 0.692 0.0
C29 C 0.2696 0.88957 0.71838 0.0
C30 C 0.22844 0.8785 0.70948 0.0
C31 C 0.2596 0.81041 0.73874 0.0
H32 H 0.27129 0.78359 0.74945 0.0
C33 C 0.21873 0.79963 0.73088 0.0
H34 H 0.28953 0.92414 0.7129 0.0
C35 C 0.20325 0.83331 0.71612 0.0
H36 H 0.17142 0.82407 0.71 0.0
H37 H 0.19909 0.76494 0.73583 0.0
H38 H 0.71571 0.45754 0.85844 0.0
C39 C 0.70135 0.42272 0.86998 0.0
C40 C 0.72514 0.3973 0.88546 0.0
C41 C 0.65889 0.40498 0.87253 0.0
H42 H 0.72439 0.33385 0.9152 0.0
C43 C 0.70616 0.35301 0.90215 0.0
C44 C 0.66362 0.33461 0.90425 0.0
C45 C 0.64025 0.36081 0.88919 0.0
C46 C 0.63391 0.43387 0.86069 0.0
H47 H 0.60735 0.34715 0.89111 0.0
C48 C 0.63943 0.456 0.82391 0.0
C49 C 0.61495 0.48261 0.81224 0.0
C50 C 0.60442 0.4394 0.88629 0.0
H51 H 0.59993 0.42288 0.91493 0.0
C52 C 0.58082 0.46675 0.87525 0.0
H53 H 0.6622 0.45165 0.80419 0.0
C54 C 0.58585 0.48811 0.83843 0.0
H55 H 0.56608 0.50776 0.83016 0.0
H56 H 0.55813 0.47087 0.89512 0.0
H57 H 0.85524 0.79126 0.24419 0.0
C58 C 0.82939 0.77105 0.2626 0.0
C59 C 0.82557 0.7812 0.30031 0.0
C60 C 0.7983 0.7366 0.24804 0.0
H61 H 0.78857 0.76341 0.35256 0.0
C62 C 0.79151 0.75533 0.32358 0.0
C63 C 0.76061 0.72051 0.30978 0.0
C64 C 0.76424 0.71143 0.27184 0.0
C65 C 0.79948 0.72809 0.20746 0.0
H66 H 0.74061 0.68458 0.26068 0.0
C67 C 0.83207 0.7168 0.19089 0.0
C68 C 0.83044 0.70401 0.15349 0.0
C69 C 0.76621 0.72836 0.18576 0.0
H70 H 0.74088 0.73716 0.19789 0.0
C71 C 0.7651 0.71687 0.1484 0.0
H72 H 0.85755 0.71576 0.2076 0.0
C73 C 0.7968 0.70428 0.13243 0.0
H74 H 0.79508 0.69466 0.10359 0.0
H75 H 0.73928 0.71706 0.13196 0.0
H76 H 0.81342 0.82918 0.87923 0.0
C77 C 0.83138 0.84489 0.85332 0.0
C78 C 0.86786 0.83577 0.84411 0.0
C79 C 0.81649 0.87219 0.82821 0.0
H80 H 0.91774 0.84926 0.80179 0.0
C81 C 0.89032 0.85681 0.80993 0.0
C82 C 0.87595 0.88519 0.78487 0.0
C83 C 0.8391 0.89266 0.79455 0.0
C84 C 0.77464 0.87414 0.83384 0.0
H85 H 0.82731 0.91394 0.77546 0.0
C86 C 0.76335 0.89618 0.86356 0.0
C87 C 0.72384 0.89973 0.86622 0.0
C88 C 0.74594 0.85479 0.80778 0.0
H89 H 0.75409 0.83763 0.7848 0.0
C90 C 0.70661 0.8575 0.81101 0.0
H91 H 0.78541 0.91168 0.88353 0.0
C92 C 0.69564 0.8801 0.8399 0.0
H93 H 0.66512 0.88256 0.84163 0.0
H94 H 0.6847 0.84251 0.79079 0.0
H95 H 0.69888 0.17765 0.47104 0.0
C96 C 0.68732 0.1746 0.44292 0.0
C97 C 0.70941 0.16319 0.41336 0.0
C98 C 0.64935 0.18043 0.4372 0.0
H99 H 0.70787 0.14683 0.35492 0.0
C100 C 0.69187 0.15648 0.37786 0.0
C101 C 0.65294 0.16047 0.37216 0.0
C102 C 0.63252 0.17383 0.40183 0.0
C103 C 0.62527 0.1881 0.46968 0.0
H104 H 0.60272 0.17746 0.39798 0.0
C105 C 0.61741 0.22958 0.47181 0.0
C106 C 0.59583 0.23672 0.50394 0.0
C107 C 0.61069 0.1535 0.49926 0.0
H108 H 0.6164 0.12135 0.49798 0.0
C109 C 0.58844 0.15997 0.53057 0.0
H110 H 0.62925 0.25656 0.44922 0.0
C111 C 0.58112 0.20124 0.53302 0.0
H112 H 0.5638 0.20538 0.55771 0.0
H113 H 0.57703 0.13299 0.55316 0.0
H114 H 0.4029 0.73041 0.2522 0.0
C115 C 0.37384 0.72591 0.23977 0.0
C116 C 0.3683 0.7612 0.21559 0.0
C117 C 0.34303 0.68393 0.2458 0.0
H118 H 0.32784 0.7812 0.178 0.0
C119 C 0.33154 0.75454 0.19778 0.0
C120 C 0.30097 0.71256 0.20265 0.0
C121 C 0.30653 0.67779 0.22746 0.0
C122 C 0.35057 0.64503 0.26779 0.0
H123 H 0.28328 0.64501 0.23094 0.0
C124 C 0.36976 0.65051 0.30238 0.0
C125 C 0.37821 0.61385 0.32243 0.0
C126 C 0.33966 0.60232 0.25347 0.0
H127 H 0.32558 0.59724 0.22656 0.0
C128 C 0.34782 0.56591 0.27319 0.0
H129 H 0.37758 0.68313 0.31387 0.0
C130 C 0.36711 0.57156 0.30729 0.0
H131 H 0.37401 0.54291 0.32139 0.0
H132 H 0.33967 0.53331 0.26173 0.0
H133 H 0.2472 0.42815 0.79125 0.0
C134 C 0.23387 0.40297 0.77195 0.0
C135 C 0.25239 0.40576 0.73554 0.0
C136 C 0.19971 0.36603 0.78469 0.0
H137 H 0.2482 0.37455 0.68288 0.0
C138 C 0.23518 0.37195 0.71154 0.0
C139 C 0.20181 0.33421 0.72412 0.0
C140 C 0.18391 0.33155 0.76074 0.0
C141 C 0.18334 0.36149 0.82443 0.0
H142 H 0.15852 0.30218 0.77101 0.0
C143 C 0.17075 0.39617 0.83883 0.0
C144 C 0.15753 0.39304 0.87741 0.0
C145 C 0.18231 0.32326 0.84863 0.0
H146 H 0.19215 0.29636 0.83816 0.0
C147 C 0.16998 0.32016 0.88688 0.0
H148 H 0.17064 0.42499 0.81965 0.0
C149 C 0.15809 0.35482 0.90129 0.0
H150 H 0.14971 0.35165 0.93135 0.0
H151 H 0.17006 0.29096 0.90556 0.0
Zn152 Zn 0.04923 0.06042 0.56044 0.0
Zn153 Zn 0.94547 0.0329 0.49208 0.0
C154 C 0.09922 0.13968 0.59071 0.0
O155 O 0.127 0.12983 0.57011 0.0
C156 C 0.94156 0.96937 0.43202 0.0
O157 O 0.98087 0.98777 0.42467 0.0
O158 O 0.08378 0.02124 0.57809 0.0
O159 O 0.99079 0.02451 0.57262 0.0
O160 O 0.9316 0.0049 0.54653 0.0
C161 C 0.09805 0.02227 0.61091 0.0
O162 O 0.0898 0.04891 0.63473 0.0
O163 O 0.06241 0.11504 0.59045 0.0
C164 C 0.90307 0.07755 0.44371 0.0
O165 O 0.92182 0.0607 0.41878 0.0
O166 O 0.91099 0.0739 0.47856 0.0
O167 O 0.00502 0.06351 0.477 0.0
O168 O 0.0637 0.08144 0.50472 0.0
O169 O 0.9239 0.98197 0.4591 0.0
C170 C 0.95291 0.00364 0.57504 0.0
C171 C 0.04349 0.08105 0.47518 0.0
Zn172 Zn 0.53185 0.01943 0.02145 0.0
Zn173 Zn 0.4988 0.07848 0.12068 0.0
C174 C 0.4606 0.97982 0.97731 0.0
O175 O 0.44161 0.96556 0.01084 0.0
C176 C 0.57003 0.10926 0.16564 0.0
O177 O 0.58914 0.12322 0.13213 0.0
O178 O 0.58629 0.01401 1.00465 0.0
O179 O 0.53661 0.0841 0.03637 0.0
O180 O 0.52514 0.12758 0.07971 0.0
C181 C 0.6024 0.03423 0.97273 0.0
O182 O 0.58528 0.06134 0.95454 0.0
O183 O 0.49766 0.00441 0.97545 0.0
C184 C 0.42853 0.0808 0.16622 0.0
O185 O 0.45085 0.0744 0.19418 0.0
O186 O 0.44178 0.0813 0.13218 0.0
O187 O 0.50168 0.02544 0.09538 0.0
O188 O 0.50728 0.97023 0.06483 0.0
O189 O 0.53203 0.08833 0.16749 0.0
C190 C 0.53889 0.1232 0.04679 0.0
C191 C 0.49578 0.98352 0.0949 0.0
Zn192 Zn 0.54538 0.54865 0.54175 0.0
Zn193 Zn 0.51739 0.6275 0.58225 0.0
C194 C 0.58696 0.60158 0.47258 0.0
O195 O 0.55153 0.58494 0.45813 0.0
C196 C 0.46307 0.57199 0.64206 0.0
O197 O 0.47905 0.60766 0.66052 0.0
O198 O 0.54848 0.48646 0.53168 0.0
O199 O 0.55923 0.55483 0.59593 0.0
O200 O 0.57105 0.62766 0.60233 0.0
C201 C 0.54193 0.46912 0.50016 0.0
O202 O 0.52967 0.49086 0.47208 0.0
O203 O 0.5906 0.59259 0.50776 0.0
C204 C 0.46422 0.67679 0.59942 0.0
O205 O 0.44095 0.64382 0.58152 0.0
O206 O 0.50153 0.67984 0.6018 0.0
O207 O 0.50934 0.62796 0.52586 0.0
O208 O 0.49095 0.55346 0.52757 0.0
O209 O 0.47569 0.57162 0.60799 0.0
C210 C 0.57514 0.58957 0.61341 0.0
C211 C 0.48734 0.59107 0.51438 0.0
Zn212 Zn 1.0012 0.60243 0.98843 0.0
Zn213 Zn 0.03139 0.52951 0.07492 0.0
C214 C 0.93979 0.54415 0.94824 0.0
O215 O 0.96464 0.56611 0.91936 0.0
C216 C 0.10415 0.60255 0.09146 0.0
O217 O 0.11036 0.61222 0.05451 0.0
O218 O 0.99658 0.6614 0.96241 0.0
O219 O 0.00682 0.60312 0.04577 0.0
O220 O 0.97976 0.54323 0.08645 0.0
C221 C 0.96172 0.66693 0.96546 0.0
O222 O 0.9329 0.63685 0.98713 0.0
O223 O 0.94891 0.55412 0.98165 0.0
C224 C 0.06644 0.46045 0.08268 0.0
O225 O 0.0933 0.49259 0.06081 0.0
O226 O 0.03277 0.46634 0.09195 0.0
O227 O 0.04311 0.54619 0.01907 0.0
O228 O 0.04391 0.5795 0.96259 0.0
O229 O 0.07326 0.57028 0.10475 0.0
C230 C 0.97722 0.57917 0.0683 0.0
C231 C 0.05352 0.55016 0.98403 0.0
H232 H 0.11168 0.1524 0.3057 0.0
H233 H 0.22347 0.1518 0.35585 0.0
H234 H 0.18754 0.12622 0.41788 0.0
H235 H 0.12451 0.10268 0.45777 0.0
H236 H 0.01158 0.09996 0.40818 0.0
H237 H 0.04767 0.12822 0.34628 0.0
C238 C 0.12802 0.14677 0.33031 0.0
C239 C 0.17007 0.15362 0.32618 0.0
C240 C 0.107 0.13144 0.366 0.0
C241 C 0.19099 0.14612 0.35823 0.0
C242 C 0.17051 0.13168 0.39374 0.0
C243 C 0.10773 0.10846 0.43352 0.0
C244 C 0.06538 0.09929 0.43775 0.0
C245 C 0.12853 0.12399 0.39794 0.0
C246 C 0.04418 0.10666 0.4058 0.0
C247 C 0.06481 0.12285 0.37035 0.0
H248 H 0.3525 0.88621 0.84752 0.0
H249 H 0.46581 0.94588 0.78127 0.0
H250 H 0.49784 0.9803 0.83685 0.0
H251 H 0.49432 0.99155 0.90485 0.0
H252 H 0.38097 0.93119 0.97105 0.0
H253 H 0.34828 0.89979 0.91481 0.0
C254 C 0.38403 0.90731 0.84503 0.0
C255 C 0.40665 0.91336 0.81014 0.0
C256 C 0.40233 0.92696 0.87717 0.0
C257 C 0.44774 0.94018 0.8078 0.0
C258 C 0.46606 0.96007 0.83956 0.0
C259 C 0.46236 0.97188 0.90695 0.0
C260 C 0.44023 0.96378 0.94229 0.0
C261 C 0.44376 0.95339 0.87449 0.0
C262 C 0.39886 0.93798 0.94435 0.0
C263 C 0.38009 0.9199 0.91216 0.0
H264 H 0.61139 0.56578 0.78519 0.0
H265 H 0.62307 0.44102 0.74895 0.0
H266 H 0.61825 0.46702 0.68311 0.0
H267 H 0.6022 0.52034 0.63706 0.0
H268 H 0.58604 0.64327 0.67262 0.0
H269 H 0.60158 0.62307 0.73743 0.0
C270 C 0.61311 0.54444 0.76282 0.0
C271 C 0.61724 0.50136 0.77206 0.0
C272 C 0.60931 0.55914 0.72496 0.0
C273 C 0.62025 0.47447 0.7427 0.0
C274 C 0.61717 0.48914 0.70501 0.0
C275 C 0.60264 0.5431 0.65886 0.0
C276 C 0.59243 0.58289 0.65023 0.0
C277 C 0.6105 0.53074 0.69601 0.0
C278 C 0.59377 0.61239 0.67857 0.0
C279 C 0.60231 0.60066 0.71568 0.0
H280 H 0.82127 0.623 0.12658 0.0
H281 H 0.91143 0.74963 0.14342 0.0
H282 H 0.96456 0.72361 0.11466 0.0
H283 H 0.98539 0.66368 0.08661 0.0
H284 H 0.89624 0.53433 0.07589 0.0
H285 H 0.84229 0.56254 0.09975 0.0
C286 C 0.85258 0.64483 0.12375 0.0
C287 C 0.86265 0.68814 0.13683 0.0
C288 C 0.88289 0.62919 0.1081 0.0
C289 C 0.90323 0.7161 0.13359 0.0
C290 C 0.93345 0.7013 0.11705 0.0
C291 C 0.95402 0.64202 0.08907 0.0
C292 C 0.94444 0.59728 0.07921 0.0
C293 C 0.92364 0.65785 0.10436 0.0
C294 C 0.90401 0.56897 0.08322 0.0
C295 C 0.87332 0.58504 0.09694 0.0
H296 H 0.27477 0.14952 0.17498 0.0
H297 H 0.29334 0.1334 0.29475 0.0
H298 H 0.34884 0.1035 0.28107 0.0
H299 H 0.39445 0.08541 0.23534 0.0
H300 H 0.37792 0.10294 0.11529 0.0
H301 H 0.31946 0.12868 0.12887 0.0
C302 C 0.29096 0.1394 0.19805 0.0
C303 C 0.27958 0.1435 0.23586 0.0
C304 C 0.32336 0.12256 0.18997 0.0
C305 C 0.30079 0.12991 0.26543 0.0
C306 C 0.33283 0.11309 0.25764 0.0
C307 C 0.37793 0.09448 0.21207 0.0
C308 C 0.39077 0.09236 0.17433 0.0
C309 C 0.34461 0.10964 0.22004 0.0
C310 C 0.3688 0.10423 0.14463 0.0
C311 C 0.3354 0.11911 0.15237 0.0
H312 H 0.18521 0.87447 0.64663 0.0
H313 H 0.23269 0.96009 0.73528 0.0
H314 H 0.19724 0.01306 0.71195 0.0
H315 H 0.14929 0.03224 0.66867 0.0
H316 H 0.10333 0.94716 0.57908 0.0
H317 H 0.14157 0.89663 0.60048 0.0
C318 C 0.18793 0.90491 0.66067 0.0
C319 C 0.21114 0.91325 0.69283 0.0
C320 C 0.1675 0.935 0.64711 0.0
C321 C 0.21505 0.95309 0.71043 0.0
C322 C 0.19459 0.98315 0.69724 0.0
C323 C 0.14772 0.00269 0.65378 0.0
C324 C 0.12309 0.99317 0.6226 0.0
C325 C 0.17014 0.97401 0.66602 0.0
C326 C 0.12192 0.95517 0.60322 0.0
C327 C 0.14374 0.92622 0.61548 0.0
H328 H 0.76523 0.40213 0.94984 0.0
H329 H 0.78212 0.44464 0.8299 0.0
H330 H 0.85185 0.49169 0.83841 0.0
H331 H 0.9055 0.52546 0.88093 0.0
H332 H 0.88654 0.486 1.00155 0.0
H333 H 0.82011 0.43272 0.99181 0.0
C334 C 0.78458 0.42088 0.92548 0.0
C335 C 0.76891 0.41985 0.88929 0.0
C336 C 0.82397 0.44878 0.93081 0.0
C337 C 0.79379 0.445 0.85799 0.0
C338 C 0.83348 0.47195 0.8629 0.0
C339 C 0.88701 0.5049 0.90504 0.0
C340 C 0.90082 0.50989 0.94191 0.0
C341 C 0.84852 0.47492 0.89933 0.0
C342 C 0.87648 0.48304 0.97289 0.0
C343 C 0.83851 0.45252 0.96736 0.0
H344 H 0.75739 0.69303 0.38522 0.0
H345 H 0.68101 0.6926 0.29087 0.0
H346 H 0.62064 0.65628 0.33297 0.0
H347 H 0.58948 0.62637 0.39683 0.0
H348 H 0.66608 0.63086 0.49153 0.0
H349 H 0.72638 0.66562 0.4491 0.0
C350 C 0.72756 0.68548 0.37382 0.0
C351 C 0.72391 0.69568 0.33483 0.0
C352 C 0.69295 0.66593 0.39834 0.0
C353 C 0.68492 0.68454 0.32057 0.0
C354 C 0.6503 0.66423 0.34472 0.0
C355 C 0.61934 0.63515 0.40826 0.0
C356 C 0.6232 0.62594 0.44732 0.0
C357 C 0.65396 0.65509 0.3837 0.0
C358 C 0.66216 0.63765 0.46162 0.0
C359 C 0.69671 0.65732 0.43735 0.0
H360 H 0.12591 0.33102 0.19545 0.0
H361 H 0.21713 0.35499 0.10397 0.0
H362 H 0.1792 0.39285 0.06358 0.0
H363 H 0.12601 0.42893 0.05774 0.0
H364 H 0.0355 0.40828 0.14946 0.0
H365 H 0.0665 0.3587 0.18596 0.0
C366 C 0.13666 0.3434 0.1663 0.0
C367 C 0.1742 0.34044 0.15259 0.0
C368 C 0.11511 0.36626 0.14349 0.0
C369 C 0.18827 0.357 0.11497 0.0
C370 C 0.16673 0.37885 0.09198 0.0
C371 C 0.11259 0.4129 0.08544 0.0
C372 C 0.07891 0.42282 0.1011 0.0
C373 C 0.13101 0.38523 0.10645 0.0
C374 C 0.0615 0.40128 0.13678 0.0
C375 C 0.07942 0.37318 0.15779 0.0
H376 H 0.60211 0.31598 0.95738 0.0
H377 H 0.68038 0.25449 0.90037 0.0
H378 H 0.64728 0.1822 0.9383 0.0
H379 H 0.59713 0.13754 0.98937 0.0
H380 H 0.52077 0.20155 0.04643 0.0
H381 H 0.55179 0.27179 0.00641 0.0
C382 C 0.61152 0.28657 0.9528 0.0
C383 C 0.64328 0.29031 0.92594 0.0
C384 C 0.59273 0.24567 0.97476 0.0
C385 C 0.65595 0.25231 0.92101 0.0
C386 C 0.637 0.21105 0.94258 0.0
C387 C 0.58699 0.16671 0.99254 0.0
C388 C 0.55667 0.16436 0.02066 0.0
C389 C 0.60546 0.20743 0.96973 0.0
C390 C 0.54424 0.20262 0.0251 0.0
C391 C 0.5619 0.24278 1.00222 0.0
H392 H 0.80807 0.8451 0.33774 0.0
H393 H 0.90913 0.80423 0.29839 0.0
H394 H 0.95532 0.86128 0.33425 0.0
H395 H 0.96519 0.91804 0.38186 0.0
H396 H 0.8611 0.95259 0.42359 0.0
H397 H 0.81778 0.90206 0.38242 0.0
C398 C 0.84028 0.84874 0.3369 0.0
C399 C 0.85513 0.82012 0.31602 0.0
C400 C 0.86595 0.87994 0.35862 0.0
C401 C 0.89702 0.82594 0.31433 0.0
C402 C 0.92328 0.85819 0.33513 0.0
C403 C 0.93306 0.91447 0.38178 0.0
C404 C 0.91634 0.93855 0.40622 0.0
C405 C 0.90785 0.88456 0.35824 0.0
C406 C 0.87468 0.93385 0.40568 0.0
C407 C 0.84984 0.90518 0.38192 0.0
H408 H 0.35701 0.76387 0.69523 0.0
H409 H 0.47264 0.86674 0.70221 0.0
H410 H 0.50593 0.82368 0.66519 0.0
H411 H 0.50176 0.75698 0.62944 0.0
H412 H 0.38428 0.65864 0.6192 0.0
H413 H 0.35219 0.70072 0.65771 0.0
C414 C 0.38938 0.7777 0.6881 0.0
C415 C 0.41201 0.81901 0.70135 0.0
C416 C 0.40808 0.75363 0.66582 0.0
C417 C 0.45428 0.83496 0.69281 0.0
C418 C 0.47336 0.81049 0.67132 0.0
C419 C 0.46913 0.74499 0.63551 0.0
C420 C 0.44552 0.70475 0.62125 0.0
C421 C 0.45051 0.76982 0.65747 0.0
C422 C 0.40325 0.68966 0.62939 0.0
C423 C 0.38479 0.71359 0.65164 0.0
H424 H 0.84291 0.88978 0.71655 0.0
H425 H 0.9579 0.92619 0.76914 0.0
H426 H 0.99223 0.96511 0.70863 0.0
H427 H 0.98877 0.992 0.6415 0.0
H428 H 0.87263 0.95664 0.59048 0.0
H429 H 0.83957 0.91494 0.64993 0.0
C430 C 0.87548 0.90648 0.71494 0.0
C431 C 0.8977 0.90556 0.74755 0.0
C432 C 0.89478 0.92937 0.68038 0.0
C433 C 0.94006 0.92625 0.74451 0.0
C434 C 0.95964 0.9488 0.70998 0.0
C435 C 0.95623 0.97516 0.64335 0.0
C436 C 0.93327 0.97781 0.61143 0.0
C437 C 0.9372 0.95113 0.67783 0.0
C438 C 0.89114 0.95547 0.61445 0.0
C439 C 0.87214 0.93149 0.64849 0.0
H440 H 0.68528 0.17854 0.29861 0.0
H441 H 0.57353 0.11161 0.36561 0.0
H442 H 0.53844 0.08958 0.30819 0.0
H443 H 0.53894 0.08935 0.23892 0.0
H444 H 0.65062 0.15482 0.17148 0.0
H445 H 0.68619 0.17646 0.229 0.0
C446 C 0.65333 0.15887 0.30069 0.0
C447 C 0.6321 0.14733 0.33652 0.0
C448 C 0.63323 0.14575 0.26742 0.0
C449 C 0.59056 0.12201 0.33848 0.0
C450 C 0.57044 0.10898 0.30562 0.0
C451 C 0.57111 0.10818 0.23674 0.0
C452 C 0.59197 0.12043 0.20082 0.0
C453 C 0.5914 0.12075 0.26993 0.0
C454 C 0.63369 0.14488 0.19869 0.0
C455 C 0.65411 0.15739 0.23162 0.0
H456 H 0.36362 0.55401 0.38542 0.0
H457 H 0.44072 0.68671 0.34067 0.0
H458 H 0.47875 0.69337 0.39808 0.0
H459 H 0.49373 0.65878 0.45874 0.0
H460 H 0.41997 0.52344 0.50017 0.0
H461 H 0.37746 0.52029 0.44606 0.0
C462 C 0.38891 0.58432 0.38802 0.0
C463 C 0.39943 0.61957 0.35852 0.0
C464 C 0.41148 0.58733 0.42046 0.0
C465 C 0.43162 0.65913 0.36299 0.0
C466 C 0.45365 0.66285 0.39571 0.0
C467 C 0.46803 0.62889 0.45609 0.0
C468 C 0.46002 0.59136 0.48326 0.0
C469 C 0.44432 0.62681 0.42433 0.0
C470 C 0.42688 0.55263 0.4794 0.0
C471 C 0.40256 0.5508 0.44852 0.0
H472 H 0.09829 0.38217 0.93327 0.0
H473 H 0.18308 0.48529 0.85636 0.0
H474 H 0.1577 0.54289 0.88132 0.0
H475 H 0.1116 0.56438 0.92606 0.0
H476 H 0.03199 0.46107 0.00603 0.0
H477 H 0.05638 0.40359 0.97982 0.0
C478 C 0.11209 0.41727 0.92233 0.0
C479 C 0.14274 0.4289 0.89282 0.0
C480 C 0.09848 0.45049 0.93771 0.0
C481 C 0.15896 0.47476 0.87852 0.0
C482 C 0.14472 0.50797 0.89305 0.0
C483 C 0.0999 0.52929 0.93772 0.0
C484 C 0.07049 0.51697 0.96824 0.0
C485 C 0.11448 0.49626 0.92271 0.0
C486 C 0.0553 0.47144 0.98309 0.0
C487 C 0.06897 0.43849 0.96791 0.0
H488 H 0.71554 0.98247 0.85474 0.0
H489 H 0.70212 0.87269 0.94099 0.0
H490 H 0.66701 0.908 0.98442 0.0
H491 H 0.63252 0.96508 0.99415 0.0
H492 H 0.64486 0.07366 0.90636 0.0
H493 H 0.68861 0.04446 0.86752 0.0
C494 C 0.70585 0.9671 0.88346 0.0
C495 C 0.7114 0.9254 0.89498 0.0
C496 C 0.68514 0.98716 0.90777 0.0
C497 C 0.69845 0.90515 0.93192 0.0
C498 C 0.67813 0.92515 0.95652 0.0
C499 C 0.64545 0.98289 0.96687 0.0
C500 C 0.63486 0.02116 0.95298 0.0
C501 C 0.67015 0.96543 0.94428 0.0
C502 C 0.65205 0.04386 0.9176 0.0
C503 C 0.67705 0.02714 0.89527 0.0
H504 H 0.74167 0.10234 0.38307 0.0
H505 H 0.76801 0.20699 0.46043 0.0
H506 H 0.8293 0.18931 0.47756 0.0
H507 H 0.87497 0.14234 0.47206 0.0
H508 H 0.85186 0.04403 0.38945 0.0
H509 H 0.79062 0.06199 0.3723 0.0
C510 C 0.76108 0.12224 0.40299 0.0
C511 C 0.74932 0.15556 0.42073 0.0
C512 C 0.79718 0.11301 0.4119 0.0
C513 C 0.77519 0.18016 0.44699 0.0
C514 C 0.81063 0.17036 0.45667 0.0
C515 C 0.85659 0.12518 0.45015 0.0
C516 C 0.86784 0.09182 0.43218 0.0
C517 C 0.8217 0.13642 0.43969 0.0
C518 C 0.84401 0.07007 0.40358 0.0
C519 C 0.80884 0.08016 0.39383 0.0
H520 H 0.22164 0.66606 0.22263 0.0
H521 H 0.30238 0.73619 0.12659 0.0
H522 H 0.24738 0.71209 0.08399 0.0
H523 H 0.1783 0.66483 0.07314 0.0
H524 H 0.09836 0.59191 0.16891 0.0
H525 H 0.15103 0.62314 0.21225 0.0
C526 C 0.22706 0.67629 0.19241 0.0
C527 C 0.26604 0.70279 0.17788 0.0
C528 C 0.19555 0.6614 0.16788 0.0
C529 C 0.27252 0.71631 0.13868 0.0
C530 C 0.24117 0.70216 0.11418 0.0
C531 C 0.17222 0.65618 0.10351 0.0
C532 C 0.13462 0.62567 0.11765 0.0
C533 C 0.20284 0.67381 0.12834 0.0
C534 C 0.1272 0.615 0.15715 0.0
C535 C 0.15731 0.63282 0.18203 0.0
H536 H 0.31656 0.3978 0.69364 0.0
H537 H 0.27575 0.49543 0.7499 0.0
H538 H 0.33911 0.55458 0.72854 0.0
H539 H 0.40463 0.57926 0.69121 0.0
H540 H 0.44154 0.48294 0.62977 0.0
H541 H 0.38052 0.4225 0.65525 0.0
C542 C 0.32102 0.43212 0.70078 0.0
C543 C 0.29104 0.44208 0.72308 0.0
C544 C 0.3568 0.46617 0.68741 0.0
C545 C 0.29829 0.48658 0.73305 0.0
C546 C 0.33443 0.52052 0.72064 0.0
C547 C 0.39944 0.54489 0.68379 0.0
C548 C 0.42752 0.53525 0.65898 0.0
C549 C 0.36373 0.51074 0.69757 0.0
C550 C 0.42024 0.49094 0.64889 0.0
C551 C 0.38543 0.4565 0.66342 0.0
H552 H 0.94495 0.83495 0.8612 0.0
H553 H 0.81803 0.75702 0.88128 0.0
H554 H 0.83603 0.70059 0.92183 0.0
H555 H 0.88704 0.67176 0.95075 0.0
H556 H 0.0144 0.74472 0.92789 0.0
H557 H 0.99695 0.80409 0.88896 0.0
C558 C 0.92122 0.80552 0.87423 0.0
C559 C 0.88003 0.80116 0.86855 0.0
C560 C 0.93181 0.77204 0.89701 0.0
C561 C 0.84987 0.76253 0.8859 0.0
C562 C 0.86013 0.72974 0.9089 0.0
C563 C 0.91111 0.70076 0.9375 0.0
C564 C 0.95199 0.70389 0.9425 0.0
C565 C 0.9009 0.73413 0.91469 0.0
C566 C 0.98267 0.74147 0.92459 0.0
C567 C 0.97269 0.77542 0.90231 0.0
H568 H 0.37059 0.84917 0.21448 0.0
H569 H 0.44225 0.76371 0.18657 0.0
H570 H 0.49154 0.82757 0.14941 0.0
H571 H 0.50774 0.90391 0.11659 0.0
H572 H 0.437 0.99015 0.14476 0.0
H573 H 0.39394 0.93004 0.19035 0.0
C574 C 0.39766 0.84505 0.2011 0.0
C575 C 0.40275 0.80194 0.20286 0.0
C576 C 0.42552 0.88176 0.17932 0.0
C577 C 0.43791 0.79673 0.18571 0.0
C578 C 0.46582 0.83307 0.16411 0.0
C579 C 0.48331 0.90969 0.13325 0.0
C580 C 0.4749 0.95084 0.12699 0.0
C581 C 0.45892 0.87513 0.15939 0.0
C582 C 0.44379 0.95854 0.14911 0.0
C583 C 0.41909 0.92413 0.175 0.0
H584 H 0.12401 0.28841 0.70764 0.0
H585 H 0.24909 0.29557 0.68538 0.0
H586 H 0.22846 0.23721 0.64156 0.0
H587 H 0.17543 0.18488 0.60892 0.0
H588 H 0.04983 0.17538 0.63137 0.0
H589 H 0.07008 0.23382 0.67565 0.0
C590 C 0.1466 0.27683 0.6934 0.0
C591 C 0.18803 0.29664 0.69942 0.0
C592 C 0.13451 0.24308 0.66808 0.0
C593 C 0.21706 0.28143 0.68071 0.0
C594 C 0.20531 0.24796 0.65572 0.0
C595 C 0.15243 0.1957 0.62331 0.0
C596 C 0.11123 0.17599 0.61664 0.0
C597 C 0.16421 0.22886 0.64893 0.0
C598 C 0.08182 0.19011 0.63591 0.0
C599 C 0.09336 0.22347 0.66129 0.0
H600 H 0.5714 0.29011 0.45081 0.0
H601 H 0.60578 0.28313 0.56683 0.0
H602 H 0.59174 0.35369 0.57601 0.0
H603 H 0.56878 0.41683 0.55167 0.0
H604 H 0.53437 0.42471 0.43566 0.0
H605 H 0.54946 0.35468 0.42593 0.0
C606 C 0.57617 0.30432 0.47795 0.0
C607 C 0.58932 0.28115 0.50815 0.0
C608 C 0.56784 0.345 0.48315 0.0
C609 C 0.59508 0.29986 0.54327 0.0
C610 C 0.58719 0.34032 0.54853 0.0
C611 C 0.56446 0.40325 0.52425 0.0
C612 C 0.55023 0.426 0.49455 0.0
C613 C 0.57323 0.36299 0.5188 0.0
C614 C 0.54505 0.40786 0.45916 0.0
C615 C 0.55378 0.36781 0.4535 0.0
loop_
_geom_bond_atom_site_label_1
_geom_bond_atom_site_label_2
_geom_bond_distance
_geom_bond_site_symmetry_2
_ccdc_geom_bond_type
H0 C1 0.949 . S
C1 H0 0.949 . S
C1 C2 1.395 . S
C1 C3 1.391 . S
C2 C1 1.395 . S
C2 C5 1.390 . S
C3 C1 1.391 . S
C3 C7 1.387 . S
C3 C8 1.491 . S
H4 C5 0.950 . S
C5 C2 1.390 . S
C5 H4 0.950 . S
C5 C6 1.378 . S
C6 C5 1.378 . S
C6 C7 1.409 . S
C7 C3 1.387 . S
C7 C6 1.409 . S
C7 H9 0.951 . S
C8 C3 1.491 . S
C8 C10 1.382 . S
C8 C12 1.404 . S
H9 C7 0.951 . S
C10 C8 1.382 . S
C10 C11 1.390 . S
C10 H15 0.949 . S
C11 C10 1.390 . S
C11 C16 1.399 . S
C12 C8 1.404 . S
C12 H13 0.950 . S
C12 C14 1.375 . S
H13 C12 0.950 . S
C14 C12 1.375 . S
C14 C16 1.382 . S
C14 H18 0.950 . S
H15 C10 0.949 . S
C16 C11 1.399 . S
C16 C14 1.382 . S
C16 H17 0.952 . S
H17 C16 0.952 . S
H18 C14 0.950 . S
H19 C20 0.949 . S
C20 H19 0.949 . S
C20 C21 1.395 . S
C20 C22 1.391 . S
C21 C20 1.395 . S
C21 C24 1.390 . S
C22 C20 1.391 . S
C22 C26 1.387 . S
C22 C27 1.491 . S
H23 C24 0.950 . S
C24 C21 1.390 . S
C24 H23 0.950 . S
C24 C25 1.378 . S
C25 C24 1.378 . S
C25 C26 1.409 . S
C26 C22 1.387 . S
C26 C25 1.409 . S
C26 H28 0.951 . S
C27 C22 1.491 . S
C27 C29 1.382 . S
C27 C31 1.404 . S
H28 C26 0.951 . S
C29 C27 1.382 . S
C29 C30 1.390 . S
C29 H34 0.949 . S
C30 C29 1.390 . S
C30 C35 1.399 . S
C31 C27 1.404 . S
C31 H32 0.950 . S
C31 C33 1.375 . S
H32 C31 0.950 . S
C33 C31 1.375 . S
C33 C35 1.382 . S
C33 H37 0.950 . S
H34 C29 0.949 . S
C35 C30 1.399 . S
C35 C33 1.382 . S
C35 H36 0.952 . S
H36 C35 0.952 . S
H37 C33 0.950 . S
H38 C39 0.949 . S
C39 H38 0.949 . S
C39 C40 1.395 . S
C39 C41 1.391 . S
C40 C39 1.395 . S
C40 C43 1.390 . S
C41 C39 1.391 . S
C41 C45 1.387 . S
C41 C46 1.491 . S
H42 C43 0.950 . S
C43 C40 1.390 . S
C43 H42 0.950 . S
C43 C44 1.378 . S
C44 C43 1.378 . S
C44 C45 1.409 . S
C45 C41 1.387 . S
C45 C44 1.409 . S
C45 H47 0.951 . S
C46 C41 1.491 . S
C46 C48 1.382 . S
C46 C50 1.404 . S
H47 C45 0.951 . S
C48 C46 1.382 . S
C48 C49 1.390 . S
C48 H53 0.949 . S
C49 C48 1.390 . S
C49 C54 1.399 . S
C50 C46 1.404 . S
C50 H51 0.950 . S
C50 C52 1.375 . S
H51 C50 0.950 . S
C52 C50 1.375 . S
C52 C54 1.382 . S
C52 H56 0.950 . S
H53 C48 0.949 . S
C54 C49 1.399 . S
C54 C52 1.382 . S
C54 H55 0.952 . S
H55 C54 0.952 . S
H56 C52 0.950 . S
H57 C58 0.949 . S
C58 H57 0.949 . S
C58 C59 1.395 . S
C58 C60 1.391 . S
C59 C58 1.395 . S
C59 C62 1.390 . S
C60 C58 1.391 . S
C60 C64 1.387 . S
C60 C65 1.491 . S
H61 C62 0.950 . S
C62 C59 1.390 . S
C62 H61 0.950 . S
C62 C63 1.378 . S
C63 C62 1.378 . S
C63 C64 1.409 . S
C64 C60 1.387 . S
C64 C63 1.409 . S
C64 H66 0.951 . S
C65 C60 1.491 . S
C65 C67 1.382 . S
C65 C69 1.404 . S
H66 C64 0.951 . S
C67 C65 1.382 . S
C67 C68 1.390 . S
C67 H72 0.949 . S
C68 C67 1.390 . S
C68 C73 1.399 . S
C69 C65 1.404 . S
C69 H70 0.950 . S
C69 C71 1.375 . S
H70 C69 0.950 . S
C71 C69 1.375 . S
C71 C73 1.382 . S
C71 H75 0.950 . S
H72 C67 0.949 . S
C73 C68 1.399 . S
C73 C71 1.382 . S
C73 H74 0.952 . S
H74 C73 0.952 . S
H75 C71 0.950 . S
H76 C77 0.949 . S
C77 H76 0.949 . S
C77 C78 1.395 . S
C77 C79 1.391 . S
C78 C77 1.395 . S
C78 C81 1.390 . S
C79 C77 1.391 . S
C79 C83 1.387 . S
C79 C84 1.491 . S
H80 C81 0.950 . S
C81 C78 1.390 . S
C81 H80 0.950 . S
C81 C82 1.378 . S
C82 C81 1.378 . S
C82 C83 1.409 . S
C83 C79 1.387 . S
C83 C82 1.409 . S
C83 H85 0.951 . S
C84 C79 1.491 . S
C84 C86 1.382 . S
C84 C88 1.404 . S
H85 C83 0.951 . S
C86 C84 1.382 . S
C86 C87 1.390 . S
C86 H91 0.949 . S
C87 C86 1.390 . S
C87 C92 1.399 . S
C88 C84 1.404 . S
C88 H89 0.950 . S
C88 C90 1.375 . S
H89 C88 0.950 . S
C90 C88 1.375 . S
C90 C92 1.382 . S
C90 H94 0.950 . S
H91 C86 0.949 . S
C92 C87 1.399 . S
C92 C90 1.382 . S
C92 H93 0.952 . S
H93 C92 0.952 . S
H94 C90 0.950 . S
H95 C96 0.949 . S
C96 H95 0.949 . S
C96 C97 1.395 . S
C96 C98 1.391 . S
C97 C96 1.395 . S
C97 C100 1.390 . S
C98 C96 1.391 . S
C98 C102 1.387 . S
C98 C103 1.491 . S
H99 C100 0.950 . S
C100 C97 1.390 . S
C100 H99 0.950 . S
C100 C101 1.378 . S
C101 C100 1.378 . S
C101 C102 1.409 . S
C102 C98 1.387 . S
C102 C101 1.409 . S
C102 H104 0.951 . S
C103 C98 1.491 . S
C103 C105 1.382 . S
C103 C107 1.404 . S
H104 C102 0.951 . S
C105 C103 1.382 . S
C105 C106 1.390 . S
C105 H110 0.949 . S
C106 C105 1.390 . S
C106 C111 1.399 . S
C107 C103 1.404 . S
C107 H108 0.950 . S
C107 C109 1.375 . S
H108 C107 0.950 . S
C109 C107 1.375 . S
C109 C111 1.382 . S
C109 H113 0.950 . S
H110 C105 0.949 . S
C111 C106 1.399 . S
C111 C109 1.382 . S
C111 H112 0.952 . S
H112 C111 0.952 . S
H113 C109 0.950 . S
H114 C115 0.949 . S
C115 H114 0.949 . S
C115 C116 1.395 . S
C115 C117 1.391 . S
C116 C115 1.395 . S
C116 C119 1.390 . S
C117 C115 1.391 . S
C117 C121 1.387 . S
C117 C122 1.491 . S
H118 C119 0.950 . S
C119 C116 1.390 . S
C119 H118 0.950 . S
C119 C120 1.378 . S
C120 C119 1.378 . S
C120 C121 1.409 . S
C121 C117 1.387 . S
C121 C120 1.409 . S
C121 H123 0.951 . S
C122 C117 1.491 . S
C122 C124 1.382 . S
C122 C126 1.404 . S
H123 C121 0.951 . S
C124 C122 1.382 . S
C124 C125 1.390 . S
C124 H129 0.949 . S
C125 C124 1.390 . S
C125 C130 1.399 . S
C126 C122 1.404 . S
C126 H127 0.950 . S
C126 C128 1.375 . S
H127 C126 0.950 . S
C128 C126 1.375 . S
C128 C130 1.382 . S
C128 H132 0.950 . S
H129 C124 0.949 . S
C130 C125 1.399 . S
C130 C128 1.382 . S
C130 H131 0.952 . S
H131 C130 0.952 . S
H132 C128 0.950 . S
H133 C134 0.949 . S
C134 H133 0.949 . S
C134 C135 1.395 . S
C134 C136 1.391 . S
C135 C134 1.395 . S
C135 C138 1.390 . S
C136 C134 1.391 . S
C136 C140 1.387 . S
C136 C141 1.491 . S
H137 C138 0.950 . S
C138 C135 1.390 . S
C138 H137 0.950 . S
C138 C139 1.378 . S
C139 C138 1.378 . S
C139 C140 1.409 . S
C140 C136 1.387 . S
C140 C139 1.409 . S
C140 H142 0.951 . S
C141 C136 1.491 . S
C141 C143 1.382 . S
C141 C145 1.404 . S
H142 C140 0.951 . S
C143 C141 1.382 . S
C143 C144 1.390 . S
C143 H148 0.949 . S
C144 C143 1.390 . S
C144 C149 1.399 . S
C145 C141 1.404 . S
C145 H146 0.950 . S
C145 C147 1.375 . S
H146 C145 0.950 . S
C147 C145 1.375 . S
C147 C149 1.382 . S
C147 H151 0.950 . S
H148 C143 0.949 . S
C149 C144 1.399 . S
C149 C147 1.382 . S
C149 H150 0.952 . S
H150 C149 0.952 . S
H151 C147 0.950 . S
Zn152 O158 1.969 . S
Zn152 O159 1.958 1_545 S
Zn152 O163 2.024 . S
Zn152 O168 1.969 . S
Zn153 O160 1.969 1_545 S
Zn153 O166 1.969 . S
Zn153 O167 1.965 1_655 S
Zn153 O169 2.024 1_545 S
C154 O155 1.229 . S
C154 O163 1.058 . S
O155 C154 1.229 . S
C156 O157 1.229 . S
C156 O169 1.058 . S
O157 C156 1.229 . S
O158 Zn152 1.969 . S
O158 C161 1.261 1_545 S
O159 Zn152 1.958 1_565 S
O159 C170 1.258 1_455 S
O160 Zn153 1.969 1_565 S
O160 C170 1.258 . S
C161 O158 1.261 1_565 S
C161 O162 1.221 1_565 S
O162 C161 1.221 1_545 S
O163 Zn152 2.024 . S
O163 C154 1.058 . S
C164 O165 1.228 . S
C164 O166 1.267 . S
O165 C164 1.228 . S
O166 Zn153 1.969 . S
O166 C164 1.267 . S
O167 Zn153 1.965 1_455 S
O167 C171 1.260 . S
O168 Zn152 1.969 . S
O168 C171 1.258 . S
O169 Zn153 2.024 1_565 S
O169 C156 1.058 . S
C170 O159 1.258 1_655 S
C170 O160 1.258 . S
C171 O167 1.260 . S
C171 O168 1.258 . S
Zn172 O178 1.969 . S
Zn172 O179 1.965 1_565 S
Zn172 O183 2.024 1_554 S
Zn172 O188 1.969 . S
Zn173 O180 1.969 . S
Zn173 O186 1.969 . S
Zn173 O187 1.965 . S
Zn173 O189 2.024 . S
C174 O175 1.229 . S
C174 O183 1.058 . S
O175 C174 1.229 . S
C176 O177 1.229 . S
C176 O189 1.058 . S
O177 C176 1.229 . S
O178 Zn172 1.969 . S
O178 C181 1.267 1_554 S
O179 Zn172 1.965 1_545 S
O179 C190 1.260 . S
O180 Zn173 1.969 . S
O180 C190 1.258 . S
C181 O178 1.267 1_556 S
C181 O182 1.228 . S
O182 C181 1.228 . S
O183 Zn172 2.024 1_556 S
O183 C174 1.058 . S
C184 O185 1.228 . S
C184 O186 1.267 . S
O185 C184 1.228 . S
O186 Zn173 1.969 . S
O186 C184 1.267 . S
O187 Zn173 1.965 . S
O187 C191 1.260 1_545 S
O188 Zn172 1.969 . S
O188 C191 1.258 . S
O189 Zn173 2.024 . S
O189 C176 1.058 . S
C190 O179 1.260 . S
C190 O180 1.258 . S
C191 O187 1.260 1_565 S
C191 O188 1.258 . S
Zn192 O198 1.969 . S
Zn192 O199 1.965 . S
Zn192 O203 2.024 . S
Zn192 O208 1.969 . S
Zn193 O200 1.969 . S
Zn193 O206 1.969 . S
Zn193 O207 1.965 . S
Zn193 O209 2.024 . S
C194 O195 1.229 . S
C194 O203 1.058 . S
O195 C194 1.229 . S
C196 O197 1.229 . S
C196 O209 1.058 . S
O197 C196 1.229 . S
O198 Zn192 1.969 . S
O198 C201 1.267 . S
O199 Zn192 1.965 . S
O199 C210 1.260 . S
O200 Zn193 1.969 . S
O200 C210 1.258 . S
C201 O198 1.267 . S
C201 O202 1.228 . S
O202 C201 1.228 . S
O203 Zn192 2.024 . S
O203 C194 1.058 . S
C204 O205 1.228 . S
C204 O206 1.267 . S
O205 C204 1.228 . S
O206 Zn193 1.969 . S
O206 C204 1.267 . S
O207 Zn193 1.965 . S
O207 C211 1.260 . S
O208 Zn192 1.969 . S
O208 C211 1.258 . S
O209 Zn193 2.024 . S
O209 C196 1.058 . S
C210 O199 1.260 . S
C210 O200 1.258 . S
C211 O207 1.260 . S
C211 O208 1.258 . S
Zn212 O218 1.969 1_655 S
Zn212 O219 1.965 1_656 S
Zn212 O223 2.024 . S
Zn212 O228 1.969 1_655 S
Zn213 O220 1.969 . S
Zn213 O226 1.969 . S
Zn213 O227 1.965 1_554 S
Zn213 O229 2.024 . S
C214 O215 1.229 . S
C214 O223 1.058 . S
O215 C214 1.229 . S
C216 O217 1.229 . S
C216 O229 1.058 . S
O217 C216 1.229 . S
O218 Zn212 1.969 1_455 S
O218 C221 1.267 1_455 S
O219 Zn212 1.965 1_454 S
O219 C230 1.260 . S
O220 Zn213 1.969 . S
O220 C230 1.258 . S
C221 O218 1.267 1_655 S
C221 O222 1.228 . S
O222 C221 1.228 . S
O223 Zn212 2.024 . S
O223 C214 1.058 . S
C224 O225 1.228 . S
C224 O226 1.267 . S
O225 C224 1.228 . S
O226 Zn213 1.969 . S
O226 C224 1.267 . S
O227 Zn213 1.965 1_556 S
O227 C231 1.260 . S
O228 Zn212 1.969 1_455 S
O228 C231 1.258 . S
O229 Zn213 2.024 . S
O229 C216 1.058 . S
C230 O219 1.260 . S
C230 O220 1.258 . S
C231 O227 1.260 . S
C231 O228 1.258 . S
H232 C238 0.930 . S
H233 C241 0.930 . S
H234 C242 0.930 . S
H235 C243 0.930 . S
H236 C246 0.930 . S
H237 C247 0.930 . S
C238 H232 0.930 . S
C238 C239 1.355 . S
C238 C240 1.415 . S
C239 C238 1.355 . S
C239 C241 1.419 . S
C240 C238 1.415 . S
C240 C245 1.425 . S
C240 C247 1.409 . S
C241 H233 0.930 . S
C241 C239 1.419 . S
C241 C242 1.362 . S
C242 H234 0.930 . S
C242 C241 1.362 . S
C242 C245 1.409 . S
C243 H235 0.930 . S
C243 C244 1.355 . S
C243 C245 1.415 . S
C244 C243 1.355 . S
C244 C246 1.419 . S
C245 C240 1.425 . S
C245 C242 1.409 . S
C245 C243 1.415 . S
C246 H236 0.930 . S
C246 C244 1.419 . S
C246 C247 1.362 . S
C247 H237 0.930 . S
C247 C240 1.409 . S
C247 C246 1.362 . S
H248 C254 0.930 . S
H249 C257 0.930 . S
H250 C258 0.930 . S
H251 C259 0.930 . S
H252 C262 0.930 . S
H253 C263 0.930 . S
C254 H248 0.930 . S
C254 C255 1.355 . S
C254 C256 1.415 . S
C255 C254 1.355 . S
C255 C257 1.419 . S
C256 C254 1.415 . S
C256 C261 1.425 . S
C256 C263 1.409 . S
C257 H249 0.930 . S
C257 C255 1.419 . S
C257 C258 1.362 . S
C258 H250 0.930 . S
C258 C257 1.362 . S
C258 C261 1.409 . S
C259 H251 0.930 . S
C259 C260 1.355 . S
C259 C261 1.415 . S
C260 C259 1.355 . S
C260 C262 1.419 . S
C261 C256 1.425 . S
C261 C258 1.409 . S
C261 C259 1.415 . S
C262 H252 0.930 . S
C262 C260 1.419 . S
C262 C263 1.362 . S
C263 H253 0.930 . S
C263 C256 1.409 . S
C263 C262 1.362 . S
H264 C270 0.930 . S
H265 C273 0.930 . S
H266 C274 0.930 . S
H267 C275 0.930 . S
H268 C278 0.930 . S
H269 C279 0.930 . S
C270 H264 0.930 . S
C270 C271 1.355 . S
C270 C272 1.415 . S
C271 C270 1.355 . S
C271 C273 1.419 . S
C272 C270 1.415 . S
C272 C277 1.425 . S
C272 C279 1.409 . S
C273 H265 0.930 . S
C273 C271 1.419 . S
C273 C274 1.362 . S
C274 H266 0.930 . S
C274 C273 1.362 . S
C274 C277 1.409 . S
C275 H267 0.930 . S
C275 C276 1.355 . S
C275 C277 1.415 . S
C276 C275 1.355 . S
C276 C278 1.419 . S
C277 C272 1.425 . S
C277 C274 1.409 . S
C277 C275 1.415 . S
C278 H268 0.930 . S
C278 C276 1.419 . S
C278 C279 1.362 . S
C279 H269 0.930 . S
C279 C272 1.409 . S
C279 C278 1.362 . S
H280 C286 0.930 . S
H281 C289 0.930 . S
H282 C290 0.930 . S
H283 C291 0.930 1_455 S
H284 C294 0.930 . S
H285 C295 0.930 . S
C286 H280 0.930 . S
C286 C287 1.355 . S
C286 C288 1.415 . S
C287 C286 1.355 . S
C287 C289 1.419 . S
C288 C286 1.415 . S
C288 C293 1.425 . S
C288 C295 1.409 . S
C289 H281 0.930 . S
C289 C287 1.419 . S
C289 C290 1.362 . S
C290 H282 0.930 . S
C290 C289 1.362 . S
C290 C293 1.409 . S
C291 H283 0.930 1_655 S
C291 C292 1.355 . S
C291 C293 1.415 . S
C292 C291 1.355 . S
C292 C294 1.419 . S
C293 C288 1.425 . S
C293 C290 1.409 . S
C293 C291 1.415 . S
C294 H284 0.930 . S
C294 C292 1.419 . S
C294 C295 1.362 . S
C295 H285 0.930 . S
C295 C288 1.409 . S
C295 C294 1.362 . S
H296 C302 0.930 . S
H297 C305 0.930 . S
H298 C306 0.930 . S
H299 C307 0.930 . S
H300 C310 0.930 . S
H301 C311 0.930 . S
C302 H296 0.930 . S
C302 C303 1.355 . S
C302 C304 1.415 . S
C303 C302 1.355 . S
C303 C305 1.419 . S
C304 C302 1.415 . S
C304 C309 1.425 . S
C304 C311 1.409 . S
C305 H297 0.930 . S
C305 C303 1.419 . S
C305 C306 1.362 . S
C306 H298 0.930 . S
C306 C305 1.362 . S
C306 C309 1.409 . S
C307 H299 0.930 . S
C307 C308 1.355 . S
C307 C309 1.415 . S
C308 C307 1.355 . S
C308 C310 1.419 . S
C309 C304 1.425 . S
C309 C306 1.409 . S
C309 C307 1.415 . S
C310 H300 0.930 . S
C310 C308 1.419 . S
C310 C311 1.362 . S
C311 H301 0.930 . S
C311 C304 1.409 . S
C311 C310 1.362 . S
H312 C318 0.930 . S
H313 C321 0.930 . S
H314 C322 0.930 . S
H315 C323 0.930 . S
H316 C326 0.930 . S
H317 C327 0.930 . S
C318 H312 0.930 . S
C318 C319 1.355 . S
C318 C320 1.415 . S
C319 C318 1.355 . S
C319 C321 1.419 . S
C320 C318 1.415 . S
C320 C325 1.425 . S
C320 C327 1.409 1_565 S
C321 H313 0.930 . S
C321 C319 1.419 . S
C321 C322 1.362 . S
C322 H314 0.930 . S
C322 C321 1.362 . S
C322 C325 1.409 . S
C323 H315 0.930 . S
C323 C324 1.355 . S
C323 C325 1.415 . S
C324 C323 1.355 . S
C324 C326 1.419 1_565 S
C325 C320 1.425 . S
C325 C322 1.409 . S
C325 C323 1.415 . S
C326 H316 0.930 . S
C326 C324 1.419 1_545 S
C326 C327 1.362 . S
C327 H317 0.930 . S
C327 C320 1.409 1_545 S
C327 C326 1.362 . S
H328 C334 0.930 . S
H329 C337 0.930 . S
H330 C338 0.930 . S
H331 C339 0.930 . S
H332 C342 0.930 . S
H333 C343 0.930 . S
C334 H328 0.930 . S
C334 C335 1.355 . S
C334 C336 1.415 . S
C335 C334 1.355 . S
C335 C337 1.419 . S
C336 C334 1.415 . S
C336 C341 1.425 . S
C336 C343 1.409 . S
C337 H329 0.930 . S
C337 C335 1.419 . S
C337 C338 1.362 . S
C338 H330 0.930 . S
C338 C337 1.362 . S
C338 C341 1.409 . S
C339 H331 0.930 . S
C339 C340 1.355 . S
C339 C341 1.415 . S
C340 C339 1.355 . S
C340 C342 1.419 . S
C341 C336 1.425 . S
C341 C338 1.409 . S
C341 C339 1.415 . S
C342 H332 0.930 . S
C342 C340 1.419 . S
C342 C343 1.362 . S
C343 H333 0.930 . S
C343 C336 1.409 . S
C343 C342 1.362 . S
H344 C350 0.930 . S
H345 C353 0.930 . S
H346 C354 0.930 . S
H347 C355 0.930 . S
H348 C358 0.930 . S
H349 C359 0.930 . S
C350 H344 0.930 . S
C350 C351 1.355 . S
C350 C352 1.415 . S
C351 C350 1.355 . S
C351 C353 1.419 . S
C352 C350 1.415 . S
C352 C357 1.425 . S
C352 C359 1.409 . S
C353 H345 0.930 . S
C353 C351 1.419 . S
C353 C354 1.362 . S
C354 H346 0.930 . S
C354 C353 1.362 . S
C354 C357 1.409 . S
C355 H347 0.930 . S
C355 C356 1.355 . S
C355 C357 1.415 . S
C356 C355 1.355 . S
C356 C358 1.419 . S
C357 C352 1.425 . S
C357 C354 1.409 . S
C357 C355 1.415 . S
C358 H348 0.930 . S
C358 C356 1.419 . S
C358 C359 1.362 . S
C359 H349 0.930 . S
C359 C352 1.409 . S
C359 C358 1.362 . S
H360 C366 0.930 . S
H361 C369 0.930 . S
H362 C370 0.930 . S
H363 C371 0.930 . S
H364 C374 0.930 . S
H365 C375 0.930 . S
C366 H360 0.930 . S
C366 C367 1.355 . S
C366 C368 1.415 . S
C367 C366 1.355 . S
C367 C369 1.419 . S
C368 C366 1.415 . S
C368 C373 1.425 . S
C368 C375 1.409 . S
C369 H361 0.930 . S
C369 C367 1.419 . S
C369 C370 1.362 . S
C370 H362 0.930 . S
C370 C369 1.362 . S
C370 C373 1.409 . S
C371 H363 0.930 . S
C371 C372 1.355 . S
C371 C373 1.415 . S
C372 C371 1.355 . S
C372 C374 1.419 . S
C373 C368 1.425 . S
C373 C370 1.409 . S
C373 C371 1.415 . S
C374 H364 0.930 . S
C374 C372 1.419 . S
C374 C375 1.362 . S
C375 H365 0.930 . S
C375 C368 1.409 . S
C375 C374 1.362 . S
H376 C382 0.930 . S
H377 C385 0.930 . S
H378 C386 0.930 . S
H379 C387 0.930 1_554 S
H380 C390 0.930 . S
H381 C391 0.930 . S
C382 H376 0.930 . S
C382 C383 1.355 . S
C382 C384 1.415 . S
C383 C382 1.355 . S
C383 C385 1.419 . S
C384 C382 1.415 . S
C384 C389 1.425 . S
C384 C391 1.409 . S
C385 H377 0.930 . S
C385 C383 1.419 . S
C385 C386 1.362 . S
C386 H378 0.930 . S
C386 C385 1.362 . S
C386 C389 1.409 . S
C387 H379 0.930 1_556 S
C387 C388 1.354 . S
C387 C389 1.415 . S
C388 C387 1.354 . S
C388 C390 1.437 . S
C389 C384 1.425 . S
C389 C386 1.409 . S
C389 C387 1.415 . S
C390 H380 0.930 . S
C390 C388 1.437 . S
C390 C391 1.362 . S
C391 H381 0.930 . S
C391 C384 1.409 . S
C391 C390 1.362 . S
H392 C398 0.930 . S
H393 C401 0.930 . S
H394 C402 0.930 . S
H395 C403 0.930 . S
H396 C406 0.930 . S
H397 C407 0.930 . S
C398 H392 0.930 . S
C398 C399 1.355 . S
C398 C400 1.415 . S
C399 C398 1.355 . S
C399 C401 1.419 . S
C400 C398 1.415 . S
C400 C405 1.425 . S
C400 C407 1.409 . S
C401 H393 0.930 . S
C401 C399 1.419 . S
C401 C402 1.362 . S
C402 H394 0.930 . S
C402 C401 1.362 . S
C402 C405 1.409 . S
C403 H395 0.930 . S
C403 C404 1.355 . S
C403 C405 1.415 . S
C404 C403 1.355 . S
C404 C406 1.419 . S
C405 C400 1.425 . S
C405 C402 1.409 . S
C405 C403 1.415 . S
C406 H396 0.930 . S
C406 C404 1.419 . S
C406 C407 1.362 . S
C407 H397 0.930 . S
C407 C400 1.409 . S
C407 C406 1.362 . S
H408 C414 0.930 . S
H409 C417 0.930 . S
H410 C418 0.930 . S
H411 C419 0.930 . S
H412 C422 0.930 . S
H413 C423 0.930 . S
C414 H408 0.930 . S
C414 C415 1.355 . S
C414 C416 1.415 . S
C415 C414 1.355 . S
C415 C417 1.419 . S
C416 C414 1.415 . S
C416 C421 1.425 . S
C416 C423 1.409 . S
C417 H409 0.930 . S
C417 C415 1.419 . S
C417 C418 1.362 . S
C418 H410 0.930 . S
C418 C417 1.362 . S
C418 C421 1.409 . S
C419 H411 0.930 . S
C419 C420 1.355 . S
C419 C421 1.415 . S
C420 C419 1.355 . S
C420 C422 1.419 . S
C421 C416 1.425 . S
C421 C418 1.409 . S
C421 C419 1.415 . S
C422 H412 0.930 . S
C422 C420 1.419 . S
C422 C423 1.362 . S
C423 H413 0.930 . S
C423 C416 1.409 . S
C423 C422 1.362 . S
H424 C430 0.930 . S
H425 C433 0.930 . S
H426 C434 0.930 . S
H427 C435 0.930 1_545 S
H428 C438 0.930 . S
H429 C439 0.930 . S
C430 H424 0.930 . S
C430 C431 1.355 . S
C430 C432 1.415 . S
C431 C430 1.355 . S
C431 C433 1.419 . S
C432 C430 1.415 . S
C432 C437 1.425 . S
C432 C439 1.409 . S
C433 H425 0.930 . S
C433 C431 1.419 . S
C433 C434 1.362 . S
C434 H426 0.930 . S
C434 C433 1.362 . S
C434 C437 1.409 . S
C435 H427 0.930 1_565 S
C435 C436 1.355 . S
C435 C437 1.415 . S
C436 C435 1.355 . S
C436 C438 1.419 . S
C437 C432 1.425 . S
C437 C434 1.409 . S
C437 C435 1.415 . S
C438 H428 0.930 . S
C438 C436 1.419 . S
C438 C439 1.362 . S
C439 H429 0.930 . S
C439 C432 1.409 . S
C439 C438 1.362 . S
H440 C446 0.930 . S
H441 C449 0.930 . S
H442 C450 0.930 . S
H443 C451 0.930 . S
H444 C454 0.930 . S
H445 C455 0.930 . S
C446 H440 0.930 . S
C446 C447 1.355 . S
C446 C448 1.415 . S
C447 C446 1.355 . S
C447 C449 1.419 . S
C448 C446 1.415 . S
C448 C453 1.425 . S
C448 C455 1.409 . S
C449 H441 0.930 . S
C449 C447 1.419 . S
C449 C450 1.362 . S
C450 H442 0.930 . S
C450 C449 1.362 . S
C450 C453 1.409 . S
C451 H443 0.930 . S
C451 C452 1.355 . S
C451 C453 1.415 . S
C452 C451 1.355 . S
C452 C454 1.419 . S
C453 C448 1.425 . S
C453 C450 1.409 . S
C453 C451 1.415 . S
C454 H444 0.930 . S
C454 C452 1.419 . S
C454 C455 1.362 . S
C455 H445 0.930 . S
C455 C448 1.409 . S
C455 C454 1.362 . S
H456 C462 0.930 . S
H457 C465 0.930 . S
H458 C466 0.930 . S
H459 C467 0.930 . S
H460 C470 0.930 . S
H461 C471 0.930 . S
C462 H456 0.930 . S
C462 C463 1.355 . S
C462 C464 1.415 . S
C463 C462 1.355 . S
C463 C465 1.419 . S
C464 C462 1.415 . S
C464 C469 1.425 . S
C464 C471 1.409 . S
C465 H457 0.930 . S
C465 C463 1.419 . S
C465 C466 1.362 . S
C466 H458 0.930 . S
C466 C465 1.362 . S
C466 C469 1.409 . S
C467 H459 0.930 . S
C467 C468 1.355 . S
C467 C469 1.415 . S
C468 C467 1.355 . S
C468 C470 1.419 . S
C469 C464 1.425 . S
C469 C466 1.409 . S
C469 C467 1.415 . S
C470 H460 0.930 . S
C470 C468 1.419 . S
C470 C471 1.362 . S
C471 H461 0.930 . S
C471 C464 1.409 . S
C471 C470 1.362 . S
H472 C478 0.930 . S
H473 C481 0.930 . S
H474 C482 0.930 . S
H475 C483 0.930 . S
H476 C486 0.930 . S
H477 C487 0.930 . S
C478 H472 0.930 . S
C478 C479 1.355 . S
C478 C480 1.415 . S
C479 C478 1.355 . S
C479 C481 1.419 . S
C480 C478 1.415 . S
C480 C485 1.425 . S
C480 C487 1.409 . S
C481 H473 0.930 . S
C481 C479 1.419 . S
C481 C482 1.362 . S
C482 H474 0.930 . S
C482 C481 1.362 . S
C482 C485 1.409 . S
C483 H475 0.930 . S
C483 C484 1.355 . S
C483 C485 1.415 . S
C484 C483 1.355 . S
C484 C486 1.419 . S
C485 C480 1.425 . S
C485 C482 1.409 . S
C485 C483 1.415 . S
C486 H476 0.930 . S
C486 C484 1.419 . S
C486 C487 1.362 . S
C487 H477 0.930 . S
C487 C480 1.409 . S
C487 C486 1.362 . S
H488 C494 0.930 . S
H489 C497 0.930 . S
H490 C498 0.930 . S
H491 C499 0.930 . S
H492 C502 0.930 1_545 S
H493 C503 0.930 . S
C494 H488 0.930 . S
C494 C495 1.355 . S
C494 C496 1.415 . S
C495 C494 1.355 . S
C495 C497 1.419 . S
C496 C494 1.415 . S
C496 C501 1.425 . S
C496 C503 1.409 . S
C497 H489 0.930 . S
C497 C495 1.419 . S
C497 C498 1.362 . S
C498 H490 0.930 . S
C498 C497 1.362 . S
C498 C501 1.409 . S
C499 H491 0.930 . S
C499 C500 1.355 . S
C499 C501 1.415 . S
C500 C499 1.355 . S
C500 C502 1.419 . S
C501 C496 1.425 . S
C501 C498 1.409 . S
C501 C499 1.415 . S
C502 H492 0.930 1_565 S
C502 C500 1.419 . S
C502 C503 1.362 . S
C503 H493 0.930 . S
C503 C496 1.409 . S
C503 C502 1.362 . S
H504 C510 0.930 . S
H505 C513 0.930 . S
H506 C514 0.930 . S
H507 C515 0.930 . S
H508 C518 0.930 . S
H509 C519 0.930 . S
C510 H504 0.930 . S
C510 C511 1.355 . S
C510 C512 1.415 . S
C511 C510 1.355 . S
C511 C513 1.419 . S
C512 C510 1.415 . S
C512 C517 1.425 . S
C512 C519 1.409 . S
C513 H505 0.930 . S
C513 C511 1.419 . S
C513 C514 1.362 . S
C514 H506 0.930 . S
C514 C513 1.362 . S
C514 C517 1.409 . S
C515 H507 0.930 . S
C515 C516 1.355 . S
C515 C517 1.415 . S
C516 C515 1.355 . S
C516 C518 1.419 . S
C517 C512 1.425 . S
C517 C514 1.409 . S
C517 C515 1.415 . S
C518 H508 0.930 . S
C518 C516 1.419 . S
C518 C519 1.362 . S
C519 H509 0.930 . S
C519 C512 1.409 . S
C519 C518 1.362 . S
H520 C526 0.930 . S
H521 C529 0.930 . S
H522 C530 0.930 . S
H523 C531 0.930 . S
H524 C534 0.930 . S
H525 C535 0.930 . S
C526 H520 0.930 . S
C526 C527 1.355 . S
C526 C528 1.415 . S
C527 C526 1.355 . S
C527 C529 1.419 . S
C528 C526 1.415 . S
C528 C533 1.425 . S
C528 C535 1.409 . S
C529 H521 0.930 . S
C529 C527 1.419 . S
C529 C530 1.362 . S
C530 H522 0.930 . S
C530 C529 1.362 . S
C530 C533 1.409 . S
C531 H523 0.930 . S
C531 C532 1.355 . S
C531 C533 1.415 . S
C532 C531 1.355 . S
C532 C534 1.419 . S
C533 C528 1.425 . S
C533 C530 1.409 . S
C533 C531 1.415 . S
C534 H524 0.930 . S
C534 C532 1.419 . S
C534 C535 1.362 . S
C535 H525 0.930 . S
C535 C528 1.409 . S
C535 C534 1.362 . S
H536 C542 0.930 . S
H537 C545 0.930 . S
H538 C546 0.930 . S
H539 C547 0.930 . S
H540 C550 0.930 . S
H541 C551 0.930 . S
C542 H536 0.930 . S
C542 C543 1.355 . S
C542 C544 1.415 . S
C543 C542 1.355 . S
C543 C545 1.419 . S
C544 C542 1.415 . S
C544 C549 1.425 . S
C544 C551 1.409 . S
C545 H537 0.930 . S
C545 C543 1.419 . S
C545 C546 1.362 . S
C546 H538 0.930 . S
C546 C545 1.362 . S
C546 C549 1.409 . S
C547 H539 0.930 . S
C547 C548 1.355 . S
C547 C549 1.415 . S
C548 C547 1.355 . S
C548 C550 1.419 . S
C549 C544 1.425 . S
C549 C546 1.409 . S
C549 C547 1.415 . S
C550 H540 0.930 . S
C550 C548 1.419 . S
C550 C551 1.362 . S
C551 H541 0.930 . S
C551 C544 1.409 . S
C551 C550 1.362 . S
H552 C558 0.930 . S
H553 C561 0.930 . S
H554 C562 0.930 . S
H555 C563 0.930 . S
H556 C566 0.930 1_455 S
H557 C567 0.930 . S
C558 H552 0.930 . S
C558 C559 1.355 . S
C558 C560 1.415 . S
C559 C558 1.355 . S
C559 C561 1.419 . S
C560 C558 1.415 . S
C560 C565 1.425 . S
C560 C567 1.409 . S
C561 H553 0.930 . S
C561 C559 1.419 . S
C561 C562 1.362 . S
C562 H554 0.930 . S
C562 C561 1.362 . S
C562 C565 1.409 . S
C563 H555 0.930 . S
C563 C564 1.355 . S
C563 C565 1.415 . S
C564 C563 1.355 . S
C564 C566 1.419 . S
C565 C560 1.425 . S
C565 C562 1.409 . S
C565 C563 1.415 . S
C566 H556 0.930 1_655 S
C566 C564 1.419 . S
C566 C567 1.362 . S
C567 H557 0.930 . S
C567 C560 1.409 . S
C567 C566 1.362 . S
H568 C574 0.930 . S
H569 C577 0.930 . S
H570 C578 0.930 . S
H571 C579 0.930 . S
H572 C582 0.930 . S
H573 C583 0.930 . S
C574 H568 0.930 . S
C574 C575 1.355 . S
C574 C576 1.415 . S
C575 C574 1.355 . S
C575 C577 1.419 . S
C576 C574 1.415 . S
C576 C581 1.425 . S
C576 C583 1.409 . S
C577 H569 0.930 . S
C577 C575 1.419 . S
C577 C578 1.362 . S
C578 H570 0.930 . S
C578 C577 1.362 . S
C578 C581 1.409 . S
C579 H571 0.930 . S
C579 C580 1.355 . S
C579 C581 1.415 . S
C580 C579 1.355 . S
C580 C582 1.419 . S
C581 C576 1.425 . S
C581 C578 1.409 . S
C581 C579 1.415 . S
C582 H572 0.930 . S
C582 C580 1.419 . S
C582 C583 1.362 . S
C583 H573 0.930 . S
C583 C576 1.409 . S
C583 C582 1.362 . S
H584 C590 0.930 . S
H585 C593 0.930 . S
H586 C594 0.930 . S
H587 C595 0.930 . S
H588 C598 0.930 . S
H589 C599 0.930 . S
C590 H584 0.930 . S
C590 C591 1.355 . S
C590 C592 1.415 . S
C591 C590 1.355 . S
C591 C593 1.419 . S
C592 C590 1.415 . S
C592 C597 1.425 . S
C592 C599 1.409 . S
C593 H585 0.930 . S
C593 C591 1.419 . S
C593 C594 1.362 . S
C594 H586 0.930 . S
C594 C593 1.362 . S
C594 C597 1.409 . S
C595 H587 0.930 . S
C595 C596 1.355 . S
C595 C597 1.415 . S
C596 C595 1.355 . S
C596 C598 1.419 . S
C597 C592 1.425 . S
C597 C594 1.409 . S
C597 C595 1.415 . S
C598 H588 0.930 . S
C598 C596 1.419 . S
C598 C599 1.362 . S
C599 H589 0.930 . S
C599 C592 1.409 . S
C599 C598 1.362 . S
H600 C606 0.930 . S
H601 C609 0.930 . S
H602 C610 0.930 . S
H603 C611 0.930 . S
H604 C614 0.930 . S
H605 C615 0.930 . S
C606 H600 0.930 . S
C606 C607 1.355 . S
C606 C608 1.415 . S
C607 C606 1.355 . S
C607 C609 1.419 . S
C608 C606 1.415 . S
C608 C613 1.425 . S
C608 C615 1.409 . S
C609 H601 0.930 . S
C609 C607 1.419 . S
C609 C610 1.362 . S
C610 H602 0.930 . S
C610 C609 1.362 . S
C610 C613 1.409 . S
C611 H603 0.930 . S
C611 C612 1.355 . S
C611 C613 1.415 . S
C612 C611 1.355 . S
C612 C614 1.419 . S
C613 C608 1.425 . S
C613 C610 1.409 . S
C613 C611 1.415 . S
C614 H604 0.930 . S
C614 C612 1.419 . S
C614 C615 1.362 . S
C615 H605 0.930 . S
C615 C608 1.409 . S
C615 C614 1.362 . S
C239 C6 1.745 . S
C244 C171 1.734 . S
C255 C21 1.686 . S
C260 C174 1.672 . S
C276 C210 1.258 . S
C271 C49 1.084 . S
C287 C68 1.508 . S
C292 C230 1.527 1_655 S
C308 C184 2.294 . S
C303 C2 2.280 . S
C324 C161 1.257 . S
C319 C30 1.153 . S
C340 C214 1.433 . S
C335 C40 1.458 . S
C356 C194 1.315 . S
C351 C63 1.414 . S
C367 C11 1.368 . S
C372 C224 1.397 . S
C388 C190 1.822 1_556 S
C383 C44 1.846 . S
C399 C59 1.390 . S
C404 C156 1.307 . S
C415 C25 1.602 . S
C420 C204 1.488 . S
C436 C170 1.809 . S
C431 C82 1.815 . S
C447 C101 1.453 . S
C452 C176 1.470 . S
C463 C125 1.566 . S
C468 C211 1.622 . S
C479 C144 1.314 . S
C484 C231 1.239 . S
C495 C87 1.420 . S
C500 C181 1.443 . S
C516 C164 2.131 . S
C511 C97 2.137 . S
C532 C216 1.297 . S
C527 C120 1.519 . S
C548 C196 1.326 . S
C543 C135 1.331 . S
C559 C78 1.763 . S
C564 C221 1.664 . S
C580 C191 1.372 . S
C575 C116 1.368 . S
C596 C154 1.783 . S
C591 C139 1.833 . S
C607 C106 1.118 . S
C612 C201 1.232 . S
