# Generated by pormake.
# Topology pyr, (3,6)-cn, num edge types: 1
# Building blocks:
#     Node 0, Type 0, BuildingBlock: CUQRIR_clean_linker_1, # of connection points: 3
#     Node 1, Type 0, BuildingBlock: CUQRIR_clean_linker_1, # of connection points: 3
#     Node 2, Type 0, BuildingBlock: CUQRIR_clean_linker_1, # of connection points: 3
#     Node 3, Type 0, BuildingBlock: CUQRIR_clean_linker_1, # of connection points: 3
#     Node 4, Type 0, BuildingBlock: CUQRIR_clean_linker_1, # of connection points: 3
#     Node 5, Type 0, BuildingBlock: CUQRIR_clean_linker_1, # of connection points: 3
#     Node 6, Type 0, BuildingBlock: CUQRIR_clean_linker_1, # of connection points: 3
#     Node 7, Type 0, BuildingBlock: CUQRIR_clean_linker_1, # of connection points: 3
#     Node 8, Type 1, BuildingBlock: LEVNOQ01_clean_sbu_1, # of connection points: 6
#     Node 9, Type 1, BuildingBlock: LEVNOQ01_clean_sbu_1, # of connection points: 6
#     Node 10, Type 1, BuildingBlock: LEVNOQ01_clean_sbu_1, # of connection points: 6
#     Node 11, Type 1, BuildingBlock: LEVNOQ01_clean_sbu_1, # of connection points: 6
#     Edge 12, Type (0, 1), BuildingBlock: KIFKEQ_clean_linker_1, # of connection points: 2
#     Edge 13, Type (0, 1), BuildingBlock: KIFKEQ_clean_linker_1, # of connection points: 2
#     Edge 14, Type (0, 1), BuildingBlock: KIFKEQ_clean_linker_1, # of connection points: 2
#     Edge 15, Type (0, 1), BuildingBlock: KIFKEQ_clean_linker_1, # of connection points: 2
#     Edge 16, Type (0, 1), BuildingBlock: KIFKEQ_clean_linker_1, # of connection points: 2
#     Edge 17, Type (0, 1), BuildingBlock: KIFKEQ_clean_linker_1, # of connection points: 2
#     Edge 18, Type (0, 1), BuildingBlock: KIFKEQ_clean_linker_1, # of connection points: 2
#     Edge 19, Type (0, 1), BuildingBlock: KIFKEQ_clean_linker_1, # of connection points: 2
#     Edge 20, Type (0, 1), BuildingBlock: KIFKEQ_clean_linker_1, # of connection points: 2
#     Edge 21, Type (0, 1), BuildingBlock: KIFKEQ_clean_linker_1, # of connection points: 2
#     Edge 22, Type (0, 1), BuildingBlock: KIFKEQ_clean_linker_1, # of connection points: 2
#     Edge 23, Type (0, 1), BuildingBlock: KIFKEQ_clean_linker_1, # of connection points: 2
#     Edge 24, Type (0, 1), BuildingBlock: KIFKEQ_clean_linker_1, # of connection points: 2
#     Edge 25, Type (0, 1), BuildingBlock: KIFKEQ_clean_linker_1, # of connection points: 2
#     Edge 26, Type (0, 1), BuildingBlock: KIFKEQ_clean_linker_1, # of connection points: 2
#     Edge 27, Type (0, 1), BuildingBlock: KIFKEQ_clean_linker_1, # of connection points: 2
#     Edge 28, Type (0, 1), BuildingBlock: KIFKEQ_clean_linker_1, # of connection points: 2
#     Edge 29, Type (0, 1), BuildingBlock: KIFKEQ_clean_linker_1, # of connection points: 2
#     Edge 30, Type (0, 1), BuildingBlock: KIFKEQ_clean_linker_1, # of connection points: 2
#     Edge 31, Type (0, 1), BuildingBlock: KIFKEQ_clean_linker_1, # of connection points: 2
#     Edge 32, Type (0, 1), BuildingBlock: KIFKEQ_clean_linker_1, # of connection points: 2
#     Edge 33, Type (0, 1), BuildingBlock: KIFKEQ_clean_linker_1, # of connection points: 2
#     Edge 34, Type (0, 1), BuildingBlock: KIFKEQ_clean_linker_1, # of connection points: 2
#     Edge 35, Type (0, 1), BuildingBlock: KIFKEQ_clean_linker_1, # of connection points: 2
# Relax obj value: 0.104
# Max RMSD: 0.218
# Mean RMSD: 0.159
data_MOF--net-pry--node1-LEVNOQ01_clean_sbu_1--node2-CUQRIR_clean_linker_1--edge1-KIFKEQ_clean_linker_1
_symmetry_space_group_name_H-M    P1
_symmetry_Int_Tables_number       1
_symmetry_cell_setting            triclinic
loop_
_symmetry_equiv_pos_as_xyz
'x, y, z'
_cell_length_a     35.087518
_cell_length_b     33.740577
_cell_length_c     32.819863
_cell_angle_alpha  90.724179
_cell_angle_beta   93.355501
_cell_angle_gamma 97.258736
loop_
_atom_site_label
_atom_site_type_symbol
_atom_site_fract_x
_atom_site_fract_y
_atom_site_fract_z
_atom_type_partial_charge
C0 C 0.14842 0.19622 0.16472 0.0
N1 N 0.1726 0.16886 0.17384 0.0
N2 N 0.15593 0.21333 0.12838 0.0
C3 C 0.11787 0.20679 0.19184 0.0
C4 C 0.18574 0.19517 0.11581 0.0
N5 N 0.19554 0.16773 0.14314 0.0
C6 C 0.20534 0.20415 0.07687 0.0
H7 H 0.09046 0.18763 0.18309 0.0
H8 H 0.11323 0.23852 0.18837 0.0
H9 H 0.1256 0.20155 0.22438 0.0
H10 H 0.23017 0.22765 0.08323 0.0
H11 H 0.18537 0.21515 0.05342 0.0
H12 H 0.21641 0.17723 0.06481 0.0
C13 C 0.37751 0.87431 0.61259 0.0
N14 N 0.37061 0.90289 0.63939 0.0
N15 N 0.40946 0.85807 0.62489 0.0
C16 C 0.35342 0.86308 0.57369 0.0
C17 C 0.42201 0.87822 0.66019 0.0
N18 N 0.39857 0.90599 0.66887 0.0
C19 C 0.45427 0.86742 0.6885 0.0
H20 H 0.32878 0.84065 0.58047 0.0
H21 H 0.37048 0.85017 0.55065 0.0
H22 H 0.34164 0.88957 0.56077 0.0
H23 H 0.48144 0.88578 0.68122 0.0
H24 H 0.45803 0.83546 0.68478 0.0
H25 H 0.44881 0.87336 0.72083 0.0
C26 C 0.62416 0.38446 0.84042 0.0
N27 N 0.63917 0.37155 0.87593 0.0
N28 N 0.64241 0.4205 0.83114 0.0
C29 C 0.592 0.36178 0.81388 0.0
C30 C 0.66849 0.42982 0.86277 0.0
N31 N 0.66617 0.40031 0.89055 0.0
C32 C 0.69978 0.46484 0.86349 0.0
H33 H 0.60432 0.34487 0.78975 0.0
H34 H 0.57427 0.38292 0.79857 0.0
H35 H 0.57343 0.34057 0.83207 0.0
H36 H 0.70088 0.48008 0.83377 0.0
H37 H 0.72816 0.45483 0.87154 0.0
H38 H 0.69429 0.48684 0.88715 0.0
C39 C 0.85695 0.61498 0.38036 0.0
N40 N 0.89048 0.63656 0.37165 0.0
N41 N 0.84991 0.62026 0.4199 0.0
C42 C 0.83067 0.58926 0.35005 0.0
C43 C 0.88026 0.64593 0.43511 0.0
N44 N 0.90555 0.65543 0.40587 0.0
C45 C 0.88273 0.66511 0.47703 0.0
H46 H 0.81322 0.60859 0.33169 0.0
H47 H 0.81094 0.56686 0.36564 0.0
H48 H 0.84765 0.57371 0.32886 0.0
H49 H 0.90386 0.65133 0.49693 0.0
H50 H 0.8546 0.66085 0.49118 0.0
H51 H 0.89268 0.69758 0.47552 0.0
C52 C 0.85124 0.88642 0.91092 0.0
N53 N 0.87756 0.87525 0.88574 0.0
N54 N 0.83239 0.91543 0.89392 0.0
C55 C 0.84079 0.86588 0.94997 0.0
C56 C 0.84774 0.92104 0.85718 0.0
N57 N 0.87473 0.89632 0.85188 0.0
C58 C 0.83777 0.95205 0.82718 0.0
H59 H 0.84498 0.83387 0.94852 0.0
H60 H 0.81039 0.86793 0.95633 0.0
H61 H 0.85958 0.88051 0.97565 0.0
H62 H 0.86346 0.96444 0.81111 0.0
H63 H 0.82592 0.97684 0.84262 0.0
H64 H 0.81586 0.93782 0.80397 0.0
C65 C 0.69649 0.18412 0.44748 0.0
N66 N 0.70593 0.15412 0.42354 0.0
N67 N 0.66076 0.19285 0.43618 0.0
C68 C 0.72254 0.20566 0.48087 0.0
C69 C 0.64875 0.16692 0.4049 0.0
N70 N 0.6759 0.14312 0.39746 0.0
C71 C 0.61121 0.16625 0.38004 0.0
H72 H 0.70614 0.22096 0.50275 0.0
H73 H 0.74314 0.22854 0.46706 0.0
H74 H 0.73926 0.18448 0.49752 0.0
H75 H 0.61613 0.18469 0.35263 0.0
H76 H 0.58933 0.17856 0.39787 0.0
H77 H 0.59993 0.1354 0.36958 0.0
C78 C 0.35521 0.65499 0.15834 0.0
N79 N 0.38286 0.67776 0.18168 0.0
N80 N 0.34699 0.67362 0.12326 0.0
C81 C 0.33532 0.61496 0.16988 0.0
C82 C 0.37062 0.70851 0.12616 0.0
N83 N 0.39279 0.71079 0.16139 0.0
C84 C 0.36822 0.74251 0.09733 0.0
H85 H 0.32286 0.59752 0.1423 0.0
H86 H 0.31158 0.61953 0.18963 0.0
H87 H 0.35569 0.59777 0.18707 0.0
H88 H 0.34787 0.76211 0.10872 0.0
H89 H 0.35752 0.73123 0.06632 0.0
H90 H 0.39676 0.7606 0.09574 0.0
C91 C 0.10597 0.39141 0.6456 0.0
N92 N 0.12129 0.38536 0.60957 0.0
N93 N 0.12544 0.4238 0.66555 0.0
C94 C 0.07369 0.36413 0.66243 0.0
C95 C 0.1532 0.43717 0.64038 0.0
N96 N 0.15074 0.41369 0.60632 0.0
C97 C 0.18563 0.46971 0.65186 0.0
H98 H 0.05809 0.3805 0.68429 0.0
H99 H 0.08582 0.33948 0.67868 0.0
H100 H 0.05331 0.35079 0.63735 0.0
H101 H 0.20097 0.46183 0.68059 0.0
H102 H 0.17367 0.49798 0.65779 0.0
H103 H 0.20638 0.47467 0.62767 0.0
O104 O 0.02313 0.03419 0.62137 0.0
Mg105 Mg 0.06574 0.06307 0.58779 0.0
O106 O 0.00704 0.98926 0.57187 0.0
Mg107 Mg 0.03874 0.01544 0.51177 0.0
O108 O 0.04953 0.0828 0.53225 0.0
O109 O 0.06724 0.12275 0.58727 0.0
O110 O 0.07212 0.04068 0.454 0.0
O111 O 0.97662 0.03693 0.49068 0.0
Mg112 Mg 0.00287 0.98535 0.45164 0.0
O113 O 0.03035 0.946 0.48762 0.0
O114 O 0.02522 0.02564 0.40808 0.0
O115 O 0.9446 0.98515 0.45851 0.0
O116 O 0.00827 0.93451 0.42236 0.0
C117 C 0.12564 0.01442 0.56505 0.0
C118 C 0.00394 0.00185 0.60855 0.0
C119 C 0.05652 0.11834 0.54902 0.0
C120 C 0.05852 0.04294 0.41736 0.0
C121 C 0.94482 0.01938 0.47419 0.0
C122 C 0.0236 0.92224 0.45554 0.0
O123 O 0.1189 0.04208 0.58889 0.0
O124 O 0.10031 0.99982 0.53726 0.0
O125 O 0.46988 0.11452 0.07969 0.0
Mg126 Mg 0.52758 0.11333 0.0713 0.0
O127 O 0.4579 0.05085 0.06147 0.0
Mg128 Mg 0.51857 0.0327 0.03898 0.0
O129 O 0.5421 0.0956 0.01483 0.0
O130 O 0.5486 0.15933 0.03837 0.0
O131 O 0.57715 0.0151 0.01544 0.0
O132 O 0.48602 0.02087 0.97246 0.0
Mg133 Mg 0.51312 0.94257 0.01158 0.0
O134 O 0.4992 0.97032 0.06302 0.0
O135 O 0.57303 0.94943 1.00615 0.0
O136 O 0.47773 0.95518 0.96132 0.0
O137 O 0.49023 0.90404 0.05349 0.0
C138 C 0.5683 0.06894 0.1287 0.0
C139 C 0.44625 0.08328 0.07393 0.0
C140 C 0.55269 0.13355 0.01014 0.0
C141 C 0.59239 0.98375 0.00675 0.0
C142 C 0.47239 0.99 0.9504 0.0
C143 C 0.48829 0.93499 0.07639 0.0
O144 O 0.56488 0.10482 0.12096 0.0
O145 O 0.55226 0.04077 0.10469 0.0
O146 O 0.47432 0.58064 0.58713 0.0
Mg147 Mg 0.46463 0.51967 0.60258 0.0
O148 O 0.48646 0.57422 0.52125 0.0
Mg149 Mg 0.49876 0.50805 0.50923 0.0
O150 O 0.50729 0.49834 0.57486 0.0
O151 O 0.5048 0.49397 0.64114 0.0
O152 O 0.51417 0.44073 0.50667 0.0
O153 O 0.56338 0.5317 0.50821 0.0
Mg154 Mg 0.51646 0.47568 0.44308 0.0
O155 O 0.48697 0.52386 0.43985 0.0
O156 O 0.48655 0.41818 0.44871 0.0
O157 O 0.57584 0.48706 0.46305 0.0
O158 O 0.50888 0.49414 0.38577 0.0
C159 C 0.40777 0.47778 0.53613 0.0
C160 C 0.48057 0.59553 0.55237 0.0
C161 C 0.52261 0.48837 0.60879 0.0
C162 C 0.50306 0.41115 0.48243 0.0
C163 C 0.58755 0.51491 0.48879 0.0
C164 C 0.49056 0.52124 0.40069 0.0
O165 O 0.41432 0.4877 0.57362 0.0
O166 O 0.43341 0.48381 0.50998 0.0
O167 O 0.04107 0.47684 0.09109 0.0
Mg168 Mg 0.03877 0.53745 0.08316 0.0
O169 O 0.0247 0.47444 0.02548 0.0
Mg170 Mg 1.00133 0.53682 0.00754 0.0
O171 O 0.98589 0.5579 0.0747 0.0
O172 O 0.02189 0.55939 0.13432 0.0
O173 O 0.97973 0.59931 0.98607 0.0
O174 O 0.93922 0.49953 0.00668 0.0
Mg175 Mg 0.96409 0.53062 0.92319 0.0
O176 O 0.01653 0.51636 0.94284 0.0
O177 O 0.96121 0.59144 0.92061 0.0
O178 O 0.91858 0.4915 0.94177 0.0
O179 O 0.99212 0.50909 0.87786 0.0
C180 C 0.09053 0.58311 0.03188 0.0
C181 C 0.0361 0.45741 0.05783 0.0
C182 C 0.99089 0.56588 0.11396 0.0
C183 C 0.96837 0.6137 0.95204 0.0
C184 C 0.91441 0.4842 0.97899 0.0
C185 C 0.01974 0.5062 0.90495 0.0
O186 O 0.08871 0.57281 0.0685 0.0
O187 O 0.06261 0.57274 1.00602 0.0
H188 H 0.13163 0.09673 0.17616 0.0
H189 H 0.2049 0.18505 0.2497 0.0
H190 H 0.10914 0.06365 0.23783 0.0
H191 H 0.18221 0.15259 0.31205 0.0
H192 H 0.1372 0.06697 0.41673 0.0
H193 H 0.17305 0.09255 0.35814 0.0
H194 H 0.06604 0.08852 0.28536 0.0
H195 H 0.03082 0.06318 0.34274 0.0
C196 C 0.1441 0.10793 0.20569 0.0
C197 C 0.17019 0.14299 0.20839 0.0
C198 C 0.13083 0.08953 0.24105 0.0
C199 C 0.14319 0.10601 0.28 0.0
C200 C 0.17208 0.13908 0.28265 0.0
C201 C 0.18532 0.15751 0.24708 0.0
C202 C 0.12146 0.07195 0.38827 0.0
C203 C 0.08112 0.06264 0.38443 0.0
C204 C 0.14197 0.08642 0.35468 0.0
C205 C 0.12252 0.09161 0.31667 0.0
C206 C 0.08217 0.08366 0.31363 0.0
C207 C 0.06187 0.06943 0.34685 0.0
H208 H 0.46092 0.95592 0.69651 0.0
H209 H 0.34441 0.91309 0.72317 0.0
H210 H 0.4723 0.98735 0.76418 0.0
H211 H 0.35447 0.9467 0.79003 0.0
H212 H 0.41004 0.94126 0.92087 0.0
H213 H 0.38668 0.93098 0.85033 0.0
H214 H 0.46437 0.03367 0.81684 0.0
H215 H 0.48877 0.043 0.88847 0.0
C216 C 0.43739 0.95436 0.71659 0.0
C217 C 0.40198 0.93169 0.70485 0.0
C218 C 0.44371 0.97272 0.75533 0.0
C219 C 0.41454 0.96924 0.78325 0.0
C220 C 0.378 0.94936 0.76992 0.0
C221 C 0.3719 0.93054 0.7313 0.0
C222 C 0.42136 0.96243 0.89865 0.0
C223 C 0.45134 0.99283 0.91023 0.0
C224 C 0.40777 0.95666 0.85793 0.0
C225 C 0.42376 0.98115 0.8273 0.0
C226 C 0.45174 0.01372 0.83938 0.0
C227 C 0.46538 0.01955 0.88052 0.0
H228 H 0.61312 0.48511 0.80304 0.0
H229 H 0.67474 0.38845 0.76912 0.0
H230 H 0.60532 0.50287 0.73113 0.0
H231 H 0.66643 0.40539 0.69677 0.0
H232 H 0.59045 0.53512 0.61243 0.0
H233 H 0.64277 0.52092 0.66013 0.0
H234 H 0.59127 0.39805 0.66432 0.0
H235 H 0.53843 0.41276 0.61796 0.0
C236 C 0.62613 0.46878 0.78008 0.0
C237 C 0.64424 0.43557 0.79076 0.0
C238 C 0.62211 0.47896 0.73919 0.0
C239 C 0.63588 0.45571 0.70867 0.0
C240 C 0.65623 0.42401 0.71985 0.0
C241 C 0.66065 0.41422 0.76083 0.0
C242 C 0.59191 0.50449 0.62131 0.0
C243 C 0.56045 0.47509 0.61262 0.0
C244 C 0.62176 0.49643 0.64863 0.0
C245 C 0.62025 0.45877 0.66648 0.0
C246 C 0.59291 0.42738 0.65096 0.0
C247 C 0.56266 0.4357 0.62437 0.0
H248 H 0.94825 0.59693 0.35166 0.0
H249 H 0.86733 0.67284 0.30385 0.0
H250 H 0.96505 0.58197 0.28199 0.0
H251 H 0.88467 0.65893 0.23388 0.0
H252 H 0.97749 0.64246 0.12715 0.0
H253 H 0.95137 0.66568 0.18979 0.0
H254 H 0.91689 0.54332 0.22173 0.0
H255 H 0.94214 0.52038 0.15901 0.0
C256 C 0.93525 0.61152 0.32617 0.0
C257 C 0.90718 0.6365 0.33274 0.0
C258 C 0.94431 0.60261 0.28645 0.0
C259 C 0.92572 0.61898 0.25269 0.0
C260 C 0.89932 0.64597 0.25942 0.0
C261 C 0.88973 0.65422 0.2992 0.0
C262 C 0.96219 0.62078 0.14638 0.0
C263 C 0.96104 0.57971 0.13799 0.0
C264 C 0.94784 0.63399 0.18247 0.0
C265 C 0.93296 0.60618 0.21082 0.0
C266 C 0.92867 0.56529 0.20052 0.0
C267 C 0.94242 0.5522 0.16431 0.0
H268 H 0.26695 0.19369 0.17271 0.0
H269 H 0.19867 0.09542 0.10785 0.0
H270 H 0.32585 0.16627 0.15667 0.0
H271 H 0.25779 0.06737 0.09148 0.0
H272 H 0.38822 0.02711 0.10143 0.0
H273 H 0.32463 0.0411 0.12286 0.0
H274 H 0.34953 0.16276 0.08389 0.0
H275 H 0.41149 0.14913 0.06258 0.0
C276 C 0.26471 0.16542 0.1562 0.0
C277 C 0.22857 0.14638 0.14187 0.0
C278 C 0.29828 0.14983 0.14667 0.0
C279 C 0.29651 0.11477 0.12247 0.0
C280 C 0.2601 0.09421 0.11037 0.0
C281 C 0.22637 0.11012 0.11976 0.0
C282 C 0.37961 0.05651 0.0968 0.0
C283 C 0.40523 0.08714 0.08088 0.0
C284 C 0.34339 0.06459 0.10924 0.0
C285 C 0.33256 0.1034 0.10609 0.0
C286 C 0.35736 0.13293 0.08786 0.0
C287 C 0.39293 0.12495 0.07545 0.0
H288 H 0.29896 0.87086 0.65235 0.0
H289 H 0.36683 0.97869 0.61714 0.0
H290 H 0.23978 0.8985 0.63136 0.0
H291 H 0.30791 0.00671 0.59516 0.0
H292 H 0.19138 0.0555 0.59856 0.0
H293 H 0.25108 0.0303 0.61936 0.0
H294 H 0.20601 0.91438 0.5673 0.0
H295 H 0.14524 0.93974 0.54698 0.0
C296 C 0.30087 0.90105 0.64111 0.0
C297 C 0.33701 0.92317 0.63702 0.0
C298 C 0.26722 0.91656 0.6283 0.0
C299 C 0.26908 0.95455 0.6109 0.0
C300 C 0.30539 0.97742 0.60859 0.0
C301 C 0.33909 0.96177 0.62152 0.0
C302 C 0.19421 0.02466 0.59117 0.0
C303 C 0.16341 0.99946 0.57143 0.0
C304 C 0.22863 0.01029 0.60296 0.0
C305 C 0.23326 0.97024 0.59546 0.0
C306 C 0.20306 0.94528 0.57418 0.0
C307 C 0.16845 0.95983 0.56208 0.0
H308 H 0.71051 0.34115 0.90483 0.0
H309 H 0.68451 0.45362 0.9522 0.0
H310 H 0.76827 0.34612 0.94996 0.0
H311 H 0.74491 0.4619 0.99316 0.0
H312 H 0.86308 0.49125 0.03834 0.0
H313 H 0.7974 0.45604 0.03686 0.0
H314 H 0.82399 0.38233 0.93586 0.0
H315 H 0.88859 0.41569 0.93928 0.0
C316 C 0.71658 0.36642 0.92584 0.0
C317 C 0.69361 0.39752 0.92446 0.0
C318 C 0.75024 0.36982 0.95121 0.0
C319 C 0.76275 0.40548 0.97368 0.0
C320 C 0.73699 0.43413 0.97615 0.0
C321 C 0.70247 0.42979 0.95216 0.0
C322 C 0.85498 0.46622 0.01729 0.0
C323 C 0.88036 0.45657 0.98836 0.0
C324 C 0.81725 0.44632 0.01596 0.0
C325 C 0.80454 0.41692 0.98542 0.0
C326 C 0.83193 0.4044 0.96006 0.0
C327 C 0.86927 0.42392 0.96164 0.0
H328 H 0.78378 0.6511 0.4082 0.0
H329 H 0.83769 0.56106 0.47327 0.0
H330 H 0.72201 0.62676 0.43614 0.0
H331 H 0.77582 0.536 0.50135 0.0
H332 H 0.64704 0.47394 0.47319 0.0
H333 H 0.71375 0.50159 0.46544 0.0
H334 H 0.6882 0.61796 0.50313 0.0
H335 H 0.62118 0.59014 0.51121 0.0
C336 C 0.78217 0.62639 0.42904 0.0
C337 C 0.8148 0.60767 0.4388 0.0
C338 C 0.74716 0.61266 0.44525 0.0
C339 C 0.74425 0.57965 0.47109 0.0
C340 C 0.77735 0.56151 0.48153 0.0
C341 C 0.81252 0.57566 0.46564 0.0
C342 C 0.65588 0.50523 0.48075 0.0
C343 C 0.62892 0.53002 0.49236 0.0
C344 C 0.6941 0.52099 0.47654 0.0
C345 C 0.70598 0.56195 0.48335 0.0
C346 C 0.67961 0.58631 0.49741 0.0
C347 C 0.6414 0.57037 0.50226 0.0
H348 H 0.07959 0.21295 0.11174 0.0
H349 H 0.18931 0.28416 0.10117 0.0
H350 H 0.04664 0.26867 0.08707 0.0
H351 H 0.15651 0.33961 0.07499 0.0
H352 H 0.08138 0.42345 1.00531 0.0
H353 H 0.10973 0.36088 0.01559 0.0
H354 H 0.04355 0.33713 0.12135 0.0
H355 H 0.0163 0.39965 0.1117 0.0
C356 C 0.09662 0.24042 0.10366 0.0
C357 C 0.13697 0.24439 0.10879 0.0
C358 C 0.07781 0.27223 0.08937 0.0
C359 C 0.09895 0.30859 0.07912 0.0
C360 C 0.13942 0.31185 0.08219 0.0
C361 C 0.15822 0.28015 0.09714 0.0
C362 C 0.07216 0.40418 0.02998 0.0
C363 C 0.04637 0.41614 0.05749 0.0
C364 C 0.08868 0.36867 0.03616 0.0
C365 C 0.07892 0.34409 0.06934 0.0
C366 C 0.05143 0.35513 0.09532 0.0
C367 C 0.03575 0.3909 0.08975 0.0
H368 H 0.6427 0.30433 0.83194 0.0
H369 H 0.62343 0.34835 0.95197 0.0
H370 H 0.62724 0.23532 0.85417 0.0
H371 H 0.61019 0.27915 0.97496 0.0
H372 H 0.62856 0.15415 0.00868 0.0
H373 H 0.65724 0.2094 0.96852 0.0
H374 H 0.5508 0.20581 0.89508 0.0
H375 H 0.52173 0.15102 0.93606 0.0
C376 C 0.63505 0.29906 0.86305 0.0
C377 C 0.63305 0.33131 0.89014 0.0
C378 C 0.62677 0.25982 0.87572 0.0
C379 C 0.61771 0.25245 0.91603 0.0
C380 C 0.61739 0.28455 0.94368 0.0
C381 C 0.62483 0.32383 0.93072 0.0
C382 C 0.61215 0.16352 0.9823 0.0
C383 C 0.57317 0.14855 0.97507 0.0
C384 C 0.62842 0.19526 0.9597 0.0
C385 C 0.6059 0.2117 0.92933 0.0
C386 C 0.56856 0.19316 0.91837 0.0
C387 C 0.55209 0.16167 0.94142 0.0
H388 H 0.91793 0.71892 0.35734 0.0
H389 H 0.96446 0.66357 0.46351 0.0
H390 H 0.96244 0.77948 0.37261 0.0
H391 H 0.0078 0.72535 0.48043 0.0
H392 H 0.00314 0.86807 0.5144 0.0
H393 H 0.98667 0.79599 0.50139 0.0
H394 H 0.03485 0.80834 0.38355 0.0
H395 H 0.05145 0.87989 0.39663 0.0
C396 C 0.93869 0.7192 0.38308 0.0
C397 C 0.9377 0.68669 0.4093 0.0
C398 C 0.96398 0.754 0.39212 0.0
C399 C 0.98834 0.75719 0.42795 0.0
C400 C 0.98914 0.72375 0.45282 0.0
C401 C 0.96443 0.68855 0.44315 0.0
C402 C 0.01211 0.85496 0.4868 0.0
C403 C 0.0283 0.87945 0.45641 0.0
C404 C 1.00247 0.81377 0.47917 0.0
C405 C 0.00889 0.79684 0.4411 0.0
C406 C 0.0292 0.82071 0.4129 0.0
C407 C 0.03892 0.86159 0.42055 0.0
H408 H 0.36764 0.7873 0.60521 0.0
H409 H 0.48227 0.85071 0.60601 0.0
H410 H 0.3902 0.72826 0.57603 0.0
H411 H 0.50554 0.79083 0.57792 0.0
H412 H 0.52372 0.65329 0.59797 0.0
H413 H 0.51013 0.72181 0.60789 0.0
H414 H 0.4194 0.70293 0.5123 0.0
H415 H 0.43364 0.63419 0.50201 0.0
C416 C 0.39759 0.78869 0.59844 0.0
C417 C 0.4232 0.82352 0.60744 0.0
C418 C 0.41051 0.755 0.58164 0.0
C419 C 0.44953 0.75515 0.57414 0.0
C420 C 0.47527 0.79002 0.58317 0.0
C421 C 0.46212 0.82405 0.59944 0.0
C422 C 0.50194 0.66441 0.57799 0.0
C423 C 0.47978 0.6388 0.54916 0.0
C424 C 0.49415 0.70357 0.58366 0.0
C425 C 0.46346 0.71752 0.56116 0.0
C426 C 0.44308 0.69276 0.5302 0.0
C427 C 0.45141 0.65368 0.52401 0.0
H428 H 0.94767 0.93042 0.84786 0.0
H429 H 0.8523 0.86592 0.77686 0.0
H430 H 0.97914 0.94967 0.78493 0.0
H431 H 0.88384 0.88444 0.71355 0.0
H432 H 0.97982 0.9199 0.61238 0.0
H433 H 0.95104 0.88461 0.67105 0.0
H434 H 0.94802 0.99782 0.73242 0.0
H435 H 0.97517 0.03258 0.67472 0.0
C436 C 0.93444 0.91878 0.81879 0.0
C437 C 0.89797 0.89627 0.81706 0.0
C438 C 0.95212 0.93006 0.78277 0.0
C439 C 0.93382 0.9187 0.74426 0.0
C440 C 0.89878 0.89332 0.74268 0.0
C441 C 0.88084 0.88256 0.7788 0.0
C442 C 0.97213 0.93711 0.63803 0.0
C443 C 0.9802 0.9791 0.63887 0.0
C444 C 0.95605 0.91695 0.67172 0.0
C445 C 0.94835 0.9385 0.70679 0.0
C446 C 0.95461 0.98033 0.70642 0.0
C447 C 0.96998 1.00024 0.67303 0.0
H448 H 0.70536 0.16645 0.32729 0.0
H449 H 0.64223 0.06745 0.38517 0.0
H450 H 0.68521 0.1364 0.2604 0.0
H451 H 0.62285 0.03567 0.3183 0.0
H452 H 0.54172 0.04145 0.20038 0.0
H453 H 0.57698 0.04933 0.26687 0.0
H454 H 0.68177 0.08871 0.20774 0.0
H455 H 0.64559 0.08263 0.14162 0.0
C456 C 0.68883 0.13705 0.32547 0.0
C457 C 0.67559 0.11896 0.36102 0.0
C458 C 0.67703 0.1197 0.28715 0.0
C459 C 0.6518 0.08363 0.28359 0.0
C460 C 0.6416 0.06378 0.31966 0.0
C461 C 0.65321 0.08146 0.35799 0.0
C462 C 0.57256 0.05031 0.20171 0.0
C463 C 0.5911 0.06107 0.16609 0.0
C464 C 0.59294 0.0549 0.23984 0.0
C465 C 0.63237 0.07023 0.24303 0.0
C466 C 0.65138 0.07767 0.20675 0.0
C467 C 0.63084 0.07364 0.16876 0.0
H468 H 0.45787 0.6759 0.19924 0.0
H469 H 0.34677 0.65663 0.25008 0.0
H470 H 0.48663 0.64584 0.25904 0.0
H471 H 0.37506 0.62513 0.30959 0.0
H472 H 0.44921 0.58256 0.41914 0.0
H473 H 0.42518 0.63046 0.37136 0.0
H474 H 0.47339 0.57218 0.27214 0.0
H475 H 0.49713 0.52495 0.31895 0.0
C476 C 0.43994 0.66617 0.22388 0.0
C477 C 0.40024 0.66763 0.2201 0.0
C478 C 0.4562 0.64878 0.25784 0.0
C479 C 0.43285 0.63254 0.28842 0.0
C480 C 0.39363 0.63739 0.2864 0.0
C481 C 0.37742 0.65492 0.25234 0.0
C482 C 0.45465 0.58014 0.38711 0.0
C483 C 0.4751 0.55002 0.37281 0.0
C484 C 0.441 0.60753 0.35992 0.0
C485 C 0.4481 0.60536 0.31832 0.0
C486 C 0.46837 0.57517 0.30424 0.0
C487 C 0.48165 0.54783 0.33109 0.0
H488 H 0.13442 0.37975 0.73236 0.0
H489 H 0.11073 0.4955 0.69196 0.0
H490 H 0.12493 0.39895 0.803 0.0
H491 H 0.10072 0.51504 0.76208 0.0
H492 H 0.08565 0.54999 0.88508 0.0
H493 H 0.12571 0.52941 0.83209 0.0
H494 H 0.06701 0.409 0.83589 0.0
H495 H 0.02796 0.42971 0.88904 0.0
C496 C 0.12738 0.40941 0.73892 0.0
C497 C 0.12262 0.4361 0.70716 0.0
C498 C 0.1222 0.42051 0.77917 0.0
C499 C 0.11211 0.45853 0.78826 0.0
C500 C 0.10922 0.48581 0.75641 0.0
C501 C 0.1145 0.47465 0.71623 0.0
C502 C 0.08319 0.51867 0.87625 0.0
C503 C 0.05409 0.49126 0.891 0.0
C504 C 0.10558 0.50699 0.84546 0.0
C505 C 0.09882 0.46783 0.82902 0.0
C506 C 0.07312 0.43935 0.84783 0.0
C507 C 0.05082 0.45108 0.87852 0.0
H508 H 0.76305 0.92216 0.85621 0.0
H509 H 0.83155 0.94988 0.96858 0.0
H510 H 0.70871 0.94885 0.88545 0.0
H511 H 0.77685 0.97564 0.99853 0.0
H512 H 0.64987 0.94892 0.04424 0.0
H513 H 0.71194 0.94026 0.01747 0.0
H514 H 0.68618 0.01249 0.91423 0.0
H515 H 0.62423 0.02189 0.94185 0.0
C516 C 0.76662 0.93467 0.88693 0.0
C517 C 0.80139 0.93391 0.9102 0.0
C518 C 0.73558 0.94998 0.90369 0.0
C519 C 0.73849 0.96437 0.94431 0.0
C520 C 0.77367 0.96455 0.96724 0.0
C521 C 0.80486 0.94973 0.95024 0.0
C522 C 0.65812 0.964 0.01655 0.0
C523 C 0.63264 0.98642 0.9953 0.0
C524 C 0.6936 0.95905 1.00118 0.0
C525 C 0.70387 0.97551 0.96362 0.0
C526 C 0.67897 0.99935 0.94318 0.0
C527 C 0.64377 0.00507 0.95911 0.0
H528 H 0.77967 0.18892 0.42144 0.0
H529 H 0.70962 0.07638 0.43606 0.0
H530 H 0.83801 0.15702 0.43503 0.0
H531 H 0.76734 0.04423 0.45064 0.0
H532 H 0.87664 0.98985 0.43479 0.0
H533 H 0.82028 0.02296 0.42068 0.0
H534 H 0.87541 0.1279 0.48762 0.0
H535 H 0.93316 0.09486 0.50051 0.0
C536 C 0.77694 0.15728 0.42761 0.0
C537 C 0.74036 0.13494 0.42776 0.0
C538 C 0.81024 0.13902 0.43572 0.0
C539 C 0.80761 0.09797 0.44423 0.0
C540 C 0.77075 0.0757 0.44365 0.0
C541 C 0.7376 0.09396 0.43527 0.0
C542 C 0.87689 0.01993 0.44683 0.0
C543 C 0.90957 0.03959 0.46898 0.0
C544 C 0.84426 0.03894 0.43884 0.0
C545 C 0.84293 0.07815 0.4531 0.0
C546 C 0.87548 0.09785 0.47569 0.0
C547 C 0.90848 0.0788 0.48348 0.0
H548 H 0.2785 0.68669 0.14666 0.0
H549 H 0.33678 0.64527 0.0457 0.0
H550 H 0.21703 0.67343 0.10737 0.0
H551 H 0.27485 0.63191 1.00519 0.0
H552 H 0.15011 0.55162 1.00221 0.0
H553 H 0.21699 0.5817 0.01248 0.0
H554 H 0.17893 0.69343 0.04779 0.0
H555 H 0.11208 0.66256 0.03878 0.0
C556 C 0.27779 0.6751 0.11565 0.0
C557 C 0.31161 0.66658 0.09894 0.0
C558 C 0.24291 0.66806 0.09289 0.0
C559 C 0.24122 0.65229 0.05285 0.0
C560 C 0.27542 0.64434 0.03584 0.0
C561 C 0.31058 0.65171 0.0588 0.0
C562 C 0.15621 0.58319 0.00999 0.0
C563 C 0.12646 0.60497 0.01986 0.0
C564 C 0.19446 0.60045 0.01593 0.0
C565 C 0.20307 0.63959 0.03195 0.0
C566 C 0.17298 0.66294 0.03617 0.0
C567 C 0.1348 0.64552 0.03063 0.0
H568 H 0.20788 0.36882 0.61475 0.0
H569 H 0.16202 0.45641 0.53866 0.0
H570 H 0.26759 0.3777 0.57973 0.0
H571 H 0.2214 0.465 0.50197 0.0
H572 H 0.35028 0.52208 0.52404 0.0
H573 H 0.28213 0.49869 0.52588 0.0
H574 H 0.30705 0.37635 0.52317 0.0
H575 H 0.37593 0.40055 0.52267 0.0
C576 C 0.21027 0.3887 0.58913 0.0
C577 C 0.18094 0.41198 0.57908 0.0
C578 C 0.24431 0.39379 0.56886 0.0
C579 C 0.24956 0.42241 0.53816 0.0
C580 C 0.21854 0.44315 0.52584 0.0
C581 C 0.18454 0.43816 0.54644 0.0
C582 C 0.3409 0.49021 0.52205 0.0
C583 C 0.36792 0.46301 0.52298 0.0
C584 C 0.30178 0.47666 0.52299 0.0
C585 C 0.28899 0.43554 0.52514 0.0
C586 C 0.316 0.40822 0.52212 0.0
C587 C 0.35532 0.42192 0.52135 0.0
H588 H 0.8798 0.81054 0.83738 0.0
H589 H 0.92565 0.86663 0.95143 0.0
H590 H 0.90785 0.75004 0.85591 0.0
H591 H 0.9536 0.80592 0.97066 0.0
H592 H 0.94556 0.66875 1.00649 0.0
H593 H 0.92982 0.73611 0.99009 0.0
H594 H 0.96788 0.72262 0.86851 0.0
H595 H 0.98275 0.65613 0.88448 0.0
C596 C 0.89693 0.81026 0.86587 0.0
C597 C 0.90067 0.84318 0.89287 0.0
C598 C 0.91281 0.77553 0.87679 0.0
C599 C 0.93276 0.77287 0.91508 0.0
C600 C 0.93795 0.80663 0.9413 0.0
C601 C 0.92231 0.84147 0.93015 0.0
C602 C 0.95114 0.68062 0.97661 0.0
C603 C 0.96474 0.65682 0.94661 0.0
C604 C 0.94215 0.71916 0.96712 0.0
C605 C 0.94682 0.7345 0.92758 0.0
C606 C 0.96287 0.71149 0.8988 0.0
C607 C 0.97157 0.67333 0.90812 0.0
H608 H 0.36581 0.76517 0.20799 0.0
H609 H 0.46626 0.73758 0.15005 0.0
H610 H 0.39359 0.83555 0.21525 0.0
H611 H 0.49454 0.80722 0.15718 0.0
H612 H 0.53528 0.92405 0.14183 0.0
H613 H 0.51646 0.87336 0.19169 0.0
H614 H 0.3972 0.875 0.15158 0.0
H615 H 0.4163 0.92534 0.1021 0.0
C616 C 0.39479 0.77406 0.19891 0.0
C617 C 0.41415 0.74671 0.1784 0.0
C618 C 0.41063 0.81413 0.20294 0.0
C619 C 0.44603 0.82708 0.18643 0.0
C620 C 0.46741 0.79833 0.17068 0.0
C621 C 0.45134 0.75844 0.16637 0.0
C622 C 0.50492 0.91566 0.14595 0.0
C623 C 0.47714 0.92799 0.11807 0.0
C624 C 0.49415 0.88634 0.17421 0.0
C625 C 0.45552 0.86928 0.17461 0.0
C626 C 0.42726 0.88736 0.15203 0.0
C627 C 0.43811 0.91647 0.12366 0.0
H628 H 0.07595 0.37498 0.54029 0.0
H629 H 0.14802 0.3161 0.62417 0.0
H630 H 0.05627 0.31106 0.50257 0.0
H631 H 0.12971 0.25287 0.58634 0.0
H632 H 1.00227 0.16842 0.54537 0.0
H633 H 0.01921 0.2408 0.54313 0.0
H634 H 0.13141 0.22411 0.50409 0.0
H635 H 0.11398 0.15172 0.50523 0.0
C636 C 0.08819 0.34844 0.54978 0.0
C637 C 0.1135 0.34982 0.58459 0.0
C638 C 0.07714 0.31223 0.52835 0.0
C639 C 0.09213 0.27749 0.54121 0.0
C640 C 0.11859 0.27954 0.57524 0.0
C641 C 0.12893 0.31538 0.59694 0.0
C642 C 0.02936 0.18025 0.53321 0.0
C643 C 0.05685 0.15478 0.52538 0.0
C644 C 0.03917 0.22166 0.53218 0.0
C645 C 0.07674 0.23773 0.52396 0.0
C646 C 0.10222 0.21224 0.51034 0.0
C647 C 0.09213 0.17086 0.51066 0.0
H648 H 0.63446 0.20407 0.51077 0.0
H649 H 0.64262 0.25403 0.39103 0.0
H650 H 0.59362 0.25496 0.52986 0.0
H651 H 0.60115 0.30383 0.40928 0.0
H652 H 0.48696 0.3441 0.43427 0.0
H653 H 0.52685 0.29052 0.42835 0.0
H654 H 0.59867 0.3385 0.53307 0.0
H655 H 0.55905 0.39299 0.53887 0.0
C656 C 0.62804 0.22647 0.48896 0.0
C657 C 0.64152 0.22548 0.44954 0.0
C658 C 0.60463 0.25526 0.4997 0.0
C659 C 0.59387 0.2828 0.47079 0.0
C660 C 0.6086 0.28254 0.43191 0.0
C661 C 0.63238 0.25433 0.42151 0.0
C662 C 0.51061 0.34282 0.45675 0.0
C663 C 0.52008 0.37322 0.48669 0.0
C664 C 0.53357 0.31224 0.45316 0.0
C665 C 0.56616 0.31095 0.47976 0.0
C666 C 0.57371 0.33901 0.51211 0.0
C667 C 0.55089 0.37004 0.5155 0.0
loop_
_geom_bond_atom_site_label_1
_geom_bond_atom_site_label_2
_geom_bond_distance
_geom_bond_site_symmetry_2
_ccdc_geom_bond_type
C0 N1 1.317 . S
C0 N2 1.348 . S
C0 C3 1.485 . S
N1 C0 1.317 . S
N1 N5 1.370 . S
N2 C0 1.348 . S
N2 C4 1.346 . S
C3 C0 1.485 . S
C3 H7 0.960 . S
C3 H8 0.961 . S
C3 H9 0.960 . S
C4 N2 1.346 . S
C4 N5 1.307 . S
C4 C6 1.486 . S
N5 N1 1.370 . S
N5 C4 1.307 . S
C6 C4 1.486 . S
C6 H10 0.960 . S
C6 H11 0.960 . S
C6 H12 0.959 . S
H7 C3 0.960 . S
H8 C3 0.961 . S
H9 C3 0.960 . S
H10 C6 0.960 . S
H11 C6 0.960 . S
H12 C6 0.959 . S
C13 N14 1.317 . S
C13 N15 1.348 . S
C13 C16 1.485 . S
N14 C13 1.317 . S
N14 N18 1.370 . S
N15 C13 1.348 . S
N15 C17 1.346 . S
C16 C13 1.485 . S
C16 H20 0.960 . S
C16 H21 0.961 . S
C16 H22 0.960 . S
C17 N15 1.346 . S
C17 N18 1.307 . S
C17 C19 1.486 . S
N18 N14 1.370 . S
N18 C17 1.307 . S
C19 C17 1.486 . S
C19 H23 0.960 . S
C19 H24 0.960 . S
C19 H25 0.959 . S
H20 C16 0.960 . S
H21 C16 0.961 . S
H22 C16 0.960 . S
H23 C19 0.960 . S
H24 C19 0.960 . S
H25 C19 0.959 . S
C26 N27 1.317 . S
C26 N28 1.348 . S
C26 C29 1.485 . S
N27 C26 1.317 . S
N27 N31 1.370 . S
N28 C26 1.348 . S
N28 C30 1.346 . S
C29 C26 1.485 . S
C29 H33 0.960 . S
C29 H34 0.961 . S
C29 H35 0.960 . S
C30 N28 1.346 . S
C30 N31 1.307 . S
C30 C32 1.486 . S
N31 N27 1.370 . S
N31 C30 1.307 . S
C32 C30 1.486 . S
C32 H36 0.960 . S
C32 H37 0.960 . S
C32 H38 0.959 . S
H33 C29 0.960 . S
H34 C29 0.961 . S
H35 C29 0.960 . S
H36 C32 0.960 . S
H37 C32 0.960 . S
H38 C32 0.959 . S
C39 N40 1.317 . S
C39 N41 1.348 . S
C39 C42 1.485 . S
N40 C39 1.317 . S
N40 N44 1.370 . S
N41 C39 1.348 . S
N41 C43 1.346 . S
C42 C39 1.485 . S
C42 H46 0.960 . S
C42 H47 0.961 . S
C42 H48 0.960 . S
C43 N41 1.346 . S
C43 N44 1.307 . S
C43 C45 1.486 . S
N44 N40 1.370 . S
N44 C43 1.307 . S
C45 C43 1.486 . S
C45 H49 0.960 . S
C45 H50 0.960 . S
C45 H51 0.959 . S
H46 C42 0.960 . S
H47 C42 0.961 . S
H48 C42 0.960 . S
H49 C45 0.960 . S
H50 C45 0.960 . S
H51 C45 0.959 . S
C52 N53 1.317 . S
C52 N54 1.348 . S
C52 C55 1.485 . S
N53 C52 1.317 . S
N53 N57 1.370 . S
N54 C52 1.348 . S
N54 C56 1.346 . S
C55 C52 1.485 . S
C55 H59 0.960 . S
C55 H60 0.961 . S
C55 H61 0.960 . S
C56 N54 1.346 . S
C56 N57 1.307 . S
C56 C58 1.486 . S
N57 N53 1.370 . S
N57 C56 1.307 . S
C58 C56 1.486 . S
C58 H62 0.960 . S
C58 H63 0.960 . S
C58 H64 0.959 . S
H59 C55 0.960 . S
H60 C55 0.961 . S
H61 C55 0.960 . S
H62 C58 0.960 . S
H63 C58 0.960 . S
H64 C58 0.959 . S
C65 N66 1.317 . S
C65 N67 1.348 . S
C65 C68 1.485 . S
N66 C65 1.317 . S
N66 N70 1.370 . S
N67 C65 1.348 . S
N67 C69 1.346 . S
C68 C65 1.485 . S
C68 H72 0.960 . S
C68 H73 0.961 . S
C68 H74 0.960 . S
C69 N67 1.346 . S
C69 N70 1.307 . S
C69 C71 1.486 . S
N70 N66 1.370 . S
N70 C69 1.307 . S
C71 C69 1.486 . S
C71 H75 0.960 . S
C71 H76 0.960 . S
C71 H77 0.959 . S
H72 C68 0.960 . S
H73 C68 0.961 . S
H74 C68 0.960 . S
H75 C71 0.960 . S
H76 C71 0.960 . S
H77 C71 0.959 . S
C78 N79 1.317 . S
C78 N80 1.348 . S
C78 C81 1.485 . S
N79 C78 1.317 . S
N79 N83 1.370 . S
N80 C78 1.348 . S
N80 C82 1.346 . S
C81 C78 1.485 . S
C81 H85 0.960 . S
C81 H86 0.961 . S
C81 H87 0.960 . S
C82 N80 1.346 . S
C82 N83 1.307 . S
C82 C84 1.486 . S
N83 N79 1.370 . S
N83 C82 1.307 . S
C84 C82 1.486 . S
C84 H88 0.960 . S
C84 H89 0.960 . S
C84 H90 0.959 . S
H85 C81 0.960 . S
H86 C81 0.961 . S
H87 C81 0.960 . S
H88 C84 0.960 . S
H89 C84 0.960 . S
H90 C84 0.959 . S
C91 N92 1.317 . S
C91 N93 1.348 . S
C91 C94 1.485 . S
N92 C91 1.317 . S
N92 N96 1.370 . S
N93 C91 1.348 . S
N93 C95 1.346 . S
C94 C91 1.485 . S
C94 H98 0.960 . S
C94 H99 0.961 . S
C94 H100 0.960 . S
C95 N93 1.346 . S
C95 N96 1.307 . S
C95 C97 1.486 . S
N96 N92 1.370 . S
N96 C95 1.307 . S
C97 C95 1.486 . S
C97 H101 0.960 . S
C97 H102 0.960 . S
C97 H103 0.959 . S
H98 C94 0.960 . S
H99 C94 0.961 . S
H100 C94 0.960 . S
H101 C97 0.960 . S
H102 C97 0.960 . S
H103 C97 0.959 . S
O104 Mg105 1.990 . S
O104 C118 1.253 1_545 S
Mg105 O104 1.990 . S
Mg105 O108 2.180 . S
Mg105 O109 2.117 . S
Mg105 O123 2.020 1_545 S
O106 Mg107 2.072 1_565 S
O106 C118 1.260 . S
Mg107 O106 2.072 1_545 S
Mg107 O108 2.099 . S
Mg107 O110 2.079 . S
Mg107 O111 2.072 . S
Mg107 O113 2.099 1_545 S
Mg107 O124 2.079 1_545 S
O108 Mg105 2.180 . S
O108 Mg107 2.099 . S
O108 C119 1.279 . S
O109 Mg105 2.117 . S
O109 C119 1.250 . S
O110 Mg107 2.079 . S
O110 C120 1.264 . S
O111 Mg107 2.072 . S
O111 C121 1.260 1_455 S
Mg112 O113 2.180 1_655 S
Mg112 O114 2.030 1_665 S
Mg112 O115 1.990 1_565 S
Mg112 O116 2.117 . S
O113 Mg107 2.099 1_565 S
O113 Mg112 2.180 1_455 S
O113 C122 1.279 . S
O114 Mg112 2.030 1_445 S
O114 C120 1.248 . S
O115 Mg112 1.990 1_545 S
O115 C121 1.253 . S
O116 Mg112 2.117 . S
O116 C122 1.250 1_655 S
C117 O123 1.252 . S
C117 O124 1.264 . S
C118 O104 1.253 1_565 S
C118 O106 1.260 . S
C119 O108 1.279 . S
C119 O109 1.250 . S
C120 O110 1.264 . S
C120 O114 1.248 . S
C121 O111 1.260 1_655 S
C121 O115 1.253 . S
C122 O113 1.279 . S
C122 O116 1.250 1_455 S
O123 Mg105 2.020 1_565 S
O123 C117 1.252 . S
O124 Mg107 2.079 1_565 S
O124 C117 1.264 . S
O125 Mg126 1.990 . S
O125 C139 1.253 . S
Mg126 O125 1.990 . S
Mg126 O129 2.180 . S
Mg126 O130 2.117 . S
Mg126 O144 2.030 . S
O127 Mg128 2.072 . S
O127 C139 1.260 . S
Mg128 O127 2.072 . S
Mg128 O129 2.099 . S
Mg128 O131 2.079 . S
Mg128 O132 2.072 1_554 S
Mg128 O134 2.099 1_545 S
Mg128 O145 2.079 . S
O129 Mg126 2.180 . S
O129 Mg128 2.099 . S
O129 C140 1.279 . S
O130 Mg126 2.117 . S
O130 C140 1.250 . S
O131 Mg128 2.079 . S
O131 C141 1.264 1_545 S
O132 Mg128 2.072 1_556 S
O132 C142 1.260 1_545 S
Mg133 O134 2.185 . S
Mg133 O135 2.028 1_554 S
Mg133 O136 1.986 1_554 S
Mg133 O137 2.121 . S
O134 Mg128 2.099 1_565 S
O134 Mg133 2.185 . S
O134 C143 1.279 . S
O135 Mg133 2.028 1_556 S
O135 C141 1.248 1_556 S
O136 Mg133 1.986 1_556 S
O136 C142 1.253 . S
O137 Mg133 2.121 . S
O137 C143 1.250 . S
C138 O144 1.248 . S
C138 O145 1.264 . S
C139 O125 1.253 . S
C139 O127 1.260 . S
C140 O129 1.279 . S
C140 O130 1.250 . S
C141 O131 1.264 1_565 S
C141 O135 1.248 1_554 S
C142 O132 1.260 1_565 S
C142 O136 1.253 . S
C143 O134 1.279 . S
C143 O137 1.250 . S
O144 Mg126 2.030 . S
O144 C138 1.248 . S
O145 Mg128 2.079 . S
O145 C138 1.264 . S
O146 Mg147 1.990 . S
O146 C160 1.253 . S
Mg147 O146 1.990 . S
Mg147 O150 2.180 . S
Mg147 O151 2.117 . S
Mg147 O165 2.030 . S
O148 Mg149 2.072 . S
O148 C160 1.260 . S
Mg149 O148 2.072 . S
Mg149 O150 2.099 . S
Mg149 O152 2.079 . S
Mg149 O153 2.072 . S
Mg149 O155 2.099 . S
Mg149 O166 2.079 . S
O150 Mg147 2.180 . S
O150 Mg149 2.099 . S
O150 C161 1.279 . S
O151 Mg147 2.117 . S
O151 C161 1.250 . S
O152 Mg149 2.079 . S
O152 C162 1.264 . S
O153 Mg149 2.072 . S
O153 C163 1.260 . S
Mg154 O155 2.180 . S
Mg154 O156 2.030 . S
Mg154 O157 1.990 . S
Mg154 O158 2.117 . S
O155 Mg149 2.099 . S
O155 Mg154 2.180 . S
O155 C164 1.279 . S
O156 Mg154 2.030 . S
O156 C162 1.248 . S
O157 Mg154 1.990 . S
O157 C163 1.253 . S
O158 Mg154 2.117 . S
O158 C164 1.250 . S
C159 O165 1.248 . S
C159 O166 1.264 . S
C160 O146 1.253 . S
C160 O148 1.260 . S
C161 O150 1.279 . S
C161 O151 1.250 . S
C162 O152 1.264 . S
C162 O156 1.248 . S
C163 O153 1.260 . S
C163 O157 1.253 . S
C164 O155 1.279 . S
C164 O158 1.250 . S
O165 Mg147 2.030 . S
O165 C159 1.248 . S
O166 Mg149 2.079 . S
O166 C159 1.264 . S
O167 Mg168 1.990 . S
O167 C181 1.253 . S
Mg168 O167 1.990 . S
Mg168 O171 2.161 1_455 S
Mg168 O172 2.117 1_455 S
Mg168 O186 2.030 . S
O169 Mg170 2.072 . S
O169 C181 1.260 . S
Mg170 O169 2.072 . S
Mg170 O171 2.094 1_455 S
Mg170 O173 2.079 1_454 S
Mg170 O174 2.072 1_454 S
Mg170 O176 2.099 1_554 S
Mg170 O187 2.079 . S
O171 Mg168 2.161 1_655 S
O171 Mg170 2.094 1_655 S
O171 C182 1.297 . S
O172 Mg168 2.117 1_655 S
O172 C182 1.250 . S
O173 Mg170 2.079 1_656 S
O173 C183 1.264 . S
O174 Mg170 2.072 1_656 S
O174 C184 1.260 . S
Mg175 O176 2.180 1_655 S
Mg175 O177 2.030 . S
Mg175 O178 1.990 . S
Mg175 O179 2.117 . S
O176 Mg170 2.099 1_556 S
O176 Mg175 2.180 1_455 S
O176 C185 1.279 . S
O177 Mg175 2.030 . S
O177 C183 1.248 . S
O178 Mg175 1.990 . S
O178 C184 1.253 . S
O179 Mg175 2.117 . S
O179 C185 1.250 1_655 S
C180 O186 1.248 . S
C180 O187 1.264 . S
C181 O167 1.253 . S
C181 O169 1.260 . S
C182 O171 1.297 . S
C182 O172 1.250 . S
C183 O173 1.264 . S
C183 O177 1.248 . S
C184 O174 1.260 . S
C184 O178 1.253 . S
C185 O176 1.279 . S
C185 O179 1.250 1_455 S
O186 Mg168 2.030 . S
O186 C180 1.248 . S
O187 Mg170 2.079 . S
O187 C180 1.264 . S
H188 C196 0.950 . S
H189 C201 0.950 . S
H190 C198 0.950 . S
H191 C200 0.950 . S
H192 C202 0.950 . S
H193 C204 0.950 . S
H194 C206 0.950 . S
H195 C207 0.950 . S
C196 H188 0.950 . S
C196 C197 1.386 . S
C196 C198 1.391 . S
C197 C196 1.386 . S
C197 C201 1.393 . S
C198 H190 0.950 . S
C198 C196 1.391 . S
C198 C199 1.400 . S
C199 C198 1.400 . S
C199 C200 1.398 . S
C199 C205 1.491 . S
C200 H191 0.950 . S
C200 C199 1.398 . S
C200 C201 1.391 . S
C201 H189 0.950 . S
C201 C197 1.393 . S
C201 C200 1.391 . S
C202 H192 0.950 . S
C202 C203 1.386 . S
C202 C204 1.391 . S
C203 C202 1.386 . S
C203 C207 1.393 . S
C204 H193 0.950 . S
C204 C202 1.391 . S
C204 C205 1.400 . S
C205 C199 1.491 . S
C205 C204 1.400 . S
C205 C206 1.398 . S
C206 H194 0.950 . S
C206 C205 1.398 . S
C206 C207 1.391 . S
C207 H195 0.950 . S
C207 C203 1.393 . S
C207 C206 1.391 . S
H208 C216 0.950 . S
H209 C221 0.950 . S
H210 C218 0.950 . S
H211 C220 0.950 . S
H212 C222 0.950 . S
H213 C224 0.950 . S
H214 C226 0.950 . S
H215 C227 0.950 . S
C216 H208 0.950 . S
C216 C217 1.386 . S
C216 C218 1.391 . S
C217 C216 1.386 . S
C217 C221 1.393 . S
C218 H210 0.950 . S
C218 C216 1.391 . S
C218 C219 1.400 . S
C219 C218 1.400 . S
C219 C220 1.398 . S
C219 C225 1.491 . S
C220 H211 0.950 . S
C220 C219 1.398 . S
C220 C221 1.391 . S
C221 H209 0.950 . S
C221 C217 1.393 . S
C221 C220 1.391 . S
C222 H212 0.950 . S
C222 C223 1.386 . S
C222 C224 1.391 . S
C223 C222 1.386 . S
C223 C227 1.393 1_565 S
C224 H213 0.950 . S
C224 C222 1.391 . S
C224 C225 1.400 . S
C225 C219 1.491 . S
C225 C224 1.400 . S
C225 C226 1.398 1_565 S
C226 H214 0.950 . S
C226 C225 1.398 1_545 S
C226 C227 1.391 . S
C227 H215 0.950 . S
C227 C223 1.393 1_545 S
C227 C226 1.391 . S
H228 C236 0.950 . S
H229 C241 0.950 . S
H230 C238 0.950 . S
H231 C240 0.950 . S
H232 C242 0.950 . S
H233 C244 0.950 . S
H234 C246 0.950 . S
H235 C247 0.950 . S
C236 H228 0.950 . S
C236 C237 1.386 . S
C236 C238 1.391 . S
C237 C236 1.386 . S
C237 C241 1.393 . S
C238 H230 0.950 . S
C238 C236 1.391 . S
C238 C239 1.400 . S
C239 C238 1.400 . S
C239 C240 1.398 . S
C239 C245 1.491 . S
C240 H231 0.950 . S
C240 C239 1.398 . S
C240 C241 1.391 . S
C241 H229 0.950 . S
C241 C237 1.393 . S
C241 C240 1.391 . S
C242 H232 0.950 . S
C242 C243 1.386 . S
C242 C244 1.391 . S
C243 C242 1.386 . S
C243 C247 1.393 . S
C244 H233 0.950 . S
C244 C242 1.391 . S
C244 C245 1.400 . S
C245 C239 1.491 . S
C245 C244 1.400 . S
C245 C246 1.398 . S
C246 H234 0.950 . S
C246 C245 1.398 . S
C246 C247 1.391 . S
C247 H235 0.950 . S
C247 C243 1.393 . S
C247 C246 1.391 . S
H248 C256 0.950 . S
H249 C261 0.950 . S
H250 C258 0.950 . S
H251 C260 0.950 . S
H252 C262 0.950 . S
H253 C264 0.950 . S
H254 C266 0.950 . S
H255 C267 0.950 . S
C256 H248 0.950 . S
C256 C257 1.386 . S
C256 C258 1.391 . S
C257 C256 1.386 . S
C257 C261 1.393 . S
C258 H250 0.950 . S
C258 C256 1.391 . S
C258 C259 1.400 . S
C259 C258 1.400 . S
C259 C260 1.398 . S
C259 C265 1.491 . S
C260 H251 0.950 . S
C260 C259 1.398 . S
C260 C261 1.391 . S
C261 H249 0.950 . S
C261 C257 1.393 . S
C261 C260 1.391 . S
C262 H252 0.950 . S
C262 C263 1.386 . S
C262 C264 1.391 . S
C263 C262 1.386 . S
C263 C267 1.393 . S
C264 H253 0.950 . S
C264 C262 1.391 . S
C264 C265 1.400 . S
C265 C259 1.491 . S
C265 C264 1.400 . S
C265 C266 1.398 . S
C266 H254 0.950 . S
C266 C265 1.398 . S
C266 C267 1.391 . S
C267 H255 0.950 . S
C267 C263 1.393 . S
C267 C266 1.391 . S
H268 C276 0.950 . S
H269 C281 0.950 . S
H270 C278 0.950 . S
H271 C280 0.950 . S
H272 C282 0.950 . S
H273 C284 0.950 . S
H274 C286 0.950 . S
H275 C287 0.950 . S
C276 H268 0.950 . S
C276 C277 1.386 . S
C276 C278 1.391 . S
C277 C276 1.386 . S
C277 C281 1.393 . S
C278 H270 0.950 . S
C278 C276 1.391 . S
C278 C279 1.400 . S
C279 C278 1.400 . S
C279 C280 1.398 . S
C279 C285 1.491 . S
C280 H271 0.950 . S
C280 C279 1.398 . S
C280 C281 1.391 . S
C281 H269 0.950 . S
C281 C277 1.393 . S
C281 C280 1.391 . S
C282 H272 0.950 . S
C282 C283 1.386 . S
C282 C284 1.391 . S
C283 C282 1.386 . S
C283 C287 1.393 . S
C284 H273 0.950 . S
C284 C282 1.391 . S
C284 C285 1.400 . S
C285 C279 1.491 . S
C285 C284 1.400 . S
C285 C286 1.398 . S
C286 H274 0.950 . S
C286 C285 1.398 . S
C286 C287 1.391 . S
C287 H275 0.950 . S
C287 C283 1.393 . S
C287 C286 1.391 . S
H288 C296 0.950 . S
H289 C301 0.950 . S
H290 C298 0.950 . S
H291 C300 0.950 . S
H292 C302 0.950 1_545 S
H293 C304 0.950 1_545 S
H294 C306 0.950 . S
H295 C307 0.950 . S
C296 H288 0.950 . S
C296 C297 1.386 . S
C296 C298 1.391 . S
C297 C296 1.386 . S
C297 C301 1.393 . S
C298 H290 0.950 . S
C298 C296 1.391 . S
C298 C299 1.400 . S
C299 C298 1.400 . S
C299 C300 1.398 . S
C299 C305 1.491 . S
C300 H291 0.950 . S
C300 C299 1.398 . S
C300 C301 1.391 . S
C301 H289 0.950 . S
C301 C297 1.393 . S
C301 C300 1.391 . S
C302 H292 0.950 1_565 S
C302 C303 1.386 . S
C302 C304 1.391 . S
C303 C302 1.386 . S
C303 C307 1.393 . S
C304 H293 0.950 1_565 S
C304 C302 1.391 . S
C304 C305 1.400 . S
C305 C299 1.491 . S
C305 C304 1.400 . S
C305 C306 1.398 . S
C306 H294 0.950 . S
C306 C305 1.398 . S
C306 C307 1.391 . S
C307 H295 0.950 . S
C307 C303 1.393 . S
C307 C306 1.391 . S
H308 C316 0.950 . S
H309 C321 0.950 . S
H310 C318 0.950 . S
H311 C320 0.950 . S
H312 C322 0.950 1_554 S
H313 C324 0.950 . S
H314 C326 0.950 . S
H315 C327 0.950 . S
C316 H308 0.950 . S
C316 C317 1.386 . S
C316 C318 1.391 . S
C317 C316 1.386 . S
C317 C321 1.393 . S
C318 H310 0.950 . S
C318 C316 1.391 . S
C318 C319 1.400 . S
C319 C318 1.400 . S
C319 C320 1.398 . S
C319 C325 1.491 . S
C320 H311 0.950 . S
C320 C319 1.398 . S
C320 C321 1.391 . S
C321 H309 0.950 . S
C321 C317 1.393 . S
C321 C320 1.391 . S
C322 H312 0.950 1_556 S
C322 C323 1.386 . S
C322 C324 1.391 . S
C323 C322 1.386 . S
C323 C327 1.393 . S
C324 H313 0.950 . S
C324 C322 1.391 . S
C324 C325 1.400 . S
C325 C319 1.491 . S
C325 C324 1.400 . S
C325 C326 1.398 . S
C326 H314 0.950 . S
C326 C325 1.398 . S
C326 C327 1.391 . S
C327 H315 0.950 . S
C327 C323 1.393 . S
C327 C326 1.391 . S
H328 C336 0.950 . S
H329 C341 0.950 . S
H330 C338 0.950 . S
H331 C340 0.950 . S
H332 C342 0.950 . S
H333 C344 0.950 . S
H334 C346 0.950 . S
H335 C347 0.950 . S
C336 H328 0.950 . S
C336 C337 1.386 . S
C336 C338 1.391 . S
C337 C336 1.386 . S
C337 C341 1.393 . S
C338 H330 0.950 . S
C338 C336 1.391 . S
C338 C339 1.400 . S
C339 C338 1.400 . S
C339 C340 1.398 . S
C339 C345 1.491 . S
C340 H331 0.950 . S
C340 C339 1.398 . S
C340 C341 1.391 . S
C341 H329 0.950 . S
C341 C337 1.393 . S
C341 C340 1.391 . S
C342 H332 0.950 . S
C342 C343 1.386 . S
C342 C344 1.391 . S
C343 C342 1.386 . S
C343 C347 1.393 . S
C344 H333 0.950 . S
C344 C342 1.391 . S
C344 C345 1.400 . S
C345 C339 1.491 . S
C345 C344 1.400 . S
C345 C346 1.398 . S
C346 H334 0.950 . S
C346 C345 1.398 . S
C346 C347 1.391 . S
C347 H335 0.950 . S
C347 C343 1.393 . S
C347 C346 1.391 . S
H348 C356 0.950 . S
H349 C361 0.950 . S
H350 C358 0.950 . S
H351 C360 0.950 . S
H352 C362 0.950 1_556 S
H353 C364 0.950 . S
H354 C366 0.950 . S
H355 C367 0.950 . S
C356 H348 0.950 . S
C356 C357 1.386 . S
C356 C358 1.391 . S
C357 C356 1.386 . S
C357 C361 1.393 . S
C358 H350 0.950 . S
C358 C356 1.391 . S
C358 C359 1.400 . S
C359 C358 1.400 . S
C359 C360 1.398 . S
C359 C365 1.491 . S
C360 H351 0.950 . S
C360 C359 1.398 . S
C360 C361 1.391 . S
C361 H349 0.950 . S
C361 C357 1.393 . S
C361 C360 1.391 . S
C362 H352 0.950 1_554 S
C362 C363 1.386 . S
C362 C364 1.391 . S
C363 C362 1.386 . S
C363 C367 1.393 . S
C364 H353 0.950 . S
C364 C362 1.391 . S
C364 C365 1.400 . S
C365 C359 1.491 . S
C365 C364 1.400 . S
C365 C366 1.398 . S
C366 H354 0.950 . S
C366 C365 1.398 . S
C366 C367 1.391 . S
C367 H355 0.950 . S
C367 C363 1.393 . S
C367 C366 1.391 . S
H368 C376 0.950 . S
H369 C381 0.950 . S
H370 C378 0.950 . S
H371 C380 0.950 . S
H372 C382 0.950 1_554 S
H373 C384 0.949 1_554 S
H374 C386 0.950 . S
H375 C387 0.950 . S
C376 H368 0.950 . S
C376 C377 1.386 . S
C376 C378 1.391 . S
C377 C376 1.386 . S
C377 C381 1.393 . S
C378 H370 0.950 . S
C378 C376 1.391 . S
C378 C379 1.400 . S
C379 C378 1.400 . S
C379 C380 1.398 . S
C379 C385 1.491 . S
C380 H371 0.950 . S
C380 C379 1.398 . S
C380 C381 1.391 . S
C381 H369 0.950 . S
C381 C377 1.393 . S
C381 C380 1.391 . S
C382 H372 0.950 1_556 S
C382 C383 1.386 . S
C382 C384 1.391 . S
C383 C382 1.386 . S
C383 C387 1.393 . S
C384 H373 0.949 1_556 S
C384 C382 1.391 . S
C384 C385 1.400 . S
C385 C379 1.491 . S
C385 C384 1.400 . S
C385 C386 1.398 . S
C386 H374 0.950 . S
C386 C385 1.398 . S
C386 C387 1.391 . S
C387 H375 0.950 . S
C387 C383 1.393 . S
C387 C386 1.391 . S
H388 C396 0.950 . S
H389 C401 0.950 . S
H390 C398 0.950 . S
H391 C400 0.950 . S
H392 C402 0.950 . S
H393 C404 0.950 . S
H394 C406 0.950 . S
H395 C407 0.950 . S
C396 H388 0.950 . S
C396 C397 1.386 . S
C396 C398 1.391 . S
C397 C396 1.386 . S
C397 C401 1.393 . S
C398 H390 0.950 . S
C398 C396 1.391 . S
C398 C399 1.400 . S
C399 C398 1.400 . S
C399 C400 1.398 . S
C399 C405 1.491 . S
C400 H391 0.950 . S
C400 C399 1.398 . S
C400 C401 1.391 . S
C401 H389 0.950 . S
C401 C397 1.393 . S
C401 C400 1.391 . S
C402 H392 0.950 . S
C402 C403 1.386 . S
C402 C404 1.391 . S
C403 C402 1.386 . S
C403 C407 1.393 1_655 S
C404 H393 0.950 . S
C404 C402 1.391 . S
C404 C405 1.400 . S
C405 C399 1.491 . S
C405 C404 1.400 . S
C405 C406 1.398 . S
C406 H394 0.950 . S
C406 C405 1.398 . S
C406 C407 1.391 1_655 S
C407 H395 0.950 . S
C407 C403 1.393 1_455 S
C407 C406 1.391 1_455 S
H408 C416 0.950 . S
H409 C421 0.950 . S
H410 C418 0.950 . S
H411 C420 0.950 . S
H412 C422 0.950 . S
H413 C424 0.950 . S
H414 C426 0.950 . S
H415 C427 0.950 . S
C416 H408 0.950 . S
C416 C417 1.386 . S
C416 C418 1.391 . S
C417 C416 1.386 . S
C417 C421 1.393 . S
C418 H410 0.950 . S
C418 C416 1.391 . S
C418 C419 1.400 . S
C419 C418 1.400 . S
C419 C420 1.398 . S
C419 C425 1.491 . S
C420 H411 0.950 . S
C420 C419 1.398 . S
C420 C421 1.391 . S
C421 H409 0.950 . S
C421 C417 1.393 . S
C421 C420 1.391 . S
C422 H412 0.950 . S
C422 C423 1.386 . S
C422 C424 1.391 . S
C423 C422 1.386 . S
C423 C427 1.393 . S
C424 H413 0.950 . S
C424 C422 1.391 . S
C424 C425 1.400 . S
C425 C419 1.491 . S
C425 C424 1.400 . S
C425 C426 1.398 . S
C426 H414 0.950 . S
C426 C425 1.398 . S
C426 C427 1.391 . S
C427 H415 0.950 . S
C427 C423 1.393 . S
C427 C426 1.391 . S
H428 C436 0.950 . S
H429 C441 0.950 . S
H430 C438 0.950 . S
H431 C440 0.950 . S
H432 C442 0.950 . S
H433 C444 0.950 . S
H434 C446 0.950 1_545 S
H435 C447 0.950 1_545 S
C436 H428 0.950 . S
C436 C437 1.386 . S
C436 C438 1.391 . S
C437 C436 1.386 . S
C437 C441 1.393 . S
C438 H430 0.950 . S
C438 C436 1.391 . S
C438 C439 1.400 . S
C439 C438 1.400 . S
C439 C440 1.398 . S
C439 C445 1.491 . S
C440 H431 0.950 . S
C440 C439 1.398 . S
C440 C441 1.391 . S
C441 H429 0.950 . S
C441 C437 1.393 . S
C441 C440 1.391 . S
C442 H432 0.950 . S
C442 C443 1.386 1_655 S
C442 C444 1.391 . S
C443 C442 1.386 1_455 S
C443 C447 1.393 . S
C444 H433 0.950 . S
C444 C442 1.391 . S
C444 C445 1.400 . S
C445 C439 1.491 . S
C445 C444 1.400 . S
C445 C446 1.398 . S
C446 H434 0.950 1_565 S
C446 C445 1.398 . S
C446 C447 1.391 1_655 S
C447 H435 0.950 1_565 S
C447 C443 1.393 . S
C447 C446 1.391 1_455 S
H448 C456 0.950 . S
H449 C461 0.950 . S
H450 C458 0.950 . S
H451 C460 0.950 . S
H452 C462 0.950 . S
H453 C464 0.950 . S
H454 C466 0.950 . S
H455 C467 0.950 . S
C456 H448 0.950 . S
C456 C457 1.386 . S
C456 C458 1.391 . S
C457 C456 1.386 . S
C457 C461 1.393 . S
C458 H450 0.950 . S
C458 C456 1.391 . S
C458 C459 1.400 . S
C459 C458 1.400 . S
C459 C460 1.398 . S
C459 C465 1.491 . S
C460 H451 0.950 . S
C460 C459 1.398 . S
C460 C461 1.391 . S
C461 H449 0.950 . S
C461 C457 1.393 . S
C461 C460 1.391 . S
C462 H452 0.950 . S
C462 C463 1.386 . S
C462 C464 1.391 . S
C463 C462 1.386 . S
C463 C467 1.393 . S
C464 H453 0.950 . S
C464 C462 1.391 . S
C464 C465 1.400 . S
C465 C459 1.491 . S
C465 C464 1.400 . S
C465 C466 1.398 . S
C466 H454 0.950 . S
C466 C465 1.398 . S
C466 C467 1.391 . S
C467 H455 0.950 . S
C467 C463 1.393 . S
C467 C466 1.391 . S
H468 C476 0.950 . S
H469 C481 0.950 . S
H470 C478 0.950 . S
H471 C480 0.950 . S
H472 C482 0.950 . S
H473 C484 0.950 . S
H474 C486 0.950 . S
H475 C487 0.950 . S
C476 H468 0.950 . S
C476 C477 1.386 . S
C476 C478 1.391 . S
C477 C476 1.386 . S
C477 C481 1.393 . S
C478 H470 0.950 . S
C478 C476 1.391 . S
C478 C479 1.400 . S
C479 C478 1.400 . S
C479 C480 1.398 . S
C479 C485 1.491 . S
C480 H471 0.950 . S
C480 C479 1.398 . S
C480 C481 1.391 . S
C481 H469 0.950 . S
C481 C477 1.393 . S
C481 C480 1.391 . S
C482 H472 0.950 . S
C482 C483 1.386 . S
C482 C484 1.391 . S
C483 C482 1.386 . S
C483 C487 1.393 . S
C484 H473 0.950 . S
C484 C482 1.391 . S
C484 C485 1.400 . S
C485 C479 1.491 . S
C485 C484 1.400 . S
C485 C486 1.398 . S
C486 H474 0.950 . S
C486 C485 1.398 . S
C486 C487 1.391 . S
C487 H475 0.950 . S
C487 C483 1.393 . S
C487 C486 1.391 . S
H488 C496 0.950 . S
H489 C501 0.950 . S
H490 C498 0.950 . S
H491 C500 0.950 . S
H492 C502 0.950 . S
H493 C504 0.950 . S
H494 C506 0.950 . S
H495 C507 0.950 . S
C496 H488 0.950 . S
C496 C497 1.386 . S
C496 C498 1.391 . S
C497 C496 1.386 . S
C497 C501 1.393 . S
C498 H490 0.950 . S
C498 C496 1.391 . S
C498 C499 1.400 . S
C499 C498 1.400 . S
C499 C500 1.398 . S
C499 C505 1.491 . S
C500 H491 0.950 . S
C500 C499 1.398 . S
C500 C501 1.391 . S
C501 H489 0.950 . S
C501 C497 1.393 . S
C501 C500 1.391 . S
C502 H492 0.950 . S
C502 C503 1.386 . S
C502 C504 1.391 . S
C503 C502 1.386 . S
C503 C507 1.393 . S
C504 H493 0.950 . S
C504 C502 1.391 . S
C504 C505 1.400 . S
C505 C499 1.491 . S
C505 C504 1.400 . S
C505 C506 1.398 . S
C506 H494 0.950 . S
C506 C505 1.398 . S
C506 C507 1.391 . S
C507 H495 0.950 . S
C507 C503 1.393 . S
C507 C506 1.391 . S
H508 C516 0.950 . S
H509 C521 0.950 . S
H510 C518 0.950 . S
H511 C520 0.950 . S
H512 C522 0.950 . S
H513 C524 0.950 1_544 S
H514 C526 0.950 . S
H515 C527 0.950 . S
C516 H508 0.950 . S
C516 C517 1.386 . S
C516 C518 1.391 . S
C517 C516 1.386 . S
C517 C521 1.393 . S
C518 H510 0.950 . S
C518 C516 1.391 . S
C518 C519 1.400 . S
C519 C518 1.400 . S
C519 C520 1.398 . S
C519 C525 1.491 . S
C520 H511 0.950 . S
C520 C519 1.398 . S
C520 C521 1.391 . S
C521 H509 0.950 . S
C521 C517 1.393 . S
C521 C520 1.391 . S
C522 H512 0.950 . S
C522 C523 1.386 1_544 S
C522 C524 1.391 1_544 S
C523 C522 1.386 1_566 S
C523 C527 1.393 . S
C524 H513 0.950 1_566 S
C524 C522 1.391 1_566 S
C524 C525 1.400 . S
C525 C519 1.491 . S
C525 C524 1.400 . S
C525 C526 1.398 . S
C526 H514 0.950 . S
C526 C525 1.398 . S
C526 C527 1.391 . S
C527 H515 0.950 . S
C527 C523 1.393 . S
C527 C526 1.391 . S
H528 C536 0.950 . S
H529 C541 0.950 . S
H530 C538 0.950 . S
H531 C540 0.950 . S
H532 C542 0.950 . S
H533 C544 0.950 . S
H534 C546 0.950 . S
H535 C547 0.950 . S
C536 H528 0.950 . S
C536 C537 1.386 . S
C536 C538 1.391 . S
C537 C536 1.386 . S
C537 C541 1.393 . S
C538 H530 0.950 . S
C538 C536 1.391 . S
C538 C539 1.400 . S
C539 C538 1.400 . S
C539 C540 1.398 . S
C539 C545 1.491 . S
C540 H531 0.950 . S
C540 C539 1.398 . S
C540 C541 1.391 . S
C541 H529 0.950 . S
C541 C537 1.393 . S
C541 C540 1.391 . S
C542 H532 0.950 . S
C542 C543 1.386 . S
C542 C544 1.391 . S
C543 C542 1.386 . S
C543 C547 1.393 . S
C544 H533 0.950 . S
C544 C542 1.391 . S
C544 C545 1.400 . S
C545 C539 1.491 . S
C545 C544 1.400 . S
C545 C546 1.398 . S
C546 H534 0.950 . S
C546 C545 1.398 . S
C546 C547 1.391 . S
C547 H535 0.950 . S
C547 C543 1.393 . S
C547 C546 1.391 . S
H548 C556 0.950 . S
H549 C561 0.950 . S
H550 C558 0.950 . S
H551 C560 0.950 . S
H552 C562 0.950 . S
H553 C564 0.950 . S
H554 C566 0.950 . S
H555 C567 0.950 . S
C556 H548 0.950 . S
C556 C557 1.386 . S
C556 C558 1.391 . S
C557 C556 1.386 . S
C557 C561 1.393 . S
C558 H550 0.950 . S
C558 C556 1.391 . S
C558 C559 1.400 . S
C559 C558 1.400 . S
C559 C560 1.398 . S
C559 C565 1.491 . S
C560 H551 0.950 . S
C560 C559 1.398 . S
C560 C561 1.391 . S
C561 H549 0.950 . S
C561 C557 1.393 . S
C561 C560 1.391 . S
C562 H552 0.950 . S
C562 C563 1.386 . S
C562 C564 1.391 . S
C563 C562 1.386 . S
C563 C567 1.393 . S
C564 H553 0.950 . S
C564 C562 1.391 . S
C564 C565 1.400 . S
C565 C559 1.491 . S
C565 C564 1.400 . S
C565 C566 1.398 . S
C566 H554 0.950 . S
C566 C565 1.398 . S
C566 C567 1.391 . S
C567 H555 0.950 . S
C567 C563 1.393 . S
C567 C566 1.391 . S
H568 C576 0.950 . S
H569 C581 0.950 . S
H570 C578 0.950 . S
H571 C580 0.950 . S
H572 C582 0.950 . S
H573 C584 0.950 . S
H574 C586 0.950 . S
H575 C587 0.950 . S
C576 H568 0.950 . S
C576 C577 1.386 . S
C576 C578 1.391 . S
C577 C576 1.386 . S
C577 C581 1.393 . S
C578 H570 0.950 . S
C578 C576 1.391 . S
C578 C579 1.400 . S
C579 C578 1.400 . S
C579 C580 1.398 . S
C579 C585 1.491 . S
C580 H571 0.950 . S
C580 C579 1.398 . S
C580 C581 1.391 . S
C581 H569 0.950 . S
C581 C577 1.393 . S
C581 C580 1.391 . S
C582 H572 0.950 . S
C582 C583 1.386 . S
C582 C584 1.391 . S
C583 C582 1.386 . S
C583 C587 1.393 . S
C584 H573 0.950 . S
C584 C582 1.391 . S
C584 C585 1.400 . S
C585 C579 1.491 . S
C585 C584 1.400 . S
C585 C586 1.398 . S
C586 H574 0.950 . S
C586 C585 1.398 . S
C586 C587 1.391 . S
C587 H575 0.950 . S
C587 C583 1.393 . S
C587 C586 1.391 . S
H588 C596 0.950 . S
H589 C601 0.950 . S
H590 C598 0.950 . S
H591 C600 0.950 . S
H592 C602 0.950 1_554 S
H593 C604 0.966 . S
H594 C606 0.950 . S
H595 C607 0.950 . S
C596 H588 0.950 . S
C596 C597 1.386 . S
C596 C598 1.391 . S
C597 C596 1.386 . S
C597 C601 1.393 . S
C598 H590 0.950 . S
C598 C596 1.391 . S
C598 C599 1.400 . S
C599 C598 1.400 . S
C599 C600 1.398 . S
C599 C605 1.491 . S
C600 H591 0.950 . S
C600 C599 1.398 . S
C600 C601 1.391 . S
C601 H589 0.950 . S
C601 C597 1.393 . S
C601 C600 1.391 . S
C602 H592 0.950 1_556 S
C602 C603 1.386 . S
C602 C604 1.391 . S
C603 C602 1.386 . S
C603 C607 1.393 . S
C604 H593 0.966 . S
C604 C602 1.391 . S
C604 C605 1.400 . S
C605 C599 1.491 . S
C605 C604 1.400 . S
C605 C606 1.398 . S
C606 H594 0.950 . S
C606 C605 1.398 . S
C606 C607 1.391 . S
C607 H595 0.950 . S
C607 C603 1.393 . S
C607 C606 1.391 . S
H608 C616 0.950 . S
H609 C621 0.950 . S
H610 C618 0.950 . S
H611 C620 0.950 . S
H612 C622 0.950 . S
H613 C624 0.950 . S
H614 C626 0.950 . S
H615 C627 0.950 . S
C616 H608 0.950 . S
C616 C617 1.386 . S
C616 C618 1.391 . S
C617 C616 1.386 . S
C617 C621 1.393 . S
C618 H610 0.950 . S
C618 C616 1.391 . S
C618 C619 1.400 . S
C619 C618 1.400 . S
C619 C620 1.398 . S
C619 C625 1.491 . S
C620 H611 0.950 . S
C620 C619 1.398 . S
C620 C621 1.391 . S
C621 H609 0.950 . S
C621 C617 1.393 . S
C621 C620 1.391 . S
C622 H612 0.950 . S
C622 C623 1.386 . S
C622 C624 1.391 . S
C623 C622 1.386 . S
C623 C627 1.393 . S
C624 H613 0.950 . S
C624 C622 1.391 . S
C624 C625 1.400 . S
C625 C619 1.491 . S
C625 C624 1.400 . S
C625 C626 1.398 . S
C626 H614 0.950 . S
C626 C625 1.398 . S
C626 C627 1.391 . S
C627 H615 0.950 . S
C627 C623 1.393 . S
C627 C626 1.391 . S
H628 C636 0.950 . S
H629 C641 0.950 . S
H630 C638 0.950 . S
H631 C640 0.950 . S
H632 C642 0.950 . S
H633 C644 0.950 . S
H634 C646 0.950 . S
H635 C647 0.950 . S
C636 H628 0.950 . S
C636 C637 1.386 . S
C636 C638 1.391 . S
C637 C636 1.386 . S
C637 C641 1.393 . S
C638 H630 0.950 . S
C638 C636 1.391 . S
C638 C639 1.400 . S
C639 C638 1.400 . S
C639 C640 1.398 . S
C639 C645 1.491 . S
C640 H631 0.950 . S
C640 C639 1.398 . S
C640 C641 1.391 . S
C641 H629 0.950 . S
C641 C637 1.393 . S
C641 C640 1.391 . S
C642 H632 0.950 . S
C642 C643 1.386 . S
C642 C644 1.391 . S
C643 C642 1.386 . S
C643 C647 1.393 . S
C644 H633 0.950 . S
C644 C642 1.391 . S
C644 C645 1.400 . S
C645 C639 1.491 . S
C645 C644 1.400 . S
C645 C646 1.398 . S
C646 H634 0.950 . S
C646 C645 1.398 . S
C646 C647 1.391 . S
C647 H635 0.950 . S
C647 C643 1.393 . S
C647 C646 1.391 . S
H648 C656 0.950 . S
H649 C661 0.950 . S
H650 C658 0.950 . S
H651 C660 0.950 . S
H652 C662 0.950 . S
H653 C664 0.950 . S
H654 C666 0.950 . S
H655 C667 0.950 . S
C656 H648 0.950 . S
C656 C657 1.386 . S
C656 C658 1.391 . S
C657 C656 1.386 . S
C657 C661 1.393 . S
C658 H650 0.950 . S
C658 C656 1.391 . S
C658 C659 1.400 . S
C659 C658 1.400 . S
C659 C660 1.398 . S
C659 C665 1.491 . S
C660 H651 0.950 . S
C660 C659 1.398 . S
C660 C661 1.391 . S
C661 H649 0.950 . S
C661 C657 1.393 . S
C661 C660 1.391 . S
C662 H652 0.950 . S
C662 C663 1.386 . S
C662 C664 1.391 . S
C663 C662 1.386 . S
C663 C667 1.393 . S
C664 H653 0.950 . S
C664 C662 1.391 . S
C664 C665 1.400 . S
C665 C659 1.491 . S
C665 C664 1.400 . S
C665 C666 1.398 . S
C666 H654 0.950 . S
C666 C665 1.398 . S
C666 C667 1.391 . S
C667 H655 0.950 . S
C667 C663 1.393 . S
C667 C666 1.391 . S
C197 N1 1.521 . S
C203 C120 1.524 . S
C217 N18 1.777 . S
C223 C142 1.723 . S
C243 C161 0.933 . S
C237 N28 1.053 . S
C257 N40 1.843 . S
C263 C182 1.535 . S
C283 C139 2.020 . S
C277 N5 2.093 . S
C303 C117 1.633 . S
C297 N14 1.668 . S
C323 C184 1.280 . S
C317 N31 1.326 . S
C343 C163 1.113 . S
C337 N41 1.129 . S
C357 N2 1.569 . S
C363 C181 1.541 . S
C383 C140 1.361 1_556 S
C377 N27 1.627 . S
C397 N44 1.705 . S
C403 C122 1.524 1_655 S
C417 N15 1.356 . S
C423 C160 1.295 . S
C443 C118 1.820 . S
C437 N57 1.896 . S
C457 N70 1.206 . S
C463 C138 1.177 . S
C477 N79 1.392 . S
C483 C164 1.224 . S
C497 N93 1.458 . S
C503 C185 1.217 . S
C517 N54 1.588 . S
C523 C141 1.549 1_556 S
C543 C121 2.089 . S
C537 N66 2.129 . S
C563 C180 0.776 . S
C557 N80 0.817 . S
C583 C159 1.427 . S
C577 N96 1.506 . S
C597 N53 1.519 . S
C603 C183 1.492 . S
C623 C143 1.188 . S
C617 N83 1.418 . S
C643 C119 1.441 . S
C637 N92 1.572 . S
C657 N67 1.380 . S
C663 C162 1.371 . S
