# Generated by pormake.
# Topology nom, (4,4)-cn, num edge types: 1
# Building blocks:
#     Node 0, Type 0, BuildingBlock: NAHDIM_clean_linker_0, # of connection points: 4
#     Node 1, Type 0, BuildingBlock: NAHDIM_clean_linker_0, # of connection points: 4
#     Node 2, Type 0, BuildingBlock: NAHDIM_clean_linker_0, # of connection points: 4
#     Node 3, Type 0, BuildingBlock: NAHDIM_clean_linker_0, # of connection points: 4
#     Node 4, Type 0, BuildingBlock: NAHDIM_clean_linker_0, # of connection points: 4
#     Node 5, Type 0, BuildingBlock: NAHDIM_clean_linker_0, # of connection points: 4
#     Node 6, Type 1, BuildingBlock: QUQFOY_clean_sbu_3, # of connection points: 4
#     Node 7, Type 1, BuildingBlock: QUQFOY_clean_sbu_3, # of connection points: 4
#     Node 8, Type 1, BuildingBlock: QUQFOY_clean_sbu_3, # of connection points: 4
#     Node 9, Type 1, BuildingBlock: QUQFOY_clean_sbu_3, # of connection points: 4
#     Node 10, Type 1, BuildingBlock: QUQFOY_clean_sbu_3, # of connection points: 4
#     Node 11, Type 1, BuildingBlock: QUQFOY_clean_sbu_3, # of connection points: 4
#     Edge 12, Type (0, 1), BuildingBlock: ZUJKAS_clean_linker_0, # of connection points: 2
#     Edge 13, Type (0, 1), BuildingBlock: ZUJKAS_clean_linker_0, # of connection points: 2
#     Edge 14, Type (0, 1), BuildingBlock: ZUJKAS_clean_linker_0, # of connection points: 2
#     Edge 15, Type (0, 1), BuildingBlock: ZUJKAS_clean_linker_0, # of connection points: 2
#     Edge 16, Type (0, 1), BuildingBlock: ZUJKAS_clean_linker_0, # of connection points: 2
#     Edge 17, Type (0, 1), BuildingBlock: ZUJKAS_clean_linker_0, # of connection points: 2
#     Edge 18, Type (0, 1), BuildingBlock: ZUJKAS_clean_linker_0, # of connection points: 2
#     Edge 19, Type (0, 1), BuildingBlock: ZUJKAS_clean_linker_0, # of connection points: 2
#     Edge 20, Type (0, 1), BuildingBlock: ZUJKAS_clean_linker_0, # of connection points: 2
#     Edge 21, Type (0, 1), BuildingBlock: ZUJKAS_clean_linker_0, # of connection points: 2
#     Edge 22, Type (0, 1), BuildingBlock: ZUJKAS_clean_linker_0, # of connection points: 2
#     Edge 23, Type (0, 1), BuildingBlock: ZUJKAS_clean_linker_0, # of connection points: 2
#     Edge 24, Type (0, 1), BuildingBlock: ZUJKAS_clean_linker_0, # of connection points: 2
#     Edge 25, Type (0, 1), BuildingBlock: ZUJKAS_clean_linker_0, # of connection points: 2
#     Edge 26, Type (0, 1), BuildingBlock: ZUJKAS_clean_linker_0, # of connection points: 2
#     Edge 27, Type (0, 1), BuildingBlock: ZUJKAS_clean_linker_0, # of connection points: 2
#     Edge 28, Type (0, 1), BuildingBlock: ZUJKAS_clean_linker_0, # of connection points: 2
#     Edge 29, Type (0, 1), BuildingBlock: ZUJKAS_clean_linker_0, # of connection points: 2
#     Edge 30, Type (0, 1), BuildingBlock: ZUJKAS_clean_linker_0, # of connection points: 2
#     Edge 31, Type (0, 1), BuildingBlock: ZUJKAS_clean_linker_0, # of connection points: 2
#     Edge 32, Type (0, 1), BuildingBlock: ZUJKAS_clean_linker_0, # of connection points: 2
#     Edge 33, Type (0, 1), BuildingBlock: ZUJKAS_clean_linker_0, # of connection points: 2
#     Edge 34, Type (0, 1), BuildingBlock: ZUJKAS_clean_linker_0, # of connection points: 2
#     Edge 35, Type (0, 1), BuildingBlock: ZUJKAS_clean_linker_0, # of connection points: 2
# Relax obj value: 0.047
# Max RMSD: 0.129
# Mean RMSD: 0.099
data_MOF--net-nom--node1-QUQFOY_clean_sbu_3--node2-NAHDIM_clean_linker_0--edge1-ZUJKAS_clean_linker_0
_symmetry_space_group_name_H-M    P1
_symmetry_Int_Tables_number       1
_symmetry_cell_setting            triclinic
loop_
_symmetry_equiv_pos_as_xyz
'x, y, z'
_cell_length_a     70.13353
_cell_length_b     71.742867
_cell_length_c     85.627578
_cell_angle_alpha  90.101307
_cell_angle_beta   90.092378
_cell_angle_gamma 119.95663
loop_
_atom_site_label
_atom_site_type_symbol
_atom_site_fract_x
_atom_site_fract_y
_atom_site_fract_z
_atom_type_partial_charge
C0 C 0.13403 0.57183 0.26134 0.0
C1 C 0.14008 0.58306 0.27732 0.0
C2 C 0.1033 0.57397 0.28683 0.0
C3 C 0.09619 0.55243 0.2907 0.0
C4 C 0.07431 0.53841 0.29505 0.0
C5 C 0.05916 0.54599 0.29542 0.0
C6 C 0.06632 0.56772 0.29177 0.0
C7 C 0.08839 0.58148 0.28769 0.0
C8 C 0.06726 0.51537 0.29904 0.0
C9 C 0.05056 0.57628 0.2919 0.0
C10 C 0.98337 0.46038 0.2128 0.0
C11 C 0.96742 0.46709 0.21941 0.0
C12 C 0.96772 0.46756 0.24765 0.0
C13 C 0.96882 0.48721 0.25093 0.0
C14 C 0.97858 0.49839 0.26479 0.0
C15 C 0.98745 0.4897 0.2755 0.0
C16 C 0.98549 0.4694 0.27248 0.0
C17 C 0.97531 0.45841 0.25863 0.0
C18 C 0.97994 0.51975 0.26782 0.0
C19 C 0.99484 0.45973 0.28361 0.0
C20 C 0.89763 0.44177 0.35686 0.0
C21 C 0.90151 0.46143 0.35061 0.0
C22 C 0.92308 0.47869 0.34895 0.0
C23 C 0.94105 0.47598 0.35328 0.0
C24 C 0.93706 0.45645 0.36019 0.0
C25 C 0.91533 0.4397 0.36211 0.0
C26 C 0.92667 0.49963 0.34223 0.0
C27 C 0.95576 0.45301 0.36511 0.0
C28 C 0.09583 0.61065 0.39727 0.0
C29 C 0.08202 0.58674 0.40125 0.0
C30 C 0.04371 0.56538 0.39342 0.0
C31 C 0.0279 0.56931 0.38673 0.0
C32 C 0.01234 0.55465 0.37612 0.0
C33 C 0.0124 0.53542 0.37251 0.0
C34 C 0.02713 0.53052 0.38036 0.0
C35 C 0.04277 0.54565 0.39069 0.0
C36 C 0.99666 0.56022 0.36814 0.0
C37 C 0.02706 0.50978 0.37725 0.0
C38 C 0.03565 0.53085 0.2989 0.0
C39 C 0.02238 0.51789 0.28671 0.0
C40 C 0.00029 0.50264 0.28915 0.0
C41 C 0.99103 0.50009 0.30419 0.0
C42 C 0.96899 0.48462 0.30711 0.0
C43 C 0.96014 0.48206 0.32201 0.0
C44 C 0.97286 0.49523 0.3345 0.0
C45 C 0.96395 0.49292 0.34967 0.0
C46 C 0.97709 0.50628 0.3618 0.0
C47 C -0.00093 0.52184 0.35923 0.0
C48 C 0.00829 0.5243 0.34416 0.0
C49 C 0.03042 0.53971 0.34121 0.0
C50 C 0.03947 0.54177 0.32644 0.0
C51 C 0.02664 0.52881 0.31397 0.0
C52 C 0.00425 0.51332 0.31662 0.0
C53 C 0.9951 0.51099 0.33176 0.0
C54 C 0.84833 0.39489 0.34451 0.0
C55 C 0.85994 0.41912 0.34757 0.0
O56 O 0.12416 0.58795 0.28205 0.0
O57 O 0.06004 0.58112 0.40207 0.0
O58 O 0.87709 0.42446 0.35797 0.0
O59 O 0.95983 0.45739 0.2338 0.0
H60 H 0.14152 0.5724 0.28607 0.0
H61 H 0.11826 0.55638 0.26201 0.0
H62 H 0.13225 0.58219 0.2525 0.0
H63 H 0.14696 0.56824 0.25742 0.0
H64 H 0.10748 0.54632 0.29027 0.0
H65 H 0.09403 0.59812 0.28477 0.0
H66 H 0.0557 0.50454 0.28996 0.0
H67 H 0.08143 0.51253 0.29977 0.0
H68 H 0.05842 0.51094 0.31037 0.0
H69 H 0.0585 0.59332 0.28809 0.0
H70 H 0.03637 0.56638 0.28408 0.0
H71 H 0.04399 0.57509 0.30386 0.0
H72 H 0.97679 0.48495 0.22062 0.0
H73 H 0.98961 0.46798 0.20123 0.0
H74 H -0.00236 0.46572 0.22082 0.0
H75 H 0.97514 0.44261 0.2115 0.0
H76 H 0.96227 0.49388 0.24256 0.0
H77 H 0.9741 0.44308 0.256 0.0
H78 H 0.9974 0.5328 0.26724 0.0
H79 H 0.97027 0.52322 0.2592 0.0
H80 H 0.97385 0.52001 0.27974 0.0
H81 H 0.9921 0.44387 0.2795 0.0
H82 H 0.01281 0.47081 0.28506 0.0
H83 H 0.98716 0.45763 0.29528 0.0
H84 H 0.86647 0.42721 0.33613 0.0
H85 H 0.88775 0.4633 0.34703 0.0
H86 H 0.91207 0.42455 0.36717 0.0
H87 H 0.93289 0.50136 0.3301 0.0
H88 H 0.91124 0.50041 0.34196 0.0
H89 H 0.93924 0.51345 0.34914 0.0
H90 H 0.94988 0.43642 0.36941 0.0
H91 H 0.96707 0.45618 0.35513 0.0
H92 H 0.96537 0.46454 0.37456 0.0
H93 H 0.08472 0.5779 0.39157 0.0
H94 H 0.11354 0.61553 0.39663 0.0
H95 H 0.09067 0.61373 0.38574 0.0
H96 H 0.09362 0.62069 0.40619 0.0
H97 H 0.02856 0.58445 0.38919 0.0
H98 H 0.05453 0.5423 0.39638 0.0
H99 H -0.00013 0.5618 0.35538 0.0
H100 H 0.97945 0.54707 0.36988 0.0
H101 H -0.00175 0.57549 0.3726 0.0
H102 H 0.03707 0.5069 0.38595 0.0
H103 H 0.00996 0.49597 0.37742 0.0
H104 H 0.03391 0.5104 0.36546 0.0
H105 H 0.0294 0.51961 0.27516 0.0
H106 H 0.95837 0.47418 0.29793 0.0
H107 H 0.94316 0.46966 0.32357 0.0
H108 H 0.9702 0.50441 0.37341 0.0
H109 H 0.04109 0.55032 0.35029 0.0
H110 H 0.05663 0.55375 0.32491 0.0
H111 H 0.84137 0.38581 0.35551 0.0
H112 H 0.83483 0.39013 0.33586 0.0
H113 H 0.86024 0.39046 0.33972 0.0
C114 C 0.43362 0.88773 0.55697 0.0
C115 C 0.42735 0.87622 0.54109 0.0
C116 C 0.43655 0.90765 0.52471 0.0
C117 C 0.45936 0.91572 0.52377 0.0
C118 C 0.47358 0.93682 0.51873 0.0
C119 C 0.46488 0.95023 0.51474 0.0
C120 C 0.44185 0.94193 0.51519 0.0
C121 C 0.42797 0.92058 0.51991 0.0
C122 C 0.49801 0.94499 0.51809 0.0
C123 C 0.43195 0.95582 0.51127 0.0
C124 C 0.52756 0.08071 0.59932 0.0
C125 C 0.51537 0.06543 0.58646 0.0
C126 C 0.52148 0.04657 0.56506 0.0
C127 C 0.50187 0.04157 0.55717 0.0
C128 C 0.49601 0.02963 0.54329 0.0
C129 C 0.50989 0.02236 0.53722 0.0
C130 C 0.52963 0.02735 0.54507 0.0
C131 C 0.53523 0.03953 0.5589 0.0
C132 C 0.47483 0.0246 0.53516 0.0
C133 C 0.54469 0.01971 0.53888 0.0
C134 C 0.56338 0.11388 0.4583 0.0
C135 C 0.54082 0.10512 0.46124 0.0
C136 C 0.52682 0.08277 0.46207 0.0
C137 C 0.53561 0.06896 0.4599 0.0
C138 C 0.55812 0.07775 0.45614 0.0
C139 C 0.57169 0.10017 0.45523 0.0
C140 C 0.50276 0.07391 0.46562 0.0
C141 C 0.56794 0.06348 0.45357 0.0
C142 C 0.40943 0.91553 0.40951 0.0
C143 C 0.43445 0.92924 0.40814 0.0
C144 C 0.45559 0.96678 0.41576 0.0
C145 C 0.45089 0.9821 0.42179 0.0
C146 C 0.4649 0.99728 0.43279 0.0
C147 C 0.48437 0.99742 0.43741 0.0
C148 C 0.49029 0.98335 0.43008 0.0
C149 C 0.47563 0.96791 0.41945 0.0
C150 C 0.45831 0.01242 0.44006 0.0
C151 C 0.51147 0.98382 0.43411 0.0
C152 C 0.48003 0.97344 0.51168 0.0
C153 C 0.48931 0.98686 0.52463 0.0
C154 C 0.5032 0.00897 0.5229 0.0
C155 C 0.50859 0.01809 0.50783 0.0
C156 C 0.52291 0.04025 0.50571 0.0
C157 C 0.52754 0.04918 0.49083 0.0
C158 C 0.51771 0.03636 0.47753 0.0
C159 C 0.52151 0.04545 0.46241 0.0
C160 C 0.5111 0.03232 0.44947 0.0
C161 C 0.49682 0.01022 0.45123 0.0
C162 C 0.4931 0.00076 0.46623 0.0
C163 C 0.47893 0.97852 0.46841 0.0
C164 C 0.4751 0.96944 0.48322 0.0
C165 C 0.48468 0.98231 0.49649 0.0
C166 C 0.49906 0.00474 0.49457 0.0
C167 C 0.50346 0.01393 0.47941 0.0
C168 C 0.59788 0.15983 0.47881 0.0
C169 C 0.57696 0.14995 0.46883 0.0
O170 O 0.42237 0.88779 0.53048 0.0
O171 O 0.44016 0.95067 0.40686 0.0
O172 O 0.57751 0.13544 0.45837 0.0
O173 O 0.52762 0.05811 0.57857 0.0
H174 H 0.4413 0.87454 0.53663 0.0
H175 H 0.44866 0.90375 0.5559 0.0
H176 H 0.42005 0.89 0.56146 0.0
H177 H 0.4371 0.87824 0.56558 0.0
H178 H 0.46627 0.90578 0.52708 0.0
H179 H 0.41034 0.91415 0.52053 0.0
H180 H 0.50632 0.9567 0.52772 0.0
H181 H 0.50187 0.93181 0.51929 0.0
H182 H 0.50493 0.9535 0.5069 0.0
H183 H 0.41389 0.94734 0.51322 0.0
H184 H 0.43975 0.97068 0.51849 0.0
H185 H 0.43518 0.96076 0.49884 0.0
H186 H 0.49854 0.05222 0.58953 0.0
H187 H 0.5185 0.07213 0.61022 0.0
H188 H 0.54245 0.07911 0.60189 0.0
H189 H 0.52988 0.10966 0.59186 0.0
H190 H 0.49102 0.04688 0.56177 0.0
H191 H 0.55032 0.04348 0.56504 0.0
H192 H 0.47825 0.0303 0.52289 0.0
H193 H 0.46357 0.00693 0.53487 0.0
H194 H 0.46629 0.03219 0.54105 0.0
H195 H 0.55952 0.02502 0.54633 0.0
H196 H 0.53564 0.00186 0.53819 0.0
H197 H 0.55001 0.02592 0.52687 0.0
H198 H 0.56297 0.1417 0.47711 0.0
H199 H 0.53415 0.11572 0.46291 0.0
H200 H 0.58906 0.10713 0.45269 0.0
H201 H 0.49896 0.06619 0.4773 0.0
H202 H 0.49811 0.08662 0.46558 0.0
H203 H 0.49246 0.06138 0.45693 0.0
H204 H 0.58573 0.07282 0.45067 0.0
H205 H 0.56584 0.0539 0.46426 0.0
H206 H 0.5591 0.05198 0.44392 0.0
H207 H 0.4415 0.92658 0.41904 0.0
H208 H 0.40441 0.89825 0.4107 0.0
H209 H 0.40377 0.92046 0.42003 0.0
H210 H 0.40122 0.91758 0.39907 0.0
H211 H 0.43556 0.9813 0.41854 0.0
H212 H 0.47958 0.95646 0.41427 0.0
H213 H 0.45725 0.01044 0.45295 0.0
H214 H 0.47105 0.02929 0.43753 0.0
H215 H 0.44223 0.00968 0.43559 0.0
H216 H 0.51571 0.97509 0.4253 0.0
H217 H 0.52524 0.00067 0.43499 0.0
H218 H 0.50974 0.97608 0.44563 0.0
H219 H 0.48515 0.98007 0.53628 0.0
H220 H 0.53069 0.05094 0.51553 0.0
H221 H 0.5387 0.06634 0.48993 0.0
H222 H 0.5137 0.03946 0.43795 0.0
H223 H 0.47057 0.96781 0.45872 0.0
H224 H 0.46418 0.95224 0.48417 0.0
H225 H 0.5979 0.17167 0.4872 0.0
H226 H 0.59862 0.14699 0.48555 0.0
H227 H 0.61281 0.168 0.47138 0.0
C228 C 0.55886 0.44638 0.71842 0.0
C229 C 0.56157 0.4382 0.70248 0.0
C230 C 0.53774 0.44726 0.68725 0.0
C231 C 0.55337 0.46865 0.68362 0.0
C232 C 0.54674 0.48316 0.67863 0.0
C233 C 0.52404 0.47627 0.67748 0.0
C234 C 0.50827 0.45456 0.68063 0.0
C235 C 0.51539 0.44024 0.6852 0.0
C236 C 0.56404 0.50605 0.67497 0.0
C237 C 0.48392 0.44668 0.67972 0.0
C238 C 0.55004 0.57266 0.76179 0.0
C239 C 0.52737 0.5622 0.754 0.0
C240 C 0.52381 0.55981 0.7258 0.0
C241 C 0.50427 0.54001 0.72432 0.0
C242 C 0.49974 0.52772 0.71063 0.0
C243 C 0.51519 0.53535 0.69829 0.0
C244 C 0.5345 0.55574 0.69956 0.0
C245 C 0.53834 0.56791 0.71324 0.0
C246 C 0.47874 0.50632 0.70951 0.0
C247 C 0.55151 0.56429 0.68675 0.0
C248 C 0.46399 0.58001 0.62251 0.0
C249 C 0.44855 0.559 0.62709 0.0
C250 C 0.45409 0.54272 0.62722 0.0
C251 C 0.47556 0.54765 0.62284 0.0
C252 C 0.4907 0.5685 0.61736 0.0
C253 C 0.48458 0.58437 0.6171 0.0
C254 C 0.43728 0.52045 0.63258 0.0
C255 C 0.51363 0.57423 0.61245 0.0
C256 C 0.49156 0.4165 0.57807 0.0
C257 C 0.50442 0.43954 0.5719 0.0
C258 C 0.48956 0.4624 0.5789 0.0
C259 C 0.46962 0.45803 0.58559 0.0
C260 C 0.4689 0.47196 0.59681 0.0
C261 C 0.48858 0.49088 0.60104 0.0
C262 C 0.50845 0.49625 0.59324 0.0
C263 C 0.50876 0.48183 0.58231 0.0
C264 C 0.44738 0.46591 0.60473 0.0
C265 C 0.52956 0.51671 0.597 0.0
C266 C 0.51693 0.49222 0.67433 0.0
C267 C 0.51801 0.50542 0.68671 0.0
C268 C 0.51217 0.52124 0.68473 0.0
C269 C 0.50456 0.52379 0.67005 0.0
C270 C 0.49805 0.53919 0.66775 0.0
C271 C 0.49096 0.54185 0.65317 0.0
C272 C 0.48999 0.5291 0.64034 0.0
C273 C 0.48281 0.53169 0.62545 0.0
C274 C 0.48246 0.51906 0.61287 0.0
C275 C 0.48893 0.50365 0.61479 0.0
C276 C 0.49577 0.50055 0.62966 0.0
C277 C 0.50206 0.48495 0.63205 0.0
C278 C 0.50908 0.48224 0.64663 0.0
C279 C 0.50985 0.49485 0.65945 0.0
C280 C 0.50354 0.51063 0.65733 0.0
C281 C 0.4964 0.51341 0.64243 0.0
C282 C 0.45757 0.62158 0.64043 0.0
C283 C 0.44632 0.59839 0.63444 0.0
O284 O 0.54351 0.43312 0.69303 0.0
O285 O 0.49009 0.44735 0.56963 0.0
O286 O 0.45973 0.59648 0.62343 0.0
O287 O 0.52932 0.57114 0.73935 0.0
H288 H 0.57681 0.45086 0.69684 0.0
H289 H 0.55809 0.46138 0.71701 0.0
H290 H 0.54347 0.43411 0.72416 0.0
H291 H 0.57308 0.45007 0.72613 0.0
H292 H 0.57075 0.4742 0.68468 0.0
H293 H 0.50347 0.42366 0.68788 0.0
H294 H 0.56436 0.51684 0.6844 0.0
H295 H 0.58073 0.50799 0.674 0.0
H296 H 0.56002 0.51132 0.66387 0.0
H297 H 0.47381 0.42963 0.6834 0.0
H298 H 0.47982 0.4568 0.68725 0.0
H299 H 0.47936 0.44815 0.66756 0.0
H300 H 0.52177 0.54471 0.75304 0.0
H301 H 0.54884 0.56578 0.77361 0.0
H302 H 0.56139 0.56954 0.75467 0.0
H303 H 0.55713 0.59035 0.76285 0.0
H304 H 0.49272 0.5341 0.73393 0.0
H305 H 0.55325 0.58334 0.71451 0.0
H306 H 0.4705 0.50487 0.69811 0.0
H307 H 0.48268 0.49316 0.71013 0.0
H308 H 0.46709 0.50407 0.71907 0.0
H309 H 0.56622 0.57986 0.68996 0.0
H310 H 0.55686 0.55246 0.68403 0.0
H311 H 0.5442 0.56665 0.67596 0.0
H312 H 0.44436 0.5882 0.64481 0.0
H313 H 0.43227 0.55534 0.63074 0.0
H314 H 0.49622 0.60056 0.61333 0.0
H315 H 0.44215 0.51735 0.6442 0.0
H316 H 0.42055 0.51844 0.63353 0.0
H317 H 0.43666 0.50817 0.62435 0.0
H318 H 0.52339 0.59111 0.60832 0.0
H319 H 0.5224 0.57198 0.62244 0.0
H320 H 0.51276 0.5633 0.60293 0.0
H321 H 0.51699 0.44915 0.58096 0.0
H322 H 0.50274 0.40989 0.57983 0.0
H323 H 0.48398 0.41638 0.58948 0.0
H324 H 0.47824 0.40594 0.56982 0.0
H325 H 0.45485 0.44311 0.58263 0.0
H326 H 0.52404 0.48543 0.57666 0.0
H327 H 0.44884 0.46386 0.61745 0.0
H328 H 0.44352 0.47905 0.60327 0.0
H329 H 0.4335 0.45079 0.59996 0.0
H330 H 0.54258 0.52023 0.58822 0.0
H331 H 0.52662 0.53053 0.59759 0.0
H332 H 0.53568 0.51514 0.60862 0.0
H333 H 0.52382 0.50355 0.69804 0.0
H334 H 0.49841 0.54941 0.6772 0.0
H335 H 0.48632 0.55409 0.65211 0.0
H336 H 0.47711 0.52126 0.60147 0.0
H337 H 0.50168 0.47464 0.62267 0.0
H338 H 0.51389 0.47011 0.64775 0.0
H339 H 0.44704 0.6235 0.64924 0.0
H340 H 0.47348 0.6257 0.64607 0.0
H341 H 0.4609 0.63303 0.6307 0.0
C342 C 0.11188 0.53647 0.89554 0.0
C343 C 0.12307 0.54341 0.87957 0.0
C344 C 0.0923 0.52146 0.86218 0.0
C345 C 0.0869 0.5369 0.85725 0.0
C346 C 0.06585 0.53064 0.85146 0.0
C347 C 0.04994 0.50852 0.85063 0.0
C348 C 0.05566 0.4929 0.85489 0.0
C349 C 0.07696 0.49962 0.86044 0.0
C350 C 0.06041 0.54767 0.8466 0.0
C351 C 0.03906 0.46919 0.85408 0.0
C352 C 0.98017 0.52596 0.93619 0.0
C353 C 0.96807 0.50522 0.92663 0.0
C354 C 0.96502 0.50489 0.8984 0.0
C355 C 0.96423 0.48535 0.89516 0.0
C356 C 0.97128 0.48189 0.88069 0.0
C357 C 0.97955 0.49845 0.86937 0.0
C358 C 0.97906 0.51764 0.87229 0.0
C359 C 0.97136 0.52042 0.88673 0.0
C360 C 0.97097 0.46099 0.87781 0.0
C361 C 0.98796 0.53576 0.8606 0.0
C362 C 0.89321 0.46755 0.78728 0.0
C363 C 0.89612 0.45064 0.79261 0.0
C364 C 0.91727 0.45324 0.79387 0.0
C365 C 0.93583 0.47338 0.7902 0.0
C366 C 0.93282 0.49007 0.78411 0.0
C367 C 0.91144 0.48675 0.78249 0.0
C368 C 0.91979 0.43472 0.79964 0.0
C369 C 0.95219 0.51167 0.77989 0.0
C370 C 0.08955 0.48937 0.74624 0.0
C371 C 0.07657 0.50052 0.74184 0.0
C372 C 0.03847 0.48476 0.75038 0.0
C373 C 0.02209 0.46494 0.75603 0.0
C374 C 0.00649 0.46375 0.76681 0.0
C375 C 0.0071 0.48288 0.77171 0.0
C376 C 0.02258 0.50282 0.76505 0.0
C377 C 0.0382 0.50357 0.75446 0.0
C378 C 0.99003 0.44221 0.77353 0.0
C379 C 0.02319 0.52344 0.76959 0.0
C380 C 0.02689 0.50193 0.84662 0.0
C381 C 0.01356 0.50198 0.85864 0.0
C382 C 0.99197 0.49715 0.85582 0.0
C383 C 0.98326 0.49199 0.84052 0.0
C384 C 0.96167 0.48721 0.83721 0.0
C385 C 0.95351 0.48272 0.82201 0.0
C386 C 0.96646 0.48233 0.80959 0.0
C387 C 0.95829 0.47767 0.79409 0.0
C388 C 0.97172 0.47771 0.78201 0.0
C389 C 0.99327 0.48239 0.78498 0.0
C390 C 0.00167 0.48691 0.8004 0.0
C391 C 0.02327 0.49156 0.80379 0.0
C392 C 0.03158 0.49648 0.81891 0.0
C393 C 0.01854 0.49671 0.83126 0.0
C394 C 0.99664 0.49178 0.82818 0.0
C395 C 0.98822 0.48691 0.81272 0.0
C396 C 0.84349 0.46636 0.79976 0.0
C397 C 0.85604 0.4543 0.79708 0.0
O398 O 0.11206 0.52704 0.86875 0.0
O399 O 0.05437 0.48522 0.74112 0.0
O400 O 0.87314 0.466 0.78679 0.0
O401 O 0.96062 0.50951 0.91284 0.0
H402 H 0.1229 0.55817 0.87592 0.0
H403 H 0.09478 0.53351 0.89479 0.0
H404 H 0.1113 0.52144 0.89948 0.0
H405 H 0.12094 0.54932 0.90436 0.0
H406 H 0.09901 0.55383 0.85784 0.0
H407 H 0.08146 0.48786 0.86405 0.0
H408 H 0.04822 0.54772 0.85484 0.0
H409 H 0.07517 0.56402 0.84648 0.0
H410 H 0.05283 0.54399 0.83479 0.0
H411 H 0.04624 0.45906 0.85751 0.0
H412 H 0.02502 0.46551 0.86193 0.0
H413 H 0.03241 0.46478 0.84203 0.0
H414 H 0.98029 0.49996 0.92416 0.0
H415 H 0.98642 0.52296 0.94729 0.0
H416 H 0.99442 0.53827 0.92946 0.0
H417 H 0.96908 0.53243 0.93893 0.0
H418 H 0.9586 0.47305 0.90409 0.0
H419 H 0.97157 0.53531 0.88934 0.0
H420 H 0.965 0.455 0.8658 0.0
H421 H 0.98797 0.46374 0.87885 0.0
H422 H 0.96039 0.4484 0.88634 0.0
H423 H 0.98673 0.54978 0.8648 0.0
H424 H 0.0055 0.54115 0.85812 0.0
H425 H 0.97875 0.53003 0.84944 0.0
H426 H 0.86282 0.45323 0.80863 0.0
H427 H 0.88196 0.43546 0.79586 0.0
H428 H 0.90892 0.49954 0.77813 0.0
H429 H 0.9254 0.43767 0.81199 0.0
H430 H 0.90404 0.4192 0.79903 0.0
H431 H 0.93239 0.43333 0.7927 0.0
H432 H 0.94705 0.52329 0.77605 0.0
H433 H 0.9634 0.51856 0.79009 0.0
H434 H 0.96164 0.50963 0.77031 0.0
H435 H 0.07984 0.51263 0.75115 0.0
H436 H 0.10741 0.5013 0.74707 0.0
H437 H 0.08397 0.48144 0.75778 0.0
H438 H 0.08701 0.47694 0.73742 0.0
H439 H 0.02222 0.45048 0.75251 0.0
H440 H 0.05031 0.51883 0.74953 0.0
H441 H 0.99265 0.44227 0.78633 0.0
H442 H 0.97307 0.43928 0.77166 0.0
H443 H 0.99134 0.42876 0.76821 0.0
H444 H 0.03408 0.53702 0.76184 0.0
H445 H 0.00636 0.52124 0.76921 0.0
H446 H 0.02934 0.52777 0.78176 0.0
H447 H 0.02024 0.50622 0.87039 0.0
H448 H 0.95094 0.48712 0.84632 0.0
H449 H 0.93688 0.47953 0.82017 0.0
H450 H 0.96541 0.47429 0.77015 0.0
H451 H 0.03408 0.49155 0.79478 0.0
H452 H 0.04835 0.5001 0.82081 0.0
H453 H 0.83638 0.46809 0.78861 0.0
H454 H 0.83 0.45763 0.8083 0.0
H455 H 0.85484 0.48266 0.80451 0.0
C456 C 0.44923 0.89004 0.91714 0.0
C457 C 0.44297 0.87877 0.93306 0.0
C458 C 0.46342 0.91078 0.94961 0.0
C459 C 0.44762 0.91735 0.95022 0.0
C460 C 0.45335 0.9381 0.95535 0.0
C461 C 0.47539 0.95271 0.95966 0.0
C462 C 0.49127 0.94601 0.95925 0.0
C463 C 0.4849 0.92495 0.95455 0.0
C464 C 0.4359 0.94455 0.9559 0.0
C465 C 0.51507 0.96122 0.96336 0.0
C466 C 0.54089 0.08462 0.87825 0.0
C467 C 0.53818 0.07094 0.89198 0.0
C468 C 0.51256 0.05114 0.91287 0.0
C469 C 0.52786 0.04794 0.92139 0.0
C470 C 0.52152 0.03515 0.93481 0.0
C471 C 0.49942 0.02533 0.93988 0.0
C472 C 0.48402 0.02873 0.93153 0.0
C473 C 0.49085 0.04171 0.91813 0.0
C474 C 0.53843 0.03193 0.94349 0.0
C475 C 0.46038 0.0185 0.93672 0.0
C476 C 0.5279 0.10997 0.02339 0.0
C477 C 0.54381 0.10504 0.01809 0.0
C478 C 0.53852 0.08357 0.01596 0.0
C479 C 0.51678 0.0668 0.01891 0.0
C480 C 0.50098 0.07176 0.02478 0.0
C481 C 0.50688 0.09333 0.02714 0.0
C482 C 0.55603 0.07883 0.01031 0.0
C483 C 0.47773 0.0543 0.02821 0.0
C484 C 0.49618 0.91517 0.05897 0.0
C485 C 0.48748 0.92875 0.06661 0.0
C486 C 0.50418 0.96605 0.05855 0.0
C487 C 0.5235 0.98058 0.0509 0.0
C488 C 0.52369 0.99571 0.04048 0.0
C489 C 0.50413 0.99646 0.03797 0.0
C490 C 0.48507 0.98305 0.04675 0.0
C491 C 0.48528 0.96791 0.05698 0.0
C492 C 0.54443 0.0101 0.03152 0.0
C493 C 0.46421 0.98403 0.04474 0.0
C494 C 0.48207 0.97536 0.96353 0.0
C495 C 0.48544 0.98926 0.9511 0.0
C496 C 0.49258 0.01099 0.95366 0.0
C497 C 0.49583 0.01913 0.96905 0.0
C498 C 0.50217 0.04073 0.97204 0.0
C499 C 0.5063 0.04883 0.9872 0.0
C500 C 0.5049 0.03579 -0.0001 0.0
C501 C 0.51026 0.04415 0.01528 0.0
C502 C 0.50948 0.03092 0.02752 0.0
C503 C 0.50297 0.00932 0.02488 0.0
C504 C 0.49666 0.00044 0.00972 0.0
C505 C 0.48923 0.97854 0.00679 0.0
C506 C 0.48373 0.97012 0.99176 0.0
C507 C 0.48615 0.9834 0.979 0.0
C508 C 0.49313 0.0054 0.98174 0.0
C509 C 0.49808 0.01385 -0.00285 0.0
C510 C 0.53736 0.16242 0.013 0.0
C511 C 0.54722 0.14806 0.01643 0.0
O512 O 0.45876 0.89113 0.94415 0.0
O513 O 0.50411 0.95008 0.06702 0.0
O514 O 0.53217 0.13052 0.02503 0.0
O515 O 0.51816 0.063 0.89955 0.0
H516 H 0.42667 0.87633 0.93667 0.0
H517 H 0.44994 0.90583 0.91781 0.0
H518 H 0.46558 0.89274 0.9134 0.0
H519 H 0.43677 0.88018 0.90815 0.0
H520 H 0.4308 0.90643 0.94676 0.0
H521 H 0.49693 0.91967 0.95412 0.0
H522 H 0.43898 0.95634 0.94648 0.0
H523 H 0.41907 0.93057 0.95431 0.0
H524 H 0.43665 0.95247 0.96722 0.0
H525 H 0.52579 0.95439 0.96047 0.0
H526 H 0.52123 0.97669 0.95707 0.0
H527 H 0.51656 0.96478 0.97606 0.0
H528 H 0.54281 0.05833 0.88992 0.0
H529 H 0.54204 0.07543 0.86797 0.0
H530 H 0.52397 0.08165 0.87512 0.0
H531 H 0.5668 0.11503 0.88488 0.0
H532 H 0.5448 0.05528 0.91763 0.0
H533 H 0.47917 0.04433 0.91155 0.0
H534 H 0.53993 0.03775 0.9557 0.0
H535 H 0.53304 0.01452 0.94396 0.0
H536 H 0.55492 0.04056 0.93794 0.0
H537 H 0.45058 0.02332 0.92929 0.0
H538 H 0.45273 0.00072 0.93633 0.0
H539 H 0.45969 0.0231 0.94901 0.0
H540 H 0.55012 0.14262 0.00493 0.0
H541 H 0.56035 0.11789 0.01565 0.0
H542 H 0.49485 0.09735 0.03145 0.0
H543 H 0.55236 0.07281 -0.0019 0.0
H544 H 0.5727 0.09332 0.01063 0.0
H545 H 0.55611 0.06605 0.01756 0.0
H546 H 0.46713 0.0609 0.03201 0.0
H547 H 0.47032 0.04419 0.01765 0.0
H548 H 0.47791 0.04369 0.03756 0.0
H549 H 0.47346 0.92665 0.0592 0.0
H550 H 0.48318 0.89792 0.0588 0.0
H551 H 0.50106 0.9205 0.04673 0.0
H552 H 0.5108 0.9169 0.06533 0.0
H553 H 0.53811 0.97926 0.0525 0.0
H554 H 0.47059 0.95724 0.06349 0.0
H555 H 0.54162 0.00606 0.01889 0.0
H556 H 0.54874 0.02716 0.03286 0.0
H557 H 0.55859 0.00843 0.03549 0.0
H558 H 0.45162 0.97426 0.05361 0.0
H559 H 0.46788 0.00096 0.04555 0.0
H560 H 0.45723 0.97793 0.03295 0.0
H561 H 0.48323 0.98323 0.93921 0.0
H562 H 0.50397 0.0516 0.96266 0.0
H563 H 0.51105 0.06557 0.98878 0.0
H564 H 0.51416 0.03754 0.03922 0.0
H565 H 0.48755 0.96762 0.01609 0.0
H566 H 0.47804 0.95315 0.99021 0.0
H567 H 0.53398 0.16841 0.02404 0.0
H568 H 0.54882 0.1764 0.00575 0.0
H569 H 0.52166 0.15313 0.00646 0.0
C570 C 0.5921 0.47875 0.09247 0.0
C571 C 0.58748 0.46179 0.10506 0.0
C572 C 0.57385 0.4764 0.12476 0.0
C573 C 0.55111 0.46217 0.12435 0.0
C574 C 0.53635 0.46916 0.12849 0.0
C575 C 0.54461 0.49092 0.13283 0.0
C576 C 0.56764 0.50517 0.13356 0.0
C577 C 0.58198 0.49753 0.12984 0.0
C578 C 0.51195 0.45343 0.12789 0.0
C579 C 0.57714 0.52862 0.13774 0.0
C580 C 0.49025 0.56176 0.04492 0.0
C581 C 0.50081 0.55811 0.05872 0.0
C582 C 0.49204 0.53346 0.08061 0.0
C583 C 0.51108 0.5473 0.08918 0.0
C584 C 0.51572 0.54079 0.1034 0.0
C585 C 0.50116 0.51994 0.10913 0.0
C586 C 0.4819 0.506 0.10065 0.0
C587 C 0.47752 0.51303 0.0865 0.0
C588 C 0.53642 0.5561 0.1122 0.0
C589 C 0.46614 0.48366 0.10646 0.0
C590 C 0.44466 0.55852 0.18532 0.0
C591 C 0.4674 0.57204 0.18327 0.0
C592 C 0.48169 0.56366 0.18347 0.0
C593 C 0.47301 0.54133 0.18577 0.0
C594 C 0.45031 0.52794 0.18881 0.0
C595 C 0.43643 0.53679 0.18869 0.0
C596 C 0.50593 0.57851 0.18066 0.0
C597 C 0.4406 0.50413 0.19154 0.0
C598 C 0.59813 0.51213 0.23325 0.0
C599 C 0.57386 0.50062 0.23793 0.0
C600 C 0.55221 0.51716 0.2311 0.0
C601 C 0.55755 0.53701 0.22466 0.0
C602 C 0.54372 0.53863 0.21358 0.0
C603 C 0.52381 0.51997 0.2093 0.0
C604 C 0.51735 0.50026 0.21701 0.0
C605 C 0.53179 0.499 0.22773 0.0
C606 C 0.55094 0.56002 0.20585 0.0
C607 C 0.49581 0.48029 0.21323 0.0
C608 C 0.52918 0.4991 0.13544 0.0
C609 C 0.52052 0.50369 0.12226 0.0
C610 C 0.50687 0.51258 0.12364 0.0
C611 C 0.50107 0.51649 0.13858 0.0
C612 C 0.48695 0.52497 0.14036 0.0
C613 C 0.482 0.5295 0.15512 0.0
C614 C 0.49136 0.52618 0.16863 0.0
C615 C 0.4873 0.53174 0.18364 0.0
C616 C 0.49745 0.5289 0.19677 0.0
C617 C 0.51156 0.52049 0.19533 0.0
C618 C 0.51532 0.51425 0.18048 0.0
C619 C 0.52911 0.50535 0.17864 0.0
C620 C 0.53309 0.49971 0.16397 0.0
C621 C 0.52412 0.50349 0.15049 0.0
C622 C 0.51001 0.51223 0.15205 0.0
C623 C 0.50538 0.51736 0.16708 0.0
C624 C 0.41135 0.57361 0.16418 0.0
C625 C 0.43244 0.58188 0.17382 0.0
O626 O 0.58827 0.47035 0.11974 0.0
O627 O 0.56732 0.51576 0.24011 0.0
O628 O 0.43021 0.56579 0.18388 0.0
O629 O 0.48723 0.53922 0.06666 0.0
H630 H 0.57088 0.44761 0.10299 0.0
H631 H 0.57934 0.48359 0.09278 0.0
H632 H 0.60847 0.49326 0.09442 0.0
H633 H 0.59171 0.47219 0.08064 0.0
H634 H 0.54491 0.44564 0.12076 0.0
H635 H 0.59964 0.50829 0.13013 0.0
H636 H 0.50459 0.45743 0.11787 0.0
H637 H 0.50829 0.43656 0.12649 0.0
H638 H 0.5039 0.45465 0.1387 0.0
H639 H 0.59519 0.53806 0.13577 0.0
H640 H 0.56913 0.53583 0.13073 0.0
H641 H 0.57394 0.53011 0.15023 0.0
H642 H 0.5176 0.56051 0.05663 0.0
H643 H 0.49998 0.56125 0.03466 0.0
H644 H 0.47515 0.54589 0.04211 0.0
H645 H 0.48882 0.58942 0.05098 0.0
H646 H 0.52248 0.5632 0.08485 0.0
H647 H 0.46285 0.50248 0.07984 0.0
H648 H 0.53226 0.55825 0.12433 0.0
H649 H 0.54748 0.54922 0.1129 0.0
H650 H 0.54548 0.57213 0.10655 0.0
H651 H 0.45163 0.47492 0.09866 0.0
H652 H 0.47479 0.47428 0.10735 0.0
H653 H 0.46036 0.48459 0.11835 0.0
H654 H 0.44583 0.58582 0.16522 0.0
H655 H 0.47398 0.58909 0.18134 0.0
H656 H 0.4189 0.52659 0.19056 0.0
H657 H 0.51055 0.57462 0.16922 0.0
H658 H 0.5104 0.5957 0.18061 0.0
H659 H 0.51574 0.57611 0.1898 0.0
H660 H 0.42275 0.49603 0.19425 0.0
H661 H 0.44298 0.49653 0.18098 0.0
H662 H 0.44931 0.50145 0.20136 0.0
H663 H 0.56446 0.48943 0.22818 0.0
H664 H 0.60374 0.50029 0.2314 0.0
H665 H 0.60037 0.52101 0.22216 0.0
H666 H 0.60852 0.52382 0.24241 0.0
H667 H 0.57321 0.55098 0.22765 0.0
H668 H 0.52744 0.48379 0.23322 0.0
H669 H 0.55227 0.55855 0.19304 0.0
H670 H 0.53841 0.5649 0.20787 0.0
H671 H 0.56704 0.57292 0.21036 0.0
H672 H 0.49134 0.46758 0.22217 0.0
H673 H 0.48237 0.48416 0.21232 0.0
H674 H 0.49716 0.4738 0.20176 0.0
H675 H 0.52513 0.50102 0.11072 0.0
H676 H 0.47958 0.52818 0.13036 0.0
H677 H 0.47101 0.53599 0.15575 0.0
H678 H 0.49473 0.53373 0.20818 0.0
H679 H 0.53705 0.50262 0.18851 0.0
H680 H 0.54368 0.49278 0.16331 0.0
H681 H 0.41267 0.58635 0.15615 0.0
H682 H 0.40872 0.55956 0.15705 0.0
H683 H 0.39681 0.56847 0.17185 0.0
C684 C 0.67051 0.42801 0.39996 0.0
O685 O 0.67035 0.44437 0.40547 0.0
Cd686 Cd 0.63661 0.44236 0.41372 0.0
O687 O 0.65291 0.40978 0.3996 0.0
Cd688 Cd 0.61385 0.39225 0.40767 0.0
C689 C 0.60427 0.42065 0.38081 0.0
O690 O 0.61875 0.41297 0.43157 0.0
O691 O 0.58541 0.3936 0.42318 0.0
O692 O 0.62083 0.36473 0.41771 0.0
C693 C 0.59837 0.40577 0.43373 0.0
O694 O 0.61461 0.43645 0.39014 0.0
C695 C 0.60381 0.34878 0.41196 0.0
O696 O 0.60252 0.40244 0.38369 0.0
O697 O 0.59113 0.35291 0.4039 0.0
C698 C 0.24593 0.58071 0.57695 0.0
O699 O 0.22946 0.56393 0.57145 0.0
Cd700 Cd 0.19697 0.56414 0.56256 0.0
O701 O 0.24594 0.59846 0.57739 0.0
Cd702 Cd 0.2227 0.61399 0.56997 0.0
C703 C 0.18372 0.58224 0.59581 0.0
O704 O 0.20803 0.59421 0.54549 0.0
O705 O 0.19262 0.61175 0.55421 0.0
O706 O 0.25642 0.64412 0.56013 0.0
C707 C 0.1943 0.60059 0.54337 0.0
O708 O 0.1789 0.56722 0.58593 0.0
C709 C 0.25463 0.65869 0.56725 0.0
O710 O 0.20014 0.60098 0.59363 0.0
O711 O 0.23787 0.65252 0.57595 0.0
C712 C 0.67475 0.25456 0.74418 0.0
O713 O 0.67523 0.23827 0.73887 0.0
Cd714 Cd 0.64196 0.2069 0.73043 0.0
O715 O 0.65693 0.25521 0.74401 0.0
Cd716 Cd 0.61836 0.23424 0.73504 0.0
C717 C 0.60847 0.19699 0.76247 0.0
O718 O 0.6245 0.21838 0.71165 0.0
O719 O 0.59075 0.20544 0.71897 0.0
O720 O 0.6228 0.2674 0.72407 0.0
C721 C 0.6042 0.20592 0.70889 0.0
O722 O 0.61987 0.19162 0.75399 0.0
C723 C 0.6062 0.2664 0.73078 0.0
O724 O 0.60588 0.21273 0.75867 0.0
O725 O 0.59522 0.25042 0.73971 0.0
C726 C 0.34436 0.58565 0.90033 0.0
O727 O 0.3463 0.56953 0.904 0.0
Cd728 Cd 0.3803 0.57174 0.91107 0.0
O729 O 0.36109 0.60454 0.90026 0.0
Cd730 Cd 0.40114 0.62256 0.9056 0.0
C731 C 0.40985 0.59401 0.87756 0.0
O732 O 0.39772 0.60154 0.92865 0.0
O733 O 0.43094 0.62264 0.92073 0.0
O734 O 0.39975 0.65166 0.91905 0.0
C735 C 0.41819 0.60964 0.93096 0.0
O736 O 0.4002 0.57797 0.88669 0.0
C737 C 0.41244 0.66646 0.90981 0.0
O738 O 0.4118 0.61212 0.88118 0.0
O739 O 0.41994 0.66094 0.89828 0.0
C740 C 0.75777 0.41235 0.06978 0.0
O741 O 0.77434 0.42709 0.06272 0.0
Cd742 Cd 0.80543 0.42378 0.05591 0.0
O743 O 0.75622 0.39415 0.07242 0.0
Cd744 Cd 0.77578 0.37399 0.06645 0.0
C745 C 0.81547 0.40709 0.09155 0.0
O746 O 0.79005 0.39089 0.04169 0.0
O747 O 0.80418 0.37226 0.05018 0.0
O748 O 0.73996 0.34621 0.05806 0.0
C749 C 0.80293 0.38363 0.03934 0.0
O750 O 0.82075 0.42138 0.08103 0.0
C751 C 0.73989 0.33084 0.0654 0.0
O752 O 0.79908 0.38822 0.08966 0.0
O753 O 0.75683 0.33542 0.0736 0.0
C754 C 0.34949 0.77112 0.24802 0.0
O755 O 0.34996 0.78841 0.24411 0.0
Cd756 Cd 0.38265 0.81958 0.23506 0.0
O757 O 0.36676 0.76954 0.24702 0.0
Cd758 Cd 0.40568 0.79096 0.23857 0.0
C759 C 0.41727 0.82857 0.26631 0.0
O760 O 0.39846 0.80708 0.21599 0.0
O761 O 0.43266 0.81992 0.22202 0.0
O762 O 0.39952 0.75753 0.22713 0.0
C763 C 0.4185 0.81964 0.21267 0.0
O764 O 0.4064 0.83457 0.25782 0.0
C765 C 0.41664 0.75821 0.23268 0.0
O766 O 0.41863 0.81204 0.26267 0.0
O767 O 0.42888 0.77423 0.24133 0.0
H768 H 0.14926 0.62387 0.26867 0.0
H769 H 0.18546 0.6561 0.26546 0.0
H770 H 0.2169 0.6201 0.27909 0.0
H771 H 0.18074 0.58784 0.28254 0.0
H772 H 0.22337 0.67549 0.29002 0.0
H773 H 0.24068 0.64776 0.23376 0.0
H774 H 0.21303 0.63779 0.24088 0.0
H775 H 0.23029 0.62884 0.24964 0.0
C776 C 0.16387 0.62292 0.27126 0.0
C777 C 0.16219 0.60346 0.27623 0.0
C778 C 0.18449 0.64129 0.26937 0.0
C779 C 0.20372 0.64038 0.27207 0.0
C780 C 0.20216 0.62105 0.27698 0.0
H781 H 0.34178 0.73082 0.25536 0.0
H782 H 0.3067 0.69938 0.26245 0.0
C783 C 0.18157 0.60272 0.27901 0.0
C784 C 0.22547 0.65953 0.26935 0.0
H785 H 0.26871 0.68057 0.24405 0.0
C786 C 0.23333 0.67668 0.27999 0.0
C787 C 0.23832 0.66085 0.25627 0.0
C788 C 0.23022 0.64293 0.24438 0.0
C789 C 0.25398 0.69519 0.27794 0.0
C790 C 0.26675 0.69663 0.26474 0.0
C791 C 0.25888 0.67938 0.25416 0.0
C792 C 0.28818 0.71606 0.26147 0.0
C793 C 0.2621 0.71286 0.29003 0.0
C794 C 0.28935 0.73584 0.25857 0.0
C795 C 0.30935 0.75385 0.25451 0.0
C796 C 0.32855 0.75237 0.25319 0.0
C797 C 0.32734 0.73256 0.2563 0.0
C798 C 0.30731 0.71456 0.26033 0.0
H799 H 0.25328 0.70694 0.3013 0.0
H800 H 0.28003 0.71988 0.29215 0.0
H801 H 0.25923 0.72585 0.28577 0.0
H802 H 0.27468 0.73723 0.25909 0.0
H803 H 0.30967 0.76883 0.25215 0.0
H804 H 0.6015 0.17416 0.4439 0.0
H805 H 0.60172 0.20543 0.43219 0.0
H806 H 0.54861 0.19614 0.46248 0.0
H807 H 0.54869 0.16521 0.47447 0.0
H808 H 0.57 0.21231 0.41718 0.0
H809 H 0.59785 0.25676 0.47346 0.0
H810 H 0.59758 0.23183 0.47 0.0
H811 H 0.57245 0.23164 0.4745 0.0
C812 C 0.5897 0.17866 0.44789 0.0
C813 C 0.57516 0.16735 0.46014 0.0
C814 C 0.5898 0.19646 0.44119 0.0
C815 C 0.57541 0.20328 0.44664 0.0
C816 C 0.5601 0.19135 0.4583 0.0
H817 H 0.56533 0.31097 0.40643 0.0
H818 H 0.55681 0.27458 0.41387 0.0
C819 C 0.56009 0.17364 0.46507 0.0
C820 C 0.57756 0.22371 0.4409 0.0
H821 H 0.59146 0.27441 0.4527 0.0
C822 C 0.57459 0.22589 0.42492 0.0
C823 C 0.5838 0.24145 0.45104 0.0
C824 C 0.58831 0.24047 0.46818 0.0
C825 C 0.57789 0.24545 0.41878 0.0
C826 C 0.58402 0.26312 0.42895 0.0
C827 C 0.58667 0.26079 0.44494 0.0
C828 C 0.58922 0.28466 0.42327 0.0
C829 C 0.57551 0.24725 0.40142 0.0
C830 C 0.61017 0.30236 0.42616 0.0
C831 C 0.61496 0.32307 0.42213 0.0
C832 C 0.5989 0.32655 0.41507 0.0
C833 C 0.57806 0.30876 0.41178 0.0
C834 C 0.57321 0.28796 0.41595 0.0
H835 H 0.57555 0.23388 0.39488 0.0
H836 H 0.55966 0.24666 0.39902 0.0
H837 H 0.58899 0.26277 0.39692 0.0
H838 H 0.62276 0.30018 0.43179 0.0
H839 H 0.6312 0.33641 0.42476 0.0
H840 H 0.40545 0.57061 0.64626 0.0
H841 H 0.3695 0.56258 0.63603 0.0
H842 H 0.40137 0.60506 0.59716 0.0
H843 H 0.43727 0.61256 0.6071 0.0
H844 H 0.35517 0.59038 0.63245 0.0
H845 H 0.35269 0.55371 0.57506 0.0
H846 H 0.37251 0.5574 0.58998 0.0
H847 H 0.37711 0.57939 0.57744 0.0
C848 C 0.40471 0.5779 0.63538 0.0
C849 C 0.4241 0.5921 0.62741 0.0
C850 C 0.3842 0.57334 0.62956 0.0
C851 C 0.3827 0.58296 0.6157 0.0
C852 C 0.40205 0.59699 0.60764 0.0
H853 H 0.2841 0.61377 0.58879 0.0
H854 H 0.31606 0.61244 0.59859 0.0
C855 C 0.42255 0.6014 0.61338 0.0
C856 C 0.36112 0.57975 0.61037 0.0
H857 H 0.32731 0.56669 0.57858 0.0
C858 C 0.34896 0.58494 0.62073 0.0
C859 C 0.35284 0.57236 0.59516 0.0
C860 C 0.36436 0.56518 0.58383 0.0
C861 C 0.3292 0.58376 0.6161 0.0
C862 C 0.32165 0.57769 0.60058 0.0
C863 C 0.3333 0.57163 0.59041 0.0
C864 C 0.30216 0.57829 0.59456 0.0
C865 C 0.3166 0.58905 0.62787 0.0
C866 C 0.28395 0.55962 0.58863 0.0
C867 C 0.26564 0.56034 0.58289 0.0
C868 C 0.26529 0.57978 0.5829 0.0
C869 C 0.28372 0.59849 0.58869 0.0
C870 C 0.30198 0.59775 0.59439 0.0
H871 H 0.32076 0.58698 0.64003 0.0
H872 H 0.32096 0.6061 0.62645 0.0
H873 H 0.29856 0.57876 0.62615 0.0
H874 H 0.28385 0.54447 0.58856 0.0
H875 H 0.25176 0.54565 0.57848 0.0
H876 H 0.84545 0.44086 0.76638 0.0
H877 H 0.81771 0.4053 0.75687 0.0
H878 H 0.80283 0.3824 0.80431 0.0
H879 H 0.83117 0.41774 0.81384 0.0
H880 H 0.80242 0.35206 0.78458 0.0
H881 H 0.75299 0.38614 0.7602 0.0
H882 H 0.78027 0.39803 0.75232 0.0
H883 H 0.77649 0.40143 0.7727 0.0
C884 C 0.83657 0.42812 0.77475 0.0
C885 C 0.84057 0.43196 0.79086 0.0
C886 C 0.82061 0.40788 0.76932 0.0
C887 C 0.80797 0.39134 0.7799 0.0
C888 C 0.8124 0.39495 0.79594 0.0
H889 H 0.67761 0.28599 0.7635 0.0
H890 H 0.71081 0.3179 0.77266 0.0
C891 C 0.82852 0.4151 0.80137 0.0
C892 C 0.78925 0.3707 0.77438 0.0
H893 H 0.74012 0.34941 0.75518 0.0
C894 C 0.78878 0.35142 0.77813 0.0
C895 C 0.77133 0.36994 0.76621 0.0
C896 C 0.77011 0.38996 0.76274 0.0
C897 C 0.77081 0.33136 0.77392 0.0
C898 C 0.75313 0.33067 0.76543 0.0
C899 C 0.75374 0.34997 0.76162 0.0
C900 C 0.73332 0.31021 0.76087 0.0
C901 C 0.77063 0.31116 0.77904 0.0
C902 C 0.73492 0.2951 0.75134 0.0
C903 C 0.71589 0.27662 0.74625 0.0
C904 C 0.69498 0.27321 0.75035 0.0
C905 C 0.69348 0.28824 0.76004 0.0
C906 C 0.71244 0.30648 0.7653 0.0
H907 H 0.78213 0.31431 0.78894 0.0
H908 H 0.75387 0.29856 0.78261 0.0
H909 H 0.77592 0.30479 0.76916 0.0
H910 H 0.75081 0.29788 0.74747 0.0
H911 H 0.71754 0.26537 0.7387 0.0
H912 H 0.40863 0.84236 0.92086 0.0
H913 H 0.40512 0.80699 0.91718 0.0
H914 H 0.4689 0.83005 0.93841 0.0
H915 H 0.47307 0.86578 0.94122 0.0
H916 H 0.46524 0.8068 0.91412 0.0
H917 H 0.38948 0.76146 0.94895 0.0
H918 H 0.38535 0.77567 0.93334 0.0
H919 H 0.4048 0.79045 0.94866 0.0
C920 C 0.42181 0.8398 0.92485 0.0
C921 C 0.44083 0.85673 0.93169 0.0
C922 C 0.41974 0.81955 0.92284 0.0
C923 C 0.43645 0.81562 0.92795 0.0
C924 C 0.45565 0.83259 0.93455 0.0
H925 H 0.41143 0.68476 0.93734 0.0
H926 H 0.41951 0.72158 0.94194 0.0
C927 C 0.45793 0.853 0.93627 0.0
C928 C 0.43414 0.794 0.92599 0.0
H929 H 0.39916 0.74058 0.93246 0.0
C930 C 0.45089 0.79233 0.91827 0.0
C931 C 0.41562 0.77511 0.93165 0.0
C932 C 0.39794 0.77577 0.94126 0.0
C933 C 0.44943 0.77229 0.91578 0.0
C934 C 0.43028 0.75331 0.9206 0.0
C935 C 0.41374 0.75506 0.92857 0.0
C936 C 0.42703 0.73144 0.91779 0.0
C937 C 0.46868 0.77182 0.90835 0.0
C938 C 0.42869 0.72465 0.90269 0.0
C939 C 0.42457 0.70368 0.9001 0.0
C940 C 0.41806 0.68897 0.91249 0.0
C941 C 0.41632 0.69574 0.92755 0.0
C942 C 0.42092 0.71679 0.93019 0.0
H943 H 0.48427 0.78723 0.91024 0.0
H944 H 0.47074 0.75852 0.91306 0.0
H945 H 0.46591 0.7695 0.89556 0.0
H946 H 0.43269 0.73537 0.89282 0.0
H947 H 0.42582 0.69879 0.88834 0.0
H948 H 0.6243 0.47269 0.12367 0.0
H949 H 0.65206 0.4621 0.12003 0.0
H950 H 0.61752 0.42536 0.07917 0.0
H951 H 0.58881 0.43469 0.0834 0.0
H952 H 0.6326 0.40446 0.09486 0.0
H953 H 0.69996 0.48889 0.08886 0.0
H954 H 0.68668 0.4838 0.10748 0.0
H955 H 0.67149 0.48182 0.08997 0.0
C956 C 0.62236 0.46204 0.11406 0.0
C957 C 0.60422 0.45439 0.10383 0.0
C958 C 0.63844 0.45624 0.11188 0.0
C959 C 0.6372 0.44339 0.09909 0.0
C960 C 0.61889 0.43536 0.08909 0.0
H961 H 0.74666 0.4402 0.05682 0.0
H962 H 0.71678 0.44641 0.06445 0.0
C963 C 0.60254 0.44072 0.09148 0.0
C964 C 0.65512 0.43862 0.09586 0.0
H965 H 0.71039 0.46222 0.08957 0.0
C966 C 0.64962 0.41709 0.09366 0.0
C967 C 0.67728 0.45513 0.09408 0.0
C968 C 0.68419 0.4787 0.09506 0.0
C969 C 0.66558 0.41162 0.08956 0.0
C970 C 0.68784 0.42809 0.08826 0.0
C971 C 0.69336 0.44958 0.09068 0.0
C972 C 0.70559 0.42369 0.08359 0.0
C973 C 0.6582 0.38835 0.08606 0.0
C974 C 0.70935 0.40889 0.09182 0.0
C975 C 0.72614 0.40494 0.08722 0.0
C976 C 0.73987 0.41622 0.07462 0.0
C977 C 0.73639 0.43134 0.06662 0.0
C978 C 0.71932 0.4349 0.07098 0.0
H979 H 0.64043 0.37911 0.08301 0.0
H980 H 0.66772 0.38686 0.07627 0.0
H981 H 0.66073 0.38083 0.09658 0.0
H982 H 0.69946 0.40054 0.10189 0.0
H983 H 0.72864 0.39338 0.0937 0.0
H984 H 0.42787 0.83947 0.54834 0.0
H985 H 0.39663 0.80342 0.55316 0.0
H986 H 0.35164 0.82665 0.54414 0.0
H987 H 0.38282 0.86287 0.53952 0.0
H988 H 0.3604 0.79281 0.57643 0.0
H989 H 0.33314 0.77205 0.51455 0.0
H990 H 0.36082 0.79244 0.51974 0.0
H991 H 0.33861 0.79787 0.52177 0.0
C992 C 0.4113 0.83681 0.5472 0.0
C993 C 0.40779 0.85383 0.54311 0.0
C994 C 0.39353 0.81629 0.55004 0.0
C995 C 0.37191 0.81241 0.54882 0.0
C996 C 0.36825 0.82934 0.54492 0.0
H997 H 0.25481 0.69392 0.57998 0.0
H998 H 0.28229 0.73192 0.57596 0.0
C999 C 0.38605 0.84996 0.54221 0.0
C1000 C 0.35327 0.7906 0.55183 0.0
H1001 H 0.31269 0.74604 0.53359 0.0
C1002 C 0.34982 0.78259 0.56712 0.0
C1003 C 0.3397 0.77738 0.5396 0.0
C1004 C 0.34319 0.78519 0.52294 0.0
C1005 C 0.33322 0.76149 0.57049 0.0
C1006 C 0.31969 0.7482 0.55824 0.0
C1007 C 0.32302 0.75634 0.54297 0.0
C1008 C 0.30292 0.72536 0.56081 0.0
C1009 C 0.33076 0.75335 0.58702 0.0
C1010 C 0.30528 0.70917 0.55344 0.0
C1011 C 0.28965 0.68755 0.55565 0.0
C1012 C 0.27126 0.68168 0.56524 0.0
C1013 C 0.26886 0.69794 0.57259 0.0
C1014 C 0.28456 0.71963 0.57036 0.0
H1015 H 0.34517 0.76411 0.59441 0.0
H1016 H 0.31589 0.75245 0.5923 0.0
H1017 H 0.32865 0.73695 0.58719 0.0
H1018 H 0.31933 0.71327 0.54601 0.0
H1019 H 0.29198 0.67544 0.5498 0.0
H1020 H 0.52933 0.39507 0.7032 0.0
H1021 H 0.5342 0.36402 0.70817 0.0
H1022 H 0.60414 0.40638 0.71313 0.0
H1023 H 0.5995 0.43746 0.70789 0.0
H1024 H 0.56728 0.35424 0.69028 0.0
H1025 H 0.57873 0.36674 0.75455 0.0
H1026 H 0.56389 0.37652 0.74309 0.0
H1027 H 0.59337 0.39013 0.74237 0.0
C1028 C 0.54578 0.39773 0.7051 0.0
C1029 C 0.56415 0.41866 0.70476 0.0
C1030 C 0.5485 0.38002 0.70802 0.0
C1031 C 0.56951 0.38302 0.71101 0.0
C1032 C 0.58781 0.40383 0.71084 0.0
H1033 H 0.62679 0.30183 0.7122 0.0
H1034 H 0.61616 0.32897 0.7074 0.0
C1035 C 0.58515 0.4215 0.70777 0.0
C1036 C 0.57249 0.36446 0.7143 0.0
H1037 H 0.58602 0.3407 0.74341 0.0
C1038 C 0.5712 0.35112 0.70189 0.0
C1039 C 0.5774 0.36043 0.7295 0.0
C1040 C 0.57832 0.37407 0.74322 0.0
C1041 C 0.5754 0.33413 0.70422 0.0
C1042 C 0.58118 0.33062 0.71932 0.0
C1043 C 0.58172 0.34354 0.73183 0.0
C1044 C 0.58746 0.31408 0.72227 0.0
C1045 C 0.57366 0.32014 0.6905 0.0
C1046 C 0.57515 0.29703 0.73256 0.0
C1047 C 0.58124 0.28152 0.7354 0.0
C1048 C 0.59985 0.28293 0.72808 0.0
C1049 C 0.6123 0.30022 0.71796 0.0
C1050 C 0.60619 0.31567 0.71512 0.0
H1051 H 0.56353 0.32119 0.68093 0.0
H1052 H 0.59038 0.32557 0.68583 0.0
H1053 H 0.56639 0.30305 0.69407 0.0
H1054 H 0.56073 0.29565 0.73828 0.0
H1055 H 0.57135 0.26841 0.74329 0.0
H1056 H 0.13915 0.51541 0.87983 0.0
H1057 H 0.17746 0.52401 0.88253 0.0
H1058 H 0.19828 0.59155 0.88567 0.0
H1059 H 0.15999 0.58307 0.88269 0.0
H1060 H 0.22407 0.58182 0.86528 0.0
H1061 H 0.21299 0.54353 0.92337 0.0
H1062 H 0.194 0.52619 0.90874 0.0
H1063 H 0.19306 0.54963 0.91506 0.0
C1064 C 0.15194 0.53209 0.88095 0.0
C1065 C 0.1467 0.54862 0.88079 0.0
C1066 C 0.17374 0.53697 0.88262 0.0
C1067 C 0.19059 0.55838 0.88443 0.0
C1068 C 0.18545 0.57493 0.88426 0.0
H1069 H 0.33253 0.61646 0.89679 0.0
H1070 H 0.29557 0.6108 0.89223 0.0
C1071 C 0.16365 0.57008 0.88255 0.0
C1072 C 0.21359 0.56348 0.88655 0.0
H1073 H 0.24687 0.55431 0.91052 0.0
C1074 C 0.22916 0.57594 0.8752 0.0
C1075 C 0.22006 0.55583 0.89955 0.0
C1076 C 0.20422 0.54322 0.91246 0.0
C1077 C 0.25101 0.58039 0.87625 0.0
C1078 C 0.25738 0.57241 0.88913 0.0
C1079 C 0.24186 0.56026 0.9006 0.0
C1080 C 0.27996 0.5761 0.89092 0.0
C1081 C 0.26689 0.59304 0.86338 0.0
C1082 C 0.28334 0.55845 0.89189 0.0
C1083 C 0.30434 0.56159 0.89468 0.0
C1084 C 0.32237 0.58248 0.89656 0.0
C1085 C 0.319 0.60018 0.89531 0.0
C1086 C 0.29792 0.59699 0.89262 0.0
H1087 H 0.25818 0.5933 0.8526 0.0
H1088 H 0.27753 0.60991 0.86732 0.0
H1089 H 0.27764 0.58626 0.8605 0.0
H1090 H 0.26965 0.5422 0.89065 0.0
H1091 H 0.30638 0.54762 0.89551 0.0
H1092 H 0.58803 0.17278 0.00404 0.0
H1093 H 0.62208 0.19787 0.01748 0.0
H1094 H 0.589 0.17762 0.06187 0.0
H1095 H 0.55462 0.15317 0.04837 0.0
H1096 H 0.609 0.21892 0.06 0.0
H1097 H 0.66879 0.19476 0.04176 0.0
H1098 H 0.65576 0.19808 0.02484 0.0
H1099 H 0.63955 0.1775 0.0389 0.0
C1100 C 0.5882 0.17331 0.01669 0.0
C1101 C 0.56878 0.16078 0.02515 0.0
C1102 C 0.60772 0.18751 0.02439 0.0
C1103 C 0.60831 0.18931 0.04074 0.0
C1104 C 0.58904 0.17633 0.04926 0.0
H1105 H 0.73481 0.29357 0.07845 0.0
H1106 H 0.7029 0.2571 0.0757 0.0
C1107 C 0.56942 0.1623 0.04154 0.0
C1108 C 0.62807 0.20683 0.04859 0.0
H1109 H 0.68425 0.23299 0.04815 0.0
C1110 C 0.62541 0.22165 0.05772 0.0
C1111 C 0.64954 0.21032 0.04594 0.0
C1112 C 0.65353 0.19414 0.03747 0.0
C1113 C 0.64361 0.24065 0.06316 0.0
C1114 C 0.66502 0.24521 0.05903 0.0
C1115 C 0.66779 0.22964 0.05105 0.0
C1116 C 0.68427 0.26701 0.06118 0.0
C1117 C 0.6397 0.25604 0.0728 0.0
C1118 C 0.68444 0.28447 0.05374 0.0
C1119 C 0.70247 0.30511 0.05526 0.0
C1120 C 0.72086 0.30878 0.06419 0.0
C1121 C 0.72082 0.29124 0.07156 0.0
C1122 C 0.70266 0.27045 0.07 0.0
H1123 H 0.62398 0.24741 0.07935 0.0
H1124 H 0.65334 0.26512 0.08123 0.0
H1125 H 0.63856 0.26773 0.06494 0.0
H1126 H 0.67065 0.28209 0.04657 0.0
H1127 H 0.70198 0.3182 0.04933 0.0
H1128 H 0.46559 0.62347 0.16934 0.0
H1129 H 0.47063 0.65616 0.18218 0.0
H1130 H 0.41384 0.61776 0.21096 0.0
H1131 H 0.4093 0.58505 0.19856 0.0
H1132 H 0.44283 0.67031 0.18045 0.0
H1133 H 0.45457 0.65961 0.24285 0.0
H1134 H 0.45688 0.64324 0.22776 0.0
H1135 H 0.43031 0.63662 0.23541 0.0
C1136 C 0.45452 0.62202 0.17866 0.0
C1137 C 0.43704 0.60176 0.18296 0.0
C1138 C 0.4574 0.64068 0.18598 0.0
C1139 C 0.44281 0.63944 0.19769 0.0
C1140 C 0.4257 0.61914 0.20229 0.0
H1141 H 0.39211 0.72197 0.21553 0.0
H1142 H 0.40163 0.69498 0.20767 0.0
C1143 C 0.42295 0.60047 0.19509 0.0
C1144 C 0.44373 0.65929 0.20371 0.0
H1145 H 0.44056 0.68376 0.23709 0.0
C1146 C 0.44276 0.67343 0.19285 0.0
C1147 C 0.444 0.66364 0.21987 0.0
C1148 C 0.44675 0.65008 0.23212 0.0
C1149 C 0.44072 0.69101 0.19768 0.0
C1150 C 0.43907 0.69426 0.2138 0.0
C1151 C 0.44143 0.68098 0.22472 0.0
C1152 C 0.43325 0.71032 0.21935 0.0
C1153 C 0.43992 0.70573 0.18545 0.0
C1154 C 0.44755 0.7275 0.22902 0.0
C1155 C 0.44208 0.74299 0.23365 0.0
C1156 C 0.42217 0.7414 0.22871 0.0
C1157 C 0.40765 0.72379 0.21942 0.0
C1158 C 0.4131 0.70838 0.21485 0.0
H1159 H 0.44814 0.70527 0.1745 0.0
H1160 H 0.42249 0.7004 0.18262 0.0
H1161 H 0.4479 0.72261 0.18971 0.0
H1162 H 0.4631 0.72915 0.23272 0.0
H1163 H 0.45356 0.75635 0.24085 0.0
H1164 H 0.83235 0.42815 0.33101 0.0
H1165 H 0.8027 0.43355 0.34074 0.0
H1166 H 0.82083 0.42874 0.38811 0.0
H1167 H 0.84984 0.42234 0.37839 0.0
H1168 H 0.77859 0.40394 0.38407 0.0
H1169 H 0.8014 0.48374 0.35982 0.0
H1170 H 0.79965 0.46548 0.34483 0.0
H1171 H 0.82018 0.47342 0.35995 0.0
C1172 C 0.83026 0.4287 0.3435 0.0
C1173 C 0.84369 0.42527 0.35392 0.0
C1174 C 0.81341 0.43193 0.34906 0.0
C1175 C 0.80982 0.43206 0.36518 0.0
C1176 C 0.82344 0.42894 0.37563 0.0
H1177 H 0.71254 0.46153 0.40424 0.0
H1178 H 0.74691 0.46322 0.39633 0.0
C1179 C 0.8401 0.42541 0.37007 0.0
C1180 C 0.79062 0.43337 0.37105 0.0
H1181 H 0.76384 0.46203 0.36821 0.0
C1182 C 0.77553 0.4168 0.38074 0.0
C1183 C 0.78671 0.45027 0.36689 0.0
C1184 C 0.80299 0.46934 0.35744 0.0
C1185 C 0.75637 0.41631 0.386 0.0
C1186 C 0.75179 0.43248 0.38105 0.0
C1187 C 0.7672 0.44945 0.37179 0.0
C1188 C 0.73099 0.43187 0.38526 0.0
C1189 C 0.74135 0.39853 0.39694 0.0
C1190 C 0.71064 0.41394 0.38131 0.0
C1191 C 0.69102 0.41282 0.38595 0.0
C1192 C 0.69134 0.4298 0.3944 0.0
C1193 C 0.71173 0.44814 0.39779 0.0
C1194 C 0.73138 0.44915 0.39328 0.0
H1195 H 0.75034 0.39181 0.40335 0.0
H1196 H 0.73367 0.40431 0.40559 0.0
H1197 H 0.72806 0.38526 0.39007 0.0
H1198 H 0.70992 0.4007 0.37473 0.0
H1199 H 0.6756 0.39859 0.38295 0.0
H1200 H 0.10556 0.5661 0.40593 0.0
H1201 H 0.12114 0.56195 0.43042 0.0
H1202 H 0.09211 0.59395 0.45529 0.0
H1203 H 0.07606 0.59763 0.4309 0.0
H1204 H 0.15085 0.59495 0.44791 0.0
H1205 H 0.0777 0.54404 0.48404 0.0
H1206 H 0.076 0.54662 0.46318 0.0
H1207 H 0.0771 0.56689 0.47617 0.0
C1208 C 0.10212 0.5718 0.41669 0.0
C1209 C 0.08949 0.58205 0.41657 0.0
C1210 C 0.11103 0.56945 0.43065 0.0
C1211 C 0.10752 0.57735 0.44472 0.0
C1212 C 0.09455 0.58721 0.44466 0.0
H1213 H 0.16444 0.61289 0.53566 0.0
H1214 H 0.14289 0.60481 0.51159 0.0
C1215 C 0.08552 0.58945 0.43072 0.0
C1216 C 0.11927 0.57735 0.45911 0.0
H1217 H 0.11202 0.56433 0.49782 0.0
C1218 C 0.14235 0.58795 0.45877 0.0
C1219 C 0.10814 0.56822 0.47326 0.0
C1220 C 0.08336 0.55561 0.47418 0.0
C1221 C 0.15466 0.59053 0.47233 0.0
C1222 C 0.14355 0.58204 0.48658 0.0
C1223 C 0.12046 0.57089 0.48687 0.0
C1224 C 0.15569 0.58566 0.50144 0.0
C1225 C 0.17947 0.60312 0.47144 0.0
C1226 C 0.16973 0.57725 0.50378 0.0
C1227 C 0.18217 0.58192 0.51748 0.0
C1228 C 0.18062 0.59497 0.52911 0.0
C1229 C 0.16607 0.60287 0.5269 0.0
C1230 C 0.15369 0.59821 0.51319 0.0
H1231 H 0.18534 0.61219 0.46033 0.0
H1232 H 0.18648 0.61463 0.48134 0.0
H1233 H 0.18594 0.59184 0.47218 0.0
H1234 H 0.17122 0.56724 0.49493 0.0
H1235 H 0.1931 0.57545 0.51891 0.0
H1236 H 0.55649 0.10085 0.56879 0.0
H1237 H 0.5776 0.12501 0.59691 0.0
H1238 H 0.50459 0.10335 0.62122 0.0
H1239 H 0.4815 0.07833 0.59397 0.0
H1240 H 0.5737 0.15676 0.61331 0.0
H1241 H 0.53684 0.08951 0.65567 0.0
H1242 H 0.53732 0.08536 0.63494 0.0
H1243 H 0.51703 0.09088 0.64317 0.0
C1244 C 0.54694 0.10195 0.57829 0.0
C1245 C 0.5166 0.08379 0.57967 0.0
C1246 C 0.55984 0.11603 0.59608 0.0
C1247 C 0.54341 0.11539 0.6125 0.0
C1248 C 0.51376 0.10225 0.61149 0.0
H1249 H 0.56188 0.18067 0.69907 0.0
H1250 H 0.54906 0.15881 0.67536 0.0
C1251 C 0.49928 0.08771 0.59425 0.0
C1252 C 0.55456 0.12783 0.62658 0.0
H1253 H 0.55473 0.12483 0.66629 0.0
C1254 C 0.5698 0.14978 0.6249 0.0
C1255 C 0.54943 0.11856 0.6416 0.0
C1256 C 0.53441 0.09475 0.64399 0.0
C1257 C 0.57921 0.16306 0.63801 0.0
C1258 C 0.57352 0.15393 0.6531 0.0
C1259 C 0.55887 0.13179 0.6547 0.0
C1260 C 0.58165 0.16718 0.66742 0.0
C1261 C 0.59436 0.18687 0.63561 0.0
C1262 C 0.60422 0.17893 0.67086 0.0
C1263 C 0.61162 0.19156 0.68437 0.0
C1264 C 0.59652 0.19243 0.6947 0.0
C1265 C 0.57392 0.18035 0.69133 0.0
C1266 C 0.56656 0.16784 0.6778 0.0
H1267 H 0.59303 0.19196 0.6236 0.0
H1268 H 0.5907 0.19638 0.64409 0.0
H1269 H 0.61163 0.19078 0.63747 0.0
H1270 H 0.61609 0.17825 0.66315 0.0
H1271 H 0.62914 0.20058 0.68673 0.0
H1272 H 0.5258 0.59937 0.75887 0.0
H1273 H 0.50312 0.60535 0.7778 0.0
H1274 H 0.47056 0.53825 0.79036 0.0
H1275 H 0.49339 0.53227 0.77171 0.0
H1276 H 0.45608 0.58566 0.78278 0.0
H1277 H 0.49967 0.57097 0.83122 0.0
H1278 H 0.50965 0.57557 0.81139 0.0
H1279 H 0.48749 0.54964 0.81707 0.0
C1280 C 0.51356 0.58587 0.76552 0.0
C1281 C 0.51141 0.56539 0.76392 0.0
C1282 C 0.50063 0.58929 0.77628 0.0
C1283 C 0.48545 0.5723 0.78561 0.0
C1284 C 0.48244 0.55162 0.78342 0.0
H1285 H 0.40581 0.55697 0.86559 0.0
H1286 H 0.42296 0.55265 0.84221 0.0
C1287 C 0.49541 0.54821 0.77274 0.0
C1288 C 0.47396 0.57645 0.79845 0.0
H1289 H 0.46902 0.57457 0.83811 0.0
C1290 C 0.45893 0.58336 0.79489 0.0
C1291 C 0.47792 0.57358 0.81422 0.0
C1292 C 0.4947 0.56723 0.81877 0.0
C1293 C 0.44719 0.58682 0.80676 0.0
C1294 C 0.45088 0.58352 0.82249 0.0
C1295 C 0.46617 0.57696 0.82601 0.0
C1296 C 0.43874 0.58617 0.83562 0.0
C1297 C 0.43054 0.59339 0.8024 0.0
C1298 C 0.44182 0.60648 0.83958 0.0
C1299 C 0.43202 0.60907 0.85303 0.0
C1300 C 0.41915 0.59138 0.86275 0.0
C1301 C 0.41572 0.57099 0.85846 0.0
C1302 C 0.42546 0.56844 0.84506 0.0
H1303 H 0.42651 0.5911 0.78974 0.0
H1304 H 0.41513 0.58401 0.80917 0.0
H1305 H 0.4373 0.61066 0.80526 0.0
H1306 H 0.45233 0.62043 0.83256 0.0
H1307 H 0.435 0.62498 0.856 0.0
H1308 H 0.96655 0.47172 0.94301 0.0
H1309 H 0.93755 0.44665 0.96062 0.0
H1310 H 0.8984 0.4758 0.9492 0.0
H1311 H 0.92742 0.50103 0.93172 0.0
H1312 H 0.90614 0.47406 0.98138 0.0
H1313 H 0.87545 0.39433 0.95284 0.0
H1314 H 0.9048 0.41052 0.95512 0.0
H1315 H 0.8906 0.41937 0.94235 0.0
C1316 C 0.95153 0.47243 0.94402 0.0
C1317 C 0.94907 0.4881 0.93587 0.0
C1318 C 0.93497 0.45807 0.95401 0.0
C1319 C 0.91574 0.4592 0.95602 0.0
C1320 C 0.91306 0.47456 0.94767 0.0
H1321 H 0.80242 0.407 0.0146 0.0
H1322 H 0.82998 0.42344 0.99409 0.0
C1323 C 0.92958 0.48889 0.93768 0.0
C1324 C 0.8994 0.44597 0.96799 0.0
H1325 H 0.86131 0.39447 0.97795 0.0
C1326 C 0.89633 0.45666 0.98062 0.0
C1327 C 0.88688 0.42328 0.96704 0.0
C1328 C 0.8894 0.41112 0.95357 0.0
C1329 C 0.88086 0.44529 0.99226 0.0
C1330 C 0.8679 0.42267 0.9911 0.0
C1331 C 0.87129 0.41185 0.97871 0.0
C1332 C 0.85003 0.41035 0.00235 0.0
C1333 C 0.87848 0.45757 0.00573 0.0
C1334 C 0.85184 0.39692 0.01341 0.0
C1335 C 0.83604 0.38742 0.02519 0.0
C1336 C 0.81828 0.39129 0.026 0.0
C1337 C 0.81602 0.40389 0.01439 0.0
C1338 C 0.83173 0.41329 0.00266 0.0
H1339 H 0.89298 0.474 0.00684 0.0
H1340 H 0.8637 0.45916 0.00381 0.0
H1341 H 0.87628 0.44889 0.0169 0.0
H1342 H 0.86588 0.39447 0.01328 0.0
H1343 H 0.83816 0.37772 0.03394 0.0
H1344 H 0.51192 0.93101 0.09239 0.0
H1345 H 0.49851 0.91525 0.11821 0.0
H1346 H 0.43186 0.89404 0.10357 0.0
H1347 H 0.44512 0.9092 0.07759 0.0
H1348 H 0.47362 0.92125 0.14101 0.0
H1349 H 0.42929 0.83826 0.11664 0.0
H1350 H 0.44883 0.86105 0.10538 0.0
H1351 H 0.4214 0.85637 0.10833 0.0
C1352 C 0.49442 0.92305 0.09474 0.0
C1353 C 0.47951 0.92102 0.08296 0.0
C1354 C 0.48681 0.91415 0.10947 0.0
C1355 C 0.46418 0.90314 0.11266 0.0
C1356 C 0.44935 0.90206 0.10119 0.0
H1357 H 0.3914 0.8235 0.19167 0.0
H1358 H 0.40197 0.84571 0.16816 0.0
C1359 C 0.45693 0.9108 0.08641 0.0
C1360 C 0.45611 0.89191 0.12773 0.0
H1361 H 0.42565 0.84197 0.14363 0.0
C1362 C 0.46308 0.90393 0.14162 0.0
C1363 C 0.4424 0.8693 0.12843 0.0
C1364 C 0.43517 0.85542 0.11392 0.0
C1365 C 0.45664 0.8939 0.15624 0.0
C1366 C 0.44317 0.87128 0.15692 0.0
C1367 C 0.43593 0.85933 0.14303 0.0
C1368 C 0.43698 0.85944 0.17185 0.0
C1369 C 0.46418 0.90757 0.17082 0.0
C1370 C 0.4532 0.85982 0.18167 0.0
C1371 C 0.44723 0.84713 0.1951 0.0
C1372 C 0.42492 0.83374 0.19884 0.0
C1373 C 0.40872 0.83362 0.18908 0.0
C1374 C 0.41472 0.84632 0.17567 0.0
H1375 H 0.46907 0.92457 0.16833 0.0
H1376 H 0.45106 0.90124 0.17982 0.0
H1377 H 0.47872 0.90734 0.17573 0.0
H1378 H 0.47047 0.86948 0.17873 0.0
H1379 H 0.46007 0.84751 0.20238 0.0
H1380 H 0.58258 0.51551 0.26818 0.0
H1381 H 0.58047 0.4954 0.29182 0.0
H1382 H 0.55623 0.43728 0.26456 0.0
H1383 H 0.55845 0.45737 0.24083 0.0
H1384 H 0.54387 0.45707 0.30549 0.0
H1385 H 0.61306 0.44546 0.28606 0.0
H1386 H 0.60733 0.46488 0.27707 0.0
H1387 H 0.59016 0.43675 0.27287 0.0
C1388 C 0.57647 0.49838 0.26729 0.0
C1389 C 0.57047 0.48792 0.25273 0.0
C1390 C 0.57528 0.48694 0.28076 0.0
C1391 C 0.56833 0.46493 0.27987 0.0
C1392 C 0.5618 0.45431 0.26543 0.0
H1393 H 0.58602 0.39294 0.35598 0.0
H1394 H 0.57283 0.39982 0.33131 0.0
C1395 C 0.56297 0.46575 0.25194 0.0
C1396 C 0.56918 0.45356 0.29399 0.0
H1397 H 0.59876 0.43308 0.31104 0.0
C1398 C 0.55567 0.45157 0.30667 0.0
C1399 C 0.5845 0.4463 0.2954 0.0
C1400 C 0.59973 0.44851 0.2822 0.0
C1401 C 0.55756 0.44308 0.32096 0.0
C1402 C 0.57366 0.43685 0.32262 0.0
C1403 C 0.58642 0.43787 0.3097 0.0
C1404 C 0.57931 0.43156 0.33801 0.0
C1405 C 0.54255 0.44118 0.33421 0.0
C1406 C 0.58734 0.44714 0.34988 0.0
C1407 C 0.59496 0.44334 0.36388 0.0
C1408 C 0.59482 0.42388 0.36629 0.0
C1409 C 0.58632 0.40807 0.3545 0.0
C1410 C 0.57876 0.41195 0.34042 0.0
H1411 H 0.52692 0.43964 0.32979 0.0
H1412 H 0.53865 0.42711 0.34171 0.0
H1413 H 0.55082 0.45593 0.34152 0.0
H1414 H 0.58839 0.46258 0.34812 0.0
H1415 H 0.60136 0.45587 0.3727 0.0
H1416 H 0.45093 0.9018 0.40737 0.0
H1417 H 0.45918 0.88667 0.38436 0.0
H1418 H 0.44254 0.92479 0.35444 0.0
H1419 H 0.43444 0.93999 0.37733 0.0
H1420 H 0.42786 0.86292 0.36253 0.0
H1421 H 0.49807 0.9318 0.33378 0.0
H1422 H 0.4911 0.9325 0.354 0.0
H1423 H 0.47675 0.93765 0.33866 0.0
C1424 C 0.44963 0.90734 0.39587 0.0
C1425 C 0.44238 0.92229 0.39411 0.0
C1426 C 0.45433 0.89872 0.38278 0.0
C1427 C 0.4519 0.90494 0.36772 0.0
C1428 C 0.44518 0.92026 0.36595 0.0
H1429 H 0.41958 0.86572 0.27629 0.0
H1430 H 0.43293 0.88369 0.30134 0.0
C1431 C 0.44043 0.92884 0.37902 0.0
C1432 C 0.4533 0.8934 0.35383 0.0
H1433 H 0.47422 0.90175 0.31695 0.0
C1434 C 0.43841 0.87124 0.35269 0.0
C1435 C 0.46713 0.90433 0.34107 0.0
C1436 C 0.48433 0.92785 0.34199 0.0
C1437 C 0.43565 0.86007 0.33866 0.0
C1438 C 0.44844 0.87135 0.32555 0.0
C1439 C 0.46441 0.89318 0.32702 0.0
C1440 C 0.44314 0.86162 0.30978 0.0
C1441 C 0.41794 0.8367 0.33764 0.0
C1442 C 0.44498 0.84352 0.30608 0.0
C1443 C 0.43719 0.83303 0.29172 0.0
C1444 C 0.4275 0.84056 0.28089 0.0
C1445 C 0.42672 0.85932 0.2844 0.0
C1446 C 0.43447 0.86973 0.29869 0.0
H1447 H 0.40744 0.83126 0.34824 0.0
H1448 H 0.40724 0.83393 0.3273 0.0
H1449 H 0.4257 0.82659 0.33628 0.0
H1450 H 0.45191 0.83721 0.31444 0.0
H1451 H 0.43821 0.81872 0.28932 0.0
H1452 H 0.48594 0.42454 0.54295 0.0
H1453 H 0.50418 0.42238 0.51917 0.0
H1454 H 0.56677 0.45403 0.54305 0.0
H1455 H 0.54855 0.45575 0.56693 0.0
H1456 H 0.53817 0.45359 0.50101 0.0
H1457 H 0.56234 0.39804 0.52806 0.0
H1458 H 0.54287 0.4042 0.53704 0.0
H1459 H 0.5719 0.42298 0.53836 0.0
C1460 C 0.5036 0.43117 0.54305 0.0
C1461 C 0.51583 0.44023 0.55678 0.0
C1462 C 0.51399 0.42995 0.52949 0.0
C1463 C 0.53675 0.4377 0.52945 0.0
C1464 C 0.54912 0.44755 0.54295 0.0
H1465 H 0.62205 0.43001 0.45878 0.0
H1466 H 0.60811 0.43981 0.48175 0.0
C1467 C 0.53873 0.44866 0.55653 0.0
C1468 C 0.54735 0.43478 0.51546 0.0
H1469 H 0.57498 0.40984 0.50245 0.0
C1470 C 0.54624 0.44406 0.50131 0.0
C1471 C 0.55786 0.42231 0.51591 0.0
C1472 C 0.55869 0.41113 0.53061 0.0
C1473 C 0.55543 0.44121 0.48758 0.0
C1474 C 0.56572 0.42858 0.48804 0.0
C1475 C 0.56713 0.41959 0.50221 0.0
C1476 C 0.57429 0.42364 0.47381 0.0
C1477 C 0.55417 0.45183 0.47273 0.0
C1478 C 0.55982 0.41117 0.46185 0.0
C1479 C 0.56767 0.40544 0.44879 0.0
C1480 C 0.59016 0.41209 0.44748 0.0
C1481 C 0.60464 0.42468 0.45945 0.0
C1482 C 0.59674 0.43031 0.47256 0.0
H1483 H 0.55085 0.46517 0.47512 0.0
H1484 H 0.56971 0.45824 0.466 0.0
H1485 H 0.54059 0.43974 0.46534 0.0
H1486 H 0.54237 0.40553 0.46275 0.0
H1487 H 0.55609 0.3957 0.43977 0.0
H1488 H 0.10818 0.54233 0.73653 0.0
H1489 H 0.12455 0.55939 0.71156 0.0
H1490 H 0.07981 0.50079 0.68732 0.0
H1491 H 0.0638 0.48353 0.71225 0.0
H1492 H 0.1229 0.51579 0.67997 0.0
H1493 H 0.10397 0.58209 0.67547 0.0
H1494 H 0.11694 0.58161 0.69345 0.0
H1495 H 0.08983 0.55993 0.68887 0.0
C1496 C 0.10152 0.5333 0.72582 0.0
C1497 C 0.08444 0.51175 0.7263 0.0
C1498 C 0.1108 0.54308 0.71157 0.0
C1499 C 0.10312 0.53149 0.69756 0.0
C1500 C 0.0858 0.51009 0.69799 0.0
H1501 H 0.14348 0.54732 0.6014 0.0
H1502 H 0.12355 0.53673 0.62607 0.0
C1503 C 0.07661 0.50028 0.71222 0.0
C1504 C 0.11461 0.54075 0.68264 0.0
H1505 H 0.12905 0.58193 0.65682 0.0
C1506 C 0.12412 0.53018 0.67488 0.0
C1507 C 0.11644 0.5597 0.67614 0.0
C1508 C 0.10611 0.57143 0.68382 0.0
C1509 C 0.13541 0.53799 0.66078 0.0
C1510 C 0.13692 0.55669 0.65411 0.0
C1511 C 0.12775 0.56754 0.66196 0.0
C1512 C 0.14761 0.56475 0.6388 0.0
C1513 C 0.14587 0.52626 0.65323 0.0
C1514 C 0.16722 0.58455 0.63764 0.0
C1515 C 0.17865 0.59078 0.62347 0.0
C1516 C 0.1706 0.57723 0.61031 0.0
C1517 C 0.15032 0.55797 0.61137 0.0
C1518 C 0.13889 0.55187 0.62546 0.0
H1519 H 0.14812 0.51577 0.66168 0.0
H1520 H 0.13507 0.5159 0.64366 0.0
H1521 H 0.16213 0.53776 0.64816 0.0
H1522 H 0.17412 0.59474 0.64783 0.0
H1523 H 0.19417 0.60575 0.62301 0.0
H1524 H 0.52991 0.10641 0.90663 0.0
H1525 H 0.533 0.12719 0.87692 0.0
H1526 H 0.58755 0.10724 0.8571 0.0
H1527 H 0.58585 0.0858 0.88605 0.0
H1528 H 0.57329 0.15955 0.85965 0.0
H1529 H 0.53848 0.08677 0.82199 0.0
H1530 H 0.53211 0.08583 0.8425 0.0
H1531 H 0.55785 0.08841 0.83645 0.0
C1532 C 0.54114 0.10724 0.89765 0.0
C1533 C 0.55461 0.09047 0.89831 0.0
C1534 C 0.54236 0.11916 0.87891 0.0
C1535 C 0.55924 0.11799 0.86347 0.0
C1536 C 0.57677 0.10654 0.86638 0.0
H1537 H 0.61664 0.16774 0.77674 0.0
H1538 H 0.60136 0.1488 0.80117 0.0
C1539 C 0.57679 0.09425 0.88463 0.0
C1540 C 0.56091 0.12872 0.84856 0.0
H1541 H 0.55907 0.12048 0.80927 0.0
C1542 C 0.56981 0.15106 0.84858 0.0
C1543 C 0.55627 0.11745 0.83428 0.0
C1544 C 0.54547 0.09326 0.83372 0.0
C1545 C 0.57584 0.16275 0.83457 0.0
C1546 C 0.57224 0.15157 0.82024 0.0
C1547 C 0.56202 0.12903 0.82027 0.0
C1548 C 0.58081 0.16294 0.80524 0.0
C1549 C 0.58728 0.18699 0.83532 0.0
C1550 C 0.57414 0.17702 0.79931 0.0
C1551 C 0.58308 0.18811 0.78538 0.0
C1552 C 0.59857 0.18503 0.77704 0.0
C1553 C 0.60476 0.1705 0.78285 0.0
C1554 C 0.59601 0.15963 0.79682 0.0
H1555 H 0.59296 0.19318 0.84734 0.0
H1556 H 0.6017 0.19432 0.82739 0.0
H1557 H 0.57566 0.19237 0.83156 0.0
H1558 H 0.56205 0.17943 0.80544 0.0
H1559 H 0.5778 0.19903 0.78113 0.0
H1560 H 0.45912 0.55581 0.07378 0.0
H1561 H 0.44122 0.55964 0.0442 0.0
H1562 H 0.51689 0.60622 0.02264 0.0
H1563 H 0.53683 0.60332 0.05143 0.0
H1564 H 0.44734 0.59414 0.02708 0.0
H1565 H 0.48681 0.5622 0.98761 0.0
H1566 H 0.48588 0.55872 0.00848 0.0
H1567 H 0.50623 0.58365 -0.00019 0.0
C1568 C 0.46976 0.56571 0.06448 0.0
C1569 C 0.49997 0.57594 0.06462 0.0
C1570 C 0.45884 0.56733 0.04582 0.0
C1571 C 0.47703 0.58182 0.02985 0.0
C1572 C 0.50659 0.59657 0.03214 0.0
H1573 H 0.46097 0.62713 0.94056 0.0
H1574 H 0.47443 0.61921 0.96465 0.0
C1575 C 0.51915 0.59597 0.05031 0.0
C1576 C 0.46741 0.58378 0.0151 0.0
H1577 H 0.47015 0.58041 0.9755 0.0
C1578 C 0.45213 0.59092 0.0158 0.0
C1579 C 0.47375 0.57957 0.00045 0.0
C1580 C 0.48891 0.57042 -0.00098 0.0
C1581 C 0.44363 0.59484 0.00215 0.0
C1582 C 0.45029 0.59105 0.98747 0.0
C1583 C 0.46524 0.58347 0.98679 0.0
C1584 C 0.44215 0.59514 0.97266 0.0
C1585 C 0.42819 0.6037 0.00358 0.0
C1586 C 0.41963 0.58387 0.96908 0.0
C1587 C 0.4119 0.58843 0.95541 0.0
C1588 C 0.42661 0.60418 0.94501 0.0
C1589 C 0.44925 0.61496 0.94838 0.0
C1590 C 0.45695 0.61045 0.96211 0.0
H1591 H 0.42914 0.61074 0.01532 0.0
H1592 H 0.4319 0.61625 0.99464 0.0
H1593 H 0.41104 0.59049 0.00173 0.0
H1594 H 0.408 0.57164 0.97691 0.0
H1595 H 0.39437 0.5797 0.95306 0.0
H1596 H 0.93139 0.42691 0.2144 0.0
H1597 H 0.90293 0.41622 0.19416 0.0
H1598 H 0.93265 0.48212 0.17889 0.0
H1599 H 0.96117 0.49286 0.19897 0.0
H1600 H 0.87228 0.43201 0.18674 0.0
H1601 H 0.93351 0.44719 0.1402 0.0
H1602 H 0.93867 0.44462 0.16053 0.0
H1603 H 0.94087 0.46919 0.15348 0.0
C1604 C 0.93159 0.43913 0.20688 0.0
C1605 C 0.94839 0.46073 0.20829 0.0
C1606 C 0.91538 0.43302 0.19535 0.0
C1607 C 0.91588 0.44837 0.18499 0.0
C1608 C 0.93215 0.47003 0.18672 0.0
H1609 H 0.84913 0.44652 0.10024 0.0
H1610 H 0.87178 0.45585 0.12372 0.0
C1611 C 0.94835 0.47614 0.19821 0.0
C1612 C 0.90025 0.44162 0.17175 0.0
H1613 H 0.89794 0.43884 0.13198 0.0
C1614 C 0.8778 0.43338 0.17476 0.0
C1615 C 0.90759 0.44341 0.15617 0.0
C1616 C 0.93144 0.45141 0.15233 0.0
C1617 C 0.86249 0.42742 0.16248 0.0
C1618 C 0.8699 0.4294 0.14689 0.0
C1619 C 0.89233 0.43741 0.14395 0.0
C1620 C 0.85487 0.4237 0.13332 0.0
C1621 C 0.83869 0.41963 0.16626 0.0
C1622 C 0.83779 0.40249 0.13093 0.0
C1623 C 0.82472 0.39705 0.11747 0.0
C1624 C 0.82866 0.41273 0.10611 0.0
C1625 C 0.84566 0.434 0.10868 0.0
C1626 C 0.85863 0.4394 0.12212 0.0
H1627 H 0.83666 0.42398 0.17836 0.0
H1628 H 0.83156 0.42643 0.158 0.0
H1629 H 0.82915 0.40184 0.16519 0.0
H1630 H 0.8349 0.39004 0.13928 0.0
H1631 H 0.8118 0.38052 0.11584 0.0
loop_
_geom_bond_atom_site_label_1
_geom_bond_atom_site_label_2
_geom_bond_distance
_geom_bond_site_symmetry_2
_ccdc_geom_bond_type
C0 C1 1.560 . S
C0 H61 0.959 . S
C0 H62 0.959 . S
C0 H63 0.960 . S
C1 C0 1.560 . S
C1 O56 1.426 . S
C1 H60 0.980 . S
C2 C3 1.407 . S
C2 C7 1.418 . S
C2 O56 1.334 . S
C3 C2 1.407 . S
C3 C4 1.360 . S
C3 H64 0.929 . S
C4 C3 1.360 . S
C4 C5 1.401 . S
C4 C8 1.527 . S
C5 C4 1.401 . S
C5 C6 1.405 . S
C5 C38 1.587 . S
C6 C5 1.405 . S
C6 C7 1.332 . S
C6 C9 1.496 . S
C7 C2 1.418 . S
C7 C6 1.332 . S
C7 H65 0.929 . S
C8 C4 1.527 . S
C8 H66 0.959 . S
C8 H67 0.961 . S
C8 H68 0.961 . S
C9 C6 1.496 . S
C9 H69 0.960 . S
C9 H70 0.960 . S
C9 H71 0.961 . S
C10 C11 1.517 . S
C10 H73 0.961 . S
C10 H74 0.960 . S
C10 H75 0.959 . S
C11 C10 1.517 . S
C11 O59 1.468 . S
C11 H72 0.980 . S
C12 C13 1.349 . S
C12 C17 1.367 . S
C12 O59 1.408 . S
C13 C12 1.349 . S
C13 C14 1.407 . S
C13 H76 0.930 . S
C14 C13 1.407 . S
C14 C15 1.449 . S
C14 C18 1.535 . S
C15 C14 1.449 . S
C15 C16 1.384 . S
C15 C40 1.553 1_655 S
C16 C15 1.384 . S
C16 C17 1.364 . S
C16 C19 1.450 . S
C17 C12 1.367 . S
C17 C16 1.364 . S
C17 H77 0.931 . S
C18 C14 1.535 . S
C18 H78 0.959 1_655 S
C18 H79 0.961 1_655 S
C18 H80 0.959 . S
C19 C16 1.450 . S
C19 H81 0.960 . S
C19 H82 0.960 1_655 S
C19 H83 0.960 . S
C20 C21 1.309 . S
C20 C25 1.304 . S
C20 O58 1.435 . S
C21 C20 1.309 . S
C21 C22 1.476 . S
C21 H85 0.930 . S
C22 C21 1.476 . S
C22 C23 1.400 . S
C22 C26 1.567 . S
C23 C22 1.400 . S
C23 C24 1.373 . S
C23 C45 1.432 . S
C24 C23 1.373 . S
C24 C25 1.339 . S
C24 C27 1.530 . S
C25 C20 1.304 . S
C25 C24 1.339 . S
C25 H86 0.930 . S
C26 C22 1.567 . S
C26 H87 0.961 . S
C26 H88 0.960 . S
C26 H89 0.958 . S
C27 C24 1.530 . S
C27 H90 0.961 . S
C27 H91 0.960 . S
C27 H92 0.960 . S
C28 C29 1.530 . S
C28 H94 0.961 . S
C28 H95 0.961 . S
C28 H96 0.959 . S
C29 C28 1.530 . S
C29 O57 1.412 . S
C29 H93 0.980 . S
C30 C31 1.288 . S
C30 C35 1.377 . S
C30 O57 1.393 . S
C31 C30 1.288 . S
C31 C32 1.369 . S
C31 H97 0.932 . S
C32 C31 1.369 . S
C32 C33 1.398 . S
C32 C36 1.527 . S
C33 C32 1.398 . S
C33 C34 1.380 . S
C33 C47 1.497 . S
C34 C33 1.380 . S
C34 C35 1.383 . S
C34 C37 1.603 . S
C35 C30 1.377 . S
C35 C34 1.383 . S
C35 H98 0.929 . S
C36 C32 1.527 . S
C36 H99 0.961 . S
C36 H100 0.959 1_455 S
C36 H101 0.959 . S
C37 C34 1.603 . S
C37 H102 0.960 . S
C37 H103 0.962 . S
C37 H104 0.961 . S
C38 C5 1.587 . S
C38 C39 1.360 . S
C38 C51 1.412 . S
C39 C38 1.360 . S
C39 C40 1.365 . S
C39 H105 0.929 . S
C40 C15 1.553 1_455 S
C40 C39 1.365 . S
C40 C41 1.404 . S
C41 C40 1.404 . S
C41 C42 1.395 1_455 S
C41 C52 1.451 . S
C42 C41 1.395 1_655 S
C42 C43 1.322 . S
C42 H106 0.930 . S
C43 C42 1.322 . S
C43 C44 1.459 . S
C43 H107 0.929 . S
C44 C43 1.459 . S
C44 C45 1.445 . S
C44 C53 1.395 1_655 S
C45 C23 1.432 . S
C45 C44 1.445 . S
C45 C46 1.370 . S
C46 C45 1.370 . S
C46 C47 1.438 1_655 S
C46 H108 0.930 . S
C47 C33 1.497 . S
C47 C46 1.438 1_455 S
C47 C48 1.360 . S
C48 C47 1.360 . S
C48 C49 1.401 . S
C48 C53 1.446 . S
C49 C48 1.401 . S
C49 C50 1.347 . S
C49 H109 0.929 . S
C50 C49 1.347 . S
C50 C51 1.455 . S
C50 H110 0.930 . S
C51 C38 1.412 . S
C51 C50 1.455 . S
C51 C52 1.331 . S
C52 C41 1.451 . S
C52 C51 1.331 . S
C52 C53 1.497 . S
C53 C44 1.395 1_455 S
C53 C48 1.446 . S
C53 C52 1.497 . S
C54 C55 1.582 . S
C54 H111 0.962 . S
C54 H112 0.959 . S
C54 H113 0.958 . S
C55 C54 1.582 . S
C55 O58 1.458 . S
C55 H84 0.980 . S
O56 C1 1.426 . S
O56 C2 1.334 . S
O57 C29 1.412 . S
O57 C30 1.393 . S
O58 C20 1.435 . S
O58 C55 1.458 . S
O59 C11 1.468 . S
O59 C12 1.408 . S
H60 C1 0.980 . S
H61 C0 0.959 . S
H62 C0 0.959 . S
H63 C0 0.960 . S
H64 C3 0.929 . S
H65 C7 0.929 . S
H66 C8 0.959 . S
H67 C8 0.961 . S
H68 C8 0.961 . S
H69 C9 0.960 . S
H70 C9 0.960 . S
H71 C9 0.961 . S
H72 C11 0.980 . S
H73 C10 0.961 . S
H74 C10 0.960 . S
H75 C10 0.959 . S
H76 C13 0.930 . S
H77 C17 0.931 . S
H78 C18 0.959 1_455 S
H79 C18 0.961 1_455 S
H80 C18 0.959 . S
H81 C19 0.960 . S
H82 C19 0.960 1_455 S
H83 C19 0.960 . S
H84 C55 0.980 . S
H85 C21 0.930 . S
H86 C25 0.930 . S
H87 C26 0.961 . S
H88 C26 0.960 . S
H89 C26 0.958 . S
H90 C27 0.961 . S
H91 C27 0.960 . S
H92 C27 0.960 . S
H93 C29 0.980 . S
H94 C28 0.961 . S
H95 C28 0.961 . S
H96 C28 0.959 . S
H97 C31 0.932 . S
H98 C35 0.929 . S
H99 C36 0.961 . S
H100 C36 0.959 1_655 S
H101 C36 0.959 . S
H102 C37 0.960 . S
H103 C37 0.962 . S
H104 C37 0.961 . S
H105 C39 0.929 . S
H106 C42 0.930 . S
H107 C43 0.929 . S
H108 C46 0.930 . S
H109 C49 0.929 . S
H110 C50 0.930 . S
H111 C54 0.962 . S
H112 C54 0.959 . S
H113 C54 0.958 . S
C114 C115 1.560 . S
C114 H175 0.959 . S
C114 H176 0.959 . S
C114 H177 0.960 . S
C115 C114 1.560 . S
C115 O170 1.426 . S
C115 H174 0.980 . S
C116 C117 1.407 . S
C116 C121 1.418 . S
C116 O170 1.334 . S
C117 C116 1.407 . S
C117 C118 1.360 . S
C117 H178 0.929 . S
C118 C117 1.360 . S
C118 C119 1.401 . S
C118 C122 1.527 . S
C119 C118 1.401 . S
C119 C120 1.405 . S
C119 C152 1.587 . S
C120 C119 1.405 . S
C120 C121 1.332 . S
C120 C123 1.496 . S
C121 C116 1.418 . S
C121 C120 1.332 . S
C121 H179 0.929 . S
C122 C118 1.527 . S
C122 H180 0.959 . S
C122 H181 0.961 . S
C122 H182 0.961 . S
C123 C120 1.496 . S
C123 H183 0.960 . S
C123 H184 0.960 . S
C123 H185 0.961 . S
C124 C125 1.517 . S
C124 H187 0.961 . S
C124 H188 0.960 . S
C124 H189 0.959 . S
C125 C124 1.517 . S
C125 O173 1.468 . S
C125 H186 0.980 . S
C126 C127 1.349 . S
C126 C131 1.367 . S
C126 O173 1.408 . S
C127 C126 1.349 . S
C127 C128 1.407 . S
C127 H190 0.930 . S
C128 C127 1.407 . S
C128 C129 1.449 . S
C128 C132 1.535 . S
C129 C128 1.449 . S
C129 C130 1.384 . S
C129 C154 1.553 . S
C130 C129 1.384 . S
C130 C131 1.364 . S
C130 C133 1.450 . S
C131 C126 1.367 . S
C131 C130 1.364 . S
C131 H191 0.931 . S
C132 C128 1.535 . S
C132 H192 0.959 . S
C132 H193 0.961 . S
C132 H194 0.959 . S
C133 C130 1.450 . S
C133 H195 0.960 . S
C133 H196 0.960 . S
C133 H197 0.960 . S
C134 C135 1.309 . S
C134 C139 1.304 . S
C134 O172 1.435 . S
C135 C134 1.309 . S
C135 C136 1.476 . S
C135 H199 0.930 . S
C136 C135 1.476 . S
C136 C137 1.400 . S
C136 C140 1.567 . S
C137 C136 1.400 . S
C137 C138 1.373 . S
C137 C159 1.432 . S
C138 C137 1.373 . S
C138 C139 1.339 . S
C138 C141 1.530 . S
C139 C134 1.304 . S
C139 C138 1.339 . S
C139 H200 0.930 . S
C140 C136 1.567 . S
C140 H201 0.961 . S
C140 H202 0.960 . S
C140 H203 0.958 . S
C141 C138 1.530 . S
C141 H204 0.961 . S
C141 H205 0.960 . S
C141 H206 0.960 . S
C142 C143 1.530 . S
C142 H208 0.961 . S
C142 H209 0.961 . S
C142 H210 0.959 . S
C143 C142 1.530 . S
C143 O171 1.412 . S
C143 H207 0.980 . S
C144 C145 1.288 . S
C144 C149 1.377 . S
C144 O171 1.393 . S
C145 C144 1.288 . S
C145 C146 1.369 . S
C145 H211 0.932 . S
C146 C145 1.369 . S
C146 C147 1.398 . S
C146 C150 1.527 1_565 S
C147 C146 1.398 . S
C147 C148 1.380 . S
C147 C161 1.497 1_565 S
C148 C147 1.380 . S
C148 C149 1.383 . S
C148 C151 1.603 . S
C149 C144 1.377 . S
C149 C148 1.383 . S
C149 H212 0.929 . S
C150 C146 1.527 1_545 S
C150 H213 0.961 . S
C150 H214 0.959 . S
C150 H215 0.959 1_545 S
C151 C148 1.603 . S
C151 H216 0.960 . S
C151 H217 0.962 . S
C151 H218 0.961 . S
C152 C119 1.587 . S
C152 C153 1.360 . S
C152 C165 1.412 . S
C153 C152 1.360 . S
C153 C154 1.365 1_565 S
C153 H219 0.929 . S
C154 C129 1.553 . S
C154 C153 1.365 1_545 S
C154 C155 1.404 . S
C155 C154 1.404 . S
C155 C156 1.395 . S
C155 C166 1.451 . S
C156 C155 1.395 . S
C156 C157 1.322 . S
C156 H220 0.930 . S
C157 C156 1.322 . S
C157 C158 1.459 . S
C157 H221 0.929 . S
C158 C157 1.459 . S
C158 C159 1.445 . S
C158 C167 1.395 . S
C159 C137 1.432 . S
C159 C158 1.445 . S
C159 C160 1.370 . S
C160 C159 1.370 . S
C160 C161 1.438 . S
C160 H222 0.930 . S
C161 C147 1.497 1_545 S
C161 C160 1.438 . S
C161 C162 1.351 1_545 S
C162 C161 1.351 1_565 S
C162 C163 1.420 . S
C162 C167 1.435 1_565 S
C163 C162 1.420 . S
C163 C164 1.347 . S
C163 H223 0.929 . S
C164 C163 1.347 . S
C164 C165 1.455 . S
C164 H224 0.930 . S
C165 C152 1.412 . S
C165 C164 1.455 . S
C165 C166 1.331 1_565 S
C166 C155 1.451 . S
C166 C165 1.331 1_545 S
C166 C167 1.497 . S
C167 C158 1.395 . S
C167 C162 1.435 1_545 S
C167 C166 1.497 . S
C168 C169 1.582 . S
C168 H225 0.962 . S
C168 H226 0.959 . S
C168 H227 0.958 . S
C169 C168 1.582 . S
C169 O172 1.458 . S
C169 H198 0.980 . S
O170 C115 1.426 . S
O170 C116 1.334 . S
O171 C143 1.412 . S
O171 C144 1.393 . S
O172 C134 1.435 . S
O172 C169 1.458 . S
O173 C125 1.468 . S
O173 C126 1.408 . S
H174 C115 0.980 . S
H175 C114 0.959 . S
H176 C114 0.959 . S
H177 C114 0.960 . S
H178 C117 0.929 . S
H179 C121 0.929 . S
H180 C122 0.959 . S
H181 C122 0.961 . S
H182 C122 0.961 . S
H183 C123 0.960 . S
H184 C123 0.960 . S
H185 C123 0.961 . S
H186 C125 0.980 . S
H187 C124 0.961 . S
H188 C124 0.960 . S
H189 C124 0.959 . S
H190 C127 0.930 . S
H191 C131 0.931 . S
H192 C132 0.959 . S
H193 C132 0.961 . S
H194 C132 0.959 . S
H195 C133 0.960 . S
H196 C133 0.960 . S
H197 C133 0.960 . S
H198 C169 0.980 . S
H199 C135 0.930 . S
H200 C139 0.930 . S
H201 C140 0.961 . S
H202 C140 0.960 . S
H203 C140 0.958 . S
H204 C141 0.961 . S
H205 C141 0.960 . S
H206 C141 0.960 . S
H207 C143 0.980 . S
H208 C142 0.961 . S
H209 C142 0.961 . S
H210 C142 0.959 . S
H211 C145 0.932 . S
H212 C149 0.929 . S
H213 C150 0.961 . S
H214 C150 0.959 . S
H215 C150 0.959 1_565 S
H216 C151 0.960 . S
H217 C151 0.962 . S
H218 C151 0.961 . S
H219 C153 0.929 . S
H220 C156 0.930 . S
H221 C157 0.929 . S
H222 C160 0.930 . S
H223 C163 0.929 . S
H224 C164 0.930 . S
H225 C168 0.962 . S
H226 C168 0.959 . S
H227 C168 0.958 . S
C228 C229 1.560 . S
C228 H289 0.959 . S
C228 H290 0.959 . S
C228 H291 0.960 . S
C229 C228 1.560 . S
C229 O284 1.426 . S
C229 H288 0.980 . S
C230 C231 1.407 . S
C230 C235 1.418 . S
C230 O284 1.334 . S
C231 C230 1.407 . S
C231 C232 1.360 . S
C231 H292 0.929 . S
C232 C231 1.360 . S
C232 C233 1.401 . S
C232 C236 1.527 . S
C233 C232 1.401 . S
C233 C234 1.405 . S
C233 C266 1.587 . S
C234 C233 1.405 . S
C234 C235 1.332 . S
C234 C237 1.496 . S
C235 C230 1.418 . S
C235 C234 1.332 . S
C235 H293 0.929 . S
C236 C232 1.527 . S
C236 H294 0.959 . S
C236 H295 0.961 . S
C236 H296 0.961 . S
C237 C234 1.496 . S
C237 H297 0.960 . S
C237 H298 0.960 . S
C237 H299 0.961 . S
C238 C239 1.517 . S
C238 H301 0.961 . S
C238 H302 0.960 . S
C238 H303 0.959 . S
C239 C238 1.517 . S
C239 O287 1.468 . S
C239 H300 0.980 . S
C240 C241 1.349 . S
C240 C245 1.367 . S
C240 O287 1.408 . S
C241 C240 1.349 . S
C241 C242 1.407 . S
C241 H304 0.930 . S
C242 C241 1.407 . S
C242 C243 1.449 . S
C242 C246 1.535 . S
C243 C242 1.449 . S
C243 C244 1.384 . S
C243 C268 1.553 . S
C244 C243 1.384 . S
C244 C245 1.364 . S
C244 C247 1.450 . S
C245 C240 1.367 . S
C245 C244 1.364 . S
C245 H305 0.931 . S
C246 C242 1.535 . S
C246 H306 0.959 . S
C246 H307 0.961 . S
C246 H308 0.959 . S
C247 C244 1.450 . S
C247 H309 0.960 . S
C247 H310 0.960 . S
C247 H311 0.960 . S
C248 C249 1.309 . S
C248 C253 1.304 . S
C248 O286 1.435 . S
C249 C248 1.309 . S
C249 C250 1.476 . S
C249 H313 0.930 . S
C250 C249 1.476 . S
C250 C251 1.400 . S
C250 C254 1.567 . S
C251 C250 1.400 . S
C251 C252 1.373 . S
C251 C273 1.432 . S
C252 C251 1.373 . S
C252 C253 1.339 . S
C252 C255 1.530 . S
C253 C248 1.304 . S
C253 C252 1.339 . S
C253 H314 0.930 . S
C254 C250 1.567 . S
C254 H315 0.961 . S
C254 H316 0.960 . S
C254 H317 0.958 . S
C255 C252 1.530 . S
C255 H318 0.961 . S
C255 H319 0.960 . S
C255 H320 0.960 . S
C256 C257 1.530 . S
C256 H322 0.961 . S
C256 H323 0.961 . S
C256 H324 0.959 . S
C257 C256 1.530 . S
C257 O285 1.412 . S
C257 H321 0.980 . S
C258 C259 1.288 . S
C258 C263 1.377 . S
C258 O285 1.393 . S
C259 C258 1.288 . S
C259 C260 1.369 . S
C259 H325 0.932 . S
C260 C259 1.369 . S
C260 C261 1.398 . S
C260 C264 1.527 . S
C261 C260 1.398 . S
C261 C262 1.380 . S
C261 C275 1.497 . S
C262 C261 1.380 . S
C262 C263 1.383 . S
C262 C265 1.603 . S
C263 C258 1.377 . S
C263 C262 1.383 . S
C263 H326 0.929 . S
C264 C260 1.527 . S
C264 H327 0.961 . S
C264 H328 0.959 . S
C264 H329 0.959 . S
C265 C262 1.603 . S
C265 H330 0.960 . S
C265 H331 0.962 . S
C265 H332 0.961 . S
C266 C233 1.587 . S
C266 C267 1.360 . S
C266 C279 1.412 . S
C267 C266 1.360 . S
C267 C268 1.365 . S
C267 H333 0.929 . S
C268 C243 1.553 . S
C268 C267 1.365 . S
C268 C269 1.404 . S
C269 C268 1.404 . S
C269 C270 1.395 . S
C269 C280 1.451 . S
C270 C269 1.395 . S
C270 C271 1.322 . S
C270 H334 0.930 . S
C271 C270 1.322 . S
C271 C272 1.459 . S
C271 H335 0.929 . S
C272 C271 1.459 . S
C272 C273 1.445 . S
C272 C281 1.395 . S
C273 C251 1.432 . S
C273 C272 1.445 . S
C273 C274 1.370 . S
C274 C273 1.370 . S
C274 C275 1.438 . S
C274 H336 0.930 . S
C275 C261 1.497 . S
C275 C274 1.438 . S
C275 C276 1.360 . S
C276 C275 1.360 . S
C276 C277 1.401 . S
C276 C281 1.446 . S
C277 C276 1.401 . S
C277 C278 1.347 . S
C277 H337 0.929 . S
C278 C277 1.347 . S
C278 C279 1.455 . S
C278 H338 0.930 . S
C279 C266 1.412 . S
C279 C278 1.455 . S
C279 C280 1.331 . S
C280 C269 1.451 . S
C280 C279 1.331 . S
C280 C281 1.497 . S
C281 C272 1.395 . S
C281 C276 1.446 . S
C281 C280 1.497 . S
C282 C283 1.582 . S
C282 H339 0.962 . S
C282 H340 0.959 . S
C282 H341 0.958 . S
C283 C282 1.582 . S
C283 O286 1.458 . S
C283 H312 0.980 . S
O284 C229 1.426 . S
O284 C230 1.334 . S
O285 C257 1.412 . S
O285 C258 1.393 . S
O286 C248 1.435 . S
O286 C283 1.458 . S
O287 C239 1.468 . S
O287 C240 1.408 . S
H288 C229 0.980 . S
H289 C228 0.959 . S
H290 C228 0.959 . S
H291 C228 0.960 . S
H292 C231 0.929 . S
H293 C235 0.929 . S
H294 C236 0.959 . S
H295 C236 0.961 . S
H296 C236 0.961 . S
H297 C237 0.960 . S
H298 C237 0.960 . S
H299 C237 0.961 . S
H300 C239 0.980 . S
H301 C238 0.961 . S
H302 C238 0.960 . S
H303 C238 0.959 . S
H304 C241 0.930 . S
H305 C245 0.931 . S
H306 C246 0.959 . S
H307 C246 0.961 . S
H308 C246 0.959 . S
H309 C247 0.960 . S
H310 C247 0.960 . S
H311 C247 0.960 . S
H312 C283 0.980 . S
H313 C249 0.930 . S
H314 C253 0.930 . S
H315 C254 0.961 . S
H316 C254 0.960 . S
H317 C254 0.958 . S
H318 C255 0.961 . S
H319 C255 0.960 . S
H320 C255 0.960 . S
H321 C257 0.980 . S
H322 C256 0.961 . S
H323 C256 0.961 . S
H324 C256 0.959 . S
H325 C259 0.932 . S
H326 C263 0.929 . S
H327 C264 0.961 . S
H328 C264 0.959 . S
H329 C264 0.959 . S
H330 C265 0.960 . S
H331 C265 0.962 . S
H332 C265 0.961 . S
H333 C267 0.929 . S
H334 C270 0.930 . S
H335 C271 0.929 . S
H336 C274 0.930 . S
H337 C277 0.929 . S
H338 C278 0.930 . S
H339 C282 0.962 . S
H340 C282 0.959 . S
H341 C282 0.958 . S
C342 C343 1.560 . S
C342 H403 0.959 . S
C342 H404 0.959 . S
C342 H405 0.960 . S
C343 C342 1.560 . S
C343 O398 1.426 . S
C343 H402 0.980 . S
C344 C345 1.407 . S
C344 C349 1.418 . S
C344 O398 1.334 . S
C345 C344 1.407 . S
C345 C346 1.360 . S
C345 H406 0.929 . S
C346 C345 1.360 . S
C346 C347 1.401 . S
C346 C350 1.527 . S
C347 C346 1.401 . S
C347 C348 1.405 . S
C347 C380 1.587 . S
C348 C347 1.405 . S
C348 C349 1.332 . S
C348 C351 1.496 . S
C349 C344 1.418 . S
C349 C348 1.332 . S
C349 H407 0.929 . S
C350 C346 1.527 . S
C350 H408 0.959 . S
C350 H409 0.961 . S
C350 H410 0.961 . S
C351 C348 1.496 . S
C351 H411 0.960 . S
C351 H412 0.960 . S
C351 H413 0.961 . S
C352 C353 1.517 . S
C352 H415 0.961 . S
C352 H416 0.960 . S
C352 H417 0.959 . S
C353 C352 1.517 . S
C353 O401 1.468 . S
C353 H414 0.980 . S
C354 C355 1.349 . S
C354 C359 1.367 . S
C354 O401 1.408 . S
C355 C354 1.349 . S
C355 C356 1.407 . S
C355 H418 0.930 . S
C356 C355 1.407 . S
C356 C357 1.449 . S
C356 C360 1.535 . S
C357 C356 1.449 . S
C357 C358 1.384 . S
C357 C382 1.553 1_655 S
C358 C357 1.384 . S
C358 C359 1.364 . S
C358 C361 1.450 . S
C359 C354 1.367 . S
C359 C358 1.364 . S
C359 H419 0.931 . S
C360 C356 1.535 . S
C360 H420 0.959 1_655 S
C360 H421 0.969 . S
C360 H422 0.959 . S
C361 C358 1.450 . S
C361 H423 0.960 . S
C361 H424 0.960 1_655 S
C361 H425 0.960 . S
C362 C363 1.309 . S
C362 C367 1.304 . S
C362 O400 1.435 . S
C363 C362 1.309 . S
C363 C364 1.476 . S
C363 H427 0.930 . S
C364 C363 1.476 . S
C364 C365 1.400 . S
C364 C368 1.567 . S
C365 C364 1.400 . S
C365 C366 1.373 . S
C365 C387 1.432 . S
C366 C365 1.373 . S
C366 C367 1.339 . S
C366 C369 1.530 . S
C367 C362 1.304 . S
C367 C366 1.339 . S
C367 H428 0.930 . S
C368 C364 1.567 . S
C368 H429 0.961 . S
C368 H430 0.960 . S
C368 H431 0.958 . S
C369 C366 1.530 . S
C369 H432 0.961 . S
C369 H433 0.960 . S
C369 H434 0.960 . S
C370 C371 1.530 . S
C370 H436 0.961 . S
C370 H437 0.961 . S
C370 H438 0.959 . S
C371 C370 1.530 . S
C371 O399 1.412 . S
C371 H435 0.980 . S
C372 C373 1.288 . S
C372 C377 1.377 . S
C372 O399 1.393 . S
C373 C372 1.288 . S
C373 C374 1.369 . S
C373 H439 0.932 . S
C374 C373 1.369 . S
C374 C375 1.398 . S
C374 C378 1.527 . S
C375 C374 1.398 . S
C375 C376 1.380 . S
C375 C389 1.497 . S
C376 C375 1.380 . S
C376 C377 1.383 . S
C376 C379 1.603 . S
C377 C372 1.377 . S
C377 C376 1.383 . S
C377 H440 0.929 . S
C378 C374 1.527 . S
C378 H441 0.961 . S
C378 H442 0.959 1_455 S
C378 H443 0.959 . S
C379 C376 1.603 . S
C379 H444 0.960 . S
C379 H445 0.962 . S
C379 H446 0.961 . S
C380 C347 1.587 . S
C380 C381 1.360 . S
C380 C393 1.412 . S
C381 C380 1.360 . S
C381 C382 1.365 . S
C381 H447 0.929 . S
C382 C357 1.553 1_455 S
C382 C381 1.365 . S
C382 C383 1.404 1_455 S
C383 C382 1.404 1_655 S
C383 C384 1.395 . S
C383 C394 1.451 1_655 S
C384 C383 1.395 . S
C384 C385 1.322 . S
C384 H448 0.930 . S
C385 C384 1.322 . S
C385 C386 1.459 . S
C385 H449 0.929 . S
C386 C385 1.459 . S
C386 C387 1.445 . S
C386 C395 1.395 1_655 S
C387 C365 1.432 . S
C387 C386 1.445 . S
C387 C388 1.370 . S
C388 C387 1.370 . S
C388 C389 1.438 1_655 S
C388 H450 0.930 . S
C389 C375 1.497 . S
C389 C388 1.438 1_455 S
C389 C390 1.360 . S
C390 C389 1.360 . S
C390 C391 1.401 . S
C390 C395 1.446 . S
C391 C390 1.401 . S
C391 C392 1.347 . S
C391 H451 0.929 . S
C392 C391 1.347 . S
C392 C393 1.455 . S
C392 H452 0.930 . S
C393 C380 1.412 . S
C393 C392 1.455 . S
C393 C394 1.331 . S
C394 C383 1.451 1_455 S
C394 C393 1.331 . S
C394 C395 1.497 . S
C395 C386 1.395 1_455 S
C395 C390 1.446 . S
C395 C394 1.497 . S
C396 C397 1.582 . S
C396 H453 0.962 . S
C396 H454 0.959 . S
C396 H455 0.958 . S
C397 C396 1.582 . S
C397 O400 1.458 . S
C397 H426 0.980 . S
O398 C343 1.426 . S
O398 C344 1.334 . S
O399 C371 1.412 . S
O399 C372 1.393 . S
O400 C362 1.435 . S
O400 C397 1.458 . S
O401 C353 1.468 . S
O401 C354 1.408 . S
H402 C343 0.980 . S
H403 C342 0.959 . S
H404 C342 0.959 . S
H405 C342 0.960 . S
H406 C345 0.929 . S
H407 C349 0.929 . S
H408 C350 0.959 . S
H409 C350 0.961 . S
H410 C350 0.961 . S
H411 C351 0.960 . S
H412 C351 0.960 . S
H413 C351 0.961 . S
H414 C353 0.980 . S
H415 C352 0.961 . S
H416 C352 0.960 . S
H417 C352 0.959 . S
H418 C355 0.930 . S
H419 C359 0.931 . S
H420 C360 0.959 1_455 S
H421 C360 0.969 . S
H422 C360 0.959 . S
H423 C361 0.960 . S
H424 C361 0.960 1_455 S
H425 C361 0.960 . S
H426 C397 0.980 . S
H427 C363 0.930 . S
H428 C367 0.930 . S
H429 C368 0.961 . S
H430 C368 0.960 . S
H431 C368 0.958 . S
H432 C369 0.961 . S
H433 C369 0.960 . S
H434 C369 0.960 . S
H435 C371 0.980 . S
H436 C370 0.961 . S
H437 C370 0.961 . S
H438 C370 0.959 . S
H439 C373 0.932 . S
H440 C377 0.929 . S
H441 C378 0.961 . S
H442 C378 0.959 1_655 S
H443 C378 0.959 . S
H444 C379 0.960 . S
H445 C379 0.962 . S
H446 C379 0.961 . S
H447 C381 0.929 . S
H448 C384 0.930 . S
H449 C385 0.929 . S
H450 C388 0.930 . S
H451 C391 0.929 . S
H452 C392 0.930 . S
H453 C396 0.962 . S
H454 C396 0.959 . S
H455 C396 0.958 . S
C456 C457 1.560 . S
C456 H517 0.959 . S
C456 H518 0.959 . S
C456 H519 0.960 . S
C457 C456 1.560 . S
C457 O512 1.426 . S
C457 H516 0.980 . S
C458 C459 1.407 . S
C458 C463 1.418 . S
C458 O512 1.334 . S
C459 C458 1.407 . S
C459 C460 1.360 . S
C459 H520 0.929 . S
C460 C459 1.360 . S
C460 C461 1.401 . S
C460 C464 1.527 . S
C461 C460 1.401 . S
C461 C462 1.405 . S
C461 C494 1.587 . S
C462 C461 1.405 . S
C462 C463 1.332 . S
C462 C465 1.496 . S
C463 C458 1.418 . S
C463 C462 1.332 . S
C463 H521 0.929 . S
C464 C460 1.527 . S
C464 H522 0.959 . S
C464 H523 0.961 . S
C464 H524 0.961 . S
C465 C462 1.496 . S
C465 H525 0.960 . S
C465 H526 0.960 . S
C465 H527 0.961 . S
C466 C467 1.517 . S
C466 H529 0.961 . S
C466 H530 0.960 . S
C466 H531 0.959 . S
C467 C466 1.517 . S
C467 O515 1.468 . S
C467 H528 0.980 . S
C468 C469 1.349 . S
C468 C473 1.367 . S
C468 O515 1.408 . S
C469 C468 1.349 . S
C469 C470 1.407 . S
C469 H532 0.930 . S
C470 C469 1.407 . S
C470 C471 1.449 . S
C470 C474 1.535 . S
C471 C470 1.449 . S
C471 C472 1.384 . S
C471 C496 1.553 . S
C472 C471 1.384 . S
C472 C473 1.364 . S
C472 C475 1.450 . S
C473 C468 1.367 . S
C473 C472 1.364 . S
C473 H533 0.931 . S
C474 C470 1.535 . S
C474 H534 0.959 . S
C474 H535 0.961 . S
C474 H536 0.959 . S
C475 C472 1.450 . S
C475 H537 0.960 . S
C475 H538 0.960 . S
C475 H539 0.960 . S
C476 C477 1.309 . S
C476 C481 1.304 . S
C476 O514 1.435 . S
C477 C476 1.309 . S
C477 C478 1.476 . S
C477 H541 0.930 . S
C478 C477 1.476 . S
C478 C479 1.400 . S
C478 C482 1.567 . S
C479 C478 1.400 . S
C479 C480 1.373 . S
C479 C501 1.432 . S
C480 C479 1.373 . S
C480 C481 1.339 . S
C480 C483 1.530 . S
C481 C476 1.304 . S
C481 C480 1.339 . S
C481 H542 0.930 . S
C482 C478 1.567 . S
C482 H543 0.961 . S
C482 H544 0.960 . S
C482 H545 0.958 . S
C483 C480 1.530 . S
C483 H546 0.961 . S
C483 H547 0.960 . S
C483 H548 0.960 . S
C484 C485 1.530 . S
C484 H550 0.961 . S
C484 H551 0.961 . S
C484 H552 0.959 . S
C485 C484 1.530 . S
C485 O513 1.412 . S
C485 H549 0.980 . S
C486 C487 1.288 . S
C486 C491 1.377 . S
C486 O513 1.393 . S
C487 C486 1.288 . S
C487 C488 1.369 . S
C487 H553 0.932 . S
C488 C487 1.369 . S
C488 C489 1.398 . S
C488 C492 1.527 1_565 S
C489 C488 1.398 . S
C489 C490 1.380 . S
C489 C503 1.497 1_565 S
C490 C489 1.380 . S
C490 C491 1.383 . S
C490 C493 1.603 . S
C491 C486 1.377 . S
C491 C490 1.383 . S
C491 H554 0.929 . S
C492 C488 1.527 1_545 S
C492 H555 0.961 . S
C492 H556 0.959 . S
C492 H557 0.959 1_545 S
C493 C490 1.603 . S
C493 H558 0.960 . S
C493 H559 0.962 . S
C493 H560 0.961 . S
C494 C461 1.587 . S
C494 C495 1.360 . S
C494 C507 1.412 . S
C495 C494 1.360 . S
C495 C496 1.365 1_565 S
C495 H561 0.929 . S
C496 C471 1.553 . S
C496 C495 1.365 1_545 S
C496 C497 1.404 . S
C497 C496 1.404 . S
C497 C498 1.395 . S
C497 C508 1.477 . S
C498 C497 1.395 . S
C498 C499 1.322 . S
C498 H562 0.930 . S
C499 C498 1.322 . S
C499 C500 1.498 . S
C499 H563 0.929 . S
C500 C499 1.498 . S
C500 C501 1.400 1_556 S
C500 C509 1.402 . S
C501 C479 1.432 . S
C501 C500 1.400 1_554 S
C501 C502 1.370 . S
C502 C501 1.370 . S
C502 C503 1.438 . S
C502 H564 0.930 . S
C503 C489 1.497 1_545 S
C503 C502 1.438 . S
C503 C504 1.360 1_545 S
C504 C503 1.360 1_565 S
C504 C505 1.401 . S
C504 C509 1.446 1_564 S
C505 C504 1.401 . S
C505 C506 1.347 1_554 S
C505 H565 0.929 . S
C506 C505 1.347 1_556 S
C506 C507 1.455 . S
C506 H566 0.930 . S
C507 C494 1.412 . S
C507 C506 1.455 . S
C507 C508 1.296 1_565 S
C508 C497 1.477 . S
C508 C507 1.296 1_545 S
C508 C509 1.510 . S
C509 C500 1.402 . S
C509 C504 1.446 1_546 S
C509 C508 1.510 . S
C510 C511 1.582 . S
C510 H567 0.962 . S
C510 H568 0.959 . S
C510 H569 0.958 . S
C511 C510 1.582 . S
C511 O514 1.458 . S
C511 H540 0.980 . S
O512 C457 1.426 . S
O512 C458 1.334 . S
O513 C485 1.412 . S
O513 C486 1.393 . S
O514 C476 1.435 . S
O514 C511 1.458 . S
O515 C467 1.468 . S
O515 C468 1.408 . S
H516 C457 0.980 . S
H517 C456 0.959 . S
H518 C456 0.959 . S
H519 C456 0.960 . S
H520 C459 0.929 . S
H521 C463 0.929 . S
H522 C464 0.959 . S
H523 C464 0.961 . S
H524 C464 0.961 . S
H525 C465 0.960 . S
H526 C465 0.960 . S
H527 C465 0.961 . S
H528 C467 0.980 . S
H529 C466 0.961 . S
H530 C466 0.960 . S
H531 C466 0.959 . S
H532 C469 0.930 . S
H533 C473 0.931 . S
H534 C474 0.959 . S
H535 C474 0.961 . S
H536 C474 0.959 . S
H537 C475 0.960 . S
H538 C475 0.960 . S
H539 C475 0.960 . S
H540 C511 0.980 . S
H541 C477 0.930 . S
H542 C481 0.930 . S
H543 C482 0.961 . S
H544 C482 0.960 . S
H545 C482 0.958 . S
H546 C483 0.961 . S
H547 C483 0.960 . S
H548 C483 0.960 . S
H549 C485 0.980 . S
H550 C484 0.961 . S
H551 C484 0.961 . S
H552 C484 0.959 . S
H553 C487 0.932 . S
H554 C491 0.929 . S
H555 C492 0.961 . S
H556 C492 0.959 . S
H557 C492 0.959 1_565 S
H558 C493 0.960 . S
H559 C493 0.962 . S
H560 C493 0.961 . S
H561 C495 0.929 . S
H562 C498 0.930 . S
H563 C499 0.929 . S
H564 C502 0.930 . S
H565 C505 0.929 . S
H566 C506 0.930 . S
H567 C510 0.962 . S
H568 C510 0.959 . S
H569 C510 0.958 . S
C570 C571 1.560 . S
C570 H631 0.959 . S
C570 H632 0.959 . S
C570 H633 0.960 . S
C571 C570 1.560 . S
C571 O626 1.426 . S
C571 H630 0.980 . S
C572 C573 1.407 . S
C572 C577 1.418 . S
C572 O626 1.334 . S
C573 C572 1.407 . S
C573 C574 1.360 . S
C573 H634 0.929 . S
C574 C573 1.360 . S
C574 C575 1.401 . S
C574 C578 1.527 . S
C575 C574 1.401 . S
C575 C576 1.405 . S
C575 C608 1.587 . S
C576 C575 1.405 . S
C576 C577 1.332 . S
C576 C579 1.496 . S
C577 C572 1.418 . S
C577 C576 1.332 . S
C577 H635 0.929 . S
C578 C574 1.527 . S
C578 H636 0.959 . S
C578 H637 0.961 . S
C578 H638 0.961 . S
C579 C576 1.496 . S
C579 H639 0.960 . S
C579 H640 0.960 . S
C579 H641 0.961 . S
C580 C581 1.517 . S
C580 H643 0.961 . S
C580 H644 0.960 . S
C580 H645 0.959 . S
C581 C580 1.517 . S
C581 O629 1.468 . S
C581 H642 0.980 . S
C582 C583 1.349 . S
C582 C587 1.367 . S
C582 O629 1.408 . S
C583 C582 1.349 . S
C583 C584 1.407 . S
C583 H646 0.930 . S
C584 C583 1.407 . S
C584 C585 1.449 . S
C584 C588 1.535 . S
C585 C584 1.449 . S
C585 C586 1.384 . S
C585 C610 1.553 . S
C586 C585 1.384 . S
C586 C587 1.364 . S
C586 C589 1.450 . S
C587 C582 1.367 . S
C587 C586 1.364 . S
C587 H647 0.931 . S
C588 C584 1.535 . S
C588 H648 0.959 . S
C588 H649 0.961 . S
C588 H650 0.959 . S
C589 C586 1.450 . S
C589 H651 0.960 . S
C589 H652 0.960 . S
C589 H653 0.960 . S
C590 C591 1.309 . S
C590 C595 1.304 . S
C590 O628 1.435 . S
C591 C590 1.309 . S
C591 C592 1.476 . S
C591 H655 0.930 . S
C592 C591 1.476 . S
C592 C593 1.400 . S
C592 C596 1.567 . S
C593 C592 1.400 . S
C593 C594 1.373 . S
C593 C615 1.432 . S
C594 C593 1.373 . S
C594 C595 1.339 . S
C594 C597 1.530 . S
C595 C590 1.304 . S
C595 C594 1.339 . S
C595 H656 0.930 . S
C596 C592 1.567 . S
C596 H657 0.961 . S
C596 H658 0.960 . S
C596 H659 0.958 . S
C597 C594 1.530 . S
C597 H660 0.961 . S
C597 H661 0.960 . S
C597 H662 0.960 . S
C598 C599 1.530 . S
C598 H664 0.961 . S
C598 H665 0.961 . S
C598 H666 0.959 . S
C599 C598 1.530 . S
C599 O627 1.412 . S
C599 H663 0.980 . S
C600 C601 1.288 . S
C600 C605 1.377 . S
C600 O627 1.393 . S
C601 C600 1.288 . S
C601 C602 1.369 . S
C601 H667 0.932 . S
C602 C601 1.369 . S
C602 C603 1.398 . S
C602 C606 1.527 . S
C603 C602 1.398 . S
C603 C604 1.380 . S
C603 C617 1.497 . S
C604 C603 1.380 . S
C604 C605 1.383 . S
C604 C607 1.603 . S
C605 C600 1.377 . S
C605 C604 1.383 . S
C605 H668 0.929 . S
C606 C602 1.527 . S
C606 H669 0.961 . S
C606 H670 0.959 . S
C606 H671 0.959 . S
C607 C604 1.603 . S
C607 H672 0.960 . S
C607 H673 0.962 . S
C607 H674 0.961 . S
C608 C575 1.587 . S
C608 C609 1.360 . S
C608 C621 1.412 . S
C609 C608 1.360 . S
C609 C610 1.365 . S
C609 H675 0.929 . S
C610 C585 1.553 . S
C610 C609 1.365 . S
C610 C611 1.404 . S
C611 C610 1.404 . S
C611 C612 1.395 . S
C611 C622 1.451 . S
C612 C611 1.395 . S
C612 C613 1.322 . S
C612 H676 0.930 . S
C613 C612 1.322 . S
C613 C614 1.459 . S
C613 H677 0.929 . S
C614 C613 1.459 . S
C614 C615 1.445 . S
C614 C623 1.395 . S
C615 C593 1.432 . S
C615 C614 1.445 . S
C615 C616 1.370 . S
C616 C615 1.370 . S
C616 C617 1.438 . S
C616 H678 0.930 . S
C617 C603 1.497 . S
C617 C616 1.438 . S
C617 C618 1.360 . S
C618 C617 1.360 . S
C618 C619 1.401 . S
C618 C623 1.446 . S
C619 C618 1.401 . S
C619 C620 1.347 . S
C619 H679 0.929 . S
C620 C619 1.347 . S
C620 C621 1.455 . S
C620 H680 0.930 . S
C621 C608 1.412 . S
C621 C620 1.455 . S
C621 C622 1.331 . S
C622 C611 1.451 . S
C622 C621 1.331 . S
C622 C623 1.497 . S
C623 C614 1.395 . S
C623 C618 1.446 . S
C623 C622 1.497 . S
C624 C625 1.582 . S
C624 H681 0.962 . S
C624 H682 0.959 . S
C624 H683 0.958 . S
C625 C624 1.582 . S
C625 O628 1.458 . S
C625 H654 0.980 . S
O626 C571 1.426 . S
O626 C572 1.334 . S
O627 C599 1.412 . S
O627 C600 1.393 . S
O628 C590 1.435 . S
O628 C625 1.458 . S
O629 C581 1.468 . S
O629 C582 1.408 . S
H630 C571 0.980 . S
H631 C570 0.959 . S
H632 C570 0.959 . S
H633 C570 0.960 . S
H634 C573 0.929 . S
H635 C577 0.929 . S
H636 C578 0.959 . S
H637 C578 0.961 . S
H638 C578 0.961 . S
H639 C579 0.960 . S
H640 C579 0.960 . S
H641 C579 0.961 . S
H642 C581 0.980 . S
H643 C580 0.961 . S
H644 C580 0.960 . S
H645 C580 0.959 . S
H646 C583 0.930 . S
H647 C587 0.931 . S
H648 C588 0.959 . S
H649 C588 0.961 . S
H650 C588 0.959 . S
H651 C589 0.960 . S
H652 C589 0.960 . S
H653 C589 0.960 . S
H654 C625 0.980 . S
H655 C591 0.930 . S
H656 C595 0.930 . S
H657 C596 0.961 . S
H658 C596 0.960 . S
H659 C596 0.958 . S
H660 C597 0.961 . S
H661 C597 0.960 . S
H662 C597 0.960 . S
H663 C599 0.980 . S
H664 C598 0.961 . S
H665 C598 0.961 . S
H666 C598 0.959 . S
H667 C601 0.932 . S
H668 C605 0.929 . S
H669 C606 0.961 . S
H670 C606 0.959 . S
H671 C606 0.959 . S
H672 C607 0.960 . S
H673 C607 0.962 . S
H674 C607 0.961 . S
H675 C609 0.929 . S
H676 C612 0.930 . S
H677 C613 0.929 . S
H678 C616 0.930 . S
H679 C619 0.929 . S
H680 C620 0.930 . S
H681 C624 0.962 . S
H682 C624 0.959 . S
H683 C624 0.958 . S
C684 O685 1.306 . S
C684 O687 1.160 . S
O685 C684 1.306 . S
O685 Cd686 2.228 . S
Cd686 O685 2.228 . S
Cd686 O690 2.273 . S
Cd686 O694 2.277 . S
O687 C684 1.160 . S
O687 Cd688 2.203 . S
Cd688 O687 2.203 . S
Cd688 O690 2.411 . S
Cd688 O691 2.333 . S
Cd688 O692 2.352 . S
Cd688 O696 2.277 . S
Cd688 O697 2.356 . S
C689 O694 1.209 . S
C689 O696 1.226 . S
O690 Cd686 2.273 . S
O690 Cd688 2.411 . S
O690 C693 1.320 . S
O691 Cd688 2.333 . S
O691 C693 1.214 . S
O692 Cd688 2.352 . S
O692 C695 1.258 . S
C693 O690 1.320 . S
C693 O691 1.214 . S
O694 Cd686 2.277 . S
O694 C689 1.209 . S
C695 O692 1.258 . S
C695 O697 1.282 . S
O696 Cd688 2.277 . S
O696 C689 1.226 . S
O697 Cd688 2.356 . S
O697 C695 1.282 . S
C698 O699 1.306 . S
C698 O701 1.160 . S
O699 C698 1.306 . S
O699 Cd700 2.228 . S
Cd700 O699 2.228 . S
Cd700 O704 2.273 . S
Cd700 O708 2.277 . S
O701 C698 1.160 . S
O701 Cd702 2.203 . S
Cd702 O701 2.203 . S
Cd702 O704 2.411 . S
Cd702 O705 2.333 . S
Cd702 O706 2.352 . S
Cd702 O710 2.277 . S
Cd702 O711 2.356 . S
C703 O708 1.209 . S
C703 O710 1.226 . S
O704 Cd700 2.273 . S
O704 Cd702 2.411 . S
O704 C707 1.320 . S
O705 Cd702 2.333 . S
O705 C707 1.214 . S
O706 Cd702 2.352 . S
O706 C709 1.258 . S
C707 O704 1.320 . S
C707 O705 1.214 . S
O708 Cd700 2.277 . S
O708 C703 1.209 . S
C709 O706 1.258 . S
C709 O711 1.282 . S
O710 Cd702 2.277 . S
O710 C703 1.226 . S
O711 Cd702 2.356 . S
O711 C709 1.282 . S
C712 O713 1.306 . S
C712 O715 1.160 . S
O713 C712 1.306 . S
O713 Cd714 2.228 . S
Cd714 O713 2.228 . S
Cd714 O718 2.273 . S
Cd714 O722 2.277 . S
O715 C712 1.160 . S
O715 Cd716 2.203 . S
Cd716 O715 2.203 . S
Cd716 O718 2.411 . S
Cd716 O719 2.333 . S
Cd716 O720 2.352 . S
Cd716 O724 2.277 . S
Cd716 O725 2.356 . S
C717 O722 1.209 . S
C717 O724 1.226 . S
O718 Cd714 2.273 . S
O718 Cd716 2.411 . S
O718 C721 1.320 . S
O719 Cd716 2.333 . S
O719 C721 1.214 . S
O720 Cd716 2.352 . S
O720 C723 1.258 . S
C721 O718 1.320 . S
C721 O719 1.214 . S
O722 Cd714 2.277 . S
O722 C717 1.209 . S
C723 O720 1.258 . S
C723 O725 1.282 . S
O724 Cd716 2.277 . S
O724 C717 1.226 . S
O725 Cd716 2.356 . S
O725 C723 1.282 . S
C726 O727 1.306 . S
C726 O729 1.160 . S
O727 C726 1.306 . S
O727 Cd728 2.228 . S
Cd728 O727 2.228 . S
Cd728 O732 2.273 . S
Cd728 O736 2.277 . S
O729 C726 1.160 . S
O729 Cd730 2.203 . S
Cd730 O729 2.203 . S
Cd730 O732 2.411 . S
Cd730 O733 2.333 . S
Cd730 O734 2.352 . S
Cd730 O738 2.277 . S
Cd730 O739 2.356 . S
C731 O736 1.209 . S
C731 O738 1.226 . S
O732 Cd728 2.273 . S
O732 Cd730 2.411 . S
O732 C735 1.320 . S
O733 Cd730 2.333 . S
O733 C735 1.214 . S
O734 Cd730 2.352 . S
O734 C737 1.258 . S
C735 O732 1.320 . S
C735 O733 1.214 . S
O736 Cd728 2.277 . S
O736 C731 1.209 . S
C737 O734 1.258 . S
C737 O739 1.282 . S
O738 Cd730 2.277 . S
O738 C731 1.226 . S
O739 Cd730 2.356 . S
O739 C737 1.282 . S
C740 O741 1.306 . S
C740 O743 1.160 . S
O741 C740 1.306 . S
O741 Cd742 2.228 . S
Cd742 O741 2.228 . S
Cd742 O746 2.273 . S
Cd742 O750 2.277 . S
O743 C740 1.160 . S
O743 Cd744 2.203 . S
Cd744 O743 2.203 . S
Cd744 O746 2.411 . S
Cd744 O747 2.333 . S
Cd744 O748 2.352 . S
Cd744 O752 2.277 . S
Cd744 O753 2.356 . S
C745 O750 1.209 . S
C745 O752 1.226 . S
O746 Cd742 2.273 . S
O746 Cd744 2.411 . S
O746 C749 1.320 . S
O747 Cd744 2.333 . S
O747 C749 1.214 . S
O748 Cd744 2.352 . S
O748 C751 1.258 . S
C749 O746 1.320 . S
C749 O747 1.214 . S
O750 Cd742 2.277 . S
O750 C745 1.209 . S
C751 O748 1.258 . S
C751 O753 1.282 . S
O752 Cd744 2.277 . S
O752 C745 1.226 . S
O753 Cd744 2.356 . S
O753 C751 1.282 . S
C754 O755 1.306 . S
C754 O757 1.160 . S
O755 C754 1.306 . S
O755 Cd756 2.228 . S
Cd756 O755 2.228 . S
Cd756 O760 2.273 . S
Cd756 O764 2.277 . S
O757 C754 1.160 . S
O757 Cd758 2.203 . S
Cd758 O757 2.203 . S
Cd758 O760 2.411 . S
Cd758 O761 2.333 . S
Cd758 O762 2.352 . S
Cd758 O766 2.277 . S
Cd758 O767 2.356 . S
C759 O764 1.209 . S
C759 O766 1.226 . S
O760 Cd756 2.273 . S
O760 Cd758 2.411 . S
O760 C763 1.320 . S
O761 Cd758 2.333 . S
O761 C763 1.214 . S
O762 Cd758 2.352 . S
O762 C765 1.258 . S
C763 O760 1.320 . S
C763 O761 1.214 . S
O764 Cd756 2.277 . S
O764 C759 1.209 . S
C765 O762 1.258 . S
C765 O767 1.282 . S
O766 Cd758 2.277 . S
O766 C759 1.226 . S
O767 Cd758 2.356 . S
O767 C765 1.282 . S
H768 C776 0.929 . S
H769 C778 0.930 . S
H770 C780 0.930 . S
H771 C783 0.929 . S
H772 C786 0.930 . S
H773 C788 0.960 . S
H774 C788 0.960 . S
H775 C788 0.960 . S
C776 H768 0.929 . S
C776 C777 1.377 . S
C776 C778 1.384 . S
C777 C776 1.377 . S
C777 C783 1.390 . S
C778 H769 0.930 . S
C778 C776 1.384 . S
C778 C779 1.372 . S
C779 C778 1.372 . S
C779 C780 1.400 . S
C779 C784 1.490 . S
C780 H770 0.930 . S
C780 C779 1.400 . S
C780 C783 1.386 . S
H781 C797 0.930 . S
H782 C798 0.931 . S
C783 H771 0.929 . S
C783 C777 1.390 . S
C783 C780 1.386 . S
C784 C779 1.490 . S
C784 C786 1.395 . S
C784 C787 1.403 . S
H785 C791 0.930 . S
C786 H772 0.930 . S
C786 C784 1.395 . S
C786 C789 1.403 . S
C787 C784 1.403 . S
C787 C788 1.524 . S
C787 C791 1.400 . S
C788 H773 0.960 . S
C788 H774 0.960 . S
C788 H775 0.960 . S
C788 C787 1.524 . S
C789 C786 1.403 . S
C789 C790 1.392 . S
C789 C793 1.495 . S
C790 C789 1.392 . S
C790 C791 1.385 . S
C790 C792 1.478 . S
C791 H785 0.930 . S
C791 C787 1.400 . S
C791 C790 1.385 . S
C792 C790 1.478 . S
C792 C794 1.381 . S
C792 C798 1.383 . S
C793 C789 1.495 . S
C793 H799 0.959 . S
C793 H800 0.961 . S
C793 H801 0.960 . S
C794 C792 1.381 . S
C794 C795 1.394 . S
C794 H802 0.930 . S
C795 C794 1.394 . S
C795 C796 1.383 . S
C795 H803 0.929 . S
C796 C795 1.383 . S
C796 C797 1.377 . S
C797 H781 0.930 . S
C797 C796 1.377 . S
C797 C798 1.379 . S
C798 H782 0.931 . S
C798 C792 1.383 . S
C798 C797 1.379 . S
H799 C793 0.959 . S
H800 C793 0.961 . S
H801 C793 0.960 . S
H802 C794 0.930 . S
H803 C795 0.929 . S
H804 C812 0.929 . S
H805 C814 0.930 . S
H806 C816 0.930 . S
H807 C819 0.929 . S
H808 C822 0.930 . S
H809 C824 0.960 . S
H810 C824 0.960 . S
H811 C824 0.960 . S
C812 H804 0.929 . S
C812 C813 1.377 . S
C812 C814 1.384 . S
C813 C812 1.377 . S
C813 C819 1.390 . S
C814 H805 0.930 . S
C814 C812 1.384 . S
C814 C815 1.372 . S
C815 C814 1.372 . S
C815 C816 1.400 . S
C815 C820 1.490 . S
C816 H806 0.930 . S
C816 C815 1.400 . S
C816 C819 1.386 . S
H817 C833 0.930 . S
H818 C834 0.931 . S
C819 H807 0.929 . S
C819 C813 1.390 . S
C819 C816 1.386 . S
C820 C815 1.490 . S
C820 C822 1.395 . S
C820 C823 1.403 . S
H821 C827 0.930 . S
C822 H808 0.930 . S
C822 C820 1.395 . S
C822 C825 1.403 . S
C823 C820 1.403 . S
C823 C824 1.524 . S
C823 C827 1.400 . S
C824 H809 0.960 . S
C824 H810 0.960 . S
C824 H811 0.960 . S
C824 C823 1.524 . S
C825 C822 1.403 . S
C825 C826 1.392 . S
C825 C829 1.495 . S
C826 C825 1.392 . S
C826 C827 1.385 . S
C826 C828 1.478 . S
C827 H821 0.930 . S
C827 C823 1.400 . S
C827 C826 1.385 . S
C828 C826 1.478 . S
C828 C830 1.381 . S
C828 C834 1.383 . S
C829 C825 1.495 . S
C829 H835 0.959 . S
C829 H836 0.961 . S
C829 H837 0.960 . S
C830 C828 1.381 . S
C830 C831 1.394 . S
C830 H838 0.930 . S
C831 C830 1.394 . S
C831 C832 1.383 . S
C831 H839 0.929 . S
C832 C831 1.383 . S
C832 C833 1.377 . S
C833 H817 0.930 . S
C833 C832 1.377 . S
C833 C834 1.379 . S
C834 H818 0.931 . S
C834 C828 1.383 . S
C834 C833 1.379 . S
H835 C829 0.959 . S
H836 C829 0.961 . S
H837 C829 0.960 . S
H838 C830 0.930 . S
H839 C831 0.929 . S
H840 C848 0.929 . S
H841 C850 0.930 . S
H842 C852 0.930 . S
H843 C855 0.929 . S
H844 C858 0.930 . S
H845 C860 0.960 . S
H846 C860 0.960 . S
H847 C860 0.960 . S
C848 H840 0.929 . S
C848 C849 1.377 . S
C848 C850 1.384 . S
C849 C848 1.377 . S
C849 C855 1.390 . S
C850 H841 0.930 . S
C850 C848 1.384 . S
C850 C851 1.372 . S
C851 C850 1.372 . S
C851 C852 1.400 . S
C851 C856 1.490 . S
C852 H842 0.930 . S
C852 C851 1.400 . S
C852 C855 1.386 . S
H853 C869 0.930 . S
H854 C870 0.931 . S
C855 H843 0.929 . S
C855 C849 1.390 . S
C855 C852 1.386 . S
C856 C851 1.490 . S
C856 C858 1.395 . S
C856 C859 1.403 . S
H857 C863 0.930 . S
C858 H844 0.930 . S
C858 C856 1.395 . S
C858 C861 1.403 . S
C859 C856 1.403 . S
C859 C860 1.524 . S
C859 C863 1.400 . S
C860 H845 0.960 . S
C860 H846 0.960 . S
C860 H847 0.960 . S
C860 C859 1.524 . S
C861 C858 1.403 . S
C861 C862 1.392 . S
C861 C865 1.495 . S
C862 C861 1.392 . S
C862 C863 1.385 . S
C862 C864 1.478 . S
C863 H857 0.930 . S
C863 C859 1.400 . S
C863 C862 1.385 . S
C864 C862 1.478 . S
C864 C866 1.381 . S
C864 C870 1.383 . S
C865 C861 1.495 . S
C865 H871 0.959 . S
C865 H872 0.961 . S
C865 H873 0.960 . S
C866 C864 1.381 . S
C866 C867 1.394 . S
C866 H874 0.930 . S
C867 C866 1.394 . S
C867 C868 1.383 . S
C867 H875 0.929 . S
C868 C867 1.383 . S
C868 C869 1.377 . S
C869 H853 0.930 . S
C869 C868 1.377 . S
C869 C870 1.379 . S
C870 H854 0.931 . S
C870 C864 1.383 . S
C870 C869 1.379 . S
H871 C865 0.959 . S
H872 C865 0.961 . S
H873 C865 0.960 . S
H874 C866 0.930 . S
H875 C867 0.929 . S
H876 C884 0.929 . S
H877 C886 0.930 . S
H878 C888 0.930 . S
H879 C891 0.929 . S
H880 C894 0.930 . S
H881 C896 0.960 . S
H882 C896 0.960 . S
H883 C896 0.960 . S
C884 H876 0.929 . S
C884 C885 1.377 . S
C884 C886 1.384 . S
C885 C884 1.377 . S
C885 C891 1.390 . S
C886 H877 0.930 . S
C886 C884 1.384 . S
C886 C887 1.372 . S
C887 C886 1.372 . S
C887 C888 1.400 . S
C887 C892 1.490 . S
C888 H878 0.930 . S
C888 C887 1.400 . S
C888 C891 1.386 . S
H889 C905 0.930 . S
H890 C906 0.931 . S
C891 H879 0.929 . S
C891 C885 1.390 . S
C891 C888 1.386 . S
C892 C887 1.490 . S
C892 C894 1.395 . S
C892 C895 1.403 . S
H893 C899 0.930 . S
C894 H880 0.930 . S
C894 C892 1.395 . S
C894 C897 1.403 . S
C895 C892 1.403 . S
C895 C896 1.524 . S
C895 C899 1.400 . S
C896 H881 0.960 . S
C896 H882 0.960 . S
C896 H883 0.960 . S
C896 C895 1.524 . S
C897 C894 1.403 . S
C897 C898 1.392 . S
C897 C901 1.495 . S
C898 C897 1.392 . S
C898 C899 1.385 . S
C898 C900 1.478 . S
C899 H893 0.930 . S
C899 C895 1.400 . S
C899 C898 1.385 . S
C900 C898 1.478 . S
C900 C902 1.381 . S
C900 C906 1.383 . S
C901 C897 1.495 . S
C901 H907 0.959 . S
C901 H908 0.961 . S
C901 H909 0.960 . S
C902 C900 1.381 . S
C902 C903 1.394 . S
C902 H910 0.930 . S
C903 C902 1.394 . S
C903 C904 1.383 . S
C903 H911 0.929 . S
C904 C903 1.383 . S
C904 C905 1.377 . S
C905 H889 0.930 . S
C905 C904 1.377 . S
C905 C906 1.379 . S
C906 H890 0.931 . S
C906 C900 1.383 . S
C906 C905 1.379 . S
H907 C901 0.959 . S
H908 C901 0.961 . S
H909 C901 0.960 . S
H910 C902 0.930 . S
H911 C903 0.929 . S
H912 C920 0.929 . S
H913 C922 0.930 . S
H914 C924 0.930 . S
H915 C927 0.929 . S
H916 C930 0.930 . S
H917 C932 0.960 . S
H918 C932 0.960 . S
H919 C932 0.960 . S
C920 H912 0.929 . S
C920 C921 1.377 . S
C920 C922 1.384 . S
C921 C920 1.377 . S
C921 C927 1.390 . S
C922 H913 0.930 . S
C922 C920 1.384 . S
C922 C923 1.372 . S
C923 C922 1.372 . S
C923 C924 1.400 . S
C923 C928 1.490 . S
C924 H914 0.930 . S
C924 C923 1.400 . S
C924 C927 1.386 . S
H925 C941 0.930 . S
H926 C942 0.931 . S
C927 H915 0.929 . S
C927 C921 1.390 . S
C927 C924 1.386 . S
C928 C923 1.490 . S
C928 C930 1.395 . S
C928 C931 1.403 . S
H929 C935 0.930 . S
C930 H916 0.930 . S
C930 C928 1.395 . S
C930 C933 1.403 . S
C931 C928 1.403 . S
C931 C932 1.524 . S
C931 C935 1.400 . S
C932 H917 0.960 . S
C932 H918 0.960 . S
C932 H919 0.960 . S
C932 C931 1.524 . S
C933 C930 1.403 . S
C933 C934 1.392 . S
C933 C937 1.495 . S
C934 C933 1.392 . S
C934 C935 1.385 . S
C934 C936 1.478 . S
C935 H929 0.930 . S
C935 C931 1.400 . S
C935 C934 1.385 . S
C936 C934 1.478 . S
C936 C938 1.381 . S
C936 C942 1.383 . S
C937 C933 1.495 . S
C937 H943 0.959 . S
C937 H944 0.961 . S
C937 H945 0.960 . S
C938 C936 1.381 . S
C938 C939 1.394 . S
C938 H946 0.930 . S
C939 C938 1.394 . S
C939 C940 1.383 . S
C939 H947 0.929 . S
C940 C939 1.383 . S
C940 C941 1.377 . S
C941 H925 0.930 . S
C941 C940 1.377 . S
C941 C942 1.379 . S
C942 H926 0.931 . S
C942 C936 1.383 . S
C942 C941 1.379 . S
H943 C937 0.959 . S
H944 C937 0.961 . S
H945 C937 0.960 . S
H946 C938 0.930 . S
H947 C939 0.929 . S
H948 C956 0.929 . S
H949 C958 0.930 . S
H950 C960 0.930 . S
H951 C963 0.929 . S
H952 C966 0.930 . S
H953 C968 0.960 . S
H954 C968 0.960 . S
H955 C968 0.960 . S
C956 H948 0.929 . S
C956 C957 1.377 . S
C956 C958 1.384 . S
C957 C956 1.377 . S
C957 C963 1.390 . S
C958 H949 0.930 . S
C958 C956 1.384 . S
C958 C959 1.372 . S
C959 C958 1.372 . S
C959 C960 1.400 . S
C959 C964 1.490 . S
C960 H950 0.930 . S
C960 C959 1.400 . S
C960 C963 1.386 . S
H961 C977 0.930 . S
H962 C978 0.931 . S
C963 H951 0.929 . S
C963 C957 1.390 . S
C963 C960 1.386 . S
C964 C959 1.490 . S
C964 C966 1.395 . S
C964 C967 1.403 . S
H965 C971 0.930 . S
C966 H952 0.930 . S
C966 C964 1.395 . S
C966 C969 1.403 . S
C967 C964 1.403 . S
C967 C968 1.524 . S
C967 C971 1.400 . S
C968 H953 0.960 . S
C968 H954 0.960 . S
C968 H955 0.960 . S
C968 C967 1.524 . S
C969 C966 1.403 . S
C969 C970 1.392 . S
C969 C973 1.495 . S
C970 C969 1.392 . S
C970 C971 1.385 . S
C970 C972 1.478 . S
C971 H965 0.930 . S
C971 C967 1.400 . S
C971 C970 1.385 . S
C972 C970 1.478 . S
C972 C974 1.381 . S
C972 C978 1.383 . S
C973 C969 1.495 . S
C973 H979 0.959 . S
C973 H980 0.961 . S
C973 H981 0.960 . S
C974 C972 1.381 . S
C974 C975 1.394 . S
C974 H982 0.930 . S
C975 C974 1.394 . S
C975 C976 1.383 . S
C975 H983 0.929 . S
C976 C975 1.383 . S
C976 C977 1.377 . S
C977 H961 0.930 . S
C977 C976 1.377 . S
C977 C978 1.379 . S
C978 H962 0.931 . S
C978 C972 1.383 . S
C978 C977 1.379 . S
H979 C973 0.959 . S
H980 C973 0.961 . S
H981 C973 0.960 . S
H982 C974 0.930 . S
H983 C975 0.929 . S
H984 C992 0.929 . S
H985 C994 0.930 . S
H986 C996 0.930 . S
H987 C999 0.929 . S
H988 C1002 0.930 . S
H989 C1004 0.960 . S
H990 C1004 0.960 . S
H991 C1004 0.960 . S
C992 H984 0.929 . S
C992 C993 1.377 . S
C992 C994 1.384 . S
C993 C992 1.377 . S
C993 C999 1.390 . S
C994 H985 0.930 . S
C994 C992 1.384 . S
C994 C995 1.372 . S
C995 C994 1.372 . S
C995 C996 1.400 . S
C995 C1000 1.490 . S
C996 H986 0.930 . S
C996 C995 1.400 . S
C996 C999 1.386 . S
H997 C1013 0.930 . S
H998 C1014 0.931 . S
C999 H987 0.929 . S
C999 C993 1.390 . S
C999 C996 1.386 . S
C1000 C995 1.490 . S
C1000 C1002 1.395 . S
C1000 C1003 1.403 . S
H1001 C1007 0.930 . S
C1002 H988 0.930 . S
C1002 C1000 1.395 . S
C1002 C1005 1.403 . S
C1003 C1000 1.403 . S
C1003 C1004 1.524 . S
C1003 C1007 1.400 . S
C1004 H989 0.960 . S
C1004 H990 0.960 . S
C1004 H991 0.960 . S
C1004 C1003 1.524 . S
C1005 C1002 1.403 . S
C1005 C1006 1.392 . S
C1005 C1009 1.495 . S
C1006 C1005 1.392 . S
C1006 C1007 1.385 . S
C1006 C1008 1.478 . S
C1007 H1001 0.930 . S
C1007 C1003 1.400 . S
C1007 C1006 1.385 . S
C1008 C1006 1.478 . S
C1008 C1010 1.381 . S
C1008 C1014 1.383 . S
C1009 C1005 1.495 . S
C1009 H1015 0.959 . S
C1009 H1016 0.961 . S
C1009 H1017 0.960 . S
C1010 C1008 1.381 . S
C1010 C1011 1.394 . S
C1010 H1018 0.930 . S
C1011 C1010 1.394 . S
C1011 C1012 1.383 . S
C1011 H1019 0.929 . S
C1012 C1011 1.383 . S
C1012 C1013 1.377 . S
C1013 H997 0.930 . S
C1013 C1012 1.377 . S
C1013 C1014 1.379 . S
C1014 H998 0.931 . S
C1014 C1008 1.383 . S
C1014 C1013 1.379 . S
H1015 C1009 0.959 . S
H1016 C1009 0.961 . S
H1017 C1009 0.960 . S
H1018 C1010 0.930 . S
H1019 C1011 0.929 . S
H1020 C1028 0.929 . S
H1021 C1030 0.930 . S
H1022 C1032 0.930 . S
H1023 C1035 0.929 . S
H1024 C1038 0.930 . S
H1025 C1040 0.960 . S
H1026 C1040 0.960 . S
H1027 C1040 0.960 . S
C1028 H1020 0.929 . S
C1028 C1029 1.377 . S
C1028 C1030 1.384 . S
C1029 C1028 1.377 . S
C1029 C1035 1.390 . S
C1030 H1021 0.930 . S
C1030 C1028 1.384 . S
C1030 C1031 1.372 . S
C1031 C1030 1.372 . S
C1031 C1032 1.400 . S
C1031 C1036 1.490 . S
C1032 H1022 0.930 . S
C1032 C1031 1.400 . S
C1032 C1035 1.386 . S
H1033 C1049 0.930 . S
H1034 C1050 0.931 . S
C1035 H1023 0.929 . S
C1035 C1029 1.390 . S
C1035 C1032 1.386 . S
C1036 C1031 1.490 . S
C1036 C1038 1.395 . S
C1036 C1039 1.403 . S
H1037 C1043 0.930 . S
C1038 H1024 0.930 . S
C1038 C1036 1.395 . S
C1038 C1041 1.403 . S
C1039 C1036 1.403 . S
C1039 C1040 1.524 . S
C1039 C1043 1.400 . S
C1040 H1025 0.960 . S
C1040 H1026 0.960 . S
C1040 H1027 0.960 . S
C1040 C1039 1.524 . S
C1041 C1038 1.403 . S
C1041 C1042 1.392 . S
C1041 C1045 1.495 . S
C1042 C1041 1.392 . S
C1042 C1043 1.385 . S
C1042 C1044 1.478 . S
C1043 H1037 0.930 . S
C1043 C1039 1.400 . S
C1043 C1042 1.385 . S
C1044 C1042 1.478 . S
C1044 C1046 1.381 . S
C1044 C1050 1.383 . S
C1045 C1041 1.495 . S
C1045 H1051 0.959 . S
C1045 H1052 0.961 . S
C1045 H1053 0.960 . S
C1046 C1044 1.381 . S
C1046 C1047 1.394 . S
C1046 H1054 0.930 . S
C1047 C1046 1.394 . S
C1047 C1048 1.383 . S
C1047 H1055 0.929 . S
C1048 C1047 1.383 . S
C1048 C1049 1.377 . S
C1049 H1033 0.930 . S
C1049 C1048 1.377 . S
C1049 C1050 1.379 . S
C1050 H1034 0.931 . S
C1050 C1044 1.383 . S
C1050 C1049 1.379 . S
H1051 C1045 0.959 . S
H1052 C1045 0.961 . S
H1053 C1045 0.960 . S
H1054 C1046 0.930 . S
H1055 C1047 0.929 . S
H1056 C1064 0.929 . S
H1057 C1066 0.930 . S
H1058 C1068 0.930 . S
H1059 C1071 0.929 . S
H1060 C1074 0.930 . S
H1061 C1076 0.960 . S
H1062 C1076 0.960 . S
H1063 C1076 0.960 . S
C1064 H1056 0.929 . S
C1064 C1065 1.377 . S
C1064 C1066 1.384 . S
C1065 C1064 1.377 . S
C1065 C1071 1.390 . S
C1066 H1057 0.930 . S
C1066 C1064 1.384 . S
C1066 C1067 1.372 . S
C1067 C1066 1.372 . S
C1067 C1068 1.400 . S
C1067 C1072 1.490 . S
C1068 H1058 0.930 . S
C1068 C1067 1.400 . S
C1068 C1071 1.386 . S
H1069 C1085 0.930 . S
H1070 C1086 0.931 . S
C1071 H1059 0.929 . S
C1071 C1065 1.390 . S
C1071 C1068 1.386 . S
C1072 C1067 1.490 . S
C1072 C1074 1.395 . S
C1072 C1075 1.403 . S
H1073 C1079 0.930 . S
C1074 H1060 0.930 . S
C1074 C1072 1.395 . S
C1074 C1077 1.403 . S
C1075 C1072 1.403 . S
C1075 C1076 1.524 . S
C1075 C1079 1.400 . S
C1076 H1061 0.960 . S
C1076 H1062 0.960 . S
C1076 H1063 0.960 . S
C1076 C1075 1.524 . S
C1077 C1074 1.403 . S
C1077 C1078 1.392 . S
C1077 C1081 1.495 . S
C1078 C1077 1.392 . S
C1078 C1079 1.385 . S
C1078 C1080 1.478 . S
C1079 H1073 0.930 . S
C1079 C1075 1.400 . S
C1079 C1078 1.385 . S
C1080 C1078 1.478 . S
C1080 C1082 1.381 . S
C1080 C1086 1.383 . S
C1081 C1077 1.495 . S
C1081 H1087 0.959 . S
C1081 H1088 0.961 . S
C1081 H1089 0.960 . S
C1082 C1080 1.381 . S
C1082 C1083 1.394 . S
C1082 H1090 0.930 . S
C1083 C1082 1.394 . S
C1083 C1084 1.383 . S
C1083 H1091 0.929 . S
C1084 C1083 1.383 . S
C1084 C1085 1.377 . S
C1085 H1069 0.930 . S
C1085 C1084 1.377 . S
C1085 C1086 1.379 . S
C1086 H1070 0.931 . S
C1086 C1080 1.383 . S
C1086 C1085 1.379 . S
H1087 C1081 0.959 . S
H1088 C1081 0.961 . S
H1089 C1081 0.960 . S
H1090 C1082 0.930 . S
H1091 C1083 0.929 . S
H1092 C1100 0.929 . S
H1093 C1102 0.930 . S
H1094 C1104 0.930 . S
H1095 C1107 0.929 . S
H1096 C1110 0.930 . S
H1097 C1112 0.960 . S
H1098 C1112 0.960 . S
H1099 C1112 0.960 . S
C1100 H1092 0.929 . S
C1100 C1101 1.377 . S
C1100 C1102 1.384 . S
C1101 C1100 1.377 . S
C1101 C1107 1.390 . S
C1102 H1093 0.930 . S
C1102 C1100 1.384 . S
C1102 C1103 1.372 . S
C1103 C1102 1.372 . S
C1103 C1104 1.400 . S
C1103 C1108 1.490 . S
C1104 H1094 0.930 . S
C1104 C1103 1.400 . S
C1104 C1107 1.386 . S
H1105 C1121 0.930 . S
H1106 C1122 0.931 . S
C1107 H1095 0.929 . S
C1107 C1101 1.390 . S
C1107 C1104 1.386 . S
C1108 C1103 1.490 . S
C1108 C1110 1.395 . S
C1108 C1111 1.403 . S
H1109 C1115 0.930 . S
C1110 H1096 0.930 . S
C1110 C1108 1.395 . S
C1110 C1113 1.403 . S
C1111 C1108 1.403 . S
C1111 C1112 1.524 . S
C1111 C1115 1.400 . S
C1112 H1097 0.960 . S
C1112 H1098 0.960 . S
C1112 H1099 0.960 . S
C1112 C1111 1.524 . S
C1113 C1110 1.403 . S
C1113 C1114 1.392 . S
C1113 C1117 1.495 . S
C1114 C1113 1.392 . S
C1114 C1115 1.385 . S
C1114 C1116 1.478 . S
C1115 H1109 0.930 . S
C1115 C1111 1.400 . S
C1115 C1114 1.385 . S
C1116 C1114 1.478 . S
C1116 C1118 1.381 . S
C1116 C1122 1.383 . S
C1117 C1113 1.495 . S
C1117 H1123 0.959 . S
C1117 H1124 0.961 . S
C1117 H1125 0.960 . S
C1118 C1116 1.381 . S
C1118 C1119 1.394 . S
C1118 H1126 0.930 . S
C1119 C1118 1.394 . S
C1119 C1120 1.383 . S
C1119 H1127 0.929 . S
C1120 C1119 1.383 . S
C1120 C1121 1.377 . S
C1121 H1105 0.930 . S
C1121 C1120 1.377 . S
C1121 C1122 1.379 . S
C1122 H1106 0.931 . S
C1122 C1116 1.383 . S
C1122 C1121 1.379 . S
H1123 C1117 0.959 . S
H1124 C1117 0.961 . S
H1125 C1117 0.960 . S
H1126 C1118 0.930 . S
H1127 C1119 0.929 . S
H1128 C1136 0.929 . S
H1129 C1138 0.930 . S
H1130 C1140 0.930 . S
H1131 C1143 0.929 . S
H1132 C1146 0.930 . S
H1133 C1148 0.960 . S
H1134 C1148 0.960 . S
H1135 C1148 0.960 . S
C1136 H1128 0.929 . S
C1136 C1137 1.377 . S
C1136 C1138 1.384 . S
C1137 C1136 1.377 . S
C1137 C1143 1.390 . S
C1138 H1129 0.930 . S
C1138 C1136 1.384 . S
C1138 C1139 1.372 . S
C1139 C1138 1.372 . S
C1139 C1140 1.400 . S
C1139 C1144 1.490 . S
C1140 H1130 0.930 . S
C1140 C1139 1.400 . S
C1140 C1143 1.386 . S
H1141 C1157 0.930 . S
H1142 C1158 0.931 . S
C1143 H1131 0.929 . S
C1143 C1137 1.390 . S
C1143 C1140 1.386 . S
C1144 C1139 1.490 . S
C1144 C1146 1.395 . S
C1144 C1147 1.403 . S
H1145 C1151 0.930 . S
C1146 H1132 0.930 . S
C1146 C1144 1.395 . S
C1146 C1149 1.403 . S
C1147 C1144 1.403 . S
C1147 C1148 1.524 . S
C1147 C1151 1.400 . S
C1148 H1133 0.960 . S
C1148 H1134 0.960 . S
C1148 H1135 0.960 . S
C1148 C1147 1.524 . S
C1149 C1146 1.403 . S
C1149 C1150 1.392 . S
C1149 C1153 1.495 . S
C1150 C1149 1.392 . S
C1150 C1151 1.385 . S
C1150 C1152 1.478 . S
C1151 H1145 0.930 . S
C1151 C1147 1.400 . S
C1151 C1150 1.385 . S
C1152 C1150 1.478 . S
C1152 C1154 1.381 . S
C1152 C1158 1.383 . S
C1153 C1149 1.495 . S
C1153 H1159 0.959 . S
C1153 H1160 0.961 . S
C1153 H1161 0.960 . S
C1154 C1152 1.381 . S
C1154 C1155 1.394 . S
C1154 H1162 0.930 . S
C1155 C1154 1.394 . S
C1155 C1156 1.383 . S
C1155 H1163 0.929 . S
C1156 C1155 1.383 . S
C1156 C1157 1.377 . S
C1157 H1141 0.930 . S
C1157 C1156 1.377 . S
C1157 C1158 1.379 . S
C1158 H1142 0.931 . S
C1158 C1152 1.383 . S
C1158 C1157 1.379 . S
H1159 C1153 0.959 . S
H1160 C1153 0.961 . S
H1161 C1153 0.960 . S
H1162 C1154 0.930 . S
H1163 C1155 0.929 . S
H1164 C1172 0.929 . S
H1165 C1174 0.930 . S
H1166 C1176 0.930 . S
H1167 C1179 0.929 . S
H1168 C1182 0.930 . S
H1169 C1184 0.960 . S
H1170 C1184 0.960 . S
H1171 C1184 0.960 . S
C1172 H1164 0.929 . S
C1172 C1173 1.377 . S
C1172 C1174 1.384 . S
C1173 C1172 1.377 . S
C1173 C1179 1.390 . S
C1174 H1165 0.930 . S
C1174 C1172 1.384 . S
C1174 C1175 1.372 . S
C1175 C1174 1.372 . S
C1175 C1176 1.400 . S
C1175 C1180 1.490 . S
C1176 H1166 0.930 . S
C1176 C1175 1.400 . S
C1176 C1179 1.386 . S
H1177 C1193 0.930 . S
H1178 C1194 0.931 . S
C1179 H1167 0.929 . S
C1179 C1173 1.390 . S
C1179 C1176 1.386 . S
C1180 C1175 1.490 . S
C1180 C1182 1.395 . S
C1180 C1183 1.403 . S
H1181 C1187 0.930 . S
C1182 H1168 0.930 . S
C1182 C1180 1.395 . S
C1182 C1185 1.403 . S
C1183 C1180 1.403 . S
C1183 C1184 1.524 . S
C1183 C1187 1.400 . S
C1184 H1169 0.960 . S
C1184 H1170 0.960 . S
C1184 H1171 0.960 . S
C1184 C1183 1.524 . S
C1185 C1182 1.403 . S
C1185 C1186 1.392 . S
C1185 C1189 1.495 . S
C1186 C1185 1.392 . S
C1186 C1187 1.385 . S
C1186 C1188 1.478 . S
C1187 H1181 0.930 . S
C1187 C1183 1.400 . S
C1187 C1186 1.385 . S
C1188 C1186 1.478 . S
C1188 C1190 1.381 . S
C1188 C1194 1.383 . S
C1189 C1185 1.495 . S
C1189 H1195 0.959 . S
C1189 H1196 0.961 . S
C1189 H1197 0.960 . S
C1190 C1188 1.381 . S
C1190 C1191 1.394 . S
C1190 H1198 0.930 . S
C1191 C1190 1.394 . S
C1191 C1192 1.383 . S
C1191 H1199 0.929 . S
C1192 C1191 1.383 . S
C1192 C1193 1.377 . S
C1193 H1177 0.930 . S
C1193 C1192 1.377 . S
C1193 C1194 1.379 . S
C1194 H1178 0.931 . S
C1194 C1188 1.383 . S
C1194 C1193 1.379 . S
H1195 C1189 0.959 . S
H1196 C1189 0.961 . S
H1197 C1189 0.960 . S
H1198 C1190 0.930 . S
H1199 C1191 0.929 . S
H1200 C1208 0.929 . S
H1201 C1210 0.930 . S
H1202 C1212 0.930 . S
H1203 C1215 0.929 . S
H1204 C1218 0.930 . S
H1205 C1220 0.960 . S
H1206 C1220 0.960 . S
H1207 C1220 0.960 . S
C1208 H1200 0.929 . S
C1208 C1209 1.377 . S
C1208 C1210 1.384 . S
C1209 C1208 1.377 . S
C1209 C1215 1.390 . S
C1210 H1201 0.930 . S
C1210 C1208 1.384 . S
C1210 C1211 1.372 . S
C1211 C1210 1.372 . S
C1211 C1212 1.400 . S
C1211 C1216 1.490 . S
C1212 H1202 0.930 . S
C1212 C1211 1.400 . S
C1212 C1215 1.386 . S
H1213 C1229 0.930 . S
H1214 C1230 0.931 . S
C1215 H1203 0.929 . S
C1215 C1209 1.390 . S
C1215 C1212 1.386 . S
C1216 C1211 1.490 . S
C1216 C1218 1.395 . S
C1216 C1219 1.403 . S
H1217 C1223 0.930 . S
C1218 H1204 0.930 . S
C1218 C1216 1.395 . S
C1218 C1221 1.403 . S
C1219 C1216 1.403 . S
C1219 C1220 1.524 . S
C1219 C1223 1.400 . S
C1220 H1205 0.960 . S
C1220 H1206 0.960 . S
C1220 H1207 0.960 . S
C1220 C1219 1.524 . S
C1221 C1218 1.403 . S
C1221 C1222 1.392 . S
C1221 C1225 1.495 . S
C1222 C1221 1.392 . S
C1222 C1223 1.385 . S
C1222 C1224 1.478 . S
C1223 H1217 0.930 . S
C1223 C1219 1.400 . S
C1223 C1222 1.385 . S
C1224 C1222 1.478 . S
C1224 C1226 1.381 . S
C1224 C1230 1.383 . S
C1225 C1221 1.495 . S
C1225 H1231 0.959 . S
C1225 H1232 0.961 . S
C1225 H1233 0.960 . S
C1226 C1224 1.381 . S
C1226 C1227 1.394 . S
C1226 H1234 0.930 . S
C1227 C1226 1.394 . S
C1227 C1228 1.383 . S
C1227 H1235 0.929 . S
C1228 C1227 1.383 . S
C1228 C1229 1.377 . S
C1229 H1213 0.930 . S
C1229 C1228 1.377 . S
C1229 C1230 1.379 . S
C1230 H1214 0.931 . S
C1230 C1224 1.383 . S
C1230 C1229 1.379 . S
H1231 C1225 0.959 . S
H1232 C1225 0.961 . S
H1233 C1225 0.960 . S
H1234 C1226 0.930 . S
H1235 C1227 0.929 . S
H1236 C1244 0.929 . S
H1237 C1246 0.930 . S
H1238 C1248 0.930 . S
H1239 C1251 0.929 . S
H1240 C1254 0.930 . S
H1241 C1256 0.960 . S
H1242 C1256 0.960 . S
H1243 C1256 0.960 . S
C1244 H1236 0.929 . S
C1244 C1245 1.377 . S
C1244 C1246 1.384 . S
C1245 C1244 1.377 . S
C1245 C1251 1.390 . S
C1246 H1237 0.930 . S
C1246 C1244 1.384 . S
C1246 C1247 1.372 . S
C1247 C1246 1.372 . S
C1247 C1248 1.400 . S
C1247 C1252 1.490 . S
C1248 H1238 0.930 . S
C1248 C1247 1.400 . S
C1248 C1251 1.386 . S
H1249 C1265 0.930 . S
H1250 C1266 0.931 . S
C1251 H1239 0.929 . S
C1251 C1245 1.390 . S
C1251 C1248 1.386 . S
C1252 C1247 1.490 . S
C1252 C1254 1.395 . S
C1252 C1255 1.403 . S
H1253 C1259 0.930 . S
C1254 H1240 0.930 . S
C1254 C1252 1.395 . S
C1254 C1257 1.403 . S
C1255 C1252 1.403 . S
C1255 C1256 1.524 . S
C1255 C1259 1.400 . S
C1256 H1241 0.960 . S
C1256 H1242 0.960 . S
C1256 H1243 0.960 . S
C1256 C1255 1.524 . S
C1257 C1254 1.403 . S
C1257 C1258 1.392 . S
C1257 C1261 1.495 . S
C1258 C1257 1.392 . S
C1258 C1259 1.385 . S
C1258 C1260 1.478 . S
C1259 H1253 0.930 . S
C1259 C1255 1.400 . S
C1259 C1258 1.385 . S
C1260 C1258 1.478 . S
C1260 C1262 1.381 . S
C1260 C1266 1.383 . S
C1261 C1257 1.495 . S
C1261 H1267 0.959 . S
C1261 H1268 0.961 . S
C1261 H1269 0.960 . S
C1262 C1260 1.381 . S
C1262 C1263 1.394 . S
C1262 H1270 0.930 . S
C1263 C1262 1.394 . S
C1263 C1264 1.383 . S
C1263 H1271 0.929 . S
C1264 C1263 1.383 . S
C1264 C1265 1.377 . S
C1265 H1249 0.930 . S
C1265 C1264 1.377 . S
C1265 C1266 1.379 . S
C1266 H1250 0.931 . S
C1266 C1260 1.383 . S
C1266 C1265 1.379 . S
H1267 C1261 0.959 . S
H1268 C1261 0.961 . S
H1269 C1261 0.960 . S
H1270 C1262 0.930 . S
H1271 C1263 0.929 . S
H1272 C1280 0.929 . S
H1273 C1282 0.930 . S
H1274 C1284 0.930 . S
H1275 C1287 0.929 . S
H1276 C1290 0.930 . S
H1277 C1292 0.960 . S
H1278 C1292 0.960 . S
H1279 C1292 0.960 . S
C1280 H1272 0.929 . S
C1280 C1281 1.377 . S
C1280 C1282 1.384 . S
C1281 C1280 1.377 . S
C1281 C1287 1.390 . S
C1282 H1273 0.930 . S
C1282 C1280 1.384 . S
C1282 C1283 1.372 . S
C1283 C1282 1.372 . S
C1283 C1284 1.400 . S
C1283 C1288 1.490 . S
C1284 H1274 0.930 . S
C1284 C1283 1.400 . S
C1284 C1287 1.386 . S
H1285 C1301 0.930 . S
H1286 C1302 0.931 . S
C1287 H1275 0.929 . S
C1287 C1281 1.390 . S
C1287 C1284 1.386 . S
C1288 C1283 1.490 . S
C1288 C1290 1.395 . S
C1288 C1291 1.403 . S
H1289 C1295 0.930 . S
C1290 H1276 0.930 . S
C1290 C1288 1.395 . S
C1290 C1293 1.403 . S
C1291 C1288 1.403 . S
C1291 C1292 1.524 . S
C1291 C1295 1.400 . S
C1292 H1277 0.960 . S
C1292 H1278 0.960 . S
C1292 H1279 0.960 . S
C1292 C1291 1.524 . S
C1293 C1290 1.403 . S
C1293 C1294 1.392 . S
C1293 C1297 1.495 . S
C1294 C1293 1.392 . S
C1294 C1295 1.385 . S
C1294 C1296 1.478 . S
C1295 H1289 0.930 . S
C1295 C1291 1.400 . S
C1295 C1294 1.385 . S
C1296 C1294 1.478 . S
C1296 C1298 1.381 . S
C1296 C1302 1.383 . S
C1297 C1293 1.495 . S
C1297 H1303 0.959 . S
C1297 H1304 0.961 . S
C1297 H1305 0.960 . S
C1298 C1296 1.381 . S
C1298 C1299 1.394 . S
C1298 H1306 0.930 . S
C1299 C1298 1.394 . S
C1299 C1300 1.383 . S
C1299 H1307 0.929 . S
C1300 C1299 1.383 . S
C1300 C1301 1.377 . S
C1301 H1285 0.930 . S
C1301 C1300 1.377 . S
C1301 C1302 1.379 . S
C1302 H1286 0.931 . S
C1302 C1296 1.383 . S
C1302 C1301 1.379 . S
H1303 C1297 0.959 . S
H1304 C1297 0.961 . S
H1305 C1297 0.960 . S
H1306 C1298 0.930 . S
H1307 C1299 0.929 . S
H1308 C1316 0.929 . S
H1309 C1318 0.930 . S
H1310 C1320 0.930 . S
H1311 C1323 0.929 . S
H1312 C1326 0.930 . S
H1313 C1328 0.960 . S
H1314 C1328 0.960 . S
H1315 C1328 0.960 . S
C1316 H1308 0.929 . S
C1316 C1317 1.377 . S
C1316 C1318 1.384 . S
C1317 C1316 1.377 . S
C1317 C1323 1.390 . S
C1318 H1309 0.930 . S
C1318 C1316 1.384 . S
C1318 C1319 1.372 . S
C1319 C1318 1.372 . S
C1319 C1320 1.400 . S
C1319 C1324 1.490 . S
C1320 H1310 0.930 . S
C1320 C1319 1.400 . S
C1320 C1323 1.386 . S
H1321 C1337 0.930 . S
H1322 C1338 0.937 1_556 S
C1323 H1311 0.929 . S
C1323 C1317 1.390 . S
C1323 C1320 1.386 . S
C1324 C1319 1.490 . S
C1324 C1326 1.395 . S
C1324 C1327 1.403 . S
H1325 C1331 0.930 . S
C1326 H1312 0.930 . S
C1326 C1324 1.395 . S
C1326 C1329 1.403 . S
C1327 C1324 1.403 . S
C1327 C1328 1.524 . S
C1327 C1331 1.400 . S
C1328 H1313 0.960 . S
C1328 H1314 0.960 . S
C1328 H1315 0.960 . S
C1328 C1327 1.524 . S
C1329 C1326 1.403 . S
C1329 C1330 1.392 . S
C1329 C1333 1.486 1_556 S
C1330 C1329 1.392 . S
C1330 C1331 1.385 . S
C1330 C1332 1.478 1_556 S
C1331 H1325 0.930 . S
C1331 C1327 1.400 . S
C1331 C1330 1.385 . S
C1332 C1330 1.478 1_554 S
C1332 C1334 1.381 . S
C1332 C1338 1.383 . S
C1333 C1329 1.486 1_554 S
C1333 H1339 0.951 1_554 S
C1333 H1340 0.963 . S
C1333 H1341 0.975 . S
C1334 C1332 1.381 . S
C1334 C1335 1.394 . S
C1334 H1342 0.930 . S
C1335 C1334 1.394 . S
C1335 C1336 1.383 . S
C1335 H1343 0.929 . S
C1336 C1335 1.383 . S
C1336 C1337 1.377 . S
C1337 H1321 0.930 . S
C1337 C1336 1.377 . S
C1337 C1338 1.379 . S
C1338 H1322 0.937 1_554 S
C1338 C1332 1.383 . S
C1338 C1337 1.379 . S
H1339 C1333 0.951 1_556 S
H1340 C1333 0.963 . S
H1341 C1333 0.975 . S
H1342 C1334 0.930 . S
H1343 C1335 0.929 . S
H1344 C1352 0.929 . S
H1345 C1354 0.930 . S
H1346 C1356 0.930 . S
H1347 C1359 0.929 . S
H1348 C1362 0.930 . S
H1349 C1364 0.960 . S
H1350 C1364 0.960 . S
H1351 C1364 0.960 . S
C1352 H1344 0.929 . S
C1352 C1353 1.377 . S
C1352 C1354 1.384 . S
C1353 C1352 1.377 . S
C1353 C1359 1.390 . S
C1354 H1345 0.930 . S
C1354 C1352 1.384 . S
C1354 C1355 1.372 . S
C1355 C1354 1.372 . S
C1355 C1356 1.400 . S
C1355 C1360 1.490 . S
C1356 H1346 0.930 . S
C1356 C1355 1.400 . S
C1356 C1359 1.386 . S
H1357 C1373 0.930 . S
H1358 C1374 0.931 . S
C1359 H1347 0.929 . S
C1359 C1353 1.390 . S
C1359 C1356 1.386 . S
C1360 C1355 1.490 . S
C1360 C1362 1.395 . S
C1360 C1363 1.403 . S
H1361 C1367 0.930 . S
C1362 H1348 0.930 . S
C1362 C1360 1.395 . S
C1362 C1365 1.403 . S
C1363 C1360 1.403 . S
C1363 C1364 1.524 . S
C1363 C1367 1.400 . S
C1364 H1349 0.960 . S
C1364 H1350 0.960 . S
C1364 H1351 0.960 . S
C1364 C1363 1.524 . S
C1365 C1362 1.403 . S
C1365 C1366 1.392 . S
C1365 C1369 1.495 . S
C1366 C1365 1.392 . S
C1366 C1367 1.385 . S
C1366 C1368 1.478 . S
C1367 H1361 0.930 . S
C1367 C1363 1.400 . S
C1367 C1366 1.385 . S
C1368 C1366 1.478 . S
C1368 C1370 1.381 . S
C1368 C1374 1.383 . S
C1369 C1365 1.495 . S
C1369 H1375 0.959 . S
C1369 H1376 0.961 . S
C1369 H1377 0.960 . S
C1370 C1368 1.381 . S
C1370 C1371 1.394 . S
C1370 H1378 0.930 . S
C1371 C1370 1.394 . S
C1371 C1372 1.383 . S
C1371 H1379 0.929 . S
C1372 C1371 1.383 . S
C1372 C1373 1.377 . S
C1373 H1357 0.930 . S
C1373 C1372 1.377 . S
C1373 C1374 1.379 . S
C1374 H1358 0.931 . S
C1374 C1368 1.383 . S
C1374 C1373 1.379 . S
H1375 C1369 0.959 . S
H1376 C1369 0.961 . S
H1377 C1369 0.960 . S
H1378 C1370 0.930 . S
H1379 C1371 0.929 . S
H1380 C1388 0.929 . S
H1381 C1390 0.930 . S
H1382 C1392 0.930 . S
H1383 C1395 0.929 . S
H1384 C1398 0.930 . S
H1385 C1400 0.960 . S
H1386 C1400 0.960 . S
H1387 C1400 0.960 . S
C1388 H1380 0.929 . S
C1388 C1389 1.377 . S
C1388 C1390 1.384 . S
C1389 C1388 1.377 . S
C1389 C1395 1.390 . S
C1390 H1381 0.930 . S
C1390 C1388 1.384 . S
C1390 C1391 1.372 . S
C1391 C1390 1.372 . S
C1391 C1392 1.400 . S
C1391 C1396 1.490 . S
C1392 H1382 0.930 . S
C1392 C1391 1.400 . S
C1392 C1395 1.386 . S
H1393 C1409 0.930 . S
H1394 C1410 0.931 . S
C1395 H1383 0.929 . S
C1395 C1389 1.390 . S
C1395 C1392 1.386 . S
C1396 C1391 1.490 . S
C1396 C1398 1.395 . S
C1396 C1399 1.403 . S
H1397 C1403 0.930 . S
C1398 H1384 0.930 . S
C1398 C1396 1.395 . S
C1398 C1401 1.403 . S
C1399 C1396 1.403 . S
C1399 C1400 1.524 . S
C1399 C1403 1.400 . S
C1400 H1385 0.960 . S
C1400 H1386 0.960 . S
C1400 H1387 0.960 . S
C1400 C1399 1.524 . S
C1401 C1398 1.403 . S
C1401 C1402 1.392 . S
C1401 C1405 1.495 . S
C1402 C1401 1.392 . S
C1402 C1403 1.385 . S
C1402 C1404 1.478 . S
C1403 H1397 0.930 . S
C1403 C1399 1.400 . S
C1403 C1402 1.385 . S
C1404 C1402 1.478 . S
C1404 C1406 1.381 . S
C1404 C1410 1.383 . S
C1405 C1401 1.495 . S
C1405 H1411 0.959 . S
C1405 H1412 0.961 . S
C1405 H1413 0.960 . S
C1406 C1404 1.381 . S
C1406 C1407 1.394 . S
C1406 H1414 0.930 . S
C1407 C1406 1.394 . S
C1407 C1408 1.383 . S
C1407 H1415 0.929 . S
C1408 C1407 1.383 . S
C1408 C1409 1.377 . S
C1409 H1393 0.930 . S
C1409 C1408 1.377 . S
C1409 C1410 1.379 . S
C1410 H1394 0.931 . S
C1410 C1404 1.383 . S
C1410 C1409 1.379 . S
H1411 C1405 0.959 . S
H1412 C1405 0.961 . S
H1413 C1405 0.960 . S
H1414 C1406 0.930 . S
H1415 C1407 0.929 . S
H1416 C1424 0.929 . S
H1417 C1426 0.930 . S
H1418 C1428 0.930 . S
H1419 C1431 0.929 . S
H1420 C1434 0.930 . S
H1421 C1436 0.960 . S
H1422 C1436 0.960 . S
H1423 C1436 0.960 . S
C1424 H1416 0.929 . S
C1424 C1425 1.377 . S
C1424 C1426 1.384 . S
C1425 C1424 1.377 . S
C1425 C1431 1.390 . S
C1426 H1417 0.930 . S
C1426 C1424 1.384 . S
C1426 C1427 1.372 . S
C1427 C1426 1.372 . S
C1427 C1428 1.400 . S
C1427 C1432 1.490 . S
C1428 H1418 0.930 . S
C1428 C1427 1.400 . S
C1428 C1431 1.386 . S
H1429 C1445 0.930 . S
H1430 C1446 0.931 . S
C1431 H1419 0.929 . S
C1431 C1425 1.390 . S
C1431 C1428 1.386 . S
C1432 C1427 1.490 . S
C1432 C1434 1.395 . S
C1432 C1435 1.403 . S
H1433 C1439 0.930 . S
C1434 H1420 0.930 . S
C1434 C1432 1.395 . S
C1434 C1437 1.403 . S
C1435 C1432 1.403 . S
C1435 C1436 1.524 . S
C1435 C1439 1.400 . S
C1436 H1421 0.960 . S
C1436 H1422 0.960 . S
C1436 H1423 0.960 . S
C1436 C1435 1.524 . S
C1437 C1434 1.403 . S
C1437 C1438 1.392 . S
C1437 C1441 1.495 . S
C1438 C1437 1.392 . S
C1438 C1439 1.385 . S
C1438 C1440 1.478 . S
C1439 H1433 0.930 . S
C1439 C1435 1.400 . S
C1439 C1438 1.385 . S
C1440 C1438 1.478 . S
C1440 C1442 1.381 . S
C1440 C1446 1.383 . S
C1441 C1437 1.495 . S
C1441 H1447 0.959 . S
C1441 H1448 0.961 . S
C1441 H1449 0.960 . S
C1442 C1440 1.381 . S
C1442 C1443 1.394 . S
C1442 H1450 0.930 . S
C1443 C1442 1.394 . S
C1443 C1444 1.383 . S
C1443 H1451 0.929 . S
C1444 C1443 1.383 . S
C1444 C1445 1.377 . S
C1445 H1429 0.930 . S
C1445 C1444 1.377 . S
C1445 C1446 1.379 . S
C1446 H1430 0.931 . S
C1446 C1440 1.383 . S
C1446 C1445 1.379 . S
H1447 C1441 0.959 . S
H1448 C1441 0.961 . S
H1449 C1441 0.960 . S
H1450 C1442 0.930 . S
H1451 C1443 0.929 . S
H1452 C1460 0.929 . S
H1453 C1462 0.930 . S
H1454 C1464 0.930 . S
H1455 C1467 0.929 . S
H1456 C1470 0.930 . S
H1457 C1472 0.960 . S
H1458 C1472 0.960 . S
H1459 C1472 0.960 . S
C1460 H1452 0.929 . S
C1460 C1461 1.377 . S
C1460 C1462 1.384 . S
C1461 C1460 1.377 . S
C1461 C1467 1.390 . S
C1462 H1453 0.930 . S
C1462 C1460 1.384 . S
C1462 C1463 1.372 . S
C1463 C1462 1.372 . S
C1463 C1464 1.400 . S
C1463 C1468 1.490 . S
C1464 H1454 0.930 . S
C1464 C1463 1.400 . S
C1464 C1467 1.386 . S
H1465 C1481 0.930 . S
H1466 C1482 0.931 . S
C1467 H1455 0.929 . S
C1467 C1461 1.390 . S
C1467 C1464 1.386 . S
C1468 C1463 1.490 . S
C1468 C1470 1.395 . S
C1468 C1471 1.403 . S
H1469 C1475 0.930 . S
C1470 H1456 0.930 . S
C1470 C1468 1.395 . S
C1470 C1473 1.403 . S
C1471 C1468 1.403 . S
C1471 C1472 1.524 . S
C1471 C1475 1.400 . S
C1472 H1457 0.960 . S
C1472 H1458 0.960 . S
C1472 H1459 0.960 . S
C1472 C1471 1.524 . S
C1473 C1470 1.403 . S
C1473 C1474 1.392 . S
C1473 C1477 1.495 . S
C1474 C1473 1.392 . S
C1474 C1475 1.385 . S
C1474 C1476 1.478 . S
C1475 H1469 0.930 . S
C1475 C1471 1.400 . S
C1475 C1474 1.385 . S
C1476 C1474 1.478 . S
C1476 C1478 1.381 . S
C1476 C1482 1.383 . S
C1477 C1473 1.495 . S
C1477 H1483 0.959 . S
C1477 H1484 0.961 . S
C1477 H1485 0.960 . S
C1478 C1476 1.381 . S
C1478 C1479 1.394 . S
C1478 H1486 0.930 . S
C1479 C1478 1.394 . S
C1479 C1480 1.383 . S
C1479 H1487 0.929 . S
C1480 C1479 1.383 . S
C1480 C1481 1.377 . S
C1481 H1465 0.930 . S
C1481 C1480 1.377 . S
C1481 C1482 1.379 . S
C1482 H1466 0.931 . S
C1482 C1476 1.383 . S
C1482 C1481 1.379 . S
H1483 C1477 0.959 . S
H1484 C1477 0.961 . S
H1485 C1477 0.960 . S
H1486 C1478 0.930 . S
H1487 C1479 0.929 . S
H1488 C1496 0.929 . S
H1489 C1498 0.930 . S
H1490 C1500 0.930 . S
H1491 C1503 0.929 . S
H1492 C1506 0.930 . S
H1493 C1508 0.960 . S
H1494 C1508 0.960 . S
H1495 C1508 0.960 . S
C1496 H1488 0.929 . S
C1496 C1497 1.377 . S
C1496 C1498 1.384 . S
C1497 C1496 1.377 . S
C1497 C1503 1.390 . S
C1498 H1489 0.930 . S
C1498 C1496 1.384 . S
C1498 C1499 1.372 . S
C1499 C1498 1.372 . S
C1499 C1500 1.400 . S
C1499 C1504 1.490 . S
C1500 H1490 0.930 . S
C1500 C1499 1.400 . S
C1500 C1503 1.386 . S
H1501 C1517 0.930 . S
H1502 C1518 0.931 . S
C1503 H1491 0.929 . S
C1503 C1497 1.390 . S
C1503 C1500 1.386 . S
C1504 C1499 1.490 . S
C1504 C1506 1.395 . S
C1504 C1507 1.403 . S
H1505 C1511 0.930 . S
C1506 H1492 0.930 . S
C1506 C1504 1.395 . S
C1506 C1509 1.403 . S
C1507 C1504 1.403 . S
C1507 C1508 1.524 . S
C1507 C1511 1.400 . S
C1508 H1493 0.960 . S
C1508 H1494 0.960 . S
C1508 H1495 0.960 . S
C1508 C1507 1.524 . S
C1509 C1506 1.403 . S
C1509 C1510 1.392 . S
C1509 C1513 1.495 . S
C1510 C1509 1.392 . S
C1510 C1511 1.385 . S
C1510 C1512 1.478 . S
C1511 H1505 0.930 . S
C1511 C1507 1.400 . S
C1511 C1510 1.385 . S
C1512 C1510 1.478 . S
C1512 C1514 1.381 . S
C1512 C1518 1.383 . S
C1513 C1509 1.495 . S
C1513 H1519 0.959 . S
C1513 H1520 0.961 . S
C1513 H1521 0.960 . S
C1514 C1512 1.381 . S
C1514 C1515 1.394 . S
C1514 H1522 0.930 . S
C1515 C1514 1.394 . S
C1515 C1516 1.383 . S
C1515 H1523 0.929 . S
C1516 C1515 1.383 . S
C1516 C1517 1.377 . S
C1517 H1501 0.930 . S
C1517 C1516 1.377 . S
C1517 C1518 1.379 . S
C1518 H1502 0.931 . S
C1518 C1512 1.383 . S
C1518 C1517 1.379 . S
H1519 C1513 0.959 . S
H1520 C1513 0.961 . S
H1521 C1513 0.960 . S
H1522 C1514 0.930 . S
H1523 C1515 0.929 . S
H1524 C1532 0.929 . S
H1525 C1534 0.930 . S
H1526 C1536 0.930 . S
H1527 C1539 0.929 . S
H1528 C1542 0.930 . S
H1529 C1544 0.960 . S
H1530 C1544 0.960 . S
H1531 C1544 0.960 . S
C1532 H1524 0.929 . S
C1532 C1533 1.377 . S
C1532 C1534 1.384 . S
C1533 C1532 1.377 . S
C1533 C1539 1.390 . S
C1534 H1525 0.930 . S
C1534 C1532 1.384 . S
C1534 C1535 1.372 . S
C1535 C1534 1.372 . S
C1535 C1536 1.400 . S
C1535 C1540 1.490 . S
C1536 H1526 0.930 . S
C1536 C1535 1.400 . S
C1536 C1539 1.386 . S
H1537 C1553 0.930 . S
H1538 C1554 0.931 . S
C1539 H1527 0.929 . S
C1539 C1533 1.390 . S
C1539 C1536 1.386 . S
C1540 C1535 1.490 . S
C1540 C1542 1.395 . S
C1540 C1543 1.403 . S
H1541 C1547 0.930 . S
C1542 H1528 0.930 . S
C1542 C1540 1.395 . S
C1542 C1545 1.403 . S
C1543 C1540 1.403 . S
C1543 C1544 1.524 . S
C1543 C1547 1.400 . S
C1544 H1529 0.960 . S
C1544 H1530 0.960 . S
C1544 H1531 0.960 . S
C1544 C1543 1.524 . S
C1545 C1542 1.403 . S
C1545 C1546 1.392 . S
C1545 C1549 1.495 . S
C1546 C1545 1.392 . S
C1546 C1547 1.385 . S
C1546 C1548 1.478 . S
C1547 H1541 0.930 . S
C1547 C1543 1.400 . S
C1547 C1546 1.385 . S
C1548 C1546 1.478 . S
C1548 C1550 1.381 . S
C1548 C1554 1.383 . S
C1549 C1545 1.495 . S
C1549 H1555 0.959 . S
C1549 H1556 0.961 . S
C1549 H1557 0.960 . S
C1550 C1548 1.381 . S
C1550 C1551 1.394 . S
C1550 H1558 0.930 . S
C1551 C1550 1.394 . S
C1551 C1552 1.383 . S
C1551 H1559 0.929 . S
C1552 C1551 1.383 . S
C1552 C1553 1.377 . S
C1553 H1537 0.930 . S
C1553 C1552 1.377 . S
C1553 C1554 1.379 . S
C1554 H1538 0.931 . S
C1554 C1548 1.383 . S
C1554 C1553 1.379 . S
H1555 C1549 0.959 . S
H1556 C1549 0.961 . S
H1557 C1549 0.960 . S
H1558 C1550 0.930 . S
H1559 C1551 0.929 . S
H1560 C1568 0.929 . S
H1561 C1570 0.930 . S
H1562 C1572 0.930 . S
H1563 C1575 0.929 . S
H1564 C1578 0.930 . S
H1565 C1580 0.960 . S
H1566 C1580 0.960 1_554 S
H1567 C1580 0.960 1_554 S
C1568 H1560 0.929 . S
C1568 C1569 1.377 . S
C1568 C1570 1.384 . S
C1569 C1568 1.377 . S
C1569 C1575 1.390 . S
C1570 H1561 0.930 . S
C1570 C1568 1.384 . S
C1570 C1571 1.372 . S
C1571 C1570 1.372 . S
C1571 C1572 1.400 . S
C1571 C1576 1.490 . S
C1572 H1562 0.930 . S
C1572 C1571 1.400 . S
C1572 C1575 1.386 . S
H1573 C1589 0.930 . S
H1574 C1590 0.931 . S
C1575 H1563 0.929 . S
C1575 C1569 1.390 . S
C1575 C1572 1.386 . S
C1576 C1571 1.490 . S
C1576 C1578 1.395 . S
C1576 C1579 1.447 . S
H1577 C1583 0.930 . S
C1578 H1564 0.930 . S
C1578 C1576 1.395 . S
C1578 C1581 1.403 . S
C1579 C1576 1.447 . S
C1579 C1580 1.518 1_554 S
C1579 C1583 1.360 1_554 S
C1580 H1565 0.960 . S
C1580 H1566 0.960 1_556 S
C1580 H1567 0.960 1_556 S
C1580 C1579 1.518 1_556 S
C1581 C1578 1.403 . S
C1581 C1582 1.392 1_554 S
C1581 C1585 1.495 . S
C1582 C1581 1.392 1_556 S
C1582 C1583 1.385 . S
C1582 C1584 1.478 . S
C1583 H1577 0.930 . S
C1583 C1579 1.360 1_556 S
C1583 C1582 1.385 . S
C1584 C1582 1.478 . S
C1584 C1586 1.381 . S
C1584 C1590 1.383 . S
C1585 C1581 1.495 . S
C1585 H1591 0.959 . S
C1585 H1592 0.961 . S
C1585 H1593 0.960 1_554 S
C1586 C1584 1.381 . S
C1586 C1587 1.394 . S
C1586 H1594 0.930 . S
C1587 C1586 1.394 . S
C1587 C1588 1.383 . S
C1587 H1595 0.929 . S
C1588 C1587 1.383 . S
C1588 C1589 1.377 . S
C1589 H1573 0.930 . S
C1589 C1588 1.377 . S
C1589 C1590 1.379 . S
C1590 H1574 0.931 . S
C1590 C1584 1.383 . S
C1590 C1589 1.379 . S
H1591 C1585 0.959 . S
H1592 C1585 0.961 . S
H1593 C1585 0.960 1_556 S
H1594 C1586 0.930 . S
H1595 C1587 0.929 . S
H1596 C1604 0.929 . S
H1597 C1606 0.930 . S
H1598 C1608 0.930 . S
H1599 C1611 0.929 . S
H1600 C1614 0.930 . S
H1601 C1616 0.960 . S
H1602 C1616 0.960 . S
H1603 C1616 0.960 . S
C1604 H1596 0.929 . S
C1604 C1605 1.377 . S
C1604 C1606 1.384 . S
C1605 C1604 1.377 . S
C1605 C1611 1.390 . S
C1606 H1597 0.930 . S
C1606 C1604 1.384 . S
C1606 C1607 1.372 . S
C1607 C1606 1.372 . S
C1607 C1608 1.400 . S
C1607 C1612 1.490 . S
C1608 H1598 0.930 . S
C1608 C1607 1.400 . S
C1608 C1611 1.386 . S
H1609 C1625 0.930 . S
H1610 C1626 0.931 . S
C1611 H1599 0.929 . S
C1611 C1605 1.390 . S
C1611 C1608 1.386 . S
C1612 C1607 1.490 . S
C1612 C1614 1.395 . S
C1612 C1615 1.403 . S
H1613 C1619 0.930 . S
C1614 H1600 0.930 . S
C1614 C1612 1.395 . S
C1614 C1617 1.403 . S
C1615 C1612 1.403 . S
C1615 C1616 1.524 . S
C1615 C1619 1.400 . S
C1616 H1601 0.960 . S
C1616 H1602 0.960 . S
C1616 H1603 0.960 . S
C1616 C1615 1.524 . S
C1617 C1614 1.403 . S
C1617 C1618 1.392 . S
C1617 C1621 1.495 . S
C1618 C1617 1.392 . S
C1618 C1619 1.385 . S
C1618 C1620 1.478 . S
C1619 H1613 0.930 . S
C1619 C1615 1.400 . S
C1619 C1618 1.385 . S
C1620 C1618 1.478 . S
C1620 C1622 1.381 . S
C1620 C1626 1.383 . S
C1621 C1617 1.495 . S
C1621 H1627 0.959 . S
C1621 H1628 0.961 . S
C1621 H1629 0.960 . S
C1622 C1620 1.381 . S
C1622 C1623 1.394 . S
C1622 H1630 0.930 . S
C1623 C1622 1.394 . S
C1623 C1624 1.383 . S
C1623 H1631 0.929 . S
C1624 C1623 1.383 . S
C1624 C1625 1.377 . S
C1625 H1609 0.930 . S
C1625 C1624 1.377 . S
C1625 C1626 1.379 . S
C1626 H1610 0.931 . S
C1626 C1620 1.383 . S
C1626 C1625 1.379 . S
H1627 C1621 0.959 . S
H1628 C1621 0.961 . S
H1629 C1621 0.960 . S
H1630 C1622 0.930 . S
H1631 C1623 0.929 . S
C796 C754 1.691 . S
C777 C1 1.260 . S
C813 C169 1.435 . S
C832 C695 1.775 . S
C849 C283 1.464 . S
C868 C698 1.794 . S
C885 C397 1.252 . S
C904 C712 1.578 . S
C940 C737 1.533 . S
C921 C457 1.156 . S
C957 C571 1.104 . S
C976 C740 1.455 . S
C993 C115 1.194 . S
C1012 C709 1.568 . S
C1029 C229 1.125 . S
C1048 C723 1.529 . S
C1065 C343 1.059 . S
C1084 C726 1.387 . S
C1120 C751 1.625 . S
C1101 C511 1.318 . S
C1156 C765 1.709 . S
C1137 C625 1.380 . S
C1192 C684 1.781 . S
C1173 C55 1.438 . S
C1209 C29 1.132 . S
C1228 C707 1.368 . S
C1245 C125 0.936 . S
C1264 C721 1.513 . S
C1300 C731 1.446 . S
C1281 C239 0.897 . S
C1317 C353 0.876 . S
C1336 C749 1.423 . S
C1372 C763 1.351 . S
C1353 C485 1.059 . S
C1408 C689 1.420 . S
C1389 C599 1.140 . S
C1444 C759 1.457 . S
C1425 C143 1.179 . S
C1461 C257 1.125 . S
C1480 C693 1.431 . S
C1516 C703 1.351 . S
C1497 C371 1.090 . S
C1533 C467 0.943 . S
C1552 C717 1.488 . S
C1569 C581 0.893 . S
C1588 C735 1.449 . S
C1605 C11 0.943 . S
C1624 C745 1.521 . S
