# Generated by pormake.
# Topology pto, (3,4)-cn, num edge types: 1
# Building blocks:
#     Node 0, Type 0, BuildingBlock: INOVEN_clean_linker_0, # of connection points: 3
#     Node 1, Type 0, BuildingBlock: INOVEN_clean_linker_0, # of connection points: 3
#     Node 2, Type 0, BuildingBlock: INOVEN_clean_linker_0, # of connection points: 3
#     Node 3, Type 0, BuildingBlock: INOVEN_clean_linker_0, # of connection points: 3
#     Node 4, Type 0, BuildingBlock: INOVEN_clean_linker_0, # of connection points: 3
#     Node 5, Type 0, BuildingBlock: INOVEN_clean_linker_0, # of connection points: 3
#     Node 6, Type 0, BuildingBlock: INOVEN_clean_linker_0, # of connection points: 3
#     Node 7, Type 0, BuildingBlock: INOVEN_clean_linker_0, # of connection points: 3
#     Node 8, Type 1, BuildingBlock: NAWXER_clean_sbu_0, # of connection points: 4
#     Node 9, Type 1, BuildingBlock: NAWXER_clean_sbu_0, # of connection points: 4
#     Node 10, Type 1, BuildingBlock: NAWXER_clean_sbu_0, # of connection points: 4
#     Node 11, Type 1, BuildingBlock: NAWXER_clean_sbu_0, # of connection points: 4
#     Node 12, Type 1, BuildingBlock: NAWXER_clean_sbu_0, # of connection points: 4
#     Node 13, Type 1, BuildingBlock: NAWXER_clean_sbu_0, # of connection points: 4
#     Edge 14, Type (0, 1), BuildingBlock: EYOCIG_clean_linker_4, # of connection points: 2
#     Edge 15, Type (0, 1), BuildingBlock: EYOCIG_clean_linker_4, # of connection points: 2
#     Edge 16, Type (0, 1), BuildingBlock: EYOCIG_clean_linker_4, # of connection points: 2
#     Edge 17, Type (0, 1), BuildingBlock: EYOCIG_clean_linker_4, # of connection points: 2
#     Edge 18, Type (0, 1), BuildingBlock: EYOCIG_clean_linker_4, # of connection points: 2
#     Edge 19, Type (0, 1), BuildingBlock: EYOCIG_clean_linker_4, # of connection points: 2
#     Edge 20, Type (0, 1), BuildingBlock: EYOCIG_clean_linker_4, # of connection points: 2
#     Edge 21, Type (0, 1), BuildingBlock: EYOCIG_clean_linker_4, # of connection points: 2
#     Edge 22, Type (0, 1), BuildingBlock: EYOCIG_clean_linker_4, # of connection points: 2
#     Edge 23, Type (0, 1), BuildingBlock: EYOCIG_clean_linker_4, # of connection points: 2
#     Edge 24, Type (0, 1), BuildingBlock: EYOCIG_clean_linker_4, # of connection points: 2
#     Edge 25, Type (0, 1), BuildingBlock: EYOCIG_clean_linker_4, # of connection points: 2
#     Edge 26, Type (0, 1), BuildingBlock: EYOCIG_clean_linker_4, # of connection points: 2
#     Edge 27, Type (0, 1), BuildingBlock: EYOCIG_clean_linker_4, # of connection points: 2
#     Edge 28, Type (0, 1), BuildingBlock: EYOCIG_clean_linker_4, # of connection points: 2
#     Edge 29, Type (0, 1), BuildingBlock: EYOCIG_clean_linker_4, # of connection points: 2
#     Edge 30, Type (0, 1), BuildingBlock: EYOCIG_clean_linker_4, # of connection points: 2
#     Edge 31, Type (0, 1), BuildingBlock: EYOCIG_clean_linker_4, # of connection points: 2
#     Edge 32, Type (0, 1), BuildingBlock: EYOCIG_clean_linker_4, # of connection points: 2
#     Edge 33, Type (0, 1), BuildingBlock: EYOCIG_clean_linker_4, # of connection points: 2
#     Edge 34, Type (0, 1), BuildingBlock: EYOCIG_clean_linker_4, # of connection points: 2
#     Edge 35, Type (0, 1), BuildingBlock: EYOCIG_clean_linker_4, # of connection points: 2
#     Edge 36, Type (0, 1), BuildingBlock: EYOCIG_clean_linker_4, # of connection points: 2
#     Edge 37, Type (0, 1), BuildingBlock: EYOCIG_clean_linker_4, # of connection points: 2
# Relax obj value: 0.010
# Max RMSD: 0.131
# Mean RMSD: 0.054
data_MOF--net-pto--node1-NAWXER_clean_sbu_0--node2-INOVEN_clean_linker_0--edge1-EYOCIG_clean_linker_4
_symmetry_space_group_name_H-M    P1
_symmetry_Int_Tables_number       1
_symmetry_cell_setting            triclinic
loop_
_symmetry_equiv_pos_as_xyz
'x, y, z'
_cell_length_a     33.493583
_cell_length_b     30.664799
_cell_length_c     29.790007
_cell_angle_alpha  109.496
_cell_angle_beta   96.091766
_cell_angle_gamma 99.152766
loop_
_atom_site_label
_atom_site_type_symbol
_atom_site_fract_x
_atom_site_fract_y
_atom_site_fract_z
_atom_type_partial_charge
H0 H 0.25471 0.26162 0.4807 0.0
H1 H 0.3622 0.23126 0.41883 0.0
H2 H 0.29521 0.32471 0.37931 0.0
N3 N 0.23893 0.32202 0.4376 0.0
N4 N 0.23592 0.35165 0.41789 0.0
C5 C 0.27603 0.26621 0.45689 0.0
C6 C 0.30907 0.24278 0.45261 0.0
C7 C 0.27098 0.29638 0.43098 0.0
C8 C 0.29871 0.30195 0.39995 0.0
C9 C 0.3313 0.27846 0.39572 0.0
C10 C 0.33661 0.24921 0.42213 0.0
H11 H 0.22748 0.73566 0.77474 0.0
H12 H 0.29035 0.66203 0.85032 0.0
H13 H 0.35621 0.73572 0.77212 0.0
N14 N 0.29257 0.77215 0.74505 0.0
N15 N 0.32538 0.79083 0.73642 0.0
C16 C 0.25499 0.72387 0.78402 0.0
C17 C 0.25475 0.69665 0.81381 0.0
C18 C 0.29161 0.73881 0.76907 0.0
C19 C 0.32753 0.72415 0.78257 0.0
C20 C 0.32678 0.69601 0.81134 0.0
C21 C 0.29046 0.68244 0.82672 0.0
H22 H 0.81915 0.64201 0.27835 0.0
H23 H 0.8707 0.74396 0.41966 0.0
H24 H 0.77255 0.7696 0.3328 0.0
N25 N 0.76232 0.68499 0.25776 0.0
N26 N 0.73402 0.70501 0.25086 0.0
C27 C 0.8199 0.67551 0.30669 0.0
C28 C 0.8477 0.69008 0.34974 0.0
C29 C 0.79218 0.70343 0.30042 0.0
C30 C 0.7935 0.74726 0.33727 0.0
C31 C 0.82229 0.76193 0.38007 0.0
C32 C 0.84875 0.73288 0.38637 0.0
H33 H 0.81592 0.38156 0.02435 0.0
H34 H 0.86928 0.30461 0.90514 0.0
H35 H 0.76631 0.23315 0.94626 0.0
N36 N 0.75718 0.31139 0.01905 0.0
N37 N 0.72911 0.27716 0.01324 0.0
C38 C 0.81615 0.34889 0.99534 0.0
C39 C 0.84558 0.34756 0.96532 0.0
C40 C 0.78702 0.30813 0.98839 0.0
C41 C 0.78806 0.26533 0.95143 0.0
C42 C 0.81795 0.26419 0.92169 0.0
C43 C 0.84609 0.30552 0.92811 0.0
H44 H 0.72914 0.724 0.8137 0.0
H45 H 0.79034 0.6479 0.88805 0.0
H46 H 0.85773 0.72348 0.81262 0.0
N47 N 0.79547 0.76126 0.78648 0.0
N48 N 0.82838 0.77672 0.77567 0.0
C49 C 0.75637 0.71179 0.82312 0.0
C50 C 0.7551 0.68284 0.85116 0.0
C51 C 0.7933 0.72688 0.80906 0.0
C52 C 0.82881 0.71172 0.82249 0.0
C53 C 0.82785 0.68381 0.85129 0.0
C54 C 0.79093 0.66902 0.86519 0.0
H55 H 0.72084 0.25237 0.45707 0.0
H56 H 0.7803 0.35976 0.40877 0.0
H57 H 0.84814 0.31891 0.5131 0.0
N58 N 0.78741 0.24852 0.51142 0.0
N59 N 0.821 0.24816 0.53355 0.0
C60 C 0.74756 0.27866 0.4594 0.0
C61 C 0.74599 0.30654 0.4305 0.0
C62 C 0.78439 0.28239 0.48895 0.0
C63 C 0.81924 0.31591 0.49096 0.0
C64 C 0.81779 0.34367 0.46222 0.0
C65 C 0.78113 0.33911 0.43206 0.0
H66 H 0.26552 0.29391 0.84614 0.0
H67 H 0.35642 0.24744 0.92217 0.0
H68 H 0.29975 0.35858 0.00141 0.0
N69 N 0.249 0.35819 0.92341 0.0
N70 N 0.24179 0.38589 0.96168 0.0
C71 C 0.28361 0.29662 0.87973 0.0
C72 C 0.31174 0.26707 0.87929 0.0
C73 C 0.27859 0.32957 0.9237 0.0
C74 C 0.30267 0.33305 0.9672 0.0
C75 C 0.33065 0.30339 0.9664 0.0
C76 C 0.33477 0.27039 0.9226 0.0
H77 H 0.2503 0.63796 0.24048 0.0
H78 H 0.24445 0.75536 0.36695 0.0
H79 H 0.33917 0.76911 0.28327 0.0
N80 N 0.31663 0.6796 0.21736 0.0
N81 N 0.34725 0.70211 0.20842 0.0
C82 C 0.26163 0.67448 0.26413 0.0
C83 C 0.24292 0.6941 0.3041 0.0
C84 C 0.29618 0.70141 0.25579 0.0
C85 C 0.31174 0.74827 0.28805 0.0
C86 C 0.29318 0.76745 0.32812 0.0
C87 C 0.25838 0.74067 0.33544 0.0
C88 C 0.9848 0.47741 0.4359 0.0
C89 C 0.09669 0.58114 0.38515 0.0
O90 O 0.00807 0.51353 0.46819 0.0
Zn91 Zn 0.05504 0.56164 0.46331 0.0
O92 O 0.98914 0.46536 0.39191 0.0
Zn93 Zn 0.02977 0.49769 0.36267 0.0
O94 O 0.07338 0.46956 0.38624 0.0
O95 O 0.09301 0.51712 0.46264 0.0
O96 O 0.07376 0.54443 0.35357 0.0
O97 O 0.09347 0.59318 0.42957 0.0
O98 O 0.01206 0.59313 0.44357 0.0
O99 O 0.99391 0.54404 0.3675 0.0
C100 C 0.09594 0.48151 0.42705 0.0
C101 C 0.99013 0.57984 0.40209 0.0
C102 C 0.99558 0.51914 0.97397 0.0
C103 C 0.10871 0.62281 0.92228 0.0
O104 O 0.01731 0.55609 0.0068 0.0
Zn105 Zn 0.06166 0.60136 0.99331 0.0
O106 O 1.00097 0.50818 0.93057 0.0
Zn107 Zn 0.04111 0.54354 0.90486 0.0
O108 O 0.08128 0.50595 0.91681 0.0
O109 O 0.09949 0.55451 0.99272 0.0
O110 O 0.08528 0.5861 0.8917 0.0
O111 O 0.10463 0.63658 0.96656 0.0
O112 O 0.01562 0.62902 0.96807 0.0
O113 O 0.99935 0.57918 0.89257 0.0
C114 C 0.10318 0.5182 0.95815 0.0
C115 C 0.9938 0.61484 0.92622 0.0
C116 C 0.34654 0.96506 0.64801 0.0
C117 C 0.34526 0.09067 0.56175 0.0
O118 O 0.31351 0.97374 0.63137 0.0
Zn119 Zn 0.32019 0.0221 0.60054 0.0
O120 O 0.38101 0.98785 0.64528 0.0
Zn121 Zn 0.39035 0.03936 0.61409 0.0
O122 O 0.38074 0.09004 0.67569 0.0
O123 O 0.31321 0.07111 0.66021 0.0
O124 O 0.38011 0.08508 0.57807 0.0
O125 O 0.31263 0.06643 0.56629 0.0
O126 O 0.31325 0.97082 0.53726 0.0
O127 O 0.38078 0.98561 0.54773 0.0
C128 C 0.34613 0.09715 0.68721 0.0
C129 C 0.34616 0.9619 0.52242 0.0
C130 C 0.58479 0.63006 0.06602 0.0
C131 C 0.47453 0.63784 0.9318 0.0
O132 O 0.56421 0.59097 0.03543 0.0
Zn133 Zn 0.52018 0.58688 0.98076 0.0
O134 O 0.57816 0.66905 0.06454 0.0
Zn135 Zn 0.5391 0.68237 0.01846 0.0
O136 O 0.49602 0.6775 0.05894 0.0
O137 O 0.47986 0.59945 0.02865 0.0
O138 O 0.49596 0.6752 0.96376 0.0
O139 O 0.47931 0.59733 0.93129 0.0
O140 O 0.56734 0.60041 0.94534 0.0
O141 O 0.58208 0.67846 0.97641 0.0
C142 C 0.4745 0.63874 0.057 0.0
C143 C 0.58893 0.63983 0.94873 0.0
C144 C 0.86161 0.95856 0.7021 0.0
C145 C 0.85957 0.08373 0.61955 0.0
O146 O 0.82826 0.96608 0.68507 0.0
Zn147 Zn 0.81537 0.00954 0.65155 0.0
O148 O 0.89607 0.9819 0.70045 0.0
Zn149 Zn 0.90187 0.03204 0.66958 0.0
O150 O 0.88749 0.07906 0.72954 0.0
O151 O 0.8196 0.0604 0.71441 0.0
O152 O 0.89451 0.0785 0.63571 0.0
O153 O 0.82675 0.05915 0.62296 0.0
O154 O 0.82119 0.96152 0.59061 0.0
O155 O 0.88912 0.97818 0.60385 0.0
C156 C 0.85289 0.08555 0.74127 0.0
C157 C 0.85504 0.95389 0.57774 0.0
C158 C 0.58368 0.28541 0.26736 0.0
C159 C 0.47048 0.29066 0.13521 0.0
O160 O 0.56251 0.24678 0.23661 0.0
Zn161 Zn 0.51667 0.23443 0.18039 0.0
O162 O 0.57756 0.32501 0.26672 0.0
Zn163 Zn 0.53656 0.3352 0.21928 0.0
O164 O 0.49272 0.32125 0.25608 0.0
O165 O 0.47684 0.24303 0.22666 0.0
O166 O 0.49211 0.32898 0.16574 0.0
O167 O 0.47633 0.25079 0.13547 0.0
O168 O 0.56054 0.24298 0.14154 0.0
O169 O 0.57551 0.32118 0.17242 0.0
C170 C 0.47166 0.28248 0.25455 0.0
C171 C 0.58154 0.28238 0.14437 0.0
C172 C 0.17985 0.40142 0.42962 0.0
C173 C 0.20538 0.37749 0.42493 0.0
C174 C 0.15089 0.43036 0.4325 0.0
C175 C 0.12633 0.45487 0.43197 0.0
C176 C 0.19356 0.6758 0.8573 0.0
C177 C 0.2197 0.68678 0.83582 0.0
C178 C 0.16531 0.66206 0.88463 0.0
C179 C 0.14075 0.64707 0.90556 0.0
C180 C 0.90113 0.64193 0.36776 0.0
C181 C 0.8759 0.66186 0.35694 0.0
C182 C 0.93229 0.62193 0.3826 0.0
C183 C 0.95921 0.60428 0.39383 0.0
C184 C 0.9034 0.42233 0.98036 0.0
C185 C 0.87672 0.3887 0.97421 0.0
C186 C 0.93582 0.4597 0.98535 0.0
C187 C 0.96371 0.48921 0.98456 0.0
C188 C 0.32453 0.18565 0.49913 0.0
C189 C 0.31568 0.21207 0.47912 0.0
C190 C 0.33537 0.15373 0.52109 0.0
C191 C 0.34223 0.12573 0.53992 0.0
C192 C 0.39039 0.66908 0.8464 0.0
C193 C 0.36338 0.68302 0.82852 0.0
C194 C 0.41943 0.65316 0.87186 0.0
C195 C 0.44366 0.64267 0.89743 0.0
C196 C 0.83501 0.84261 0.45317 0.0
C197 C 0.82654 0.80699 0.41791 0.0
C198 C 0.84679 0.8826 0.49606 0.0
C199 C 0.85391 0.91572 0.53362 0.0
C200 C 0.67394 0.28454 0.06815 0.0
C201 C 0.70011 0.28186 0.04328 0.0
C202 C 0.64194 0.28474 0.09508 0.0
C203 C 0.61429 0.28337 0.11749 0.0
C204 C 0.33152 0.85752 0.70021 0.0
C205 C 0.32691 0.82571 0.71599 0.0
C206 C 0.3391 0.89567 0.68308 0.0
C207 C 0.3444 0.92763 0.66757 0.0
C208 C 0.67824 0.66376 0.17449 0.0
C209 C 0.70459 0.6834 0.20958 0.0
C210 C 0.64586 0.6432 0.1348 0.0
C211 C 0.61749 0.63181 0.10202 0.0
C212 C 0.83035 0.18818 0.85523 0.0
C213 C 0.82216 0.22073 0.88619 0.0
C214 C 0.84251 0.15302 0.81824 0.0
C215 C 0.85048 0.12331 0.7842 0.0
C216 C 0.38457 0.28616 0.33851 0.0
C217 C 0.35948 0.28388 0.36403 0.0
C218 C 0.41468 0.28555 0.30906 0.0
C219 C 0.44063 0.28371 0.28399 0.0
C220 C 0.89649 0.66415 0.88536 0.0
C221 C 0.86544 0.67334 0.8696 0.0
C222 C 0.93195 0.65172 0.90381 0.0
C223 C 0.9607 0.63708 0.91699 0.0
C224 C 0.88612 0.39905 0.45991 0.0
C225 C 0.85494 0.37385 0.46088 0.0
C226 C 0.92199 0.42743 0.45559 0.0
C227 C 0.95108 0.45134 0.44847 0.0
C228 C 0.18751 0.43788 0.96282 0.0
C229 C 0.21257 0.41328 0.96111 0.0
C230 C 0.15854 0.46725 0.96532 0.0
C231 C 0.13394 0.49196 0.96456 0.0
C232 C 0.18317 0.64738 0.33172 0.0
C233 C 0.21025 0.66607 0.31651 0.0
C234 C 0.15323 0.62711 0.35293 0.0
C235 C 0.12811 0.60776 0.36997 0.0
C236 C 0.83957 0.84689 0.74536 0.0
C237 C 0.83225 0.81338 0.75798 0.0
C238 C 0.85099 0.88688 0.73244 0.0
C239 C 0.85908 0.92014 0.7196 0.0
C240 C 0.67913 0.29356 0.3675 0.0
C241 C 0.70937 0.2991 0.39637 0.0
C242 C 0.64475 0.28762 0.33248 0.0
C243 C 0.61656 0.28474 0.30212 0.0
C244 C 0.32661 0.20339 0.80128 0.0
C245 C 0.31805 0.23313 0.83502 0.0
C246 C 0.33718 0.16757 0.76314 0.0
C247 C 0.34369 0.13624 0.72925 0.0
C248 C 0.38933 0.66301 0.14351 0.0
C249 C 0.36836 0.6799 0.17264 0.0
C250 C 0.41703 0.64783 0.11169 0.0
C251 C 0.44236 0.64018 0.08561 0.0
C252 C 0.83386 0.183 0.56685 0.0
C253 C 0.8257 0.21302 0.55189 0.0
C254 C 0.84655 0.14903 0.58421 0.0
C255 C 0.85579 0.12037 0.60065 0.0
C256 C 0.38034 0.30334 0.04117 0.0
C257 C 0.35636 0.30637 0.00971 0.0
C258 C 0.41075 0.29728 0.07394 0.0
C259 C 0.4377 0.29284 0.10132 0.0
C260 C 0.32461 0.84967 0.39792 0.0
C261 C 0.31189 0.81263 0.36481 0.0
C262 C 0.33694 0.89057 0.44004 0.0
C263 C 0.34377 0.92357 0.4778 0.0
C264 C 0.68727 0.65816 0.88342 0.0
C265 C 0.71788 0.66971 0.86842 0.0
C266 C 0.6521 0.64715 0.9034 0.0
C267 C 0.62289 0.64126 0.92294 0.0
loop_
_geom_bond_atom_site_label_1
_geom_bond_atom_site_label_2
_geom_bond_distance
_geom_bond_site_symmetry_2
_ccdc_geom_bond_type
H0 C5 0.929 . S
H1 C10 0.931 . S
H2 C8 0.930 . S
N3 N4 1.234 . S
N3 C7 1.453 . S
N4 N3 1.234 . S
C5 H0 0.929 . S
C5 C6 1.373 . S
C5 C7 1.368 . S
C6 C5 1.373 . S
C6 C10 1.397 . S
C7 N3 1.453 . S
C7 C5 1.368 . S
C7 C8 1.373 . S
C8 H2 0.930 . S
C8 C7 1.373 . S
C8 C9 1.371 . S
C9 C8 1.371 . S
C9 C10 1.383 . S
C10 H1 0.931 . S
C10 C6 1.397 . S
C10 C9 1.383 . S
H11 C16 0.929 . S
H12 C21 0.931 . S
H13 C19 0.930 . S
N14 N15 1.234 . S
N14 C18 1.453 . S
N15 N14 1.234 . S
C16 H11 0.929 . S
C16 C17 1.373 . S
C16 C18 1.368 . S
C17 C16 1.373 . S
C17 C21 1.397 . S
C18 N14 1.453 . S
C18 C16 1.368 . S
C18 C19 1.373 . S
C19 H13 0.930 . S
C19 C18 1.373 . S
C19 C20 1.371 . S
C20 C19 1.371 . S
C20 C21 1.383 . S
C21 H12 0.931 . S
C21 C17 1.397 . S
C21 C20 1.383 . S
H22 C27 0.929 . S
H23 C32 0.931 . S
H24 C30 0.930 . S
N25 N26 1.234 . S
N25 C29 1.453 . S
N26 N25 1.234 . S
C27 H22 0.929 . S
C27 C28 1.373 . S
C27 C29 1.368 . S
C28 C27 1.373 . S
C28 C32 1.397 . S
C29 N25 1.453 . S
C29 C27 1.368 . S
C29 C30 1.373 . S
C30 H24 0.930 . S
C30 C29 1.373 . S
C30 C31 1.371 . S
C31 C30 1.371 . S
C31 C32 1.383 . S
C32 H23 0.931 . S
C32 C28 1.397 . S
C32 C31 1.383 . S
H33 C38 0.929 1_554 S
H34 C43 0.931 . S
H35 C41 0.930 . S
N36 N37 1.234 . S
N36 C40 1.453 1_554 S
N37 N36 1.234 . S
C38 H33 0.929 1_556 S
C38 C39 1.373 . S
C38 C40 1.368 . S
C39 C38 1.373 . S
C39 C43 1.397 . S
C40 N36 1.453 1_556 S
C40 C38 1.368 . S
C40 C41 1.373 . S
C41 H35 0.930 . S
C41 C40 1.373 . S
C41 C42 1.371 . S
C42 C41 1.371 . S
C42 C43 1.383 . S
C43 H34 0.931 . S
C43 C39 1.397 . S
C43 C42 1.383 . S
H44 C49 0.929 . S
H45 C54 0.931 . S
H46 C52 0.930 . S
N47 N48 1.234 . S
N47 C51 1.453 . S
N48 N47 1.234 . S
C49 H44 0.929 . S
C49 C50 1.373 . S
C49 C51 1.368 . S
C50 C49 1.373 . S
C50 C54 1.397 . S
C51 N47 1.453 . S
C51 C49 1.368 . S
C51 C52 1.373 . S
C52 H46 0.930 . S
C52 C51 1.373 . S
C52 C53 1.371 . S
C53 C52 1.371 . S
C53 C54 1.383 . S
C54 H45 0.931 . S
C54 C50 1.397 . S
C54 C53 1.383 . S
H55 C60 0.929 . S
H56 C65 0.931 . S
H57 C63 0.930 . S
N58 N59 1.234 . S
N58 C62 1.453 . S
N59 N58 1.234 . S
C60 H55 0.929 . S
C60 C61 1.373 . S
C60 C62 1.368 . S
C61 C60 1.373 . S
C61 C65 1.397 . S
C62 N58 1.453 . S
C62 C60 1.368 . S
C62 C63 1.373 . S
C63 H57 0.930 . S
C63 C62 1.373 . S
C63 C64 1.371 . S
C64 C63 1.371 . S
C64 C65 1.383 . S
C65 H56 0.931 . S
C65 C61 1.397 . S
C65 C64 1.383 . S
H66 C71 0.929 . S
H67 C76 0.931 . S
H68 C74 0.930 . S
N69 N70 1.234 . S
N69 C73 1.453 . S
N70 N69 1.234 . S
C71 H66 0.929 . S
C71 C72 1.373 . S
C71 C73 1.368 . S
C72 C71 1.373 . S
C72 C76 1.397 . S
C73 N69 1.453 . S
C73 C71 1.368 . S
C73 C74 1.373 . S
C74 H68 0.930 . S
C74 C73 1.373 . S
C74 C75 1.371 . S
C75 C74 1.371 . S
C75 C76 1.383 . S
C76 H67 0.931 . S
C76 C72 1.397 . S
C76 C75 1.383 . S
H77 C82 0.929 . S
H78 C87 0.931 . S
H79 C85 0.930 . S
N80 N81 1.234 . S
N80 C84 1.453 . S
N81 N80 1.234 . S
C82 H77 0.929 . S
C82 C83 1.373 . S
C82 C84 1.368 . S
C83 C82 1.373 . S
C83 C87 1.397 . S
C84 N80 1.453 . S
C84 C82 1.368 . S
C84 C85 1.373 . S
C85 H79 0.930 . S
C85 C84 1.373 . S
C85 C86 1.371 . S
C86 C85 1.371 . S
C86 C87 1.383 . S
C87 H78 0.931 . S
C87 C83 1.397 . S
C87 C86 1.383 . S
C88 O90 1.247 1_655 S
C88 O92 1.258 . S
C89 O96 1.247 . S
C89 O97 1.258 . S
O90 C88 1.247 1_455 S
O90 Zn91 2.028 . S
Zn91 O90 2.028 . S
Zn91 O95 2.035 . S
Zn91 O97 2.035 . S
Zn91 O98 2.028 . S
O92 C88 1.258 . S
O92 Zn93 2.035 1_655 S
Zn93 O92 2.035 1_455 S
Zn93 O94 2.028 . S
Zn93 O96 2.028 . S
Zn93 O99 2.035 1_455 S
O94 Zn93 2.028 . S
O94 C100 1.247 . S
O95 Zn91 2.035 . S
O95 C100 1.258 . S
O96 C89 1.247 . S
O96 Zn93 2.028 . S
O97 C89 1.258 . S
O97 Zn91 2.035 . S
O98 Zn91 2.028 . S
O98 C101 1.247 1_455 S
O99 Zn93 2.035 1_655 S
O99 C101 1.258 . S
C100 O94 1.247 . S
C100 O95 1.258 . S
C101 O98 1.247 1_655 S
C101 O99 1.258 . S
C102 O104 1.247 1_656 S
C102 O106 1.258 . S
C103 O110 1.247 . S
C103 O111 1.258 . S
O104 C102 1.247 1_454 S
O104 Zn105 2.028 . S
Zn105 O104 2.028 . S
Zn105 O109 2.035 . S
Zn105 O111 2.035 1_554 S
Zn105 O112 2.028 1_554 S
O106 C102 1.258 . S
O106 Zn107 2.035 1_655 S
Zn107 O106 2.035 1_455 S
Zn107 O108 2.028 . S
Zn107 O110 2.028 . S
Zn107 O113 2.035 1_455 S
O108 Zn107 2.028 . S
O108 C114 1.247 . S
O109 Zn105 2.035 . S
O109 C114 1.258 1_554 S
O110 C103 1.247 . S
O110 Zn107 2.028 . S
O111 C103 1.258 . S
O111 Zn105 2.035 1_556 S
O112 Zn105 2.028 1_556 S
O112 C115 1.247 1_455 S
O113 Zn107 2.035 1_655 S
O113 C115 1.258 . S
C114 O108 1.247 . S
C114 O109 1.258 1_556 S
C115 O112 1.247 1_655 S
C115 O113 1.258 . S
C116 O118 1.247 . S
C116 O120 1.258 . S
C117 O124 1.247 . S
C117 O125 1.258 . S
O118 C116 1.247 . S
O118 Zn119 2.028 1_565 S
Zn119 O118 2.028 1_545 S
Zn119 O123 2.035 . S
Zn119 O125 2.035 . S
Zn119 O126 2.028 1_545 S
O120 C116 1.258 . S
O120 Zn121 2.035 1_565 S
Zn121 O120 2.035 1_545 S
Zn121 O122 2.028 . S
Zn121 O124 2.028 . S
Zn121 O127 2.035 1_545 S
O122 Zn121 2.028 . S
O122 C128 1.247 . S
O123 Zn119 2.035 . S
O123 C128 1.258 . S
O124 C117 1.247 . S
O124 Zn121 2.028 . S
O125 C117 1.258 . S
O125 Zn119 2.035 . S
O126 Zn119 2.028 1_565 S
O126 C129 1.247 . S
O127 Zn121 2.035 1_565 S
O127 C129 1.258 . S
C128 O122 1.247 . S
C128 O123 1.258 . S
C129 O126 1.247 . S
C129 O127 1.258 . S
C130 O132 1.247 . S
C130 O134 1.258 . S
C131 O138 1.247 . S
C131 O139 1.258 . S
O132 C130 1.247 . S
O132 Zn133 2.028 1_554 S
Zn133 O132 2.028 1_556 S
Zn133 O137 2.035 1_556 S
Zn133 O139 2.035 . S
Zn133 O140 2.028 . S
O134 C130 1.258 . S
O134 Zn135 2.035 . S
Zn135 O134 2.035 . S
Zn135 O136 2.028 . S
Zn135 O138 2.028 1_554 S
Zn135 O141 2.035 1_554 S
O136 Zn135 2.028 . S
O136 C142 1.247 . S
O137 Zn133 2.035 1_554 S
O137 C142 1.258 . S
O138 C131 1.247 . S
O138 Zn135 2.028 1_556 S
O139 C131 1.258 . S
O139 Zn133 2.035 . S
O140 Zn133 2.028 . S
O140 C143 1.247 . S
O141 Zn135 2.035 1_556 S
O141 C143 1.258 . S
C142 O136 1.247 . S
C142 O137 1.258 . S
C143 O140 1.247 . S
C143 O141 1.258 . S
C144 O146 1.247 . S
C144 O148 1.258 . S
C145 O152 1.247 . S
C145 O153 1.258 . S
O146 C144 1.247 . S
O146 Zn147 2.028 1_565 S
Zn147 O146 2.028 1_545 S
Zn147 O151 2.035 . S
Zn147 O153 2.035 . S
Zn147 O154 2.028 1_545 S
O148 C144 1.258 . S
O148 Zn149 2.035 1_565 S
Zn149 O148 2.035 1_545 S
Zn149 O150 2.028 . S
Zn149 O152 2.028 . S
Zn149 O155 2.035 1_545 S
O150 Zn149 2.028 . S
O150 C156 1.247 . S
O151 Zn147 2.035 . S
O151 C156 1.258 . S
O152 C145 1.247 . S
O152 Zn149 2.028 . S
O153 C145 1.258 . S
O153 Zn147 2.035 . S
O154 Zn147 2.028 1_565 S
O154 C157 1.247 . S
O155 Zn149 2.035 1_565 S
O155 C157 1.258 . S
C156 O150 1.247 . S
C156 O151 1.258 . S
C157 O154 1.247 . S
C157 O155 1.258 . S
C158 O160 1.247 . S
C158 O162 1.258 . S
C159 O166 1.247 . S
C159 O167 1.258 . S
O160 C158 1.247 . S
O160 Zn161 2.028 . S
Zn161 O160 2.028 . S
Zn161 O165 2.035 . S
Zn161 O167 2.035 . S
Zn161 O168 2.028 . S
O162 C158 1.258 . S
O162 Zn163 2.035 . S
Zn163 O162 2.035 . S
Zn163 O164 2.028 . S
Zn163 O166 2.028 . S
Zn163 O169 2.035 . S
O164 Zn163 2.028 . S
O164 C170 1.247 . S
O165 Zn161 2.035 . S
O165 C170 1.258 . S
O166 C159 1.247 . S
O166 Zn163 2.028 . S
O167 C159 1.258 . S
O167 Zn161 2.035 . S
O168 Zn161 2.028 . S
O168 C171 1.247 . S
O169 Zn163 2.035 . S
O169 C171 1.258 . S
C170 O164 1.247 . S
C170 O165 1.258 . S
C171 O168 1.247 . S
C171 O169 1.258 . S
C172 C173 1.170 . S
C172 C174 1.380 . S
C173 C172 1.170 . S
C174 C172 1.380 . S
C174 C175 1.170 . S
C175 C174 1.170 . S
C176 C177 1.170 . S
C176 C178 1.380 . S
C177 C176 1.170 . S
C178 C176 1.380 . S
C178 C179 1.170 . S
C179 C178 1.170 . S
C180 C181 1.170 . S
C180 C182 1.380 . S
C181 C180 1.170 . S
C182 C180 1.380 . S
C182 C183 1.170 . S
C183 C182 1.170 . S
C184 C185 1.170 . S
C184 C186 1.380 . S
C185 C184 1.170 . S
C186 C184 1.380 . S
C186 C187 1.170 . S
C187 C186 1.170 . S
C188 C189 1.170 . S
C188 C190 1.380 . S
C189 C188 1.170 . S
C190 C188 1.380 . S
C190 C191 1.170 . S
C191 C190 1.170 . S
C192 C193 1.170 . S
C192 C194 1.380 . S
C193 C192 1.170 . S
C194 C192 1.380 . S
C194 C195 1.170 . S
C195 C194 1.170 . S
C196 C197 1.170 . S
C196 C198 1.380 . S
C197 C196 1.170 . S
C198 C196 1.380 . S
C198 C199 1.170 . S
C199 C198 1.170 . S
C200 C201 1.170 . S
C200 C202 1.380 . S
C201 C200 1.170 . S
C202 C200 1.380 . S
C202 C203 1.170 . S
C203 C202 1.170 . S
C204 C205 1.170 . S
C204 C206 1.380 . S
C205 C204 1.170 . S
C206 C204 1.380 . S
C206 C207 1.170 . S
C207 C206 1.170 . S
C208 C209 1.170 . S
C208 C210 1.380 . S
C209 C208 1.170 . S
C210 C208 1.380 . S
C210 C211 1.170 . S
C211 C210 1.170 . S
C212 C213 1.170 . S
C212 C214 1.380 . S
C213 C212 1.170 . S
C214 C212 1.380 . S
C214 C215 1.170 . S
C215 C214 1.170 . S
C216 C217 1.170 . S
C216 C218 1.380 . S
C217 C216 1.170 . S
C218 C216 1.380 . S
C218 C219 1.170 . S
C219 C218 1.170 . S
C220 C221 1.170 . S
C220 C222 1.380 . S
C221 C220 1.170 . S
C222 C220 1.380 . S
C222 C223 1.170 . S
C223 C222 1.170 . S
C224 C225 1.170 . S
C224 C226 1.380 . S
C225 C224 1.170 . S
C226 C224 1.380 . S
C226 C227 1.170 . S
C227 C226 1.170 . S
C228 C229 1.170 . S
C228 C230 1.380 . S
C229 C228 1.170 . S
C230 C228 1.380 . S
C230 C231 1.170 . S
C231 C230 1.170 . S
C232 C233 1.170 . S
C232 C234 1.380 . S
C233 C232 1.170 . S
C234 C232 1.380 . S
C234 C235 1.170 . S
C235 C234 1.170 . S
C236 C237 1.170 . S
C236 C238 1.380 . S
C237 C236 1.170 . S
C238 C236 1.380 . S
C238 C239 1.170 . S
C239 C238 1.170 . S
C240 C241 1.170 . S
C240 C242 1.380 . S
C241 C240 1.170 . S
C242 C240 1.380 . S
C242 C243 1.170 . S
C243 C242 1.170 . S
C244 C245 1.170 . S
C244 C246 1.380 . S
C245 C244 1.170 . S
C246 C244 1.380 . S
C246 C247 1.170 . S
C247 C246 1.170 . S
C248 C249 1.170 . S
C248 C250 1.380 . S
C249 C248 1.170 . S
C250 C248 1.380 . S
C250 C251 1.170 . S
C251 C250 1.170 . S
C252 C253 1.170 . S
C252 C254 1.380 . S
C253 C252 1.170 . S
C254 C252 1.380 . S
C254 C255 1.170 . S
C255 C254 1.170 . S
C256 C257 1.170 . S
C256 C258 1.380 . S
C257 C256 1.170 . S
C258 C256 1.380 . S
C258 C259 1.170 . S
C259 C258 1.170 . S
C260 C261 1.170 . S
C260 C262 1.380 . S
C261 C260 1.170 . S
C262 C260 1.380 . S
C262 C263 1.170 . S
C263 C262 1.170 . S
C264 C265 1.170 . S
C264 C266 1.380 . S
C265 C264 1.170 . S
C266 C264 1.380 . S
C266 C267 1.170 . S
C267 C266 1.170 . S
C175 C100 1.512 . S
C173 N4 1.496 . S
C179 C103 1.676 . S
C177 C17 1.668 . S
C183 C101 1.432 . S
C181 C28 1.440 . S
C187 C102 1.495 . S
C185 C39 1.523 . S
C191 C117 1.695 . S
C189 C6 1.706 . S
C195 C131 1.653 . S
C193 C20 1.652 . S
C197 C31 1.590 . S
C199 C157 1.592 . S
C203 C171 1.428 . S
C201 N37 1.425 . S
C207 C116 1.647 . S
C205 N15 1.613 . S
C209 N26 1.478 . S
C211 C130 1.448 . S
C215 C156 1.594 . S
C213 C42 1.573 . S
C219 C170 1.570 . S
C217 C9 1.571 . S
C221 C53 1.711 . S
C223 C115 1.716 . S
C227 C88 1.580 . S
C225 C64 1.577 . S
C229 N70 1.555 . S
C231 C114 1.541 . S
C233 C83 1.508 . S
C235 C89 1.548 . S
C239 C144 1.507 . S
C237 N48 1.488 . S
C243 C158 1.580 . S
C241 C61 1.587 . S
C247 C128 1.571 . S
C245 C72 1.594 . S
C249 N81 1.598 . S
C251 C142 1.588 . S
C255 C145 1.555 . S
C253 N59 1.513 . S
C259 C159 1.596 . S
C257 C75 1.580 1_554 S
C263 C129 1.593 . S
C261 C86 1.604 . S
C265 C50 1.681 . S
C267 C143 1.665 . S
