# Generated by pormake.
# Topology dag, (6,3)-cn, num edge types: 1
# Building blocks:
#     Node 0, Type 0, BuildingBlock: MIDCAF_clean_sbu_0, # of connection points: 6
#     Node 1, Type 0, BuildingBlock: MIDCAF_clean_sbu_0, # of connection points: 6
#     Node 2, Type 0, BuildingBlock: MIDCAF_clean_sbu_0, # of connection points: 6
#     Node 3, Type 0, BuildingBlock: MIDCAF_clean_sbu_0, # of connection points: 6
#     Node 4, Type 1, BuildingBlock: ESEHIV_clean_linker_0, # of connection points: 3
#     Node 5, Type 1, BuildingBlock: ESEHIV_clean_linker_0, # of connection points: 3
#     Node 6, Type 1, BuildingBlock: ESEHIV_clean_linker_0, # of connection points: 3
#     Node 7, Type 1, BuildingBlock: ESEHIV_clean_linker_0, # of connection points: 3
#     Node 8, Type 1, BuildingBlock: ESEHIV_clean_linker_0, # of connection points: 3
#     Node 9, Type 1, BuildingBlock: ESEHIV_clean_linker_0, # of connection points: 3
#     Node 10, Type 1, BuildingBlock: ESEHIV_clean_linker_0, # of connection points: 3
#     Node 11, Type 1, BuildingBlock: ESEHIV_clean_linker_0, # of connection points: 3
#     Edge 12, Type (0, 1), BuildingBlock: KIFKEQ_clean_linker_1, # of connection points: 2
#     Edge 13, Type (0, 1), BuildingBlock: KIFKEQ_clean_linker_1, # of connection points: 2
#     Edge 14, Type (0, 1), BuildingBlock: KIFKEQ_clean_linker_1, # of connection points: 2
#     Edge 15, Type (0, 1), BuildingBlock: KIFKEQ_clean_linker_1, # of connection points: 2
#     Edge 16, Type (0, 1), BuildingBlock: KIFKEQ_clean_linker_1, # of connection points: 2
#     Edge 17, Type (0, 1), BuildingBlock: KIFKEQ_clean_linker_1, # of connection points: 2
#     Edge 18, Type (0, 1), BuildingBlock: KIFKEQ_clean_linker_1, # of connection points: 2
#     Edge 19, Type (0, 1), BuildingBlock: KIFKEQ_clean_linker_1, # of connection points: 2
#     Edge 20, Type (0, 1), BuildingBlock: KIFKEQ_clean_linker_1, # of connection points: 2
#     Edge 21, Type (0, 1), BuildingBlock: KIFKEQ_clean_linker_1, # of connection points: 2
#     Edge 22, Type (0, 1), BuildingBlock: KIFKEQ_clean_linker_1, # of connection points: 2
#     Edge 23, Type (0, 1), BuildingBlock: KIFKEQ_clean_linker_1, # of connection points: 2
#     Edge 24, Type (0, 1), BuildingBlock: KIFKEQ_clean_linker_1, # of connection points: 2
#     Edge 25, Type (0, 1), BuildingBlock: KIFKEQ_clean_linker_1, # of connection points: 2
#     Edge 26, Type (0, 1), BuildingBlock: KIFKEQ_clean_linker_1, # of connection points: 2
#     Edge 27, Type (0, 1), BuildingBlock: KIFKEQ_clean_linker_1, # of connection points: 2
#     Edge 28, Type (0, 1), BuildingBlock: KIFKEQ_clean_linker_1, # of connection points: 2
#     Edge 29, Type (0, 1), BuildingBlock: KIFKEQ_clean_linker_1, # of connection points: 2
#     Edge 30, Type (0, 1), BuildingBlock: KIFKEQ_clean_linker_1, # of connection points: 2
#     Edge 31, Type (0, 1), BuildingBlock: KIFKEQ_clean_linker_1, # of connection points: 2
#     Edge 32, Type (0, 1), BuildingBlock: KIFKEQ_clean_linker_1, # of connection points: 2
#     Edge 33, Type (0, 1), BuildingBlock: KIFKEQ_clean_linker_1, # of connection points: 2
#     Edge 34, Type (0, 1), BuildingBlock: KIFKEQ_clean_linker_1, # of connection points: 2
#     Edge 35, Type (0, 1), BuildingBlock: KIFKEQ_clean_linker_1, # of connection points: 2
# Relax obj value: 0.305
# Max RMSD: 0.190
# Mean RMSD: 0.179
data_MOF--net-dag--node1-MIDCAF_clean_sbu_0--node2-ESEHIV_clean_linker_0--edge1-KIFKEQ_clean_linker_1
_symmetry_space_group_name_H-M    P1
_symmetry_Int_Tables_number       1
_symmetry_cell_setting            triclinic
loop_
_symmetry_equiv_pos_as_xyz
'x, y, z'
_cell_length_a     37.93382
_cell_length_b     39.098306
_cell_length_c     28.736044
_cell_angle_alpha  93.993245
_cell_angle_beta   89.922565
_cell_angle_gamma 90.040348
loop_
_atom_site_label
_atom_site_type_symbol
_atom_site_fract_x
_atom_site_fract_y
_atom_site_fract_z
_atom_type_partial_charge
Zn0 Zn 0.14304 0.86713 0.11691 0.0
Zn1 Zn 0.21687 0.81005 0.94514 0.0
Zn2 Zn 0.16831 0.82928 0.06443 0.0
C3 C 0.19162 0.88041 0.97685 0.0
C4 C 0.14954 0.78038 0.99664 0.0
O5 O 0.18995 0.81366 0.1311 0.0
O6 O 0.14416 0.83375 0.17103 0.0
C7 C 0.21298 0.8777 0.1187 0.0
O8 O 0.17952 0.8684 0.01442 0.0
O9 O 0.20753 0.86152 0.94507 0.0
O10 O 0.1786 0.79506 0.98938 0.0
O11 O 0.13555 0.78815 0.03622 0.0
O12 O 0.18728 0.89526 0.10546 0.0
O13 O 0.20957 0.84499 0.11516 0.0
O14 O 0.11229 0.81555 0.06492 0.0
O15 O 0.09914 0.86982 0.07885 0.0
C16 C 0.08951 0.83978 0.06535 0.0
O17 O 0.21456 0.80356 0.09039 0.0
O18 O 0.21514 0.80563 0.0156 0.0
C19 C 0.17056 0.81379 0.16821 0.0
C20 C 0.23035 0.79618 0.05174 0.0
Zn21 Zn 0.66585 0.68005 0.43597 0.0
Zn22 Zn 0.70133 0.67854 0.60435 0.0
Zn23 Zn 0.68283 0.67721 0.51623 0.0
C24 C 0.70238 0.60963 0.56886 0.0
C25 C 0.6317 0.69927 0.60345 0.0
O26 O 0.7163 0.71627 0.48352 0.0
O27 O 0.68354 0.72542 0.42233 0.0
C28 C 0.69807 0.6178 0.43755 0.0
O29 O 0.69483 0.62335 0.53051 0.0
O30 O 0.70667 0.6282 0.60616 0.0
O31 O 0.65732 0.69949 0.6315 0.0
O32 O 0.63645 0.69099 0.55969 0.0
O33 O 0.69173 0.63978 0.40855 0.0
O34 O 0.69353 0.62581 0.48144 0.0
O35 O 0.6256 0.69199 0.51227 0.0
O36 O 0.61444 0.67633 0.43861 0.0
C37 C 0.60349 0.68729 0.47829 0.0
O38 O 0.72871 0.71247 0.52828 0.0
O39 O 0.74456 0.7059 0.60126 0.0
C40 C 0.70956 0.73352 0.44792 0.0
C41 C 0.74981 0.71887 0.56291 0.0
Zn42 Zn 0.79973 0.11074 0.93301 0.0
Zn43 Zn 0.77842 0.13864 0.08857 0.0
Zn44 Zn 0.79956 0.13232 0.0096 0.0
C45 C 0.85081 0.11908 0.09192 0.0
C46 C 0.73751 0.08748 0.0368 0.0
O47 O 0.77864 0.17197 0.96371 0.0
O48 O 0.75311 0.13257 0.91691 0.0
C49 C 0.84402 0.16898 0.9459 0.0
O50 O 0.8475 0.11948 0.04749 0.0
O51 O 0.82439 0.12596 0.11787 0.0
O52 O 0.74091 0.10185 0.07745 0.0
O53 O 0.75656 0.09746 0.00385 0.0
O54 O 0.84436 0.13965 0.92426 0.0
O55 O 0.8188 0.1763 0.975 0.0
O56 O 0.84387 0.09731 1.0003 0.0
O57 O 0.80889 0.06419 0.9558 0.0
C58 C 0.8364 0.06769 0.98061 0.0
O59 O 0.79042 0.18748 0.01179 0.0
O60 O 0.7685 0.1888 0.08337 0.0
C61 C 0.7565 0.16393 0.93067 0.0
C62 C 0.77692 0.20421 0.04766 0.0
Zn63 Zn 0.34348 0.31261 0.61221 0.0
Zn64 Zn 0.28671 0.3493 0.45381 0.0
Zn65 Zn 0.31527 0.33419 0.53679 0.0
C66 C 0.35621 0.32885 0.437 0.0
C67 C 0.28828 0.40951 0.51521 0.0
O68 O 0.28151 0.29324 0.56418 0.0
O69 O 0.30951 0.27757 0.62682 0.0
C70 C 0.39471 0.30218 0.54672 0.0
O71 O 0.35514 0.32772 0.48172 0.0
O72 O 0.32894 0.33588 0.41436 0.0
O73 O 0.27935 0.39824 0.47466 0.0
O74 O 0.302 0.38941 0.54392 0.0
O75 O 0.389 0.29581 0.58841 0.0
O76 O 0.37097 0.317 0.52308 0.0
O77 O 0.31456 0.37888 0.58732 0.0
O78 O 0.34134 0.35797 0.64756 0.0
C79 C 0.32673 0.38273 0.62917 0.0
O80 O 0.26864 0.30109 0.52042 0.0
O81 O 0.24567 0.31847 0.45525 0.0
C82 C 0.28379 0.27442 0.5992 0.0
C83 C 0.24464 0.29908 0.48853 0.0
H84 H 0.09148 0.03688 0.23651 0.0
H85 H 0.16064 0.07363 0.34651 0.0
H86 H 0.07226 0.1351 0.31029 0.0
C87 C 0.0983 0.05649 0.26349 0.0
C88 C 0.07692 0.08589 0.27117 0.0
C89 C 0.12906 0.05262 0.28985 0.0
C90 C 0.13756 0.07745 0.32526 0.0
C91 C 0.11772 0.10754 0.3325 0.0
C92 C 0.08717 0.11149 0.30568 0.0
H93 H 0.40338 0.62258 0.7212 0.0
H94 H 0.34103 0.61566 0.84458 0.0
H95 H 0.40888 0.70298 0.83061 0.0
C96 C 0.39436 0.63385 0.75465 0.0
C97 C 0.4092 0.66473 0.77313 0.0
C98 C 0.36962 0.61623 0.78017 0.0
C99 C 0.35962 0.62979 0.82465 0.0
C100 C 0.37326 0.66127 0.84337 0.0
C101 C 0.39827 0.67852 0.81725 0.0
H102 H 0.81037 0.85992 0.05205 0.0
H103 H 0.85169 0.80952 0.16918 0.0
H104 H 0.75265 0.86182 0.18074 0.0
C105 C 0.80782 0.85206 0.08723 0.0
C106 C 0.77884 0.86391 0.11437 0.0
C107 C 0.83462 0.83231 0.1063 0.0
C108 C 0.83082 0.82313 0.15266 0.0
C109 C 0.80134 0.83351 0.17956 0.0
C110 C 0.77537 0.85357 0.15998 0.0
H111 H 0.63693 0.35744 0.57515 0.0
H112 H 0.64386 0.26865 0.65469 0.0
H113 H 0.70434 0.35921 0.69509 0.0
C114 C 0.64852 0.34409 0.60316 0.0
C115 C 0.67267 0.36169 0.633 0.0
C116 C 0.63746 0.31071 0.61077 0.0
C117 C 0.65191 0.29454 0.64853 0.0
C118 C 0.67575 0.31182 0.67953 0.0
C119 C 0.68671 0.34528 0.67091 0.0
H120 H 0.60199 0.37851 0.35859 0.0
H121 H 0.68231 0.38525 0.25457 0.0
H122 H 0.59321 0.31796 0.22887 0.0
C123 C 0.61276 0.3703 0.3247 0.0
C124 C 0.59439 0.346 0.29586 0.0
C125 C 0.64389 0.38538 0.30952 0.0
C126 C 0.65783 0.37424 0.26579 0.0
C127 C 0.64012 0.3496 0.23626 0.0
C128 C 0.60788 0.33616 0.25142 0.0
H129 H 0.08501 0.12297 0.92248 0.0
H130 H 0.0964 0.19625 0.81887 0.0
H131 H 0.17101 0.1139 0.82449 0.0
C132 C 0.10003 0.13291 0.89426 0.0
C133 C 0.12984 0.11506 0.8765 0.0
C134 C 0.08777 0.16196 0.87312 0.0
C135 C 0.10598 0.17378 0.83495 0.0
C136 C 0.13618 0.15675 0.81734 0.0
C137 C 0.14803 0.12751 0.83845 0.0
H138 H 0.34892 0.65987 0.51917 0.0
H139 H 0.32874 0.74333 0.43349 0.0
H140 H 0.24895 0.66694 0.45019 0.0
C141 C 0.3306 0.67406 0.49895 0.0
C142 C 0.29721 0.66013 0.4883 0.0
C143 C 0.34219 0.70406 0.47951 0.0
C144 C 0.31946 0.7209 0.44998 0.0
C145 C 0.28583 0.70751 0.43897 0.0
C146 C 0.27475 0.67743 0.45885 0.0
H147 H 0.975 0.84636 0.8588 0.0
H148 H 0.95351 0.78531 0.73219 0.0
H149 H 0.90457 0.88462 0.758 0.0
C150 C 0.96152 0.84306 0.8255 0.0
C151 C 0.93907 0.86884 0.81199 0.0
C152 C 0.9668 0.813 0.79696 0.0
C153 C 0.95012 0.80909 0.75344 0.0
C154 C 0.92732 0.83479 0.73896 0.0
C155 C 0.92238 0.86486 0.76833 0.0
H156 H 0.2236 0.86003 0.20737 0.0
H157 H 0.25073 0.93609 0.11196 0.0
H158 H 0.21368 0.90503 0.26874 0.0
H159 H 0.24225 0.98104 0.1734 0.0
H160 H 0.2 0.05803 0.27862 0.0
H161 H 0.2417 0.01278 0.25379 0.0
H162 H 0.157 0.93876 0.2499 0.0
H163 H 0.11532 0.98401 0.27495 0.0
C164 C 0.23008 0.88612 0.20035 0.0
C165 C 0.2356 0.895 0.15438 0.0
C166 C 0.22398 0.91197 0.23549 0.0
C167 C 0.22541 0.9465 0.22499 0.0
C168 C 0.2402 0.95463 0.18226 0.0
C169 C 0.24558 0.92876 0.14702 0.0
C170 C 0.19047 0.03191 0.2735 0.0
C171 C 0.15437 0.02446 0.27833 0.0
C172 C 0.21439 0.00609 0.25952 0.0
C173 C 0.20274 0.97225 0.25055 0.0
C174 C 0.16692 0.96453 0.2576 0.0
C175 C 0.14291 0.99044 0.27108 0.0
H176 H 0.57357 0.66293 0.57684 0.0
H177 H 0.60994 0.74367 0.67512 0.0
H178 H 0.51659 0.66325 0.61563 0.0
H179 H 0.55253 0.74439 0.7142 0.0
H180 H 0.47192 0.68928 0.80754 0.0
H181 H 0.52319 0.70562 0.7631 0.0
H182 H 0.46273 0.69258 0.6358 0.0
H183 H 0.41149 0.67594 0.68033 0.0
C184 C 0.56888 0.68156 0.60588 0.0
C185 C 0.59584 0.70367 0.62255 0.0
C186 C 0.53621 0.68179 0.6282 0.0
C187 C 0.52993 0.70386 0.66813 0.0
C188 C 0.55662 0.72686 0.68381 0.0
C189 C 0.58936 0.7266 0.66138 0.0
C190 C 0.46931 0.69087 0.77021 0.0
C191 C 0.43788 0.68093 0.74732 0.0
C192 C 0.4987 0.70029 0.74467 0.0
C193 C 0.49718 0.70008 0.69573 0.0
C194 C 0.46493 0.69246 0.6733 0.0
C195 C 0.4356 0.68295 0.69879 0.0
H196 H 0.74832 0.03577 0.96918 0.0
H197 H 0.68755 0.06179 0.09368 0.0
H198 H 0.74388 0.97561 0.98295 0.0
H199 H 0.68058 0.00114 0.10567 0.0
H200 H 0.75115 0.87002 0.02633 0.0
H201 H 0.72256 0.92056 0.99773 0.0
H202 H 0.72667 0.97018 0.13691 0.0
H203 H 0.75458 0.92044 0.16491 0.0
C204 C 0.73248 0.02861 0.99827 0.0
C205 C 0.71988 0.05362 0.03171 0.0
C206 C 0.7297 -0.00618 0.0061 0.0
C207 C 0.71332 0.98351 0.04682 0.0
C208 C 0.69483 0.0083 0.07513 0.0
C209 C 0.69843 0.04312 0.06797 0.0
C210 C 0.74526 0.89157 0.05084 0.0
C211 C 0.75547 0.89119 0.09787 0.0
C212 C 0.72881 0.92052 0.03448 0.0
C213 C 0.72234 0.94971 0.06481 0.0
C214 C 0.73036 0.94816 0.11241 0.0
C215 C 0.74665 0.9194 0.12865 0.0
H216 H 0.44325 0.34916 0.52622 0.0
H217 H 0.4272 0.24068 0.5343 0.0
H218 H 0.50669 0.34023 0.5214 0.0
H219 H 0.49118 0.23179 0.53258 0.0
H220 H 0.621 0.31636 0.51791 0.0
H221 H 0.56309 0.30668 0.4823 0.0
H222 H 0.52756 0.2594 0.6052 0.0
H223 H 0.58396 0.27102 0.6422 0.0
C224 C 0.45321 0.32316 0.52371 0.0
C225 C 0.43038 0.29547 0.52856 0.0
C226 C 0.4896 0.31803 0.52161 0.0
C227 C 0.50376 0.28528 0.52649 0.0
C228 C 0.48084 0.25719 0.52823 0.0
C229 C 0.44436 0.26226 0.52913 0.0
C230 C 0.60103 0.30349 0.53721 0.0
C231 C 0.60704 0.29548 0.58365 0.0
C232 C 0.56804 0.29761 0.51645 0.0
C233 C 0.54092 0.2825 0.54114 0.0
C234 C 0.54818 0.27079 0.5852 0.0
C235 C 0.58075 0.27744 0.60642 0.0
H236 H 0.68289 0.59039 0.35082 0.0
H237 H 0.72832 0.56435 0.48139 0.0
H238 H 0.67876 0.53009 0.32552 0.0
H239 H 0.7219 0.50294 0.45669 0.0
H240 H 0.71429 0.40179 0.323 0.0
H241 H 0.73816 0.45629 0.35742 0.0
H242 H 0.63291 0.49033 0.39314 0.0
H243 H 0.6088 0.43742 0.35746 0.0
C244 C 0.69261 0.57184 0.37399 0.0
C245 C 0.70416 0.58199 0.41935 0.0
C246 C 0.69022 0.53731 0.35934 0.0
C247 C 0.69942 0.51224 0.38957 0.0
C248 C 0.71439 0.52208 0.43307 0.0
C249 C 0.71727 0.55698 0.44756 0.0
C250 C 0.69629 0.42076 0.33868 0.0
C251 C 0.65955 0.41523 0.33709 0.0
C252 C 0.71004 0.45161 0.35883 0.0
C253 C 0.68722 0.47702 0.37794 0.0
C254 C 0.65091 0.47073 0.37897 0.0
C255 C 0.63718 0.44028 0.35865 0.0
H256 H 0.89358 0.17423 0.01177 0.0
H257 H 0.86673 0.20767 0.87666 0.0
H258 H 0.95526 0.18504 0.99735 0.0
H259 H 0.92833 0.22222 0.86334 0.0
H260 H 0.03148 0.16888 0.81758 0.0
H261 H 0.97248 0.18619 0.84011 0.0
H262 H 0.00804 0.20923 0.98213 0.0
H263 H 0.06701 0.18908 0.95924 0.0
C264 C 0.90086 0.18603 0.98009 0.0
C265 C 0.87582 0.18995 0.94512 0.0
C266 C 0.93641 0.19232 0.97162 0.0
C267 C 0.94735 0.20336 0.92823 0.0
C268 C 0.92123 0.2122 0.89626 0.0
C269 C 0.8858 0.20463 0.9041 0.0
C270 C 0.02668 0.17815 0.85345 0.0
C271 C 0.05346 0.17732 0.88683 0.0
C272 C 0.9928 0.18859 0.86651 0.0
C273 C 0.98493 0.19916 0.91327 0.0
C274 C 0.01264 0.20053 0.94606 0.0
C275 C 0.04648 0.18917 0.93308 0.0
H276 H 0.33669 0.45442 0.55463 0.0
H277 H 0.23083 0.4478 0.50018 0.0
H278 H 0.33329 0.51717 0.55801 0.0
H279 H 0.22711 0.51022 0.5039 0.0
H280 H 0.3113 0.632 0.57164 0.0
H281 H 0.30487 0.57195 0.58911 0.0
H282 H 0.25708 0.54929 0.45416 0.0
H283 H 0.26405 0.60853 0.43633 0.0
C284 C 0.31233 0.46648 0.54488 0.0
C285 C 0.28399 0.44649 0.52724 0.0
C286 C 0.31033 0.50234 0.54679 0.0
C287 C 0.28008 0.51863 0.53056 0.0
C288 C 0.25096 0.49844 0.51591 0.0
C289 C 0.253 0.46276 0.51399 0.0
C290 C 0.29912 0.61422 0.5459 0.0
C291 C 0.28825 0.62521 0.5025 0.0
C292 C 0.29545 0.57986 0.55597 0.0
C293 C 0.28048 0.55586 0.52307 0.0
C294 C 0.26816 0.5672 0.48067 0.0
C295 C 0.27206 0.60135 0.47047 0.0
H296 H 0.09546 0.73492 1.00241 0.0
H297 H 0.15609 0.78952 0.9043 0.0
H298 H 0.05104 0.72139 0.94269 0.0
H299 H 0.11111 0.77839 0.84582 0.0
H300 H 0.02394 0.78169 0.75414 0.0
H301 H 0.0712 0.75274 0.79383 0.0
H302 H 0.00844 0.75804 0.92018 0.0
H303 H 0.96129 0.78451 0.87966 0.0
C304 C 0.09957 0.74338 0.96771 0.0
C305 C 0.12855 0.76406 0.95822 0.0
C306 C 0.07408 0.73583 0.93349 0.0
C307 C 0.07655 0.74993 0.88978 0.0
C308 C 0.10789 0.76702 0.87883 0.0
C309 C 0.13378 0.77374 0.91266 0.0
C310 C 0.01989 0.77506 0.78974 0.0
C311 C 0.98962 0.78614 0.81444 0.0
C312 C 0.04706 0.75886 0.81275 0.0
C313 C 0.04443 0.75415 0.86086 0.0
C314 C 0.01194 0.7611 0.88332 0.0
C315 C 0.9848 0.77673 0.86021 0.0
H316 H 0.90586 0.06941 0.9581 0.0
H317 H 0.82178 0.00178 0.99424 0.0
H318 H 0.93935 0.02002 0.92442 0.0
H319 H 0.85512 0.95261 0.96159 0.0
H320 H 0.92431 0.8678 0.90471 0.0
H321 H 0.90941 0.91606 0.95951 0.0
H322 H 0.92108 0.98513 0.84957 0.0
H323 H 0.93661 0.9368 0.79471 0.0
C324 C 0.89545 0.04383 0.96099 0.0
C325 C 0.86139 0.03913 0.9785 0.0
C326 C 0.91432 0.01569 0.94123 0.0
C327 C 0.89953 0.98263 0.93972 0.0
C328 C 0.86725 0.97774 0.96234 0.0
C329 C 0.84819 0.00583 0.98121 0.0
C330 C 0.92435 0.89337 0.89241 0.0
C331 C 0.93147 0.89858 0.84533 0.0
C332 C 0.91581 0.92094 0.92382 0.0
C333 C 0.91435 0.95431 0.90889 0.0
C334 C 0.92261 0.95971 0.86221 0.0
C335 C 0.93092 0.93205 0.83065 0.0
H336 H 0.37414 0.28901 0.35803 0.0
H337 H 0.41401 0.36509 0.46022 0.0
H338 H 0.43257 0.28571 0.32008 0.0
H339 H 0.47222 0.36104 0.42409 0.0
H340 H 0.57843 0.32357 0.38115 0.0
H341 H 0.51982 0.31383 0.41272 0.0
H342 H 0.47377 0.32933 0.27857 0.0
H343 H 0.5325 0.33967 0.24692 0.0
C344 C 0.39557 0.30465 0.37256 0.0
C345 C 0.3904 0.32628 0.41306 0.0
C346 C 0.4288 0.30276 0.35103 0.0
C347 C 0.45703 0.32245 0.36998 0.0
C348 C 0.45123 0.34476 0.40964 0.0
C349 C 0.41815 0.3469 0.43055 0.0
C350 C 0.55586 0.32441 0.35819 0.0
C351 C 0.55997 0.33302 0.31181 0.0
C352 C 0.5224 0.31875 0.37622 0.0
C353 C 0.49238 0.32134 0.34818 0.0
C354 C 0.49658 0.32709 0.3008 0.0
C355 C 0.53016 0.33297 0.28273 0.0
H356 H 0.14482 0.92575 0.02067 0.0
H357 H 0.22538 0.9179 0.91398 0.0
H358 H 0.13109 0.98385 0.99964 0.0
H359 H 0.21241 0.97586 0.89403 0.0
H360 H 0.14807 0.05618 0.82621 0.0
H361 H 0.16466 0.00149 0.85463 0.0
H362 H 0.15129 0.04336 0.99671 0.0
H363 H 0.13426 0.09855 0.9679 0.0
C364 C 0.15997 0.93659 0.99329 0.0
C365 C 0.18581 0.91697 0.96849 0.0
C366 C 0.15219 0.96992 0.98135 0.0
C367 C 0.17024 0.98431 0.94458 0.0
C368 C 0.19733 0.96526 0.92166 0.0
C369 C 0.20489 0.93203 0.93328 0.0
C370 C 0.14914 0.05396 0.86355 0.0
C371 C 0.14031 0.08188 0.89479 0.0
C372 C 0.15867 0.02254 0.8799 0.0
C373 C 0.15978 0.01809 0.92802 0.0
C374 C 0.15055 0.04587 0.95943 0.0
C375 C 0.14087 0.07747 0.94296 0.0
H376 H 0.57004 0.73506 0.53839 0.0
H377 H 0.5509 0.65576 0.42909 0.0
H378 H 0.50628 0.74704 0.54261 0.0
H379 H 0.48832 0.66855 0.432 0.0
H380 H 0.38696 0.71926 0.40981 0.0
H381 H 0.4511 0.7215 0.41313 0.0
H382 H 0.44764 0.71135 0.5615 0.0
H383 H 0.38306 0.70921 0.55849 0.0
C384 C 0.55225 0.72 0.51577 0.0
C385 C 0.56535 0.69414 0.48392 0.0
C386 C 0.51595 0.72707 0.51785 0.0
C387 C 0.49258 0.70909 0.48705 0.0
C388 C 0.50582 0.68327 0.45549 0.0
C389 C 0.54167 0.67584 0.45403 0.0
C390 C 0.3997 0.71874 0.44346 0.0
C391 C 0.37996 0.71377 0.48384 0.0
C392 C 0.43645 0.71974 0.44527 0.0
C393 C 0.45421 0.71603 0.4875 0.0
C394 C 0.43452 0.71417 0.5286 0.0
C395 C 0.39765 0.71282 0.52677 0.0
H396 H 0.2795 0.43548 0.62351 0.0
H397 H 0.37355 0.4057 0.69486 0.0
H398 H 0.28399 0.4933 0.66237 0.0
H399 H 0.37729 0.46242 0.73457 0.0
H400 H 0.34566 0.59917 0.69184 0.0
H401 H 0.32896 0.54218 0.65851 0.0
H402 H 0.34478 0.50114 0.79257 0.0
H403 H 0.36236 0.5577 0.82558 0.0
C404 C 0.30111 0.44136 0.64728 0.0
C405 C 0.3267 0.41654 0.65519 0.0
C406 C 0.30348 0.4742 0.6698 0.0
C407 C 0.33098 0.48223 0.70144 0.0
C408 C 0.35557 0.45683 0.71078 0.0
C409 C 0.35346 0.42437 0.68792 0.0
C410 C 0.3453 0.57797 0.71419 0.0
C411 C 0.35565 0.58275 0.76117 0.0
C412 C 0.33533 0.54553 0.69527 0.0
C413 C 0.33574 0.51735 0.72298 0.0
C414 C 0.3445 0.52246 0.77043 0.0
C415 C 0.35434 0.55485 0.78936 0.0
H416 H 0.0394 0.8879 0.05575 0.0
H417 H 0.05459 0.77816 0.04784 0.0
H418 H 0.97682 0.8801 0.04974 0.0
H419 H 0.99082 0.76997 0.03905 0.0
H420 H 0.88032 0.77765 0.11252 0.0
H421 H 0.94143 0.77506 0.0881 0.0
H422 H 0.92607 0.86493 0.01105 0.0
H423 H 0.86683 0.87045 0.04055 0.0
C424 C 0.02936 0.86191 0.05161 0.0
C425 C 0.052 0.83364 0.05332 0.0
C426 C 0.99315 0.85736 0.0474 0.0
C427 C 0.97829 0.82432 0.04412 0.0
C428 C 0.00118 0.79582 0.04239 0.0
C429 C 0.03775 0.80046 0.04707 0.0
C430 C 0.88994 0.79714 0.09075 0.0
C431 C 0.86857 0.82516 0.08065 0.0
C432 C 0.92502 0.79516 0.07573 0.0
C433 C 0.93931 0.82055 0.04892 0.0
C434 C 0.91652 0.84573 0.03339 0.0
C435 C 0.88193 0.84849 0.04979 0.0
H436 H 0.74497 0.57349 0.6233 0.0
H437 H 0.66059 0.56151 0.52294 0.0
H438 H 0.74038 0.51294 0.63822 0.0
H439 H 0.65666 0.50059 0.53659 0.0
H440 H 0.62472 0.41182 0.62198 0.0
H441 H 0.6352 0.47032 0.60198 0.0
H442 H 0.74758 0.45312 0.60735 0.0
H443 H 0.73683 0.39401 0.62783 0.0
C444 C 0.72597 0.55764 0.60367 0.0
C445 C 0.7033 0.57207 0.57171 0.0
C446 C 0.72346 0.52293 0.61205 0.0
C447 C 0.69796 0.50197 0.58895 0.0
C448 C 0.67622 0.51618 0.55556 0.0
C449 C 0.6787 0.55093 0.54728 0.0
C450 C 0.6517 0.42051 0.61887 0.0
C451 C 0.67999 0.39828 0.62596 0.0
C452 C 0.65771 0.45397 0.60703 0.0
C453 C 0.69221 0.46622 0.60206 0.0
C454 C 0.72066 0.44441 0.61081 0.0
C455 C 0.71459 0.41069 0.62272 0.0
H456 H 0.91815 0.12093 0.05545 0.0
H457 H 0.86021 0.09813 0.179 0.0
H458 H 0.97369 0.11287 0.097 0.0
H459 H 0.91492 0.08888 0.21952 0.0
H460 H 0.0138 0.11432 0.29953 0.0
H461 H 0.96111 0.12187 0.25364 0.0
H462 H 0.01272 0.07343 0.13217 0.0
H463 H 0.06645 0.06783 0.17757 0.0
C464 C 0.91726 0.11375 0.09117 0.0
C465 C 0.88477 0.11068 0.11411 0.0
C466 C 0.94906 0.10903 0.115 0.0
C467 C 0.94893 0.10085 0.16207 0.0
C468 C 0.91626 0.09623 0.18392 0.0
C469 C 0.88475 0.10129 0.16045 0.0
C470 C 0.01422 0.10568 0.2629 0.0
C471 C 0.04454 0.09032 0.24254 0.0
C472 C 0.9837 0.10955 0.23659 0.0
C473 C 0.98231 0.09785 0.18914 0.0
C474 C 0.01275 0.08288 0.16849 0.0
C475 C 0.04347 0.07922 0.19482 0.0
H476 H 0.21734 0.76116 0.16894 0.0
H477 H 0.15273 0.82751 0.2602 0.0
H478 H 0.24178 0.73501 0.23644 0.0
H479 H 0.17752 0.80137 0.32799 0.0
H480 H 0.25322 0.67382 0.3647 0.0
H481 H 0.22181 0.69846 0.30093 0.0
H482 H 0.23882 0.8 0.36594 0.0
H483 H 0.27025 0.77527 0.43011 0.0
C484 C 0.20814 0.76996 0.20342 0.0
C485 C 0.18304 0.79633 0.20923 0.0
C486 C 0.22204 0.75488 0.24206 0.0
C487 C 0.21155 0.76614 0.2875 0.0
C488 C 0.1862 0.79231 0.29338 0.0
C489 C 0.17184 0.80706 0.25459 0.0
C490 C 0.24974 0.70137 0.36584 0.0
C491 C 0.26414 0.72262 0.4025 0.0
C492 C 0.23202 0.71547 0.32911 0.0
C493 C 0.22796 0.75115 0.32838 0.0
C494 C 0.24134 0.77239 0.36575 0.0
C495 C 0.2595 0.75829 0.40228 0.0
H496 H 0.7506 0.78789 0.5558 0.0
H497 H 0.8176 0.69991 0.56685 0.0
H498 H 0.79927 0.82568 0.58242 0.0
H499 H 0.86598 0.73701 0.59327 0.0
H500 H 0.94751 0.80424 0.65399 0.0
H501 H 0.90885 0.78337 0.59017 0.0
H502 H 0.81956 0.82958 0.66372 0.0
H503 H 0.85775 0.84996 0.72712 0.0
C504 C 0.77628 0.77686 0.56163 0.0
C505 C 0.78061 0.7412 0.55958 0.0
C506 C 0.80401 0.79836 0.57728 0.0
C507 C 0.8363 0.78432 0.59085 0.0
C508 C 0.84164 0.7488 0.58296 0.0
C509 C 0.81392 0.72744 0.56783 0.0
C510 C 0.9197 0.81043 0.65606 0.0
C511 C 0.90568 0.82828 0.69607 0.0
C512 C 0.89762 0.79867 0.61938 0.0
C513 C 0.86107 0.80456 0.62196 0.0
C514 C 0.84761 0.82496 0.66012 0.0
C515 C 0.86962 0.83661 0.69676 0.0
H516 H 0.80281 0.26111 0.09424 0.0
H517 H 0.71994 0.22428 1.00132 0.0
H518 H 0.76527 0.30848 0.12365 0.0
H519 H 0.68188 0.27104 0.03172 0.0
H520 H 0.68115 0.38524 0.176 0.0
H521 H 0.71615 0.36097 0.11032 0.0
H522 H 0.66849 0.26217 0.12501 0.0
H523 H 0.63594 0.28505 0.1926 0.0
C524 C 0.77745 0.26457 0.0779 0.0
C525 C 0.76416 0.23932 0.04558 0.0
C526 C 0.75588 0.29157 0.09482 0.0
C527 C 0.7206 0.29295 0.08033 0.0
C528 C 0.70904 0.27046 0.04325 0.0
C529 C 0.73092 0.24389 0.02562 0.0
C530 C 0.67807 0.3583 0.16544 0.0
C531 C 0.65613 0.33701 0.19072 0.0
C532 C 0.69769 0.34469 0.12724 0.0
C533 C 0.69467 0.30991 0.11251 0.0
C534 C 0.67071 0.28931 0.13517 0.0
C535 C 0.65196 0.30255 0.17407 0.0
H536 H 0.21374 0.28723 0.61159 0.0
H537 H 0.29241 0.2079 0.61456 0.0
H538 H 0.17389 0.25334 0.6573 0.0
H539 H 0.25243 0.17335 0.65837 0.0
H540 H 0.20711 0.16249 0.8051 0.0
H541 H 0.23818 0.18495 0.7399 0.0
H542 H 0.13894 0.20199 0.67157 0.0
H543 H 0.10766 0.1793 0.73727 0.0
C544 C 0.22174 0.26182 0.62014 0.0
C545 C 0.25606 0.25016 0.61029 0.0
C546 C 0.19905 0.24242 0.64639 0.0
C547 C 0.21049 0.21111 0.66261 0.0
C548 C 0.24329 0.19782 0.64758 0.0
C549 C 0.26601 0.21735 0.62208 0.0
C550 C 0.19191 0.17045 0.77585 0.0
C551 C 0.15496 0.16918 0.77643 0.0
C552 C 0.20971 0.18321 0.73829 0.0
C553 C 0.19102 0.19496 0.70023 0.0
C554 C 0.15404 0.19329 0.70044 0.0
C555 C 0.13618 0.18045 0.73813 0.0
H556 H 0.69186 0.79555 0.42032 0.0
H557 H 0.78061 0.72844 0.4353 0.0
H558 H 0.72418 0.82631 0.36357 0.0
H559 H 0.81362 0.75944 0.37805 0.0
H560 H 0.81332 0.77153 0.21503 0.0
H561 H 0.80171 0.75546 0.29401 0.0
H562 H 0.7717 0.85986 0.33491 0.0
H563 H 0.78294 0.87577 0.25558 0.0
C564 C 0.71907 0.78857 0.41312 0.0
C565 C 0.73371 0.75955 0.43168 0.0
C566 C 0.73769 0.80616 0.38044 0.0
C567 C 0.77124 0.79482 0.36536 0.0
C568 C 0.78754 0.76836 0.38833 0.0
C569 C 0.76891 0.75092 0.42158 0.0
C570 C 0.80493 0.79117 0.24114 0.0
C571 C 0.7983 0.82471 0.22888 0.0
C572 C 0.79857 0.78206 0.2866 0.0
C573 C 0.78558 0.80635 0.32084 0.0
C574 C 0.78121 0.84044 0.30923 0.0
C575 C 0.78741 0.84949 0.26374 0.0
H576 H 0.70168 0.15576 0.87009 0.0
H577 H 0.77585 0.23142 0.92675 0.0
H578 H 0.68158 0.19536 0.81433 0.0
H579 H 0.75525 0.27159 0.8709 0.0
H580 H 0.74196 0.30789 0.71808 0.0
H581 H 0.75924 0.2763 0.78526 0.0
H582 H 0.65045 0.24839 0.80605 0.0
H583 H 0.63344 0.27944 0.73914 0.0
C584 C 0.71321 0.18116 0.87126 0.0
C585 C 0.74039 0.19038 0.90284 0.0
C586 C 0.70159 0.20398 0.83932 0.0
C587 C 0.71688 0.23668 0.83791 0.0
C588 C 0.74319 0.24647 0.87071 0.0
C589 C 0.75471 0.2236 0.90303 0.0
C590 C 0.72178 0.29531 0.73743 0.0
C591 C 0.68647 0.29554 0.72269 0.0
C592 C 0.73162 0.27734 0.77602 0.0
C593 C 0.70628 0.2594 0.80072 0.0
C594 C 0.67077 0.26121 0.78724 0.0
C595 C 0.66102 0.27898 0.7488 0.0
H596 H 0.25275 0.23345 0.51248 0.0
H597 H 0.17729 0.30266 0.45753 0.0
H598 H 0.21507 0.18497 0.48786 0.0
H599 H 0.13998 0.25405 0.43181 0.0
H600 H 0.08051 0.15174 0.39387 0.0
H601 H 0.10494 0.19744 0.44773 0.0
H602 H 0.2098 0.17114 0.39902 0.0
H603 H 0.18593 0.12743 0.34452 0.0
C604 C 0.22734 0.23845 0.49729 0.0
C605 C 0.21794 0.2717 0.48675 0.0
C606 C 0.20592 0.21069 0.48279 0.0
C607 C 0.17494 0.21584 0.45735 0.0
C608 C 0.16364 0.24941 0.45148 0.0
C609 C 0.18512 0.27715 0.46588 0.0
C610 C 0.10874 0.15587 0.39474 0.0
C611 C 0.13128 0.13549 0.36542 0.0
C612 C 0.12267 0.18169 0.42582 0.0
C613 C 0.15929 0.18702 0.42842 0.0
C614 C 0.18158 0.16676 0.39901 0.0
C615 C 0.16779 0.14167 0.36765 0.0
H616 H 0.28949 0.81749 0.01111 0.0
H617 H 0.24457 0.73275 0.0791 0.0
H618 H 0.33487 0.77984 0.97601 0.0
H619 H 0.28952 0.69451 0.04272 0.0
H620 H 0.40961 0.70084 0.91092 0.0
H621 H 0.38503 0.7318 0.98049 0.0
H622 H 0.28347 0.68588 0.95022 0.0
H623 H 0.3067 0.65713 0.87969 0.0
C624 C 0.29058 0.79112 0.0204 0.0
C625 C 0.2638 0.77777 0.04748 0.0
C626 C 0.31654 0.76958 1.00043 0.0
C627 C 0.31535 0.73427 0.00633 0.0
C628 C 0.29091 0.7217 0.03781 0.0
C629 C 0.26535 0.74351 0.05871 0.0
C630 C 0.38204 0.69727 0.91907 0.0
C631 C 0.36016 0.67662 0.88909 0.0
C632 C 0.36824 0.71455 0.95933 0.0
C633 C 0.33259 0.71072 0.97097 0.0
C634 C 0.31131 0.68855 0.94271 0.0
C635 C 0.32476 0.67203 0.90206 0.0
loop_
_geom_bond_atom_site_label_1
_geom_bond_atom_site_label_2
_geom_bond_distance
_geom_bond_site_symmetry_2
_ccdc_geom_bond_type
Zn0 O6 1.920 . S
Zn0 O12 1.898 . S
Zn0 O15 1.905 . S
Zn1 O9 1.905 . S
Zn1 O10 1.898 . S
Zn1 O18 1.920 . S
Zn2 O5 2.080 . S
Zn2 O8 2.114 . S
Zn2 O11 2.120 1_554 S
Zn2 O13 2.120 . S
Zn2 O14 2.114 . S
Zn2 O17 2.080 . S
C3 O8 1.166 1_556 S
C3 O9 1.182 . S
C4 O10 1.167 . S
C4 O11 1.299 . S
O5 Zn2 2.080 . S
O5 C19 1.305 . S
O6 Zn0 1.920 . S
O6 C19 1.234 . S
C7 O12 1.167 . S
C7 O13 1.299 . S
O8 Zn2 2.114 . S
O8 C3 1.166 1_554 S
O9 Zn1 1.905 . S
O9 C3 1.182 . S
O10 Zn1 1.898 . S
O10 C4 1.167 . S
O11 Zn2 2.120 1_556 S
O11 C4 1.299 . S
O12 Zn0 1.898 . S
O12 C7 1.167 . S
O13 Zn2 2.120 . S
O13 C7 1.299 . S
O14 Zn2 2.114 . S
O14 C16 1.166 . S
O15 Zn0 1.905 . S
O15 C16 1.182 . S
C16 O14 1.166 . S
C16 O15 1.182 . S
O17 Zn2 2.080 . S
O17 C20 1.318 . S
O18 Zn1 1.920 . S
O18 C20 1.215 1_556 S
C19 O5 1.305 . S
C19 O6 1.234 . S
C20 O17 1.318 . S
C20 O18 1.215 1_554 S
Zn21 O27 1.920 . S
Zn21 O33 1.898 . S
Zn21 O36 1.905 . S
Zn22 O30 1.905 . S
Zn22 O31 1.898 . S
Zn22 O39 1.920 . S
Zn23 O26 2.080 . S
Zn23 O29 2.114 . S
Zn23 O32 2.120 . S
Zn23 O34 2.120 . S
Zn23 O35 2.114 . S
Zn23 O38 2.080 . S
C24 O29 1.166 . S
C24 O30 1.182 . S
C25 O31 1.167 . S
C25 O32 1.299 . S
O26 Zn23 2.080 . S
O26 C40 1.305 . S
O27 Zn21 1.920 . S
O27 C40 1.234 . S
C28 O33 1.167 . S
C28 O34 1.299 . S
O29 Zn23 2.114 . S
O29 C24 1.166 . S
O30 Zn22 1.905 . S
O30 C24 1.182 . S
O31 Zn22 1.898 . S
O31 C25 1.167 . S
O32 Zn23 2.120 . S
O32 C25 1.299 . S
O33 Zn21 1.898 . S
O33 C28 1.167 . S
O34 Zn23 2.120 . S
O34 C28 1.299 . S
O35 Zn23 2.114 . S
O35 C37 1.166 . S
O36 Zn21 1.905 . S
O36 C37 1.182 . S
C37 O35 1.166 . S
C37 O36 1.182 . S
O38 Zn23 2.080 . S
O38 C41 1.305 . S
O39 Zn22 1.920 . S
O39 C41 1.234 . S
C40 O26 1.305 . S
C40 O27 1.234 . S
C41 O38 1.305 . S
C41 O39 1.234 . S
Zn42 O48 1.920 . S
Zn42 O54 1.898 . S
Zn42 O57 1.905 . S
Zn43 O51 1.905 . S
Zn43 O52 1.898 . S
Zn43 O60 1.920 . S
Zn44 O47 2.080 1_554 S
Zn44 O50 2.114 . S
Zn44 O53 2.120 . S
Zn44 O55 2.120 1_554 S
Zn44 O56 2.114 1_554 S
Zn44 O59 2.080 . S
C45 O50 1.166 . S
C45 O51 1.182 . S
C46 O52 1.167 . S
C46 O53 1.299 . S
O47 Zn44 2.080 1_556 S
O47 C61 1.305 . S
O48 Zn42 1.920 . S
O48 C61 1.234 . S
C49 O54 1.167 . S
C49 O55 1.299 . S
O50 Zn44 2.114 . S
O50 C45 1.166 . S
O51 Zn43 1.905 . S
O51 C45 1.182 . S
O52 Zn43 1.898 . S
O52 C46 1.167 . S
O53 Zn44 2.120 . S
O53 C46 1.299 . S
O54 Zn42 1.898 . S
O54 C49 1.167 . S
O55 Zn44 2.120 1_556 S
O55 C49 1.299 . S
O56 Zn44 2.114 1_556 S
O56 C58 1.166 . S
O57 Zn42 1.905 . S
O57 C58 1.182 . S
C58 O56 1.166 . S
C58 O57 1.182 . S
O59 Zn44 2.080 . S
O59 C62 1.305 . S
O60 Zn43 1.920 . S
O60 C62 1.234 . S
C61 O47 1.305 . S
C61 O48 1.234 . S
C62 O59 1.305 . S
C62 O60 1.234 . S
Zn63 O69 1.920 . S
Zn63 O75 1.898 . S
Zn63 O78 1.905 . S
Zn64 O72 1.905 . S
Zn64 O73 1.898 . S
Zn64 O81 1.920 . S
Zn65 O68 2.080 . S
Zn65 O71 2.114 . S
Zn65 O74 2.120 . S
Zn65 O76 2.120 . S
Zn65 O77 2.114 . S
Zn65 O80 2.080 . S
C66 O71 1.166 . S
C66 O72 1.182 . S
C67 O73 1.167 . S
C67 O74 1.299 . S
O68 Zn65 2.080 . S
O68 C82 1.305 . S
O69 Zn63 1.920 . S
O69 C82 1.234 . S
C70 O75 1.167 . S
C70 O76 1.299 . S
O71 Zn65 2.114 . S
O71 C66 1.166 . S
O72 Zn64 1.905 . S
O72 C66 1.182 . S
O73 Zn64 1.898 . S
O73 C67 1.167 . S
O74 Zn65 2.120 . S
O74 C67 1.299 . S
O75 Zn63 1.898 . S
O75 C70 1.167 . S
O76 Zn65 2.120 . S
O76 C70 1.299 . S
O77 Zn65 2.114 . S
O77 C79 1.166 . S
O78 Zn63 1.905 . S
O78 C79 1.182 . S
C79 O77 1.166 . S
C79 O78 1.182 . S
O80 Zn65 2.080 . S
O80 C83 1.305 . S
O81 Zn64 1.920 . S
O81 C83 1.234 . S
C82 O68 1.305 . S
C82 O69 1.234 . S
C83 O80 1.305 . S
C83 O81 1.234 . S
H84 C87 0.931 . S
H85 C90 0.928 . S
H86 C92 0.930 . S
C87 H84 0.931 . S
C87 C88 1.413 . S
C87 C89 1.360 . S
C88 C87 1.413 . S
C88 C92 1.429 . S
C89 C87 1.360 . S
C89 C90 1.372 . S
C90 H85 0.928 . S
C90 C89 1.372 . S
C90 C91 1.404 . S
C91 C90 1.404 . S
C91 C92 1.391 . S
C92 H86 0.930 . S
C92 C88 1.429 . S
C92 C91 1.391 . S
H93 C96 0.931 . S
H94 C99 0.928 . S
H95 C101 0.930 . S
C96 H93 0.931 . S
C96 C97 1.413 . S
C96 C98 1.360 . S
C97 C96 1.413 . S
C97 C101 1.429 . S
C98 C96 1.360 . S
C98 C99 1.372 . S
C99 H94 0.928 . S
C99 C98 1.372 . S
C99 C100 1.404 . S
C100 C99 1.404 . S
C100 C101 1.391 . S
C101 H95 0.930 . S
C101 C97 1.429 . S
C101 C100 1.391 . S
H102 C105 0.931 . S
H103 C108 0.928 . S
H104 C110 0.930 . S
C105 H102 0.931 . S
C105 C106 1.413 . S
C105 C107 1.360 . S
C106 C105 1.413 . S
C106 C110 1.429 . S
C107 C105 1.360 . S
C107 C108 1.372 . S
C108 H103 0.928 . S
C108 C107 1.372 . S
C108 C109 1.404 . S
C109 C108 1.404 . S
C109 C110 1.391 . S
C110 H104 0.930 . S
C110 C106 1.429 . S
C110 C109 1.391 . S
H111 C114 0.931 . S
H112 C117 0.928 . S
H113 C119 0.930 . S
C114 H111 0.931 . S
C114 C115 1.413 . S
C114 C116 1.360 . S
C115 C114 1.413 . S
C115 C119 1.429 . S
C116 C114 1.360 . S
C116 C117 1.372 . S
C117 H112 0.928 . S
C117 C116 1.372 . S
C117 C118 1.404 . S
C118 C117 1.404 . S
C118 C119 1.391 . S
C119 H113 0.930 . S
C119 C115 1.429 . S
C119 C118 1.391 . S
H120 C123 0.931 . S
H121 C126 0.928 . S
H122 C128 0.930 . S
C123 H120 0.931 . S
C123 C124 1.413 . S
C123 C125 1.360 . S
C124 C123 1.413 . S
C124 C128 1.429 . S
C125 C123 1.360 . S
C125 C126 1.372 . S
C126 H121 0.928 . S
C126 C125 1.372 . S
C126 C127 1.404 . S
C127 C126 1.404 . S
C127 C128 1.391 . S
C128 H122 0.930 . S
C128 C124 1.429 . S
C128 C127 1.391 . S
H129 C132 0.931 . S
H130 C135 0.928 . S
H131 C137 0.930 . S
C132 H129 0.931 . S
C132 C133 1.413 . S
C132 C134 1.360 . S
C133 C132 1.413 . S
C133 C137 1.429 . S
C134 C132 1.360 . S
C134 C135 1.372 . S
C135 H130 0.928 . S
C135 C134 1.372 . S
C135 C136 1.404 . S
C136 C135 1.404 . S
C136 C137 1.391 . S
C137 H131 0.930 . S
C137 C133 1.429 . S
C137 C136 1.391 . S
H138 C141 0.931 . S
H139 C144 0.928 . S
H140 C146 0.930 . S
C141 H138 0.931 . S
C141 C142 1.413 . S
C141 C143 1.360 . S
C142 C141 1.413 . S
C142 C146 1.429 . S
C143 C141 1.360 . S
C143 C144 1.372 . S
C144 H139 0.928 . S
C144 C143 1.372 . S
C144 C145 1.404 . S
C145 C144 1.404 . S
C145 C146 1.391 . S
C146 H140 0.930 . S
C146 C142 1.429 . S
C146 C145 1.391 . S
H147 C150 0.931 . S
H148 C153 0.928 . S
H149 C155 0.930 . S
C150 H147 0.931 . S
C150 C151 1.413 . S
C150 C152 1.360 . S
C151 C150 1.413 . S
C151 C155 1.429 . S
C152 C150 1.360 . S
C152 C153 1.372 . S
C153 H148 0.928 . S
C153 C152 1.372 . S
C153 C154 1.404 . S
C154 C153 1.404 . S
C154 C155 1.391 . S
C155 H149 0.930 . S
C155 C151 1.429 . S
C155 C154 1.391 . S
H156 C164 0.950 . S
H157 C169 0.950 . S
H158 C166 0.950 . S
H159 C168 0.950 . S
H160 C170 0.950 . S
H161 C172 0.950 . S
H162 C174 0.950 . S
H163 C175 0.950 . S
C164 H156 0.950 . S
C164 C165 1.386 . S
C164 C166 1.391 . S
C165 C164 1.386 . S
C165 C169 1.393 . S
C166 H158 0.950 . S
C166 C164 1.391 . S
C166 C167 1.400 . S
C167 C166 1.400 . S
C167 C168 1.398 . S
C167 C173 1.491 1_565 S
C168 H159 0.950 . S
C168 C167 1.398 . S
C168 C169 1.391 . S
C169 H157 0.950 . S
C169 C165 1.393 . S
C169 C168 1.391 . S
C170 H160 0.950 . S
C170 C171 1.386 . S
C170 C172 1.391 . S
C171 C170 1.386 . S
C171 C175 1.393 . S
C172 H161 0.950 . S
C172 C170 1.391 . S
C172 C173 1.400 . S
C173 C167 1.491 1_545 S
C173 C172 1.400 . S
C173 C174 1.398 1_545 S
C174 H162 0.950 . S
C174 C173 1.398 1_565 S
C174 C175 1.390 1_565 S
C175 H163 0.950 . S
C175 C171 1.393 . S
C175 C174 1.390 1_545 S
H176 C184 0.950 . S
H177 C189 0.950 . S
H178 C186 0.950 . S
H179 C188 0.950 . S
H180 C190 0.950 . S
H181 C192 0.950 . S
H182 C194 0.950 . S
H183 C195 0.950 . S
C184 H176 0.950 . S
C184 C185 1.386 . S
C184 C186 1.391 . S
C185 C184 1.386 . S
C185 C189 1.393 . S
C186 H178 0.950 . S
C186 C184 1.391 . S
C186 C187 1.400 . S
C187 C186 1.400 . S
C187 C188 1.398 . S
C187 C193 1.491 . S
C188 H179 0.950 . S
C188 C187 1.398 . S
C188 C189 1.391 . S
C189 H177 0.950 . S
C189 C185 1.393 . S
C189 C188 1.391 . S
C190 H180 0.950 . S
C190 C191 1.386 . S
C190 C192 1.391 . S
C191 C190 1.386 . S
C191 C195 1.393 . S
C192 H181 0.950 . S
C192 C190 1.391 . S
C192 C193 1.400 . S
C193 C187 1.491 . S
C193 C192 1.400 . S
C193 C194 1.398 . S
C194 H182 0.950 . S
C194 C193 1.398 . S
C194 C195 1.391 . S
C195 H183 0.950 . S
C195 C191 1.393 . S
C195 C194 1.391 . S
H196 C204 0.950 . S
H197 C209 0.950 . S
H198 C206 0.950 . S
H199 C208 0.950 . S
H200 C210 0.950 . S
H201 C212 0.950 . S
H202 C214 0.950 . S
H203 C215 0.950 . S
C204 H196 0.950 . S
C204 C205 1.386 . S
C204 C206 1.391 . S
C205 C204 1.386 . S
C205 C209 1.393 . S
C206 H198 0.950 . S
C206 C204 1.391 . S
C206 C207 1.400 . S
C207 C206 1.400 . S
C207 C208 1.398 . S
C207 C213 1.491 1_545 S
C208 H199 0.950 . S
C208 C207 1.398 . S
C208 C209 1.391 . S
C209 H197 0.950 . S
C209 C205 1.393 . S
C209 C208 1.391 . S
C210 H200 0.950 . S
C210 C211 1.386 . S
C210 C212 1.391 . S
C211 C210 1.386 . S
C211 C215 1.393 . S
C212 H201 0.950 . S
C212 C210 1.391 . S
C212 C213 1.400 . S
C213 C207 1.491 1_565 S
C213 C212 1.400 . S
C213 C214 1.398 . S
C214 H202 0.950 . S
C214 C213 1.398 . S
C214 C215 1.391 . S
C215 H203 0.950 . S
C215 C211 1.393 . S
C215 C214 1.391 . S
H216 C224 0.950 . S
H217 C229 0.950 . S
H218 C226 0.950 . S
H219 C228 0.950 . S
H220 C230 0.950 . S
H221 C232 0.950 . S
H222 C234 0.950 . S
H223 C235 0.950 . S
C224 H216 0.950 . S
C224 C225 1.386 . S
C224 C226 1.391 . S
C225 C224 1.386 . S
C225 C229 1.393 . S
C226 H218 0.950 . S
C226 C224 1.391 . S
C226 C227 1.400 . S
C227 C226 1.400 . S
C227 C228 1.398 . S
C227 C233 1.491 . S
C228 H219 0.950 . S
C228 C227 1.398 . S
C228 C229 1.391 . S
C229 H217 0.950 . S
C229 C225 1.393 . S
C229 C228 1.391 . S
C230 H220 0.950 . S
C230 C231 1.386 . S
C230 C232 1.391 . S
C231 C230 1.386 . S
C231 C235 1.393 . S
C232 H221 0.950 . S
C232 C230 1.391 . S
C232 C233 1.400 . S
C233 C227 1.491 . S
C233 C232 1.400 . S
C233 C234 1.398 . S
C234 H222 0.950 . S
C234 C233 1.398 . S
C234 C235 1.391 . S
C235 H223 0.950 . S
C235 C231 1.393 . S
C235 C234 1.391 . S
H236 C244 0.950 . S
H237 C249 0.950 . S
H238 C246 0.950 . S
H239 C248 0.950 . S
H240 C250 0.950 . S
H241 C252 0.950 . S
H242 C254 0.950 . S
H243 C255 0.950 . S
C244 H236 0.950 . S
C244 C245 1.386 . S
C244 C246 1.391 . S
C245 C244 1.386 . S
C245 C249 1.393 . S
C246 H238 0.950 . S
C246 C244 1.391 . S
C246 C247 1.400 . S
C247 C246 1.400 . S
C247 C248 1.398 . S
C247 C253 1.491 . S
C248 H239 0.950 . S
C248 C247 1.398 . S
C248 C249 1.391 . S
C249 H237 0.950 . S
C249 C245 1.393 . S
C249 C248 1.391 . S
C250 H240 0.950 . S
C250 C251 1.386 . S
C250 C252 1.391 . S
C251 C250 1.386 . S
C251 C255 1.393 . S
C252 H241 0.950 . S
C252 C250 1.391 . S
C252 C253 1.400 . S
C253 C247 1.491 . S
C253 C252 1.400 . S
C253 C254 1.398 . S
C254 H242 0.950 . S
C254 C253 1.398 . S
C254 C255 1.391 . S
C255 H243 0.950 . S
C255 C251 1.393 . S
C255 C254 1.391 . S
H256 C264 0.950 1_554 S
H257 C269 0.950 . S
H258 C266 0.950 1_454 S
H259 C268 0.950 . S
H260 C270 0.950 . S
H261 C272 0.950 . S
H262 C274 0.950 1_554 S
H263 C275 0.950 . S
C264 H256 0.950 1_556 S
C264 C265 1.386 . S
C264 C266 1.391 . S
C265 C264 1.386 . S
C265 C269 1.393 . S
C266 H258 0.950 1_656 S
C266 C264 1.391 . S
C266 C267 1.400 1_655 S
C267 C266 1.400 1_455 S
C267 C268 1.398 1_455 S
C267 C273 1.491 . S
C268 H259 0.950 . S
C268 C267 1.398 1_655 S
C268 C269 1.391 . S
C269 H257 0.950 . S
C269 C265 1.393 . S
C269 C268 1.391 . S
C270 H260 0.950 . S
C270 C271 1.386 . S
C270 C272 1.391 . S
C271 C270 1.386 . S
C271 C275 1.393 . S
C272 H261 0.950 . S
C272 C270 1.391 . S
C272 C273 1.400 . S
C273 C267 1.491 . S
C273 C272 1.400 . S
C273 C274 1.398 . S
C274 H262 0.950 1_556 S
C274 C273 1.398 . S
C274 C275 1.391 . S
C275 H263 0.950 . S
C275 C271 1.393 . S
C275 C274 1.391 . S
H276 C284 0.950 . S
H277 C289 0.950 . S
H278 C286 0.950 . S
H279 C288 0.950 . S
H280 C290 0.950 . S
H281 C292 0.950 . S
H282 C294 0.950 . S
H283 C295 0.950 . S
C284 H276 0.950 . S
C284 C285 1.386 . S
C284 C286 1.391 . S
C285 C284 1.386 . S
C285 C289 1.393 . S
C286 H278 0.950 . S
C286 C284 1.391 . S
C286 C287 1.400 . S
C287 C286 1.400 . S
C287 C288 1.398 . S
C287 C293 1.491 . S
C288 H279 0.950 . S
C288 C287 1.398 . S
C288 C289 1.391 . S
C289 H277 0.950 . S
C289 C285 1.393 . S
C289 C288 1.391 . S
C290 H280 0.950 . S
C290 C291 1.386 . S
C290 C292 1.391 . S
C291 C290 1.386 . S
C291 C295 1.393 . S
C292 H281 0.950 . S
C292 C290 1.391 . S
C292 C293 1.400 . S
C293 C287 1.491 . S
C293 C292 1.400 . S
C293 C294 1.398 . S
C294 H282 0.950 . S
C294 C293 1.398 . S
C294 C295 1.391 . S
C295 H283 0.950 . S
C295 C291 1.393 . S
C295 C294 1.391 . S
H296 C304 0.950 . S
H297 C309 0.950 . S
H298 C306 0.950 . S
H299 C308 0.950 . S
H300 C310 0.950 . S
H301 C312 0.950 . S
H302 C314 0.950 . S
H303 C315 0.950 . S
C304 H296 0.950 . S
C304 C305 1.386 . S
C304 C306 1.391 . S
C305 C304 1.386 . S
C305 C309 1.393 . S
C306 H298 0.950 . S
C306 C304 1.391 . S
C306 C307 1.400 . S
C307 C306 1.400 . S
C307 C308 1.398 . S
C307 C313 1.491 . S
C308 H299 0.950 . S
C308 C307 1.398 . S
C308 C309 1.391 . S
C309 H297 0.950 . S
C309 C305 1.393 . S
C309 C308 1.391 . S
C310 H300 0.950 . S
C310 C311 1.386 1_455 S
C310 C312 1.391 . S
C311 C310 1.386 1_655 S
C311 C315 1.393 . S
C312 H301 0.950 . S
C312 C310 1.391 . S
C312 C313 1.400 . S
C313 C307 1.491 . S
C313 C312 1.400 . S
C313 C314 1.398 1_455 S
C314 H302 0.950 . S
C314 C313 1.398 1_655 S
C314 C315 1.391 . S
C315 H303 0.950 . S
C315 C311 1.393 . S
C315 C314 1.391 . S
H316 C324 0.950 . S
H317 C329 0.950 . S
H318 C326 0.950 . S
H319 C328 0.950 . S
H320 C330 0.950 . S
H321 C332 0.950 . S
H322 C334 0.950 . S
H323 C335 0.950 . S
C324 H316 0.950 . S
C324 C325 1.386 . S
C324 C326 1.391 . S
C325 C324 1.386 . S
C325 C329 1.393 . S
C326 H318 0.950 . S
C326 C324 1.391 . S
C326 C327 1.400 1_545 S
C327 C326 1.400 1_565 S
C327 C328 1.398 . S
C327 C333 1.491 . S
C328 H319 0.950 . S
C328 C327 1.398 . S
C328 C329 1.391 1_565 S
C329 H317 0.950 . S
C329 C325 1.393 . S
C329 C328 1.391 1_545 S
C330 H320 0.950 . S
C330 C331 1.386 . S
C330 C332 1.391 . S
C331 C330 1.386 . S
C331 C335 1.393 . S
C332 H321 0.950 . S
C332 C330 1.391 . S
C332 C333 1.400 . S
C333 C327 1.491 . S
C333 C332 1.400 . S
C333 C334 1.398 . S
C334 H322 0.950 . S
C334 C333 1.398 . S
C334 C335 1.391 . S
C335 H323 0.950 . S
C335 C331 1.393 . S
C335 C334 1.391 . S
H336 C344 0.950 . S
H337 C349 0.950 . S
H338 C346 0.950 . S
H339 C348 0.950 . S
H340 C350 0.950 . S
H341 C352 0.950 . S
H342 C354 0.950 . S
H343 C355 0.950 . S
C344 H336 0.950 . S
C344 C345 1.386 . S
C344 C346 1.391 . S
C345 C344 1.386 . S
C345 C349 1.393 . S
C346 H338 0.950 . S
C346 C344 1.391 . S
C346 C347 1.400 . S
C347 C346 1.400 . S
C347 C348 1.398 . S
C347 C353 1.491 . S
C348 H339 0.950 . S
C348 C347 1.398 . S
C348 C349 1.391 . S
C349 H337 0.950 . S
C349 C345 1.393 . S
C349 C348 1.391 . S
C350 H340 0.950 . S
C350 C351 1.386 . S
C350 C352 1.391 . S
C351 C350 1.386 . S
C351 C355 1.393 . S
C352 H341 0.950 . S
C352 C350 1.391 . S
C352 C353 1.400 . S
C353 C347 1.491 . S
C353 C352 1.400 . S
C353 C354 1.398 . S
C354 H342 0.950 . S
C354 C353 1.398 . S
C354 C355 1.391 . S
C355 H343 0.950 . S
C355 C351 1.393 . S
C355 C354 1.391 . S
H356 C364 0.950 . S
H357 C369 0.950 . S
H358 C366 0.950 . S
H359 C368 0.953 . S
H360 C370 0.950 . S
H361 C372 0.950 . S
H362 C374 0.950 1_554 S
H363 C375 0.950 . S
C364 H356 0.950 . S
C364 C365 1.386 1_554 S
C364 C366 1.391 1_565 S
C365 C364 1.386 1_556 S
C365 C369 1.393 . S
C366 H358 0.950 . S
C366 C364 1.391 1_545 S
C366 C367 1.400 1_554 S
C367 C366 1.400 1_556 S
C367 C368 1.398 1_545 S
C367 C373 1.491 . S
C368 H359 0.953 . S
C368 C367 1.398 1_565 S
C368 C369 1.391 . S
C369 H357 0.950 . S
C369 C365 1.393 . S
C369 C368 1.391 . S
C370 H360 0.950 . S
C370 C371 1.386 . S
C370 C372 1.391 . S
C371 C370 1.386 . S
C371 C375 1.393 . S
C372 H361 0.950 . S
C372 C370 1.391 . S
C372 C373 1.400 . S
C373 C367 1.491 . S
C373 C372 1.400 . S
C373 C374 1.398 . S
C374 H362 0.950 1_556 S
C374 C373 1.398 . S
C374 C375 1.391 . S
C375 H363 0.950 . S
C375 C371 1.393 . S
C375 C374 1.391 . S
H376 C384 0.950 . S
H377 C389 0.950 . S
H378 C386 0.950 . S
H379 C388 0.950 . S
H380 C390 0.950 . S
H381 C392 0.950 . S
H382 C394 0.950 . S
H383 C395 0.950 . S
C384 H376 0.950 . S
C384 C385 1.386 . S
C384 C386 1.391 . S
C385 C384 1.386 . S
C385 C389 1.393 . S
C386 H378 0.950 . S
C386 C384 1.391 . S
C386 C387 1.400 . S
C387 C386 1.400 . S
C387 C388 1.398 . S
C387 C393 1.491 . S
C388 H379 0.950 . S
C388 C387 1.398 . S
C388 C389 1.391 . S
C389 H377 0.950 . S
C389 C385 1.393 . S
C389 C388 1.391 . S
C390 H380 0.950 . S
C390 C391 1.386 . S
C390 C392 1.391 . S
C391 C390 1.386 . S
C391 C395 1.393 . S
C392 H381 0.950 . S
C392 C390 1.391 . S
C392 C393 1.400 . S
C393 C387 1.491 . S
C393 C392 1.400 . S
C393 C394 1.398 . S
C394 H382 0.950 . S
C394 C393 1.398 . S
C394 C395 1.391 . S
C395 H383 0.950 . S
C395 C391 1.393 . S
C395 C394 1.391 . S
H396 C404 0.950 . S
H397 C409 0.950 . S
H398 C406 0.950 . S
H399 C408 0.950 . S
H400 C410 0.950 . S
H401 C412 0.950 . S
H402 C414 0.950 . S
H403 C415 0.950 . S
C404 H396 0.950 . S
C404 C405 1.386 . S
C404 C406 1.391 . S
C405 C404 1.386 . S
C405 C409 1.393 . S
C406 H398 0.950 . S
C406 C404 1.391 . S
C406 C407 1.400 . S
C407 C406 1.400 . S
C407 C408 1.398 . S
C407 C413 1.491 . S
C408 H399 0.950 . S
C408 C407 1.398 . S
C408 C409 1.391 . S
C409 H397 0.950 . S
C409 C405 1.393 . S
C409 C408 1.391 . S
C410 H400 0.950 . S
C410 C411 1.386 . S
C410 C412 1.391 . S
C411 C410 1.386 . S
C411 C415 1.393 . S
C412 H401 0.950 . S
C412 C410 1.391 . S
C412 C413 1.400 . S
C413 C407 1.491 . S
C413 C412 1.400 . S
C413 C414 1.398 . S
C414 H402 0.950 . S
C414 C413 1.398 . S
C414 C415 1.391 . S
C415 H403 0.950 . S
C415 C411 1.393 . S
C415 C414 1.391 . S
H416 C424 0.950 . S
H417 C429 0.950 . S
H418 C426 0.950 . S
H419 C428 0.950 . S
H420 C430 0.950 . S
H421 C432 0.950 . S
H422 C434 0.950 . S
H423 C435 0.950 . S
C424 H416 0.950 . S
C424 C425 1.386 . S
C424 C426 1.391 1_455 S
C425 C424 1.386 . S
C425 C429 1.393 . S
C426 H418 0.950 . S
C426 C424 1.391 1_655 S
C426 C427 1.400 . S
C427 C426 1.400 . S
C427 C428 1.398 . S
C427 C433 1.491 . S
C428 H419 0.950 . S
C428 C427 1.398 . S
C428 C429 1.391 1_655 S
C429 H417 0.950 . S
C429 C425 1.393 . S
C429 C428 1.391 1_455 S
C430 H420 0.950 . S
C430 C431 1.386 . S
C430 C432 1.391 . S
C431 C430 1.386 . S
C431 C435 1.393 . S
C432 H421 0.950 . S
C432 C430 1.391 . S
C432 C433 1.400 . S
C433 C427 1.491 . S
C433 C432 1.400 . S
C433 C434 1.398 . S
C434 H422 0.950 . S
C434 C433 1.398 . S
C434 C435 1.391 . S
C435 H423 0.950 . S
C435 C431 1.393 . S
C435 C434 1.391 . S
H436 C444 0.950 . S
H437 C449 0.950 . S
H438 C446 0.950 . S
H439 C448 0.950 . S
H440 C450 0.950 . S
H441 C452 0.950 . S
H442 C454 0.950 . S
H443 C455 0.950 . S
C444 H436 0.950 . S
C444 C445 1.386 . S
C444 C446 1.391 . S
C445 C444 1.386 . S
C445 C449 1.393 . S
C446 H438 0.950 . S
C446 C444 1.391 . S
C446 C447 1.400 . S
C447 C446 1.400 . S
C447 C448 1.398 . S
C447 C453 1.491 . S
C448 H439 0.950 . S
C448 C447 1.398 . S
C448 C449 1.391 . S
C449 H437 0.950 . S
C449 C445 1.393 . S
C449 C448 1.391 . S
C450 H440 0.950 . S
C450 C451 1.386 . S
C450 C452 1.391 . S
C451 C450 1.386 . S
C451 C455 1.393 . S
C452 H441 0.950 . S
C452 C450 1.391 . S
C452 C453 1.400 . S
C453 C447 1.491 . S
C453 C452 1.400 . S
C453 C454 1.398 . S
C454 H442 0.950 . S
C454 C453 1.398 . S
C454 C455 1.391 . S
C455 H443 0.950 . S
C455 C451 1.393 . S
C455 C454 1.391 . S
H456 C464 0.950 . S
H457 C469 0.950 . S
H458 C466 0.950 1_455 S
H459 C468 0.950 . S
H460 C470 0.950 . S
H461 C472 0.952 1_655 S
H462 C474 0.950 . S
H463 C475 0.950 . S
C464 H456 0.950 . S
C464 C465 1.386 . S
C464 C466 1.391 . S
C465 C464 1.386 . S
C465 C469 1.393 . S
C466 H458 0.950 1_655 S
C466 C464 1.391 . S
C466 C467 1.400 . S
C467 C466 1.400 . S
C467 C468 1.398 . S
C467 C473 1.491 1_655 S
C468 H459 0.950 . S
C468 C467 1.398 . S
C468 C469 1.391 . S
C469 H457 0.950 . S
C469 C465 1.393 . S
C469 C468 1.391 . S
C470 H460 0.950 . S
C470 C471 1.386 . S
C470 C472 1.390 . S
C471 C470 1.386 . S
C471 C475 1.393 . S
C472 H461 0.952 1_455 S
C472 C470 1.390 . S
C472 C473 1.400 . S
C473 C467 1.491 1_455 S
C473 C472 1.400 . S
C473 C474 1.398 . S
C474 H462 0.950 . S
C474 C473 1.398 . S
C474 C475 1.391 . S
C475 H463 0.950 . S
C475 C471 1.393 . S
C475 C474 1.391 . S
H476 C484 0.950 . S
H477 C489 0.950 . S
H478 C486 0.950 . S
H479 C488 0.950 . S
H480 C490 0.950 . S
H481 C492 0.950 . S
H482 C494 0.950 . S
H483 C495 0.950 . S
C484 H476 0.950 . S
C484 C485 1.386 . S
C484 C486 1.391 . S
C485 C484 1.386 . S
C485 C489 1.393 . S
C486 H478 0.950 . S
C486 C484 1.391 . S
C486 C487 1.400 . S
C487 C486 1.400 . S
C487 C488 1.398 . S
C487 C493 1.491 . S
C488 H479 0.950 . S
C488 C487 1.398 . S
C488 C489 1.391 . S
C489 H477 0.950 . S
C489 C485 1.393 . S
C489 C488 1.391 . S
C490 H480 0.950 . S
C490 C491 1.386 . S
C490 C492 1.391 . S
C491 C490 1.386 . S
C491 C495 1.393 . S
C492 H481 0.950 . S
C492 C490 1.391 . S
C492 C493 1.400 . S
C493 C487 1.491 . S
C493 C492 1.400 . S
C493 C494 1.398 . S
C494 H482 0.950 . S
C494 C493 1.398 . S
C494 C495 1.391 . S
C495 H483 0.950 . S
C495 C491 1.393 . S
C495 C494 1.391 . S
H496 C504 0.950 . S
H497 C509 0.950 . S
H498 C506 0.950 . S
H499 C508 0.950 . S
H500 C510 0.950 . S
H501 C512 0.950 . S
H502 C514 0.950 . S
H503 C515 0.950 . S
C504 H496 0.950 . S
C504 C505 1.386 . S
C504 C506 1.391 . S
C505 C504 1.386 . S
C505 C509 1.393 . S
C506 H498 0.950 . S
C506 C504 1.391 . S
C506 C507 1.400 . S
C507 C506 1.400 . S
C507 C508 1.398 . S
C507 C513 1.491 . S
C508 H499 0.950 . S
C508 C507 1.398 . S
C508 C509 1.391 . S
C509 H497 0.950 . S
C509 C505 1.393 . S
C509 C508 1.391 . S
C510 H500 0.950 . S
C510 C511 1.386 . S
C510 C512 1.391 . S
C511 C510 1.386 . S
C511 C515 1.393 . S
C512 H501 0.950 . S
C512 C510 1.391 . S
C512 C513 1.400 . S
C513 C507 1.491 . S
C513 C512 1.400 . S
C513 C514 1.398 . S
C514 H502 0.950 . S
C514 C513 1.398 . S
C514 C515 1.391 . S
C515 H503 0.950 . S
C515 C511 1.393 . S
C515 C514 1.391 . S
H516 C524 0.950 . S
H517 C529 0.950 . S
H518 C526 0.950 . S
H519 C528 0.950 . S
H520 C530 0.950 . S
H521 C532 0.950 . S
H522 C534 0.950 . S
H523 C535 0.950 . S
C524 H516 0.950 . S
C524 C525 1.386 . S
C524 C526 1.391 . S
C525 C524 1.386 . S
C525 C529 1.393 . S
C526 H518 0.950 . S
C526 C524 1.391 . S
C526 C527 1.400 . S
C527 C526 1.400 . S
C527 C528 1.398 . S
C527 C533 1.491 . S
C528 H519 0.950 . S
C528 C527 1.398 . S
C528 C529 1.391 . S
C529 H517 0.950 . S
C529 C525 1.393 . S
C529 C528 1.391 . S
C530 H520 0.950 . S
C530 C531 1.386 . S
C530 C532 1.391 . S
C531 C530 1.386 . S
C531 C535 1.393 . S
C532 H521 0.950 . S
C532 C530 1.391 . S
C532 C533 1.400 . S
C533 C527 1.491 . S
C533 C532 1.400 . S
C533 C534 1.398 . S
C534 H522 0.950 . S
C534 C533 1.398 . S
C534 C535 1.391 . S
C535 H523 0.950 . S
C535 C531 1.393 . S
C535 C534 1.391 . S
H536 C544 0.950 . S
H537 C549 0.950 . S
H538 C546 0.950 . S
H539 C548 0.950 . S
H540 C550 0.950 . S
H541 C552 0.950 . S
H542 C554 0.950 . S
H543 C555 0.950 . S
C544 H536 0.950 . S
C544 C545 1.386 . S
C544 C546 1.391 . S
C545 C544 1.386 . S
C545 C549 1.393 . S
C546 H538 0.950 . S
C546 C544 1.391 . S
C546 C547 1.400 . S
C547 C546 1.400 . S
C547 C548 1.398 . S
C547 C553 1.491 . S
C548 H539 0.950 . S
C548 C547 1.398 . S
C548 C549 1.391 . S
C549 H537 0.950 . S
C549 C545 1.393 . S
C549 C548 1.391 . S
C550 H540 0.950 . S
C550 C551 1.386 . S
C550 C552 1.391 . S
C551 C550 1.386 . S
C551 C555 1.393 . S
C552 H541 0.950 . S
C552 C550 1.391 . S
C552 C553 1.400 . S
C553 C547 1.491 . S
C553 C552 1.400 . S
C553 C554 1.398 . S
C554 H542 0.950 . S
C554 C553 1.398 . S
C554 C555 1.391 . S
C555 H543 0.950 . S
C555 C551 1.393 . S
C555 C554 1.391 . S
H556 C564 0.950 . S
H557 C569 0.950 . S
H558 C566 0.950 . S
H559 C568 0.950 . S
H560 C570 0.950 . S
H561 C572 0.950 . S
H562 C574 0.950 . S
H563 C575 0.950 . S
C564 H556 0.950 . S
C564 C565 1.386 . S
C564 C566 1.391 . S
C565 C564 1.386 . S
C565 C569 1.393 . S
C566 H558 0.950 . S
C566 C564 1.391 . S
C566 C567 1.400 . S
C567 C566 1.400 . S
C567 C568 1.398 . S
C567 C573 1.491 . S
C568 H559 0.950 . S
C568 C567 1.398 . S
C568 C569 1.391 . S
C569 H557 0.950 . S
C569 C565 1.393 . S
C569 C568 1.391 . S
C570 H560 0.950 . S
C570 C571 1.386 . S
C570 C572 1.391 . S
C571 C570 1.386 . S
C571 C575 1.393 . S
C572 H561 0.950 . S
C572 C570 1.391 . S
C572 C573 1.400 . S
C573 C567 1.491 . S
C573 C572 1.400 . S
C573 C574 1.398 . S
C574 H562 0.950 . S
C574 C573 1.398 . S
C574 C575 1.391 . S
C575 H563 0.950 . S
C575 C571 1.393 . S
C575 C574 1.391 . S
H576 C584 0.950 . S
H577 C589 0.950 . S
H578 C586 0.950 . S
H579 C588 0.950 . S
H580 C590 0.950 . S
H581 C592 0.950 . S
H582 C594 0.950 . S
H583 C595 0.950 . S
C584 H576 0.950 . S
C584 C585 1.386 . S
C584 C586 1.391 . S
C585 C584 1.386 . S
C585 C589 1.393 . S
C586 H578 0.950 . S
C586 C584 1.391 . S
C586 C587 1.400 . S
C587 C586 1.400 . S
C587 C588 1.398 . S
C587 C593 1.491 . S
C588 H579 0.950 . S
C588 C587 1.398 . S
C588 C589 1.391 . S
C589 H577 0.950 . S
C589 C585 1.393 . S
C589 C588 1.391 . S
C590 H580 0.950 . S
C590 C591 1.386 . S
C590 C592 1.391 . S
C591 C590 1.386 . S
C591 C595 1.393 . S
C592 H581 0.950 . S
C592 C590 1.391 . S
C592 C593 1.400 . S
C593 C587 1.491 . S
C593 C592 1.400 . S
C593 C594 1.398 . S
C594 H582 0.950 . S
C594 C593 1.398 . S
C594 C595 1.391 . S
C595 H583 0.950 . S
C595 C591 1.393 . S
C595 C594 1.391 . S
H596 C604 0.950 . S
H597 C609 0.950 . S
H598 C606 0.950 . S
H599 C608 0.950 . S
H600 C610 0.950 . S
H601 C612 0.950 . S
H602 C614 0.950 . S
H603 C615 0.950 . S
C604 H596 0.950 . S
C604 C605 1.386 . S
C604 C606 1.391 . S
C605 C604 1.386 . S
C605 C609 1.393 . S
C606 H598 0.950 . S
C606 C604 1.391 . S
C606 C607 1.400 . S
C607 C606 1.400 . S
C607 C608 1.398 . S
C607 C613 1.491 . S
C608 H599 0.950 . S
C608 C607 1.398 . S
C608 C609 1.391 . S
C609 H597 0.950 . S
C609 C605 1.393 . S
C609 C608 1.391 . S
C610 H600 0.950 . S
C610 C611 1.386 . S
C610 C612 1.391 . S
C611 C610 1.386 . S
C611 C615 1.393 . S
C612 H601 0.950 . S
C612 C610 1.391 . S
C612 C613 1.400 . S
C613 C607 1.491 . S
C613 C612 1.400 . S
C613 C614 1.398 . S
C614 H602 0.950 . S
C614 C613 1.398 . S
C614 C615 1.391 . S
C615 H603 0.950 . S
C615 C611 1.393 . S
C615 C614 1.391 . S
H616 C624 0.950 . S
H617 C629 0.950 . S
H618 C626 0.950 . S
H619 C628 0.950 . S
H620 C630 0.950 . S
H621 C632 0.950 . S
H622 C634 0.950 . S
H623 C635 0.950 . S
C624 H616 0.950 . S
C624 C625 1.386 1_556 S
C624 C626 1.391 . S
C625 C624 1.386 1_554 S
C625 C629 1.393 . S
C626 H618 0.950 . S
C626 C624 1.391 . S
C626 C627 1.400 . S
C627 C626 1.400 . S
C627 C628 1.398 1_556 S
C627 C633 1.491 . S
C628 H619 0.950 . S
C628 C627 1.398 1_554 S
C628 C629 1.391 . S
C629 H617 0.950 . S
C629 C625 1.393 . S
C629 C628 1.391 . S
C630 H620 0.950 . S
C630 C631 1.386 . S
C630 C632 1.391 . S
C631 C630 1.386 . S
C631 C635 1.393 . S
C632 H621 0.950 . S
C632 C630 1.391 . S
C632 C633 1.400 . S
C633 C627 1.491 . S
C633 C632 1.400 . S
C633 C634 1.398 . S
C634 H622 0.950 . S
C634 C633 1.398 . S
C634 C635 1.391 . S
C635 H623 0.950 . S
C635 C631 1.393 . S
C635 C634 1.391 . S
C165 C7 0.815 . S
C171 C89 0.794 . S
C185 C25 0.775 . S
C191 C97 0.831 . S
C205 C46 0.846 . S
C211 C106 0.901 . S
C231 C116 0.893 . S
C225 C70 0.855 . S
C251 C125 0.790 . S
C245 C28 0.812 . S
C265 C49 0.843 . S
C271 C134 0.912 . S
C285 C67 0.861 . S
C291 C142 0.882 . S
C305 C4 0.805 . S
C311 C152 0.857 . S
C325 C58 1.600 . S
C331 C151 1.714 . S
C351 C124 1.490 . S
C345 C66 1.412 . S
C371 C133 1.655 . S
C365 C3 1.652 . S
C385 C37 1.629 . S
C391 C143 1.714 . S
C411 C98 1.705 . S
C405 C79 1.588 . S
C425 C16 1.647 . S
C431 C107 1.715 . S
C451 C115 1.672 . S
C445 C24 1.637 . S
C471 C88 1.482 . S
C465 C45 1.421 . S
C491 C145 1.408 . S
C485 C19 1.216 . S
C511 C154 1.312 . S
C505 C41 1.156 . S
C525 C62 1.099 . S
C531 C127 1.159 . S
C551 C136 1.301 . S
C545 C82 1.161 . S
C571 C109 1.424 . S
C565 C40 1.244 . S
C585 C61 1.154 . S
C591 C118 1.298 . S
C611 C91 1.159 . S
C605 C83 1.103 . S
C631 C100 1.295 . S
C625 C20 1.193 . S
