# Generated by pormake.
# Topology pyr, (3,6)-cn, num edge types: 1
# Building blocks:
#     Node 0, Type 0, BuildingBlock: PAMTOO_clean_linker_0, # of connection points: 3
#     Node 1, Type 0, BuildingBlock: PAMTOO_clean_linker_0, # of connection points: 3
#     Node 2, Type 0, BuildingBlock: PAMTOO_clean_linker_0, # of connection points: 3
#     Node 3, Type 0, BuildingBlock: PAMTOO_clean_linker_0, # of connection points: 3
#     Node 4, Type 0, BuildingBlock: PAMTOO_clean_linker_0, # of connection points: 3
#     Node 5, Type 0, BuildingBlock: PAMTOO_clean_linker_0, # of connection points: 3
#     Node 6, Type 0, BuildingBlock: PAMTOO_clean_linker_0, # of connection points: 3
#     Node 7, Type 0, BuildingBlock: PAMTOO_clean_linker_0, # of connection points: 3
#     Node 8, Type 1, BuildingBlock: PAMTUU_clean_sbu_0, # of connection points: 6
#     Node 9, Type 1, BuildingBlock: PAMTUU_clean_sbu_0, # of connection points: 6
#     Node 10, Type 1, BuildingBlock: PAMTUU_clean_sbu_0, # of connection points: 6
#     Node 11, Type 1, BuildingBlock: PAMTUU_clean_sbu_0, # of connection points: 6
#     Edge 12, Type (0, 1), BuildingBlock: UVAHIK_clean_linker_0, # of connection points: 2
#     Edge 13, Type (0, 1), BuildingBlock: UVAHIK_clean_linker_0, # of connection points: 2
#     Edge 14, Type (0, 1), BuildingBlock: UVAHIK_clean_linker_0, # of connection points: 2
#     Edge 15, Type (0, 1), BuildingBlock: UVAHIK_clean_linker_0, # of connection points: 2
#     Edge 16, Type (0, 1), BuildingBlock: UVAHIK_clean_linker_0, # of connection points: 2
#     Edge 17, Type (0, 1), BuildingBlock: UVAHIK_clean_linker_0, # of connection points: 2
#     Edge 18, Type (0, 1), BuildingBlock: UVAHIK_clean_linker_0, # of connection points: 2
#     Edge 19, Type (0, 1), BuildingBlock: UVAHIK_clean_linker_0, # of connection points: 2
#     Edge 20, Type (0, 1), BuildingBlock: UVAHIK_clean_linker_0, # of connection points: 2
#     Edge 21, Type (0, 1), BuildingBlock: UVAHIK_clean_linker_0, # of connection points: 2
#     Edge 22, Type (0, 1), BuildingBlock: UVAHIK_clean_linker_0, # of connection points: 2
#     Edge 23, Type (0, 1), BuildingBlock: UVAHIK_clean_linker_0, # of connection points: 2
#     Edge 24, Type (0, 1), BuildingBlock: UVAHIK_clean_linker_0, # of connection points: 2
#     Edge 25, Type (0, 1), BuildingBlock: UVAHIK_clean_linker_0, # of connection points: 2
#     Edge 26, Type (0, 1), BuildingBlock: UVAHIK_clean_linker_0, # of connection points: 2
#     Edge 27, Type (0, 1), BuildingBlock: UVAHIK_clean_linker_0, # of connection points: 2
#     Edge 28, Type (0, 1), BuildingBlock: UVAHIK_clean_linker_0, # of connection points: 2
#     Edge 29, Type (0, 1), BuildingBlock: UVAHIK_clean_linker_0, # of connection points: 2
#     Edge 30, Type (0, 1), BuildingBlock: UVAHIK_clean_linker_0, # of connection points: 2
#     Edge 31, Type (0, 1), BuildingBlock: UVAHIK_clean_linker_0, # of connection points: 2
#     Edge 32, Type (0, 1), BuildingBlock: UVAHIK_clean_linker_0, # of connection points: 2
#     Edge 33, Type (0, 1), BuildingBlock: UVAHIK_clean_linker_0, # of connection points: 2
#     Edge 34, Type (0, 1), BuildingBlock: UVAHIK_clean_linker_0, # of connection points: 2
#     Edge 35, Type (0, 1), BuildingBlock: UVAHIK_clean_linker_0, # of connection points: 2
# Relax obj value: 0.127
# Max RMSD: 0.225
# Mean RMSD: 0.142
data_MOF--net-pyr--node1-PAMTUU_clean_sbu_0--node2-PAMTOO_clean_linker_0--edge1-UVAHIK_clean_linker_0
_symmetry_space_group_name_H-M    P1
_symmetry_Int_Tables_number       1
_symmetry_cell_setting            triclinic
loop_
_symmetry_equiv_pos_as_xyz
'x, y, z'
_cell_length_a     48.739901
_cell_length_b     51.062524
_cell_length_c     48.059493
_cell_angle_alpha  90.362154
_cell_angle_beta   89.614983
_cell_angle_gamma 104.47955
loop_
_atom_site_label
_atom_site_type_symbol
_atom_site_fract_x
_atom_site_fract_y
_atom_site_fract_z
_atom_type_partial_charge
H0 H 0.29562 0.29065 0.25836 0.0
H1 H 0.35504 0.24124 0.24853 0.0
H2 H 0.34113 0.29081 0.18136 0.0
H3 H 0.34214 0.23903 0.16187 0.0
C4 C 0.35192 0.23148 0.18002 0.0
O5 O 0.36538 0.25315 0.19637 0.0
H6 H 0.33455 0.2176 0.19189 0.0
C7 C 0.31196 0.28457 0.24643 0.0
C8 C 0.31753 0.29391 0.21901 0.0
C9 C 0.32527 0.26549 0.2575 0.0
C10 C 0.34482 0.25629 0.24084 0.0
C11 C 0.35018 0.26526 0.21345 0.0
C12 C 0.33712 0.28446 0.2028 0.0
H13 H 0.21335 0.82235 0.74454 0.0
H14 H 0.19493 0.783 0.66475 0.0
H15 H 0.25984 0.76586 0.71565 0.0
H16 H 0.25778 0.78684 0.64608 0.0
C17 C 0.24993 0.76436 0.64595 0.0
O18 O 0.23267 0.75529 0.66862 0.0
H19 H 0.23726 0.75894 0.62668 0.0
C20 C 0.21703 0.80818 0.72895 0.0
C21 C 0.2384 0.79454 0.73329 0.0
C22 C 0.20117 0.80446 0.70423 0.0
C23 C 0.20628 0.78595 0.68428 0.0
C24 C 0.22733 0.77218 0.6885 0.0
C25 C 0.24341 0.77651 0.71284 0.0
H26 H 0.72095 0.34056 0.91303 0.0
H27 H 0.65576 0.33444 0.85144 0.0
H28 H 0.72714 0.40347 0.85229 0.0
H29 H 0.66969 0.41333 0.84535 0.0
C30 C 0.66126 0.39703 0.82987 0.0
O31 O 0.67972 0.38052 0.82717 0.0
H32 H 0.6405 0.38494 0.83783 0.0
C33 C 0.71234 0.34881 0.89535 0.0
C34 C 0.72735 0.37382 0.8843 0.0
C35 C 0.68648 0.33424 0.88383 0.0
C36 C 0.67565 0.34514 0.86068 0.0
C37 C 0.69018 0.37022 0.84957 0.0
C38 C 0.71592 0.38441 0.86138 0.0
H39 H 0.86836 0.71779 0.41778 0.0
H40 H 0.8686 0.65589 0.35661 0.0
H41 H 0.93688 0.72767 0.3585 0.0
H42 H 0.92483 0.70761 0.30165 0.0
C43 C 0.91225 0.68675 0.30633 0.0
O44 O 0.91681 0.68071 0.3337 0.0
H45 H 0.88944 0.68617 0.30341 0.0
C46 C 0.87811 0.71051 0.39999 0.0
C47 C 0.90394 0.72633 0.38943 0.0
C48 C 0.86496 0.68513 0.38839 0.0
C49 C 0.8784 0.67524 0.3661 0.0
C50 C 0.90431 0.6905 0.3554 0.0
C51 C 0.91709 0.71591 0.36717 0.0
H52 H 0.72368 0.82691 0.86415 0.0
H53 H 0.71728 0.78803 0.944 0.0
H54 H 0.76406 0.7621 0.8781 0.0
H55 H 0.72223 0.72104 0.91264 0.0
C56 C 0.73429 0.72831 0.932 0.0
O57 O 0.74839 0.75524 0.9301 0.0
H58 H 0.71887 0.72555 0.94954 0.0
C59 C 0.72774 0.81118 0.87738 0.0
C60 C 0.74451 0.79437 0.86736 0.0
C61 C 0.71804 0.80926 0.90506 0.0
C62 C 0.72441 0.78969 0.92252 0.0
C63 C 0.74073 0.77267 0.91263 0.0
C64 C 0.75091 0.77508 0.88524 0.0
H65 H 0.87582 0.21475 0.35026 0.0
H66 H 0.8283 0.27482 0.35997 0.0
H67 H 0.88854 0.26726 0.422 0.0
H68 H 0.84465 0.28741 0.44922 0.0
C69 C 0.83224 0.28616 0.42972 0.0
O70 O 0.85097 0.29305 0.40767 0.0
H71 H 0.8192 0.26493 0.42773 0.0
C72 C 0.87108 0.23132 0.36194 0.0
C73 C 0.88472 0.23923 0.38739 0.0
C74 C 0.85054 0.24381 0.35187 0.0
C75 C 0.84466 0.26544 0.36692 0.0
C76 C 0.85867 0.274 0.39196 0.0
C77 C 0.8789 0.26118 0.40197 0.0
H78 H 0.36006 0.71382 0.16811 0.0
H79 H 0.35933 0.65161 0.22833 0.0
H80 H 0.42604 0.72446 0.22952 0.0
H81 H 0.44569 0.6785 0.24676 0.0
C82 C 0.42537 0.66445 0.25323 0.0
O83 O 0.40449 0.67846 0.25476 0.0
H84 H 0.4195 0.6482 0.2372 0.0
C85 C 0.36997 0.70611 0.18525 0.0
C86 C 0.39519 0.72225 0.19664 0.0
C87 C 0.35686 0.68043 0.19608 0.0
C88 C 0.36887 0.67128 0.21955 0.0
C89 C 0.39356 0.68731 0.23173 0.0
C90 C 0.40667 0.71264 0.22022 0.0
H91 H 0.13483 0.32493 0.77092 0.0
H92 H 0.20102 0.39897 0.76445 0.0
H93 H 0.19772 0.3352 0.70565 0.0
H94 H 0.25309 0.36012 0.72903 0.0
C95 C 0.25227 0.38171 0.72827 0.0
O96 O 0.22542 0.38345 0.72098 0.0
H97 H 0.25735 0.3904 0.74947 0.0
C98 C 0.15324 0.33733 0.76043 0.0
C99 C 0.16456 0.32676 0.73699 0.0
C100 C 0.16643 0.36334 0.77103 0.0
C101 C 0.19073 0.37879 0.75725 0.0
C102 C 0.20194 0.36852 0.73389 0.0
C103 C 0.18884 0.34273 0.72386 0.0
Tb104 Tb 0.06378 0.0315 0.54633 0.0
Tb105 Tb 0.00647 0.01861 0.58544 0.0
C106 C 0.01456 0.97943 0.5367 0.0
C107 C 0.12518 0.06357 0.49955 0.0
C108 C 0.162 0.10335 0.4671 0.0
C109 C 0.14738 0.07863 0.45514 0.0
C110 C 0.12929 0.05892 0.47124 0.0
C111 C 0.139 0.08859 0.51142 0.0
C112 C 0.15726 0.1083 0.49533 0.0
C113 C 0.1079 0.04141 0.51644 0.0
O114 O 0.03244 0.04668 0.5238 0.0
O115 O 0.00431 0.05317 0.56038 0.0
O116 O 0.03787 0.05102 0.60596 0.0
O117 O 0.06508 0.06915 0.56837 0.0
O118 O 0.96215 1.01044 0.58928 0.0
O119 O 0.98884 1.01446 0.62556 0.0
O120 O 0.0288 0.98846 0.59655 0.0
O121 O 0.07343 1.01236 0.58399 0.0
O122 O 0.04208 0.98958 0.53788 0.0
O123 O 0.99687 0.99106 0.54974 0.0
C124 C 0.01332 0.05791 0.53466 0.0
O125 O 0.10799 0.04484 0.54335 0.0
O126 O 0.08268 0.02985 0.50714 0.0
C127 C 0.05628 0.07117 0.594 0.0
C128 C 0.94432 0.98314 0.62864 0.0
C129 C 0.90898 0.93709 0.65393 0.0
C130 C 0.92667 0.95735 0.67015 0.0
C131 C 0.94402 0.98016 0.65764 0.0
C132 C 0.92667 0.96289 0.6123 0.0
C133 C 0.90904 0.9401 0.62488 0.0
C134 C 0.96298 1.00762 0.6162 0.0
C135 C 0.05641 0.99243 0.59747 0.0
H136 H 0.15009 0.07438 0.43332 0.0
H137 H 0.11886 0.0398 0.46163 0.0
H138 H 0.13623 0.09277 0.53325 0.0
H139 H 0.16834 0.12704 0.50522 0.0
H140 H 0.92668 0.95581 0.69262 0.0
H141 H 0.95721 0.99559 0.67072 0.0
H142 H 0.9264 0.96462 0.58986 0.0
H143 H 0.89562 0.92475 0.61191 0.0
Tb144 Tb 0.563 0.03525 0.06335 0.0
Tb145 Tb 0.51692 0.01995 1.01229 0.0
C146 C 0.57242 1.00069 1.01218 0.0
C147 C 0.62448 0.06835 0.11001 0.0
C148 C 0.67259 0.10324 0.13437 0.0
C149 C 0.67269 0.07652 0.12712 0.0
C150 C 0.6488 0.05922 0.11523 0.0
C151 C 0.62511 0.09561 0.11531 0.0
C152 C 0.64892 0.11287 0.12737 0.0
C153 C 0.59773 0.04856 0.10283 0.0
O154 O 0.57023 0.07187 0.03842 0.0
O155 O 0.54999 0.05408 0.99706 0.0
O156 O 0.50872 0.05328 0.03618 0.0
O157 O 0.5221 0.03977 0.07763 0.0
O158 O 0.50758 1.01224 0.97005 0.0
O159 O 0.47453 1.0138 0.99992 0.0
O160 O 0.5014 0.98874 0.04363 0.0
O161 O 0.54066 0.99367 0.07175 0.0
O162 O 0.58411 0.02127 0.02831 0.0
O163 O 0.545 0.99347 1.00805 0.0
C164 C 0.56601 0.07401 1.0116 0.0
O165 O 0.57535 0.0578 0.09962 0.0
O166 O 0.59884 0.02981 0.08462 0.0
C167 C 0.50781 0.05356 0.06335 0.0
C168 C 0.46169 0.98396 0.96194 0.0
C169 C 0.42517 0.93879 0.93637 0.0
C170 C 0.41539 0.96156 0.94379 0.0
C171 C 0.43352 0.98393 0.95637 0.0
C172 C 0.47146 0.96103 0.95515 0.0
C173 C 0.45336 0.93866 0.94231 0.0
C174 C 0.48037 1.00833 0.97434 0.0
C175 C 0.51531 0.98019 0.06368 0.0
H176 H 0.69079 0.06861 0.13178 0.0
H177 H 0.64888 0.0383 0.11137 0.0
H178 H 0.60669 0.10333 0.11157 0.0
H179 H 0.64799 0.13323 0.13286 0.0
H180 H 0.39392 0.96241 0.93911 0.0
H181 H 0.42561 1.00143 0.96145 0.0
H182 H 0.4931 0.96049 0.95949 0.0
H183 H 0.46138 0.92131 0.93698 0.0
Tb184 Tb 0.54513 0.50472 0.52279 0.0
Tb185 Tb 0.5492 0.56082 0.55831 0.0
C186 C 0.51976 0.55185 0.50005 0.0
C187 C 0.56817 0.44871 0.48923 0.0
C188 C 0.61193 0.42377 0.47554 0.0
C189 C 0.58419 0.41292 0.46587 0.0
C190 C 0.56249 0.42538 0.47261 0.0
C191 C 0.59566 0.45935 0.49932 0.0
C192 C 0.61738 0.44703 0.49248 0.0
C193 C 0.54581 0.46265 0.49502 0.0
O194 O 0.58954 0.52698 0.52177 0.0
O195 O 0.58348 0.56965 0.52792 0.0
O196 O 0.57763 0.54037 0.57919 0.0
O197 O 0.55639 0.49711 0.56522 0.0
O198 O 0.55662 0.60311 0.55926 0.0
O199 O 0.54697 0.57986 0.59688 0.0
O200 O 0.51224 0.53134 0.57401 0.0
O201 O 0.50198 0.50091 0.53773 0.0
O202 O 0.53319 0.53309 0.49442 0.0
O203 O 0.5187 0.56124 0.52544 0.0
C204 C 0.59874 0.55332 0.51928 0.0
O205 O 0.53725 0.46231 0.52077 0.0
O206 O 0.55013 0.48672 0.48438 0.0
C207 C 0.57278 0.51404 0.58245 0.0
C208 C 0.52734 0.61703 0.59209 0.0
C209 C 0.48391 0.64275 0.60458 0.0
C210 C 0.50976 0.64985 0.61901 0.0
C211 C 0.53137 0.63711 0.61273 0.0
C212 C 0.50145 0.60962 0.57795 0.0
C213 C 0.47997 0.62244 0.58405 0.0
C214 C 0.54983 0.60346 0.5855 0.0
C215 C 0.49488 0.51114 0.5611 0.0
H216 H 0.57941 0.39515 0.4526 0.0
H217 H 0.54139 0.41701 0.46455 0.0
H218 H 0.60039 0.47734 0.51227 0.0
H219 H 0.63841 0.45564 0.50057 0.0
H220 H 0.5134 0.66552 0.63484 0.0
H221 H 0.55121 0.64295 0.62392 0.0
H222 H 0.49783 0.5939 0.56217 0.0
H223 H 0.46014 0.61622 0.57291 0.0
Tb224 Tb 0.0449 0.54725 1.02518 0.0
Tb225 Tb 0.03851 0.49344 0.06348 0.0
C226 C 0.06672 0.49726 1.0045 0.0
C227 C 0.02443 0.60354 0.99273 0.0
C228 C 0.97941 0.62766 0.98304 0.0
C229 C 1.00351 0.6334 0.96563 0.0
C230 C 0.02586 0.62137 0.97044 0.0
C231 C 1.00075 0.59822 1.01048 0.0
C232 C 0.97847 0.61018 1.00572 0.0
C233 C 0.04614 0.58851 0.99617 0.0
O234 O 0.99999 0.5266 1.02479 0.0
O235 O 0.00386 0.4837 0.03384 0.0
O236 O 0.01047 0.51566 0.08281 0.0
O237 O 0.03267 0.55779 0.06667 0.0
O238 O 0.0341 0.45149 0.06612 0.0
O239 O 0.03581 0.47596 0.10309 0.0
O240 O 0.07522 0.52352 0.07881 0.0
O241 O 0.08768 0.54909 0.03957 0.0
O242 O 0.05396 0.51616 0.99796 0.0
O243 O 0.06863 0.49026 0.03055 0.0
C244 C 0.9897 0.50025 1.0238 0.0
O245 O 0.05717 0.58952 1.0209 0.0
O246 O 0.03909 0.56388 0.98651 0.0
C247 C 0.01576 0.54216 0.08458 0.0
C248 C 0.05932 0.44102 0.10403 0.0
C249 C 0.1033 0.41872 0.12221 0.0
C250 C 0.07645 0.40188 0.11609 0.0
C251 C 0.05459 0.41298 0.10713 0.0
C252 C 0.08612 0.45788 0.11011 0.0
C253 C 0.10787 0.44683 0.1193 0.0
C254 C 0.0368 0.45245 0.09307 0.0
C255 C 0.09378 0.54147 0.06437 0.0
H256 H 0.00495 0.64697 0.94816 0.0
H257 H 0.04393 0.6255 0.95644 0.0
H258 H 0.99915 0.58419 0.0276 0.0
H259 H 0.96006 0.60497 1.01924 0.0
H260 H 0.07234 0.38014 0.11834 0.0
H261 H 0.03409 0.39968 0.10233 0.0
H262 H 0.09036 0.47958 0.10743 0.0
H263 H 0.12846 0.46023 0.12352 0.0
C264 C 0.30836 0.26793 0.30689 0.0
C265 C 0.31598 0.25278 0.28489 0.0
C266 C 0.29618 0.25516 0.33126 0.0
C267 C 0.28531 0.19227 0.37179 0.0
H268 H 0.21249 0.20524 0.39132 0.0
C269 C 0.20084 0.11455 0.43147 0.0
C270 C 0.18285 0.12336 0.45033 0.0
C271 C 0.22014 0.13306 0.41522 0.0
C272 C 0.23304 0.20174 0.38661 0.0
H273 H 0.31734 0.2123 0.27179 0.0
H274 H 0.29698 0.19038 0.31443 0.0
H275 H 0.24223 0.23345 0.35642 0.0
H276 H 0.17136 0.15869 0.46719 0.0
H277 H 0.20561 0.19119 0.43918 0.0
H278 H 0.27604 0.1603 0.40158 0.0
C279 C 0.30054 0.21213 0.31286 0.0
C280 C 0.25006 0.21791 0.36659 0.0
C281 C 0.31236 0.22479 0.28841 0.0
C282 C 0.18502 0.15125 0.45296 0.0
C283 C 0.20446 0.16984 0.43673 0.0
C284 C 0.26843 0.17626 0.39196 0.0
C285 C 0.29177 0.22708 0.33426 0.0
C286 C 0.27599 0.21283 0.35845 0.0
C287 C 0.22214 0.16093 0.41755 0.0
C288 C 0.24171 0.18027 0.39901 0.0
H289 H 0.31125 0.28957 0.30506 0.0
H290 H 0.2898 0.26716 0.34758 0.0
H291 H 0.30539 0.18817 0.36614 0.0
H292 H 0.20009 0.09326 0.42925 0.0
H293 H 0.23307 0.12541 0.40038 0.0
C294 C 0.28621 0.80574 0.75578 0.0
C295 C 0.25661 0.80073 0.75831 0.0
C296 C 0.30361 0.81474 0.77867 0.0
C297 C 0.30307 0.85246 0.84362 0.0
H298 H 0.37438 0.83408 0.85693 0.0
C299 C 0.37776 0.90646 0.92919 0.0
C300 C 0.40626 0.91602 0.92115 0.0
C301 C 0.35903 0.88745 0.91285 0.0
C302 C 0.35455 0.83946 0.85342 0.0
H303 H 0.22196 0.79949 0.78719 0.0
H304 H 0.25233 0.81511 0.82722 0.0
H305 H 0.34203 0.80926 0.82164 0.0
H306 H 0.43777 0.91235 0.89033 0.0
H307 H 0.40503 0.87939 0.86159 0.0
H308 H 0.31579 0.88315 0.87461 0.0
C309 C 0.26211 0.81259 0.80741 0.0
C310 C 0.33604 0.82524 0.83324 0.0
C311 C 0.24472 0.80364 0.78451 0.0
C312 C 0.41597 0.90518 0.89717 0.0
C313 C 0.39719 0.88625 0.88073 0.0
C314 C 0.32154 0.86665 0.86372 0.0
C315 C 0.29177 0.81889 0.80459 0.0
C316 C 0.31027 0.83188 0.82783 0.0
C317 C 0.36834 0.8777 0.88801 0.0
C318 C 0.34769 0.86062 0.86859 0.0
H319 H 0.29601 0.80397 0.73579 0.0
H320 H 0.32637 0.81971 0.7757 0.0
H321 H 0.28366 0.85845 0.83965 0.0
H322 H 0.36981 0.91413 0.94784 0.0
H323 H 0.33707 0.88086 0.91934 0.0
C324 C 0.6669 0.43715 0.79748 0.0
C325 C 0.65672 0.40924 0.80214 0.0
C326 C 0.66042 0.44885 0.77285 0.0
C327 C 0.63446 0.43301 0.70044 0.0
H328 H 0.61217 0.50056 0.70706 0.0
C329 C 0.57931 0.47468 0.6106 0.0
C330 C 0.58527 0.50283 0.60652 0.0
C331 C 0.58995 0.46388 0.63367 0.0
C332 C 0.61875 0.48192 0.70467 0.0
H333 H 0.63263 0.37159 0.78431 0.0
H334 H 0.62124 0.3919 0.74121 0.0
H335 H 0.62749 0.48055 0.74819 0.0
H336 H 0.60766 0.54163 0.62362 0.0
H337 H 0.62659 0.52278 0.66366 0.0
H338 H 0.62566 0.43431 0.65695 0.0
C339 C 0.63434 0.40481 0.75651 0.0
C340 C 0.62754 0.47039 0.72835 0.0
C341 C 0.64076 0.39314 0.78121 0.0
C342 C 0.60254 0.51987 0.62605 0.0
C343 C 0.61325 0.50903 0.64917 0.0
C344 C 0.62577 0.44458 0.67674 0.0
C345 C 0.6437 0.43292 0.75216 0.0
C346 C 0.63534 0.44566 0.72663 0.0
C347 C 0.60698 0.48085 0.65341 0.0
C348 C 0.61754 0.46912 0.67851 0.0
H349 H 0.67939 0.45006 0.81317 0.0
H350 H 0.66843 0.47045 0.77008 0.0
H351 H 0.64072 0.41419 0.69819 0.0
H352 H 0.56604 0.46084 0.59612 0.0
H353 H 0.58422 0.44214 0.63631 0.0
C354 C 0.90355 0.65689 0.26339 0.0
C355 C 0.92104 0.66737 0.28606 0.0
C356 C 0.91273 0.64161 0.24264 0.0
C357 C 0.96542 0.60225 0.2259 0.0
H358 H 0.95037 0.61858 0.14965 0.0
C359 C 0.99043 0.54008 0.1309 0.0
C360 C 1.00311 0.55505 0.10763 0.0
C361 C 0.97982 0.55275 0.15309 0.0
C362 C 0.95486 0.61379 0.1708 0.0
H363 H 0.96205 0.67021 0.30453 0.0
H364 H 0.97809 0.64319 0.26837 0.0
H365 H 0.9335 0.64221 0.18778 0.0
H366 H 0.01407 0.59514 0.08945 0.0
H367 H 0.99548 0.61702 0.12785 0.0
H368 H 0.98709 0.574 0.20874 0.0
C369 C 0.95705 0.64647 0.26688 0.0
C370 C 0.94491 0.62718 0.19273 0.0
C371 C 0.94788 0.66194 0.28762 0.0
C372 C 0.0045 0.58291 0.10699 0.0
C373 C 0.99367 0.59548 0.129 0.0
C374 C 0.97517 0.58866 0.20391 0.0
C375 C 0.93974 0.63646 0.24386 0.0
C376 C 0.95011 0.62169 0.22061 0.0
C377 C 0.98132 0.58065 0.15245 0.0
C378 C 0.97017 0.59437 0.17603 0.0
H379 H 0.88291 0.661 0.26136 0.0
H380 H 0.89868 0.634 0.22545 0.0
H381 H 0.96967 0.59737 0.24708 0.0
H382 H 0.98906 0.51862 0.13218 0.0
H383 H 0.97022 0.54063 0.17068 0.0
C384 C 0.38275 0.19979 0.18965 0.0
C385 C 0.37257 0.21582 0.17064 0.0
C386 C 0.40035 0.18361 0.1806 0.0
C387 C 0.44584 0.17309 0.12148 0.0
H388 H 0.42807 0.09894 0.14748 0.0
C389 C 0.48112 0.08934 0.06234 0.0
C390 C 0.4927 0.07146 0.07779 0.0
C391 C 0.46836 0.10753 0.07577 0.0
C392 C 0.43352 0.11968 0.14033 0.0
H393 H 0.37346 0.2285 0.12768 0.0
H394 H 0.40384 0.20002 0.11168 0.0
H395 H 0.40323 0.13067 0.16748 0.0
H396 H 0.49943 0.05826 0.11946 0.0
H397 H 0.47673 0.09002 0.14296 0.0
H398 H 0.47553 0.16185 0.09377 0.0
C399 C 0.39856 0.20004 0.13361 0.0
C400 C 0.41937 0.13789 0.15181 0.0
C401 C 0.38102 0.21621 0.14268 0.0
C402 C 0.4907 0.07178 0.10698 0.0
C403 C 0.47768 0.0899 0.12044 0.0
C404 C 0.45984 0.15487 0.10992 0.0
C405 C 0.40813 0.18328 0.15239 0.0
C406 C 0.42504 0.16467 0.14216 0.0
C407 C 0.46671 0.10816 0.10493 0.0
C408 C 0.45346 0.12788 0.11888 0.0
H409 H 0.37658 0.19941 0.21137 0.0
H410 H 0.4077 0.17123 0.19564 0.0
H411 H 0.45111 0.19372 0.114 0.0
H412 H 0.48226 0.08962 0.03983 0.0
H413 H 0.45964 0.12107 0.06328 0.0
C414 C 0.18718 0.84864 0.70653 0.0
C415 C 0.18095 0.82129 0.69827 0.0
C416 C 0.1696 0.86515 0.69885 0.0
C417 C 0.1248 0.87413 0.64255 0.0
H418 H 0.09977 0.92409 0.69194 0.0
C419 C 0.09588 0.97019 0.60472 0.0
C420 C 0.06875 0.97279 0.61213 0.0
C421 C 0.10693 0.95035 0.61691 0.0
C422 C 0.10648 0.91008 0.67802 0.0
H423 H 0.15037 0.78968 0.67649 0.0
H424 H 0.12039 0.81895 0.66211 0.0
H425 H 0.12308 0.89082 0.71127 0.0
H426 H 0.03225 0.95722 0.63874 0.0
H427 H 0.05218 0.92289 0.66079 0.0
H428 H 0.10936 0.89409 0.60923 0.0
C429 C 0.13889 0.8274 0.67468 0.0
C430 C 0.11984 0.8912 0.68901 0.0
C431 C 0.15619 0.81073 0.68277 0.0
C432 C 0.0532 0.95562 0.63259 0.0
C433 C 0.06456 0.93608 0.64523 0.0
C434 C 0.11197 0.89331 0.63156 0.0
C435 C 0.14567 0.85482 0.68235 0.0
C436 C 0.1293 0.87322 0.67132 0.0
C437 C 0.09132 0.93305 0.63712 0.0
C438 C 0.10298 0.91161 0.64916 0.0
H439 H 0.20628 0.85773 0.71796 0.0
H440 H 0.17548 0.88634 0.7047 0.0
H441 H 0.13215 0.86066 0.62847 0.0
H442 H 0.10832 0.98299 0.58892 0.0
H443 H 0.12772 0.94847 0.61051 0.0
C444 C 0.77446 0.37421 0.90573 0.0
C445 C 0.75497 0.38853 0.89677 0.0
C446 C 0.79983 0.38761 0.91847 0.0
C447 C 0.83452 0.45128 0.9555 0.0
H448 H 0.90233 0.42633 0.94205 0.0
C449 C 0.94561 0.50557 0.99962 0.0
C450 C 0.96195 0.48873 1.01016 0.0
C451 C 0.92021 0.4945 0.98551 0.0
C452 C 0.88353 0.43342 0.94623 0.0
H453 H 0.7473 0.42847 0.89402 0.0
H454 H 0.79198 0.45201 0.91563 0.0
H455 H 0.85901 0.40539 0.91715 0.0
H456 H 0.96392 0.44694 1.01441 0.0
H457 H 0.91986 0.42783 0.98999 0.0
H458 H 0.85933 0.47945 0.98453 0.0
C459 C 0.78735 0.43025 0.9132 0.0
C460 C 0.85862 0.42137 0.93196 0.0
C461 C 0.76186 0.41678 0.90047 0.0
C462 C 0.95202 0.46059 1.00657 0.0
C463 C 0.92679 0.44959 0.99235 0.0
C464 C 0.85956 0.46346 0.96969 0.0
C465 C 0.80665 0.41582 0.92249 0.0
C466 C 0.83362 0.42985 0.93663 0.0
C467 C 0.91067 0.46638 0.98141 0.0
C468 C 0.88428 0.45442 0.96549 0.0
H469 H 0.77015 0.3525 0.90289 0.0
H470 H 0.8139 0.3757 0.92562 0.0
H471 H 0.81566 0.45818 0.95991 0.0
H472 H 0.9526 0.52733 1.00196 0.0
H473 H 0.90838 0.50803 0.97722 0.0
C474 C 0.83123 0.64125 0.40332 0.0
C475 C 0.83705 0.66941 0.39955 0.0
C476 C 0.80534 0.62693 0.41489 0.0
C477 C 0.73184 0.63268 0.42937 0.0
H478 H 0.7307 0.57691 0.48407 0.0
C479 C 0.63564 0.59308 0.50112 0.0
C480 C 0.62662 0.56506 0.50577 0.0
C481 C 0.66122 0.60427 0.48739 0.0
C482 C 0.73061 0.59221 0.46859 0.0
H483 H 0.81965 0.70438 0.40424 0.0
H484 H 0.77512 0.67973 0.42486 0.0
H485 H 0.77523 0.59904 0.46097 0.0
H486 H 0.63791 0.52688 0.49988 0.0
H487 H 0.68274 0.54653 0.47594 0.0
H488 H 0.6874 0.62621 0.4373 0.0
C489 C 0.79035 0.66853 0.41871 0.0
C490 C 0.75614 0.60489 0.45529 0.0
C491 C 0.81613 0.68277 0.40718 0.0
C492 C 0.64416 0.54855 0.49669 0.0
C493 C 0.66992 0.55981 0.48305 0.0
C494 C 0.70643 0.62013 0.44273 0.0
C495 C 0.78459 0.64042 0.42284 0.0
C496 C 0.75717 0.62557 0.43576 0.0
C497 C 0.67861 0.5878 0.47798 0.0
C498 C 0.70552 0.59998 0.46278 0.0
H499 H 0.8469 0.63032 0.39785 0.0
H500 H 0.80156 0.60527 0.41748 0.0
H501 H 0.73162 0.64804 0.41401 0.0
H502 H 0.62281 0.60649 0.50786 0.0
H503 H 0.66746 0.62595 0.48428 0.0
C504 C 0.2939 0.33229 0.22097 0.0
C505 C 0.30003 0.31052 0.20631 0.0
C506 C 0.27478 0.3459 0.21017 0.0
C507 C 0.21308 0.3336 0.165 0.0
H508 H 0.22455 0.41152 0.16631 0.0
C509 C 0.13221 0.38481 0.11682 0.0
C510 C 0.12669 0.40702 0.13111 0.0
C511 C 0.15455 0.37403 0.12491 0.0
C512 C 0.22089 0.38971 0.1661 0.0
H513 H 0.29141 0.28628 0.16864 0.0
H514 H 0.25827 0.31015 0.14976 0.0
H515 H 0.26226 0.39152 0.18219 0.0
H516 H 0.13992 0.43521 0.16522 0.0
H517 H 0.17857 0.41602 0.17982 0.0
H518 H 0.17157 0.33154 0.14966 0.0
C519 C 0.26817 0.31664 0.1696 0.0
C520 C 0.24253 0.37831 0.17509 0.0
C521 C 0.28738 0.30318 0.18027 0.0
C522 C 0.14391 0.41823 0.15368 0.0
C523 C 0.16611 0.40731 0.16194 0.0
C524 C 0.19139 0.34495 0.15625 0.0
C525 C 0.26128 0.33778 0.18468 0.0
C526 C 0.23881 0.35015 0.17459 0.0
C527 C 0.1717 0.38507 0.14765 0.0
C528 C 0.19501 0.37314 0.15668 0.0
H529 H 0.30344 0.33841 0.24103 0.0
H530 H 0.26974 0.36205 0.22229 0.0
H531 H 0.20945 0.31179 0.16486 0.0
H532 H 0.11953 0.37606 0.09907 0.0
H533 H 0.15857 0.35722 0.11312 0.0
C534 C 0.6704 0.30393 0.92512 0.0
C535 C 0.67126 0.30765 0.89609 0.0
C536 C 0.6579 0.27868 0.93675 0.0
C537 C 0.63645 0.20529 0.91936 0.0
H538 H 0.5968 0.20065 0.99007 0.0
C539 C 0.57609 0.10302 0.96861 0.0
C540 C 0.57872 0.10022 0.99753 0.0
C541 C 0.587 0.12802 0.95562 0.0
C542 C 0.60805 0.20157 0.97044 0.0
H543 H 0.6589 0.28749 0.85664 0.0
H544 H 0.63637 0.24357 0.87695 0.0
H545 H 0.61513 0.2446 0.96842 0.0
H546 H 0.59534 0.12173 0.03532 0.0
H547 H 0.61432 0.16512 1.01271 0.0
H548 H 0.62911 0.16213 0.92141 0.0
C549 C 0.64591 0.26015 0.89073 0.0
C550 C 0.61861 0.22684 0.95798 0.0
C551 C 0.65852 0.28548 0.87906 0.0
C552 C 0.59284 0.12303 1.01304 0.0
C553 C 0.60357 0.14804 1.00008 0.0
C554 C 0.62573 0.17997 0.93177 0.0
C555 C 0.64564 0.25632 0.91976 0.0
C556 C 0.6332 0.22914 0.93237 0.0
C557 C 0.60067 0.15093 0.97123 0.0
C558 C 0.61159 0.1778 0.9576 0.0
H559 H 0.67957 0.32058 0.93898 0.0
H560 H 0.65844 0.2766 0.95913 0.0
H561 H 0.6479 0.20618 0.89986 0.0
H562 H 0.56535 0.08596 0.95595 0.0
H563 H 0.58418 0.12952 0.93341 0.0
C564 C 0.94595 0.76291 0.40632 0.0
C565 C 0.91661 0.75366 0.40182 0.0
C566 C 0.95726 0.78786 0.41956 0.0
C567 C 0.93965 0.85279 0.43995 0.0
H568 H 1.00062 0.85819 0.49272 0.0
C569 C 0.97417 0.94331 0.51675 0.0
C570 C 1.00344 0.95384 0.52076 0.0
C571 C 0.96396 0.91928 0.50161 0.0
C572 C 0.98377 0.85714 0.47786 0.0
H573 H 0.87641 0.76427 0.40676 0.0
H574 H 0.89583 0.80696 0.43037 0.0
H575 H 0.98271 0.81616 0.46695 0.0
H576 H 0.04485 0.94702 0.51196 0.0
H577 H 0.02707 0.90531 0.48575 0.0
H578 H 0.94047 0.89367 0.45126 0.0
C579 C 0.91029 0.7952 0.42353 0.0
C580 C 0.97353 0.833 0.46295 0.0
C581 C 0.89905 0.7704 0.41027 0.0
C582 C 0.02217 0.93961 0.50935 0.0
C583 C 0.01196 0.91553 0.49441 0.0
C584 C 0.94978 0.87685 0.45499 0.0
C585 C 0.93954 0.80427 0.42862 0.0
C586 C 0.95123 0.8304 0.44382 0.0
C587 C 0.98273 0.90503 0.49027 0.0
C588 C 0.97193 0.87936 0.4742 0.0
H589 H 0.96014 0.75059 0.40024 0.0
H590 H 0.97994 0.79426 0.42269 0.0
H591 H 0.92285 0.85187 0.42508 0.0
H592 H 0.95908 0.95364 0.52526 0.0
H593 H 0.94129 0.91167 0.4991 0.0
C594 C 0.2693 0.72344 0.63966 0.0
C595 C 0.27425 0.75119 0.64535 0.0
C596 C 0.29191 0.71125 0.63773 0.0
C597 C 0.36825 0.72119 0.65426 0.0
H598 H 0.36524 0.66966 0.59406 0.0
C599 C 0.45331 0.66064 0.63828 0.0
C600 C 0.46101 0.65639 0.61071 0.0
C601 C 0.43074 0.67231 0.64385 0.0
C602 C 0.36655 0.68417 0.61084 0.0
H603 H 0.30636 0.78786 0.65463 0.0
H604 H 0.34606 0.76679 0.65062 0.0
H605 H 0.32554 0.68967 0.60174 0.0
H606 H 0.45195 0.66204 0.56738 0.0
H607 H 0.41295 0.6827 0.57701 0.0
H608 H 0.40978 0.7163 0.66269 0.0
C609 C 0.32475 0.75429 0.64792 0.0
C610 C 0.34357 0.69536 0.61552 0.0
C611 C 0.30208 0.76643 0.64999 0.0
C612 C 0.44616 0.66462 0.58884 0.0
C613 C 0.42376 0.67639 0.59438 0.0
C614 C 0.39134 0.71004 0.6495 0.0
C615 C 0.31996 0.72662 0.64138 0.0
C616 C 0.34415 0.71409 0.63721 0.0
C617 C 0.41552 0.68007 0.62193 0.0
C618 C 0.39083 0.69154 0.62759 0.0
H619 H 0.24792 0.71129 0.63634 0.0
H620 H 0.2874 0.6898 0.63323 0.0
H621 H 0.36928 0.73534 0.67133 0.0
H622 H 0.46423 0.65428 0.65555 0.0
H623 H 0.42478 0.6746 0.6653 0.0
C624 C 0.78637 0.80042 0.83542 0.0
C625 C 0.7574 0.79885 0.8392 0.0
C626 C 0.79949 0.80815 0.80982 0.0
C627 C 0.79149 0.84865 0.74912 0.0
H628 H 0.85714 0.82578 0.72248 0.0
C629 C 0.86109 0.90533 0.66071 0.0
C630 C 0.88993 0.91348 0.66769 0.0
C631 C 0.84245 0.88544 0.67627 0.0
C632 C 0.83875 0.83227 0.7296 0.0
H633 H 0.71905 0.80235 0.81866 0.0
H634 H 0.7419 0.81557 0.77373 0.0
H635 H 0.82802 0.80072 0.75987 0.0
H636 H 0.92226 0.90597 0.69505 0.0
H637 H 0.88978 0.87146 0.72233 0.0
H638 H 0.80269 0.88068 0.71954 0.0
C639 C 0.7546 0.81139 0.79074 0.0
C640 C 0.82212 0.81799 0.75105 0.0
C641 C 0.74151 0.80379 0.81643 0.0
C642 C 0.90006 0.90029 0.68944 0.0
C643 C 0.8815 0.88031 0.70486 0.0
C644 C 0.80802 0.86282 0.72762 0.0
C645 C 0.78392 0.81438 0.78736 0.0
C646 C 0.7988 0.82653 0.76164 0.0
C647 C 0.85237 0.87319 0.69893 0.0
C648 C 0.83231 0.85529 0.71821 0.0
H649 H 0.79926 0.79707 0.85266 0.0
H650 H 0.82216 0.81064 0.80814 0.0
H651 H 0.77394 0.85606 0.75697 0.0
H652 H 0.8527 0.91522 0.64409 0.0
H653 H 0.82013 0.88018 0.6711 0.0
C654 C 0.82669 0.24869 0.30647 0.0
C655 C 0.83328 0.23216 0.3274 0.0
C656 C 0.80995 0.23715 0.28379 0.0
C657 C 0.75659 0.17526 0.2642 0.0
H658 H 0.77774 0.19513 0.1878 0.0
C659 C 0.70537 0.1075 0.17483 0.0
C660 C 0.69517 0.11974 0.15236 0.0
C661 C 0.72341 0.12313 0.19434 0.0
C662 C 0.77146 0.18961 0.20905 0.0
H663 H 0.82704 0.19071 0.34126 0.0
H664 H 0.79835 0.17073 0.30182 0.0
H665 H 0.80629 0.21974 0.22605 0.0
H666 H 0.69732 0.15798 0.13194 0.0
H667 H 0.72879 0.18545 0.16646 0.0
H668 H 0.72207 0.14507 0.24753 0.0
C669 C 0.80599 0.19254 0.30284 0.0
C670 C 0.78772 0.2037 0.2309 0.0
C671 C 0.82273 0.20399 0.32528 0.0
C672 C 0.70457 0.14797 0.14919 0.0
C673 C 0.72272 0.16367 0.16881 0.0
C674 C 0.74046 0.16126 0.24251 0.0
C675 C 0.79924 0.20894 0.28194 0.0
C676 C 0.78075 0.19622 0.25866 0.0
C677 C 0.73163 0.15142 0.192 0.0
C678 C 0.74804 0.16784 0.2147 0.0
H679 H 0.83461 0.27047 0.30758 0.0
H680 H 0.80496 0.25025 0.268 0.0
H681 H 0.75032 0.16947 0.2854 0.0
H682 H 0.69836 0.0859 0.1782 0.0
H683 H 0.73035 0.11307 0.21174 0.0
C684 C 0.43243 0.66757 0.3058 0.0
C685 C 0.42981 0.65228 0.28108 0.0
C686 C 0.43923 0.6569 0.33098 0.0
C687 C 0.44328 0.59175 0.36444 0.0
H688 H 0.49468 0.6388 0.41532 0.0
C689 C 0.50336 0.55049 0.45044 0.0
C690 C 0.50624 0.56311 0.47675 0.0
C691 C 0.49177 0.56145 0.42807 0.0
C692 C 0.48003 0.62543 0.40153 0.0
H693 H 0.43327 0.61417 0.26331 0.0
H694 H 0.44541 0.59572 0.30678 0.0
H695 H 0.47866 0.65774 0.37375 0.0
H696 H 0.49891 0.59727 0.50003 0.0
H697 H 0.47885 0.61653 0.46084 0.0
H698 H 0.44529 0.55936 0.39188 0.0
C699 C 0.44132 0.6156 0.30716 0.0
C700 C 0.47075 0.6363 0.37764 0.0
C701 C 0.43442 0.62622 0.28211 0.0
C702 C 0.49698 0.58695 0.48011 0.0
C703 C 0.48564 0.5981 0.45758 0.0
C704 C 0.45273 0.58088 0.38818 0.0
C705 C 0.44397 0.63078 0.33202 0.0
C706 C 0.45249 0.61957 0.35851 0.0
C707 C 0.48293 0.58551 0.43123 0.0
C708 C 0.47149 0.59749 0.4069 0.0
H709 H 0.42956 0.68793 0.30556 0.0
H710 H 0.44082 0.66919 0.34962 0.0
H711 H 0.42874 0.57823 0.35069 0.0
H712 H 0.51022 0.53212 0.44698 0.0
H713 H 0.49034 0.55135 0.40805 0.0
C714 C 0.12612 0.37052 0.80137 0.0
C715 C 0.15539 0.37448 0.79654 0.0
C716 C 0.11609 0.38214 0.82467 0.0
C717 C 0.13848 0.41405 0.89406 0.0
H718 H 0.07352 0.44406 0.88508 0.0
C719 C 0.08851 0.46015 0.98699 0.0
C720 C 0.07815 0.48299 0.98166 0.0
C721 C 0.0977 0.446 0.9651 0.0
C722 C 0.09184 0.436 0.88798 0.0
H723 H 0.19694 0.3931 0.81339 0.0
H724 H 0.17961 0.41379 0.85327 0.0
H725 H 0.08975 0.42117 0.84607 0.0
H726 H 0.07001 0.50907 0.9489 0.0
H727 H 0.08644 0.48492 0.91112 0.0
H728 H 0.1411 0.42966 0.93572 0.0
C729 C 0.16427 0.40153 0.83925 0.0
C730 C 0.10094 0.42246 0.86562 0.0
C731 C 0.17426 0.38991 0.81604 0.0
C732 C 0.07768 0.49152 0.95391 0.0
C733 C 0.08692 0.47746 0.9321 0.0
C734 C 0.12941 0.42765 0.91642 0.0
C735 C 0.13503 0.39802 0.84387 0.0
C736 C 0.12453 0.41143 0.86821 0.0
C737 C 0.09683 0.45432 0.93727 0.0
C738 C 0.10608 0.43904 0.91368 0.0
H739 H 0.1109 0.35891 0.78682 0.0
H740 H 0.09342 0.37862 0.82763 0.0
H741 H 0.15648 0.40556 0.8971 0.0
H742 H 0.08906 0.45286 1.00805 0.0
H743 H 0.1049 0.42816 0.97 0.0
C744 C 0.71257 0.84315 0.94102 0.0
C745 C 0.70329 0.82914 0.91623 0.0
C746 C 0.6998 0.86302 0.9509 0.0
C747 C 0.65433 0.9074 0.92818 0.0
H748 H 0.64399 0.91542 1.00759 0.0
C749 C 0.57975 0.96716 0.9767 0.0
C750 C 0.59018 0.98437 0.99923 0.0
C751 C 0.59548 0.95017 0.96561 0.0
C752 C 0.64707 0.9136 0.98538 0.0
H753 H 0.67315 0.82444 0.88255 0.0
H754 H 0.65007 0.8585 0.90023 0.0
H755 H 0.66655 0.88085 0.99053 0.0
H756 H 0.62548 0.99765 0.02752 0.0
H757 H 0.65284 0.96748 1.00833 0.0
H758 H 0.63383 0.93962 0.92319 0.0
C759 C 0.66774 0.85475 0.9117 0.0
C760 C 0.66003 0.89383 0.97556 0.0
C761 C 0.68077 0.8351 0.90165 0.0
C762 C 0.61694 0.98466 1.0101 0.0
C763 C 0.63251 0.96733 0.99926 0.0
C764 C 0.64104 0.92693 0.93801 0.0
C765 C 0.67724 0.86912 0.93635 0.0
C766 C 0.66374 0.8904 0.94682 0.0
C767 C 0.62177 0.94977 0.97708 0.0
C768 C 0.63722 0.93014 0.96668 0.0
H769 H 0.73023 0.83924 0.9524 0.0
H770 H 0.70805 0.87397 0.96965 0.0
H771 H 0.65735 0.90575 0.90596 0.0
H772 H 0.55923 0.96656 0.96781 0.0
H773 H 0.58665 0.93669 0.94864 0.0
C774 C 0.8937 0.19422 0.39819 0.0
C775 C 0.9024 0.2226 0.40002 0.0
C776 C 0.90922 0.17818 0.41095 0.0
C777 C 0.95801 0.17837 0.4684 0.0
H778 H 0.96723 0.11279 0.43257 0.0
C779 C 0.98341 0.09095 0.52967 0.0
C780 C 1.00274 0.0776 0.518 0.0
C781 C 0.97401 0.11014 0.51437 0.0
C782 C 0.96515 0.13117 0.44276 0.0
H783 H 0.93448 0.25634 0.41659 0.0
H784 H 0.96162 0.22814 0.43922 0.0
H785 H 0.94689 0.1442 0.40664 0.0
H786 H 0.02735 0.07401 0.481 0.0
H787 H 0.01088 0.10754 0.45429 0.0
H788 H 0.97614 0.16526 0.50458 0.0
C789 C 0.94266 0.21842 0.42785 0.0
C790 C 0.95326 0.14904 0.428 0.0
C791 C 0.92713 0.23455 0.41492 0.0
C792 C 0.01237 0.08382 0.4906 0.0
C793 C 1.00289 0.10299 0.47526 0.0
C794 C 0.96984 0.16045 0.4832 0.0
C795 C 0.93378 0.19005 0.42605 0.0
C796 C 0.94911 0.1726 0.4408 0.0
C797 C 0.98366 0.11642 0.48701 0.0
C798 C 0.9731 0.13644 0.47069 0.0
H799 H 0.87435 0.18425 0.38755 0.0
H800 H 0.90144 0.1564 0.40968 0.0
H801 H 0.95492 0.19626 0.4789 0.0
H802 H 0.97552 0.08667 0.55071 0.0
H803 H 0.95882 0.11979 0.52386 0.0
C804 C 0.30828 0.64787 0.19861 0.0
C805 C 0.33068 0.66353 0.18264 0.0
C806 C 0.2833 0.63318 0.18586 0.0
C807 C 0.2529 0.60742 0.11653 0.0
H808 H 0.18131 0.60359 0.15392 0.0
C809 C 0.14347 0.57156 0.06196 0.0
C810 C 0.12177 0.55398 0.07714 0.0
C811 C 0.16941 0.58385 0.07459 0.0
C812 C 0.20114 0.60427 0.14329 0.0
H813 H 0.34449 0.67493 0.1404 0.0
H814 H 0.30085 0.65045 0.11847 0.0
H815 H 0.22543 0.62658 0.17651 0.0
H816 H 0.11067 0.53541 0.11757 0.0
H817 H 0.15561 0.55694 0.13944 0.0
H818 H 0.22833 0.58563 0.083 0.0
C819 C 0.30257 0.64911 0.14083 0.0
C820 C 0.22653 0.61737 0.15631 0.0
C821 C 0.32757 0.66358 0.15353 0.0
C822 C 0.12679 0.54885 0.10517 0.0
C823 C 0.15254 0.56133 0.11782 0.0
C824 C 0.22746 0.59456 0.10339 0.0
C825 C 0.27994 0.63382 0.15678 0.0
C826 C 0.25283 0.61918 0.14314 0.0
C827 C 0.17414 0.57908 0.10276 0.0
C828 C 0.20127 0.59282 0.11662 0.0
H829 H 0.30975 0.6474 0.22107 0.0
H830 H 0.26661 0.62132 0.19888 0.0
H831 H 0.27264 0.60788 0.10585 0.0
H832 H 0.14039 0.57596 0.04036 0.0
H833 H 0.18556 0.59755 0.06246 0.0
C834 C 0.28835 0.42371 0.71228 0.0
C835 C 0.27399 0.39662 0.70758 0.0
C836 C 0.31016 0.43686 0.69437 0.0
C837 C 0.34252 0.43323 0.62448 0.0
H838 H 0.41005 0.47614 0.66033 0.0
C839 C 0.45034 0.47351 0.56644 0.0
C840 C 0.46698 0.49908 0.57443 0.0
C841 C 0.4253 0.46148 0.58098 0.0
C842 C 0.39126 0.46458 0.64985 0.0
H843 H 0.2698 0.36252 0.67957 0.0
H844 H 0.30809 0.38535 0.64828 0.0
H845 H 0.36898 0.45489 0.68839 0.0
H846 H 0.46944 0.53262 0.60309 0.0
H847 H 0.42592 0.51201 0.62786 0.0
H848 H 0.36506 0.44291 0.58587 0.0
C849 C 0.30262 0.3965 0.66582 0.0
C850 C 0.36763 0.45236 0.66601 0.0
C851 C 0.28081 0.38335 0.68379 0.0
C852 C 0.45744 0.51273 0.59656 0.0
C853 C 0.43247 0.50082 0.61093 0.0
C854 C 0.36623 0.44555 0.60824 0.0
C855 C 0.318 0.42326 0.67121 0.0
C856 C 0.3429 0.43657 0.65359 0.0
C857 C 0.41632 0.47481 0.60376 0.0
C858 C 0.3909 0.46147 0.62072 0.0
H859 H 0.28316 0.43452 0.73024 0.0
H860 H 0.3211 0.45765 0.69884 0.0
H861 H 0.32376 0.42139 0.61417 0.0
H862 H 0.45707 0.46241 0.54954 0.0
H863 H 0.41352 0.44137 0.57494 0.0
C864 C 0.7698 0.70398 0.91413 0.0
C865 C 0.75593 0.71251 0.93682 0.0
C866 C 0.79277 0.69275 0.91844 0.0
C867 C 0.82988 0.66324 0.97242 0.0
H868 H 0.89516 0.68842 0.92416 0.0
C869 C 0.9396 0.64738 0.99872 0.0
C870 C 0.95467 0.63869 0.97697 0.0
C871 C 0.9151 0.65586 0.99323 0.0
C872 C 0.87701 0.68098 0.93761 0.0
H873 H 0.75518 0.71654 0.98164 0.0
H874 H 0.7954 0.69698 0.98932 0.0
H875 H 0.85188 0.70272 0.91552 0.0
H876 H 0.95593 0.63232 0.93236 0.0
H877 H 0.91327 0.64742 0.92275 0.0
H878 H 0.8552 0.6418 0.99473 0.0
C879 C 0.78816 0.69826 0.96824 0.0
C880 C 0.85217 0.68909 0.93263 0.0
C881 C 0.76518 0.70945 0.9639 0.0
C882 C 0.94505 0.63927 0.94953 0.0
C883 C 0.92057 0.64784 0.94403 0.0
C884 C 0.85474 0.65519 0.97744 0.0
C885 C 0.8025 0.69017 0.94553 0.0
C886 C 0.82837 0.68043 0.95006 0.0
C887 C 0.90516 0.65592 0.96586 0.0
C888 C 0.87862 0.66411 0.9602 0.0
H889 H 0.76333 0.70667 0.89304 0.0
H890 H 0.80319 0.68647 0.90053 0.0
H891 H 0.81179 0.65591 0.98599 0.0
H892 H 0.94672 0.64757 1.02004 0.0
H893 H 0.90396 0.66247 1.01043 0.0
C894 C 0.40786 0.75242 0.15458 0.0
C895 C 0.40914 0.74895 0.1836 0.0
C896 C 0.4193 0.77758 0.1423 0.0
C897 C 0.47243 0.84163 0.15047 0.0
H898 H 0.42501 0.87023 0.10057 0.0
C899 C 0.51098 0.94921 0.10468 0.0
C900 C 0.50217 0.95424 0.07787 0.0
C901 C 0.4993 0.92461 0.11801 0.0
C902 C 0.43883 0.86247 0.11402 0.0
H903 H 0.42449 0.7697 0.22216 0.0
H904 H 0.4455 0.81338 0.20042 0.0
H905 H 0.40623 0.82655 0.12267 0.0
H906 H 0.47423 0.93714 0.04396 0.0
H907 H 0.45468 0.89382 0.06658 0.0
H908 H 0.50543 0.87678 0.14116 0.0
C909 C 0.43516 0.79646 0.18736 0.0
C910 C 0.42791 0.83744 0.12686 0.0
C911 C 0.42323 0.77133 0.19979 0.0
C912 C 0.48132 0.93402 0.06471 0.0
C913 C 0.46998 0.90916 0.07785 0.0
C914 C 0.48355 0.86644 0.13724 0.0
C915 C 0.43295 0.79993 0.15853 0.0
C916 C 0.44456 0.82675 0.14526 0.0
C917 C 0.47881 0.90401 0.10474 0.0
C918 C 0.46692 0.87736 0.11883 0.0
H919 H 0.39804 0.73564 0.14115 0.0
H920 H 0.41771 0.7795 0.11997 0.0
H921 H 0.48587 0.83375 0.1643 0.0
H922 H 0.5268 0.96444 0.11556 0.0
H923 H 0.50626 0.92195 0.1389 0.0
C924 C 0.12256 0.29008 0.72075 0.0
C925 C 0.15176 0.299 0.72604 0.0
C926 C 0.11136 0.26501 0.7077 0.0
C927 C 0.1342 0.21386 0.66338 0.0
H928 H 0.05939 0.169 0.68028 0.0
C929 C 0.08335 0.12008 0.59621 0.0
C930 C 0.06679 0.09703 0.6096 0.0
C931 C 0.09287 0.14454 0.6107 0.0
C932 C 0.08045 0.18112 0.67543 0.0
H933 H 0.19176 0.28786 0.72333 0.0
H934 H 0.17234 0.24414 0.70141 0.0
H935 H 0.07746 0.21101 0.70608 0.0
H936 H 0.04738 0.08182 0.64897 0.0
H937 H 0.06453 0.12417 0.67436 0.0
H938 H 0.13765 0.18374 0.63339 0.0
C939 C 0.15808 0.25674 0.70633 0.0
C940 C 0.09069 0.20548 0.69004 0.0
C941 C 0.16925 0.2818 0.7191 0.0
C942 C 0.06004 0.09913 0.63791 0.0
C943 C 0.06972 0.12356 0.65246 0.0
C944 C 0.12405 0.18952 0.64891 0.0
C945 C 0.12908 0.24817 0.69985 0.0
C946 C 0.11779 0.22219 0.68429 0.0
C947 C 0.08631 0.14667 0.63909 0.0
C948 C 0.09701 0.17274 0.65467 0.0
H949 H 0.10857 0.30295 0.72571 0.0
H950 H 0.08897 0.25928 0.70294 0.0
H951 H 0.15495 0.22629 0.65791 0.0
H952 H 0.08879 0.11937 0.57438 0.0
H953 H 0.10513 0.16191 0.59945 0.0
C954 C 0.81054 0.31947 0.45521 0.0
C955 C 0.81243 0.30448 0.43101 0.0
C956 C 0.7902 0.33441 0.45743 0.0
C957 C 0.7209 0.33711 0.42892 0.0
H958 H 0.73567 0.40525 0.46907 0.0
C959 C 0.63095 0.3828 0.46866 0.0
C960 C 0.63519 0.41103 0.46788 0.0
C961 C 0.65307 0.3709 0.46205 0.0
C962 C 0.73123 0.3864 0.45751 0.0
H963 H 0.79504 0.29358 0.39004 0.0
H964 H 0.75982 0.32022 0.39353 0.0
H965 H 0.77424 0.38376 0.46038 0.0
H966 H 0.6657 0.44886 0.45875 0.0
H967 H 0.70423 0.4281 0.44696 0.0
H968 H 0.67798 0.33993 0.42571 0.0
C969 C 0.77377 0.32018 0.41097 0.0
C970 C 0.7533 0.37391 0.45281 0.0
C971 C 0.79406 0.30515 0.40881 0.0
C972 C 0.66192 0.42707 0.45998 0.0
C973 C 0.684 0.41517 0.45324 0.0
C974 C 0.69885 0.34964 0.43353 0.0
C975 C 0.77131 0.33467 0.43547 0.0
C976 C 0.74834 0.34894 0.43876 0.0
C977 C 0.6799 0.38694 0.45436 0.0
C978 C 0.70366 0.37429 0.44817 0.0
H979 H 0.82429 0.31906 0.47272 0.0
H980 H 0.78866 0.34498 0.47675 0.0
H981 H 0.71622 0.31775 0.41828 0.0
H982 H 0.61069 0.36994 0.47499 0.0
H983 H 0.64928 0.34914 0.46359 0.0
loop_
_geom_bond_atom_site_label_1
_geom_bond_atom_site_label_2
_geom_bond_distance
_geom_bond_site_symmetry_2
_ccdc_geom_bond_type
H0 C7 0.929 . S
H1 C10 0.930 . S
H2 C12 0.929 . S
H3 C4 0.969 . S
C4 H3 0.969 . S
C4 O5 1.550 . S
C4 H6 0.973 . S
O5 C4 1.550 . S
O5 C11 1.412 . S
H6 C4 0.973 . S
C7 H0 0.929 . S
C7 C8 1.400 . S
C7 C9 1.364 . S
C8 C7 1.400 . S
C8 C12 1.377 . S
C9 C7 1.364 . S
C9 C10 1.374 . S
C10 H1 0.930 . S
C10 C9 1.374 . S
C10 C11 1.383 . S
C11 O5 1.412 . S
C11 C10 1.383 . S
C11 C12 1.394 . S
C12 H2 0.929 . S
C12 C8 1.377 . S
C12 C11 1.394 . S
H13 C20 0.929 . S
H14 C23 0.930 . S
H15 C25 0.929 . S
H16 C17 0.969 . S
C17 H16 0.969 . S
C17 O18 1.550 . S
C17 H19 0.973 . S
O18 C17 1.550 . S
O18 C24 1.412 . S
H19 C17 0.973 . S
C20 H13 0.929 . S
C20 C21 1.400 . S
C20 C22 1.364 . S
C21 C20 1.400 . S
C21 C25 1.377 . S
C22 C20 1.364 . S
C22 C23 1.374 . S
C23 H14 0.930 . S
C23 C22 1.374 . S
C23 C24 1.383 . S
C24 O18 1.412 . S
C24 C23 1.383 . S
C24 C25 1.394 . S
C25 H15 0.929 . S
C25 C21 1.377 . S
C25 C24 1.394 . S
H26 C33 0.929 . S
H27 C36 0.930 . S
H28 C38 0.929 . S
H29 C30 0.969 . S
C30 H29 0.969 . S
C30 O31 1.550 . S
C30 H32 0.973 . S
O31 C30 1.550 . S
O31 C37 1.412 . S
H32 C30 0.973 . S
C33 H26 0.929 . S
C33 C34 1.400 . S
C33 C35 1.364 . S
C34 C33 1.400 . S
C34 C38 1.377 . S
C35 C33 1.364 . S
C35 C36 1.374 . S
C36 H27 0.930 . S
C36 C35 1.374 . S
C36 C37 1.383 . S
C37 O31 1.412 . S
C37 C36 1.383 . S
C37 C38 1.394 . S
C38 H28 0.929 . S
C38 C34 1.377 . S
C38 C37 1.394 . S
H39 C46 0.929 . S
H40 C49 0.930 . S
H41 C51 0.929 . S
H42 C43 0.969 . S
C43 H42 0.969 . S
C43 O44 1.550 . S
C43 H45 0.973 . S
O44 C43 1.550 . S
O44 C50 1.412 . S
H45 C43 0.973 . S
C46 H39 0.929 . S
C46 C47 1.400 . S
C46 C48 1.364 . S
C47 C46 1.400 . S
C47 C51 1.377 . S
C48 C46 1.364 . S
C48 C49 1.374 . S
C49 H40 0.930 . S
C49 C48 1.374 . S
C49 C50 1.383 . S
C50 O44 1.412 . S
C50 C49 1.383 . S
C50 C51 1.394 . S
C51 H41 0.929 . S
C51 C47 1.377 . S
C51 C50 1.394 . S
H52 C59 0.929 . S
H53 C62 0.930 . S
H54 C64 0.929 . S
H55 C56 0.969 . S
C56 H55 0.969 . S
C56 O57 1.550 . S
C56 H58 0.973 . S
O57 C56 1.550 . S
O57 C63 1.412 . S
H58 C56 0.973 . S
C59 H52 0.929 . S
C59 C60 1.400 . S
C59 C61 1.364 . S
C60 C59 1.400 . S
C60 C64 1.377 . S
C61 C59 1.364 . S
C61 C62 1.374 . S
C62 H53 0.930 . S
C62 C61 1.374 . S
C62 C63 1.383 . S
C63 O57 1.412 . S
C63 C62 1.383 . S
C63 C64 1.394 . S
C64 H54 0.929 . S
C64 C60 1.377 . S
C64 C63 1.394 . S
H65 C72 0.929 . S
H66 C75 0.930 . S
H67 C77 0.929 . S
H68 C69 0.969 . S
C69 H68 0.969 . S
C69 O70 1.550 . S
C69 H71 0.973 . S
O70 C69 1.550 . S
O70 C76 1.412 . S
H71 C69 0.973 . S
C72 H65 0.929 . S
C72 C73 1.400 . S
C72 C74 1.364 . S
C73 C72 1.400 . S
C73 C77 1.377 . S
C74 C72 1.364 . S
C74 C75 1.374 . S
C75 H66 0.930 . S
C75 C74 1.374 . S
C75 C76 1.383 . S
C76 O70 1.412 . S
C76 C75 1.383 . S
C76 C77 1.394 . S
C77 H67 0.929 . S
C77 C73 1.377 . S
C77 C76 1.394 . S
H78 C85 0.929 . S
H79 C88 0.930 . S
H80 C90 0.929 . S
H81 C82 0.969 . S
C82 H81 0.969 . S
C82 O83 1.550 . S
C82 H84 0.973 . S
O83 C82 1.550 . S
O83 C89 1.412 . S
H84 C82 0.973 . S
C85 H78 0.929 . S
C85 C86 1.400 . S
C85 C87 1.364 . S
C86 C85 1.400 . S
C86 C90 1.377 . S
C87 C85 1.364 . S
C87 C88 1.374 . S
C88 H79 0.930 . S
C88 C87 1.374 . S
C88 C89 1.383 . S
C89 O83 1.412 . S
C89 C88 1.383 . S
C89 C90 1.394 . S
C90 H80 0.929 . S
C90 C86 1.377 . S
C90 C89 1.394 . S
H91 C98 0.929 . S
H92 C101 0.930 . S
H93 C103 0.929 . S
H94 C95 0.969 . S
C95 H94 0.969 . S
C95 O96 1.550 . S
C95 H97 0.973 . S
O96 C95 1.550 . S
O96 C102 1.412 . S
H97 C95 0.973 . S
C98 H91 0.929 . S
C98 C99 1.400 . S
C98 C100 1.364 . S
C99 C98 1.400 . S
C99 C103 1.377 . S
C100 C98 1.364 . S
C100 C101 1.374 . S
C101 H92 0.930 . S
C101 C100 1.374 . S
C101 C102 1.383 . S
C102 O96 1.412 . S
C102 C101 1.383 . S
C102 C103 1.394 . S
C103 H93 0.929 . S
C103 C99 1.377 . S
C103 C102 1.394 . S
Tb104 C113 2.764 . S
Tb104 O114 2.325 . S
Tb104 O117 2.303 . S
Tb104 O121 2.322 1_545 S
Tb104 O122 2.349 1_545 S
Tb104 O125 2.415 . S
Tb104 O126 2.399 . S
Tb105 O115 2.322 . S
Tb105 O116 2.349 1_655 S
Tb105 O118 2.415 1_545 S
Tb105 O119 2.399 . S
Tb105 O120 2.325 1_645 S
Tb105 O123 2.303 1_545 S
Tb105 C134 2.764 1_545 S
C106 O122 1.261 1_655 S
C106 O123 1.257 . S
C107 C110 1.358 . S
C107 C111 1.332 . S
C107 C113 1.504 . S
C108 C109 1.373 . S
C108 C112 1.308 . S
C109 C108 1.373 . S
C109 C110 1.429 . S
C109 H136 0.932 . S
C110 C107 1.358 . S
C110 C109 1.429 . S
C110 H137 0.930 . S
C111 C107 1.332 . S
C111 C112 1.394 . S
C111 H138 0.932 . S
C112 C108 1.308 . S
C112 C111 1.394 . S
C112 H139 0.929 . S
C113 Tb104 2.764 . S
C113 C107 1.504 . S
C113 O125 1.239 . S
C113 O126 1.263 . S
O114 Tb104 2.325 . S
O114 C124 1.236 1_455 S
O115 Tb105 2.322 . S
O115 C124 1.257 . S
O116 Tb105 2.349 1_455 S
O116 C127 1.261 . S
O117 Tb104 2.303 . S
O117 C127 1.257 . S
O118 Tb105 2.415 1_565 S
O118 C134 1.239 . S
O119 Tb105 2.399 . S
O119 C134 1.263 1_545 S
O120 Tb105 2.325 1_465 S
O120 C135 1.236 . S
O121 Tb104 2.322 1_565 S
O121 C135 1.257 . S
O122 Tb104 2.349 1_565 S
O122 C106 1.261 1_455 S
O123 Tb105 2.303 1_565 S
O123 C106 1.257 . S
C124 O114 1.236 1_655 S
C124 O115 1.257 . S
O125 Tb104 2.415 . S
O125 C113 1.239 . S
O126 Tb104 2.399 . S
O126 C113 1.263 . S
C127 O116 1.261 . S
C127 O117 1.257 . S
C128 C131 1.358 . S
C128 C132 1.332 . S
C128 C134 1.504 . S
C129 C130 1.373 . S
C129 C133 1.308 . S
C130 C129 1.373 . S
C130 C131 1.429 . S
C130 H140 0.932 . S
C131 C128 1.358 . S
C131 C130 1.429 . S
C131 H141 0.930 . S
C132 C128 1.332 . S
C132 C133 1.394 . S
C132 H142 0.932 . S
C133 C129 1.308 . S
C133 C132 1.394 . S
C133 H143 0.929 . S
C134 Tb105 2.764 1_565 S
C134 O118 1.239 . S
C134 O119 1.263 1_565 S
C134 C128 1.504 . S
C135 O120 1.236 . S
C135 O121 1.257 . S
H136 C109 0.932 . S
H137 C110 0.930 . S
H138 C111 0.932 . S
H139 C112 0.929 . S
H140 C130 0.932 . S
H141 C131 0.930 . S
H142 C132 0.932 . S
H143 C133 0.929 . S
Tb144 C153 2.764 . S
Tb144 O154 2.325 . S
Tb144 O157 2.303 . S
Tb144 O161 2.322 1_545 S
Tb144 O162 2.349 1_545 S
Tb144 O165 2.415 . S
Tb144 O166 2.399 . S
Tb145 O155 2.322 . S
Tb145 O156 2.349 1_556 S
Tb145 O158 2.415 1_545 S
Tb145 O159 2.399 1_545 S
Tb145 O160 2.325 1_546 S
Tb145 O163 2.303 1_545 S
Tb145 C174 2.764 1_545 S
C146 O162 1.261 1_556 S
C146 O163 1.257 . S
C147 C150 1.358 . S
C147 C151 1.332 . S
C147 C153 1.504 . S
C148 C149 1.373 . S
C148 C152 1.308 . S
C149 C148 1.373 . S
C149 C150 1.429 . S
C149 H176 0.932 . S
C150 C147 1.358 . S
C150 C149 1.429 . S
C150 H177 0.930 . S
C151 C147 1.332 . S
C151 C152 1.394 . S
C151 H178 0.932 . S
C152 C148 1.308 . S
C152 C151 1.394 . S
C152 H179 0.929 . S
C153 Tb144 2.764 . S
C153 C147 1.504 . S
C153 O165 1.239 . S
C153 O166 1.263 . S
O154 Tb144 2.325 . S
O154 C164 1.236 1_554 S
O155 Tb145 2.322 . S
O155 C164 1.257 . S
O156 Tb145 2.349 1_554 S
O156 C167 1.261 . S
O157 Tb144 2.303 . S
O157 C167 1.257 . S
O158 Tb145 2.415 1_565 S
O158 C174 1.239 . S
O159 Tb145 2.399 1_565 S
O159 C174 1.263 . S
O160 Tb145 2.325 1_564 S
O160 C175 1.236 . S
O161 Tb144 2.322 1_565 S
O161 C175 1.257 . S
O162 Tb144 2.349 1_565 S
O162 C146 1.261 1_554 S
O163 Tb145 2.303 1_565 S
O163 C146 1.257 . S
C164 O154 1.236 1_556 S
C164 O155 1.257 . S
O165 Tb144 2.415 . S
O165 C153 1.239 . S
O166 Tb144 2.399 . S
O166 C153 1.263 . S
C167 O156 1.261 . S
C167 O157 1.257 . S
C168 C171 1.358 . S
C168 C172 1.332 . S
C168 C174 1.504 . S
C169 C170 1.373 . S
C169 C173 1.308 . S
C170 C169 1.373 . S
C170 C171 1.429 . S
C170 H180 0.932 . S
C171 C168 1.358 . S
C171 C170 1.429 . S
C171 H181 0.930 . S
C172 C168 1.332 . S
C172 C173 1.394 . S
C172 H182 0.932 . S
C173 C169 1.308 . S
C173 C172 1.394 . S
C173 H183 0.929 . S
C174 Tb145 2.764 1_565 S
C174 O158 1.239 . S
C174 O159 1.263 . S
C174 C168 1.504 . S
C175 O160 1.236 . S
C175 O161 1.257 . S
H176 C149 0.932 . S
H177 C150 0.930 . S
H178 C151 0.932 . S
H179 C152 0.929 . S
H180 C170 0.932 . S
H181 C171 0.930 . S
H182 C172 0.932 . S
H183 C173 0.929 . S
Tb184 C193 2.764 . S
Tb184 O194 2.325 . S
Tb184 O197 2.303 . S
Tb184 O201 2.322 . S
Tb184 O202 2.349 . S
Tb184 O205 2.415 . S
Tb184 O206 2.399 . S
Tb185 O195 2.322 . S
Tb185 O196 2.349 . S
Tb185 O198 2.415 . S
Tb185 O199 2.399 . S
Tb185 O200 2.325 . S
Tb185 O203 2.303 . S
Tb185 C214 2.764 . S
C186 O202 1.261 . S
C186 O203 1.257 . S
C187 C190 1.358 . S
C187 C191 1.332 . S
C187 C193 1.504 . S
C188 C189 1.373 . S
C188 C192 1.308 . S
C189 C188 1.373 . S
C189 C190 1.429 . S
C189 H216 0.932 . S
C190 C187 1.358 . S
C190 C189 1.429 . S
C190 H217 0.930 . S
C191 C187 1.332 . S
C191 C192 1.394 . S
C191 H218 0.932 . S
C192 C188 1.308 . S
C192 C191 1.394 . S
C192 H219 0.929 . S
C193 Tb184 2.764 . S
C193 C187 1.504 . S
C193 O205 1.239 . S
C193 O206 1.263 . S
O194 Tb184 2.325 . S
O194 C204 1.236 . S
O195 Tb185 2.322 . S
O195 C204 1.257 . S
O196 Tb185 2.349 . S
O196 C207 1.261 . S
O197 Tb184 2.303 . S
O197 C207 1.257 . S
O198 Tb185 2.415 . S
O198 C214 1.239 . S
O199 Tb185 2.399 . S
O199 C214 1.263 . S
O200 Tb185 2.325 . S
O200 C215 1.236 . S
O201 Tb184 2.322 . S
O201 C215 1.257 . S
O202 Tb184 2.349 . S
O202 C186 1.261 . S
O203 Tb185 2.303 . S
O203 C186 1.257 . S
C204 O194 1.236 . S
C204 O195 1.257 . S
O205 Tb184 2.415 . S
O205 C193 1.239 . S
O206 Tb184 2.399 . S
O206 C193 1.263 . S
C207 O196 1.261 . S
C207 O197 1.257 . S
C208 C211 1.358 . S
C208 C212 1.332 . S
C208 C214 1.504 . S
C209 C210 1.373 . S
C209 C213 1.308 . S
C210 C209 1.373 . S
C210 C211 1.429 . S
C210 H220 0.932 . S
C211 C208 1.358 . S
C211 C210 1.429 . S
C211 H221 0.930 . S
C212 C208 1.332 . S
C212 C213 1.394 . S
C212 H222 0.932 . S
C213 C209 1.308 . S
C213 C212 1.394 . S
C213 H223 0.929 . S
C214 Tb185 2.764 . S
C214 O198 1.239 . S
C214 O199 1.263 . S
C214 C208 1.504 . S
C215 O200 1.236 . S
C215 O201 1.257 . S
H216 C189 0.932 . S
H217 C190 0.930 . S
H218 C191 0.932 . S
H219 C192 0.929 . S
H220 C210 0.932 . S
H221 C211 0.930 . S
H222 C212 0.932 . S
H223 C213 0.929 . S
Tb224 C233 2.750 1_454 S
Tb224 O234 2.325 1_455 S
Tb224 O237 2.303 . S
Tb224 O241 2.322 . S
Tb224 O242 2.349 1_554 S
Tb224 O245 2.415 1_455 S
Tb224 O246 2.399 1_554 S
Tb225 O235 2.322 1_455 S
Tb225 O236 2.349 . S
Tb225 O238 2.415 . S
Tb225 O239 2.399 . S
Tb225 O240 2.325 . S
Tb225 O243 2.303 . S
Tb225 C254 2.764 . S
C226 O242 1.261 . S
C226 O243 1.257 1_556 S
C227 C230 1.358 . S
C227 C231 1.332 1_556 S
C227 C233 1.517 . S
C228 C229 1.373 . S
C228 C232 1.308 . S
C229 C228 1.373 . S
C229 C230 1.429 . S
C229 H256 0.932 . S
C230 C227 1.358 . S
C230 C229 1.429 . S
C230 H257 0.930 . S
C231 C227 1.332 1_554 S
C231 C232 1.394 1_554 S
C231 H258 0.932 . S
C232 C228 1.308 . S
C232 C231 1.394 1_556 S
C232 H259 0.920 1_556 S
C233 Tb224 2.750 1_656 S
C233 C227 1.517 . S
C233 O245 1.203 1_556 S
C233 O246 1.285 1_655 S
O234 Tb224 2.325 1_655 S
O234 C244 1.236 . S
O235 Tb225 2.322 1_655 S
O235 C244 1.257 . S
O236 Tb225 2.349 . S
O236 C247 1.261 . S
O237 Tb224 2.303 . S
O237 C247 1.257 . S
O238 Tb225 2.415 . S
O238 C254 1.239 . S
O239 Tb225 2.399 . S
O239 C254 1.263 . S
O240 Tb225 2.325 . S
O240 C255 1.236 . S
O241 Tb224 2.322 . S
O241 C255 1.257 . S
O242 Tb224 2.349 1_556 S
O242 C226 1.261 . S
O243 Tb225 2.303 . S
O243 C226 1.257 1_554 S
C244 O234 1.236 . S
C244 O235 1.257 . S
O245 Tb224 2.415 1_655 S
O245 C233 1.203 1_554 S
O246 Tb224 2.399 1_556 S
O246 C233 1.285 1_455 S
C247 O236 1.261 . S
C247 O237 1.257 . S
C248 C251 1.358 . S
C248 C252 1.332 . S
C248 C254 1.504 . S
C249 C250 1.373 . S
C249 C253 1.308 . S
C250 C249 1.373 . S
C250 C251 1.429 . S
C250 H260 0.932 . S
C251 C248 1.358 . S
C251 C250 1.429 . S
C251 H261 0.930 . S
C252 C248 1.332 . S
C252 C253 1.394 . S
C252 H262 0.932 . S
C253 C249 1.308 . S
C253 C252 1.394 . S
C253 H263 0.929 . S
C254 Tb225 2.764 . S
C254 O238 1.239 . S
C254 O239 1.263 . S
C254 C248 1.504 . S
C255 O240 1.236 . S
C255 O241 1.257 . S
H256 C229 0.932 . S
H257 C230 0.930 . S
H258 C231 0.932 . S
H259 C232 0.920 1_554 S
H260 C250 0.932 . S
H261 C251 0.930 . S
H262 C252 0.932 . S
H263 C253 0.929 . S
C264 C265 1.349 . S
C264 C266 1.327 . S
C264 H289 0.950 . S
C265 C264 1.349 . S
C265 C281 1.349 . S
C266 C264 1.327 . S
C266 C285 1.429 . S
C266 H290 0.950 . S
C267 C284 1.574 . S
C267 C286 1.368 . S
C267 H291 0.949 . S
H268 C272 0.949 . S
C269 C270 1.349 . S
C269 C271 1.327 . S
C269 H292 0.950 . S
C270 C269 1.349 . S
C270 C282 1.349 . S
C271 C269 1.327 . S
C271 C287 1.429 . S
C271 H293 0.950 . S
C272 H268 0.949 . S
C272 C280 1.574 . S
C272 C288 1.368 . S
H273 C281 0.950 . S
H274 C279 0.950 . S
H275 C280 0.949 . S
H276 C282 0.950 . S
H277 C283 0.950 . S
H278 C284 0.949 . S
C279 H274 0.950 . S
C279 C281 1.327 . S
C279 C285 1.429 . S
C280 C272 1.574 . S
C280 H275 0.949 . S
C280 C286 1.368 . S
C281 C265 1.349 . S
C281 H273 0.950 . S
C281 C279 1.327 . S
C282 C270 1.349 . S
C282 H276 0.950 . S
C282 C283 1.327 . S
C283 H277 0.950 . S
C283 C282 1.327 . S
C283 C287 1.429 . S
C284 C267 1.574 . S
C284 H278 0.949 . S
C284 C288 1.368 . S
C285 C266 1.429 . S
C285 C279 1.429 . S
C285 C286 1.523 . S
C286 C267 1.368 . S
C286 C280 1.368 . S
C286 C285 1.523 . S
C287 C271 1.429 . S
C287 C283 1.429 . S
C287 C288 1.523 . S
C288 C272 1.368 . S
C288 C284 1.368 . S
C288 C287 1.523 . S
H289 C264 0.950 . S
H290 C266 0.950 . S
H291 C267 0.949 . S
H292 C269 0.950 . S
H293 C271 0.950 . S
C294 C295 1.349 . S
C294 C296 1.327 . S
C294 H319 0.950 . S
C295 C294 1.349 . S
C295 C311 1.349 . S
C296 C294 1.327 . S
C296 C315 1.429 . S
C296 H320 0.950 . S
C297 C314 1.574 . S
C297 C316 1.368 . S
C297 H321 0.949 . S
H298 C302 0.949 . S
C299 C300 1.349 . S
C299 C301 1.327 . S
C299 H322 0.950 . S
C300 C299 1.349 . S
C300 C312 1.349 . S
C301 C299 1.327 . S
C301 C317 1.429 . S
C301 H323 0.950 . S
C302 H298 0.949 . S
C302 C310 1.574 . S
C302 C318 1.368 . S
H303 C311 0.950 . S
H304 C309 0.950 . S
H305 C310 0.949 . S
H306 C312 0.950 . S
H307 C313 0.950 . S
H308 C314 0.949 . S
C309 H304 0.950 . S
C309 C311 1.327 . S
C309 C315 1.429 . S
C310 C302 1.574 . S
C310 H305 0.949 . S
C310 C316 1.368 . S
C311 C295 1.349 . S
C311 H303 0.950 . S
C311 C309 1.327 . S
C312 C300 1.349 . S
C312 H306 0.950 . S
C312 C313 1.327 . S
C313 H307 0.950 . S
C313 C312 1.327 . S
C313 C317 1.429 . S
C314 C297 1.574 . S
C314 H308 0.949 . S
C314 C318 1.368 . S
C315 C296 1.429 . S
C315 C309 1.429 . S
C315 C316 1.523 . S
C316 C297 1.368 . S
C316 C310 1.368 . S
C316 C315 1.523 . S
C317 C301 1.429 . S
C317 C313 1.429 . S
C317 C318 1.523 . S
C318 C302 1.368 . S
C318 C314 1.368 . S
C318 C317 1.523 . S
H319 C294 0.950 . S
H320 C296 0.950 . S
H321 C297 0.949 . S
H322 C299 0.950 . S
H323 C301 0.950 . S
C324 C325 1.349 . S
C324 C326 1.327 . S
C324 H349 0.950 . S
C325 C324 1.349 . S
C325 C341 1.349 . S
C326 C324 1.327 . S
C326 C345 1.429 . S
C326 H350 0.950 . S
C327 C344 1.574 . S
C327 C346 1.368 . S
C327 H351 0.949 . S
H328 C332 0.949 . S
C329 C330 1.349 . S
C329 C331 1.327 . S
C329 H352 0.950 . S
C330 C329 1.349 . S
C330 C342 1.349 . S
C331 C329 1.327 . S
C331 C347 1.429 . S
C331 H353 0.950 . S
C332 H328 0.949 . S
C332 C340 1.574 . S
C332 C348 1.368 . S
H333 C341 0.950 . S
H334 C339 0.950 . S
H335 C340 0.949 . S
H336 C342 0.950 . S
H337 C343 0.950 . S
H338 C344 0.949 . S
C339 H334 0.950 . S
C339 C341 1.327 . S
C339 C345 1.429 . S
C340 C332 1.574 . S
C340 H335 0.949 . S
C340 C346 1.368 . S
C341 C325 1.349 . S
C341 H333 0.950 . S
C341 C339 1.327 . S
C342 C330 1.349 . S
C342 H336 0.950 . S
C342 C343 1.327 . S
C343 H337 0.950 . S
C343 C342 1.327 . S
C343 C347 1.429 . S
C344 C327 1.574 . S
C344 H338 0.949 . S
C344 C348 1.368 . S
C345 C326 1.429 . S
C345 C339 1.429 . S
C345 C346 1.523 . S
C346 C327 1.368 . S
C346 C340 1.368 . S
C346 C345 1.523 . S
C347 C331 1.429 . S
C347 C343 1.429 . S
C347 C348 1.523 . S
C348 C332 1.368 . S
C348 C344 1.368 . S
C348 C347 1.523 . S
H349 C324 0.950 . S
H350 C326 0.950 . S
H351 C327 0.949 . S
H352 C329 0.950 . S
H353 C331 0.950 . S
C354 C355 1.349 . S
C354 C356 1.327 . S
C354 H379 0.950 . S
C355 C354 1.349 . S
C355 C371 1.349 . S
C356 C354 1.327 . S
C356 C375 1.429 . S
C356 H380 0.950 . S
C357 C374 1.574 . S
C357 C376 1.368 . S
C357 H381 0.949 . S
H358 C362 0.949 . S
C359 C360 1.349 1_455 S
C359 C361 1.327 . S
C359 H382 0.950 . S
C360 C359 1.349 1_655 S
C360 C372 1.349 . S
C361 C359 1.327 . S
C361 C377 1.429 1_455 S
C361 H383 0.950 . S
C362 H358 0.949 . S
C362 C370 1.574 . S
C362 C378 1.368 . S
H363 C371 0.950 . S
H364 C369 0.950 . S
H365 C370 0.949 . S
H366 C372 0.950 . S
H367 C373 0.950 . S
H368 C374 0.949 1_455 S
C369 H364 0.950 . S
C369 C371 1.327 . S
C369 C375 1.429 . S
C370 C362 1.574 . S
C370 H365 0.949 . S
C370 C376 1.368 . S
C371 C355 1.349 . S
C371 H363 0.950 . S
C371 C369 1.327 . S
C372 C360 1.349 . S
C372 H366 0.950 . S
C372 C373 1.327 . S
C373 H367 0.950 . S
C373 C372 1.327 . S
C373 C377 1.429 . S
C374 C357 1.574 . S
C374 H368 0.949 1_655 S
C374 C378 1.368 . S
C375 C356 1.429 . S
C375 C369 1.429 . S
C375 C376 1.523 . S
C376 C357 1.368 . S
C376 C370 1.368 . S
C376 C375 1.523 . S
C377 C361 1.429 1_655 S
C377 C373 1.429 . S
C377 C378 1.523 . S
C378 C362 1.368 . S
C378 C374 1.368 . S
C378 C377 1.523 . S
H379 C354 0.950 . S
H380 C356 0.950 . S
H381 C357 0.949 . S
H382 C359 0.950 . S
H383 C361 0.950 . S
C384 C385 1.349 . S
C384 C386 1.327 . S
C384 H409 0.950 . S
C385 C384 1.349 . S
C385 C401 1.349 . S
C386 C384 1.327 . S
C386 C405 1.429 . S
C386 H410 0.950 . S
C387 C404 1.574 . S
C387 C406 1.368 . S
C387 H411 0.949 . S
H388 C392 0.949 . S
C389 C390 1.349 . S
C389 C391 1.327 . S
C389 H412 0.950 . S
C390 C389 1.349 . S
C390 C402 1.349 . S
C391 C389 1.327 . S
C391 C407 1.429 . S
C391 H413 0.950 . S
C392 H388 0.949 . S
C392 C400 1.574 . S
C392 C408 1.368 . S
H393 C401 0.950 . S
H394 C399 0.950 . S
H395 C400 0.949 . S
H396 C402 0.950 . S
H397 C403 0.950 . S
H398 C404 0.949 . S
C399 H394 0.950 . S
C399 C401 1.327 . S
C399 C405 1.429 . S
C400 C392 1.574 . S
C400 H395 0.949 . S
C400 C406 1.368 . S
C401 C385 1.349 . S
C401 H393 0.950 . S
C401 C399 1.327 . S
C402 C390 1.349 . S
C402 H396 0.950 . S
C402 C403 1.327 . S
C403 H397 0.950 . S
C403 C402 1.327 . S
C403 C407 1.429 . S
C404 C387 1.574 . S
C404 H398 0.949 . S
C404 C408 1.368 . S
C405 C386 1.429 . S
C405 C399 1.429 . S
C405 C406 1.523 . S
C406 C387 1.368 . S
C406 C400 1.368 . S
C406 C405 1.523 . S
C407 C391 1.429 . S
C407 C403 1.429 . S
C407 C408 1.523 . S
C408 C392 1.368 . S
C408 C404 1.368 . S
C408 C407 1.523 . S
H409 C384 0.950 . S
H410 C386 0.950 . S
H411 C387 0.949 . S
H412 C389 0.950 . S
H413 C391 0.950 . S
C414 C415 1.349 . S
C414 C416 1.327 . S
C414 H439 0.950 . S
C415 C414 1.349 . S
C415 C431 1.349 . S
C416 C414 1.327 . S
C416 C435 1.429 . S
C416 H440 0.950 . S
C417 C434 1.574 . S
C417 C436 1.368 . S
C417 H441 0.949 . S
H418 C422 0.949 . S
C419 C420 1.349 . S
C419 C421 1.327 . S
C419 H442 0.950 . S
C420 C419 1.349 . S
C420 C432 1.349 . S
C421 C419 1.327 . S
C421 C437 1.429 . S
C421 H443 0.950 . S
C422 H418 0.949 . S
C422 C430 1.574 . S
C422 C438 1.368 . S
H423 C431 0.950 . S
H424 C429 0.950 . S
H425 C430 0.949 . S
H426 C432 0.950 . S
H427 C433 0.950 . S
H428 C434 0.949 . S
C429 H424 0.950 . S
C429 C431 1.327 . S
C429 C435 1.429 . S
C430 C422 1.574 . S
C430 H425 0.949 . S
C430 C436 1.368 . S
C431 C415 1.349 . S
C431 H423 0.950 . S
C431 C429 1.327 . S
C432 C420 1.349 . S
C432 H426 0.950 . S
C432 C433 1.327 . S
C433 H427 0.950 . S
C433 C432 1.327 . S
C433 C437 1.429 . S
C434 C417 1.574 . S
C434 H428 0.949 . S
C434 C438 1.368 . S
C435 C416 1.429 . S
C435 C429 1.429 . S
C435 C436 1.523 . S
C436 C417 1.368 . S
C436 C430 1.368 . S
C436 C435 1.523 . S
C437 C421 1.429 . S
C437 C433 1.429 . S
C437 C438 1.523 . S
C438 C422 1.368 . S
C438 C434 1.368 . S
C438 C437 1.523 . S
H439 C414 0.950 . S
H440 C416 0.950 . S
H441 C417 0.949 . S
H442 C419 0.950 . S
H443 C421 0.950 . S
C444 C445 1.349 . S
C444 C446 1.327 . S
C444 H469 0.950 . S
C445 C444 1.349 . S
C445 C461 1.349 . S
C446 C444 1.327 . S
C446 C465 1.429 . S
C446 H470 0.950 . S
C447 C464 1.574 . S
C447 C466 1.368 . S
C447 H471 0.949 . S
H448 C452 0.949 . S
C449 C450 1.349 . S
C449 C451 1.327 . S
C449 H472 0.950 . S
C450 C449 1.349 . S
C450 C462 1.349 1_554 S
C451 C449 1.327 . S
C451 C467 1.429 1_554 S
C451 H473 0.950 . S
C452 H448 0.949 . S
C452 C460 1.574 . S
C452 C468 1.368 . S
H453 C461 0.950 . S
H454 C459 0.950 . S
H455 C460 0.949 . S
H456 C462 0.950 . S
H457 C463 0.950 . S
H458 C464 0.949 . S
C459 H454 0.950 . S
C459 C461 1.327 . S
C459 C465 1.429 . S
C460 C452 1.574 . S
C460 H455 0.949 . S
C460 C466 1.368 . S
C461 C445 1.349 . S
C461 H453 0.950 . S
C461 C459 1.327 . S
C462 C450 1.349 1_556 S
C462 H456 0.950 . S
C462 C463 1.327 . S
C463 H457 0.950 . S
C463 C462 1.327 . S
C463 C467 1.429 . S
C464 C447 1.574 . S
C464 H458 0.949 . S
C464 C468 1.368 . S
C465 C446 1.429 . S
C465 C459 1.429 . S
C465 C466 1.523 . S
C466 C447 1.368 . S
C466 C460 1.368 . S
C466 C465 1.523 . S
C467 C451 1.429 1_556 S
C467 C463 1.429 . S
C467 C468 1.523 . S
C468 C452 1.368 . S
C468 C464 1.368 . S
C468 C467 1.523 . S
H469 C444 0.950 . S
H470 C446 0.950 . S
H471 C447 0.949 . S
H472 C449 0.950 . S
H473 C451 0.950 . S
C474 C475 1.349 . S
C474 C476 1.327 . S
C474 H499 0.950 . S
C475 C474 1.349 . S
C475 C491 1.349 . S
C476 C474 1.327 . S
C476 C495 1.429 . S
C476 H500 0.950 . S
C477 C494 1.574 . S
C477 C496 1.368 . S
C477 H501 0.949 . S
H478 C482 0.949 . S
C479 C480 1.349 . S
C479 C481 1.327 . S
C479 H502 0.950 . S
C480 C479 1.349 . S
C480 C492 1.349 . S
C481 C479 1.327 . S
C481 C497 1.429 . S
C481 H503 0.950 . S
C482 H478 0.949 . S
C482 C490 1.574 . S
C482 C498 1.368 . S
H483 C491 0.950 . S
H484 C489 0.950 . S
H485 C490 0.949 . S
H486 C492 0.950 . S
H487 C493 0.950 . S
H488 C494 0.949 . S
C489 H484 0.950 . S
C489 C491 1.327 . S
C489 C495 1.429 . S
C490 C482 1.574 . S
C490 H485 0.949 . S
C490 C496 1.368 . S
C491 C475 1.349 . S
C491 H483 0.950 . S
C491 C489 1.327 . S
C492 C480 1.349 . S
C492 H486 0.950 . S
C492 C493 1.327 . S
C493 H487 0.950 . S
C493 C492 1.327 . S
C493 C497 1.429 . S
C494 C477 1.574 . S
C494 H488 0.949 . S
C494 C498 1.368 . S
C495 C476 1.429 . S
C495 C489 1.429 . S
C495 C496 1.523 . S
C496 C477 1.368 . S
C496 C490 1.368 . S
C496 C495 1.523 . S
C497 C481 1.429 . S
C497 C493 1.429 . S
C497 C498 1.523 . S
C498 C482 1.368 . S
C498 C494 1.368 . S
C498 C497 1.523 . S
H499 C474 0.950 . S
H500 C476 0.950 . S
H501 C477 0.949 . S
H502 C479 0.950 . S
H503 C481 0.950 . S
C504 C505 1.349 . S
C504 C506 1.327 . S
C504 H529 0.950 . S
C505 C504 1.349 . S
C505 C521 1.349 . S
C506 C504 1.327 . S
C506 C525 1.429 . S
C506 H530 0.950 . S
C507 C524 1.574 . S
C507 C526 1.368 . S
C507 H531 0.949 . S
H508 C512 0.949 . S
C509 C510 1.349 . S
C509 C511 1.327 . S
C509 H532 0.950 . S
C510 C509 1.349 . S
C510 C522 1.349 . S
C511 C509 1.327 . S
C511 C527 1.429 . S
C511 H533 0.950 . S
C512 H508 0.949 . S
C512 C520 1.574 . S
C512 C528 1.368 . S
H513 C521 0.950 . S
H514 C519 0.950 . S
H515 C520 0.949 . S
H516 C522 0.950 . S
H517 C523 0.950 . S
H518 C524 0.949 . S
C519 H514 0.950 . S
C519 C521 1.327 . S
C519 C525 1.429 . S
C520 C512 1.574 . S
C520 H515 0.949 . S
C520 C526 1.368 . S
C521 C505 1.349 . S
C521 H513 0.950 . S
C521 C519 1.327 . S
C522 C510 1.349 . S
C522 H516 0.950 . S
C522 C523 1.327 . S
C523 H517 0.950 . S
C523 C522 1.327 . S
C523 C527 1.429 . S
C524 C507 1.574 . S
C524 H518 0.949 . S
C524 C528 1.368 . S
C525 C506 1.429 . S
C525 C519 1.429 . S
C525 C526 1.523 . S
C526 C507 1.368 . S
C526 C520 1.368 . S
C526 C525 1.523 . S
C527 C511 1.429 . S
C527 C523 1.429 . S
C527 C528 1.523 . S
C528 C512 1.368 . S
C528 C524 1.368 . S
C528 C527 1.523 . S
H529 C504 0.950 . S
H530 C506 0.950 . S
H531 C507 0.949 . S
H532 C509 0.950 . S
H533 C511 0.950 . S
C534 C535 1.349 . S
C534 C536 1.327 . S
C534 H559 0.950 . S
C535 C534 1.349 . S
C535 C551 1.349 . S
C536 C534 1.327 . S
C536 C555 1.429 . S
C536 H560 0.950 . S
C537 C554 1.574 . S
C537 C556 1.368 . S
C537 H561 0.949 . S
H538 C542 0.949 . S
C539 C540 1.349 . S
C539 C541 1.327 . S
C539 H562 0.950 . S
C540 C539 1.349 . S
C540 C552 1.349 . S
C541 C539 1.327 . S
C541 C557 1.429 . S
C541 H563 0.950 . S
C542 H538 0.949 . S
C542 C550 1.574 . S
C542 C558 1.368 . S
H543 C551 0.950 . S
H544 C549 0.950 . S
H545 C550 0.949 . S
H546 C552 0.950 1_554 S
H547 C553 0.950 . S
H548 C554 0.949 . S
C549 H544 0.950 . S
C549 C551 1.327 . S
C549 C555 1.429 . S
C550 C542 1.574 . S
C550 H545 0.949 . S
C550 C556 1.368 . S
C551 C535 1.349 . S
C551 H543 0.950 . S
C551 C549 1.327 . S
C552 C540 1.349 . S
C552 H546 0.950 1_556 S
C552 C553 1.327 . S
C553 H547 0.950 . S
C553 C552 1.327 . S
C553 C557 1.429 . S
C554 C537 1.574 . S
C554 H548 0.949 . S
C554 C558 1.368 . S
C555 C536 1.429 . S
C555 C549 1.429 . S
C555 C556 1.523 . S
C556 C537 1.368 . S
C556 C550 1.368 . S
C556 C555 1.523 . S
C557 C541 1.429 . S
C557 C553 1.429 . S
C557 C558 1.523 . S
C558 C542 1.368 . S
C558 C554 1.368 . S
C558 C557 1.523 . S
H559 C534 0.950 . S
H560 C536 0.950 . S
H561 C537 0.949 . S
H562 C539 0.950 . S
H563 C541 0.950 . S
C564 C565 1.349 . S
C564 C566 1.327 . S
C564 H589 0.950 . S
C565 C564 1.349 . S
C565 C581 1.349 . S
C566 C564 1.327 . S
C566 C585 1.429 . S
C566 H590 0.950 . S
C567 C584 1.574 . S
C567 C586 1.368 . S
C567 H591 0.949 . S
H568 C572 0.949 . S
C569 C570 1.349 . S
C569 C571 1.327 . S
C569 H592 0.950 . S
C570 C569 1.349 . S
C570 C582 1.349 . S
C571 C569 1.327 . S
C571 C587 1.429 . S
C571 H593 0.950 . S
C572 H568 0.949 . S
C572 C580 1.574 . S
C572 C588 1.368 . S
H573 C581 0.950 . S
H574 C579 0.950 . S
H575 C580 0.949 . S
H576 C582 0.950 1_455 S
H577 C583 0.950 . S
H578 C584 0.949 . S
C579 H574 0.950 . S
C579 C581 1.327 . S
C579 C585 1.429 . S
C580 C572 1.574 . S
C580 H575 0.949 . S
C580 C586 1.368 . S
C581 C565 1.349 . S
C581 H573 0.950 . S
C581 C579 1.327 . S
C582 C570 1.349 . S
C582 H576 0.950 1_655 S
C582 C583 1.327 . S
C583 H577 0.950 . S
C583 C582 1.327 . S
C583 C587 1.429 . S
C584 C567 1.574 . S
C584 H578 0.949 . S
C584 C588 1.368 . S
C585 C566 1.429 . S
C585 C579 1.429 . S
C585 C586 1.523 . S
C586 C567 1.368 . S
C586 C580 1.368 . S
C586 C585 1.523 . S
C587 C571 1.429 . S
C587 C583 1.429 . S
C587 C588 1.523 . S
C588 C572 1.368 . S
C588 C584 1.368 . S
C588 C587 1.523 . S
H589 C564 0.950 . S
H590 C566 0.950 . S
H591 C567 0.949 . S
H592 C569 0.950 . S
H593 C571 0.950 . S
C594 C595 1.349 . S
C594 C596 1.327 . S
C594 H619 0.950 . S
C595 C594 1.349 . S
C595 C611 1.349 . S
C596 C594 1.327 . S
C596 C615 1.429 . S
C596 H620 0.950 . S
C597 C614 1.574 . S
C597 C616 1.368 . S
C597 H621 0.949 . S
H598 C602 0.949 . S
C599 C600 1.349 . S
C599 C601 1.327 . S
C599 H622 0.950 . S
C600 C599 1.349 . S
C600 C612 1.349 . S
C601 C599 1.327 . S
C601 C617 1.429 . S
C601 H623 0.950 . S
C602 H598 0.949 . S
C602 C610 1.574 . S
C602 C618 1.368 . S
H603 C611 0.950 . S
H604 C609 0.950 . S
H605 C610 0.949 . S
H606 C612 0.950 . S
H607 C613 0.950 . S
H608 C614 0.949 . S
C609 H604 0.950 . S
C609 C611 1.327 . S
C609 C615 1.429 . S
C610 C602 1.574 . S
C610 H605 0.949 . S
C610 C616 1.368 . S
C611 C595 1.349 . S
C611 H603 0.950 . S
C611 C609 1.327 . S
C612 C600 1.349 . S
C612 H606 0.950 . S
C612 C613 1.327 . S
C613 H607 0.950 . S
C613 C612 1.327 . S
C613 C617 1.429 . S
C614 C597 1.574 . S
C614 H608 0.949 . S
C614 C618 1.368 . S
C615 C596 1.429 . S
C615 C609 1.429 . S
C615 C616 1.523 . S
C616 C597 1.368 . S
C616 C610 1.368 . S
C616 C615 1.523 . S
C617 C601 1.429 . S
C617 C613 1.429 . S
C617 C618 1.523 . S
C618 C602 1.368 . S
C618 C614 1.368 . S
C618 C617 1.523 . S
H619 C594 0.950 . S
H620 C596 0.950 . S
H621 C597 0.949 . S
H622 C599 0.950 . S
H623 C601 0.950 . S
C624 C625 1.349 . S
C624 C626 1.327 . S
C624 H649 0.950 . S
C625 C624 1.349 . S
C625 C641 1.349 . S
C626 C624 1.327 . S
C626 C645 1.429 . S
C626 H650 0.950 . S
C627 C644 1.574 . S
C627 C646 1.368 . S
C627 H651 0.949 . S
H628 C632 0.949 . S
C629 C630 1.349 . S
C629 C631 1.327 . S
C629 H652 0.950 . S
C630 C629 1.349 . S
C630 C642 1.349 . S
C631 C629 1.327 . S
C631 C647 1.429 . S
C631 H653 0.950 . S
C632 H628 0.949 . S
C632 C640 1.574 . S
C632 C648 1.368 . S
H633 C641 0.950 . S
H634 C639 0.950 . S
H635 C640 0.949 . S
H636 C642 0.950 . S
H637 C643 0.950 . S
H638 C644 0.949 . S
C639 H634 0.950 . S
C639 C641 1.327 . S
C639 C645 1.429 . S
C640 C632 1.574 . S
C640 H635 0.949 . S
C640 C646 1.368 . S
C641 C625 1.349 . S
C641 H633 0.950 . S
C641 C639 1.327 . S
C642 C630 1.349 . S
C642 H636 0.950 . S
C642 C643 1.327 . S
C643 H637 0.950 . S
C643 C642 1.327 . S
C643 C647 1.429 . S
C644 C627 1.574 . S
C644 H638 0.949 . S
C644 C648 1.368 . S
C645 C626 1.429 . S
C645 C639 1.429 . S
C645 C646 1.523 . S
C646 C627 1.368 . S
C646 C640 1.368 . S
C646 C645 1.523 . S
C647 C631 1.429 . S
C647 C643 1.429 . S
C647 C648 1.523 . S
C648 C632 1.368 . S
C648 C644 1.368 . S
C648 C647 1.523 . S
H649 C624 0.950 . S
H650 C626 0.950 . S
H651 C627 0.949 . S
H652 C629 0.950 . S
H653 C631 0.950 . S
C654 C655 1.349 . S
C654 C656 1.327 . S
C654 H679 0.950 . S
C655 C654 1.349 . S
C655 C671 1.349 . S
C656 C654 1.327 . S
C656 C675 1.429 . S
C656 H680 0.950 . S
C657 C674 1.574 . S
C657 C676 1.368 . S
C657 H681 0.949 . S
H658 C662 0.949 . S
C659 C660 1.349 . S
C659 C661 1.327 . S
C659 H682 0.950 . S
C660 C659 1.349 . S
C660 C672 1.349 . S
C661 C659 1.327 . S
C661 C677 1.429 . S
C661 H683 0.950 . S
C662 H658 0.949 . S
C662 C670 1.574 . S
C662 C678 1.368 . S
H663 C671 0.950 . S
H664 C669 0.950 . S
H665 C670 0.949 . S
H666 C672 0.950 . S
H667 C673 0.950 . S
H668 C674 0.949 . S
C669 H664 0.950 . S
C669 C671 1.327 . S
C669 C675 1.429 . S
C670 C662 1.574 . S
C670 H665 0.949 . S
C670 C676 1.368 . S
C671 C655 1.349 . S
C671 H663 0.950 . S
C671 C669 1.327 . S
C672 C660 1.349 . S
C672 H666 0.950 . S
C672 C673 1.327 . S
C673 H667 0.950 . S
C673 C672 1.327 . S
C673 C677 1.429 . S
C674 C657 1.574 . S
C674 H668 0.949 . S
C674 C678 1.368 . S
C675 C656 1.429 . S
C675 C669 1.429 . S
C675 C676 1.523 . S
C676 C657 1.368 . S
C676 C670 1.368 . S
C676 C675 1.523 . S
C677 C661 1.429 . S
C677 C673 1.429 . S
C677 C678 1.523 . S
C678 C662 1.368 . S
C678 C674 1.368 . S
C678 C677 1.523 . S
H679 C654 0.950 . S
H680 C656 0.950 . S
H681 C657 0.949 . S
H682 C659 0.950 . S
H683 C661 0.950 . S
C684 C685 1.349 . S
C684 C686 1.327 . S
C684 H709 0.950 . S
C685 C684 1.349 . S
C685 C701 1.349 . S
C686 C684 1.327 . S
C686 C705 1.429 . S
C686 H710 0.950 . S
C687 C704 1.574 . S
C687 C706 1.368 . S
C687 H711 0.949 . S
H688 C692 0.949 . S
C689 C690 1.349 . S
C689 C691 1.327 . S
C689 H712 0.950 . S
C690 C689 1.349 . S
C690 C702 1.349 . S
C691 C689 1.327 . S
C691 C707 1.429 . S
C691 H713 0.950 . S
C692 H688 0.949 . S
C692 C700 1.574 . S
C692 C708 1.368 . S
H693 C701 0.950 . S
H694 C699 0.950 . S
H695 C700 0.949 . S
H696 C702 0.950 . S
H697 C703 0.950 . S
H698 C704 0.949 . S
C699 H694 0.950 . S
C699 C701 1.327 . S
C699 C705 1.429 . S
C700 C692 1.574 . S
C700 H695 0.949 . S
C700 C706 1.368 . S
C701 C685 1.349 . S
C701 H693 0.950 . S
C701 C699 1.327 . S
C702 C690 1.349 . S
C702 H696 0.950 . S
C702 C703 1.327 . S
C703 H697 0.950 . S
C703 C702 1.327 . S
C703 C707 1.429 . S
C704 C687 1.574 . S
C704 H698 0.949 . S
C704 C708 1.368 . S
C705 C686 1.429 . S
C705 C699 1.429 . S
C705 C706 1.523 . S
C706 C687 1.368 . S
C706 C700 1.368 . S
C706 C705 1.523 . S
C707 C691 1.429 . S
C707 C703 1.429 . S
C707 C708 1.523 . S
C708 C692 1.368 . S
C708 C704 1.368 . S
C708 C707 1.523 . S
H709 C684 0.950 . S
H710 C686 0.950 . S
H711 C687 0.949 . S
H712 C689 0.950 . S
H713 C691 0.950 . S
C714 C715 1.349 . S
C714 C716 1.327 . S
C714 H739 0.950 . S
C715 C714 1.349 . S
C715 C731 1.349 . S
C716 C714 1.327 . S
C716 C735 1.429 . S
C716 H740 0.950 . S
C717 C734 1.574 . S
C717 C736 1.368 . S
C717 H741 0.949 . S
H718 C722 0.949 . S
C719 C720 1.349 . S
C719 C721 1.327 . S
C719 H742 0.950 . S
C720 C719 1.349 . S
C720 C732 1.349 . S
C721 C719 1.327 . S
C721 C737 1.429 . S
C721 H743 0.950 . S
C722 H718 0.949 . S
C722 C730 1.574 . S
C722 C738 1.368 . S
H723 C731 0.950 . S
H724 C729 0.950 . S
H725 C730 0.949 . S
H726 C732 0.950 . S
H727 C733 0.950 . S
H728 C734 0.949 . S
C729 H724 0.950 . S
C729 C731 1.327 . S
C729 C735 1.429 . S
C730 C722 1.574 . S
C730 H725 0.949 . S
C730 C736 1.368 . S
C731 C715 1.349 . S
C731 H723 0.950 . S
C731 C729 1.327 . S
C732 C720 1.349 . S
C732 H726 0.950 . S
C732 C733 1.327 . S
C733 H727 0.950 . S
C733 C732 1.327 . S
C733 C737 1.429 . S
C734 C717 1.574 . S
C734 H728 0.949 . S
C734 C738 1.368 . S
C735 C716 1.429 . S
C735 C729 1.429 . S
C735 C736 1.523 . S
C736 C717 1.368 . S
C736 C730 1.368 . S
C736 C735 1.523 . S
C737 C721 1.429 . S
C737 C733 1.429 . S
C737 C738 1.523 . S
C738 C722 1.368 . S
C738 C734 1.368 . S
C738 C737 1.523 . S
H739 C714 0.950 . S
H740 C716 0.950 . S
H741 C717 0.949 . S
H742 C719 0.950 . S
H743 C721 0.950 . S
C744 C745 1.349 . S
C744 C746 1.327 . S
C744 H769 0.950 . S
C745 C744 1.349 . S
C745 C761 1.349 . S
C746 C744 1.327 . S
C746 C765 1.429 . S
C746 H770 0.950 . S
C747 C764 1.574 . S
C747 C766 1.368 . S
C747 H771 0.949 . S
H748 C752 0.949 . S
C749 C750 1.349 . S
C749 C751 1.327 . S
C749 H772 0.950 . S
C750 C749 1.349 . S
C750 C762 1.349 . S
C751 C749 1.327 . S
C751 C767 1.429 . S
C751 H773 0.950 . S
C752 H748 0.949 . S
C752 C760 1.574 . S
C752 C768 1.368 . S
H753 C761 0.950 . S
H754 C759 0.950 . S
H755 C760 0.949 . S
H756 C762 0.950 1_554 S
H757 C763 0.950 . S
H758 C764 0.949 . S
C759 H754 0.950 . S
C759 C761 1.327 . S
C759 C765 1.429 . S
C760 C752 1.574 . S
C760 H755 0.949 . S
C760 C766 1.368 . S
C761 C745 1.349 . S
C761 H753 0.950 . S
C761 C759 1.327 . S
C762 C750 1.349 . S
C762 H756 0.950 1_556 S
C762 C763 1.327 . S
C763 H757 0.950 . S
C763 C762 1.327 . S
C763 C767 1.429 . S
C764 C747 1.574 . S
C764 H758 0.949 . S
C764 C768 1.368 . S
C765 C746 1.429 . S
C765 C759 1.429 . S
C765 C766 1.523 . S
C766 C747 1.368 . S
C766 C760 1.368 . S
C766 C765 1.523 . S
C767 C751 1.429 . S
C767 C763 1.429 . S
C767 C768 1.523 . S
C768 C752 1.368 . S
C768 C764 1.368 . S
C768 C767 1.523 . S
H769 C744 0.950 . S
H770 C746 0.950 . S
H771 C747 0.949 . S
H772 C749 0.950 . S
H773 C751 0.950 . S
C774 C775 1.349 . S
C774 C776 1.327 . S
C774 H799 0.950 . S
C775 C774 1.349 . S
C775 C791 1.349 . S
C776 C774 1.327 . S
C776 C795 1.429 . S
C776 H800 0.950 . S
C777 C794 1.574 . S
C777 C796 1.368 . S
C777 H801 0.949 . S
H778 C782 0.949 . S
C779 C780 1.349 . S
C779 C781 1.327 . S
C779 H802 0.950 . S
C780 C779 1.349 . S
C780 C792 1.349 . S
C781 C779 1.327 . S
C781 C797 1.429 . S
C781 H803 0.950 . S
C782 H778 0.949 . S
C782 C790 1.574 . S
C782 C798 1.368 . S
H783 C791 0.950 . S
H784 C789 0.950 . S
H785 C790 0.949 . S
H786 C792 0.950 . S
H787 C793 0.950 . S
H788 C794 0.949 . S
C789 H784 0.950 . S
C789 C791 1.327 . S
C789 C795 1.429 . S
C790 C782 1.574 . S
C790 H785 0.949 . S
C790 C796 1.368 . S
C791 C775 1.349 . S
C791 H783 0.950 . S
C791 C789 1.327 . S
C792 C780 1.349 . S
C792 H786 0.950 . S
C792 C793 1.327 . S
C793 H787 0.950 . S
C793 C792 1.327 . S
C793 C797 1.429 . S
C794 C777 1.574 . S
C794 H788 0.949 . S
C794 C798 1.368 . S
C795 C776 1.429 . S
C795 C789 1.429 . S
C795 C796 1.523 . S
C796 C777 1.368 . S
C796 C790 1.368 . S
C796 C795 1.523 . S
C797 C781 1.429 . S
C797 C793 1.429 . S
C797 C798 1.523 . S
C798 C782 1.368 . S
C798 C794 1.368 . S
C798 C797 1.523 . S
H799 C774 0.950 . S
H800 C776 0.950 . S
H801 C777 0.949 . S
H802 C779 0.950 . S
H803 C781 0.950 . S
C804 C805 1.349 . S
C804 C806 1.327 . S
C804 H829 0.950 . S
C805 C804 1.349 . S
C805 C821 1.349 . S
C806 C804 1.327 . S
C806 C825 1.429 . S
C806 H830 0.950 . S
C807 C824 1.574 . S
C807 C826 1.368 . S
C807 H831 0.949 . S
H808 C812 0.949 . S
C809 C810 1.349 . S
C809 C811 1.327 . S
C809 H832 0.950 . S
C810 C809 1.349 . S
C810 C822 1.349 . S
C811 C809 1.327 . S
C811 C827 1.429 . S
C811 H833 0.950 . S
C812 H808 0.949 . S
C812 C820 1.574 . S
C812 C828 1.368 . S
H813 C821 0.950 . S
H814 C819 0.950 . S
H815 C820 0.949 . S
H816 C822 0.950 . S
H817 C823 0.950 . S
H818 C824 0.949 . S
C819 H814 0.950 . S
C819 C821 1.327 . S
C819 C825 1.429 . S
C820 C812 1.574 . S
C820 H815 0.949 . S
C820 C826 1.368 . S
C821 C805 1.349 . S
C821 H813 0.950 . S
C821 C819 1.327 . S
C822 C810 1.349 . S
C822 H816 0.950 . S
C822 C823 1.327 . S
C823 H817 0.950 . S
C823 C822 1.327 . S
C823 C827 1.429 . S
C824 C807 1.574 . S
C824 H818 0.949 . S
C824 C828 1.368 . S
C825 C806 1.429 . S
C825 C819 1.429 . S
C825 C826 1.523 . S
C826 C807 1.368 . S
C826 C820 1.368 . S
C826 C825 1.523 . S
C827 C811 1.429 . S
C827 C823 1.429 . S
C827 C828 1.523 . S
C828 C812 1.368 . S
C828 C824 1.368 . S
C828 C827 1.523 . S
H829 C804 0.950 . S
H830 C806 0.950 . S
H831 C807 0.949 . S
H832 C809 0.950 . S
H833 C811 0.950 . S
C834 C835 1.349 . S
C834 C836 1.327 . S
C834 H859 0.950 . S
C835 C834 1.349 . S
C835 C851 1.349 . S
C836 C834 1.327 . S
C836 C855 1.429 . S
C836 H860 0.950 . S
C837 C854 1.574 . S
C837 C856 1.368 . S
C837 H861 0.949 . S
H838 C842 0.949 . S
C839 C840 1.349 . S
C839 C841 1.327 . S
C839 H862 0.950 . S
C840 C839 1.349 . S
C840 C852 1.349 . S
C841 C839 1.327 . S
C841 C857 1.429 . S
C841 H863 0.950 . S
C842 H838 0.949 . S
C842 C850 1.574 . S
C842 C858 1.368 . S
H843 C851 0.950 . S
H844 C849 0.950 . S
H845 C850 0.949 . S
H846 C852 0.950 . S
H847 C853 0.950 . S
H848 C854 0.949 . S
C849 H844 0.950 . S
C849 C851 1.327 . S
C849 C855 1.429 . S
C850 C842 1.574 . S
C850 H845 0.949 . S
C850 C856 1.368 . S
C851 C835 1.349 . S
C851 H843 0.950 . S
C851 C849 1.327 . S
C852 C840 1.349 . S
C852 H846 0.950 . S
C852 C853 1.327 . S
C853 H847 0.950 . S
C853 C852 1.327 . S
C853 C857 1.429 . S
C854 C837 1.574 . S
C854 H848 0.949 . S
C854 C858 1.368 . S
C855 C836 1.429 . S
C855 C849 1.429 . S
C855 C856 1.523 . S
C856 C837 1.368 . S
C856 C850 1.368 . S
C856 C855 1.523 . S
C857 C841 1.429 . S
C857 C853 1.429 . S
C857 C858 1.523 . S
C858 C842 1.368 . S
C858 C854 1.368 . S
C858 C857 1.523 . S
H859 C834 0.950 . S
H860 C836 0.950 . S
H861 C837 0.949 . S
H862 C839 0.950 . S
H863 C841 0.950 . S
C864 C865 1.349 . S
C864 C866 1.327 . S
C864 H889 0.950 . S
C865 C864 1.349 . S
C865 C881 1.349 . S
C866 C864 1.327 . S
C866 C885 1.429 . S
C866 H890 0.950 . S
C867 C884 1.574 . S
C867 C886 1.368 . S
C867 H891 0.949 . S
H868 C872 0.949 . S
C869 C870 1.349 . S
C869 C871 1.327 . S
C869 H892 0.950 . S
C870 C869 1.349 . S
C870 C882 1.349 . S
C871 C869 1.327 . S
C871 C887 1.429 . S
C871 H893 0.950 . S
C872 H868 0.949 . S
C872 C880 1.574 . S
C872 C888 1.368 . S
H873 C881 0.950 . S
H874 C879 0.950 . S
H875 C880 0.949 . S
H876 C882 0.950 . S
H877 C883 0.950 . S
H878 C884 0.949 . S
C879 H874 0.950 . S
C879 C881 1.327 . S
C879 C885 1.429 . S
C880 C872 1.574 . S
C880 H875 0.949 . S
C880 C886 1.368 . S
C881 C865 1.349 . S
C881 H873 0.950 . S
C881 C879 1.327 . S
C882 C870 1.349 . S
C882 H876 0.950 . S
C882 C883 1.327 . S
C883 H877 0.950 . S
C883 C882 1.327 . S
C883 C887 1.429 . S
C884 C867 1.574 . S
C884 H878 0.949 . S
C884 C888 1.368 . S
C885 C866 1.429 . S
C885 C879 1.429 . S
C885 C886 1.523 . S
C886 C867 1.368 . S
C886 C880 1.368 . S
C886 C885 1.523 . S
C887 C871 1.429 . S
C887 C883 1.429 . S
C887 C888 1.523 . S
C888 C872 1.368 . S
C888 C884 1.368 . S
C888 C887 1.523 . S
H889 C864 0.950 . S
H890 C866 0.950 . S
H891 C867 0.949 . S
H892 C869 0.950 . S
H893 C871 0.950 . S
C894 C895 1.349 . S
C894 C896 1.327 . S
C894 H919 0.950 . S
C895 C894 1.349 . S
C895 C911 1.349 . S
C896 C894 1.327 . S
C896 C915 1.429 . S
C896 H920 0.950 . S
C897 C914 1.574 . S
C897 C916 1.368 . S
C897 H921 0.949 . S
H898 C902 0.949 . S
C899 C900 1.349 . S
C899 C901 1.327 . S
C899 H922 0.950 . S
C900 C899 1.349 . S
C900 C912 1.349 . S
C901 C899 1.327 . S
C901 C917 1.429 . S
C901 H923 0.950 . S
C902 H898 0.949 . S
C902 C910 1.574 . S
C902 C918 1.368 . S
H903 C911 0.950 . S
H904 C909 0.950 . S
H905 C910 0.949 . S
H906 C912 0.950 . S
H907 C913 0.950 . S
H908 C914 0.949 . S
C909 H904 0.950 . S
C909 C911 1.327 . S
C909 C915 1.429 . S
C910 C902 1.574 . S
C910 H905 0.949 . S
C910 C916 1.368 . S
C911 C895 1.349 . S
C911 H903 0.950 . S
C911 C909 1.327 . S
C912 C900 1.349 . S
C912 H906 0.950 . S
C912 C913 1.327 . S
C913 H907 0.950 . S
C913 C912 1.327 . S
C913 C917 1.429 . S
C914 C897 1.574 . S
C914 H908 0.949 . S
C914 C918 1.368 . S
C915 C896 1.429 . S
C915 C909 1.429 . S
C915 C916 1.523 . S
C916 C897 1.368 . S
C916 C910 1.368 . S
C916 C915 1.523 . S
C917 C901 1.429 . S
C917 C913 1.429 . S
C917 C918 1.523 . S
C918 C902 1.368 . S
C918 C914 1.368 . S
C918 C917 1.523 . S
H919 C894 0.950 . S
H920 C896 0.950 . S
H921 C897 0.949 . S
H922 C899 0.950 . S
H923 C901 0.950 . S
C924 C925 1.349 . S
C924 C926 1.327 . S
C924 H949 0.950 . S
C925 C924 1.349 . S
C925 C941 1.349 . S
C926 C924 1.327 . S
C926 C945 1.429 . S
C926 H950 0.950 . S
C927 C944 1.574 . S
C927 C946 1.368 . S
C927 H951 0.949 . S
H928 C932 0.949 . S
C929 C930 1.349 . S
C929 C931 1.327 . S
C929 H952 0.950 . S
C930 C929 1.349 . S
C930 C942 1.349 . S
C931 C929 1.327 . S
C931 C947 1.429 . S
C931 H953 0.950 . S
C932 H928 0.949 . S
C932 C940 1.574 . S
C932 C948 1.368 . S
H933 C941 0.950 . S
H934 C939 0.950 . S
H935 C940 0.949 . S
H936 C942 0.950 . S
H937 C943 0.950 . S
H938 C944 0.949 . S
C939 H934 0.950 . S
C939 C941 1.327 . S
C939 C945 1.429 . S
C940 C932 1.574 . S
C940 H935 0.949 . S
C940 C946 1.368 . S
C941 C925 1.349 . S
C941 H933 0.950 . S
C941 C939 1.327 . S
C942 C930 1.349 . S
C942 H936 0.950 . S
C942 C943 1.327 . S
C943 H937 0.950 . S
C943 C942 1.327 . S
C943 C947 1.429 . S
C944 C927 1.574 . S
C944 H938 0.949 . S
C944 C948 1.368 . S
C945 C926 1.429 . S
C945 C939 1.429 . S
C945 C946 1.523 . S
C946 C927 1.368 . S
C946 C940 1.368 . S
C946 C945 1.523 . S
C947 C931 1.429 . S
C947 C943 1.429 . S
C947 C948 1.523 . S
C948 C932 1.368 . S
C948 C944 1.368 . S
C948 C947 1.523 . S
H949 C924 0.950 . S
H950 C926 0.950 . S
H951 C927 0.949 . S
H952 C929 0.950 . S
H953 C931 0.950 . S
C954 C955 1.349 . S
C954 C956 1.327 . S
C954 H979 0.950 . S
C955 C954 1.349 . S
C955 C971 1.349 . S
C956 C954 1.327 . S
C956 C975 1.429 . S
C956 H980 0.950 . S
C957 C974 1.574 . S
C957 C976 1.368 . S
C957 H981 0.949 . S
H958 C962 0.949 . S
C959 C960 1.349 . S
C959 C961 1.327 . S
C959 H982 0.950 . S
C960 C959 1.349 . S
C960 C972 1.349 . S
C961 C959 1.327 . S
C961 C977 1.429 . S
C961 H983 0.950 . S
C962 H958 0.949 . S
C962 C970 1.574 . S
C962 C978 1.368 . S
H963 C971 0.950 . S
H964 C969 0.950 . S
H965 C970 0.949 . S
H966 C972 0.950 . S
H967 C973 0.950 . S
H968 C974 0.949 . S
C969 H964 0.950 . S
C969 C971 1.327 . S
C969 C975 1.429 . S
C970 C962 1.574 . S
C970 H965 0.949 . S
C970 C976 1.368 . S
C971 C955 1.349 . S
C971 H963 0.950 . S
C971 C969 1.327 . S
C972 C960 1.349 . S
C972 H966 0.950 . S
C972 C973 1.327 . S
C973 H967 0.950 . S
C973 C972 1.327 . S
C973 C977 1.429 . S
C974 C957 1.574 . S
C974 H968 0.949 . S
C974 C978 1.368 . S
C975 C956 1.429 . S
C975 C969 1.429 . S
C975 C976 1.523 . S
C976 C957 1.368 . S
C976 C970 1.368 . S
C976 C975 1.523 . S
C977 C961 1.429 . S
C977 C973 1.429 . S
C977 C978 1.523 . S
C978 C962 1.368 . S
C978 C974 1.368 . S
C978 C977 1.523 . S
H979 C954 0.950 . S
H980 C956 0.950 . S
H981 C957 0.949 . S
H982 C959 0.950 . S
H983 C961 0.950 . S
C265 C9 1.286 . S
C270 C108 1.313 . S
C295 C21 1.049 . S
C300 C169 1.073 . S
C330 C207 2.133 . S
C325 C30 2.134 . S
C355 C43 2.019 . S
C360 C247 2.095 1_655 S
C390 C167 1.101 . S
C385 C4 1.034 . S
C420 C135 2.608 . S
C415 C22 2.550 . S
C450 C244 1.254 . S
C445 C34 1.272 . S
C480 C204 1.640 . S
C475 C48 1.645 . S
C505 C8 1.059 . S
C510 C249 1.065 . S
C540 C164 2.350 . S
C535 C35 2.335 . S
C565 C47 2.353 . S
C570 C106 2.303 . S
C595 C17 1.189 . S
C600 C209 1.244 . S
C630 C129 0.727 . S
C625 C60 0.728 . S
C655 C74 1.249 . S
C660 C148 1.260 . S
C685 C82 1.895 . S
C690 C186 1.882 . S
C715 C100 2.710 . S
C720 C226 2.653 . S
C745 C61 1.630 . S
C750 C146 1.633 . S
C780 C124 1.925 . S
C775 C73 1.869 . S
C810 C255 1.859 . S
C805 C87 1.873 . S
C840 C215 1.459 . S
C835 C95 1.445 . S
C865 C56 0.980 . S
C870 C228 0.979 . S
C900 C175 2.547 . S
C895 C86 2.548 . S
C930 C127 2.164 . S
C925 C99 2.194 . S
C955 C69 1.077 . S
C960 C188 1.191 . S
