# Generated by pormake.
# Topology anh, (6,3)-cn, num edge types: 1
# Building blocks:
#     Node 0, Type 0, BuildingBlock: PAMTUU_clean_sbu_0, # of connection points: 6
#     Node 1, Type 0, BuildingBlock: PAMTUU_clean_sbu_0, # of connection points: 6
#     Node 2, Type 0, BuildingBlock: PAMTUU_clean_sbu_0, # of connection points: 6
#     Node 3, Type 1, BuildingBlock: BELTOD_clean_linker_0, # of connection points: 3
#     Node 4, Type 1, BuildingBlock: BELTOD_clean_linker_0, # of connection points: 3
#     Node 5, Type 1, BuildingBlock: BELTOD_clean_linker_0, # of connection points: 3
#     Node 6, Type 1, BuildingBlock: BELTOD_clean_linker_0, # of connection points: 3
#     Node 7, Type 1, BuildingBlock: BELTOD_clean_linker_0, # of connection points: 3
#     Node 8, Type 1, BuildingBlock: BELTOD_clean_linker_0, # of connection points: 3
#     Edge 9, Type (0, 1), BuildingBlock: TEMPAE_clean_linker_10, # of connection points: 2
#     Edge 10, Type (0, 1), BuildingBlock: TEMPAE_clean_linker_10, # of connection points: 2
#     Edge 11, Type (0, 1), BuildingBlock: TEMPAE_clean_linker_10, # of connection points: 2
#     Edge 12, Type (0, 1), BuildingBlock: TEMPAE_clean_linker_10, # of connection points: 2
#     Edge 13, Type (0, 1), BuildingBlock: TEMPAE_clean_linker_10, # of connection points: 2
#     Edge 14, Type (0, 1), BuildingBlock: TEMPAE_clean_linker_10, # of connection points: 2
#     Edge 15, Type (0, 1), BuildingBlock: TEMPAE_clean_linker_10, # of connection points: 2
#     Edge 16, Type (0, 1), BuildingBlock: TEMPAE_clean_linker_10, # of connection points: 2
#     Edge 17, Type (0, 1), BuildingBlock: TEMPAE_clean_linker_10, # of connection points: 2
#     Edge 18, Type (0, 1), BuildingBlock: TEMPAE_clean_linker_10, # of connection points: 2
#     Edge 19, Type (0, 1), BuildingBlock: TEMPAE_clean_linker_10, # of connection points: 2
#     Edge 20, Type (0, 1), BuildingBlock: TEMPAE_clean_linker_10, # of connection points: 2
#     Edge 21, Type (0, 1), BuildingBlock: TEMPAE_clean_linker_10, # of connection points: 2
#     Edge 22, Type (0, 1), BuildingBlock: TEMPAE_clean_linker_10, # of connection points: 2
#     Edge 23, Type (0, 1), BuildingBlock: TEMPAE_clean_linker_10, # of connection points: 2
#     Edge 24, Type (0, 1), BuildingBlock: TEMPAE_clean_linker_10, # of connection points: 2
#     Edge 25, Type (0, 1), BuildingBlock: TEMPAE_clean_linker_10, # of connection points: 2
#     Edge 26, Type (0, 1), BuildingBlock: TEMPAE_clean_linker_10, # of connection points: 2
# Relax obj value: 0.243
# Max RMSD: 0.183
# Mean RMSD: 0.148
data_MOF--net-anh--node1-PAMTUU_clean_sbu_0--node2-BELTOD_clean_linker_0--edge1-TEMPAE_clean_linker_10
_symmetry_space_group_name_H-M    P1
_symmetry_Int_Tables_number       1
_symmetry_cell_setting            triclinic
loop_
_symmetry_equiv_pos_as_xyz
'x, y, z'
_cell_length_a     35.268019
_cell_length_b     35.400581
_cell_length_c     62.252637
_cell_angle_alpha  93.18864
_cell_angle_beta   91.131077
_cell_angle_gamma 119.92873
loop_
_atom_site_label
_atom_site_type_symbol
_atom_site_fract_x
_atom_site_fract_y
_atom_site_fract_z
_atom_type_partial_charge
Tb0 Tb 1.05056 0.6055 0.1661 0.0
Tb1 Tb 0.0981 0.54838 0.16397 0.0
C2 C 0.07116 0.57358 0.12147 0.0
C3 C 0.95851 0.62254 0.16049 0.0
C4 C 0.87285 0.57191 0.14165 0.0
C5 C 0.90361 0.61024 0.13256 0.0
C6 C 0.94608 0.63539 0.14194 0.0
C7 C 0.92673 0.58596 0.17041 0.0
C8 C 0.88439 0.56092 0.16107 0.0
C9 C 1.0054 0.64227 0.16713 0.0
O10 O 0.99753 0.53884 0.17237 0.0
O11 O 1.02752 0.49815 0.15979 0.0
O12 O 0.072 0.54708 0.1952 0.0
O13 O 0.086 0.61641 0.19703 0.0
O14 O 0.10598 0.49743 0.15047 0.0
O15 O 0.14037 0.53288 0.1807 0.0
O16 O 0.15388 0.61711 0.16941 0.0
O17 O 0.11945 0.6566 0.16315 0.0
O18 O 1.04257 0.5791 0.13249 0.0
O19 O 0.10149 0.56875 0.1314 0.0
C20 C 0.99343 0.50031 0.16678 0.0
O21 O 1.01433 0.62715 0.18397 0.0
O22 O 1.03099 0.64574 0.15157 0.0
C23 C 0.08325 0.58336 0.20666 0.0
C24 C 0.17004 0.49513 0.16097 0.0
C25 C 0.22675 0.46334 0.15063 0.0
C26 C 0.21558 0.4654 0.172 0.0
C27 C 0.18748 0.4812 0.17711 0.0
C28 C 0.18343 0.4959 0.13982 0.0
C29 C 0.21179 0.48023 0.13471 0.0
C30 C 0.13325 0.50173 0.16618 0.0
C31 C 0.15572 0.65514 0.16708 0.0
H32 H 0.89533 0.61983 0.11776 0.0
H33 H 0.96991 0.66341 0.134 0.0
H34 H 0.93508 0.57497 0.18471 0.0
H35 H 0.86155 0.53143 0.16837 0.0
H36 H 0.22713 0.45308 0.1846 0.0
H37 H 0.17742 0.48025 0.19351 0.0
H38 H 0.17028 0.50642 0.12708 0.0
H39 H 0.21982 0.47883 0.11809 0.0
Tb40 Tb 0.53879 0.08294 0.49855 0.0
Tb41 Tb 0.64168 0.13679 0.49291 0.0
C42 C 0.57629 0.0991 0.45311 0.0
C43 C 0.44225 0.98532 0.51033 0.0
C44 C 0.41899 0.89677 0.5112 0.0
C45 C 0.45905 0.92989 0.52095 0.0
C46 C 0.47055 0.97372 0.52051 0.0
C47 C 0.40088 0.95232 0.5021 0.0
C48 C 0.38918 0.90837 0.50267 0.0
C49 C 0.45971 1.03046 0.50431 0.0
O50 O 0.55773 1.03256 0.49228 0.0
O51 O 0.63005 0.07261 0.50309 0.0
O52 O 0.63247 0.15505 0.52499 0.0
O53 O 0.57331 0.08912 0.52939 0.0
O54 O 0.69238 0.17499 0.47325 0.0
O55 O 0.70578 0.15496 0.50342 0.0
O56 O 0.62266 0.18826 0.49283 0.0
O57 O 0.55118 0.15088 0.50295 0.0
O58 O 0.54696 0.10106 0.46508 0.0
O59 O 0.61037 0.10019 0.46246 0.0
C60 C 0.59429 1.0341 0.49888 0.0
O61 O 0.48572 0.06147 0.51872 0.0
O62 O 0.47601 1.03706 0.48538 0.0
C63 C 0.60741 0.12543 0.53763 0.0
C64 C 0.7613 0.22252 0.49168 0.0
C65 C 0.84453 0.29853 0.49564 0.0
C66 C 0.8303 0.26961 0.51211 0.0
C67 C 0.78911 0.23182 0.5101 0.0
C68 C 0.77418 0.25319 0.47608 0.0
C69 C 0.8153 0.29086 0.47807 0.0
C70 C 0.7225 0.17869 0.48715 0.0
C71 C 0.5865 0.188 0.4988 0.0
H72 H 0.48295 0.92228 0.52747 0.0
H73 H 0.50294 0.99863 0.52676 0.0
H74 H 0.37877 0.96054 0.49401 0.0
H75 H 0.35771 0.88353 0.49538 0.0
H76 H 0.852 0.27493 0.52593 0.0
H77 H 0.78015 0.20877 0.5224 0.0
H78 H 0.75366 0.24686 0.46163 0.0
H79 H 0.82539 0.3121 0.46494 0.0
Tb80 Tb 0.53555 0.51158 0.82123 0.0
Tb81 Tb 0.58678 0.61595 0.83119 0.0
C82 C 0.56342 0.57217 0.78321 0.0
C83 C 0.52513 0.40718 0.82523 0.0
C84 C 0.58376 0.37588 0.83072 0.0
C85 C 0.5907 0.41387 0.8426 0.0
C86 C 0.56158 0.4292 0.83995 0.0
C87 C 0.51617 0.36757 0.81452 0.0
C88 C 0.54504 0.35174 0.81743 0.0
C89 C 0.5026 0.43018 0.81826 0.0
O90 O 0.60525 0.52943 0.81922 0.0
O91 O 0.63867 0.59845 0.83609 0.0
O92 O 0.55415 0.58657 0.86012 0.0
O93 O 0.56569 0.53024 0.85345 0.0
O94 O 0.60736 0.67808 0.82093 0.0
O95 O 0.62858 0.67031 0.85248 0.0
O96 O 0.51768 0.6006 0.82815 0.0
O97 O 0.4818 0.52548 0.82833 0.0
O98 O 0.53302 0.53534 0.79012 0.0
O99 O 0.59212 0.60418 0.79671 0.0
C100 C 0.64062 0.56374 0.82859 0.0
O101 O 0.49414 0.4511 0.83362 0.0
O102 O 0.52042 0.45441 0.80228 0.0
C103 C 0.5572 0.554 0.86698 0.0
C104 C 0.62623 0.73527 0.84784 0.0
C105 C 0.63251 0.8174 0.85405 0.0
C106 C 0.59293 0.78071 0.84591 0.0
C107 C 0.58983 0.73982 0.84275 0.0
C108 C 0.66373 0.77052 0.85829 0.0
C109 C 0.66688 0.81129 0.86142 0.0
C110 C 0.62937 0.69766 0.83908 0.0
C111 C 0.48102 0.56268 0.82927 0.0
H112 H 0.62024 0.43364 0.85277 0.0
H113 H 0.5694 0.46003 0.8483 0.0
H114 H 0.48835 0.35025 0.80303 0.0
H115 H 0.53818 0.32174 0.80842 0.0
H116 H 0.56566 0.78433 0.84041 0.0
H117 H 0.56031 0.71276 0.83488 0.0
H118 H 0.69208 0.76751 0.86236 0.0
H119 H 0.69791 0.8388 0.86762 0.0
P120 P 0.58917 0.07535 0.21479 0.0
H121 H 0.55832 1.00437 0.17929 0.0
H122 H 0.48833 0.93742 0.17035 0.0
H123 H 0.42602 0.9824 0.21577 0.0
H124 H 0.49617 0.04894 0.22475 0.0
H125 H 0.64584 0.16295 0.23839 0.0
H126 H 0.70677 0.23131 0.22911 0.0
H127 H 0.68732 0.18091 0.1627 0.0
H128 H 0.6241 0.11195 0.17219 0.0
H129 H 0.60132 1.03042 0.25044 0.0
H130 H 0.56057 0.12552 0.24324 0.0
O131 O 0.61903 0.05099 0.21167 0.0
H132 H 0.59304 1.03389 0.28913 0.0
H133 H 0.55176 0.12892 0.28224 0.0
C134 C 0.53387 1.03313 0.20277 0.0
C135 C 0.52954 1.00073 0.18699 0.0
C136 C 0.48885 0.96167 0.18191 0.0
C137 C 0.45029 0.95284 0.19245 0.0
C138 C 0.45434 0.98644 0.20747 0.0
C139 C 0.495 1.02554 0.21245 0.0
C140 C 0.62756 0.1313 0.20603 0.0
C141 C 0.65283 0.16639 0.22158 0.0
C142 C 0.68936 0.2061 0.21623 0.0
C143 C 0.70378 0.21299 0.19501 0.0
C144 C 0.67796 0.17821 0.17923 0.0
C145 C 0.641 0.13825 0.18465 0.0
C146 C 0.58262 0.0785 0.2438 0.0
C147 C 0.59073 0.05229 0.25714 0.0
C148 C 0.58554 0.05397 0.27939 0.0
C149 C 0.57182 0.08179 0.289 0.0
C150 C 0.56299 0.10756 0.27554 0.0
C151 C 0.56792 0.10559 0.25319 0.0
P152 P 0.60697 0.62282 0.5471 0.0
H153 H 0.63409 0.58805 0.50887 0.0
H154 H 0.62829 0.51696 0.49938 0.0
H155 H 0.53991 0.4612 0.55017 0.0
H156 H 0.54497 0.53168 0.55922 0.0
H157 H 0.58061 0.64639 0.50479 0.0
H158 H 0.575 0.71029 0.49494 0.0
H159 H 0.60352 0.76122 0.56136 0.0
H160 H 0.61018 0.69927 0.57074 0.0
H161 H 0.65168 0.60193 0.58046 0.0
H162 H 0.54281 0.62473 0.57709 0.0
O163 O 0.66123 0.64915 0.54528 0.0
H164 H 0.6422 0.59101 0.61857 0.0
H165 H 0.5356 0.61846 0.61576 0.0
C166 C 0.58975 0.5666 0.53477 0.0
C167 C 0.6121 0.56034 0.51755 0.0
C168 C 0.60909 0.51918 0.51223 0.0
C169 C 0.58419 0.48234 0.52414 0.0
C170 C 0.56026 0.48823 0.54071 0.0
C171 C 0.5627 0.52908 0.54576 0.0
C172 C 0.59313 0.66519 0.53895 0.0
C173 C 0.58439 0.67055 0.51738 0.0
C174 C 0.58177 0.70792 0.51169 0.0
C175 C 0.58797 0.74177 0.5273 0.0
C176 C 0.59702 0.73615 0.54871 0.0
C177 C 0.6003 0.69957 0.55424 0.0
C178 C 0.59915 0.6159 0.57589 0.0
C179 C 0.62632 0.60573 0.58807 0.0
C180 C 0.62099 0.59987 0.61014 0.0
C181 C 0.58871 0.6048 0.62097 0.0
C182 C 0.56076 0.61397 0.60844 0.0
C183 C 0.5653 0.61842 0.58616 0.0
P184 P 0.07225 0.5836 0.88198 0.0
H185 H 0.11689 0.59166 0.84055 0.0
H186 H 0.18138 0.58674 0.83064 0.0
H187 H 0.18302 0.53586 0.8918 0.0
H188 H 0.12055 0.54244 0.90172 0.0
H189 H 1.04028 0.61462 0.84598 0.0
H190 H 0.96972 0.60776 0.83613 0.0
H191 H 0.90824 0.51027 0.88196 0.0
H192 H 0.97937 0.51858 0.89218 0.0
H193 H 0.09174 0.64844 0.91855 0.0
H194 H 1.04171 0.50962 0.9102 0.0
O195 O 0.10023 0.63721 0.87901 0.0
H196 H 0.08831 0.6447 0.95731 0.0
H197 H 1.04019 0.50578 0.94938 0.0
C198 C 0.11156 0.56639 0.87182 0.0
C199 C 0.13018 0.57818 0.85165 0.0
C200 C 0.16789 0.5756 0.84601 0.0
C201 C 0.18919 0.56133 0.86035 0.0
C202 C 0.16935 0.54806 0.88019 0.0
C203 C 0.13201 0.55092 0.88582 0.0
C204 C 1.01653 0.5671 0.86991 0.0
C205 C 1.01162 0.5909 0.85366 0.0
C206 C 0.97045 0.58693 0.848 0.0
C207 C 0.9317 0.55873 0.85824 0.0
C208 C 0.93646 0.53332 0.8738 0.0
C209 C 0.97776 0.5375 0.87951 0.0
C210 C 1.06801 0.57947 0.91118 0.0
C211 C 0.08045 0.61702 0.92499 0.0
C212 C 0.07878 0.61488 0.94743 0.0
C213 C 1.06477 0.57507 0.95692 0.0
C214 C 1.05104 0.53714 0.94295 0.0
C215 C 1.05222 0.53929 0.92041 0.0
P216 P 0.26244 0.50771 0.39823 0.0
H217 H 0.27818 0.50113 0.44347 0.0
H218 H 0.32148 0.55699 0.47245 0.0
H219 H 0.38241 0.65202 0.42537 0.0
H220 H 0.33894 0.59613 0.39649 0.0
H221 H 0.18877 0.41844 0.40107 0.0
H222 H 0.12146 0.38989 0.42068 0.0
H223 H 0.1575 0.52161 0.44372 0.0
H224 H 0.22483 0.54963 0.42462 0.0
H225 H 0.24704 0.48081 0.35221 0.0
H226 H 0.25932 0.58829 0.39383 0.0
O227 O 0.27276 0.46797 0.39051 0.0
H228 H 0.22539 0.50797 0.32186 0.0
H229 H 0.23799 0.61589 0.36349 0.0
C230 C 0.30417 0.54508 0.41796 0.0
C231 C 0.30167 0.53376 0.43935 0.0
C232 C 0.32639 0.56558 0.4559 0.0
C233 C 0.3547 0.60886 0.45116 0.0
C234 C 0.36082 0.61884 0.42948 0.0
C235 C 0.33569 0.58704 0.41295 0.0
C236 C 0.21181 0.48604 0.41152 0.0
C237 C 0.18208 0.44106 0.41033 0.0
C238 C 0.14361 0.42488 0.42146 0.0
C239 C 0.1344 0.45357 0.43384 0.0
C240 C 0.16402 0.49868 0.43461 0.0
C241 C 0.20231 0.51473 0.42351 0.0
C242 C 0.25553 0.53286 0.37523 0.0
C243 C 0.24625 0.51091 0.35471 0.0
C244 C 0.23388 0.52653 0.33735 0.0
C245 C 0.23002 0.56416 0.34025 0.0
C246 C 0.24038 0.58668 0.36076 0.0
C247 C 0.2529 0.57108 0.37809 0.0
P248 P 0.84113 0.21378 0.74715 0.0
H249 H 0.88887 0.28688 0.78028 0.0
H250 H 0.86277 0.3241 0.80555 0.0
H251 H 0.73338 0.24973 0.77431 0.0
H252 H 0.75916 0.2135 0.74932 0.0
H253 H 0.8795 0.18319 0.77935 0.0
H254 H 0.84553 0.12407 0.80371 0.0
H255 H 0.7186 0.08258 0.77298 0.0
H256 H 0.75243 0.14089 0.74871 0.0
H257 H 0.81857 0.26329 0.71849 0.0
H258 H 0.80912 0.13685 0.7164 0.0
O259 O 0.89539 0.23686 0.74618 0.0
H260 H 0.77453 0.24225 0.68454 0.0
H261 H 0.76521 0.11573 0.68226 0.0
C262 C 0.82618 0.24821 0.76261 0.0
C263 C 0.85521 0.27956 0.77859 0.0
C264 C 0.84032 0.30046 0.79307 0.0
C265 C 0.79605 0.28911 0.79195 0.0
C266 C 0.76755 0.25852 0.77563 0.0
C267 C 0.78243 0.23821 0.76117 0.0
C268 C 0.81864 0.16569 0.76187 0.0
C269 C 0.84454 0.16064 0.77753 0.0
C270 C 0.82512 0.12722 0.79154 0.0
C271 C 0.77945 0.09924 0.79033 0.0
C272 C 0.75379 0.10413 0.77444 0.0
C273 C 0.77322 0.13706 0.76036 0.0
C274 C 0.81576 0.20106 0.72032 0.0
C275 C 0.80719 0.23106 0.71068 0.0
C276 C 0.78186 0.21896 0.69135 0.0
C277 C 0.7656 0.177 0.68108 0.0
C278 C 0.77699 0.14813 0.68996 0.0
C279 C 0.80201 0.16016 0.70945 0.0
P280 P 0.44392 0.27236 0.03771 0.0
H281 H 0.49281 0.25792 0.07147 0.0
H282 H 0.5677 0.30381 0.08713 0.0
H283 H 0.59655 0.39036 0.03598 0.0
H284 H 0.52221 0.34561 0.02085 0.0
H285 H 0.35293 0.2229 0.04968 0.0
H286 H 0.31213 0.2412 0.07559 0.0
H287 H 0.43314 0.35522 0.1001 0.0
H288 H 0.47323 0.33618 0.07493 0.0
H289 H 0.45047 0.26651 0.99103 0.0
H290 H 0.42191 0.34236 0.03776 0.0
O291 O 0.42442 0.2198 0.02989 0.0
H292 H 0.45639 0.31592 0.96363 0.0
H293 H 0.42675 0.39071 0.01056 0.0
C294 C 0.50159 0.29844 0.04516 0.0
C295 C 0.51567 0.28615 0.06334 0.0
C296 C 0.55843 0.3124 0.07227 0.0
C297 C 0.58765 0.35114 0.063 0.0
C298 C 0.5744 0.36125 0.04376 0.0
C299 C 0.53174 0.33528 0.03498 0.0
C300 C 0.41615 0.27765 0.0606 0.0
C301 C 0.37071 0.25079 0.06126 0.0
C302 C 0.34744 0.26161 0.0759 0.0
C303 C 0.3693 0.29991 0.08982 0.0
C304 C 0.41521 0.32509 0.08996 0.0
C305 C 0.43835 0.3141 0.07548 0.0
C306 C 0.43546 0.30035 0.01643 0.0
C307 C 0.44388 0.29271 -0.00479 0.0
C308 C 0.44728 0.32102 0.97959 0.0
C309 C 0.44243 0.35746 0.98504 0.0
C310 C 0.43127 0.3633 0.00597 0.0
C311 C 0.42811 0.33522 0.02154 0.0
C312 C 0.23515 0.39762 0.15168 0.0
C313 C 0.24987 0.43942 0.14461 0.0
C314 C 0.25388 0.37259 0.14473 0.0
C315 C 0.28836 0.38998 0.1305 0.0
C316 C 0.30434 0.43274 0.12386 0.0
C317 C 0.28463 0.45688 0.13088 0.0
C318 C 0.2356 0.32692 0.15191 0.0
C319 C 0.34149 0.45254 0.10889 0.0
C320 C 0.36075 0.33996 0.12224 0.0
C321 C 0.34457 0.31713 0.10195 0.0
C322 C 0.34209 0.363 0.13205 0.0
C323 C 0.306 0.36256 0.12148 0.0
C324 C 0.28788 0.33749 0.10164 0.0
C325 C 0.30756 0.31533 0.09205 0.0
C326 C 0.36227 0.38942 0.15322 0.0
C327 C 0.24893 0.33572 0.09003 0.0
H328 H 0.20779 0.3838 0.16205 0.0
H329 H 0.29615 0.4893 0.12552 0.0
H330 H 0.22008 0.30278 0.13781 0.0
H331 H 0.2623 0.32253 0.15876 0.0
H332 H 0.21078 0.31941 0.16415 0.0
H333 H 0.35196 0.48717 0.10642 0.0
H334 H 0.3701 0.45091 0.11542 0.0
H335 H 0.33121 0.43358 0.09299 0.0
H336 H 0.38893 0.34096 0.13014 0.0
H337 H 0.29518 0.29843 0.07624 0.0
H338 H 0.33682 0.38111 0.16514 0.0
H339 H 0.37673 0.42472 0.15084 0.0
H340 H 0.38834 0.38397 0.16005 0.0
H341 H 0.22188 0.3268 0.10107 0.0
H342 H 0.23655 0.3118 0.07571 0.0
H343 H 0.25826 0.36846 0.08465 0.0
C344 C 0.90394 0.37187 0.4861 0.0
C345 C 0.89148 0.33162 0.49453 0.0
C346 C 0.94652 0.398 0.4794 0.0
C347 C 0.97708 0.38335 0.48123 0.0
C348 C 0.96603 0.34513 0.49182 0.0
C349 C 0.92328 0.31966 0.49834 0.0
C350 C 0.9574 0.43905 0.46856 0.0
C351 C 0.99784 0.32862 0.49427 0.0
C352 C 1.054 0.40374 0.43623 0.0
C353 C 0.09402 0.4366 0.44592 0.0
C354 C 1.01561 0.38686 0.44749 0.0
C355 C 1.01731 0.40332 0.46897 0.0
C356 C 1.05743 0.43704 0.47876 0.0
C357 C 0.09543 0.45325 0.46711 0.0
C358 C 0.9733 0.35095 0.43646 0.0
C359 C 1.06038 0.4553 0.50162 0.0
H360 H 0.87964 0.38162 0.48351 0.0
H361 H 0.91394 0.28849 0.50472 0.0
H362 H 0.99079 0.46587 0.47382 0.0
H363 H 0.95675 0.43261 0.45087 0.0
H364 H 0.93354 0.45013 0.47198 0.0
H365 H 0.9869 0.30278 0.50582 0.0
H366 H 1.0008 0.31472 0.47839 0.0
H367 H 1.0309 0.35568 0.49983 0.0
H368 H 1.05267 0.39135 0.41974 0.0
H369 H 0.12643 0.47842 0.47473 0.0
H370 H 0.94812 0.361 0.43649 0.0
H371 H 0.96061 0.32107 0.44539 0.0
H372 H 0.97744 0.34259 0.41953 0.0
H373 H 1.03529 0.46518 0.50375 0.0
H374 H 0.0932 0.48398 0.50622 0.0
H375 H 1.05359 0.42971 0.51289 0.0
C376 C 0.63145 0.87055 0.82997 0.0
C377 C 0.64199 0.86226 0.85036 0.0
C378 C 0.65097 0.91314 0.82344 0.0
C379 C 0.68156 0.94831 0.83772 0.0
C380 C 0.68864 0.94073 0.85911 0.0
C381 C 0.66884 0.89762 0.86519 0.0
C382 C 0.64227 0.91982 0.80049 0.0
C383 C 0.71999 0.9776 0.87499 0.0
C384 C 0.77311 1.03493 0.80787 0.0
C385 C 0.75814 0.06437 0.80527 0.0
C386 C 0.74963 0.99814 0.81954 0.0
C387 C 0.7106 0.99109 0.82902 0.0
C388 C 0.69709 1.02241 0.82772 0.0
C389 C 0.72086 0.05857 0.81566 0.0
C390 C 0.76506 0.96536 0.8205 0.0
C391 C 0.65632 1.01657 0.83804 0.0
H392 H 0.61107 0.84351 0.81832 0.0
H393 H 0.67655 0.89141 0.88109 0.0
H394 H 0.63569 0.94729 0.8 0.0
H395 H 0.67172 0.9283 0.79124 0.0
H396 H 0.61401 0.89008 0.79231 0.0
H397 H 0.71476 0.96796 0.89183 0.0
H398 H 0.75412 0.98696 0.87136 0.0
H399 H 0.7165 1.00687 0.8737 0.0
H400 H 0.80188 1.03941 0.79979 0.0
H401 H 0.70971 0.08183 0.8139 0.0
H402 H 0.74102 0.93432 0.81135 0.0
H403 H 0.76721 0.95792 0.8374 0.0
H404 H 0.79759 0.97721 0.81362 0.0
H405 H 0.62695 0.99115 0.82837 0.0
H406 H 0.65496 0.04731 0.83905 0.0
H407 H 0.65454 1.00538 0.85448 0.0
C408 C 0.7919 0.52032 0.14116 0.0
C409 C 0.83039 0.54121 0.12999 0.0
C410 C 0.75225 0.48867 0.13052 0.0
C411 C 0.7512 0.47771 0.10822 0.0
C412 C 0.78986 0.49892 0.09683 0.0
C413 C 0.82901 0.53043 0.10786 0.0
C414 C 0.71155 0.4669 0.14314 0.0
C415 C 0.78995 0.48802 0.07303 0.0
C416 C 0.65723 0.36963 0.08383 0.0
C417 C 0.63008 0.38316 0.0743 0.0
C418 C 0.69689 0.40007 0.09496 0.0
C419 C 0.70938 0.44492 0.09663 0.0
C420 C 0.68199 0.45867 0.08713 0.0
C421 C 0.64269 0.42763 0.07611 0.0
C422 C 0.72546 0.38434 0.10489 0.0
C423 C 0.69409 0.50617 0.08869 0.0
H424 H 0.79282 0.52873 0.15825 0.0
H425 H 0.85886 0.54584 0.09925 0.0
H426 H 0.68596 0.47286 0.13619 0.0
H427 H 0.69805 0.43101 0.142 0.0
H428 H 0.718 0.47896 0.16043 0.0
H429 H 0.82288 0.50735 0.06658 0.0
H430 H 0.77889 0.45276 0.06997 0.0
H431 H 0.76657 0.49436 0.06394 0.0
H432 H 0.64762 0.3353 0.08241 0.0
H433 H 0.62134 0.43815 0.0692 0.0
H434 H 0.73069 0.39341 0.12249 0.0
H435 H 0.75815 0.40052 0.09797 0.0
H436 H 0.71097 0.34837 0.10222 0.0
H437 H 0.69795 0.51839 0.10585 0.0
H438 H 0.6691 0.51142 0.08038 0.0
H439 H 0.72601 0.52618 0.08147 0.0
C440 C 0.39419 0.82914 0.48704 0.0
C441 C 0.41105 0.85145 0.50734 0.0
C442 C 0.38972 0.78805 0.48206 0.0
C443 C 0.40248 0.76842 0.49774 0.0
C444 C 0.41932 0.79048 0.51835 0.0
C445 C 0.42352 0.83186 0.5229 0.0
C446 C 0.37157 0.76578 0.45983 0.0
C447 C 0.43397 0.77104 0.53536 0.0
C448 C 0.34241 0.64784 0.48229 0.0
C449 C 0.37168 0.6448 0.46836 0.0
C450 C 0.35407 0.68714 0.4943 0.0
C451 C 0.39595 0.72401 0.49228 0.0
C452 C 0.42743 0.71909 0.48051 0.0
C453 C 0.41473 0.67958 0.46847 0.0
C454 C 0.31974 0.69051 0.50702 0.0
C455 C 0.47304 0.75672 0.47868 0.0
H456 H 0.38566 0.84446 0.4747 0.0
H457 H 0.43687 0.84902 0.53859 0.0
H458 H 0.39579 0.75946 0.45169 0.0
H459 H 0.34146 0.73375 0.46109 0.0
H460 H 0.36339 0.78561 0.4495 0.0
H461 H 0.44063 0.78933 0.55137 0.0
H462 H 0.40892 0.73634 0.53685 0.0
H463 H 0.46447 0.77179 0.53061 0.0
H464 H 0.30902 0.62088 0.4823 0.0
H465 H 0.4376 0.67684 0.45801 0.0
H466 H 0.30604 0.70719 0.49767 0.0
H467 H 0.33426 0.71021 0.52253 0.0
H468 H 0.29239 0.65781 0.51037 0.0
H469 H 0.4715 0.77986 0.4679 0.0
H470 H 0.49525 0.7459 0.47185 0.0
H471 H 0.48713 0.77403 0.49471 0.0
C472 C 0.6284 0.35066 0.81051 0.0
C473 C 0.6192 0.36478 0.83017 0.0
C474 C 0.66338 0.34279 0.80904 0.0
C475 C 0.69047 0.34979 0.82767 0.0
C476 C 0.68189 0.36454 0.84757 0.0
C477 C 0.64617 0.37169 0.84861 0.0
C478 C 0.67119 0.32679 0.78746 0.0
C479 C 0.71075 0.37356 0.86763 0.0
C480 C 0.74098 0.27974 0.81829 0.0
C481 C 0.77806 0.30799 0.80756 0.0
C482 C 0.71454 0.29452 0.8276 0.0
C483 C 0.72562 0.33853 0.82601 0.0
C484 C 0.7663 0.36845 0.81788 0.0
C485 C 0.79217 0.35268 0.80857 0.0
C486 C 0.67197 0.26173 0.83658 0.0
C487 C 0.78007 0.41602 0.81682 0.0
H488 H 0.60882 0.34666 0.79602 0.0
H489 H 0.63946 0.38279 0.86388 0.0
H490 H 0.70454 0.35 0.78254 0.0
H491 H 0.66914 0.29467 0.78868 0.0
H492 H 0.64707 0.32309 0.77457 0.0
H493 H 0.69552 0.37759 0.88238 0.0
H494 H 0.7182 0.34692 0.86948 0.0
H495 H 0.74234 0.40416 0.86629 0.0
H496 H 0.73066 0.24524 0.81776 0.0
H497 H 0.82116 0.37452 0.80042 0.0
H498 H 0.64456 0.2531 0.82464 0.0
H499 H 0.6657 0.27575 0.85155 0.0
H500 H 0.67187 0.23126 0.8401 0.0
H501 H 0.76032 0.41934 0.80375 0.0
H502 H 0.81527 0.43612 0.81354 0.0
H503 H 0.77403 0.42913 0.83216 0.0
C504 C 0.62927 0.99018 0.51274 0.0
C505 C 0.59426 0.9913 0.50195 0.0
C506 C 0.62819 0.95003 0.51627 0.0
C507 C 0.59141 0.90888 0.50877 0.0
C508 C 0.55642 0.91015 0.49763 0.0
C509 C 0.5581 0.95054 0.49452 0.0
C510 C 0.66657 0.95171 0.52829 0.0
C511 C 0.51687 0.86856 0.4887 0.0
C512 C 0.60329 0.80428 0.50263 0.0
C513 C 0.58667 0.78327 0.52172 0.0
C514 C 0.60491 0.84434 0.49822 0.0
C515 C 0.58911 0.86496 0.51297 0.0
C516 C 0.57105 0.84321 0.53191 0.0
C517 C 0.57033 0.80355 0.53605 0.0
C518 C 0.62428 0.86505 0.47773 0.0
C519 C 0.55243 0.86206 0.54805 0.0
H520 H 0.65754 1.02085 0.51878 0.0
H521 H 0.53065 0.95003 0.4861 0.0
H522 H 0.65554 0.93421 0.54318 0.0
H523 H 0.68006 0.93476 0.51826 0.0
H524 H 0.69315 0.98575 0.53278 0.0
H525 H 0.49134 0.87418 0.48133 0.0
H526 H 0.52706 0.85237 0.47624 0.0
H527 H 0.50258 0.84625 0.50171 0.0
H528 H 0.61634 0.79003 0.49125 0.0
H529 H 0.55644 0.78816 0.55068 0.0
H530 H 0.65284 0.89823 0.48163 0.0
H531 H 0.59985 0.86887 0.46803 0.0
H532 H 0.63506 0.84548 0.46775 0.0
H533 H 0.57848 0.89496 0.55459 0.0
H534 H 0.53834 0.84112 0.56167 0.0
H535 H 0.52641 0.8661 0.54005 0.0
C536 C 0.68498 0.52374 0.82698 0.0
C537 C 0.68315 0.56221 0.83199 0.0
C538 C 0.72383 0.52144 0.83086 0.0
C539 C 0.76309 0.55851 0.83998 0.0
C540 C 0.76148 0.59747 0.84494 0.0
C541 C 0.72213 0.59879 0.84103 0.0
C542 C 0.72257 0.47882 0.82534 0.0
C543 C 0.80163 0.63817 0.85456 0.0
C544 C 0.85535 0.54574 0.86867 0.0
C545 C 0.88753 0.55695 0.85323 0.0
C546 C 0.81515 0.54536 0.86452 0.0
C547 C 0.80556 0.55678 0.84436 0.0
C548 C 0.83742 0.56754 0.82859 0.0
C549 C 0.87723 0.56738 0.8331 0.0
C550 C 0.78287 0.53301 0.88198 0.0
C551 C 0.82955 0.57956 0.80675 0.0
H552 H 0.65567 0.49489 0.82015 0.0
H553 H 0.722 0.62886 0.84515 0.0
H554 H 0.74966 0.48416 0.8149 0.0
H555 H 0.72739 0.46576 0.84031 0.0
H556 H 0.69105 0.45387 0.81698 0.0
H557 H 0.79579 0.66607 0.85738 0.0
H558 H 0.81224 0.63155 0.87011 0.0
H559 H 0.82903 0.64778 0.84368 0.0
H560 H 0.86178 0.53804 0.88443 0.0
H561 H 0.90025 0.57526 0.82055 0.0
H562 H 0.75085 0.50473 0.87596 0.0
H563 H 0.77726 0.56056 0.88641 0.0
H564 H 0.79428 0.52435 0.89669 0.0
H565 H 0.79877 0.55241 0.79881 0.0
H566 H 0.85683 0.58684 0.79604 0.0
H567 H 0.82541 0.60864 0.8086 0.0
C568 C 0.23906 0.69999 0.17671 0.0
C569 C 0.19972 0.69828 0.16996 0.0
C570 C 0.27961 0.74029 0.18021 0.0
C571 C 0.28213 0.78102 0.1769 0.0
C572 C 0.24261 0.77943 0.16993 0.0
C573 C 0.20254 0.73877 0.16665 0.0
C574 C 0.31996 0.73923 0.18768 0.0
C575 C 0.24251 0.82103 0.16599 0.0
C576 C 0.37727 0.89017 0.20474 0.0
C577 C 0.40694 0.90882 0.18833 0.0
C578 C 0.33745 0.84925 0.20133 0.0
C579 C 0.32554 0.82502 0.18089 0.0
C580 C 0.35518 0.84354 0.16424 0.0
C581 C 0.3949 0.88447 0.16811 0.0
C582 C 0.308 0.83175 0.21984 0.0
C583 C 0.34478 0.82008 0.1421 0.0
H584 H 0.23819 0.66965 0.17953 0.0
H585 H 0.17308 0.73888 0.16151 0.0
H586 H 0.34596 0.75482 0.17609 0.0
H587 H 0.33297 0.75833 0.20346 0.0
H588 H 0.31331 0.70542 0.18937 0.0
H589 H 0.20973 0.81481 0.16023 0.0
H590 H 0.25286 0.84271 0.18107 0.0
H591 H 0.26647 0.83893 0.15385 0.0
H592 H 0.38546 0.90722 0.22061 0.0
H593 H 0.41632 0.89769 0.15497 0.0
H594 H 0.3032 0.79922 0.22318 0.0
H595 H 0.27525 0.82722 0.21549 0.0
H596 H 0.32147 0.85381 0.2348 0.0
H597 H 0.34045 0.78698 0.14316 0.0
H598 H 0.37087 0.83799 0.13082 0.0
H599 H 0.31344 0.81576 0.13528 0.0
C600 C 0.62509 0.27229 0.50319 0.0
C601 C 0.58603 0.23129 0.50163 0.0
C602 C 0.62525 0.31265 0.50667 0.0
C603 C 0.58534 0.31341 0.50832 0.0
C604 C 0.54579 0.27215 0.50641 0.0
C605 C 0.54662 0.23223 0.50339 0.0
C606 C 0.66859 0.35476 0.50894 0.0
C607 C 0.50212 0.27007 0.50754 0.0
C608 C 0.58403 0.41402 0.53698 0.0
C609 C 0.58422 0.43887 0.51991 0.0
C610 C 0.58483 0.37418 0.5335 0.0
C611 C 0.58499 0.35689 0.51229 0.0
C612 C 0.58478 0.38154 0.49496 0.0
C613 C 0.58489 0.42181 0.49893 0.0
C614 C 0.58602 0.35069 0.55275 0.0
C615 C 0.584 0.36508 0.472 0.0
H616 H 0.65603 0.27294 0.50209 0.0
H617 H 0.51595 0.20147 0.50223 0.0
H618 H 0.67011 0.37636 0.49634 0.0
H619 H 0.6718 0.37239 0.52479 0.0
H620 H 0.69685 0.34925 0.5076 0.0
H621 H 0.47416 0.2361 0.50486 0.0
H622 H 0.49979 0.28397 0.52354 0.0
H623 H 0.49913 0.29014 0.49526 0.0
H624 H 0.58422 0.42625 0.55334 0.0
H625 H 0.58467 0.43963 0.48538 0.0
H626 H 0.61532 0.34673 0.55264 0.0
H627 H 0.55681 0.31745 0.55191 0.0
H628 H 0.58688 0.36836 0.56823 0.0
H629 H 0.61356 0.36226 0.46951 0.0
H630 H 0.58278 0.3869 0.46019 0.0
H631 H 0.55507 0.33192 0.46867 0.0
C632 C 0.3983 0.52309 0.83575 0.0
C633 C 0.43766 0.56213 0.83274 0.0
C634 C 0.35821 0.5224 0.83977 0.0
C635 C 0.35611 0.56165 0.84088 0.0
C636 C 0.39564 0.60111 0.8377 0.0
C637 C 0.43532 0.6009 0.83378 0.0
C638 C 0.31789 0.47931 0.84305 0.0
C639 C 0.3962 0.64404 0.8386 0.0
C640 C 0.24277 0.5561 0.83383 0.0
C641 C 0.23204 0.56135 0.85516 0.0
C642 C 0.2823 0.55618 0.82902 0.0
C643 C 0.31318 0.56155 0.84575 0.0
C644 C 0.30271 0.56693 0.86726 0.0
C645 C 0.26311 0.56692 0.87162 0.0
C646 C 0.29101 0.55033 0.80581 0.0
C647 C 0.33368 0.57294 0.8859 0.0
H648 H 0.39878 0.49269 0.83519 0.0
H649 H 0.46482 0.63156 0.83162 0.0
H650 H 0.3061 0.48043 0.85934 0.0
H651 H 0.29118 0.4732 0.83119 0.0
H652 H 0.32409 0.45147 0.84137 0.0
H653 H 0.42886 0.67184 0.83542 0.0
H654 H 0.37163 0.6423 0.82658 0.0
H655 H 0.38696 0.6507 0.85471 0.0
H656 H 0.21988 0.55124 0.82068 0.0
H657 H 0.25702 0.57209 0.8882 0.0
H658 H 0.29419 0.52078 0.80329 0.0
H659 H 0.32249 0.57868 0.80176 0.0
H660 H 0.26457 0.54701 0.79451 0.0
H661 H 0.33933 0.54476 0.88566 0.0
H662 H 0.32107 0.57603 0.90173 0.0
H663 H 0.3659 0.60267 0.88435 0.0
C664 C 0.91279 0.45907 0.1771 0.0
C665 C 0.9498 0.45813 0.16945 0.0
C666 C 0.87267 0.42018 0.18049 0.0
C667 C 0.86815 0.37808 0.17625 0.0
C668 C 0.90518 0.37692 0.16823 0.0
C669 C 0.94492 0.41631 0.165 0.0
C670 C 0.83502 0.42431 0.18893 0.0
C671 C 0.90303 0.3337 0.16323 0.0
C672 C 0.78123 0.2786 0.20543 0.0
C673 C 0.74592 0.25532 0.18989 0.0
C674 C 0.82021 0.31787 0.20127 0.0
C675 C 0.82569 0.3357 0.18087 0.0
C676 C 0.79046 0.31246 0.16501 0.0
C677 C 0.75166 0.27316 0.16962 0.0
C678 C 0.8559 0.3404 0.21893 0.0
C679 C 0.79366 0.32927 0.143 0.0
H680 H 0.9152 0.49052 0.18068 0.0
H681 H 0.97256 0.4142 0.15911 0.0
H682 H 0.8057 0.40592 0.1777 0.0
H683 H 0.82627 0.40972 0.20467 0.0
H684 H 0.84283 0.45887 0.19105 0.0
H685 H 0.93355 0.33765 0.1564 0.0
H686 H 0.89732 0.31619 0.17812 0.0
H687 H 0.87504 0.31277 0.15158 0.0
H688 H 0.77895 0.2658 0.22104 0.0
H689 H 0.7254 0.25678 0.15726 0.0
H690 H 0.86313 0.3745 0.22244 0.0
H691 H 0.88648 0.34206 0.21358 0.0
H692 H 0.84692 0.32338 0.23405 0.0
H693 H 0.79743 0.36237 0.14452 0.0
H694 H 0.76435 0.30759 0.13219 0.0
H695 H 0.82315 0.33234 0.13538 0.0
C696 C 1.04323 0.58606 0.08633 0.0
C697 C 1.06881 0.57218 0.09731 0.0
C698 C 1.04168 0.58594 0.06363 0.0
C699 C 1.06575 0.57098 0.05134 0.0
C700 C 0.09106 0.55628 0.06231 0.0
C701 C 0.09254 0.55736 0.08504 0.0
C702 C 1.01473 0.60251 0.05279 0.0
C703 C 0.11678 0.53946 0.05003 0.0
C704 C 1.03317 0.537 0.9911 0.0
C705 C 1.06498 0.57356 0.98117 0.0
C706 C 1.03317 0.53557 0.01376 0.0
C707 C 1.06537 0.57174 0.02711 0.0
C708 C 0.09746 0.60872 0.01726 0.0
C709 C 0.09712 0.60903 -0.00541 0.0
C710 C 0.99856 0.49522 0.02343 0.0
C711 C 0.13232 0.64821 0.03069 0.0
H712 H 1.02486 0.59776 0.09552 0.0
H713 H 0.11224 0.5463 0.09321 0.0
H714 H 1.03621 0.63091 0.04362 0.0
H715 H 0.99003 0.57679 0.04106 0.0
H716 H 0.99752 0.61263 0.0645 0.0
H717 H 0.13351 0.52764 0.06079 0.0
H718 H 0.09467 0.51226 0.03814 0.0
H719 H 0.14183 0.56575 0.04087 0.0
H720 H 1.00772 0.50952 0.98119 0.0
H721 H 0.1226 0.63718 0.98741 0.0
H722 H 0.97849 0.5038 0.03392 0.0
H723 H 1.0143 0.48172 0.03371 0.0
H724 H 0.97647 0.46937 0.01094 0.0
H725 H 0.11681 0.66094 0.04209 0.0
H726 H 0.15424 0.67491 0.02069 0.0
H727 H 0.15257 0.63885 0.04046 0.0
C728 C 0.60634 0.0981 0.41694 0.0
C729 C 0.57211 0.09607 0.42898 0.0
C730 C 0.60413 0.09598 0.39427 0.0
C731 C 0.56661 0.09146 0.38302 0.0
C732 C 0.53181 0.08929 0.395 0.0
C733 C 0.535 0.09175 0.41779 0.0
C734 C 0.64218 0.09864 0.38235 0.0
C735 C 0.49112 0.08426 0.38372 0.0
C736 C 0.58223 0.12436 0.32482 0.0
C737 C 0.56741 0.08406 0.31296 0.0
C738 C 0.58091 0.12712 0.34748 0.0
C739 C 0.56412 0.08867 0.35875 0.0
C740 C 0.54784 0.04779 0.34682 0.0
C741 C 0.54976 0.046 0.3242 0.0
C742 C 0.59892 0.17146 0.35944 0.0
C743 C 0.52937 1.00589 0.358 0.0
H744 H 0.63535 0.10163 0.42525 0.0
H745 H 0.50835 0.09017 0.42682 0.0
H746 H 0.63098 0.06855 0.37158 0.0
H747 H 0.65524 0.12659 0.37203 0.0
H748 H 0.66925 0.10269 0.39342 0.0
H749 H 0.46692 0.08301 0.39524 0.0
H750 H 0.49997 0.11195 0.37355 0.0
H751 H 0.47536 0.05387 0.37286 0.0
H752 H 0.59629 0.15406 0.31644 0.0
H753 H 0.53749 1.01458 0.31527 0.0
H754 H 0.62843 0.17901 0.36958 0.0
H755 H 0.57448 0.17147 0.37038 0.0
H756 H 0.60802 0.19786 0.34835 0.0
H757 H 0.55559 1.00615 0.36826 0.0
H758 H 0.51527 0.97652 0.34642 0.0
H759 H 0.50351 1.00313 0.36874 0.0
C760 C 0.55474 0.54095 0.74491 0.0
C761 C 0.56635 0.57719 0.75953 0.0
C762 C 0.55846 0.5453 0.72254 0.0
C763 C 0.57266 0.58662 0.71434 0.0
C764 C 0.58352 0.62315 0.72903 0.0
C765 C 0.58102 0.61816 0.7514 0.0
C766 C 0.54798 0.50572 0.7077 0.0
C767 C 0.5974 0.66751 0.72111 0.0
C768 C 0.62084 0.60963 0.65874 0.0
C769 C 0.58445 0.6004 0.64504 0.0
C770 C 0.61728 0.60461 0.68107 0.0
C771 C 0.57674 0.59171 0.69047 0.0
C772 C 0.54011 0.58338 0.67699 0.0
C773 C 0.54414 0.587 0.65456 0.0
C774 C 0.65706 0.61285 0.6946 0.0
C775 C 0.49646 0.57066 0.68627 0.0
H776 H 0.54377 0.50925 0.75105 0.0
H777 H 0.58974 0.64626 0.76254 0.0
H778 H 0.52075 0.49856 0.69596 0.0
H779 H 0.57686 0.51241 0.69833 0.0
H780 H 0.53857 0.47621 0.7166 0.0
H781 H 0.60253 0.69208 0.73443 0.0
H782 H 0.62831 0.67945 0.71268 0.0
H783 H 0.57216 0.66507 0.70928 0.0
H784 H 0.65262 0.62121 0.65216 0.0
H785 H 0.51527 0.57877 0.64453 0.0
H786 H 0.64928 0.58377 0.70353 0.0
H787 H 0.6666 0.64067 0.70672 0.0
H788 H 0.68558 0.6203 0.68475 0.0
H789 H 0.48334 0.5387 0.69336 0.0
H790 H 0.47191 0.56815 0.67396 0.0
H791 H 0.5006 0.59508 0.69945 0.0
C792 C 0.65876 0.17054 0.56863 0.0
C793 C 0.62261 0.13074 0.56051 0.0
C794 C 0.67809 0.17509 0.58915 0.0
C795 C 0.66063 0.13908 0.60207 0.0
C796 C 0.62284 0.09939 0.59444 0.0
C797 C 0.60427 0.09561 0.57366 0.0
C798 C 0.71834 0.21802 0.59666 0.0
C799 C 0.60302 0.06051 0.60791 0.0
C800 C 0.74392 0.14369 0.64315 0.0
C801 C 0.7362 0.16338 0.66138 0.0
C802 C 0.7181 0.13361 0.62395 0.0
C803 C 0.68351 0.14303 0.6231 0.0
C804 C 0.67422 0.16087 0.6418 0.0
C805 C 0.70088 0.17111 0.66069 0.0
C806 C 0.72928 0.11496 0.60427 0.0
C807 C 0.63727 0.17081 0.64163 0.0
H808 H 0.67298 0.19801 0.55866 0.0
H809 H 0.57636 0.06476 0.56749 0.0
H810 H 0.71307 0.23077 0.61231 0.0
H811 H 0.74667 0.21295 0.5992 0.0
H812 H 0.72698 0.24322 0.5849 0.0
H813 H 0.5713 1.03361 0.60059 0.0
H814 H 0.62597 0.04788 0.60971 0.0
H815 H 0.59771 0.07029 0.62432 0.0
H816 H 0.77124 0.13775 0.64365 0.0
H817 H 0.69437 0.18559 0.67492 0.0
H818 H 0.74162 0.13933 0.59198 0.0
H819 H 0.6996 0.08545 0.59699 0.0
H820 H 0.75467 0.10611 0.60806 0.0
H821 H 0.64536 0.19842 0.63151 0.0
H822 H 0.63111 0.17972 0.65806 0.0
H823 H 0.60664 0.14221 0.63444 0.0
C824 C 0.50881 0.53817 0.89785 0.0
C825 C 0.54479 0.53857 0.88853 0.0
C826 C 0.48989 0.51323 0.91547 0.0
C827 C 0.50789 0.48881 0.92388 0.0
C828 C 0.54636 0.49212 0.9155 0.0
C829 C 0.56416 0.51677 0.89783 0.0
C830 C 0.44892 0.5105 0.92401 0.0
C831 C 0.56704 0.46716 0.92417 0.0
C832 C 0.48069 0.43594 0.9768 0.0
C833 C 0.45365 0.39171 0.96972 0.0
C834 C 0.49637 0.46854 0.96218 0.0
C835 C 0.48483 0.45655 0.93997 0.0
C836 C 0.45553 0.41228 0.93287 0.0
C837 C 0.44039 0.38033 0.94784 0.0
C838 C 0.52762 0.51532 0.97036 0.0
C839 C 0.4422 0.39828 0.90929 0.0
H840 H 0.49353 0.55463 0.89042 0.0
H841 H 0.59209 0.51723 0.89057 0.0
H842 H 0.4203 0.47811 0.91875 0.0
H843 H 0.45093 0.51349 0.94189 0.0
H844 H 0.443 0.53623 0.91808 0.0
H845 H 0.5991 0.47662 0.91724 0.0
H846 H 0.57201 0.47278 0.94196 0.0
H847 H 0.54483 0.4316 0.92028 0.0
H848 H 0.49151 0.44495 0.99366 0.0
H849 H 0.41904 0.34627 0.94236 0.0
H850 H 0.51872 0.53781 0.96293 0.0
H851 H 0.56124 0.52459 0.96577 0.0
H852 H 0.52809 0.52021 0.98817 0.0
H853 H 0.43101 0.41927 0.9021 0.0
H854 H 0.41561 0.36363 0.90669 0.0
H855 H 0.4709 0.40221 0.90052 0.0
C856 C 0.13285 0.62837 0.23858 0.0
C857 C 0.09984 0.58792 0.22917 0.0
C858 C 0.15493 0.63098 0.25817 0.0
C859 C 0.14337 0.59227 0.26851 0.0
C860 C 0.10798 0.5519 0.25975 0.0
C861 C 0.08679 0.55023 0.24018 0.0
C862 C 0.19235 0.67463 0.26705 0.0
C863 C 0.0942 0.50989 0.27035 0.0
C864 C 0.22545 0.57659 0.30127 0.0
C865 C 0.21224 0.57776 0.32227 0.0
C866 C 0.20498 0.58393 0.28373 0.0
C867 C 0.1704 0.59261 0.28727 0.0
C868 C 0.15859 0.5963 0.30855 0.0
C869 C 0.17963 0.58878 0.32581 0.0
C870 C 0.21879 0.58001 0.26129 0.0
C871 C 0.12198 0.60558 0.31298 0.0
H872 H 0.14323 0.65754 0.23002 0.0
H873 H 1.06103 0.51894 0.23301 0.0
H874 H 0.19004 0.67964 0.28462 0.0
H875 H 0.22382 0.67539 0.26469 0.0
H876 H 0.19314 0.70218 0.25895 0.0
H877 H 1.06373 0.48202 0.2625 0.0
H878 H 0.12067 0.50164 0.2695 0.0
H879 H 0.08881 0.51381 0.28762 0.0
H880 H 0.25113 0.56883 0.29849 0.0
H881 H 0.16898 0.58942 0.34197 0.0
H882 H 0.22485 0.60872 0.25247 0.0
H883 H 0.19204 0.55054 0.25217 0.0
H884 H 0.24886 0.57732 0.26144 0.0
H885 H 0.12553 0.63312 0.30387 0.0
H886 H 0.12099 0.61357 0.3304 0.0
H887 H 0.09013 0.57645 0.30752 0.0
loop_
_geom_bond_atom_site_label_1
_geom_bond_atom_site_label_2
_geom_bond_distance
_geom_bond_site_symmetry_2
_ccdc_geom_bond_type
Tb0 C9 2.764 1_455 S
Tb0 O10 2.325 1_455 S
Tb0 O13 2.303 . S
Tb0 O17 2.322 . S
Tb0 O18 2.349 . S
Tb0 O21 2.415 1_455 S
Tb0 O22 2.399 1_455 S
Tb1 O11 2.322 . S
Tb1 O12 2.349 . S
Tb1 O14 2.415 . S
Tb1 O15 2.399 . S
Tb1 O16 2.325 . S
Tb1 O19 2.303 . S
Tb1 C30 2.764 . S
C2 O18 1.261 . S
C2 O19 1.257 . S
C3 C6 1.358 . S
C3 C7 1.332 . S
C3 C9 1.504 . S
C4 C5 1.373 . S
C4 C8 1.308 . S
C5 C4 1.373 . S
C5 C6 1.429 . S
C5 H32 0.932 . S
C6 C3 1.358 . S
C6 C5 1.429 . S
C6 H33 0.930 . S
C7 C3 1.332 . S
C7 C8 1.394 . S
C7 H34 0.932 . S
C8 C4 1.308 . S
C8 C7 1.394 . S
C8 H35 0.929 . S
C9 Tb0 2.764 1_655 S
C9 C3 1.504 . S
C9 O21 1.239 . S
C9 O22 1.263 . S
O10 Tb0 2.325 1_655 S
O10 C20 1.236 . S
O11 Tb1 2.322 . S
O11 C20 1.257 1_455 S
O12 Tb1 2.349 . S
O12 C23 1.261 . S
O13 Tb0 2.303 . S
O13 C23 1.257 . S
O14 Tb1 2.415 . S
O14 C30 1.239 . S
O15 Tb1 2.399 . S
O15 C30 1.263 . S
O16 Tb1 2.325 . S
O16 C31 1.236 . S
O17 Tb0 2.322 . S
O17 C31 1.257 . S
O18 Tb0 2.349 . S
O18 C2 1.261 . S
O19 Tb1 2.303 . S
O19 C2 1.257 . S
C20 O10 1.236 . S
C20 O11 1.257 1_655 S
O21 Tb0 2.415 1_655 S
O21 C9 1.239 . S
O22 Tb0 2.399 1_655 S
O22 C9 1.263 . S
C23 O12 1.261 . S
C23 O13 1.257 . S
C24 C27 1.358 . S
C24 C28 1.332 . S
C24 C30 1.504 . S
C25 C26 1.373 . S
C25 C29 1.308 . S
C26 C25 1.373 . S
C26 C27 1.429 . S
C26 H36 0.932 . S
C27 C24 1.358 . S
C27 C26 1.429 . S
C27 H37 0.930 . S
C28 C24 1.332 . S
C28 C29 1.394 . S
C28 H38 0.932 . S
C29 C25 1.308 . S
C29 C28 1.394 . S
C29 H39 0.929 . S
C30 Tb1 2.764 . S
C30 O14 1.239 . S
C30 O15 1.263 . S
C30 C24 1.504 . S
C31 O16 1.236 . S
C31 O17 1.257 . S
H32 C5 0.932 . S
H33 C6 0.930 . S
H34 C7 0.932 . S
H35 C8 0.929 . S
H36 C26 0.932 . S
H37 C27 0.930 . S
H38 C28 0.932 . S
H39 C29 0.929 . S
Tb40 C49 2.764 . S
Tb40 O50 2.325 . S
Tb40 O53 2.303 1_565 S
Tb40 O57 2.322 1_565 S
Tb40 O58 2.349 1_565 S
Tb40 O61 2.415 . S
Tb40 O62 2.399 . S
Tb41 O51 2.322 1_545 S
Tb41 O52 2.349 . S
Tb41 O54 2.415 . S
Tb41 O55 2.399 . S
Tb41 O56 2.325 . S
Tb41 O59 2.303 . S
Tb41 C70 2.764 . S
C42 O58 1.261 . S
C42 O59 1.257 . S
C43 C46 1.358 . S
C43 C47 1.332 . S
C43 C49 1.504 . S
C44 C45 1.373 . S
C44 C48 1.308 . S
C45 C44 1.373 . S
C45 C46 1.429 . S
C45 H72 0.932 . S
C46 C43 1.358 . S
C46 C45 1.429 . S
C46 H73 0.930 . S
C47 C43 1.332 . S
C47 C48 1.394 . S
C47 H74 0.932 . S
C48 C44 1.308 . S
C48 C47 1.394 . S
C48 H75 0.929 . S
C49 Tb40 2.764 . S
C49 C43 1.504 . S
C49 O61 1.239 . S
C49 O62 1.263 . S
O50 Tb40 2.325 . S
O50 C60 1.236 . S
O51 Tb41 2.322 1_565 S
O51 C60 1.257 . S
O52 Tb41 2.349 . S
O52 C63 1.261 . S
O53 Tb40 2.303 1_545 S
O53 C63 1.257 . S
O54 Tb41 2.415 . S
O54 C70 1.239 . S
O55 Tb41 2.399 . S
O55 C70 1.263 . S
O56 Tb41 2.325 . S
O56 C71 1.236 . S
O57 Tb40 2.322 1_545 S
O57 C71 1.257 . S
O58 Tb40 2.349 1_545 S
O58 C42 1.261 . S
O59 Tb41 2.303 . S
O59 C42 1.257 . S
C60 O50 1.236 . S
C60 O51 1.257 . S
O61 Tb40 2.415 . S
O61 C49 1.239 . S
O62 Tb40 2.399 . S
O62 C49 1.263 . S
C63 O52 1.261 . S
C63 O53 1.257 . S
C64 C67 1.358 . S
C64 C68 1.332 . S
C64 C70 1.504 . S
C65 C66 1.373 . S
C65 C69 1.308 . S
C66 C65 1.373 . S
C66 C67 1.429 . S
C66 H76 0.932 . S
C67 C64 1.358 . S
C67 C66 1.429 . S
C67 H77 0.930 . S
C68 C64 1.332 . S
C68 C69 1.394 . S
C68 H78 0.932 . S
C69 C65 1.308 . S
C69 C68 1.394 . S
C69 H79 0.929 . S
C70 Tb41 2.764 . S
C70 O54 1.239 . S
C70 O55 1.263 . S
C70 C64 1.504 . S
C71 O56 1.236 . S
C71 O57 1.257 . S
H72 C45 0.932 . S
H73 C46 0.930 . S
H74 C47 0.932 . S
H75 C48 0.929 . S
H76 C66 0.932 . S
H77 C67 0.930 . S
H78 C68 0.932 . S
H79 C69 0.929 . S
Tb80 C89 2.764 . S
Tb80 O90 2.325 . S
Tb80 O93 2.303 . S
Tb80 O97 2.322 . S
Tb80 O98 2.349 . S
Tb80 O101 2.415 . S
Tb80 O102 2.399 . S
Tb81 O91 2.322 . S
Tb81 O92 2.349 . S
Tb81 O94 2.415 . S
Tb81 O95 2.399 . S
Tb81 O96 2.325 . S
Tb81 O99 2.303 . S
Tb81 C110 2.764 . S
C82 O98 1.261 . S
C82 O99 1.257 . S
C83 C86 1.358 . S
C83 C87 1.332 . S
C83 C89 1.504 . S
C84 C85 1.373 . S
C84 C88 1.308 . S
C85 C84 1.373 . S
C85 C86 1.429 . S
C85 H112 0.932 . S
C86 C83 1.358 . S
C86 C85 1.429 . S
C86 H113 0.930 . S
C87 C83 1.332 . S
C87 C88 1.394 . S
C87 H114 0.932 . S
C88 C84 1.308 . S
C88 C87 1.394 . S
C88 H115 0.929 . S
C89 Tb80 2.764 . S
C89 C83 1.504 . S
C89 O101 1.239 . S
C89 O102 1.263 . S
O90 Tb80 2.325 . S
O90 C100 1.236 . S
O91 Tb81 2.322 . S
O91 C100 1.257 . S
O92 Tb81 2.349 . S
O92 C103 1.261 . S
O93 Tb80 2.303 . S
O93 C103 1.257 . S
O94 Tb81 2.415 . S
O94 C110 1.239 . S
O95 Tb81 2.399 . S
O95 C110 1.263 . S
O96 Tb81 2.325 . S
O96 C111 1.236 . S
O97 Tb80 2.322 . S
O97 C111 1.257 . S
O98 Tb80 2.349 . S
O98 C82 1.261 . S
O99 Tb81 2.303 . S
O99 C82 1.257 . S
C100 O90 1.236 . S
C100 O91 1.257 . S
O101 Tb80 2.415 . S
O101 C89 1.239 . S
O102 Tb80 2.399 . S
O102 C89 1.263 . S
C103 O92 1.261 . S
C103 O93 1.257 . S
C104 C107 1.358 . S
C104 C108 1.332 . S
C104 C110 1.504 . S
C105 C106 1.373 . S
C105 C109 1.308 . S
C106 C105 1.373 . S
C106 C107 1.429 . S
C106 H116 0.932 . S
C107 C104 1.358 . S
C107 C106 1.429 . S
C107 H117 0.930 . S
C108 C104 1.332 . S
C108 C109 1.394 . S
C108 H118 0.932 . S
C109 C105 1.308 . S
C109 C108 1.394 . S
C109 H119 0.929 . S
C110 Tb81 2.764 . S
C110 O94 1.239 . S
C110 O95 1.263 . S
C110 C104 1.504 . S
C111 O96 1.236 . S
C111 O97 1.257 . S
H112 C85 0.932 . S
H113 C86 0.930 . S
H114 C87 0.932 . S
H115 C88 0.929 . S
H116 C106 0.932 . S
H117 C107 0.930 . S
H118 C108 0.932 . S
H119 C109 0.929 . S
P120 O131 1.490 1_545 S
P120 C134 1.812 1_545 S
P120 C140 1.803 . S
P120 C146 1.819 . S
H121 C135 0.941 . S
H122 C136 0.939 . S
H123 C138 0.940 . S
H124 C139 0.940 . S
H125 C141 0.939 . S
H126 C142 0.942 . S
H127 C144 0.940 . S
H128 C145 0.939 . S
H129 C147 0.941 . S
H130 C151 0.939 . S
O131 P120 1.490 1_565 S
H132 C148 0.939 . S
H133 C150 0.940 . S
C134 P120 1.812 1_565 S
C134 C135 1.389 . S
C134 C139 1.391 . S
C135 H121 0.941 . S
C135 C134 1.389 . S
C135 C136 1.397 . S
C136 H122 0.939 . S
C136 C135 1.397 . S
C136 C137 1.378 . S
C137 C136 1.378 . S
C137 C138 1.378 . S
C138 H123 0.940 . S
C138 C137 1.378 . S
C138 C139 1.396 . S
C139 H124 0.940 . S
C139 C134 1.391 . S
C139 C138 1.396 . S
C140 P120 1.803 . S
C140 C141 1.378 . S
C140 C145 1.400 . S
C141 H125 0.939 . S
C141 C140 1.378 . S
C141 C142 1.361 . S
C142 H126 0.942 . S
C142 C141 1.361 . S
C142 C143 1.369 . S
C143 C142 1.369 . S
C143 C144 1.404 . S
C144 H127 0.940 . S
C144 C143 1.404 . S
C144 C145 1.389 . S
C145 H128 0.939 . S
C145 C140 1.400 . S
C145 C144 1.389 . S
C146 P120 1.819 . S
C146 C147 1.391 1_545 S
C146 C151 1.391 . S
C147 H129 0.941 . S
C147 C146 1.391 1_565 S
C147 C148 1.396 . S
C148 H132 0.939 . S
C148 C147 1.396 . S
C148 C149 1.397 1_565 S
C149 C148 1.397 1_545 S
C149 C150 1.385 . S
C150 H133 0.940 . S
C150 C149 1.385 . S
C150 C151 1.388 . S
C151 H130 0.939 . S
C151 C146 1.391 . S
C151 C150 1.388 . S
P152 O163 1.490 . S
P152 C166 1.812 . S
P152 C172 1.803 . S
P152 C178 1.819 . S
H153 C167 0.941 . S
H154 C168 0.939 . S
H155 C170 0.940 . S
H156 C171 0.940 . S
H157 C173 0.939 . S
H158 C174 0.942 . S
H159 C176 0.940 . S
H160 C177 0.939 . S
H161 C179 0.941 . S
H162 C183 0.939 . S
O163 P152 1.490 . S
H164 C180 0.939 . S
H165 C182 0.940 . S
C166 P152 1.812 . S
C166 C167 1.389 . S
C166 C171 1.391 . S
C167 H153 0.941 . S
C167 C166 1.389 . S
C167 C168 1.397 . S
C168 H154 0.939 . S
C168 C167 1.397 . S
C168 C169 1.378 . S
C169 C168 1.378 . S
C169 C170 1.378 . S
C170 H155 0.940 . S
C170 C169 1.378 . S
C170 C171 1.396 . S
C171 H156 0.940 . S
C171 C166 1.391 . S
C171 C170 1.396 . S
C172 P152 1.803 . S
C172 C173 1.378 . S
C172 C177 1.400 . S
C173 H157 0.939 . S
C173 C172 1.378 . S
C173 C174 1.361 . S
C174 H158 0.942 . S
C174 C173 1.361 . S
C174 C175 1.369 . S
C175 C174 1.369 . S
C175 C176 1.404 . S
C176 H159 0.940 . S
C176 C175 1.404 . S
C176 C177 1.389 . S
C177 H160 0.939 . S
C177 C172 1.400 . S
C177 C176 1.389 . S
C178 P152 1.819 . S
C178 C179 1.391 . S
C178 C183 1.391 . S
C179 H161 0.941 . S
C179 C178 1.391 . S
C179 C180 1.396 . S
C180 H164 0.939 . S
C180 C179 1.396 . S
C180 C181 1.397 . S
C181 C180 1.397 . S
C181 C182 1.385 . S
C182 H165 0.940 . S
C182 C181 1.385 . S
C182 C183 1.388 . S
C183 H162 0.939 . S
C183 C178 1.391 . S
C183 C182 1.388 . S
P184 O195 1.490 . S
P184 C198 1.812 . S
P184 C204 1.803 . S
P184 C210 1.819 . S
H185 C199 0.941 . S
H186 C200 0.939 . S
H187 C202 0.940 . S
H188 C203 0.940 . S
H189 C205 0.939 . S
H190 C206 0.942 . S
H191 C208 0.940 . S
H192 C209 0.939 . S
H193 C211 0.941 . S
H194 C215 0.939 . S
O195 P184 1.490 . S
H196 C212 0.939 . S
H197 C214 0.940 . S
C198 P184 1.812 . S
C198 C199 1.389 . S
C198 C203 1.391 . S
C199 H185 0.941 . S
C199 C198 1.389 . S
C199 C200 1.397 . S
C200 H186 0.939 . S
C200 C199 1.397 . S
C200 C201 1.378 . S
C201 C200 1.378 . S
C201 C202 1.378 . S
C202 H187 0.940 . S
C202 C201 1.378 . S
C202 C203 1.396 . S
C203 H188 0.940 . S
C203 C198 1.391 . S
C203 C202 1.396 . S
C204 P184 1.803 . S
C204 C205 1.378 . S
C204 C209 1.400 . S
C205 H189 0.939 . S
C205 C204 1.378 . S
C205 C206 1.361 1_455 S
C206 H190 0.942 . S
C206 C205 1.361 1_655 S
C206 C207 1.369 . S
C207 C206 1.369 . S
C207 C208 1.404 . S
C208 H191 0.940 . S
C208 C207 1.404 . S
C208 C209 1.389 1_655 S
C209 H192 0.939 . S
C209 C204 1.400 . S
C209 C208 1.389 1_455 S
C210 P184 1.819 . S
C210 C211 1.391 . S
C210 C215 1.391 . S
C211 H193 0.941 . S
C211 C210 1.391 . S
C211 C212 1.396 . S
C212 H196 0.939 . S
C212 C211 1.396 . S
C212 C213 1.397 . S
C213 C212 1.397 . S
C213 C214 1.385 . S
C214 H197 0.940 . S
C214 C213 1.385 . S
C214 C215 1.388 . S
C215 H194 0.939 . S
C215 C210 1.391 . S
C215 C214 1.388 . S
P216 O227 1.490 . S
P216 C230 1.812 . S
P216 C236 1.803 1_455 S
P216 C242 1.819 . S
H217 C231 0.941 . S
H218 C232 0.939 . S
H219 C234 0.940 . S
H220 C235 0.940 . S
H221 C237 0.939 . S
H222 C238 0.942 . S
H223 C240 0.940 . S
H224 C241 0.939 . S
H225 C243 0.941 . S
H226 C247 0.939 . S
O227 P216 1.490 . S
H228 C244 0.939 . S
H229 C246 0.940 . S
C230 P216 1.812 . S
C230 C231 1.389 . S
C230 C235 1.391 . S
C231 H217 0.941 . S
C231 C230 1.389 . S
C231 C232 1.397 . S
C232 H218 0.939 . S
C232 C231 1.397 . S
C232 C233 1.378 . S
C233 C232 1.378 . S
C233 C234 1.378 . S
C234 H219 0.940 . S
C234 C233 1.378 . S
C234 C235 1.396 . S
C235 H220 0.940 . S
C235 C230 1.391 . S
C235 C234 1.396 . S
C236 P216 1.803 1_655 S
C236 C237 1.378 . S
C236 C241 1.400 . S
C237 H221 0.939 . S
C237 C236 1.378 . S
C237 C238 1.361 . S
C238 H222 0.942 . S
C238 C237 1.361 . S
C238 C239 1.369 . S
C239 C238 1.369 . S
C239 C240 1.404 . S
C240 H223 0.940 . S
C240 C239 1.404 . S
C240 C241 1.389 . S
C241 H224 0.939 . S
C241 C236 1.400 . S
C241 C240 1.389 . S
C242 P216 1.819 . S
C242 C243 1.391 . S
C242 C247 1.391 1_455 S
C243 H225 0.941 . S
C243 C242 1.391 . S
C243 C244 1.396 . S
C244 H228 0.939 . S
C244 C243 1.396 . S
C244 C245 1.397 . S
C245 C244 1.397 . S
C245 C246 1.385 1_455 S
C246 H229 0.940 . S
C246 C245 1.385 1_655 S
C246 C247 1.388 . S
C247 H226 0.939 . S
C247 C242 1.391 1_655 S
C247 C246 1.388 . S
P248 O259 1.490 . S
P248 C262 1.812 . S
P248 C268 1.803 1_545 S
P248 C274 1.819 . S
H249 C263 0.941 . S
H250 C264 0.939 . S
H251 C266 0.940 . S
H252 C267 0.940 . S
H253 C269 0.939 . S
H254 C270 0.942 . S
H255 C272 0.940 . S
H256 C273 0.939 . S
H257 C275 0.941 . S
H258 C279 0.939 . S
O259 P248 1.490 . S
H260 C276 0.939 . S
H261 C278 0.940 . S
C262 P248 1.812 . S
C262 C263 1.389 . S
C262 C267 1.391 . S
C263 H249 0.941 . S
C263 C262 1.389 . S
C263 C264 1.397 . S
C264 H250 0.939 . S
C264 C263 1.397 . S
C264 C265 1.378 . S
C265 C264 1.378 . S
C265 C266 1.378 . S
C266 H251 0.940 . S
C266 C265 1.378 . S
C266 C267 1.396 . S
C267 H252 0.940 . S
C267 C262 1.391 . S
C267 C266 1.396 . S
C268 P248 1.803 1_565 S
C268 C269 1.378 . S
C268 C273 1.400 . S
C269 H253 0.939 . S
C269 C268 1.378 . S
C269 C270 1.361 . S
C270 H254 0.942 . S
C270 C269 1.361 . S
C270 C271 1.369 . S
C271 C270 1.369 . S
C271 C272 1.404 . S
C272 H255 0.940 . S
C272 C271 1.404 . S
C272 C273 1.389 . S
C273 H256 0.939 . S
C273 C268 1.400 . S
C273 C272 1.389 . S
C274 P248 1.819 . S
C274 C275 1.391 . S
C274 C279 1.391 1_545 S
C275 H257 0.941 . S
C275 C274 1.391 . S
C275 C276 1.396 . S
C276 H260 0.939 . S
C276 C275 1.396 . S
C276 C277 1.394 1_545 S
C277 C276 1.394 1_565 S
C277 C278 1.389 . S
C278 H261 0.940 . S
C278 C277 1.389 . S
C278 C279 1.388 . S
C279 H258 0.939 . S
C279 C274 1.391 1_565 S
C279 C278 1.388 . S
P280 O291 1.490 . S
P280 C294 1.812 . S
P280 C300 1.803 . S
P280 C306 1.819 . S
H281 C295 0.941 . S
H282 C296 0.939 . S
H283 C298 0.940 . S
H284 C299 0.940 . S
H285 C301 0.939 . S
H286 C302 0.942 . S
H287 C304 0.940 . S
H288 C305 0.939 . S
H289 C307 0.941 . S
H290 C311 0.939 . S
O291 P280 1.490 . S
H292 C308 0.939 . S
H293 C310 0.940 . S
C294 P280 1.812 . S
C294 C295 1.389 . S
C294 C299 1.391 . S
C295 H281 0.941 . S
C295 C294 1.389 . S
C295 C296 1.397 . S
C296 H282 0.939 . S
C296 C295 1.397 . S
C296 C297 1.378 . S
C297 C296 1.378 . S
C297 C298 1.378 . S
C298 H283 0.940 . S
C298 C297 1.378 . S
C298 C299 1.396 . S
C299 H284 0.940 . S
C299 C294 1.391 . S
C299 C298 1.396 . S
C300 P280 1.803 . S
C300 C301 1.378 . S
C300 C305 1.400 . S
C301 H285 0.939 . S
C301 C300 1.378 . S
C301 C302 1.361 . S
C302 H286 0.942 . S
C302 C301 1.361 . S
C302 C303 1.369 . S
C303 C302 1.369 . S
C303 C304 1.404 . S
C304 H287 0.940 . S
C304 C303 1.404 . S
C304 C305 1.389 . S
C305 H288 0.939 . S
C305 C300 1.400 . S
C305 C304 1.389 . S
C306 P280 1.819 . S
C306 C307 1.391 . S
C306 C311 1.391 . S
C307 H289 0.941 . S
C307 C306 1.391 . S
C307 C308 1.396 . S
C308 H292 0.939 . S
C308 C307 1.396 . S
C308 C309 1.397 . S
C309 C308 1.397 . S
C309 C310 1.385 . S
C310 H293 0.940 . S
C310 C309 1.385 . S
C310 C311 1.388 . S
C311 H290 0.939 . S
C311 C306 1.391 . S
C311 C310 1.388 . S
C312 C313 1.391 . S
C312 C314 1.394 . S
C312 H328 0.931 . S
C313 C312 1.391 . S
C313 C317 1.376 . S
C314 C312 1.394 . S
C314 C315 1.369 . S
C314 C318 1.531 . S
C315 C314 1.369 . S
C315 C316 1.410 . S
C315 C323 1.503 . S
C316 C315 1.410 . S
C316 C317 1.392 . S
C316 C319 1.511 . S
C317 C313 1.376 . S
C317 C316 1.392 . S
C317 H329 0.929 . S
C318 C314 1.531 . S
C318 H330 0.960 . S
C318 H331 0.962 . S
C318 H332 0.960 . S
C319 C316 1.511 . S
C319 H333 0.961 . S
C319 H334 0.961 . S
C319 H335 0.961 . S
C320 C321 1.370 . S
C320 C322 1.363 . S
C320 H336 0.931 . S
C321 C320 1.370 . S
C321 C325 1.408 . S
C322 C320 1.363 . S
C322 C323 1.370 . S
C322 C326 1.524 . S
C323 C315 1.503 . S
C323 C322 1.370 . S
C323 C324 1.403 . S
C324 C323 1.403 . S
C324 C325 1.404 . S
C324 C327 1.539 . S
C325 C321 1.408 . S
C325 C324 1.404 . S
C325 H337 0.930 . S
C326 C322 1.524 . S
C326 H338 0.956 . S
C326 H339 0.961 . S
C326 H340 0.961 . S
C327 C324 1.539 . S
C327 H341 0.958 . S
C327 H342 0.961 . S
C327 H343 0.960 . S
H328 C312 0.931 . S
H329 C317 0.929 . S
H330 C318 0.960 . S
H331 C318 0.962 . S
H332 C318 0.960 . S
H333 C319 0.961 . S
H334 C319 0.961 . S
H335 C319 0.961 . S
H336 C320 0.931 . S
H337 C325 0.930 . S
H338 C326 0.956 . S
H339 C326 0.961 . S
H340 C326 0.961 . S
H341 C327 0.958 . S
H342 C327 0.961 . S
H343 C327 0.960 . S
C344 C345 1.391 . S
C344 C346 1.394 . S
C344 H360 0.931 . S
C345 C344 1.391 . S
C345 C349 1.376 . S
C346 C344 1.394 . S
C346 C347 1.369 . S
C346 C350 1.531 . S
C347 C346 1.369 . S
C347 C348 1.410 . S
C347 C355 1.503 . S
C348 C347 1.410 . S
C348 C349 1.392 . S
C348 C351 1.511 . S
C349 C345 1.376 . S
C349 C348 1.392 . S
C349 H361 0.929 . S
C350 C346 1.531 . S
C350 H362 0.960 . S
C350 H363 0.962 . S
C350 H364 0.960 . S
C351 C348 1.511 . S
C351 H365 0.961 . S
C351 H366 0.961 . S
C351 H367 0.961 . S
C352 C353 1.370 . S
C352 C354 1.363 . S
C352 H368 0.931 . S
C353 C352 1.370 . S
C353 C357 1.408 . S
C354 C352 1.363 . S
C354 C355 1.370 . S
C354 C358 1.524 . S
C355 C347 1.503 . S
C355 C354 1.370 . S
C355 C356 1.403 . S
C356 C355 1.403 . S
C356 C357 1.404 . S
C356 C359 1.539 . S
C357 C353 1.408 . S
C357 C356 1.404 . S
C357 H369 0.930 . S
C358 C354 1.524 . S
C358 H370 0.956 . S
C358 H371 0.961 . S
C358 H372 0.961 . S
C359 C356 1.539 . S
C359 H373 0.958 . S
C359 H374 0.961 . S
C359 H375 0.960 . S
H360 C344 0.931 . S
H361 C349 0.929 . S
H362 C350 0.960 . S
H363 C350 0.962 . S
H364 C350 0.960 . S
H365 C351 0.961 . S
H366 C351 0.961 . S
H367 C351 0.961 . S
H368 C352 0.931 . S
H369 C357 0.930 . S
H370 C358 0.956 . S
H371 C358 0.961 . S
H372 C358 0.961 . S
H373 C359 0.958 . S
H374 C359 0.961 . S
H375 C359 0.960 . S
C376 C377 1.391 . S
C376 C378 1.394 . S
C376 H392 0.931 . S
C377 C376 1.391 . S
C377 C381 1.376 . S
C378 C376 1.394 . S
C378 C379 1.369 . S
C378 C382 1.531 . S
C379 C378 1.369 . S
C379 C380 1.410 . S
C379 C387 1.503 . S
C380 C379 1.410 . S
C380 C381 1.392 . S
C380 C383 1.511 . S
C381 C377 1.376 . S
C381 C380 1.392 . S
C381 H393 0.929 . S
C382 C378 1.531 . S
C382 H394 0.960 . S
C382 H395 0.962 . S
C382 H396 0.960 . S
C383 C380 1.511 . S
C383 H397 0.961 . S
C383 H398 0.961 . S
C383 H399 0.961 . S
C384 C385 1.370 . S
C384 C386 1.363 . S
C384 H400 0.931 . S
C385 C384 1.370 . S
C385 C389 1.408 . S
C386 C384 1.363 . S
C386 C387 1.370 . S
C386 C390 1.524 . S
C387 C379 1.503 . S
C387 C386 1.370 . S
C387 C388 1.403 . S
C388 C387 1.403 . S
C388 C389 1.404 . S
C388 C391 1.539 . S
C389 C385 1.408 . S
C389 C388 1.404 . S
C389 H401 0.930 . S
C390 C386 1.524 . S
C390 H402 0.956 . S
C390 H403 0.961 . S
C390 H404 0.961 . S
C391 C388 1.539 . S
C391 H405 0.958 . S
C391 H406 0.961 . S
C391 H407 0.960 . S
H392 C376 0.931 . S
H393 C381 0.929 . S
H394 C382 0.960 . S
H395 C382 0.962 . S
H396 C382 0.960 . S
H397 C383 0.961 . S
H398 C383 0.961 . S
H399 C383 0.961 . S
H400 C384 0.931 . S
H401 C389 0.930 . S
H402 C390 0.956 . S
H403 C390 0.961 . S
H404 C390 0.961 . S
H405 C391 0.958 . S
H406 C391 0.961 . S
H407 C391 0.960 . S
C408 C409 1.391 . S
C408 C410 1.394 . S
C408 H424 0.931 . S
C409 C408 1.391 . S
C409 C413 1.376 . S
C410 C408 1.394 . S
C410 C411 1.369 . S
C410 C414 1.531 . S
C411 C410 1.369 . S
C411 C412 1.410 . S
C411 C419 1.503 . S
C412 C411 1.410 . S
C412 C413 1.392 . S
C412 C415 1.511 . S
C413 C409 1.376 . S
C413 C412 1.392 . S
C413 H425 0.929 . S
C414 C410 1.531 . S
C414 H426 0.960 . S
C414 H427 0.962 . S
C414 H428 0.960 . S
C415 C412 1.511 . S
C415 H429 0.961 . S
C415 H430 0.961 . S
C415 H431 0.961 . S
C416 C417 1.370 . S
C416 C418 1.363 . S
C416 H432 0.931 . S
C417 C416 1.370 . S
C417 C421 1.408 . S
C418 C416 1.363 . S
C418 C419 1.370 . S
C418 C422 1.524 . S
C419 C411 1.503 . S
C419 C418 1.370 . S
C419 C420 1.403 . S
C420 C419 1.403 . S
C420 C421 1.404 . S
C420 C423 1.539 . S
C421 C417 1.408 . S
C421 C420 1.404 . S
C421 H433 0.930 . S
C422 C418 1.524 . S
C422 H434 0.956 . S
C422 H435 0.961 . S
C422 H436 0.961 . S
C423 C420 1.539 . S
C423 H437 0.958 . S
C423 H438 0.961 . S
C423 H439 0.960 . S
H424 C408 0.931 . S
H425 C413 0.929 . S
H426 C414 0.960 . S
H427 C414 0.962 . S
H428 C414 0.960 . S
H429 C415 0.961 . S
H430 C415 0.961 . S
H431 C415 0.961 . S
H432 C416 0.931 . S
H433 C421 0.930 . S
H434 C422 0.956 . S
H435 C422 0.961 . S
H436 C422 0.961 . S
H437 C423 0.958 . S
H438 C423 0.961 . S
H439 C423 0.960 . S
C440 C441 1.391 . S
C440 C442 1.394 . S
C440 H456 0.931 . S
C441 C440 1.391 . S
C441 C445 1.376 . S
C442 C440 1.394 . S
C442 C443 1.369 . S
C442 C446 1.531 . S
C443 C442 1.369 . S
C443 C444 1.410 . S
C443 C451 1.503 . S
C444 C443 1.410 . S
C444 C445 1.392 . S
C444 C447 1.511 . S
C445 C441 1.376 . S
C445 C444 1.392 . S
C445 H457 0.929 . S
C446 C442 1.531 . S
C446 H458 0.960 . S
C446 H459 0.962 . S
C446 H460 0.960 . S
C447 C444 1.511 . S
C447 H461 0.961 . S
C447 H462 0.961 . S
C447 H463 0.961 . S
C448 C449 1.370 . S
C448 C450 1.363 . S
C448 H464 0.931 . S
C449 C448 1.370 . S
C449 C453 1.408 . S
C450 C448 1.363 . S
C450 C451 1.370 . S
C450 C454 1.524 . S
C451 C443 1.503 . S
C451 C450 1.370 . S
C451 C452 1.403 . S
C452 C451 1.403 . S
C452 C453 1.404 . S
C452 C455 1.539 . S
C453 C449 1.408 . S
C453 C452 1.404 . S
C453 H465 0.930 . S
C454 C450 1.524 . S
C454 H466 0.956 . S
C454 H467 0.961 . S
C454 H468 0.961 . S
C455 C452 1.539 . S
C455 H469 0.958 . S
C455 H470 0.961 . S
C455 H471 0.960 . S
H456 C440 0.931 . S
H457 C445 0.929 . S
H458 C446 0.960 . S
H459 C446 0.962 . S
H460 C446 0.960 . S
H461 C447 0.961 . S
H462 C447 0.961 . S
H463 C447 0.961 . S
H464 C448 0.931 . S
H465 C453 0.930 . S
H466 C454 0.956 . S
H467 C454 0.961 . S
H468 C454 0.961 . S
H469 C455 0.958 . S
H470 C455 0.961 . S
H471 C455 0.960 . S
C472 C473 1.391 . S
C472 C474 1.394 . S
C472 H488 0.931 . S
C473 C472 1.391 . S
C473 C477 1.376 . S
C474 C472 1.394 . S
C474 C475 1.369 . S
C474 C478 1.531 . S
C475 C474 1.369 . S
C475 C476 1.410 . S
C475 C483 1.503 . S
C476 C475 1.410 . S
C476 C477 1.392 . S
C476 C479 1.511 . S
C477 C473 1.376 . S
C477 C476 1.392 . S
C477 H489 0.929 . S
C478 C474 1.531 . S
C478 H490 0.960 . S
C478 H491 0.962 . S
C478 H492 0.960 . S
C479 C476 1.511 . S
C479 H493 0.961 . S
C479 H494 0.961 . S
C479 H495 0.961 . S
C480 C481 1.370 . S
C480 C482 1.363 . S
C480 H496 0.931 . S
C481 C480 1.370 . S
C481 C485 1.408 . S
C482 C480 1.363 . S
C482 C483 1.370 . S
C482 C486 1.524 . S
C483 C475 1.503 . S
C483 C482 1.370 . S
C483 C484 1.403 . S
C484 C483 1.403 . S
C484 C485 1.404 . S
C484 C487 1.539 . S
C485 C481 1.408 . S
C485 C484 1.404 . S
C485 H497 0.930 . S
C486 C482 1.524 . S
C486 H498 0.956 . S
C486 H499 0.961 . S
C486 H500 0.961 . S
C487 C484 1.539 . S
C487 H501 0.958 . S
C487 H502 0.961 . S
C487 H503 0.960 . S
H488 C472 0.931 . S
H489 C477 0.929 . S
H490 C478 0.960 . S
H491 C478 0.962 . S
H492 C478 0.960 . S
H493 C479 0.961 . S
H494 C479 0.961 . S
H495 C479 0.961 . S
H496 C480 0.931 . S
H497 C485 0.930 . S
H498 C486 0.956 . S
H499 C486 0.961 . S
H500 C486 0.961 . S
H501 C487 0.958 . S
H502 C487 0.961 . S
H503 C487 0.960 . S
C504 C505 1.391 . S
C504 C506 1.394 . S
C504 H520 0.931 . S
C505 C504 1.391 . S
C505 C509 1.376 . S
C506 C504 1.394 . S
C506 C507 1.369 . S
C506 C510 1.531 . S
C507 C506 1.369 . S
C507 C508 1.410 . S
C507 C515 1.503 . S
C508 C507 1.410 . S
C508 C509 1.392 . S
C508 C511 1.511 . S
C509 C505 1.376 . S
C509 C508 1.392 . S
C509 H521 0.929 . S
C510 C506 1.531 . S
C510 H522 0.960 . S
C510 H523 0.962 . S
C510 H524 0.960 . S
C511 C508 1.511 . S
C511 H525 0.961 . S
C511 H526 0.961 . S
C511 H527 0.961 . S
C512 C513 1.370 . S
C512 C514 1.363 . S
C512 H528 0.931 . S
C513 C512 1.370 . S
C513 C517 1.408 . S
C514 C512 1.363 . S
C514 C515 1.370 . S
C514 C518 1.524 . S
C515 C507 1.503 . S
C515 C514 1.370 . S
C515 C516 1.403 . S
C516 C515 1.403 . S
C516 C517 1.404 . S
C516 C519 1.539 . S
C517 C513 1.408 . S
C517 C516 1.404 . S
C517 H529 0.930 . S
C518 C514 1.524 . S
C518 H530 0.956 . S
C518 H531 0.961 . S
C518 H532 0.961 . S
C519 C516 1.539 . S
C519 H533 0.958 . S
C519 H534 0.961 . S
C519 H535 0.960 . S
H520 C504 0.931 . S
H521 C509 0.929 . S
H522 C510 0.960 . S
H523 C510 0.962 . S
H524 C510 0.960 . S
H525 C511 0.961 . S
H526 C511 0.961 . S
H527 C511 0.961 . S
H528 C512 0.931 . S
H529 C517 0.930 . S
H530 C518 0.956 . S
H531 C518 0.961 . S
H532 C518 0.961 . S
H533 C519 0.958 . S
H534 C519 0.961 . S
H535 C519 0.960 . S
C536 C537 1.391 . S
C536 C538 1.394 . S
C536 H552 0.931 . S
C537 C536 1.391 . S
C537 C541 1.376 . S
C538 C536 1.394 . S
C538 C539 1.369 . S
C538 C542 1.531 . S
C539 C538 1.369 . S
C539 C540 1.410 . S
C539 C547 1.503 . S
C540 C539 1.410 . S
C540 C541 1.392 . S
C540 C543 1.511 . S
C541 C537 1.376 . S
C541 C540 1.392 . S
C541 H553 0.929 . S
C542 C538 1.531 . S
C542 H554 0.960 . S
C542 H555 0.962 . S
C542 H556 0.960 . S
C543 C540 1.511 . S
C543 H557 0.961 . S
C543 H558 0.961 . S
C543 H559 0.961 . S
C544 C545 1.370 . S
C544 C546 1.363 . S
C544 H560 0.931 . S
C545 C544 1.370 . S
C545 C549 1.408 . S
C546 C544 1.363 . S
C546 C547 1.370 . S
C546 C550 1.524 . S
C547 C539 1.503 . S
C547 C546 1.370 . S
C547 C548 1.403 . S
C548 C547 1.403 . S
C548 C549 1.404 . S
C548 C551 1.539 . S
C549 C545 1.408 . S
C549 C548 1.404 . S
C549 H561 0.930 . S
C550 C546 1.524 . S
C550 H562 0.956 . S
C550 H563 0.961 . S
C550 H564 0.961 . S
C551 C548 1.539 . S
C551 H565 0.958 . S
C551 H566 0.961 . S
C551 H567 0.960 . S
H552 C536 0.931 . S
H553 C541 0.929 . S
H554 C542 0.960 . S
H555 C542 0.962 . S
H556 C542 0.960 . S
H557 C543 0.961 . S
H558 C543 0.961 . S
H559 C543 0.961 . S
H560 C544 0.931 . S
H561 C549 0.930 . S
H562 C550 0.956 . S
H563 C550 0.961 . S
H564 C550 0.961 . S
H565 C551 0.958 . S
H566 C551 0.961 . S
H567 C551 0.960 . S
C568 C569 1.391 . S
C568 C570 1.394 . S
C568 H584 0.931 . S
C569 C568 1.391 . S
C569 C573 1.376 . S
C570 C568 1.394 . S
C570 C571 1.369 . S
C570 C574 1.531 . S
C571 C570 1.369 . S
C571 C572 1.410 . S
C571 C579 1.503 . S
C572 C571 1.410 . S
C572 C573 1.392 . S
C572 C575 1.511 . S
C573 C569 1.376 . S
C573 C572 1.392 . S
C573 H585 0.929 . S
C574 C570 1.531 . S
C574 H586 0.960 . S
C574 H587 0.962 . S
C574 H588 0.960 . S
C575 C572 1.511 . S
C575 H589 0.961 . S
C575 H590 0.961 . S
C575 H591 0.961 . S
C576 C577 1.370 . S
C576 C578 1.363 . S
C576 H592 0.931 . S
C577 C576 1.370 . S
C577 C581 1.408 . S
C578 C576 1.363 . S
C578 C579 1.370 . S
C578 C582 1.524 . S
C579 C571 1.503 . S
C579 C578 1.370 . S
C579 C580 1.403 . S
C580 C579 1.403 . S
C580 C581 1.404 . S
C580 C583 1.539 . S
C581 C577 1.408 . S
C581 C580 1.404 . S
C581 H593 0.930 . S
C582 C578 1.524 . S
C582 H594 0.956 . S
C582 H595 0.961 . S
C582 H596 0.961 . S
C583 C580 1.539 . S
C583 H597 0.958 . S
C583 H598 0.961 . S
C583 H599 0.960 . S
H584 C568 0.931 . S
H585 C573 0.929 . S
H586 C574 0.960 . S
H587 C574 0.962 . S
H588 C574 0.960 . S
H589 C575 0.961 . S
H590 C575 0.961 . S
H591 C575 0.961 . S
H592 C576 0.931 . S
H593 C581 0.930 . S
H594 C582 0.956 . S
H595 C582 0.961 . S
H596 C582 0.961 . S
H597 C583 0.958 . S
H598 C583 0.961 . S
H599 C583 0.960 . S
C600 C601 1.391 . S
C600 C602 1.394 . S
C600 H616 0.931 . S
C601 C600 1.391 . S
C601 C605 1.376 . S
C602 C600 1.394 . S
C602 C603 1.369 . S
C602 C606 1.531 . S
C603 C602 1.369 . S
C603 C604 1.410 . S
C603 C611 1.503 . S
C604 C603 1.410 . S
C604 C605 1.392 . S
C604 C607 1.511 . S
C605 C601 1.376 . S
C605 C604 1.392 . S
C605 H617 0.929 . S
C606 C602 1.531 . S
C606 H618 0.960 . S
C606 H619 0.962 . S
C606 H620 0.960 . S
C607 C604 1.511 . S
C607 H621 0.961 . S
C607 H622 0.961 . S
C607 H623 0.961 . S
C608 C609 1.370 . S
C608 C610 1.363 . S
C608 H624 0.931 . S
C609 C608 1.370 . S
C609 C613 1.408 . S
C610 C608 1.363 . S
C610 C611 1.370 . S
C610 C614 1.524 . S
C611 C603 1.503 . S
C611 C610 1.370 . S
C611 C612 1.403 . S
C612 C611 1.403 . S
C612 C613 1.404 . S
C612 C615 1.539 . S
C613 C609 1.408 . S
C613 C612 1.404 . S
C613 H625 0.930 . S
C614 C610 1.524 . S
C614 H626 0.956 . S
C614 H627 0.961 . S
C614 H628 0.961 . S
C615 C612 1.539 . S
C615 H629 0.958 . S
C615 H630 0.961 . S
C615 H631 0.960 . S
H616 C600 0.931 . S
H617 C605 0.929 . S
H618 C606 0.960 . S
H619 C606 0.962 . S
H620 C606 0.960 . S
H621 C607 0.961 . S
H622 C607 0.961 . S
H623 C607 0.961 . S
H624 C608 0.931 . S
H625 C613 0.930 . S
H626 C614 0.956 . S
H627 C614 0.961 . S
H628 C614 0.961 . S
H629 C615 0.958 . S
H630 C615 0.961 . S
H631 C615 0.960 . S
C632 C633 1.391 . S
C632 C634 1.394 . S
C632 H648 0.931 . S
C633 C632 1.391 . S
C633 C637 1.376 . S
C634 C632 1.394 . S
C634 C635 1.369 . S
C634 C638 1.531 . S
C635 C634 1.369 . S
C635 C636 1.410 . S
C635 C643 1.503 . S
C636 C635 1.410 . S
C636 C637 1.392 . S
C636 C639 1.511 . S
C637 C633 1.376 . S
C637 C636 1.392 . S
C637 H649 0.929 . S
C638 C634 1.531 . S
C638 H650 0.960 . S
C638 H651 0.962 . S
C638 H652 0.960 . S
C639 C636 1.511 . S
C639 H653 0.961 . S
C639 H654 0.961 . S
C639 H655 0.961 . S
C640 C641 1.370 . S
C640 C642 1.363 . S
C640 H656 0.931 . S
C641 C640 1.370 . S
C641 C645 1.408 . S
C642 C640 1.363 . S
C642 C643 1.370 . S
C642 C646 1.524 . S
C643 C635 1.503 . S
C643 C642 1.370 . S
C643 C644 1.403 . S
C644 C643 1.403 . S
C644 C645 1.404 . S
C644 C647 1.539 . S
C645 C641 1.408 . S
C645 C644 1.404 . S
C645 H657 0.930 . S
C646 C642 1.524 . S
C646 H658 0.956 . S
C646 H659 0.961 . S
C646 H660 0.961 . S
C647 C644 1.539 . S
C647 H661 0.958 . S
C647 H662 0.961 . S
C647 H663 0.960 . S
H648 C632 0.931 . S
H649 C637 0.929 . S
H650 C638 0.960 . S
H651 C638 0.962 . S
H652 C638 0.960 . S
H653 C639 0.961 . S
H654 C639 0.961 . S
H655 C639 0.961 . S
H656 C640 0.931 . S
H657 C645 0.930 . S
H658 C646 0.956 . S
H659 C646 0.961 . S
H660 C646 0.961 . S
H661 C647 0.958 . S
H662 C647 0.961 . S
H663 C647 0.960 . S
C664 C665 1.391 . S
C664 C666 1.394 . S
C664 H680 0.931 . S
C665 C664 1.391 . S
C665 C669 1.376 . S
C666 C664 1.394 . S
C666 C667 1.369 . S
C666 C670 1.531 . S
C667 C666 1.369 . S
C667 C668 1.410 . S
C667 C675 1.503 . S
C668 C667 1.410 . S
C668 C669 1.392 . S
C668 C671 1.511 . S
C669 C665 1.376 . S
C669 C668 1.392 . S
C669 H681 0.929 . S
C670 C666 1.531 . S
C670 H682 0.960 . S
C670 H683 0.962 . S
C670 H684 0.960 . S
C671 C668 1.511 . S
C671 H685 0.961 . S
C671 H686 0.961 . S
C671 H687 0.961 . S
C672 C673 1.370 . S
C672 C674 1.363 . S
C672 H688 0.931 . S
C673 C672 1.370 . S
C673 C677 1.408 . S
C674 C672 1.363 . S
C674 C675 1.370 . S
C674 C678 1.524 . S
C675 C667 1.503 . S
C675 C674 1.370 . S
C675 C676 1.403 . S
C676 C675 1.403 . S
C676 C677 1.404 . S
C676 C679 1.539 . S
C677 C673 1.408 . S
C677 C676 1.404 . S
C677 H689 0.930 . S
C678 C674 1.524 . S
C678 H690 0.956 . S
C678 H691 0.961 . S
C678 H692 0.961 . S
C679 C676 1.539 . S
C679 H693 0.958 . S
C679 H694 0.961 . S
C679 H695 0.960 . S
H680 C664 0.931 . S
H681 C669 0.929 . S
H682 C670 0.960 . S
H683 C670 0.962 . S
H684 C670 0.960 . S
H685 C671 0.961 . S
H686 C671 0.961 . S
H687 C671 0.961 . S
H688 C672 0.931 . S
H689 C677 0.930 . S
H690 C678 0.956 . S
H691 C678 0.961 . S
H692 C678 0.961 . S
H693 C679 0.958 . S
H694 C679 0.961 . S
H695 C679 0.960 . S
C696 C697 1.391 . S
C696 C698 1.394 . S
C696 H712 0.931 . S
C697 C696 1.391 . S
C697 C701 1.376 . S
C698 C696 1.394 . S
C698 C699 1.369 . S
C698 C702 1.531 . S
C699 C698 1.369 . S
C699 C700 1.410 . S
C699 C707 1.503 . S
C700 C699 1.410 . S
C700 C701 1.392 . S
C700 C703 1.511 . S
C701 C697 1.376 . S
C701 C700 1.392 . S
C701 H713 0.929 . S
C702 C698 1.531 . S
C702 H714 0.960 . S
C702 H715 0.962 . S
C702 H716 0.960 . S
C703 C700 1.511 . S
C703 H717 0.961 . S
C703 H718 0.961 . S
C703 H719 0.961 . S
C704 C705 1.370 . S
C704 C706 1.363 1_556 S
C704 H720 0.931 . S
C705 C704 1.370 . S
C705 C709 1.408 . S
C706 C704 1.363 1_554 S
C706 C707 1.370 . S
C706 C710 1.524 1_455 S
C707 C699 1.503 . S
C707 C706 1.370 . S
C707 C708 1.403 . S
C708 C707 1.403 . S
C708 C709 1.404 1_554 S
C708 C711 1.539 . S
C709 C705 1.408 . S
C709 C708 1.404 1_556 S
C709 H721 0.930 . S
C710 C706 1.524 1_655 S
C710 H722 0.956 . S
C710 H723 0.961 . S
C710 H724 0.961 . S
C711 C708 1.539 . S
C711 H725 0.958 . S
C711 H726 0.961 . S
C711 H727 0.960 . S
H712 C696 0.931 . S
H713 C701 0.929 . S
H714 C702 0.960 . S
H715 C702 0.962 . S
H716 C702 0.960 . S
H717 C703 0.961 . S
H718 C703 0.961 . S
H719 C703 0.961 . S
H720 C704 0.931 . S
H721 C709 0.930 . S
H722 C710 0.956 . S
H723 C710 0.961 . S
H724 C710 0.961 . S
H725 C711 0.958 . S
H726 C711 0.961 . S
H727 C711 0.960 . S
C728 C729 1.391 . S
C728 C730 1.394 . S
C728 H744 0.931 1_545 S
C729 C728 1.391 . S
C729 C733 1.376 . S
C730 C728 1.394 . S
C730 C731 1.369 . S
C730 C734 1.531 1_545 S
C731 C730 1.369 . S
C731 C732 1.410 . S
C731 C739 1.503 . S
C732 C731 1.410 . S
C732 C733 1.392 . S
C732 C735 1.511 . S
C733 C729 1.376 . S
C733 C732 1.392 . S
C733 H745 0.929 . S
C734 C730 1.531 1_565 S
C734 H746 0.960 . S
C734 H747 0.962 . S
C734 H748 0.960 . S
C735 C732 1.511 . S
C735 H749 0.961 . S
C735 H750 0.961 . S
C735 H751 0.961 . S
C736 C737 1.370 . S
C736 C738 1.363 . S
C736 H752 0.931 . S
C737 C736 1.370 . S
C737 C741 1.408 . S
C738 C736 1.363 . S
C738 C739 1.370 . S
C738 C742 1.524 . S
C739 C731 1.503 . S
C739 C738 1.370 . S
C739 C740 1.403 . S
C740 C739 1.403 . S
C740 C741 1.404 . S
C740 C743 1.539 1_545 S
C741 C737 1.408 . S
C741 C740 1.404 . S
C741 H753 0.930 1_545 S
C742 C738 1.524 . S
C742 H754 0.956 . S
C742 H755 0.961 . S
C742 H756 0.961 . S
C743 C740 1.539 1_565 S
C743 H757 0.958 . S
C743 H758 0.961 . S
C743 H759 0.960 . S
H744 C728 0.931 1_565 S
H745 C733 0.929 . S
H746 C734 0.960 . S
H747 C734 0.962 . S
H748 C734 0.960 . S
H749 C735 0.961 . S
H750 C735 0.961 . S
H751 C735 0.961 . S
H752 C736 0.931 . S
H753 C741 0.930 1_565 S
H754 C742 0.956 . S
H755 C742 0.961 . S
H756 C742 0.961 . S
H757 C743 0.958 . S
H758 C743 0.961 . S
H759 C743 0.960 . S
C760 C761 1.391 . S
C760 C762 1.394 . S
C760 H776 0.931 . S
C761 C760 1.391 . S
C761 C765 1.376 . S
C762 C760 1.394 . S
C762 C763 1.369 . S
C762 C766 1.531 . S
C763 C762 1.369 . S
C763 C764 1.410 . S
C763 C771 1.503 . S
C764 C763 1.410 . S
C764 C765 1.392 . S
C764 C767 1.511 . S
C765 C761 1.376 . S
C765 C764 1.392 . S
C765 H777 0.929 . S
C766 C762 1.531 . S
C766 H778 0.960 . S
C766 H779 0.962 . S
C766 H780 0.960 . S
C767 C764 1.511 . S
C767 H781 0.961 . S
C767 H782 0.961 . S
C767 H783 0.961 . S
C768 C769 1.370 . S
C768 C770 1.363 . S
C768 H784 0.931 . S
C769 C768 1.370 . S
C769 C773 1.408 . S
C770 C768 1.363 . S
C770 C771 1.370 . S
C770 C774 1.524 . S
C771 C763 1.503 . S
C771 C770 1.370 . S
C771 C772 1.403 . S
C772 C771 1.403 . S
C772 C773 1.404 . S
C772 C775 1.539 . S
C773 C769 1.408 . S
C773 C772 1.404 . S
C773 H785 0.930 . S
C774 C770 1.524 . S
C774 H786 0.956 . S
C774 H787 0.961 . S
C774 H788 0.961 . S
C775 C772 1.539 . S
C775 H789 0.958 . S
C775 H790 0.961 . S
C775 H791 0.960 . S
H776 C760 0.931 . S
H777 C765 0.929 . S
H778 C766 0.960 . S
H779 C766 0.962 . S
H780 C766 0.960 . S
H781 C767 0.961 . S
H782 C767 0.961 . S
H783 C767 0.961 . S
H784 C768 0.931 . S
H785 C773 0.930 . S
H786 C774 0.956 . S
H787 C774 0.961 . S
H788 C774 0.961 . S
H789 C775 0.958 . S
H790 C775 0.961 . S
H791 C775 0.960 . S
C792 C793 1.391 . S
C792 C794 1.394 . S
C792 H808 0.931 . S
C793 C792 1.391 . S
C793 C797 1.376 1_545 S
C794 C792 1.394 . S
C794 C795 1.369 . S
C794 C798 1.531 . S
C795 C794 1.369 . S
C795 C796 1.410 1_545 S
C795 C803 1.503 . S
C796 C795 1.410 1_565 S
C796 C797 1.392 . S
C796 C799 1.511 . S
C797 C793 1.376 1_565 S
C797 C796 1.392 . S
C797 H809 0.929 . S
C798 C794 1.531 . S
C798 H810 0.960 . S
C798 H811 0.962 . S
C798 H812 0.960 . S
C799 C796 1.511 . S
C799 H813 0.961 . S
C799 H814 0.961 . S
C799 H815 0.961 . S
C800 C801 1.370 . S
C800 C802 1.363 . S
C800 H816 0.931 . S
C801 C800 1.370 . S
C801 C805 1.408 1_565 S
C802 C800 1.363 . S
C802 C803 1.370 1_565 S
C802 C806 1.524 . S
C803 C795 1.503 . S
C803 C802 1.370 1_545 S
C803 C804 1.403 . S
C804 C803 1.403 . S
C804 C805 1.404 . S
C804 C807 1.539 . S
C805 C801 1.408 1_545 S
C805 C804 1.404 . S
C805 H817 0.930 . S
C806 C802 1.524 . S
C806 H818 0.958 . S
C806 H819 0.961 . S
C806 H820 0.961 . S
C807 C804 1.539 . S
C807 H821 0.958 . S
C807 H822 0.961 . S
C807 H823 0.960 . S
H808 C792 0.931 . S
H809 C797 0.929 . S
H810 C798 0.960 . S
H811 C798 0.962 . S
H812 C798 0.960 . S
H813 C799 0.961 . S
H814 C799 0.961 . S
H815 C799 0.961 . S
H816 C800 0.931 . S
H817 C805 0.930 . S
H818 C806 0.958 . S
H819 C806 0.961 . S
H820 C806 0.961 . S
H821 C807 0.958 . S
H822 C807 0.961 . S
H823 C807 0.960 . S
C824 C825 1.391 . S
C824 C826 1.394 . S
C824 H840 0.931 . S
C825 C824 1.391 . S
C825 C829 1.376 . S
C826 C824 1.394 . S
C826 C827 1.369 . S
C826 C830 1.531 . S
C827 C826 1.369 . S
C827 C828 1.410 . S
C827 C835 1.503 . S
C828 C827 1.410 . S
C828 C829 1.392 . S
C828 C831 1.511 . S
C829 C825 1.376 . S
C829 C828 1.392 . S
C829 H841 0.929 . S
C830 C826 1.531 . S
C830 H842 0.960 . S
C830 H843 0.962 . S
C830 H844 0.960 . S
C831 C828 1.511 . S
C831 H845 0.961 . S
C831 H846 0.961 . S
C831 H847 0.961 . S
C832 C833 1.370 1_556 S
C832 C834 1.363 . S
C832 H848 0.931 1_556 S
C833 C832 1.370 1_554 S
C833 C837 1.408 1_554 S
C834 C832 1.363 . S
C834 C835 1.370 . S
C834 C838 1.524 . S
C835 C827 1.503 . S
C835 C834 1.370 . S
C835 C836 1.403 . S
C836 C835 1.403 . S
C836 C837 1.404 . S
C836 C839 1.539 . S
C837 C833 1.408 1_556 S
C837 C836 1.404 . S
C837 H849 0.930 . S
C838 C834 1.524 . S
C838 H850 0.956 . S
C838 H851 0.961 . S
C838 H852 0.961 . S
C839 C836 1.539 . S
C839 H853 0.958 . S
C839 H854 0.961 . S
C839 H855 0.960 . S
H840 C824 0.931 . S
H841 C829 0.929 . S
H842 C830 0.960 . S
H843 C830 0.962 . S
H844 C830 0.960 . S
H845 C831 0.961 . S
H846 C831 0.961 . S
H847 C831 0.961 . S
H848 C832 0.931 1_554 S
H849 C837 0.930 . S
H850 C838 0.956 . S
H851 C838 0.961 . S
H852 C838 0.961 . S
H853 C839 0.958 . S
H854 C839 0.961 . S
H855 C839 0.960 . S
C856 C857 1.391 . S
C856 C858 1.394 . S
C856 H872 0.931 . S
C857 C856 1.391 . S
C857 C861 1.376 . S
C858 C856 1.394 . S
C858 C859 1.369 . S
C858 C862 1.531 . S
C859 C858 1.369 . S
C859 C860 1.410 . S
C859 C867 1.503 . S
C860 C859 1.410 . S
C860 C861 1.392 . S
C860 C863 1.511 1_455 S
C861 C857 1.376 . S
C861 C860 1.392 . S
C861 H873 0.929 . S
C862 C858 1.531 . S
C862 H874 0.960 . S
C862 H875 0.962 . S
C862 H876 0.960 . S
C863 C860 1.511 1_655 S
C863 H877 0.961 1_655 S
C863 H878 0.961 1_655 S
C863 H879 0.961 . S
C864 C865 1.367 . S
C864 C866 1.363 . S
C864 H880 0.931 . S
C865 C864 1.367 . S
C865 C869 1.411 1_455 S
C866 C864 1.363 . S
C866 C867 1.370 . S
C866 C870 1.524 . S
C867 C859 1.503 . S
C867 C866 1.370 . S
C867 C868 1.403 1_455 S
C868 C867 1.403 1_655 S
C868 C869 1.404 . S
C868 C871 1.539 . S
C869 C865 1.411 1_655 S
C869 C868 1.404 . S
C869 H881 0.930 . S
C870 C866 1.524 . S
C870 H882 0.956 . S
C870 H883 0.961 . S
C870 H884 0.961 . S
C871 C868 1.539 . S
C871 H885 0.958 . S
C871 H886 0.961 . S
C871 H887 0.960 . S
H872 C856 0.931 . S
H873 C861 0.929 . S
H874 C862 0.960 . S
H875 C862 0.962 . S
H876 C862 0.960 . S
H877 C863 0.961 1_455 S
H878 C863 0.961 1_455 S
H879 C863 0.961 . S
H880 C864 0.931 . S
H881 C869 0.930 . S
H882 C870 0.956 . S
H883 C870 0.961 . S
H884 C870 0.961 . S
H885 C871 0.958 . S
H886 C871 0.961 . S
H887 C871 0.960 . S
C313 C25 0.320 . S
C321 C303 0.339 . S
C345 C65 0.487 . S
C353 C239 0.360 . S
C377 C105 0.527 . S
C385 C271 0.480 . S
C409 C4 0.505 . S
C417 C297 0.334 . S
C449 C233 0.398 . S
C441 C44 0.328 . S
C481 C265 0.454 . S
C473 C84 0.381 . S
C505 C60 2.906 . S
C513 C175 2.845 . S
C537 C100 3.033 . S
C545 C207 2.968 . S
C569 C31 3.047 . S
C577 C137 2.982 . S
C609 C169 2.992 . S
C601 C71 3.046 . S
C641 C201 2.886 . S
C633 C111 2.905 . S
C665 C20 2.909 . S
C673 C143 2.846 . S
C705 C213 1.775 . S
C697 C2 1.757 . S
C729 C42 1.726 . S
C737 C149 1.761 . S
C761 C82 1.728 . S
C769 C181 1.771 . S
C801 C277 1.042 . S
C793 C63 1.060 . S
C833 C309 1.091 . S
C825 C103 1.112 . S
C857 C23 1.066 . S
C865 C245 1.037 . S
