# Generated by pormake.
# Topology anh, (6,3)-cn, num edge types: 1
# Building blocks:
#     Node 0, Type 0, BuildingBlock: PAMTOO_clean_sbu_0, # of connection points: 6
#     Node 1, Type 0, BuildingBlock: PAMTOO_clean_sbu_0, # of connection points: 6
#     Node 2, Type 0, BuildingBlock: PAMTOO_clean_sbu_0, # of connection points: 6
#     Node 3, Type 1, BuildingBlock: BETDAH_clean_linker_0, # of connection points: 3
#     Node 4, Type 1, BuildingBlock: BETDAH_clean_linker_0, # of connection points: 3
#     Node 5, Type 1, BuildingBlock: BETDAH_clean_linker_0, # of connection points: 3
#     Node 6, Type 1, BuildingBlock: BETDAH_clean_linker_0, # of connection points: 3
#     Node 7, Type 1, BuildingBlock: BETDAH_clean_linker_0, # of connection points: 3
#     Node 8, Type 1, BuildingBlock: BETDAH_clean_linker_0, # of connection points: 3
#     Edge 9, Type (0, 1), BuildingBlock: UVAHIK_clean_linker_0, # of connection points: 2
#     Edge 10, Type (0, 1), BuildingBlock: UVAHIK_clean_linker_0, # of connection points: 2
#     Edge 11, Type (0, 1), BuildingBlock: UVAHIK_clean_linker_0, # of connection points: 2
#     Edge 12, Type (0, 1), BuildingBlock: UVAHIK_clean_linker_0, # of connection points: 2
#     Edge 13, Type (0, 1), BuildingBlock: UVAHIK_clean_linker_0, # of connection points: 2
#     Edge 14, Type (0, 1), BuildingBlock: UVAHIK_clean_linker_0, # of connection points: 2
#     Edge 15, Type (0, 1), BuildingBlock: UVAHIK_clean_linker_0, # of connection points: 2
#     Edge 16, Type (0, 1), BuildingBlock: UVAHIK_clean_linker_0, # of connection points: 2
#     Edge 17, Type (0, 1), BuildingBlock: UVAHIK_clean_linker_0, # of connection points: 2
#     Edge 18, Type (0, 1), BuildingBlock: UVAHIK_clean_linker_0, # of connection points: 2
#     Edge 19, Type (0, 1), BuildingBlock: UVAHIK_clean_linker_0, # of connection points: 2
#     Edge 20, Type (0, 1), BuildingBlock: UVAHIK_clean_linker_0, # of connection points: 2
#     Edge 21, Type (0, 1), BuildingBlock: UVAHIK_clean_linker_0, # of connection points: 2
#     Edge 22, Type (0, 1), BuildingBlock: UVAHIK_clean_linker_0, # of connection points: 2
#     Edge 23, Type (0, 1), BuildingBlock: UVAHIK_clean_linker_0, # of connection points: 2
#     Edge 24, Type (0, 1), BuildingBlock: UVAHIK_clean_linker_0, # of connection points: 2
#     Edge 25, Type (0, 1), BuildingBlock: UVAHIK_clean_linker_0, # of connection points: 2
#     Edge 26, Type (0, 1), BuildingBlock: UVAHIK_clean_linker_0, # of connection points: 2
# Relax obj value: 0.112
# Max RMSD: 0.148
# Mean RMSD: 0.100
data_MOF--net-anh--node1-PAMTOO_clean_sbu_0--node2-BETDAH_clean_linker_0--edge1-UVAHIK_clean_linker_0
_symmetry_space_group_name_H-M    P1
_symmetry_Int_Tables_number       1
_symmetry_cell_setting            triclinic
loop_
_symmetry_equiv_pos_as_xyz
'x, y, z'
_cell_length_a     39.314907
_cell_length_b     38.720421
_cell_length_c     63.974936
_cell_angle_alpha  93.380939
_cell_angle_beta   96.475313
_cell_angle_gamma 105.05375
loop_
_atom_site_label
_atom_site_type_symbol
_atom_site_fract_x
_atom_site_fract_y
_atom_site_fract_z
_atom_type_partial_charge
Dy0 Dy 0.06748 0.55795 0.14385 0.0
Dy1 Dy 1.04608 0.4703 0.14807 0.0
C2 C 1.04975 0.50167 0.10391 0.0
O3 O 1.00962 0.54486 0.14752 0.0
O4 O 0.99366 0.48318 0.14091 0.0
O5 O 0.09036 0.60251 0.12641 0.0
O6 O 0.06952 0.612 0.15553 0.0
O7 O 1.04045 0.49709 0.17864 0.0
O8 O 0.08265 0.54987 0.17762 0.0
O9 O 0.10585 0.48662 0.15405 0.0
O10 O 0.11761 0.54187 0.14073 0.0
O11 O 1.04832 0.42495 0.16581 0.0
O12 O 1.01893 0.41662 0.13432 0.0
C13 C 0.98533 0.5138 0.14387 0.0
O14 O 1.04173 0.52986 0.11222 0.0
O15 O 0.06108 0.47969 0.11597 0.0
C16 C 0.12009 0.65563 0.14795 0.0
C17 C 0.18319 0.71113 0.16049 0.0
C18 C 0.16187 0.71091 0.14123 0.0
C19 C 0.13062 0.68347 0.13507 0.0
C20 C 0.14124 0.65557 0.16716 0.0
C21 C 0.17236 0.68313 0.17341 0.0
C22 C 0.08761 0.62645 0.14087 0.0
C23 C 0.0631 0.52615 0.18827 0.0
C24 C 0.12809 0.51443 0.1476 0.0
C25 C 0.99541 0.37814 0.15924 0.0
C26 C 0.93543 0.33172 0.17264 0.0
C27 C 0.93843 0.36872 0.17244 0.0
C28 C 0.96819 0.39173 0.16584 0.0
C29 C 0.9928 0.34143 0.15958 0.0
C30 C 0.9631 0.31839 0.16625 0.0
C31 C 1.02611 0.402 0.15157 0.0
H32 H 0.1696 0.73161 0.13069 0.0
H33 H 0.11482 0.68381 0.1201 0.0
H34 H 0.13375 0.6342 0.17732 0.0
H35 H 0.18777 0.6826 0.18847 0.0
H36 H 0.91783 0.37993 0.17749 0.0
H37 H 0.96989 0.4201 0.16575 0.0
H38 H 1.01355 0.33051 0.15448 0.0
H39 H 0.96144 0.29 0.16596 0.0
Dy40 Dy 0.59868 0.04738 0.51787 0.0
Dy41 Dy 0.68602 0.07095 0.52279 0.0
C42 C 0.64523 0.06725 0.56251 0.0
O43 O 0.61319 0.10447 0.51023 0.0
O44 O 0.67029 0.12194 0.52739 0.0
O45 O 0.55083 0.02887 0.53213 0.0
O46 O 0.54756 0.04117 0.49945 0.0
O47 O 0.66463 0.07541 0.48942 0.0
O48 O 0.61511 0.02881 0.48792 0.0
O49 O 0.67133 0.01099 0.51901 0.0
O50 O 0.61377 -0.00202 0.5267 0.0
O51 O 0.73434 0.06805 0.51068 0.0
O52 O 0.73683 0.10159 0.53947 0.0
C53 C 0.64168 0.12963 0.51855 0.0
O54 O 0.6197 0.07472 0.55011 0.0
O55 O 0.67077 0.05702 0.55453 0.0
C56 C 0.50176 0.99326 0.50884 0.0
C57 C 0.44769 0.92826 0.49908 0.0
C58 C 0.45561 0.94534 0.51973 0.0
C59 C 0.4822 0.97756 0.52451 0.0
C60 C 0.49389 0.97634 0.48815 0.0
C61 C 0.4671 0.9442 0.48333 0.0
C62 C 0.5301 0.02709 0.51446 0.0
C63 C 0.63906 0.04999 0.47842 0.0
C64 C 0.64254 0.98822 0.52357 0.0
C65 C 0.77834 0.12368 0.51645 0.0
C66 C 0.82243 0.18522 0.50239 0.0
C67 C 0.79161 0.16498 0.48942 0.0
C68 C 0.76961 0.13461 0.49644 0.0
C69 C 0.80944 0.14342 0.52925 0.0
C70 C 0.83126 0.174 0.52232 0.0
C71 C 0.75428 0.09318 0.52466 0.0
H72 H 0.44157 0.93361 0.53232 0.0
H73 H 0.48766 0.9901 0.54056 0.0
H74 H 0.50837 0.98785 0.47567 0.0
H75 H 0.46132 0.93207 0.46719 0.0
H76 H 0.78395 0.17324 0.47411 0.0
H77 H 0.74547 0.1201 0.48638 0.0
H78 H 0.81653 0.13552 0.54477 0.0
H79 H 0.85501 0.18895 0.53257 0.0
Dy80 Dy 0.61445 0.62264 0.83896 0.0
Dy81 Dy 0.52747 0.59694 0.82955 0.0
C82 C 0.57343 0.60315 0.79174 0.0
O83 O 0.59535 0.66958 0.84917 0.0
O84 O 0.54548 0.65545 0.82518 0.0
O85 O 0.6631 0.66168 0.83477 0.0
O86 O 0.66465 0.61791 0.85414 0.0
O87 O 0.54107 0.61452 0.86408 0.0
O88 O 0.59498 0.60208 0.86855 0.0
O89 O 0.54437 0.54636 0.83369 0.0
O90 O 0.60199 0.5651 0.82642 0.0
O91 O 0.47953 0.60383 0.81236 0.0
O92 O 0.47638 0.56687 0.83674 0.0
C93 C 0.57031 0.67935 0.83769 0.0
O94 O 0.59971 0.62538 0.80435 0.0
O95 O 0.54539 0.58385 0.79903 0.0
C96 C 0.71211 0.63758 0.83445 0.0
C97 C 0.76929 0.62354 0.81575 0.0
C98 C 0.77288 0.6571 0.8268 0.0
C99 C 0.74453 0.66399 0.83611 0.0
C100 C 0.70787 0.60459 0.82277 0.0
C101 C 0.73624 0.59756 0.81359 0.0
C102 C 0.68309 0.6446 0.84511 0.0
C103 C 0.56669 0.60662 0.87619 0.0
C104 C 0.5739 0.53939 0.82907 0.0
C105 C 0.42934 0.55391 0.80835 0.0
C106 C 0.36968 0.50493 0.78472 0.0
C107 C 0.36917 0.54045 0.79032 0.0
C108 C 0.39871 0.56465 0.80201 0.0
C109 C 0.4307 0.51896 0.80216 0.0
C110 C 0.401 0.49457 0.79047 0.0
C111 C 0.45886 0.57955 0.82187 0.0
H112 H 0.79775 0.67789 0.8285 0.0
H113 H 0.74808 0.68977 0.84487 0.0
H114 H 0.68287 0.58395 0.82114 0.0
H115 H 0.73259 0.57125 0.8055 0.0
H116 H 0.34535 0.54918 0.78651 0.0
H117 H 0.39728 0.59157 0.80662 0.0
H118 H 0.45436 0.51032 0.80673 0.0
H119 H 0.40228 0.46747 0.78627 0.0
H120 H 0.51343 0.97459 0.25637 0.0
H121 H 0.60209 0.05817 0.24263 0.0
H122 H 0.51671 0.00724 0.1935 0.0
C123 C 0.52726 0.99108 0.24521 0.0
C124 C 0.51152 0.9873 0.22411 0.0
C125 C 0.5599 0.01662 0.25217 0.0
C126 C 0.5768 0.03867 0.23755 0.0
C127 C 0.56106 0.03536 0.21636 0.0
C128 C 0.52846 0.00991 0.20987 0.0
N129 N 0.57706 0.05703 0.20107 0.0
C130 C 0.61116 0.08016 0.20427 0.0
H131 H 0.61232 0.48591 0.57981 0.0
H132 H 0.61508 0.59163 0.56159 0.0
H133 H 0.62908 0.51095 0.51657 0.0
C134 C 0.61503 0.50494 0.56793 0.0
C135 C 0.62105 0.49429 0.54765 0.0
C136 C 0.61259 0.5399 0.57303 0.0
C137 C 0.61688 0.56462 0.55766 0.0
C138 C 0.62266 0.55409 0.53718 0.0
C139 C 0.62432 0.51888 0.53228 0.0
N140 N 0.62703 0.57808 0.52113 0.0
C141 C 0.62892 0.61436 0.52433 0.0
H142 H 0.99873 0.46177 0.8724 0.0
H143 H 1.02432 0.36135 0.87997 0.0
H144 H 1.01209 0.39784 0.81822 0.0
C145 C 1.00462 0.43804 0.86564 0.0
C146 C 1.00398 0.4328 0.84364 0.0
C147 C 1.01227 0.41276 0.87903 0.0
C148 C 1.01898 0.38158 0.87004 0.0
C149 C 1.01955 0.37643 0.84825 0.0
C150 C 1.01213 0.40212 0.8351 0.0
N151 N 1.02763 0.34521 0.83989 0.0
C152 C 1.04705 0.34589 0.82302 0.0
H153 H 0.16017 0.61892 0.41132 0.0
H154 H 0.07242 0.53347 0.42418 0.0
H155 H 0.14905 0.59471 0.47519 0.0
C156 C 0.14568 0.60291 0.42244 0.0
C157 C 0.15822 0.61015 0.44404 0.0
C158 C 0.11454 0.57563 0.41506 0.0
C159 C 0.09642 0.55457 0.42968 0.0
C160 C 0.10902 0.56157 0.45145 0.0
C161 C 0.13956 0.58948 0.45843 0.0
N162 N 0.09177 0.54158 0.46695 0.0
C163 C 0.06259 0.51175 0.46285 0.0
H164 H 0.61084 0.17949 0.77276 0.0
H165 H 0.60201 0.07415 0.79343 0.0
H166 H 0.58239 0.15687 0.83445 0.0
C167 C 0.60614 0.16107 0.7849 0.0
C168 C 0.59693 0.17276 0.80415 0.0
C169 C 0.60792 0.12552 0.78081 0.0
C170 C 0.60037 0.10146 0.79638 0.0
C171 C 0.59108 0.11275 0.81575 0.0
C172 C 0.58932 0.14827 0.81945 0.0
N173 N 0.58336 0.08925 0.83188 0.0
C174 C 0.58408 0.05345 0.83034 0.0
H175 H 0.62346 0.52943 0.08703 0.0
H176 H 0.51906 0.52792 0.1016 0.0
H177 H 0.5983 0.51312 0.15 0.0
C178 C 0.60448 0.52612 0.09829 0.0
C179 C 0.6152 0.52003 0.11912 0.0
C180 C 0.56992 0.52863 0.09173 0.0
C181 C 0.54577 0.52616 0.10658 0.0
C182 C 0.55597 0.52078 0.12771 0.0
C183 C 0.59072 0.51786 0.13384 0.0
N184 N 0.53203 0.51771 0.14313 0.0
C185 C 0.49624 0.51764 0.13938 0.0
C186 C 0.19053 0.54459 0.141 0.0
C187 C 0.16621 0.51472 0.14734 0.0
C188 C 0.22604 0.54473 0.14005 0.0
C189 C 0.28512 0.48378 0.1367 0.0
H190 H 0.36039 0.57138 0.15306 0.0
C191 C 0.4346 0.48625 0.14418 0.0
C192 C 0.45876 0.51646 0.1383 0.0
C193 C 0.39889 0.48577 0.14475 0.0
C194 C 0.33975 0.54675 0.14813 0.0
H195 H 0.16084 0.46157 0.15785 0.0
H196 H 0.22276 0.46193 0.15638 0.0
H197 H 0.29895 0.57105 0.15567 0.0
H198 H 0.46483 0.56981 0.12828 0.0
H199 H 0.40235 0.56901 0.12891 0.0
H200 H 0.32592 0.45949 0.12916 0.0
C201 C 0.21421 0.48517 0.15187 0.0
C202 C 0.30434 0.54654 0.14967 0.0
C203 C 0.17864 0.48506 0.15287 0.0
C204 C 0.44661 0.54612 0.13278 0.0
C205 C 0.41085 0.54571 0.13335 0.0
C206 C 0.32053 0.484 0.13515 0.0
C207 C 0.23848 0.51499 0.14538 0.0
C208 C 0.27642 0.51506 0.14397 0.0
C209 C 0.38644 0.5156 0.13951 0.0
C210 C 0.34846 0.51549 0.14084 0.0
H211 H 0.18214 0.56797 0.13657 0.0
H212 H 0.2436 0.56802 0.13471 0.0
H213 H 0.26446 0.45915 0.13181 0.0
H214 H 0.44348 0.46317 0.14873 0.0
H215 H 0.38126 0.46229 0.14986 0.0
C216 C 0.8542 0.21964 0.47499 0.0
C217 C 0.84459 0.21868 0.4955 0.0
C218 C 0.87489 0.25141 0.46857 0.0
C219 C 0.90024 0.34947 0.48057 0.0
H220 H 0.98459 0.34823 0.45476 0.0
C221 C 1.01362 0.47669 0.47954 0.0
C222 C 1.03311 0.48049 0.46244 0.0
C223 C 0.98728 0.44507 0.48068 0.0
C224 C 0.96076 0.34903 0.46154 0.0
H225 H 0.84851 0.25028 0.52522 0.0
H226 H 0.88455 0.30569 0.51403 0.0
H227 H 0.94485 0.29183 0.46225 0.0
H228 H 1.04057 0.45533 0.43285 0.0
H229 H 0.99375 0.39979 0.43451 0.0
H230 H 0.91603 0.40653 0.48002 0.0
C231 C 0.87611 0.28193 0.50291 0.0
C232 C 0.93807 0.3167 0.4659 0.0
C233 C 0.85582 0.25014 0.5094 0.0
C234 C 1.02554 0.45276 0.44614 0.0
C235 C 0.99901 0.421 0.44721 0.0
C236 C 0.9227 0.38172 0.47606 0.0
C237 C 0.8859 0.28291 0.48245 0.0
C238 C 0.90805 0.3167 0.4759 0.0
C239 C 0.97987 0.41662 0.46466 0.0
C240 C 0.95372 0.38201 0.46697 0.0
H241 H 0.84602 0.19573 0.46399 0.0
H242 H 0.88197 0.25145 0.45269 0.0
H243 H 0.87691 0.3502 0.48793 0.0
H244 H 1.01948 0.49779 0.49237 0.0
H245 H 0.97365 0.44249 0.49453 0.0
C246 C 0.59826 0.74432 0.85045 0.0
C247 C 0.57114 0.7179 0.83782 0.0
C248 C 0.59983 0.78077 0.84975 0.0
C249 C 0.56963 0.84375 0.81555 0.0
H250 H 0.59384 0.90857 0.86677 0.0
C251 C 0.55776 0.98983 0.81716 0.0
C252 C 0.58419 0.01619 0.83008 0.0
C253 C 0.55675 0.9535 0.81782 0.0
C254 C 0.58749 0.89094 0.85227 0.0
H255 H 0.52403 0.70918 0.81481 0.0
H256 H 0.52665 0.77256 0.81375 0.0
H257 H 0.5906 0.84514 0.86883 0.0
H258 H 0.63048 0.02613 0.85359 0.0
H259 H 0.62921 0.96268 0.85463 0.0
H260 H 0.56655 0.88952 0.79898 0.0
C261 C 0.547 0.76517 0.82398 0.0
C262 C 0.58559 0.85454 0.85347 0.0
C263 C 0.54538 0.72877 0.82471 0.0
C264 C 0.60987 0.00603 0.84349 0.0
C265 C 0.60892 0.96974 0.84418 0.0
C266 C 0.57157 0.88015 0.81435 0.0
C267 C 0.57439 0.79166 0.83637 0.0
C268 C 0.57656 0.83046 0.83513 0.0
C269 C 0.58217 0.94296 0.83147 0.0
C270 C 0.58048 0.90423 0.8327 0.0
H271 H 0.61859 0.73693 0.86069 0.0
H272 H 0.62147 0.80046 0.85935 0.0
H273 H 0.56319 0.82608 0.80107 0.0
H274 H 0.53759 -0.00272 0.80679 0.0
H275 H 0.53555 0.93364 0.808 0.0
C276 C 0.93621 0.54498 0.14143 0.0
C277 C 0.94705 0.51324 0.14314 0.0
C278 C 0.90024 0.54445 0.14065 0.0
C279 C 0.80854 0.48154 0.13068 0.0
H280 H 0.78182 0.56459 0.15293 0.0
C281 C 0.66655 0.49667 0.11037 0.0
C282 C 0.65184 0.51555 0.12482 0.0
C283 C 0.70178 0.49499 0.11436 0.0
C284 C 0.78861 0.54089 0.14687 0.0
H285 H 0.92819 0.45608 0.14584 0.0
H286 H 0.86596 0.45527 0.14517 0.0
H287 H 0.8441 0.56449 0.15695 0.0
H288 H 0.66287 0.54632 0.15537 0.0
H289 H 0.72421 0.54243 0.16272 0.0
H290 H 0.75307 0.45744 0.12122 0.0
C291 C 0.88499 0.48056 0.14379 0.0
C292 C 0.82462 0.54106 0.14887 0.0
C293 C 0.9209 0.48103 0.1443 0.0
C294 C 0.67318 0.5315 0.14387 0.0
C295 C 0.7086 0.52964 0.14794 0.0
C296 C 0.77257 0.48123 0.12886 0.0
C297 C 0.87395 0.51223 0.14182 0.0
C298 C 0.83528 0.51155 0.14057 0.0
C299 C 0.72362 0.51171 0.1331 0.0
C300 C 0.76197 0.51111 0.13662 0.0
H301 H 0.95548 0.57029 0.14039 0.0
H302 H 0.89308 0.56936 0.13874 0.0
H303 H 0.81529 0.45836 0.12384 0.0
H304 H 0.6509 0.48345 0.09569 0.0
H305 H 0.7121 0.48129 0.10233 0.0
C306 C 0.4235 0.8665 0.48003 0.0
C307 C 0.41927 0.89402 0.49403 0.0
C308 C 0.39672 0.83436 0.47529 0.0
C309 C 0.31911 0.77758 0.49532 0.0
H310 H 0.28998 0.73935 0.43677 0.0
C311 C 0.19023 0.66512 0.46813 0.0
C312 C 0.19037 0.63991 0.45146 0.0
C313 C 0.21965 0.69462 0.47412 0.0
C314 C 0.29815 0.74928 0.45324 0.0
H315 H 0.38323 0.90936 0.51381 0.0
H316 H 0.3368 0.85307 0.50576 0.0
H317 H 0.33868 0.79367 0.44562 0.0
H318 H 0.22185 0.62482 0.42861 0.0
H319 H 0.27351 0.67594 0.43928 0.0
H320 H 0.27871 0.73317 0.503 0.0
C321 C 0.36103 0.85631 0.49863 0.0
C322 C 0.326 0.78047 0.45828 0.0
C323 C 0.38767 0.88853 0.50325 0.0
C324 C 0.22086 0.64417 0.44131 0.0
C325 C 0.25037 0.6735 0.44739 0.0
C326 C 0.2914 0.74622 0.4903 0.0
C327 C 0.36524 0.82894 0.48457 0.0
C328 C 0.33657 0.79509 0.47935 0.0
C329 C 0.24994 0.69938 0.46366 0.0
C330 C 0.2804 0.73184 0.46918 0.0
H331 H 0.44772 0.86957 0.47292 0.0
H332 H 0.40082 0.81355 0.46457 0.0
H333 H 0.32704 0.78801 0.51173 0.0
H334 H 0.16691 0.66268 0.47608 0.0
H335 H 0.21819 0.71427 0.48652 0.0
C336 C 0.60556 0.49309 0.81987 0.0
C337 C 0.57558 0.50148 0.82664 0.0
C338 C 0.60739 0.45748 0.81769 0.0
C339 C 0.57075 0.36788 0.8354 0.0
H340 H 0.60684 0.33423 0.78638 0.0
C341 C 0.56623 0.21806 0.81686 0.0
C342 C 0.59493 0.21045 0.80802 0.0
C343 C 0.56367 0.25342 0.81954 0.0
C344 C 0.59715 0.34325 0.80033 0.0
H345 H 0.524 0.47872 0.83647 0.0
H346 H 0.52727 0.41658 0.83268 0.0
H347 H 0.60265 0.39588 0.79014 0.0
H348 H 0.64411 0.2342 0.7958 0.0
H349 H 0.64001 0.29577 0.80076 0.0
H350 H 0.56559 0.31536 0.84572 0.0
C351 C 0.54945 0.43767 0.82917 0.0
C352 C 0.59468 0.37864 0.80245 0.0
C353 C 0.5475 0.4733 0.83122 0.0
C354 C 0.62136 0.23909 0.80233 0.0
C355 C 0.61892 0.27442 0.80512 0.0
C356 C 0.57341 0.33249 0.83334 0.0
C357 C 0.5794 0.42932 0.82234 0.0
C358 C 0.58152 0.39144 0.82002 0.0
C359 C 0.58986 0.28207 0.81356 0.0
C360 C 0.58675 0.31971 0.8158 0.0
H361 H 0.62775 0.51404 0.81623 0.0
H362 H 0.63102 0.45205 0.81264 0.0
H363 H 0.5609 0.37702 0.84926 0.0
H364 H 0.54524 0.19655 0.82119 0.0
H365 H 0.54068 0.25816 0.82584 0.0
C366 C 0.6116 0.92481 0.52928 0.0
C367 C 0.6423 0.9501 0.52506 0.0
C368 C 0.61113 0.88875 0.53035 0.0
C369 C 0.65626 0.82175 0.51303 0.0
H370 H 0.60948 0.76691 0.55547 0.0
C371 C 0.66333 0.67694 0.52365 0.0
C372 C 0.63164 0.6522 0.52655 0.0
C373 C 0.66558 0.71363 0.52462 0.0
C374 C 0.62237 0.78178 0.54341 0.0
H375 H 0.69677 0.9572 0.51891 0.0
H376 H 0.69599 0.89437 0.52096 0.0
H377 H 0.61172 0.83043 0.55495 0.0
H378 H 0.5776 0.64542 0.53299 0.0
H379 H 0.58121 0.70971 0.53455 0.0
H380 H 0.66672 0.77313 0.50139 0.0
C381 C 0.67212 0.9024 0.52317 0.0
C382 C 0.62365 0.81817 0.5431 0.0
C383 C 0.67261 0.93847 0.5221 0.0
C384 C 0.60233 0.66433 0.53078 0.0
C385 C 0.60451 0.70105 0.53177 0.0
C386 C 0.65498 0.7854 0.51334 0.0
C387 C 0.64134 0.87709 0.52723 0.0
C388 C 0.64053 0.83856 0.52787 0.0
C389 C 0.63608 0.7261 0.52848 0.0
C390 C 0.63796 0.76495 0.5285 0.0
H391 H 0.58772 0.93274 0.53159 0.0
H392 H 0.58684 0.86988 0.53324 0.0
H393 H 0.66894 0.83651 0.50086 0.0
H394 H 0.68624 0.66789 0.52039 0.0
H395 H 0.69042 0.73223 0.52233 0.0
C396 C 0.83389 0.62511 0.82064 0.0
C397 C 0.8005 0.61433 0.80812 0.0
C398 C 0.86181 0.61164 0.81541 0.0
C399 C 0.87207 0.52869 0.79237 0.0
H400 H 0.9726 0.57694 0.80485 0.0
C401 C 0.96876 0.44517 0.81099 0.0
C402 C 0.99215 0.45817 0.82974 0.0
C403 C 0.95191 0.46784 0.80023 0.0
C404 C 0.94464 0.56301 0.80127 0.0
H405 H 0.7714 0.58364 0.77916 0.0
H406 H 0.82003 0.55938 0.77035 0.0
H407 H 0.92951 0.61238 0.80082 0.0
H408 H 1.01954 0.50623 0.85033 0.0
H409 H 0.98874 0.54504 0.83249 0.0
H410 H 0.88634 0.47953 0.7945 0.0
C411 C 0.82439 0.5781 0.78429 0.0
C412 C 0.92002 0.58335 0.79885 0.0
C413 C 0.7965 0.5918 0.78942 0.0
C414 C 1.00078 0.49504 0.83633 0.0
C415 C 0.9835 0.51754 0.8258 0.0
C416 C 0.89654 0.50841 0.79504 0.0
C417 C 0.8569 0.58691 0.79764 0.0
C418 C 0.88341 0.56634 0.7952 0.0
C419 C 0.95759 0.50385 0.80817 0.0
C420 C 0.93307 0.52528 0.80041 0.0
H421 H 0.83791 0.6421 0.83525 0.0
H422 H 0.8864 0.61858 0.82617 0.0
H423 H 0.84401 0.51477 0.78979 0.0
H424 H 0.96155 0.41698 0.80534 0.0
H425 H 0.9329 0.45657 0.78636 0.0
C426 C 0.2188 0.7759 0.1627 0.0
C427 C 0.21669 0.74021 0.16698 0.0
C428 C 0.25033 0.80308 0.16866 0.0
C429 C 0.33298 0.82627 0.20589 0.0
H430 H 0.36888 0.89478 0.16647 0.0
C431 C 0.47283 0.92442 0.22316 0.0
C432 C 0.47757 0.95942 0.21703 0.0
C433 C 0.44085 0.89815 0.21683 0.0
C434 C 0.35901 0.87622 0.1778 0.0
H435 H 0.24661 0.70526 0.18065 0.0
H436 H 0.30124 0.75278 0.19139 0.0
H437 H 0.31316 0.84838 0.15604 0.0
H438 H 0.45242 -0.00561 0.19951 0.0
H439 H 0.39622 0.94873 0.18874 0.0
H440 H 0.37835 0.85421 0.22777 0.0
C441 C 0.27834 0.75971 0.18355 0.0
C442 C 0.3271 0.84956 0.17178 0.0
C443 C 0.24694 0.73249 0.17744 0.0
C444 C 0.44965 0.96754 0.20431 0.0
C445 C 0.41748 0.94131 0.1981 0.0
C446 C 0.36469 0.85307 0.21197 0.0
C447 C 0.28041 0.7953 0.17921 0.0
C448 C 0.31387 0.82415 0.18572 0.0
C449 C 0.41262 0.90627 0.20434 0.0
C450 C 0.37831 0.87827 0.19796 0.0
H451 H 0.19593 0.78302 0.15499 0.0
H452 H 0.25098 0.83033 0.16533 0.0
H453 H 0.32317 0.80742 0.2171 0.0
H454 H 0.49408 0.9172 0.23269 0.0
H455 H 0.43845 0.87132 0.22156 0.0
C456 C 0.66702 0.19398 0.53251 0.0
C457 C 0.64096 0.16768 0.51913 0.0
C458 C 0.66523 0.22953 0.53428 0.0
C459 C 0.62983 0.29639 0.50801 0.0
H460 H 0.63631 0.34026 0.56491 0.0
C461 C 0.60439 0.43569 0.52509 0.0
C462 C 0.62454 0.45762 0.54282 0.0
C463 C 0.60654 0.40041 0.52127 0.0
C464 C 0.63504 0.32874 0.54891 0.0
H465 H 0.5933 0.15837 0.49653 0.0
H466 H 0.59057 0.2209 0.49943 0.0
H467 H 0.64055 0.27889 0.55958 0.0
H468 H 0.66383 0.46069 0.56994 0.0
H469 H 0.66864 0.39977 0.56299 0.0
H470 H 0.62517 0.3465 0.49729 0.0
C471 C 0.61219 0.21374 0.50861 0.0
C472 C 0.6373 0.29348 0.54589 0.0
C473 C 0.61369 0.17797 0.50704 0.0
C474 C 0.64761 0.44408 0.55633 0.0
C475 C 0.65016 0.40909 0.55238 0.0
C476 C 0.62805 0.33194 0.51103 0.0
C477 C 0.63763 0.23968 0.52251 0.0
C478 C 0.63483 0.277 0.52544 0.0
C479 C 0.62926 0.38655 0.53499 0.0
C480 C 0.63077 0.34863 0.53154 0.0
H481 H 0.68841 0.18702 0.54204 0.0
H482 H 0.68537 0.24913 0.54495 0.0
H483 H 0.62804 0.28429 0.49208 0.0
H484 H 0.58625 0.44552 0.51451 0.0
H485 H 0.58974 0.38378 0.50787 0.0
C486 C 0.31233 0.48791 0.76005 0.0
C487 C 0.3363 0.47825 0.77512 0.0
C488 C 0.27765 0.46606 0.75473 0.0
C489 C 0.20386 0.43648 0.76623 0.0
H490 H 0.17361 0.33329 0.76828 0.0
C491 C 0.10026 0.33506 0.8105 0.0
C492 C 0.07131 0.34974 0.80755 0.0
C493 C 0.12755 0.34396 0.79797 0.0
C494 C 0.18156 0.36211 0.76755 0.0
H495 H 0.34363 0.43648 0.79492 0.0
H496 H 0.28342 0.39851 0.7857 0.0
H497 H 0.23356 0.36163 0.76068 0.0
H498 H 1.04643 0.38333 0.78874 0.0
H499 H 0.094 0.39871 0.76646 0.0
H500 H 0.15308 0.43754 0.7745 0.0
C501 C 0.29131 0.42281 0.77785 0.0
C502 C 0.21584 0.3783 0.76316 0.0
C503 C 0.32594 0.44467 0.78318 0.0
C504 C 0.06869 0.37173 0.79117 0.0
C505 C 0.09596 0.38061 0.77854 0.0
C506 C 0.16971 0.42035 0.77069 0.0
C507 C 0.26631 0.43408 0.76435 0.0
C508 C 0.22787 0.41584 0.7634 0.0
C509 C 0.12633 0.36782 0.78229 0.0
C510 C 0.15873 0.38318 0.77238 0.0
H511 H 0.31981 0.51329 0.75321 0.0
H512 H 0.25917 0.47514 0.74399 0.0
H513 H 0.2123 0.4655 0.76676 0.0
H514 H 0.10273 0.31825 0.82324 0.0
H515 H 0.15068 0.33403 0.80157 0.0
C516 C 0.90623 0.27903 0.19155 0.0
C517 C 0.90326 0.30697 0.17899 0.0
C518 C 0.87587 0.25504 0.19689 0.0
C519 C 0.77941 0.24285 0.19917 0.0
H520 H 0.77604 0.1417 0.19633 0.0
C521 C 0.65725 0.13548 0.21879 0.0
C522 C 0.64615 0.10418 0.20489 0.0
C523 C 0.69013 0.1601 0.21797 0.0
C524 C 0.77649 0.16984 0.19714 0.0
H525 H 0.86594 0.33152 0.16217 0.0
H526 H 0.81306 0.28963 0.17134 0.0
H527 H 0.82997 0.18547 0.19011 0.0
H528 H 0.65995 0.07335 0.17946 0.0
H529 H 0.71718 0.11627 0.1778 0.0
H530 H 0.72544 0.22705 0.20542 0.0
C531 C 0.83887 0.2866 0.17741 0.0
C532 C 0.80759 0.19501 0.19382 0.0
C533 C 0.86922 0.31062 0.17212 0.0
C534 C 0.66833 0.0973 0.19045 0.0
C535 C 0.70112 0.12182 0.18959 0.0
C536 C 0.74827 0.21766 0.20249 0.0
C537 C 0.84178 0.25834 0.18975 0.0
C538 C 0.80933 0.23181 0.19454 0.0
C539 C 0.71231 0.15374 0.20319 0.0
C540 C 0.74627 0.18078 0.20125 0.0
H541 H 0.93207 0.27579 0.19737 0.0
H542 H 0.87914 0.23396 0.2067 0.0
H543 H 0.77995 0.27101 0.20013 0.0
H544 H 0.6403 0.14118 0.23001 0.0
H545 H 0.69808 0.18418 0.22883 0.0
C546 C 0.06371 0.4708 0.07189 0.0
C547 C 1.04611 0.49424 0.08072 0.0
C548 C 0.05996 0.46297 0.05004 0.0
C549 C 0.9995 0.45746 0.00183 0.0
H550 H 0.08263 0.46209 0.97362 0.0
C551 C 0.99021 0.43625 0.91095 0.0
C552 C 1.01396 0.41959 0.90234 0.0
C553 C 0.99357 0.44526 0.9327 0.0
C554 C 0.05906 0.46004 0.98125 0.0
H555 H 1.01075 0.52785 0.07359 0.0
H556 H 1.00367 0.51353 0.03524 0.0
H557 H 0.08991 0.47885 0.01149 0.0
H558 H 0.05939 0.3985 0.91009 0.0
H559 H 0.06416 0.41252 0.94803 0.0
H560 H 0.96849 0.43764 0.97184 0.0
C561 C 1.0205 0.50145 0.04533 0.0
C562 C 0.0633 0.46992 0.00294 0.0
C563 C 1.0247 0.50976 0.06723 0.0
C564 C 1.04043 0.41105 0.91613 0.0
C565 C 1.04353 0.41967 0.93792 0.0
C566 C 0.99519 0.4471 0.98017 0.0
C567 C 1.03814 0.47799 0.03656 0.0
C568 C 1.03358 0.46868 0.01343 0.0
C569 C 1.02049 0.43739 0.94647 0.0
C570 C 1.02493 0.44821 0.96958 0.0
H571 H 0.08051 0.4585 0.08185 0.0
H572 H 0.07365 0.4446 0.0437 0.0
H573 H 0.97613 0.45586 0.00961 0.0
H574 H 0.96907 0.44266 0.90088 0.0
H575 H 0.9755 0.45914 0.93861 0.0
C576 C 0.61546 0.01407 0.44366 0.0
C577 C 0.63594 0.04618 0.4551 0.0
C578 C 0.61096 0.01083 0.4216 0.0
C579 C 0.64529 0.0545 0.37471 0.0
H580 H 0.55341 -0.00193 0.34654 0.0
C581 C 0.59147 0.05451 0.28567 0.0
C582 C 0.5754 0.02043 0.27482 0.0
C583 C 0.60258 0.05798 0.30747 0.0
C584 C 0.57929 0.0137 0.35419 0.0
H585 H 0.66815 0.10002 0.45243 0.0
H586 H 0.65915 0.09498 0.41391 0.0
H587 H 0.5649 0.00384 0.38487 0.0
H588 H 0.56087 0.96317 0.27823 0.0
H589 H 0.57917 0.96945 0.31624 0.0
H590 H 0.6588 0.06532 0.34368 0.0
C591 C 0.64729 0.07185 0.4219 0.0
C592 C 0.58604 0.01687 0.3762 0.0
C593 C 0.65232 0.07485 0.44402 0.0
C594 C 0.5722 0.9899 0.28613 0.0
C595 C 0.58283 0.99342 0.30788 0.0
C596 C 0.63826 0.05178 0.35262 0.0
C597 C 0.62623 0.03989 0.41037 0.0
C598 C 0.61924 0.03703 0.38681 0.0
C599 C 0.59749 0.0275 0.31883 0.0
C600 C 0.60529 0.03108 0.34218 0.0
H601 H 0.60288 0.99133 0.45175 0.0
H602 H 0.5954 0.98544 0.41337 0.0
H603 H 0.67131 0.06989 0.38223 0.0
H604 H 0.59413 0.07862 0.27754 0.0
H605 H 0.61371 0.08458 0.31558 0.0
C606 C 0.55066 0.57204 0.75547 0.0
C607 C 0.57592 0.59909 0.76884 0.0
C608 C 0.5536 0.56736 0.734 0.0
C609 C 0.59349 0.61294 0.69026 0.0
H610 H 0.58163 0.51601 0.66555 0.0
C611 C 0.62703 0.58143 0.60637 0.0
C612 C 0.60565 0.5501 0.59451 0.0
C613 C 0.62231 0.58906 0.62734 0.0
C614 C 0.58447 0.54321 0.67206 0.0
H615 H 0.62379 0.64281 0.77 0.0
H616 H 0.62876 0.63464 0.73244 0.0
H617 H 0.5753 0.52614 0.70262 0.0
H618 H 0.56133 0.50329 0.59478 0.0
H619 H 0.55244 0.51693 0.63109 0.0
H620 H 0.60237 0.63001 0.65962 0.0
C621 C 0.60664 0.61718 0.73862 0.0
C622 C 0.58093 0.54899 0.69335 0.0
C623 C 0.60388 0.6217 0.76016 0.0
C624 C 0.57857 0.52733 0.6037 0.0
C625 C 0.57363 0.53508 0.62454 0.0
C626 C 0.59677 0.60713 0.66887 0.0
C627 C 0.5817 0.58975 0.72536 0.0
C628 C 0.58537 0.58389 0.70269 0.0
C629 C 0.59589 0.56564 0.63679 0.0
C630 C 0.59224 0.57216 0.65949 0.0
H631 H 0.52877 0.55415 0.76161 0.0
H632 H 0.53376 0.54624 0.72411 0.0
H633 H 0.59674 0.64011 0.697 0.0
H634 H 0.64825 0.59931 0.59968 0.0
H635 H 0.64014 0.61266 0.63635 0.0
C636 C 0.67003 0.06053 0.59965 0.0
C637 C 0.6445 0.07014 0.58566 0.0
C638 C 0.66824 0.06244 0.62144 0.0
C639 C 0.60512 0.0656 0.65998 0.0
H640 H 0.68995 0.10604 0.70002 0.0
C641 C 0.64287 0.13634 0.75016 0.0
C642 C 0.61661 0.11358 0.75999 0.0
C643 C 0.64885 0.12668 0.72978 0.0
C644 C 0.66601 0.09471 0.68904 0.0
H645 H 0.59737 0.08976 0.58367 0.0
H646 H 0.59461 0.09352 0.62138 0.0
H647 H 0.69493 0.09832 0.66243 0.0
H648 H 0.57697 0.06212 0.75636 0.0
H649 H 0.58796 0.04489 0.72097 0.0
H650 H 0.57598 0.06336 0.68633 0.0
C651 C 0.61563 0.08385 0.6156 0.0
C652 C 0.66891 0.08994 0.66751 0.0
C653 C 0.61741 0.08196 0.59393 0.0
C654 C 0.5975 0.08023 0.74929 0.0
C655 C 0.60353 0.07052 0.7289 0.0
C656 C 0.60222 0.0704 0.68145 0.0
C657 C 0.64084 0.0739 0.62963 0.0
C658 C 0.6384 0.07599 0.65269 0.0
C659 C 0.62879 0.09395 0.71873 0.0
C660 C 0.63254 0.08559 0.69622 0.0
H661 H 0.6912 0.05123 0.59379 0.0
H662 H 0.68797 0.05441 0.63182 0.0
H663 H 0.58114 0.05422 0.64903 0.0
H664 H 0.65846 0.16198 0.75809 0.0
H665 H 0.6683 0.14555 0.7224 0.0
C666 C 0.5827 0.57996 0.9093 0.0
C667 C 0.56262 0.60017 0.89848 0.0
C668 C 0.57753 0.57165 0.92985 0.0
C669 C 0.54982 0.60092 0.97833 0.0
H670 H 0.53496 0.5014 0.99017 0.0
C671 C 0.54083 0.55845 0.06345 0.0
C672 C 0.55971 0.53343 0.06919 0.0
C673 C 0.53477 0.56523 0.04224 0.0
C674 C 0.53939 0.52938 0.98723 0.0
H675 H 0.52197 0.62827 0.90096 0.0
H676 H 0.51375 0.61455 0.93734 0.0
H677 H 0.53849 0.51725 0.95404 0.0
H678 H 0.58504 0.49439 0.057 0.0
H679 H 0.57573 0.50695 0.0205 0.0
H680 H 0.55266 0.61345 0.01163 0.0
C681 C 0.53313 0.60485 0.92967 0.0
C682 C 0.54122 0.53837 0.9665 0.0
C683 C 0.5378 0.61261 0.90888 0.0
C684 C 0.57095 0.51429 0.05319 0.0
C685 C 0.56512 0.52117 0.03213 0.0
C686 C 0.54856 0.59201 -0.00081 0.0
C687 C 0.55261 0.58386 0.9402 0.0
C688 C 0.54715 0.57427 0.9619 0.0
C689 C 0.5474 0.54709 0.02634 0.0
C690 C 0.54413 0.55618 0.00398 0.0
H691 H 0.60189 0.56979 0.90173 0.0
H692 H 0.59314 0.55572 0.93771 0.0
H693 H 0.55452 0.62883 0.97517 0.0
H694 H 0.53185 0.57366 0.07541 0.0
H695 H 0.52059 0.58502 0.03836 0.0
C696 C 0.08239 0.56584 0.22228 0.0
C697 C 0.06646 0.53177 0.21155 0.0
C698 C 0.08483 0.57084 0.24429 0.0
C699 C 1.04845 0.52698 0.29056 0.0
H700 H 0.13213 0.59386 0.32189 0.0
C701 C 0.08986 0.53495 0.38156 0.0
C702 C 0.10166 0.56974 0.39203 0.0
C703 C 0.08207 0.53008 0.35949 0.0
C704 C 0.10847 0.57529 0.31332 0.0
H705 H 1.04117 0.47608 0.2155 0.0
H706 H 1.04662 0.48444 0.25375 0.0
H707 H 0.12658 0.58605 0.28352 0.0
H708 H 0.1117 0.62653 0.38769 0.0
H709 H 0.09894 0.61796 0.34931 0.0
H710 H 1.03115 0.51552 0.32066 0.0
C711 C 0.05621 0.50765 0.24526 0.0
C712 C 0.10516 0.57092 0.2913 0.0
C713 C 1.05332 0.50278 0.22328 0.0
C714 C 0.10363 0.59939 0.38008 0.0
C715 C 0.09625 0.59455 0.35811 0.0
C716 C 1.05204 0.53101 0.31263 0.0
C717 C 0.07187 0.54176 0.25609 0.0
C718 C 0.07508 0.54675 0.27959 0.0
C719 C 0.0862 0.55992 0.34757 0.0
C720 C 0.08203 0.55531 0.3242 0.0
H721 H 0.0925 0.58875 0.21365 0.0
H722 H 0.09653 0.59763 0.25201 0.0
H723 H 1.0246 0.50859 0.28211 0.0
H724 H 0.08817 0.51158 0.39031 0.0
H725 H 0.07438 0.50308 0.3517 0.0
loop_
_geom_bond_atom_site_label_1
_geom_bond_atom_site_label_2
_geom_bond_distance
_geom_bond_site_symmetry_2
_ccdc_geom_bond_type
Dy0 O3 2.307 1_455 S
Dy0 O5 2.395 . S
Dy0 O6 2.379 . S
Dy0 O8 2.339 . S
Dy0 O10 2.298 . S
Dy0 O14 2.275 . S
Dy0 C22 2.738 . S
Dy1 O4 2.295 1_455 S
Dy1 O7 2.275 . S
Dy1 O9 2.310 . S
Dy1 O11 2.393 1_455 S
Dy1 O12 2.377 1_455 S
Dy1 O15 2.339 . S
Dy1 C31 2.736 1_455 S
C2 O14 1.254 . S
C2 O15 1.257 . S
O3 Dy0 2.307 1_655 S
O3 C13 1.266 . S
O4 Dy1 2.295 1_655 S
O4 C13 1.236 . S
O5 Dy0 2.395 . S
O5 C22 1.255 . S
O6 Dy0 2.379 . S
O6 C22 1.249 . S
O7 Dy1 2.275 . S
O7 C23 1.254 . S
O8 Dy0 2.339 . S
O8 C23 1.257 . S
O9 Dy1 2.310 . S
O9 C24 1.266 . S
O10 Dy0 2.298 . S
O10 C24 1.236 . S
O11 Dy1 2.393 1_655 S
O11 C31 1.255 . S
O12 Dy1 2.377 1_655 S
O12 C31 1.249 . S
C13 O3 1.266 . S
C13 O4 1.236 . S
O14 Dy0 2.275 . S
O14 C2 1.254 . S
O15 Dy1 2.339 . S
O15 C2 1.257 . S
C16 C19 1.344 . S
C16 C20 1.328 . S
C16 C22 1.516 . S
C17 C18 1.304 . S
C17 C21 1.323 . S
C18 C17 1.304 . S
C18 C19 1.371 . S
C18 H32 0.930 . S
C19 C16 1.344 . S
C19 C18 1.371 . S
C19 H33 0.931 . S
C20 C16 1.328 . S
C20 C21 1.433 . S
C20 H34 0.931 . S
C21 C17 1.323 . S
C21 C20 1.433 . S
C21 H35 0.933 . S
C22 Dy0 2.738 . S
C22 O5 1.255 . S
C22 O6 1.249 . S
C22 C16 1.516 . S
C23 O7 1.254 . S
C23 O8 1.257 . S
C24 O9 1.266 . S
C24 O10 1.236 . S
C25 C28 1.344 . S
C25 C29 1.328 . S
C25 C31 1.516 . S
C26 C27 1.304 . S
C26 C30 1.323 . S
C27 C26 1.304 . S
C27 C28 1.371 . S
C27 H36 0.930 . S
C28 C25 1.344 . S
C28 C27 1.371 . S
C28 H37 0.931 . S
C29 C25 1.328 . S
C29 C30 1.433 . S
C29 H38 0.931 . S
C30 C26 1.323 . S
C30 C29 1.433 . S
C30 H39 0.933 . S
C31 Dy1 2.736 1_655 S
C31 O11 1.255 . S
C31 O12 1.249 . S
C31 C25 1.516 . S
H32 C18 0.930 . S
H33 C19 0.931 . S
H34 C20 0.931 . S
H35 C21 0.933 . S
H36 C27 0.930 . S
H37 C28 0.931 . S
H38 C29 0.931 . S
H39 C30 0.933 . S
Dy40 O43 2.307 . S
Dy40 O45 2.395 1_545 S
Dy40 O46 2.379 1_545 S
Dy40 O48 2.339 . S
Dy40 O50 2.298 1_545 S
Dy40 O54 2.275 . S
Dy40 C62 2.738 1_545 S
Dy41 O44 2.298 . S
Dy41 O47 2.275 . S
Dy41 O49 2.307 . S
Dy41 O51 2.395 . S
Dy41 O52 2.379 . S
Dy41 O55 2.339 . S
Dy41 C71 2.738 . S
C42 O54 1.254 . S
C42 O55 1.257 . S
O43 Dy40 2.307 . S
O43 C53 1.266 . S
O44 Dy41 2.298 . S
O44 C53 1.236 . S
O45 Dy40 2.395 1_565 S
O45 C62 1.255 . S
O46 Dy40 2.379 1_565 S
O46 C62 1.249 . S
O47 Dy41 2.275 . S
O47 C63 1.254 . S
O48 Dy40 2.339 . S
O48 C63 1.257 . S
O49 Dy41 2.307 . S
O49 C64 1.266 1_545 S
O50 Dy40 2.298 1_565 S
O50 C64 1.236 . S
O51 Dy41 2.395 . S
O51 C71 1.255 . S
O52 Dy41 2.379 . S
O52 C71 1.249 . S
C53 O43 1.266 . S
C53 O44 1.236 . S
O54 Dy40 2.275 . S
O54 C42 1.254 . S
O55 Dy41 2.339 . S
O55 C42 1.257 . S
C56 C59 1.344 . S
C56 C60 1.328 . S
C56 C62 1.516 . S
C57 C58 1.304 . S
C57 C61 1.323 . S
C58 C57 1.304 . S
C58 C59 1.371 . S
C58 H72 0.930 . S
C59 C56 1.344 . S
C59 C58 1.371 . S
C59 H73 0.931 . S
C60 C56 1.328 . S
C60 C61 1.433 . S
C60 H74 0.931 . S
C61 C57 1.323 . S
C61 C60 1.433 . S
C61 H75 0.933 . S
C62 Dy40 2.738 1_565 S
C62 O45 1.255 . S
C62 O46 1.249 . S
C62 C56 1.516 . S
C63 O47 1.254 . S
C63 O48 1.257 . S
C64 O49 1.266 1_565 S
C64 O50 1.236 . S
C65 C68 1.344 . S
C65 C69 1.328 . S
C65 C71 1.516 . S
C66 C67 1.304 . S
C66 C70 1.323 . S
C67 C66 1.304 . S
C67 C68 1.371 . S
C67 H76 0.930 . S
C68 C65 1.344 . S
C68 C67 1.371 . S
C68 H77 0.931 . S
C69 C65 1.328 . S
C69 C70 1.433 . S
C69 H78 0.931 . S
C70 C66 1.323 . S
C70 C69 1.433 . S
C70 H79 0.933 . S
C71 Dy41 2.738 . S
C71 O51 1.255 . S
C71 O52 1.249 . S
C71 C65 1.516 . S
H72 C58 0.930 . S
H73 C59 0.931 . S
H74 C60 0.931 . S
H75 C61 0.933 . S
H76 C67 0.930 . S
H77 C68 0.931 . S
H78 C69 0.931 . S
H79 C70 0.933 . S
Dy80 O83 2.307 . S
Dy80 O85 2.395 . S
Dy80 O86 2.379 . S
Dy80 O88 2.339 . S
Dy80 O90 2.298 . S
Dy80 O94 2.275 . S
Dy80 C102 2.738 . S
Dy81 O84 2.298 . S
Dy81 O87 2.275 . S
Dy81 O89 2.307 . S
Dy81 O91 2.395 . S
Dy81 O92 2.379 . S
Dy81 O95 2.339 . S
Dy81 C111 2.738 . S
C82 O94 1.254 . S
C82 O95 1.257 . S
O83 Dy80 2.307 . S
O83 C93 1.266 . S
O84 Dy81 2.298 . S
O84 C93 1.236 . S
O85 Dy80 2.395 . S
O85 C102 1.255 . S
O86 Dy80 2.379 . S
O86 C102 1.249 . S
O87 Dy81 2.275 . S
O87 C103 1.254 . S
O88 Dy80 2.339 . S
O88 C103 1.257 . S
O89 Dy81 2.307 . S
O89 C104 1.266 . S
O90 Dy80 2.298 . S
O90 C104 1.236 . S
O91 Dy81 2.395 . S
O91 C111 1.255 . S
O92 Dy81 2.379 . S
O92 C111 1.249 . S
C93 O83 1.266 . S
C93 O84 1.236 . S
O94 Dy80 2.275 . S
O94 C82 1.254 . S
O95 Dy81 2.339 . S
O95 C82 1.257 . S
C96 C99 1.344 . S
C96 C100 1.328 . S
C96 C102 1.516 . S
C97 C98 1.304 . S
C97 C101 1.323 . S
C98 C97 1.304 . S
C98 C99 1.371 . S
C98 H112 0.930 . S
C99 C96 1.344 . S
C99 C98 1.371 . S
C99 H113 0.931 . S
C100 C96 1.328 . S
C100 C101 1.433 . S
C100 H114 0.931 . S
C101 C97 1.323 . S
C101 C100 1.433 . S
C101 H115 0.933 . S
C102 Dy80 2.738 . S
C102 O85 1.255 . S
C102 O86 1.249 . S
C102 C96 1.516 . S
C103 O87 1.254 . S
C103 O88 1.257 . S
C104 O89 1.266 . S
C104 O90 1.236 . S
C105 C108 1.344 . S
C105 C109 1.328 . S
C105 C111 1.516 . S
C106 C107 1.304 . S
C106 C110 1.323 . S
C107 C106 1.304 . S
C107 C108 1.371 . S
C107 H116 0.930 . S
C108 C105 1.344 . S
C108 C107 1.371 . S
C108 H117 0.931 . S
C109 C105 1.328 . S
C109 C110 1.433 . S
C109 H118 0.931 . S
C110 C106 1.323 . S
C110 C109 1.433 . S
C110 H119 0.933 . S
C111 Dy81 2.738 . S
C111 O91 1.255 . S
C111 O92 1.249 . S
C111 C105 1.516 . S
H112 C98 0.930 . S
H113 C99 0.931 . S
H114 C100 0.931 . S
H115 C101 0.933 . S
H116 C107 0.930 . S
H117 C108 0.931 . S
H118 C109 0.931 . S
H119 C110 0.933 . S
H120 C123 0.929 . S
H121 C126 0.929 . S
H122 C128 0.930 . S
C123 H120 0.929 . S
C123 C124 1.398 . S
C123 C125 1.396 . S
C124 C123 1.398 . S
C124 C128 1.407 . S
C125 C123 1.396 . S
C125 C126 1.394 . S
C126 H121 0.929 . S
C126 C125 1.394 . S
C126 C127 1.382 . S
C127 C126 1.382 . S
C127 C128 1.392 . S
C127 N129 1.420 . S
C128 H122 0.930 . S
C128 C124 1.407 . S
C128 C127 1.392 . S
N129 C127 1.420 . S
N129 C130 1.244 . S
C130 N129 1.244 . S
H131 C134 0.929 . S
H132 C137 0.929 . S
H133 C139 0.930 . S
C134 H131 0.929 . S
C134 C135 1.398 . S
C134 C136 1.396 . S
C135 C134 1.398 . S
C135 C139 1.407 . S
C136 C134 1.396 . S
C136 C137 1.394 . S
C137 H132 0.929 . S
C137 C136 1.394 . S
C137 C138 1.382 . S
C138 C137 1.382 . S
C138 C139 1.392 . S
C138 N140 1.420 . S
C139 H133 0.930 . S
C139 C135 1.407 . S
C139 C138 1.392 . S
N140 C138 1.420 . S
N140 C141 1.244 . S
C141 N140 1.244 . S
H142 C145 0.929 1_655 S
H143 C148 0.929 . S
H144 C150 0.930 . S
C145 H142 0.929 1_455 S
C145 C146 1.398 . S
C145 C147 1.396 . S
C146 C145 1.398 . S
C146 C150 1.416 . S
C147 C145 1.396 . S
C147 C148 1.394 . S
C148 H143 0.929 . S
C148 C147 1.394 . S
C148 C149 1.382 . S
C149 C148 1.382 . S
C149 C150 1.392 . S
C149 N151 1.420 . S
C150 H144 0.930 . S
C150 C146 1.416 . S
C150 C149 1.392 . S
N151 C149 1.420 . S
N151 C152 1.244 . S
C152 N151 1.244 . S
H153 C156 0.929 . S
H154 C159 0.929 1_655 S
H155 C161 0.930 . S
C156 H153 0.929 . S
C156 C157 1.398 . S
C156 C158 1.396 . S
C157 C156 1.398 . S
C157 C161 1.407 . S
C158 C156 1.396 . S
C158 C159 1.394 . S
C159 H154 0.929 1_455 S
C159 C158 1.394 . S
C159 C160 1.382 . S
C160 C159 1.382 . S
C160 C161 1.392 . S
C160 N162 1.420 1_455 S
C161 H155 0.930 . S
C161 C157 1.407 . S
C161 C160 1.392 . S
N162 C160 1.420 1_655 S
N162 C163 1.244 . S
C163 N162 1.244 . S
H164 C167 0.929 . S
H165 C170 0.929 . S
H166 C172 0.930 . S
C167 H164 0.929 . S
C167 C168 1.398 . S
C167 C169 1.396 . S
C168 C167 1.398 . S
C168 C172 1.407 . S
C169 C167 1.396 . S
C169 C170 1.394 1_545 S
C170 H165 0.929 . S
C170 C169 1.394 1_565 S
C170 C171 1.381 1_565 S
C171 C170 1.381 1_545 S
C171 C172 1.401 . S
C171 N173 1.412 1_545 S
C172 H166 0.930 . S
C172 C168 1.407 . S
C172 C171 1.401 . S
N173 C171 1.412 1_565 S
N173 C174 1.244 . S
C174 N173 1.244 . S
H175 C178 0.929 . S
H176 C181 0.929 . S
H177 C183 0.930 . S
C178 H175 0.929 . S
C178 C179 1.398 . S
C178 C180 1.396 . S
C179 C178 1.398 . S
C179 C183 1.407 . S
C180 C178 1.396 . S
C180 C181 1.394 . S
C181 H176 0.929 . S
C181 C180 1.394 . S
C181 C182 1.382 . S
C182 C181 1.382 . S
C182 C183 1.392 . S
C182 N184 1.420 . S
C183 H177 0.930 . S
C183 C179 1.407 . S
C183 C182 1.392 . S
N184 C182 1.420 . S
N184 C185 1.244 . S
C185 N184 1.244 . S
C186 C187 1.349 . S
C186 C188 1.327 . S
C186 H211 0.950 . S
C187 C186 1.349 . S
C187 C203 1.349 . S
C188 C186 1.327 . S
C188 C207 1.429 . S
C188 H212 0.950 . S
C189 C206 1.574 . S
C189 C208 1.368 . S
C189 H213 0.949 . S
H190 C194 0.949 . S
C191 C192 1.349 . S
C191 C193 1.327 . S
C191 H214 0.950 . S
C192 C191 1.349 . S
C192 C204 1.349 . S
C193 C191 1.327 . S
C193 C209 1.429 . S
C193 H215 0.950 . S
C194 H190 0.949 . S
C194 C202 1.574 . S
C194 C210 1.368 . S
H195 C203 0.950 . S
H196 C201 0.950 . S
H197 C202 0.949 . S
H198 C204 0.950 . S
H199 C205 0.950 . S
H200 C206 0.949 . S
C201 H196 0.950 . S
C201 C203 1.327 . S
C201 C207 1.429 . S
C202 C194 1.574 . S
C202 H197 0.949 . S
C202 C208 1.368 . S
C203 C187 1.349 . S
C203 H195 0.950 . S
C203 C201 1.327 . S
C204 C192 1.349 . S
C204 H198 0.950 . S
C204 C205 1.327 . S
C205 H199 0.950 . S
C205 C204 1.327 . S
C205 C209 1.429 . S
C206 C189 1.574 . S
C206 H200 0.949 . S
C206 C210 1.368 . S
C207 C188 1.429 . S
C207 C201 1.429 . S
C207 C208 1.523 . S
C208 C189 1.368 . S
C208 C202 1.368 . S
C208 C207 1.523 . S
C209 C193 1.429 . S
C209 C205 1.429 . S
C209 C210 1.523 . S
C210 C194 1.368 . S
C210 C206 1.368 . S
C210 C209 1.523 . S
H211 C186 0.950 . S
H212 C188 0.950 . S
H213 C189 0.949 . S
H214 C191 0.950 . S
H215 C193 0.950 . S
C216 C217 1.349 . S
C216 C218 1.327 . S
C216 H241 0.950 . S
C217 C216 1.349 . S
C217 C233 1.349 . S
C218 C216 1.327 . S
C218 C237 1.429 . S
C218 H242 0.950 . S
C219 C236 1.574 . S
C219 C238 1.368 . S
C219 H243 0.949 . S
H220 C224 0.949 . S
C221 C222 1.349 . S
C221 C223 1.327 . S
C221 H244 0.950 . S
C222 C221 1.349 . S
C222 C234 1.349 . S
C223 C221 1.327 . S
C223 C239 1.429 . S
C223 H245 0.950 . S
C224 H220 0.949 . S
C224 C232 1.574 . S
C224 C240 1.368 . S
H225 C233 0.950 . S
H226 C231 0.950 . S
H227 C232 0.949 . S
H228 C234 0.950 . S
H229 C235 0.950 . S
H230 C236 0.949 . S
C231 H226 0.950 . S
C231 C233 1.327 . S
C231 C237 1.429 . S
C232 C224 1.574 . S
C232 H227 0.949 . S
C232 C238 1.368 . S
C233 C217 1.349 . S
C233 H225 0.950 . S
C233 C231 1.327 . S
C234 C222 1.349 . S
C234 H228 0.950 . S
C234 C235 1.327 . S
C235 H229 0.950 . S
C235 C234 1.327 . S
C235 C239 1.429 . S
C236 C219 1.574 . S
C236 H230 0.949 . S
C236 C240 1.368 . S
C237 C218 1.429 . S
C237 C231 1.429 . S
C237 C238 1.523 . S
C238 C219 1.368 . S
C238 C232 1.368 . S
C238 C237 1.523 . S
C239 C223 1.429 . S
C239 C235 1.429 . S
C239 C240 1.523 . S
C240 C224 1.368 . S
C240 C236 1.368 . S
C240 C239 1.523 . S
H241 C216 0.950 . S
H242 C218 0.950 . S
H243 C219 0.949 . S
H244 C221 0.950 . S
H245 C223 0.950 . S
C246 C247 1.349 . S
C246 C248 1.327 . S
C246 H271 0.950 . S
C247 C246 1.349 . S
C247 C263 1.349 . S
C248 C246 1.327 . S
C248 C267 1.429 . S
C248 H272 0.950 . S
C249 C266 1.574 . S
C249 C268 1.368 . S
C249 H273 0.949 . S
H250 C254 0.949 . S
C251 C252 1.349 . S
C251 C253 1.327 . S
C251 H274 0.950 . S
C252 C251 1.349 . S
C252 C264 1.349 . S
C253 C251 1.327 . S
C253 C269 1.429 . S
C253 H275 0.950 . S
C254 H250 0.949 . S
C254 C262 1.574 . S
C254 C270 1.368 . S
H255 C263 0.950 . S
H256 C261 0.950 . S
H257 C262 0.949 . S
H258 C264 0.950 . S
H259 C265 0.950 . S
H260 C266 0.949 . S
C261 H256 0.950 . S
C261 C263 1.327 . S
C261 C267 1.429 . S
C262 C254 1.574 . S
C262 H257 0.949 . S
C262 C268 1.368 . S
C263 C247 1.349 . S
C263 H255 0.950 . S
C263 C261 1.327 . S
C264 C252 1.349 . S
C264 H258 0.950 . S
C264 C265 1.327 . S
C265 H259 0.950 . S
C265 C264 1.327 . S
C265 C269 1.429 . S
C266 C249 1.574 . S
C266 H260 0.949 . S
C266 C270 1.368 . S
C267 C248 1.429 . S
C267 C261 1.429 . S
C267 C268 1.523 . S
C268 C249 1.368 . S
C268 C262 1.368 . S
C268 C267 1.523 . S
C269 C253 1.429 . S
C269 C265 1.429 . S
C269 C270 1.523 . S
C270 C254 1.368 . S
C270 C266 1.368 . S
C270 C269 1.523 . S
H271 C246 0.950 . S
H272 C248 0.950 . S
H273 C249 0.949 . S
H274 C251 0.950 . S
H275 C253 0.950 . S
C276 C277 1.349 . S
C276 C278 1.327 . S
C276 H301 0.950 . S
C277 C276 1.349 . S
C277 C293 1.349 . S
C278 C276 1.327 . S
C278 C297 1.429 . S
C278 H302 0.950 . S
C279 C296 1.574 . S
C279 C298 1.368 . S
C279 H303 0.949 . S
H280 C284 0.949 . S
C281 C282 1.349 . S
C281 C283 1.327 . S
C281 H304 0.950 . S
C282 C281 1.349 . S
C282 C294 1.349 . S
C283 C281 1.327 . S
C283 C299 1.429 . S
C283 H305 0.950 . S
C284 H280 0.949 . S
C284 C292 1.574 . S
C284 C300 1.368 . S
H285 C293 0.950 . S
H286 C291 0.950 . S
H287 C292 0.949 . S
H288 C294 0.950 . S
H289 C295 0.950 . S
H290 C296 0.949 . S
C291 H286 0.950 . S
C291 C293 1.327 . S
C291 C297 1.429 . S
C292 C284 1.574 . S
C292 H287 0.949 . S
C292 C298 1.368 . S
C293 C277 1.349 . S
C293 H285 0.950 . S
C293 C291 1.327 . S
C294 C282 1.349 . S
C294 H288 0.950 . S
C294 C295 1.327 . S
C295 H289 0.950 . S
C295 C294 1.327 . S
C295 C299 1.429 . S
C296 C279 1.574 . S
C296 H290 0.949 . S
C296 C300 1.368 . S
C297 C278 1.429 . S
C297 C291 1.429 . S
C297 C298 1.523 . S
C298 C279 1.368 . S
C298 C292 1.368 . S
C298 C297 1.523 . S
C299 C283 1.429 . S
C299 C295 1.429 . S
C299 C300 1.523 . S
C300 C284 1.368 . S
C300 C296 1.368 . S
C300 C299 1.523 . S
H301 C276 0.950 . S
H302 C278 0.950 . S
H303 C279 0.949 . S
H304 C281 0.950 . S
H305 C283 0.950 . S
C306 C307 1.349 . S
C306 C308 1.327 . S
C306 H331 0.950 . S
C307 C306 1.349 . S
C307 C323 1.349 . S
C308 C306 1.327 . S
C308 C327 1.429 . S
C308 H332 0.950 . S
C309 C326 1.574 . S
C309 C328 1.368 . S
C309 H333 0.949 . S
H310 C314 0.949 . S
C311 C312 1.349 . S
C311 C313 1.327 . S
C311 H334 0.950 . S
C312 C311 1.349 . S
C312 C324 1.349 . S
C313 C311 1.327 . S
C313 C329 1.429 . S
C313 H335 0.950 . S
C314 H310 0.949 . S
C314 C322 1.574 . S
C314 C330 1.368 . S
H315 C323 0.950 . S
H316 C321 0.950 . S
H317 C322 0.949 . S
H318 C324 0.950 . S
H319 C325 0.950 . S
H320 C326 0.949 . S
C321 H316 0.950 . S
C321 C323 1.327 . S
C321 C327 1.429 . S
C322 C314 1.574 . S
C322 H317 0.949 . S
C322 C328 1.368 . S
C323 C307 1.349 . S
C323 H315 0.950 . S
C323 C321 1.327 . S
C324 C312 1.349 . S
C324 H318 0.950 . S
C324 C325 1.327 . S
C325 H319 0.950 . S
C325 C324 1.327 . S
C325 C329 1.429 . S
C326 C309 1.574 . S
C326 H320 0.949 . S
C326 C330 1.368 . S
C327 C308 1.429 . S
C327 C321 1.429 . S
C327 C328 1.523 . S
C328 C309 1.368 . S
C328 C322 1.368 . S
C328 C327 1.523 . S
C329 C313 1.429 . S
C329 C325 1.429 . S
C329 C330 1.523 . S
C330 C314 1.368 . S
C330 C326 1.368 . S
C330 C329 1.523 . S
H331 C306 0.950 . S
H332 C308 0.950 . S
H333 C309 0.949 . S
H334 C311 0.950 . S
H335 C313 0.950 . S
C336 C337 1.349 . S
C336 C338 1.327 . S
C336 H361 0.950 . S
C337 C336 1.349 . S
C337 C353 1.349 . S
C338 C336 1.327 . S
C338 C357 1.429 . S
C338 H362 0.950 . S
C339 C356 1.574 . S
C339 C358 1.368 . S
C339 H363 0.949 . S
H340 C344 0.949 . S
C341 C342 1.349 . S
C341 C343 1.327 . S
C341 H364 0.950 . S
C342 C341 1.349 . S
C342 C354 1.349 . S
C343 C341 1.327 . S
C343 C359 1.429 . S
C343 H365 0.950 . S
C344 H340 0.949 . S
C344 C352 1.574 . S
C344 C360 1.368 . S
H345 C353 0.950 . S
H346 C351 0.950 . S
H347 C352 0.949 . S
H348 C354 0.950 . S
H349 C355 0.950 . S
H350 C356 0.949 . S
C351 H346 0.950 . S
C351 C353 1.327 . S
C351 C357 1.429 . S
C352 C344 1.574 . S
C352 H347 0.949 . S
C352 C358 1.368 . S
C353 C337 1.349 . S
C353 H345 0.950 . S
C353 C351 1.327 . S
C354 C342 1.349 . S
C354 H348 0.950 . S
C354 C355 1.327 . S
C355 H349 0.950 . S
C355 C354 1.327 . S
C355 C359 1.429 . S
C356 C339 1.574 . S
C356 H350 0.949 . S
C356 C360 1.368 . S
C357 C338 1.429 . S
C357 C351 1.429 . S
C357 C358 1.523 . S
C358 C339 1.368 . S
C358 C352 1.368 . S
C358 C357 1.523 . S
C359 C343 1.429 . S
C359 C355 1.429 . S
C359 C360 1.523 . S
C360 C344 1.368 . S
C360 C356 1.368 . S
C360 C359 1.523 . S
H361 C336 0.950 . S
H362 C338 0.950 . S
H363 C339 0.949 . S
H364 C341 0.950 . S
H365 C343 0.950 . S
C366 C367 1.349 . S
C366 C368 1.327 . S
C366 H391 0.950 . S
C367 C366 1.349 . S
C367 C383 1.349 . S
C368 C366 1.327 . S
C368 C387 1.429 . S
C368 H392 0.950 . S
C369 C386 1.574 . S
C369 C388 1.368 . S
C369 H393 0.949 . S
H370 C374 0.949 . S
C371 C372 1.349 . S
C371 C373 1.327 . S
C371 H394 0.950 . S
C372 C371 1.349 . S
C372 C384 1.349 . S
C373 C371 1.327 . S
C373 C389 1.429 . S
C373 H395 0.950 . S
C374 H370 0.949 . S
C374 C382 1.574 . S
C374 C390 1.368 . S
H375 C383 0.950 . S
H376 C381 0.950 . S
H377 C382 0.949 . S
H378 C384 0.950 . S
H379 C385 0.950 . S
H380 C386 0.949 . S
C381 H376 0.950 . S
C381 C383 1.327 . S
C381 C387 1.429 . S
C382 C374 1.574 . S
C382 H377 0.949 . S
C382 C388 1.368 . S
C383 C367 1.349 . S
C383 H375 0.950 . S
C383 C381 1.327 . S
C384 C372 1.349 . S
C384 H378 0.950 . S
C384 C385 1.327 . S
C385 H379 0.950 . S
C385 C384 1.327 . S
C385 C389 1.429 . S
C386 C369 1.574 . S
C386 H380 0.949 . S
C386 C390 1.368 . S
C387 C368 1.429 . S
C387 C381 1.429 . S
C387 C388 1.523 . S
C388 C369 1.368 . S
C388 C382 1.368 . S
C388 C387 1.523 . S
C389 C373 1.429 . S
C389 C385 1.429 . S
C389 C390 1.523 . S
C390 C374 1.368 . S
C390 C386 1.368 . S
C390 C389 1.523 . S
H391 C366 0.950 . S
H392 C368 0.950 . S
H393 C369 0.949 . S
H394 C371 0.950 . S
H395 C373 0.950 . S
C396 C397 1.349 . S
C396 C398 1.327 . S
C396 H421 0.950 . S
C397 C396 1.349 . S
C397 C413 1.349 . S
C398 C396 1.327 . S
C398 C417 1.429 . S
C398 H422 0.950 . S
C399 C416 1.574 . S
C399 C418 1.368 . S
C399 H423 0.949 . S
H400 C404 0.949 . S
C401 C402 1.349 . S
C401 C403 1.327 . S
C401 H424 0.950 . S
C402 C401 1.349 . S
C402 C414 1.349 . S
C403 C401 1.327 . S
C403 C419 1.429 . S
C403 H425 0.950 . S
C404 H400 0.949 . S
C404 C412 1.574 . S
C404 C420 1.368 . S
H405 C413 0.950 . S
H406 C411 0.950 . S
H407 C412 0.949 . S
H408 C414 0.950 1_455 S
H409 C415 0.950 . S
H410 C416 0.949 . S
C411 H406 0.950 . S
C411 C413 1.327 . S
C411 C417 1.429 . S
C412 C404 1.574 . S
C412 H407 0.949 . S
C412 C418 1.368 . S
C413 C397 1.349 . S
C413 H405 0.950 . S
C413 C411 1.327 . S
C414 C402 1.349 . S
C414 H408 0.950 1_655 S
C414 C415 1.327 . S
C415 H409 0.950 . S
C415 C414 1.327 . S
C415 C419 1.429 . S
C416 C399 1.574 . S
C416 H410 0.949 . S
C416 C420 1.368 . S
C417 C398 1.429 . S
C417 C411 1.429 . S
C417 C418 1.523 . S
C418 C399 1.368 . S
C418 C412 1.368 . S
C418 C417 1.523 . S
C419 C403 1.429 . S
C419 C415 1.429 . S
C419 C420 1.523 . S
C420 C404 1.368 . S
C420 C416 1.368 . S
C420 C419 1.523 . S
H421 C396 0.950 . S
H422 C398 0.950 . S
H423 C399 0.949 . S
H424 C401 0.950 . S
H425 C403 0.950 . S
C426 C427 1.349 . S
C426 C428 1.327 . S
C426 H451 0.950 . S
C427 C426 1.349 . S
C427 C443 1.349 . S
C428 C426 1.327 . S
C428 C447 1.429 . S
C428 H452 0.950 . S
C429 C446 1.574 . S
C429 C448 1.368 . S
C429 H453 0.949 . S
H430 C434 0.949 . S
C431 C432 1.349 1_565 S
C431 C433 1.327 . S
C431 H454 0.950 . S
C432 C431 1.349 1_545 S
C432 C444 1.349 . S
C433 C431 1.327 . S
C433 C449 1.429 . S
C433 H455 0.950 . S
C434 H430 0.949 . S
C434 C442 1.574 . S
C434 C450 1.368 . S
H435 C443 0.950 . S
H436 C441 0.950 . S
H437 C442 0.949 . S
H438 C444 0.950 . S
H439 C445 0.950 . S
H440 C446 0.949 . S
C441 H436 0.950 . S
C441 C443 1.327 . S
C441 C447 1.429 . S
C442 C434 1.574 . S
C442 H437 0.949 . S
C442 C448 1.368 . S
C443 C427 1.349 . S
C443 H435 0.950 . S
C443 C441 1.327 . S
C444 C432 1.349 . S
C444 H438 0.950 . S
C444 C445 1.327 . S
C445 H439 0.950 . S
C445 C444 1.327 . S
C445 C449 1.429 1_545 S
C446 C429 1.574 . S
C446 H440 0.949 . S
C446 C450 1.368 . S
C447 C428 1.429 . S
C447 C441 1.429 . S
C447 C448 1.523 . S
C448 C429 1.368 . S
C448 C442 1.368 . S
C448 C447 1.523 . S
C449 C433 1.429 . S
C449 C445 1.429 1_565 S
C449 C450 1.523 . S
C450 C434 1.368 . S
C450 C446 1.368 . S
C450 C449 1.523 . S
H451 C426 0.950 . S
H452 C428 0.950 . S
H453 C429 0.949 . S
H454 C431 0.950 . S
H455 C433 0.950 . S
C456 C457 1.349 . S
C456 C458 1.327 . S
C456 H481 0.950 . S
C457 C456 1.349 . S
C457 C473 1.349 . S
C458 C456 1.327 . S
C458 C477 1.429 . S
C458 H482 0.950 . S
C459 C476 1.574 . S
C459 C478 1.368 . S
C459 H483 0.949 . S
H460 C464 0.949 . S
C461 C462 1.349 . S
C461 C463 1.327 . S
C461 H484 0.950 . S
C462 C461 1.349 . S
C462 C474 1.349 . S
C463 C461 1.327 . S
C463 C479 1.429 . S
C463 H485 0.950 . S
C464 H460 0.949 . S
C464 C472 1.574 . S
C464 C480 1.368 . S
H465 C473 0.950 . S
H466 C471 0.950 . S
H467 C472 0.949 . S
H468 C474 0.950 . S
H469 C475 0.950 . S
H470 C476 0.949 . S
C471 H466 0.950 . S
C471 C473 1.327 . S
C471 C477 1.429 . S
C472 C464 1.574 . S
C472 H467 0.949 . S
C472 C478 1.368 . S
C473 C457 1.349 . S
C473 H465 0.950 . S
C473 C471 1.327 . S
C474 C462 1.349 . S
C474 H468 0.950 . S
C474 C475 1.327 . S
C475 H469 0.950 . S
C475 C474 1.327 . S
C475 C479 1.429 . S
C476 C459 1.574 . S
C476 H470 0.949 . S
C476 C480 1.368 . S
C477 C458 1.429 . S
C477 C471 1.429 . S
C477 C478 1.523 . S
C478 C459 1.368 . S
C478 C472 1.368 . S
C478 C477 1.523 . S
C479 C463 1.429 . S
C479 C475 1.429 . S
C479 C480 1.523 . S
C480 C464 1.368 . S
C480 C476 1.368 . S
C480 C479 1.523 . S
H481 C456 0.950 . S
H482 C458 0.950 . S
H483 C459 0.949 . S
H484 C461 0.950 . S
H485 C463 0.950 . S
C486 C487 1.349 . S
C486 C488 1.327 . S
C486 H511 0.950 . S
C487 C486 1.349 . S
C487 C503 1.349 . S
C488 C486 1.327 . S
C488 C507 1.429 . S
C488 H512 0.950 . S
C489 C506 1.574 . S
C489 C508 1.368 . S
C489 H513 0.949 . S
H490 C494 0.949 . S
C491 C492 1.349 . S
C491 C493 1.327 . S
C491 H514 0.950 . S
C492 C491 1.349 . S
C492 C504 1.349 . S
C493 C491 1.327 . S
C493 C509 1.429 . S
C493 H515 0.950 . S
C494 H490 0.949 . S
C494 C502 1.574 . S
C494 C510 1.368 . S
H495 C503 0.950 . S
H496 C501 0.950 . S
H497 C502 0.949 . S
H498 C504 0.950 . S
H499 C505 0.950 . S
H500 C506 0.949 . S
C501 H496 0.950 . S
C501 C503 1.327 . S
C501 C507 1.429 . S
C502 C494 1.574 . S
C502 H497 0.949 . S
C502 C508 1.368 . S
C503 C487 1.349 . S
C503 H495 0.950 . S
C503 C501 1.327 . S
C504 C492 1.349 . S
C504 H498 0.950 . S
C504 C505 1.327 . S
C505 H499 0.950 . S
C505 C504 1.327 . S
C505 C509 1.429 . S
C506 C489 1.574 . S
C506 H500 0.949 . S
C506 C510 1.368 . S
C507 C488 1.429 . S
C507 C501 1.429 . S
C507 C508 1.523 . S
C508 C489 1.368 . S
C508 C502 1.368 . S
C508 C507 1.523 . S
C509 C493 1.429 . S
C509 C505 1.429 . S
C509 C510 1.523 . S
C510 C494 1.368 . S
C510 C506 1.368 . S
C510 C509 1.523 . S
H511 C486 0.950 . S
H512 C488 0.950 . S
H513 C489 0.949 . S
H514 C491 0.950 . S
H515 C493 0.950 . S
C516 C517 1.349 . S
C516 C518 1.327 . S
C516 H541 0.950 . S
C517 C516 1.349 . S
C517 C533 1.349 . S
C518 C516 1.327 . S
C518 C537 1.429 . S
C518 H542 0.950 . S
C519 C536 1.574 . S
C519 C538 1.368 . S
C519 H543 0.949 . S
H520 C524 0.949 . S
C521 C522 1.349 . S
C521 C523 1.327 . S
C521 H544 0.950 . S
C522 C521 1.349 . S
C522 C534 1.349 . S
C523 C521 1.327 . S
C523 C539 1.429 . S
C523 H545 0.950 . S
C524 H520 0.949 . S
C524 C532 1.574 . S
C524 C540 1.368 . S
H525 C533 0.950 . S
H526 C531 0.950 . S
H527 C532 0.949 . S
H528 C534 0.950 . S
H529 C535 0.950 . S
H530 C536 0.949 . S
C531 H526 0.950 . S
C531 C533 1.327 . S
C531 C537 1.429 . S
C532 C524 1.574 . S
C532 H527 0.949 . S
C532 C538 1.368 . S
C533 C517 1.349 . S
C533 H525 0.950 . S
C533 C531 1.327 . S
C534 C522 1.349 . S
C534 H528 0.950 . S
C534 C535 1.327 . S
C535 H529 0.950 . S
C535 C534 1.327 . S
C535 C539 1.429 . S
C536 C519 1.574 . S
C536 H530 0.949 . S
C536 C540 1.368 . S
C537 C518 1.429 . S
C537 C531 1.429 . S
C537 C538 1.523 . S
C538 C519 1.368 . S
C538 C532 1.368 . S
C538 C537 1.523 . S
C539 C523 1.429 . S
C539 C535 1.429 . S
C539 C540 1.523 . S
C540 C524 1.368 . S
C540 C536 1.368 . S
C540 C539 1.523 . S
H541 C516 0.950 . S
H542 C518 0.950 . S
H543 C519 0.949 . S
H544 C521 0.950 . S
H545 C523 0.950 . S
C546 C547 1.349 . S
C546 C548 1.327 . S
C546 H571 0.950 . S
C547 C546 1.349 . S
C547 C563 1.349 1_455 S
C548 C546 1.327 . S
C548 C567 1.429 . S
C548 H572 0.950 . S
C549 C566 1.574 . S
C549 C568 1.368 . S
C549 H573 0.949 1_455 S
H550 C554 0.949 . S
C551 C552 1.349 . S
C551 C553 1.327 . S
C551 H574 0.950 1_455 S
C552 C551 1.349 . S
C552 C564 1.349 . S
C553 C551 1.327 . S
C553 C569 1.429 . S
C553 H575 0.950 1_455 S
C554 H550 0.949 . S
C554 C562 1.574 . S
C554 C570 1.368 1_554 S
H555 C563 0.950 . S
H556 C561 0.946 1_655 S
H557 C562 0.949 . S
H558 C564 0.950 . S
H559 C565 0.950 . S
H560 C566 0.949 1_656 S
C561 H556 0.946 1_455 S
C561 C563 1.325 1_455 S
C561 C567 1.434 . S
C562 C554 1.574 . S
C562 H557 0.949 . S
C562 C568 1.368 . S
C563 C547 1.349 1_655 S
C563 H555 0.950 . S
C563 C561 1.325 1_655 S
C564 C552 1.349 . S
C564 H558 0.950 . S
C564 C565 1.327 . S
C565 H559 0.950 . S
C565 C564 1.327 . S
C565 C569 1.429 . S
C566 C549 1.574 . S
C566 H560 0.949 1_454 S
C566 C570 1.368 1_554 S
C567 C548 1.429 . S
C567 C561 1.434 . S
C567 C568 1.523 . S
C568 C549 1.368 . S
C568 C562 1.368 . S
C568 C567 1.523 . S
C569 C553 1.429 . S
C569 C565 1.429 . S
C569 C570 1.523 . S
C570 C554 1.368 1_556 S
C570 C566 1.368 1_556 S
C570 C569 1.523 . S
H571 C546 0.950 . S
H572 C548 0.950 . S
H573 C549 0.949 1_655 S
H574 C551 0.950 1_655 S
H575 C553 0.950 1_655 S
C576 C577 1.349 . S
C576 C578 1.327 . S
C576 H601 0.950 . S
C577 C576 1.349 . S
C577 C593 1.349 . S
C578 C576 1.327 . S
C578 C597 1.429 . S
C578 H602 0.950 . S
C579 C596 1.574 . S
C579 C598 1.368 . S
C579 H603 0.949 . S
H580 C584 0.949 . S
C581 C582 1.349 . S
C581 C583 1.327 . S
C581 H604 0.950 . S
C582 C581 1.349 . S
C582 C594 1.349 . S
C583 C581 1.327 . S
C583 C599 1.429 . S
C583 H605 0.950 . S
C584 H580 0.949 . S
C584 C592 1.574 . S
C584 C600 1.368 . S
H585 C593 0.950 . S
H586 C591 0.950 . S
H587 C592 0.949 . S
H588 C594 0.950 . S
H589 C595 0.950 . S
H590 C596 0.949 . S
C591 H586 0.950 . S
C591 C593 1.327 . S
C591 C597 1.429 . S
C592 C584 1.574 . S
C592 H587 0.949 . S
C592 C598 1.368 . S
C593 C577 1.349 . S
C593 H585 0.950 . S
C593 C591 1.327 . S
C594 C582 1.349 . S
C594 H588 0.950 . S
C594 C595 1.327 . S
C595 H589 0.950 . S
C595 C594 1.327 . S
C595 C599 1.429 . S
C596 C579 1.574 . S
C596 H590 0.949 . S
C596 C600 1.368 . S
C597 C578 1.429 . S
C597 C591 1.429 . S
C597 C598 1.523 . S
C598 C579 1.368 . S
C598 C592 1.368 . S
C598 C597 1.523 . S
C599 C583 1.429 . S
C599 C595 1.429 . S
C599 C600 1.523 . S
C600 C584 1.368 . S
C600 C596 1.368 . S
C600 C599 1.523 . S
H601 C576 0.950 . S
H602 C578 0.950 . S
H603 C579 0.949 . S
H604 C581 0.950 . S
H605 C583 0.950 . S
C606 C607 1.349 . S
C606 C608 1.327 . S
C606 H631 0.950 . S
C607 C606 1.349 . S
C607 C623 1.349 . S
C608 C606 1.327 . S
C608 C627 1.429 . S
C608 H632 0.950 . S
C609 C626 1.574 . S
C609 C628 1.368 . S
C609 H633 0.949 . S
H610 C614 0.949 . S
C611 C612 1.349 . S
C611 C613 1.327 . S
C611 H634 0.950 . S
C612 C611 1.349 . S
C612 C624 1.349 . S
C613 C611 1.327 . S
C613 C629 1.429 . S
C613 H635 0.950 . S
C614 H610 0.949 . S
C614 C622 1.574 . S
C614 C630 1.368 . S
H615 C623 0.950 . S
H616 C621 0.950 . S
H617 C622 0.949 . S
H618 C624 0.950 . S
H619 C625 0.950 . S
H620 C626 0.949 . S
C621 H616 0.950 . S
C621 C623 1.327 . S
C621 C627 1.429 . S
C622 C614 1.574 . S
C622 H617 0.949 . S
C622 C628 1.368 . S
C623 C607 1.349 . S
C623 H615 0.950 . S
C623 C621 1.327 . S
C624 C612 1.349 . S
C624 H618 0.950 . S
C624 C625 1.327 . S
C625 H619 0.950 . S
C625 C624 1.327 . S
C625 C629 1.429 . S
C626 C609 1.574 . S
C626 H620 0.949 . S
C626 C630 1.368 . S
C627 C608 1.429 . S
C627 C621 1.429 . S
C627 C628 1.523 . S
C628 C609 1.368 . S
C628 C622 1.368 . S
C628 C627 1.523 . S
C629 C613 1.429 . S
C629 C625 1.429 . S
C629 C630 1.523 . S
C630 C614 1.368 . S
C630 C626 1.368 . S
C630 C629 1.523 . S
H631 C606 0.950 . S
H632 C608 0.950 . S
H633 C609 0.949 . S
H634 C611 0.950 . S
H635 C613 0.950 . S
C636 C637 1.349 . S
C636 C638 1.327 . S
C636 H661 0.950 1_545 S
C637 C636 1.349 . S
C637 C653 1.349 . S
C638 C636 1.327 . S
C638 C657 1.429 . S
C638 H662 0.950 1_545 S
C639 C656 1.574 . S
C639 C658 1.368 . S
C639 H663 0.949 . S
H640 C644 0.951 1_565 S
C641 C642 1.349 . S
C641 C643 1.327 . S
C641 H664 0.950 . S
C642 C641 1.349 . S
C642 C654 1.349 1_545 S
C643 C641 1.327 . S
C643 C659 1.429 . S
C643 H665 0.950 . S
C644 H640 0.951 1_545 S
C644 C652 1.573 . S
C644 C660 1.367 . S
H645 C653 0.950 . S
H646 C651 0.950 . S
H647 C652 0.949 1_565 S
H648 C654 0.950 . S
H649 C655 0.950 . S
H650 C656 0.949 . S
C651 H646 0.950 . S
C651 C653 1.327 . S
C651 C657 1.429 . S
C652 C644 1.573 . S
C652 H647 0.949 1_545 S
C652 C658 1.368 . S
C653 C637 1.349 . S
C653 H645 0.950 . S
C653 C651 1.327 . S
C654 C642 1.349 1_565 S
C654 H648 0.950 . S
C654 C655 1.327 . S
C655 H649 0.950 . S
C655 C654 1.327 . S
C655 C659 1.429 1_565 S
C656 C639 1.574 . S
C656 H650 0.949 . S
C656 C660 1.368 . S
C657 C638 1.429 . S
C657 C651 1.429 . S
C657 C658 1.523 . S
C658 C639 1.368 . S
C658 C652 1.368 . S
C658 C657 1.523 . S
C659 C643 1.429 . S
C659 C655 1.429 1_545 S
C659 C660 1.523 . S
C660 C644 1.367 . S
C660 C656 1.368 . S
C660 C659 1.523 . S
H661 C636 0.950 1_565 S
H662 C638 0.950 1_565 S
H663 C639 0.949 . S
H664 C641 0.950 . S
H665 C643 0.950 . S
C666 C667 1.349 . S
C666 C668 1.327 . S
C666 H691 0.950 . S
C667 C666 1.349 . S
C667 C683 1.349 . S
C668 C666 1.327 . S
C668 C687 1.429 . S
C668 H692 0.950 . S
C669 C686 1.574 . S
C669 C688 1.368 . S
C669 H693 0.949 . S
H670 C674 0.949 1_554 S
C671 C672 1.349 . S
C671 C673 1.327 . S
C671 H694 0.950 . S
C672 C671 1.349 . S
C672 C684 1.349 . S
C673 C671 1.327 . S
C673 C689 1.429 . S
C673 H695 0.950 . S
C674 H670 0.949 1_556 S
C674 C682 1.574 . S
C674 C690 1.368 1_556 S
H675 C683 0.950 . S
H676 C681 0.950 . S
H677 C682 0.949 . S
H678 C684 0.950 . S
H679 C685 0.950 . S
H680 C686 0.949 . S
C681 H676 0.950 . S
C681 C683 1.327 . S
C681 C687 1.429 . S
C682 C674 1.574 . S
C682 H677 0.949 . S
C682 C688 1.368 . S
C683 C667 1.349 . S
C683 H675 0.950 . S
C683 C681 1.327 . S
C684 C672 1.349 . S
C684 H678 0.950 . S
C684 C685 1.327 . S
C685 H679 0.950 . S
C685 C684 1.327 . S
C685 C689 1.429 . S
C686 C669 1.574 . S
C686 H680 0.949 . S
C686 C690 1.368 1_556 S
C687 C668 1.429 . S
C687 C681 1.429 . S
C687 C688 1.523 . S
C688 C669 1.368 . S
C688 C682 1.368 . S
C688 C687 1.523 . S
C689 C673 1.429 . S
C689 C685 1.429 . S
C689 C690 1.523 . S
C690 C674 1.368 1_554 S
C690 C686 1.368 1_554 S
C690 C689 1.523 . S
H691 C666 0.950 . S
H692 C668 0.950 . S
H693 C669 0.949 . S
H694 C671 0.950 . S
H695 C673 0.950 . S
C696 C697 1.349 . S
C696 C698 1.327 . S
C696 H721 0.950 . S
C697 C696 1.349 . S
C697 C713 1.349 . S
C698 C696 1.327 . S
C698 C717 1.429 . S
C698 H722 0.950 . S
C699 C716 1.574 . S
C699 C718 1.368 . S
C699 H723 0.949 . S
H700 C704 0.949 . S
C701 C702 1.349 . S
C701 C703 1.327 . S
C701 H724 0.950 . S
C702 C701 1.349 . S
C702 C714 1.349 . S
C703 C701 1.327 . S
C703 C719 1.429 . S
C703 H725 0.950 . S
C704 H700 0.949 . S
C704 C712 1.574 . S
C704 C720 1.368 . S
H705 C713 0.950 . S
H706 C711 0.950 . S
H707 C712 0.949 . S
H708 C714 0.950 . S
H709 C715 0.950 . S
H710 C716 0.949 . S
C711 H706 0.950 . S
C711 C713 1.327 . S
C711 C717 1.429 . S
C712 C704 1.574 . S
C712 H707 0.949 . S
C712 C718 1.368 . S
C713 C697 1.349 . S
C713 H705 0.950 . S
C713 C711 1.327 . S
C714 C702 1.349 . S
C714 H708 0.950 . S
C714 C715 1.327 . S
C715 H709 0.950 . S
C715 C714 1.327 . S
C715 C719 1.429 . S
C716 C699 1.574 . S
C716 H710 0.949 . S
C716 C720 1.368 . S
C717 C698 1.429 . S
C717 C711 1.429 . S
C717 C718 1.523 . S
C718 C699 1.368 . S
C718 C712 1.368 . S
C718 C717 1.523 . S
C719 C703 1.429 . S
C719 C715 1.429 . S
C719 C720 1.523 . S
C720 C704 1.368 . S
C720 C716 1.368 . S
C720 C719 1.523 . S
H721 C696 0.950 . S
H722 C698 0.950 . S
H723 C699 0.949 . S
H724 C701 0.950 . S
H725 C703 0.950 . S
C187 C24 2.997 . S
C192 C185 2.938 . S
C217 C66 1.131 . S
C222 C163 1.134 . S
C247 C93 1.779 . S
C252 C174 1.744 . S
C277 C13 2.926 . S
C282 C179 2.889 . S
C312 C157 1.041 . S
C307 C57 1.051 . S
C342 C168 1.795 . S
C337 C104 1.830 . S
C367 C64 1.982 . S
C372 C141 1.920 . S
C397 C97 0.215 . S
C402 C146 0.273 1_655 S
C427 C17 1.110 . S
C432 C124 1.110 . S
C462 C135 1.624 . S
C457 C53 1.647 . S
C492 C152 0.229 . S
C487 C106 0.275 . S
C517 C26 1.153 . S
C522 C130 1.154 . S
C552 C147 1.259 . S
C547 C2 1.231 . S
C577 C63 1.484 . S
C582 C125 1.496 . S
C607 C82 1.455 . S
C612 C136 1.488 . S
C642 C169 1.460 . S
C637 C42 1.436 . S
C672 C180 1.730 . S
C667 C103 1.710 . S
C697 C23 1.541 . S
C702 C158 1.547 . S
