# Generated by pormake.
# Topology anh, (6,3)-cn, num edge types: 1
# Building blocks:
#     Node 0, Type 0, BuildingBlock: HISSIN_clean_sbu_0, # of connection points: 6
#     Node 1, Type 0, BuildingBlock: HISSIN_clean_sbu_0, # of connection points: 6
#     Node 2, Type 0, BuildingBlock: HISSIN_clean_sbu_0, # of connection points: 6
#     Node 3, Type 1, BuildingBlock: MIDCAF_clean_linker_0, # of connection points: 3
#     Node 4, Type 1, BuildingBlock: MIDCAF_clean_linker_0, # of connection points: 3
#     Node 5, Type 1, BuildingBlock: MIDCAF_clean_linker_0, # of connection points: 3
#     Node 6, Type 1, BuildingBlock: MIDCAF_clean_linker_0, # of connection points: 3
#     Node 7, Type 1, BuildingBlock: MIDCAF_clean_linker_0, # of connection points: 3
#     Node 8, Type 1, BuildingBlock: MIDCAF_clean_linker_0, # of connection points: 3
#     Edge 9, Type (0, 1), BuildingBlock: CIFDUS_clean_linker_0, # of connection points: 2
#     Edge 10, Type (0, 1), BuildingBlock: CIFDUS_clean_linker_0, # of connection points: 2
#     Edge 11, Type (0, 1), BuildingBlock: CIFDUS_clean_linker_0, # of connection points: 2
#     Edge 12, Type (0, 1), BuildingBlock: CIFDUS_clean_linker_0, # of connection points: 2
#     Edge 13, Type (0, 1), BuildingBlock: CIFDUS_clean_linker_0, # of connection points: 2
#     Edge 14, Type (0, 1), BuildingBlock: CIFDUS_clean_linker_0, # of connection points: 2
#     Edge 15, Type (0, 1), BuildingBlock: CIFDUS_clean_linker_0, # of connection points: 2
#     Edge 16, Type (0, 1), BuildingBlock: CIFDUS_clean_linker_0, # of connection points: 2
#     Edge 17, Type (0, 1), BuildingBlock: CIFDUS_clean_linker_0, # of connection points: 2
#     Edge 18, Type (0, 1), BuildingBlock: CIFDUS_clean_linker_0, # of connection points: 2
#     Edge 19, Type (0, 1), BuildingBlock: CIFDUS_clean_linker_0, # of connection points: 2
#     Edge 20, Type (0, 1), BuildingBlock: CIFDUS_clean_linker_0, # of connection points: 2
#     Edge 21, Type (0, 1), BuildingBlock: CIFDUS_clean_linker_0, # of connection points: 2
#     Edge 22, Type (0, 1), BuildingBlock: CIFDUS_clean_linker_0, # of connection points: 2
#     Edge 23, Type (0, 1), BuildingBlock: CIFDUS_clean_linker_0, # of connection points: 2
#     Edge 24, Type (0, 1), BuildingBlock: CIFDUS_clean_linker_0, # of connection points: 2
#     Edge 25, Type (0, 1), BuildingBlock: CIFDUS_clean_linker_0, # of connection points: 2
#     Edge 26, Type (0, 1), BuildingBlock: CIFDUS_clean_linker_0, # of connection points: 2
# Relax obj value: 0.262
# Max RMSD: 0.191
# Mean RMSD: 0.158
data_MOF--net-anh--node1-HISSIN_clean_sbu_0--node2-MIDCAF_clean_linker_0--edge1-CIFDUS_clean_linker_0
_symmetry_space_group_name_H-M    P1
_symmetry_Int_Tables_number       1
_symmetry_cell_setting            triclinic
loop_
_symmetry_equiv_pos_as_xyz
'x, y, z'
_cell_length_a     34.275026
_cell_length_b     34.128129
_cell_length_c     59.72001
_cell_angle_alpha  92.698391
_cell_angle_beta   90.511933
_cell_angle_gamma 119.90198
loop_
_atom_site_label
_atom_site_type_symbol
_atom_site_fract_x
_atom_site_fract_y
_atom_site_fract_z
_atom_type_partial_charge
Eu0 Eu 1.04391 0.46791 0.16695 0.0
Eu1 Eu 0.09222 0.57383 0.17706 0.0
C2 C 1.05892 0.50961 0.21942 0.0
C3 C 0.95199 0.35584 0.14749 0.0
C4 C 0.93512 0.37527 0.13268 0.0
C5 C 0.87652 0.30794 0.15999 0.0
C6 C 0.8898 0.36333 0.1328 0.0
C7 C 0.9217 0.3195 0.1597 0.0
C8 C 0.86129 0.33251 0.14797 0.0
C9 C 0.99943 0.38172 0.15544 0.0
O10 O 0.15488 0.56316 0.17332 0.0
O11 O 0.12015 0.48624 0.16656 0.0
C12 C 0.15821 0.52609 0.16895 0.0
O13 O 1.04347 0.49954 0.13455 0.0
O14 O 0.1383 0.6379 0.19521 0.0
O15 O 0.09686 0.63633 0.16705 0.0
O16 O 0.10982 0.56312 0.14236 0.0
C17 C 0.07971 0.53437 0.1277 0.0
O18 O 0.98111 0.47804 0.1664 0.0
O19 O 1.01598 0.55502 0.17118 0.0
O20 O 0.07949 0.55071 0.21235 0.0
O21 O 1.02756 0.41182 0.14233 0.0
O22 O 1.00498 0.39791 0.17616 0.0
O23 O 1.04289 0.47373 0.20526 0.0
C24 C 0.16876 0.70194 0.17288 0.0
C25 C 0.16456 0.72008 0.15291 0.0
C26 C 0.24453 0.76558 0.17895 0.0
C27 C 0.19977 0.76113 0.14628 0.0
C28 C 0.20941 0.72468 0.18558 0.0
C29 C 0.23971 0.78481 0.15953 0.0
C30 C 0.12992 0.66165 0.18142 0.0
C31 C 0.97791 0.51543 0.16764 0.0
H32 H 0.95767 0.40337 0.12298 0.0
H33 H 0.85472 0.28331 0.17149 0.0
H34 H 0.87869 0.38238 0.12319 0.0
H35 H 0.9339 0.30395 0.17115 0.0
H36 H 0.13355 0.70342 0.14278 0.0
H37 H 0.27445 0.7834 0.18983 0.0
H38 H 0.19516 0.77511 0.13123 0.0
H39 H 0.21353 0.71182 0.20114 0.0
Eu40 Eu 0.57174 1.01473 0.49486 0.0
Eu41 Eu 0.52088 0.06523 0.51033 0.0
C42 C 0.5595 1.02792 0.5483 0.0
C43 C 0.61219 0.9305 0.47657 0.0
C44 C 0.59694 0.90153 0.49426 0.0
C45 C 0.63652 0.88237 0.45767 0.0
C46 C 0.60279 0.86387 0.49398 0.0
C47 C 0.63075 0.92006 0.458 0.0
C48 C 0.62385 0.85467 0.47596 0.0
C49 C 0.6121 0.97332 0.47768 0.0
O50 O 0.59408 0.12637 0.50274 0.0
O51 O 0.63244 0.08799 0.49944 0.0
C52 C 0.63335 0.12738 0.50014 0.0
O53 O 0.56817 0.05446 0.46637 0.0
O54 O 0.48779 0.08827 0.53444 0.0
O55 O 0.49516 0.1087 0.50024 0.0
O56 O 0.49902 1.03977 0.47475 0.0
C57 C 0.52999 0.05098 0.46007 0.0
O58 O 0.49661 0.95616 0.49184 0.0
O59 O 0.46025 0.9893 0.50925 0.0
O60 O 0.55103 0.05987 0.54305 0.0
O61 O 0.57814 0.97343 0.46774 0.0
O62 O 0.62442 0.99705 0.49686 0.0
O63 O 0.56312 1.00188 0.53237 0.0
C64 C 0.51233 0.16529 0.52818 0.0
C65 C 0.51217 0.1969 0.51404 0.0
C66 C 0.57574 0.22652 0.54965 0.0
C67 C 0.5448 0.2426 0.51702 0.0
C68 C 0.54351 0.18071 0.54646 0.0
C69 C 0.57787 0.25772 0.53445 0.0
C70 C 0.48744 0.11692 0.52076 0.0
C71 C 0.45844 0.95226 0.49946 0.0
H72 H 0.5823 0.90907 0.50867 0.0
H73 H 0.65238 0.87584 0.44349 0.0
H74 H 0.5932 0.84357 0.50848 0.0
H75 H 0.64236 0.94205 0.44413 0.0
H76 H 0.48881 0.18576 0.49968 0.0
H77 H 0.59986 0.23721 0.56364 0.0
H78 H 0.54548 0.26554 0.50491 0.0
H79 H 0.54473 0.15719 0.55762 0.0
Eu80 Eu 0.51776 0.49448 0.83388 0.0
Eu81 Eu 0.62251 0.54618 0.84419 0.0
C82 C 0.55731 0.51674 0.8866 0.0
C83 C 0.41072 0.47909 0.81178 0.0
C84 C 0.43649 0.5177 0.79969 0.0
C85 C 0.35341 0.50054 0.81568 0.0
C86 C 0.422 0.54878 0.79679 0.0
C87 C 0.36809 0.46952 0.81875 0.0
C88 C 0.38153 0.54157 0.80585 0.0
C89 C 0.43298 0.45665 0.82193 0.0
O90 O 0.60835 0.47159 0.841 0.0
O91 O 0.53286 0.43349 0.83165 0.0
C92 C 0.57101 0.43255 0.83523 0.0
O93 O 0.55376 0.52806 0.80278 0.0
O94 O 0.68485 0.56436 0.86265 0.0
O95 O 0.68672 0.59817 0.83244 0.0
O96 O 0.60979 0.51396 0.80951 0.0
C97 C 0.58575 0.52145 0.79532 0.0
O98 O 0.53158 0.56916 0.83269 0.0
O99 O 0.6076 0.606 0.83958 0.0
O100 O 0.59853 0.53711 0.87951 0.0
O101 O 0.46231 0.45247 0.80976 0.0
O102 O 0.44836 0.47197 0.84241 0.0
O103 O 0.52214 0.49854 0.87239 0.0
C104 C 0.7468 0.58428 0.83917 0.0
C105 C 0.76817 0.60336 0.81932 0.0
C106 C 0.79793 0.55532 0.84416 0.0
C107 C 0.80447 0.59886 0.81209 0.0
C108 C 0.76173 0.55976 0.85135 0.0
C109 C 0.82017 0.5754 0.82465 0.0
C110 C 0.71007 0.5911 0.84747 0.0
C111 C 0.57046 0.60802 0.83493 0.0
H112 H 0.46971 0.52605 0.7943 0.0
H113 H 0.32219 0.49452 0.82296 0.0
H114 H 0.44401 0.58013 0.78908 0.0
H115 H 0.34804 0.44027 0.82834 0.0
H116 H 0.75745 0.62255 0.80959 0.0
H117 H 0.80984 0.53799 0.85456 0.0
H118 H 0.82094 0.61468 0.797 0.0
H119 H 0.74624 0.54491 0.86679 0.0
C120 C 0.43413 1.02443 0.21675 0.0
C121 C 0.42576 1.02674 0.19395 0.0
C122 C 0.43515 0.06832 0.18579 0.0
C123 C 0.45397 0.10737 0.20019 0.0
H124 H 0.55118 0.23602 0.19761 0.0
H125 H 0.62016 0.28433 0.18047 0.0
H126 H 0.67688 0.35755 0.24453 0.0
H127 H 0.60812 0.30483 0.26227 0.0
H128 H 0.58323 0.23645 0.30511 0.0
H129 H 0.59437 0.21914 0.34318 0.0
H130 H 0.47101 0.09034 0.33472 0.0
H131 H 0.45915 0.108 0.29749 0.0
H132 H 0.45864 0.06006 0.2486 0.0
H133 H 0.42615 0.99246 0.22351 0.0
H134 H 0.42836 0.07062 0.1683 0.0
H135 H 0.46188 0.13931 0.19344 0.0
N136 N 0.51238 0.18694 0.22917 0.0
N137 N 0.54261 0.22052 0.265 0.0
N138 N 0.48838 0.14341 0.26041 0.0
C139 C 0.54047 0.22422 0.24244 0.0
C140 C 0.51586 0.18012 0.27412 0.0
C141 C 0.4864 0.1465 0.23796 0.0
C142 C 0.57506 0.26463 0.23159 0.0
C143 C 0.57803 0.26275 0.20814 0.0
C144 C 0.61813 0.29139 0.19811 0.0
C145 C 0.65596 0.32367 0.2112 0.0
C146 C 0.64977 0.33114 0.23403 0.0
C147 C 0.60997 0.30127 0.24425 0.0
C148 C 0.52042 0.17355 0.29816 0.0
C149 C 0.55808 0.20489 0.3116 0.0
C150 C 0.56471 0.19477 0.33331 0.0
C151 C 0.5337 0.15326 0.34199 0.0
C152 C 0.49532 0.12288 0.32878 0.0
C153 C 0.48869 0.13295 0.30725 0.0
C154 C 0.46266 0.10507 0.22303 0.0
C155 C 0.45207 0.06307 0.23117 0.0
C156 C 0.79669 0.50856 0.58557 0.0
C157 C 0.79133 0.49928 0.56226 0.0
C158 C 0.80167 0.53468 0.54818 0.0
C159 C 0.80958 0.57654 0.55724 0.0
H160 H 0.77027 0.66383 0.53492 0.0
H161 H 0.72939 0.68281 0.5076 0.0
H162 H 0.65874 0.70627 0.56134 0.0
H163 H 0.69908 0.68785 0.58847 0.0
H164 H 0.70973 0.67249 0.63463 0.0
H165 H 0.67377 0.65694 0.67031 0.0
H166 H 0.75088 0.59477 0.69031 0.0
H167 H 0.78567 0.60853 0.65395 0.0
H168 H 0.80299 0.55468 0.61268 0.0
H169 H 0.78901 0.48174 0.59676 0.0
H170 H 0.79815 0.52828 0.53012 0.0
H171 H 0.81267 0.60158 0.5458 0.0
N172 N 0.78074 0.63683 0.57376 0.0
N173 N 0.75244 0.663 0.60262 0.0
N174 N 0.78636 0.62026 0.61094 0.0
C175 C 0.75981 0.65991 0.58053 0.0
C176 C 0.76576 0.64367 0.61798 0.0
C177 C 0.79446 0.61712 0.58883 0.0
C178 C 0.73815 0.6745 0.56391 0.0
C179 C 0.74612 0.6732 0.54088 0.0
C180 C 0.72261 0.68375 0.52524 0.0
C181 C 0.69034 0.69504 0.53238 0.0
C182 C 0.68263 0.69655 0.55534 0.0
C183 C 0.70636 0.68664 0.57092 0.0
C184 C 0.75026 0.64119 0.64122 0.0
C185 C 0.71962 0.65598 0.64666 0.0
C186 C 0.699 0.64725 0.66727 0.0
C187 C 0.70888 0.62402 0.68311 0.0
C188 C 0.7416 0.6117 0.67824 0.0
C189 C 0.76191 0.61998 0.65747 0.0
C190 C 0.80661 0.58316 0.58047 0.0
C191 C 0.80435 0.55039 0.59467 0.0
C192 C 1.03445 0.56194 0.87577 0.0
C193 C 1.03834 0.57483 0.85353 0.0
C194 C 0.08095 0.60584 0.84601 0.0
C195 C 0.1185 0.62545 0.86079 0.0
H196 H 0.25275 0.73486 0.8687 0.0
H197 H 0.31335 0.74325 0.84482 0.0
H198 H 0.36973 0.70456 0.89863 0.0
H199 H 0.30948 0.69649 0.92253 0.0
H200 H 0.23231 0.70173 0.97336 0.0
H201 H 0.21889 0.68264 0.01245 0.0
H202 H 0.11053 0.54891 0.99103 0.0
H203 H 0.12236 0.56911 0.95227 0.0
H204 H 0.06732 0.57188 0.90776 0.0
H205 H 1.00193 0.53867 0.88219 0.0
H206 H 0.08492 0.6162 0.82892 0.0
H207 H 0.15064 0.65022 0.8546 0.0
N208 N 0.19414 0.66783 0.89235 0.0
N209 N 0.22566 0.67867 0.92872 0.0
N210 N 0.1484 0.62849 0.92145 0.0
C211 C 0.23058 0.68842 0.90673 0.0
C212 C 0.18432 0.64899 0.93617 0.0
C213 C 0.15303 0.63782 0.89951 0.0
C214 C 0.2755 0.71323 0.89713 0.0
C215 C 0.27934 0.73033 0.87579 0.0
C216 C 0.31409 0.73526 0.86211 0.0
C217 C 0.34521 0.72297 0.86961 0.0
C218 C 0.34596 0.71392 0.89231 0.0
C219 C 0.31123 0.70913 0.90605 0.0
C220 C 0.17822 0.63705 0.95982 0.0
C221 C 0.20571 0.66829 0.9771 0.0
C222 C 0.19809 0.65716 0.9995 0.0
C223 C 0.16341 0.61419 0.00503 0.0
C224 C 0.13674 0.58269 0.98757 0.0
C225 C 0.14375 0.59415 0.96527 0.0
C226 C 0.1141 0.61448 0.8834 0.0
C227 C 0.0719 0.58156 0.89055 0.0
C228 C 0.20277 0.6759 0.46744 0.0
C229 C 0.20546 0.70696 0.48491 0.0
C230 C 0.16443 0.69046 0.49689 0.0
C231 C 0.12406 0.64715 0.49143 0.0
H232 H 0.94653 0.49245 0.49874 0.0
H233 H 0.87469 0.42614 0.50821 0.0
H234 H 0.89201 0.34459 0.45652 0.0
H235 H 0.96287 0.41026 0.44717 0.0
H236 H 1.0099 0.45687 0.39826 0.0
H237 H 1.0182 0.45588 0.35749 0.0
H238 H 0.08395 0.60205 0.36098 0.0
H239 H 0.07834 0.6027 0.4013 0.0
H240 H 0.16406 0.61281 0.44786 0.0
H241 H 0.23157 0.68494 0.45719 0.0
H242 H 0.16294 0.71122 0.51072 0.0
H243 H 0.09427 0.63826 0.50089 0.0
N244 N 1.04089 0.53928 0.47449 0.0
N245 N 1.00842 0.4987 0.43954 0.0
N246 N 0.07618 0.56811 0.44047 0.0
C247 C 1.00567 0.50088 0.46239 0.0
C248 C 1.04266 0.53194 0.42847 0.0
C249 C 0.07739 0.57339 0.46324 0.0
C250 C 0.9632 0.45872 0.47211 0.0
C251 C 0.93592 0.46041 0.48956 0.0
C252 C 0.89333 0.42142 0.49486 0.0
C253 C 0.87484 0.37754 0.48333 0.0
C254 C 0.90297 0.37597 0.46637 0.0
C255 C 0.94482 0.41481 0.4609 0.0
C256 C 1.04403 0.5299 0.40327 0.0
C257 C 1.02619 0.48873 0.39022 0.0
C258 C 1.03082 0.48823 0.36668 0.0
C259 C 1.05272 0.52892 0.35541 0.0
C260 C 0.06855 0.56981 0.36862 0.0
C261 C 1.06491 0.57029 0.392 0.0
C262 C 0.12152 0.61693 0.47348 0.0
C263 C 0.16273 0.63321 0.46195 0.0
C264 C 0.59799 0.17915 0.80439 0.0
C265 C 0.56111 0.17874 0.81536 0.0
C266 C 0.52784 0.13447 0.82151 0.0
C267 C 0.53066 0.09402 0.81653 0.0
H268 H 0.59715 0.95672 0.83116 0.0
H269 H 0.59559 0.88525 0.83962 0.0
H270 H 0.52278 0.82346 0.77705 0.0
H271 H 0.52401 0.89272 0.76894 0.0
H272 H 0.58836 0.97096 0.72515 0.0
H273 H 0.59036 0.97813 0.68439 0.0
H274 H 0.53812 0.06975 0.69225 0.0
H275 H 0.53854 0.06441 0.73246 0.0
H276 H 0.62847 0.14208 0.78957 0.0
H277 H 0.62466 0.21084 0.7988 0.0
H278 H 0.49855 0.13051 0.83009 0.0
H279 H 0.50281 0.06177 0.82082 0.0
N280 N 0.56402 1.01385 0.8037 0.0
N281 N 0.56361 0.98049 0.76782 0.0
N282 N 0.56577 0.05043 0.77063 0.0
C283 C 0.56324 0.97769 0.79067 0.0
C284 C 0.56474 1.01603 0.75766 0.0
C285 C 0.5654 0.05106 0.79343 0.0
C286 C 0.56009 0.93266 0.7992 0.0
C287 C 0.58004 0.92782 0.81927 0.0
C288 C 0.57961 0.88603 0.82407 0.0
C289 C 0.55868 0.8459 0.80934 0.0
C290 C 0.53882 0.85135 0.78956 0.0
C291 C 0.53971 0.89253 0.78472 0.0
C292 C 0.56395 1.01762 0.73241 0.0
C293 C 0.57742 0.99271 0.71812 0.0
C294 C 0.57833 0.9967 0.69458 0.0
C295 C 0.56528 1.02531 0.68452 0.0
C296 C 0.55017 0.04863 0.69894 0.0
C297 C 0.55001 1.04527 0.72229 0.0
C298 C 0.56705 0.09451 0.80502 0.0
C299 C 0.60041 0.13872 0.79916 0.0
C300 C 0.70068 0.49 0.13573 0.0
C301 C 0.73363 0.52273 0.15141 0.0
C302 C 0.71951 0.55196 0.16211 0.0
C303 C 0.67665 0.54928 0.15717 0.0
H304 H 0.46625 0.46859 0.16265 0.0
H305 H 0.39446 0.46502 0.1715 0.0
H306 H 0.42542 0.57381 0.12862 0.0
H307 H 0.49644 0.57672 0.11962 0.0
H308 H 0.49542 0.48793 0.06531 0.0
H309 H 0.49739 0.48579 0.02435 0.0
H310 H 0.64294 0.55606 0.02936 0.0
H311 H 0.64033 0.5549 0.06982 0.0
H312 H 0.63663 0.46321 0.11752 0.0
H313 H 0.70816 0.46658 0.12655 0.0
H314 H 0.74201 0.57789 0.17446 0.0
H315 H 0.66978 0.57397 0.16547 0.0
N316 N 0.56713 0.52051 0.1423 0.0
N317 N 0.53326 0.52165 0.10765 0.0
N318 N 0.60075 0.51937 0.10795 0.0
C319 C 0.53165 0.52164 0.13051 0.0
C320 C 0.56703 0.52053 0.09626 0.0
C321 C 0.60254 0.51937 0.13077 0.0
C322 C 0.48999 0.52384 0.14061 0.0
C323 C 0.45881 0.49275 0.15544 0.0
C324 C 0.41625 0.4903 0.1603 0.0
C325 C 0.40154 0.519 0.15096 0.0
C326 C 0.43349 0.55087 0.1367 0.0
C327 C 0.47539 0.55266 0.13152 0.0
C328 C 0.5677 0.52105 0.07106 0.0
C329 C 0.52781 0.50273 0.05758 0.0
C330 C 0.52904 0.5018 0.0339 0.0
C331 C 0.57032 0.52005 0.02286 0.0
C332 C 0.61014 0.53987 0.03662 0.0
C333 C 0.6088 0.53971 0.06014 0.0
C334 C 0.64443 0.51728 0.14096 0.0
C335 C 0.65843 0.48791 0.13053 0.0
H336 H 0.18877 0.46015 0.16799 0.0
H337 H 0.24037 0.60288 0.16208 0.0
H338 H 0.31547 0.61371 0.15589 0.0
H339 H 0.37002 0.584 0.15172 0.0
H340 H 0.31943 0.44194 0.15958 0.0
H341 H 0.2442 0.43092 0.16529 0.0
C342 C 0.21615 0.4939 0.16542 0.0
C343 C 0.20635 0.53055 0.16567 0.0
C344 C 0.26135 0.50052 0.16211 0.0
C345 C 0.2445 0.57344 0.16224 0.0
C346 C 0.28845 0.57982 0.15857 0.0
C347 C 0.34293 0.55032 0.15465 0.0
C348 C 0.35323 0.51404 0.15509 0.0
C349 C 0.29793 0.54382 0.15839 0.0
C350 C 0.31534 0.47136 0.15924 0.0
C351 C 0.27114 0.46476 0.16246 0.0
H352 H 0.66584 0.22518 0.50766 0.0
H353 H 0.71081 0.13361 0.48368 0.0
H354 H 0.78427 0.19753 0.47651 0.0
H355 H 0.83942 0.28102 0.47643 0.0
H356 H 0.79748 0.37417 0.50161 0.0
H357 H 0.72307 0.31042 0.50854 0.0
C358 C 0.69138 0.21866 0.50085 0.0
C359 C 0.6801 0.172 0.49637 0.0
C360 C 0.73607 0.25721 0.49682 0.0
C361 C 0.71603 0.16721 0.48763 0.0
C362 C 0.75912 0.2046 0.48337 0.0
C363 C 0.81446 0.28821 0.48341 0.0
C364 C 0.82693 0.33498 0.48824 0.0
C365 C 0.77016 0.25011 0.4878 0.0
C366 C 0.79173 0.34041 0.49762 0.0
C367 C 0.74796 0.30307 0.50161 0.0
H368 H 0.50996 0.63299 0.81414 0.0
H369 H 0.63885 0.69461 0.84932 0.0
H370 H 0.64684 0.76953 0.84597 0.0
H371 H 0.61842 0.82128 0.8326 0.0
H372 H 0.49004 0.75845 0.79647 0.0
H373 H 0.48245 0.68444 0.80014 0.0
C374 C 0.53985 0.66249 0.82131 0.0
C375 C 0.57344 0.65566 0.83236 0.0
C376 C 0.54492 0.70729 0.81895 0.0
C377 C 0.61182 0.69644 0.84083 0.0
C378 C 0.61653 0.74028 0.83889 0.0
C379 C 0.58831 0.79168 0.82563 0.0
C380 C 0.55519 0.79838 0.81384 0.0
C381 C 0.58344 0.74682 0.82797 0.0
C382 C 0.51721 0.7573 0.80519 0.0
C383 C 0.51234 0.71366 0.80755 0.0
H384 H 0.94747 0.58183 0.17143 0.0
H385 H 0.89532 0.43934 0.1565 0.0
H386 H 0.82021 0.4287 0.14979 0.0
H387 H 0.76544 0.45801 0.14797 0.0
H388 H 0.81622 0.59989 0.16468 0.0
H389 H 0.89171 0.611 0.17084 0.0
C390 C 0.91997 0.54815 0.16675 0.0
C391 C 0.9298 0.51155 0.16437 0.0
C392 C 0.87456 0.54154 0.16323 0.0
C393 C 0.89138 0.46879 0.15839 0.0
C394 C 0.84731 0.46244 0.15457 0.0
C395 C 0.79261 0.4917 0.15292 0.0
C396 C 0.78222 0.52786 0.1557 0.0
C397 C 0.83782 0.49832 0.15684 0.0
C398 C 0.82029 0.57051 0.16244 0.0
C399 C 0.86469 0.57718 0.16594 0.0
H400 H 0.36501 0.9187 0.51252 0.0
H401 H 0.4468 0.87365 0.4779 0.0
H402 H 0.38111 0.79886 0.47064 0.0
H403 H 0.29874 0.74276 0.47341 0.0
H404 H 0.2155 0.78601 0.508 0.0
H405 H 0.28113 0.86108 0.5156 0.0
C406 C 0.36901 0.89284 0.50339 0.0
C407 C 0.4134 0.9045 0.49595 0.0
C408 C 0.32948 0.84762 0.49907 0.0
C409 C 0.41504 0.86822 0.48415 0.0
C410 C 0.3766 0.82435 0.47985 0.0
C411 C 0.29399 0.76808 0.48258 0.0
C412 C 0.24938 0.7556 0.48993 0.0
C413 C 0.33324 0.81305 0.4871 0.0
C414 C 0.24742 0.79152 0.50202 0.0
C415 C 0.28586 0.83576 0.50638 0.0
H416 H 0.50304 0.3365 0.82934 0.0
H417 H 0.64715 0.42421 0.83302 0.0
H418 H 0.65738 0.35871 0.82729 0.0
H419 H 0.62706 0.27447 0.821 0.0
H420 H 0.48308 0.18589 0.81858 0.0
H421 H 0.47257 0.25132 0.824 0.0
C422 C 0.53692 0.34183 0.82896 0.0
C423 C 0.57419 0.38773 0.83179 0.0
C424 C 0.54313 0.30244 0.82583 0.0
C425 C 0.6172 0.39112 0.83111 0.0
C426 C 0.6233 0.35284 0.82773 0.0
C427 C 0.59306 0.26876 0.82158 0.0
C428 C 0.5561 0.22263 0.8193 0.0
C429 C 0.58674 0.30792 0.82501 0.0
C430 C 0.51297 0.21897 0.82047 0.0
C431 C 0.50669 0.25731 0.8235 0.0
H432 H 0.57533 0.77021 0.49122 0.0
H433 H 0.70465 0.8628 0.4654 0.0
H434 H 0.73443 0.81494 0.47675 0.0
H435 H 0.7281 0.75583 0.5007 0.0
H436 H 0.60064 0.66646 0.52905 0.0
H437 H 0.56572 0.70377 0.51004 0.0
C438 C 0.60979 0.77943 0.48776 0.0
C439 C 0.63791 0.82034 0.47788 0.0
C440 C 0.62726 0.75268 0.49512 0.0
C441 C 0.6822 0.83143 0.47297 0.0
C442 C 0.69946 0.80431 0.47967 0.0
C443 C 0.69236 0.74362 0.50209 0.0
C444 C 0.66708 0.70914 0.51649 0.0
C445 C 0.67295 0.76612 0.49172 0.0
C446 C 0.62083 0.69358 0.51828 0.0
C447 C 0.60092 0.71493 0.50749 0.0
H448 H 0.83896 0.50696 0.82642 0.0
H449 H 0.89797 0.64756 0.81177 0.0
H450 H 0.97289 0.65646 0.81414 0.0
H451 H 1.02098 0.62958 0.82936 0.0
H452 H 0.96269 0.49113 0.84757 0.0
H453 H 0.88819 0.47605 0.83489 0.0
C454 C 0.86823 0.53927 0.82331 0.0
C455 C 0.86301 0.57679 0.81951 0.0
C456 C 0.91138 0.54477 0.8258 0.0
C457 C 0.90098 0.61813 0.81482 0.0
C458 C 0.94397 0.62342 0.81643 0.0
C459 C 0.99232 0.59561 0.82974 0.0
C460 C 0.99706 0.56174 0.83979 0.0
C461 C 0.94957 0.58773 0.82322 0.0
C462 C 0.95957 0.51796 0.84028 0.0
C463 C 0.91702 0.50938 0.8331 0.0
H464 H 0.3308 0.82381 0.1626 0.0
H465 H 0.22436 0.85227 0.14755 0.0
H466 H 0.2775 0.93327 0.15186 0.0
H467 H 0.3491 0.99409 0.16872 0.0
H468 H 0.45303 0.96477 0.18773 0.0
H469 H 0.4064 0.88633 0.17307 0.0
C470 C 0.31953 0.84784 0.1598 0.0
C471 C 0.27361 0.83211 0.15533 0.0
C472 C 0.34975 0.89429 0.16346 0.0
C473 C 0.25953 0.86344 0.15109 0.0
C474 C 0.28982 0.90985 0.15382 0.0
C475 C 0.36202 0.97083 0.16888 0.0
C476 C 0.40386 0.98457 0.17953 0.0
C477 C 0.3343 0.92547 0.16131 0.0
C478 C 0.4205 0.9544 0.17981 0.0
C479 C 0.39383 0.90964 0.17153 0.0
H480 H 0.66624 0.289 0.54618 0.0
H481 H 0.57386 0.3339 0.52655 0.0
H482 H 0.63476 0.41216 0.52968 0.0
H483 H 0.71176 0.46799 0.54131 0.0
H484 H 0.80273 0.42537 0.56548 0.0
H485 H 0.7448 0.3457 0.55721 0.0
C486 C 0.65925 0.31589 0.54283 0.0
C487 C 0.61529 0.30542 0.53628 0.0
C488 C 0.6942 0.36109 0.54536 0.0
C489 C 0.60729 0.34075 0.5314 0.0
C490 C 0.64208 0.3856 0.53328 0.0
C491 C 0.71929 0.44124 0.54419 0.0
C492 C 0.76147 0.45218 0.55357 0.0
C493 C 0.68536 0.39611 0.54055 0.0
C494 C 0.77055 0.41744 0.55795 0.0
C495 C 0.73736 0.3721 0.55344 0.0
H496 H 0.43703 0.6212 0.82769 0.0
H497 H 0.30684 0.54593 0.79367 0.0
H498 H 0.28832 0.60362 0.80687 0.0
H499 H 0.30438 0.66706 0.83322 0.0
H500 H 0.43191 0.73836 0.87016 0.0
H501 H 0.4573 0.6914 0.85003 0.0
C502 C 0.40534 0.61845 0.82247 0.0
C503 C 0.37343 0.57989 0.80957 0.0
C504 C 0.39457 0.65083 0.83076 0.0
C505 C 0.33182 0.57559 0.8035 0.0
C506 C 0.32131 0.60844 0.8111 0.0
C507 C 0.33845 0.67368 0.83623 0.0
C508 C 0.3663 0.7061 0.85317 0.0
C509 C 0.35177 0.64518 0.82544 0.0
C510 C 0.40996 0.71355 0.85721 0.0
C511 C 0.42426 0.68648 0.84584 0.0
H512 H 0.84434 0.34733 0.19011 0.0
H513 H 0.79073 0.32551 0.12226 0.0
H514 H 0.72592 0.33099 0.13574 0.0
H515 H 0.683 0.33698 0.16719 0.0
H516 H 0.73496 0.3494 0.23518 0.0
H517 H 0.80356 0.35659 0.221 0.0
C518 C 0.81811 0.34312 0.17828 0.0
C519 C 0.82121 0.33436 0.15536 0.0
C520 C 0.78141 0.34616 0.18611 0.0
C521 C 0.78826 0.33112 0.14007 0.0
C522 C 0.75151 0.33455 0.14777 0.0
C523 C 0.70888 0.34075 0.17906 0.0
C524 C 0.70216 0.34104 0.20239 0.0
C525 C 0.74741 0.34129 0.17085 0.0
C526 C 0.73805 0.34904 0.21719 0.0
C527 C 0.77744 0.35229 0.20911 0.0
H528 H 0.15939 0.58478 0.10877 0.0
H529 H 1.01705 0.50182 0.09283 0.0
H530 H 1.03039 0.51972 0.05337 0.0
H531 H 0.08236 0.56136 0.02398 0.0
H532 H 0.22536 0.63976 0.03994 0.0
H533 H 0.21157 0.6221 0.07909 0.0
C534 C 0.13123 0.57055 0.09666 0.0
C535 C 0.08725 0.54236 0.10367 0.0
C536 C 0.13921 0.58059 0.07413 0.0
C537 C 1.0512 0.5236 0.08778 0.0
C538 C 1.05882 0.53398 0.06528 0.0
C539 C 0.1107 0.57403 0.03587 0.0
C540 C 0.15489 0.60224 0.02887 0.0
C541 C 0.1027 0.5627 0.05831 0.0
C542 C 0.19092 0.6189 0.04479 0.0
C543 C 0.18314 0.60846 0.06719 0.0
H544 H 0.59394 0.09742 0.42983 0.0
H545 H 0.45194 1.03877 0.44138 0.0
H546 H 0.4413 0.0675 0.40665 0.0
H547 H 0.47199 0.10972 0.3733 0.0
H548 H 0.61332 0.16698 0.36066 0.0
H549 H 0.62477 0.13966 0.39587 0.0
C550 C 0.56063 0.0906 0.42462 0.0
C551 C 0.52377 0.06583 0.43814 0.0
C552 C 0.55472 0.10762 0.40464 0.0
C553 C 0.48089 0.0577 0.43129 0.0
C554 C 0.47476 0.07424 0.41146 0.0
C555 C 0.5053 0.11601 0.37813 0.0
C556 C 0.54166 0.14021 0.36426 0.0
C557 C 0.51142 0.09936 0.39808 0.0
C558 C 0.58478 0.14892 0.37111 0.0
C559 C 0.59128 0.13287 0.39114 0.0
H560 H 0.60127 0.59368 0.77226 0.0
H561 H 0.6068 0.47018 0.76797 0.0
H562 H 0.64399 0.49028 0.73215 0.0
H563 H 0.67863 0.54485 0.70339 0.0
H564 H 0.68066 0.67244 0.70962 0.0
H565 H 0.63653 0.64883 0.74323 0.0
C566 C 0.60978 0.57087 0.76312 0.0
C567 C 0.60086 0.53027 0.77231 0.0
C568 C 0.63304 0.58369 0.74313 0.0
C569 C 0.61304 0.50136 0.76088 0.0
C570 C 0.63455 0.513 0.74056 0.0
C571 C 0.67004 0.56785 0.71223 0.0
C572 C 0.68327 0.61048 0.704 0.0
C573 C 0.64561 0.55454 0.7318 0.0
C574 C 0.67066 0.63925 0.71542 0.0
C575 C 0.64551 0.62586 0.7347 0.0
H576 H 0.57488 0.08697 0.58438 0.0
H577 H 0.55189 0.95262 0.56785 0.0
H578 H 0.55195 0.93959 0.60794 0.0
H579 H 0.5554 0.96549 0.64815 0.0
H580 H 0.58382 0.10248 0.6635 0.0
H581 H 0.58405 0.11453 0.62386 0.0
C582 C 0.57007 0.05479 0.58944 0.0
C583 C 0.56315 1.0208 0.57281 0.0
C584 C 0.57055 0.04764 0.61259 0.0
C585 C 0.55743 0.97959 0.58003 0.0
C586 C 0.55728 0.97204 0.60308 0.0
C587 C 0.56213 0.9982 0.64295 0.0
C588 C 0.56827 1.03243 0.65945 0.0
C589 C 0.56341 1.0057 0.61962 0.0
C590 C 0.57708 0.0745 0.65177 0.0
C591 C 0.57779 0.08182 0.62885 0.0
H592 H 0.61475 0.51852 0.91915 0.0
H593 H 0.48584 0.51019 0.91045 0.0
H594 H 0.47826 0.51098 0.9513 0.0
H595 H 0.50963 0.51644 0.98984 0.0
H596 H 0.63545 0.51673 0.99725 0.0
H597 H 0.64279 0.51759 0.95702 0.0
C598 C 0.58487 0.51682 0.92612 0.0
C599 C 0.5511 0.51468 0.91152 0.0
C600 C 0.58032 0.51639 0.94966 0.0
C601 C 0.51243 0.51182 0.92109 0.0
C602 C 0.50816 0.51243 0.94455 0.0
C603 C 0.53851 0.51614 0.98283 0.0
C604 C 0.5725 0.51787 0.99737 0.0
C605 C 0.54204 0.51493 0.95911 0.0
C606 C 0.6094 0.51743 0.98724 0.0
C607 C 0.61351 0.51729 0.96392 0.0
H608 H 0.11014 0.56976 0.25391 0.0
H609 H 0.99389 0.43724 0.24107 0.0
H610 H 0.98126 0.43095 0.28145 0.0
H611 H 1.00174 0.46463 0.32066 0.0
H612 H 0.12279 0.59457 0.33273 0.0
H613 H 0.1341 0.60018 0.29282 0.0
C614 C 0.08205 0.53934 0.25988 0.0
C615 C 1.05289 0.50417 0.24423 0.0
C616 C 0.07538 0.53562 0.28322 0.0
C617 C 1.01706 0.46489 0.25255 0.0
C618 C 1.0097 0.46135 0.27573 0.0
C619 C 1.03095 0.49405 0.31474 0.0
C620 C 1.06041 0.52971 0.33032 0.0
C621 C 1.03847 0.49669 0.29132 0.0
C622 C 0.09805 0.56721 0.32168 0.0
C623 C 0.10508 0.57036 0.29861 0.0
loop_
_geom_bond_atom_site_label_1
_geom_bond_atom_site_label_2
_geom_bond_distance
_geom_bond_site_symmetry_2
_ccdc_geom_bond_type
Eu0 C9 2.828 . S
Eu0 O11 2.392 1_655 S
Eu0 O13 2.418 . S
Eu0 O18 2.373 . S
Eu0 O21 2.488 . S
Eu0 O22 2.471 . S
Eu0 O23 2.349 . S
Eu1 O10 2.373 . S
Eu1 O14 2.488 . S
Eu1 O15 2.471 . S
Eu1 O16 2.349 . S
Eu1 O19 2.392 1_455 S
Eu1 O20 2.418 . S
Eu1 C30 2.828 . S
C2 O20 1.244 . S
C2 O23 1.265 1_455 S
C3 C4 1.379 . S
C3 C7 1.373 . S
C3 C9 1.505 . S
C4 C3 1.379 . S
C4 C6 1.369 . S
C4 H32 0.930 . S
C5 C7 1.383 . S
C5 C8 1.382 . S
C5 H33 0.930 . S
C6 C4 1.369 . S
C6 C8 1.392 . S
C6 H34 0.930 . S
C7 C3 1.373 . S
C7 C5 1.383 . S
C7 H35 0.931 . S
C8 C5 1.382 . S
C8 C6 1.392 . S
C9 Eu0 2.828 . S
C9 C3 1.505 . S
C9 O21 1.249 . S
C9 O22 1.244 . S
O10 Eu1 2.373 . S
O10 C12 1.258 . S
O11 Eu0 2.392 1_455 S
O11 C12 1.242 . S
C12 O10 1.258 . S
C12 O11 1.242 . S
O13 Eu0 2.418 . S
O13 C17 1.245 . S
O14 Eu1 2.488 . S
O14 C30 1.249 . S
O15 Eu1 2.471 . S
O15 C30 1.244 . S
O16 Eu1 2.349 . S
O16 C17 1.264 1_455 S
C17 O13 1.245 . S
C17 O16 1.264 1_655 S
O18 Eu0 2.373 . S
O18 C31 1.258 . S
O19 Eu1 2.392 1_655 S
O19 C31 1.242 . S
O20 Eu1 2.418 . S
O20 C2 1.244 . S
O21 Eu0 2.488 . S
O21 C9 1.249 . S
O22 Eu0 2.471 . S
O22 C9 1.244 . S
O23 Eu0 2.349 . S
O23 C2 1.265 1_655 S
C24 C25 1.379 . S
C24 C28 1.373 . S
C24 C30 1.505 . S
C25 C24 1.379 . S
C25 C27 1.369 . S
C25 H36 0.930 . S
C26 C28 1.383 . S
C26 C29 1.382 . S
C26 H37 0.930 . S
C27 C25 1.369 . S
C27 C29 1.392 . S
C27 H38 0.930 . S
C28 C24 1.373 . S
C28 C26 1.383 . S
C28 H39 0.931 . S
C29 C26 1.382 . S
C29 C27 1.392 . S
C30 Eu1 2.828 . S
C30 O14 1.249 . S
C30 O15 1.244 . S
C30 C24 1.505 . S
C31 O18 1.258 . S
C31 O19 1.242 . S
H32 C4 0.930 . S
H33 C5 0.930 . S
H34 C6 0.930 . S
H35 C7 0.931 . S
H36 C25 0.930 . S
H37 C26 0.930 . S
H38 C27 0.930 . S
H39 C28 0.931 . S
Eu40 C49 2.828 . S
Eu40 O51 2.392 1_565 S
Eu40 O53 2.418 . S
Eu40 O58 2.373 . S
Eu40 O61 2.488 . S
Eu40 O62 2.471 . S
Eu40 O63 2.357 . S
Eu41 O50 2.373 . S
Eu41 O54 2.488 . S
Eu41 O55 2.471 . S
Eu41 O56 2.349 . S
Eu41 O59 2.392 1_545 S
Eu41 O60 2.418 . S
Eu41 C70 2.828 . S
C42 O60 1.244 . S
C42 O63 1.257 1_545 S
C43 C44 1.379 . S
C43 C47 1.373 . S
C43 C49 1.505 . S
C44 C43 1.379 . S
C44 C46 1.369 . S
C44 H72 0.930 . S
C45 C47 1.383 . S
C45 C48 1.382 . S
C45 H73 0.930 . S
C46 C44 1.369 . S
C46 C48 1.392 . S
C46 H74 0.930 . S
C47 C43 1.373 . S
C47 C45 1.383 . S
C47 H75 0.931 . S
C48 C45 1.382 . S
C48 C46 1.392 . S
C49 Eu40 2.828 . S
C49 C43 1.505 . S
C49 O61 1.249 . S
C49 O62 1.244 . S
O50 Eu41 2.373 . S
O50 C52 1.258 . S
O51 Eu40 2.392 1_545 S
O51 C52 1.242 . S
C52 O50 1.258 . S
C52 O51 1.242 . S
O53 Eu40 2.418 . S
O53 C57 1.244 1_565 S
O54 Eu41 2.488 . S
O54 C70 1.249 . S
O55 Eu41 2.471 . S
O55 C70 1.244 . S
O56 Eu41 2.349 . S
O56 C57 1.265 . S
C57 O53 1.244 1_545 S
C57 O56 1.265 . S
O58 Eu40 2.373 . S
O58 C71 1.258 . S
O59 Eu41 2.392 1_565 S
O59 C71 1.242 . S
O60 Eu41 2.418 . S
O60 C42 1.244 . S
O61 Eu40 2.488 . S
O61 C49 1.249 . S
O62 Eu40 2.471 . S
O62 C49 1.244 . S
O63 Eu40 2.357 . S
O63 C42 1.257 1_565 S
C64 C65 1.379 . S
C64 C68 1.373 . S
C64 C70 1.505 . S
C65 C64 1.379 . S
C65 C67 1.369 . S
C65 H76 0.930 . S
C66 C68 1.383 . S
C66 C69 1.382 . S
C66 H77 0.930 . S
C67 C65 1.369 . S
C67 C69 1.392 . S
C67 H78 0.930 . S
C68 C64 1.373 . S
C68 C66 1.383 . S
C68 H79 0.931 . S
C69 C66 1.382 . S
C69 C67 1.392 . S
C70 Eu41 2.828 . S
C70 O54 1.249 . S
C70 O55 1.244 . S
C70 C64 1.505 . S
C71 O58 1.258 . S
C71 O59 1.242 . S
H72 C44 0.930 . S
H73 C45 0.930 . S
H74 C46 0.930 . S
H75 C47 0.931 . S
H76 C65 0.930 . S
H77 C66 0.930 . S
H78 C67 0.930 . S
H79 C68 0.931 . S
Eu80 C89 2.828 . S
Eu80 O91 2.392 . S
Eu80 O93 2.418 . S
Eu80 O98 2.373 . S
Eu80 O101 2.488 . S
Eu80 O102 2.471 . S
Eu80 O103 2.349 . S
Eu81 O90 2.373 . S
Eu81 O94 2.488 . S
Eu81 O95 2.471 . S
Eu81 O96 2.349 . S
Eu81 O99 2.392 . S
Eu81 O100 2.418 . S
Eu81 C110 2.828 . S
C82 O100 1.244 . S
C82 O103 1.265 . S
C83 C84 1.379 . S
C83 C87 1.373 . S
C83 C89 1.505 . S
C84 C83 1.379 . S
C84 C86 1.369 . S
C84 H112 0.930 . S
C85 C87 1.383 . S
C85 C88 1.382 . S
C85 H113 0.930 . S
C86 C84 1.369 . S
C86 C88 1.392 . S
C86 H114 0.930 . S
C87 C83 1.373 . S
C87 C85 1.383 . S
C87 H115 0.931 . S
C88 C85 1.382 . S
C88 C86 1.392 . S
C89 Eu80 2.828 . S
C89 C83 1.505 . S
C89 O101 1.249 . S
C89 O102 1.244 . S
O90 Eu81 2.373 . S
O90 C92 1.258 . S
O91 Eu80 2.392 . S
O91 C92 1.242 . S
C92 O90 1.258 . S
C92 O91 1.242 . S
O93 Eu80 2.418 . S
O93 C97 1.244 . S
O94 Eu81 2.488 . S
O94 C110 1.249 . S
O95 Eu81 2.471 . S
O95 C110 1.244 . S
O96 Eu81 2.349 . S
O96 C97 1.265 . S
C97 O93 1.244 . S
C97 O96 1.265 . S
O98 Eu80 2.373 . S
O98 C111 1.258 . S
O99 Eu81 2.392 . S
O99 C111 1.242 . S
O100 Eu81 2.418 . S
O100 C82 1.244 . S
O101 Eu80 2.488 . S
O101 C89 1.249 . S
O102 Eu80 2.471 . S
O102 C89 1.244 . S
O103 Eu80 2.349 . S
O103 C82 1.265 . S
C104 C105 1.379 . S
C104 C108 1.373 . S
C104 C110 1.505 . S
C105 C104 1.379 . S
C105 C107 1.369 . S
C105 H116 0.930 . S
C106 C108 1.383 . S
C106 C109 1.382 . S
C106 H117 0.930 . S
C107 C105 1.369 . S
C107 C109 1.392 . S
C107 H118 0.930 . S
C108 C104 1.373 . S
C108 C106 1.383 . S
C108 H119 0.931 . S
C109 C106 1.382 . S
C109 C107 1.392 . S
C110 Eu81 2.828 . S
C110 O94 1.249 . S
C110 O95 1.244 . S
C110 C104 1.505 . S
C111 O98 1.258 . S
C111 O99 1.242 . S
H112 C84 0.930 . S
H113 C85 0.930 . S
H114 C86 0.930 . S
H115 C87 0.931 . S
H116 C105 0.930 . S
H117 C106 0.930 . S
H118 C107 0.930 . S
H119 C108 0.931 . S
C120 C121 1.384 . S
C120 H133 0.947 . S
C120 C155 1.382 . S
C121 C120 1.384 . S
C121 C122 1.378 . S
C122 C121 1.378 . S
C122 C123 1.378 . S
C122 H134 0.952 . S
C123 C122 1.378 . S
C123 H135 0.950 . S
C123 C154 1.383 . S
H124 C143 0.947 . S
H125 C144 0.946 . S
H126 C146 0.953 . S
H127 C147 0.945 . S
H128 C149 0.952 . S
H129 C150 0.949 . S
H130 C152 0.950 . S
H131 C153 0.948 . S
H132 C155 0.951 . S
H133 C120 0.947 . S
H134 C122 0.952 . S
H135 C123 0.950 . S
N136 C139 1.382 . S
N136 C141 1.363 1_545 S
N137 C139 1.371 . S
N137 C140 1.372 . S
N138 C140 1.361 1_565 S
N138 C141 1.377 . S
C139 N136 1.382 . S
C139 N137 1.371 . S
C139 C142 1.480 . S
C140 N137 1.372 . S
C140 N138 1.361 1_545 S
C140 C148 1.457 . S
C141 N136 1.363 1_565 S
C141 N138 1.377 . S
C141 C154 1.479 . S
C142 C139 1.480 . S
C142 C143 1.383 . S
C142 C147 1.385 . S
C143 H124 0.947 . S
C143 C142 1.383 . S
C143 C144 1.388 . S
C144 H125 0.946 . S
C144 C143 1.388 . S
C144 C145 1.384 . S
C145 C144 1.384 . S
C145 C146 1.377 . S
C146 H126 0.953 . S
C146 C145 1.377 . S
C146 C147 1.369 . S
C147 H127 0.945 . S
C147 C142 1.385 . S
C147 C146 1.369 . S
C148 C140 1.457 . S
C148 C149 1.372 . S
C148 C153 1.364 1_545 S
C149 H128 0.952 . S
C149 C148 1.372 . S
C149 C150 1.389 . S
C150 H129 0.949 . S
C150 C149 1.389 . S
C150 C151 1.387 . S
C151 C150 1.387 . S
C151 C152 1.372 1_545 S
C152 H130 0.950 . S
C152 C151 1.372 1_565 S
C152 C153 1.379 . S
C153 H131 0.948 . S
C153 C148 1.364 1_565 S
C153 C152 1.379 . S
C154 C123 1.383 . S
C154 C141 1.479 . S
C154 C155 1.398 . S
C155 C120 1.382 . S
C155 H132 0.951 . S
C155 C154 1.398 . S
C156 C157 1.384 . S
C156 H169 0.947 . S
C156 C191 1.382 . S
C157 C156 1.384 . S
C157 C158 1.378 . S
C158 C157 1.378 . S
C158 C159 1.378 . S
C158 H170 0.952 . S
C159 C158 1.378 . S
C159 H171 0.950 . S
C159 C190 1.383 . S
H160 C179 0.947 . S
H161 C180 0.946 . S
H162 C182 0.953 . S
H163 C183 0.945 . S
H164 C185 0.952 . S
H165 C186 0.949 . S
H166 C188 0.950 . S
H167 C189 0.948 . S
H168 C191 0.951 . S
H169 C156 0.947 . S
H170 C158 0.952 . S
H171 C159 0.950 . S
N172 C175 1.382 . S
N172 C177 1.363 . S
N173 C175 1.371 . S
N173 C176 1.372 . S
N174 C176 1.361 . S
N174 C177 1.377 . S
C175 N172 1.382 . S
C175 N173 1.371 . S
C175 C178 1.480 . S
C176 N173 1.372 . S
C176 N174 1.361 . S
C176 C184 1.457 . S
C177 N172 1.363 . S
C177 N174 1.377 . S
C177 C190 1.479 . S
C178 C175 1.480 . S
C178 C179 1.383 . S
C178 C183 1.385 . S
C179 H160 0.947 . S
C179 C178 1.383 . S
C179 C180 1.388 . S
C180 H161 0.946 . S
C180 C179 1.388 . S
C180 C181 1.384 . S
C181 C180 1.384 . S
C181 C182 1.377 . S
C182 H162 0.953 . S
C182 C181 1.377 . S
C182 C183 1.369 . S
C183 H163 0.945 . S
C183 C178 1.385 . S
C183 C182 1.369 . S
C184 C176 1.457 . S
C184 C185 1.372 . S
C184 C189 1.364 . S
C185 H164 0.952 . S
C185 C184 1.372 . S
C185 C186 1.389 . S
C186 H165 0.949 . S
C186 C185 1.389 . S
C186 C187 1.387 . S
C187 C186 1.387 . S
C187 C188 1.372 . S
C188 H166 0.950 . S
C188 C187 1.372 . S
C188 C189 1.379 . S
C189 H167 0.948 . S
C189 C184 1.364 . S
C189 C188 1.379 . S
C190 C159 1.383 . S
C190 C177 1.479 . S
C190 C191 1.398 . S
C191 C156 1.382 . S
C191 H168 0.951 . S
C191 C190 1.398 . S
C192 C193 1.384 . S
C192 H205 0.947 . S
C192 C227 1.382 . S
C193 C192 1.384 . S
C193 C194 1.378 . S
C194 C193 1.378 . S
C194 C195 1.378 . S
C194 H206 0.952 . S
C195 C194 1.378 . S
C195 H207 0.950 . S
C195 C226 1.383 . S
H196 C215 0.947 . S
H197 C216 0.946 . S
H198 C218 0.953 . S
H199 C219 0.945 . S
H200 C221 0.952 . S
H201 C222 0.949 1_554 S
H202 C224 0.950 1_554 S
H203 C225 0.948 . S
H204 C227 0.951 . S
H205 C192 0.947 . S
H206 C194 0.952 . S
H207 C195 0.950 . S
N208 C211 1.382 . S
N208 C213 1.363 . S
N209 C211 1.371 . S
N209 C212 1.372 . S
N210 C212 1.361 . S
N210 C213 1.377 . S
C211 N208 1.382 . S
C211 N209 1.371 . S
C211 C214 1.480 . S
C212 N209 1.372 . S
C212 N210 1.361 . S
C212 C220 1.457 . S
C213 N208 1.363 . S
C213 N210 1.377 . S
C213 C226 1.479 1_455 S
C214 C211 1.480 . S
C214 C215 1.383 . S
C214 C219 1.385 . S
C215 H196 0.947 . S
C215 C214 1.383 . S
C215 C216 1.388 . S
C216 H197 0.946 . S
C216 C215 1.388 . S
C216 C217 1.384 . S
C217 C216 1.384 . S
C217 C218 1.377 . S
C218 H198 0.953 . S
C218 C217 1.377 . S
C218 C219 1.369 . S
C219 H199 0.945 . S
C219 C214 1.385 . S
C219 C218 1.369 . S
C220 C212 1.457 . S
C220 C221 1.372 . S
C220 C225 1.364 1_455 S
C221 H200 0.952 . S
C221 C220 1.372 . S
C221 C222 1.389 . S
C222 H201 0.949 1_556 S
C222 C221 1.389 . S
C222 C223 1.387 1_556 S
C223 C222 1.387 1_554 S
C223 C224 1.372 1_454 S
C224 H202 0.950 1_556 S
C224 C223 1.372 1_656 S
C224 C225 1.379 . S
C225 H203 0.948 . S
C225 C220 1.364 1_655 S
C225 C224 1.379 . S
C226 C195 1.383 . S
C226 C213 1.479 1_655 S
C226 C227 1.398 . S
C227 C192 1.382 . S
C227 H204 0.951 . S
C227 C226 1.398 . S
C228 C229 1.384 . S
C228 H241 0.947 . S
C228 C263 1.382 . S
C229 C228 1.384 . S
C229 C230 1.378 . S
C230 C229 1.378 . S
C230 C231 1.378 . S
C230 H242 0.952 . S
C231 C230 1.378 . S
C231 H243 0.950 . S
C231 C262 1.383 . S
H232 C251 0.947 . S
H233 C252 0.946 . S
H234 C254 0.953 . S
H235 C255 0.945 . S
H236 C257 0.952 . S
H237 C258 0.949 . S
H238 C260 0.950 . S
H239 C261 0.948 . S
H240 C263 0.951 . S
H241 C228 0.947 . S
H242 C230 0.952 . S
H243 C231 0.950 . S
N244 C247 1.382 1_455 S
N244 C249 1.363 . S
N245 C247 1.371 . S
N245 C248 1.372 1_655 S
N246 C248 1.361 . S
N246 C249 1.377 . S
C247 N244 1.382 1_655 S
C247 N245 1.371 . S
C247 C250 1.480 . S
C248 N245 1.372 1_455 S
C248 N246 1.361 . S
C248 C256 1.457 . S
C249 N244 1.363 . S
C249 N246 1.377 . S
C249 C262 1.479 . S
C250 C247 1.480 . S
C250 C251 1.383 . S
C250 C255 1.385 . S
C251 H232 0.947 . S
C251 C250 1.383 . S
C251 C252 1.388 . S
C252 H233 0.946 . S
C252 C251 1.388 . S
C252 C253 1.384 . S
C253 C252 1.384 . S
C253 C254 1.377 . S
C254 H234 0.953 . S
C254 C253 1.377 . S
C254 C255 1.369 . S
C255 H235 0.945 . S
C255 C250 1.385 . S
C255 C254 1.369 . S
C256 C248 1.457 . S
C256 C257 1.372 1_455 S
C256 C261 1.364 . S
C257 H236 0.952 . S
C257 C256 1.372 1_655 S
C257 C258 1.389 . S
C258 H237 0.949 . S
C258 C257 1.389 . S
C258 C259 1.387 1_655 S
C259 C258 1.387 1_455 S
C259 C260 1.372 . S
C260 H238 0.950 . S
C260 C259 1.372 . S
C260 C261 1.379 . S
C261 H239 0.948 . S
C261 C256 1.364 . S
C261 C260 1.379 . S
C262 C231 1.383 . S
C262 C249 1.479 . S
C262 C263 1.398 . S
C263 C228 1.382 . S
C263 H240 0.951 . S
C263 C262 1.398 . S
C264 C265 1.384 . S
C264 H277 0.947 . S
C264 C299 1.382 . S
C265 C264 1.384 . S
C265 C266 1.378 . S
C266 C265 1.378 . S
C266 C267 1.378 . S
C266 H278 0.952 . S
C267 C266 1.378 . S
C267 H279 0.950 . S
C267 C298 1.383 . S
H268 C287 0.947 . S
H269 C288 0.946 . S
H270 C290 0.953 . S
H271 C291 0.945 . S
H272 C293 0.952 . S
H273 C294 0.949 . S
H274 C296 0.950 . S
H275 C297 0.948 . S
H276 C299 0.951 . S
H277 C264 0.947 . S
H278 C266 0.952 . S
H279 C267 0.950 . S
N280 C283 1.382 1_545 S
N280 C285 1.363 . S
N281 C283 1.371 . S
N281 C284 1.372 1_565 S
N282 C284 1.361 . S
N282 C285 1.377 . S
C283 N280 1.382 1_565 S
C283 N281 1.371 . S
C283 C286 1.480 . S
C284 N281 1.372 1_545 S
C284 N282 1.361 . S
C284 C292 1.457 . S
C285 N280 1.363 . S
C285 N282 1.377 . S
C285 C298 1.479 . S
C286 C283 1.480 . S
C286 C287 1.383 . S
C286 C291 1.385 . S
C287 H268 0.947 . S
C287 C286 1.383 . S
C287 C288 1.388 . S
C288 H269 0.946 . S
C288 C287 1.388 . S
C288 C289 1.384 . S
C289 C288 1.384 . S
C289 C290 1.377 . S
C290 H270 0.953 . S
C290 C289 1.377 . S
C290 C291 1.369 . S
C291 H271 0.945 . S
C291 C286 1.385 . S
C291 C290 1.369 . S
C292 C284 1.457 . S
C292 C293 1.372 1_545 S
C292 C297 1.364 . S
C293 H272 0.952 . S
C293 C292 1.372 1_565 S
C293 C294 1.389 . S
C294 H273 0.949 . S
C294 C293 1.389 . S
C294 C295 1.387 1_565 S
C295 C294 1.387 1_545 S
C295 C296 1.372 . S
C296 H274 0.950 . S
C296 C295 1.372 . S
C296 C297 1.379 . S
C297 H275 0.948 . S
C297 C292 1.364 . S
C297 C296 1.379 . S
C298 C267 1.383 . S
C298 C285 1.479 . S
C298 C299 1.398 . S
C299 C264 1.382 . S
C299 H276 0.951 . S
C299 C298 1.398 . S
C300 C301 1.384 . S
C300 H313 0.947 . S
C300 C335 1.382 . S
C301 C300 1.384 . S
C301 C302 1.378 . S
C302 C301 1.378 . S
C302 C303 1.378 . S
C302 H314 0.952 . S
C303 C302 1.378 . S
C303 H315 0.950 . S
C303 C334 1.383 . S
H304 C323 0.947 . S
H305 C324 0.946 . S
H306 C326 0.953 . S
H307 C327 0.945 . S
H308 C329 0.952 . S
H309 C330 0.949 . S
H310 C332 0.950 . S
H311 C333 0.948 . S
H312 C335 0.951 . S
H313 C300 0.947 . S
H314 C302 0.952 . S
H315 C303 0.950 . S
N316 C319 1.382 . S
N316 C321 1.363 . S
N317 C319 1.371 . S
N317 C320 1.372 . S
N318 C320 1.361 . S
N318 C321 1.377 . S
C319 N316 1.382 . S
C319 N317 1.371 . S
C319 C322 1.480 . S
C320 N317 1.372 . S
C320 N318 1.361 . S
C320 C328 1.457 . S
C321 N316 1.363 . S
C321 N318 1.377 . S
C321 C334 1.479 . S
C322 C319 1.480 . S
C322 C323 1.383 . S
C322 C327 1.385 . S
C323 H304 0.947 . S
C323 C322 1.383 . S
C323 C324 1.388 . S
C324 H305 0.946 . S
C324 C323 1.388 . S
C324 C325 1.384 . S
C325 C324 1.384 . S
C325 C326 1.377 . S
C326 H306 0.953 . S
C326 C325 1.377 . S
C326 C327 1.369 . S
C327 H307 0.945 . S
C327 C322 1.385 . S
C327 C326 1.369 . S
C328 C320 1.457 . S
C328 C329 1.372 . S
C328 C333 1.364 . S
C329 H308 0.952 . S
C329 C328 1.372 . S
C329 C330 1.389 . S
C330 H309 0.949 . S
C330 C329 1.389 . S
C330 C331 1.387 . S
C331 C330 1.387 . S
C331 C332 1.372 . S
C332 H310 0.950 . S
C332 C331 1.372 . S
C332 C333 1.379 . S
C333 H311 0.948 . S
C333 C328 1.364 . S
C333 C332 1.379 . S
C334 C303 1.383 . S
C334 C321 1.479 . S
C334 C335 1.398 . S
C335 C300 1.382 . S
C335 H312 0.951 . S
C335 C334 1.398 . S
H336 C342 0.930 . S
H337 C345 0.930 . S
H338 C346 0.930 . S
H339 C347 0.930 . S
H340 C350 0.930 . S
H341 C351 0.930 . S
C342 H336 0.930 . S
C342 C343 1.355 . S
C342 C344 1.415 . S
C343 C342 1.355 . S
C343 C345 1.419 . S
C344 C342 1.415 . S
C344 C349 1.425 . S
C344 C351 1.409 . S
C345 H337 0.930 . S
C345 C343 1.419 . S
C345 C346 1.362 . S
C346 H338 0.930 . S
C346 C345 1.362 . S
C346 C349 1.409 . S
C347 H339 0.930 . S
C347 C348 1.355 . S
C347 C349 1.415 . S
C348 C347 1.355 . S
C348 C350 1.419 . S
C349 C344 1.425 . S
C349 C346 1.409 . S
C349 C347 1.415 . S
C350 H340 0.930 . S
C350 C348 1.419 . S
C350 C351 1.362 . S
C351 H341 0.930 . S
C351 C344 1.409 . S
C351 C350 1.362 . S
H352 C358 0.930 . S
H353 C361 0.930 . S
H354 C362 0.930 . S
H355 C363 0.930 . S
H356 C366 0.930 . S
H357 C367 0.930 . S
C358 H352 0.930 . S
C358 C359 1.355 . S
C358 C360 1.415 . S
C359 C358 1.355 . S
C359 C361 1.419 . S
C360 C358 1.415 . S
C360 C365 1.425 . S
C360 C367 1.409 . S
C361 H353 0.930 . S
C361 C359 1.419 . S
C361 C362 1.362 . S
C362 H354 0.930 . S
C362 C361 1.362 . S
C362 C365 1.409 . S
C363 H355 0.930 . S
C363 C364 1.355 . S
C363 C365 1.415 . S
C364 C363 1.355 . S
C364 C366 1.419 . S
C365 C360 1.425 . S
C365 C362 1.409 . S
C365 C363 1.415 . S
C366 H356 0.930 . S
C366 C364 1.419 . S
C366 C367 1.362 . S
C367 H357 0.930 . S
C367 C360 1.409 . S
C367 C366 1.362 . S
H368 C374 0.930 . S
H369 C377 0.930 . S
H370 C378 0.930 . S
H371 C379 0.930 . S
H372 C382 0.930 . S
H373 C383 0.930 . S
C374 H368 0.930 . S
C374 C375 1.355 . S
C374 C376 1.415 . S
C375 C374 1.355 . S
C375 C377 1.419 . S
C376 C374 1.415 . S
C376 C381 1.425 . S
C376 C383 1.409 . S
C377 H369 0.930 . S
C377 C375 1.419 . S
C377 C378 1.362 . S
C378 H370 0.930 . S
C378 C377 1.362 . S
C378 C381 1.409 . S
C379 H371 0.930 . S
C379 C380 1.355 . S
C379 C381 1.415 . S
C380 C379 1.355 . S
C380 C382 1.419 . S
C381 C376 1.425 . S
C381 C378 1.409 . S
C381 C379 1.415 . S
C382 H372 0.930 . S
C382 C380 1.419 . S
C382 C383 1.362 . S
C383 H373 0.930 . S
C383 C376 1.409 . S
C383 C382 1.362 . S
H384 C390 0.930 . S
H385 C393 0.930 . S
H386 C394 0.930 . S
H387 C395 0.930 . S
H388 C398 0.930 . S
H389 C399 0.930 . S
C390 H384 0.930 . S
C390 C391 1.355 . S
C390 C392 1.415 . S
C391 C390 1.355 . S
C391 C393 1.419 . S
C392 C390 1.415 . S
C392 C397 1.425 . S
C392 C399 1.409 . S
C393 H385 0.930 . S
C393 C391 1.419 . S
C393 C394 1.362 . S
C394 H386 0.930 . S
C394 C393 1.362 . S
C394 C397 1.409 . S
C395 H387 0.930 . S
C395 C396 1.355 . S
C395 C397 1.415 . S
C396 C395 1.355 . S
C396 C398 1.419 . S
C397 C392 1.425 . S
C397 C394 1.409 . S
C397 C395 1.415 . S
C398 H388 0.930 . S
C398 C396 1.419 . S
C398 C399 1.362 . S
C399 H389 0.930 . S
C399 C392 1.409 . S
C399 C398 1.362 . S
H400 C406 0.930 . S
H401 C409 0.930 . S
H402 C410 0.930 . S
H403 C411 0.930 . S
H404 C414 0.930 . S
H405 C415 0.930 . S
C406 H400 0.930 . S
C406 C407 1.355 . S
C406 C408 1.415 . S
C407 C406 1.355 . S
C407 C409 1.419 . S
C408 C406 1.415 . S
C408 C413 1.425 . S
C408 C415 1.409 . S
C409 H401 0.930 . S
C409 C407 1.419 . S
C409 C410 1.362 . S
C410 H402 0.930 . S
C410 C409 1.362 . S
C410 C413 1.409 . S
C411 H403 0.930 . S
C411 C412 1.355 . S
C411 C413 1.415 . S
C412 C411 1.355 . S
C412 C414 1.419 . S
C413 C408 1.425 . S
C413 C410 1.409 . S
C413 C411 1.415 . S
C414 H404 0.930 . S
C414 C412 1.419 . S
C414 C415 1.362 . S
C415 H405 0.930 . S
C415 C408 1.409 . S
C415 C414 1.362 . S
H416 C422 0.930 . S
H417 C425 0.930 . S
H418 C426 0.930 . S
H419 C427 0.930 . S
H420 C430 0.930 . S
H421 C431 0.930 . S
C422 H416 0.930 . S
C422 C423 1.355 . S
C422 C424 1.415 . S
C423 C422 1.355 . S
C423 C425 1.419 . S
C424 C422 1.415 . S
C424 C429 1.425 . S
C424 C431 1.409 . S
C425 H417 0.930 . S
C425 C423 1.419 . S
C425 C426 1.362 . S
C426 H418 0.930 . S
C426 C425 1.362 . S
C426 C429 1.409 . S
C427 H419 0.930 . S
C427 C428 1.355 . S
C427 C429 1.415 . S
C428 C427 1.355 . S
C428 C430 1.419 . S
C429 C424 1.425 . S
C429 C426 1.409 . S
C429 C427 1.415 . S
C430 H420 0.930 . S
C430 C428 1.419 . S
C430 C431 1.362 . S
C431 H421 0.930 . S
C431 C424 1.409 . S
C431 C430 1.362 . S
H432 C438 0.930 . S
H433 C441 0.930 . S
H434 C442 0.930 . S
H435 C443 0.930 . S
H436 C446 0.930 . S
H437 C447 0.930 . S
C438 H432 0.930 . S
C438 C439 1.355 . S
C438 C440 1.415 . S
C439 C438 1.355 . S
C439 C441 1.419 . S
C440 C438 1.415 . S
C440 C445 1.425 . S
C440 C447 1.409 . S
C441 H433 0.930 . S
C441 C439 1.419 . S
C441 C442 1.362 . S
C442 H434 0.930 . S
C442 C441 1.362 . S
C442 C445 1.409 . S
C443 H435 0.930 . S
C443 C444 1.355 . S
C443 C445 1.415 . S
C444 C443 1.355 . S
C444 C446 1.419 . S
C445 C440 1.425 . S
C445 C442 1.409 . S
C445 C443 1.415 . S
C446 H436 0.930 . S
C446 C444 1.419 . S
C446 C447 1.362 . S
C447 H437 0.930 . S
C447 C440 1.409 . S
C447 C446 1.362 . S
H448 C454 0.930 . S
H449 C457 0.930 . S
H450 C458 0.930 . S
H451 C459 0.930 . S
H452 C462 0.930 . S
H453 C463 0.930 . S
C454 H448 0.930 . S
C454 C455 1.355 . S
C454 C456 1.415 . S
C455 C454 1.355 . S
C455 C457 1.419 . S
C456 C454 1.415 . S
C456 C461 1.425 . S
C456 C463 1.409 . S
C457 H449 0.930 . S
C457 C455 1.419 . S
C457 C458 1.362 . S
C458 H450 0.930 . S
C458 C457 1.362 . S
C458 C461 1.409 . S
C459 H451 0.930 . S
C459 C460 1.355 . S
C459 C461 1.415 . S
C460 C459 1.355 . S
C460 C462 1.419 . S
C461 C456 1.425 . S
C461 C458 1.409 . S
C461 C459 1.415 . S
C462 H452 0.930 . S
C462 C460 1.419 . S
C462 C463 1.362 . S
C463 H453 0.930 . S
C463 C456 1.409 . S
C463 C462 1.362 . S
H464 C470 0.930 . S
H465 C473 0.930 . S
H466 C474 0.930 . S
H467 C475 0.930 . S
H468 C478 0.930 . S
H469 C479 0.930 . S
C470 H464 0.930 . S
C470 C471 1.355 . S
C470 C472 1.415 . S
C471 C470 1.355 . S
C471 C473 1.419 . S
C472 C470 1.415 . S
C472 C477 1.425 . S
C472 C479 1.409 . S
C473 H465 0.930 . S
C473 C471 1.419 . S
C473 C474 1.362 . S
C474 H466 0.930 . S
C474 C473 1.362 . S
C474 C477 1.409 . S
C475 H467 0.930 . S
C475 C476 1.355 . S
C475 C477 1.415 . S
C476 C475 1.355 . S
C476 C478 1.419 . S
C477 C472 1.425 . S
C477 C474 1.409 . S
C477 C475 1.415 . S
C478 H468 0.930 . S
C478 C476 1.419 . S
C478 C479 1.362 . S
C479 H469 0.930 . S
C479 C472 1.409 . S
C479 C478 1.362 . S
H480 C486 0.930 . S
H481 C489 0.930 . S
H482 C490 0.930 . S
H483 C491 0.930 . S
H484 C494 0.930 . S
H485 C495 0.930 . S
C486 H480 0.930 . S
C486 C487 1.355 . S
C486 C488 1.415 . S
C487 C486 1.355 . S
C487 C489 1.419 . S
C488 C486 1.415 . S
C488 C493 1.425 . S
C488 C495 1.409 . S
C489 H481 0.930 . S
C489 C487 1.419 . S
C489 C490 1.362 . S
C490 H482 0.930 . S
C490 C489 1.362 . S
C490 C493 1.409 . S
C491 H483 0.930 . S
C491 C492 1.355 . S
C491 C493 1.415 . S
C492 C491 1.355 . S
C492 C494 1.419 . S
C493 C488 1.425 . S
C493 C490 1.409 . S
C493 C491 1.415 . S
C494 H484 0.930 . S
C494 C492 1.419 . S
C494 C495 1.362 . S
C495 H485 0.930 . S
C495 C488 1.409 . S
C495 C494 1.362 . S
H496 C502 0.930 . S
H497 C505 0.930 . S
H498 C506 0.930 . S
H499 C507 0.930 . S
H500 C510 0.930 . S
H501 C511 0.930 . S
C502 H496 0.930 . S
C502 C503 1.355 . S
C502 C504 1.415 . S
C503 C502 1.355 . S
C503 C505 1.419 . S
C504 C502 1.415 . S
C504 C509 1.425 . S
C504 C511 1.409 . S
C505 H497 0.930 . S
C505 C503 1.419 . S
C505 C506 1.362 . S
C506 H498 0.930 . S
C506 C505 1.362 . S
C506 C509 1.409 . S
C507 H499 0.930 . S
C507 C508 1.355 . S
C507 C509 1.415 . S
C508 C507 1.355 . S
C508 C510 1.419 . S
C509 C504 1.425 . S
C509 C506 1.409 . S
C509 C507 1.415 . S
C510 H500 0.930 . S
C510 C508 1.419 . S
C510 C511 1.362 . S
C511 H501 0.930 . S
C511 C504 1.409 . S
C511 C510 1.362 . S
H512 C518 0.930 . S
H513 C521 0.930 . S
H514 C522 0.930 . S
H515 C523 0.930 . S
H516 C526 0.930 . S
H517 C527 0.930 . S
C518 H512 0.930 . S
C518 C519 1.355 . S
C518 C520 1.415 . S
C519 C518 1.355 . S
C519 C521 1.419 . S
C520 C518 1.415 . S
C520 C525 1.425 . S
C520 C527 1.409 . S
C521 H513 0.930 . S
C521 C519 1.419 . S
C521 C522 1.362 . S
C522 H514 0.930 . S
C522 C521 1.362 . S
C522 C525 1.409 . S
C523 H515 0.930 . S
C523 C524 1.355 . S
C523 C525 1.415 . S
C524 C523 1.355 . S
C524 C526 1.419 . S
C525 C520 1.425 . S
C525 C522 1.409 . S
C525 C523 1.415 . S
C526 H516 0.930 . S
C526 C524 1.419 . S
C526 C527 1.362 . S
C527 H517 0.930 . S
C527 C520 1.409 . S
C527 C526 1.362 . S
H528 C534 0.930 . S
H529 C537 0.930 . S
H530 C538 0.930 . S
H531 C539 0.930 1_655 S
H532 C542 0.930 . S
H533 C543 0.930 . S
C534 H528 0.930 . S
C534 C535 1.355 . S
C534 C536 1.415 . S
C535 C534 1.355 . S
C535 C537 1.419 1_455 S
C536 C534 1.415 . S
C536 C541 1.425 . S
C536 C543 1.409 . S
C537 H529 0.930 . S
C537 C535 1.419 1_655 S
C537 C538 1.362 . S
C538 H530 0.930 . S
C538 C537 1.362 . S
C538 C541 1.409 1_655 S
C539 H531 0.930 1_455 S
C539 C540 1.355 . S
C539 C541 1.415 . S
C540 C539 1.355 . S
C540 C542 1.419 . S
C541 C536 1.425 . S
C541 C538 1.409 1_455 S
C541 C539 1.415 . S
C542 H532 0.930 . S
C542 C540 1.419 . S
C542 C543 1.362 . S
C543 H533 0.930 . S
C543 C536 1.409 . S
C543 C542 1.362 . S
H544 C550 0.930 . S
H545 C553 0.930 1_565 S
H546 C554 0.930 . S
H547 C555 0.930 . S
H548 C558 0.930 . S
H549 C559 0.930 . S
C550 H544 0.930 . S
C550 C551 1.355 . S
C550 C552 1.415 . S
C551 C550 1.355 . S
C551 C553 1.419 . S
C552 C550 1.415 . S
C552 C557 1.425 . S
C552 C559 1.409 . S
C553 H545 0.930 1_545 S
C553 C551 1.419 . S
C553 C554 1.362 . S
C554 H546 0.930 . S
C554 C553 1.362 . S
C554 C557 1.409 . S
C555 H547 0.930 . S
C555 C556 1.355 . S
C555 C557 1.415 . S
C556 C555 1.355 . S
C556 C558 1.419 . S
C557 C552 1.425 . S
C557 C554 1.409 . S
C557 C555 1.415 . S
C558 H548 0.930 . S
C558 C556 1.419 . S
C558 C559 1.362 . S
C559 H549 0.930 . S
C559 C552 1.409 . S
C559 C558 1.362 . S
H560 C566 0.930 . S
H561 C569 0.930 . S
H562 C570 0.930 . S
H563 C571 0.930 . S
H564 C574 0.930 . S
H565 C575 0.930 . S
C566 H560 0.930 . S
C566 C567 1.355 . S
C566 C568 1.415 . S
C567 C566 1.355 . S
C567 C569 1.419 . S
C568 C566 1.415 . S
C568 C573 1.425 . S
C568 C575 1.409 . S
C569 H561 0.930 . S
C569 C567 1.419 . S
C569 C570 1.362 . S
C570 H562 0.930 . S
C570 C569 1.362 . S
C570 C573 1.409 . S
C571 H563 0.930 . S
C571 C572 1.355 . S
C571 C573 1.415 . S
C572 C571 1.355 . S
C572 C574 1.419 . S
C573 C568 1.425 . S
C573 C570 1.409 . S
C573 C571 1.415 . S
C574 H564 0.930 . S
C574 C572 1.419 . S
C574 C575 1.362 . S
C575 H565 0.930 . S
C575 C568 1.409 . S
C575 C574 1.362 . S
H576 C582 0.930 . S
H577 C585 0.930 . S
H578 C586 0.930 . S
H579 C587 0.930 . S
H580 C590 0.930 . S
H581 C591 0.930 . S
C582 H576 0.930 . S
C582 C583 1.355 . S
C582 C584 1.415 . S
C583 C582 1.355 . S
C583 C585 1.419 1_545 S
C584 C582 1.415 . S
C584 C589 1.425 1_545 S
C584 C591 1.409 . S
C585 H577 0.930 . S
C585 C583 1.419 1_565 S
C585 C586 1.362 . S
C586 H578 0.930 . S
C586 C585 1.362 . S
C586 C589 1.409 . S
C587 H579 0.930 . S
C587 C588 1.355 1_565 S
C587 C589 1.415 . S
C588 C587 1.355 1_545 S
C588 C590 1.419 . S
C589 C584 1.425 1_565 S
C589 C586 1.409 . S
C589 C587 1.415 . S
C590 H580 0.930 . S
C590 C588 1.419 . S
C590 C591 1.362 . S
C591 H581 0.930 . S
C591 C584 1.409 . S
C591 C590 1.362 . S
H592 C598 0.930 . S
H593 C601 0.930 . S
H594 C602 0.930 . S
H595 C603 0.930 . S
H596 C606 0.930 . S
H597 C607 0.930 . S
C598 H592 0.930 . S
C598 C599 1.355 . S
C598 C600 1.415 . S
C599 C598 1.355 . S
C599 C601 1.419 . S
C600 C598 1.415 . S
C600 C605 1.425 . S
C600 C607 1.409 . S
C601 H593 0.930 . S
C601 C599 1.419 . S
C601 C602 1.362 . S
C602 H594 0.930 . S
C602 C601 1.362 . S
C602 C605 1.409 . S
C603 H595 0.930 . S
C603 C604 1.355 . S
C603 C605 1.415 . S
C604 C603 1.355 . S
C604 C606 1.419 . S
C605 C600 1.425 . S
C605 C602 1.409 . S
C605 C603 1.415 . S
C606 H596 0.930 . S
C606 C604 1.419 . S
C606 C607 1.362 . S
C607 H597 0.930 . S
C607 C600 1.409 . S
C607 C606 1.362 . S
H608 C614 0.930 . S
H609 C617 0.930 . S
H610 C618 0.930 . S
H611 C619 0.930 . S
H612 C622 0.930 . S
H613 C623 0.930 . S
C614 H608 0.930 . S
C614 C615 1.355 1_455 S
C614 C616 1.415 . S
C615 C614 1.355 1_655 S
C615 C617 1.419 . S
C616 C614 1.415 . S
C616 C621 1.425 1_455 S
C616 C623 1.409 . S
C617 H609 0.930 . S
C617 C615 1.419 . S
C617 C618 1.362 . S
C618 H610 0.930 . S
C618 C617 1.362 . S
C618 C621 1.409 . S
C619 H611 0.930 . S
C619 C620 1.355 1_655 S
C619 C621 1.415 . S
C620 C619 1.355 1_455 S
C620 C622 1.419 . S
C621 C616 1.425 1_655 S
C621 C618 1.409 . S
C621 C619 1.415 . S
C622 H612 0.930 . S
C622 C620 1.419 . S
C622 C623 1.362 . S
C623 H613 0.930 . S
C623 C616 1.409 . S
C623 C622 1.362 . S
C343 C12 2.984 . S
C348 C325 2.899 . S
C359 C52 2.973 . S
C364 C253 2.917 . S
C375 C111 3.026 . S
C380 C289 2.935 . S
C391 C31 3.162 . S
C396 C301 3.116 . S
C412 C229 3.106 . S
C407 C71 3.166 . S
C428 C265 3.064 . S
C423 C92 3.111 . S
C439 C48 0.487 . S
C444 C181 0.483 . S
C455 C109 0.500 . S
C460 C193 0.500 . S
C471 C29 0.475 . S
C476 C121 0.501 . S
C492 C157 0.434 . S
C487 C69 0.446 . S
C508 C217 0.308 . S
C503 C88 0.424 . S
C519 C8 0.467 . S
C524 C145 0.312 . S
C540 C223 1.058 . S
C535 C17 1.073 1_455 S
C551 C57 1.077 . S
C556 C151 1.028 . S
C567 C97 1.051 . S
C572 C187 1.080 . S
C588 C295 1.778 . S
C583 C42 1.742 . S
C604 C331 1.777 1_556 S
C599 C82 1.758 . S
C615 C2 1.751 1_655 S
C620 C259 1.778 . S
