# Generated by pormake.
# Topology pth, (4,4)-cn, num edge types: 1
# Building blocks:
#     Node 0, Type 0, BuildingBlock: GALJAG_clean_sbu_0, # of connection points: 4
#     Node 1, Type 0, BuildingBlock: GALJAG_clean_sbu_0, # of connection points: 4
#     Node 2, Type 0, BuildingBlock: GALJAG_clean_sbu_0, # of connection points: 4
#     Node 3, Type 1, BuildingBlock: MIFKUJ_clean_linker_1, # of connection points: 4
#     Node 4, Type 1, BuildingBlock: MIFKUJ_clean_linker_1, # of connection points: 4
#     Node 5, Type 1, BuildingBlock: MIFKUJ_clean_linker_1, # of connection points: 4
#     Edge 6, Type (0, 1), BuildingBlock: AJUNOK_clean_linker_0, # of connection points: 2
#     Edge 7, Type (0, 1), BuildingBlock: AJUNOK_clean_linker_0, # of connection points: 2
#     Edge 8, Type (0, 1), BuildingBlock: AJUNOK_clean_linker_0, # of connection points: 2
#     Edge 9, Type (0, 1), BuildingBlock: AJUNOK_clean_linker_0, # of connection points: 2
#     Edge 10, Type (0, 1), BuildingBlock: AJUNOK_clean_linker_0, # of connection points: 2
#     Edge 11, Type (0, 1), BuildingBlock: AJUNOK_clean_linker_0, # of connection points: 2
#     Edge 12, Type (0, 1), BuildingBlock: AJUNOK_clean_linker_0, # of connection points: 2
#     Edge 13, Type (0, 1), BuildingBlock: AJUNOK_clean_linker_0, # of connection points: 2
#     Edge 14, Type (0, 1), BuildingBlock: AJUNOK_clean_linker_0, # of connection points: 2
#     Edge 15, Type (0, 1), BuildingBlock: AJUNOK_clean_linker_0, # of connection points: 2
#     Edge 16, Type (0, 1), BuildingBlock: AJUNOK_clean_linker_0, # of connection points: 2
#     Edge 17, Type (0, 1), BuildingBlock: AJUNOK_clean_linker_0, # of connection points: 2
# Relax obj value: 0.002
# Max RMSD: 0.043
# Mean RMSD: 0.028
data_MOF--net-pth--node1-GALJAG_clean_sbu_0--node2-MIFKUJ_clean_linker_1--edge1-AJUNOK_clean_linker_0
_symmetry_space_group_name_H-M    P1
_symmetry_Int_Tables_number       1
_symmetry_cell_setting            triclinic
loop_
_symmetry_equiv_pos_as_xyz
'x, y, z'
_cell_length_a     23.441782
_cell_length_b     23.431427
_cell_length_c     48.245336
_cell_angle_alpha  90.150424
_cell_angle_beta   90.136063
_cell_angle_gamma 119.9948
loop_
_atom_site_label
_atom_site_type_symbol
_atom_site_fract_x
_atom_site_fract_y
_atom_site_fract_z
_atom_type_partial_charge
In0 In 0.00591 0.00715 0.04244 0.0
O1 O 0.95633 0.06348 0.05851 0.0
O2 O 0.04321 0.07913 0.07891 0.0
C3 C 0.91099 0.92336 0.00726 0.0
C4 C 0.10182 0.09266 0.00841 0.0
C5 C 0.00895 0.91599 0.07572 0.0
O6 O 0.89939 0.94982 0.02765 0.0
O7 O 0.97093 0.94067 0.00408 0.0
O8 O 0.05983 0.95962 0.06362 0.0
O9 O 0.95782 0.9195 0.07139 0.0
C10 C 0.99807 0.09337 0.07746 0.0
O11 O 0.10882 0.05262 0.02354 0.0
O12 O 0.04615 0.08851 0.01019 0.0
In13 In 0.00778 0.00973 0.37738 0.0
O14 O 0.05585 0.1142 0.35961 0.0
O15 O 0.96742 0.04029 0.34098 0.0
C16 C 0.10062 0.02183 0.41385 0.0
C17 C 0.91272 1.00105 0.41147 0.0
C18 C 0.00616 0.9154 0.34451 0.0
O19 O 0.11386 0.05957 0.39327 0.0
O20 O 0.04057 0.97894 0.41625 0.0
O21 O 0.95477 0.90816 0.35619 0.0
O22 O 0.05719 0.97003 0.34915 0.0
C23 C 0.01214 0.09994 0.34127 0.0
O24 O 0.90622 0.95248 0.39744 0.0
O25 O 0.9673 0.05332 0.40842 0.0
In26 In 0.00501 0.00454 0.71011 0.0
O27 O 0.94358 0.89463 0.72039 0.0
O28 O 0.93779 0.96316 0.74745 0.0
C29 C 0.09533 0.9954 0.67886 0.0
C30 C 0.92273 0.02176 0.67601 0.0
C31 C 0.0908 0.09791 0.74516 0.0
O32 O 0.04927 0.94592 0.69083 0.0
O33 O 0.0957 0.04877 0.68289 0.0
O34 O 0.06754 0.11161 0.72419 0.0
O35 O 0.07045 0.03732 0.74847 0.0
C36 C 0.91865 0.90364 0.74197 0.0
O37 O 0.93434 0.04327 0.70055 0.0
O38 O 0.95301 0.99258 0.66871 0.0
H39 H 0.10059 0.46337 0.15807 0.0
H40 H 0.09541 0.37305 0.13029 0.0
H41 H 0.90998 0.23718 0.16836 0.0
H42 H 0.91487 0.32765 0.19586 0.0
H43 H 0.01494 0.51087 0.15865 0.0
H44 H 0.10144 0.4194 0.22451 0.0
H45 H 0.10273 0.33151 0.25158 0.0
H46 H 0.91749 0.28594 0.28881 0.0
H47 H 0.91603 0.37338 0.26159 0.0
H48 H 0.91982 0.54671 0.26469 0.0
H49 H 0.92057 0.63293 0.29358 0.0
H50 H 0.09206 0.77966 0.24997 0.0
H51 H 0.09382 0.69294 0.22245 0.0
H52 H 0.00348 0.50575 0.2613 0.0
H53 H 0.92438 0.60773 0.19766 0.0
H54 H 0.92536 0.69559 0.17022 0.0
H55 H 0.09641 0.72036 0.12609 0.0
H56 H 0.09805 0.63562 0.15497 0.0
C57 C 0.00831 0.40214 0.1791 0.0
C58 C 0.05884 0.41414 0.16041 0.0
C59 C 0.056 0.3626 0.14468 0.0
C60 C 1.0021 0.29841 0.14711 0.0
C61 C 0.95164 0.2864 0.16589 0.0
C62 C 0.95469 0.33787 0.18174 0.0
C63 C 0.01076 0.4571 0.19537 0.0
C64 C 0.01348 0.51051 0.18113 0.0
C65 C 0.0074 0.4556 0.2246 0.0
C66 C 0.00829 0.40243 0.24086 0.0
C67 C 0.06088 0.39013 0.23835 0.0
C68 C 0.06179 0.3403 0.25388 0.0
C69 C 0.00989 0.3017 0.27201 0.0
C70 C 0.95755 0.31437 0.27463 0.0
C71 C 0.9569 0.36449 0.25927 0.0
C72 C 0.00658 0.6132 0.24127 0.0
C73 C 0.95793 0.59741 0.26149 0.0
C74 C 0.95804 0.64678 0.27783 0.0
C75 C 0.00676 0.71306 0.27428 0.0
C76 C 0.05475 0.72893 0.25369 0.0
C77 C 0.05521 0.67944 0.23762 0.0
C78 C 0.00717 0.55999 0.22464 0.0
C79 C 0.00511 0.50667 0.23883 0.0
C80 C 0.01147 0.56198 0.19529 0.0
C81 C 0.01158 0.61539 0.17865 0.0
C82 C 0.96277 0.63274 0.18241 0.0
C83 C 0.96275 0.68231 0.16637 0.0
C84 C 0.01037 0.71427 0.14565 0.0
C85 C 0.05922 0.69689 0.14194 0.0
C86 C 0.05984 0.64805 0.15828 0.0
H87 H 0.63644 0.09487 0.48883 0.0
H88 H 0.72076 0.08968 0.46087 0.0
H89 H 0.68477 0.91388 0.50428 0.0
H90 H 0.59899 0.91797 0.53161 0.0
H91 H 0.50927 0.01489 0.49242 0.0
H92 H 0.68997 0.09727 0.55386 0.0
H93 H 0.781 0.10402 0.58147 0.0
H94 H 0.64313 0.93535 0.62887 0.0
H95 H 0.5522 0.92672 0.60058 0.0
H96 H 0.37888 0.9113 0.59687 0.0
H97 H 0.29164 0.90666 0.62601 0.0
H98 H 0.31246 0.08044 0.58564 0.0
H99 H 0.40294 0.08768 0.55802 0.0
H100 H 0.50371 1.00107 0.59501 0.0
H101 H 0.3267 0.91322 0.52358 0.0
H102 H 0.24054 0.91762 0.4965 0.0
H103 H 0.37999 0.11731 0.47236 0.0
H104 H 0.46649 0.11118 0.49838 0.0
C105 C 0.6116 0.00704 0.51243 0.0
C106 C 0.64643 0.05499 0.49223 0.0
C107 C 0.6948 0.05221 0.47639 0.0
C108 C 0.70895 1.00113 0.48029 0.0
C109 C 0.67416 0.95319 0.50053 0.0
C110 C 0.6257 0.95594 0.51636 0.0
C111 C 0.5596 0.00967 0.52897 0.0
C112 C 0.50854 0.01243 0.51488 0.0
C113 C 0.55854 0.00679 0.55831 0.0
C114 C 0.61413 0.01074 0.57477 0.0
C115 C 0.67927 0.06088 0.56981 0.0
C116 C 0.7312 0.06506 0.58567 0.0
C117 C 0.71872 0.02008 0.60714 0.0
C118 C 0.65371 0.97066 0.61244 0.0
C119 C 0.6019 0.96579 0.5963 0.0
C120 C 0.3969 0.9992 0.57487 0.0
C121 C 0.3646 0.94837 0.59425 0.0
C122 C 0.31409 0.94525 0.61066 0.0
C123 C 0.29425 0.99248 0.6078 0.0
C124 C 0.32652 0.04322 0.58831 0.0
C125 C 0.37772 0.04692 0.57223 0.0
C126 C 0.4524 0.00348 0.5584 0.0
C127 C 0.50446 0.0028 0.57254 0.0
C128 C 0.45518 0.00957 0.52921 0.0
C129 C 0.40273 0.01197 0.51303 0.0
C130 C 0.3385 0.95788 0.51245 0.0
C131 C 0.28921 0.9608 0.49722 0.0
C132 C 0.30308 0.01832 0.48266 0.0
C133 C 0.36771 0.07226 0.48325 0.0
C134 C 0.41714 0.06891 0.49812 0.0
H135 H 0.46449 0.37077 0.82036 0.0
H136 H 0.37323 0.28677 0.79248 0.0
H137 H 0.23562 0.31979 0.83908 0.0
H138 H 0.32677 0.40614 0.86605 0.0
H139 H 0.5139 0.49376 0.82481 0.0
H140 H 0.42181 0.32174 0.89111 0.0
H141 H 0.33623 0.2329 0.91888 0.0
H142 H 0.29089 0.37218 0.95718 0.0
H143 H 0.3758 0.46079 0.92906 0.0
H144 H 0.54757 0.65035 0.91822 0.0
H145 H 0.63209 0.74286 0.94513 0.0
H146 H 0.77263 0.68124 0.92464 0.0
H147 H 0.68843 0.59051 0.89671 0.0
H148 H 0.50562 0.51075 0.92708 0.0
H149 H 0.59449 0.67843 0.85374 0.0
H150 H 0.68192 0.76167 0.82475 0.0
H151 H 0.74331 0.62149 0.80294 0.0
H152 H 0.65399 0.53778 0.8311 0.0
C153 C 0.40265 0.3943 0.84566 0.0
C154 C 0.4148 0.36027 0.82456 0.0
C155 C 0.36287 0.31232 0.80871 0.0
C156 C 0.29797 0.29714 0.81391 0.0
C157 C 0.28547 0.33064 0.83498 0.0
C158 C 0.33747 0.37944 0.8505 0.0
C159 C 0.45823 0.4473 0.86174 0.0
C160 C 0.51236 0.49652 0.84723 0.0
C161 C 0.45663 0.45165 0.89101 0.0
C162 C 0.40495 0.39786 0.9079 0.0
C163 C 0.39327 0.33312 0.9054 0.0
C164 C 0.34484 0.28255 0.92143 0.0
C165 C 0.30739 0.29589 0.94029 0.0
C166 C 0.31903 0.36063 0.94273 0.0
C167 C 0.36768 0.41125 0.92682 0.0
C168 C 0.61183 0.61365 0.90561 0.0
C169 C 0.5967 0.65702 0.9195 0.0
C170 C 0.64489 0.70948 0.93503 0.0
C171 C 0.70875 0.71862 0.93749 0.0
C172 C 0.72399 0.67563 0.92311 0.0
C173 C 0.67595 0.62369 0.90725 0.0
C174 C 0.5599 0.5569 0.89002 0.0
C175 C 0.50684 0.50711 0.90469 0.0
C176 C 0.56329 0.55095 0.86104 0.0
C177 C 0.6179 0.6021 0.8445 0.0
C178 C 0.6269 0.66579 0.84272 0.0
C179 C 0.67693 0.71326 0.8262 0.0
C180 C 0.71907 0.69795 0.81125 0.0
C181 C 0.71062 0.63434 0.81356 0.0
C182 C 0.66003 0.58666 0.82982 0.0
C183 C 0.05067 0.18288 0.113 0.0
C184 C 0.99631 0.14332 0.09578 0.0
C185 C 0.05199 0.23268 0.12961 0.0
C186 C 0.9987 0.24429 0.1299 0.0
H187 H 0.0931 0.17608 0.11337 0.0
H188 H 0.09502 0.26228 0.14239 0.0
S189 S 0.84448 0.15461 0.08889 0.0
N190 N 0.88758 0.11912 0.08022 0.0
N191 N 0.89017 0.21263 0.1116 0.0
C192 C 0.9437 0.2047 0.11311 0.0
C193 C 0.9425 0.15429 0.09599 0.0
C194 C 0.87162 0.05527 0.44408 0.0
C195 C 0.86039 0.99831 0.42959 0.0
C196 C 0.82262 0.05549 0.46056 0.0
C197 C 0.76046 0.99866 0.46333 0.0
H198 H 0.91858 0.10049 0.44255 0.0
H199 H 0.83355 0.10053 0.47129 0.0
S200 S 0.70533 0.83676 0.42962 0.0
N201 N 0.78208 0.88335 0.41916 0.0
N202 N 0.68983 0.88402 0.45003 0.0
C203 C 0.74858 0.94115 0.44919 0.0
C204 C 0.7985 0.94091 0.43233 0.0
C205 C 0.85848 0.86289 0.78661 0.0
C206 C 0.86985 0.84936 0.7594 0.0
C207 C 0.81055 0.81345 0.80331 0.0
C208 C 0.77156 0.74857 0.79339 0.0
H209 H 0.88685 0.91221 0.79513 0.0
H210 H 0.80397 0.82624 0.82419 0.0
S211 S 0.78002 0.68817 0.72313 0.0
N212 N 0.83793 0.76662 0.72313 0.0
N213 N 0.74637 0.67397 0.75421 0.0
C214 C 0.78252 0.73432 0.7662 0.0
C215 C 0.83196 0.78461 0.74928 0.0
C216 C 0.06732 0.87289 0.10505 0.0
C217 C 0.00851 0.86411 0.09331 0.0
C218 C 0.06748 0.82444 0.12205 0.0
C219 C 0.00893 0.76513 0.1277 0.0
H220 H 0.11344 0.91787 0.1014 0.0
H221 H 0.11376 0.83383 0.13107 0.0
S222 S 0.84285 0.71565 0.09967 0.0
N223 N 0.89072 0.7904 0.08735 0.0
N224 N 0.89136 0.69872 0.11851 0.0
C225 C 0.95005 0.75526 0.11554 0.0
C226 C 0.94977 0.80485 0.09853 0.0
C227 C 0.21671 0.05 0.4228 0.0
C228 C 0.15197 0.02431 0.43248 0.0
C229 C 0.26521 0.04828 0.43923 0.0
C230 C 0.25107 0.02155 0.46613 0.0
H231 H 0.2296 0.0698 0.40203 0.0
H232 H 0.31381 0.06668 0.4305 0.0
S233 S 0.09072 0.95502 0.50228 0.0
N234 N 0.07701 0.9751 0.47119 0.0
N235 N 0.16873 0.97407 0.5025 0.0
C236 C 0.18698 0.9979 0.47641 0.0
C237 C 0.13735 0.9988 0.4595 0.0
C238 C 0.18473 0.21183 0.75291 0.0
C239 C 0.14091 0.14896 0.76351 0.0
C240 C 0.23565 0.2597 0.76939 0.0
C241 C 0.24335 0.24665 0.79712 0.0
H242 H 0.18077 0.22353 0.73154 0.0
H243 H 0.26928 0.30719 0.76042 0.0
S244 S 0.13989 0.09165 0.83522 0.0
N245 N 0.1077 0.07705 0.80371 0.0
N246 N 0.20245 0.16802 0.83482 0.0
C247 C 0.19905 0.18485 0.80819 0.0
C248 C 0.14802 0.13567 0.79132 0.0
C249 C 0.82362 0.03399 0.66956 0.0
C250 C 0.8742 0.02615 0.65784 0.0
C251 C 0.77364 0.03242 0.65297 0.0
C252 C 0.77336 0.02436 0.62408 0.0
H253 H 0.82148 0.03939 0.69177 0.0
H254 H 0.73475 0.03728 0.6628 0.0
S255 S 0.89593 0.00478 0.58306 0.0
N256 N 0.92173 0.0117 0.61544 0.0
N257 N 0.82835 0.01013 0.58432 0.0
C258 C 0.8245 0.01835 0.61201 0.0
C259 C 0.87479 0.01886 0.6289 0.0
C260 C 0.87286 0.86064 0.96264 0.0
C261 C 0.85823 0.87311 0.98946 0.0
C262 C 0.82414 0.8113 0.94584 0.0
C263 C 0.75912 0.77203 0.95536 0.0
H264 H 0.92232 0.88934 0.95452 0.0
H265 H 0.8375 0.80394 0.92521 0.0
S266 S 0.69701 0.78157 0.02496 0.0
N267 N 0.77485 0.84084 0.02518 0.0
N268 N 0.6839 0.74679 0.99404 0.0
C269 C 0.74415 0.78362 0.9823 0.0
C270 C 0.79352 0.83443 0.99924 0.0
C271 C 0.94866 0.81418 0.31482 0.0
C272 C 0.00714 0.8641 0.3269 0.0
C273 C 0.94898 0.7658 0.29772 0.0
C274 C 0.0077 0.76519 0.29228 0.0
H275 H 0.90242 0.81295 0.31829 0.0
H276 H 0.90294 0.72895 0.28846 0.0
S277 S 0.17304 0.88163 0.3211 0.0
N278 N 0.12481 0.90828 0.33334 0.0
N279 N 0.12505 0.81639 0.30195 0.0
C280 C 0.06626 0.81411 0.30474 0.0
C281 C 0.06604 0.86373 0.32188 0.0
C282 C 0.20458 0.05027 0.6556 0.0
C283 C 0.14515 0.99212 0.66124 0.0
C284 C 0.25234 0.04969 0.63844 0.0
C285 C 0.24234 0.99104 0.62595 0.0
H286 H 0.21463 0.09675 0.66468 0.0
H287 H 0.29778 0.09561 0.63515 0.0
S288 S 0.09316 0.82596 0.63275 0.0
N289 N 0.078 0.87446 0.65252 0.0
N290 N 0.16702 0.87358 0.61952 0.0
C291 C 0.18278 0.93251 0.63122 0.0
C292 C 0.13438 0.933 0.64902 0.0
C293 C 0.14223 0.18413 0.97399 0.0
C294 C 0.15481 0.14224 0.99057 0.0
C295 C 0.19172 0.23336 0.95772 0.0
C296 C 0.25568 0.24243 0.95727 0.0
H297 H 0.09378 0.17931 0.97367 0.0
H298 H 0.17977 0.26445 0.94531 0.0
S299 S 0.31511 0.14729 0.99728 0.0
N300 N 0.23662 0.11381 0.00569 0.0
N301 N 0.32959 0.20656 0.9751 0.0
C302 C 0.26903 0.20083 0.97358 0.0
C303 C 0.21866 0.15072 0.99024 0.0
C304 C 0.06555 0.21451 0.32224 0.0
C305 C 0.01179 0.14967 0.32243 0.0
C306 C 0.06517 0.26313 0.30546 0.0
C307 C 0.01071 0.24886 0.28851 0.0
H308 H 0.10812 0.22805 0.33531 0.0
H309 H 0.10717 0.31263 0.30621 0.0
S310 S 0.85903 0.08648 0.28025 0.0
N311 N 0.90354 0.07347 0.30323 0.0
N312 N 0.90305 0.1651 0.27191 0.0
C313 C 0.95718 0.18417 0.28812 0.0
C314 C 0.95769 0.1345 0.305 0.0
loop_
_geom_bond_atom_site_label_1
_geom_bond_atom_site_label_2
_geom_bond_distance
_geom_bond_site_symmetry_2
_ccdc_geom_bond_type
In0 O1 2.294 1_455 S
In0 O2 2.326 . S
In0 O6 2.266 1_445 S
In0 O7 2.326 1_445 S
In0 O8 2.266 1_545 S
In0 O9 2.326 1_445 S
In0 O11 2.294 . S
In0 O12 2.326 . S
O1 In0 2.294 1_655 S
O1 C10 1.240 1_655 S
O2 In0 2.326 . S
O2 C10 1.252 . S
C3 O6 1.252 . S
C3 O7 1.260 . S
C4 O11 1.240 . S
C4 O12 1.252 . S
C5 O8 1.252 1_655 S
C5 O9 1.260 . S
O6 In0 2.266 1_665 S
O6 C3 1.252 . S
O7 In0 2.326 1_665 S
O7 C3 1.260 . S
O8 In0 2.266 1_565 S
O8 C5 1.252 1_455 S
O9 In0 2.326 1_665 S
O9 C5 1.260 . S
C10 O1 1.240 1_455 S
C10 O2 1.252 . S
O11 In0 2.294 . S
O11 C4 1.240 . S
O12 In0 2.326 . S
O12 C4 1.252 . S
In13 O14 2.294 . S
In13 O15 2.326 1_455 S
In13 O19 2.266 . S
In13 O20 2.326 1_545 S
In13 O21 2.266 1_445 S
In13 O22 2.326 1_545 S
In13 O24 2.294 1_445 S
In13 O25 2.326 1_455 S
O14 In13 2.294 . S
O14 C23 1.240 1_455 S
O15 In13 2.326 1_655 S
O15 C23 1.252 . S
C16 O19 1.252 1_565 S
C16 O20 1.260 . S
C17 O24 1.240 1_545 S
C17 O25 1.252 . S
C18 O21 1.252 1_455 S
C18 O22 1.260 . S
O19 In13 2.266 . S
O19 C16 1.252 1_545 S
O20 In13 2.326 1_565 S
O20 C16 1.260 . S
O21 In13 2.266 1_665 S
O21 C18 1.252 1_655 S
O22 In13 2.326 1_565 S
O22 C18 1.260 . S
C23 O14 1.240 1_655 S
C23 O15 1.252 . S
O24 In13 2.294 1_665 S
O24 C17 1.240 1_565 S
O25 In13 2.326 1_655 S
O25 C17 1.252 . S
In26 O27 2.289 1_445 S
In26 O28 2.327 1_445 S
In26 O32 2.261 1_545 S
In26 O33 2.326 . S
In26 O34 2.271 . S
In26 O35 2.325 . S
In26 O37 2.299 1_455 S
In26 O38 2.326 1_445 S
O27 In26 2.289 1_665 S
O27 C36 1.240 . S
O28 In26 2.327 1_665 S
O28 C36 1.252 . S
C29 O32 1.252 1_545 S
C29 O33 1.260 . S
C30 O37 1.240 1_565 S
C30 O38 1.252 . S
C31 O34 1.252 . S
C31 O35 1.260 . S
O32 In26 2.261 1_565 S
O32 C29 1.252 1_565 S
O33 In26 2.326 . S
O33 C29 1.260 . S
O34 In26 2.271 . S
O34 C31 1.252 . S
O35 In26 2.325 . S
O35 C31 1.260 . S
C36 O27 1.240 . S
C36 O28 1.252 . S
O37 In26 2.299 1_655 S
O37 C30 1.240 1_545 S
O38 In26 2.326 1_665 S
O38 C30 1.252 . S
H39 C58 0.949 . S
H40 C59 0.950 . S
H41 C61 0.950 . S
H42 C62 0.950 . S
H43 C64 0.950 . S
H44 C67 0.950 . S
H45 C68 0.950 . S
H46 C70 0.951 . S
H47 C71 0.949 . S
H48 C73 0.949 . S
H49 C74 0.950 . S
H50 C76 0.950 . S
H51 C77 0.950 . S
H52 C79 0.950 . S
H53 C82 0.950 . S
H54 C83 0.950 . S
H55 C85 0.951 . S
H56 C86 0.949 . S
C57 C58 1.376 . S
C57 C62 1.386 1_455 S
C57 C63 1.483 . S
C58 H39 0.949 . S
C58 C57 1.376 . S
C58 C59 1.397 . S
C59 H40 0.950 . S
C59 C58 1.397 . S
C59 C60 1.391 . S
C60 C59 1.391 . S
C60 C61 1.405 1_455 S
C61 H41 0.950 . S
C61 C60 1.405 1_655 S
C61 C62 1.367 . S
C62 H42 0.950 . S
C62 C57 1.386 1_655 S
C62 C61 1.367 . S
C63 C57 1.483 . S
C63 C64 1.382 . S
C63 C65 1.403 1_455 S
C64 H43 0.950 . S
C64 C63 1.382 . S
C64 C80 1.411 . S
C65 C63 1.403 1_655 S
C65 C66 1.489 . S
C65 C79 1.411 . S
C66 C65 1.489 . S
C66 C67 1.383 1_655 S
C66 C71 1.382 . S
C67 H44 0.950 . S
C67 C66 1.383 1_455 S
C67 C68 1.395 . S
C68 H45 0.950 . S
C68 C67 1.395 . S
C68 C69 1.288 1_455 S
C69 C68 1.288 1_655 S
C69 C70 1.392 . S
C70 H46 0.951 . S
C70 C69 1.392 . S
C70 C71 1.392 . S
C71 H47 0.949 . S
C71 C66 1.382 . S
C71 C70 1.392 . S
C72 C73 1.376 . S
C72 C77 1.386 1_655 S
C72 C78 1.483 . S
C73 H48 0.949 . S
C73 C72 1.376 . S
C73 C74 1.397 . S
C74 H49 0.950 . S
C74 C73 1.397 . S
C74 C75 1.391 1_655 S
C75 C74 1.391 1_455 S
C75 C76 1.405 . S
C76 H50 0.950 . S
C76 C75 1.405 . S
C76 C77 1.367 . S
C77 H51 0.950 . S
C77 C72 1.386 1_455 S
C77 C76 1.367 . S
C78 C72 1.483 . S
C78 C79 1.382 . S
C78 C80 1.403 1_655 S
C79 H52 0.950 . S
C79 C65 1.411 . S
C79 C78 1.382 . S
C80 C64 1.411 . S
C80 C78 1.403 1_455 S
C80 C81 1.489 . S
C81 C80 1.489 . S
C81 C82 1.383 1_455 S
C81 C86 1.382 . S
C82 H53 0.950 . S
C82 C81 1.383 1_655 S
C82 C83 1.395 . S
C83 H54 0.950 . S
C83 C82 1.395 . S
C83 C84 1.288 1_655 S
C84 C83 1.288 1_455 S
C84 C85 1.392 . S
C85 H55 0.951 . S
C85 C84 1.392 . S
C85 C86 1.392 . S
C86 H56 0.949 . S
C86 C81 1.382 . S
C86 C85 1.392 . S
H87 C106 0.949 . S
H88 C107 0.950 . S
H89 C109 0.950 . S
H90 C110 0.950 . S
H91 C112 0.950 . S
H92 C115 0.950 . S
H93 C116 0.950 . S
H94 C118 0.951 . S
H95 C119 0.949 . S
H96 C121 0.949 . S
H97 C122 0.950 . S
H98 C124 0.950 . S
H99 C125 0.950 . S
H100 C127 0.950 . S
H101 C130 0.950 . S
H102 C131 0.950 . S
H103 C133 0.951 . S
H104 C134 0.949 . S
C105 C106 1.376 . S
C105 C110 1.386 1_545 S
C105 C111 1.483 . S
C106 H87 0.949 . S
C106 C105 1.376 . S
C106 C107 1.397 . S
C107 H88 0.950 . S
C107 C106 1.397 . S
C107 C108 1.391 . S
C108 C107 1.391 . S
C108 C109 1.405 1_545 S
C109 H89 0.950 . S
C109 C108 1.405 1_565 S
C109 C110 1.367 . S
C110 H90 0.950 . S
C110 C105 1.386 1_565 S
C110 C109 1.367 . S
C111 C105 1.483 . S
C111 C112 1.382 . S
C111 C113 1.403 1_545 S
C112 H91 0.950 . S
C112 C111 1.382 . S
C112 C128 1.411 . S
C113 C111 1.403 1_565 S
C113 C114 1.489 . S
C113 C127 1.411 . S
C114 C113 1.489 . S
C114 C115 1.383 1_565 S
C114 C119 1.382 . S
C115 H92 0.950 . S
C115 C114 1.383 1_545 S
C115 C116 1.395 . S
C116 H93 0.950 . S
C116 C115 1.395 . S
C116 C117 1.288 1_545 S
C117 C116 1.288 1_565 S
C117 C118 1.392 . S
C118 H94 0.951 . S
C118 C117 1.392 . S
C118 C119 1.392 . S
C119 H95 0.949 . S
C119 C114 1.382 . S
C119 C118 1.392 . S
C120 C121 1.376 . S
C120 C125 1.386 1_565 S
C120 C126 1.483 . S
C121 H96 0.949 . S
C121 C120 1.376 . S
C121 C122 1.397 . S
C122 H97 0.950 . S
C122 C121 1.397 . S
C122 C123 1.407 . S
C123 C122 1.407 . S
C123 C124 1.396 1_565 S
C124 H98 0.950 . S
C124 C123 1.396 1_545 S
C124 C125 1.367 . S
C125 H99 0.950 . S
C125 C120 1.386 1_545 S
C125 C124 1.367 . S
C126 C120 1.483 . S
C126 C127 1.382 . S
C126 C128 1.403 1_565 S
C127 H100 0.950 . S
C127 C113 1.411 . S
C127 C126 1.382 . S
C128 C112 1.411 . S
C128 C126 1.403 1_545 S
C128 C129 1.489 . S
C129 C128 1.489 . S
C129 C130 1.383 1_545 S
C129 C134 1.382 . S
C130 H101 0.950 . S
C130 C129 1.383 1_565 S
C130 C131 1.395 . S
C131 H102 0.950 . S
C131 C130 1.395 . S
C131 C132 1.288 1_565 S
C132 C131 1.288 1_545 S
C132 C133 1.392 . S
C133 H103 0.951 . S
C133 C132 1.392 . S
C133 C134 1.392 . S
C134 H104 0.949 . S
C134 C129 1.382 . S
C134 C133 1.392 . S
H135 C154 0.949 . S
H136 C155 0.950 . S
H137 C157 0.950 . S
H138 C158 0.950 . S
H139 C160 0.950 . S
H140 C163 0.950 . S
H141 C164 0.950 . S
H142 C166 0.951 . S
H143 C167 0.949 . S
H144 C169 0.949 . S
H145 C170 0.950 . S
H146 C172 0.950 . S
H147 C173 0.950 . S
H148 C175 0.950 . S
H149 C178 0.950 . S
H150 C179 0.950 . S
H151 C181 0.951 . S
H152 C182 0.949 . S
C153 C154 1.376 . S
C153 C158 1.386 . S
C153 C159 1.483 . S
C154 H135 0.949 . S
C154 C153 1.376 . S
C154 C155 1.397 . S
C155 H136 0.950 . S
C155 C154 1.397 . S
C155 C156 1.391 . S
C156 C155 1.391 . S
C156 C157 1.405 . S
C157 H137 0.950 . S
C157 C156 1.405 . S
C157 C158 1.367 . S
C158 H138 0.950 . S
C158 C153 1.386 . S
C158 C157 1.367 . S
C159 C153 1.483 . S
C159 C160 1.382 . S
C159 C161 1.403 . S
C160 H139 0.950 . S
C160 C159 1.382 . S
C160 C176 1.411 . S
C161 C159 1.403 . S
C161 C162 1.489 . S
C161 C175 1.411 . S
C162 C161 1.489 . S
C162 C163 1.383 . S
C162 C167 1.382 . S
C163 H140 0.950 . S
C163 C162 1.383 . S
C163 C164 1.395 . S
C164 H141 0.950 . S
C164 C163 1.395 . S
C164 C165 1.288 . S
C165 C164 1.288 . S
C165 C166 1.392 . S
C166 H142 0.951 . S
C166 C165 1.392 . S
C166 C167 1.392 . S
C167 H143 0.949 . S
C167 C162 1.382 . S
C167 C166 1.392 . S
C168 C169 1.376 . S
C168 C173 1.386 . S
C168 C174 1.483 . S
C169 H144 0.949 . S
C169 C168 1.376 . S
C169 C170 1.397 . S
C170 H145 0.950 . S
C170 C169 1.397 . S
C170 C171 1.391 . S
C171 C170 1.391 . S
C171 C172 1.405 . S
C172 H146 0.950 . S
C172 C171 1.405 . S
C172 C173 1.367 . S
C173 H147 0.950 . S
C173 C168 1.386 . S
C173 C172 1.367 . S
C174 C168 1.483 . S
C174 C175 1.382 . S
C174 C176 1.403 . S
C175 H148 0.950 . S
C175 C161 1.411 . S
C175 C174 1.382 . S
C176 C160 1.411 . S
C176 C174 1.403 . S
C176 C177 1.489 . S
C177 C176 1.489 . S
C177 C178 1.383 . S
C177 C182 1.382 . S
C178 H149 0.950 . S
C178 C177 1.383 . S
C178 C179 1.395 . S
C179 H150 0.950 . S
C179 C178 1.395 . S
C179 C180 1.288 . S
C180 C179 1.288 . S
C180 C181 1.392 . S
C181 H151 0.951 . S
C181 C180 1.392 . S
C181 C182 1.392 . S
C182 H152 0.949 . S
C182 C177 1.382 . S
C182 C181 1.392 . S
C183 C184 1.369 . S
C183 C185 1.419 . S
C183 H187 0.930 . S
C184 C183 1.369 . S
C184 C193 1.429 1_455 S
C185 C183 1.419 . S
C185 C186 1.363 . S
C185 H188 0.929 . S
C186 C185 1.363 . S
C186 C192 1.428 1_455 S
H187 C183 0.930 . S
H188 C185 0.929 . S
S189 N190 1.613 . S
S189 N191 1.610 . S
N190 S189 1.613 . S
N190 C193 1.350 . S
N191 S189 1.610 . S
N191 C192 1.351 . S
C192 C186 1.428 1_655 S
C192 N191 1.351 . S
C192 C193 1.434 . S
C193 C184 1.429 1_655 S
C193 N190 1.350 . S
C193 C192 1.434 . S
C194 C195 1.369 . S
C194 C196 1.419 . S
C194 H198 0.930 . S
C195 C194 1.369 . S
C195 C204 1.429 1_545 S
C196 C194 1.419 . S
C196 C197 1.363 . S
C196 H199 0.929 . S
C197 C196 1.363 . S
C197 C203 1.428 1_545 S
H198 C194 0.930 . S
H199 C196 0.929 . S
S200 N201 1.613 . S
S200 N202 1.610 . S
N201 S200 1.613 . S
N201 C204 1.350 . S
N202 S200 1.610 . S
N202 C203 1.351 . S
C203 C197 1.428 1_565 S
C203 N202 1.351 . S
C203 C204 1.434 . S
C204 C195 1.429 1_565 S
C204 N201 1.350 . S
C204 C203 1.434 . S
C205 C206 1.369 . S
C205 C207 1.419 . S
C205 H209 0.930 . S
C206 C205 1.369 . S
C206 C215 1.429 . S
C207 C205 1.419 . S
C207 C208 1.363 . S
C207 H210 0.929 . S
C208 C207 1.363 . S
C208 C214 1.428 . S
H209 C205 0.930 . S
H210 C207 0.929 . S
S211 N212 1.613 . S
S211 N213 1.610 . S
N212 S211 1.613 . S
N212 C215 1.350 . S
N213 S211 1.610 . S
N213 C214 1.351 . S
C214 C208 1.428 . S
C214 N213 1.351 . S
C214 C215 1.434 . S
C215 C206 1.429 . S
C215 N212 1.350 . S
C215 C214 1.434 . S
C216 C217 1.369 1_455 S
C216 C218 1.419 . S
C216 H220 0.930 . S
C217 C216 1.369 1_655 S
C217 C226 1.429 . S
C218 C216 1.419 . S
C218 C219 1.363 . S
C218 H221 0.929 . S
C219 C218 1.363 . S
C219 C225 1.428 1_455 S
H220 C216 0.930 . S
H221 C218 0.929 . S
S222 N223 1.613 . S
S222 N224 1.610 . S
N223 S222 1.613 . S
N223 C226 1.350 . S
N224 S222 1.610 . S
N224 C225 1.351 . S
C225 C219 1.428 1_655 S
C225 N224 1.351 . S
C225 C226 1.434 . S
C226 C217 1.429 . S
C226 N223 1.350 . S
C226 C225 1.434 . S
C227 C228 1.369 . S
C227 C229 1.419 . S
C227 H231 0.930 . S
C228 C227 1.369 . S
C228 C237 1.429 1_565 S
C229 C227 1.419 . S
C229 C230 1.363 1_565 S
C229 H232 0.929 . S
C230 C229 1.363 1_545 S
C230 C236 1.428 . S
H231 C227 0.930 . S
H232 C229 0.929 . S
S233 N234 1.613 . S
S233 N235 1.610 . S
N234 S233 1.613 . S
N234 C237 1.350 . S
N235 S233 1.610 . S
N235 C236 1.351 . S
C236 C230 1.428 . S
C236 N235 1.351 . S
C236 C237 1.434 . S
C237 C228 1.429 1_545 S
C237 N234 1.350 . S
C237 C236 1.434 . S
C238 C239 1.369 . S
C238 C240 1.419 . S
C238 H242 0.930 . S
C239 C238 1.369 . S
C239 C248 1.429 . S
C240 C238 1.419 . S
C240 C241 1.363 . S
C240 H243 0.929 . S
C241 C240 1.363 . S
C241 C247 1.428 . S
H242 C238 0.930 . S
H243 C240 0.929 . S
S244 N245 1.613 . S
S244 N246 1.610 . S
N245 S244 1.613 . S
N245 C248 1.350 . S
N246 S244 1.610 . S
N246 C247 1.351 . S
C247 C241 1.428 . S
C247 N246 1.351 . S
C247 C248 1.434 . S
C248 C239 1.429 . S
C248 N245 1.350 . S
C248 C247 1.434 . S
C249 C250 1.369 . S
C249 C251 1.419 . S
C249 H253 0.930 . S
C250 C249 1.369 . S
C250 C259 1.429 1_565 S
C251 C249 1.419 . S
C251 C252 1.360 1_565 S
C251 H254 0.929 . S
C252 C251 1.360 1_545 S
C252 C258 1.427 . S
H253 C249 0.930 . S
H254 C251 0.929 . S
S255 N256 1.613 . S
S255 N257 1.610 . S
N256 S255 1.613 . S
N256 C259 1.350 . S
N257 S255 1.610 . S
N257 C258 1.351 . S
C258 C252 1.427 . S
C258 N257 1.351 . S
C258 C259 1.434 . S
C259 C250 1.429 1_545 S
C259 N256 1.350 . S
C259 C258 1.434 . S
C260 C261 1.369 . S
C260 C262 1.419 . S
C260 H264 0.930 . S
C261 C260 1.369 . S
C261 C270 1.429 1_556 S
C262 C260 1.419 . S
C262 C263 1.363 . S
C262 H265 0.929 . S
C263 C262 1.363 . S
C263 C269 1.428 . S
H264 C260 0.930 . S
H265 C262 0.929 . S
S266 N267 1.613 . S
S266 N268 1.610 1_554 S
N267 S266 1.613 . S
N267 C270 1.350 . S
N268 S266 1.610 1_556 S
N268 C269 1.351 . S
C269 C263 1.428 . S
C269 N268 1.351 . S
C269 C270 1.434 1_556 S
C270 C261 1.429 1_554 S
C270 N267 1.350 . S
C270 C269 1.434 1_554 S
C271 C272 1.369 1_655 S
C271 C273 1.419 . S
C271 H275 0.930 . S
C272 C271 1.369 1_455 S
C272 C281 1.429 . S
C273 C271 1.419 . S
C273 C274 1.363 1_655 S
C273 H276 0.929 . S
C274 C273 1.363 1_455 S
C274 C280 1.428 . S
H275 C271 0.930 . S
H276 C273 0.929 . S
S277 N278 1.613 . S
S277 N279 1.610 . S
N278 S277 1.613 . S
N278 C281 1.350 . S
N279 S277 1.610 . S
N279 C280 1.351 . S
C280 C274 1.428 . S
C280 N279 1.351 . S
C280 C281 1.434 . S
C281 C272 1.429 . S
C281 N278 1.350 . S
C281 C280 1.434 . S
C282 C283 1.369 . S
C282 C284 1.419 . S
C282 H286 0.930 . S
C283 C282 1.369 . S
C283 C292 1.429 1_545 S
C284 C282 1.419 . S
C284 C285 1.363 . S
C284 H287 0.929 . S
C285 C284 1.363 . S
C285 C291 1.428 1_545 S
H286 C282 0.930 . S
H287 C284 0.929 . S
S288 N289 1.613 . S
S288 N290 1.610 . S
N289 S288 1.613 . S
N289 C292 1.350 . S
N290 S288 1.610 . S
N290 C291 1.351 . S
C291 C285 1.428 1_565 S
C291 N290 1.351 . S
C291 C292 1.434 . S
C292 C283 1.429 1_565 S
C292 N289 1.350 . S
C292 C291 1.434 . S
C293 C294 1.369 . S
C293 C295 1.419 . S
C293 H297 0.930 . S
C294 C293 1.369 . S
C294 C303 1.427 1_556 S
C295 C293 1.419 . S
C295 C296 1.363 . S
C295 H298 0.929 . S
C296 C295 1.363 . S
C296 C302 1.428 . S
H297 C293 0.930 . S
H298 C295 0.929 . S
S299 N300 1.613 . S
S299 N301 1.610 1_554 S
N300 S299 1.613 . S
N300 C303 1.354 . S
N301 S299 1.610 1_556 S
N301 C302 1.351 . S
C302 C296 1.428 . S
C302 N301 1.351 . S
C302 C303 1.431 1_556 S
C303 C294 1.427 1_554 S
C303 N300 1.354 . S
C303 C302 1.431 1_554 S
C304 C305 1.369 1_455 S
C304 C306 1.419 . S
C304 H308 0.930 . S
C305 C304 1.369 1_655 S
C305 C314 1.429 . S
C306 C304 1.419 . S
C306 C307 1.363 . S
C306 H309 0.929 . S
C307 C306 1.363 . S
C307 C313 1.428 1_455 S
H308 C304 0.930 . S
H309 C306 0.929 . S
S310 N311 1.613 . S
S310 N312 1.610 . S
N311 S310 1.613 . S
N311 C314 1.350 . S
N312 S310 1.610 . S
N312 C313 1.351 . S
C313 C307 1.428 1_655 S
C313 N312 1.351 . S
C313 C314 1.434 . S
C314 C305 1.429 . S
C314 N311 1.350 . S
C314 C313 1.434 . S
C186 C60 1.527 . S
C184 C10 1.527 . S
C195 C17 1.527 . S
C197 C108 1.527 . S
C206 C36 1.528 . S
C208 C180 1.526 . S
C217 C5 1.529 . S
C219 C84 1.526 . S
C230 C132 1.525 . S
C228 C16 1.529 . S
C239 C31 1.528 . S
C241 C156 1.526 . S
C252 C117 1.526 1_545 S
C250 C30 1.527 . S
C261 C3 1.528 1_556 S
C263 C171 1.528 . S
C274 C75 1.528 . S
C272 C18 1.529 . S
C285 C123 1.521 1_545 S
C283 C29 1.529 . S
C296 C165 1.521 . S
C294 C4 1.528 1_556 S
C305 C23 1.527 . S
C307 C69 1.519 1_455 S
