# Generated by pormake.
# Topology anh, (6,3)-cn, num edge types: 1
# Building blocks:
#     Node 0, Type 0, BuildingBlock: VOLQOD_clean_sbu_1, # of connection points: 6
#     Node 1, Type 0, BuildingBlock: VOLQOD_clean_sbu_1, # of connection points: 6
#     Node 2, Type 0, BuildingBlock: VOLQOD_clean_sbu_1, # of connection points: 6
#     Node 3, Type 1, BuildingBlock: CUQRIR_clean_linker_1, # of connection points: 3
#     Node 4, Type 1, BuildingBlock: CUQRIR_clean_linker_1, # of connection points: 3
#     Node 5, Type 1, BuildingBlock: CUQRIR_clean_linker_1, # of connection points: 3
#     Node 6, Type 1, BuildingBlock: CUQRIR_clean_linker_1, # of connection points: 3
#     Node 7, Type 1, BuildingBlock: CUQRIR_clean_linker_1, # of connection points: 3
#     Node 8, Type 1, BuildingBlock: CUQRIR_clean_linker_1, # of connection points: 3
#     Edge 9, Type (0, 1), BuildingBlock: UVAHIK_clean_linker_0, # of connection points: 2
#     Edge 10, Type (0, 1), BuildingBlock: UVAHIK_clean_linker_0, # of connection points: 2
#     Edge 11, Type (0, 1), BuildingBlock: UVAHIK_clean_linker_0, # of connection points: 2
#     Edge 12, Type (0, 1), BuildingBlock: UVAHIK_clean_linker_0, # of connection points: 2
#     Edge 13, Type (0, 1), BuildingBlock: UVAHIK_clean_linker_0, # of connection points: 2
#     Edge 14, Type (0, 1), BuildingBlock: UVAHIK_clean_linker_0, # of connection points: 2
#     Edge 15, Type (0, 1), BuildingBlock: UVAHIK_clean_linker_0, # of connection points: 2
#     Edge 16, Type (0, 1), BuildingBlock: UVAHIK_clean_linker_0, # of connection points: 2
#     Edge 17, Type (0, 1), BuildingBlock: UVAHIK_clean_linker_0, # of connection points: 2
#     Edge 18, Type (0, 1), BuildingBlock: UVAHIK_clean_linker_0, # of connection points: 2
#     Edge 19, Type (0, 1), BuildingBlock: UVAHIK_clean_linker_0, # of connection points: 2
#     Edge 20, Type (0, 1), BuildingBlock: UVAHIK_clean_linker_0, # of connection points: 2
#     Edge 21, Type (0, 1), BuildingBlock: UVAHIK_clean_linker_0, # of connection points: 2
#     Edge 22, Type (0, 1), BuildingBlock: UVAHIK_clean_linker_0, # of connection points: 2
#     Edge 23, Type (0, 1), BuildingBlock: UVAHIK_clean_linker_0, # of connection points: 2
#     Edge 24, Type (0, 1), BuildingBlock: UVAHIK_clean_linker_0, # of connection points: 2
#     Edge 25, Type (0, 1), BuildingBlock: UVAHIK_clean_linker_0, # of connection points: 2
#     Edge 26, Type (0, 1), BuildingBlock: UVAHIK_clean_linker_0, # of connection points: 2
# Relax obj value: 0.185
# Max RMSD: 0.221
# Mean RMSD: 0.171
data_MOF--net-anh--node1-VOLQOD_clean_sbu_1--node2-CUQRIR_clean_linker_1--edge1-UVAHIK_clean_linker_0
_symmetry_space_group_name_H-M    P1
_symmetry_Int_Tables_number       1
_symmetry_cell_setting            triclinic
loop_
_symmetry_equiv_pos_as_xyz
'x, y, z'
_cell_length_a     35.374204
_cell_length_b     35.241908
_cell_length_c     69.747981
_cell_angle_alpha  85.563771
_cell_angle_beta   90.003452
_cell_angle_gamma 120.10489
loop_
_atom_site_label
_atom_site_type_symbol
_atom_site_fract_x
_atom_site_fract_y
_atom_site_fract_z
_atom_type_partial_charge
O0 O 0.98274 0.51099 0.2014 0.0
Zn1 Zn 0.98881 0.51843 0.17231 0.0
O2 O -0.0046 0.47193 0.16196 0.0
Zn3 Zn 0.94558 0.43593 0.14679 0.0
Zn4 Zn 0.00076 0.43601 0.18332 0.0
Zn5 Zn 0.04741 0.49783 0.14511 0.0
O6 O 0.96372 0.43401 0.11945 0.0
O7 O 0.03328 0.48715 0.11756 0.0
O8 O 0.93748 0.5208 0.1612 0.0
O9 O 0.9072 0.46279 0.14405 0.0
O10 O 0.90997 0.37452 0.15989 0.0
O11 O 0.94903 0.37475 0.18489 0.0
O12 O 0.05623 0.4333 0.18079 0.0
O13 O 0.0429 0.57724 0.16599 0.0
O14 O 0.08442 0.47148 0.15249 0.0
O15 O 0.08426 0.56278 0.14746 0.0
C16 C 0.99086 0.48771 0.21374 0.0
C17 C -0.00062 0.45894 0.10966 0.0
C18 C 0.91551 0.35512 0.1749 0.0
C19 C 0.908 0.49632 0.15017 0.0
C20 C 0.08521 0.44801 0.16711 0.0
C21 C 0.07825 0.58981 0.15624 0.0
O22 O 0.00031 0.45948 0.20856 0.0
O23 O 0.57972 0.0674 0.46262 0.0
Zn24 Zn 0.56934 0.06653 0.49104 0.0
O25 O 0.61425 0.06214 0.50553 0.0
Zn26 Zn 0.64823 0.11498 0.51848 0.0
Zn27 Zn 0.65193 0.0533 0.48802 0.0
Zn28 Zn 0.58683 0.01372 0.52531 0.0
O29 O 0.64876 0.10267 0.54716 0.0
O30 O 0.59315 0.0342 0.55182 0.0
O31 O 0.56504 0.11939 0.49686 0.0
O32 O 0.62087 0.15277 0.5157 0.0
O33 O 0.70891 0.1499 0.50674 0.0
O34 O 0.71183 0.10822 0.4851 0.0
O35 O 0.65736 0.00027 0.49784 0.0
O36 O 0.51084 0.01276 0.49751 0.0
O37 O 0.61605 0.97816 0.52499 0.0
O38 O 0.52318 0.97373 0.52055 0.0
C39 C 0.60186 0.05518 0.45309 0.0
C40 C 0.62172 0.06975 0.5584 0.0
C41 C 0.72948 0.14372 0.49349 0.0
C42 C 0.58827 0.15078 0.50711 0.0
C43 C 0.64194 0.97512 0.5134 0.0
C44 C 0.49745 0.97838 0.50911 0.0
O45 O 0.62848 0.04538 0.46127 0.0
O46 O 0.52813 0.61025 0.79269 0.0
Zn47 Zn 0.52835 0.60003 0.82156 0.0
O48 O 0.5838 0.64265 0.83148 0.0
Zn49 Zn 0.57563 0.68022 0.84802 0.0
Zn50 Zn 0.62462 0.67804 0.80983 0.0
Zn51 Zn 0.60661 0.61166 0.8471 0.0
O52 O 0.59832 0.6795 0.8746 0.0
O53 O 0.60471 0.61994 0.87516 0.0
O54 O 0.47829 0.60141 0.83434 0.0
O55 O 0.51139 0.65777 0.8523 0.0
O56 O 0.60328 0.74202 0.8356 0.0
O57 O 0.63603 0.74032 0.80875 0.0
O58 O 0.68218 0.6789 0.81218 0.0
O59 O 0.5182 0.53869 0.82664 0.0
O60 O 0.66921 0.6359 0.83935 0.0
O61 O 0.57435 0.54689 0.84368 0.0
C62 C 0.55915 0.63084 0.77992 0.0
C63 C 0.6046 0.65052 0.8837 0.0
C64 C 0.62564 0.76091 0.81993 0.0
C65 C 0.47672 0.62624 0.84626 0.0
C66 C 0.69473 0.6611 0.82535 0.0
C67 C 0.5393 0.52259 0.83534 0.0
O68 O 0.59847 0.65545 0.78456 0.0
C69 C 0.48705 0.96572 0.22679 0.0
N70 N 0.51352 0.98584 0.24113 0.0
N71 N 0.44569 0.93784 0.23385 0.0
C72 C 0.50089 0.97578 0.20574 0.0
C73 C 0.44792 0.94212 0.25304 0.0
N74 N 0.48921 0.97169 0.25743 0.0
C75 C 0.41091 0.91453 0.26761 0.0
H76 H 0.47279 0.96911 0.19668 0.0
H77 H 0.51423 0.95474 0.20179 0.0
H78 H 0.52691 0.01072 0.20265 0.0
H79 H 0.3884 0.88178 0.26257 0.0
H80 H 0.39216 0.93151 0.2697 0.0
H81 H 0.42337 0.90996 0.28169 0.0
C82 C 0.5013 0.50413 0.55804 0.0
N83 N 0.50535 0.53449 0.56987 0.0
N84 N 0.48175 0.46351 0.56758 0.0
C85 C 0.51923 0.51433 0.53756 0.0
C86 C 0.47393 0.4703 0.58565 0.0
N87 N 0.48779 0.51339 0.58699 0.0
C88 C 0.45767 0.43585 0.60249 0.0
H89 H 0.49842 0.48688 0.52879 0.0
H90 H 0.55247 0.51849 0.53737 0.0
H91 H 0.52132 0.54504 0.53098 0.0
H92 H 0.48417 0.44455 0.61277 0.0
H93 H 0.44684 0.40259 0.59791 0.0
H94 H 0.42982 0.43511 0.61016 0.0
C95 C 0.0422 0.56131 0.87739 0.0
N96 N 0.05305 0.5454 0.89334 0.0
N97 N 0.00194 0.55612 0.87988 0.0
C98 C 0.07126 0.58228 0.85945 0.0
C99 C 0.98866 0.53633 0.89801 0.0
N100 N 0.0198 0.52959 0.90619 0.0
C101 C 0.94767 0.52832 0.90842 0.0
H102 H 0.09458 0.61742 0.86133 0.0
H103 H 0.05182 0.58035 0.8467 0.0
H104 H 0.09057 0.56605 0.85695 0.0
H105 H 0.92084 0.49466 0.9062 0.0
H106 H 0.93779 0.55221 0.90278 0.0
H107 H 0.95221 0.53075 0.9241 0.0
C108 C 0.10269 0.58505 0.43812 0.0
N109 N 0.07859 0.56177 0.42378 0.0
N110 N 0.13106 0.62721 0.43138 0.0
C111 C 0.09615 0.56752 0.45897 0.0
C112 C 0.12296 0.62882 0.41242 0.0
N113 N 0.09067 0.58902 0.40784 0.0
C114 C 0.1493 0.66791 0.3981 0.0
H115 H 0.10605 0.59436 0.46856 0.0
H116 H 0.11641 0.55196 0.46179 0.0
H117 H 0.06142 0.54218 0.46245 0.0
H118 H 0.1504 0.65734 0.38364 0.0
H119 H 0.18322 0.68825 0.40274 0.0
H120 H 0.13377 0.68857 0.39702 0.0
C121 C 0.51456 0.10703 0.78171 0.0
N122 N 0.52798 0.0919 0.76755 0.0
N123 N 0.50581 0.13835 0.77438 0.0
C124 C 0.51275 0.09326 0.80277 0.0
C125 C 0.51503 0.1421 0.75523 0.0
N126 N 0.52871 0.1139 0.75112 0.0
C127 C 0.51379 0.1755 0.74085 0.0
H128 H 0.50252 0.05782 0.805 0.0
H129 H 0.48983 0.09954 0.81096 0.0
H130 H 0.5459 0.11246 0.80838 0.0
H131 H 0.54437 0.20757 0.7415 0.0
H132 H 0.48591 0.18021 0.74425 0.0
H133 H 0.51108 0.16538 0.72601 0.0
C134 C 0.54045 0.57136 0.11719 0.0
N135 N 0.56962 0.58688 0.10198 0.0
N136 N 0.5022 0.5682 0.11188 0.0
C137 C 0.54744 0.55423 0.13654 0.0
C138 C 0.50919 0.58214 0.09288 0.0
N139 N 0.55001 0.59325 0.08688 0.0
C140 C 0.47619 0.58465 0.08007 0.0
H141 H 0.51621 0.52699 0.14329 0.0
H142 H 0.56103 0.58139 0.14611 0.0
H143 H 0.5709 0.54227 0.13533 0.0
H144 H 0.45168 0.58806 0.08855 0.0
H145 H 0.45908 0.5541 0.07259 0.0
H146 H 0.49273 0.61289 0.06894 0.0
C147 C 0.13903 0.43276 0.152 0.0
C148 C 0.12262 0.44088 0.16853 0.0
C149 C 0.17912 0.43424 0.15209 0.0
C150 C 0.2616 0.42815 0.15896 0.0
H151 H 0.35012 0.54913 0.16488 0.0
C152 C 0.45866 0.56075 0.14101 0.0
C153 C 0.46141 0.54722 0.12294 0.0
C154 C 0.41881 0.54032 0.15166 0.0
C155 C 0.32626 0.51485 0.16367 0.0
H156 H 0.13376 0.45492 0.19836 0.0
H157 H 0.2054 0.45944 0.19826 0.0
H158 H 0.27494 0.52216 0.17582 0.0
H159 H 0.42584 0.50081 0.10212 0.0
H160 H 0.35582 0.46688 0.11992 0.0
H161 H 0.31246 0.42084 0.14646 0.0
C162 C 0.18658 0.45087 0.18544 0.0
C163 C 0.28311 0.49945 0.16995 0.0
C164 C 0.14574 0.44818 0.1855 0.0
C165 C 0.42413 0.51238 0.11585 0.0
C166 C 0.38425 0.49237 0.12629 0.0
C167 C 0.30489 0.44326 0.153 0.0
C168 C 0.20397 0.44497 0.16857 0.0
C169 C 0.25019 0.45662 0.16686 0.0
C170 C 0.38091 0.50624 0.14429 0.0
C171 C 0.33735 0.48746 0.15439 0.0
H172 H 0.12169 0.42713 0.13876 0.0
H173 H 0.19212 0.43011 0.13885 0.0
H174 H 0.23666 0.39489 0.15654 0.0
H175 H 0.48728 0.58742 0.14675 0.0
H176 H 0.41766 0.55151 0.16556 0.0
C177 C 0.79015 0.18144 0.46802 0.0
C178 C 0.77236 0.18103 0.48613 0.0
C179 C 0.826 0.22009 0.4595 0.0
C180 C 0.87424 0.33905 0.46016 0.0
H181 H 0.97355 0.3484 0.43207 0.0
C182 C 0.05519 0.48428 0.43321 0.0
C183 C 0.04528 0.51609 0.42558 0.0
C184 C 0.022 0.44069 0.4374 0.0
C185 C 0.94589 0.34618 0.43983 0.0
H186 H 0.78066 0.21968 0.5102 0.0
H187 H 0.84325 0.28659 0.49546 0.0
H188 H 0.91749 0.27675 0.44737 0.0
H189 H -0.00587 0.52769 0.4152 0.0
H190 H 0.93552 0.451 0.42232 0.0
H191 H 0.90275 0.40828 0.45316 0.0
C192 C 0.82882 0.25745 0.48764 0.0
C193 C 0.9138 0.30522 0.4485 0.0
C194 C 0.79312 0.21901 0.49612 0.0
C195 C 0.00217 0.50342 0.42112 0.0
C196 C 0.96885 0.45978 0.42532 0.0
C197 C 0.90605 0.37977 0.45146 0.0
C198 C 0.84459 0.25886 0.46897 0.0
C199 C 0.87808 0.30149 0.45904 0.0
C200 C 0.97828 0.42825 0.43402 0.0
C201 C 0.94252 0.38395 0.44141 0.0
H202 H 0.77494 0.15271 0.45994 0.0
H203 H 0.83759 0.22024 0.4451 0.0
H204 H 0.84663 0.33703 0.46789 0.0
H205 H 0.0885 0.49366 0.43653 0.0
H206 H 0.03032 0.41732 0.44421 0.0
C207 C 0.62695 0.83044 0.82625 0.0
C208 C 0.6349 0.80589 0.81355 0.0
C209 C 0.62772 0.86913 0.81946 0.0
C210 C 0.60255 0.91367 0.77609 0.0
H211 H 0.63937 0.0162 0.80443 0.0
C212 C 0.59183 0.08285 0.7721 0.0
C213 C 0.54672 0.06417 0.7701 0.0
C214 C 0.61001 0.05584 0.77532 0.0
C215 C 0.62943 0.98806 0.79621 0.0
H216 H 0.65318 0.80451 0.784 0.0
H217 H 0.65424 0.87205 0.77215 0.0
H218 H 0.66261 0.96314 0.81424 0.0
H219 H 0.48495 0.00386 0.76955 0.0
H220 H 0.51649 0.95597 0.77504 0.0
H221 H 0.56813 0.93772 0.75848 0.0
C222 C 0.64709 0.86106 0.78733 0.0
C223 C 0.64251 0.95764 0.80189 0.0
C224 C 0.64669 0.82251 0.79416 0.0
C225 C 0.51988 0.01843 0.77101 0.0
C226 C 0.53799 0.99135 0.77403 0.0
C227 C 0.58918 0.94384 0.77053 0.0
C228 C 0.6362 0.88391 0.7998 0.0
C229 C 0.6284 0.91966 0.79213 0.0
C230 C 0.58319 0.0098 0.77638 0.0
C231 C 0.60166 0.98078 0.78081 0.0
H232 H 0.61809 0.81872 0.8413 0.0
H233 H 0.61895 0.8859 0.82939 0.0
H234 H 0.59078 0.88448 0.76841 0.0
H235 H 0.61271 0.11829 0.77139 0.0
H236 H 0.64493 0.07085 0.77701 0.0
C237 C 0.87397 0.54391 0.1505 0.0
C238 C 0.87508 0.50803 0.1436 0.0
C239 C 0.8437 0.55566 0.14377 0.0
C240 C 0.73804 0.51045 0.12048 0.0
H241 H 0.77052 0.63317 0.1107 0.0
C242 C 0.61471 0.55714 0.09112 0.0
C243 C 0.61045 0.58749 0.10139 0.0
C244 C 0.65095 0.55173 0.09339 0.0
C245 C 0.76102 0.59879 0.11341 0.0
H246 H 0.84539 0.45657 0.12407 0.0
H247 H 0.79307 0.47734 0.11225 0.0
H248 H 0.82561 0.61429 0.12094 0.0
H249 H 0.64059 0.63716 0.12141 0.0
H250 H 0.70431 0.62777 0.12562 0.0
H251 H 0.67346 0.49483 0.11323 0.0
C252 C 0.81514 0.49601 0.12307 0.0
C253 C 0.79246 0.58797 0.11934 0.0
C254 C 0.84525 0.48418 0.12983 0.0
C255 C 0.64383 0.61395 0.11325 0.0
C256 C 0.68013 0.60857 0.11558 0.0
C257 C 0.70673 0.52124 0.11452 0.0
C258 C 0.81397 0.53184 0.12998 0.0
C259 C 0.7812 0.54365 0.12308 0.0
C260 C 0.68334 0.57639 0.10613 0.0
C261 C 0.71777 0.5655 0.11103 0.0
H262 H 0.89645 0.56298 0.16112 0.0
H263 H 0.8432 0.58304 0.14959 0.0
H264 H 0.72808 0.47602 0.12356 0.0
H265 H 0.58877 0.5358 0.08224 0.0
H266 H 0.65278 0.52702 0.08577 0.0
C267 C 0.42214 0.94768 0.49684 0.0
C268 C 0.4525 0.94133 0.50757 0.0
C269 C 0.38244 0.91169 0.49246 0.0
C270 C 0.34061 0.79878 0.48266 0.0
H271 H 0.22778 0.79192 0.48126 0.0
C272 C 0.19268 0.65236 0.45283 0.0
C273 C 0.1644 0.66114 0.44177 0.0
C274 C 0.22471 0.6848 0.4632 0.0
C275 C 0.25919 0.79359 0.48138 0.0
H276 H 0.46368 0.89246 0.52324 0.0
H277 H 0.39439 0.82955 0.51539 0.0
H278 H 0.2882 0.85179 0.49655 0.0
H279 H 0.14703 0.71027 0.43277 0.0
H280 H 0.20457 0.76816 0.45016 0.0
H281 H 0.31285 0.7422 0.46678 0.0
C282 C 0.40156 0.86243 0.51033 0.0
C283 C 0.2936 0.82765 0.49026 0.0
C284 C 0.44109 0.89846 0.51489 0.0
C285 C 0.1688 0.70303 0.44113 0.0
C286 C 0.20129 0.73582 0.4513 0.0
C287 C 0.30649 0.76513 0.47361 0.0
C288 C 0.37254 0.86867 0.49857 0.0
C289 C 0.33468 0.83065 0.49087 0.0
C290 C 0.22972 0.72709 0.46245 0.0
C291 C 0.2654 0.7622 0.47274 0.0
H292 H 0.42983 0.98035 0.49111 0.0
H293 H 0.36073 0.91741 0.4833 0.0
H294 H 0.37222 0.80084 0.48257 0.0
H295 H 0.19007 0.62035 0.45336 0.0
H296 H 0.2455 0.67661 0.47183 0.0
C297 C 0.48464 0.44742 0.82629 0.0
C298 C 0.5244 0.47532 0.83454 0.0
C299 C 0.47291 0.4041 0.82353 0.0
C300 C 0.50172 0.31719 0.83571 0.0
H301 H 0.46341 0.28489 0.78436 0.0
C302 C 0.53059 0.1956 0.79686 0.0
C303 C 0.4986 0.1678 0.78481 0.0
C304 C 0.52539 0.22669 0.80594 0.0
C305 C 0.47321 0.2929 0.7989 0.0
H306 H 0.58197 0.47887 0.84726 0.0
H307 H 0.562 0.40377 0.84207 0.0
H308 H 0.46902 0.35135 0.79519 0.0
H309 H 0.43541 0.14862 0.77334 0.0
H310 H 0.42612 0.20358 0.7891 0.0
H311 H 0.50769 0.2595 0.839 0.0
C312 C 0.53951 0.41507 0.83797 0.0
C313 C 0.4764 0.33102 0.80513 0.0
C314 C 0.55114 0.4583 0.84083 0.0
C315 C 0.46058 0.17033 0.78244 0.0
C316 C 0.45538 0.20161 0.79144 0.0
C317 C 0.49869 0.2791 0.82943 0.0
C318 C 0.50078 0.38781 0.82887 0.0
C319 C 0.49169 0.34419 0.82343 0.0
C320 C 0.48809 0.23057 0.80304 0.0
C321 C 0.4854 0.26717 0.81079 0.0
H322 H 0.46302 0.45932 0.82148 0.0
H323 H 0.44248 0.38369 0.81678 0.0
H324 H 0.51287 0.32603 0.85001 0.0
H325 H 0.56023 0.19411 0.79871 0.0
H326 H 0.55145 0.24894 0.81455 0.0
C327 C 0.65842 0.92996 0.53703 0.0
C328 C 0.65081 0.93902 0.51795 0.0
C329 C 0.65518 0.88972 0.54295 0.0
C330 C 0.6367 0.78358 0.5265 0.0
H331 H 0.56681 0.73605 0.57439 0.0
C332 C 0.57156 0.60411 0.55848 0.0
C333 C 0.52787 0.58141 0.5655 0.0
C334 C 0.5929 0.64949 0.55356 0.0
C335 C 0.58619 0.74874 0.56097 0.0
H336 H 0.63704 0.91498 0.48971 0.0
H337 H 0.6298 0.8437 0.50013 0.0
H338 H 0.59623 0.81299 0.56339 0.0
H339 H 0.47242 0.58756 0.57355 0.0
H340 H 0.50928 0.66706 0.56478 0.0
H341 H 0.6244 0.71829 0.5237 0.0
C342 C 0.63926 0.86794 0.51049 0.0
C343 C 0.60376 0.79314 0.55479 0.0
C344 C 0.64341 0.90875 0.50447 0.0
C345 C 0.50613 0.60473 0.5681 0.0
C346 C 0.52735 0.65009 0.56316 0.0
C347 C 0.6189 0.73894 0.53268 0.0
C348 C 0.64305 0.85724 0.53001 0.0
C349 C 0.62877 0.81107 0.53735 0.0
C350 C 0.5709 0.67296 0.55569 0.0
C351 C 0.5928 0.72091 0.54983 0.0
H352 H 0.66447 0.95309 0.54763 0.0
H353 H 0.65966 0.88312 0.55795 0.0
H354 H 0.65605 0.79636 0.51308 0.0
H355 H 0.58907 0.58661 0.55683 0.0
H356 H 0.62664 0.66623 0.54818 0.0
C357 C 0.76036 0.66992 0.80735 0.0
C358 C 0.73962 0.6689 0.8247 0.0
C359 C 0.79992 0.66981 0.80757 0.0
C360 C 0.89087 0.68561 0.83857 0.0
H361 H 0.88 0.58208 0.81752 0.0
C362 C 0.93857 0.54789 0.8621 0.0
C363 C 0.98157 0.57447 0.86753 0.0
C364 C 0.91769 0.56647 0.85131 0.0
C365 C 0.88374 0.61135 0.82332 0.0
H366 H 0.74497 0.67035 0.85561 0.0
H367 H 0.81394 0.67104 0.85601 0.0
H368 H 0.82886 0.60721 0.80859 0.0
H369 H 0.03711 0.64068 0.86574 0.0
H370 H 0.00108 0.67332 0.84652 0.0
H371 H 0.94348 0.68802 0.85442 0.0
C372 C 0.79995 0.67167 0.84225 0.0
C373 C 0.85485 0.62606 0.81802 0.0
C374 C 0.76028 0.67089 0.84206 0.0
C375 C 0.004 0.61961 0.86151 0.0
C376 C 0.98327 0.63823 0.85066 0.0
C377 C 0.91973 0.67098 0.84385 0.0
C378 C 0.81953 0.66979 0.82511 0.0
C379 C 0.85693 0.6621 0.82631 0.0
C380 C 0.93957 0.61202 0.84577 0.0
C381 C 0.91523 0.63254 0.83695 0.0
H382 H 0.74482 0.66822 0.79381 0.0
H383 H 0.81443 0.66831 0.79418 0.0
H384 H 0.89332 0.7137 0.84504 0.0
H385 H 0.92093 0.51298 0.86664 0.0
H386 H 0.88379 0.54546 0.84807 0.0
C387 C 0.11059 0.66452 0.16835 0.0
C388 C 0.1152 0.63509 0.15738 0.0
C389 C 0.14735 0.70351 0.17285 0.0
C390 C 0.26039 0.74055 0.1822 0.0
H391 H 0.27194 0.85505 0.186 0.0
C392 C 0.4144 0.88015 0.21146 0.0
C393 C 0.40925 0.90743 0.2235 0.0
C394 C 0.37951 0.85079 0.20121 0.0
C395 C 0.26897 0.82311 0.1852 0.0
H396 H 0.16158 0.62569 0.14096 0.0
H397 H 0.22555 0.69366 0.14887 0.0
H398 H 0.20889 0.79845 0.17048 0.0
H399 H 0.36406 0.9259 0.23434 0.0
H400 H 0.30185 0.87286 0.21708 0.0
H401 H 0.3189 0.76381 0.19756 0.0
C402 C 0.19356 0.68615 0.15421 0.0
C403 C 0.23307 0.7909 0.1762 0.0
C404 C 0.15686 0.64731 0.14963 0.0
C405 C 0.3685 0.90483 0.2252 0.0
C406 C 0.33323 0.87495 0.21512 0.0
C407 C 0.29584 0.77239 0.19134 0.0
C408 C 0.18931 0.71366 0.1665 0.0
C409 C 0.22852 0.74933 0.17464 0.0
C410 C 0.33831 0.84741 0.20306 0.0
C411 C 0.30064 0.81408 0.19298 0.0
H412 H 0.07892 0.65631 0.17441 0.0
H413 H 0.14316 0.72413 0.18237 0.0
H414 H 0.25715 0.70841 0.18163 0.0
H415 H 0.44549 0.88136 0.21012 0.0
H416 H 0.38489 0.8307 0.19183 0.0
C417 C 0.59766 0.21481 0.52387 0.0
C418 C 0.5751 0.18346 0.51068 0.0
C419 C 0.58256 0.24234 0.52918 0.0
C420 C 0.51636 0.29156 0.51529 0.0
H421 H 0.50964 0.29933 0.57026 0.0
C422 C 0.4582 0.4015 0.54755 0.0
C423 C 0.48445 0.42671 0.56189 0.0
C424 C 0.46341 0.36766 0.54116 0.0
C425 C 0.51151 0.29769 0.55487 0.0
H426 H 0.52013 0.15802 0.492 0.0
H427 H 0.49406 0.20693 0.50121 0.0
H428 H 0.5315 0.24961 0.55844 0.0
H429 H 0.53643 0.43731 0.58086 0.0
H430 H 0.546 0.3785 0.5698 0.0
H431 H 0.49773 0.34082 0.51171 0.0
C432 C 0.52325 0.20967 0.50747 0.0
C433 C 0.52398 0.26922 0.54812 0.0
C434 C 0.53818 0.18173 0.50224 0.0
C435 C 0.51554 0.41757 0.56997 0.0
C436 C 0.52079 0.3839 0.56366 0.0
C437 C 0.50412 0.32039 0.52206 0.0
C438 C 0.54476 0.23943 0.52135 0.0
C439 C 0.5275 0.26664 0.52827 0.0
C440 C 0.49498 0.35869 0.54911 0.0
C441 C 0.50259 0.32447 0.54191 0.0
H442 H 0.62634 0.21732 0.53059 0.0
H443 H 0.60021 0.26561 0.53965 0.0
H444 H 0.51888 0.29013 0.49992 0.0
H445 H 0.43416 0.40847 0.54119 0.0
H446 H 0.44288 0.34861 0.53003 0.0
C447 C 0.39564 0.57719 0.8512 0.0
C448 C 0.43376 0.61725 0.85387 0.0
C449 C 0.35525 0.56815 0.85891 0.0
C450 C 0.29702 0.62266 0.87303 0.0
H451 H 0.21566 0.50978 0.90021 0.0
C452 C 0.13047 0.58997 0.89974 0.0
C453 C 0.09477 0.54912 0.89628 0.0
C454 C 0.17279 0.59682 0.89865 0.0
C455 C 0.2379 0.54135 0.89255 0.0
H456 H 0.45937 0.67923 0.86672 0.0
H457 H 0.3886 0.66363 0.87988 0.0
H458 H 0.2881 0.52476 0.88952 0.0
H459 H 0.07402 0.48309 0.88937 0.0
H460 H 0.14835 0.49503 0.88669 0.0
H461 H 0.24681 0.63889 0.87513 0.0
C462 C 0.39015 0.63924 0.87189 0.0
C463 C 0.27932 0.5499 0.88648 0.0
C464 C 0.43061 0.6481 0.86437 0.0
C465 C 0.10146 0.51452 0.89243 0.0
C466 C 0.14394 0.52151 0.89094 0.0
C467 C 0.25558 0.61399 0.87888 0.0
C468 C 0.35214 0.59918 0.86924 0.0
C469 C 0.30909 0.59055 0.87655 0.0
C470 C 0.18021 0.56325 0.89342 0.0
C471 C 0.22536 0.57315 0.88862 0.0
H472 H 0.397 0.55261 0.84327 0.0
H473 H 0.32631 0.53722 0.85648 0.0
H474 H 0.31914 0.65402 0.86516 0.0
H475 H 0.12554 0.61705 0.90248 0.0
H476 H 0.1998 0.62903 0.90111 0.0
C477 C 0.88314 0.29063 0.19982 0.0
C478 C 0.88052 0.31021 0.18188 0.0
C479 C 0.84785 0.25069 0.20754 0.0
C480 C 0.75694 0.18771 0.22562 0.0
H481 H 0.68484 0.09297 0.19425 0.0
C482 C 0.57545 0.06023 0.24427 0.0
C483 C 0.55943 0.0174 0.23904 0.0
C484 C 0.61893 0.09255 0.23966 0.0
C485 C 0.70494 0.11878 0.20332 0.0
H486 H 0.83954 0.302 0.15759 0.0
H487 H 0.77805 0.23242 0.17109 0.0
H488 H 0.75379 0.15461 0.18067 0.0
H489 H 0.5759 0.97331 0.22632 0.0
H490 H 0.65222 0.02962 0.21829 0.0
H491 H 0.70768 0.15212 0.24819 0.0
C492 C 0.80746 0.2479 0.17914 0.0
C493 C 0.74419 0.1543 0.19545 0.0
C494 C 0.84265 0.28792 0.17145 0.0
C495 C 0.58784 0.00649 0.23019 0.0
C496 C 0.63124 0.03865 0.22559 0.0
C497 C 0.71757 0.15222 0.23348 0.0
C498 C 0.80935 0.22937 0.19745 0.0
C499 C 0.7702 0.1895 0.2064 0.0
C500 C 0.64691 0.08233 0.22976 0.0
C501 C 0.69082 0.11775 0.2223 0.0
H502 H 0.91189 0.30679 0.20823 0.0
H503 H 0.85041 0.23686 0.22157 0.0
H504 H 0.77615 0.21457 0.23436 0.0
H505 H 0.55373 0.06906 0.25104 0.0
H506 H 0.62993 0.12598 0.24293 0.0
C507 C 0.96543 0.42479 0.07924 0.0
C508 C 0.00137 0.45651 0.08858 0.0
C509 C 0.96701 0.42439 0.05919 0.0
C510 C 0.04439 0.46981 0.01612 0.0
H511 H 0.9424 0.45413 0.9891 0.0
C512 C 0.05193 0.53964 0.93804 0.0
C513 C 0.01944 0.51329 0.9258 0.0
C514 C 0.04974 0.5254 0.95746 0.0
C515 C 0.97091 0.45787 0.99644 0.0
H516 H 0.06744 0.51222 0.08414 0.0
H517 H 0.06975 0.51216 0.04943 0.0
H518 H 0.93814 0.44236 0.02413 0.0
H519 H 0.95941 0.45154 0.92398 0.0
H520 H 0.95484 0.42665 0.95825 0.0
H521 H 0.07762 0.48735 0.98839 0.0
C522 C 0.04063 0.48694 0.0575 0.0
C523 C 0.96848 0.45103 0.01653 0.0
C524 C 0.03915 0.48719 0.07747 0.0
C525 C 0.98483 0.47222 0.93324 0.0
C526 C 0.98224 0.45815 0.95276 0.0
C527 C 0.0469 0.47706 0.99607 0.0
C528 C 0.00449 0.45579 0.04806 0.0
C529 C 0.00549 0.45788 0.02665 0.0
C530 C 0.01455 0.4848 0.96508 0.0
C531 C 0.01045 0.47202 0.98606 0.0
H532 H 0.93589 0.40052 0.08736 0.0
H533 H 0.93877 0.39958 0.05243 0.0
H534 H 0.07324 0.47439 0.0234 0.0
H535 H 0.07804 0.57203 0.93279 0.0
H536 H 0.07464 0.54702 0.96669 0.0
C537 C 0.56493 0.0601 0.4231 0.0
C538 C 0.59545 0.05112 0.43218 0.0
C539 C 0.55749 0.0547 0.40358 0.0
C540 C 0.56784 0.99556 0.36445 0.0
H541 H 0.54673 0.07694 0.33203 0.0
C542 C 0.53945 0.97888 0.2832 0.0
C543 C 0.50494 0.984 0.27626 0.0
C544 C 0.55393 0.98973 0.3017 0.0
C545 C 0.55227 0.05377 0.34094 0.0
H546 H 0.6427 0.03018 0.42766 0.0
H547 H 0.62996 0.02118 0.39351 0.0
H548 H 0.5664 0.09146 0.36528 0.0
H549 H 0.4589 0.00499 0.28271 0.0
H550 H 0.48366 0.02363 0.31524 0.0
H551 H 0.55331 0.95766 0.34016 0.0
C552 C 0.61137 0.03184 0.4016 0.0
C553 C 0.56352 0.06207 0.35999 0.0
C554 C 0.61883 0.03724 0.42116 0.0
C555 C 0.48544 0.00066 0.28793 0.0
C556 C 0.49991 0.01163 0.3064 0.0
C557 C 0.55666 0.9873 0.34539 0.0
C558 C 0.5804 0.04024 0.39261 0.0
C559 C 0.57098 0.03281 0.37204 0.0
C560 C 0.53416 0.00603 0.31355 0.0
C561 C 0.5483 0.01607 0.33348 0.0
H562 H 0.54622 0.07074 0.43112 0.0
H563 H 0.53296 0.06086 0.39718 0.0
H564 H 0.57275 0.97202 0.37341 0.0
H565 H 0.55469 0.96583 0.27438 0.0
H566 H 0.58064 0.98544 0.30671 0.0
C567 C 0.5061 0.6007 0.75366 0.0
C568 C 0.54949 0.625 0.75931 0.0
C569 C 0.49713 0.59345 0.73434 0.0
C570 C 0.5466 0.63148 0.68453 0.0
H571 H 0.458 0.51375 0.67379 0.0
C572 C 0.53432 0.5618 0.61101 0.0
C573 C 0.49254 0.53377 0.6046 0.0
C574 C 0.53922 0.57765 0.62914 0.0
C575 C 0.48235 0.54701 0.67652 0.0
H576 H 0.61744 0.66144 0.74893 0.0
H577 H 0.60184 0.64807 0.71536 0.0
H578 H 0.47041 0.53226 0.70696 0.0
H579 H 0.42315 0.50177 0.61135 0.0
H580 H 0.43136 0.52927 0.64323 0.0
H581 H 0.55927 0.64565 0.65401 0.0
C582 C 0.57465 0.63521 0.7258 0.0
C583 C 0.48947 0.55766 0.69556 0.0
C584 C 0.58362 0.64264 0.74511 0.0
C585 C 0.45562 0.52306 0.61621 0.0
C586 C 0.46041 0.5387 0.63439 0.0
C587 C 0.53959 0.62073 0.66547 0.0
C588 C 0.53131 0.61014 0.7202 0.0
C589 C 0.522 0.59988 0.69983 0.0
C590 C 0.50231 0.56549 0.64121 0.0
C591 C 0.50767 0.57823 0.66127 0.0
H592 H 0.47897 0.58691 0.76419 0.0
H593 H 0.46334 0.57462 0.7305 0.0
H594 H 0.57142 0.66452 0.68728 0.0
H595 H 0.56316 0.56993 0.60229 0.0
H596 H 0.57192 0.5978 0.63404 0.0
C597 C 0.64954 0.11414 0.58688 0.0
C598 C 0.62155 0.0738 0.57938 0.0
C599 C 0.64629 0.11909 0.60639 0.0
C600 C 0.59985 0.05719 0.65399 0.0
H601 H 0.59645 0.16162 0.66505 0.0
C602 C 0.52449 0.06957 0.72484 0.0
C603 C 0.54459 0.11009 0.73283 0.0
C604 C 0.53922 0.0658 0.7069 0.0
C605 C 0.59804 0.13262 0.66229 0.0
H606 H 0.56949 0.00646 0.58674 0.0
H607 H 0.56363 0.01525 0.62066 0.0
H608 H 0.61376 0.15379 0.63235 0.0
H609 H 0.59661 0.17798 0.7291 0.0
H610 H 0.62269 0.17178 0.69758 0.0
H611 H 0.58323 0.03567 0.68392 0.0
C612 C 0.58831 0.04299 0.6115 0.0
C613 C 0.60801 0.12814 0.64353 0.0
C614 C 0.59149 0.03805 0.592 0.0
C615 C 0.58029 0.14666 0.72291 0.0
C616 C 0.59508 0.143 0.70496 0.0
C617 C 0.58991 0.06169 0.67278 0.0
C618 C 0.61508 0.08379 0.61885 0.0
C619 C 0.60841 0.0901 0.63911 0.0
C620 C 0.57444 0.1026 0.69666 0.0
C621 C 0.58827 0.09918 0.67708 0.0
H622 H 0.67324 0.14232 0.5776 0.0
H623 H 0.66781 0.15076 0.61169 0.0
H624 H 0.60053 0.02778 0.65109 0.0
H625 H 0.49679 0.04113 0.73233 0.0
H626 H 0.52222 0.03437 0.70082 0.0
C627 C 0.60249 0.61268 0.91582 0.0
C628 C 0.60988 0.65099 0.90475 0.0
C629 C 0.60473 0.61186 0.93581 0.0
C630 C 0.59941 0.67056 0.97679 0.0
H631 H 0.62988 0.59136 0.00522 0.0
C632 C 0.59632 0.64747 0.06044 0.0
C633 C 0.56687 0.60379 0.06731 0.0
C634 C 0.60937 0.65808 0.04089 0.0
C635 C 0.62164 0.61385 0.99742 0.0
H636 H 0.62709 0.71907 0.9059 0.0
H637 H 0.63274 0.71827 0.94077 0.0
H638 H 0.64022 0.60267 0.97024 0.0
H639 H 0.52831 0.53688 0.05985 0.0
H640 H 0.55233 0.55492 0.02569 0.0
H641 H 0.58128 0.68181 0.00422 0.0
C642 C 0.62383 0.68834 0.93409 0.0
C643 C 0.62712 0.62008 0.97738 0.0
C644 C 0.62084 0.68892 0.91407 0.0
C645 C 0.55144 0.57065 0.05467 0.0
C646 C 0.5652 0.58098 0.03528 0.0
C647 C 0.59477 0.66496 0.99688 0.0
C648 C 0.61521 0.64958 0.94527 0.0
C649 C 0.61482 0.64748 0.96672 0.0
C650 C 0.59375 0.62486 0.02817 0.0
C651 C 0.60476 0.63568 0.0073 0.0
H652 H 0.5936 0.58276 0.90911 0.0
H653 H 0.59685 0.58107 0.94384 0.0
H654 H 0.58902 0.69147 0.96918 0.0
H655 H 0.60806 0.67332 0.07011 0.0
H656 H 0.63132 0.69213 0.03567 0.0
C657 C 0.00052 0.46928 0.24812 0.0
C658 C 0.99156 0.49487 0.23444 0.0
C659 C 0.0045 0.47787 0.26743 0.0
C660 C 0.03136 0.56732 0.29822 0.0
H661 H -0.00784 0.47328 0.33931 0.0
C662 C 0.05825 0.60108 0.37837 0.0
C663 C 0.0741 0.57708 0.38908 0.0
C664 C 0.04304 0.59009 0.35997 0.0
C665 C 0.00346 0.49989 0.32798 0.0
H666 H 0.97836 0.54877 0.23054 0.0
H667 H 0.98494 0.5635 0.26438 0.0
H668 H 0.97335 0.45535 0.30629 0.0
H669 H 0.0867 0.52307 0.38926 0.0
H670 H 0.05993 0.50343 0.35712 0.0
H671 H 0.06202 0.61183 0.3199 0.0
C672 C 0.98945 0.53713 0.26004 0.0
C673 C -0.0073 0.48964 0.30907 0.0
C674 C 0.98544 0.52851 0.24067 0.0
C675 C 0.07406 0.54159 0.38128 0.0
C676 C 0.05868 0.53041 0.36294 0.0
C677 C 0.04203 0.57758 0.31715 0.0
C678 C -0.00044 0.51223 0.2736 0.0
C679 C 0.00719 0.5232 0.29391 0.0
C680 C 0.04324 0.55471 0.35203 0.0
C681 C 0.02885 0.54394 0.33219 0.0
H682 H 0.00544 0.44309 0.24387 0.0
H683 H 0.01289 0.45843 0.27742 0.0
H684 H 0.04354 0.59396 0.28687 0.0
H685 H 0.05764 0.62829 0.38429 0.0
H686 H 0.03093 0.60913 0.352 0.0
loop_
_geom_bond_atom_site_label_1
_geom_bond_atom_site_label_2
_geom_bond_distance
_geom_bond_site_symmetry_2
_ccdc_geom_bond_type
O0 Zn1 1.953 . S
O0 C16 1.225 . S
Zn1 O0 1.953 . S
Zn1 O2 1.949 . S
Zn1 O8 1.919 1_455 S
Zn1 O13 1.924 . S
O2 Zn1 1.949 . S
O2 Zn3 1.923 1_455 S
O2 Zn4 1.950 . S
O2 Zn5 1.945 . S
Zn3 O2 1.923 1_655 S
Zn3 O6 1.933 . S
Zn3 O9 1.941 . S
Zn3 O10 1.965 . S
Zn4 O2 1.950 . S
Zn4 O11 1.938 1_455 S
Zn4 O12 1.906 . S
Zn4 O22 1.953 . S
Zn5 O2 1.945 . S
Zn5 O7 1.932 . S
Zn5 O14 1.977 . S
Zn5 O15 1.910 . S
O6 Zn3 1.933 . S
O6 C17 1.226 1_655 S
O7 Zn5 1.932 . S
O7 C17 1.307 . S
O8 Zn1 1.919 1_655 S
O8 C19 1.253 . S
O9 Zn3 1.941 . S
O9 C19 1.283 . S
O10 Zn3 1.965 . S
O10 C18 1.303 . S
O11 Zn4 1.938 1_655 S
O11 C18 1.247 . S
O12 Zn4 1.906 . S
O12 C20 1.304 . S
O13 Zn1 1.924 . S
O13 C21 1.311 . S
O14 Zn5 1.977 . S
O14 C20 1.272 . S
O15 Zn5 1.910 . S
O15 C21 1.231 . S
C16 O0 1.225 . S
C16 O22 1.298 . S
C17 O6 1.226 1_455 S
C17 O7 1.307 . S
C18 O10 1.303 . S
C18 O11 1.247 . S
C19 O8 1.253 . S
C19 O9 1.283 . S
C20 O12 1.304 . S
C20 O14 1.272 . S
C21 O13 1.311 . S
C21 O15 1.231 . S
O22 Zn4 1.953 . S
O22 C16 1.298 . S
O23 Zn24 1.953 . S
O23 C39 1.225 . S
Zn24 O23 1.953 . S
Zn24 O25 1.949 . S
Zn24 O31 1.919 . S
Zn24 O36 1.924 . S
O25 Zn24 1.949 . S
O25 Zn26 1.923 . S
O25 Zn27 1.950 . S
O25 Zn28 1.945 . S
Zn26 O25 1.923 . S
Zn26 O29 1.933 . S
Zn26 O32 1.941 . S
Zn26 O33 1.965 . S
Zn27 O25 1.950 . S
Zn27 O34 1.938 . S
Zn27 O35 1.906 . S
Zn27 O45 1.953 . S
Zn28 O25 1.945 . S
Zn28 O30 1.932 . S
Zn28 O37 1.977 1_545 S
Zn28 O38 1.910 1_545 S
O29 Zn26 1.933 . S
O29 C40 1.226 . S
O30 Zn28 1.932 . S
O30 C40 1.307 . S
O31 Zn24 1.919 . S
O31 C42 1.253 . S
O32 Zn26 1.941 . S
O32 C42 1.283 . S
O33 Zn26 1.965 . S
O33 C41 1.303 . S
O34 Zn27 1.938 . S
O34 C41 1.247 . S
O35 Zn27 1.906 . S
O35 C43 1.304 1_545 S
O36 Zn24 1.924 . S
O36 C44 1.311 1_545 S
O37 Zn28 1.977 1_565 S
O37 C43 1.272 . S
O38 Zn28 1.910 1_565 S
O38 C44 1.231 . S
C39 O23 1.225 . S
C39 O45 1.298 . S
C40 O29 1.226 . S
C40 O30 1.307 . S
C41 O33 1.303 . S
C41 O34 1.247 . S
C42 O31 1.253 . S
C42 O32 1.283 . S
C43 O35 1.304 1_565 S
C43 O37 1.272 . S
C44 O36 1.311 1_565 S
C44 O38 1.231 . S
O45 Zn27 1.953 . S
O45 C39 1.298 . S
O46 Zn47 1.953 . S
O46 C62 1.225 . S
Zn47 O46 1.953 . S
Zn47 O48 1.949 . S
Zn47 O54 1.919 . S
Zn47 O59 1.924 . S
O48 Zn47 1.949 . S
O48 Zn49 1.923 . S
O48 Zn50 1.950 . S
O48 Zn51 1.945 . S
Zn49 O48 1.923 . S
Zn49 O52 1.933 . S
Zn49 O55 1.941 . S
Zn49 O56 1.965 . S
Zn50 O48 1.950 . S
Zn50 O57 1.938 . S
Zn50 O58 1.906 . S
Zn50 O68 1.953 . S
Zn51 O48 1.945 . S
Zn51 O53 1.932 . S
Zn51 O60 1.977 . S
Zn51 O61 1.910 . S
O52 Zn49 1.933 . S
O52 C63 1.226 . S
O53 Zn51 1.932 . S
O53 C63 1.307 . S
O54 Zn47 1.919 . S
O54 C65 1.253 . S
O55 Zn49 1.941 . S
O55 C65 1.283 . S
O56 Zn49 1.965 . S
O56 C64 1.303 . S
O57 Zn50 1.938 . S
O57 C64 1.247 . S
O58 Zn50 1.906 . S
O58 C66 1.304 . S
O59 Zn47 1.924 . S
O59 C67 1.311 . S
O60 Zn51 1.977 . S
O60 C66 1.272 . S
O61 Zn51 1.910 . S
O61 C67 1.231 . S
C62 O46 1.225 . S
C62 O68 1.298 . S
C63 O52 1.226 . S
C63 O53 1.307 . S
C64 O56 1.303 . S
C64 O57 1.247 . S
C65 O54 1.253 . S
C65 O55 1.283 . S
C66 O58 1.304 . S
C66 O60 1.272 . S
C67 O59 1.311 . S
C67 O61 1.231 . S
O68 Zn50 1.953 . S
O68 C62 1.298 . S
C69 N70 1.317 . S
C69 N71 1.348 1_545 S
C69 C72 1.485 . S
N70 C69 1.317 . S
N70 N74 1.370 . S
N71 C69 1.348 1_565 S
N71 C73 1.346 . S
C72 C69 1.485 . S
C72 H76 0.960 . S
C72 H77 0.961 . S
C72 H78 0.960 . S
C73 N71 1.346 . S
C73 N74 1.307 1_565 S
C73 C75 1.486 . S
N74 N70 1.370 . S
N74 C73 1.307 1_545 S
C75 C73 1.486 . S
C75 H79 0.960 . S
C75 H80 0.960 . S
C75 H81 0.959 . S
H76 C72 0.960 . S
H77 C72 0.961 . S
H78 C72 0.960 . S
H79 C75 0.960 . S
H80 C75 0.960 . S
H81 C75 0.959 . S
C82 N83 1.317 . S
C82 N84 1.348 . S
C82 C85 1.485 . S
N83 C82 1.317 . S
N83 N87 1.370 . S
N84 C82 1.348 . S
N84 C86 1.346 . S
C85 C82 1.485 . S
C85 H89 0.960 . S
C85 H90 0.961 . S
C85 H91 0.960 . S
C86 N84 1.346 . S
C86 N87 1.307 . S
C86 C88 1.486 . S
N87 N83 1.370 . S
N87 C86 1.307 . S
C88 C86 1.486 . S
C88 H92 0.960 . S
C88 H93 0.960 . S
C88 H94 0.959 . S
H89 C85 0.960 . S
H90 C85 0.961 . S
H91 C85 0.960 . S
H92 C88 0.960 . S
H93 C88 0.960 . S
H94 C88 0.959 . S
C95 N96 1.317 . S
C95 N97 1.348 . S
C95 C98 1.485 . S
N96 C95 1.317 . S
N96 N100 1.370 . S
N97 C95 1.348 . S
N97 C99 1.346 . S
C98 C95 1.485 . S
C98 H102 0.960 . S
C98 H103 0.961 . S
C98 H104 0.960 . S
C99 N97 1.346 . S
C99 N100 1.307 . S
C99 C101 1.486 1_455 S
N100 N96 1.370 . S
N100 C99 1.307 . S
C101 C99 1.486 1_655 S
C101 H105 0.960 . S
C101 H106 0.960 . S
C101 H107 0.959 . S
H102 C98 0.960 . S
H103 C98 0.961 . S
H104 C98 0.960 . S
H105 C101 0.960 . S
H106 C101 0.960 . S
H107 C101 0.959 . S
C108 N109 1.317 . S
C108 N110 1.348 . S
C108 C111 1.485 . S
N109 C108 1.317 . S
N109 N113 1.370 . S
N110 C108 1.348 . S
N110 C112 1.346 . S
C111 C108 1.485 . S
C111 H115 0.960 . S
C111 H116 0.961 . S
C111 H117 0.960 . S
C112 N110 1.346 . S
C112 N113 1.307 . S
C112 C114 1.486 . S
N113 N109 1.370 . S
N113 C112 1.307 . S
C114 C112 1.486 . S
C114 H118 0.960 . S
C114 H119 0.960 . S
C114 H120 0.959 . S
H115 C111 0.960 . S
H116 C111 0.961 . S
H117 C111 0.960 . S
H118 C114 0.960 . S
H119 C114 0.960 . S
H120 C114 0.959 . S
C121 N122 1.317 . S
C121 N123 1.348 . S
C121 C124 1.485 . S
N122 C121 1.317 . S
N122 N126 1.370 . S
N123 C121 1.348 . S
N123 C125 1.346 . S
C124 C121 1.485 . S
C124 H128 0.960 . S
C124 H129 0.961 . S
C124 H130 0.960 . S
C125 N123 1.346 . S
C125 N126 1.307 . S
C125 C127 1.486 . S
N126 N122 1.370 . S
N126 C125 1.307 . S
C127 C125 1.486 . S
C127 H131 0.960 . S
C127 H132 0.960 . S
C127 H133 0.959 . S
H128 C124 0.960 . S
H129 C124 0.961 . S
H130 C124 0.960 . S
H131 C127 0.960 . S
H132 C127 0.960 . S
H133 C127 0.959 . S
C134 N135 1.317 . S
C134 N136 1.348 . S
C134 C137 1.485 . S
N135 C134 1.317 . S
N135 N139 1.370 . S
N136 C134 1.348 . S
N136 C138 1.346 . S
C137 C134 1.485 . S
C137 H141 0.960 . S
C137 H142 0.961 . S
C137 H143 0.960 . S
C138 N136 1.346 . S
C138 N139 1.307 . S
C138 C140 1.486 . S
N139 N135 1.370 . S
N139 C138 1.307 . S
C140 C138 1.486 . S
C140 H144 0.960 . S
C140 H145 0.960 . S
C140 H146 0.959 . S
H141 C137 0.960 . S
H142 C137 0.961 . S
H143 C137 0.960 . S
H144 C140 0.960 . S
H145 C140 0.960 . S
H146 C140 0.959 . S
C147 C148 1.349 . S
C147 C149 1.327 . S
C147 H172 0.950 . S
C148 C147 1.349 . S
C148 C164 1.349 . S
C149 C147 1.327 . S
C149 C168 1.429 . S
C149 H173 0.950 . S
C150 C167 1.574 . S
C150 C169 1.368 . S
C150 H174 0.949 . S
H151 C155 0.949 . S
C152 C153 1.349 . S
C152 C154 1.327 . S
C152 H175 0.950 . S
C153 C152 1.349 . S
C153 C165 1.349 . S
C154 C152 1.327 . S
C154 C170 1.429 . S
C154 H176 0.950 . S
C155 H151 0.949 . S
C155 C163 1.574 . S
C155 C171 1.368 . S
H156 C164 0.950 . S
H157 C162 0.950 . S
H158 C163 0.949 . S
H159 C165 0.950 . S
H160 C166 0.950 . S
H161 C167 0.949 . S
C162 H157 0.950 . S
C162 C164 1.327 . S
C162 C168 1.429 . S
C163 C155 1.574 . S
C163 H158 0.949 . S
C163 C169 1.368 . S
C164 C148 1.349 . S
C164 H156 0.950 . S
C164 C162 1.327 . S
C165 C153 1.349 . S
C165 H159 0.950 . S
C165 C166 1.327 . S
C166 H160 0.950 . S
C166 C165 1.327 . S
C166 C170 1.429 . S
C167 C150 1.574 . S
C167 H161 0.949 . S
C167 C171 1.368 . S
C168 C149 1.429 . S
C168 C162 1.429 . S
C168 C169 1.523 . S
C169 C150 1.368 . S
C169 C163 1.368 . S
C169 C168 1.523 . S
C170 C154 1.429 . S
C170 C166 1.429 . S
C170 C171 1.523 . S
C171 C155 1.368 . S
C171 C167 1.368 . S
C171 C170 1.523 . S
H172 C147 0.950 . S
H173 C149 0.950 . S
H174 C150 0.949 . S
H175 C152 0.950 . S
H176 C154 0.950 . S
C177 C178 1.349 . S
C177 C179 1.327 . S
C177 H202 0.950 . S
C178 C177 1.349 . S
C178 C194 1.349 . S
C179 C177 1.327 . S
C179 C198 1.429 . S
C179 H203 0.950 . S
C180 C197 1.574 . S
C180 C199 1.368 . S
C180 H204 0.949 . S
H181 C185 0.949 . S
C182 C183 1.349 . S
C182 C184 1.327 1_455 S
C182 H205 0.950 . S
C183 C182 1.349 . S
C183 C195 1.349 1_455 S
C184 C182 1.327 1_655 S
C184 C200 1.429 . S
C184 H206 0.950 1_655 S
C185 H181 0.949 . S
C185 C193 1.574 . S
C185 C201 1.368 . S
H186 C194 0.950 . S
H187 C192 0.950 . S
H188 C193 0.949 . S
H189 C195 0.950 . S
H190 C196 0.950 . S
H191 C197 0.949 . S
C192 H187 0.950 . S
C192 C194 1.327 . S
C192 C198 1.429 . S
C193 C185 1.574 . S
C193 H188 0.949 . S
C193 C199 1.368 . S
C194 C178 1.349 . S
C194 H186 0.950 . S
C194 C192 1.327 . S
C195 C183 1.349 1_655 S
C195 H189 0.950 . S
C195 C196 1.327 . S
C196 H190 0.950 . S
C196 C195 1.327 . S
C196 C200 1.429 . S
C197 C180 1.574 . S
C197 H191 0.949 . S
C197 C201 1.368 . S
C198 C179 1.429 . S
C198 C192 1.429 . S
C198 C199 1.523 . S
C199 C180 1.368 . S
C199 C193 1.368 . S
C199 C198 1.523 . S
C200 C184 1.429 . S
C200 C196 1.429 . S
C200 C201 1.523 . S
C201 C185 1.368 . S
C201 C197 1.368 . S
C201 C200 1.523 . S
H202 C177 0.950 . S
H203 C179 0.950 . S
H204 C180 0.949 . S
H205 C182 0.950 . S
H206 C184 0.950 1_455 S
C207 C208 1.349 . S
C207 C209 1.327 . S
C207 H232 0.950 . S
C208 C207 1.349 . S
C208 C224 1.349 . S
C209 C207 1.327 . S
C209 C228 1.429 . S
C209 H233 0.950 . S
C210 C227 1.574 . S
C210 C229 1.368 . S
C210 H234 0.949 . S
H211 C215 0.949 . S
C212 C213 1.349 . S
C212 C214 1.327 1_545 S
C212 H235 0.950 . S
C213 C212 1.349 . S
C213 C225 1.349 . S
C214 C212 1.327 1_565 S
C214 C230 1.429 . S
C214 H236 0.950 . S
C215 H211 0.949 . S
C215 C223 1.574 . S
C215 C231 1.368 . S
H216 C224 0.950 . S
H217 C222 0.950 . S
H218 C223 0.949 . S
H219 C225 0.950 . S
H220 C226 0.950 . S
H221 C227 0.949 . S
C222 H217 0.950 . S
C222 C224 1.327 . S
C222 C228 1.429 . S
C223 C215 1.574 . S
C223 H218 0.949 . S
C223 C229 1.368 . S
C224 C208 1.349 . S
C224 H216 0.950 . S
C224 C222 1.327 . S
C225 C213 1.349 . S
C225 H219 0.950 . S
C225 C226 1.327 1_545 S
C226 H220 0.950 . S
C226 C225 1.327 1_565 S
C226 C230 1.429 . S
C227 C210 1.574 . S
C227 H221 0.949 . S
C227 C231 1.368 . S
C228 C209 1.429 . S
C228 C222 1.429 . S
C228 C229 1.523 . S
C229 C210 1.368 . S
C229 C223 1.368 . S
C229 C228 1.523 . S
C230 C214 1.429 . S
C230 C226 1.429 . S
C230 C231 1.523 . S
C231 C215 1.368 . S
C231 C227 1.368 . S
C231 C230 1.523 . S
H232 C207 0.950 . S
H233 C209 0.950 . S
H234 C210 0.949 . S
H235 C212 0.950 . S
H236 C214 0.950 . S
C237 C238 1.349 . S
C237 C239 1.327 . S
C237 H262 0.950 . S
C238 C237 1.349 . S
C238 C254 1.349 . S
C239 C237 1.327 . S
C239 C258 1.429 . S
C239 H263 0.950 . S
C240 C257 1.574 . S
C240 C259 1.368 . S
C240 H264 0.949 . S
H241 C245 0.949 . S
C242 C243 1.349 . S
C242 C244 1.327 . S
C242 H265 0.950 . S
C243 C242 1.349 . S
C243 C255 1.349 . S
C244 C242 1.327 . S
C244 C260 1.429 . S
C244 H266 0.950 . S
C245 H241 0.949 . S
C245 C253 1.574 . S
C245 C261 1.368 . S
H246 C254 0.950 . S
H247 C252 0.950 . S
H248 C253 0.949 . S
H249 C255 0.950 . S
H250 C256 0.950 . S
H251 C257 0.949 . S
C252 H247 0.950 . S
C252 C254 1.327 . S
C252 C258 1.429 . S
C253 C245 1.574 . S
C253 H248 0.949 . S
C253 C259 1.368 . S
C254 C238 1.349 . S
C254 H246 0.950 . S
C254 C252 1.327 . S
C255 C243 1.349 . S
C255 H249 0.950 . S
C255 C256 1.327 . S
C256 H250 0.950 . S
C256 C255 1.327 . S
C256 C260 1.429 . S
C257 C240 1.574 . S
C257 H251 0.949 . S
C257 C261 1.368 . S
C258 C239 1.429 . S
C258 C252 1.429 . S
C258 C259 1.523 . S
C259 C240 1.368 . S
C259 C253 1.368 . S
C259 C258 1.523 . S
C260 C244 1.429 . S
C260 C256 1.429 . S
C260 C261 1.523 . S
C261 C245 1.368 . S
C261 C257 1.368 . S
C261 C260 1.523 . S
H262 C237 0.950 . S
H263 C239 0.950 . S
H264 C240 0.949 . S
H265 C242 0.950 . S
H266 C244 0.950 . S
C267 C268 1.349 . S
C267 C269 1.327 . S
C267 H292 0.950 . S
C268 C267 1.349 . S
C268 C284 1.349 . S
C269 C267 1.327 . S
C269 C288 1.429 . S
C269 H293 0.950 . S
C270 C287 1.574 . S
C270 C289 1.368 . S
C270 H294 0.949 . S
H271 C275 0.949 . S
C272 C273 1.349 . S
C272 C274 1.327 . S
C272 H295 0.950 . S
C273 C272 1.349 . S
C273 C285 1.349 . S
C274 C272 1.327 . S
C274 C290 1.429 . S
C274 H296 0.950 . S
C275 H271 0.949 . S
C275 C283 1.574 . S
C275 C291 1.368 . S
H276 C284 0.950 . S
H277 C282 0.950 . S
H278 C283 0.949 . S
H279 C285 0.950 . S
H280 C286 0.950 . S
H281 C287 0.949 . S
C282 H277 0.950 . S
C282 C284 1.327 . S
C282 C288 1.429 . S
C283 C275 1.574 . S
C283 H278 0.949 . S
C283 C289 1.368 . S
C284 C268 1.349 . S
C284 H276 0.950 . S
C284 C282 1.327 . S
C285 C273 1.349 . S
C285 H279 0.950 . S
C285 C286 1.327 . S
C286 H280 0.950 . S
C286 C285 1.327 . S
C286 C290 1.429 . S
C287 C270 1.574 . S
C287 H281 0.949 . S
C287 C291 1.368 . S
C288 C269 1.429 . S
C288 C282 1.429 . S
C288 C289 1.523 . S
C289 C270 1.368 . S
C289 C283 1.368 . S
C289 C288 1.523 . S
C290 C274 1.429 . S
C290 C286 1.429 . S
C290 C291 1.523 . S
C291 C275 1.368 . S
C291 C287 1.368 . S
C291 C290 1.523 . S
H292 C267 0.950 . S
H293 C269 0.950 . S
H294 C270 0.949 . S
H295 C272 0.950 . S
H296 C274 0.950 . S
C297 C298 1.349 . S
C297 C299 1.327 . S
C297 H322 0.950 . S
C298 C297 1.349 . S
C298 C314 1.349 . S
C299 C297 1.327 . S
C299 C318 1.429 . S
C299 H323 0.950 . S
C300 C317 1.574 . S
C300 C319 1.368 . S
C300 H324 0.949 . S
H301 C305 0.949 . S
C302 C303 1.349 . S
C302 C304 1.327 . S
C302 H325 0.950 . S
C303 C302 1.349 . S
C303 C315 1.349 . S
C304 C302 1.327 . S
C304 C320 1.429 . S
C304 H326 0.950 . S
C305 H301 0.949 . S
C305 C313 1.574 . S
C305 C321 1.368 . S
H306 C314 0.950 . S
H307 C312 0.950 . S
H308 C313 0.949 . S
H309 C315 0.950 . S
H310 C316 0.950 . S
H311 C317 0.949 . S
C312 H307 0.950 . S
C312 C314 1.327 . S
C312 C318 1.429 . S
C313 C305 1.574 . S
C313 H308 0.949 . S
C313 C319 1.368 . S
C314 C298 1.349 . S
C314 H306 0.950 . S
C314 C312 1.327 . S
C315 C303 1.349 . S
C315 H309 0.950 . S
C315 C316 1.327 . S
C316 H310 0.950 . S
C316 C315 1.327 . S
C316 C320 1.429 . S
C317 C300 1.574 . S
C317 H311 0.949 . S
C317 C321 1.368 . S
C318 C299 1.429 . S
C318 C312 1.429 . S
C318 C319 1.523 . S
C319 C300 1.368 . S
C319 C313 1.368 . S
C319 C318 1.523 . S
C320 C304 1.429 . S
C320 C316 1.429 . S
C320 C321 1.523 . S
C321 C305 1.368 . S
C321 C317 1.368 . S
C321 C320 1.523 . S
H322 C297 0.950 . S
H323 C299 0.950 . S
H324 C300 0.949 . S
H325 C302 0.950 . S
H326 C304 0.950 . S
C327 C328 1.349 . S
C327 C329 1.327 . S
C327 H352 0.950 . S
C328 C327 1.349 . S
C328 C344 1.349 . S
C329 C327 1.327 . S
C329 C348 1.429 . S
C329 H353 0.950 . S
C330 C347 1.574 . S
C330 C349 1.368 . S
C330 H354 0.949 . S
H331 C335 0.949 . S
C332 C333 1.349 . S
C332 C334 1.327 . S
C332 H355 0.950 . S
C333 C332 1.349 . S
C333 C345 1.349 . S
C334 C332 1.327 . S
C334 C350 1.429 . S
C334 H356 0.950 . S
C335 H331 0.949 . S
C335 C343 1.574 . S
C335 C351 1.368 . S
H336 C344 0.950 . S
H337 C342 0.950 . S
H338 C343 0.949 . S
H339 C345 0.950 . S
H340 C346 0.950 . S
H341 C347 0.949 . S
C342 H337 0.950 . S
C342 C344 1.327 . S
C342 C348 1.429 . S
C343 C335 1.574 . S
C343 H338 0.949 . S
C343 C349 1.368 . S
C344 C328 1.349 . S
C344 H336 0.950 . S
C344 C342 1.327 . S
C345 C333 1.349 . S
C345 H339 0.950 . S
C345 C346 1.327 . S
C346 H340 0.950 . S
C346 C345 1.327 . S
C346 C350 1.429 . S
C347 C330 1.574 . S
C347 H341 0.949 . S
C347 C351 1.368 . S
C348 C329 1.429 . S
C348 C342 1.429 . S
C348 C349 1.523 . S
C349 C330 1.368 . S
C349 C343 1.368 . S
C349 C348 1.523 . S
C350 C334 1.429 . S
C350 C346 1.429 . S
C350 C351 1.523 . S
C351 C335 1.368 . S
C351 C347 1.368 . S
C351 C350 1.523 . S
H352 C327 0.950 . S
H353 C329 0.950 . S
H354 C330 0.949 . S
H355 C332 0.950 . S
H356 C334 0.950 . S
C357 C358 1.349 . S
C357 C359 1.327 . S
C357 H382 0.950 . S
C358 C357 1.349 . S
C358 C374 1.349 . S
C359 C357 1.327 . S
C359 C378 1.429 . S
C359 H383 0.950 . S
C360 C377 1.574 . S
C360 C379 1.368 . S
C360 H384 0.949 . S
H361 C365 0.949 . S
C362 C363 1.349 . S
C362 C364 1.327 . S
C362 H385 0.950 . S
C363 C362 1.349 . S
C363 C375 1.349 . S
C364 C362 1.327 . S
C364 C380 1.429 . S
C364 H386 0.950 . S
C365 H361 0.949 . S
C365 C373 1.574 . S
C365 C381 1.368 . S
H366 C374 0.950 . S
H367 C372 0.950 . S
H368 C373 0.949 . S
H369 C375 0.950 1_455 S
H370 C376 0.950 . S
H371 C377 0.949 . S
C372 H367 0.950 . S
C372 C374 1.327 . S
C372 C378 1.429 . S
C373 C365 1.574 . S
C373 H368 0.949 . S
C373 C379 1.368 . S
C374 C358 1.349 . S
C374 H366 0.950 . S
C374 C372 1.327 . S
C375 C363 1.349 . S
C375 H369 0.950 1_655 S
C375 C376 1.327 . S
C376 H370 0.950 . S
C376 C375 1.327 . S
C376 C380 1.429 . S
C377 C360 1.574 . S
C377 H371 0.949 . S
C377 C381 1.368 . S
C378 C359 1.429 . S
C378 C372 1.429 . S
C378 C379 1.523 . S
C379 C360 1.368 . S
C379 C373 1.368 . S
C379 C378 1.523 . S
C380 C364 1.429 . S
C380 C376 1.429 . S
C380 C381 1.523 . S
C381 C365 1.368 . S
C381 C377 1.368 . S
C381 C380 1.523 . S
H382 C357 0.950 . S
H383 C359 0.950 . S
H384 C360 0.949 . S
H385 C362 0.950 . S
H386 C364 0.950 . S
C387 C388 1.349 . S
C387 C389 1.327 . S
C387 H412 0.950 . S
C388 C387 1.349 . S
C388 C404 1.349 . S
C389 C387 1.327 . S
C389 C408 1.429 . S
C389 H413 0.950 . S
C390 C407 1.574 . S
C390 C409 1.368 . S
C390 H414 0.949 . S
H391 C395 0.949 . S
C392 C393 1.349 . S
C392 C394 1.327 . S
C392 H415 0.950 . S
C393 C392 1.349 . S
C393 C405 1.349 . S
C394 C392 1.327 . S
C394 C410 1.429 . S
C394 H416 0.950 . S
C395 H391 0.949 . S
C395 C403 1.574 . S
C395 C411 1.368 . S
H396 C404 0.950 . S
H397 C402 0.950 . S
H398 C403 0.949 . S
H399 C405 0.950 . S
H400 C406 0.950 . S
H401 C407 0.949 . S
C402 H397 0.950 . S
C402 C404 1.327 . S
C402 C408 1.429 . S
C403 C395 1.574 . S
C403 H398 0.949 . S
C403 C409 1.368 . S
C404 C388 1.349 . S
C404 H396 0.950 . S
C404 C402 1.327 . S
C405 C393 1.349 . S
C405 H399 0.950 . S
C405 C406 1.327 . S
C406 H400 0.950 . S
C406 C405 1.327 . S
C406 C410 1.429 . S
C407 C390 1.574 . S
C407 H401 0.949 . S
C407 C411 1.368 . S
C408 C389 1.429 . S
C408 C402 1.429 . S
C408 C409 1.523 . S
C409 C390 1.368 . S
C409 C403 1.368 . S
C409 C408 1.523 . S
C410 C394 1.429 . S
C410 C406 1.429 . S
C410 C411 1.523 . S
C411 C395 1.368 . S
C411 C407 1.368 . S
C411 C410 1.523 . S
H412 C387 0.950 . S
H413 C389 0.950 . S
H414 C390 0.949 . S
H415 C392 0.950 . S
H416 C394 0.950 . S
C417 C418 1.349 . S
C417 C419 1.327 . S
C417 H442 0.950 . S
C418 C417 1.349 . S
C418 C434 1.349 . S
C419 C417 1.327 . S
C419 C438 1.429 . S
C419 H443 0.950 . S
C420 C437 1.574 . S
C420 C439 1.368 . S
C420 H444 0.949 . S
H421 C425 0.949 . S
C422 C423 1.349 . S
C422 C424 1.327 . S
C422 H445 0.950 . S
C423 C422 1.349 . S
C423 C435 1.349 . S
C424 C422 1.327 . S
C424 C440 1.429 . S
C424 H446 0.950 . S
C425 H421 0.949 . S
C425 C433 1.574 . S
C425 C441 1.368 . S
H426 C434 0.950 . S
H427 C432 0.950 . S
H428 C433 0.949 . S
H429 C435 0.950 . S
H430 C436 0.950 . S
H431 C437 0.949 . S
C432 H427 0.950 . S
C432 C434 1.327 . S
C432 C438 1.429 . S
C433 C425 1.574 . S
C433 H428 0.949 . S
C433 C439 1.368 . S
C434 C418 1.349 . S
C434 H426 0.950 . S
C434 C432 1.327 . S
C435 C423 1.349 . S
C435 H429 0.950 . S
C435 C436 1.327 . S
C436 H430 0.950 . S
C436 C435 1.327 . S
C436 C440 1.429 . S
C437 C420 1.574 . S
C437 H431 0.949 . S
C437 C441 1.368 . S
C438 C419 1.429 . S
C438 C432 1.429 . S
C438 C439 1.523 . S
C439 C420 1.368 . S
C439 C433 1.368 . S
C439 C438 1.523 . S
C440 C424 1.429 . S
C440 C436 1.429 . S
C440 C441 1.523 . S
C441 C425 1.368 . S
C441 C437 1.368 . S
C441 C440 1.523 . S
H442 C417 0.950 . S
H443 C419 0.950 . S
H444 C420 0.949 . S
H445 C422 0.950 . S
H446 C424 0.950 . S
C447 C448 1.349 . S
C447 C449 1.327 . S
C447 H472 0.950 . S
C448 C447 1.349 . S
C448 C464 1.349 . S
C449 C447 1.327 . S
C449 C468 1.429 . S
C449 H473 0.950 . S
C450 C467 1.574 . S
C450 C469 1.368 . S
C450 H474 0.949 . S
H451 C455 0.949 . S
C452 C453 1.349 . S
C452 C454 1.327 . S
C452 H475 0.950 . S
C453 C452 1.349 . S
C453 C465 1.349 . S
C454 C452 1.327 . S
C454 C470 1.429 . S
C454 H476 0.950 . S
C455 H451 0.949 . S
C455 C463 1.574 . S
C455 C471 1.368 . S
H456 C464 0.950 . S
H457 C462 0.950 . S
H458 C463 0.949 . S
H459 C465 0.950 . S
H460 C466 0.950 . S
H461 C467 0.949 . S
C462 H457 0.950 . S
C462 C464 1.327 . S
C462 C468 1.429 . S
C463 C455 1.574 . S
C463 H458 0.949 . S
C463 C469 1.368 . S
C464 C448 1.349 . S
C464 H456 0.950 . S
C464 C462 1.327 . S
C465 C453 1.349 . S
C465 H459 0.950 . S
C465 C466 1.327 . S
C466 H460 0.950 . S
C466 C465 1.327 . S
C466 C470 1.429 . S
C467 C450 1.574 . S
C467 H461 0.949 . S
C467 C471 1.368 . S
C468 C449 1.429 . S
C468 C462 1.429 . S
C468 C469 1.523 . S
C469 C450 1.368 . S
C469 C463 1.368 . S
C469 C468 1.523 . S
C470 C454 1.429 . S
C470 C466 1.429 . S
C470 C471 1.523 . S
C471 C455 1.368 . S
C471 C467 1.368 . S
C471 C470 1.523 . S
H472 C447 0.950 . S
H473 C449 0.950 . S
H474 C450 0.949 . S
H475 C452 0.950 . S
H476 C454 0.950 . S
C477 C478 1.349 . S
C477 C479 1.327 . S
C477 H502 0.950 . S
C478 C477 1.349 . S
C478 C494 1.349 . S
C479 C477 1.327 . S
C479 C498 1.429 . S
C479 H503 0.950 . S
C480 C497 1.574 . S
C480 C499 1.368 . S
C480 H504 0.949 . S
H481 C485 0.949 . S
C482 C483 1.349 . S
C482 C484 1.327 . S
C482 H505 0.950 . S
C483 C482 1.349 . S
C483 C495 1.349 . S
C484 C482 1.327 . S
C484 C500 1.429 . S
C484 H506 0.950 . S
C485 H481 0.949 . S
C485 C493 1.574 . S
C485 C501 1.368 . S
H486 C494 0.950 . S
H487 C492 0.950 . S
H488 C493 0.949 . S
H489 C495 0.950 . S
H490 C496 0.950 . S
H491 C497 0.949 . S
C492 H487 0.950 . S
C492 C494 1.327 . S
C492 C498 1.429 . S
C493 C485 1.574 . S
C493 H488 0.949 . S
C493 C499 1.368 . S
C494 C478 1.349 . S
C494 H486 0.950 . S
C494 C492 1.327 . S
C495 C483 1.349 . S
C495 H489 0.950 . S
C495 C496 1.327 . S
C496 H490 0.950 . S
C496 C495 1.327 . S
C496 C500 1.429 . S
C497 C480 1.574 . S
C497 H491 0.949 . S
C497 C501 1.368 . S
C498 C479 1.429 . S
C498 C492 1.429 . S
C498 C499 1.523 . S
C499 C480 1.368 . S
C499 C493 1.368 . S
C499 C498 1.523 . S
C500 C484 1.429 . S
C500 C496 1.429 . S
C500 C501 1.523 . S
C501 C485 1.368 . S
C501 C497 1.368 . S
C501 C500 1.523 . S
H502 C477 0.950 . S
H503 C479 0.950 . S
H504 C480 0.949 . S
H505 C482 0.950 . S
H506 C484 0.950 . S
C507 C508 1.349 1_655 S
C507 C509 1.327 . S
C507 H532 0.950 . S
C508 C507 1.349 1_455 S
C508 C524 1.349 . S
C509 C507 1.327 . S
C509 C528 1.429 1_655 S
C509 H533 0.950 . S
C510 C527 1.574 . S
C510 C529 1.368 . S
C510 H534 0.949 . S
H511 C515 0.949 1_656 S
C512 C513 1.349 . S
C512 C514 1.327 . S
C512 H535 0.950 . S
C513 C512 1.349 . S
C513 C525 1.349 . S
C514 C512 1.327 . S
C514 C530 1.429 . S
C514 H536 0.950 . S
C515 H511 0.949 1_454 S
C515 C523 1.574 . S
C515 C531 1.368 1_554 S
H516 C524 0.950 . S
H517 C522 0.950 . S
H518 C523 0.949 1_655 S
H519 C525 0.950 1_655 S
H520 C526 0.950 1_655 S
H521 C527 0.949 1_556 S
C522 H517 0.950 . S
C522 C524 1.327 . S
C522 C528 1.429 . S
C523 C515 1.574 . S
C523 H518 0.949 1_455 S
C523 C529 1.368 . S
C524 C508 1.349 . S
C524 H516 0.950 . S
C524 C522 1.327 . S
C525 C513 1.349 . S
C525 H519 0.950 1_455 S
C525 C526 1.327 . S
C526 H520 0.950 1_455 S
C526 C525 1.327 . S
C526 C530 1.429 . S
C527 C510 1.574 . S
C527 H521 0.949 1_554 S
C527 C531 1.368 1_554 S
C528 C509 1.429 1_455 S
C528 C522 1.429 . S
C528 C529 1.523 . S
C529 C510 1.368 . S
C529 C523 1.368 . S
C529 C528 1.523 . S
C530 C514 1.429 . S
C530 C526 1.429 . S
C530 C531 1.523 . S
C531 C515 1.368 1_556 S
C531 C527 1.368 1_556 S
C531 C530 1.523 . S
H532 C507 0.950 . S
H533 C509 0.950 . S
H534 C510 0.949 . S
H535 C512 0.950 . S
H536 C514 0.950 . S
C537 C538 1.349 . S
C537 C539 1.327 . S
C537 H562 0.950 . S
C538 C537 1.349 . S
C538 C554 1.349 . S
C539 C537 1.327 . S
C539 C558 1.429 . S
C539 H563 0.950 . S
C540 C557 1.574 . S
C540 C559 1.368 . S
C540 H564 0.949 1_545 S
H541 C545 0.949 . S
C542 C543 1.349 . S
C542 C544 1.327 . S
C542 H565 0.950 1_545 S
C543 C542 1.349 . S
C543 C555 1.349 . S
C544 C542 1.327 . S
C544 C560 1.429 . S
C544 H566 0.950 1_545 S
C545 H541 0.949 . S
C545 C553 1.574 . S
C545 C561 1.368 . S
H546 C554 0.950 . S
H547 C552 0.953 . S
H548 C553 0.949 . S
H549 C555 0.950 . S
H550 C556 0.950 . S
H551 C557 0.949 1_565 S
C552 H547 0.953 . S
C552 C554 1.327 . S
C552 C558 1.429 . S
C553 C545 1.574 . S
C553 H548 0.949 . S
C553 C559 1.368 . S
C554 C538 1.349 . S
C554 H546 0.950 . S
C554 C552 1.327 . S
C555 C543 1.349 . S
C555 H549 0.950 . S
C555 C556 1.327 . S
C556 H550 0.950 . S
C556 C555 1.327 . S
C556 C560 1.429 . S
C557 C540 1.574 . S
C557 H551 0.949 1_545 S
C557 C561 1.368 . S
C558 C539 1.429 . S
C558 C552 1.429 . S
C558 C559 1.523 . S
C559 C540 1.368 . S
C559 C553 1.368 . S
C559 C558 1.523 . S
C560 C544 1.429 . S
C560 C556 1.429 . S
C560 C561 1.523 . S
C561 C545 1.368 . S
C561 C557 1.368 . S
C561 C560 1.523 . S
H562 C537 0.950 . S
H563 C539 0.950 . S
H564 C540 0.949 1_565 S
H565 C542 0.950 1_565 S
H566 C544 0.950 1_565 S
C567 C568 1.349 . S
C567 C569 1.327 . S
C567 H592 0.950 . S
C568 C567 1.349 . S
C568 C584 1.349 . S
C569 C567 1.327 . S
C569 C588 1.429 . S
C569 H593 0.950 . S
C570 C587 1.574 . S
C570 C589 1.368 . S
C570 H594 0.949 . S
H571 C575 0.949 . S
C572 C573 1.349 . S
C572 C574 1.327 . S
C572 H595 0.950 . S
C573 C572 1.349 . S
C573 C585 1.349 . S
C574 C572 1.327 . S
C574 C590 1.429 . S
C574 H596 0.950 . S
C575 H571 0.949 . S
C575 C583 1.574 . S
C575 C591 1.368 . S
H576 C584 0.950 . S
H577 C582 0.950 . S
H578 C583 0.949 . S
H579 C585 0.950 . S
H580 C586 0.950 . S
H581 C587 0.949 . S
C582 H577 0.950 . S
C582 C584 1.327 . S
C582 C588 1.429 . S
C583 C575 1.574 . S
C583 H578 0.949 . S
C583 C589 1.368 . S
C584 C568 1.349 . S
C584 H576 0.950 . S
C584 C582 1.327 . S
C585 C573 1.349 . S
C585 H579 0.950 . S
C585 C586 1.327 . S
C586 H580 0.950 . S
C586 C585 1.327 . S
C586 C590 1.429 . S
C587 C570 1.574 . S
C587 H581 0.949 . S
C587 C591 1.368 . S
C588 C569 1.429 . S
C588 C582 1.429 . S
C588 C589 1.523 . S
C589 C570 1.368 . S
C589 C583 1.368 . S
C589 C588 1.523 . S
C590 C574 1.429 . S
C590 C586 1.429 . S
C590 C591 1.523 . S
C591 C575 1.368 . S
C591 C587 1.368 . S
C591 C590 1.523 . S
H592 C567 0.950 . S
H593 C569 0.950 . S
H594 C570 0.949 . S
H595 C572 0.950 . S
H596 C574 0.950 . S
C597 C598 1.349 . S
C597 C599 1.327 . S
C597 H622 0.950 . S
C598 C597 1.349 . S
C598 C614 1.349 . S
C599 C597 1.327 . S
C599 C618 1.429 . S
C599 H623 0.950 . S
C600 C617 1.574 . S
C600 C619 1.368 . S
C600 H624 0.949 . S
H601 C605 0.949 . S
C602 C603 1.349 . S
C602 C604 1.327 . S
C602 H625 0.950 . S
C603 C602 1.349 . S
C603 C615 1.349 . S
C604 C602 1.327 . S
C604 C620 1.429 . S
C604 H626 0.950 . S
C605 H601 0.949 . S
C605 C613 1.574 . S
C605 C621 1.368 . S
H606 C614 0.950 . S
H607 C612 0.950 . S
H608 C613 0.949 . S
H609 C615 0.950 . S
H610 C616 0.950 . S
H611 C617 0.949 . S
C612 H607 0.950 . S
C612 C614 1.327 . S
C612 C618 1.429 . S
C613 C605 1.574 . S
C613 H608 0.949 . S
C613 C619 1.368 . S
C614 C598 1.349 . S
C614 H606 0.950 . S
C614 C612 1.327 . S
C615 C603 1.349 . S
C615 H609 0.950 . S
C615 C616 1.327 . S
C616 H610 0.950 . S
C616 C615 1.327 . S
C616 C620 1.429 . S
C617 C600 1.574 . S
C617 H611 0.949 . S
C617 C621 1.368 . S
C618 C599 1.429 . S
C618 C612 1.429 . S
C618 C619 1.523 . S
C619 C600 1.368 . S
C619 C613 1.368 . S
C619 C618 1.523 . S
C620 C604 1.429 . S
C620 C616 1.429 . S
C620 C621 1.523 . S
C621 C605 1.368 . S
C621 C617 1.368 . S
C621 C620 1.523 . S
H622 C597 0.950 . S
H623 C599 0.950 . S
H624 C600 0.949 . S
H625 C602 0.950 . S
H626 C604 0.950 . S
C627 C628 1.349 . S
C627 C629 1.327 . S
C627 H652 0.950 . S
C628 C627 1.349 . S
C628 C644 1.349 . S
C629 C627 1.327 . S
C629 C648 1.429 . S
C629 H653 0.950 . S
C630 C647 1.574 . S
C630 C649 1.368 . S
C630 H654 0.949 . S
H631 C635 0.949 1_554 S
C632 C633 1.349 . S
C632 C634 1.327 . S
C632 H655 0.950 . S
C633 C632 1.349 . S
C633 C645 1.349 . S
C634 C632 1.327 . S
C634 C650 1.429 . S
C634 H656 0.950 . S
C635 H631 0.949 1_556 S
C635 C643 1.574 . S
C635 C651 1.368 1_556 S
H636 C644 0.950 . S
H637 C642 0.950 . S
H638 C643 0.949 . S
H639 C645 0.950 . S
H640 C646 0.950 . S
H641 C647 0.949 1_554 S
C642 H637 0.950 . S
C642 C644 1.327 . S
C642 C648 1.429 . S
C643 C635 1.574 . S
C643 H638 0.949 . S
C643 C649 1.368 . S
C644 C628 1.349 . S
C644 H636 0.950 . S
C644 C642 1.327 . S
C645 C633 1.349 . S
C645 H639 0.950 . S
C645 C646 1.327 . S
C646 H640 0.950 . S
C646 C645 1.327 . S
C646 C650 1.429 . S
C647 C630 1.574 . S
C647 H641 0.949 1_556 S
C647 C651 1.368 1_556 S
C648 C629 1.429 . S
C648 C642 1.429 . S
C648 C649 1.523 . S
C649 C630 1.368 . S
C649 C643 1.368 . S
C649 C648 1.523 . S
C650 C634 1.429 . S
C650 C646 1.429 . S
C650 C651 1.523 . S
C651 C635 1.368 1_554 S
C651 C647 1.368 1_554 S
C651 C650 1.523 . S
H652 C627 0.950 . S
H653 C629 0.950 . S
H654 C630 0.949 . S
H655 C632 0.950 . S
H656 C634 0.950 . S
C657 C658 1.349 . S
C657 C659 1.327 . S
C657 H682 0.950 . S
C658 C657 1.349 . S
C658 C674 1.349 . S
C659 C657 1.327 . S
C659 C678 1.429 . S
C659 H683 0.950 . S
C660 C677 1.574 . S
C660 C679 1.368 . S
C660 H684 0.949 . S
H661 C665 0.949 . S
C662 C663 1.349 . S
C662 C664 1.327 . S
C662 H685 0.950 . S
C663 C662 1.349 . S
C663 C675 1.349 . S
C664 C662 1.327 . S
C664 C680 1.429 . S
C664 H686 0.950 . S
C665 H661 0.949 . S
C665 C673 1.574 . S
C665 C681 1.368 . S
H666 C674 0.950 . S
H667 C672 0.950 . S
H668 C673 0.949 . S
H669 C675 0.950 . S
H670 C676 0.950 . S
H671 C677 0.949 . S
C672 H667 0.950 . S
C672 C674 1.327 . S
C672 C678 1.429 . S
C673 C665 1.574 . S
C673 H668 0.949 . S
C673 C679 1.368 . S
C674 C658 1.349 . S
C674 H666 0.950 . S
C674 C672 1.327 . S
C675 C663 1.349 . S
C675 H669 0.950 . S
C675 C676 1.327 . S
C676 H670 0.950 . S
C676 C675 1.327 . S
C676 C680 1.429 . S
C677 C660 1.574 . S
C677 H671 0.949 . S
C677 C681 1.368 . S
C678 C659 1.429 . S
C678 C672 1.429 . S
C678 C679 1.523 . S
C679 C660 1.368 . S
C679 C673 1.368 . S
C679 C678 1.523 . S
C680 C664 1.429 . S
C680 C676 1.429 . S
C680 C681 1.523 . S
C681 C665 1.368 . S
C681 C677 1.368 . S
C681 C680 1.523 . S
H682 C657 0.950 . S
H683 C659 0.950 . S
H684 C660 0.949 . S
H685 C662 0.950 . S
H686 C664 0.950 . S
C148 C20 0.833 . S
C153 N136 0.844 . S
C178 C41 1.203 . S
C183 N109 1.196 . S
C208 C64 1.205 . S
C213 N122 1.198 . S
C238 C19 1.547 . S
C243 N135 1.576 . S
C273 N110 1.260 . S
C268 C44 1.261 . S
C303 N123 1.252 . S
C298 C67 1.252 . S
C328 C43 1.121 . S
C333 N83 1.161 . S
C358 C66 0.833 . S
C363 N97 0.844 1_655 S
C388 C21 1.254 . S
C393 N71 1.254 . S
C423 N84 1.257 . S
C418 C42 1.235 . S
C453 N96 1.576 . S
C448 C65 1.547 . S
C478 C18 1.183 . S
C483 N70 1.176 . S
C513 N100 1.499 . S
C508 C17 1.532 . S
C538 C39 1.546 . S
C543 N74 1.540 . S
C568 C62 1.544 . S
C573 N87 1.538 . S
C603 N126 1.524 . S
C598 C40 1.537 . S
C633 N139 1.498 . S
C628 C63 1.532 . S
C658 C16 1.530 . S
C663 N113 1.523 . S
