# Generated by pormake.
# Topology wbl, (4,4)-cn, num edge types: 1
# Building blocks:
#     Node 0, Type 0, BuildingBlock: MIFKUJ_clean_linker_1, # of connection points: 4
#     Node 1, Type 0, BuildingBlock: MIFKUJ_clean_linker_1, # of connection points: 4
#     Node 2, Type 0, BuildingBlock: MIFKUJ_clean_linker_1, # of connection points: 4
#     Node 3, Type 0, BuildingBlock: MIFKUJ_clean_linker_1, # of connection points: 4
#     Node 4, Type 0, BuildingBlock: MIFKUJ_clean_linker_1, # of connection points: 4
#     Node 5, Type 0, BuildingBlock: MIFKUJ_clean_linker_1, # of connection points: 4
#     Node 6, Type 0, BuildingBlock: MIFKUJ_clean_linker_1, # of connection points: 4
#     Node 7, Type 0, BuildingBlock: MIFKUJ_clean_linker_1, # of connection points: 4
#     Node 8, Type 1, BuildingBlock: QUQFOY_clean_sbu_3, # of connection points: 4
#     Node 9, Type 1, BuildingBlock: QUQFOY_clean_sbu_3, # of connection points: 4
#     Node 10, Type 1, BuildingBlock: QUQFOY_clean_sbu_3, # of connection points: 4
#     Node 11, Type 1, BuildingBlock: QUQFOY_clean_sbu_3, # of connection points: 4
#     Node 12, Type 1, BuildingBlock: QUQFOY_clean_sbu_3, # of connection points: 4
#     Node 13, Type 1, BuildingBlock: QUQFOY_clean_sbu_3, # of connection points: 4
#     Node 14, Type 1, BuildingBlock: QUQFOY_clean_sbu_3, # of connection points: 4
#     Node 15, Type 1, BuildingBlock: QUQFOY_clean_sbu_3, # of connection points: 4
#     Edge 16, Type (0, 1), BuildingBlock: AJUNOK_clean_linker_0, # of connection points: 2
#     Edge 17, Type (0, 1), BuildingBlock: AJUNOK_clean_linker_0, # of connection points: 2
#     Edge 18, Type (0, 1), BuildingBlock: AJUNOK_clean_linker_0, # of connection points: 2
#     Edge 19, Type (0, 1), BuildingBlock: AJUNOK_clean_linker_0, # of connection points: 2
#     Edge 20, Type (0, 1), BuildingBlock: AJUNOK_clean_linker_0, # of connection points: 2
#     Edge 21, Type (0, 1), BuildingBlock: AJUNOK_clean_linker_0, # of connection points: 2
#     Edge 22, Type (0, 1), BuildingBlock: AJUNOK_clean_linker_0, # of connection points: 2
#     Edge 23, Type (0, 1), BuildingBlock: AJUNOK_clean_linker_0, # of connection points: 2
#     Edge 24, Type (0, 1), BuildingBlock: AJUNOK_clean_linker_0, # of connection points: 2
#     Edge 25, Type (0, 1), BuildingBlock: AJUNOK_clean_linker_0, # of connection points: 2
#     Edge 26, Type (0, 1), BuildingBlock: AJUNOK_clean_linker_0, # of connection points: 2
#     Edge 27, Type (0, 1), BuildingBlock: AJUNOK_clean_linker_0, # of connection points: 2
#     Edge 28, Type (0, 1), BuildingBlock: AJUNOK_clean_linker_0, # of connection points: 2
#     Edge 29, Type (0, 1), BuildingBlock: AJUNOK_clean_linker_0, # of connection points: 2
#     Edge 30, Type (0, 1), BuildingBlock: AJUNOK_clean_linker_0, # of connection points: 2
#     Edge 31, Type (0, 1), BuildingBlock: AJUNOK_clean_linker_0, # of connection points: 2
#     Edge 32, Type (0, 1), BuildingBlock: AJUNOK_clean_linker_0, # of connection points: 2
#     Edge 33, Type (0, 1), BuildingBlock: AJUNOK_clean_linker_0, # of connection points: 2
#     Edge 34, Type (0, 1), BuildingBlock: AJUNOK_clean_linker_0, # of connection points: 2
#     Edge 35, Type (0, 1), BuildingBlock: AJUNOK_clean_linker_0, # of connection points: 2
#     Edge 36, Type (0, 1), BuildingBlock: AJUNOK_clean_linker_0, # of connection points: 2
#     Edge 37, Type (0, 1), BuildingBlock: AJUNOK_clean_linker_0, # of connection points: 2
#     Edge 38, Type (0, 1), BuildingBlock: AJUNOK_clean_linker_0, # of connection points: 2
#     Edge 39, Type (0, 1), BuildingBlock: AJUNOK_clean_linker_0, # of connection points: 2
#     Edge 40, Type (0, 1), BuildingBlock: AJUNOK_clean_linker_0, # of connection points: 2
#     Edge 41, Type (0, 1), BuildingBlock: AJUNOK_clean_linker_0, # of connection points: 2
#     Edge 42, Type (0, 1), BuildingBlock: AJUNOK_clean_linker_0, # of connection points: 2
#     Edge 43, Type (0, 1), BuildingBlock: AJUNOK_clean_linker_0, # of connection points: 2
#     Edge 44, Type (0, 1), BuildingBlock: AJUNOK_clean_linker_0, # of connection points: 2
#     Edge 45, Type (0, 1), BuildingBlock: AJUNOK_clean_linker_0, # of connection points: 2
#     Edge 46, Type (0, 1), BuildingBlock: AJUNOK_clean_linker_0, # of connection points: 2
#     Edge 47, Type (0, 1), BuildingBlock: AJUNOK_clean_linker_0, # of connection points: 2
# Relax obj value: 0.160
# Max RMSD: 0.160
# Mean RMSD: 0.137
data_MOF--net-wbl--node1-QUQFOY_clean_sbu_3--node2-MIFKUJ_clean_linker_1--edge1-AJUNOK_clean_linker_0
_symmetry_space_group_name_H-M    P1
_symmetry_Int_Tables_number       1
_symmetry_cell_setting            triclinic
loop_
_symmetry_equiv_pos_as_xyz
'x, y, z'
_cell_length_a     36.332052
_cell_length_b     36.695744
_cell_length_c     58.892416
_cell_angle_alpha  90.747247
_cell_angle_beta   90.31272
_cell_angle_gamma 90.101998
loop_
_atom_site_label
_atom_site_type_symbol
_atom_site_fract_x
_atom_site_fract_y
_atom_site_fract_z
_atom_type_partial_charge
H0 H 0.02235 0.11995 0.35414 0.0
H1 H 0.98423 0.14369 0.38494 0.0
H2 H 0.89592 0.07174 0.36389 0.0
H3 H 0.93455 0.04733 0.33346 0.0
H4 H 0.0394 0.04888 0.35855 0.0
H5 H 0.99069 0.12282 0.29816 0.0
H6 H 0.93841 0.15054 0.27842 0.0
H7 H 0.89536 0.04322 0.26276 0.0
H8 H 0.94813 0.01579 0.28182 0.0
H9 H 0.03755 0.94248 0.28641 0.0
H10 H 0.08108 0.89965 0.26839 0.0
H11 H 0.17052 0.97336 0.28449 0.0
H12 H 0.12736 0.01564 0.3024 0.0
H13 H 0.02239 0.01765 0.27699 0.0
H14 H 0.05405 0.94645 0.34369 0.0
H15 H 0.08378 0.92022 0.37716 0.0
H16 H 0.15042 0.01718 0.38494 0.0
H17 H 0.11964 0.04376 0.352 0.0
C18 C 0.98135 0.08183 0.34153 0.0
C19 C 0.99425 0.11035 0.35559 0.0
C20 C 0.97235 0.12403 0.37313 0.0
C21 C 0.93717 0.1094 0.37685 0.0
C22 C 0.923 0.08338 0.3614 0.0
C23 C 0.94494 0.06965 0.34388 0.0
C24 C 0.0079 0.05958 0.32833 0.0
C25 C 0.03635 0.04303 0.34052 0.0
C26 C 0.00274 0.05043 0.30514 0.0
C27 C 0.97302 0.06727 0.29162 0.0
C28 C 0.97011 0.10534 0.29026 0.0
C29 C 0.94019 0.12112 0.2791 0.0
C30 C 0.91252 0.09906 0.26934 0.0
C31 C 0.91636 0.06095 0.26997 0.0
C32 C 0.94643 0.04521 0.28091 0.0
C33 C 0.0794 0.98202 0.2958 0.0
C34 C 0.06654 0.94935 0.2859 0.0
C35 C 0.09128 0.92496 0.27573 0.0
C36 C 0.12898 0.9334 0.27506 0.0
C37 C 0.14152 0.96643 0.28463 0.0
C38 C 0.11699 0.99045 0.29497 0.0
C39 C 0.05405 0.00752 0.30734 0.0
C40 C 0.02594 0.02443 0.29485 0.0
C41 C 0.05905 0.01682 0.33044 0.0
C42 C 0.08456 -0.00292 0.34553 0.0
C43 C 0.07597 0.96148 0.35215 0.0
C44 C 0.0929 0.94657 0.37129 0.0
C45 C 0.11864 0.96713 0.38396 0.0
C46 C 0.12994 0.00119 0.3758 0.0
C47 C 0.1127 0.01623 0.35689 0.0
H48 H 0.99039 0.46379 0.51592 0.0
H49 H 0.96547 0.40634 0.50109 0.0
H50 H 0.86403 0.42647 0.53713 0.0
H51 H 0.88776 0.4852 0.5501 0.0
H52 H 0.98059 0.53341 0.5161 0.0
H53 H 0.97679 0.44276 0.57503 0.0
H54 H 0.95689 0.40042 0.60447 0.0
H55 H 0.88014 0.48095 0.62953 0.0
H56 H 0.89967 0.52282 0.6 0.0
H57 H 0.96847 0.61923 0.59966 0.0
H58 H 0.00454 0.65071 0.62917 0.0
H59 H 0.10449 0.60778 0.60003 0.0
H60 H 0.0684 0.57643 0.57054 0.0
H61 H 0.97247 0.54533 0.59992 0.0
H62 H 0.98124 0.63718 0.54272 0.0
H63 H 0.01876 0.68439 0.52531 0.0
H64 H 0.09548 0.60252 0.502 0.0
H65 H 0.05752 0.55501 0.51954 0.0
C66 C 0.94131 0.47846 0.5346 0.0
C67 C 0.9623 0.45645 0.51996 0.0
C68 C 0.94813 0.42341 0.51167 0.0
C69 C 0.91285 0.41155 0.51807 0.0
C70 C 0.89102 0.43485 0.53149 0.0
C71 C 0.90487 0.46825 0.5393 0.0
C72 C 0.9586 0.50994 0.54669 0.0
C73 C 0.97877 0.53591 0.53442 0.0
C74 C 0.95618 0.51377 0.57059 0.0
C75 C 0.93953 0.48582 0.5853 0.0
C76 C 0.95484 0.45079 0.58641 0.0
C77 C 0.94362 0.42674 0.60327 0.0
C78 C 0.91686 0.43737 0.61917 0.0
C79 C 0.90027 0.47175 0.61724 0.0
C80 C 0.91157 0.49578 0.60048 0.0
C81 C 0.01574 0.59553 0.5829 0.0
C82 C -0.00176 0.6177 0.59915 0.0
C83 C 0.01881 0.63553 0.61602 0.0
C84 C 0.05723 0.63147 0.61692 0.0
C85 C 0.07497 0.61178 0.59954 0.0
C86 C 0.05435 0.59389 0.58265 0.0
C87 C 0.99386 0.56872 0.56946 0.0
C88 C 0.97327 0.54334 0.58152 0.0
C89 C -0.00359 0.56526 0.54561 0.0
C90 C 0.01665 0.5927 0.53239 0.0
C91 C 0.00571 0.62929 0.53345 0.0
C92 C 0.02704 0.65617 0.52339 0.0
C93 C 0.05978 0.64699 0.51211 0.0
C94 C 0.07021 0.61019 0.51047 0.0
C95 C 0.04855 0.58313 0.52037 0.0
H96 H 0.50804 0.59838 0.84382 0.0
H97 H 0.47362 0.63389 0.87195 0.0
H98 H 0.37956 0.56345 0.86174 0.0
H99 H 0.41419 0.52784 0.83349 0.0
H100 H 0.51779 0.52401 0.85538 0.0
H101 H 0.47594 0.59532 0.78939 0.0
H102 H 0.42309 0.62335 0.77043 0.0
H103 H 0.3701 0.51797 0.76553 0.0
H104 H 0.42365 0.49002 0.78364 0.0
H105 H 0.5288 0.42099 0.77973 0.0
H106 H 0.57753 0.38706 0.7596 0.0
H107 H 0.65659 0.46907 0.78037 0.0
H108 H 0.60838 0.50244 0.8005 0.0
H109 H 0.50459 0.49336 0.7735 0.0
H110 H 0.55779 0.42047 0.83068 0.0
H111 H 0.59525 0.39201 0.86004 0.0
H112 H 0.61913 0.49839 0.88898 0.0
H113 H 0.58513 0.52667 0.85838 0.0
C114 C 0.46367 0.56045 0.83671 0.0
C115 C 0.47958 0.59134 0.84706 0.0
C116 C 0.45997 0.61155 0.86309 0.0
C117 C 0.42414 0.60117 0.86902 0.0
C118 C 0.40704 0.57216 0.85724 0.0
C119 C 0.42677 0.55182 0.84115 0.0
C120 C 0.48771 0.53416 0.82472 0.0
C121 C 0.51566 0.51778 0.83735 0.0
C122 C 0.48304 0.52455 0.80166 0.0
C123 C 0.45335 0.54075 0.78801 0.0
C124 C 0.45312 0.57829 0.78387 0.0
C125 C 0.42288 0.59424 0.77322 0.0
C126 C 0.39222 0.57293 0.76691 0.0
C127 C 0.3934 0.53504 0.77012 0.0
C128 C 0.42385 0.51905 0.78051 0.0
C129 C 0.56521 0.46397 0.7917 0.0
C130 C 0.55665 0.43159 0.77982 0.0
C131 C 0.5843 0.41235 0.76837 0.0
C132 C 0.62045 0.4259 0.76825 0.0
C133 C 0.62872 0.4585 0.77993 0.0
C134 C 0.60135 0.47733 0.79158 0.0
C135 C 0.53661 0.48468 0.80396 0.0
C136 C 0.5074 0.49971 0.79147 0.0
C137 C 0.54032 0.49311 0.82737 0.0
C138 C 0.56822 0.47582 0.84235 0.0
C139 C 0.57227 0.43775 0.84281 0.0
C140 C 0.59306 0.42142 0.85997 0.0
C141 C 0.60916 0.44277 0.87741 0.0
C142 C 0.60714 0.48094 0.87594 0.0
C143 C 0.58729 0.49722 0.8585 0.0
H144 H 0.48967 0.95152 0.02703 0.0
H145 H 0.46436 0.89543 0.0108 0.0
H146 H 0.35593 0.92626 0.03384 0.0
H147 H 0.38177 0.98235 0.05065 0.0
H148 H 0.47898 0.02348 0.02137 0.0
H149 H 0.46755 0.93658 0.08082 0.0
H150 H 0.44697 0.89668 0.11124 0.0
H151 H 0.37356 0.98096 0.1353 0.0
H152 H 0.39361 0.02045 0.10459 0.0
H153 H 0.47074 0.11223 0.1053 0.0
H154 H 0.51025 0.14233 0.1337 0.0
H155 H 0.60594 0.09402 0.10243 0.0
H156 H 0.5665 0.06366 0.0743 0.0
H157 H 0.46705 0.0401 0.1047 0.0
H158 H 0.48338 0.12824 0.04584 0.0
H159 H 0.52295 0.17227 0.0269 0.0
H160 H 0.59649 0.08555 0.00681 0.0
H161 H 0.55622 0.04116 0.02557 0.0
C162 C 0.43763 0.97105 0.04004 0.0
C163 C 0.46032 0.94661 0.02819 0.0
C164 C 0.44574 0.91464 0.01879 0.0
C165 C 0.40801 0.90673 0.02072 0.0
C166 C 0.38508 0.93172 0.03208 0.0
C167 C 0.39978 0.96369 0.04164 0.0
C168 C 0.45429 0.00285 0.05192 0.0
C169 C 0.47621 0.02716 0.03958 0.0
C170 C 0.4503 0.00816 0.07559 0.0
C171 C 0.43189 0.98139 0.09035 0.0
C172 C 0.44592 0.94591 0.09206 0.0
C173 C 0.43438 0.92326 0.10953 0.0
C174 C 0.40868 0.93575 0.12558 0.0
C175 C 0.39291 0.97038 0.12295 0.0
C176 C 0.40449 0.99303 0.10549 0.0
C177 C 0.51561 0.08583 0.08759 0.0
C178 C 0.50031 0.10905 0.10413 0.0
C179 C 0.52285 0.12616 0.12033 0.0
C180 C 0.56107 0.12041 0.12021 0.0
C181 C 0.57663 0.09938 0.10267 0.0
C182 C 0.55406 0.0821 0.08653 0.0
C183 C 0.4916 0.06063 0.07428 0.0
C184 C 0.46854 0.0373 0.08636 0.0
C185 C 0.49484 0.05599 0.05054 0.0
C186 C 0.51695 0.08157 0.03706 0.0
C187 C 0.50763 0.1186 0.037 0.0
C188 C 0.5301 0.14363 0.0261 0.0
C189 C 0.56246 0.13209 0.01525 0.0
C190 C 0.57149 0.0949 0.01493 0.0
C191 C 0.54855 0.06967 0.02553 0.0
H192 H 0.00433 0.60854 0.90089 0.0
H193 H 0.04232 0.63126 0.87006 0.0
H194 H 0.12758 0.55465 0.88768 0.0
H195 H 0.08909 0.53161 0.91845 0.0
H196 H 0.98539 0.53505 0.89624 0.0
H197 H 0.04643 0.61352 0.94944 0.0
H198 H 0.10355 0.63722 0.96578 0.0
H199 H 0.12262 0.53385 0.99809 0.0
H200 H 0.06764 0.50903 0.97973 0.0
H201 H 0.98495 0.44499 0.97687 0.0
H202 H 0.94126 0.40432 0.99608 0.0
H203 H 0.8506 0.46457 0.96771 0.0
H204 H 0.89374 0.50565 0.94919 0.0
H205 H 7e-05 0.51537 0.9789 0.0
H206 H 0.95948 0.43398 0.92011 0.0
H207 H 0.92606 0.40059 0.89024 0.0
H208 H 0.87773 0.50129 0.86758 0.0
H209 H 0.91137 0.53463 0.89739 0.0
C210 C 0.04394 0.56848 0.91195 0.0
C211 C 0.03175 0.59756 0.89864 0.0
C212 C 0.05356 0.61062 0.88109 0.0
C213 C 0.0879 0.5947 0.87651 0.0
C214 C 0.1012 0.56735 0.8909 0.0
C215 C 0.07938 0.55436 0.90854 0.0
C216 C 0.0172 0.54853 0.92604 0.0
C217 C 0.98804 0.53155 0.91446 0.0
C218 C 0.02203 0.54259 0.94958 0.0
C219 C 0.05337 0.55897 0.9625 0.0
C220 C 0.06316 0.59571 0.95974 0.0
C221 C 0.09555 0.60948 0.96945 0.0
C222 C 0.11826 0.58707 0.98268 0.0
C223 C 0.10655 0.55137 0.98721 0.0
C224 C 0.07473 0.53731 0.97698 0.0
C225 C 0.94258 0.47807 0.96135 0.0
C226 C 0.95566 0.44958 0.97495 0.0
C227 C 0.93089 0.42629 0.98575 0.0
C228 C 0.89292 0.43132 0.98295 0.0
C229 C 0.87991 0.4601 0.96975 0.0
C230 C 0.9045 0.48345 0.95917 0.0
C231 C 0.9684 0.50183 0.94892 0.0
C232 C -0.00285 0.51952 0.96078 0.0
C233 C 0.96413 0.50774 0.9254 0.0
C234 C 0.93788 0.48678 0.91096 0.0
C235 C 0.94068 0.44869 0.90924 0.0
C236 C 0.92155 0.42963 0.89218 0.0
C237 C 0.89941 0.44843 0.8766 0.0
C238 C 0.89478 0.48623 0.87932 0.0
C239 C 0.91388 0.50524 0.89634 0.0
H240 H 0.50134 0.55334 0.23209 0.0
H241 H 0.48083 0.61174 0.24756 0.0
H242 H 0.37673 0.59883 0.21258 0.0
H243 H 0.3962 0.53891 0.19857 0.0
H244 H 0.48742 0.48606 0.23246 0.0
H245 H 0.48299 0.57625 0.17398 0.0
H246 H 0.46462 0.61854 0.14416 0.0
H247 H 0.38945 0.53768 0.11682 0.0
H248 H 0.40677 0.49613 0.14713 0.0
H249 H 0.47296 0.39886 0.14907 0.0
H250 H 0.50889 0.3682 0.11942 0.0
H251 H 0.60909 0.4102 0.1495 0.0
H252 H 0.57318 0.44118 0.17902 0.0
H253 H 0.47701 0.47226 0.14881 0.0
H254 H 0.48687 0.38133 0.20687 0.0
H255 H 0.52459 0.335 0.2252 0.0
H256 H 0.6013 0.41813 0.24762 0.0
H257 H 0.56309 0.46474 0.22928 0.0
C258 C 0.45073 0.5421 0.21362 0.0
C259 C 0.47373 0.56253 0.22819 0.0
C260 C 0.46218 0.59619 0.23677 0.0
C261 C 0.42772 0.6104 0.23058 0.0
C262 C 0.40361 0.58874 0.21743 0.0
C263 C 0.41489 0.55468 0.20921 0.0
C264 C 0.46545 0.5094 0.2017 0.0
C265 C 0.48499 0.48315 0.21416 0.0
C266 C 0.46213 0.50498 0.17783 0.0
C267 C 0.44619 0.53304 0.16279 0.0
C268 C 0.46168 0.56809 0.16202 0.0
C269 C 0.45151 0.59205 0.14481 0.0
C270 C 0.42616 0.58108 0.12792 0.0
C271 C 0.40901 0.54689 0.12961 0.0
C272 C 0.41898 0.52309 0.14686 0.0
C273 C 0.52036 0.42237 0.16622 0.0
C274 C 0.50273 0.40037 0.14978 0.0
C275 C 0.5232 0.38297 0.13286 0.0
C276 C 0.56156 0.38738 0.13214 0.0
C277 C 0.57952 0.40636 0.14983 0.0
C278 C 0.55901 0.42392 0.16673 0.0
C279 C 0.49867 0.44932 0.17945 0.0
C280 C 0.47817 0.47467 0.1672 0.0
C281 C 0.50176 0.4533 0.20325 0.0
C282 C 0.52227 0.42634 0.21674 0.0
C283 C 0.5114 0.38968 0.21612 0.0
C284 C 0.53282 0.36333 0.2267 0.0
C285 C 0.56559 0.37316 0.23799 0.0
C286 C 0.57599 0.41002 0.23914 0.0
C287 C 0.5542 0.43654 0.22877 0.0
H288 H 0.50394 0.90239 0.40892 0.0
H289 H 0.46165 0.87175 0.38233 0.0
H290 H 0.38298 0.95858 0.39179 0.0
H291 H 0.4253 0.98893 0.4187 0.0
H292 H 0.52238 0.98098 0.39578 0.0
H293 H 0.48556 0.90471 0.45912 0.0
H294 H 0.43354 0.87643 0.47855 0.0
H295 H 0.38933 0.98327 0.4935 0.0
H296 H 0.44189 0.01129 0.4746 0.0
H297 H 0.54653 0.07762 0.47279 0.0
H298 H 0.59791 0.1099 0.49188 0.0
H299 H 0.6733 0.02845 0.46657 0.0
H300 H 0.62243 -0.00329 0.44735 0.0
H301 H 0.52262 0.00449 0.47891 0.0
H302 H 0.5704 0.08022 0.4206 0.0
H303 H 0.6064 0.10834 0.39058 0.0
H304 H 0.62304 0.00222 0.3596 0.0
H305 H 0.59026 0.97412 0.39065 0.0
C306 C 0.46756 0.94775 0.41571 0.0
C307 C 0.47704 0.91411 0.40587 0.0
C308 C 0.45285 0.89661 0.3908 0.0
C309 C 0.41913 0.91286 0.38514 0.0
C310 C 0.40879 0.94553 0.39603 0.0
C311 C 0.43281 0.96277 0.41137 0.0
C312 C 0.49606 0.9698 0.42739 0.0
C313 C 0.52318 0.98563 0.41402 0.0
C314 C 0.4956 0.97678 0.45094 0.0
C315 C 0.46727 0.96002 0.46534 0.0
C316 C 0.46491 0.92196 0.46694 0.0
C317 C 0.43512 0.90587 0.47788 0.0
C318 C 0.40709 0.92764 0.48719 0.0
C319 C 0.41061 0.96581 0.48657 0.0
C320 C 0.44054 0.98187 0.47577 0.0
C321 C 0.58084 0.03493 0.45862 0.0
C322 C 0.57418 0.06687 0.47135 0.0
C323 C 0.60335 0.08527 0.48213 0.0
C324 C 0.63921 0.07137 0.48066 0.0
C325 C 0.64573 0.03945 0.46796 0.0
C326 C 0.61681 0.02144 0.45696 0.0
C327 C 0.55039 0.01497 0.44728 0.0
C328 C 0.52254 -0.00033 0.4607 0.0
C329 C 0.55052 0.00812 0.42357 0.0
C330 C 0.57737 0.02498 0.40789 0.0
C331 C 0.58297 0.06288 0.40782 0.0
C332 C 0.60292 0.07903 0.39034 0.0
C333 C 0.61665 0.05769 0.37225 0.0
C334 C 0.61291 0.01959 0.37319 0.0
C335 C 0.59383 0.00345 0.39089 0.0
H336 H 0.01231 0.08108 0.73686 0.0
H337 H 0.98033 0.13541 0.75031 0.0
H338 H 0.87658 0.08877 0.72825 0.0
H339 H 0.90922 0.03475 0.71395 0.0
H340 H 0.00822 0.00485 0.74313 0.0
H341 H 0.98453 0.09633 0.68402 0.0
H342 H 0.95472 0.13192 0.65404 0.0
H343 H 0.90014 0.03471 0.62918 0.0
H344 H 0.92945 -0.00068 0.6592 0.0
H345 H 0.02472 0.90449 0.6775 0.0
H346 H 0.06128 0.87272 0.64834 0.0
H347 H 0.1317 0.96711 0.64327 0.0
H348 H 0.09505 -0.00134 0.67217 0.0
H349 H 0.00636 0.99584 0.65897 0.0
H350 H 0.00901 0.91814 0.7354 0.0
H351 H 0.04812 0.86942 0.74965 0.0
H352 H 0.14474 0.9339 0.73532 0.0
H353 H 0.10517 0.98219 0.7203 0.0
C354 C 0.96313 0.05423 0.72422 0.0
C355 C 0.98259 0.0822 0.73539 0.0
C356 C 0.96423 0.11321 0.74309 0.0
C357 C 0.92601 0.11661 0.73997 0.0
C358 C 0.90617 0.08727 0.73034 0.0
C359 C 0.92467 0.05634 0.72236 0.0
C360 C 0.98387 0.02538 0.71228 0.0
C361 C 0.00758 0.00283 0.72474 0.0
C362 C 0.98267 0.02212 0.68834 0.0
C363 C 0.95915 0.04519 0.67381 0.0
C364 C 0.9651 0.08297 0.67264 0.0
C365 C 0.94818 0.10324 0.65553 0.0
C366 C 0.92556 0.08581 0.63932 0.0
C367 C 0.91767 0.04858 0.64149 0.0
C368 C 0.93436 0.02843 0.65859 0.0
C369 C 0.0573 0.95381 0.67681 0.0
C370 C 0.04882 0.91772 0.67064 0.0
C371 C 0.06976 0.89962 0.65411 0.0
C372 C 0.09914 0.91763 0.64359 0.0
C373 C 0.10915 0.95274 0.65115 0.0
C374 C 0.08832 0.97072 0.66762 0.0
C375 C 0.03084 0.9762 0.68971 0.0
C376 C 0.00624 -0.00247 0.67739 0.0
C377 C 0.03104 0.97824 0.71358 0.0
C378 C 0.05435 0.95345 0.72676 0.0
C379 C 0.03857 0.92215 0.73593 0.0
C380 C 0.06097 0.89441 0.74409 0.0
C381 C 0.09951 0.89766 0.74326 0.0
C382 C 0.11515 0.9304 0.73572 0.0
C383 C 0.09266 0.95805 0.72735 0.0
C384 C 0.40114 0.65108 0.04114 0.0
O385 O 0.42799 0.6577 0.02811 0.0
Cd386 Cd 0.42305 0.67736 0.98956 0.0
O387 O 0.36816 0.65484 0.03403 0.0
Cd388 Cd 0.33679 0.67357 0.99837 0.0
C389 C 0.37611 0.75699 0.99827 0.0
O390 O 0.37656 0.64043 0.97254 0.0
O391 O 0.33844 0.67688 0.95641 0.0
O392 O 0.2925 0.62542 0.00416 0.0
C393 C 0.36282 0.65243 0.95433 0.0
O394 O 0.40478 0.74087 0.99099 0.0
C395 C 0.26409 0.64507 0.00188 0.0
O396 O 0.34789 0.73904 0.0044 0.0
O397 O 0.26933 0.67903 -0.00066 0.0
C398 C 0.3909 0.87002 0.21405 0.0
O399 O 0.41885 0.87144 0.22705 0.0
Cd400 Cd 0.41875 0.84813 0.26461 0.0
O401 O 0.36047 0.85733 0.2212 0.0
Cd402 Cd 0.3337 0.83314 0.25693 0.0
C403 C 0.38886 0.76061 0.2518 0.0
O404 O 0.36624 0.87362 0.28307 0.0
O405 O 0.33956 0.82764 0.2984 0.0
O406 O 0.28439 0.87322 0.24644 0.0
C407 C 0.35673 0.8575 0.30101 0.0
O408 O 0.41411 0.78269 0.25807 0.0
C409 C 0.25818 0.85264 0.25236 0.0
O410 O 0.35582 0.77139 0.24914 0.0
O411 O 0.2669 0.82124 0.2595 0.0
C412 C 0.15796 0.91908 0.47489 0.0
O413 O 0.16243 0.94242 0.49078 0.0
Cd414 Cd 0.18082 0.92983 0.52879 0.0
O415 O 0.16224 0.88515 0.47865 0.0
Cd416 Cd 0.17727 0.84566 0.51182 0.0
C417 C 0.26127 0.88573 0.51491 0.0
O418 O 0.14266 0.88051 0.53914 0.0
O419 O 0.17728 0.83975 0.55399 0.0
O420 O 0.12967 0.80566 0.49676 0.0
C421 C 0.15299 0.86412 0.55679 0.0
O422 O 0.24499 0.91252 0.52443 0.0
C423 C 0.14685 0.77611 0.50006 0.0
O424 O 0.24317 0.85822 0.50749 0.0
O425 O 0.17948 0.7789 0.50781 0.0
C426 C 0.14354 0.62035 0.78583 0.0
O427 O 0.14297 0.59333 0.77213 0.0
Cd428 Cd 0.15951 0.59747 0.73291 0.0
O429 O 0.15294 0.65175 0.77893 0.0
Cd430 Cd 0.17322 0.67942 0.74281 0.0
C431 C 0.24791 0.62511 0.74126 0.0
O432 O 0.12743 0.64963 0.71859 0.0
O433 O 0.16977 0.6789 0.70099 0.0
O434 O 0.1405 0.73198 0.75766 0.0
C435 C 0.13922 0.66224 0.70006 0.0
O436 O 0.22662 0.6003 0.7335 0.0
C437 C 0.16329 0.75535 0.7505 0.0
O438 O 0.23523 0.65605 0.74718 0.0
O439 O 0.19182 0.74327 0.7406 0.0
C440 C 0.88265 0.128 0.46874 0.0
O441 O 0.88415 0.09982 0.48102 0.0
Cd442 Cd 0.86685 0.09688 0.52005 0.0
O443 O 0.87223 0.15846 0.47711 0.0
Cd444 Cd 0.85164 0.18425 0.51426 0.0
C445 C 0.77773 0.12773 0.51292 0.0
O446 O 0.89266 0.14946 0.53751 0.0
O447 O 0.85146 0.17865 0.55636 0.0
O448 O 0.89221 0.23514 0.50773 0.0
C449 C 0.87936 0.15791 0.55666 0.0
O450 O 0.8004 0.10269 0.51805 0.0
C451 C 0.86804 0.25982 0.5099 0.0
O452 O 0.78884 0.16007 0.5091 0.0
O453 O 0.83525 0.24942 0.51369 0.0
C454 C 0.89323 0.36923 0.70621 0.0
O455 O 0.92105 0.36689 0.71925 0.0
Cd456 Cd 0.91684 0.35096 0.75857 0.0
O457 O 0.86119 0.36241 0.71373 0.0
Cd458 Cd 0.83324 0.34359 0.75004 0.0
C459 C 0.88076 0.2657 0.75292 0.0
O460 O 0.86754 0.38609 0.77429 0.0
O461 O 0.83621 0.3455 0.79187 0.0
O462 O 0.78295 0.38218 0.7384 0.0
C463 C 0.8552 0.37446 0.79292 0.0
O464 O 0.90722 0.28539 0.76027 0.0
C465 C 0.75745 0.36061 0.74416 0.0
O466 O 0.85105 0.28 0.74585 0.0
O467 O 0.76727 0.32995 0.75189 0.0
C468 C 0.66013 0.3955 0.96559 0.0
O469 O 0.66573 0.42189 0.97933 0.0
Cd470 Cd 0.6764 0.41423 0.01921 0.0
O471 O 0.6616 0.36267 0.97228 0.0
Cd472 Cd 0.67634 0.33076 0.00812 0.0
C473 C 0.75905 0.37234 0.01384 0.0
O474 O 0.63527 0.36754 0.03115 0.0
O475 O 0.67006 0.3312 0.04995 0.0
O476 O 0.63279 0.28722 0.99258 0.0
C477 C 0.64311 0.35311 0.04996 0.0
O478 O 0.74105 0.3991 0.02202 0.0
C479 C 0.64977 0.25889 0.99882 0.0
O480 O 0.74241 0.34459 0.00552 0.0
O481 O 0.68074 0.26381 0.00856 0.0
C482 C 0.66619 0.10743 0.28453 0.0
O483 O 0.67345 0.08184 0.27057 0.0
Cd484 Cd 0.68602 0.0922 0.23128 0.0
O485 O 0.66656 0.14052 0.27829 0.0
Cd486 Cd 0.68108 0.17401 0.24312 0.0
C487 C 0.76628 0.13708 0.24006 0.0
O488 O 0.64216 0.13652 0.21865 0.0
O489 O 0.67672 0.17473 0.20121 0.0
O490 O 0.63543 0.21577 0.25798 0.0
C491 C 0.64998 0.1525 0.20036 0.0
O492 O 0.7505 0.10949 0.23102 0.0
C493 C 0.65209 0.24477 0.25261 0.0
O494 O 0.7474 0.16386 0.24745 0.0
O495 O 0.68364 0.24098 0.24366 0.0
C496 C 0.18111 0.92071 0.24901 0.0
C497 C 0.15617 0.9079 0.2652 0.0
C498 C 0.21254 0.90075 0.24335 0.0
C499 C 0.22034 0.86733 0.2538 0.0
H500 H 0.17738 0.94739 0.24166 0.0
H501 H 0.23203 0.91279 0.23177 0.0
S502 S 0.16083 0.81975 0.29503 0.0
N503 N 0.13893 0.85817 0.2898 0.0
N504 N 0.19818 0.82034 0.27917 0.0
C505 C 0.19387 0.85267 0.2685 0.0
C506 C 0.16172 0.8731 0.27423 0.0
C507 C 0.12076 0.67854 0.51255 0.0
C508 C 0.08443 0.67643 0.50428 0.0
C509 C 0.14207 0.71002 0.50954 0.0
C510 C 0.1277 0.74046 0.49821 0.0
H511 H 0.13194 0.65675 0.52272 0.0
H512 H 0.16903 0.71131 0.51746 0.0
S513 S 0.03657 0.74545 0.46957 0.0
N514 N 0.03694 0.70499 0.48151 0.0
N515 N 0.07677 0.76421 0.47583 0.0
C516 C 0.09256 0.73731 0.48816 0.0
C517 C 0.07095 0.70529 0.49124 0.0
C518 C 0.33868 0.57467 0.74003 0.0
C519 C 0.35788 0.5901 0.7586 0.0
C520 C 0.30377 0.58736 0.73381 0.0
C521 C 0.2869 0.61615 0.74582 0.0
H522 H 0.3503 0.55193 0.73061 0.0
H523 H 0.28948 0.57385 0.71986 0.0
S524 S 0.32588 0.66615 0.79565 0.0
N525 N 0.3576 0.63583 0.78888 0.0
N526 N 0.29248 0.66037 0.77683 0.0
C527 C 0.30649 0.63286 0.76383 0.0
C528 C 0.34186 0.61967 0.77032 0.0
C529 C 0.37242 0.84932 0.02718 0.0
C530 C 0.39368 0.87094 0.01262 0.0
C531 C 0.36434 0.81287 0.02165 0.0
C532 C 0.37764 0.79684 0.00152 0.0
H533 H 0.36385 0.8599 0.04358 0.0
H534 H 0.34975 0.79654 0.03389 0.0
S535 S 0.42824 0.84355 0.95577 0.0
N536 N 0.42278 0.8752 0.97565 0.0
N537 N 0.40871 0.80635 0.96565 0.0
C538 C 0.39652 0.81884 0.9861 0.0
C539 C 0.40426 0.856 0.99155 0.0
C540 C 0.16014 0.63596 0.99842 0.0
C541 C 0.15528 0.60011 0.99008 0.0
C542 C 0.19537 0.65004 0.00302 0.0
C543 C 0.227 0.62862 -0.00026 0.0
H544 H 0.13657 0.65355 0.00099 0.0
H545 H 0.19788 0.67809 0.00877 0.0
S546 S 0.2295 0.53324 0.97797 0.0
N547 N 0.1854 0.54379 0.97835 0.0
N548 N 0.25124 0.56965 0.98787 0.0
C549 C 0.22249 0.59237 0.99213 0.0
C550 C 0.18674 0.57826 0.98709 0.0
C551 C 0.38312 0.65767 0.24481 0.0
C552 C 0.41816 0.64871 0.23632 0.0
C553 C 0.37358 0.69398 0.2497 0.0
C554 C 0.39889 0.72246 0.24647 0.0
H555 H 0.36303 0.63645 0.24781 0.0
H556 H 0.34641 0.69973 0.25632 0.0
S557 S 0.49271 0.71388 0.22234 0.0
N558 N 0.47702 0.6717 0.2231 0.0
N559 N 0.45957 0.73956 0.23292 0.0
C560 C 0.43379 0.7139 0.23769 0.0
C561 C 0.4433 0.67713 0.23246 0.0
C562 C 0.35776 0.92415 0.51651 0.0
C563 C 0.37283 0.91112 0.49604 0.0
C564 C 0.32249 0.91367 0.52331 0.0
C565 C 0.30097 0.88961 0.50996 0.0
H566 H 0.37279 0.94373 0.52692 0.0
H567 H 0.31138 0.92575 0.53869 0.0
S568 S 0.32869 0.84597 0.4555 0.0
N569 N 0.36427 0.87158 0.46294 0.0
N570 N 0.29823 0.85128 0.47597 0.0
C571 C 0.31662 0.87454 0.49017 0.0
C572 C 0.35249 0.88547 0.48313 0.0
C573 C 0.1148 0.8428 0.76618 0.0
C574 C 0.12253 0.86514 0.74756 0.0
C575 C 0.13018 0.80799 0.76785 0.0
C576 C 0.15422 0.79449 0.75113 0.0
H577 H 0.09523 0.85156 0.77893 0.0
H578 H 0.1219 0.7909 0.7818 0.0
S579 S 0.18503 0.8429 0.69969 0.0
N580 N 0.15697 0.87177 0.71251 0.0
N581 N 0.18685 0.80683 0.71612 0.0
C582 C 0.16425 0.81747 0.73328 0.0
C583 C 0.14816 0.85273 0.73138 0.0
C584 C 0.65991 0.37069 0.76503 0.0
C585 C 0.65056 0.40549 0.75726 0.0
C586 C 0.69354 0.35464 0.75906 0.0
C587 C 0.7188 0.37303 0.74519 0.0
H588 H 0.64243 0.357 0.7771 0.0
H589 H 0.70084 0.32895 0.76672 0.0
S590 S 0.70314 0.46138 0.71674 0.0
N591 N 0.66606 0.45531 0.73234 0.0
N592 N 0.72923 0.42526 0.72094 0.0
C593 C 0.70793 0.40622 0.73554 0.0
C594 C 0.67379 0.42249 0.74167 0.0
C595 C 0.62345 0.16333 0.01572 0.0
C596 C 0.58799 0.15974 0.0063 0.0
C597 C 0.6449 0.19437 0.01165 0.0
C598 C 0.6315 0.22276 0.99804 0.0
H599 H 0.63358 0.14334 0.02759 0.0
H600 H 0.67097 0.19718 0.02051 0.0
S601 S 0.54327 0.22243 0.96588 0.0
N602 N 0.54259 0.18412 0.98027 0.0
N603 N 0.58282 0.24235 0.97235 0.0
C604 C 0.59751 0.21766 0.98682 0.0
C605 C 0.57571 0.18618 0.99106 0.0
C606 C 0.8636 0.10125 0.23933 0.0
C607 C 0.87833 0.11509 0.25983 0.0
C608 C 0.82816 0.11076 0.23212 0.0
C609 C 0.80619 0.13472 0.24502 0.0
H610 H 0.87896 0.08163 0.22928 0.0
H611 H 0.81726 0.09789 0.21684 0.0
S612 S 0.83312 0.18092 0.29905 0.0
N613 N 0.86908 0.15569 0.29228 0.0
N614 N 0.80282 0.17431 0.27841 0.0
C615 C 0.82161 0.15088 0.26469 0.0
C616 C 0.8576 0.14086 0.27218 0.0
C617 C 0.92621 0.34484 0.5166 0.0
C618 C 0.90097 0.37335 0.5133 0.0
C619 C 0.91538 0.30836 0.5147 0.0
C620 C 0.8787 0.29875 0.50976 0.0
H621 H 0.9544 0.35062 0.52157 0.0
H622 H 0.93576 0.28754 0.51798 0.0
S623 S 0.80259 0.36267 0.49709 0.0
N624 N 0.83827 0.38935 0.50266 0.0
N625 N 0.81757 0.3205 0.49994 0.0
C626 C 0.85331 0.3268 0.5057 0.0
C627 C 0.8645 0.36413 0.50728 0.0
C628 C 0.68346 0.1232 0.48512 0.0
C629 C 0.67032 0.08935 0.49247 0.0
C630 C 0.71726 0.13706 0.49311 0.0
C631 C 0.73885 0.11734 0.50864 0.0
H632 H 0.66864 0.13794 0.47214 0.0
H633 H 0.72753 0.16214 0.48599 0.0
S634 S 0.71266 0.03039 0.53588 0.0
N635 N 0.67861 0.03875 0.51804 0.0
N636 N 0.7418 0.06466 0.53335 0.0
C637 C 0.72426 0.08488 0.51743 0.0
C638 C 0.69007 0.07087 0.50923 0.0
C639 C 0.91761 0.17177 0.76471 0.0
C640 C 0.90819 0.15217 0.74482 0.0
C641 C 0.9071 0.20816 0.76769 0.0
C642 C 0.8862 0.22603 0.75109 0.0
H643 H 0.93455 0.15934 0.77767 0.0
H644 H 0.91631 0.22275 0.7828 0.0
S645 S 0.85306 0.18669 0.6964 0.0
N646 N 0.87599 0.15325 0.70846 0.0
N647 N 0.85496 0.22128 0.71459 0.0
C648 C 0.87469 0.20624 0.73175 0.0
C649 C 0.88596 0.16934 0.72849 0.0
C650 C 0.84672 0.38147 0.98102 0.0
C651 C 0.86592 0.40766 0.99405 0.0
C652 C 0.81377 0.36637 0.98888 0.0
C653 C 0.79873 0.37776 0.00977 0.0
H654 H 0.85577 0.37473 0.96397 0.0
H655 H 0.79829 0.34851 0.97755 0.0
S656 S 0.84198 0.4413 0.05156 0.0
N657 N 0.87056 0.44077 0.02983 0.0
N658 N 0.80828 0.41291 0.04462 0.0
C659 C 0.81962 0.40136 0.02379 0.0
C660 C 0.85333 0.41631 0.01588 0.0
C661 C 0.62624 0.34143 0.2378 0.0
C662 C 0.5903 0.34424 0.24636 0.0
C663 C 0.6474 0.3101 0.2414 0.0
C664 C 0.63329 0.28054 0.25367 0.0
H665 H 0.63713 0.36248 0.22698 0.0
H666 H 0.67401 0.30816 0.23327 0.0
S667 S 0.54331 0.27793 0.28326 0.0
N668 N 0.54349 0.31751 0.27024 0.0
N669 N 0.58313 0.25861 0.27718 0.0
C670 C 0.59862 0.28456 0.264 0.0
C671 C 0.57712 0.31639 0.26026 0.0
C672 C 0.14242 0.91977 0.41082 0.0
C673 C 0.12979 0.95539 0.40702 0.0
C674 C 0.1514 0.90814 0.4328 0.0
C675 C 0.14794 0.93167 0.45178 0.0
H676 H 0.14548 0.90083 0.3967 0.0
H677 H 0.16131 0.88055 0.43488 0.0
S678 S 0.11279 0.02673 0.45096 0.0
N679 N 0.11197 0.01331 0.42412 0.0
N680 N 0.12913 0.99186 0.46522 0.0
C681 C 0.13481 0.96724 0.44814 0.0
C682 C 0.12567 0.97898 0.42584 0.0
C683 C 0.06505 0.63041 0.65889 0.0
C684 C 0.07773 0.64239 0.63775 0.0
C685 C 0.08507 0.63724 0.67883 0.0
C686 C 0.11862 0.65643 0.6785 0.0
H687 H 0.03987 0.61466 0.65998 0.0
H688 H 0.07423 0.62693 0.6946 0.0
S689 S 0.16255 0.69582 0.62752 0.0
N690 N 0.12493 0.67572 0.61762 0.0
N691 N 0.1628 0.68888 0.65519 0.0
C692 C 0.13125 0.66937 0.65749 0.0
C693 C 0.1108 0.66221 0.6371 0.0
C694 C 0.42769 0.61341 0.91046 0.0
C695 C 0.40774 0.61617 0.89005 0.0
C696 C 0.4128 0.62532 0.93105 0.0
C697 C 0.37751 0.64088 0.93204 0.0
H698 H 0.45483 0.60121 0.91059 0.0
H699 H 0.42921 0.62232 0.94633 0.0
S700 S 0.31424 0.65468 0.88322 0.0
N701 N 0.35107 0.63555 0.87186 0.0
N702 N 0.32299 0.65871 0.91071 0.0
C703 C 0.35736 0.64428 0.91169 0.0
C704 C 0.37245 0.63161 0.89066 0.0
C705 C 0.43334 0.9048 0.15979 0.0
C706 C 0.40268 0.91533 0.1468 0.0
C707 C 0.42908 0.88954 0.18125 0.0
C708 C 0.39397 0.88392 0.19058 0.0
H709 H 0.46098 0.90968 0.1537 0.0
H710 H 0.45368 0.88263 0.19073 0.0
S711 S 0.30467 0.90454 0.16257 0.0
N712 N 0.336 0.91746 0.1441 0.0
N713 N 0.32775 0.88856 0.18452 0.0
C714 C 0.36295 0.89312 0.17738 0.0
C715 C 0.36736 0.90896 0.15552 0.0
C716 C 0.11517 0.57329 0.84002 0.0
C717 C 0.10663 0.60242 0.85479 0.0
C718 C 0.12779 0.57947 0.818 0.0
C719 C 0.13258 0.61506 0.80984 0.0
H720 H 0.11057 0.54542 0.84517 0.0
H721 H 0.13312 0.55601 0.80716 0.0
S722 S 0.11709 0.70076 0.84272 0.0
N723 N 0.106 0.66807 0.86044 0.0
N724 N 0.12985 0.67997 0.819 0.0
C725 C 0.12559 0.6445 0.82482 0.0
C726 C 0.11251 0.63812 0.84727 0.0
C727 C 0.38445 0.60905 0.09892 0.0
C728 C 0.42025 0.60316 0.10726 0.0
C729 C 0.37851 0.62573 0.07793 0.0
C730 C 0.40816 0.63695 0.06434 0.0
H731 H 0.36084 0.59997 0.10849 0.0
H732 H 0.3504 0.62886 0.07206 0.0
S733 S 0.50746 0.62867 0.07901 0.0
N734 N 0.4858 0.61048 0.10066 0.0
N735 N 0.47486 0.64228 0.06145 0.0
C736 C 0.44415 0.63229 0.07292 0.0
C737 C 0.45013 0.61532 0.0943 0.0
C738 C 0.39305 0.92181 0.34658 0.0
C739 C 0.39813 0.89897 0.36529 0.0
C740 C 0.37874 0.90822 0.32606 0.0
C741 C 0.36854 0.87138 0.32358 0.0
H742 H 0.4018 0.95005 0.34746 0.0
H743 H 0.37635 0.92662 0.31189 0.0
S744 S 0.37364 0.80115 0.36828 0.0
N745 N 0.39014 0.83844 0.38065 0.0
N746 N 0.36246 0.81276 0.34213 0.0
C747 C 0.37184 0.84863 0.34255 0.0
C748 C 0.38693 0.86244 0.36338 0.0
C749 C 0.11246 0.92446 0.60266 0.0
C750 C 0.11484 0.9031 0.62223 0.0
C751 C 0.12497 0.91145 0.58172 0.0
C752 C 0.14076 0.87663 0.5795 0.0
H753 H 0.10008 0.9513 0.60344 0.0
H754 H 0.12222 0.92899 0.56715 0.0
S755 S 0.15382 0.81012 0.6258 0.0
N756 N 0.13418 0.84559 0.63833 0.0
N757 N 0.15842 0.821 0.5988 0.0
C758 C 0.14377 0.85503 0.59901 0.0
C759 C 0.13052 0.86824 0.6204 0.0
C760 C 0.65641 0.44193 0.90869 0.0
C761 C 0.62517 0.42607 0.8982 0.0
C762 C 0.66824 0.43114 0.93025 0.0
C763 C 0.65 0.40334 0.94188 0.0
H764 H 0.67118 0.46374 0.90049 0.0
H765 H 0.69149 0.44507 0.93805 0.0
S766 S 0.56799 0.35173 0.92201 0.0
N767 N 0.57654 0.38056 0.90139 0.0
N768 N 0.60041 0.35898 0.94129 0.0
C769 C 0.62012 0.38576 0.93122 0.0
C770 C 0.60736 0.39737 0.90951 0.0
C771 C 0.5726 0.11996 0.16183 0.0
C772 C 0.58362 0.13126 0.14021 0.0
C773 C 0.59439 0.12694 0.18103 0.0
C774 C 0.62802 0.1458 0.17944 0.0
H775 H 0.54727 0.10474 0.16388 0.0
H776 H 0.58469 0.11737 0.19726 0.0
S777 S 0.66862 0.18232 0.12665 0.0
N778 N 0.62983 0.16279 0.11817 0.0
N779 N 0.67092 0.17644 0.15439 0.0
C780 C 0.63915 0.15783 0.15792 0.0
C781 C 0.61697 0.15035 0.13827 0.0
C782 C 0.90892 0.0857 0.41208 0.0
C783 C 0.91874 0.11587 0.39894 0.0
C784 C 0.8966 0.09011 0.43438 0.0
C785 C 0.89339 0.12492 0.4445 0.0
H786 H 0.91228 0.05825 0.40543 0.0
H787 H 0.89019 0.06584 0.44387 0.0
S788 S 0.91289 0.21301 0.41656 0.0
N789 N 0.92246 0.18184 0.397 0.0
N790 N 0.89912 0.19039 0.43906 0.0
C791 C 0.9017 0.15551 0.43122 0.0
C792 C 0.91451 0.15092 0.40845 0.0
C793 C 0.93954 0.40399 0.65307 0.0
C794 C 0.90977 0.41505 0.63949 0.0
C795 C 0.93384 0.38797 0.67421 0.0
C796 C 0.89809 0.38224 0.68261 0.0
H797 H 0.96756 0.40935 0.64783 0.0
H798 H 0.95778 0.38109 0.68431 0.0
S799 S 0.81076 0.40255 0.65215 0.0
N800 N 0.84336 0.41636 0.63481 0.0
N801 N 0.83232 0.38623 0.67457 0.0
C802 C 0.868 0.39139 0.66857 0.0
C803 C 0.87392 0.40786 0.64705 0.0
C804 C 0.6623 0.05809 0.34046 0.0
C805 C 0.63213 0.07451 0.35148 0.0
C806 C 0.67372 0.06951 0.31902 0.0
C807 C 0.65604 0.09839 0.30801 0.0
H808 H 0.6766 0.03548 0.34816 0.0
H809 H 0.69628 0.05529 0.31086 0.0
S810 S 0.5766 0.15154 0.32949 0.0
N811 N 0.58498 0.12156 0.34953 0.0
N812 N 0.60795 0.14415 0.30978 0.0
C813 C 0.62712 0.11633 0.3192 0.0
C814 C 0.61484 0.10417 0.34082 0.0
C815 C 0.89115 0.13525 0.61922 0.0
C816 C 0.91447 0.10479 0.61841 0.0
C817 C 0.87996 0.1525 0.59915 0.0
C818 C 0.89228 0.14016 0.57773 0.0
H819 H 0.88106 0.14538 0.63538 0.0
H820 H 0.86153 0.17559 0.60045 0.0
S821 S 0.95565 0.06245 0.56706 0.0
N822 N 0.95065 0.06376 0.59489 0.0
N823 N 0.93026 0.09609 0.55729 0.0
C824 C 0.91639 0.11015 0.57692 0.0
C825 C 0.92732 0.09249 0.59725 0.0
C826 C 0.8937 0.44444 0.83452 0.0
C827 C 0.88544 0.42976 0.85583 0.0
C828 C 0.8835 0.42641 0.8144 0.0
C829 C 0.86447 0.393 0.81473 0.0
H830 H 0.90907 0.46968 0.83337 0.0
H831 H 0.89096 0.43874 0.79845 0.0
S832 S 0.83459 0.34403 0.86629 0.0
N833 N 0.85602 0.38067 0.87623 0.0
N834 N 0.8366 0.34654 0.83833 0.0
C835 C 0.85532 0.37833 0.83597 0.0
C836 C 0.86594 0.39672 0.85652 0.0
C837 C 0.61194 0.35402 0.11161 0.0
C838 C 0.58176 0.37785 0.11119 0.0
C839 C 0.63169 0.34602 0.09171 0.0
C840 C 0.62219 0.36205 0.07085 0.0
H841 H 0.62015 0.34137 0.12736 0.0
H842 H 0.65457 0.32722 0.09273 0.0
S843 S 0.54667 0.42851 0.06154 0.0
N844 N 0.54423 0.41868 0.08874 0.0
N845 N 0.58113 0.40406 0.05145 0.0
C846 C 0.5923 0.38645 0.07045 0.0
C847 C 0.57216 0.39426 0.0906 0.0
loop_
_geom_bond_atom_site_label_1
_geom_bond_atom_site_label_2
_geom_bond_distance
_geom_bond_site_symmetry_2
_ccdc_geom_bond_type
H0 C19 0.949 . S
H1 C20 0.950 . S
H2 C22 0.950 . S
H3 C23 0.950 . S
H4 C25 0.950 . S
H5 C28 0.950 . S
H6 C29 0.950 . S
H7 C31 0.951 . S
H8 C32 0.949 . S
H9 C34 0.949 . S
H10 C35 0.950 . S
H11 C37 0.950 . S
H12 C38 0.950 . S
H13 C40 0.952 . S
H14 C43 0.950 . S
H15 C44 0.950 . S
H16 C46 0.951 . S
H17 C47 0.949 1_545 S
C18 C19 1.376 . S
C18 C23 1.386 . S
C18 C24 1.483 . S
C19 H0 0.949 . S
C19 C18 1.376 . S
C19 C20 1.397 . S
C20 H1 0.950 . S
C20 C19 1.397 . S
C20 C21 1.391 . S
C21 C20 1.391 . S
C21 C22 1.405 . S
C22 H2 0.950 . S
C22 C21 1.405 . S
C22 C23 1.367 . S
C23 H3 0.950 . S
C23 C18 1.386 . S
C23 C22 1.367 . S
C24 C18 1.483 . S
C24 C25 1.382 1_655 S
C24 C26 1.403 . S
C25 H4 0.950 . S
C25 C24 1.382 1_455 S
C25 C41 1.411 1_545 S
C26 C24 1.403 . S
C26 C27 1.489 . S
C26 C40 1.411 1_655 S
C27 C26 1.489 . S
C27 C28 1.383 . S
C27 C32 1.382 . S
C28 H5 0.950 . S
C28 C27 1.383 . S
C28 C29 1.395 . S
C29 H6 0.950 . S
C29 C28 1.395 . S
C29 C30 1.288 . S
C30 C29 1.288 . S
C30 C31 1.392 . S
C31 H7 0.951 . S
C31 C30 1.392 . S
C31 C32 1.392 . S
C32 H8 0.949 . S
C32 C27 1.382 . S
C32 C31 1.392 . S
C33 C34 1.376 . S
C33 C38 1.386 . S
C33 C39 1.483 . S
C34 H9 0.949 . S
C34 C33 1.376 . S
C34 C35 1.397 . S
C35 H10 0.950 . S
C35 C34 1.397 . S
C35 C36 1.391 . S
C36 C35 1.391 . S
C36 C37 1.405 . S
C37 H11 0.950 . S
C37 C36 1.405 . S
C37 C38 1.367 . S
C38 H12 0.950 . S
C38 C33 1.386 . S
C38 C37 1.367 . S
C39 C33 1.483 . S
C39 C40 1.382 1_565 S
C39 C41 1.403 . S
C40 H13 0.952 . S
C40 C26 1.411 1_455 S
C40 C39 1.382 1_545 S
C41 C25 1.411 1_565 S
C41 C39 1.403 . S
C41 C42 1.489 . S
C42 C41 1.489 . S
C42 C43 1.383 . S
C42 C47 1.382 . S
C43 H14 0.950 . S
C43 C42 1.383 . S
C43 C44 1.395 . S
C44 H15 0.950 . S
C44 C43 1.395 . S
C44 C45 1.288 . S
C45 C44 1.288 . S
C45 C46 1.392 . S
C46 H16 0.951 . S
C46 C45 1.392 . S
C46 C47 1.392 . S
C47 H17 0.949 1_565 S
C47 C42 1.382 . S
C47 C46 1.392 . S
H48 C67 0.949 1_455 S
H49 C68 0.950 . S
H50 C70 0.950 . S
H51 C71 0.950 . S
H52 C73 0.950 . S
H53 C76 0.950 . S
H54 C77 0.950 . S
H55 C79 0.951 . S
H56 C80 0.949 . S
H57 C82 0.949 . S
H58 C83 0.950 . S
H59 C85 0.950 . S
H60 C86 0.950 . S
H61 C88 0.950 . S
H62 C91 0.950 . S
H63 C92 0.950 . S
H64 C94 0.951 . S
H65 C95 0.949 . S
C66 C67 1.376 . S
C66 C71 1.386 . S
C66 C72 1.483 . S
C67 H48 0.949 1_655 S
C67 C66 1.376 . S
C67 C68 1.397 . S
C68 H49 0.950 . S
C68 C67 1.397 . S
C68 C69 1.391 . S
C69 C68 1.391 . S
C69 C70 1.405 . S
C70 H50 0.950 . S
C70 C69 1.405 . S
C70 C71 1.367 . S
C71 H51 0.950 . S
C71 C66 1.386 . S
C71 C70 1.367 . S
C72 C66 1.483 . S
C72 C73 1.382 1_655 S
C72 C74 1.403 . S
C73 H52 0.950 . S
C73 C72 1.382 1_455 S
C73 C89 1.411 . S
C74 C72 1.403 . S
C74 C75 1.489 . S
C74 C88 1.411 1_655 S
C75 C74 1.489 . S
C75 C76 1.383 . S
C75 C80 1.382 . S
C76 H53 0.950 . S
C76 C75 1.383 . S
C76 C77 1.395 . S
C77 H54 0.950 . S
C77 C76 1.395 . S
C77 C78 1.288 . S
C78 C77 1.288 . S
C78 C79 1.392 . S
C79 H55 0.951 . S
C79 C78 1.392 . S
C79 C80 1.392 . S
C80 H56 0.949 . S
C80 C75 1.382 . S
C80 C79 1.392 . S
C81 C82 1.376 . S
C81 C86 1.386 . S
C81 C87 1.483 . S
C82 H57 0.949 . S
C82 C81 1.376 . S
C82 C83 1.397 . S
C83 H58 0.950 . S
C83 C82 1.397 . S
C83 C84 1.391 . S
C84 C83 1.391 . S
C84 C85 1.405 . S
C85 H59 0.950 . S
C85 C84 1.405 . S
C85 C86 1.367 . S
C86 H60 0.950 . S
C86 C81 1.386 . S
C86 C85 1.367 . S
C87 C81 1.483 . S
C87 C88 1.382 . S
C87 C89 1.403 . S
C88 H61 0.950 . S
C88 C74 1.411 1_455 S
C88 C87 1.382 . S
C89 C73 1.411 . S
C89 C87 1.403 . S
C89 C90 1.489 . S
C90 C89 1.489 . S
C90 C91 1.383 . S
C90 C95 1.382 . S
C91 H62 0.950 . S
C91 C90 1.383 . S
C91 C92 1.395 . S
C92 H63 0.950 . S
C92 C91 1.395 . S
C92 C93 1.288 . S
C93 C92 1.288 . S
C93 C94 1.392 . S
C94 H64 0.951 . S
C94 C93 1.392 . S
C94 C95 1.392 . S
C95 H65 0.949 . S
C95 C90 1.382 . S
C95 C94 1.392 . S
H96 C115 0.949 . S
H97 C116 0.950 . S
H98 C118 0.950 . S
H99 C119 0.950 . S
H100 C121 0.950 . S
H101 C124 0.950 . S
H102 C125 0.950 . S
H103 C127 0.951 . S
H104 C128 0.949 . S
H105 C130 0.949 . S
H106 C131 0.950 . S
H107 C133 0.950 . S
H108 C134 0.950 . S
H109 C136 0.950 . S
H110 C139 0.950 . S
H111 C140 0.950 . S
H112 C142 0.951 . S
H113 C143 0.949 . S
C114 C115 1.376 . S
C114 C119 1.386 . S
C114 C120 1.483 . S
C115 H96 0.949 . S
C115 C114 1.376 . S
C115 C116 1.397 . S
C116 H97 0.950 . S
C116 C115 1.397 . S
C116 C117 1.391 . S
C117 C116 1.391 . S
C117 C118 1.405 . S
C118 H98 0.950 . S
C118 C117 1.405 . S
C118 C119 1.367 . S
C119 H99 0.950 . S
C119 C114 1.386 . S
C119 C118 1.367 . S
C120 C114 1.483 . S
C120 C121 1.382 . S
C120 C122 1.403 . S
C121 H100 0.950 . S
C121 C120 1.382 . S
C121 C137 1.411 . S
C122 C120 1.403 . S
C122 C123 1.489 . S
C122 C136 1.411 . S
C123 C122 1.489 . S
C123 C124 1.383 . S
C123 C128 1.382 . S
C124 H101 0.950 . S
C124 C123 1.383 . S
C124 C125 1.395 . S
C125 H102 0.950 . S
C125 C124 1.395 . S
C125 C126 1.288 . S
C126 C125 1.288 . S
C126 C127 1.392 . S
C127 H103 0.951 . S
C127 C126 1.392 . S
C127 C128 1.392 . S
C128 H104 0.949 . S
C128 C123 1.382 . S
C128 C127 1.392 . S
C129 C130 1.376 . S
C129 C134 1.386 . S
C129 C135 1.483 . S
C130 H105 0.949 . S
C130 C129 1.376 . S
C130 C131 1.397 . S
C131 H106 0.950 . S
C131 C130 1.397 . S
C131 C132 1.391 . S
C132 C131 1.391 . S
C132 C133 1.405 . S
C133 H107 0.950 . S
C133 C132 1.405 . S
C133 C134 1.367 . S
C134 H108 0.950 . S
C134 C129 1.386 . S
C134 C133 1.367 . S
C135 C129 1.483 . S
C135 C136 1.382 . S
C135 C137 1.403 . S
C136 H109 0.950 . S
C136 C122 1.411 . S
C136 C135 1.382 . S
C137 C121 1.411 . S
C137 C135 1.403 . S
C137 C138 1.489 . S
C138 C137 1.489 . S
C138 C139 1.383 . S
C138 C143 1.382 . S
C139 H110 0.950 . S
C139 C138 1.383 . S
C139 C140 1.395 . S
C140 H111 0.950 . S
C140 C139 1.395 . S
C140 C141 1.288 . S
C141 C140 1.288 . S
C141 C142 1.392 . S
C142 H112 0.951 . S
C142 C141 1.392 . S
C142 C143 1.392 . S
C143 H113 0.949 . S
C143 C138 1.382 . S
C143 C142 1.392 . S
H144 C163 0.949 . S
H145 C164 0.950 . S
H146 C166 0.950 . S
H147 C167 0.950 . S
H148 C169 0.950 . S
H149 C172 0.950 . S
H150 C173 0.950 . S
H151 C175 0.951 . S
H152 C176 0.949 . S
H153 C178 0.949 . S
H154 C179 0.950 . S
H155 C181 0.950 . S
H156 C182 0.950 . S
H157 C184 0.950 . S
H158 C187 0.950 . S
H159 C188 0.950 . S
H160 C190 0.951 . S
H161 C191 0.949 . S
C162 C163 1.376 . S
C162 C167 1.386 . S
C162 C168 1.483 . S
C163 H144 0.949 . S
C163 C162 1.376 . S
C163 C164 1.397 . S
C164 H145 0.950 . S
C164 C163 1.397 . S
C164 C165 1.391 . S
C165 C164 1.391 . S
C165 C166 1.405 . S
C166 H146 0.950 . S
C166 C165 1.405 . S
C166 C167 1.367 . S
C167 H147 0.950 . S
C167 C162 1.386 . S
C167 C166 1.367 . S
C168 C162 1.483 . S
C168 C169 1.382 . S
C168 C170 1.403 . S
C169 H148 0.950 . S
C169 C168 1.382 . S
C169 C185 1.411 1_565 S
C170 C168 1.403 . S
C170 C171 1.489 . S
C170 C184 1.411 1_565 S
C171 C170 1.489 . S
C171 C172 1.383 . S
C171 C176 1.382 . S
C172 H149 0.950 . S
C172 C171 1.383 . S
C172 C173 1.395 . S
C173 H150 0.950 . S
C173 C172 1.395 . S
C173 C174 1.288 . S
C174 C173 1.288 . S
C174 C175 1.392 . S
C175 H151 0.951 . S
C175 C174 1.392 . S
C175 C176 1.392 . S
C176 H152 0.949 . S
C176 C171 1.382 . S
C176 C175 1.392 . S
C177 C178 1.376 . S
C177 C182 1.386 . S
C177 C183 1.483 . S
C178 H153 0.949 . S
C178 C177 1.376 . S
C178 C179 1.397 . S
C179 H154 0.950 . S
C179 C178 1.397 . S
C179 C180 1.391 . S
C180 C179 1.391 . S
C180 C181 1.405 . S
C181 H155 0.950 . S
C181 C180 1.405 . S
C181 C182 1.367 . S
C182 H156 0.950 . S
C182 C177 1.386 . S
C182 C181 1.367 . S
C183 C177 1.483 . S
C183 C184 1.382 . S
C183 C185 1.403 . S
C184 H157 0.950 . S
C184 C170 1.411 1_545 S
C184 C183 1.382 . S
C185 C169 1.411 1_545 S
C185 C183 1.403 . S
C185 C186 1.489 . S
C186 C185 1.489 . S
C186 C187 1.383 . S
C186 C191 1.382 . S
C187 H158 0.950 . S
C187 C186 1.383 . S
C187 C188 1.395 . S
C188 H159 0.950 . S
C188 C187 1.395 . S
C188 C189 1.288 . S
C189 C188 1.288 . S
C189 C190 1.392 . S
C190 H160 0.951 . S
C190 C189 1.392 . S
C190 C191 1.392 . S
C191 H161 0.949 . S
C191 C186 1.382 . S
C191 C190 1.392 . S
H192 C211 0.949 . S
H193 C212 0.950 . S
H194 C214 0.950 . S
H195 C215 0.950 . S
H196 C217 0.950 . S
H197 C220 0.950 . S
H198 C221 0.950 . S
H199 C223 0.951 . S
H200 C224 0.949 . S
H201 C226 0.949 . S
H202 C227 0.950 . S
H203 C229 0.950 . S
H204 C230 0.950 . S
H205 C232 0.950 . S
H206 C235 0.950 . S
H207 C236 0.950 . S
H208 C238 0.951 . S
H209 C239 0.949 . S
C210 C211 1.376 . S
C210 C215 1.386 . S
C210 C216 1.483 . S
C211 H192 0.949 . S
C211 C210 1.376 . S
C211 C212 1.397 . S
C212 H193 0.950 . S
C212 C211 1.397 . S
C212 C213 1.391 . S
C213 C212 1.391 . S
C213 C214 1.405 . S
C214 H194 0.950 . S
C214 C213 1.405 . S
C214 C215 1.367 . S
C215 H195 0.950 . S
C215 C210 1.386 . S
C215 C214 1.367 . S
C216 C210 1.483 . S
C216 C217 1.382 1_455 S
C216 C218 1.403 . S
C217 H196 0.950 . S
C217 C216 1.382 1_655 S
C217 C233 1.411 . S
C218 C216 1.403 . S
C218 C219 1.489 . S
C218 C232 1.411 . S
C219 C218 1.489 . S
C219 C220 1.383 . S
C219 C224 1.382 . S
C220 H197 0.950 . S
C220 C219 1.383 . S
C220 C221 1.395 . S
C221 H198 0.950 . S
C221 C220 1.395 . S
C221 C222 1.288 . S
C222 C221 1.288 . S
C222 C223 1.392 . S
C223 H199 0.951 . S
C223 C222 1.392 . S
C223 C224 1.392 . S
C224 H200 0.949 . S
C224 C219 1.382 . S
C224 C223 1.392 . S
C225 C226 1.376 . S
C225 C230 1.386 . S
C225 C231 1.483 . S
C226 H201 0.949 . S
C226 C225 1.376 . S
C226 C227 1.397 . S
C227 H202 0.950 . S
C227 C226 1.397 . S
C227 C228 1.391 . S
C228 C227 1.391 . S
C228 C229 1.405 . S
C229 H203 0.950 . S
C229 C228 1.405 . S
C229 C230 1.367 . S
C230 H204 0.950 . S
C230 C225 1.386 . S
C230 C229 1.367 . S
C231 C225 1.483 . S
C231 C232 1.382 1_655 S
C231 C233 1.403 . S
C232 H205 0.950 . S
C232 C218 1.411 . S
C232 C231 1.382 1_455 S
C233 C217 1.411 . S
C233 C231 1.403 . S
C233 C234 1.489 . S
C234 C233 1.489 . S
C234 C235 1.383 . S
C234 C239 1.382 . S
C235 H206 0.950 . S
C235 C234 1.383 . S
C235 C236 1.395 . S
C236 H207 0.950 . S
C236 C235 1.395 . S
C236 C237 1.288 . S
C237 C236 1.288 . S
C237 C238 1.392 . S
C238 H208 0.951 . S
C238 C237 1.392 . S
C238 C239 1.392 . S
C239 H209 0.949 . S
C239 C234 1.382 . S
C239 C238 1.392 . S
H240 C259 0.949 . S
H241 C260 0.950 . S
H242 C262 0.950 . S
H243 C263 0.950 . S
H244 C265 0.950 . S
H245 C268 0.950 . S
H246 C269 0.950 . S
H247 C271 0.951 . S
H248 C272 0.949 . S
H249 C274 0.949 . S
H250 C275 0.950 . S
H251 C277 0.950 . S
H252 C278 0.950 . S
H253 C280 0.950 . S
H254 C283 0.950 . S
H255 C284 0.950 . S
H256 C286 0.951 . S
H257 C287 0.949 . S
C258 C259 1.376 . S
C258 C263 1.386 . S
C258 C264 1.483 . S
C259 H240 0.949 . S
C259 C258 1.376 . S
C259 C260 1.397 . S
C260 H241 0.950 . S
C260 C259 1.397 . S
C260 C261 1.391 . S
C261 C260 1.391 . S
C261 C262 1.405 . S
C262 H242 0.950 . S
C262 C261 1.405 . S
C262 C263 1.367 . S
C263 H243 0.950 . S
C263 C258 1.386 . S
C263 C262 1.367 . S
C264 C258 1.483 . S
C264 C265 1.382 . S
C264 C266 1.403 . S
C265 H244 0.950 . S
C265 C264 1.382 . S
C265 C281 1.411 . S
C266 C264 1.403 . S
C266 C267 1.489 . S
C266 C280 1.411 . S
C267 C266 1.489 . S
C267 C268 1.383 . S
C267 C272 1.382 . S
C268 H245 0.950 . S
C268 C267 1.383 . S
C268 C269 1.395 . S
C269 H246 0.950 . S
C269 C268 1.395 . S
C269 C270 1.288 . S
C270 C269 1.288 . S
C270 C271 1.392 . S
C271 H247 0.951 . S
C271 C270 1.392 . S
C271 C272 1.392 . S
C272 H248 0.949 . S
C272 C267 1.382 . S
C272 C271 1.392 . S
C273 C274 1.376 . S
C273 C278 1.386 . S
C273 C279 1.483 . S
C274 H249 0.949 . S
C274 C273 1.376 . S
C274 C275 1.397 . S
C275 H250 0.950 . S
C275 C274 1.397 . S
C275 C276 1.391 . S
C276 C275 1.391 . S
C276 C277 1.405 . S
C277 H251 0.950 . S
C277 C276 1.405 . S
C277 C278 1.367 . S
C278 H252 0.950 . S
C278 C273 1.386 . S
C278 C277 1.367 . S
C279 C273 1.483 . S
C279 C280 1.382 . S
C279 C281 1.403 . S
C280 H253 0.950 . S
C280 C266 1.411 . S
C280 C279 1.382 . S
C281 C265 1.411 . S
C281 C279 1.403 . S
C281 C282 1.489 . S
C282 C281 1.489 . S
C282 C283 1.383 . S
C282 C287 1.382 . S
C283 H254 0.950 . S
C283 C282 1.383 . S
C283 C284 1.395 . S
C284 H255 0.950 . S
C284 C283 1.395 . S
C284 C285 1.288 . S
C285 C284 1.288 . S
C285 C286 1.392 . S
C286 H256 0.951 . S
C286 C285 1.392 . S
C286 C287 1.392 . S
C287 H257 0.949 . S
C287 C282 1.382 . S
C287 C286 1.392 . S
H288 C307 0.949 . S
H289 C308 0.950 . S
H290 C310 0.950 . S
H291 C311 0.950 . S
H292 C313 0.950 1_565 S
H293 C316 0.950 . S
H294 C317 0.950 . S
H295 C319 0.951 . S
H296 C320 0.949 1_545 S
H297 C322 0.949 . S
H298 C323 0.950 . S
H299 C325 0.950 . S
H300 C326 0.950 . S
H301 C328 0.950 . S
H302 C331 0.950 . S
H303 C332 0.950 . S
H304 C334 0.951 . S
H305 C335 0.949 . S
C306 C307 1.376 . S
C306 C311 1.386 . S
C306 C312 1.483 . S
C307 H288 0.949 . S
C307 C306 1.376 . S
C307 C308 1.397 . S
C308 H289 0.950 . S
C308 C307 1.397 . S
C308 C309 1.391 . S
C309 C308 1.391 . S
C309 C310 1.405 . S
C310 H290 0.950 . S
C310 C309 1.405 . S
C310 C311 1.367 . S
C311 H291 0.950 . S
C311 C306 1.386 . S
C311 C310 1.367 . S
C312 C306 1.483 . S
C312 C313 1.382 1_565 S
C312 C314 1.403 . S
C313 H292 0.950 1_545 S
C313 C312 1.382 1_545 S
C313 C329 1.411 . S
C314 C312 1.403 . S
C314 C315 1.489 . S
C314 C328 1.411 1_565 S
C315 C314 1.489 . S
C315 C316 1.383 . S
C315 C320 1.382 . S
C316 H293 0.950 . S
C316 C315 1.383 . S
C316 C317 1.395 . S
C317 H294 0.950 . S
C317 C316 1.395 . S
C317 C318 1.288 . S
C318 C317 1.288 . S
C318 C319 1.392 . S
C319 H295 0.951 . S
C319 C318 1.392 . S
C319 C320 1.392 . S
C320 H296 0.949 1_565 S
C320 C315 1.382 . S
C320 C319 1.392 . S
C321 C322 1.376 . S
C321 C326 1.386 . S
C321 C327 1.483 . S
C322 H297 0.949 . S
C322 C321 1.376 . S
C322 C323 1.397 . S
C323 H298 0.950 . S
C323 C322 1.397 . S
C323 C324 1.391 . S
C324 C323 1.391 . S
C324 C325 1.405 . S
C325 H299 0.950 . S
C325 C324 1.405 . S
C325 C326 1.367 . S
C326 H300 0.950 . S
C326 C321 1.386 . S
C326 C325 1.367 . S
C327 C321 1.483 . S
C327 C328 1.382 . S
C327 C329 1.403 . S
C328 H301 0.950 . S
C328 C314 1.411 1_545 S
C328 C327 1.382 . S
C329 C313 1.411 . S
C329 C327 1.403 . S
C329 C330 1.489 . S
C330 C329 1.489 . S
C330 C331 1.383 . S
C330 C335 1.382 . S
C331 H302 0.950 . S
C331 C330 1.383 . S
C331 C332 1.395 . S
C332 H303 0.950 . S
C332 C331 1.395 . S
C332 C333 1.288 . S
C333 C332 1.288 . S
C333 C334 1.392 . S
C334 H304 0.951 . S
C334 C333 1.392 . S
C334 C335 1.392 . S
C335 H305 0.949 . S
C335 C330 1.382 . S
C335 C334 1.392 . S
H336 C355 0.949 1_455 S
H337 C356 0.950 . S
H338 C358 0.950 . S
H339 C359 0.950 . S
H340 C361 0.950 . S
H341 C364 0.950 . S
H342 C365 0.950 . S
H343 C367 0.951 . S
H344 C368 0.949 . S
H345 C370 0.949 . S
H346 C371 0.950 . S
H347 C373 0.950 . S
H348 C374 0.950 . S
H349 C376 0.950 . S
H350 C379 0.950 . S
H351 C380 0.950 . S
H352 C382 0.951 . S
H353 C383 0.949 1_545 S
C354 C355 1.376 . S
C354 C359 1.386 . S
C354 C360 1.483 . S
C355 H336 0.949 1_655 S
C355 C354 1.376 . S
C355 C356 1.397 . S
C356 H337 0.950 . S
C356 C355 1.397 . S
C356 C357 1.391 . S
C357 C356 1.391 . S
C357 C358 1.405 . S
C358 H338 0.950 . S
C358 C357 1.405 . S
C358 C359 1.367 . S
C359 H339 0.950 . S
C359 C354 1.386 . S
C359 C358 1.367 . S
C360 C354 1.483 . S
C360 C361 1.382 1_655 S
C360 C362 1.403 . S
C361 H340 0.950 . S
C361 C360 1.382 1_455 S
C361 C377 1.411 . S
C362 C360 1.403 . S
C362 C363 1.489 . S
C362 C376 1.411 1_655 S
C363 C362 1.489 . S
C363 C364 1.383 . S
C363 C368 1.382 . S
C364 H341 0.950 . S
C364 C363 1.383 . S
C364 C365 1.395 . S
C365 H342 0.950 . S
C365 C364 1.395 . S
C365 C366 1.288 . S
C366 C365 1.288 . S
C366 C367 1.392 . S
C367 H343 0.951 . S
C367 C366 1.392 . S
C367 C368 1.392 . S
C368 H344 0.949 . S
C368 C363 1.382 . S
C368 C367 1.392 . S
C369 C370 1.376 . S
C369 C374 1.386 . S
C369 C375 1.483 . S
C370 H345 0.949 . S
C370 C369 1.376 . S
C370 C371 1.397 . S
C371 H346 0.950 . S
C371 C370 1.397 . S
C371 C372 1.391 . S
C372 C371 1.391 . S
C372 C373 1.405 . S
C373 H347 0.950 . S
C373 C372 1.405 . S
C373 C374 1.367 . S
C374 H348 0.950 . S
C374 C369 1.386 . S
C374 C373 1.367 . S
C375 C369 1.483 . S
C375 C376 1.382 1_565 S
C375 C377 1.403 1_565 S
C376 H349 0.950 . S
C376 C362 1.411 1_455 S
C376 C375 1.382 1_545 S
C377 C361 1.411 . S
C377 C375 1.403 1_545 S
C377 C378 1.489 1_545 S
C378 C377 1.489 1_565 S
C378 C379 1.383 . S
C378 C383 1.382 . S
C379 H350 0.950 . S
C379 C378 1.383 . S
C379 C380 1.395 . S
C380 H351 0.950 . S
C380 C379 1.395 . S
C380 C381 1.288 . S
C381 C380 1.288 . S
C381 C382 1.392 . S
C382 H352 0.951 . S
C382 C381 1.392 . S
C382 C383 1.392 . S
C383 H353 0.949 1_565 S
C383 C378 1.382 . S
C383 C382 1.392 . S
C384 O385 1.306 . S
C384 O387 1.160 . S
O385 C384 1.306 . S
O385 Cd386 2.228 . S
Cd386 O385 2.228 . S
Cd386 O390 2.273 1_554 S
Cd386 O394 2.277 . S
O387 C384 1.160 . S
O387 Cd388 2.203 . S
Cd388 O387 2.203 . S
Cd388 O390 2.411 1_554 S
Cd388 O391 2.333 1_554 S
Cd388 O392 2.351 1_554 S
Cd388 O396 2.277 . S
Cd388 O397 2.356 1_554 S
C389 O394 1.209 . S
C389 O396 1.226 . S
O390 Cd386 2.273 1_556 S
O390 Cd388 2.411 1_556 S
O390 C393 1.320 . S
O391 Cd388 2.333 1_556 S
O391 C393 1.214 . S
O392 Cd388 2.351 1_556 S
O392 C395 1.260 . S
C393 O390 1.320 . S
C393 O391 1.214 . S
O394 Cd386 2.277 . S
O394 C389 1.209 . S
C395 O392 1.260 . S
C395 O397 1.282 . S
O396 Cd388 2.277 . S
O396 C389 1.226 . S
O397 Cd388 2.356 1_556 S
O397 C395 1.282 . S
C398 O399 1.306 . S
C398 O401 1.160 . S
O399 C398 1.306 . S
O399 Cd400 2.228 . S
Cd400 O399 2.228 . S
Cd400 O404 2.273 . S
Cd400 O408 2.277 . S
O401 C398 1.160 . S
O401 Cd402 2.203 . S
Cd402 O401 2.203 . S
Cd402 O404 2.411 . S
Cd402 O405 2.333 . S
Cd402 O406 2.352 . S
Cd402 O410 2.277 . S
Cd402 O411 2.356 . S
C403 O408 1.209 . S
C403 O410 1.226 . S
O404 Cd400 2.273 . S
O404 Cd402 2.411 . S
O404 C407 1.320 . S
O405 Cd402 2.333 . S
O405 C407 1.214 . S
O406 Cd402 2.352 . S
O406 C409 1.258 . S
C407 O404 1.320 . S
C407 O405 1.214 . S
O408 Cd400 2.277 . S
O408 C403 1.209 . S
C409 O406 1.258 . S
C409 O411 1.282 . S
O410 Cd402 2.277 . S
O410 C403 1.226 . S
O411 Cd402 2.356 . S
O411 C409 1.282 . S
C412 O413 1.306 . S
C412 O415 1.160 . S
O413 C412 1.306 . S
O413 Cd414 2.228 . S
Cd414 O413 2.228 . S
Cd414 O418 2.273 . S
Cd414 O422 2.277 . S
O415 C412 1.160 . S
O415 Cd416 2.203 . S
Cd416 O415 2.203 . S
Cd416 O418 2.411 . S
Cd416 O419 2.333 . S
Cd416 O420 2.352 . S
Cd416 O424 2.277 . S
Cd416 O425 2.356 . S
C417 O422 1.209 . S
C417 O424 1.226 . S
O418 Cd414 2.273 . S
O418 Cd416 2.411 . S
O418 C421 1.320 . S
O419 Cd416 2.333 . S
O419 C421 1.214 . S
O420 Cd416 2.352 . S
O420 C423 1.258 . S
C421 O418 1.320 . S
C421 O419 1.214 . S
O422 Cd414 2.277 . S
O422 C417 1.209 . S
C423 O420 1.258 . S
C423 O425 1.282 . S
O424 Cd416 2.277 . S
O424 C417 1.226 . S
O425 Cd416 2.356 . S
O425 C423 1.282 . S
C426 O427 1.306 . S
C426 O429 1.160 . S
O427 C426 1.306 . S
O427 Cd428 2.228 . S
Cd428 O427 2.228 . S
Cd428 O432 2.273 . S
Cd428 O436 2.277 . S
O429 C426 1.160 . S
O429 Cd430 2.203 . S
Cd430 O429 2.203 . S
Cd430 O432 2.411 . S
Cd430 O433 2.333 . S
Cd430 O434 2.352 . S
Cd430 O438 2.277 . S
Cd430 O439 2.356 . S
C431 O436 1.209 . S
C431 O438 1.226 . S
O432 Cd428 2.273 . S
O432 Cd430 2.411 . S
O432 C435 1.320 . S
O433 Cd430 2.333 . S
O433 C435 1.214 . S
O434 Cd430 2.352 . S
O434 C437 1.258 . S
C435 O432 1.320 . S
C435 O433 1.214 . S
O436 Cd428 2.277 . S
O436 C431 1.209 . S
C437 O434 1.258 . S
C437 O439 1.282 . S
O438 Cd430 2.277 . S
O438 C431 1.226 . S
O439 Cd430 2.356 . S
O439 C437 1.282 . S
C440 O441 1.306 . S
C440 O443 1.160 . S
O441 C440 1.306 . S
O441 Cd442 2.228 . S
Cd442 O441 2.228 . S
Cd442 O446 2.273 . S
Cd442 O450 2.277 . S
O443 C440 1.160 . S
O443 Cd444 2.203 . S
Cd444 O443 2.203 . S
Cd444 O446 2.411 . S
Cd444 O447 2.333 . S
Cd444 O448 2.352 . S
Cd444 O452 2.277 . S
Cd444 O453 2.356 . S
C445 O450 1.209 . S
C445 O452 1.226 . S
O446 Cd442 2.273 . S
O446 Cd444 2.411 . S
O446 C449 1.320 . S
O447 Cd444 2.333 . S
O447 C449 1.214 . S
O448 Cd444 2.352 . S
O448 C451 1.258 . S
C449 O446 1.320 . S
C449 O447 1.214 . S
O450 Cd442 2.277 . S
O450 C445 1.209 . S
C451 O448 1.258 . S
C451 O453 1.282 . S
O452 Cd444 2.277 . S
O452 C445 1.226 . S
O453 Cd444 2.356 . S
O453 C451 1.282 . S
C454 O455 1.306 . S
C454 O457 1.160 . S
O455 C454 1.306 . S
O455 Cd456 2.228 . S
Cd456 O455 2.228 . S
Cd456 O460 2.273 . S
Cd456 O464 2.277 . S
O457 C454 1.160 . S
O457 Cd458 2.203 . S
Cd458 O457 2.203 . S
Cd458 O460 2.411 . S
Cd458 O461 2.333 . S
Cd458 O462 2.352 . S
Cd458 O466 2.277 . S
Cd458 O467 2.356 . S
C459 O464 1.209 . S
C459 O466 1.226 . S
O460 Cd456 2.273 . S
O460 Cd458 2.411 . S
O460 C463 1.320 . S
O461 Cd458 2.333 . S
O461 C463 1.214 . S
O462 Cd458 2.352 . S
O462 C465 1.258 . S
C463 O460 1.320 . S
C463 O461 1.214 . S
O464 Cd456 2.277 . S
O464 C459 1.209 . S
C465 O462 1.258 . S
C465 O467 1.282 . S
O466 Cd458 2.277 . S
O466 C459 1.226 . S
O467 Cd458 2.356 . S
O467 C465 1.282 . S
C468 O469 1.306 . S
C468 O471 1.160 . S
O469 C468 1.306 . S
O469 Cd470 2.228 . S
Cd470 O469 2.228 . S
Cd470 O474 2.273 1_556 S
Cd470 O478 2.277 . S
O471 C468 1.160 . S
O471 Cd472 2.203 1_556 S
Cd472 O471 2.203 1_554 S
Cd472 O474 2.411 . S
Cd472 O475 2.333 . S
Cd472 O476 2.352 . S
Cd472 O480 2.277 1_554 S
Cd472 O481 2.356 . S
C473 O478 1.209 . S
C473 O480 1.226 . S
O474 Cd470 2.273 1_554 S
O474 Cd472 2.411 . S
O474 C477 1.320 . S
O475 Cd472 2.333 . S
O475 C477 1.214 . S
O476 Cd472 2.352 . S
O476 C479 1.258 . S
C477 O474 1.320 . S
C477 O475 1.214 . S
O478 Cd470 2.277 . S
O478 C473 1.209 . S
C479 O476 1.258 . S
C479 O481 1.282 . S
O480 Cd472 2.277 1_556 S
O480 C473 1.226 . S
O481 Cd472 2.356 . S
O481 C479 1.282 . S
C482 O483 1.306 . S
C482 O485 1.160 . S
O483 C482 1.306 . S
O483 Cd484 2.228 . S
Cd484 O483 2.228 . S
Cd484 O488 2.273 . S
Cd484 O492 2.277 . S
O485 C482 1.160 . S
O485 Cd486 2.203 . S
Cd486 O485 2.203 . S
Cd486 O488 2.411 . S
Cd486 O489 2.333 . S
Cd486 O490 2.352 . S
Cd486 O494 2.277 . S
Cd486 O495 2.356 . S
C487 O492 1.209 . S
C487 O494 1.226 . S
O488 Cd484 2.273 . S
O488 Cd486 2.411 . S
O488 C491 1.320 . S
O489 Cd486 2.333 . S
O489 C491 1.214 . S
O490 Cd486 2.352 . S
O490 C493 1.258 . S
C491 O488 1.320 . S
C491 O489 1.214 . S
O492 Cd484 2.277 . S
O492 C487 1.209 . S
C493 O490 1.258 . S
C493 O495 1.282 . S
O494 Cd486 2.277 . S
O494 C487 1.226 . S
O495 Cd486 2.356 . S
O495 C493 1.282 . S
C496 C497 1.369 . S
C496 C498 1.419 . S
C496 H500 0.930 . S
C497 C496 1.369 . S
C497 C506 1.429 . S
C498 C496 1.419 . S
C498 C499 1.363 . S
C498 H501 0.929 . S
C499 C498 1.363 . S
C499 C505 1.428 . S
H500 C496 0.930 . S
H501 C498 0.929 . S
S502 N503 1.613 . S
S502 N504 1.610 . S
N503 S502 1.613 . S
N503 C506 1.350 . S
N504 S502 1.610 . S
N504 C505 1.351 . S
C505 C499 1.428 . S
C505 N504 1.351 . S
C505 C506 1.434 . S
C506 C497 1.429 . S
C506 N503 1.350 . S
C506 C505 1.434 . S
C507 C508 1.369 . S
C507 C509 1.419 . S
C507 H511 0.930 . S
C508 C507 1.369 . S
C508 C517 1.429 . S
C509 C507 1.419 . S
C509 C510 1.363 . S
C509 H512 0.929 . S
C510 C509 1.363 . S
C510 C516 1.428 . S
H511 C507 0.930 . S
H512 C509 0.929 . S
S513 N514 1.613 . S
S513 N515 1.610 . S
N514 S513 1.613 . S
N514 C517 1.350 . S
N515 S513 1.610 . S
N515 C516 1.351 . S
C516 C510 1.428 . S
C516 N515 1.351 . S
C516 C517 1.434 . S
C517 C508 1.429 . S
C517 N514 1.350 . S
C517 C516 1.434 . S
C518 C519 1.369 . S
C518 C520 1.419 . S
C518 H522 0.930 . S
C519 C518 1.369 . S
C519 C528 1.429 . S
C520 C518 1.419 . S
C520 C521 1.363 . S
C520 H523 0.929 . S
C521 C520 1.363 . S
C521 C527 1.428 . S
H522 C518 0.930 . S
H523 C520 0.929 . S
S524 N525 1.613 . S
S524 N526 1.610 . S
N525 S524 1.613 . S
N525 C528 1.350 . S
N526 S524 1.610 . S
N526 C527 1.351 . S
C527 C521 1.428 . S
C527 N526 1.351 . S
C527 C528 1.434 . S
C528 C519 1.429 . S
C528 N525 1.350 . S
C528 C527 1.434 . S
C529 C530 1.369 . S
C529 C531 1.419 . S
C529 H533 0.930 . S
C530 C529 1.369 . S
C530 C539 1.429 . S
C531 C529 1.419 . S
C531 C532 1.363 . S
C531 H534 0.929 . S
C532 C531 1.363 . S
C532 C538 1.428 . S
H533 C529 0.930 . S
H534 C531 0.929 . S
S535 N536 1.613 . S
S535 N537 1.610 . S
N536 S535 1.613 . S
N536 C539 1.350 1_556 S
N537 S535 1.610 . S
N537 C538 1.351 1_556 S
C538 C532 1.428 . S
C538 N537 1.351 1_554 S
C538 C539 1.434 . S
C539 C530 1.429 . S
C539 N536 1.350 1_554 S
C539 C538 1.434 . S
C540 C541 1.369 1_554 S
C540 C542 1.419 . S
C540 H544 0.930 . S
C541 C540 1.369 1_556 S
C541 C550 1.429 . S
C542 C540 1.419 . S
C542 C543 1.363 1_554 S
C542 H545 0.929 . S
C543 C542 1.363 1_556 S
C543 C549 1.428 . S
H544 C540 0.930 . S
H545 C542 0.929 . S
S546 N547 1.613 . S
S546 N548 1.610 . S
N547 S546 1.613 . S
N547 C550 1.350 . S
N548 S546 1.610 . S
N548 C549 1.351 . S
C549 C543 1.428 . S
C549 N548 1.351 . S
C549 C550 1.434 . S
C550 C541 1.429 . S
C550 N547 1.350 . S
C550 C549 1.434 . S
C551 C552 1.369 . S
C551 C553 1.419 . S
C551 H555 0.930 . S
C552 C551 1.369 . S
C552 C561 1.429 . S
C553 C551 1.419 . S
C553 C554 1.363 . S
C553 H556 0.929 . S
C554 C553 1.363 . S
C554 C560 1.428 . S
H555 C551 0.930 . S
H556 C553 0.929 . S
S557 N558 1.613 . S
S557 N559 1.610 . S
N558 S557 1.613 . S
N558 C561 1.350 . S
N559 S557 1.610 . S
N559 C560 1.351 . S
C560 C554 1.428 . S
C560 N559 1.351 . S
C560 C561 1.434 . S
C561 C552 1.429 . S
C561 N558 1.350 . S
C561 C560 1.434 . S
C562 C563 1.369 . S
C562 C564 1.419 . S
C562 H566 0.930 . S
C563 C562 1.369 . S
C563 C572 1.429 . S
C564 C562 1.419 . S
C564 C565 1.363 . S
C564 H567 0.929 . S
C565 C564 1.363 . S
C565 C571 1.428 . S
H566 C562 0.930 . S
H567 C564 0.929 . S
S568 N569 1.613 . S
S568 N570 1.610 . S
N569 S568 1.613 . S
N569 C572 1.350 . S
N570 S568 1.610 . S
N570 C571 1.351 . S
C571 C565 1.428 . S
C571 N570 1.351 . S
C571 C572 1.434 . S
C572 C563 1.429 . S
C572 N569 1.350 . S
C572 C571 1.434 . S
C573 C574 1.369 . S
C573 C575 1.419 . S
C573 H577 0.930 . S
C574 C573 1.369 . S
C574 C583 1.429 . S
C575 C573 1.419 . S
C575 C576 1.363 . S
C575 H578 0.929 . S
C576 C575 1.363 . S
C576 C582 1.428 . S
H577 C573 0.930 . S
H578 C575 0.929 . S
S579 N580 1.613 . S
S579 N581 1.610 . S
N580 S579 1.613 . S
N580 C583 1.350 . S
N581 S579 1.610 . S
N581 C582 1.351 . S
C582 C576 1.428 . S
C582 N581 1.351 . S
C582 C583 1.434 . S
C583 C574 1.429 . S
C583 N580 1.350 . S
C583 C582 1.434 . S
C584 C585 1.369 . S
C584 C586 1.419 . S
C584 H588 0.930 . S
C585 C584 1.369 . S
C585 C594 1.429 . S
C586 C584 1.419 . S
C586 C587 1.363 . S
C586 H589 0.929 . S
C587 C586 1.363 . S
C587 C593 1.428 . S
H588 C584 0.930 . S
H589 C586 0.929 . S
S590 N591 1.613 . S
S590 N592 1.610 . S
N591 S590 1.613 . S
N591 C594 1.350 . S
N592 S590 1.610 . S
N592 C593 1.351 . S
C593 C587 1.428 . S
C593 N592 1.351 . S
C593 C594 1.434 . S
C594 C585 1.429 . S
C594 N591 1.350 . S
C594 C593 1.434 . S
C595 C596 1.369 . S
C595 C597 1.419 . S
C595 H599 0.930 . S
C596 C595 1.369 . S
C596 C605 1.429 1_554 S
C597 C595 1.419 . S
C597 C598 1.363 . S
C597 H600 0.929 . S
C598 C597 1.363 . S
C598 C604 1.428 1_554 S
H599 C595 0.930 . S
H600 C597 0.929 . S
S601 N602 1.613 . S
S601 N603 1.610 . S
N602 S601 1.613 . S
N602 C605 1.350 . S
N603 S601 1.610 . S
N603 C604 1.351 . S
C604 C598 1.428 1_556 S
C604 N603 1.351 . S
C604 C605 1.434 . S
C605 C596 1.429 1_556 S
C605 N602 1.350 . S
C605 C604 1.434 . S
C606 C607 1.369 . S
C606 C608 1.419 . S
C606 H610 0.930 . S
C607 C606 1.369 . S
C607 C616 1.429 . S
C608 C606 1.419 . S
C608 C609 1.363 . S
C608 H611 0.929 . S
C609 C608 1.363 . S
C609 C615 1.428 . S
H610 C606 0.930 . S
H611 C608 0.929 . S
S612 N613 1.613 . S
S612 N614 1.610 . S
N613 S612 1.613 . S
N613 C616 1.350 . S
N614 S612 1.610 . S
N614 C615 1.351 . S
C615 C609 1.428 . S
C615 N614 1.351 . S
C615 C616 1.434 . S
C616 C607 1.429 . S
C616 N613 1.350 . S
C616 C615 1.434 . S
C617 C618 1.369 . S
C617 C619 1.419 . S
C617 H621 0.930 . S
C618 C617 1.369 . S
C618 C627 1.429 . S
C619 C617 1.419 . S
C619 C620 1.363 . S
C619 H622 0.929 . S
C620 C619 1.363 . S
C620 C626 1.428 . S
H621 C617 0.930 . S
H622 C619 0.929 . S
S623 N624 1.613 . S
S623 N625 1.610 . S
N624 S623 1.613 . S
N624 C627 1.350 . S
N625 S623 1.610 . S
N625 C626 1.351 . S
C626 C620 1.428 . S
C626 N625 1.351 . S
C626 C627 1.434 . S
C627 C618 1.429 . S
C627 N624 1.350 . S
C627 C626 1.434 . S
C628 C629 1.369 . S
C628 C630 1.419 . S
C628 H632 0.930 . S
C629 C628 1.369 . S
C629 C638 1.429 . S
C630 C628 1.419 . S
C630 C631 1.363 . S
C630 H633 0.929 . S
C631 C630 1.363 . S
C631 C637 1.428 . S
H632 C628 0.930 . S
H633 C630 0.929 . S
S634 N635 1.613 . S
S634 N636 1.610 . S
N635 S634 1.613 . S
N635 C638 1.350 . S
N636 S634 1.610 . S
N636 C637 1.351 . S
C637 C631 1.428 . S
C637 N636 1.351 . S
C637 C638 1.434 . S
C638 C629 1.429 . S
C638 N635 1.350 . S
C638 C637 1.434 . S
C639 C640 1.369 . S
C639 C641 1.419 . S
C639 H643 0.930 . S
C640 C639 1.369 . S
C640 C649 1.429 . S
C641 C639 1.419 . S
C641 C642 1.363 . S
C641 H644 0.929 . S
C642 C641 1.363 . S
C642 C648 1.428 . S
H643 C639 0.930 . S
H644 C641 0.929 . S
S645 N646 1.613 . S
S645 N647 1.610 . S
N646 S645 1.613 . S
N646 C649 1.350 . S
N647 S645 1.610 . S
N647 C648 1.351 . S
C648 C642 1.428 . S
C648 N647 1.351 . S
C648 C649 1.434 . S
C649 C640 1.429 . S
C649 N646 1.350 . S
C649 C648 1.434 . S
C650 C651 1.369 . S
C650 C652 1.419 . S
C650 H654 0.930 . S
C651 C650 1.369 . S
C651 C660 1.429 1_556 S
C652 C650 1.419 . S
C652 C653 1.363 . S
C652 H655 0.929 . S
C653 C652 1.363 . S
C653 C659 1.428 1_556 S
H654 C650 0.930 . S
H655 C652 0.929 . S
S656 N657 1.613 . S
S656 N658 1.610 . S
N657 S656 1.613 . S
N657 C660 1.350 . S
N658 S656 1.610 . S
N658 C659 1.351 . S
C659 C653 1.428 1_554 S
C659 N658 1.351 . S
C659 C660 1.434 . S
C660 C651 1.429 1_554 S
C660 N657 1.350 . S
C660 C659 1.434 . S
C661 C662 1.369 . S
C661 C663 1.419 . S
C661 H665 0.930 . S
C662 C661 1.369 . S
C662 C671 1.429 . S
C663 C661 1.419 . S
C663 C664 1.363 . S
C663 H666 0.929 . S
C664 C663 1.363 . S
C664 C670 1.428 . S
H665 C661 0.930 . S
H666 C663 0.929 . S
S667 N668 1.613 . S
S667 N669 1.610 . S
N668 S667 1.613 . S
N668 C671 1.350 . S
N669 S667 1.610 . S
N669 C670 1.351 . S
C670 C664 1.428 . S
C670 N669 1.351 . S
C670 C671 1.434 . S
C671 C662 1.429 . S
C671 N668 1.350 . S
C671 C670 1.434 . S
C672 C673 1.369 . S
C672 C674 1.419 . S
C672 H676 0.930 . S
C673 C672 1.369 . S
C673 C682 1.429 . S
C674 C672 1.419 . S
C674 C675 1.363 . S
C674 H677 0.929 . S
C675 C674 1.363 . S
C675 C681 1.428 . S
H676 C672 0.930 . S
H677 C674 0.929 . S
S678 N679 1.613 . S
S678 N680 1.610 . S
N679 S678 1.613 . S
N679 C682 1.350 . S
N680 S678 1.610 . S
N680 C681 1.351 . S
C681 C675 1.428 . S
C681 N680 1.351 . S
C681 C682 1.434 . S
C682 C673 1.429 . S
C682 N679 1.350 . S
C682 C681 1.434 . S
C683 C684 1.369 . S
C683 C685 1.419 . S
C683 H687 0.930 . S
C684 C683 1.369 . S
C684 C693 1.429 . S
C685 C683 1.419 . S
C685 C686 1.363 . S
C685 H688 0.929 . S
C686 C685 1.363 . S
C686 C692 1.428 . S
H687 C683 0.930 . S
H688 C685 0.929 . S
S689 N690 1.613 . S
S689 N691 1.610 . S
N690 S689 1.613 . S
N690 C693 1.350 . S
N691 S689 1.610 . S
N691 C692 1.351 . S
C692 C686 1.428 . S
C692 N691 1.351 . S
C692 C693 1.434 . S
C693 C684 1.429 . S
C693 N690 1.350 . S
C693 C692 1.434 . S
C694 C695 1.369 . S
C694 C696 1.419 . S
C694 H698 0.930 . S
C695 C694 1.369 . S
C695 C704 1.429 . S
C696 C694 1.419 . S
C696 C697 1.363 . S
C696 H699 0.929 . S
C697 C696 1.363 . S
C697 C703 1.428 . S
H698 C694 0.930 . S
H699 C696 0.929 . S
S700 N701 1.613 . S
S700 N702 1.610 . S
N701 S700 1.613 . S
N701 C704 1.350 . S
N702 S700 1.610 . S
N702 C703 1.351 . S
C703 C697 1.428 . S
C703 N702 1.351 . S
C703 C704 1.434 . S
C704 C695 1.429 . S
C704 N701 1.350 . S
C704 C703 1.434 . S
C705 C706 1.369 . S
C705 C707 1.419 . S
C705 H709 0.930 . S
C706 C705 1.369 . S
C706 C715 1.429 . S
C707 C705 1.419 . S
C707 C708 1.363 . S
C707 H710 0.929 . S
C708 C707 1.363 . S
C708 C714 1.428 . S
H709 C705 0.930 . S
H710 C707 0.929 . S
S711 N712 1.613 . S
S711 N713 1.610 . S
N712 S711 1.613 . S
N712 C715 1.350 . S
N713 S711 1.610 . S
N713 C714 1.351 . S
C714 C708 1.428 . S
C714 N713 1.351 . S
C714 C715 1.434 . S
C715 C706 1.429 . S
C715 N712 1.350 . S
C715 C714 1.434 . S
C716 C717 1.369 . S
C716 C718 1.419 . S
C716 H720 0.930 . S
C717 C716 1.369 . S
C717 C726 1.429 . S
C718 C716 1.419 . S
C718 C719 1.363 . S
C718 H721 0.929 . S
C719 C718 1.363 . S
C719 C725 1.428 . S
H720 C716 0.930 . S
H721 C718 0.929 . S
S722 N723 1.613 . S
S722 N724 1.610 . S
N723 S722 1.613 . S
N723 C726 1.350 . S
N724 S722 1.610 . S
N724 C725 1.351 . S
C725 C719 1.428 . S
C725 N724 1.351 . S
C725 C726 1.434 . S
C726 C717 1.429 . S
C726 N723 1.350 . S
C726 C725 1.434 . S
C727 C728 1.369 . S
C727 C729 1.419 . S
C727 H731 0.930 . S
C728 C727 1.369 . S
C728 C737 1.429 . S
C729 C727 1.419 . S
C729 C730 1.363 . S
C729 H732 0.929 . S
C730 C729 1.363 . S
C730 C736 1.428 . S
H731 C727 0.930 . S
H732 C729 0.929 . S
S733 N734 1.613 . S
S733 N735 1.610 . S
N734 S733 1.613 . S
N734 C737 1.350 . S
N735 S733 1.610 . S
N735 C736 1.351 . S
C736 C730 1.428 . S
C736 N735 1.351 . S
C736 C737 1.434 . S
C737 C728 1.429 . S
C737 N734 1.350 . S
C737 C736 1.434 . S
C738 C739 1.369 . S
C738 C740 1.419 . S
C738 H742 0.930 . S
C739 C738 1.369 . S
C739 C748 1.429 . S
C740 C738 1.419 . S
C740 C741 1.363 . S
C740 H743 0.929 . S
C741 C740 1.363 . S
C741 C747 1.428 . S
H742 C738 0.930 . S
H743 C740 0.929 . S
S744 N745 1.613 . S
S744 N746 1.610 . S
N745 S744 1.613 . S
N745 C748 1.350 . S
N746 S744 1.610 . S
N746 C747 1.351 . S
C747 C741 1.428 . S
C747 N746 1.351 . S
C747 C748 1.434 . S
C748 C739 1.429 . S
C748 N745 1.350 . S
C748 C747 1.434 . S
C749 C750 1.369 . S
C749 C751 1.419 . S
C749 H753 0.930 . S
C750 C749 1.369 . S
C750 C759 1.429 . S
C751 C749 1.419 . S
C751 C752 1.363 . S
C751 H754 0.929 . S
C752 C751 1.363 . S
C752 C758 1.428 . S
H753 C749 0.930 . S
H754 C751 0.929 . S
S755 N756 1.613 . S
S755 N757 1.610 . S
N756 S755 1.613 . S
N756 C759 1.350 . S
N757 S755 1.610 . S
N757 C758 1.351 . S
C758 C752 1.428 . S
C758 N757 1.351 . S
C758 C759 1.434 . S
C759 C750 1.429 . S
C759 N756 1.350 . S
C759 C758 1.434 . S
C760 C761 1.369 . S
C760 C762 1.419 . S
C760 H764 0.930 . S
C761 C760 1.369 . S
C761 C770 1.429 . S
C762 C760 1.419 . S
C762 C763 1.363 . S
C762 H765 0.929 . S
C763 C762 1.363 . S
C763 C769 1.428 . S
H764 C760 0.930 . S
H765 C762 0.929 . S
S766 N767 1.613 . S
S766 N768 1.610 . S
N767 S766 1.613 . S
N767 C770 1.350 . S
N768 S766 1.610 . S
N768 C769 1.351 . S
C769 C763 1.428 . S
C769 N768 1.351 . S
C769 C770 1.434 . S
C770 C761 1.429 . S
C770 N767 1.350 . S
C770 C769 1.434 . S
C771 C772 1.369 . S
C771 C773 1.419 . S
C771 H775 0.930 . S
C772 C771 1.369 . S
C772 C781 1.429 . S
C773 C771 1.419 . S
C773 C774 1.363 . S
C773 H776 0.929 . S
C774 C773 1.363 . S
C774 C780 1.428 . S
H775 C771 0.930 . S
H776 C773 0.929 . S
S777 N778 1.613 . S
S777 N779 1.610 . S
N778 S777 1.613 . S
N778 C781 1.350 . S
N779 S777 1.610 . S
N779 C780 1.351 . S
C780 C774 1.428 . S
C780 N779 1.351 . S
C780 C781 1.434 . S
C781 C772 1.429 . S
C781 N778 1.350 . S
C781 C780 1.434 . S
C782 C783 1.369 . S
C782 C784 1.419 . S
C782 H786 0.930 . S
C783 C782 1.369 . S
C783 C792 1.429 . S
C784 C782 1.419 . S
C784 C785 1.363 . S
C784 H787 0.929 . S
C785 C784 1.363 . S
C785 C791 1.428 . S
H786 C782 0.930 . S
H787 C784 0.929 . S
S788 N789 1.613 . S
S788 N790 1.610 . S
N789 S788 1.613 . S
N789 C792 1.350 . S
N790 S788 1.610 . S
N790 C791 1.351 . S
C791 C785 1.428 . S
C791 N790 1.351 . S
C791 C792 1.434 . S
C792 C783 1.429 . S
C792 N789 1.350 . S
C792 C791 1.434 . S
C793 C794 1.369 . S
C793 C795 1.419 . S
C793 H797 0.930 . S
C794 C793 1.369 . S
C794 C803 1.429 . S
C795 C793 1.419 . S
C795 C796 1.363 . S
C795 H798 0.929 . S
C796 C795 1.363 . S
C796 C802 1.428 . S
H797 C793 0.930 . S
H798 C795 0.929 . S
S799 N800 1.613 . S
S799 N801 1.610 . S
N800 S799 1.613 . S
N800 C803 1.350 . S
N801 S799 1.610 . S
N801 C802 1.351 . S
C802 C796 1.428 . S
C802 N801 1.351 . S
C802 C803 1.434 . S
C803 C794 1.429 . S
C803 N800 1.350 . S
C803 C802 1.434 . S
C804 C805 1.369 . S
C804 C806 1.419 . S
C804 H808 0.930 . S
C805 C804 1.369 . S
C805 C814 1.429 . S
C806 C804 1.419 . S
C806 C807 1.363 . S
C806 H809 0.929 . S
C807 C806 1.363 . S
C807 C813 1.428 . S
H808 C804 0.930 . S
H809 C806 0.929 . S
S810 N811 1.613 . S
S810 N812 1.610 . S
N811 S810 1.613 . S
N811 C814 1.350 . S
N812 S810 1.610 . S
N812 C813 1.351 . S
C813 C807 1.428 . S
C813 N812 1.351 . S
C813 C814 1.434 . S
C814 C805 1.429 . S
C814 N811 1.350 . S
C814 C813 1.434 . S
C815 C816 1.369 . S
C815 C817 1.419 . S
C815 H819 0.930 . S
C816 C815 1.369 . S
C816 C825 1.429 . S
C817 C815 1.419 . S
C817 C818 1.363 . S
C817 H820 0.929 . S
C818 C817 1.363 . S
C818 C824 1.428 . S
H819 C815 0.930 . S
H820 C817 0.929 . S
S821 N822 1.613 . S
S821 N823 1.610 . S
N822 S821 1.613 . S
N822 C825 1.350 . S
N823 S821 1.610 . S
N823 C824 1.351 . S
C824 C818 1.428 . S
C824 N823 1.351 . S
C824 C825 1.434 . S
C825 C816 1.429 . S
C825 N822 1.350 . S
C825 C824 1.434 . S
C826 C827 1.369 . S
C826 C828 1.419 . S
C826 H830 0.930 . S
C827 C826 1.369 . S
C827 C836 1.429 . S
C828 C826 1.419 . S
C828 C829 1.363 . S
C828 H831 0.929 . S
C829 C828 1.363 . S
C829 C835 1.428 . S
H830 C826 0.930 . S
H831 C828 0.929 . S
S832 N833 1.613 . S
S832 N834 1.610 . S
N833 S832 1.613 . S
N833 C836 1.350 . S
N834 S832 1.610 . S
N834 C835 1.351 . S
C835 C829 1.428 . S
C835 N834 1.351 . S
C835 C836 1.434 . S
C836 C827 1.429 . S
C836 N833 1.350 . S
C836 C835 1.434 . S
C837 C838 1.369 . S
C837 C839 1.419 . S
C837 H841 0.930 . S
C838 C837 1.369 . S
C838 C847 1.429 . S
C839 C837 1.419 . S
C839 C840 1.363 . S
C839 H842 0.929 . S
C840 C839 1.363 . S
C840 C846 1.428 . S
H841 C837 0.930 . S
H842 C839 0.929 . S
S843 N844 1.613 . S
S843 N845 1.610 . S
N844 S843 1.613 . S
N844 C847 1.350 . S
N845 S843 1.610 . S
N845 C846 1.351 . S
C846 C840 1.428 . S
C846 N845 1.351 . S
C846 C847 1.434 . S
C847 C838 1.429 . S
C847 N844 1.350 . S
C847 C846 1.434 . S
C499 C409 1.473 . S
C497 C36 1.395 . S
C510 C423 1.458 . S
C508 C93 1.419 . S
C521 C431 1.480 . S
C519 C126 1.432 . S
C530 C165 1.401 . S
C532 C389 1.456 . S
C541 C222 1.380 . S
C543 C395 1.441 . S
C552 C261 1.378 . S
C554 C403 1.438 . S
C565 C417 1.527 . S
C563 C318 1.458 . S
C576 C437 1.488 . S
C574 C381 1.444 . S
C585 C132 1.385 . S
C587 C465 1.448 . S
C598 C479 1.516 . S
C596 C189 1.471 . S
C607 C30 1.393 . S
C609 C487 1.451 . S
C620 C451 1.411 . S
C618 C69 1.341 . S
C629 C324 1.423 . S
C631 C445 1.478 . S
C640 C357 1.412 . S
C642 C459 1.473 . S
C653 C473 1.472 . S
C651 C228 1.425 . S
C662 C285 1.464 . S
C664 C493 1.506 . S
C675 C412 1.690 . S
C673 C45 1.728 . S
C686 C435 1.733 . S
C684 C84 1.753 . S
C695 C117 1.754 . S
C697 C393 1.755 . S
C706 C174 1.716 . S
C708 C398 1.731 . S
C717 C213 1.722 . S
C719 C426 1.682 . S
C730 C384 1.700 . S
C728 C270 1.709 . S
C741 C407 1.738 . S
C739 C309 1.738 . S
C752 C421 1.730 . S
C750 C372 1.753 . S
C763 C468 1.682 . S
C761 C141 1.723 . S
C774 C491 1.722 . S
C772 C180 1.732 . S
C783 C21 1.719 . S
C785 C440 1.691 . S
C796 C454 1.677 . S
C794 C78 1.680 . S
C807 C482 1.727 . S
C805 C333 1.770 . S
C816 C366 1.735 . S
C818 C449 1.770 . S
C829 C463 1.759 . S
C827 C237 1.776 . S
C840 C477 1.742 . S
C838 C276 1.752 . S
