# Generated by pormake.
# Topology wbl, (4,4)-cn, num edge types: 1
# Building blocks:
#     Node 0, Type 0, BuildingBlock: MIFKUJ_clean_linker_1, # of connection points: 4
#     Node 1, Type 0, BuildingBlock: MIFKUJ_clean_linker_1, # of connection points: 4
#     Node 2, Type 0, BuildingBlock: MIFKUJ_clean_linker_1, # of connection points: 4
#     Node 3, Type 0, BuildingBlock: MIFKUJ_clean_linker_1, # of connection points: 4
#     Node 4, Type 0, BuildingBlock: MIFKUJ_clean_linker_1, # of connection points: 4
#     Node 5, Type 0, BuildingBlock: MIFKUJ_clean_linker_1, # of connection points: 4
#     Node 6, Type 0, BuildingBlock: MIFKUJ_clean_linker_1, # of connection points: 4
#     Node 7, Type 0, BuildingBlock: MIFKUJ_clean_linker_1, # of connection points: 4
#     Node 8, Type 1, BuildingBlock: QUQFOY_clean_sbu_1, # of connection points: 4
#     Node 9, Type 1, BuildingBlock: QUQFOY_clean_sbu_1, # of connection points: 4
#     Node 10, Type 1, BuildingBlock: QUQFOY_clean_sbu_1, # of connection points: 4
#     Node 11, Type 1, BuildingBlock: QUQFOY_clean_sbu_1, # of connection points: 4
#     Node 12, Type 1, BuildingBlock: QUQFOY_clean_sbu_1, # of connection points: 4
#     Node 13, Type 1, BuildingBlock: QUQFOY_clean_sbu_1, # of connection points: 4
#     Node 14, Type 1, BuildingBlock: QUQFOY_clean_sbu_1, # of connection points: 4
#     Node 15, Type 1, BuildingBlock: QUQFOY_clean_sbu_1, # of connection points: 4
#     Edge 16, Type (0, 1), BuildingBlock: XIVTED_clean_linker_0, # of connection points: 2
#     Edge 17, Type (0, 1), BuildingBlock: XIVTED_clean_linker_0, # of connection points: 2
#     Edge 18, Type (0, 1), BuildingBlock: XIVTED_clean_linker_0, # of connection points: 2
#     Edge 19, Type (0, 1), BuildingBlock: XIVTED_clean_linker_0, # of connection points: 2
#     Edge 20, Type (0, 1), BuildingBlock: XIVTED_clean_linker_0, # of connection points: 2
#     Edge 21, Type (0, 1), BuildingBlock: XIVTED_clean_linker_0, # of connection points: 2
#     Edge 22, Type (0, 1), BuildingBlock: XIVTED_clean_linker_0, # of connection points: 2
#     Edge 23, Type (0, 1), BuildingBlock: XIVTED_clean_linker_0, # of connection points: 2
#     Edge 24, Type (0, 1), BuildingBlock: XIVTED_clean_linker_0, # of connection points: 2
#     Edge 25, Type (0, 1), BuildingBlock: XIVTED_clean_linker_0, # of connection points: 2
#     Edge 26, Type (0, 1), BuildingBlock: XIVTED_clean_linker_0, # of connection points: 2
#     Edge 27, Type (0, 1), BuildingBlock: XIVTED_clean_linker_0, # of connection points: 2
#     Edge 28, Type (0, 1), BuildingBlock: XIVTED_clean_linker_0, # of connection points: 2
#     Edge 29, Type (0, 1), BuildingBlock: XIVTED_clean_linker_0, # of connection points: 2
#     Edge 30, Type (0, 1), BuildingBlock: XIVTED_clean_linker_0, # of connection points: 2
#     Edge 31, Type (0, 1), BuildingBlock: XIVTED_clean_linker_0, # of connection points: 2
#     Edge 32, Type (0, 1), BuildingBlock: XIVTED_clean_linker_0, # of connection points: 2
#     Edge 33, Type (0, 1), BuildingBlock: XIVTED_clean_linker_0, # of connection points: 2
#     Edge 34, Type (0, 1), BuildingBlock: XIVTED_clean_linker_0, # of connection points: 2
#     Edge 35, Type (0, 1), BuildingBlock: XIVTED_clean_linker_0, # of connection points: 2
#     Edge 36, Type (0, 1), BuildingBlock: XIVTED_clean_linker_0, # of connection points: 2
#     Edge 37, Type (0, 1), BuildingBlock: XIVTED_clean_linker_0, # of connection points: 2
#     Edge 38, Type (0, 1), BuildingBlock: XIVTED_clean_linker_0, # of connection points: 2
#     Edge 39, Type (0, 1), BuildingBlock: XIVTED_clean_linker_0, # of connection points: 2
#     Edge 40, Type (0, 1), BuildingBlock: XIVTED_clean_linker_0, # of connection points: 2
#     Edge 41, Type (0, 1), BuildingBlock: XIVTED_clean_linker_0, # of connection points: 2
#     Edge 42, Type (0, 1), BuildingBlock: XIVTED_clean_linker_0, # of connection points: 2
#     Edge 43, Type (0, 1), BuildingBlock: XIVTED_clean_linker_0, # of connection points: 2
#     Edge 44, Type (0, 1), BuildingBlock: XIVTED_clean_linker_0, # of connection points: 2
#     Edge 45, Type (0, 1), BuildingBlock: XIVTED_clean_linker_0, # of connection points: 2
#     Edge 46, Type (0, 1), BuildingBlock: XIVTED_clean_linker_0, # of connection points: 2
#     Edge 47, Type (0, 1), BuildingBlock: XIVTED_clean_linker_0, # of connection points: 2
# Relax obj value: 0.175
# Max RMSD: 0.210
# Mean RMSD: 0.159
data_MOF--net-wbl--node1-QUQFOY_clean_sbu_1--node2-MIFKUJ_clean_linker_1--edge1-XIVTED_clean_linker_0
_symmetry_space_group_name_H-M    P1
_symmetry_Int_Tables_number       1
_symmetry_cell_setting            triclinic
loop_
_symmetry_equiv_pos_as_xyz
'x, y, z'
_cell_length_a     45.965067
_cell_length_b     45.949986
_cell_length_c     76.765638
_cell_angle_alpha  93.455265
_cell_angle_beta   93.421488
_cell_angle_gamma 90.264179
loop_
_atom_site_label
_atom_site_type_symbol
_atom_site_fract_x
_atom_site_fract_y
_atom_site_fract_z
_atom_type_partial_charge
H0 H 0.1579 0.1759 0.38396 0.0
H1 H 0.1262 0.19959 0.40509 0.0
H2 H 0.0569 0.13906 0.38747 0.0
H3 H 0.08874 0.11519 0.36675 0.0
H4 H 0.17337 0.11712 0.38466 0.0
H5 H 0.12342 0.17908 0.3434 0.0
H6 H 0.07675 0.19811 0.33215 0.0
H7 H 0.05012 0.11102 0.31318 0.0
H8 H 0.09619 0.09205 0.32494 0.0
H9 H 0.15682 0.04158 0.32239 0.0
H10 H 0.18307 0.00381 0.3061 0.0
H11 H 0.26491 0.04417 0.3251 0.0
H12 H 0.23849 0.08236 0.34101 0.0
H13 H 0.15177 0.0976 0.32097 0.0
H14 H 0.18341 0.03395 0.36391 0.0
H15 H 0.20915 0.00564 0.38577 0.0
H16 H 0.25819 0.08257 0.40513 0.0
H17 H 0.23204 0.11088 0.3833 0.0
C18 C 0.12559 0.14398 0.37368 0.0
C19 C 0.13573 0.16806 0.38451 0.0
C20 C 0.11757 0.18166 0.39649 0.0
C21 C 0.08912 0.1711 0.39798 0.0
C22 C 0.0788 0.14751 0.38674 0.0
C23 C 0.09688 0.13403 0.37477 0.0
C24 C 0.14564 0.12742 0.3624 0.0
C25 C 0.16936 0.11361 0.37061 0.0
C26 C 0.13925 0.12167 0.34426 0.0
C27 C 0.11315 0.13408 0.33522 0.0
C28 C 0.1076 0.16416 0.33668 0.0
C29 C 0.08101 0.17503 0.33015 0.0
C30 C 0.05962 0.15599 0.322 0.0
C31 C 0.06595 0.12615 0.3197 0.0
C32 C 0.09243 0.11532 0.32624 0.0
C33 C 0.19568 0.06473 0.33301 0.0
C34 C 0.18042 0.04249 0.32289 0.0
C35 C 0.19544 0.02078 0.31369 0.0
C36 C 0.22607 0.02094 0.31434 0.0
C37 C 0.24131 0.04359 0.32418 0.0
C38 C 0.22626 0.06527 0.33342 0.0
C39 C 0.17952 0.08701 0.3433 0.0
C40 C 0.15663 0.10195 0.33489 0.0
C41 C 0.18577 0.09276 0.36146 0.0
C42 C 0.20586 0.07453 0.37194 0.0
C43 C 0.20041 0.04451 0.37245 0.0
C44 C 0.21515 0.02833 0.385 0.0
C45 C 0.23547 0.04193 0.39734 0.0
C46 C 0.24229 0.07157 0.39601 0.0
C47 C 0.22752 0.08773 0.38347 0.0
H48 H 0.03848 0.57483 0.56727 0.0
H49 H 0.01424 0.53466 0.54992 0.0
H50 H 0.93057 0.57335 0.55934 0.0
H51 H 0.95514 0.61306 0.57721 0.0
H52 H 0.04077 0.63453 0.56747 0.0
H53 H 0.0074 0.56065 0.60264 0.0
H54 H 0.9783 0.528 0.61864 0.0
H55 H 0.93073 0.60179 0.6395 0.0
H56 H 0.95919 0.63426 0.62286 0.0
H57 H 0.03037 0.7003 0.63398 0.0
H58 H 0.06034 0.72133 0.65922 0.0
H59 H 0.13193 0.66641 0.64455 0.0
H60 H 0.1021 0.6458 0.61921 0.0
H61 H 0.01761 0.64 0.62987 0.0
H62 H 0.05686 0.71372 0.59837 0.0
H63 H 0.09391 0.74553 0.58815 0.0
H64 H 0.1342 0.67109 0.56252 0.0
H65 H 0.09744 0.63905 0.5734 0.0
C66 C 0.99858 0.59667 0.57371 0.0
C67 C 0.01494 0.57496 0.56528 0.0
C68 C 0.00099 0.55203 0.55528 0.0
C69 C 0.97036 0.55054 0.55334 0.0
C70 C 0.95414 0.57346 0.56086 0.0
C71 C 0.96813 0.59626 0.571 0.0
C72 C 0.01334 0.61806 0.58652 0.0
C73 C 0.03575 0.63571 0.58112 0.0
C74 C 0.00628 0.62008 0.60425 0.0
C75 C 0.98536 0.59992 0.61144 0.0
C76 C 0.99001 0.56972 0.61013 0.0
C77 C 0.97357 0.5511 0.61946 0.0
C78 C 0.95244 0.56234 0.63051 0.0
C79 C 0.94665 0.59239 0.631 0.0
C80 C 0.96303 0.61101 0.62159 0.0
C81 C 0.06412 0.67168 0.62471 0.0
C82 C 0.0527 0.69324 0.63604 0.0
C83 C 0.0698 0.70523 0.65039 0.0
C84 C 0.09832 0.69532 0.65381 0.0
C85 C 0.10993 0.67426 0.64221 0.0
C86 C 0.09302 0.66267 0.62771 0.0
C87 C 0.0451 0.65618 0.61089 0.0
C88 C 0.02201 0.63946 0.61612 0.0
C89 C 0.05172 0.65486 0.59311 0.0
C90 C 0.07447 0.67395 0.58678 0.0
C91 C 0.07384 0.70414 0.59073 0.0
C92 C 0.09488 0.72236 0.5847 0.0
C93 C 0.11692 0.71087 0.57441 0.0
C94 C 0.11765 0.68059 0.57052 0.0
C95 C 0.09652 0.6623 0.5766 0.0
H96 H 0.5008 0.54334 0.88607 0.0
H97 H 0.47341 0.56819 0.90864 0.0
H98 H 0.39936 0.57449 0.87175 0.0
H99 H 0.42671 0.54854 0.8491 0.0
H100 H 0.49461 0.49434 0.86904 0.0
H101 H 0.49588 0.5939 0.85454 0.0
H102 H 0.47002 0.63929 0.84936 0.0
H103 H 0.42698 0.5985 0.80254 0.0
H104 H 0.45247 0.55291 0.80797 0.0
H105 H 0.52281 0.44528 0.81568 0.0
H106 H 0.56026 0.42239 0.79828 0.0
H107 H 0.60504 0.50539 0.79845 0.0
H108 H 0.56722 0.52814 0.81549 0.0
H109 H 0.51007 0.53628 0.81222 0.0
H110 H 0.50192 0.43621 0.85547 0.0
H111 H 0.53258 0.40306 0.87217 0.0
H112 H 0.60579 0.462 0.86975 0.0
H113 H 0.57545 0.49379 0.85242 0.0
C114 C 0.46585 0.54398 0.86587 0.0
C115 C 0.47854 0.54965 0.88283 0.0
C116 C 0.46289 0.56391 0.89572 0.0
C117 C 0.43424 0.57308 0.89193 0.0
C118 C 0.42147 0.56769 0.87495 0.0
C119 C 0.43707 0.55292 0.86204 0.0
C120 C 0.48335 0.52912 0.85237 0.0
C121 C 0.49753 0.50325 0.85648 0.0
C122 C 0.48815 0.54137 0.83627 0.0
C123 C 0.47556 0.56984 0.83185 0.0
C124 C 0.48098 0.59477 0.84311 0.0
C125 C 0.46626 0.62068 0.84014 0.0
C126 C 0.44632 0.62231 0.82564 0.0
C127 C 0.44234 0.5979 0.81376 0.0
C128 C 0.45683 0.57185 0.81687 0.0
C129 C 0.54237 0.48835 0.817 0.0
C130 C 0.54055 0.45857 0.81179 0.0
C131 C 0.56203 0.44551 0.80189 0.0
C132 C 0.58582 0.46198 0.79706 0.0
C133 C 0.58687 0.49209 0.8017 0.0
C134 C 0.5653 0.50515 0.81153 0.0
C135 C 0.5214 0.50159 0.82904 0.0
C136 C 0.50646 0.52698 0.82458 0.0
C137 C 0.51723 0.48995 0.84535 0.0
C138 C 0.5365 0.4673 0.85259 0.0
C139 C 0.52483 0.44141 0.85816 0.0
C140 C 0.54236 0.42267 0.86788 0.0
C141 C 0.57176 0.42981 0.87256 0.0
C142 C 0.58354 0.45522 0.86622 0.0
C143 C 0.56614 0.47363 0.8563 0.0
H144 H 0.57395 0.96601 0.10025 0.0
H145 H 0.54361 0.92463 0.08908 0.0
H146 H 0.49114 0.98171 0.05747 0.0
H147 H 0.52075 0.02335 0.0695 0.0
H148 H 0.57689 0.03629 0.06765 0.0
H149 H 0.59994 0.00218 0.13817 0.0
H150 H 0.57871 0.97478 0.16048 0.0
H151 H 0.49268 0.98839 0.13657 0.0
H152 H 0.51414 0.01706 0.11462 0.0
H153 H 0.599 0.11612 0.12841 0.0
H154 H 0.63783 0.14441 0.14493 0.0
H155 H 0.70229 0.09494 0.11735 0.0
H156 H 0.66334 0.06671 0.10088 0.0
H157 H 0.59558 0.05618 0.13159 0.0
H158 H 0.59275 0.12146 0.08493 0.0
H159 H 0.61737 0.153 0.0658 0.0
H160 H 0.66227 0.07841 0.04372 0.0
H161 H 0.63728 0.0468 0.06291 0.0
C162 C 0.5493 0.99786 0.08595 0.0
C163 C 0.5557 0.96967 0.09107 0.0
C164 C 0.53853 0.94594 0.08448 0.0
C165 C 0.51487 0.9498 0.07236 0.0
C166 C 0.50887 0.97801 0.06699 0.0
C167 C 0.52594 0.0018 0.07373 0.0
C168 C 0.56721 0.02312 0.09325 0.0
C169 C 0.58077 0.04067 0.08164 0.0
C170 C 0.57215 0.02912 0.11152 0.0
C171 C 0.55869 0.0116 0.12464 0.0
C172 C 0.57648 -0.00062 0.13774 0.0
C173 C 0.56429 0.98341 0.15041 0.0
C174 C 0.53395 0.97914 0.15029 0.0
C175 C 0.51609 0.99143 0.13715 0.0
C176 C 0.52835 0.00757 0.12447 0.0
C177 C 0.62834 0.08939 0.11345 0.0
C178 C 0.62147 0.11194 0.12561 0.0
C179 C 0.64366 0.12816 0.13495 0.0
C180 C 0.67305 0.12174 0.13245 0.0
C181 C 0.67981 0.10022 0.11957 0.0
C182 C 0.6576 0.08423 0.11009 0.0
C183 C 0.60547 0.06868 0.10605 0.0
C184 C 0.59117 0.05193 0.11762 0.0
C185 C 0.59982 0.06341 0.08787 0.0
C186 C 0.61326 0.08186 0.07534 0.0
C187 C 0.60765 0.11186 0.07583 0.0
C188 C 0.6216 0.1298 0.06483 0.0
C189 C 0.64167 0.11812 0.05324 0.0
C190 C 0.64696 0.08797 0.05257 0.0
C191 C 0.63263 0.06992 0.06343 0.0
H192 H -0.00055 0.70591 0.93389 0.0
H193 H 0.03202 0.73662 0.91864 0.0
H194 H 0.10108 0.67409 0.92632 0.0
H195 H 0.06887 0.64466 0.94219 0.0
H196 H 0.98874 0.64463 0.92136 0.0
H197 H 0.02294 0.70116 0.97478 0.0
H198 H 0.06488 0.72308 0.99191 0.0
H199 H 0.1019 0.63742 0.99694 0.0
H200 H 0.05962 0.61575 0.98023 0.0
H201 H 0.99584 0.55746 0.97218 0.0
H202 H 0.96639 0.5154 0.97877 0.0
H203 H 0.88825 0.5611 0.96267 0.0
H204 H 0.91781 0.60266 0.95583 0.0
H205 H 0.00027 0.61472 0.98244 0.0
H206 H 0.97775 0.55718 0.93149 0.0
H207 H 0.95249 0.52893 0.90724 0.0
H208 H 0.90707 0.60628 0.89188 0.0
H209 H 0.93208 0.63451 0.91652 0.0
C210 C 0.03187 0.67319 0.93926 0.0
C211 C 0.02185 0.6993 0.93258 0.0
C212 C 0.04046 0.71667 0.92372 0.0
C213 C 0.06928 0.7079 0.92107 0.0
C214 C 0.07935 0.68206 0.92833 0.0
C215 C 0.06088 0.665 0.93737 0.0
C216 C 0.01142 0.65274 0.94649 0.0
C217 C 0.99045 0.63877 0.93487 0.0
C218 C 0.01515 0.6439 0.9638 0.0
C219 C 0.03835 0.65688 0.97611 0.0
C220 C 0.03992 0.68713 0.97984 0.0
C221 C 0.06396 0.69961 0.98956 0.0
C222 C 0.08696 0.68206 0.99567 0.0
C223 C 0.08449 0.6516 0.99267 0.0
C224 C 0.06036 0.63914 0.98304 0.0
C225 C 0.95901 0.58305 0.96336 0.0
C226 C 0.97233 0.55851 0.97033 0.0
C227 C 0.95546 0.53449 0.97407 0.0
C228 C 0.92498 0.5347 0.971 0.0
C229 C 0.91171 0.55989 0.96477 0.0
C230 C 0.92854 0.58379 0.96098 0.0
C231 C 0.97693 0.607 0.95735 0.0
C232 C 0.9976 0.62135 0.96911 0.0
C233 C 0.97383 0.61539 0.93989 0.0
C234 C 0.95644 0.5979 0.92604 0.0
C235 C 0.96174 0.56795 0.92325 0.0
C236 C 0.94735 0.55181 0.90933 0.0
C237 C 0.92776 0.56539 0.8977 0.0
C238 C 0.92219 0.5953 0.9006 0.0
C239 C 0.93639 0.61141 0.91467 0.0
H240 H 0.54591 0.55131 0.22723 0.0
H241 H 0.51802 0.59167 0.23998 0.0
H242 H 0.43938 0.55659 0.213 0.0
H243 H 0.4669 0.51519 0.20106 0.0
H244 H 0.54956 0.49518 0.22632 0.0
H245 H 0.52063 0.56453 0.18346 0.0
H246 H 0.4901 0.59249 0.16332 0.0
H247 H 0.45078 0.51243 0.1405 0.0
H248 H 0.48095 0.48464 0.16079 0.0
H249 H 0.54628 0.42879 0.15856 0.0
H250 H 0.57684 0.40626 0.13707 0.0
H251 H 0.65336 0.44306 0.16611 0.0
H252 H 0.6221 0.46794 0.18667 0.0
H253 H 0.5393 0.48309 0.16166 0.0
H254 H 0.57008 0.41331 0.2032 0.0
H255 H 0.6063 0.38521 0.21956 0.0
H256 H 0.64402 0.46521 0.24361 0.0
H257 H 0.60797 0.49324 0.22699 0.0
C258 C 0.50865 0.53053 0.21284 0.0
C259 C 0.52253 0.55173 0.22447 0.0
C260 C 0.50663 0.5748 0.23172 0.0
C261 C 0.47672 0.5772 0.22729 0.0
C262 C 0.4625 0.55519 0.21648 0.0
C263 C 0.47825 0.53171 0.20959 0.0
C264 C 0.52636 0.50891 0.20301 0.0
C265 C 0.54735 0.49254 0.21216 0.0
C266 C 0.52329 0.50508 0.18455 0.0
C267 C 0.50299 0.52249 0.17367 0.0
C268 C 0.50496 0.55307 0.17439 0.0
C269 C 0.48749 0.56901 0.16291 0.0
C270 C 0.46817 0.55459 0.15032 0.0
C271 C 0.46566 0.52407 0.14997 0.0
C272 C 0.48287 0.5082 0.16154 0.0
C273 C 0.58173 0.45021 0.17426 0.0
C274 C 0.56969 0.43179 0.16042 0.0
C275 C 0.5874 0.41856 0.14816 0.0
C276 C 0.61783 0.42289 0.1496 0.0
C277 C 0.63004 0.43971 0.16422 0.0
C278 C 0.61216 0.45354 0.17628 0.0
C279 C 0.5622 0.46887 0.18488 0.0
C280 C 0.54109 0.48508 0.17584 0.0
C281 C 0.56523 0.47247 0.20335 0.0
C282 C 0.58649 0.45537 0.21376 0.0
C283 C 0.58615 0.42479 0.212 0.0
C284 C 0.60669 0.40876 0.22148 0.0
C285 C 0.62801 0.42301 0.23289 0.0
C286 C 0.62803 0.45363 0.23482 0.0
C287 C 0.60735 0.46965 0.22541 0.0
H288 H 0.61354 0.96437 0.42411 0.0
H289 H 0.58381 0.92911 0.40633 0.0
H290 H 0.50616 0.96713 0.42717 0.0
H291 H 0.53646 0.00402 0.44406 0.0
H292 H 0.60998 0.02085 0.41817 0.0
H293 H 0.58823 0.96087 0.46591 0.0
H294 H 0.55291 0.93976 0.48391 0.0
H295 H 0.53372 0.02599 0.50595 0.0
H296 H 0.56648 0.04702 0.4864 0.0
H297 H 0.62989 0.10373 0.47902 0.0
H298 H 0.66879 0.1371 0.4911 0.0
H299 H 0.7313 0.08691 0.46221 0.0
H300 H 0.69284 0.05316 0.45096 0.0
H301 H 0.6204 0.04702 0.48182 0.0
H302 H 0.63045 0.10699 0.43321 0.0
H303 H 0.65142 0.13194 0.40953 0.0
H304 H 0.68899 0.05064 0.39086 0.0
H305 H 0.66726 0.02587 0.41417 0.0
C306 C 0.57726 0.98692 0.43535 0.0
C307 C 0.59011 0.96492 0.42501 0.0
C308 C 0.57294 0.94444 0.41495 0.0
C309 C 0.54236 0.94511 0.41516 0.0
C310 C 0.52956 0.9662 0.42637 0.0
C311 C 0.54686 0.98713 0.43624 0.0
C312 C 0.59591 0.01108 0.44344 0.0
C313 C 0.61244 0.0263 0.43214 0.0
C314 C 0.59785 0.01928 0.46159 0.0
C315 C 0.57928 0.00569 0.4742 0.0
C316 C 0.57599 0.9753 0.47436 0.0
C317 C 0.55609 0.96316 0.48503 0.0
C318 C 0.53977 0.98108 0.49631 0.0
C319 C 0.54489 0.01139 0.49705 0.0
C320 C 0.56409 0.02352 0.48601 0.0
C321 C 0.65839 0.07618 0.46391 0.0
C322 C 0.65203 0.09991 0.47541 0.0
C323 C 0.67423 0.11907 0.48218 0.0
C324 C 0.70318 0.11469 0.47763 0.0
C325 C 0.70937 0.09075 0.4662 0.0
C326 C 0.68729 0.07162 0.45955 0.0
C327 C 0.63515 0.05576 0.45652 0.0
C328 C 0.61774 0.04148 0.46788 0.0
C329 C 0.63169 0.04868 0.43837 0.0
C330 C 0.64719 0.06456 0.42539 0.0
C331 C 0.64353 0.09469 0.42412 0.0
C332 C 0.65558 0.10892 0.41059 0.0
C333 C 0.67156 0.09323 0.39811 0.0
C334 C 0.67618 0.06328 0.39993 0.0
C335 C 0.66396 0.04909 0.41334 0.0
H336 H 0.08998 0.18801 0.74351 0.0
H337 H 0.04825 0.21842 0.75113 0.0
H338 H 0.99492 0.17292 0.70988 0.0
H339 H 0.03623 0.14199 0.70273 0.0
H340 H 0.10102 0.12726 0.74053 0.0
H341 H 0.09836 0.20913 0.69909 0.0
H342 H 0.07101 0.23834 0.67784 0.0
H343 H 0.03911 0.15923 0.64981 0.0
H344 H 0.06709 0.13025 0.67062 0.0
H345 H 0.12849 0.05955 0.69065 0.0
H346 H 0.1593 0.0295 0.67239 0.0
H347 H 0.22855 0.09388 0.68135 0.0
H348 H 0.19639 0.12466 0.69875 0.0
H349 H 0.13038 0.13437 0.67971 0.0
H350 H 0.10563 0.06682 0.7359 0.0
H351 H 0.12956 0.02933 0.75272 0.0
H352 H 0.2123 0.07353 0.75001 0.0
H353 H 0.18817 0.11056 0.73282 0.0
C354 C 0.06636 0.16324 0.7223 0.0
C355 C 0.06913 0.18421 0.73637 0.0
C356 C 0.04534 0.20152 0.7407 0.0
C357 C 0.01856 0.19819 0.73092 0.0
C358 C 0.01547 0.17617 0.71744 0.0
C359 C 0.03905 0.15861 0.71332 0.0
C360 C 0.09228 0.14754 0.71616 0.0
C361 C 0.10774 0.12915 0.72733 0.0
C362 C 0.10094 0.14973 0.69892 0.0
C363 C 0.08474 0.16763 0.68631 0.0
C364 C 0.08555 0.19819 0.68831 0.0
C365 C 0.06996 0.21477 0.67626 0.0
C366 C 0.05292 0.20088 0.66237 0.0
C367 C 0.05193 0.17032 0.66054 0.0
C368 C 0.06801 0.15383 0.6723 0.0
C369 C 0.16027 0.09415 0.69606 0.0
C370 C 0.15053 0.06684 0.68894 0.0
C371 C 0.1684 0.04959 0.67855 0.0
C372 C 0.19664 0.05913 0.67522 0.0
C373 C 0.20683 0.08596 0.68326 0.0
C374 C 0.18864 0.10348 0.6934 0.0
C375 C 0.13921 0.11428 0.70405 0.0
C376 C 0.12437 0.13327 0.69312 0.0
C377 C 0.13097 0.11221 0.72137 0.0
C378 C 0.1452 0.09123 0.73297 0.0
C379 C 0.12886 0.06859 0.73914 0.0
C380 C 0.14259 0.04725 0.74884 0.0
C381 C 0.17293 0.04828 0.75267 0.0
C382 C 0.18901 0.07174 0.74704 0.0
C383 C 0.17527 0.09297 0.73725 0.0
O384 O 0.35402 0.71797 0.99269 0.0
Cd385 Cd 0.34187 0.74257 0.01439 0.0
Cd386 Cd 0.38176 0.70857 0.03263 0.0
O387 O 0.37859 0.68667 0.00836 0.0
O388 O 0.30276 0.75831 0.00829 0.0
O389 O 0.31086 0.72574 0.02817 0.0
C390 C 0.29263 0.74138 0.01935 0.0
C391 C 0.39152 0.67816 0.05563 0.0
C392 C 0.36801 0.69432 0.99369 0.0
C393 C 0.39293 0.77385 0.03241 0.0
O394 O 0.40231 0.74878 0.03596 0.0
O395 O 0.36813 0.77662 0.02449 0.0
O396 O 0.41056 0.68326 0.04458 0.0
O397 O 0.36649 0.69058 0.05384 0.0
O398 O 0.4174 0.83909 0.30694 0.0
Cd399 Cd 0.39401 0.82814 0.28391 0.0
Cd400 Cd 0.44572 0.83782 0.26938 0.0
O401 O 0.45891 0.84872 0.29531 0.0
O402 O 0.3527 0.83606 0.28854 0.0
O403 O 0.37804 0.8618 0.27107 0.0
C404 C 0.35429 0.85802 0.2789 0.0
C405 C 0.46141 0.86722 0.24785 0.0
C406 C 0.44381 0.84747 0.30862 0.0
C407 C 0.41842 0.7774 0.2641 0.0
O408 O 0.43917 0.79454 0.26128 0.0
O409 O 0.39739 0.78626 0.27298 0.0
O410 O 0.47879 0.8496 0.25566 0.0
O411 O 0.43493 0.86879 0.25258 0.0
O412 O 0.29232 0.90914 0.5046 0.0
Cd413 Cd 0.30835 0.88866 0.52638 0.0
Cd414 Cd 0.27285 0.92596 0.54308 0.0
O415 O 0.27472 0.9464 0.51997 0.0
O416 O 0.34905 0.87681 0.52236 0.0
O417 O 0.33752 0.9126 0.5414 0.0
C418 C 0.35728 0.89814 0.53331 0.0
C419 C 0.26645 0.95416 0.56894 0.0
C420 C 0.28141 0.93454 0.50537 0.0
C421 C 0.25884 0.86076 0.54062 0.0
O422 O 0.25053 0.88695 0.54285 0.0
O423 O 0.28412 0.85534 0.53548 0.0
O424 O 0.24584 0.95031 0.55694 0.0
O425 O 0.29166 0.94332 0.566 0.0
O426 O 0.2273 0.78717 0.76455 0.0
Cd427 Cd 0.25181 0.8069 0.78524 0.0
Cd428 Cd 0.22324 0.76623 0.80363 0.0
O429 O 0.20409 0.75501 0.77899 0.0
O430 O 0.26379 0.84495 0.77692 0.0
O431 O 0.23381 0.84091 0.7982 0.0
C432 C 0.24693 0.85727 0.78795 0.0
C433 C 0.19425 0.76364 0.82748 0.0
C434 C 0.20893 0.7665 0.76477 0.0
C435 C 0.28968 0.76539 0.80402 0.0
O436 O 0.2661 0.75527 0.80912 0.0
O437 O 0.28931 0.7865 0.79407 0.0
O438 O 0.20383 0.74059 0.81944 0.0
O439 O 0.20035 0.78863 0.82171 0.0
O440 O 0.92287 0.28549 0.55668 0.0
Cd441 Cd 0.90194 0.29803 0.53387 0.0
Cd442 Cd 0.93831 0.25763 0.51856 0.0
O443 O 0.95794 0.26199 0.54351 0.0
O444 O 0.88633 0.33751 0.53912 0.0
O445 O 0.92122 0.32855 0.52083 0.0
C446 C 0.90487 0.34718 0.52883 0.0
C447 C 0.96958 0.2458 0.49617 0.0
C448 C 0.94709 0.2723 0.55739 0.0
C449 C 0.87241 0.24665 0.51614 0.0
O450 O 0.89806 0.23708 0.51445 0.0
O451 O 0.8685 0.27224 0.52269 0.0
O452 O 0.96321 0.22749 0.50739 0.0
O453 O 0.95862 0.27157 0.49777 0.0
O454 O 0.84808 0.41786 0.79174 0.0
Cd455 Cd 0.83099 0.3918 0.771 0.0
Cd456 Cd 0.87013 0.42406 0.75198 0.0
O457 O 0.87328 0.4468 0.77622 0.0
O458 O 0.79272 0.37803 0.77804 0.0
O459 O 0.79747 0.40794 0.75676 0.0
C460 C 0.78071 0.39417 0.76649 0.0
C461 C 0.88179 0.45141 0.72845 0.0
C462 C 0.86395 0.44032 0.79077 0.0
C463 C 0.87665 0.35749 0.75399 0.0
O464 O 0.88523 0.38177 0.74898 0.0
O465 O 0.85445 0.35604 0.76298 0.0
O466 O 0.90114 0.44389 0.74006 0.0
O467 O 0.85508 0.44406 0.73032 0.0
O468 O 0.74344 0.35604 0.04096 0.0
Cd469 Cd 0.76022 0.33523 0.01941 0.0
Cd470 Cd 0.72098 0.36735 0.00119 0.0
O471 O 0.7046 0.37128 0.0259 0.0
O472 O 0.76865 0.29404 0.02436 0.0
O473 O 0.73263 0.30739 0.00602 0.0
C474 C 0.74589 0.28702 0.01423 0.0
C475 C 0.68851 0.36957 0.97667 0.0
C476 C 0.71831 0.36744 0.04048 0.0
C477 C 0.78701 0.37847 0.99944 0.0
O478 O 0.76068 0.38608 0.99661 0.0
O479 O 0.79296 0.35614 0.00789 0.0
O480 O 0.69542 0.39235 0.98664 0.0
O481 O 0.69877 0.34478 0.98104 0.0
O482 O 0.80099 0.22537 0.24005 0.0
Cd483 Cd 0.81157 0.24659 0.26398 0.0
Cd484 Cd 0.79349 0.19645 0.27705 0.0
O485 O 0.78078 0.18744 0.25105 0.0
O486 O 0.80655 0.28891 0.26091 0.0
O487 O 0.77746 0.26288 0.27614 0.0
C488 C 0.78335 0.28731 0.26952 0.0
C489 C 0.76305 0.18079 0.29805 0.0
C490 C 0.78697 0.20142 0.23795 0.0
C491 C 0.85692 0.21448 0.28385 0.0
O492 O 0.83711 0.1953 0.28456 0.0
O493 O 0.85132 0.23826 0.27673 0.0
O494 O 0.77739 0.16267 0.28849 0.0
O495 O 0.76536 0.20819 0.29546 0.0
H496 H 0.27481 0.02463 0.29551 0.0
H497 H 0.29944 0.85298 0.29027 0.0
H498 H 0.21392 0.96244 0.31295 0.0
H499 H 0.35652 0.91365 0.26798 0.0
H500 H 0.26513 0.89237 0.29562 0.0
H501 H 0.30283 0.98426 0.28292 0.0
C502 C 0.26727 0.00249 0.29663 0.0
C503 C 0.2421 0.99691 0.30542 0.0
C504 C 0.28494 0.89705 0.28933 0.0
C505 C 0.27396 0.9506 0.29097 0.0
C506 C 0.30452 0.87451 0.28622 0.0
C507 C 0.33102 0.88011 0.27884 0.0
C508 C 0.29205 0.92551 0.28525 0.0
C509 C 0.33638 0.90839 0.27376 0.0
C510 C 0.28316 0.97946 0.28933 0.0
C511 C 0.23308 0.96781 0.3062 0.0
N512 N 0.31728 0.93016 0.27732 0.0
N513 N 0.24914 0.94578 0.29924 0.0
H514 H 0.1761 0.70319 0.57221 0.0
H515 H 0.2006 0.86533 0.54404 0.0
H516 H 0.10702 0.76378 0.5609 0.0
H517 H 0.27005 0.80239 0.54482 0.0
H518 H 0.16663 0.82767 0.55067 0.0
H519 H 0.21133 0.73809 0.56237 0.0
C520 C 0.1683 0.72367 0.56752 0.0
C521 C 0.13858 0.73072 0.56759 0.0
C522 C 0.18924 0.8219 0.54933 0.0
C523 C 0.1787 0.7707 0.55651 0.0
C524 C 0.20876 0.8435 0.5456 0.0
C525 C 0.23832 0.83708 0.54396 0.0
C526 C 0.19919 0.7935 0.55166 0.0
C527 C 0.24745 0.80828 0.54597 0.0
C528 C 0.18843 0.74359 0.56197 0.0
C529 C 0.12975 0.75765 0.56148 0.0
N530 N 0.22795 0.78752 0.54987 0.0
N531 N 0.1497 0.77664 0.5563 0.0
H532 H 0.41673 0.6519 0.85075 0.0
H533 H 0.33942 0.76192 0.78597 0.0
H534 H 0.43369 0.65181 0.79607 0.0
H535 H 0.30229 0.73484 0.83277 0.0
H536 H 0.38182 0.73102 0.7922 0.0
H537 H 0.38252 0.69191 0.84686 0.0
C538 C 0.41363 0.66066 0.83799 0.0
C539 C 0.42795 0.64847 0.82368 0.0
C540 C 0.36452 0.73221 0.80119 0.0
C541 C 0.38875 0.69409 0.81914 0.0
C542 C 0.34046 0.74994 0.79772 0.0
C543 C 0.31725 0.75069 0.80881 0.0
C544 C 0.36547 0.71561 0.81598 0.0
C545 C 0.3196 0.73463 0.82379 0.0
C546 C 0.39398 0.68334 0.83576 0.0
C547 C 0.42283 0.66042 0.80738 0.0
N548 N 0.34322 0.71769 0.82692 0.0
N549 N 0.40355 0.68256 0.80553 0.0
H550 H 0.4555 0.94765 0.06538 0.0
H551 H 0.45014 0.77557 0.04439 0.0
H552 H 0.53232 0.89403 0.06361 0.0
H553 H 0.3773 0.83144 0.03236 0.0
H554 H 0.47984 0.81862 0.05335 0.0
H555 H 0.42577 0.90527 0.05478 0.0
C556 C 0.46619 0.92708 0.06263 0.0
C557 C 0.49652 0.92446 0.06547 0.0
C558 C 0.45739 0.82148 0.04869 0.0
C559 C 0.46249 0.87575 0.05365 0.0
C560 C 0.44037 0.7969 0.04363 0.0
C561 C 0.41115 0.79989 0.03763 0.0
C562 C 0.44508 0.84931 0.04794 0.0
C563 C 0.39973 0.82811 0.03687 0.0
C564 C 0.44916 0.90286 0.05666 0.0
C565 C 0.50901 0.89704 0.06195 0.0
N566 N 0.41669 0.85175 0.04206 0.0
N567 N 0.49194 0.87377 0.05631 0.0
H568 H 0.12282 0.66318 0.02273 0.0
H569 H 0.24978 0.77468 0.00481 0.0
H570 H 0.11451 0.73122 0.98635 0.0
H571 H 0.26298 0.70072 0.03639 0.0
H572 H 0.19757 0.7646 0.00277 0.0
H573 H 0.17152 0.68178 0.03229 0.0
C574 C 0.13107 0.68217 0.01686 0.0
C575 C 0.11458 0.69543 0.00356 0.0
C576 C 0.2118 0.75074 0.01032 0.0
C577 C 0.17018 0.71693 0.01455 0.0
C578 C 0.24165 0.75652 0.01152 0.0
C579 C 0.26082 0.73824 0.02056 0.0
C580 C 0.20097 0.72636 0.01811 0.0
C581 C 0.24899 0.71523 0.02916 0.0
C582 C 0.15882 0.69284 0.02239 0.0
C583 C 0.1262 0.72035 0.99672 0.0
N584 N 0.21983 0.70968 0.02753 0.0
N585 N 0.15334 0.73007 0.00217 0.0
H586 H 0.45032 0.61496 0.20574 0.0
H587 H 0.40226 0.72925 0.28053 0.0
H588 H 0.46914 0.60089 0.26026 0.0
H589 H 0.439 0.75576 0.23351 0.0
H590 H 0.41147 0.67803 0.27128 0.0
H591 H 0.43046 0.66302 0.21405 0.0
C592 C 0.44965 0.62181 0.21947 0.0
C593 C 0.4613 0.60418 0.23238 0.0
C594 C 0.41706 0.69514 0.26293 0.0
C595 C 0.43855 0.65856 0.24189 0.0
C596 C 0.41168 0.72421 0.26811 0.0
C597 C 0.42003 0.7466 0.25776 0.0
C598 C 0.43007 0.68859 0.24711 0.0
C599 C 0.43243 0.73906 0.24187 0.0
C600 C 0.43852 0.64916 0.22417 0.0
C601 C 0.46035 0.61403 0.24998 0.0
N602 N 0.43703 0.71064 0.23699 0.0
N603 N 0.44912 0.64067 0.25426 0.0
H604 H 0.53682 0.92655 0.50989 0.0
H605 H 0.37848 0.95177 0.54522 0.0
H606 H 0.48842 0.00661 0.50575 0.0
H607 H 0.40554 0.86831 0.52318 0.0
H608 H 0.42645 0.97196 0.54025 0.0
H609 H 0.49538 0.90518 0.52329 0.0
C610 C 0.51774 0.93979 0.51181 0.0
C611 C 0.51631 0.96851 0.50638 0.0
C612 C 0.42202 0.94908 0.53685 0.0
C613 C 0.46933 0.94433 0.52241 0.0
C614 C 0.39476 0.93747 0.53979 0.0
C615 C 0.3879 0.9084 0.53439 0.0
C616 C 0.44266 0.9314 0.52869 0.0
C617 C 0.40985 0.89092 0.52736 0.0
C618 C 0.49423 0.92757 0.51963 0.0
C619 C 0.4911 0.98464 0.50985 0.0
N620 N 0.43621 0.90276 0.52455 0.0
N621 N 0.46869 0.97231 0.51757 0.0
H622 H 0.22544 0.02376 0.74551 0.0
H623 H 0.20447 0.88866 0.80423 0.0
H624 H 0.1545 0.01686 0.77951 0.0
H625 H 0.27484 0.89747 0.77008 0.0
H626 H 0.1896 0.9386 0.79878 0.0
H627 H 0.24747 0.9809 0.75775 0.0
C628 C 0.21469 0.01357 0.75577 0.0
C629 C 0.1879 0.02392 0.76137 0.0
C630 C 0.20854 0.92972 0.79268 0.0
C631 C 0.21282 0.97414 0.77521 0.0
C632 C 0.21712 0.90126 0.79585 0.0
C633 C 0.24071 0.88876 0.78742 0.0
C634 C 0.22367 0.94569 0.78099 0.0
C635 C 0.2563 0.90609 0.7767 0.0
C636 C 0.22722 0.98888 0.76268 0.0
C637 C 0.17486 0.00935 0.77453 0.0
N638 N 0.24732 0.93351 0.77365 0.0
N639 N 0.1873 0.98505 0.78088 0.0
H640 H 0.60994 0.40903 0.80353 0.0
H641 H 0.74922 0.43538 0.7492 0.0
H642 H 0.61869 0.48208 0.77133 0.0
H643 H 0.73985 0.3644 0.78285 0.0
H644 H 0.69829 0.44839 0.75306 0.0
H645 H 0.65388 0.38811 0.79202 0.0
C646 C 0.62076 0.42047 0.79379 0.0
C647 C 0.61063 0.44754 0.78853 0.0
C648 C 0.70727 0.42971 0.75938 0.0
C649 C 0.66164 0.4239 0.77555 0.0
C650 C 0.73631 0.42219 0.75712 0.0
C651 C 0.74891 0.39902 0.76591 0.0
C652 C 0.69081 0.41393 0.77052 0.0
C653 C 0.73116 0.38267 0.77599 0.0
C654 C 0.64607 0.40857 0.7873 0.0
C655 C 0.626 0.46146 0.77605 0.0
N656 N 0.70315 0.39063 0.77817 0.0
N657 N 0.65089 0.44964 0.77012 0.0
H658 H 0.70037 0.11936 0.04907 0.0
H659 H 0.69247 0.26821 1.00016 0.0
H660 H 0.62031 0.16196 0.03366 0.0
H661 H 0.7698 0.23851 0.02825 0.0
H662 H 0.66785 0.2226 0.0055 0.0
H663 H 0.72767 0.15629 0.03487 0.0
C664 C 0.68852 0.13617 0.0424 0.0
C665 C 0.65807 0.13783 0.04269 0.0
C666 C 0.69036 0.22589 0.01024 0.0
C667 C 0.68909 0.18011 0.02651 0.0
C668 C 0.70451 0.25185 0.00711 0.0
C669 C 0.73312 0.25737 0.014 0.0
C670 C 0.70496 0.20526 0.02026 0.0
C671 C 0.74762 0.23532 0.02288 0.0
C672 C 0.7041 0.1573 0.03439 0.0
C673 C 0.64381 0.16018 0.03396 0.0
N674 N 0.73328 0.21036 0.02594 0.0
N675 N 0.65944 0.18055 0.02633 0.0
H676 H 0.04454 0.20607 0.3057 0.0
H677 H 0.87396 0.16908 0.30316 0.0
H678 H 0.00742 0.13049 0.32706 0.0
H679 H 0.90786 0.24518 0.28062 0.0
H680 H 0.9231 0.15651 0.31318 0.0
H681 H 0.99514 0.22254 0.29748 0.0
C682 C 0.02603 0.19301 0.3087 0.0
C683 C 0.03011 0.16669 0.31689 0.0
C684 C 0.91991 0.17603 0.3061 0.0
C685 C 0.97374 0.18534 0.30757 0.0
C686 C 0.89176 0.18326 0.30035 0.0
C687 C 0.88673 0.20816 0.29092 0.0
C688 C 0.94346 0.19369 0.30236 0.0
C689 C 0.91074 0.22576 0.28783 0.0
C690 C 0.99788 0.20237 0.30397 0.0
C691 C 0.00537 0.15058 0.32042 0.0
N692 N 0.93815 0.2181 0.29345 0.0
N693 N 0.97834 0.16013 0.31573 0.0
H694 H 0.986 0.51575 0.52489 0.0
H695 H 0.87205 0.39095 0.54289 0.0
H696 H 0.92127 0.52373 0.56341 0.0
H697 H 0.9469 0.37578 0.51226 0.0
H698 H 0.88335 0.44294 0.54497 0.0
H699 H 0.96578 0.46778 0.51506 0.0
C700 C 0.96739 0.50762 0.53117 0.0
C701 C 0.95561 0.52376 0.54518 0.0
C702 C 0.89713 0.42831 0.53762 0.0
C703 C 0.93219 0.46904 0.53382 0.0
C704 C 0.89067 0.39859 0.53639 0.0
C705 C 0.90885 0.37892 0.52762 0.0
C706 C 0.92205 0.43851 0.53011 0.0
C707 C 0.93246 0.39015 0.51929 0.0
C708 C 0.95579 0.48028 0.52549 0.0
C709 C 0.93103 0.51234 0.5525 0.0
N710 N 0.93862 0.41921 0.52093 0.0
N711 N 0.92037 0.48561 0.54686 0.0
H712 H 0.70186 0.17448 0.48271 0.0
H713 H 0.87295 0.18854 0.50639 0.0
H714 H 0.75892 0.10086 0.48858 0.0
H715 H 0.8143 0.26082 0.51372 0.0
H716 H 0.83131 0.15678 0.49794 0.0
H717 H 0.74252 0.20711 0.49278 0.0
C718 C 0.72282 0.16514 0.48626 0.0
C719 C 0.727 0.13485 0.48464 0.0
C720 C 0.8275 0.17957 0.50144 0.0
C721 C 0.77364 0.17208 0.49586 0.0
C722 C 0.85131 0.19779 0.50619 0.0
C723 C 0.84714 0.22743 0.51077 0.0
C724 C 0.79923 0.19103 0.50109 0.0
C725 C 0.81852 0.23809 0.51032 0.0
C726 C 0.74603 0.1838 0.49191 0.0
C727 C 0.75477 0.12405 0.48924 0.0
N728 N 0.79563 0.21991 0.5055 0.0
N729 N 0.77701 0.14264 0.49453 0.0
H730 H 0.9884 0.2286 0.70658 0.0
H731 H 0.88229 0.30831 0.77241 0.0
H732 H 0.99471 0.21526 0.76181 0.0
H733 H 0.91023 0.347 0.72629 0.0
H734 H 0.9148 0.26698 0.76653 0.0
H735 H 0.95074 0.26517 0.71156 0.0
C736 C 0.98155 0.23315 0.71973 0.0
C737 C 0.99462 0.219 0.73383 0.0
C738 C 0.91356 0.28447 0.75767 0.0
C739 C 0.95161 0.2606 0.73957 0.0
C740 C 0.89494 0.30789 0.76093 0.0
C741 C 0.89373 0.33111 0.74985 0.0
C742 C 0.93049 0.28409 0.74304 0.0
C743 C 0.91069 0.32963 0.73523 0.0
C744 C 0.96024 0.25408 0.72256 0.0
C745 C 0.98523 0.22589 0.75064 0.0
N746 N 0.92832 0.30648 0.73222 0.0
N747 N 0.96418 0.24621 0.75306 0.0
H748 H 0.87836 0.51252 0.95055 0.0
H749 H 0.84441 0.38302 0.01181 0.0
H750 H 0.93082 0.49695 0.99757 0.0
H751 H 0.78258 0.41647 0.97362 0.0
H752 H 0.88064 0.41854 0.0037 0.0
H753 H 0.84723 0.47139 0.95597 0.0
C754 C 0.88328 0.50054 0.96208 0.0
C755 C 0.90698 0.50859 0.97379 0.0
C756 C 0.85919 0.41785 0.99703 0.0
C757 C 0.87159 0.46097 0.97991 0.0
C758 C 0.83861 0.39752 0.00157 0.0
C759 C 0.81039 0.39699 0.99348 0.0
C760 C 0.85152 0.43744 0.98418 0.0
C761 C 0.80397 0.41632 0.98033 0.0
C762 C 0.86559 0.47691 0.9651 0.0
C763 C 0.9128 0.49156 0.98819 0.0
N764 N 0.82431 0.43576 0.97614 0.0
N765 N 0.89511 0.46864 0.99091 0.0
H766 H 0.6212 0.37268 0.24974 0.0
H767 H 0.79149 0.34283 0.25968 0.0
H768 H 0.68663 0.4344 0.23717 0.0
H769 H 0.72684 0.2866 0.279 0.0
H770 H 0.7538 0.37896 0.25419 0.0
H771 H 0.65957 0.34276 0.26278 0.0
C772 C 0.64364 0.37999 0.2498 0.0
C773 C 0.65074 0.40594 0.24221 0.0
C774 C 0.7479 0.35892 0.25989 0.0
C775 C 0.69481 0.37185 0.25716 0.0
C776 C 0.76945 0.3383 0.26307 0.0
C777 C 0.76225 0.31151 0.26963 0.0
C778 C 0.71883 0.35258 0.26306 0.0
C779 C 0.73336 0.3069 0.27386 0.0
C780 C 0.66553 0.36301 0.25735 0.0
C781 C 0.68014 0.41462 0.24293 0.0
N782 N 0.71261 0.32703 0.27024 0.0
N783 N 0.7011 0.39746 0.25008 0.0
H784 H 0.25406 0.98504 0.39843 0.0
H785 H 0.26455 0.99114 0.50292 0.0
H786 H 0.24166 0.06291 0.4314 0.0
H787 H 0.28772 0.91487 0.47124 0.0
H788 H 0.25654 0.01755 0.47654 0.0
H789 H 0.2673 0.95878 0.42459 0.0
C790 C 0.25434 0.99667 0.41113 0.0
C791 C 0.24676 0.02625 0.4127 0.0
C792 C 0.26346 0.99506 0.47532 0.0
C793 C 0.26172 0.99635 0.44264 0.0
C794 C 0.26795 0.97989 0.49041 0.0
C795 C 0.27671 0.95066 0.48932 0.0
C796 C 0.26754 0.98093 0.45892 0.0
C797 C 0.28092 0.93736 0.4727 0.0
C798 C 0.26196 0.98169 0.42605 0.0
C799 C 0.24773 0.04026 0.42949 0.0
N800 N 0.27616 0.95256 0.45813 0.0
N801 N 0.25484 0.02516 0.44377 0.0
H802 H 0.1255 0.66232 0.6781 0.0
H803 H 0.2001 0.79564 0.73496 0.0
H804 H 0.10932 0.75159 0.66631 0.0
H805 H 0.18099 0.71403 0.7571 0.0
H806 H 0.17321 0.77845 0.7078 0.0
H807 H 0.15252 0.67953 0.70531 0.0
C808 C 0.12786 0.68555 0.68121 0.0
C809 C 0.11531 0.70562 0.66999 0.0
C810 C 0.17489 0.76436 0.71862 0.0
C811 C 0.14612 0.72537 0.70092 0.0
C812 C 0.19033 0.77406 0.73409 0.0
C813 C 0.19278 0.7562 0.74831 0.0
C814 C 0.16228 0.73641 0.71724 0.0
C815 C 0.17953 0.72852 0.74648 0.0
C816 C 0.14305 0.69532 0.69675 0.0
C817 C 0.11864 0.73547 0.67468 0.0
N818 N 0.16501 0.71936 0.73116 0.0
N819 N 0.13394 0.74449 0.68976 0.0
H820 H 0.42865 0.55649 0.92495 0.0
H821 H 0.35738 0.70628 0.95911 0.0
H822 H 0.40377 0.62428 0.89068 0.0
H823 H 0.38914 0.63903 0.99213 0.0
H824 H 0.36842 0.67491 0.93334 0.0
H825 H 0.4079 0.58445 0.94909 0.0
C826 C 0.41859 0.57725 0.92252 0.0
C827 C 0.41822 0.5883 0.9059 0.0
C828 C 0.37275 0.66703 0.94625 0.0
C829 C 0.39457 0.62068 0.93352 0.0
C830 C 0.36645 0.6849 0.96095 0.0
C831 C 0.37264 0.67541 0.97782 0.0
C832 C 0.38516 0.63951 0.94849 0.0
C833 C 0.38431 0.64746 0.97942 0.0
C834 C 0.40673 0.59324 0.9363 0.0
C835 C 0.40448 0.61506 0.90335 0.0
N836 N 0.39027 0.63063 0.96498 0.0
N837 N 0.39348 0.63058 0.9171 0.0
H838 H 0.48356 0.98968 0.16734 0.0
H839 H 0.51397 0.86359 0.23325 0.0
H840 H 0.55538 0.92969 0.16449 0.0
H841 H 0.43219 0.90932 0.22977 0.0
H842 H 0.53047 0.89027 0.20919 0.0
H843 H 0.46485 0.96251 0.19086 0.0
C844 C 0.49528 0.97069 0.17152 0.0
C845 C 0.52126 0.96215 0.16397 0.0
C846 C 0.50889 0.89451 0.21364 0.0
C847 C 0.50019 0.93129 0.19108 0.0
C848 C 0.49946 0.87934 0.22746 0.0
C849 C 0.47162 0.88421 0.23356 0.0
C850 C 0.49047 0.91494 0.20584 0.0
C851 C 0.45382 0.90487 0.22548 0.0
C852 C 0.48465 0.9553 0.18503 0.0
C853 C 0.53564 0.93753 0.17012 0.0
N854 N 0.46357 0.91955 0.21204 0.0
N855 N 0.525 0.92313 0.18333 0.0
H856 H 0.05271 0.73712 0.89173 0.0
H857 H 0.20373 0.72529 0.85249 0.0
H858 H 0.12899 0.71532 0.9239 0.0
H859 H 0.14714 0.79548 0.83787 0.0
H860 H 0.17453 0.71795 0.87748 0.0
H861 H 0.08448 0.75684 0.87086 0.0
C862 C 0.07603 0.73695 0.89467 0.0
C863 C 0.08806 0.72396 0.90959 0.0
C864 C 0.16869 0.73519 0.86893 0.0
C865 C 0.12442 0.74574 0.88533 0.0
C866 C 0.18518 0.73926 0.85463 0.0
C867 C 0.17768 0.76094 0.84314 0.0
C868 C 0.14397 0.75233 0.87146 0.0
C869 C 0.15358 0.77858 0.84651 0.0
C870 C 0.09413 0.74813 0.88265 0.0
C871 C 0.11859 0.72414 0.91237 0.0
N872 N 0.13713 0.77352 0.86024 0.0
N873 N 0.13569 0.73427 0.9002 0.0
H874 H 0.46451 0.54084 0.1153 0.0
H875 H 0.36876 0.67712 0.08798 0.0
H876 H 0.43734 0.60563 0.15391 0.0
H877 H 0.43085 0.6345 0.05522 0.0
H878 H 0.38441 0.64554 0.11161 0.0
H879 H 0.44219 0.56928 0.09229 0.0
C880 C 0.45346 0.56088 0.11895 0.0
C881 C 0.45277 0.57093 0.13653 0.0
C882 C 0.3944 0.64313 0.09918 0.0
C883 C 0.42734 0.60366 0.11023 0.0
C884 C 0.38541 0.66095 0.08572 0.0
C885 C 0.39869 0.65846 0.06971 0.0
C886 C 0.41623 0.62237 0.09635 0.0
C887 C 0.42024 0.6373 0.06743 0.0
C888 C 0.44093 0.57718 0.10581 0.0
C889 C 0.43851 0.59728 0.14048 0.0
N890 N 0.42825 0.62003 0.08056 0.0
N891 N 0.4263 0.61281 0.12741 0.0
H892 H 0.55402 0.88912 0.40239 0.0
H893 H 0.41519 0.87172 0.33591 0.0
H894 H 0.48927 0.95678 0.39847 0.0
H895 H 0.50093 0.84645 0.32093 0.0
H896 H 0.43679 0.89196 0.36407 0.0
H897 H 0.52877 0.86213 0.3775 0.0
C898 C 0.53446 0.89831 0.39646 0.0
C899 C 0.52428 0.92578 0.40241 0.0
C900 C 0.45072 0.88167 0.35465 0.0
C901 C 0.49479 0.89424 0.37438 0.0
C902 C 0.4385 0.87006 0.33865 0.0
C903 C 0.45639 0.85757 0.32607 0.0
C904 C 0.4809 0.88008 0.35823 0.0
C905 C 0.48645 0.85612 0.33024 0.0
C906 C 0.52004 0.88274 0.38232 0.0
C907 C 0.49806 0.93577 0.39453 0.0
N908 N 0.49781 0.86719 0.34603 0.0
N909 N 0.4843 0.92006 0.38087 0.0
H910 H 0.2349 0.08016 0.6524 0.0
H911 H 0.21729 0.9484 0.58592 0.0
H912 H 0.19804 -0.0004 0.6679 0.0
H913 H 0.30104 0.99175 0.59068 0.0
H914 H 0.2055 0.97196 0.614 0.0
H915 H 0.25697 0.0529 0.62832 0.0
C916 C 0.23183 0.05675 0.65108 0.0
C917 C 0.21397 0.04238 0.66219 0.0
C918 C 0.22653 0.97616 0.60895 0.0
C919 C 0.23847 0.01144 0.6342 0.0
C920 C 0.23317 0.96297 0.5929 0.0
C921 C 0.26011 0.96831 0.58602 0.0
C922 C 0.24658 0.99555 0.61794 0.0
C923 C 0.28006 0.98714 0.59563 0.0
C924 C 0.24439 0.04129 0.63722 0.0
C925 C 0.21066 0.01196 0.65942 0.0
N926 N 0.27268 0.00061 0.61105 0.0
N927 N 0.22221 0.99764 0.64549 0.0
H928 H 0.63102 0.41993 0.87426 0.0
H929 H 0.6428 0.33588 0.96178 0.0
H930 H 0.553 0.4007 0.90036 0.0
H931 H 0.69641 0.41056 0.95374 0.0
H932 H 0.61407 0.34464 0.93431 0.0
H933 H 0.66013 0.40055 0.89851 0.0
C934 C 0.61988 0.41145 0.88493 0.0
C935 C 0.58937 0.41279 0.88535 0.0
C936 C 0.63234 0.3588 0.93858 0.0
C937 C 0.62275 0.38945 0.91277 0.0
C938 C 0.64865 0.35383 0.95413 0.0
C939 C 0.67168 0.37276 0.95999 0.0
C940 C 0.64002 0.38211 0.9287 0.0
C941 C 0.67855 0.39573 0.94971 0.0
C942 C 0.63658 0.40019 0.89868 0.0
C943 C 0.57635 0.40023 0.89932 0.0
N944 N 0.66291 0.39966 0.9345 0.0
N945 N 0.59314 0.38929 0.91256 0.0
H946 H 0.71668 0.0933 0.14972 0.0
H947 H 0.77463 0.23261 0.20916 0.0
H948 H 0.68133 0.1792 0.14379 0.0
H949 H 0.77466 0.1451 0.22666 0.0
H950 H 0.75169 0.21404 0.18092 0.0
H951 H 0.74993 0.11329 0.17354 0.0
C952 C 0.7164 0.11651 0.15316 0.0
C953 C 0.69616 0.13465 0.14484 0.0
C954 C 0.75708 0.19895 0.19091 0.0
C955 C 0.73392 0.1575 0.17213 0.0
C956 C 0.77025 0.20945 0.20695 0.0
C957 C 0.77628 0.19035 0.22028 0.0
C958 C 0.75051 0.16912 0.18813 0.0
C959 C 0.77007 0.16059 0.21679 0.0
C960 C 0.73519 0.12781 0.16684 0.0
C961 C 0.69645 0.16448 0.15 0.0
N962 N 0.7575 0.15088 0.20105 0.0
N963 N 0.71497 0.17501 0.16341 0.0
H964 H 0.05743 0.14054 0.41964 0.0
H965 H 0.99117 0.27911 0.47101 0.0
H966 H 0.07999 0.22854 0.40862 0.0
H967 H 0.98992 0.19145 0.4883 0.0
H968 H 0.0205 0.26188 0.44671 0.0
H969 H 0.02856 0.15962 0.44324 0.0
C970 C 0.05607 0.16395 0.42209 0.0
C971 C 0.071 0.18298 0.41207 0.0
C972 C 0.01383 0.24655 0.4559 0.0
C973 C 0.03816 0.20509 0.43934 0.0
C974 C 0.9971 0.25633 0.46974 0.0
C975 C 0.98806 0.2367 0.4817 0.0
C976 C 0.0212 0.21691 0.45398 0.0
C977 C 0.99637 0.20742 0.47944 0.0
C978 C 0.03977 0.17485 0.43569 0.0
C979 C 0.0689 0.21312 0.4161 0.0
N980 N 0.01229 0.19846 0.46585 0.0
N981 N 0.05267 0.2233 0.42941 0.0
H982 H 0.89567 0.56102 0.64047 0.0
H983 H 0.93691 0.46041 0.71908 0.0
H984 H 0.97972 0.52141 0.6497 0.0
H985 H 0.84726 0.47786 0.70334 0.0
H986 H 0.95242 0.48548 0.69428 0.0
H987 H 0.87676 0.53298 0.66371 0.0
C988 C 0.91005 0.54628 0.64726 0.0
C989 C 0.93932 0.54352 0.64309 0.0
C990 C 0.92932 0.48382 0.69614 0.0
C991 C 0.91796 0.51172 0.66966 0.0
C992 C 0.92041 0.4696 0.7104 0.0
C993 C 0.89071 0.46706 0.71333 0.0
C994 C 0.90847 0.49598 0.68468 0.0
C995 C 0.87039 0.47933 0.70154 0.0
C996 C 0.89923 0.53025 0.66045 0.0
C997 C 0.95693 0.52398 0.65223 0.0
N998 N 0.87966 0.49345 0.68774 0.0
N999 N 0.94604 0.50908 0.66513 0.0
H1000 H 0.67257 0.0707 0.36433 0.0
H1001 H 0.74296 0.21173 0.32664 0.0
H1002 H 0.6947 0.1486 0.39681 0.0
H1003 H 0.74402 0.12536 0.30128 0.0
H1004 H 0.71817 0.19179 0.35087 0.0
H1005 H 0.69193 0.0933 0.33955 0.0
C1006 C 0.68169 0.0925 0.36632 0.0
C1007 C 0.68242 0.10753 0.38283 0.0
C1008 C 0.72371 0.17732 0.33992 0.0
C1009 C 0.70411 0.13387 0.35424 0.0
C1010 C 0.73767 0.18868 0.32607 0.0
C1011 C 0.74567 0.17013 0.31198 0.0
C1012 C 0.71743 0.14732 0.3395 0.0
C1013 C 0.73844 0.14043 0.31193 0.0
C1014 C 0.69256 0.10548 0.3521 0.0
C1015 C 0.69362 0.13617 0.38436 0.0
N1016 N 0.72477 0.12998 0.32547 0.0
N1017 N 0.70414 0.14839 0.37025 0.0
H1018 H 0.07531 0.23934 0.641 0.0
H1019 H 0.92358 0.26928 0.58917 0.0
H1020 H 0.99453 0.20025 0.65384 0.0
H1021 H 0.00536 0.26479 0.56433 0.0
H1022 H 0.94915 0.25695 0.61674 0.0
H1023 H 0.04924 0.26215 0.61652 0.0
C1024 C 0.05199 0.2361 0.63883 0.0
C1025 C 0.03694 0.2179 0.64927 0.0
C1026 C 0.96144 0.259 0.60526 0.0
C1027 C 0.00719 0.24381 0.62161 0.0
C1028 C 0.94695 0.26612 0.58959 0.0
C1029 C 0.96239 0.26776 0.57445 0.0
C1030 C 0.99159 0.25416 0.60582 0.0
C1031 C 0.99262 0.2634 0.57567 0.0
C1032 C 0.03722 0.24891 0.62487 0.0
C1033 C 0.0068 0.21406 0.64594 0.0
N1034 N 0.00627 0.2568 0.5911 0.0
N1035 N 0.99285 0.22691 0.63235 0.0
H1036 H 0.92298 0.5819 0.86403 0.0
H1037 H 0.85374 0.43006 0.82468 0.0
H1038 H 0.90346 0.51064 0.89567 0.0
H1039 H 0.89097 0.49382 0.79321 0.0
H1040 H 0.86652 0.46156 0.85083 0.0
H1041 H 0.90535 0.55236 0.83794 0.0
C1042 C 0.91461 0.56017 0.8655 0.0
C1043 C 0.91475 0.54865 0.88202 0.0
C1044 C 0.87186 0.46865 0.83819 0.0
C1045 C 0.89488 0.51463 0.85223 0.0
C1046 C 0.86456 0.45069 0.82325 0.0
C1047 C 0.87142 0.45923 0.80671 0.0
C1048 C 0.88594 0.49545 0.8366 0.0
C1049 C 0.88541 0.48625 0.80568 0.0
C1050 C 0.90479 0.54324 0.8506 0.0
C1051 C 0.90402 0.52022 0.88315 0.0
N1052 N 0.89219 0.5034 0.82042 0.0
N1053 N 0.89457 0.50415 0.86845 0.0
H1054 H 0.66789 0.44752 0.13841 0.0
H1055 H 0.6605 0.36526 0.04637 0.0
H1056 H 0.60968 0.3736 0.12727 0.0
H1057 H 0.74464 0.3865 0.07202 0.0
H1058 H 0.63791 0.37632 0.07415 0.0
H1059 H 0.69408 0.43235 0.11271 0.0
C1060 C 0.66076 0.42787 0.13085 0.0
C1061 C 0.63612 0.41206 0.13513 0.0
C1062 C 0.66131 0.37849 0.07364 0.0
C1063 C 0.66549 0.39554 0.1052 0.0
C1064 C 0.67416 0.37246 0.05782 0.0
C1065 C 0.70444 0.37504 0.05696 0.0
C1066 C 0.67879 0.38796 0.08852 0.0
C1067 C 0.72121 0.38419 0.0722 0.0
C1068 C 0.67567 0.41945 0.11607 0.0
C1069 C 0.62786 0.38714 0.12435 0.0
N1070 N 0.70811 0.3907 0.08737 0.0
N1071 N 0.64217 0.37997 0.10974 0.0
loop_
_geom_bond_atom_site_label_1
_geom_bond_atom_site_label_2
_geom_bond_distance
_geom_bond_site_symmetry_2
_ccdc_geom_bond_type
H0 C19 0.949 . S
H1 C20 0.950 . S
H2 C22 0.950 1_655 S
H3 C23 0.950 . S
H4 C25 0.950 . S
H5 C28 0.950 . S
H6 C29 0.950 . S
H7 C31 0.951 . S
H8 C32 0.949 . S
H9 C34 0.949 . S
H10 C35 0.950 . S
H11 C37 0.950 . S
H12 C38 0.950 . S
H13 C40 0.950 . S
H14 C43 0.950 . S
H15 C44 0.950 . S
H16 C46 0.951 . S
H17 C47 0.949 . S
C18 C19 1.376 . S
C18 C23 1.386 . S
C18 C24 1.483 . S
C19 H0 0.949 . S
C19 C18 1.376 . S
C19 C20 1.397 . S
C20 H1 0.950 . S
C20 C19 1.397 . S
C20 C21 1.391 . S
C21 C20 1.391 . S
C21 C22 1.405 . S
C22 H2 0.950 1_455 S
C22 C21 1.405 . S
C22 C23 1.367 . S
C23 H3 0.950 . S
C23 C18 1.386 . S
C23 C22 1.367 . S
C24 C18 1.483 . S
C24 C25 1.382 . S
C24 C26 1.403 . S
C25 H4 0.950 . S
C25 C24 1.382 . S
C25 C41 1.411 . S
C26 C24 1.403 . S
C26 C27 1.489 . S
C26 C40 1.411 . S
C27 C26 1.489 . S
C27 C28 1.383 . S
C27 C32 1.382 . S
C28 H5 0.950 . S
C28 C27 1.383 . S
C28 C29 1.395 . S
C29 H6 0.950 . S
C29 C28 1.395 . S
C29 C30 1.288 . S
C30 C29 1.288 . S
C30 C31 1.392 . S
C31 H7 0.951 . S
C31 C30 1.392 . S
C31 C32 1.392 . S
C32 H8 0.949 . S
C32 C27 1.382 . S
C32 C31 1.392 . S
C33 C34 1.376 . S
C33 C38 1.386 1_565 S
C33 C39 1.483 1_565 S
C34 H9 0.949 . S
C34 C33 1.376 . S
C34 C35 1.397 . S
C35 H10 0.950 . S
C35 C34 1.397 . S
C35 C36 1.391 . S
C36 C35 1.391 . S
C36 C37 1.405 . S
C37 H11 0.950 . S
C37 C36 1.405 . S
C37 C38 1.367 1_565 S
C38 H12 0.950 . S
C38 C33 1.386 1_545 S
C38 C37 1.367 1_545 S
C39 C33 1.483 1_545 S
C39 C40 1.382 . S
C39 C41 1.403 . S
C40 H13 0.950 . S
C40 C26 1.411 . S
C40 C39 1.382 . S
C41 C25 1.411 . S
C41 C39 1.403 . S
C41 C42 1.489 . S
C42 C41 1.489 . S
C42 C43 1.383 1_545 S
C42 C47 1.382 . S
C43 H14 0.950 . S
C43 C42 1.383 1_565 S
C43 C44 1.395 . S
C44 H15 0.950 . S
C44 C43 1.395 . S
C44 C45 1.288 . S
C45 C44 1.288 . S
C45 C46 1.392 1_565 S
C46 H16 0.951 . S
C46 C45 1.392 1_545 S
C46 C47 1.392 . S
C47 H17 0.949 . S
C47 C42 1.382 . S
C47 C46 1.392 . S
H48 C67 0.949 . S
H49 C68 0.950 . S
H50 C70 0.950 . S
H51 C71 0.950 . S
H52 C73 0.950 . S
H53 C76 0.950 . S
H54 C77 0.950 . S
H55 C79 0.951 . S
H56 C80 0.949 . S
H57 C82 0.949 . S
H58 C83 0.950 . S
H59 C85 0.950 . S
H60 C86 0.950 . S
H61 C88 0.950 . S
H62 C91 0.950 . S
H63 C92 0.950 . S
H64 C94 0.951 . S
H65 C95 0.949 . S
C66 C67 1.376 . S
C66 C71 1.386 1_455 S
C66 C72 1.483 . S
C67 H48 0.949 . S
C67 C66 1.376 . S
C67 C68 1.397 . S
C68 H49 0.950 . S
C68 C67 1.397 . S
C68 C69 1.391 1_455 S
C69 C68 1.391 1_655 S
C69 C70 1.405 . S
C70 H50 0.950 . S
C70 C69 1.405 . S
C70 C71 1.367 . S
C71 H51 0.950 . S
C71 C66 1.386 1_655 S
C71 C70 1.367 . S
C72 C66 1.483 . S
C72 C73 1.382 . S
C72 C74 1.403 . S
C73 H52 0.950 . S
C73 C72 1.382 . S
C73 C89 1.411 . S
C74 C72 1.403 . S
C74 C75 1.488 . S
C74 C88 1.411 . S
C75 C74 1.488 . S
C75 C76 1.383 . S
C75 C80 1.382 1_455 S
C76 H53 0.950 . S
C76 C75 1.383 . S
C76 C77 1.395 1_455 S
C77 H54 0.950 . S
C77 C76 1.395 1_655 S
C77 C78 1.288 . S
C78 C77 1.288 . S
C78 C79 1.392 . S
C79 H55 0.951 . S
C79 C78 1.392 . S
C79 C80 1.392 . S
C80 H56 0.949 . S
C80 C75 1.382 1_655 S
C80 C79 1.392 . S
C81 C82 1.376 . S
C81 C86 1.386 . S
C81 C87 1.483 . S
C82 H57 0.949 . S
C82 C81 1.376 . S
C82 C83 1.397 . S
C83 H58 0.950 . S
C83 C82 1.397 . S
C83 C84 1.391 . S
C84 C83 1.391 . S
C84 C85 1.405 . S
C85 H59 0.950 . S
C85 C84 1.405 . S
C85 C86 1.367 . S
C86 H60 0.950 . S
C86 C81 1.386 . S
C86 C85 1.367 . S
C87 C81 1.483 . S
C87 C88 1.382 . S
C87 C89 1.403 . S
C88 H61 0.950 . S
C88 C74 1.411 . S
C88 C87 1.382 . S
C89 C73 1.411 . S
C89 C87 1.403 . S
C89 C90 1.489 . S
C90 C89 1.489 . S
C90 C91 1.383 . S
C90 C95 1.382 . S
C91 H62 0.950 . S
C91 C90 1.383 . S
C91 C92 1.395 . S
C92 H63 0.950 . S
C92 C91 1.395 . S
C92 C93 1.288 . S
C93 C92 1.288 . S
C93 C94 1.392 . S
C94 H64 0.951 . S
C94 C93 1.392 . S
C94 C95 1.392 . S
C95 H65 0.949 . S
C95 C90 1.382 . S
C95 C94 1.392 . S
H96 C115 0.949 . S
H97 C116 0.950 . S
H98 C118 0.950 . S
H99 C119 0.950 . S
H100 C121 0.950 . S
H101 C124 0.950 . S
H102 C125 0.950 . S
H103 C127 0.951 . S
H104 C128 0.949 . S
H105 C130 0.949 . S
H106 C131 0.950 . S
H107 C133 0.950 . S
H108 C134 0.950 . S
H109 C136 0.950 . S
H110 C139 0.950 . S
H111 C140 0.950 . S
H112 C142 0.951 . S
H113 C143 0.949 . S
C114 C115 1.376 . S
C114 C119 1.386 . S
C114 C120 1.483 . S
C115 H96 0.949 . S
C115 C114 1.376 . S
C115 C116 1.397 . S
C116 H97 0.950 . S
C116 C115 1.397 . S
C116 C117 1.391 . S
C117 C116 1.391 . S
C117 C118 1.405 . S
C118 H98 0.950 . S
C118 C117 1.405 . S
C118 C119 1.367 . S
C119 H99 0.950 . S
C119 C114 1.386 . S
C119 C118 1.367 . S
C120 C114 1.483 . S
C120 C121 1.382 . S
C120 C122 1.403 . S
C121 H100 0.950 . S
C121 C120 1.382 . S
C121 C137 1.411 . S
C122 C120 1.403 . S
C122 C123 1.489 . S
C122 C136 1.411 . S
C123 C122 1.489 . S
C123 C124 1.383 . S
C123 C128 1.382 . S
C124 H101 0.950 . S
C124 C123 1.383 . S
C124 C125 1.395 . S
C125 H102 0.950 . S
C125 C124 1.395 . S
C125 C126 1.288 . S
C126 C125 1.288 . S
C126 C127 1.392 . S
C127 H103 0.951 . S
C127 C126 1.392 . S
C127 C128 1.392 . S
C128 H104 0.949 . S
C128 C123 1.382 . S
C128 C127 1.392 . S
C129 C130 1.376 . S
C129 C134 1.386 . S
C129 C135 1.483 . S
C130 H105 0.949 . S
C130 C129 1.376 . S
C130 C131 1.397 . S
C131 H106 0.950 . S
C131 C130 1.397 . S
C131 C132 1.391 . S
C132 C131 1.391 . S
C132 C133 1.405 . S
C133 H107 0.950 . S
C133 C132 1.405 . S
C133 C134 1.367 . S
C134 H108 0.950 . S
C134 C129 1.386 . S
C134 C133 1.367 . S
C135 C129 1.483 . S
C135 C136 1.382 . S
C135 C137 1.403 . S
C136 H109 0.950 . S
C136 C122 1.411 . S
C136 C135 1.382 . S
C137 C121 1.411 . S
C137 C135 1.403 . S
C137 C138 1.489 . S
C138 C137 1.489 . S
C138 C139 1.383 . S
C138 C143 1.382 . S
C139 H110 0.950 . S
C139 C138 1.383 . S
C139 C140 1.395 . S
C140 H111 0.950 . S
C140 C139 1.395 . S
C140 C141 1.288 . S
C141 C140 1.288 . S
C141 C142 1.392 . S
C142 H112 0.951 . S
C142 C141 1.392 . S
C142 C143 1.392 . S
C143 H113 0.949 . S
C143 C138 1.382 . S
C143 C142 1.392 . S
H144 C163 0.949 . S
H145 C164 0.950 . S
H146 C166 0.950 . S
H147 C167 0.950 . S
H148 C169 0.950 . S
H149 C172 0.950 . S
H150 C173 0.950 . S
H151 C175 0.951 . S
H152 C176 0.949 . S
H153 C178 0.949 . S
H154 C179 0.950 . S
H155 C181 0.950 . S
H156 C182 0.950 . S
H157 C184 0.950 . S
H158 C187 0.950 . S
H159 C188 0.950 . S
H160 C190 0.951 . S
H161 C191 0.949 . S
C162 C163 1.376 . S
C162 C167 1.386 . S
C162 C168 1.483 . S
C163 H144 0.949 . S
C163 C162 1.376 . S
C163 C164 1.397 . S
C164 H145 0.950 . S
C164 C163 1.397 . S
C164 C165 1.391 . S
C165 C164 1.391 . S
C165 C166 1.405 . S
C166 H146 0.950 . S
C166 C165 1.405 . S
C166 C167 1.367 . S
C167 H147 0.950 . S
C167 C162 1.386 . S
C167 C166 1.367 . S
C168 C162 1.483 . S
C168 C169 1.382 . S
C168 C170 1.403 . S
C169 H148 0.950 . S
C169 C168 1.382 . S
C169 C185 1.411 1_565 S
C170 C168 1.403 . S
C170 C171 1.489 . S
C170 C184 1.411 1_565 S
C171 C170 1.489 . S
C171 C172 1.383 . S
C171 C176 1.382 . S
C172 H149 0.950 . S
C172 C171 1.383 . S
C172 C173 1.395 . S
C173 H150 0.950 . S
C173 C172 1.395 . S
C173 C174 1.288 . S
C174 C173 1.288 . S
C174 C175 1.392 . S
C175 H151 0.951 . S
C175 C174 1.392 . S
C175 C176 1.392 . S
C176 H152 0.949 . S
C176 C171 1.382 . S
C176 C175 1.392 . S
C177 C178 1.376 . S
C177 C182 1.386 . S
C177 C183 1.483 . S
C178 H153 0.949 . S
C178 C177 1.376 . S
C178 C179 1.397 . S
C179 H154 0.950 . S
C179 C178 1.397 . S
C179 C180 1.391 . S
C180 C179 1.391 . S
C180 C181 1.405 . S
C181 H155 0.950 . S
C181 C180 1.405 . S
C181 C182 1.367 . S
C182 H156 0.950 . S
C182 C177 1.386 . S
C182 C181 1.367 . S
C183 C177 1.483 . S
C183 C184 1.382 . S
C183 C185 1.403 . S
C184 H157 0.950 . S
C184 C170 1.411 1_545 S
C184 C183 1.382 . S
C185 C169 1.411 1_545 S
C185 C183 1.403 . S
C185 C186 1.489 . S
C186 C185 1.489 . S
C186 C187 1.383 . S
C186 C191 1.382 . S
C187 H158 0.950 . S
C187 C186 1.383 . S
C187 C188 1.395 . S
C188 H159 0.950 . S
C188 C187 1.395 . S
C188 C189 1.288 . S
C189 C188 1.288 . S
C189 C190 1.392 . S
C190 H160 0.951 . S
C190 C189 1.392 . S
C190 C191 1.392 . S
C191 H161 0.949 . S
C191 C186 1.382 . S
C191 C190 1.392 . S
H192 C211 0.949 . S
H193 C212 0.950 . S
H194 C214 0.950 . S
H195 C215 0.950 . S
H196 C217 0.950 . S
H197 C220 0.950 . S
H198 C221 0.950 . S
H199 C223 0.951 1_554 S
H200 C224 0.949 . S
H201 C226 0.949 . S
H202 C227 0.950 . S
H203 C229 0.950 . S
H204 C230 0.950 . S
H205 C232 0.950 . S
H206 C235 0.950 . S
H207 C236 0.950 . S
H208 C238 0.951 . S
H209 C239 0.949 . S
C210 C211 1.376 . S
C210 C215 1.386 . S
C210 C216 1.483 . S
C211 H192 0.949 . S
C211 C210 1.376 . S
C211 C212 1.397 . S
C212 H193 0.950 . S
C212 C211 1.397 . S
C212 C213 1.391 . S
C213 C212 1.391 . S
C213 C214 1.405 . S
C214 H194 0.950 . S
C214 C213 1.405 . S
C214 C215 1.367 . S
C215 H195 0.950 . S
C215 C210 1.386 . S
C215 C214 1.367 . S
C216 C210 1.483 . S
C216 C217 1.382 1_455 S
C216 C218 1.403 . S
C217 H196 0.950 . S
C217 C216 1.382 1_655 S
C217 C233 1.411 . S
C218 C216 1.403 . S
C218 C219 1.489 . S
C218 C232 1.411 . S
C219 C218 1.489 . S
C219 C220 1.383 . S
C219 C224 1.382 . S
C220 H197 0.950 . S
C220 C219 1.383 . S
C220 C221 1.395 . S
C221 H198 0.950 . S
C221 C220 1.395 . S
C221 C222 1.287 . S
C222 C221 1.287 . S
C222 C223 1.392 . S
C223 H199 0.951 1_556 S
C223 C222 1.392 . S
C223 C224 1.392 . S
C224 H200 0.949 . S
C224 C219 1.382 . S
C224 C223 1.392 . S
C225 C226 1.376 . S
C225 C230 1.386 . S
C225 C231 1.483 . S
C226 H201 0.949 . S
C226 C225 1.376 . S
C226 C227 1.397 . S
C227 H202 0.950 . S
C227 C226 1.397 . S
C227 C228 1.391 . S
C228 C227 1.391 . S
C228 C229 1.405 . S
C229 H203 0.950 . S
C229 C228 1.405 . S
C229 C230 1.367 . S
C230 H204 0.950 . S
C230 C225 1.386 . S
C230 C229 1.367 . S
C231 C225 1.483 . S
C231 C232 1.382 1_655 S
C231 C233 1.403 . S
C232 H205 0.950 . S
C232 C218 1.411 . S
C232 C231 1.382 1_455 S
C233 C217 1.411 . S
C233 C231 1.403 . S
C233 C234 1.489 . S
C234 C233 1.489 . S
C234 C235 1.383 . S
C234 C239 1.382 . S
C235 H206 0.950 . S
C235 C234 1.383 . S
C235 C236 1.395 . S
C236 H207 0.950 . S
C236 C235 1.395 . S
C236 C237 1.288 . S
C237 C236 1.288 . S
C237 C238 1.392 . S
C238 H208 0.951 . S
C238 C237 1.392 . S
C238 C239 1.392 . S
C239 H209 0.949 . S
C239 C234 1.382 . S
C239 C238 1.392 . S
H240 C259 0.949 . S
H241 C260 0.950 . S
H242 C262 0.950 . S
H243 C263 0.950 . S
H244 C265 0.950 . S
H245 C268 0.950 . S
H246 C269 0.950 . S
H247 C271 0.951 . S
H248 C272 0.949 . S
H249 C274 0.949 . S
H250 C275 0.950 . S
H251 C277 0.950 . S
H252 C278 0.950 . S
H253 C280 0.950 . S
H254 C283 0.950 . S
H255 C284 0.950 . S
H256 C286 0.951 . S
H257 C287 0.949 . S
C258 C259 1.376 . S
C258 C263 1.386 . S
C258 C264 1.483 . S
C259 H240 0.949 . S
C259 C258 1.376 . S
C259 C260 1.397 . S
C260 H241 0.950 . S
C260 C259 1.397 . S
C260 C261 1.391 . S
C261 C260 1.391 . S
C261 C262 1.405 . S
C262 H242 0.950 . S
C262 C261 1.405 . S
C262 C263 1.367 . S
C263 H243 0.950 . S
C263 C258 1.386 . S
C263 C262 1.367 . S
C264 C258 1.483 . S
C264 C265 1.382 . S
C264 C266 1.403 . S
C265 H244 0.950 . S
C265 C264 1.382 . S
C265 C281 1.411 . S
C266 C264 1.403 . S
C266 C267 1.489 . S
C266 C280 1.411 . S
C267 C266 1.489 . S
C267 C268 1.383 . S
C267 C272 1.382 . S
C268 H245 0.950 . S
C268 C267 1.383 . S
C268 C269 1.395 . S
C269 H246 0.950 . S
C269 C268 1.395 . S
C269 C270 1.288 . S
C270 C269 1.288 . S
C270 C271 1.392 . S
C271 H247 0.951 . S
C271 C270 1.392 . S
C271 C272 1.392 . S
C272 H248 0.949 . S
C272 C267 1.382 . S
C272 C271 1.392 . S
C273 C274 1.376 . S
C273 C278 1.386 . S
C273 C279 1.483 . S
C274 H249 0.949 . S
C274 C273 1.376 . S
C274 C275 1.397 . S
C275 H250 0.950 . S
C275 C274 1.397 . S
C275 C276 1.391 . S
C276 C275 1.391 . S
C276 C277 1.405 . S
C277 H251 0.950 . S
C277 C276 1.405 . S
C277 C278 1.367 . S
C278 H252 0.950 . S
C278 C273 1.386 . S
C278 C277 1.367 . S
C279 C273 1.483 . S
C279 C280 1.382 . S
C279 C281 1.403 . S
C280 H253 0.950 . S
C280 C266 1.411 . S
C280 C279 1.382 . S
C281 C265 1.411 . S
C281 C279 1.403 . S
C281 C282 1.489 . S
C282 C281 1.489 . S
C282 C283 1.383 . S
C282 C287 1.382 . S
C283 H254 0.950 . S
C283 C282 1.383 . S
C283 C284 1.395 . S
C284 H255 0.950 . S
C284 C283 1.395 . S
C284 C285 1.288 . S
C285 C284 1.288 . S
C285 C286 1.392 . S
C286 H256 0.951 . S
C286 C285 1.392 . S
C286 C287 1.392 . S
C287 H257 0.949 . S
C287 C282 1.382 . S
C287 C286 1.392 . S
H288 C307 0.949 . S
H289 C308 0.950 . S
H290 C310 0.950 . S
H291 C311 0.950 1_545 S
H292 C313 0.950 . S
H293 C316 0.950 . S
H294 C317 0.950 . S
H295 C319 0.951 . S
H296 C320 0.949 . S
H297 C322 0.949 . S
H298 C323 0.950 . S
H299 C325 0.950 . S
H300 C326 0.950 . S
H301 C328 0.950 . S
H302 C331 0.950 . S
H303 C332 0.950 . S
H304 C334 0.951 . S
H305 C335 0.949 . S
C306 C307 1.376 . S
C306 C311 1.386 . S
C306 C312 1.483 1_565 S
C307 H288 0.949 . S
C307 C306 1.376 . S
C307 C308 1.397 . S
C308 H289 0.950 . S
C308 C307 1.397 . S
C308 C309 1.391 . S
C309 C308 1.391 . S
C309 C310 1.405 . S
C310 H290 0.950 . S
C310 C309 1.405 . S
C310 C311 1.367 . S
C311 H291 0.950 1_565 S
C311 C306 1.386 . S
C311 C310 1.367 . S
C312 C306 1.483 1_545 S
C312 C313 1.382 . S
C312 C314 1.403 . S
C313 H292 0.950 . S
C313 C312 1.382 . S
C313 C329 1.411 . S
C314 C312 1.403 . S
C314 C315 1.489 . S
C314 C328 1.411 . S
C315 C314 1.489 . S
C315 C316 1.383 1_545 S
C315 C320 1.382 . S
C316 H293 0.950 . S
C316 C315 1.383 1_565 S
C316 C317 1.395 . S
C317 H294 0.950 . S
C317 C316 1.395 . S
C317 C318 1.288 . S
C318 C317 1.288 . S
C318 C319 1.392 1_565 S
C319 H295 0.951 . S
C319 C318 1.392 1_545 S
C319 C320 1.392 . S
C320 H296 0.949 . S
C320 C315 1.382 . S
C320 C319 1.392 . S
C321 C322 1.376 . S
C321 C326 1.386 . S
C321 C327 1.483 . S
C322 H297 0.949 . S
C322 C321 1.376 . S
C322 C323 1.397 . S
C323 H298 0.950 . S
C323 C322 1.397 . S
C323 C324 1.391 . S
C324 C323 1.391 . S
C324 C325 1.405 . S
C325 H299 0.950 . S
C325 C324 1.405 . S
C325 C326 1.367 . S
C326 H300 0.950 . S
C326 C321 1.386 . S
C326 C325 1.367 . S
C327 C321 1.483 . S
C327 C328 1.382 . S
C327 C329 1.403 . S
C328 H301 0.950 . S
C328 C314 1.411 . S
C328 C327 1.382 . S
C329 C313 1.411 . S
C329 C327 1.403 . S
C329 C330 1.489 . S
C330 C329 1.489 . S
C330 C331 1.383 . S
C330 C335 1.382 . S
C331 H302 0.950 . S
C331 C330 1.383 . S
C331 C332 1.395 . S
C332 H303 0.950 . S
C332 C331 1.395 . S
C332 C333 1.288 . S
C333 C332 1.288 . S
C333 C334 1.392 . S
C334 H304 0.951 . S
C334 C333 1.392 . S
C334 C335 1.392 . S
C335 H305 0.949 . S
C335 C330 1.382 . S
C335 C334 1.392 . S
H336 C355 0.949 . S
H337 C356 0.950 . S
H338 C358 0.950 1_655 S
H339 C359 0.950 . S
H340 C361 0.950 . S
H341 C364 0.950 . S
H342 C365 0.950 . S
H343 C367 0.951 . S
H344 C368 0.949 . S
H345 C370 0.949 . S
H346 C371 0.950 . S
H347 C373 0.950 . S
H348 C374 0.950 . S
H349 C376 0.950 . S
H350 C379 0.950 . S
H351 C380 0.950 . S
H352 C382 0.951 . S
H353 C383 0.949 . S
C354 C355 1.376 . S
C354 C359 1.386 . S
C354 C360 1.483 . S
C355 H336 0.949 . S
C355 C354 1.376 . S
C355 C356 1.397 . S
C356 H337 0.950 . S
C356 C355 1.397 . S
C356 C357 1.391 . S
C357 C356 1.391 . S
C357 C358 1.405 . S
C358 H338 0.950 1_455 S
C358 C357 1.405 . S
C358 C359 1.367 . S
C359 H339 0.950 . S
C359 C354 1.386 . S
C359 C358 1.367 . S
C360 C354 1.483 . S
C360 C361 1.382 . S
C360 C362 1.403 . S
C361 H340 0.950 . S
C361 C360 1.382 . S
C361 C377 1.411 . S
C362 C360 1.403 . S
C362 C363 1.489 . S
C362 C376 1.411 . S
C363 C362 1.489 . S
C363 C364 1.383 . S
C363 C368 1.382 . S
C364 H341 0.950 . S
C364 C363 1.383 . S
C364 C365 1.395 . S
C365 H342 0.950 . S
C365 C364 1.395 . S
C365 C366 1.288 . S
C366 C365 1.288 . S
C366 C367 1.392 . S
C367 H343 0.951 . S
C367 C366 1.392 . S
C367 C368 1.392 . S
C368 H344 0.949 . S
C368 C363 1.382 . S
C368 C367 1.392 . S
C369 C370 1.376 . S
C369 C374 1.386 . S
C369 C375 1.483 . S
C370 H345 0.949 . S
C370 C369 1.376 . S
C370 C371 1.397 . S
C371 H346 0.950 . S
C371 C370 1.397 . S
C371 C372 1.391 . S
C372 C371 1.391 . S
C372 C373 1.405 . S
C373 H347 0.950 . S
C373 C372 1.405 . S
C373 C374 1.367 . S
C374 H348 0.950 . S
C374 C369 1.386 . S
C374 C373 1.367 . S
C375 C369 1.483 . S
C375 C376 1.382 . S
C375 C377 1.403 . S
C376 H349 0.950 . S
C376 C362 1.411 . S
C376 C375 1.382 . S
C377 C361 1.411 . S
C377 C375 1.403 . S
C377 C378 1.489 . S
C378 C377 1.489 . S
C378 C379 1.383 . S
C378 C383 1.382 . S
C379 H350 0.950 . S
C379 C378 1.383 . S
C379 C380 1.395 . S
C380 H351 0.950 . S
C380 C379 1.395 . S
C380 C381 1.288 . S
C381 C380 1.288 . S
C381 C382 1.392 . S
C382 H352 0.951 . S
C382 C381 1.392 . S
C382 C383 1.392 . S
C383 H353 0.949 . S
C383 C378 1.382 . S
C383 C382 1.392 . S
O384 Cd385 2.223 . S
O384 C392 1.315 . S
Cd385 O384 2.223 . S
Cd385 O388 2.297 . S
Cd385 O389 2.439 . S
Cd385 O395 2.240 . S
Cd386 O387 2.240 . S
Cd386 O394 2.223 . S
Cd386 O396 2.297 . S
Cd386 O397 2.439 . S
O387 Cd386 2.240 . S
O387 C392 1.279 . S
O388 Cd385 2.297 . S
O388 C390 1.247 . S
O389 Cd385 2.439 . S
O389 C390 1.208 . S
C390 O388 1.247 . S
C390 O389 1.208 . S
C391 O396 1.247 . S
C391 O397 1.208 . S
C392 O384 1.315 . S
C392 O387 1.279 . S
C393 O394 1.315 . S
C393 O395 1.279 . S
O394 Cd386 2.223 . S
O394 C393 1.315 . S
O395 Cd385 2.240 . S
O395 C393 1.279 . S
O396 Cd386 2.297 . S
O396 C391 1.247 . S
O397 Cd386 2.439 . S
O397 C391 1.208 . S
O398 Cd399 2.223 . S
O398 C406 1.315 . S
Cd399 O398 2.223 . S
Cd399 O402 2.297 . S
Cd399 O403 2.439 . S
Cd399 O409 2.240 . S
Cd400 O401 2.240 . S
Cd400 O408 2.223 . S
Cd400 O410 2.297 . S
Cd400 O411 2.439 . S
O401 Cd400 2.240 . S
O401 C406 1.279 . S
O402 Cd399 2.297 . S
O402 C404 1.247 . S
O403 Cd399 2.439 . S
O403 C404 1.208 . S
C404 O402 1.247 . S
C404 O403 1.208 . S
C405 O410 1.247 . S
C405 O411 1.208 . S
C406 O398 1.315 . S
C406 O401 1.279 . S
C407 O408 1.315 . S
C407 O409 1.279 . S
O408 Cd400 2.223 . S
O408 C407 1.315 . S
O409 Cd399 2.240 . S
O409 C407 1.279 . S
O410 Cd400 2.297 . S
O410 C405 1.247 . S
O411 Cd400 2.439 . S
O411 C405 1.208 . S
O412 Cd413 2.223 . S
O412 C420 1.315 . S
Cd413 O412 2.223 . S
Cd413 O416 2.297 . S
Cd413 O417 2.439 . S
Cd413 O423 2.240 . S
Cd414 O415 2.240 . S
Cd414 O422 2.223 . S
Cd414 O424 2.297 . S
Cd414 O425 2.439 . S
O415 Cd414 2.240 . S
O415 C420 1.279 . S
O416 Cd413 2.297 . S
O416 C418 1.247 . S
O417 Cd413 2.439 . S
O417 C418 1.208 . S
C418 O416 1.247 . S
C418 O417 1.208 . S
C419 O424 1.247 . S
C419 O425 1.208 . S
C420 O412 1.315 . S
C420 O415 1.279 . S
C421 O422 1.315 . S
C421 O423 1.279 . S
O422 Cd414 2.223 . S
O422 C421 1.315 . S
O423 Cd413 2.240 . S
O423 C421 1.279 . S
O424 Cd414 2.297 . S
O424 C419 1.247 . S
O425 Cd414 2.439 . S
O425 C419 1.208 . S
O426 Cd427 2.223 . S
O426 C434 1.315 . S
Cd427 O426 2.223 . S
Cd427 O430 2.297 . S
Cd427 O431 2.439 . S
Cd427 O437 2.240 . S
Cd428 O429 2.240 . S
Cd428 O436 2.223 . S
Cd428 O438 2.297 . S
Cd428 O439 2.439 . S
O429 Cd428 2.240 . S
O429 C434 1.279 . S
O430 Cd427 2.297 . S
O430 C432 1.247 . S
O431 Cd427 2.439 . S
O431 C432 1.208 . S
C432 O430 1.247 . S
C432 O431 1.208 . S
C433 O438 1.247 . S
C433 O439 1.208 . S
C434 O426 1.315 . S
C434 O429 1.279 . S
C435 O436 1.315 . S
C435 O437 1.279 . S
O436 Cd428 2.223 . S
O436 C435 1.315 . S
O437 Cd427 2.240 . S
O437 C435 1.279 . S
O438 Cd428 2.297 . S
O438 C433 1.247 . S
O439 Cd428 2.439 . S
O439 C433 1.208 . S
O440 Cd441 2.223 . S
O440 C448 1.315 . S
Cd441 O440 2.223 . S
Cd441 O444 2.297 . S
Cd441 O445 2.439 . S
Cd441 O451 2.240 . S
Cd442 O443 2.240 . S
Cd442 O450 2.223 . S
Cd442 O452 2.297 . S
Cd442 O453 2.439 . S
O443 Cd442 2.240 . S
O443 C448 1.279 . S
O444 Cd441 2.297 . S
O444 C446 1.247 . S
O445 Cd441 2.439 . S
O445 C446 1.208 . S
C446 O444 1.247 . S
C446 O445 1.208 . S
C447 O452 1.247 . S
C447 O453 1.208 . S
C448 O440 1.315 . S
C448 O443 1.279 . S
C449 O450 1.315 . S
C449 O451 1.279 . S
O450 Cd442 2.223 . S
O450 C449 1.315 . S
O451 Cd441 2.240 . S
O451 C449 1.279 . S
O452 Cd442 2.297 . S
O452 C447 1.247 . S
O453 Cd442 2.439 . S
O453 C447 1.208 . S
O454 Cd455 2.223 . S
O454 C462 1.315 . S
Cd455 O454 2.223 . S
Cd455 O458 2.297 . S
Cd455 O459 2.439 . S
Cd455 O465 2.240 . S
Cd456 O457 2.240 . S
Cd456 O464 2.223 . S
Cd456 O466 2.297 . S
Cd456 O467 2.439 . S
O457 Cd456 2.240 . S
O457 C462 1.279 . S
O458 Cd455 2.297 . S
O458 C460 1.247 . S
O459 Cd455 2.439 . S
O459 C460 1.208 . S
C460 O458 1.247 . S
C460 O459 1.208 . S
C461 O466 1.247 . S
C461 O467 1.208 . S
C462 O454 1.315 . S
C462 O457 1.279 . S
C463 O464 1.315 . S
C463 O465 1.279 . S
O464 Cd456 2.223 . S
O464 C463 1.315 . S
O465 Cd455 2.240 . S
O465 C463 1.279 . S
O466 Cd456 2.297 . S
O466 C461 1.247 . S
O467 Cd456 2.439 . S
O467 C461 1.208 . S
O468 Cd469 2.223 . S
O468 C476 1.315 . S
Cd469 O468 2.223 . S
Cd469 O472 2.297 . S
Cd469 O473 2.439 . S
Cd469 O479 2.240 1_554 S
Cd470 O471 2.240 1_556 S
Cd470 O478 2.223 . S
Cd470 O480 2.297 . S
Cd470 O481 2.439 . S
O471 Cd470 2.240 1_554 S
O471 C476 1.279 . S
O472 Cd469 2.297 . S
O472 C474 1.247 . S
O473 Cd469 2.439 . S
O473 C474 1.208 . S
C474 O472 1.247 . S
C474 O473 1.208 . S
C475 O480 1.247 . S
C475 O481 1.208 . S
C476 O468 1.315 . S
C476 O471 1.279 . S
C477 O478 1.319 . S
C477 O479 1.279 . S
O478 Cd470 2.223 . S
O478 C477 1.319 . S
O479 Cd469 2.240 1_556 S
O479 C477 1.279 . S
O480 Cd470 2.297 . S
O480 C475 1.247 . S
O481 Cd470 2.439 . S
O481 C475 1.208 . S
O482 Cd483 2.223 . S
O482 C490 1.315 . S
Cd483 O482 2.223 . S
Cd483 O486 2.297 . S
Cd483 O487 2.439 . S
Cd483 O493 2.240 . S
Cd484 O485 2.240 . S
Cd484 O492 2.223 . S
Cd484 O494 2.297 . S
Cd484 O495 2.439 . S
O485 Cd484 2.240 . S
O485 C490 1.279 . S
O486 Cd483 2.297 . S
O486 C488 1.247 . S
O487 Cd483 2.439 . S
O487 C488 1.208 . S
C488 O486 1.247 . S
C488 O487 1.208 . S
C489 O494 1.247 . S
C489 O495 1.208 . S
C490 O482 1.315 . S
C490 O485 1.279 . S
C491 O492 1.315 . S
C491 O493 1.279 . S
O492 Cd484 2.223 . S
O492 C491 1.315 . S
O493 Cd483 2.240 . S
O493 C491 1.279 . S
O494 Cd484 2.297 . S
O494 C489 1.247 . S
O495 Cd484 2.439 . S
O495 C489 1.208 . S
H496 C502 0.930 . S
H497 C506 0.930 . S
H498 C511 0.929 . S
H499 C509 0.929 . S
H500 C504 0.929 . S
H501 C510 0.929 . S
C502 H496 0.930 . S
C502 C503 1.367 . S
C502 C510 1.378 . S
C503 C502 1.367 . S
C503 C511 1.433 . S
C504 H500 0.929 . S
C504 C506 1.378 . S
C504 C508 1.350 . S
C505 C508 1.463 . S
C505 C510 1.350 . S
C505 N513 1.427 . S
C506 H497 0.930 . S
C506 C504 1.378 . S
C506 C507 1.367 . S
C507 C506 1.367 . S
C507 C509 1.433 . S
C508 C504 1.350 . S
C508 C505 1.463 . S
C508 N512 1.427 . S
C509 H499 0.929 . S
C509 C507 1.433 . S
C509 N512 1.384 . S
C510 H501 0.929 . S
C510 C502 1.378 . S
C510 C505 1.350 . S
C511 H498 0.929 . S
C511 C503 1.433 . S
C511 N513 1.384 . S
N512 C508 1.427 . S
N512 C509 1.384 . S
N513 C505 1.427 . S
N513 C511 1.384 . S
H514 C520 0.930 . S
H515 C524 0.930 . S
H516 C529 0.929 . S
H517 C527 0.929 . S
H518 C522 0.929 . S
H519 C528 0.929 . S
C520 H514 0.930 . S
C520 C521 1.367 . S
C520 C528 1.378 . S
C521 C520 1.367 . S
C521 C529 1.433 . S
C522 H518 0.929 . S
C522 C524 1.378 . S
C522 C526 1.350 . S
C523 C526 1.463 . S
C523 C528 1.350 . S
C523 N531 1.427 . S
C524 H515 0.930 . S
C524 C522 1.378 . S
C524 C525 1.367 . S
C525 C524 1.367 . S
C525 C527 1.433 . S
C526 C522 1.350 . S
C526 C523 1.463 . S
C526 N530 1.427 . S
C527 H517 0.929 . S
C527 C525 1.433 . S
C527 N530 1.384 . S
C528 H519 0.929 . S
C528 C520 1.378 . S
C528 C523 1.350 . S
C529 H516 0.929 . S
C529 C521 1.433 . S
C529 N531 1.384 . S
N530 C526 1.427 . S
N530 C527 1.384 . S
N531 C523 1.427 . S
N531 C529 1.384 . S
H532 C538 0.930 . S
H533 C542 0.930 . S
H534 C547 0.929 . S
H535 C545 0.929 . S
H536 C540 0.929 . S
H537 C546 0.929 . S
C538 H532 0.930 . S
C538 C539 1.367 . S
C538 C546 1.378 . S
C539 C538 1.367 . S
C539 C547 1.433 . S
C540 H536 0.929 . S
C540 C542 1.378 . S
C540 C544 1.350 . S
C541 C544 1.463 . S
C541 C546 1.350 . S
C541 N549 1.427 . S
C542 H533 0.930 . S
C542 C540 1.378 . S
C542 C543 1.367 . S
C543 C542 1.367 . S
C543 C545 1.433 . S
C544 C540 1.350 . S
C544 C541 1.463 . S
C544 N548 1.427 . S
C545 H535 0.929 . S
C545 C543 1.433 . S
C545 N548 1.384 . S
C546 H537 0.929 . S
C546 C538 1.378 . S
C546 C541 1.350 . S
C547 H534 0.929 . S
C547 C539 1.433 . S
C547 N549 1.384 . S
N548 C544 1.427 . S
N548 C545 1.384 . S
N549 C541 1.427 . S
N549 C547 1.384 . S
H550 C556 0.930 . S
H551 C560 0.930 . S
H552 C565 0.929 . S
H553 C563 0.929 . S
H554 C558 0.929 . S
H555 C564 0.929 . S
C556 H550 0.930 . S
C556 C557 1.367 . S
C556 C564 1.378 . S
C557 C556 1.367 . S
C557 C565 1.433 . S
C558 H554 0.929 . S
C558 C560 1.378 . S
C558 C562 1.350 . S
C559 C562 1.463 . S
C559 C564 1.350 . S
C559 N567 1.427 . S
C560 H551 0.930 . S
C560 C558 1.378 . S
C560 C561 1.367 . S
C561 C560 1.367 . S
C561 C563 1.433 . S
C562 C558 1.350 . S
C562 C559 1.463 . S
C562 N566 1.427 . S
C563 H553 0.929 . S
C563 C561 1.433 . S
C563 N566 1.384 . S
C564 H555 0.929 . S
C564 C556 1.378 . S
C564 C559 1.350 . S
C565 H552 0.929 . S
C565 C557 1.433 . S
C565 N567 1.384 . S
N566 C562 1.427 . S
N566 C563 1.384 . S
N567 C559 1.427 . S
N567 C565 1.384 . S
H568 C574 0.930 . S
H569 C578 0.930 . S
H570 C583 0.929 . S
H571 C581 0.929 . S
H572 C576 0.929 1_556 S
H573 C582 0.929 . S
C574 H568 0.930 . S
C574 C575 1.367 . S
C574 C582 1.378 . S
C575 C574 1.367 . S
C575 C583 1.433 1_554 S
C576 H572 0.929 1_554 S
C576 C578 1.378 . S
C576 C580 1.350 . S
C577 C580 1.463 . S
C577 C582 1.350 . S
C577 N585 1.427 1_554 S
C578 H569 0.930 . S
C578 C576 1.378 . S
C578 C579 1.367 . S
C579 C578 1.367 . S
C579 C581 1.433 . S
C580 C576 1.350 . S
C580 C577 1.463 . S
C580 N584 1.427 . S
C581 H571 0.929 . S
C581 C579 1.433 . S
C581 N584 1.384 . S
C582 H573 0.929 . S
C582 C574 1.378 . S
C582 C577 1.350 . S
C583 H570 0.929 . S
C583 C575 1.433 1_556 S
C583 N585 1.384 . S
N584 C580 1.427 . S
N584 C581 1.384 . S
N585 C577 1.427 1_556 S
N585 C583 1.384 . S
H586 C592 0.930 . S
H587 C596 0.930 . S
H588 C601 0.929 . S
H589 C599 0.929 . S
H590 C594 0.929 . S
H591 C600 0.929 . S
C592 H586 0.930 . S
C592 C593 1.367 . S
C592 C600 1.378 . S
C593 C592 1.367 . S
C593 C601 1.433 . S
C594 H590 0.929 . S
C594 C596 1.378 . S
C594 C598 1.350 . S
C595 C598 1.463 . S
C595 C600 1.350 . S
C595 N603 1.427 . S
C596 H587 0.930 . S
C596 C594 1.378 . S
C596 C597 1.367 . S
C597 C596 1.367 . S
C597 C599 1.433 . S
C598 C594 1.350 . S
C598 C595 1.463 . S
C598 N602 1.427 . S
C599 H589 0.929 . S
C599 C597 1.433 . S
C599 N602 1.384 . S
C600 H591 0.929 . S
C600 C592 1.378 . S
C600 C595 1.350 . S
C601 H588 0.929 . S
C601 C593 1.433 . S
C601 N603 1.384 . S
N602 C598 1.427 . S
N602 C599 1.384 . S
N603 C595 1.427 . S
N603 C601 1.384 . S
H604 C610 0.930 . S
H605 C614 0.930 . S
H606 C619 0.929 . S
H607 C617 0.929 . S
H608 C612 0.929 . S
H609 C618 0.929 . S
C610 H604 0.930 . S
C610 C611 1.367 . S
C610 C618 1.378 . S
C611 C610 1.367 . S
C611 C619 1.433 . S
C612 H608 0.929 . S
C612 C614 1.378 . S
C612 C616 1.350 . S
C613 C616 1.463 . S
C613 C618 1.350 . S
C613 N621 1.427 . S
C614 H605 0.930 . S
C614 C612 1.378 . S
C614 C615 1.367 . S
C615 C614 1.367 . S
C615 C617 1.433 . S
C616 C612 1.350 . S
C616 C613 1.463 . S
C616 N620 1.427 . S
C617 H607 0.929 . S
C617 C615 1.433 . S
C617 N620 1.384 . S
C618 H609 0.929 . S
C618 C610 1.378 . S
C618 C613 1.350 . S
C619 H606 0.929 . S
C619 C611 1.433 . S
C619 N621 1.384 . S
N620 C616 1.427 . S
N620 C617 1.384 . S
N621 C613 1.427 . S
N621 C619 1.384 . S
H622 C628 0.930 . S
H623 C632 0.930 . S
H624 C637 0.929 . S
H625 C635 0.929 . S
H626 C630 0.929 . S
H627 C636 0.929 . S
C628 H622 0.930 . S
C628 C629 1.367 . S
C628 C636 1.378 . S
C629 C628 1.367 . S
C629 C637 1.433 . S
C630 H626 0.929 . S
C630 C632 1.378 . S
C630 C634 1.350 . S
C631 C634 1.466 1_545 S
C631 C636 1.347 . S
C631 N639 1.427 . S
C632 H623 0.930 . S
C632 C630 1.378 . S
C632 C633 1.367 . S
C633 C632 1.367 . S
C633 C635 1.433 . S
C634 C630 1.350 . S
C634 C631 1.466 1_565 S
C634 N638 1.427 . S
C635 H625 0.929 . S
C635 C633 1.433 . S
C635 N638 1.384 . S
C636 H627 0.929 . S
C636 C628 1.378 . S
C636 C631 1.347 . S
C637 H624 0.929 . S
C637 C629 1.433 . S
C637 N639 1.384 . S
N638 C634 1.427 . S
N638 C635 1.384 . S
N639 C631 1.427 . S
N639 C637 1.384 . S
H640 C646 0.930 . S
H641 C650 0.930 . S
H642 C655 0.929 . S
H643 C653 0.929 . S
H644 C648 0.929 . S
H645 C654 0.929 . S
C646 H640 0.930 . S
C646 C647 1.367 . S
C646 C654 1.378 . S
C647 C646 1.367 . S
C647 C655 1.433 . S
C648 H644 0.929 . S
C648 C650 1.378 . S
C648 C652 1.350 . S
C649 C652 1.463 . S
C649 C654 1.350 . S
C649 N657 1.427 . S
C650 H641 0.930 . S
C650 C648 1.378 . S
C650 C651 1.367 . S
C651 C650 1.367 . S
C651 C653 1.433 . S
C652 C648 1.350 . S
C652 C649 1.463 . S
C652 N656 1.427 . S
C653 H643 0.929 . S
C653 C651 1.433 . S
C653 N656 1.384 . S
C654 H645 0.929 . S
C654 C646 1.378 . S
C654 C649 1.350 . S
C655 H642 0.929 . S
C655 C647 1.433 . S
C655 N657 1.384 . S
N656 C652 1.427 . S
N656 C653 1.384 . S
N657 C649 1.427 . S
N657 C655 1.384 . S
H658 C664 0.930 . S
H659 C668 0.930 1_556 S
H660 C673 0.929 . S
H661 C671 0.929 . S
H662 C666 0.929 . S
H663 C672 0.929 . S
C664 H658 0.930 . S
C664 C665 1.367 . S
C664 C672 1.378 . S
C665 C664 1.367 . S
C665 C673 1.433 . S
C666 H662 0.929 . S
C666 C668 1.378 . S
C666 C670 1.350 . S
C667 C670 1.463 . S
C667 C672 1.350 . S
C667 N675 1.427 . S
C668 H659 0.930 1_554 S
C668 C666 1.378 . S
C668 C669 1.367 . S
C669 C668 1.367 . S
C669 C671 1.433 . S
C670 C666 1.350 . S
C670 C667 1.463 . S
C670 N674 1.427 . S
C671 H661 0.929 . S
C671 C669 1.433 . S
C671 N674 1.384 . S
C672 H663 0.929 . S
C672 C664 1.378 . S
C672 C667 1.350 . S
C673 H660 0.929 . S
C673 C665 1.433 . S
C673 N675 1.384 . S
N674 C670 1.427 . S
N674 C671 1.384 . S
N675 C667 1.427 . S
N675 C673 1.384 . S
H676 C682 0.930 . S
H677 C686 0.930 . S
H678 C691 0.929 . S
H679 C689 0.929 . S
H680 C684 0.929 . S
H681 C690 0.929 . S
C682 H676 0.930 . S
C682 C683 1.367 . S
C682 C690 1.378 1_455 S
C683 C682 1.367 . S
C683 C691 1.433 1_455 S
C684 H680 0.929 . S
C684 C686 1.378 . S
C684 C688 1.350 . S
C685 C688 1.463 . S
C685 C690 1.350 . S
C685 N693 1.427 . S
C686 H677 0.930 . S
C686 C684 1.378 . S
C686 C687 1.367 . S
C687 C686 1.367 . S
C687 C689 1.433 . S
C688 C684 1.350 . S
C688 C685 1.463 . S
C688 N692 1.427 . S
C689 H679 0.929 . S
C689 C687 1.433 . S
C689 N692 1.384 . S
C690 H681 0.929 . S
C690 C682 1.378 1_655 S
C690 C685 1.350 . S
C691 H678 0.929 . S
C691 C683 1.433 1_655 S
C691 N693 1.384 . S
N692 C688 1.427 . S
N692 C689 1.384 . S
N693 C685 1.427 . S
N693 C691 1.384 . S
H694 C700 0.930 . S
H695 C704 0.930 . S
H696 C709 0.929 . S
H697 C707 0.929 . S
H698 C702 0.929 . S
H699 C708 0.929 . S
C700 H694 0.930 . S
C700 C701 1.367 . S
C700 C708 1.378 . S
C701 C700 1.367 . S
C701 C709 1.433 . S
C702 H698 0.929 . S
C702 C704 1.378 . S
C702 C706 1.350 . S
C703 C706 1.463 . S
C703 C708 1.350 . S
C703 N711 1.427 . S
C704 H695 0.930 . S
C704 C702 1.378 . S
C704 C705 1.367 . S
C705 C704 1.367 . S
C705 C707 1.433 . S
C706 C702 1.350 . S
C706 C703 1.463 . S
C706 N710 1.427 . S
C707 H697 0.929 . S
C707 C705 1.433 . S
C707 N710 1.384 . S
C708 H699 0.929 . S
C708 C700 1.378 . S
C708 C703 1.350 . S
C709 H696 0.929 . S
C709 C701 1.433 . S
C709 N711 1.384 . S
N710 C706 1.427 . S
N710 C707 1.384 . S
N711 C703 1.427 . S
N711 C709 1.384 . S
H712 C718 0.930 . S
H713 C722 0.930 . S
H714 C727 0.929 . S
H715 C725 0.929 . S
H716 C720 0.929 . S
H717 C726 0.929 . S
C718 H712 0.930 . S
C718 C719 1.367 . S
C718 C726 1.378 . S
C719 C718 1.367 . S
C719 C727 1.433 . S
C720 H716 0.929 . S
C720 C722 1.378 . S
C720 C724 1.350 . S
C721 C724 1.463 . S
C721 C726 1.350 . S
C721 N729 1.427 . S
C722 H713 0.930 . S
C722 C720 1.378 . S
C722 C723 1.367 . S
C723 C722 1.367 . S
C723 C725 1.433 . S
C724 C720 1.350 . S
C724 C721 1.463 . S
C724 N728 1.427 . S
C725 H715 0.929 . S
C725 C723 1.433 . S
C725 N728 1.384 . S
C726 H717 0.929 . S
C726 C718 1.378 . S
C726 C721 1.350 . S
C727 H714 0.929 . S
C727 C719 1.433 . S
C727 N729 1.384 . S
N728 C724 1.427 . S
N728 C725 1.384 . S
N729 C721 1.427 . S
N729 C727 1.384 . S
H730 C736 0.930 . S
H731 C740 0.930 . S
H732 C745 0.929 . S
H733 C743 0.929 . S
H734 C738 0.929 . S
H735 C744 0.929 . S
C736 H730 0.930 . S
C736 C737 1.367 . S
C736 C744 1.378 . S
C737 C736 1.367 . S
C737 C745 1.433 . S
C738 H734 0.929 . S
C738 C740 1.378 . S
C738 C742 1.350 . S
C739 C742 1.463 . S
C739 C744 1.350 . S
C739 N747 1.427 . S
C740 H731 0.930 . S
C740 C738 1.378 . S
C740 C741 1.367 . S
C741 C740 1.367 . S
C741 C743 1.433 . S
C742 C738 1.350 . S
C742 C739 1.463 . S
C742 N746 1.427 . S
C743 H733 0.929 . S
C743 C741 1.433 . S
C743 N746 1.384 . S
C744 H735 0.929 . S
C744 C736 1.378 . S
C744 C739 1.350 . S
C745 H732 0.929 . S
C745 C737 1.433 . S
C745 N747 1.384 . S
N746 C742 1.427 . S
N746 C743 1.384 . S
N747 C739 1.427 . S
N747 C745 1.384 . S
H748 C754 0.930 . S
H749 C758 0.930 . S
H750 C763 0.929 . S
H751 C761 0.929 . S
H752 C756 0.929 . S
H753 C762 0.929 . S
C754 H748 0.930 . S
C754 C755 1.367 . S
C754 C762 1.378 . S
C755 C754 1.367 . S
C755 C763 1.433 1_556 S
C756 H752 0.929 . S
C756 C758 1.378 . S
C756 C760 1.350 1_554 S
C757 C760 1.463 . S
C757 C762 1.350 . S
C757 N765 1.427 1_556 S
C758 H749 0.930 . S
C758 C756 1.378 . S
C758 C759 1.367 1_554 S
C759 C758 1.367 1_556 S
C759 C761 1.433 . S
C760 C756 1.350 1_556 S
C760 C757 1.463 . S
C760 N764 1.427 . S
C761 H751 0.929 . S
C761 C759 1.433 . S
C761 N764 1.384 . S
C762 H753 0.929 . S
C762 C754 1.378 . S
C762 C757 1.350 . S
C763 H750 0.929 . S
C763 C755 1.433 1_554 S
C763 N765 1.384 . S
N764 C760 1.427 . S
N764 C761 1.384 . S
N765 C757 1.427 1_554 S
N765 C763 1.384 . S
H766 C772 0.930 . S
H767 C776 0.930 . S
H768 C781 0.929 . S
H769 C779 0.929 . S
H770 C774 0.929 . S
H771 C780 0.929 . S
C772 H766 0.930 . S
C772 C773 1.367 . S
C772 C780 1.378 . S
C773 C772 1.367 . S
C773 C781 1.433 . S
C774 H770 0.929 . S
C774 C776 1.378 . S
C774 C778 1.350 . S
C775 C778 1.463 . S
C775 C780 1.350 . S
C775 N783 1.427 . S
C776 H767 0.930 . S
C776 C774 1.378 . S
C776 C777 1.367 . S
C777 C776 1.367 . S
C777 C779 1.433 . S
C778 C774 1.350 . S
C778 C775 1.463 . S
C778 N782 1.427 . S
C779 H769 0.929 . S
C779 C777 1.433 . S
C779 N782 1.384 . S
C780 H771 0.929 . S
C780 C772 1.378 . S
C780 C775 1.350 . S
C781 H768 0.929 . S
C781 C773 1.433 . S
C781 N783 1.384 . S
N782 C778 1.427 . S
N782 C779 1.384 . S
N783 C775 1.427 . S
N783 C781 1.384 . S
H784 C790 0.930 . S
H785 C794 0.930 . S
H786 C799 0.929 1_545 S
H787 C797 0.929 . S
H788 C792 0.929 . S
H789 C798 0.929 . S
C790 H784 0.930 . S
C790 C791 1.367 . S
C790 C798 1.378 . S
C791 C790 1.367 . S
C791 C799 1.433 . S
C792 H788 0.929 . S
C792 C794 1.378 . S
C792 C796 1.350 . S
C793 C796 1.463 . S
C793 C798 1.350 . S
C793 N801 1.427 . S
C794 H785 0.930 . S
C794 C792 1.378 . S
C794 C795 1.367 . S
C795 C794 1.367 . S
C795 C797 1.433 . S
C796 C792 1.350 . S
C796 C793 1.463 . S
C796 N800 1.427 . S
C797 H787 0.929 . S
C797 C795 1.433 . S
C797 N800 1.384 . S
C798 H789 0.929 . S
C798 C790 1.378 . S
C798 C793 1.350 . S
C799 H786 0.929 1_565 S
C799 C791 1.433 . S
C799 N801 1.384 . S
N800 C796 1.427 . S
N800 C797 1.384 . S
N801 C793 1.427 . S
N801 C799 1.384 . S
H802 C808 0.930 . S
H803 C812 0.930 . S
H804 C817 0.929 . S
H805 C815 0.929 . S
H806 C810 0.929 . S
H807 C816 0.929 . S
C808 H802 0.930 . S
C808 C809 1.367 . S
C808 C816 1.378 . S
C809 C808 1.367 . S
C809 C817 1.433 . S
C810 H806 0.929 . S
C810 C812 1.378 . S
C810 C814 1.350 . S
C811 C814 1.463 . S
C811 C816 1.350 . S
C811 N819 1.427 . S
C812 H803 0.930 . S
C812 C810 1.378 . S
C812 C813 1.367 . S
C813 C812 1.367 . S
C813 C815 1.433 . S
C814 C810 1.350 . S
C814 C811 1.463 . S
C814 N818 1.427 . S
C815 H805 0.929 . S
C815 C813 1.433 . S
C815 N818 1.384 . S
C816 H807 0.929 . S
C816 C808 1.378 . S
C816 C811 1.350 . S
C817 H804 0.929 . S
C817 C809 1.433 . S
C817 N819 1.384 . S
N818 C814 1.427 . S
N818 C815 1.384 . S
N819 C811 1.427 . S
N819 C817 1.384 . S
H820 C826 0.930 . S
H821 C830 0.930 . S
H822 C835 0.929 . S
H823 C833 0.929 . S
H824 C828 0.929 . S
H825 C834 0.929 . S
C826 H820 0.930 . S
C826 C827 1.367 . S
C826 C834 1.378 . S
C827 C826 1.367 . S
C827 C835 1.433 . S
C828 H824 0.929 . S
C828 C830 1.378 . S
C828 C832 1.350 . S
C829 C832 1.463 . S
C829 C834 1.350 . S
C829 N837 1.427 . S
C830 H821 0.930 . S
C830 C828 1.378 . S
C830 C831 1.367 . S
C831 C830 1.367 . S
C831 C833 1.433 . S
C832 C828 1.350 . S
C832 C829 1.463 . S
C832 N836 1.427 . S
C833 H823 0.929 . S
C833 C831 1.433 . S
C833 N836 1.384 . S
C834 H825 0.929 . S
C834 C826 1.378 . S
C834 C829 1.350 . S
C835 H822 0.929 . S
C835 C827 1.433 . S
C835 N837 1.384 . S
N836 C832 1.427 . S
N836 C833 1.384 . S
N837 C829 1.427 . S
N837 C835 1.384 . S
H838 C844 0.930 . S
H839 C848 0.930 . S
H840 C853 0.929 . S
H841 C851 0.929 . S
H842 C846 0.929 . S
H843 C852 0.929 . S
C844 H838 0.930 . S
C844 C845 1.367 . S
C844 C852 1.378 . S
C845 C844 1.367 . S
C845 C853 1.433 . S
C846 H842 0.929 . S
C846 C848 1.378 . S
C846 C850 1.350 . S
C847 C850 1.463 . S
C847 C852 1.350 . S
C847 N855 1.427 . S
C848 H839 0.930 . S
C848 C846 1.378 . S
C848 C849 1.367 . S
C849 C848 1.367 . S
C849 C851 1.433 . S
C850 C846 1.350 . S
C850 C847 1.463 . S
C850 N854 1.427 . S
C851 H841 0.929 . S
C851 C849 1.433 . S
C851 N854 1.384 . S
C852 H843 0.929 . S
C852 C844 1.378 . S
C852 C847 1.350 . S
C853 H840 0.929 . S
C853 C845 1.433 . S
C853 N855 1.384 . S
N854 C850 1.427 . S
N854 C851 1.384 . S
N855 C847 1.427 . S
N855 C853 1.384 . S
H856 C862 0.930 . S
H857 C866 0.930 . S
H858 C871 0.929 . S
H859 C869 0.929 . S
H860 C864 0.929 . S
H861 C870 0.929 . S
C862 H856 0.930 . S
C862 C863 1.367 . S
C862 C870 1.378 . S
C863 C862 1.367 . S
C863 C871 1.433 . S
C864 H860 0.929 . S
C864 C866 1.378 . S
C864 C868 1.350 . S
C865 C868 1.463 . S
C865 C870 1.350 . S
C865 N873 1.427 . S
C866 H857 0.930 . S
C866 C864 1.378 . S
C866 C867 1.367 . S
C867 C866 1.367 . S
C867 C869 1.433 . S
C868 C864 1.350 . S
C868 C865 1.463 . S
C868 N872 1.427 . S
C869 H859 0.929 . S
C869 C867 1.433 . S
C869 N872 1.384 . S
C870 H861 0.929 . S
C870 C862 1.378 . S
C870 C865 1.350 . S
C871 H858 0.929 . S
C871 C863 1.433 . S
C871 N873 1.384 . S
N872 C868 1.427 . S
N872 C869 1.384 . S
N873 C865 1.427 . S
N873 C871 1.384 . S
H874 C880 0.930 . S
H875 C884 0.930 . S
H876 C889 0.929 . S
H877 C887 0.929 . S
H878 C882 0.929 . S
H879 C888 0.929 . S
C880 H874 0.930 . S
C880 C881 1.367 . S
C880 C888 1.378 . S
C881 C880 1.367 . S
C881 C889 1.433 . S
C882 H878 0.929 . S
C882 C884 1.378 . S
C882 C886 1.350 . S
C883 C886 1.463 . S
C883 C888 1.350 . S
C883 N891 1.427 . S
C884 H875 0.930 . S
C884 C882 1.378 . S
C884 C885 1.367 . S
C885 C884 1.367 . S
C885 C887 1.433 . S
C886 C882 1.350 . S
C886 C883 1.463 . S
C886 N890 1.427 . S
C887 H877 0.929 . S
C887 C885 1.433 . S
C887 N890 1.384 . S
C888 H879 0.929 . S
C888 C880 1.378 . S
C888 C883 1.350 . S
C889 H876 0.929 . S
C889 C881 1.433 . S
C889 N891 1.384 . S
N890 C886 1.427 . S
N890 C887 1.384 . S
N891 C883 1.427 . S
N891 C889 1.384 . S
H892 C898 0.930 . S
H893 C902 0.930 . S
H894 C907 0.929 . S
H895 C905 0.929 . S
H896 C900 0.929 . S
H897 C906 0.929 . S
C898 H892 0.930 . S
C898 C899 1.367 . S
C898 C906 1.378 . S
C899 C898 1.367 . S
C899 C907 1.433 . S
C900 H896 0.929 . S
C900 C902 1.378 . S
C900 C904 1.350 . S
C901 C904 1.463 . S
C901 C906 1.350 . S
C901 N909 1.427 . S
C902 H893 0.930 . S
C902 C900 1.378 . S
C902 C903 1.367 . S
C903 C902 1.367 . S
C903 C905 1.433 . S
C904 C900 1.350 . S
C904 C901 1.463 . S
C904 N908 1.427 . S
C905 H895 0.929 . S
C905 C903 1.433 . S
C905 N908 1.384 . S
C906 H897 0.929 . S
C906 C898 1.378 . S
C906 C901 1.350 . S
C907 H894 0.929 . S
C907 C899 1.433 . S
C907 N909 1.384 . S
N908 C904 1.427 . S
N908 C905 1.384 . S
N909 C901 1.427 . S
N909 C907 1.384 . S
H910 C916 0.930 . S
H911 C920 0.930 . S
H912 C925 0.929 . S
H913 C923 0.930 . S
H914 C918 0.929 . S
H915 C924 0.929 . S
C916 H910 0.930 . S
C916 C917 1.367 . S
C916 C924 1.378 . S
C917 C916 1.367 . S
C917 C925 1.433 . S
C918 H914 0.929 . S
C918 C920 1.378 . S
C918 C922 1.350 . S
C919 C922 1.463 1_545 S
C919 C924 1.350 . S
C919 N927 1.427 . S
C920 H911 0.930 . S
C920 C918 1.378 . S
C920 C921 1.367 . S
C921 C920 1.367 . S
C921 C923 1.433 . S
C922 C918 1.350 . S
C922 C919 1.463 1_565 S
C922 N926 1.427 1_565 S
C923 H913 0.930 . S
C923 C921 1.433 . S
C923 N926 1.384 1_565 S
C924 H915 0.929 . S
C924 C916 1.378 . S
C924 C919 1.350 . S
C925 H912 0.929 . S
C925 C917 1.433 . S
C925 N927 1.384 . S
N926 C922 1.427 1_545 S
N926 C923 1.384 1_545 S
N927 C919 1.427 . S
N927 C925 1.384 . S
H928 C934 0.930 . S
H929 C938 0.930 . S
H930 C943 0.929 . S
H931 C941 0.929 . S
H932 C936 0.929 . S
H933 C942 0.929 . S
C934 H928 0.930 . S
C934 C935 1.367 . S
C934 C942 1.378 . S
C935 C934 1.367 . S
C935 C943 1.433 . S
C936 H932 0.929 . S
C936 C938 1.378 . S
C936 C940 1.350 . S
C937 C940 1.463 . S
C937 C942 1.350 . S
C937 N945 1.427 . S
C938 H929 0.930 . S
C938 C936 1.378 . S
C938 C939 1.367 . S
C939 C938 1.367 . S
C939 C941 1.433 . S
C940 C936 1.350 . S
C940 C937 1.463 . S
C940 N944 1.427 . S
C941 H931 0.929 . S
C941 C939 1.433 . S
C941 N944 1.384 . S
C942 H933 0.929 . S
C942 C934 1.378 . S
C942 C937 1.350 . S
C943 H930 0.929 . S
C943 C935 1.433 . S
C943 N945 1.384 . S
N944 C940 1.427 . S
N944 C941 1.384 . S
N945 C937 1.427 . S
N945 C943 1.384 . S
H946 C952 0.930 . S
H947 C956 0.930 . S
H948 C961 0.929 . S
H949 C959 0.929 . S
H950 C954 0.929 . S
H951 C960 0.929 . S
C952 H946 0.930 . S
C952 C953 1.367 . S
C952 C960 1.378 . S
C953 C952 1.367 . S
C953 C961 1.433 . S
C954 H950 0.929 . S
C954 C956 1.378 . S
C954 C958 1.350 . S
C955 C958 1.463 . S
C955 C960 1.350 . S
C955 N963 1.427 . S
C956 H947 0.930 . S
C956 C954 1.378 . S
C956 C957 1.367 . S
C957 C956 1.367 . S
C957 C959 1.433 . S
C958 C954 1.350 . S
C958 C955 1.463 . S
C958 N962 1.427 . S
C959 H949 0.929 . S
C959 C957 1.433 . S
C959 N962 1.384 . S
C960 H951 0.929 . S
C960 C952 1.378 . S
C960 C955 1.350 . S
C961 H948 0.929 . S
C961 C953 1.433 . S
C961 N963 1.384 . S
N962 C958 1.427 . S
N962 C959 1.384 . S
N963 C955 1.427 . S
N963 C961 1.384 . S
H964 C970 0.930 . S
H965 C974 0.930 . S
H966 C979 0.929 . S
H967 C977 0.929 . S
H968 C972 0.929 . S
H969 C978 0.929 . S
C970 H964 0.930 . S
C970 C971 1.367 1_655 S
C970 C978 1.378 . S
C971 C970 1.367 1_455 S
C971 C979 1.433 . S
C972 H968 0.929 . S
C972 C974 1.378 . S
C972 C976 1.350 . S
C973 C976 1.463 . S
C973 C978 1.350 . S
C973 N981 1.427 1_655 S
C974 H965 0.930 . S
C974 C972 1.378 . S
C974 C975 1.367 . S
C975 C974 1.367 . S
C975 C977 1.433 . S
C976 C972 1.350 . S
C976 C973 1.463 . S
C976 N980 1.427 . S
C977 H967 0.929 . S
C977 C975 1.433 . S
C977 N980 1.384 . S
C978 H969 0.929 . S
C978 C970 1.378 . S
C978 C973 1.350 . S
C979 H966 0.929 . S
C979 C971 1.433 . S
C979 N981 1.384 . S
N980 C976 1.427 . S
N980 C977 1.384 . S
N981 C973 1.427 1_455 S
N981 C979 1.384 . S
H982 C988 0.930 . S
H983 C992 0.930 . S
H984 C997 0.929 . S
H985 C995 0.929 . S
H986 C990 0.929 . S
H987 C996 0.929 . S
C988 H982 0.930 . S
C988 C989 1.367 . S
C988 C996 1.378 . S
C989 C988 1.367 . S
C989 C997 1.433 . S
C990 H986 0.929 . S
C990 C992 1.378 . S
C990 C994 1.350 . S
C991 C994 1.463 . S
C991 C996 1.350 . S
C991 N999 1.427 . S
C992 H983 0.930 . S
C992 C990 1.378 . S
C992 C993 1.367 . S
C993 C992 1.367 . S
C993 C995 1.433 . S
C994 C990 1.350 . S
C994 C991 1.463 . S
C994 N998 1.427 . S
C995 H985 0.929 . S
C995 C993 1.433 . S
C995 N998 1.384 . S
C996 H987 0.929 . S
C996 C988 1.378 . S
C996 C991 1.350 . S
C997 H984 0.929 . S
C997 C989 1.433 . S
C997 N999 1.384 . S
N998 C994 1.427 . S
N998 C995 1.384 . S
N999 C991 1.427 . S
N999 C997 1.384 . S
H1000 C1006 0.930 . S
H1001 C1010 0.930 . S
H1002 C1015 0.929 . S
H1003 C1013 0.929 . S
H1004 C1008 0.929 . S
H1005 C1014 0.929 . S
C1006 H1000 0.930 . S
C1006 C1007 1.367 . S
C1006 C1014 1.378 . S
C1007 C1006 1.367 . S
C1007 C1015 1.433 . S
C1008 H1004 0.929 . S
C1008 C1010 1.378 . S
C1008 C1012 1.350 . S
C1009 C1012 1.463 . S
C1009 C1014 1.350 . S
C1009 N1017 1.427 . S
C1010 H1001 0.930 . S
C1010 C1008 1.378 . S
C1010 C1011 1.367 . S
C1011 C1010 1.367 . S
C1011 C1013 1.433 . S
C1012 C1008 1.350 . S
C1012 C1009 1.463 . S
C1012 N1016 1.427 . S
C1013 H1003 0.929 . S
C1013 C1011 1.433 . S
C1013 N1016 1.384 . S
C1014 H1005 0.929 . S
C1014 C1006 1.378 . S
C1014 C1009 1.350 . S
C1015 H1002 0.929 . S
C1015 C1007 1.433 . S
C1015 N1017 1.384 . S
N1016 C1012 1.427 . S
N1016 C1013 1.384 . S
N1017 C1009 1.427 . S
N1017 C1015 1.384 . S
H1018 C1024 0.930 . S
H1019 C1028 0.930 . S
H1020 C1033 0.929 . S
H1021 C1031 0.929 . S
H1022 C1026 0.929 . S
H1023 C1032 0.929 . S
C1024 H1018 0.930 . S
C1024 C1025 1.367 . S
C1024 C1032 1.378 . S
C1025 C1024 1.367 . S
C1025 C1033 1.433 1_455 S
C1026 H1022 0.929 . S
C1026 C1028 1.378 . S
C1026 C1030 1.350 . S
C1027 C1030 1.463 . S
C1027 C1032 1.350 1_655 S
C1027 N1035 1.427 . S
C1028 H1019 0.930 . S
C1028 C1026 1.378 . S
C1028 C1029 1.367 . S
C1029 C1028 1.367 . S
C1029 C1031 1.433 . S
C1030 C1026 1.350 . S
C1030 C1027 1.463 . S
C1030 N1034 1.427 . S
C1031 H1021 0.929 . S
C1031 C1029 1.433 . S
C1031 N1034 1.384 . S
C1032 H1023 0.929 . S
C1032 C1024 1.378 . S
C1032 C1027 1.350 1_455 S
C1033 H1020 0.929 . S
C1033 C1025 1.433 1_655 S
C1033 N1035 1.384 . S
N1034 C1030 1.427 . S
N1034 C1031 1.384 . S
N1035 C1027 1.427 . S
N1035 C1033 1.384 . S
H1036 C1042 0.930 . S
H1037 C1046 0.930 . S
H1038 C1051 0.929 . S
H1039 C1049 0.929 . S
H1040 C1044 0.929 . S
H1041 C1050 0.929 . S
C1042 H1036 0.930 . S
C1042 C1043 1.367 . S
C1042 C1050 1.378 . S
C1043 C1042 1.367 . S
C1043 C1051 1.433 . S
C1044 H1040 0.929 . S
C1044 C1046 1.378 . S
C1044 C1048 1.350 . S
C1045 C1048 1.463 . S
C1045 C1050 1.350 . S
C1045 N1053 1.427 . S
C1046 H1037 0.930 . S
C1046 C1044 1.378 . S
C1046 C1047 1.367 . S
C1047 C1046 1.367 . S
C1047 C1049 1.433 . S
C1048 C1044 1.350 . S
C1048 C1045 1.463 . S
C1048 N1052 1.427 . S
C1049 H1039 0.929 . S
C1049 C1047 1.433 . S
C1049 N1052 1.384 . S
C1050 H1041 0.929 . S
C1050 C1042 1.378 . S
C1050 C1045 1.350 . S
C1051 H1038 0.929 . S
C1051 C1043 1.433 . S
C1051 N1053 1.384 . S
N1052 C1048 1.427 . S
N1052 C1049 1.384 . S
N1053 C1045 1.427 . S
N1053 C1051 1.384 . S
H1054 C1060 0.930 . S
H1055 C1064 0.930 . S
H1056 C1069 0.929 . S
H1057 C1067 0.929 . S
H1058 C1062 0.929 . S
H1059 C1068 0.929 . S
C1060 H1054 0.930 . S
C1060 C1061 1.367 . S
C1060 C1068 1.378 . S
C1061 C1060 1.367 . S
C1061 C1069 1.433 . S
C1062 H1058 0.929 . S
C1062 C1064 1.378 . S
C1062 C1066 1.350 . S
C1063 C1066 1.463 . S
C1063 C1068 1.350 . S
C1063 N1071 1.427 . S
C1064 H1055 0.930 . S
C1064 C1062 1.378 . S
C1064 C1065 1.367 . S
C1065 C1064 1.367 . S
C1065 C1067 1.433 . S
C1066 C1062 1.350 . S
C1066 C1063 1.463 . S
C1066 N1070 1.427 . S
C1067 H1057 0.929 . S
C1067 C1065 1.433 . S
C1067 N1070 1.384 . S
C1068 H1059 0.929 . S
C1068 C1060 1.378 . S
C1068 C1063 1.350 . S
C1069 H1056 0.929 . S
C1069 C1061 1.433 . S
C1069 N1071 1.384 . S
N1070 C1066 1.427 . S
N1070 C1067 1.384 . S
N1071 C1063 1.427 . S
N1071 C1069 1.384 . S
C507 C404 1.363 . S
C503 C36 1.345 . S
C525 C421 1.381 . S
C521 C93 1.411 . S
C543 C435 1.514 . S
C539 C126 1.547 . S
C557 C165 1.326 . S
C561 C393 1.319 . S
C575 C222 1.309 1_554 S
C579 C390 1.348 . S
C593 C261 1.160 . S
C597 C407 1.170 . S
C615 C418 1.548 . S
C611 C318 1.515 . S
C633 C432 1.424 . S
C629 C381 1.421 . S
C647 C132 1.390 . S
C651 C460 1.425 . S
C669 C474 1.551 . S
C665 C189 1.550 . S
C683 C30 1.184 . S
C687 C491 1.158 . S
C705 C446 1.344 . S
C701 C69 1.307 . S
C719 C324 1.316 . S
C723 C449 1.326 . S
C737 C357 1.526 1_655 S
C741 C463 1.515 . S
C759 C477 1.388 . S
C755 C228 1.401 . S
C773 C285 1.359 . S
C777 C488 1.366 . S
C795 C420 1.982 . S
C791 C45 1.978 . S
C813 C434 2.070 . S
C809 C84 2.072 . S
C827 C117 1.989 . S
C831 C392 2.009 1_556 S
C845 C174 1.821 . S
C849 C405 1.768 . S
C863 C213 1.707 . S
C867 C433 1.572 . S
C885 C391 1.552 . S
C881 C270 1.649 . S
C903 C406 1.891 . S
C899 C309 1.903 . S
C921 C419 1.676 . S
C917 C372 1.800 . S
C939 C475 1.683 . S
C935 C141 1.780 . S
C957 C490 1.892 . S
C953 C180 1.901 . S
C971 C21 1.680 . S
C975 C447 1.554 . S
C993 C461 1.569 . S
C989 C78 1.692 . S
C1011 C489 1.774 . S
C1007 C333 1.886 . S
C1025 C366 1.957 . S
C1029 C448 2.013 . S
C1047 C462 2.071 . S
C1043 C237 2.073 . S
C1065 C476 1.980 . S
C1061 C276 1.989 . S
