# Generated by pormake.
# Topology nom, (4,4)-cn, num edge types: 1
# Building blocks:
#     Node 0, Type 0, BuildingBlock: NAWXER_clean_linker_0, # of connection points: 4
#     Node 1, Type 0, BuildingBlock: NAWXER_clean_linker_0, # of connection points: 4
#     Node 2, Type 0, BuildingBlock: NAWXER_clean_linker_0, # of connection points: 4
#     Node 3, Type 0, BuildingBlock: NAWXER_clean_linker_0, # of connection points: 4
#     Node 4, Type 0, BuildingBlock: NAWXER_clean_linker_0, # of connection points: 4
#     Node 5, Type 0, BuildingBlock: NAWXER_clean_linker_0, # of connection points: 4
#     Node 6, Type 1, BuildingBlock: TATPOV_clean_sbu_0, # of connection points: 4
#     Node 7, Type 1, BuildingBlock: TATPOV_clean_sbu_0, # of connection points: 4
#     Node 8, Type 1, BuildingBlock: TATPOV_clean_sbu_0, # of connection points: 4
#     Node 9, Type 1, BuildingBlock: TATPOV_clean_sbu_0, # of connection points: 4
#     Node 10, Type 1, BuildingBlock: TATPOV_clean_sbu_0, # of connection points: 4
#     Node 11, Type 1, BuildingBlock: TATPOV_clean_sbu_0, # of connection points: 4
#     Edge 12, Type (0, 1), BuildingBlock: XUDNAN_clean_linker_2, # of connection points: 2
#     Edge 13, Type (0, 1), BuildingBlock: XUDNAN_clean_linker_2, # of connection points: 2
#     Edge 14, Type (0, 1), BuildingBlock: XUDNAN_clean_linker_2, # of connection points: 2
#     Edge 15, Type (0, 1), BuildingBlock: XUDNAN_clean_linker_2, # of connection points: 2
#     Edge 16, Type (0, 1), BuildingBlock: XUDNAN_clean_linker_2, # of connection points: 2
#     Edge 17, Type (0, 1), BuildingBlock: XUDNAN_clean_linker_2, # of connection points: 2
#     Edge 18, Type (0, 1), BuildingBlock: XUDNAN_clean_linker_2, # of connection points: 2
#     Edge 19, Type (0, 1), BuildingBlock: XUDNAN_clean_linker_2, # of connection points: 2
#     Edge 20, Type (0, 1), BuildingBlock: XUDNAN_clean_linker_2, # of connection points: 2
#     Edge 21, Type (0, 1), BuildingBlock: XUDNAN_clean_linker_2, # of connection points: 2
#     Edge 22, Type (0, 1), BuildingBlock: XUDNAN_clean_linker_2, # of connection points: 2
#     Edge 23, Type (0, 1), BuildingBlock: XUDNAN_clean_linker_2, # of connection points: 2
#     Edge 24, Type (0, 1), BuildingBlock: XUDNAN_clean_linker_2, # of connection points: 2
#     Edge 25, Type (0, 1), BuildingBlock: XUDNAN_clean_linker_2, # of connection points: 2
#     Edge 26, Type (0, 1), BuildingBlock: XUDNAN_clean_linker_2, # of connection points: 2
#     Edge 27, Type (0, 1), BuildingBlock: XUDNAN_clean_linker_2, # of connection points: 2
#     Edge 28, Type (0, 1), BuildingBlock: XUDNAN_clean_linker_2, # of connection points: 2
#     Edge 29, Type (0, 1), BuildingBlock: XUDNAN_clean_linker_2, # of connection points: 2
#     Edge 30, Type (0, 1), BuildingBlock: XUDNAN_clean_linker_2, # of connection points: 2
#     Edge 31, Type (0, 1), BuildingBlock: XUDNAN_clean_linker_2, # of connection points: 2
#     Edge 32, Type (0, 1), BuildingBlock: XUDNAN_clean_linker_2, # of connection points: 2
#     Edge 33, Type (0, 1), BuildingBlock: XUDNAN_clean_linker_2, # of connection points: 2
#     Edge 34, Type (0, 1), BuildingBlock: XUDNAN_clean_linker_2, # of connection points: 2
#     Edge 35, Type (0, 1), BuildingBlock: XUDNAN_clean_linker_2, # of connection points: 2
# Relax obj value: 0.024
# Max RMSD: 0.116
# Mean RMSD: 0.110
data_MOF--net-nom--node1-TATPOV_clean_sbu_0--node2-NAWXER_clean_linker_0--edge1-XUDNAN_clean_linker_2
_symmetry_space_group_name_H-M    P1
_symmetry_Int_Tables_number       1
_symmetry_cell_setting            triclinic
loop_
_symmetry_equiv_pos_as_xyz
'x, y, z'
_cell_length_a     51.864396
_cell_length_b     52.605357
_cell_length_c     57.201159
_cell_angle_alpha  90.545273
_cell_angle_beta   90.685684
_cell_angle_gamma 120.08983
loop_
_atom_site_label
_atom_site_type_symbol
_atom_site_fract_x
_atom_site_fract_y
_atom_site_fract_z
_atom_type_partial_charge
C0 C 0.89861 0.45286 0.34027 0.0
C1 C 0.89346 0.43773 0.36132 0.0
C2 C 0.92526 0.46236 0.32852 0.0
C3 C 0.94694 0.45609 0.33719 0.0
C4 C 0.91456 0.4306 0.36966 0.0
C5 C 0.94098 0.43955 0.35763 0.0
C6 C 0.9775 0.47086 0.32765 0.0
C7 C 0.92237 0.41917 0.26438 0.0
C8 C 0.91932 0.43674 0.24738 0.0
C9 C 0.94275 0.43204 0.28305 0.0
C10 C 0.96078 0.46269 0.28491 0.0
C11 C 0.93709 0.46753 0.24974 0.0
C12 C 0.9579 0.4803 0.26806 0.0
C13 C 0.98369 0.47649 0.30366 0.0
C14 C 0.11822 0.54348 0.3015 0.0
C15 C 0.12237 0.56624 0.28652 0.0
C16 C 0.09002 0.52414 0.31015 0.0
C17 C 0.06551 0.52741 0.30419 0.0
C18 C 0.09765 0.56908 0.28027 0.0
C19 C 0.06951 0.54978 0.28894 0.0
C20 C 0.0354 0.50724 0.31304 0.0
C21 C 0.09189 0.55407 0.37743 0.0
C22 C 0.09465 0.53487 0.39286 0.0
C23 C 0.07104 0.54298 0.35894 0.0
C24 C 0.05262 0.51251 0.35559 0.0
C25 C 0.07614 0.50441 0.38943 0.0
C26 C 0.05517 0.49336 0.37109 0.0
C27 C 0.02947 0.50032 0.33688 0.0
H28 H 0.88297 0.4592 0.33377 0.0
H29 H 0.92955 0.47632 0.31361 0.0
H30 H 0.91109 0.41903 0.38594 0.0
H31 H 0.9574 0.43471 0.36491 0.0
H32 H 0.90956 0.39543 0.26305 0.0
H33 H 0.94498 0.41805 0.29572 0.0
H34 H 0.93493 0.48195 0.2375 0.0
H35 H 0.97157 0.50402 0.26925 0.0
H36 H 0.13682 0.54077 0.30675 0.0
H37 H 0.08737 0.50656 0.32138 0.0
H38 H 0.09998 0.58603 0.26844 0.0
H39 H 0.05084 0.5525 0.28388 0.0
H40 H 0.10589 0.57765 0.37964 0.0
H41 H 0.06902 0.55817 0.34746 0.0
H42 H 0.07745 0.4891 0.40124 0.0
H43 H 0.0409 0.46979 0.36897 0.0
N44 N 0.00077 0.48261 0.34323 0.0
N45 N 0.01229 0.49486 0.29735 0.0
C46 C 0.43891 0.91114 0.50215 0.0
C47 C 0.44922 0.90093 0.52065 0.0
C48 C 0.45671 0.9394 0.49357 0.0
C49 C 0.48543 0.95788 0.50301 0.0
C50 C 0.47799 0.91947 0.53004 0.0
C51 C 0.49584 0.94767 0.52136 0.0
C52 C 0.50344 0.98879 0.4956 0.0
C53 C 0.49445 0.9342 0.43225 0.0
C54 C 0.48091 0.93859 0.41243 0.0
C55 C 0.50286 0.95329 0.45158 0.0
C56 C 0.49721 0.97677 0.45183 0.0
C57 C 0.47582 0.96247 0.41255 0.0
C58 C 0.48389 0.98133 0.43203 0.0
C59 C 0.50662 0.99763 0.472 0.0
C60 C 0.57959 0.13065 0.48146 0.0
C61 C 0.56122 0.13793 0.46836 0.0
C62 C 0.5704 0.10132 0.48602 0.0
C63 C 0.54225 0.07884 0.47825 0.0
C64 C 0.53392 0.11537 0.45926 0.0
C65 C 0.52447 0.08603 0.46424 0.0
C66 C 0.53088 0.04787 0.48471 0.0
C67 C 0.52942 0.08478 0.55913 0.0
C68 C 0.55854 0.09629 0.56846 0.0
C69 C 0.52029 0.06687 0.53903 0.0
C70 C 0.53985 0.05971 0.52809 0.0
C71 C 0.57812 0.08917 0.55709 0.0
C72 C 0.56862 0.07053 0.53743 0.0
C73 C 0.52941 0.039 0.50808 0.0
H74 H 0.41698 0.89737 0.49436 0.0
H75 H 0.44769 0.94701 0.47993 0.0
H76 H 0.48646 0.91252 0.54454 0.0
H77 H 0.5177 0.96168 0.5292 0.0
H78 H 0.49853 0.91595 0.4329 0.0
H79 H 0.51406 0.94979 0.46623 0.0
H80 H 0.46604 0.96695 0.39745 0.0
H81 H 0.47971 0.99954 0.4316 0.0
H82 H 0.60103 0.1477 0.48823 0.0
H83 H 0.58532 0.09631 0.49563 0.0
H84 H 0.51943 0.1205 0.44907 0.0
H85 H 0.50286 0.06902 0.45773 0.0
H86 H 0.51329 0.08891 0.56758 0.0
H87 H 0.49773 0.05808 0.5323 0.0
H88 H 0.60086 0.09792 0.56329 0.0
H89 H 0.58383 0.06476 0.52935 0.0
N90 N 0.51539 0.00989 0.51266 0.0
N91 N 0.51961 0.02683 0.46754 0.0
C92 C 0.5963 0.53246 0.60657 0.0
C93 C 0.58336 0.5018 0.60367 0.0
C94 C 0.58559 0.54424 0.62329 0.0
C95 C 0.56227 0.52566 0.63779 0.0
C96 C 0.55987 0.4833 0.61832 0.0
C97 C 0.54951 0.49514 0.63525 0.0
C98 C 0.54994 0.53804 0.65452 0.0
C99 C 0.55462 0.4767 0.71439 0.0
C100 C 0.58144 0.47895 0.70706 0.0
C101 C 0.5455 0.49574 0.70592 0.0
C102 C 0.56296 0.51751 0.68992 0.0
C103 C 0.59991 0.50197 0.69224 0.0
C104 C 0.59083 0.52123 0.68386 0.0
C105 C 0.55055 0.53461 0.67893 0.0
C106 C 0.45092 0.54717 0.71396 0.0
C107 C 0.46328 0.56251 0.73519 0.0
C108 C 0.46911 0.54569 0.69686 0.0
C109 C 0.50016 0.5602 0.70029 0.0
C110 C 0.49443 0.57765 0.73835 0.0
C111 C 0.51266 0.57636 0.7211 0.0
C112 C 0.51915 0.55536 0.68383 0.0
C113 C 0.47384 0.59589 0.64488 0.0
C114 C 0.45364 0.57625 0.6279 0.0
C115 C 0.49588 0.59106 0.65464 0.0
C116 C 0.49793 0.5665 0.64755 0.0
C117 C 0.45685 0.55266 0.62001 0.0
C118 C 0.47886 0.54794 0.62965 0.0
C119 C 0.51834 0.55848 0.65934 0.0
H120 H 0.61473 0.54743 0.59594 0.0
H121 H 0.59558 0.56787 0.62497 0.0
H122 H 0.54888 0.45964 0.61635 0.0
H123 H 0.53108 0.48046 0.64605 0.0
H124 H 0.54024 0.45967 0.72627 0.0
H125 H 0.52408 0.49258 0.71114 0.0
H126 H 0.62078 0.50437 0.68636 0.0
H127 H 0.60521 0.53846 0.67215 0.0
H128 H 0.42704 0.53548 0.71086 0.0
H129 H 0.45872 0.53222 0.68135 0.0
H130 H 0.50466 0.5893 0.75461 0.0
H131 H 0.53652 0.58728 0.72431 0.0
H132 H 0.47187 0.61429 0.65124 0.0
H133 H 0.5107 0.60596 0.66816 0.0
H134 H 0.44194 0.53749 0.60666 0.0
H135 H 0.48013 0.52895 0.62378 0.0
N136 N 0.53389 0.54979 0.64569 0.0
N137 N 0.53526 0.54359 0.6926 0.0
C138 C 0.91046 0.42736 0.77955 0.0
C139 C 0.88526 0.43044 0.78224 0.0
C140 C 0.93861 0.44987 0.78686 0.0
C141 C 0.94192 0.47559 0.79731 0.0
C142 C 0.88893 0.45696 0.79143 0.0
C143 C 0.91704 0.47935 0.79895 0.0
C144 C 0.97071 0.49689 0.80849 0.0
C145 C 0.91683 0.49534 0.87747 0.0
C146 C 0.902 0.46485 0.88128 0.0
C147 C 0.93971 0.50808 0.8613 0.0
C148 C 0.94773 0.49054 0.84827 0.0
C149 C 0.91003 0.44735 0.86795 0.0
C150 C 0.93265 0.46008 0.8516 0.0
C151 C 0.97321 0.5042 0.83239 0.0
C152 C 0.10915 0.57229 0.84817 0.0
C153 C 0.10708 0.56123 0.87085 0.0
C154 C 0.08329 0.5657 0.83519 0.0
C155 C 0.05486 0.54623 0.84397 0.0
C156 C 0.0788 0.54616 0.88088 0.0
C157 C 0.05322 0.53822 0.86757 0.0
C158 C 0.0264 0.53241 0.82972 0.0
C159 C 0.09245 0.53745 0.77348 0.0
C160 C 0.09313 0.55509 0.75479 0.0
C161 C 0.07003 0.52783 0.79016 0.0
C162 C 0.04859 0.53661 0.78897 0.0
C163 C 0.07093 0.56299 0.75346 0.0
C164 C 0.04907 0.55397 0.77038 0.0
C165 C 0.02364 0.52567 0.80531 0.0
H166 H 0.90827 0.40726 0.77228 0.0
H167 H 0.95755 0.44658 0.78544 0.0
H168 H 0.86987 0.45988 0.79379 0.0
H169 H 0.9192 0.49916 0.8068 0.0
H170 H 0.91095 0.50946 0.8871 0.0
H171 H 0.95122 0.53165 0.859 0.0
H172 H 0.89961 0.42394 0.87067 0.0
H173 H 0.93897 0.44624 0.84202 0.0
H174 H 0.13052 0.58497 0.83997 0.0
H175 H 0.08592 0.57534 0.8182 0.0
H176 H 0.0761 0.53907 0.89883 0.0
H177 H 0.03202 0.5245 0.87577 0.0
H178 H 0.10919 0.53102 0.77528 0.0
H179 H 0.06953 0.51374 0.80406 0.0
H180 H 0.06984 0.57559 0.73903 0.0
H181 H 0.03216 0.56024 0.76876 0.0
N182 N 0.99591 0.50813 0.79581 0.0
N183 N 0.00072 0.52156 0.84194 0.0
C184 C 0.47956 0.89062 0.95251 0.0
C185 C 0.45424 0.87977 0.93771 0.0
C186 C 0.49192 0.91851 0.96287 0.0
C187 C 0.47929 0.93626 0.95874 0.0
C188 C 0.44187 0.89778 0.93332 0.0
C189 C 0.45443 0.92586 0.9436 0.0
C190 C 0.49295 0.96607 0.96945 0.0
C191 C 0.45073 0.90704 0.03048 0.0
C192 C 0.47093 0.90721 0.04713 0.0
C193 C 0.46082 0.92728 0.0124 0.0
C194 C 0.49126 0.94813 0.01075 0.0
C195 C 0.50146 0.92767 0.04517 0.0
C196 C 0.51149 0.94818 0.02728 0.0
C197 C 0.50153 0.9716 0.99326 0.0
C198 C 0.55414 0.10222 0.00721 0.0
C199 C 0.57882 0.10732 0.02117 0.0
C200 C 0.53665 0.075 0.9958 0.0
C201 C 0.54423 0.05288 0.9976 0.0
C202 C 0.58613 0.08511 0.02311 0.0
C203 C 0.56906 0.05824 0.01142 0.0
C204 C 0.52557 0.02322 0.98693 0.0
C205 C 0.55081 0.08752 0.92789 0.0
C206 C 0.52582 0.08502 0.91577 0.0
C207 C 0.5477 0.06556 0.94318 0.0
C208 C 0.51948 0.04097 0.94692 0.0
C209 C 0.49785 0.05982 0.91898 0.0
C210 C 0.49476 0.03808 0.93434 0.0
C211 C 0.51506 0.01768 0.96341 0.0
H212 H 0.4902 0.87776 0.95582 0.0
H213 H 0.5117 0.92639 0.97387 0.0
H214 H 0.42224 0.89008 0.92218 0.0
H215 H 0.44448 0.9393 0.94 0.0
H216 H 0.4271 0.89145 0.03159 0.0
H217 H 0.44469 0.92724 0.00017 0.0
H218 H 0.51745 0.92846 0.05795 0.0
H219 H 0.535 0.9643 0.02648 0.0
H220 H 0.54789 0.11895 0.0057 0.0
H221 H 0.51699 0.07113 0.986 0.0
H222 H 0.60514 0.08858 0.03368 0.0
H223 H 0.57521 0.04147 0.01329 0.0
H224 H 0.57268 0.1066 0.92581 0.0
H225 H 0.56728 0.06789 0.95219 0.0
H226 H 0.47827 0.05671 0.90948 0.0
H227 H 0.47285 0.01909 0.93663 0.0
N228 N 0.49942 0.98927 0.95555 0.0
N229 N 0.51802 -0.00012 0.00093 0.0
C230 C 0.50159 0.58983 0.21106 0.0
C231 C 0.47551 0.58919 0.20319 0.0
C232 C 0.50873 0.56916 0.20276 0.0
C233 C 0.49008 0.54759 0.18631 0.0
C234 C 0.45607 0.56665 0.18757 0.0
C235 C 0.46324 0.54591 0.17927 0.0
C236 C 0.49967 0.52772 0.17639 0.0
C237 C 0.46603 0.53276 0.09744 0.0
C238 C 0.47502 0.56283 0.09797 0.0
C239 C 0.47489 0.52059 0.11515 0.0
C240 C 0.49298 0.53811 0.13385 0.0
C241 C 0.49378 0.58058 0.11646 0.0
C242 C 0.50291 0.56837 0.13412 0.0
C243 C 0.50218 0.52434 0.15213 0.0
C244 C 0.54494 0.43594 0.14807 0.0
C245 C 0.56769 0.45056 0.1318 0.0
C246 C 0.52968 0.44941 0.15709 0.0
C247 C 0.53723 0.47785 0.15019 0.0
C248 C 0.57417 0.47844 0.12421 0.0
C249 C 0.5591 0.49189 0.13329 0.0
C250 C 0.52271 0.4935 0.16008 0.0
C251 C 0.56751 0.477 0.22214 0.0
C252 C 0.54689 0.45874 0.23875 0.0
C253 C 0.55868 0.48895 0.20413 0.0
C254 C 0.52906 0.48279 0.20241 0.0
C255 C 0.51723 0.4525 0.23684 0.0
C256 C 0.50848 0.46462 0.21894 0.0
C257 C 0.51963 0.49643 0.18429 0.0
H258 H 0.5167 0.60655 0.22344 0.0
H259 H 0.52938 0.57062 0.20864 0.0
H260 H 0.43582 0.56562 0.18117 0.0
H261 H 0.44821 0.52902 0.16696 0.0
H262 H 0.45234 0.51854 0.08316 0.0
H263 H 0.46742 0.49732 0.11429 0.0
H264 H 0.50118 0.60382 0.11741 0.0
H265 H 0.51774 0.5826 0.14793 0.0
H266 H 0.53941 0.41442 0.15424 0.0
H267 H 0.51222 0.43771 0.16955 0.0
H268 H 0.59104 0.49 0.11128 0.0
H269 H 0.56502 0.51366 0.12743 0.0
H270 H 0.5905 0.48213 0.22315 0.0
H271 H 0.57505 0.50335 0.19178 0.0
H272 H 0.50096 0.43891 0.24957 0.0
H273 H 0.4856 0.45987 0.21804 0.0
N274 N 0.50838 0.51353 0.19149 0.0
N275 N 0.51366 0.50741 0.145 0.0
Zn276 Zn 0.68003 0.4625 0.41842 0.0
Zn277 Zn 0.64903 0.40346 0.42341 0.0
O278 O 0.69151 0.41208 0.41796 0.0
O279 O 0.71823 0.46049 0.41899 0.0
O280 O 0.62811 0.36091 0.4321 0.0
O281 O 0.66419 0.46909 0.44869 0.0
O282 O 0.64278 0.42134 0.45338 0.0
C283 C 0.7166 0.43569 0.4176 0.0
C284 C 0.63499 0.42962 0.38158 0.0
O285 O 0.62851 0.4071 0.3938 0.0
O286 O 0.65607 0.45473 0.38808 0.0
C287 C 0.62177 0.33844 0.4195 0.0
O288 O 0.62757 0.34148 0.39707 0.0
C289 C 0.64902 0.44667 0.46097 0.0
Zn290 Zn 0.22517 0.67 0.57425 0.0
Zn291 Zn 0.25804 0.64207 0.57612 0.0
O292 O 0.28885 0.68579 0.57387 0.0
O293 O 0.26378 0.70925 0.57153 0.0
O294 O 0.28253 0.62214 0.57939 0.0
O295 O 0.20863 0.6531 0.60634 0.0
O296 O 0.23368 0.62952 0.60584 0.0
C297 C 0.28842 0.70965 0.57187 0.0
C298 C 0.2133 0.62785 0.53597 0.0
O299 O 0.23322 0.62441 0.54628 0.0
O300 O 0.20574 0.64552 0.54441 0.0
C301 C 0.31027 0.63458 0.57538 0.0
O302 O 0.32416 0.6615 0.56755 0.0
C303 C 0.21555 0.63557 0.61579 0.0
Zn304 Zn 0.55176 0.23542 0.74005 0.0
Zn305 Zn 0.61047 0.2569 0.75111 0.0
O306 O 0.60622 0.2934 0.74621 0.0
O307 O 0.5591 0.2767 0.73688 0.0
O308 O 0.65431 0.27459 0.75841 0.0
O309 O 0.54235 0.21612 0.77192 0.0
O310 O 0.58991 0.23252 0.77982 0.0
C311 C 0.58517 0.29811 0.74057 0.0
C312 C 0.58206 0.21652 0.7082 0.0
O313 O 0.60418 0.23156 0.72198 0.0
O314 O 0.55721 0.21492 0.71175 0.0
C315 C 0.67302 0.29732 0.74762 0.0
O316 O 0.66338 0.30852 0.73166 0.0
C317 C 0.56266 0.21782 0.78553 0.0
Zn318 Zn 0.33798 0.5588 0.9234 0.0
Zn319 Zn 0.365 0.61578 0.91598 0.0
O320 O 0.32008 0.60301 0.91671 0.0
O321 O 0.29831 0.55613 0.9252 0.0
O322 O 0.38393 0.65968 0.9133 0.0
O323 O 0.3615 0.56443 0.95287 0.0
O324 O 0.3844 0.61202 0.94687 0.0
C325 C 0.29657 0.57877 0.92095 0.0
C326 C 0.36881 0.57537 0.8794 0.0
O327 O 0.37657 0.60147 0.88615 0.0
O328 O 0.35251 0.5538 0.89217 0.0
C329 C 0.37777 0.67172 0.89666 0.0
O330 O 0.35973 0.65517 0.87965 0.0
C331 C 0.38053 0.59036 0.95923 0.0
Zn332 Zn 0.78283 0.4288 0.07184 0.0
Zn333 Zn 0.74976 0.36977 0.06629 0.0
O334 O 0.71875 0.38164 0.07364 0.0
O335 O 0.74498 0.42961 0.07882 0.0
O336 O 0.72399 0.32603 0.06124 0.0
O337 O 0.79719 0.43203 0.03885 0.0
O338 O 0.77069 0.38389 0.03471 0.0
C339 C 0.72007 0.40594 0.07844 0.0
C340 C 0.79818 0.39721 0.10489 0.0
O341 O 0.77696 0.37464 0.09464 0.0
O342 O 0.80549 0.42275 0.09806 0.0
C343 C 0.71273 0.30902 0.07843 0.0
O344 O 0.7189 0.32016 0.09978 0.0
C345 C 0.78865 0.40902 0.02645 0.0
Zn346 Zn 0.35069 0.7953 0.2332 0.0
Zn347 Zn 0.38219 0.76567 0.23525 0.0
O348 O 0.3388 0.73364 0.23825 0.0
O349 O 0.31238 0.75584 0.23728 0.0
O350 O 0.40543 0.74439 0.23549 0.0
O351 O 0.36808 0.80919 0.20057 0.0
O352 O 0.3929 0.78555 0.20387 0.0
C353 C 0.31375 0.73252 0.23897 0.0
C354 C 0.39425 0.81344 0.27169 0.0
O355 O 0.39927 0.79402 0.263 0.0
O356 O 0.37472 0.81817 0.26244 0.0
C357 C 0.39459 0.71744 0.24037 0.0
O358 O 0.36665 0.70192 0.24653 0.0
C359 C 0.38604 0.80186 0.19224 0.0
H360 H 0.14823 0.62595 0.28175 0.0
H361 H 0.16424 0.5533 0.2706 0.0
H362 H 0.21425 0.5878 0.25583 0.0
H363 H 0.18594 0.66632 0.22993 0.0
H364 H 0.20083 0.70169 0.24429 0.0
H365 H 0.16605 0.67119 0.25357 0.0
H366 H 0.18714 0.6783 0.29593 0.0
H367 H 0.22194 0.70882 0.28681 0.0
H368 H 0.22147 0.67829 0.30125 0.0
H369 H 0.26284 0.63022 0.24329 0.0
H370 H 0.30703 0.67774 0.23427 0.0
H371 H 0.25893 0.72268 0.25273 0.0
C372 C 0.16208 0.61721 0.27591 0.0
C373 C 0.15231 0.5869 0.27734 0.0
C374 C 0.17138 0.57647 0.26995 0.0
C375 C 0.19972 0.59585 0.26136 0.0
C376 C 0.20862 0.62557 0.26021 0.0
C377 C 0.19038 0.63622 0.26726 0.0
C378 C 0.20557 0.66924 0.26474 0.0
C379 C 0.18859 0.67759 0.24708 0.0
C380 C 0.20925 0.68456 0.2886 0.0
C381 C 0.23534 0.67555 0.25534 0.0
C382 C 0.23659 0.65003 0.25281 0.0
C383 C 0.26209 0.65033 0.2451 0.0
C384 C 0.28711 0.67746 0.24009 0.0
C385 C 0.28647 0.70396 0.24279 0.0
C386 C 0.26005 0.70282 0.25027 0.0
H387 H 0.56585 0.16646 0.42731 0.0
H388 H 0.57615 0.17927 0.50258 0.0
H389 H 0.59027 0.23134 0.49814 0.0
H390 H 0.62912 0.23624 0.41362 0.0
H391 H 0.61197 0.24162 0.388 0.0
H392 H 0.60108 0.20497 0.39711 0.0
H393 H 0.54601 0.19239 0.39851 0.0
H394 H 0.55675 0.22906 0.38947 0.0
H395 H 0.53637 0.21497 0.41604 0.0
H396 H 0.60288 0.28133 0.48579 0.0
H397 H 0.6175 0.32796 0.46629 0.0
H398 H 0.60161 0.28401 0.39854 0.0
C399 C 0.57092 0.18029 0.44279 0.0
C400 C 0.56987 0.16904 0.4653 0.0
C401 C 0.57699 0.18768 0.48521 0.0
C402 C 0.58485 0.21715 0.48286 0.0
C403 C 0.58574 0.22765 0.46045 0.0
C404 C 0.57929 0.20996 0.44073 0.0
C405 C 0.58346 0.22727 0.41865 0.0
C406 C 0.60786 0.22754 0.40346 0.0
C407 C 0.55388 0.2152 0.40486 0.0
C408 C 0.59331 0.25745 0.42909 0.0
C409 C 0.59409 0.25698 0.45323 0.0
C410 C 0.60242 0.28202 0.46689 0.0
C411 C 0.61063 0.30842 0.4556 0.0
C412 C 0.61079 0.30972 0.43084 0.0
C413 C 0.60175 0.28376 0.41746 0.0
H414 H 0.45438 0.62621 0.61314 0.0
H415 H 0.39555 0.53291 0.6235 0.0
H416 H 0.35274 0.53724 0.6095 0.0
H417 H 0.4039 0.64938 0.63213 0.0
H418 H 0.41498 0.6777 0.61067 0.0
H419 H 0.44114 0.66707 0.62087 0.0
H420 H 0.44931 0.65619 0.57815 0.0
H421 H 0.42308 0.66669 0.56783 0.0
H422 H 0.41769 0.63098 0.56025 0.0
H423 H 0.31608 0.55199 0.59623 0.0
H424 H 0.28798 0.5762 0.58383 0.0
H425 H 0.37073 0.65965 0.58107 0.0
C426 C 0.43247 0.60674 0.61245 0.0
C427 C 0.42825 0.5792 0.61927 0.0
C428 C 0.3993 0.55414 0.61803 0.0
C429 C 0.37485 0.55639 0.61019 0.0
C430 C 0.37976 0.58382 0.60352 0.0
C431 C 0.40782 0.60854 0.60447 0.0
C432 C 0.40689 0.63543 0.59648 0.0
C433 C 0.41734 0.65876 0.61622 0.0
C434 C 0.42534 0.64806 0.57436 0.0
C435 C 0.37387 0.62201 0.59122 0.0
C436 C 0.35862 0.59222 0.5954 0.0
C437 C 0.32777 0.57526 0.59269 0.0
C438 C 0.31201 0.5892 0.58568 0.0
C439 C 0.32718 0.61973 0.58134 0.0
C440 C 0.35855 0.6362 0.58394 0.0
H441 H 0.83979 0.43119 0.75787 0.0
H442 H 0.8624 0.3735 0.79536 0.0
H443 H 0.81091 0.33235 0.78925 0.0
H444 H 0.76752 0.40321 0.78028 0.0
H445 H 0.75104 0.40633 0.75332 0.0
H446 H 0.79007 0.43076 0.75947 0.0
H447 H 0.80333 0.41478 0.72053 0.0
H448 H 0.76429 0.39037 0.71421 0.0
H449 H 0.78965 0.37634 0.71464 0.0
H450 H 0.75601 0.29865 0.78178 0.0
H451 H 0.70233 0.27398 0.7713 0.0
H452 H 0.71614 0.35332 0.73758 0.0
C453 C 0.83391 0.40982 0.76461 0.0
C454 C 0.85503 0.40543 0.777 0.0
C455 C 0.84662 0.37718 0.78554 0.0
C456 C 0.81742 0.35374 0.78226 0.0
C457 C 0.79703 0.35888 0.77021 0.0
C458 C 0.80497 0.38613 0.76129 0.0
C459 C 0.7787 0.38597 0.74933 0.0
C460 C 0.77141 0.40786 0.76132 0.0
C461 C 0.78434 0.39223 0.72312 0.0
C462 C 0.75462 0.35452 0.75328 0.0
C463 C 0.7656 0.33926 0.76539 0.0
C464 C 0.74721 0.31025 0.77203 0.0
C465 C 0.71677 0.29647 0.76608 0.0
C466 C 0.70516 0.31166 0.75348 0.0
C467 C 0.72445 0.341 0.74693 0.0
H468 H 0.44823 0.82985 0.95773 0.0
H469 H 0.43046 0.86177 0.89326 0.0
H470 H 0.40933 0.81216 0.87545 0.0
H471 H 0.47137 0.78278 0.93048 0.0
H472 H 0.45465 0.75481 0.95226 0.0
H473 H 0.46766 0.79266 0.96001 0.0
H474 H 0.41529 0.77837 0.97519 0.0
H475 H 0.40213 0.74049 0.96755 0.0
H476 H 0.38317 0.75864 0.95605 0.0
H477 H 0.38985 0.75858 0.8648 0.0
H478 H 0.37358 0.70565 0.86233 0.0
H479 H 0.40644 0.71006 0.93328 0.0
C480 C 0.4402 0.82659 0.93978 0.0
C481 C 0.44106 0.84983 0.92693 0.0
C482 C 0.4297 0.8443 0.90362 0.0
C483 C 0.41786 0.81622 0.89327 0.0
C484 C 0.41763 0.79394 0.90642 0.0
C485 C 0.42855 0.79886 0.92916 0.0
C486 C 0.42585 0.77131 0.93957 0.0
C487 C 0.45672 0.77566 0.94595 0.0
C488 C 0.40539 0.76164 0.96084 0.0
C489 C 0.41164 0.75003 0.91914 0.0
C490 C 0.40699 0.76343 0.90019 0.0
C491 C 0.39351 0.7479 0.87951 0.0
C492 C 0.38436 0.71786 0.87827 0.0
C493 C 0.38886 0.70372 0.89755 0.0
C494 C 0.40291 0.72022 0.91814 0.0
H495 H 0.62781 0.47857 0.12541 0.0
H496 H 0.54774 0.39299 0.11886 0.0
H497 H 0.57784 0.37194 0.10402 0.0
H498 H 0.66199 0.47298 0.07288 0.0
H499 H 0.69915 0.49222 0.08542 0.0
H500 H 0.67122 0.50012 0.09579 0.0
H501 H 0.68011 0.4886 0.13812 0.0
H502 H 0.70809 0.48071 0.1279 0.0
H503 H 0.67702 0.4536 0.14412 0.0
H504 H 0.61723 0.36061 0.08974 0.0
H505 H 0.66247 0.35971 0.07792 0.0
H506 H 0.7158 0.45333 0.0931 0.0
C507 C 0.61647 0.45545 0.12063 0.0
C508 C 0.58539 0.43744 0.12317 0.0
C509 C 0.57157 0.40714 0.11723 0.0
C510 C 0.58845 0.39505 0.10866 0.0
C511 C 0.61904 0.41358 0.10617 0.0
C512 C 0.63287 0.44312 0.11202 0.0
C513 C 0.666 0.4584 0.10787 0.0
C514 C 0.67511 0.48234 0.08939 0.0
C515 C 0.68385 0.47106 0.13087 0.0
C516 C 0.66876 0.43285 0.09875 0.0
C517 C 0.64149 0.40716 0.09787 0.0
C518 C 0.63869 0.38062 0.0903 0.0
C519 C 0.66451 0.38034 0.08361 0.0
C520 C 0.69269 0.40647 0.08451 0.0
C521 C 0.69463 0.433 0.09207 0.0
H522 H 0.389 0.87375 0.52833 0.0
H523 H 0.4653 0.86112 0.53525 0.0
H524 H 0.43297 0.8122 0.55184 0.0
H525 H 0.35174 0.83631 0.58091 0.0
H526 H 0.31502 0.82008 0.56771 0.0
H527 H 0.34444 0.8548 0.55759 0.0
H528 H 0.33594 0.83357 0.51531 0.0
H529 H 0.30638 0.79888 0.52526 0.0
H530 H 0.33718 0.80041 0.50978 0.0
H531 H 0.39206 0.764 0.56633 0.0
H532 H 0.34531 0.71927 0.57623 0.0
H533 H 0.2955 0.76291 0.55887 0.0
C534 C 0.39895 0.86068 0.5332 0.0
C535 C 0.42976 0.87138 0.53052 0.0
C536 C 0.44187 0.85364 0.53744 0.0
C537 C 0.42366 0.82577 0.54681 0.0
C538 C 0.39341 0.81595 0.54918 0.0
C539 C 0.38112 0.83282 0.54251 0.0
C540 C 0.34777 0.81673 0.54607 0.0
C541 C 0.33925 0.83295 0.56415 0.0
C542 C 0.33083 0.81212 0.52272 0.0
C543 C 0.34314 0.78796 0.55548 0.0
C544 C 0.36978 0.78807 0.55733 0.0
C545 C 0.37107 0.76369 0.56501 0.0
C546 C 0.34435 0.73834 0.57055 0.0
C547 C 0.31667 0.73747 0.56826 0.0
C548 C 0.31626 0.76287 0.56098 0.0
H549 H 0.5435 0.41977 0.70797 0.0
H550 H 0.63603 0.48627 0.72061 0.0
H551 H 0.64747 0.44732 0.73112 0.0
H552 H 0.5376 0.37299 0.75551 0.0
H553 H 0.51361 0.33967 0.73917 0.0
H554 H 0.51315 0.3729 0.7328 0.0
H555 H 0.52458 0.36853 0.68941 0.0
H556 H 0.5251 0.33531 0.69564 0.0
H557 H 0.55688 0.3657 0.68248 0.0
H558 H 0.64826 0.40028 0.74018 0.0
H559 H 0.6386 0.34976 0.74629 0.0
H560 H 0.54526 0.3153 0.72803 0.0
C561 C 0.56612 0.42628 0.71327 0.0
C562 C 0.58883 0.45609 0.71369 0.0
C563 C 0.61831 0.46354 0.72009 0.0
C564 C 0.62496 0.44159 0.72619 0.0
C565 C 0.60189 0.41239 0.72571 0.0
C566 C 0.57309 0.40479 0.71937 0.0
C567 C 0.55228 0.37195 0.71987 0.0
C568 C 0.52772 0.36392 0.73792 0.0
C569 C 0.53894 0.35966 0.69539 0.0
C570 C 0.57382 0.36211 0.72751 0.0
C571 C 0.60235 0.38566 0.73082 0.0
C572 C 0.62598 0.38171 0.73768 0.0
C573 C 0.62027 0.35294 0.74112 0.0
C574 C 0.59115 0.32853 0.73768 0.0
C575 C 0.56775 0.3334 0.73088 0.0
H576 H 0.16759 0.60379 0.86855 0.0
H577 H 0.10658 0.52054 0.90064 0.0
H578 H 0.14827 0.52093 0.92093 0.0
H579 H 0.22151 0.58354 0.85623 0.0
H580 H 0.25341 0.61953 0.86149 0.0
H581 H 0.21846 0.61586 0.85205 0.0
H582 H 0.21948 0.64644 0.88819 0.0
H583 H 0.25443 0.65007 0.8978 0.0
H584 H 0.22311 0.63499 0.91706 0.0
H585 H 0.19525 0.52693 0.93544 0.0
H586 H 0.2464 0.53655 0.94097 0.0
H587 H 0.27923 0.61405 0.89807 0.0
C588 C 0.16287 0.58577 0.87999 0.0
C589 C 0.13325 0.5627 0.88345 0.0
C590 C 0.12854 0.53936 0.89839 0.0
C591 C 0.15224 0.53915 0.90995 0.0
C592 C 0.18088 0.56211 0.90623 0.0
C593 C 0.18651 0.58485 0.89145 0.0
C594 C 0.21987 0.60503 0.88879 0.0
C595 C 0.22883 0.60603 0.86312 0.0
C596 C 0.2298 0.63597 0.89854 0.0
C597 C 0.23182 0.58947 0.9039 0.0
C598 C 0.20877 0.56507 0.91407 0.0
C599 C 0.21359 0.5461 0.92777 0.0
C600 C 0.24275 0.55173 0.93075 0.0
C601 C 0.2668 0.57604 0.91997 0.0
C602 C 0.26132 0.59555 0.90679 0.0
H603 H 0.60529 0.16316 0.00405 0.0
H604 H 0.59302 0.11445 0.06764 0.0
H605 H 0.62506 0.16092 0.08946 0.0
H606 H 0.68204 0.21513 0.01453 0.0
H607 H 0.6803 0.2457 0.0023 0.0
H608 H 0.65482 0.20887 0.99196 0.0
H609 H 0.61004 0.21582 0.00169 0.0
H610 H 0.6354 0.25275 0.01194 0.0
H611 H 0.6068 0.22712 0.03085 0.0
H612 H 0.65887 0.2124 0.10419 0.0
H613 H 0.69341 0.26551 0.1107 0.0
H614 H 0.68544 0.28065 0.03716 0.0
C615 C 0.60907 0.16243 0.02263 0.0
C616 C 0.59666 0.13537 0.03426 0.0
C617 C 0.60245 0.13505 0.05848 0.0
C618 C 0.62051 0.16128 0.07099 0.0
C619 C 0.63277 0.1876 0.05898 0.0
C620 C 0.62739 0.18841 0.03534 0.0
C621 C 0.64438 0.21952 0.02644 0.0
C622 C 0.66671 0.22247 0.0077 0.0
C623 C 0.62287 0.22938 0.01719 0.0
C624 C 0.66022 0.23603 0.04874 0.0
C625 C 0.65301 0.21723 0.06734 0.0
C626 C 0.66471 0.22736 0.08976 0.0
C627 C 0.68431 0.25755 0.09329 0.0
C628 C 0.69223 0.2772 0.07444 0.0
C629 C 0.67999 0.26617 0.05189 0.0
H630 H 0.42207 0.58354 0.2163 0.0
H631 H 0.51514 0.64813 0.20608 0.0
H632 H 0.50515 0.68778 0.21706 0.0
H633 H 0.39232 0.62542 0.19204 0.0
H634 H 0.36246 0.61344 0.21253 0.0
H635 H 0.37732 0.58996 0.20536 0.0
H636 H 0.38818 0.58707 0.24931 0.0
H637 H 0.3734 0.61062 0.25661 0.0
H638 H 0.41062 0.62051 0.26601 0.0
H639 H 0.48462 0.72055 0.22661 0.0
H640 H 0.45484 0.7443 0.23446 0.0
H641 H 0.37518 0.65847 0.2388 0.0
C642 C 0.44034 0.60603 0.21644 0.0
C643 C 0.46942 0.61275 0.21049 0.0
C644 C 0.49279 0.64243 0.21097 0.0
C645 C 0.48732 0.66512 0.21708 0.0
C646 C 0.4584 0.65775 0.22277 0.0
C647 C 0.43531 0.62895 0.22259 0.0
C648 C 0.4061 0.6271 0.22871 0.0
C649 C 0.38321 0.61316 0.20845 0.0
C650 C 0.39387 0.61033 0.25152 0.0
C651 C 0.41633 0.65941 0.23193 0.0
C652 C 0.44659 0.6767 0.22852 0.0
C653 C 0.46095 0.70726 0.22955 0.0
C654 C 0.44384 0.72054 0.23397 0.0
C655 C 0.41274 0.70324 0.23736 0.0
C656 C 0.39897 0.67228 0.23658 0.0
H657 H 0.83445 0.41171 0.34836 0.0
H658 H 0.89605 0.45497 0.40659 0.0
H659 H 0.85583 0.4553 0.42906 0.0
H660 H 0.79705 0.45015 0.35168 0.0
H661 H 0.76039 0.41973 0.34482 0.0
H662 H 0.79279 0.41938 0.3344 0.0
H663 H 0.77569 0.36952 0.35432 0.0
H664 H 0.74297 0.36952 0.36461 0.0
H665 H 0.76763 0.36597 0.38507 0.0
H666 H 0.81191 0.45888 0.44209 0.0
H667 H 0.76474 0.45936 0.44705 0.0
H668 H 0.73012 0.40995 0.3821 0.0
C669 C 0.83914 0.42048 0.36609 0.0
C670 C 0.86818 0.43313 0.37588 0.0
C671 C 0.87378 0.44477 0.39899 0.0
C672 C 0.85114 0.44517 0.41181 0.0
C673 C 0.82292 0.4333 0.40143 0.0
C674 C 0.81663 0.42053 0.37931 0.0
C675 C 0.78479 0.41048 0.3718 0.0
C676 C 0.78371 0.42586 0.34935 0.0
C677 C 0.7667 0.37687 0.36878 0.0
C678 C 0.77457 0.42071 0.39273 0.0
C679 C 0.79695 0.4339 0.4096 0.0
C680 C 0.79391 0.44785 0.42936 0.0
C681 C 0.76723 0.44818 0.43199 0.0
C682 C 0.74393 0.43422 0.41516 0.0
C683 C 0.74748 0.42006 0.39546 0.0
H684 H 0.10478 0.5793 0.4237 0.0
H685 H 0.13277 0.51617 0.40732 0.0
H686 H 0.16697 0.53376 0.44173 0.0
H687 H 0.17712 0.63832 0.44438 0.0
H688 H 0.16145 0.64988 0.46726 0.0
H689 H 0.14018 0.63311 0.4408 0.0
H690 H 0.09708 0.59385 0.46524 0.0
H691 H 0.11827 0.6104 0.49176 0.0
H692 H 0.10452 0.57205 0.48539 0.0
H693 H 0.19727 0.55751 0.47833 0.0
H694 H 0.22125 0.58539 0.51475 0.0
H695 H 0.17298 0.63269 0.50744 0.0
C696 C 0.11844 0.5695 0.42717 0.0
C697 C 0.11622 0.54643 0.41283 0.0
C698 C 0.13402 0.53374 0.41819 0.0
C699 C 0.15357 0.54366 0.43761 0.0
C700 C 0.155 0.56623 0.45153 0.0
C701 C 0.13793 0.57901 0.44656 0.0
C702 C 0.14297 0.60226 0.46473 0.0
C703 C 0.15623 0.6327 0.45362 0.0
C704 C 0.11398 0.59414 0.47753 0.0
C705 C 0.16542 0.60047 0.48076 0.0
C706 C 0.17218 0.57966 0.47277 0.0
C707 C 0.19221 0.57391 0.48473 0.0
C708 C 0.2057 0.58987 0.50542 0.0
C709 C 0.19901 0.61123 0.51402 0.0
C710 C 0.17858 0.61651 0.50141 0.0
H711 H 0.54004 0.13437 0.58424 0.0
H712 H 0.59831 0.10011 0.60281 0.0
H713 H 0.61356 0.13029 0.63884 0.0
H714 H 0.58443 0.20739 0.60896 0.0
H715 H 0.55266 0.20867 0.61994 0.0
H716 H 0.5487 0.18691 0.59419 0.0
H717 H 0.50631 0.14082 0.61368 0.0
H718 H 0.51005 0.16243 0.63943 0.0
H719 H 0.51305 0.12986 0.64182 0.0
H720 H 0.62208 0.16374 0.67336 0.0
H721 H 0.61937 0.19413 0.70545 0.0
H722 H 0.55135 0.20171 0.66644 0.0
C723 C 0.55587 0.1329 0.59582 0.0
C724 C 0.56815 0.11492 0.59023 0.0
C725 C 0.58911 0.11425 0.60606 0.0
C726 C 0.59781 0.13119 0.62677 0.0
C727 C 0.58506 0.14839 0.6317 0.0
C728 C 0.56426 0.14907 0.61682 0.0
C729 C 0.55221 0.16762 0.62702 0.0
C730 C 0.55997 0.19423 0.61161 0.0
C731 C 0.51841 0.14907 0.63071 0.0
C732 C 0.56929 0.17703 0.65008 0.0
C733 C 0.58857 0.16619 0.65224 0.0
C734 C 0.60699 0.17227 0.67191 0.0
C735 C 0.60537 0.18958 0.68998 0.0
C736 C 0.58502 0.20004 0.68843 0.0
C737 C 0.56691 0.19377 0.66815 0.0
H738 H 0.47033 0.60589 0.76676 0.0
H739 H 0.41221 0.51371 0.74835 0.0
H740 H 0.38068 0.50841 0.78177 0.0
H741 H 0.46827 0.59628 0.82818 0.0
H742 H 0.46817 0.62964 0.83549 0.0
H743 H 0.48523 0.62721 0.80897 0.0
H744 H 0.45163 0.64108 0.78484 0.0
H745 H 0.43449 0.64361 0.81131 0.0
H746 H 0.41173 0.61975 0.78762 0.0
H747 H 0.35754 0.51156 0.81817 0.0
H748 H 0.34277 0.52331 0.85555 0.0
H749 H 0.41513 0.61363 0.85144 0.0
C750 C 0.45085 0.58465 0.76968 0.0
C751 C 0.44359 0.5603 0.75469 0.0
C752 C 0.4179 0.53288 0.75917 0.0
C753 C 0.39992 0.52957 0.77824 0.0
C754 C 0.40781 0.55387 0.79271 0.0
C755 C 0.43252 0.58094 0.7887 0.0
C756 C 0.43638 0.60313 0.8076 0.0
C757 C 0.46629 0.61474 0.82084 0.0
C758 C 0.43337 0.62839 0.79722 0.0
C759 C 0.41026 0.58406 0.82304 0.0
C760 C 0.39413 0.55577 0.81398 0.0
C761 C 0.36979 0.53369 0.82536 0.0
C762 C 0.36168 0.5406 0.84667 0.0
C763 C 0.37776 0.56941 0.85644 0.0
C764 C 0.40225 0.5915 0.8443 0.0
H765 H 0.9026 0.48874 0.92431 0.0
H766 H 0.85051 0.41069 0.88082 0.0
H767 H 0.81535 0.38769 0.91306 0.0
H768 H 0.89465 0.45343 0.97772 0.0
H769 H 0.89141 0.48053 0.99495 0.0
H770 H 0.91203 0.49097 0.96828 0.0
H771 H 0.87902 0.5114 0.95256 0.0
H772 H 0.85842 0.50123 0.97928 0.0
H773 H 0.83907 0.48796 0.95154 0.0
H774 H 0.78727 0.37236 0.9512 0.0
H775 H 0.76725 0.36729 0.99105 0.0
H776 H 0.83655 0.45667 0.00795 0.0
C777 C 0.8835 0.46707 0.92125 0.0
C778 C 0.87947 0.45157 0.89994 0.0
C779 C 0.85443 0.4229 0.89708 0.0
C780 C 0.8342 0.4097 0.91524 0.0
C781 C 0.83911 0.42555 0.93608 0.0
C782 C 0.86299 0.45374 0.93903 0.0
C783 C 0.86349 0.46612 0.9631 0.0
C784 C 0.89209 0.47316 0.97681 0.0
C785 C 0.85977 0.49328 0.96152 0.0
C786 C 0.83635 0.44038 0.97337 0.0
C787 C 0.82259 0.4171 0.95761 0.0
C788 C 0.79769 0.39056 0.9636 0.0
C789 C 0.78655 0.38785 0.98627 0.0
C790 C 0.80019 0.41164 0.00254 0.0
C791 C 0.82537 0.43818 0.99585 0.0
H792 H 0.42549 0.89699 0.07634 0.0
H793 H 0.49255 0.87263 0.06328 0.0
H794 H 0.4761 0.8408 0.0979 0.0
H795 H 0.43428 0.90214 0.13788 0.0
H796 H 0.39532 0.88762 0.14364 0.0
H797 H 0.41071 0.90657 0.11685 0.0
H798 H 0.3713 0.86126 0.09294 0.0
H799 H 0.35571 0.84218 0.11968 0.0
H800 H 0.36778 0.82584 0.09771 0.0
H801 H 0.45363 0.81322 0.13445 0.0
H802 H 0.42807 0.79292 0.17141 0.0
H803 H 0.3762 0.8362 0.16136 0.0
C804 C 0.43632 0.88452 0.08056 0.0
C805 C 0.46012 0.887 0.0671 0.0
C806 C 0.47429 0.87098 0.07343 0.0
C807 C 0.46501 0.85279 0.09296 0.0
C808 C 0.44165 0.85104 0.10599 0.0
C809 C 0.42753 0.86651 0.10012 0.0
C810 C 0.40416 0.86205 0.1178 0.0
C811 C 0.41158 0.89134 0.12975 0.0
C812 C 0.37288 0.84692 0.10635 0.0
C813 C 0.40755 0.84188 0.1347 0.0
C814 C 0.4291 0.83559 0.12741 0.0
C815 C 0.43664 0.81789 0.14029 0.0
C816 C 0.42195 0.80647 0.1613 0.0
C817 C 0.40008 0.81295 0.16936 0.0
C818 C 0.39272 0.83076 0.1557 0.0
H819 H 0.59676 0.48913 0.2665 0.0
H820 H 0.51836 0.40303 0.25637 0.0
H821 H 0.53311 0.38523 0.29111 0.0
H822 H 0.64708 0.46395 0.28662 0.0
H823 H 0.66573 0.49376 0.30759 0.0
H824 H 0.64972 0.49887 0.28117 0.0
H825 H 0.61864 0.51505 0.30584 0.0
H826 H 0.63441 0.50985 0.33231 0.0
H827 H 0.59453 0.49103 0.328 0.0
H828 H 0.55601 0.37754 0.32797 0.0
H829 H 0.58452 0.38092 0.36403 0.0
H830 H 0.64725 0.47239 0.34964 0.0
C831 C 0.58299 0.46637 0.27131 0.0
C832 C 0.55652 0.44739 0.25867 0.0
C833 C 0.53869 0.41796 0.26589 0.0
C834 C 0.54695 0.40763 0.28551 0.0
C835 C 0.57307 0.42705 0.29773 0.0
C836 C 0.5908 0.4558 0.29087 0.0
C837 C 0.61704 0.47265 0.30751 0.0
C838 C 0.64664 0.4829 0.29497 0.0
C839 C 0.61607 0.49867 0.3191 0.0
C840 C 0.61119 0.44901 0.32495 0.0
C841 C 0.58588 0.42278 0.31898 0.0
C842 C 0.57593 0.39795 0.33276 0.0
C843 C 0.59225 0.40008 0.35321 0.0
C844 C 0.61809 0.42691 0.35973 0.0
C845 C 0.62759 0.45154 0.34524 0.0
H846 H 0.43164 0.91919 0.38332 0.0
H847 H 0.51134 0.91293 0.3941 0.0
H848 H 0.49725 0.87955 0.35984 0.0
H849 H 0.38309 0.84502 0.36386 0.0
H850 H 0.36419 0.8547 0.34212 0.0
H851 H 0.38002 0.87742 0.36798 0.0
H852 H 0.4109 0.92276 0.34223 0.0
H853 H 0.39512 0.9002 0.31628 0.0
H854 H 0.43501 0.92133 0.32045 0.0
H855 H 0.47439 0.84657 0.32462 0.0
H856 H 0.44532 0.81777 0.28992 0.0
H857 H 0.3821 0.84783 0.3008 0.0
C858 C 0.44635 0.91108 0.37841 0.0
C859 C 0.47253 0.91862 0.39162 0.0
C860 C 0.49084 0.90707 0.38465 0.0
C861 C 0.48316 0.88824 0.36509 0.0
C862 C 0.45723 0.88132 0.35253 0.0
C863 C 0.43919 0.89252 0.35881 0.0
C864 C 0.41284 0.88209 0.34206 0.0
C865 C 0.38329 0.86371 0.35477 0.0
C866 C 0.41353 0.90815 0.32951 0.0
C867 C 0.41888 0.86327 0.32537 0.0
C868 C 0.44449 0.86297 0.33182 0.0
C869 C 0.45436 0.84672 0.31933 0.0
C870 C 0.43765 0.83039 0.29968 0.0
C871 C 0.4115 0.83063 0.29258 0.0
C872 C 0.40211 0.84736 0.30566 0.0
H873 H 0.6026 0.52323 0.55964 0.0
H874 H 0.58744 0.45158 0.60523 0.0
H875 H 0.60192 0.42941 0.57357 0.0
H876 H 0.57665 0.48199 0.50669 0.0
H877 H 0.60495 0.51001 0.48898 0.0
H878 H 0.5931 0.52018 0.51515 0.0
H879 H 0.64767 0.5484 0.53081 0.0
H880 H 0.65974 0.53849 0.50461 0.0
H881 H 0.66863 0.5296 0.53283 0.0
H882 H 0.61611 0.41397 0.53631 0.0
H883 H 0.63257 0.40838 0.49719 0.0
H884 H 0.64206 0.49201 0.4772 0.0
C885 C 0.60277 0.50314 0.56323 0.0
C886 C 0.59362 0.48913 0.58501 0.0
C887 C 0.59371 0.46252 0.58861 0.0
C888 C 0.60211 0.44982 0.57076 0.0
C889 C 0.61074 0.46414 0.5495 0.0
C890 C 0.61148 0.49039 0.54576 0.0
C891 C 0.62202 0.50156 0.52143 0.0
C892 C 0.59772 0.50354 0.50723 0.0
C893 C 0.65125 0.53127 0.5225 0.0
C894 C 0.62693 0.47737 0.51201 0.0
C895 C 0.62005 0.45586 0.5284 0.0
C896 C 0.62183 0.43081 0.52341 0.0
C897 C 0.63109 0.42778 0.50113 0.0
C898 C 0.63878 0.44986 0.48424 0.0
C899 C 0.63666 0.47494 0.48984 0.0
H900 H 0.11842 0.60642 0.72977 0.0
H901 H 0.11932 0.52467 0.73699 0.0
H902 H 0.15432 0.5387 0.70447 0.0
H903 H 0.11465 0.60355 0.66823 0.0
H904 H 0.13733 0.64271 0.66481 0.0
H905 H 0.11573 0.6283 0.69074 0.0
H906 H 0.1635 0.6574 0.71649 0.0
H907 H 0.18528 0.67195 0.69062 0.0
H908 H 0.1951 0.65266 0.71154 0.0
H909 H 0.18704 0.56029 0.66961 0.0
H910 H 0.21276 0.58642 0.63402 0.0
H911 H 0.18667 0.6517 0.64747 0.0
C912 C 0.12584 0.59132 0.72462 0.0
C913 C 0.11598 0.56439 0.73622 0.0
C914 C 0.12687 0.54571 0.72891 0.0
C915 C 0.14667 0.55339 0.71029 0.0
C916 C 0.15526 0.57973 0.69898 0.0
C917 C 0.14508 0.59834 0.70581 0.0
C918 C 0.15576 0.62422 0.68965 0.0
C919 C 0.12929 0.6247 0.67765 0.0
C920 C 0.17612 0.65327 0.70287 0.0
C921 C 0.17312 0.61699 0.67237 0.0
C922 C 0.17301 0.59153 0.6783 0.0
C923 C 0.18734 0.58029 0.66484 0.0
C924 C 0.20191 0.59532 0.64466 0.0
C925 C 0.20165 0.62106 0.63792 0.0
C926 C 0.18719 0.63205 0.65211 0.0
H927 H 0.57084 0.11704 0.88495 0.0
H928 H 0.48699 0.10558 0.90998 0.0
H929 H 0.48898 0.14072 0.8809 0.0
H930 H 0.60493 0.19656 0.87338 0.0
H931 H 0.62346 0.19414 0.84771 0.0
H932 H 0.61647 0.16949 0.87156 0.0
H933 H 0.58863 0.12494 0.84305 0.0
H934 H 0.59538 0.14939 0.81916 0.0
H935 H 0.55781 0.12139 0.82554 0.0
H936 H 0.49727 0.17293 0.84674 0.0
H937 H 0.51302 0.20259 0.81101 0.0
H938 H 0.59307 0.19593 0.80963 0.0
C939 C 0.55323 0.12241 0.88471 0.0
C940 C 0.52861 0.10828 0.89966 0.0
C941 C 0.5058 0.11563 0.89844 0.0
C942 C 0.50684 0.13577 0.88211 0.0
C943 C 0.53106 0.14878 0.86732 0.0
C944 C 0.55405 0.14271 0.86864 0.0
C945 C 0.57699 0.15898 0.85011 0.0
C946 C 0.60726 0.18111 0.86137 0.0
C947 C 0.57985 0.13738 0.83349 0.0
C948 C 0.56287 0.1745 0.83781 0.0
C949 C 0.5364 0.16833 0.84805 0.0
C950 C 0.51822 0.17837 0.8388 0.0
C951 C 0.52728 0.19508 0.81847 0.0
C952 C 0.55438 0.20179 0.80775 0.0
C953 C 0.57254 0.19164 0.81775 0.0
H954 H 0.42013 0.53715 0.07628 0.0
H955 H 0.50693 0.61646 0.0766 0.0
H956 H 0.49065 0.63486 0.04318 0.0
H957 H 0.41317 0.52758 0.01566 0.0
H958 H 0.37351 0.51342 0.01463 0.0
H959 H 0.39073 0.50864 0.04039 0.0
H960 H 0.36857 0.53399 0.06565 0.0
H961 H 0.35123 0.53884 0.03992 0.0
H962 H 0.37573 0.57014 0.05814 0.0
H963 H 0.46546 0.64269 0.00741 0.0
H964 H 0.43467 0.63814 0.97235 0.0
H965 H 0.36623 0.55237 0.99513 0.0
C966 C 0.43579 0.55846 0.06944 0.0
C967 C 0.46486 0.5753 0.07911 0.0
C968 C 0.48439 0.60328 0.06975 0.0
C969 C 0.47538 0.61388 0.05069 0.0
C970 C 0.44675 0.59628 0.04125 0.0
C971 C 0.4273 0.56916 0.0504 0.0
C972 C 0.39859 0.55339 0.03623 0.0
C973 C 0.39374 0.52404 0.02613 0.0
C974 C 0.37196 0.54884 0.05086 0.0
C975 C 0.40514 0.57548 0.01725 0.0
C976 C 0.43277 0.60035 0.02057 0.0
C977 C 0.44372 0.62337 0.00476 0.0
C978 C 0.4261 0.62064 0.98493 0.0
C979 C 0.39816 0.59486 0.98098 0.0
C980 C 0.38756 0.5723 0.99759 0.0
H981 H 0.92554 0.45742 0.20253 0.0
H982 H 0.86452 0.38554 0.24609 0.0
H983 H 0.82924 0.36428 0.21265 0.0
H984 H 0.86989 0.4674 0.17575 0.0
H985 H 0.88788 0.47728 0.14786 0.0
H986 H 0.90986 0.48443 0.17424 0.0
H987 H 0.93303 0.45468 0.15723 0.0
H988 H 0.91091 0.44724 0.13083 0.0
H989 H 0.90895 0.41729 0.14729 0.0
H990 H 0.7993 0.3521 0.17455 0.0
H991 H 0.77574 0.35298 0.13683 0.0
H992 H 0.85478 0.43522 0.12025 0.0
C993 C 0.90477 0.43727 0.20526 0.0
C994 C 0.89808 0.42321 0.22712 0.0
C995 C 0.87066 0.39655 0.22949 0.0
C996 C 0.85034 0.3843 0.21058 0.0
C997 C 0.85759 0.39903 0.18943 0.0
C998 C 0.88406 0.42509 0.1868 0.0
C999 C 0.88558 0.43808 0.16304 0.0
C1000 C 0.88846 0.46859 0.16537 0.0
C1001 C 0.91113 0.43939 0.14876 0.0
C1002 C 0.85555 0.41558 0.15284 0.0
C1003 C 0.83994 0.39284 0.16806 0.0
C1004 C 0.81138 0.36976 0.16247 0.0
C1005 C 0.79823 0.37036 0.14101 0.0
C1006 C 0.81344 0.3942 0.12573 0.0
C1007 C 0.84262 0.41674 0.13163 0.0
loop_
_geom_bond_atom_site_label_1
_geom_bond_atom_site_label_2
_geom_bond_distance
_geom_bond_site_symmetry_2
_ccdc_geom_bond_type
C0 C1 1.384 . S
C0 C2 1.384 . S
C0 H28 0.931 . S
C1 C0 1.384 . S
C1 C4 1.382 . S
C2 C0 1.384 . S
C2 C3 1.381 . S
C2 H29 0.930 . S
C3 C2 1.381 . S
C3 C5 1.381 . S
C3 C6 1.487 . S
C4 C1 1.382 . S
C4 C5 1.387 . S
C4 H30 0.930 . S
C5 C3 1.381 . S
C5 C4 1.387 . S
C5 H31 0.931 . S
C6 C3 1.487 . S
C6 C13 1.399 . S
C6 N44 1.343 . S
C7 C8 1.384 . S
C7 C9 1.384 . S
C7 H32 0.931 . S
C8 C7 1.384 . S
C8 C11 1.382 . S
C9 C7 1.384 . S
C9 C10 1.381 . S
C9 H33 0.930 . S
C10 C9 1.381 . S
C10 C12 1.381 . S
C10 C13 1.487 . S
C11 C8 1.382 . S
C11 C12 1.387 . S
C11 H34 0.930 . S
C12 C10 1.381 . S
C12 C11 1.387 . S
C12 H35 0.931 . S
C13 C6 1.399 . S
C13 C10 1.487 . S
C13 N45 1.343 1_655 S
C14 C15 1.384 . S
C14 C16 1.384 . S
C14 H36 0.931 . S
C15 C14 1.384 . S
C15 C18 1.382 . S
C16 C14 1.384 . S
C16 C17 1.381 . S
C16 H37 0.930 . S
C17 C16 1.381 . S
C17 C19 1.381 . S
C17 C20 1.487 . S
C18 C15 1.382 . S
C18 C19 1.387 . S
C18 H38 0.930 . S
C19 C17 1.381 . S
C19 C18 1.387 . S
C19 H39 0.931 . S
C20 C17 1.487 . S
C20 C27 1.399 . S
C20 N45 1.343 . S
C21 C22 1.384 . S
C21 C23 1.384 . S
C21 H40 0.931 . S
C22 C21 1.384 . S
C22 C25 1.382 . S
C23 C21 1.384 . S
C23 C24 1.381 . S
C23 H41 0.930 . S
C24 C23 1.381 . S
C24 C26 1.381 . S
C24 C27 1.487 . S
C25 C22 1.382 . S
C25 C26 1.387 . S
C25 H42 0.930 . S
C26 C24 1.381 . S
C26 C25 1.387 . S
C26 H43 0.931 . S
C27 C20 1.399 . S
C27 C24 1.487 . S
C27 N44 1.343 1_455 S
H28 C0 0.931 . S
H29 C2 0.930 . S
H30 C4 0.930 . S
H31 C5 0.931 . S
H32 C7 0.931 . S
H33 C9 0.930 . S
H34 C11 0.930 . S
H35 C12 0.931 . S
H36 C14 0.931 . S
H37 C16 0.930 . S
H38 C18 0.930 . S
H39 C19 0.931 . S
H40 C21 0.931 . S
H41 C23 0.930 . S
H42 C25 0.930 . S
H43 C26 0.931 . S
N44 C6 1.343 . S
N44 C27 1.343 1_655 S
N45 C13 1.343 1_455 S
N45 C20 1.343 . S
C46 C47 1.384 . S
C46 C48 1.384 . S
C46 H74 0.931 . S
C47 C46 1.384 . S
C47 C50 1.382 . S
C48 C46 1.384 . S
C48 C49 1.381 . S
C48 H75 0.930 . S
C49 C48 1.381 . S
C49 C51 1.381 . S
C49 C52 1.487 . S
C50 C47 1.382 . S
C50 C51 1.387 . S
C50 H76 0.930 . S
C51 C49 1.381 . S
C51 C50 1.387 . S
C51 H77 0.931 . S
C52 C49 1.487 . S
C52 C59 1.399 . S
C52 N90 1.343 . S
C53 C54 1.384 . S
C53 C55 1.384 . S
C53 H78 0.931 . S
C54 C53 1.384 . S
C54 C57 1.382 . S
C55 C53 1.384 . S
C55 C56 1.381 . S
C55 H79 0.930 . S
C56 C55 1.381 . S
C56 C58 1.381 . S
C56 C59 1.487 . S
C57 C54 1.382 . S
C57 C58 1.387 . S
C57 H80 0.930 . S
C58 C56 1.381 . S
C58 C57 1.387 . S
C58 H81 0.931 . S
C59 C52 1.399 . S
C59 C56 1.487 . S
C59 N91 1.343 1_565 S
C60 C61 1.384 . S
C60 C62 1.384 . S
C60 H82 0.931 . S
C61 C60 1.384 . S
C61 C64 1.382 . S
C62 C60 1.384 . S
C62 C63 1.381 . S
C62 H83 0.930 . S
C63 C62 1.381 . S
C63 C65 1.381 . S
C63 C66 1.487 . S
C64 C61 1.382 . S
C64 C65 1.387 . S
C64 H84 0.930 . S
C65 C63 1.381 . S
C65 C64 1.387 . S
C65 H85 0.931 . S
C66 C63 1.487 . S
C66 C73 1.399 . S
C66 N91 1.343 . S
C67 C68 1.384 . S
C67 C69 1.384 . S
C67 H86 0.931 . S
C68 C67 1.384 . S
C68 C71 1.382 . S
C69 C67 1.384 . S
C69 C70 1.381 . S
C69 H87 0.930 . S
C70 C69 1.381 . S
C70 C72 1.381 . S
C70 C73 1.487 . S
C71 C68 1.382 . S
C71 C72 1.387 . S
C71 H88 0.930 . S
C72 C70 1.381 . S
C72 C71 1.387 . S
C72 H89 0.931 . S
C73 C66 1.399 . S
C73 C70 1.487 . S
C73 N90 1.343 1_545 S
H74 C46 0.931 . S
H75 C48 0.930 . S
H76 C50 0.930 . S
H77 C51 0.931 . S
H78 C53 0.931 . S
H79 C55 0.930 . S
H80 C57 0.930 . S
H81 C58 0.931 . S
H82 C60 0.931 . S
H83 C62 0.930 . S
H84 C64 0.930 . S
H85 C65 0.931 . S
H86 C67 0.931 . S
H87 C69 0.930 . S
H88 C71 0.930 . S
H89 C72 0.931 . S
N90 C52 1.343 . S
N90 C73 1.343 1_565 S
N91 C59 1.343 1_545 S
N91 C66 1.343 . S
C92 C93 1.384 . S
C92 C94 1.384 . S
C92 H120 0.931 . S
C93 C92 1.384 . S
C93 C96 1.382 . S
C94 C92 1.384 . S
C94 C95 1.381 . S
C94 H121 0.930 . S
C95 C94 1.381 . S
C95 C97 1.381 . S
C95 C98 1.487 . S
C96 C93 1.382 . S
C96 C97 1.387 . S
C96 H122 0.930 . S
C97 C95 1.381 . S
C97 C96 1.387 . S
C97 H123 0.931 . S
C98 C95 1.487 . S
C98 C105 1.399 . S
C98 N136 1.343 . S
C99 C100 1.384 . S
C99 C101 1.384 . S
C99 H124 0.931 . S
C100 C99 1.384 . S
C100 C103 1.382 . S
C101 C99 1.384 . S
C101 C102 1.381 . S
C101 H125 0.930 . S
C102 C101 1.381 . S
C102 C104 1.381 . S
C102 C105 1.487 . S
C103 C100 1.382 . S
C103 C104 1.387 . S
C103 H126 0.930 . S
C104 C102 1.381 . S
C104 C103 1.387 . S
C104 H127 0.931 . S
C105 C98 1.399 . S
C105 C102 1.487 . S
C105 N137 1.343 . S
C106 C107 1.384 . S
C106 C108 1.384 . S
C106 H128 0.931 . S
C107 C106 1.384 . S
C107 C110 1.382 . S
C108 C106 1.384 . S
C108 C109 1.381 . S
C108 H129 0.930 . S
C109 C108 1.381 . S
C109 C111 1.381 . S
C109 C112 1.487 . S
C110 C107 1.382 . S
C110 C111 1.387 . S
C110 H130 0.930 . S
C111 C109 1.381 . S
C111 C110 1.387 . S
C111 H131 0.931 . S
C112 C109 1.487 . S
C112 C119 1.399 . S
C112 N137 1.343 . S
C113 C114 1.384 . S
C113 C115 1.384 . S
C113 H132 0.931 . S
C114 C113 1.384 . S
C114 C117 1.382 . S
C115 C113 1.384 . S
C115 C116 1.381 . S
C115 H133 0.930 . S
C116 C115 1.381 . S
C116 C118 1.381 . S
C116 C119 1.487 . S
C117 C114 1.382 . S
C117 C118 1.387 . S
C117 H134 0.930 . S
C118 C116 1.381 . S
C118 C117 1.387 . S
C118 H135 0.931 . S
C119 C112 1.399 . S
C119 C116 1.487 . S
C119 N136 1.343 . S
H120 C92 0.931 . S
H121 C94 0.930 . S
H122 C96 0.930 . S
H123 C97 0.931 . S
H124 C99 0.931 . S
H125 C101 0.930 . S
H126 C103 0.930 . S
H127 C104 0.931 . S
H128 C106 0.931 . S
H129 C108 0.930 . S
H130 C110 0.930 . S
H131 C111 0.931 . S
H132 C113 0.931 . S
H133 C115 0.930 . S
H134 C117 0.930 . S
H135 C118 0.931 . S
N136 C98 1.343 . S
N136 C119 1.343 . S
N137 C105 1.343 . S
N137 C112 1.343 . S
C138 C139 1.384 . S
C138 C140 1.384 . S
C138 H166 0.931 . S
C139 C138 1.384 . S
C139 C142 1.382 . S
C140 C138 1.384 . S
C140 C141 1.381 . S
C140 H167 0.930 . S
C141 C140 1.381 . S
C141 C143 1.381 . S
C141 C144 1.487 . S
C142 C139 1.382 . S
C142 C143 1.387 . S
C142 H168 0.930 . S
C143 C141 1.381 . S
C143 C142 1.387 . S
C143 H169 0.931 . S
C144 C141 1.487 . S
C144 C151 1.399 . S
C144 N182 1.330 1_655 S
C145 C146 1.384 . S
C145 C147 1.384 . S
C145 H170 0.931 . S
C146 C145 1.384 . S
C146 C149 1.382 . S
C147 C145 1.384 . S
C147 C148 1.381 . S
C147 H171 0.930 . S
C148 C147 1.381 . S
C148 C150 1.381 . S
C148 C151 1.487 . S
C149 C146 1.382 . S
C149 C150 1.387 . S
C149 H172 0.930 . S
C150 C148 1.381 . S
C150 C149 1.387 . S
C150 H173 0.931 . S
C151 C144 1.399 . S
C151 C148 1.487 . S
C151 N183 1.343 1_655 S
C152 C153 1.384 . S
C152 C154 1.384 . S
C152 H174 0.931 . S
C153 C152 1.384 . S
C153 C156 1.382 . S
C154 C152 1.384 . S
C154 C155 1.381 . S
C154 H175 0.930 . S
C155 C154 1.381 . S
C155 C157 1.381 . S
C155 C158 1.487 . S
C156 C153 1.382 . S
C156 C157 1.387 . S
C156 H176 0.930 . S
C157 C155 1.381 . S
C157 C156 1.387 . S
C157 H177 0.931 . S
C158 C155 1.487 . S
C158 C165 1.399 . S
C158 N183 1.343 . S
C159 C160 1.384 . S
C159 C161 1.384 . S
C159 H178 0.931 . S
C160 C159 1.384 . S
C160 C163 1.382 . S
C161 C159 1.384 . S
C161 C162 1.381 . S
C161 H179 0.930 . S
C162 C161 1.381 . S
C162 C164 1.381 . S
C162 C165 1.487 . S
C163 C160 1.382 . S
C163 C164 1.387 . S
C163 H180 0.930 . S
C164 C162 1.381 . S
C164 C163 1.387 . S
C164 H181 0.931 . S
C165 C158 1.399 . S
C165 C162 1.487 . S
C165 N182 1.365 . S
H166 C138 0.931 . S
H167 C140 0.930 . S
H168 C142 0.930 . S
H169 C143 0.931 . S
H170 C145 0.931 . S
H171 C147 0.930 . S
H172 C149 0.930 . S
H173 C150 0.931 . S
H174 C152 0.931 . S
H175 C154 0.930 . S
H176 C156 0.930 . S
H177 C157 0.931 . S
H178 C159 0.931 . S
H179 C161 0.930 . S
H180 C163 0.930 . S
H181 C164 0.931 . S
N182 C144 1.330 1_455 S
N182 C165 1.365 . S
N183 C151 1.343 1_455 S
N183 C158 1.343 . S
C184 C185 1.384 . S
C184 C186 1.384 . S
C184 H212 0.931 . S
C185 C184 1.384 . S
C185 C188 1.382 . S
C186 C184 1.384 . S
C186 C187 1.381 . S
C186 H213 0.934 . S
C187 C186 1.381 . S
C187 C189 1.381 . S
C187 C190 1.487 . S
C188 C185 1.382 . S
C188 C189 1.387 . S
C188 H214 0.930 . S
C189 C187 1.381 . S
C189 C188 1.387 . S
C189 H215 0.931 . S
C190 C187 1.487 . S
C190 C197 1.399 1_556 S
C190 N228 1.351 . S
C191 C192 1.384 . S
C191 C193 1.384 . S
C191 H216 0.931 . S
C192 C191 1.384 . S
C192 C195 1.382 . S
C193 C191 1.384 . S
C193 C194 1.381 . S
C193 H217 0.930 . S
C194 C193 1.381 . S
C194 C196 1.381 . S
C194 C197 1.487 . S
C195 C192 1.382 . S
C195 C196 1.387 . S
C195 H218 0.930 . S
C196 C194 1.381 . S
C196 C195 1.387 . S
C196 H219 0.931 . S
C197 C190 1.399 1_554 S
C197 C194 1.487 . S
C197 N229 1.343 1_565 S
C198 C199 1.384 . S
C198 C200 1.384 1_554 S
C198 H220 0.931 1_554 S
C199 C198 1.384 . S
C199 C202 1.382 . S
C200 C198 1.384 1_556 S
C200 C201 1.381 1_556 S
C200 H221 0.930 . S
C201 C200 1.381 1_554 S
C201 C203 1.381 . S
C201 C204 1.487 1_554 S
C202 C199 1.382 . S
C202 C203 1.387 . S
C202 H222 0.930 . S
C203 C201 1.381 . S
C203 C202 1.387 . S
C203 H223 0.931 . S
C204 C201 1.487 1_556 S
C204 C211 1.399 . S
C204 N229 1.343 1_556 S
C205 C206 1.384 . S
C205 C207 1.384 . S
C205 H224 0.931 . S
C206 C205 1.384 . S
C206 C209 1.382 . S
C207 C205 1.384 . S
C207 C208 1.381 . S
C207 H225 0.930 . S
C208 C207 1.381 . S
C208 C210 1.381 . S
C208 C211 1.487 . S
C209 C206 1.382 . S
C209 C210 1.387 . S
C209 H226 0.930 . S
C210 C208 1.381 . S
C210 C209 1.387 . S
C210 H227 0.931 . S
C211 C204 1.399 . S
C211 C208 1.487 . S
C211 N228 1.332 1_545 S
H212 C184 0.931 . S
H213 C186 0.934 . S
H214 C188 0.930 . S
H215 C189 0.931 . S
H216 C191 0.931 . S
H217 C193 0.930 . S
H218 C195 0.930 . S
H219 C196 0.931 . S
H220 C198 0.931 1_556 S
H221 C200 0.930 . S
H222 C202 0.930 . S
H223 C203 0.931 . S
H224 C205 0.931 . S
H225 C207 0.930 . S
H226 C209 0.930 . S
H227 C210 0.931 . S
N228 C190 1.351 . S
N228 C211 1.332 1_565 S
N229 C197 1.343 1_545 S
N229 C204 1.343 1_554 S
C230 C231 1.384 . S
C230 C232 1.384 . S
C230 H258 0.931 . S
C231 C230 1.384 . S
C231 C234 1.382 . S
C232 C230 1.384 . S
C232 C233 1.381 . S
C232 H259 0.930 . S
C233 C232 1.381 . S
C233 C235 1.381 . S
C233 C236 1.487 . S
C234 C231 1.382 . S
C234 C235 1.387 . S
C234 H260 0.930 . S
C235 C233 1.381 . S
C235 C234 1.387 . S
C235 H261 0.931 . S
C236 C233 1.487 . S
C236 C243 1.399 . S
C236 N274 1.343 . S
C237 C238 1.384 . S
C237 C239 1.384 . S
C237 H262 0.931 . S
C238 C237 1.384 . S
C238 C241 1.382 . S
C239 C237 1.384 . S
C239 C240 1.381 . S
C239 H263 0.930 . S
C240 C239 1.381 . S
C240 C242 1.381 . S
C240 C243 1.487 . S
C241 C238 1.382 . S
C241 C242 1.387 . S
C241 H264 0.930 . S
C242 C240 1.381 . S
C242 C241 1.387 . S
C242 H265 0.931 . S
C243 C236 1.399 . S
C243 C240 1.487 . S
C243 N275 1.343 . S
C244 C245 1.384 . S
C244 C246 1.384 . S
C244 H266 0.931 . S
C245 C244 1.384 . S
C245 C248 1.382 . S
C246 C244 1.384 . S
C246 C247 1.381 . S
C246 H267 0.930 . S
C247 C246 1.381 . S
C247 C249 1.381 . S
C247 C250 1.487 . S
C248 C245 1.382 . S
C248 C249 1.387 . S
C248 H268 0.930 . S
C249 C247 1.381 . S
C249 C248 1.387 . S
C249 H269 0.931 . S
C250 C247 1.487 . S
C250 C257 1.399 . S
C250 N275 1.343 . S
C251 C252 1.384 . S
C251 C253 1.384 . S
C251 H270 0.931 . S
C252 C251 1.384 . S
C252 C255 1.382 . S
C253 C251 1.384 . S
C253 C254 1.381 . S
C253 H271 0.930 . S
C254 C253 1.381 . S
C254 C256 1.381 . S
C254 C257 1.487 . S
C255 C252 1.382 . S
C255 C256 1.387 . S
C255 H272 0.930 . S
C256 C254 1.381 . S
C256 C255 1.387 . S
C256 H273 0.931 . S
C257 C250 1.399 . S
C257 C254 1.487 . S
C257 N274 1.343 . S
H258 C230 0.931 . S
H259 C232 0.930 . S
H260 C234 0.930 . S
H261 C235 0.931 . S
H262 C237 0.931 . S
H263 C239 0.930 . S
H264 C241 0.930 . S
H265 C242 0.931 . S
H266 C244 0.931 . S
H267 C246 0.930 . S
H268 C248 0.930 . S
H269 C249 0.931 . S
H270 C251 0.931 . S
H271 C253 0.930 . S
H272 C255 0.930 . S
H273 C256 0.931 . S
N274 C236 1.343 . S
N274 C257 1.343 . S
N275 C243 1.343 . S
N275 C250 1.343 . S
Zn276 O279 2.031 . S
Zn276 O281 2.049 . S
Zn276 O286 2.067 . S
Zn277 O278 1.962 . S
Zn277 O280 1.986 . S
Zn277 O282 1.996 . S
Zn277 O285 1.943 . S
O278 Zn277 1.962 . S
O278 C283 1.254 . S
O279 Zn276 2.031 . S
O279 C283 1.269 . S
O280 Zn277 1.986 . S
O280 C287 1.262 . S
O281 Zn276 2.049 . S
O281 C289 1.260 . S
O282 Zn277 1.996 . S
O282 C289 1.257 . S
C283 O278 1.254 . S
C283 O279 1.269 . S
C284 O285 1.249 . S
C284 O286 1.270 . S
O285 Zn277 1.943 . S
O285 C284 1.249 . S
O286 Zn276 2.067 . S
O286 C284 1.270 . S
C287 O280 1.262 . S
C287 O288 1.232 . S
O288 C287 1.232 . S
C289 O281 1.260 . S
C289 O282 1.257 . S
Zn290 O293 2.031 . S
Zn290 O295 2.049 . S
Zn290 O300 2.067 . S
Zn291 O292 1.962 . S
Zn291 O294 1.986 . S
Zn291 O296 1.996 . S
Zn291 O299 1.943 . S
O292 Zn291 1.962 . S
O292 C297 1.254 . S
O293 Zn290 2.031 . S
O293 C297 1.269 . S
O294 Zn291 1.986 . S
O294 C301 1.262 . S
O295 Zn290 2.049 . S
O295 C303 1.260 . S
O296 Zn291 1.996 . S
O296 C303 1.257 . S
C297 O292 1.254 . S
C297 O293 1.269 . S
C298 O299 1.249 . S
C298 O300 1.270 . S
O299 Zn291 1.943 . S
O299 C298 1.249 . S
O300 Zn290 2.067 . S
O300 C298 1.270 . S
C301 O294 1.262 . S
C301 O302 1.232 . S
O302 C301 1.232 . S
C303 O295 1.260 . S
C303 O296 1.257 . S
Zn304 O307 2.031 . S
Zn304 O309 2.049 . S
Zn304 O314 2.067 . S
Zn305 O306 1.962 . S
Zn305 O308 1.986 . S
Zn305 O310 1.996 . S
Zn305 O313 1.943 . S
O306 Zn305 1.962 . S
O306 C311 1.254 . S
O307 Zn304 2.031 . S
O307 C311 1.269 . S
O308 Zn305 1.986 . S
O308 C315 1.262 . S
O309 Zn304 2.049 . S
O309 C317 1.260 . S
O310 Zn305 1.996 . S
O310 C317 1.257 . S
C311 O306 1.254 . S
C311 O307 1.269 . S
C312 O313 1.249 . S
C312 O314 1.270 . S
O313 Zn305 1.943 . S
O313 C312 1.249 . S
O314 Zn304 2.067 . S
O314 C312 1.270 . S
C315 O308 1.262 . S
C315 O316 1.232 . S
O316 C315 1.232 . S
C317 O309 1.260 . S
C317 O310 1.257 . S
Zn318 O321 2.031 . S
Zn318 O323 2.049 . S
Zn318 O328 2.067 . S
Zn319 O320 1.962 . S
Zn319 O322 1.986 . S
Zn319 O324 1.996 . S
Zn319 O327 1.943 . S
O320 Zn319 1.962 . S
O320 C325 1.254 . S
O321 Zn318 2.031 . S
O321 C325 1.269 . S
O322 Zn319 1.986 . S
O322 C329 1.262 . S
O323 Zn318 2.049 . S
O323 C331 1.260 . S
O324 Zn319 1.996 . S
O324 C331 1.257 . S
C325 O320 1.254 . S
C325 O321 1.269 . S
C326 O327 1.249 . S
C326 O328 1.270 . S
O327 Zn319 1.943 . S
O327 C326 1.249 . S
O328 Zn318 2.067 . S
O328 C326 1.270 . S
C329 O322 1.262 . S
C329 O330 1.232 . S
O330 C329 1.232 . S
C331 O323 1.260 . S
C331 O324 1.257 . S
Zn332 O335 2.031 . S
Zn332 O337 2.049 . S
Zn332 O342 2.067 . S
Zn333 O334 1.962 . S
Zn333 O336 1.986 . S
Zn333 O338 1.996 . S
Zn333 O341 1.943 . S
O334 Zn333 1.962 . S
O334 C339 1.254 . S
O335 Zn332 2.031 . S
O335 C339 1.269 . S
O336 Zn333 1.986 . S
O336 C343 1.262 . S
O337 Zn332 2.049 . S
O337 C345 1.260 . S
O338 Zn333 1.996 . S
O338 C345 1.257 . S
C339 O334 1.254 . S
C339 O335 1.269 . S
C340 O341 1.249 . S
C340 O342 1.270 . S
O341 Zn333 1.943 . S
O341 C340 1.249 . S
O342 Zn332 2.067 . S
O342 C340 1.270 . S
C343 O336 1.262 . S
C343 O344 1.232 . S
O344 C343 1.232 . S
C345 O337 1.260 . S
C345 O338 1.257 . S
Zn346 O349 2.031 . S
Zn346 O351 2.049 . S
Zn346 O356 2.067 . S
Zn347 O348 1.962 . S
Zn347 O350 1.986 . S
Zn347 O352 1.996 . S
Zn347 O355 1.943 . S
O348 Zn347 1.962 . S
O348 C353 1.254 . S
O349 Zn346 2.031 . S
O349 C353 1.269 . S
O350 Zn347 1.986 . S
O350 C357 1.262 . S
O351 Zn346 2.049 . S
O351 C359 1.260 . S
O352 Zn347 1.996 . S
O352 C359 1.257 . S
C353 O348 1.254 . S
C353 O349 1.269 . S
C354 O355 1.249 . S
C354 O356 1.270 . S
O355 Zn347 1.943 . S
O355 C354 1.249 . S
O356 Zn346 2.067 . S
O356 C354 1.270 . S
C357 O350 1.262 . S
C357 O358 1.232 . S
O358 C357 1.232 . S
C359 O351 1.260 . S
C359 O352 1.257 . S
H360 C372 0.930 . S
H361 C374 0.930 . S
H362 C375 0.930 . S
H363 C379 0.959 . S
H364 C379 0.959 . S
H365 C379 0.961 . S
H366 C380 0.960 . S
H367 C380 0.961 . S
H368 C380 0.959 . S
H369 C383 0.929 . S
H370 C384 0.931 . S
H371 C386 0.930 . S
C372 H360 0.930 . S
C372 C373 1.399 . S
C372 C377 1.399 . S
C373 C372 1.399 . S
C373 C374 1.376 . S
C374 H361 0.930 . S
C374 C373 1.376 . S
C374 C375 1.388 . S
C375 H362 0.930 . S
C375 C374 1.388 . S
C375 C376 1.390 . S
C376 C375 1.390 . S
C376 C377 1.394 . S
C376 C382 1.465 . S
C377 C372 1.399 . S
C377 C376 1.394 . S
C377 C378 1.516 . S
C378 C377 1.516 . S
C378 C379 1.502 . S
C378 C380 1.561 . S
C378 C381 1.526 . S
C379 H363 0.959 . S
C379 H364 0.959 . S
C379 H365 0.961 . S
C379 C378 1.502 . S
C380 H366 0.960 . S
C380 H367 0.961 . S
C380 H368 0.959 . S
C380 C378 1.561 . S
C381 C378 1.526 . S
C381 C382 1.396 . S
C381 C386 1.390 . S
C382 C376 1.465 . S
C382 C381 1.396 . S
C382 C383 1.399 . S
C383 H369 0.929 . S
C383 C382 1.399 . S
C383 C384 1.385 . S
C384 H370 0.931 . S
C384 C383 1.385 . S
C384 C385 1.389 . S
C385 C384 1.389 . S
C385 C386 1.387 . S
C386 H371 0.930 . S
C386 C381 1.390 . S
C386 C385 1.387 . S
H387 C399 0.930 . S
H388 C401 0.930 . S
H389 C402 0.930 . S
H390 C406 0.959 . S
H391 C406 0.959 . S
H392 C406 0.961 . S
H393 C407 0.960 . S
H394 C407 0.961 . S
H395 C407 0.959 . S
H396 C410 0.929 . S
H397 C411 0.931 . S
H398 C413 0.930 . S
C399 H387 0.930 . S
C399 C400 1.399 . S
C399 C404 1.399 . S
C400 C399 1.399 . S
C400 C401 1.376 . S
C401 H388 0.930 . S
C401 C400 1.376 . S
C401 C402 1.388 . S
C402 H389 0.930 . S
C402 C401 1.388 . S
C402 C403 1.390 . S
C403 C402 1.390 . S
C403 C404 1.394 . S
C403 C409 1.465 . S
C404 C399 1.399 . S
C404 C403 1.394 . S
C404 C405 1.516 . S
C405 C404 1.516 . S
C405 C406 1.502 . S
C405 C407 1.561 . S
C405 C408 1.526 . S
C406 H390 0.959 . S
C406 H391 0.959 . S
C406 H392 0.961 . S
C406 C405 1.502 . S
C407 H393 0.960 . S
C407 H394 0.961 . S
C407 H395 0.959 . S
C407 C405 1.561 . S
C408 C405 1.526 . S
C408 C409 1.396 . S
C408 C413 1.390 . S
C409 C403 1.465 . S
C409 C408 1.396 . S
C409 C410 1.399 . S
C410 H396 0.929 . S
C410 C409 1.399 . S
C410 C411 1.385 . S
C411 H397 0.931 . S
C411 C410 1.385 . S
C411 C412 1.389 . S
C412 C411 1.389 . S
C412 C413 1.387 . S
C413 H398 0.930 . S
C413 C408 1.390 . S
C413 C412 1.387 . S
H414 C426 0.930 . S
H415 C428 0.930 . S
H416 C429 0.930 . S
H417 C433 0.959 . S
H418 C433 0.959 . S
H419 C433 0.961 . S
H420 C434 0.960 . S
H421 C434 0.961 . S
H422 C434 0.959 . S
H423 C437 0.929 . S
H424 C438 0.931 . S
H425 C440 0.930 . S
C426 H414 0.930 . S
C426 C427 1.399 . S
C426 C431 1.399 . S
C427 C426 1.399 . S
C427 C428 1.376 . S
C428 H415 0.930 . S
C428 C427 1.376 . S
C428 C429 1.388 . S
C429 H416 0.930 . S
C429 C428 1.388 . S
C429 C430 1.390 . S
C430 C429 1.390 . S
C430 C431 1.394 . S
C430 C436 1.465 . S
C431 C426 1.399 . S
C431 C430 1.394 . S
C431 C432 1.516 . S
C432 C431 1.516 . S
C432 C433 1.502 . S
C432 C434 1.561 . S
C432 C435 1.526 . S
C433 H417 0.959 . S
C433 H418 0.959 . S
C433 H419 0.961 . S
C433 C432 1.502 . S
C434 H420 0.960 . S
C434 H421 0.961 . S
C434 H422 0.959 . S
C434 C432 1.561 . S
C435 C432 1.526 . S
C435 C436 1.396 . S
C435 C440 1.390 . S
C436 C430 1.465 . S
C436 C435 1.396 . S
C436 C437 1.399 . S
C437 H423 0.929 . S
C437 C436 1.399 . S
C437 C438 1.385 . S
C438 H424 0.931 . S
C438 C437 1.385 . S
C438 C439 1.389 . S
C439 C438 1.389 . S
C439 C440 1.387 . S
C440 H425 0.930 . S
C440 C435 1.390 . S
C440 C439 1.387 . S
H441 C453 0.930 . S
H442 C455 0.930 . S
H443 C456 0.930 . S
H444 C460 0.959 . S
H445 C460 0.959 . S
H446 C460 0.961 . S
H447 C461 0.960 . S
H448 C461 0.961 . S
H449 C461 0.959 . S
H450 C464 0.929 . S
H451 C465 0.931 . S
H452 C467 0.930 . S
C453 H441 0.930 . S
C453 C454 1.399 . S
C453 C458 1.399 . S
C454 C453 1.399 . S
C454 C455 1.376 . S
C455 H442 0.930 . S
C455 C454 1.376 . S
C455 C456 1.388 . S
C456 H443 0.930 . S
C456 C455 1.388 . S
C456 C457 1.390 . S
C457 C456 1.390 . S
C457 C458 1.394 . S
C457 C463 1.465 . S
C458 C453 1.399 . S
C458 C457 1.394 . S
C458 C459 1.516 . S
C459 C458 1.516 . S
C459 C460 1.502 . S
C459 C461 1.561 . S
C459 C462 1.526 . S
C460 H444 0.959 . S
C460 H445 0.959 . S
C460 H446 0.961 . S
C460 C459 1.502 . S
C461 H447 0.960 . S
C461 H448 0.961 . S
C461 H449 0.959 . S
C461 C459 1.561 . S
C462 C459 1.526 . S
C462 C463 1.396 . S
C462 C467 1.390 . S
C463 C457 1.465 . S
C463 C462 1.396 . S
C463 C464 1.399 . S
C464 H450 0.929 . S
C464 C463 1.399 . S
C464 C465 1.385 . S
C465 H451 0.931 . S
C465 C464 1.385 . S
C465 C466 1.389 . S
C466 C465 1.389 . S
C466 C467 1.387 . S
C467 H452 0.930 . S
C467 C462 1.390 . S
C467 C466 1.387 . S
H468 C480 0.930 . S
H469 C482 0.930 . S
H470 C483 0.930 . S
H471 C487 0.959 . S
H472 C487 0.959 . S
H473 C487 0.961 . S
H474 C488 0.960 . S
H475 C488 0.961 . S
H476 C488 0.959 . S
H477 C491 0.929 . S
H478 C492 0.931 . S
H479 C494 0.930 . S
C480 H468 0.930 . S
C480 C481 1.399 . S
C480 C485 1.399 . S
C481 C480 1.399 . S
C481 C482 1.376 . S
C482 H469 0.930 . S
C482 C481 1.376 . S
C482 C483 1.388 . S
C483 H470 0.930 . S
C483 C482 1.388 . S
C483 C484 1.390 . S
C484 C483 1.390 . S
C484 C485 1.394 . S
C484 C490 1.465 . S
C485 C480 1.399 . S
C485 C484 1.394 . S
C485 C486 1.516 . S
C486 C485 1.516 . S
C486 C487 1.502 . S
C486 C488 1.561 . S
C486 C489 1.526 . S
C487 H471 0.959 . S
C487 H472 0.959 . S
C487 H473 0.961 . S
C487 C486 1.502 . S
C488 H474 0.960 . S
C488 H475 0.961 . S
C488 H476 0.959 . S
C488 C486 1.561 . S
C489 C486 1.526 . S
C489 C490 1.396 . S
C489 C494 1.390 . S
C490 C484 1.465 . S
C490 C489 1.396 . S
C490 C491 1.399 . S
C491 H477 0.929 . S
C491 C490 1.399 . S
C491 C492 1.385 . S
C492 H478 0.931 . S
C492 C491 1.385 . S
C492 C493 1.389 . S
C493 C492 1.389 . S
C493 C494 1.387 . S
C494 H479 0.930 . S
C494 C489 1.390 . S
C494 C493 1.387 . S
H495 C507 0.930 . S
H496 C509 0.930 . S
H497 C510 0.930 . S
H498 C514 0.959 . S
H499 C514 0.959 . S
H500 C514 0.961 . S
H501 C515 0.960 . S
H502 C515 0.961 . S
H503 C515 0.959 . S
H504 C518 0.929 . S
H505 C519 0.931 . S
H506 C521 0.930 . S
C507 H495 0.930 . S
C507 C508 1.399 . S
C507 C512 1.399 . S
C508 C507 1.399 . S
C508 C509 1.376 . S
C509 H496 0.930 . S
C509 C508 1.376 . S
C509 C510 1.388 . S
C510 H497 0.930 . S
C510 C509 1.388 . S
C510 C511 1.390 . S
C511 C510 1.390 . S
C511 C512 1.394 . S
C511 C517 1.465 . S
C512 C507 1.399 . S
C512 C511 1.394 . S
C512 C513 1.516 . S
C513 C512 1.516 . S
C513 C514 1.502 . S
C513 C515 1.561 . S
C513 C516 1.526 . S
C514 H498 0.959 . S
C514 H499 0.959 . S
C514 H500 0.961 . S
C514 C513 1.502 . S
C515 H501 0.960 . S
C515 H502 0.961 . S
C515 H503 0.959 . S
C515 C513 1.561 . S
C516 C513 1.526 . S
C516 C517 1.396 . S
C516 C521 1.390 . S
C517 C511 1.465 . S
C517 C516 1.396 . S
C517 C518 1.399 . S
C518 H504 0.929 . S
C518 C517 1.399 . S
C518 C519 1.385 . S
C519 H505 0.931 . S
C519 C518 1.385 . S
C519 C520 1.389 . S
C520 C519 1.389 . S
C520 C521 1.387 . S
C521 H506 0.930 . S
C521 C516 1.390 . S
C521 C520 1.387 . S
H522 C534 0.930 . S
H523 C536 0.930 . S
H524 C537 0.930 . S
H525 C541 0.959 . S
H526 C541 0.959 . S
H527 C541 0.961 . S
H528 C542 0.960 . S
H529 C542 0.961 . S
H530 C542 0.959 . S
H531 C545 0.929 . S
H532 C546 0.931 . S
H533 C548 0.930 . S
C534 H522 0.930 . S
C534 C535 1.399 . S
C534 C539 1.399 . S
C535 C534 1.399 . S
C535 C536 1.376 . S
C536 H523 0.930 . S
C536 C535 1.376 . S
C536 C537 1.388 . S
C537 H524 0.930 . S
C537 C536 1.388 . S
C537 C538 1.390 . S
C538 C537 1.390 . S
C538 C539 1.394 . S
C538 C544 1.465 . S
C539 C534 1.399 . S
C539 C538 1.394 . S
C539 C540 1.516 . S
C540 C539 1.516 . S
C540 C541 1.502 . S
C540 C542 1.561 . S
C540 C543 1.526 . S
C541 H525 0.959 . S
C541 H526 0.959 . S
C541 H527 0.961 . S
C541 C540 1.502 . S
C542 H528 0.960 . S
C542 H529 0.961 . S
C542 H530 0.959 . S
C542 C540 1.561 . S
C543 C540 1.526 . S
C543 C544 1.396 . S
C543 C548 1.390 . S
C544 C538 1.465 . S
C544 C543 1.396 . S
C544 C545 1.399 . S
C545 H531 0.929 . S
C545 C544 1.399 . S
C545 C546 1.385 . S
C546 H532 0.931 . S
C546 C545 1.385 . S
C546 C547 1.389 . S
C547 C546 1.389 . S
C547 C548 1.387 . S
C548 H533 0.930 . S
C548 C543 1.390 . S
C548 C547 1.387 . S
H549 C561 0.930 . S
H550 C563 0.930 . S
H551 C564 0.930 . S
H552 C568 0.959 . S
H553 C568 0.959 . S
H554 C568 0.961 . S
H555 C569 0.960 . S
H556 C569 0.961 . S
H557 C569 0.959 . S
H558 C572 0.929 . S
H559 C573 0.931 . S
H560 C575 0.930 . S
C561 H549 0.930 . S
C561 C562 1.399 . S
C561 C566 1.399 . S
C562 C561 1.399 . S
C562 C563 1.376 . S
C563 H550 0.930 . S
C563 C562 1.376 . S
C563 C564 1.388 . S
C564 H551 0.930 . S
C564 C563 1.388 . S
C564 C565 1.390 . S
C565 C564 1.390 . S
C565 C566 1.394 . S
C565 C571 1.465 . S
C566 C561 1.399 . S
C566 C565 1.394 . S
C566 C567 1.516 . S
C567 C566 1.516 . S
C567 C568 1.502 . S
C567 C569 1.561 . S
C567 C570 1.526 . S
C568 H552 0.959 . S
C568 H553 0.959 . S
C568 H554 0.961 . S
C568 C567 1.502 . S
C569 H555 0.960 . S
C569 H556 0.961 . S
C569 H557 0.959 . S
C569 C567 1.561 . S
C570 C567 1.526 . S
C570 C571 1.396 . S
C570 C575 1.390 . S
C571 C565 1.465 . S
C571 C570 1.396 . S
C571 C572 1.399 . S
C572 H558 0.929 . S
C572 C571 1.399 . S
C572 C573 1.385 . S
C573 H559 0.931 . S
C573 C572 1.385 . S
C573 C574 1.389 . S
C574 C573 1.389 . S
C574 C575 1.387 . S
C575 H560 0.930 . S
C575 C570 1.390 . S
C575 C574 1.387 . S
H576 C588 0.930 . S
H577 C590 0.930 . S
H578 C591 0.930 . S
H579 C595 0.959 . S
H580 C595 0.959 . S
H581 C595 0.961 . S
H582 C596 0.960 . S
H583 C596 0.961 . S
H584 C596 0.959 . S
H585 C599 0.929 . S
H586 C600 0.931 . S
H587 C602 0.930 . S
C588 H576 0.930 . S
C588 C589 1.399 . S
C588 C593 1.399 . S
C589 C588 1.399 . S
C589 C590 1.376 . S
C590 H577 0.930 . S
C590 C589 1.376 . S
C590 C591 1.388 . S
C591 H578 0.930 . S
C591 C590 1.388 . S
C591 C592 1.390 . S
C592 C591 1.390 . S
C592 C593 1.394 . S
C592 C598 1.465 . S
C593 C588 1.399 . S
C593 C592 1.394 . S
C593 C594 1.516 . S
C594 C593 1.516 . S
C594 C595 1.502 . S
C594 C596 1.561 . S
C594 C597 1.526 . S
C595 H579 0.959 . S
C595 H580 0.959 . S
C595 H581 0.961 . S
C595 C594 1.502 . S
C596 H582 0.960 . S
C596 H583 0.961 . S
C596 H584 0.959 . S
C596 C594 1.561 . S
C597 C594 1.526 . S
C597 C598 1.396 . S
C597 C602 1.390 . S
C598 C592 1.465 . S
C598 C597 1.396 . S
C598 C599 1.399 . S
C599 H585 0.929 . S
C599 C598 1.399 . S
C599 C600 1.385 . S
C600 H586 0.931 . S
C600 C599 1.385 . S
C600 C601 1.389 . S
C601 C600 1.389 . S
C601 C602 1.387 . S
C602 H587 0.930 . S
C602 C597 1.390 . S
C602 C601 1.387 . S
H603 C615 0.930 . S
H604 C617 0.930 . S
H605 C618 0.930 . S
H606 C622 0.959 1_554 S
H607 C622 0.960 . S
H608 C622 0.962 . S
H609 C623 0.960 1_556 S
H610 C623 0.961 . S
H611 C623 0.959 . S
H612 C626 0.929 . S
H613 C627 0.931 . S
H614 C629 0.930 . S
C615 H603 0.930 . S
C615 C616 1.399 . S
C615 C620 1.399 . S
C616 C615 1.399 . S
C616 C617 1.376 . S
C617 H604 0.930 . S
C617 C616 1.376 . S
C617 C618 1.388 . S
C618 H605 0.930 . S
C618 C617 1.388 . S
C618 C619 1.390 . S
C619 C618 1.390 . S
C619 C620 1.394 . S
C619 C625 1.465 . S
C620 C615 1.399 . S
C620 C619 1.394 . S
C620 C621 1.516 . S
C621 C620 1.516 . S
C621 C622 1.500 1_554 S
C621 C623 1.561 . S
C621 C624 1.526 . S
C622 H606 0.959 1_556 S
C622 H607 0.960 . S
C622 H608 0.962 . S
C622 C621 1.500 1_556 S
C623 H609 0.960 1_554 S
C623 H610 0.961 . S
C623 H611 0.959 . S
C623 C621 1.561 . S
C624 C621 1.526 . S
C624 C625 1.396 . S
C624 C629 1.390 . S
C625 C619 1.465 . S
C625 C624 1.396 . S
C625 C626 1.399 . S
C626 H612 0.929 . S
C626 C625 1.399 . S
C626 C627 1.385 . S
C627 H613 0.931 . S
C627 C626 1.385 . S
C627 C628 1.389 . S
C628 C627 1.389 . S
C628 C629 1.387 . S
C629 H614 0.930 . S
C629 C624 1.390 . S
C629 C628 1.387 . S
H630 C642 0.930 . S
H631 C644 0.930 . S
H632 C645 0.930 . S
H633 C649 0.959 . S
H634 C649 0.959 . S
H635 C649 0.961 . S
H636 C650 0.960 . S
H637 C650 0.961 . S
H638 C650 0.959 . S
H639 C653 0.929 . S
H640 C654 0.931 . S
H641 C656 0.930 . S
C642 H630 0.930 . S
C642 C643 1.399 . S
C642 C647 1.399 . S
C643 C642 1.399 . S
C643 C644 1.376 . S
C644 H631 0.930 . S
C644 C643 1.376 . S
C644 C645 1.388 . S
C645 H632 0.930 . S
C645 C644 1.388 . S
C645 C646 1.390 . S
C646 C645 1.390 . S
C646 C647 1.394 . S
C646 C652 1.465 . S
C647 C642 1.399 . S
C647 C646 1.394 . S
C647 C648 1.516 . S
C648 C647 1.516 . S
C648 C649 1.502 . S
C648 C650 1.561 . S
C648 C651 1.526 . S
C649 H633 0.959 . S
C649 H634 0.959 . S
C649 H635 0.961 . S
C649 C648 1.502 . S
C650 H636 0.960 . S
C650 H637 0.961 . S
C650 H638 0.959 . S
C650 C648 1.561 . S
C651 C648 1.526 . S
C651 C652 1.396 . S
C651 C656 1.390 . S
C652 C646 1.465 . S
C652 C651 1.396 . S
C652 C653 1.399 . S
C653 H639 0.929 . S
C653 C652 1.399 . S
C653 C654 1.385 . S
C654 H640 0.931 . S
C654 C653 1.385 . S
C654 C655 1.389 . S
C655 C654 1.389 . S
C655 C656 1.387 . S
C656 H641 0.930 . S
C656 C651 1.390 . S
C656 C655 1.387 . S
H657 C669 0.930 . S
H658 C671 0.930 . S
H659 C672 0.930 . S
H660 C676 0.959 . S
H661 C676 0.959 . S
H662 C676 0.961 . S
H663 C677 0.960 . S
H664 C677 0.961 . S
H665 C677 0.959 . S
H666 C680 0.929 . S
H667 C681 0.931 . S
H668 C683 0.930 . S
C669 H657 0.930 . S
C669 C670 1.399 . S
C669 C674 1.399 . S
C670 C669 1.399 . S
C670 C671 1.376 . S
C671 H658 0.930 . S
C671 C670 1.376 . S
C671 C672 1.388 . S
C672 H659 0.930 . S
C672 C671 1.388 . S
C672 C673 1.390 . S
C673 C672 1.390 . S
C673 C674 1.394 . S
C673 C679 1.465 . S
C674 C669 1.399 . S
C674 C673 1.394 . S
C674 C675 1.516 . S
C675 C674 1.516 . S
C675 C676 1.502 . S
C675 C677 1.561 . S
C675 C678 1.526 . S
C676 H660 0.959 . S
C676 H661 0.959 . S
C676 H662 0.961 . S
C676 C675 1.502 . S
C677 H663 0.960 . S
C677 H664 0.961 . S
C677 H665 0.959 . S
C677 C675 1.561 . S
C678 C675 1.526 . S
C678 C679 1.396 . S
C678 C683 1.390 . S
C679 C673 1.465 . S
C679 C678 1.396 . S
C679 C680 1.399 . S
C680 H666 0.929 . S
C680 C679 1.399 . S
C680 C681 1.385 . S
C681 H667 0.931 . S
C681 C680 1.385 . S
C681 C682 1.389 . S
C682 C681 1.389 . S
C682 C683 1.387 . S
C683 H668 0.930 . S
C683 C678 1.390 . S
C683 C682 1.387 . S
H684 C696 0.930 . S
H685 C698 0.930 . S
H686 C699 0.930 . S
H687 C703 0.959 . S
H688 C703 0.959 . S
H689 C703 0.961 . S
H690 C704 0.960 . S
H691 C704 0.961 . S
H692 C704 0.959 . S
H693 C707 0.929 . S
H694 C708 0.931 . S
H695 C710 0.930 . S
C696 H684 0.930 . S
C696 C697 1.399 . S
C696 C701 1.399 . S
C697 C696 1.399 . S
C697 C698 1.376 . S
C698 H685 0.930 . S
C698 C697 1.376 . S
C698 C699 1.388 . S
C699 H686 0.930 . S
C699 C698 1.388 . S
C699 C700 1.390 . S
C700 C699 1.390 . S
C700 C701 1.394 . S
C700 C706 1.465 . S
C701 C696 1.399 . S
C701 C700 1.394 . S
C701 C702 1.516 . S
C702 C701 1.516 . S
C702 C703 1.502 . S
C702 C704 1.561 . S
C702 C705 1.526 . S
C703 H687 0.959 . S
C703 H688 0.959 . S
C703 H689 0.961 . S
C703 C702 1.502 . S
C704 H690 0.960 . S
C704 H691 0.961 . S
C704 H692 0.959 . S
C704 C702 1.561 . S
C705 C702 1.526 . S
C705 C706 1.396 . S
C705 C710 1.390 . S
C706 C700 1.465 . S
C706 C705 1.396 . S
C706 C707 1.399 . S
C707 H693 0.929 . S
C707 C706 1.399 . S
C707 C708 1.385 . S
C708 H694 0.931 . S
C708 C707 1.385 . S
C708 C709 1.389 . S
C709 C708 1.389 . S
C709 C710 1.387 . S
C710 H695 0.930 . S
C710 C705 1.390 . S
C710 C709 1.387 . S
H711 C723 0.930 . S
H712 C725 0.930 . S
H713 C726 0.930 . S
H714 C730 0.959 . S
H715 C730 0.959 . S
H716 C730 0.961 . S
H717 C731 0.960 . S
H718 C731 0.961 . S
H719 C731 0.959 . S
H720 C734 0.929 . S
H721 C735 0.931 . S
H722 C737 0.930 . S
C723 H711 0.930 . S
C723 C724 1.399 . S
C723 C728 1.399 . S
C724 C723 1.399 . S
C724 C725 1.376 . S
C725 H712 0.930 . S
C725 C724 1.376 . S
C725 C726 1.388 . S
C726 H713 0.930 . S
C726 C725 1.388 . S
C726 C727 1.390 . S
C727 C726 1.390 . S
C727 C728 1.394 . S
C727 C733 1.465 . S
C728 C723 1.399 . S
C728 C727 1.394 . S
C728 C729 1.516 . S
C729 C728 1.516 . S
C729 C730 1.502 . S
C729 C731 1.561 . S
C729 C732 1.526 . S
C730 H714 0.959 . S
C730 H715 0.959 . S
C730 H716 0.961 . S
C730 C729 1.502 . S
C731 H717 0.960 . S
C731 H718 0.961 . S
C731 H719 0.959 . S
C731 C729 1.561 . S
C732 C729 1.526 . S
C732 C733 1.396 . S
C732 C737 1.390 . S
C733 C727 1.465 . S
C733 C732 1.396 . S
C733 C734 1.399 . S
C734 H720 0.929 . S
C734 C733 1.399 . S
C734 C735 1.385 . S
C735 H721 0.931 . S
C735 C734 1.385 . S
C735 C736 1.389 . S
C736 C735 1.389 . S
C736 C737 1.387 . S
C737 H722 0.930 . S
C737 C732 1.390 . S
C737 C736 1.387 . S
H738 C750 0.930 . S
H739 C752 0.930 . S
H740 C753 0.930 . S
H741 C757 0.959 . S
H742 C757 0.959 . S
H743 C757 0.961 . S
H744 C758 0.960 . S
H745 C758 0.961 . S
H746 C758 0.959 . S
H747 C761 0.929 . S
H748 C762 0.931 . S
H749 C764 0.930 . S
C750 H738 0.930 . S
C750 C751 1.399 . S
C750 C755 1.399 . S
C751 C750 1.399 . S
C751 C752 1.376 . S
C752 H739 0.930 . S
C752 C751 1.376 . S
C752 C753 1.388 . S
C753 H740 0.930 . S
C753 C752 1.388 . S
C753 C754 1.390 . S
C754 C753 1.390 . S
C754 C755 1.394 . S
C754 C760 1.465 . S
C755 C750 1.399 . S
C755 C754 1.394 . S
C755 C756 1.516 . S
C756 C755 1.516 . S
C756 C757 1.502 . S
C756 C758 1.561 . S
C756 C759 1.526 . S
C757 H741 0.959 . S
C757 H742 0.959 . S
C757 H743 0.961 . S
C757 C756 1.502 . S
C758 H744 0.960 . S
C758 H745 0.961 . S
C758 H746 0.959 . S
C758 C756 1.561 . S
C759 C756 1.526 . S
C759 C760 1.396 . S
C759 C764 1.390 . S
C760 C754 1.465 . S
C760 C759 1.396 . S
C760 C761 1.399 . S
C761 H747 0.929 . S
C761 C760 1.399 . S
C761 C762 1.385 . S
C762 H748 0.931 . S
C762 C761 1.385 . S
C762 C763 1.389 . S
C763 C762 1.389 . S
C763 C764 1.387 . S
C764 H749 0.930 . S
C764 C759 1.390 . S
C764 C763 1.387 . S
H765 C777 0.930 . S
H766 C779 0.930 . S
H767 C780 0.930 . S
H768 C784 0.959 . S
H769 C784 0.959 . S
H770 C784 0.961 . S
H771 C785 0.960 . S
H772 C785 0.961 . S
H773 C785 0.959 . S
H774 C788 0.929 . S
H775 C789 0.931 . S
H776 C791 0.930 . S
C777 H765 0.930 . S
C777 C778 1.399 . S
C777 C782 1.399 . S
C778 C777 1.399 . S
C778 C779 1.376 . S
C779 H766 0.930 . S
C779 C778 1.376 . S
C779 C780 1.388 . S
C780 H767 0.930 . S
C780 C779 1.388 . S
C780 C781 1.390 . S
C781 C780 1.390 . S
C781 C782 1.394 . S
C781 C787 1.465 . S
C782 C777 1.399 . S
C782 C781 1.394 . S
C782 C783 1.516 . S
C783 C782 1.516 . S
C783 C784 1.502 . S
C783 C785 1.561 . S
C783 C786 1.526 . S
C784 H768 0.959 . S
C784 H769 0.959 . S
C784 H770 0.961 . S
C784 C783 1.502 . S
C785 H771 0.960 . S
C785 H772 0.961 . S
C785 H773 0.959 . S
C785 C783 1.561 . S
C786 C783 1.526 . S
C786 C787 1.396 . S
C786 C791 1.390 1_556 S
C787 C781 1.465 . S
C787 C786 1.396 . S
C787 C788 1.399 . S
C788 H774 0.929 . S
C788 C787 1.399 . S
C788 C789 1.385 1_556 S
C789 H775 0.931 . S
C789 C788 1.385 1_554 S
C789 C790 1.389 . S
C790 C789 1.389 . S
C790 C791 1.387 . S
C791 H776 0.930 . S
C791 C786 1.390 1_554 S
C791 C790 1.387 . S
H792 C804 0.930 . S
H793 C806 0.930 . S
H794 C807 0.930 . S
H795 C811 0.959 . S
H796 C811 0.959 . S
H797 C811 0.961 . S
H798 C812 0.960 . S
H799 C812 0.961 . S
H800 C812 0.959 . S
H801 C815 0.929 . S
H802 C816 0.931 . S
H803 C818 0.930 . S
C804 H792 0.930 . S
C804 C805 1.399 . S
C804 C809 1.399 . S
C805 C804 1.399 . S
C805 C806 1.376 . S
C806 H793 0.930 . S
C806 C805 1.376 . S
C806 C807 1.388 . S
C807 H794 0.930 . S
C807 C806 1.388 . S
C807 C808 1.390 . S
C808 C807 1.390 . S
C808 C809 1.394 . S
C808 C814 1.465 . S
C809 C804 1.399 . S
C809 C808 1.394 . S
C809 C810 1.516 . S
C810 C809 1.516 . S
C810 C811 1.502 . S
C810 C812 1.561 . S
C810 C813 1.526 . S
C811 H795 0.959 . S
C811 H796 0.959 . S
C811 H797 0.961 . S
C811 C810 1.502 . S
C812 H798 0.960 . S
C812 H799 0.961 . S
C812 H800 0.959 . S
C812 C810 1.561 . S
C813 C810 1.526 . S
C813 C814 1.396 . S
C813 C818 1.390 . S
C814 C808 1.465 . S
C814 C813 1.396 . S
C814 C815 1.399 . S
C815 H801 0.929 . S
C815 C814 1.399 . S
C815 C816 1.385 . S
C816 H802 0.931 . S
C816 C815 1.385 . S
C816 C817 1.389 . S
C817 C816 1.389 . S
C817 C818 1.387 . S
C818 H803 0.930 . S
C818 C813 1.390 . S
C818 C817 1.387 . S
H819 C831 0.930 . S
H820 C833 0.930 . S
H821 C834 0.930 . S
H822 C838 0.959 . S
H823 C838 0.959 . S
H824 C838 0.961 . S
H825 C839 0.960 . S
H826 C839 0.961 . S
H827 C839 0.959 . S
H828 C842 0.929 . S
H829 C843 0.931 . S
H830 C845 0.930 . S
C831 H819 0.930 . S
C831 C832 1.399 . S
C831 C836 1.399 . S
C832 C831 1.399 . S
C832 C833 1.376 . S
C833 H820 0.930 . S
C833 C832 1.376 . S
C833 C834 1.388 . S
C834 H821 0.930 . S
C834 C833 1.388 . S
C834 C835 1.390 . S
C835 C834 1.390 . S
C835 C836 1.394 . S
C835 C841 1.465 . S
C836 C831 1.399 . S
C836 C835 1.394 . S
C836 C837 1.516 . S
C837 C836 1.516 . S
C837 C838 1.502 . S
C837 C839 1.561 . S
C837 C840 1.526 . S
C838 H822 0.959 . S
C838 H823 0.959 . S
C838 H824 0.961 . S
C838 C837 1.502 . S
C839 H825 0.960 . S
C839 H826 0.961 . S
C839 H827 0.959 . S
C839 C837 1.561 . S
C840 C837 1.526 . S
C840 C841 1.396 . S
C840 C845 1.390 . S
C841 C835 1.465 . S
C841 C840 1.396 . S
C841 C842 1.399 . S
C842 H828 0.929 . S
C842 C841 1.399 . S
C842 C843 1.385 . S
C843 H829 0.931 . S
C843 C842 1.385 . S
C843 C844 1.389 . S
C844 C843 1.389 . S
C844 C845 1.387 . S
C845 H830 0.930 . S
C845 C840 1.390 . S
C845 C844 1.387 . S
H846 C858 0.930 . S
H847 C860 0.930 . S
H848 C861 0.930 . S
H849 C865 0.959 . S
H850 C865 0.959 . S
H851 C865 0.961 . S
H852 C866 0.960 . S
H853 C866 0.961 . S
H854 C866 0.959 . S
H855 C869 0.929 . S
H856 C870 0.931 . S
H857 C872 0.930 . S
C858 H846 0.930 . S
C858 C859 1.399 . S
C858 C863 1.399 . S
C859 C858 1.399 . S
C859 C860 1.376 . S
C860 H847 0.930 . S
C860 C859 1.376 . S
C860 C861 1.388 . S
C861 H848 0.930 . S
C861 C860 1.388 . S
C861 C862 1.390 . S
C862 C861 1.390 . S
C862 C863 1.394 . S
C862 C868 1.465 . S
C863 C858 1.399 . S
C863 C862 1.394 . S
C863 C864 1.516 . S
C864 C863 1.516 . S
C864 C865 1.502 . S
C864 C866 1.561 . S
C864 C867 1.526 . S
C865 H849 0.959 . S
C865 H850 0.959 . S
C865 H851 0.961 . S
C865 C864 1.502 . S
C866 H852 0.960 . S
C866 H853 0.961 . S
C866 H854 0.959 . S
C866 C864 1.561 . S
C867 C864 1.526 . S
C867 C868 1.396 . S
C867 C872 1.390 . S
C868 C862 1.465 . S
C868 C867 1.396 . S
C868 C869 1.399 . S
C869 H855 0.929 . S
C869 C868 1.399 . S
C869 C870 1.385 . S
C870 H856 0.931 . S
C870 C869 1.385 . S
C870 C871 1.389 . S
C871 C870 1.389 . S
C871 C872 1.387 . S
C872 H857 0.930 . S
C872 C867 1.390 . S
C872 C871 1.387 . S
H873 C885 0.930 . S
H874 C887 0.930 . S
H875 C888 0.930 . S
H876 C892 0.959 . S
H877 C892 0.959 . S
H878 C892 0.961 . S
H879 C893 0.960 . S
H880 C893 0.961 . S
H881 C893 0.959 . S
H882 C896 0.929 . S
H883 C897 0.931 . S
H884 C899 0.930 . S
C885 H873 0.930 . S
C885 C886 1.399 . S
C885 C890 1.399 . S
C886 C885 1.399 . S
C886 C887 1.376 . S
C887 H874 0.930 . S
C887 C886 1.376 . S
C887 C888 1.388 . S
C888 H875 0.930 . S
C888 C887 1.388 . S
C888 C889 1.390 . S
C889 C888 1.390 . S
C889 C890 1.394 . S
C889 C895 1.465 . S
C890 C885 1.399 . S
C890 C889 1.394 . S
C890 C891 1.516 . S
C891 C890 1.516 . S
C891 C892 1.502 . S
C891 C893 1.561 . S
C891 C894 1.526 . S
C892 H876 0.959 . S
C892 H877 0.959 . S
C892 H878 0.961 . S
C892 C891 1.502 . S
C893 H879 0.960 . S
C893 H880 0.961 . S
C893 H881 0.959 . S
C893 C891 1.561 . S
C894 C891 1.526 . S
C894 C895 1.396 . S
C894 C899 1.390 . S
C895 C889 1.465 . S
C895 C894 1.396 . S
C895 C896 1.399 . S
C896 H882 0.929 . S
C896 C895 1.399 . S
C896 C897 1.385 . S
C897 H883 0.931 . S
C897 C896 1.385 . S
C897 C898 1.389 . S
C898 C897 1.389 . S
C898 C899 1.387 . S
C899 H884 0.930 . S
C899 C894 1.390 . S
C899 C898 1.387 . S
H900 C912 0.930 . S
H901 C914 0.930 . S
H902 C915 0.930 . S
H903 C919 0.959 . S
H904 C919 0.959 . S
H905 C919 0.961 . S
H906 C920 0.960 . S
H907 C920 0.961 . S
H908 C920 0.959 . S
H909 C923 0.929 . S
H910 C924 0.931 . S
H911 C926 0.930 . S
C912 H900 0.930 . S
C912 C913 1.399 . S
C912 C917 1.399 . S
C913 C912 1.399 . S
C913 C914 1.376 . S
C914 H901 0.930 . S
C914 C913 1.376 . S
C914 C915 1.388 . S
C915 H902 0.930 . S
C915 C914 1.388 . S
C915 C916 1.390 . S
C916 C915 1.390 . S
C916 C917 1.394 . S
C916 C922 1.465 . S
C917 C912 1.399 . S
C917 C916 1.394 . S
C917 C918 1.516 . S
C918 C917 1.516 . S
C918 C919 1.502 . S
C918 C920 1.561 . S
C918 C921 1.526 . S
C919 H903 0.959 . S
C919 H904 0.959 . S
C919 H905 0.961 . S
C919 C918 1.502 . S
C920 H906 0.960 . S
C920 H907 0.961 . S
C920 H908 0.959 . S
C920 C918 1.561 . S
C921 C918 1.526 . S
C921 C922 1.396 . S
C921 C926 1.390 . S
C922 C916 1.465 . S
C922 C921 1.396 . S
C922 C923 1.399 . S
C923 H909 0.929 . S
C923 C922 1.399 . S
C923 C924 1.385 . S
C924 H910 0.931 . S
C924 C923 1.385 . S
C924 C925 1.389 . S
C925 C924 1.389 . S
C925 C926 1.387 . S
C926 H911 0.930 . S
C926 C921 1.390 . S
C926 C925 1.387 . S
H927 C939 0.930 . S
H928 C941 0.930 . S
H929 C942 0.930 . S
H930 C946 0.959 . S
H931 C946 0.959 . S
H932 C946 0.961 . S
H933 C947 0.960 . S
H934 C947 0.961 . S
H935 C947 0.959 . S
H936 C950 0.929 . S
H937 C951 0.931 . S
H938 C953 0.930 . S
C939 H927 0.930 . S
C939 C940 1.399 . S
C939 C944 1.399 . S
C940 C939 1.399 . S
C940 C941 1.376 . S
C941 H928 0.930 . S
C941 C940 1.376 . S
C941 C942 1.388 . S
C942 H929 0.930 . S
C942 C941 1.388 . S
C942 C943 1.390 . S
C943 C942 1.390 . S
C943 C944 1.394 . S
C943 C949 1.465 . S
C944 C939 1.399 . S
C944 C943 1.394 . S
C944 C945 1.516 . S
C945 C944 1.516 . S
C945 C946 1.502 . S
C945 C947 1.561 . S
C945 C948 1.526 . S
C946 H930 0.959 . S
C946 H931 0.959 . S
C946 H932 0.961 . S
C946 C945 1.502 . S
C947 H933 0.960 . S
C947 H934 0.961 . S
C947 H935 0.959 . S
C947 C945 1.561 . S
C948 C945 1.526 . S
C948 C949 1.396 . S
C948 C953 1.390 . S
C949 C943 1.465 . S
C949 C948 1.396 . S
C949 C950 1.399 . S
C950 H936 0.929 . S
C950 C949 1.399 . S
C950 C951 1.385 . S
C951 H937 0.931 . S
C951 C950 1.385 . S
C951 C952 1.389 . S
C952 C951 1.389 . S
C952 C953 1.387 . S
C953 H938 0.930 . S
C953 C948 1.390 . S
C953 C952 1.387 . S
H954 C966 0.930 . S
H955 C968 0.930 . S
H956 C969 0.930 . S
H957 C973 0.959 . S
H958 C973 0.959 . S
H959 C973 0.961 . S
H960 C974 0.960 . S
H961 C974 0.961 . S
H962 C974 0.959 . S
H963 C977 0.929 . S
H964 C978 0.931 . S
H965 C980 0.930 . S
C966 H954 0.930 . S
C966 C967 1.399 . S
C966 C971 1.399 . S
C967 C966 1.399 . S
C967 C968 1.376 . S
C968 H955 0.930 . S
C968 C967 1.376 . S
C968 C969 1.388 . S
C969 H956 0.930 . S
C969 C968 1.388 . S
C969 C970 1.390 . S
C970 C969 1.390 . S
C970 C971 1.394 . S
C970 C976 1.465 1_554 S
C971 C966 1.399 . S
C971 C970 1.394 . S
C971 C972 1.516 . S
C972 C971 1.516 . S
C972 C973 1.502 . S
C972 C974 1.561 . S
C972 C975 1.526 . S
C973 H957 0.959 . S
C973 H958 0.959 . S
C973 H959 0.961 . S
C973 C972 1.502 . S
C974 H960 0.960 . S
C974 H961 0.961 . S
C974 H962 0.959 . S
C974 C972 1.561 . S
C975 C972 1.526 . S
C975 C976 1.396 1_554 S
C975 C980 1.390 1_554 S
C976 C970 1.465 1_556 S
C976 C975 1.396 1_556 S
C976 C977 1.399 . S
C977 H963 0.929 . S
C977 C976 1.399 . S
C977 C978 1.385 . S
C978 H964 0.931 . S
C978 C977 1.385 . S
C978 C979 1.389 . S
C979 C978 1.389 . S
C979 C980 1.387 . S
C980 H965 0.930 . S
C980 C975 1.390 1_556 S
C980 C979 1.387 . S
H981 C993 0.930 . S
H982 C995 0.930 . S
H983 C996 0.930 . S
H984 C1000 0.959 . S
H985 C1000 0.959 . S
H986 C1000 0.961 . S
H987 C1001 0.960 . S
H988 C1001 0.961 . S
H989 C1001 0.959 . S
H990 C1004 0.929 . S
H991 C1005 0.931 . S
H992 C1007 0.930 . S
C993 H981 0.930 . S
C993 C994 1.399 . S
C993 C998 1.399 . S
C994 C993 1.399 . S
C994 C995 1.376 . S
C995 H982 0.930 . S
C995 C994 1.376 . S
C995 C996 1.388 . S
C996 H983 0.930 . S
C996 C995 1.388 . S
C996 C997 1.390 . S
C997 C996 1.390 . S
C997 C998 1.394 . S
C997 C1003 1.465 . S
C998 C993 1.399 . S
C998 C997 1.394 . S
C998 C999 1.516 . S
C999 C998 1.516 . S
C999 C1000 1.502 . S
C999 C1001 1.561 . S
C999 C1002 1.526 . S
C1000 H984 0.959 . S
C1000 H985 0.959 . S
C1000 H986 0.961 . S
C1000 C999 1.502 . S
C1001 H987 0.960 . S
C1001 H988 0.961 . S
C1001 H989 0.959 . S
C1001 C999 1.561 . S
C1002 C999 1.526 . S
C1002 C1003 1.396 . S
C1002 C1007 1.390 . S
C1003 C997 1.465 . S
C1003 C1002 1.396 . S
C1003 C1004 1.399 . S
C1004 H990 0.929 . S
C1004 C1003 1.399 . S
C1004 C1005 1.385 . S
C1005 H991 0.931 . S
C1005 C1004 1.385 . S
C1005 C1006 1.389 . S
C1006 C1005 1.389 . S
C1006 C1007 1.387 . S
C1007 H992 0.930 . S
C1007 C1002 1.390 . S
C1007 C1006 1.387 . S
C385 C353 1.553 . S
C373 C15 1.557 . S
C400 C61 1.426 . S
C412 C287 1.456 . S
C427 C114 1.361 . S
C439 C301 1.416 . S
C454 C139 1.452 . S
C466 C315 1.478 . S
C493 C329 1.501 . S
C481 C185 1.552 . S
C508 C245 1.522 . S
C520 C339 1.527 . S
C535 C47 1.546 . S
C547 C297 1.572 . S
C562 C100 1.656 . S
C574 C311 1.647 . S
C589 C153 1.536 . S
C601 C325 1.596 . S
C628 C343 1.494 . S
C616 C199 1.516 . S
C655 C357 1.503 . S
C643 C231 1.501 . S
C682 C283 1.533 . S
C670 C1 1.529 . S
C697 C22 1.456 . S
C709 C298 1.463 . S
C724 C68 1.561 . S
C736 C312 1.485 . S
C763 C326 1.481 . S
C751 C107 1.564 . S
C778 C146 1.454 . S
C790 C345 1.440 . S
C817 C359 1.401 . S
C805 C192 1.424 . S
C844 C284 1.439 . S
C832 C252 1.434 . S
C871 C354 1.440 . S
C859 C54 1.449 . S
C886 C93 1.345 . S
C898 C289 1.342 . S
C925 C303 1.311 . S
C913 C160 1.370 . S
C940 C206 1.441 . S
C952 C317 1.338 . S
C967 C238 1.470 . S
C979 C331 1.372 . S
C994 C8 1.484 . S
C1006 C340 1.429 . S
