# Generated by pormake.
# Topology nom, (4,4)-cn, num edge types: 1
# Building blocks:
#     Node 0, Type 0, BuildingBlock: MUDLON_clean_linker_0, # of connection points: 4
#     Node 1, Type 0, BuildingBlock: MUDLON_clean_linker_0, # of connection points: 4
#     Node 2, Type 0, BuildingBlock: MUDLON_clean_linker_0, # of connection points: 4
#     Node 3, Type 0, BuildingBlock: MUDLON_clean_linker_0, # of connection points: 4
#     Node 4, Type 0, BuildingBlock: MUDLON_clean_linker_0, # of connection points: 4
#     Node 5, Type 0, BuildingBlock: MUDLON_clean_linker_0, # of connection points: 4
#     Node 6, Type 1, BuildingBlock: KUFVIS_clean_sbu_0, # of connection points: 4
#     Node 7, Type 1, BuildingBlock: KUFVIS_clean_sbu_0, # of connection points: 4
#     Node 8, Type 1, BuildingBlock: KUFVIS_clean_sbu_0, # of connection points: 4
#     Node 9, Type 1, BuildingBlock: KUFVIS_clean_sbu_0, # of connection points: 4
#     Node 10, Type 1, BuildingBlock: KUFVIS_clean_sbu_0, # of connection points: 4
#     Node 11, Type 1, BuildingBlock: KUFVIS_clean_sbu_0, # of connection points: 4
#     Edge 12, Type (0, 1), BuildingBlock: KIFKEQ_clean_linker_1, # of connection points: 2
#     Edge 13, Type (0, 1), BuildingBlock: KIFKEQ_clean_linker_1, # of connection points: 2
#     Edge 14, Type (0, 1), BuildingBlock: KIFKEQ_clean_linker_1, # of connection points: 2
#     Edge 15, Type (0, 1), BuildingBlock: KIFKEQ_clean_linker_1, # of connection points: 2
#     Edge 16, Type (0, 1), BuildingBlock: KIFKEQ_clean_linker_1, # of connection points: 2
#     Edge 17, Type (0, 1), BuildingBlock: KIFKEQ_clean_linker_1, # of connection points: 2
#     Edge 18, Type (0, 1), BuildingBlock: KIFKEQ_clean_linker_1, # of connection points: 2
#     Edge 19, Type (0, 1), BuildingBlock: KIFKEQ_clean_linker_1, # of connection points: 2
#     Edge 20, Type (0, 1), BuildingBlock: KIFKEQ_clean_linker_1, # of connection points: 2
#     Edge 21, Type (0, 1), BuildingBlock: KIFKEQ_clean_linker_1, # of connection points: 2
#     Edge 22, Type (0, 1), BuildingBlock: KIFKEQ_clean_linker_1, # of connection points: 2
#     Edge 23, Type (0, 1), BuildingBlock: KIFKEQ_clean_linker_1, # of connection points: 2
#     Edge 24, Type (0, 1), BuildingBlock: KIFKEQ_clean_linker_1, # of connection points: 2
#     Edge 25, Type (0, 1), BuildingBlock: KIFKEQ_clean_linker_1, # of connection points: 2
#     Edge 26, Type (0, 1), BuildingBlock: KIFKEQ_clean_linker_1, # of connection points: 2
#     Edge 27, Type (0, 1), BuildingBlock: KIFKEQ_clean_linker_1, # of connection points: 2
#     Edge 28, Type (0, 1), BuildingBlock: KIFKEQ_clean_linker_1, # of connection points: 2
#     Edge 29, Type (0, 1), BuildingBlock: KIFKEQ_clean_linker_1, # of connection points: 2
#     Edge 30, Type (0, 1), BuildingBlock: KIFKEQ_clean_linker_1, # of connection points: 2
#     Edge 31, Type (0, 1), BuildingBlock: KIFKEQ_clean_linker_1, # of connection points: 2
#     Edge 32, Type (0, 1), BuildingBlock: KIFKEQ_clean_linker_1, # of connection points: 2
#     Edge 33, Type (0, 1), BuildingBlock: KIFKEQ_clean_linker_1, # of connection points: 2
#     Edge 34, Type (0, 1), BuildingBlock: KIFKEQ_clean_linker_1, # of connection points: 2
#     Edge 35, Type (0, 1), BuildingBlock: KIFKEQ_clean_linker_1, # of connection points: 2
# Relax obj value: 0.008
# Max RMSD: 0.106
# Mean RMSD: 0.064
data_MOF--net-nom--node1-KUFVIS_clean_sbu_0--node2-MUDLON_clean_linker_0--edge1-KIFKEQ_clean_linker_1
_symmetry_space_group_name_H-M    P1
_symmetry_Int_Tables_number       1
_symmetry_cell_setting            triclinic
loop_
_symmetry_equiv_pos_as_xyz
'x, y, z'
_cell_length_a     60.612192
_cell_length_b     62.141912
_cell_length_c     61.60877
_cell_angle_alpha  90.981552
_cell_angle_beta   90.469364
_cell_angle_gamma 120.52936
loop_
_atom_site_label
_atom_site_type_symbol
_atom_site_fract_x
_atom_site_fract_y
_atom_site_fract_z
_atom_type_partial_charge
H0 H 0.14184 0.55075 0.32623 0.0
N1 N 0.1018 0.55599 0.33316 0.0
H2 H 0.18015 0.57826 0.3057 0.0
H3 H 0.10713 0.59318 0.30645 0.0
H4 H 0.14532 0.62055 0.28548 0.0
H5 H 0.11628 0.60304 0.34831 0.0
H6 H 0.13434 0.62034 0.38443 0.0
H7 H 0.10202 0.53076 0.36744 0.0
H8 H 0.11985 0.54786 0.40373 0.0
H9 H 0.07361 0.51121 0.31467 0.0
H10 H 0.07088 0.57634 0.33539 0.0
H11 H 0.02828 0.49007 0.30422 0.0
H12 H 0.02517 0.55506 0.32573 0.0
H13 H 0.91486 0.43528 0.25793 0.0
H14 H 0.89866 0.4328 0.22078 0.0
H15 H 0.88737 0.49462 0.23579 0.0
H16 H 0.90387 0.49724 0.27264 0.0
H17 H 0.91131 0.50022 0.31313 0.0
H18 H 0.8739 0.49346 0.3335 0.0
H19 H 0.83792 0.41398 0.32049 0.0
H20 H 0.87562 0.42097 0.30059 0.0
H21 H 0.9428 0.44808 0.31126 0.0
H22 H 0.9881 0.47163 0.32189 0.0
H23 H 0.9939 0.53854 0.29606 0.0
N24 N 0.91593 0.46436 0.29054 0.0
H25 H 0.94827 0.5149 0.28624 0.0
C26 C 0.12164 0.56978 0.31779 0.0
C27 C 0.14225 0.56559 0.31695 0.0
C28 C 0.1641 0.58136 0.30537 0.0
C29 C 0.16565 0.60153 0.29414 0.0
C30 C 0.14446 0.605 0.29392 0.0
C31 C 0.12265 0.58936 0.30584 0.0
C32 C 0.10802 0.56559 0.35518 0.0
C33 C 0.11651 0.59076 0.36043 0.0
C34 C 0.12693 0.60066 0.38103 0.0
C35 C 0.1287 0.5855 0.39681 0.0
C36 C 0.11857 0.55996 0.39196 0.0
C37 C 0.10842 0.55016 0.37128 0.0
C38 C 0.07553 0.54514 0.32595 0.0
C39 C 0.06314 0.52091 0.31692 0.0
C40 C 0.03718 0.50882 0.31118 0.0
C41 C 0.02289 0.52067 0.31449 0.0
C42 C 0.03557 0.54538 0.32292 0.0
C43 C 0.0617 0.55755 0.32856 0.0
C44 C 0.9103 0.46616 0.2681 0.0
C45 C 0.90946 0.44865 0.25298 0.0
C46 C 0.90028 0.44731 0.23182 0.0
C47 C 0.89155 0.46338 0.22552 0.0
C48 C 0.89373 0.48185 0.24032 0.0
C49 C 0.90321 0.48337 0.26139 0.0
C50 C 0.89623 0.46099 0.30541 0.0
C51 C 0.89561 0.48132 0.31508 0.0
C52 C 0.87407 0.47743 0.32654 0.0
C53 C 0.85277 0.45318 0.3285 0.0
C54 C 0.85403 0.43286 0.31956 0.0
C55 C 0.87553 0.43678 0.30816 0.0
C56 C 0.94222 0.47956 0.29779 0.0
C57 C 0.95384 0.46788 0.3081 0.0
C58 C 0.97979 0.48135 0.31395 0.0
C59 C 0.99484 0.50694 0.30948 0.0
C60 C 0.98292 0.5189 0.29979 0.0
C61 C 0.95681 0.50535 0.29404 0.0
H62 H 0.48306 0.89368 0.46791 0.0
N63 N 0.47473 0.9305 0.45895 0.0
H64 H 0.45729 0.85755 0.49008 0.0
H65 H 0.43518 0.9239 0.48462 0.0
H66 H 0.41016 0.88871 0.50811 0.0
H67 H 0.42772 0.91367 0.44034 0.0
H68 H 0.41414 0.89516 0.40369 0.0
H69 H 0.50479 0.93134 0.42754 0.0
H70 H 0.49185 0.91395 0.39064 0.0
H71 H 0.52378 0.96075 0.46868 0.0
H72 H 0.45213 0.95882 0.46164 0.0
H73 H 0.54578 0.00552 0.47658 0.0
H74 H 0.47348 0.00349 0.47117 0.0
H75 H 0.61048 0.14789 0.51425 0.0
H76 H 0.61237 0.16674 0.55003 0.0
H77 H 0.53032 0.12028 0.55472 0.0
H78 H 0.52841 0.10196 0.51849 0.0
H79 H 0.53541 0.13109 0.48487 0.0
H80 H 0.54388 0.16737 0.46376 0.0
H81 H 0.61429 0.17361 0.44149 0.0
H82 H 0.60592 0.1377 0.46324 0.0
H83 H 0.57747 0.08051 0.50831 0.0
H84 H 0.55281 0.03545 0.50239 0.0
H85 H 0.50118 0.04385 0.45919 0.0
N86 N 0.56906 0.11484 0.49191 0.0
H87 H 0.5249 0.08875 0.46659 0.0
C88 C 0.46126 0.91156 0.47473 0.0
C89 C 0.46738 0.89281 0.47695 0.0
C90 C 0.45264 0.87221 0.48979 0.0
C91 C 0.43148 0.87 0.50107 0.0
C92 C 0.42598 0.88942 0.49944 0.0
C93 C 0.44053 0.90985 0.48621 0.0
C94 C 0.46719 0.92349 0.4366 0.0
C95 C 0.4418 0.91405 0.42941 0.0
C96 C 0.43414 0.90361 0.40843 0.0
C97 C 0.45183 0.90266 0.39434 0.0
C98 C 0.4776 0.91378 0.40123 0.0
C99 C 0.48512 0.92394 0.42219 0.0
C100 C 0.48639 0.95649 0.46506 0.0
C101 C 0.51275 0.97003 0.46938 0.0
C102 C 0.52521 0.99564 0.47406 0.0
C103 C 0.51145 0.00833 0.47489 0.0
C104 C 0.48482 0.99455 0.47056 0.0
C105 C 0.47245 0.96889 0.46545 0.0
C106 C 0.56944 0.12348 0.51384 0.0
C107 C 0.59297 0.1416 0.52312 0.0
C108 C 0.594 0.15236 0.54341 0.0
C109 C 0.57149 0.14488 0.55497 0.0
C110 C 0.54791 0.12616 0.54608 0.0
C111 C 0.54682 0.11571 0.52548 0.0
C112 C 0.5702 0.13182 0.47568 0.0
C113 C 0.55231 0.13988 0.47499 0.0
C114 C 0.55719 0.16064 0.46286 0.0
C115 C 0.58 0.17368 0.45119 0.0
C116 C 0.59681 0.16432 0.45064 0.0
C117 C 0.59194 0.14363 0.46281 0.0
C118 C 0.55341 0.0882 0.4878 0.0
C119 C 0.56071 0.07257 0.49768 0.0
C120 C 0.54666 0.04676 0.49407 0.0
C121 C 0.52513 0.03579 0.47994 0.0
C122 C 0.51747 0.05145 0.4703 0.0
C123 C 0.53129 0.07735 0.47435 0.0
H124 H 0.48513 0.61535 0.64644 0.0
N125 N 0.474 0.57428 0.66754 0.0
H126 H 0.45552 0.62299 0.62507 0.0
H127 H 0.42558 0.53881 0.65431 0.0
H128 H 0.39547 0.54666 0.6339 0.0
H129 H 0.43377 0.53958 0.6911 0.0
H130 H 0.42258 0.54538 0.72748 0.0
H131 H 0.50095 0.61316 0.69444 0.0
H132 H 0.489 0.61988 0.7307 0.0
H133 H 0.51594 0.58989 0.6446 0.0
H134 H 0.45652 0.52465 0.67541 0.0
H135 H 0.53686 0.56669 0.63408 0.0
H136 H 0.47819 0.50189 0.66662 0.0
H137 H 0.60921 0.49497 0.61128 0.0
H138 H 0.61498 0.48103 0.57539 0.0
H139 H 0.53334 0.44285 0.56351 0.0
H140 H 0.52753 0.4561 0.59963 0.0
H141 H 0.53185 0.43221 0.63369 0.0
H142 H 0.53914 0.40314 0.65458 0.0
H143 H 0.60805 0.46549 0.68278 0.0
H144 H 0.60086 0.49424 0.66133 0.0
H145 H 0.58468 0.53033 0.63923 0.0
H146 H 0.56168 0.55194 0.64816 0.0
H147 H 0.4898 0.48195 0.641 0.0
N148 N 0.56543 0.4822 0.63049 0.0
H149 H 0.5134 0.4604 0.6338 0.0
C150 C 0.45745 0.57671 0.65218 0.0
C151 C 0.46577 0.60013 0.64323 0.0
C152 C 0.44888 0.60446 0.63112 0.0
C153 C 0.42322 0.58548 0.62811 0.0
C154 C 0.41514 0.56164 0.63623 0.0
C155 C 0.43226 0.55717 0.64792 0.0
C156 C 0.46859 0.57583 0.69007 0.0
C157 C 0.44649 0.55685 0.69976 0.0
C158 C 0.43979 0.5604 0.72058 0.0
C159 C 0.45466 0.58324 0.73203 0.0
C160 C 0.47721 0.60193 0.72255 0.0
C161 C 0.48408 0.59818 0.7018 0.0
C162 C 0.485 0.55936 0.66117 0.0
C163 C 0.50756 0.5706 0.64928 0.0
C164 C 0.51963 0.55731 0.64351 0.0
C165 C 0.50964 0.53242 0.64985 0.0
C166 C 0.48652 0.52093 0.66129 0.0
C167 C 0.47416 0.53414 0.66665 0.0
C168 C 0.56807 0.47687 0.60812 0.0
C169 C 0.59262 0.484 0.60076 0.0
C170 C 0.59587 0.47596 0.58039 0.0
C171 C 0.57458 0.46092 0.56681 0.0
C172 C 0.55003 0.45462 0.57369 0.0
C173 C 0.54673 0.46228 0.59432 0.0
C174 C 0.56597 0.46537 0.64594 0.0
C175 C 0.54813 0.4396 0.6448 0.0
C176 C 0.55234 0.42302 0.65679 0.0
C177 C 0.57443 0.43197 0.6701 0.0
C178 C 0.59115 0.45794 0.67235 0.0
C179 C 0.58696 0.47442 0.66033 0.0
C180 C 0.55081 0.49396 0.6355 0.0
C181 C 0.56395 0.51975 0.63965 0.0
C182 C 0.55066 0.53207 0.64452 0.0
C183 C 0.52368 0.51889 0.64498 0.0
C184 C 0.51051 0.49283 0.64097 0.0
C185 C 0.52396 0.48044 0.63653 0.0
H186 H 0.12595 0.58961 0.79549 0.0
N187 N 0.09621 0.54025 0.78378 0.0
H188 H 0.16468 0.60802 0.81851 0.0
H189 H 0.11228 0.51592 0.80821 0.0
H190 H 0.15083 0.53409 0.83145 0.0
H191 H 0.1063 0.51315 0.75642 0.0
H192 H 0.12589 0.52522 0.72087 0.0
H193 H 0.10381 0.58102 0.76168 0.0
H194 H 0.12496 0.59424 0.72666 0.0
H195 H 0.0797 0.56871 0.80439 0.0
H196 H 0.05473 0.49614 0.77554 0.0
H197 H 0.03603 0.5545 0.81605 0.0
H198 H 0.01076 0.48209 0.78583 0.0
H199 H 0.88285 0.49116 0.84789 0.0
H200 H 0.86495 0.48013 0.8838 0.0
H201 H 0.91845 0.45569 0.89939 0.0
H202 H 0.93455 0.46474 0.86282 0.0
H203 H 0.89734 0.43085 0.83095 0.0
H204 H 0.85881 0.39825 0.81208 0.0
H205 H 0.84944 0.45482 0.78083 0.0
H206 H 0.88866 0.48746 0.79924 0.0
H207 H 0.95022 0.52725 0.81806 0.0
H208 H 0.99398 0.54286 0.80579 0.0
H209 H 0.98459 0.46995 0.81581 0.0
N210 N 0.9161 0.48121 0.8296 0.0
H211 H 0.94079 0.45442 0.82674 0.0
C212 C 0.11631 0.55132 0.80009 0.0
C213 C 0.13101 0.57736 0.80355 0.0
C214 C 0.15322 0.58787 0.81663 0.0
C215 C 0.16089 0.57252 0.82668 0.0
C216 C 0.14532 0.54643 0.82411 0.0
C217 C 0.12331 0.53598 0.81087 0.0
C218 C 0.10399 0.54631 0.76169 0.0
C219 C 0.10984 0.5306 0.74971 0.0
C220 C 0.12136 0.53775 0.72955 0.0
C221 C 0.12767 0.56104 0.72107 0.0
C222 C 0.12043 0.57619 0.73263 0.0
C223 C 0.10851 0.56878 0.75274 0.0
C224 C 0.07046 0.53328 0.78938 0.0
C225 C 0.06475 0.54978 0.80037 0.0
C226 C 0.03963 0.54162 0.80688 0.0
C227 C 0.0197 0.51695 0.80217 0.0
C228 C 0.02555 0.50094 0.79036 0.0
C229 C 0.05064 0.50899 0.78422 0.0
C230 C 0.91005 0.47891 0.85241 0.0
C231 C 0.89096 0.48377 0.85921 0.0
C232 C 0.88082 0.47751 0.87994 0.0
C233 C 0.89 0.46676 0.89479 0.0
C234 C 0.91026 0.46325 0.88836 0.0
C235 C 0.91989 0.46886 0.86733 0.0
C236 C 0.89619 0.46168 0.81612 0.0
C237 C 0.8877 0.43629 0.81934 0.0
C238 C 0.86551 0.41765 0.80871 0.0
C239 C 0.85114 0.42407 0.79509 0.0
C240 C 0.86013 0.44941 0.79133 0.0
C241 C 0.88256 0.46801 0.80165 0.0
C242 C 0.94218 0.48978 0.82344 0.0
C243 C 0.95773 0.51473 0.81758 0.0
C244 C 0.98281 0.52363 0.8107 0.0
C245 C 0.99302 0.50772 0.80971 0.0
C246 C 0.97738 0.48272 0.81587 0.0
C247 C 0.95221 0.47378 0.8224 0.0
H248 H 0.52807 0.14713 0.96855 0.0
N249 N 0.53406 0.10911 0.95722 0.0
H250 H 0.5588 0.18564 0.98813 0.0
H251 H 0.57776 0.11728 0.97816 0.0
H252 H 0.60895 0.15595 0.99743 0.0
H253 H 0.57985 0.12343 0.93787 0.0
H254 H 0.59147 0.139 0.90137 0.0
H255 H 0.50241 0.1062 0.92561 0.0
H256 H 0.51335 0.12024 0.88832 0.0
H257 H 0.49459 0.0838 0.98282 0.0
H258 H 0.55279 0.0779 0.94814 0.0
H259 H 0.47554 0.04045 0.9937 0.0
H260 H 0.53308 0.03404 0.95786 0.0
H261 H 0.40571 0.90312 0.01782 0.0
H262 H 0.40012 0.88586 0.05408 0.0
H263 H 0.48237 0.9231 0.06267 0.0
H264 H 0.48765 0.93967 0.02628 0.0
H265 H 0.48592 0.91591 0.99333 0.0
H266 H 0.48097 0.87888 0.97421 0.0
H267 H 0.4072 0.86268 0.94905 0.0
H268 H 0.41249 0.89994 0.96813 0.0
H269 H 0.42873 0.95641 0.9873 0.0
H270 H 0.45069 1.00047 0.97815 0.0
H271 H 0.52362 0.00419 0.98512 0.0
N272 N 0.44914 0.92884 0.9967 0.0
H273 H 0.50121 0.95967 0.99308 0.0
C274 C 0.55059 0.12942 0.97192 0.0
C275 C 0.54544 0.14877 0.97528 0.0
C276 C 0.56314 0.17083 0.98624 0.0
C277 C 0.5865 0.17402 0.99407 0.0
C278 C 0.59109 0.15405 0.9917 0.0
C279 C 0.57329 0.13192 0.98068 0.0
C280 C 0.54027 0.11402 0.9346 0.0
C281 C 0.56516 0.12248 0.92714 0.0
C282 C 0.57173 0.13122 0.90607 0.0
C283 C 0.55347 0.13128 0.89182 0.0
C284 C 0.52814 0.12117 0.89894 0.0
C285 C 0.52171 0.11281 0.92015 0.0
C286 C 0.52478 0.08401 0.96442 0.0
C287 C 0.50321 0.07306 0.97753 0.0
C288 C 0.49221 0.04817 0.98353 0.0
C289 C 0.50237 0.0334 0.97629 0.0
C290 C 0.5247 0.04474 0.9638 0.0
C291 C 0.53592 0.06986 0.95805 0.0
C292 C 0.44698 0.92272 0.01933 0.0
C293 C 0.42248 0.90795 0.02776 0.0
C294 C 0.41936 0.89814 0.0485 0.0
C295 C 0.4408 0.90293 0.06127 0.0
C296 C 0.46543 0.91869 0.05314 0.0
C297 C 0.46851 0.92844 0.03235 0.0
C298 C 0.44949 0.91066 0.98212 0.0
C299 C 0.46904 0.90484 0.98321 0.0
C300 C 0.46605 0.88349 0.97243 0.0
C301 C 0.44354 0.86764 0.96032 0.0
C302 C 0.42485 0.87453 0.95809 0.0
C303 C 0.42782 0.89581 0.96894 0.0
C304 C 0.46321 0.95479 0.99109 0.0
C305 C 0.44945 0.96678 0.98677 0.0
C306 C 0.46213 0.99207 0.98177 0.0
C307 C 0.48907 0.00619 0.98121 0.0
C308 C 0.50289 0.99399 0.98528 0.0
C309 C 0.49008 0.9685 0.99007 0.0
H310 H 0.52857 0.42649 0.13478 0.0
N311 N 0.53964 0.46087 0.16585 0.0
H312 H 0.55891 0.41963 0.11411 0.0
H313 H 0.5913 0.49341 0.16399 0.0
H314 H 0.62169 0.48702 0.1432 0.0
H315 H 0.56907 0.49784 0.19567 0.0
H316 H 0.58157 0.49187 0.23205 0.0
H317 H 0.52208 0.41811 0.18615 0.0
H318 H 0.53393 0.41187 0.22257 0.0
H319 H 0.49167 0.44921 0.17169 0.0
H320 H 0.56455 0.50901 0.15071 0.0
H321 H 0.47214 0.4743 0.16415 0.0
H322 H 0.54493 0.53367 0.14178 0.0
H323 H 0.41493 0.54118 0.10207 0.0
H324 H 0.41186 0.55242 0.06487 0.0
H325 H 0.4942 0.60054 0.06417 0.0
H326 H 0.49691 0.58913 0.10169 0.0
H327 H 0.49333 0.60857 0.13502 0.0
H328 H 0.4874 0.64009 0.15363 0.0
H329 H 0.40967 0.58354 0.16817 0.0
H330 H 0.4164 0.55193 0.15042 0.0
H331 H 0.43726 0.51093 0.12547 0.0
H332 H 0.45834 0.48776 0.13497 0.0
H333 H 0.52664 0.55708 0.15415 0.0
N334 N 0.45641 0.55975 0.12728 0.0
H335 H 0.50573 0.58009 0.14332 0.0
C336 C 0.55757 0.46035 0.1509 0.0
C337 C 0.54884 0.44009 0.13621 0.0
C338 C 0.56622 0.43623 0.12442 0.0
C339 C 0.59275 0.45263 0.1272 0.0
C340 C 0.60139 0.47382 0.14096 0.0
C341 C 0.584 0.47763 0.15273 0.0
C342 C 0.54468 0.45832 0.18826 0.0
C343 C 0.56112 0.47908 0.20159 0.0
C344 C 0.56816 0.47562 0.22238 0.0
C345 C 0.55896 0.45137 0.23011 0.0
C346 C 0.54173 0.43076 0.21698 0.0
C347 C 0.53473 0.43426 0.19628 0.0
C348 C 0.52938 0.47688 0.16148 0.0
C349 C 0.5034 0.46771 0.16527 0.0
C350 C 0.49224 0.48206 0.16074 0.0
C351 C 0.50677 0.50596 0.15192 0.0
C352 C 0.53309 0.51546 0.14865 0.0
C353 C 0.54436 0.50117 0.15356 0.0
C354 C 0.45602 0.56431 0.10453 0.0
C355 C 0.43231 0.55376 0.09369 0.0
C356 C 0.43066 0.56018 0.07242 0.0
C357 C 0.45281 0.5774 0.06151 0.0
C358 C 0.47678 0.58741 0.07221 0.0
C359 C 0.47839 0.58084 0.09357 0.0
C360 C 0.45536 0.57773 0.14163 0.0
C361 C 0.47536 0.60275 0.14292 0.0
C362 C 0.47174 0.6209 0.15326 0.0
C363 C 0.4479 0.61452 0.16217 0.0
C364 C 0.42837 0.58921 0.16175 0.0
C365 C 0.43215 0.57106 0.15162 0.0
C366 C 0.46965 0.54712 0.13396 0.0
C367 C 0.45677 0.52105 0.1318 0.0
C368 C 0.46886 0.50785 0.13742 0.0
C369 C 0.4942 0.52041 0.14569 0.0
C370 C 0.50721 0.5467 0.14772 0.0
C371 C 0.49514 0.55996 0.14174 0.0
Mn372 Mn 0.62937 0.38578 0.40101 0.0
Mn373 Mn 0.65921 0.44797 0.41154 0.0
C374 C 0.61381 0.40141 0.42728 0.0
C375 C 0.62448 0.34656 0.40687 0.0
C376 C 0.62534 0.42293 0.37165 0.0
O377 O 0.66445 0.39886 0.38758 0.0
O378 O 0.68352 0.43958 0.39765 0.0
C379 C 0.69693 0.45253 0.44484 0.0
N380 N 0.67724 0.45587 0.4388 0.0
C381 C 0.6781 0.47442 0.47365 0.0
C382 C 0.6985 0.47131 0.4802 0.0
C383 C 0.70791 0.46027 0.46575 0.0
C384 C 0.66802 0.46647 0.45258 0.0
H385 H 0.70417 0.44398 0.4338 0.0
C386 C 0.68393 0.42099 0.38872 0.0
O387 O 0.61668 0.35141 0.38892 0.0
O388 O 0.63568 0.36469 0.42117 0.0
N389 N 0.6379 0.4585 0.42525 0.0
C390 C 0.6171 0.45867 0.41691 0.0
C391 C 0.60482 0.46833 0.42959 0.0
C392 C 0.61413 0.47784 0.45065 0.0
C393 C 0.6357 0.47766 0.45881 0.0
C394 C 0.64725 0.46796 0.44537 0.0
H395 H 0.60984 0.45137 0.40074 0.0
O396 O 0.59892 0.37957 0.41831 0.0
O397 O 0.63726 0.41337 0.4206 0.0
O398 O 0.61868 0.40059 0.37647 0.0
O399 O 0.64083 0.44194 0.38338 0.0
C400 C 0.64583 0.48622 0.47994 0.0
C401 C 0.66701 0.48458 0.48736 0.0
H402 H 0.70692 0.47711 0.49636 0.0
H403 H 0.72356 0.45769 0.47073 0.0
H404 H 0.58816 0.46836 0.42319 0.0
H405 H 0.60444 0.48503 0.46047 0.0
H406 H 0.63721 0.49369 0.49075 0.0
H407 H 0.67436 0.49085 0.50375 0.0
Mn408 Mn 0.27259 0.65844 0.55743 0.0
Mn409 Mn 0.24189 0.59752 0.54222 0.0
C410 C 0.24029 0.64352 0.53123 0.0
C411 C 0.30726 0.6988 0.55345 0.0
C412 C 0.23244 0.61693 0.58477 0.0
O413 O 0.29547 0.64598 0.5696 0.0
O414 O 0.27642 0.60734 0.55413 0.0
C415 C 0.2746 0.60004 0.50578 0.0
N416 N 0.25109 0.59368 0.51342 0.0
C417 C 0.23134 0.57768 0.47825 0.0
C418 C 0.25531 0.58383 0.47005 0.0
C419 C 0.27704 0.59514 0.48387 0.0
C420 C 0.23009 0.58299 0.50023 0.0
H421 H 0.29136 0.60887 0.51633 0.0
C422 C 0.2946 0.62538 0.56521 0.0
O423 O 0.29439 0.69227 0.57128 0.0
O424 O 0.30037 0.68178 0.53825 0.0
N425 N 0.20829 0.58549 0.53019 0.0
C426 C 0.18676 0.58161 0.54043 0.0
C427 C 0.16338 0.57073 0.5288 0.0
C428 C 0.16233 0.56378 0.50684 0.0
C429 C 0.18468 0.56777 0.49669 0.0
C430 C 0.20737 0.57845 0.50916 0.0
H431 H 0.18739 0.58676 0.55734 0.0
O432 O 0.24747 0.66456 0.54142 0.0
O433 O 0.25269 0.63228 0.5363 0.0
O434 O 0.24647 0.64019 0.58109 0.0
O435 O 0.23064 0.5997 0.57188 0.0
C436 C 0.18538 0.56184 0.47462 0.0
C437 C 0.20872 0.56688 0.46539 0.0
H438 H 0.25729 0.58016 0.45314 0.0
H439 H 0.29564 0.6001 0.47763 0.0
H440 H 0.14621 0.5677 0.53675 0.0
H441 H 0.14427 0.55545 0.49792 0.0
H442 H 0.16816 0.5537 0.46454 0.0
H443 H 0.20909 0.56258 0.44833 0.0
Mn444 Mn 0.62339 0.26916 0.72427 0.0
Mn445 Mn 0.65284 0.23623 0.71446 0.0
C446 C 0.6074 0.23785 0.69779 0.0
C447 C 0.61816 0.30326 0.71788 0.0
C448 C 0.61917 0.22761 0.75326 0.0
O449 O 0.65872 0.29123 0.7381 0.0
O450 O 0.67697 0.26826 0.73005 0.0
C451 C 0.69128 0.27018 0.68337 0.0
N452 N 0.67144 0.24712 0.68813 0.0
C453 C 0.67277 0.23073 0.65279 0.0
C454 C 0.69333 0.25426 0.64757 0.0
C455 C 0.70259 0.27408 0.66291 0.0
C456 C 0.66238 0.22792 0.67348 0.0
H457 H 0.69839 0.28549 0.69507 0.0
C458 C 0.67774 0.28772 0.73834 0.0
O459 O 0.61081 0.29113 0.73584 0.0
O460 O 0.62912 0.29598 0.70396 0.0
N461 N 0.63182 0.20506 0.69921 0.0
C462 C 0.61085 0.18399 0.70628 0.0
C463 C 0.59877 0.16264 0.6926 0.0
C464 C 0.60841 0.16312 0.67184 0.0
C465 C 0.6301 0.18496 0.66498 0.0
C466 C 0.64148 0.2056 0.67939 0.0
H467 H 0.60325 0.18355 0.72215 0.0
O468 O 0.59257 0.24482 0.70659 0.0
O469 O 0.631 0.24926 0.7049 0.0
O470 O 0.61351 0.24426 0.74889 0.0
O471 O 0.63374 0.22316 0.74152 0.0
C472 C 0.64053 0.18723 0.64421 0.0
C473 C 0.66184 0.21011 0.63812 0.0
H474 H 0.702 0.25739 0.63176 0.0
H475 H 0.71836 0.29233 0.65896 0.0
H476 H 0.58197 0.14588 0.69798 0.0
H477 H 0.59886 0.14671 0.66124 0.0
H478 H 0.63205 0.17163 0.63267 0.0
H479 H 0.66945 0.21174 0.62199 0.0
Mn480 Mn 0.38815 0.65248 0.90456 0.0
Mn481 Mn 0.35669 0.59001 0.91148 0.0
C482 C 0.40413 0.63537 0.9288 0.0
C483 C 0.39518 0.69232 0.91294 0.0
C484 C 0.39009 0.6149 0.87287 0.0
O485 O 0.35273 0.64113 0.89138 0.0
O486 O 0.33362 0.60008 0.898 0.0
C487 C 0.31982 0.58694 0.94427 0.0
N488 N 0.33849 0.5822 0.93806 0.0
C489 C 0.33428 0.55984 0.9707 0.0
C490 C 0.31492 0.56437 0.97741 0.0
C491 C 0.30776 0.5781 0.96418 0.0
C492 C 0.34572 0.56927 0.95076 0.0
H493 H 0.31414 0.59733 0.93407 0.0
C494 C 0.3332 0.61907 0.89079 0.0
O495 O 0.40156 0.68713 0.89436 0.0
O496 O 0.38416 0.67418 0.92645 0.0
N497 N 0.37627 0.57721 0.92459 0.0
C498 C 0.39618 0.57564 0.91628 0.0
C499 C 0.40614 0.56307 0.92782 0.0
C500 C 0.39523 0.55186 0.94755 0.0
C501 C 0.37459 0.55352 0.95567 0.0
C502 C 0.36557 0.56641 0.94352 0.0
H503 H 0.40439 0.58393 0.90097 0.0
O504 O 0.41901 0.65724 0.92089 0.0
O505 O 0.38018 0.6242 0.92256 0.0
O506 O 0.39684 0.63728 0.87856 0.0
O507 O 0.37502 0.59593 0.8839 0.0
C508 C 0.36272 0.54309 0.97544 0.0
C509 C 0.34275 0.54645 0.98304 0.0
H510 H 0.30552 0.55751 0.99273 0.0
H511 H 0.29289 0.58173 0.96928 0.0
H512 H 0.42208 0.56188 0.92146 0.0
H513 H 0.40293 0.54211 0.95635 0.0
H514 H 0.36896 0.53265 0.98505 0.0
H515 H 0.3341 0.53871 0.99843 0.0
Mn516 Mn 0.75065 0.39591 0.06394 0.0
Mn517 Mn 0.78359 0.3662 0.07191 0.0
C518 C 0.78459 0.41222 0.08852 0.0
C519 C 0.7163 0.40142 0.07221 0.0
C520 C 0.79004 0.39738 0.03253 0.0
O521 O 0.72706 0.36108 0.05067 0.0
O522 O 0.74898 0.34205 0.05973 0.0
C523 C 0.75243 0.3326 0.10681 0.0
N524 N 0.77548 0.3509 0.09962 0.0
C525 C 0.79614 0.35303 0.13377 0.0
C526 C 0.77266 0.33408 0.14149 0.0
C527 C 0.7507 0.32386 0.12796 0.0
C528 C 0.79671 0.36092 0.11253 0.0
H529 H 0.73548 0.32477 0.0965 0.0
C530 C 0.72927 0.34172 0.05157 0.0
O531 O 0.72764 0.40804 0.05367 0.0
O532 O 0.72443 0.39094 0.08557 0.0
N533 N 0.81731 0.38737 0.08393 0.0
C534 C 0.83828 0.40616 0.07431 0.0
C535 C 0.86177 0.4186 0.0858 0.0
C536 C 0.8635 0.41154 0.10699 0.0
C537 C 0.84174 0.392 0.11648 0.0
C538 C 0.81891 0.3801 0.10415 0.0
H539 H 0.83708 0.41168 0.05802 0.0
O540 O 0.77666 0.42638 0.08061 0.0
O541 O 0.77215 0.38894 0.08204 0.0
O542 O 0.77508 0.40507 0.03853 0.0
O543 O 0.79369 0.38197 0.04321 0.0
C544 C 0.84171 0.38411 0.13779 0.0
C545 C 0.81891 0.36469 0.14645 0.0
H546 H 0.77122 0.32738 0.15783 0.0
H547 H 0.73248 0.30932 0.13384 0.0
H548 H 0.87848 0.43367 0.07837 0.0
H549 H 0.8816 0.42133 0.11586 0.0
H550 H 0.85904 0.39306 0.14775 0.0
H551 H 0.81905 0.35901 0.16295 0.0
Mn552 Mn 0.37667 0.76637 0.22963 0.0
Mn553 Mn 0.44066 0.80073 0.23819 0.0
C554 C 0.3937 0.79859 0.25538 0.0
C555 C 0.33707 0.73146 0.23707 0.0
C556 C 0.41355 0.80708 0.19931 0.0
O557 O 0.38945 0.74484 0.21558 0.0
O558 O 0.43153 0.76806 0.22426 0.0
C559 C 0.44613 0.76946 0.27106 0.0
N560 N 0.44953 0.79193 0.2651 0.0
C561 C 0.46999 0.81107 0.29939 0.0
C562 C 0.46685 0.78816 0.30586 0.0
C563 C 0.45478 0.76725 0.29165 0.0
C564 C 0.46093 0.81212 0.2787 0.0
H565 H 0.43687 0.75335 0.26018 0.0
C566 C 0.41217 0.74844 0.21591 0.0
O567 O 0.34081 0.74323 0.21902 0.0
O568 O 0.35641 0.73966 0.25051 0.0
N569 N 0.45216 0.8327 0.25179 0.0
C570 C 0.4527 0.85313 0.24345 0.0
C571 C 0.46359 0.87548 0.25584 0.0
C572 C 0.47405 0.87668 0.27657 0.0
C573 C 0.47356 0.8555 0.28469 0.0
C574 C 0.46248 0.83376 0.27159 0.0
H575 H 0.4448 0.85236 0.22749 0.0
O576 O 0.37092 0.79042 0.24726 0.0
O577 O 0.40567 0.78755 0.24832 0.0
O578 O 0.39079 0.79095 0.20464 0.0
O579 O 0.4334 0.81158 0.21043 0.0
C580 C 0.48339 0.85505 0.30536 0.0
C581 C 0.4815 0.83282 0.31275 0.0
H582 H 0.47348 0.78637 0.32174 0.0
H583 H 0.45219 0.74948 0.29656 0.0
H584 H 0.46391 0.89174 0.24945 0.0
H585 H 0.48231 0.89391 0.28613 0.0
H586 H 0.4921 0.8716 0.31585 0.0
H587 H 0.48876 0.8326 0.32882 0.0
H588 H 0.17445 0.61801 0.25234 0.0
H589 H 0.212 0.62687 0.31434 0.0
H590 H 0.21567 0.64766 0.2366 0.0
H591 H 0.25275 0.65734 0.29928 0.0
H592 H 0.32679 0.69447 0.2652 0.0
H593 H 0.28516 0.6618 0.27712 0.0
H594 H 0.24823 0.68955 0.23493 0.0
H595 H 0.29009 0.72129 0.22206 0.0
C596 C 0.19155 0.62652 0.26259 0.0
C597 C 0.1902 0.62002 0.28445 0.0
C598 C 0.21516 0.64359 0.25366 0.0
C599 C 0.2378 0.65483 0.26654 0.0
C600 C 0.23606 0.64861 0.28858 0.0
C601 C 0.21264 0.63127 0.29733 0.0
C602 C 0.30973 0.69337 0.25831 0.0
C603 C 0.31166 0.71047 0.2428 0.0
C604 C 0.2858 0.67478 0.26529 0.0
C605 C 0.26313 0.67319 0.25737 0.0
C606 C 0.26512 0.68993 0.24131 0.0
C607 C 0.28913 0.70824 0.23397 0.0
H608 H 0.54965 0.18737 0.4289 0.0
H609 H 0.62726 0.21597 0.4523 0.0
H610 H 0.56144 0.22906 0.41674 0.0
H611 H 0.63915 0.25723 0.43953 0.0
H612 H 0.64035 0.33185 0.44225 0.0
H613 H 0.63022 0.28975 0.45097 0.0
H614 H 0.58751 0.26162 0.39049 0.0
H615 H 0.59743 0.30385 0.38186 0.0
C616 C 0.56926 0.20246 0.43125 0.0
C617 C 0.58747 0.19827 0.4416 0.0
C618 C 0.57608 0.2263 0.4241 0.0
C619 C 0.60122 0.24652 0.42728 0.0
C620 C 0.61955 0.24215 0.43707 0.0
C621 C 0.61278 0.21836 0.44413 0.0
C622 C 0.62896 0.31674 0.43072 0.0
C623 C 0.61969 0.32121 0.41137 0.0
C624 C 0.62325 0.2926 0.43567 0.0
C625 C 0.60806 0.2723 0.42142 0.0
C626 C 0.59905 0.27681 0.40191 0.0
C627 C 0.60487 0.30103 0.39691 0.0
H628 H 0.37946 0.57939 0.64553 0.0
H629 H 0.42551 0.60502 0.58825 0.0
H630 H 0.34978 0.59109 0.62994 0.0
H631 H 0.39538 0.61612 0.57238 0.0
H632 H 0.3121 0.59679 0.54689 0.0
H633 H 0.34433 0.58815 0.56158 0.0
H634 H 0.35547 0.63577 0.61736 0.0
H635 H 0.32365 0.64508 0.6024 0.0
C636 C 0.38302 0.58727 0.62951 0.0
C637 C 0.4046 0.59118 0.61799 0.0
C638 C 0.36622 0.59415 0.62071 0.0
C639 C 0.37044 0.60458 0.60005 0.0
C640 C 0.39178 0.60811 0.58835 0.0
C641 C 0.40893 0.60176 0.59738 0.0
C642 C 0.3216 0.60564 0.56218 0.0
C643 C 0.31535 0.62161 0.57351 0.0
C644 C 0.34007 0.60074 0.57052 0.0
C645 C 0.35223 0.61124 0.59059 0.0
C646 C 0.34623 0.6274 0.60187 0.0
C647 C 0.32818 0.63281 0.59327 0.0
H648 H 0.8057 0.42257 0.79822 0.0
H649 H 0.83962 0.38131 0.77244 0.0
H650 H 0.76357 0.38955 0.7856 0.0
H651 H 0.7977 0.34869 0.75867 0.0
H652 H 0.71685 0.28283 0.75485 0.0
H653 H 0.75832 0.31564 0.76882 0.0
H654 H 0.73674 0.37072 0.7556 0.0
H655 H 0.69477 0.33763 0.74277 0.0
C656 C 0.80412 0.40656 0.78948 0.0
C657 C 0.82587 0.40449 0.78622 0.0
C658 C 0.77997 0.38762 0.78214 0.0
C659 C 0.77702 0.36629 0.77104 0.0
C660 C 0.79899 0.3645 0.76753 0.0
C661 C 0.82309 0.38326 0.77524 0.0
C662 C 0.72093 0.30195 0.7551 0.0
C663 C 0.70249 0.30762 0.74777 0.0
C664 C 0.74486 0.32085 0.76292 0.0
C665 C 0.75117 0.34602 0.76325 0.0
C666 C 0.73257 0.3516 0.756 0.0
C667 C 0.70846 0.33261 0.74855 0.0
H668 H 0.42224 0.84474 0.9209 0.0
H669 H 0.45249 0.83422 0.98093 0.0
H670 H 0.41005 0.80234 0.90883 0.0
H671 H 0.4409 0.79223 0.96868 0.0
H672 H 0.38831 0.70937 0.95196 0.0
H673 H 0.40068 0.75212 0.96244 0.0
H674 H 0.42884 0.77634 0.898 0.0
H675 H 0.41627 0.73346 0.88741 0.0
C676 C 0.42648 0.83347 0.93143 0.0
C677 C 0.43836 0.84289 0.95187 0.0
C678 C 0.41964 0.80925 0.92446 0.0
C679 C 0.42433 0.79385 0.93788 0.0
C680 C 0.4367 0.80349 0.95809 0.0
C681 C 0.44367 0.8277 0.96498 0.0
C682 C 0.397 0.72376 0.93997 0.0
C683 C 0.40136 0.71802 0.91887 0.0
C684 C 0.40427 0.7483 0.94603 0.0
C685 C 0.41594 0.76767 0.9311 0.0
C686 C 0.41977 0.76183 0.90984 0.0
C687 C 0.41264 0.73728 0.9038 0.0
H688 H 0.5919 0.43403 0.08614 0.0
H689 H 0.63524 0.4565 0.1466 0.0
H690 H 0.62064 0.42058 0.07174 0.0
H691 H 0.66417 0.44377 0.13208 0.0
H692 H 0.69131 0.39134 0.11057 0.0
H693 H 0.66118 0.40379 0.12261 0.0
H694 H 0.66608 0.43735 0.06068 0.0
H695 H 0.6962 0.42462 0.04847 0.0
C696 C 0.60763 0.43626 0.09628 0.0
C697 C 0.61128 0.44637 0.11751 0.0
C698 C 0.62418 0.42871 0.08799 0.0
C699 C 0.64454 0.4309 0.10084 0.0
C700 C 0.64844 0.44148 0.12188 0.0
C701 C 0.63205 0.44911 0.1301 0.0
C702 C 0.68583 0.40118 0.09942 0.0
C703 C 0.69626 0.4071 0.0786 0.0
C704 C 0.66869 0.40848 0.10638 0.0
C705 C 0.66149 0.42184 0.0927 0.0
C706 C 0.6712 0.42701 0.07158 0.0
C707 C 0.68849 0.41978 0.06461 0.0
H708 H 0.37922 0.84672 0.50601 0.0
H709 H 0.44481 0.84017 0.52363 0.0
H710 H 0.35109 0.80679 0.52265 0.0
H711 H 0.41621 0.79945 0.53896 0.0
H712 H 0.34737 0.71445 0.52624 0.0
H713 H 0.37898 0.75747 0.51729 0.0
H714 H 0.34439 0.78482 0.56253 0.0
H715 H 0.31313 0.74168 0.57206 0.0
C716 C 0.3878 0.83714 0.51372 0.0
C717 C 0.41446 0.84681 0.5132 0.0
C718 C 0.37158 0.81414 0.52316 0.0
C719 C 0.38153 0.80008 0.53194 0.0
C720 C 0.4081 0.80992 0.53211 0.0
C721 C 0.42441 0.83316 0.52312 0.0
C722 C 0.34679 0.72965 0.53454 0.0
C723 C 0.32784 0.72477 0.54984 0.0
C724 C 0.3649 0.75422 0.52947 0.0
C725 C 0.36403 0.77435 0.53923 0.0
C726 C 0.3454 0.76955 0.55482 0.0
C727 C 0.32765 0.74494 0.56032 0.0
H728 H 0.62158 0.43646 0.67186 0.0
H729 H 0.54301 0.3874 0.68991 0.0
H730 H 0.63297 0.40679 0.68542 0.0
H731 H 0.55436 0.35721 0.70297 0.0
H732 H 0.63463 0.33367 0.68308 0.0
H733 H 0.62432 0.3654 0.67334 0.0
H734 H 0.57986 0.35071 0.73139 0.0
H735 H 0.59004 0.31864 0.7411 0.0
C736 C 0.60677 0.41949 0.679 0.0
C737 C 0.58136 0.41437 0.67985 0.0
C738 C 0.61327 0.40232 0.68654 0.0
C739 C 0.59455 0.37956 0.69514 0.0
C740 C 0.56926 0.37466 0.69656 0.0
C741 C 0.56271 0.39184 0.68891 0.0
C742 C 0.6228 0.3373 0.69387 0.0
C743 C 0.61317 0.32364 0.71287 0.0
C744 C 0.61698 0.35559 0.68834 0.0
C745 C 0.60128 0.36061 0.70161 0.0
C746 C 0.59182 0.34712 0.72074 0.0
C747 C 0.5978 0.32889 0.72637 0.0
H748 H 0.20734 0.61084 0.81412 0.0
H749 H 0.17107 0.55865 0.86561 0.0
H750 H 0.24931 0.6246 0.83072 0.0
H751 H 0.2129 0.57261 0.88239 0.0
H752 H 0.2886 0.57446 0.88614 0.0
H753 H 0.24759 0.56635 0.87237 0.0
H754 H 0.27932 0.64512 0.86171 0.0
H755 H 0.32112 0.65342 0.87531 0.0
C756 C 0.2083 0.60274 0.82927 0.0
C757 C 0.18593 0.58345 0.83844 0.0
C758 C 0.23236 0.61064 0.83879 0.0
C759 C 0.23451 0.59944 0.8577 0.0
C760 C 0.21198 0.5812 0.86753 0.0
C761 C 0.18799 0.57323 0.85797 0.0
C762 C 0.28705 0.59021 0.88092 0.0
C763 C 0.30833 0.61466 0.8819 0.0
C764 C 0.26332 0.58552 0.87318 0.0
C765 C 0.26001 0.6051 0.86621 0.0
C766 C 0.28126 0.6296 0.86693 0.0
C767 C 0.30519 0.63435 0.87475 0.0
H768 H 0.61771 0.18334 0.02982 0.0
H769 H 0.60091 0.22042 0.97919 0.0
H770 H 0.65141 0.22383 0.04423 0.0
H771 H 0.63465 0.26077 0.9934 0.0
H772 H 0.68183 0.33069 0.03617 0.0
H773 H 0.64663 0.29021 0.02337 0.0
H774 H 0.69325 0.25707 0.03495 0.0
H775 H 0.72808 0.29718 0.04819 0.0
C776 C 0.62126 0.20012 0.02174 0.0
C777 C 0.60655 0.19863 0.00341 0.0
C778 C 0.64061 0.22334 0.02996 0.0
C779 C 0.6458 0.24562 0.01997 0.0
C780 C 0.63092 0.24408 0.00174 0.0
C781 C 0.61155 0.2209 0.99359 0.0
C782 C 0.68459 0.31479 0.03597 0.0
C783 C 0.70788 0.31731 0.04321 0.0
C784 C 0.66441 0.29156 0.02855 0.0
C785 C 0.66704 0.27031 0.02817 0.0
C786 C 0.69035 0.27289 0.03536 0.0
C787 C 0.71045 0.29603 0.0428 0.0
H788 H 0.46503 0.66095 0.14568 0.0
H789 H 0.41869 0.61287 0.19686 0.0
H790 H 0.45587 0.6929 0.15815 0.0
H791 H 0.40895 0.64477 0.20887 0.0
H792 H 0.37696 0.69885 0.20767 0.0
H793 H 0.38534 0.66623 0.19474 0.0
H794 H 0.46594 0.72086 0.19118 0.0
H795 H 0.45773 0.75335 0.20403 0.0
C796 C 0.45316 0.65725 0.15976 0.0
C797 C 0.44281 0.6343 0.17035 0.0
C798 C 0.44776 0.67555 0.16679 0.0
C799 C 0.43166 0.67132 0.18445 0.0
C800 C 0.42117 0.64841 0.19503 0.0
C801 C 0.42678 0.63015 0.18813 0.0
C802 C 0.39643 0.70392 0.20396 0.0
C803 C 0.41666 0.72873 0.20687 0.0
C804 C 0.40124 0.68521 0.19674 0.0
C805 C 0.4263 0.69101 0.192 0.0
C806 C 0.44641 0.71586 0.19455 0.0
C807 C 0.44168 0.73445 0.20201 0.0
H808 H 0.83017 0.48146 0.32425 0.0
H809 H 0.82053 0.41538 0.35513 0.0
H810 H 0.78954 0.47354 0.33877 0.0
H811 H 0.7797 0.40737 0.36953 0.0
H812 H 0.69512 0.38694 0.37057 0.0
H813 H 0.73612 0.39492 0.35658 0.0
H814 H 0.76986 0.47335 0.37318 0.0
H815 H 0.72903 0.46559 0.38683 0.0
C816 C 0.8196 0.46545 0.33442 0.0
C817 C 0.82871 0.4491 0.33855 0.0
C818 C 0.79622 0.46086 0.34268 0.0
C819 C 0.78132 0.43977 0.35526 0.0
C820 C 0.79052 0.42355 0.35961 0.0
C821 C 0.81395 0.42819 0.35139 0.0
C822 C 0.71124 0.4059 0.37117 0.0
C823 C 0.70864 0.4256 0.37979 0.0
C824 C 0.7348 0.41044 0.36329 0.0
C825 C 0.75627 0.43478 0.36376 0.0
C826 C 0.75364 0.45444 0.37232 0.0
C827 C 0.73018 0.44992 0.38024 0.0
H828 H 0.17556 0.6275 0.40179 0.0
H829 H 0.11528 0.56827 0.43808 0.0
H830 H 0.20203 0.64353 0.43481 0.0
H831 H 0.14185 0.58439 0.47119 0.0
H832 H 0.19149 0.6347 0.52938 0.0
H833 H 0.16321 0.62265 0.49709 0.0
H834 H 0.22357 0.62603 0.45781 0.0
H835 H 0.25149 0.63781 0.49004 0.0
C836 C 0.16779 0.61819 0.41692 0.0
C837 C 0.14335 0.59664 0.41738 0.0
C838 C 0.18303 0.62723 0.43576 0.0
C839 C 0.17406 0.61508 0.45551 0.0
C840 C 0.14921 0.59414 0.4562 0.0
C841 C 0.13407 0.58487 0.43726 0.0
C842 C 0.19852 0.63277 0.51378 0.0
C843 C 0.2232 0.63631 0.51211 0.0
C844 C 0.18243 0.6259 0.49539 0.0
C845 C 0.19118 0.62333 0.47498 0.0
C846 C 0.21636 0.62802 0.47329 0.0
C847 C 0.23222 0.63447 0.4917 0.0
H848 H 0.55736 0.12452 0.59501 0.0
H849 H 0.58887 0.19407 0.56145 0.0
H850 H 0.56404 0.14696 0.62979 0.0
H851 H 0.59434 0.21642 0.59578 0.0
H852 H 0.63308 0.25184 0.66046 0.0
H853 H 0.62206 0.22893 0.62596 0.0
H854 H 0.55194 0.1704 0.65317 0.0
H855 H 0.56388 0.19332 0.68819 0.0
C856 C 0.56524 0.14455 0.59514 0.0
C857 C 0.57284 0.1577 0.57574 0.0
C858 C 0.56895 0.15741 0.61498 0.0
C859 C 0.57996 0.18357 0.61565 0.0
C860 C 0.58642 0.1964 0.59599 0.0
C861 C 0.58314 0.18363 0.5763 0.0
C862 C 0.61544 0.23395 0.65906 0.0
C863 C 0.59978 0.22377 0.67704 0.0
C864 C 0.60885 0.22097 0.63919 0.0
C865 C 0.5861 0.1977 0.63672 0.0
C866 C 0.56983 0.18802 0.6546 0.0
C867 C 0.57653 0.20112 0.67458 0.0
H868 H 0.48371 0.60977 0.76803 0.0
H869 H 0.40545 0.56785 0.74384 0.0
H870 H 0.46875 0.61806 0.80217 0.0
H871 H 0.39068 0.57545 0.7781 0.0
H872 H 0.37322 0.57057 0.8508 0.0
H873 H 0.38959 0.5632 0.81724 0.0
H874 H 0.44646 0.64167 0.81514 0.0
H875 H 0.43009 0.64924 0.8488 0.0
C876 C 0.46338 0.60236 0.76991 0.0
C877 C 0.44582 0.58795 0.75315 0.0
C878 C 0.45484 0.60708 0.78949 0.0
C879 C 0.42856 0.59728 0.7928 0.0
C880 C 0.41103 0.58291 0.77612 0.0
C881 C 0.41954 0.57844 0.75651 0.0
C882 C 0.38924 0.58631 0.84325 0.0
C883 C 0.40025 0.61054 0.85248 0.0
C884 C 0.39853 0.58206 0.82397 0.0
C885 C 0.41925 0.60187 0.81358 0.0
C886 C 0.43057 0.62604 0.8229 0.0
C887 C 0.42106 0.63037 0.84209 0.0
H888 H 0.88463 0.42719 0.9186 0.0
H889 H 0.86648 0.48613 0.9201 0.0
H890 H 0.86283 0.41198 0.95242 0.0
H891 H 0.84185 0.46895 0.95233 0.0
H892 H 0.81417 0.44561 0.02006 0.0
H893 H 0.84054 0.46343 0.98842 0.0
H894 H 0.82413 0.38962 0.9679 0.0
H895 H 0.7997 0.37251 0.00069 0.0
C896 C 0.87609 0.43704 0.92605 0.0
C897 C 0.87745 0.45799 0.91626 0.0
C898 C 0.86292 0.42786 0.94538 0.0
C899 C 0.85002 0.43884 0.95526 0.0
C900 C 0.85167 0.45998 0.94561 0.0
C901 C 0.86549 0.46962 0.92666 0.0
C902 C 0.81629 0.4333 0.0087 0.0
C903 C 0.80488 0.40772 0.01269 0.0
C904 C 0.8313 0.44345 0.9904 0.0
C905 C 0.83461 0.42811 0.97524 0.0
C906 C 0.82274 0.40232 0.97927 0.0
C907 C 0.80843 0.39235 0.99796 0.0
H908 H 0.40548 0.89413 0.09274 0.0
H909 H 0.46811 0.88248 0.07727 0.0
H910 H 0.39867 0.87128 0.12624 0.0
H911 H 0.46143 0.8599 0.11074 0.0
H912 H 0.45893 0.84293 0.18256 0.0
H913 H 0.46554 0.86689 0.15003 0.0
H914 H 0.38381 0.82836 0.13802 0.0
H915 H 0.37702 0.80446 0.17085 0.0
C916 C 0.41777 0.88668 0.09645 0.0
C917 C 0.43741 0.89025 0.08231 0.0
C918 C 0.41384 0.87356 0.11563 0.0
C919 C 0.4295 0.86376 0.12116 0.0
C920 C 0.44927 0.86754 0.10714 0.0
C921 C 0.45316 0.88057 0.08796 0.0
C922 C 0.44229 0.83947 0.17304 0.0
C923 C 0.41741 0.82161 0.17936 0.0
C924 C 0.44613 0.85319 0.1543 0.0
C925 C 0.42522 0.8495 0.14138 0.0
C926 C 0.40032 0.83183 0.14775 0.0
C927 C 0.39645 0.81802 0.1665 0.0
H928 H 0.57307 0.41715 0.23912 0.0
H929 H 0.56599 0.47673 0.2689 0.0
H930 H 0.58834 0.41039 0.2735 0.0
H931 H 0.58115 0.46984 0.30352 0.0
H932 H 0.63579 0.46764 0.35473 0.0
H933 H 0.61938 0.47455 0.32099 0.0
H934 H 0.57381 0.39478 0.30919 0.0
H935 H 0.59066 0.38781 0.34263 0.0
C936 C 0.57446 0.42861 0.25311 0.0
C937 C 0.56814 0.44737 0.25129 0.0
C938 C 0.58321 0.42471 0.27285 0.0
C939 C 0.58585 0.43946 0.29135 0.0
C940 C 0.57962 0.45832 0.28954 0.0
C941 C 0.57091 0.46226 0.26972 0.0
C942 C 0.62225 0.45153 0.34498 0.0
C943 C 0.61471 0.42714 0.35141 0.0
C944 C 0.6127 0.45552 0.32567 0.0
C945 C 0.59533 0.43524 0.31231 0.0
C946 C 0.58749 0.41086 0.3189 0.0
C947 C 0.59707 0.40686 0.33817 0.0
H948 H 0.46727 0.87202 0.37684 0.0
H949 H 0.41652 0.9004 0.36449 0.0
H950 H 0.45308 0.84777 0.34329 0.0
H951 H 0.40135 0.87506 0.33099 0.0
H952 H 0.40581 0.78736 0.29403 0.0
H953 H 0.41846 0.81232 0.32758 0.0
H954 H 0.41216 0.87017 0.295 0.0
H955 H 0.39819 0.84422 0.26165 0.0
C956 C 0.45323 0.8733 0.36682 0.0
C957 C 0.44324 0.8884 0.37331 0.0
C958 C 0.44479 0.85905 0.34761 0.0
C959 C 0.42602 0.85935 0.33428 0.0
C960 C 0.41607 0.87457 0.34067 0.0
C961 C 0.42456 0.8889 0.36 0.0
C962 C 0.40729 0.8055 0.29411 0.0
C963 C 0.40191 0.81436 0.27524 0.0
C964 C 0.4146 0.81988 0.3133 0.0
C965 C 0.41681 0.84356 0.31401 0.0
C966 C 0.41055 0.85201 0.29515 0.0
C967 C 0.4028 0.83734 0.276 0.0
H968 H 0.56143 0.46642 0.52558 0.0
H969 H 0.5953 0.43157 0.56212 0.0
H970 H 0.56956 0.45064 0.49169 0.0
H971 H 0.60209 0.4145 0.52867 0.0
H972 H 0.63948 0.41384 0.46558 0.0
H973 H 0.62867 0.42713 0.49914 0.0
H974 H 0.55857 0.41539 0.46889 0.0
H975 H 0.57041 0.40318 0.43484 0.0
C976 C 0.57029 0.45507 0.52628 0.0
C977 C 0.57801 0.45037 0.54631 0.0
C978 C 0.57479 0.44585 0.50694 0.0
C979 C 0.58664 0.43135 0.50734 0.0
C980 C 0.59354 0.42608 0.52758 0.0
C981 C 0.58952 0.4357 0.54679 0.0
C982 C 0.62191 0.41439 0.46612 0.0
C983 C 0.60626 0.40855 0.44754 0.0
C984 C 0.61542 0.4216 0.48546 0.0
C985 C 0.59276 0.42255 0.48682 0.0
C986 C 0.57646 0.41547 0.46835 0.0
C987 C 0.58308 0.40833 0.44891 0.0
H988 H 0.16681 0.55408 0.70844 0.0
H989 H 0.12372 0.58857 0.68818 0.0
H990 H 0.19158 0.56776 0.67552 0.0
H991 H 0.14931 0.60297 0.6554 0.0
H992 H 0.22167 0.64566 0.61209 0.0
H993 H 0.19599 0.6326 0.64487 0.0
H994 H 0.18268 0.5579 0.63541 0.0
H995 H 0.20818 0.57076 0.60274 0.0
C996 C 0.16237 0.56434 0.69689 0.0
C997 C 0.14293 0.56988 0.70091 0.0
C998 C 0.17673 0.57231 0.67805 0.0
C999 C 0.17229 0.58631 0.66284 0.0
C1000 C 0.15325 0.59233 0.66694 0.0
C1001 C 0.13863 0.58411 0.68574 0.0
C1002 C 0.21332 0.62646 0.61702 0.0
C1003 C 0.2171 0.60929 0.6048 0.0
C1004 C 0.19847 0.61896 0.6357 0.0
C1005 C 0.18739 0.59426 0.64269 0.0
C1006 C 0.19118 0.57713 0.63051 0.0
C1007 C 0.20573 0.58451 0.61173 0.0
H1008 H 0.53558 0.15813 0.87067 0.0
H1009 H 0.58929 0.13218 0.86402 0.0
H1010 H 0.54954 0.17943 0.83656 0.0
H1011 H 0.60481 0.15532 0.83084 0.0
H1012 H 0.61397 0.18231 0.76214 0.0
H1013 H 0.59627 0.15758 0.79431 0.0
H1014 H 0.58353 0.21485 0.82165 0.0
H1015 H 0.59997 0.2389 0.78892 0.0
C1016 C 0.55025 0.15677 0.86192 0.0
C1017 C 0.56123 0.1433 0.87026 0.0
C1018 C 0.55865 0.16947 0.84246 0.0
C1019 C 0.57855 0.16943 0.83091 0.0
C1020 C 0.58926 0.15565 0.83906 0.0
C1021 C 0.58059 0.14262 0.85836 0.0
C1022 C 0.60727 0.18958 0.77498 0.0
C1023 C 0.60835 0.21259 0.77292 0.0
C1024 C 0.59726 0.17544 0.79355 0.0
C1025 C 0.58846 0.18412 0.81075 0.0
C1026 C 0.5896 0.20721 0.80864 0.0
C1027 C 0.59922 0.22115 0.7899 0.0
H1028 H 0.42173 0.54892 0.02757 0.0
H1029 H 0.47801 0.62508 0.0461 0.0
H1030 H 0.41255 0.56363 0.99413 0.0
H1031 H 0.46887 0.63949 0.01221 0.0
H1032 H 0.44884 0.63503 0.93182 0.0
H1033 H 0.46442 0.62145 0.9628 0.0
H1034 H 0.3961 0.60388 0.9977 0.0
H1035 H 0.3811 0.61833 0.96726 0.0
C1036 C 0.43233 0.56873 0.02441 0.0
C1037 C 0.45036 0.58586 0.03966 0.0
C1038 C 0.42707 0.57706 0.00525 0.0
C1039 C 0.43981 0.60259 0.00084 0.0
C1040 C 0.45891 0.61967 0.01533 0.0
C1041 C 0.46416 0.61137 0.03463 0.0
C1042 C 0.43723 0.62821 0.94615 0.0
C1043 C 0.41332 0.62667 0.94694 0.0
C1044 C 0.44612 0.62053 0.96376 0.0
C1045 C 0.43122 0.61141 0.98235 0.0
C1046 C 0.4077 0.61059 0.98336 0.0
C1047 C 0.39903 0.61856 0.96593 0.0
H1048 H 0.8454 0.45956 0.21869 0.0
H1049 H 0.90628 0.45692 0.18512 0.0
H1050 H 0.8204 0.44863 0.18481 0.0
H1051 H 0.8812 0.4462 0.15103 0.0
H1052 H 0.83303 0.4524 0.0923 0.0
H1053 H 0.86067 0.46695 0.12517 0.0
H1054 H 0.80069 0.40686 0.16094 0.0
H1055 H 0.77351 0.39216 0.12813 0.0
C1056 C 0.85362 0.4571 0.20397 0.0
C1057 C 0.87779 0.45915 0.20448 0.0
C1058 C 0.83925 0.45068 0.18467 0.0
C1059 C 0.84892 0.44656 0.16542 0.0
C1060 C 0.87344 0.44943 0.16569 0.0
C1061 C 0.88768 0.45543 0.18513 0.0
C1062 C 0.82601 0.44231 0.10722 0.0
C1063 C 0.80162 0.42082 0.10774 0.0
C1064 C 0.84171 0.45057 0.12591 0.0
C1065 C 0.83274 0.43795 0.14548 0.0
C1066 C 0.80799 0.41692 0.14605 0.0
C1067 C 0.79257 0.40842 0.12732 0.0
loop_
_geom_bond_atom_site_label_1
_geom_bond_atom_site_label_2
_geom_bond_distance
_geom_bond_site_symmetry_2
_ccdc_geom_bond_type
H0 C27 0.929 . S
N1 C26 1.433 . S
N1 C32 1.435 . S
N1 C38 1.423 . S
H2 C28 0.930 . S
H3 C31 0.931 . S
H4 C30 0.929 . S
H5 C33 0.930 . S
H6 C34 0.932 . S
H7 C37 0.929 . S
H8 C36 0.931 . S
H9 C39 0.929 . S
H10 C43 0.932 . S
H11 C40 0.931 . S
H12 C42 0.929 . S
H13 C45 0.929 . S
H14 C46 0.930 . S
H15 C48 0.929 . S
H16 C49 0.931 . S
H17 C51 0.930 . S
H18 C52 0.932 . S
H19 C54 0.931 . S
H20 C55 0.929 . S
H21 C57 0.929 . S
H22 C58 0.931 . S
H23 C60 0.929 . S
N24 C44 1.433 . S
N24 C50 1.435 . S
N24 C56 1.423 . S
H25 C61 0.932 . S
C26 N1 1.433 . S
C26 C27 1.363 . S
C26 C31 1.370 . S
C27 H0 0.929 . S
C27 C26 1.363 . S
C27 C28 1.385 . S
C28 H2 0.930 . S
C28 C27 1.385 . S
C28 C29 1.357 . S
C29 C28 1.357 . S
C29 C30 1.406 . S
C30 H4 0.929 . S
C30 C29 1.406 . S
C30 C31 1.391 . S
C31 H3 0.931 . S
C31 C26 1.370 . S
C31 C30 1.391 . S
C32 N1 1.435 . S
C32 C33 1.358 . S
C32 C37 1.371 . S
C33 H5 0.930 . S
C33 C32 1.358 . S
C33 C34 1.405 . S
C34 H6 0.932 . S
C34 C33 1.405 . S
C34 C35 1.383 . S
C35 C34 1.383 . S
C35 C36 1.393 . S
C36 H8 0.931 . S
C36 C35 1.393 . S
C36 C37 1.382 . S
C37 H7 0.929 . S
C37 C32 1.371 . S
C37 C36 1.382 . S
C38 N1 1.423 . S
C38 C39 1.362 . S
C38 C43 1.388 . S
C39 H9 0.929 . S
C39 C38 1.362 . S
C39 C40 1.376 . S
C40 H11 0.931 . S
C40 C39 1.376 . S
C40 C41 1.396 . S
C41 C40 1.396 . S
C41 C42 1.348 . S
C41 C59 1.472 1_455 S
C42 H12 0.929 . S
C42 C41 1.348 . S
C42 C43 1.443 . S
C43 H10 0.932 . S
C43 C38 1.388 . S
C43 C42 1.443 . S
C44 N24 1.433 . S
C44 C45 1.363 . S
C44 C49 1.370 . S
C45 H13 0.929 . S
C45 C44 1.363 . S
C45 C46 1.385 . S
C46 H14 0.930 . S
C46 C45 1.385 . S
C46 C47 1.357 . S
C47 C46 1.357 . S
C47 C48 1.406 . S
C48 H15 0.929 . S
C48 C47 1.406 . S
C48 C49 1.391 . S
C49 H16 0.931 . S
C49 C44 1.370 . S
C49 C48 1.391 . S
C50 N24 1.435 . S
C50 C51 1.358 . S
C50 C55 1.371 . S
C51 H17 0.930 . S
C51 C50 1.358 . S
C51 C52 1.405 . S
C52 H18 0.932 . S
C52 C51 1.405 . S
C52 C53 1.383 . S
C53 C52 1.383 . S
C53 C54 1.393 . S
C54 H19 0.931 . S
C54 C53 1.393 . S
C54 C55 1.382 . S
C55 H20 0.929 . S
C55 C50 1.371 . S
C55 C54 1.382 . S
C56 N24 1.423 . S
C56 C57 1.362 . S
C56 C61 1.388 . S
C57 H21 0.929 . S
C57 C56 1.362 . S
C57 C58 1.376 . S
C58 H22 0.931 . S
C58 C57 1.376 . S
C58 C59 1.396 . S
C59 C41 1.472 1_655 S
C59 C58 1.396 . S
C59 C60 1.348 . S
C60 H23 0.929 . S
C60 C59 1.348 . S
C60 C61 1.443 . S
C61 H25 0.932 . S
C61 C56 1.388 . S
C61 C60 1.443 . S
H62 C89 0.929 . S
N63 C88 1.433 . S
N63 C94 1.435 . S
N63 C100 1.423 . S
H64 C90 0.930 . S
H65 C93 0.931 . S
H66 C92 0.929 . S
H67 C95 0.930 . S
H68 C96 0.932 . S
H69 C99 0.929 . S
H70 C98 0.931 . S
H71 C101 0.929 . S
H72 C105 0.932 . S
H73 C102 0.931 . S
H74 C104 0.929 1_545 S
H75 C107 0.929 . S
H76 C108 0.930 . S
H77 C110 0.929 . S
H78 C111 0.931 . S
H79 C113 0.930 . S
H80 C114 0.932 . S
H81 C116 0.931 . S
H82 C117 0.929 . S
H83 C119 0.929 . S
H84 C120 0.931 . S
H85 C122 0.929 . S
N86 C106 1.433 . S
N86 C112 1.435 . S
N86 C118 1.423 . S
H87 C123 0.932 . S
C88 N63 1.433 . S
C88 C89 1.363 . S
C88 C93 1.370 . S
C89 H62 0.929 . S
C89 C88 1.363 . S
C89 C90 1.385 . S
C90 H64 0.930 . S
C90 C89 1.385 . S
C90 C91 1.357 . S
C91 C90 1.357 . S
C91 C92 1.406 . S
C92 H66 0.929 . S
C92 C91 1.406 . S
C92 C93 1.391 . S
C93 H65 0.931 . S
C93 C88 1.370 . S
C93 C92 1.391 . S
C94 N63 1.435 . S
C94 C95 1.358 . S
C94 C99 1.371 . S
C95 H67 0.930 . S
C95 C94 1.358 . S
C95 C96 1.405 . S
C96 H68 0.932 . S
C96 C95 1.405 . S
C96 C97 1.383 . S
C97 C96 1.383 . S
C97 C98 1.393 . S
C98 H70 0.931 . S
C98 C97 1.393 . S
C98 C99 1.382 . S
C99 H69 0.929 . S
C99 C94 1.371 . S
C99 C98 1.382 . S
C100 N63 1.423 . S
C100 C101 1.362 . S
C100 C105 1.388 . S
C101 H71 0.929 . S
C101 C100 1.362 . S
C101 C102 1.376 . S
C102 H73 0.931 . S
C102 C101 1.376 . S
C102 C103 1.396 1_565 S
C103 C102 1.396 1_545 S
C103 C104 1.348 1_545 S
C103 C121 1.472 . S
C104 H74 0.929 1_565 S
C104 C103 1.348 1_565 S
C104 C105 1.443 . S
C105 H72 0.932 . S
C105 C100 1.388 . S
C105 C104 1.443 . S
C106 N86 1.433 . S
C106 C107 1.363 . S
C106 C111 1.370 . S
C107 H75 0.929 . S
C107 C106 1.363 . S
C107 C108 1.385 . S
C108 H76 0.930 . S
C108 C107 1.385 . S
C108 C109 1.357 . S
C109 C108 1.357 . S
C109 C110 1.406 . S
C110 H77 0.929 . S
C110 C109 1.406 . S
C110 C111 1.391 . S
C111 H78 0.931 . S
C111 C106 1.370 . S
C111 C110 1.391 . S
C112 N86 1.435 . S
C112 C113 1.358 . S
C112 C117 1.371 . S
C113 H79 0.930 . S
C113 C112 1.358 . S
C113 C114 1.405 . S
C114 H80 0.932 . S
C114 C113 1.405 . S
C114 C115 1.383 . S
C115 C114 1.383 . S
C115 C116 1.393 . S
C116 H81 0.931 . S
C116 C115 1.393 . S
C116 C117 1.382 . S
C117 H82 0.929 . S
C117 C112 1.371 . S
C117 C116 1.382 . S
C118 N86 1.423 . S
C118 C119 1.362 . S
C118 C123 1.388 . S
C119 H83 0.929 . S
C119 C118 1.362 . S
C119 C120 1.376 . S
C120 H84 0.931 . S
C120 C119 1.376 . S
C120 C121 1.396 . S
C121 C103 1.472 . S
C121 C120 1.396 . S
C121 C122 1.348 . S
C122 H85 0.929 . S
C122 C121 1.348 . S
C122 C123 1.443 . S
C123 H87 0.932 . S
C123 C118 1.388 . S
C123 C122 1.443 . S
H124 C151 0.929 . S
N125 C150 1.433 . S
N125 C156 1.435 . S
N125 C162 1.423 . S
H126 C152 0.930 . S
H127 C155 0.931 . S
H128 C154 0.929 . S
H129 C157 0.930 . S
H130 C158 0.932 . S
H131 C161 0.929 . S
H132 C160 0.931 . S
H133 C163 0.929 . S
H134 C167 0.932 . S
H135 C164 0.931 . S
H136 C166 0.929 . S
H137 C169 0.929 . S
H138 C170 0.930 . S
H139 C172 0.929 . S
H140 C173 0.931 . S
H141 C175 0.930 . S
H142 C176 0.932 . S
H143 C178 0.931 . S
H144 C179 0.929 . S
H145 C181 0.929 . S
H146 C182 0.931 . S
H147 C184 0.929 . S
N148 C168 1.433 . S
N148 C174 1.435 . S
N148 C180 1.423 . S
H149 C185 0.932 . S
C150 N125 1.433 . S
C150 C151 1.363 . S
C150 C155 1.370 . S
C151 H124 0.929 . S
C151 C150 1.363 . S
C151 C152 1.385 . S
C152 H126 0.930 . S
C152 C151 1.385 . S
C152 C153 1.357 . S
C153 C152 1.357 . S
C153 C154 1.406 . S
C154 H128 0.929 . S
C154 C153 1.406 . S
C154 C155 1.391 . S
C155 H127 0.931 . S
C155 C150 1.370 . S
C155 C154 1.391 . S
C156 N125 1.435 . S
C156 C157 1.358 . S
C156 C161 1.371 . S
C157 H129 0.930 . S
C157 C156 1.358 . S
C157 C158 1.405 . S
C158 H130 0.932 . S
C158 C157 1.405 . S
C158 C159 1.383 . S
C159 C158 1.383 . S
C159 C160 1.393 . S
C160 H132 0.931 . S
C160 C159 1.393 . S
C160 C161 1.382 . S
C161 H131 0.929 . S
C161 C156 1.371 . S
C161 C160 1.382 . S
C162 N125 1.423 . S
C162 C163 1.362 . S
C162 C167 1.388 . S
C163 H133 0.929 . S
C163 C162 1.362 . S
C163 C164 1.376 . S
C164 H135 0.931 . S
C164 C163 1.376 . S
C164 C165 1.396 . S
C165 C164 1.396 . S
C165 C166 1.348 . S
C165 C183 1.472 . S
C166 H136 0.929 . S
C166 C165 1.348 . S
C166 C167 1.443 . S
C167 H134 0.932 . S
C167 C162 1.388 . S
C167 C166 1.443 . S
C168 N148 1.433 . S
C168 C169 1.363 . S
C168 C173 1.370 . S
C169 H137 0.929 . S
C169 C168 1.363 . S
C169 C170 1.385 . S
C170 H138 0.930 . S
C170 C169 1.385 . S
C170 C171 1.357 . S
C171 C170 1.357 . S
C171 C172 1.406 . S
C172 H139 0.929 . S
C172 C171 1.406 . S
C172 C173 1.391 . S
C173 H140 0.931 . S
C173 C168 1.370 . S
C173 C172 1.391 . S
C174 N148 1.435 . S
C174 C175 1.358 . S
C174 C179 1.371 . S
C175 H141 0.930 . S
C175 C174 1.358 . S
C175 C176 1.405 . S
C176 H142 0.932 . S
C176 C175 1.405 . S
C176 C177 1.383 . S
C177 C176 1.383 . S
C177 C178 1.393 . S
C178 H143 0.931 . S
C178 C177 1.393 . S
C178 C179 1.382 . S
C179 H144 0.929 . S
C179 C174 1.371 . S
C179 C178 1.382 . S
C180 N148 1.423 . S
C180 C181 1.362 . S
C180 C185 1.388 . S
C181 H145 0.929 . S
C181 C180 1.362 . S
C181 C182 1.376 . S
C182 H146 0.931 . S
C182 C181 1.376 . S
C182 C183 1.396 . S
C183 C165 1.472 . S
C183 C182 1.396 . S
C183 C184 1.348 . S
C184 H147 0.929 . S
C184 C183 1.348 . S
C184 C185 1.443 . S
C185 H149 0.932 . S
C185 C180 1.388 . S
C185 C184 1.443 . S
H186 C213 0.929 . S
N187 C212 1.433 . S
N187 C218 1.435 . S
N187 C224 1.423 . S
H188 C214 0.930 . S
H189 C217 0.931 . S
H190 C216 0.929 . S
H191 C219 0.930 . S
H192 C220 0.932 . S
H193 C223 0.929 . S
H194 C222 0.931 . S
H195 C225 0.929 . S
H196 C229 0.932 . S
H197 C226 0.931 . S
H198 C228 0.929 . S
H199 C231 0.929 . S
H200 C232 0.930 . S
H201 C234 0.929 . S
H202 C235 0.931 . S
H203 C237 0.930 . S
H204 C238 0.932 . S
H205 C240 0.931 . S
H206 C241 0.929 . S
H207 C243 0.929 . S
H208 C244 0.931 . S
H209 C246 0.929 . S
N210 C230 1.433 . S
N210 C236 1.435 . S
N210 C242 1.423 . S
H211 C247 0.932 . S
C212 N187 1.433 . S
C212 C213 1.363 . S
C212 C217 1.370 . S
C213 H186 0.929 . S
C213 C212 1.363 . S
C213 C214 1.385 . S
C214 H188 0.930 . S
C214 C213 1.385 . S
C214 C215 1.357 . S
C215 C214 1.357 . S
C215 C216 1.406 . S
C216 H190 0.929 . S
C216 C215 1.406 . S
C216 C217 1.391 . S
C217 H189 0.931 . S
C217 C212 1.370 . S
C217 C216 1.391 . S
C218 N187 1.435 . S
C218 C219 1.358 . S
C218 C223 1.371 . S
C219 H191 0.930 . S
C219 C218 1.358 . S
C219 C220 1.405 . S
C220 H192 0.932 . S
C220 C219 1.405 . S
C220 C221 1.383 . S
C221 C220 1.383 . S
C221 C222 1.393 . S
C222 H194 0.931 . S
C222 C221 1.393 . S
C222 C223 1.382 . S
C223 H193 0.929 . S
C223 C218 1.371 . S
C223 C222 1.382 . S
C224 N187 1.423 . S
C224 C225 1.362 . S
C224 C229 1.388 . S
C225 H195 0.929 . S
C225 C224 1.362 . S
C225 C226 1.376 . S
C226 H197 0.931 . S
C226 C225 1.376 . S
C226 C227 1.396 . S
C227 C226 1.396 . S
C227 C228 1.348 . S
C227 C245 1.472 1_455 S
C228 H198 0.929 . S
C228 C227 1.348 . S
C228 C229 1.443 . S
C229 H196 0.932 . S
C229 C224 1.388 . S
C229 C228 1.443 . S
C230 N210 1.433 . S
C230 C231 1.363 . S
C230 C235 1.370 . S
C231 H199 0.929 . S
C231 C230 1.363 . S
C231 C232 1.385 . S
C232 H200 0.930 . S
C232 C231 1.385 . S
C232 C233 1.357 . S
C233 C232 1.357 . S
C233 C234 1.406 . S
C234 H201 0.929 . S
C234 C233 1.406 . S
C234 C235 1.391 . S
C235 H202 0.931 . S
C235 C230 1.370 . S
C235 C234 1.391 . S
C236 N210 1.435 . S
C236 C237 1.358 . S
C236 C241 1.371 . S
C237 H203 0.930 . S
C237 C236 1.358 . S
C237 C238 1.405 . S
C238 H204 0.932 . S
C238 C237 1.405 . S
C238 C239 1.383 . S
C239 C238 1.383 . S
C239 C240 1.393 . S
C240 H205 0.931 . S
C240 C239 1.393 . S
C240 C241 1.382 . S
C241 H206 0.929 . S
C241 C236 1.371 . S
C241 C240 1.382 . S
C242 N210 1.423 . S
C242 C243 1.362 . S
C242 C247 1.388 . S
C243 H207 0.929 . S
C243 C242 1.362 . S
C243 C244 1.376 . S
C244 H208 0.931 . S
C244 C243 1.376 . S
C244 C245 1.396 . S
C245 C227 1.472 1_655 S
C245 C244 1.396 . S
C245 C246 1.348 . S
C246 H209 0.929 . S
C246 C245 1.348 . S
C246 C247 1.443 . S
C247 H211 0.932 . S
C247 C242 1.388 . S
C247 C246 1.443 . S
H248 C275 0.929 . S
N249 C274 1.433 . S
N249 C280 1.435 . S
N249 C286 1.423 . S
H250 C276 0.930 . S
H251 C279 0.931 . S
H252 C278 0.929 . S
H253 C281 0.930 . S
H254 C282 0.932 . S
H255 C285 0.929 . S
H256 C284 0.931 . S
H257 C287 0.929 . S
H258 C291 0.932 . S
H259 C288 0.931 . S
H260 C290 0.929 . S
H261 C293 0.929 . S
H262 C294 0.930 . S
H263 C296 0.929 . S
H264 C297 0.931 . S
H265 C299 0.930 1_554 S
H266 C300 0.932 . S
H267 C302 0.931 . S
H268 C303 0.929 . S
H269 C305 0.929 . S
H270 C306 0.931 1_544 S
H271 C308 0.929 . S
N272 C292 1.433 . S
N272 C298 1.435 1_554 S
N272 C304 1.423 1_554 S
H273 C309 0.932 . S
C274 N249 1.433 . S
C274 C275 1.363 . S
C274 C279 1.370 . S
C275 H248 0.929 . S
C275 C274 1.363 . S
C275 C276 1.385 . S
C276 H250 0.930 . S
C276 C275 1.385 . S
C276 C277 1.357 1_556 S
C277 C276 1.357 1_554 S
C277 C278 1.406 . S
C278 H252 0.929 . S
C278 C277 1.406 . S
C278 C279 1.391 1_554 S
C279 H251 0.931 . S
C279 C274 1.370 . S
C279 C278 1.391 1_556 S
C280 N249 1.435 . S
C280 C281 1.358 . S
C280 C285 1.371 . S
C281 H253 0.930 . S
C281 C280 1.358 . S
C281 C282 1.405 . S
C282 H254 0.932 . S
C282 C281 1.405 . S
C282 C283 1.383 . S
C283 C282 1.383 . S
C283 C284 1.393 . S
C284 H256 0.931 . S
C284 C283 1.393 . S
C284 C285 1.382 . S
C285 H255 0.929 . S
C285 C280 1.371 . S
C285 C284 1.382 . S
C286 N249 1.423 . S
C286 C287 1.362 . S
C286 C291 1.388 . S
C287 H257 0.929 . S
C287 C286 1.362 . S
C287 C288 1.376 . S
C288 H259 0.931 . S
C288 C287 1.376 . S
C288 C289 1.396 . S
C289 C288 1.396 . S
C289 C290 1.348 . S
C289 C307 1.472 . S
C290 H260 0.929 . S
C290 C289 1.348 . S
C290 C291 1.443 . S
C291 H258 0.932 . S
C291 C286 1.388 . S
C291 C290 1.443 . S
C292 N272 1.433 . S
C292 C293 1.363 . S
C292 C297 1.370 . S
C293 H261 0.929 . S
C293 C292 1.363 . S
C293 C294 1.385 . S
C294 H262 0.930 . S
C294 C293 1.385 . S
C294 C295 1.357 . S
C295 C294 1.357 . S
C295 C296 1.406 . S
C296 H263 0.929 . S
C296 C295 1.406 . S
C296 C297 1.391 . S
C297 H264 0.931 . S
C297 C292 1.370 . S
C297 C296 1.391 . S
C298 N272 1.435 1_556 S
C298 C299 1.358 . S
C298 C303 1.371 . S
C299 H265 0.930 1_556 S
C299 C298 1.358 . S
C299 C300 1.405 . S
C300 H266 0.932 . S
C300 C299 1.405 . S
C300 C301 1.383 . S
C301 C300 1.383 . S
C301 C302 1.393 . S
C302 H267 0.931 . S
C302 C301 1.393 . S
C302 C303 1.382 . S
C303 H268 0.929 . S
C303 C298 1.371 . S
C303 C302 1.382 . S
C304 N272 1.423 1_556 S
C304 C305 1.362 1_556 S
C304 C309 1.388 . S
C305 H269 0.929 . S
C305 C304 1.362 1_554 S
C305 C306 1.376 1_554 S
C306 H270 0.931 1_566 S
C306 C305 1.376 1_556 S
C306 C307 1.396 1_565 S
C307 C289 1.472 . S
C307 C306 1.396 1_545 S
C307 C308 1.348 1_545 S
C308 H271 0.929 . S
C308 C307 1.348 1_565 S
C308 C309 1.443 . S
C309 H273 0.932 . S
C309 C304 1.388 . S
C309 C308 1.443 . S
H310 C337 0.929 . S
N311 C336 1.433 . S
N311 C342 1.435 . S
N311 C348 1.423 . S
H312 C338 0.930 . S
H313 C341 0.931 . S
H314 C340 0.929 . S
H315 C343 0.930 . S
H316 C344 0.932 . S
H317 C347 0.929 . S
H318 C346 0.931 . S
H319 C349 0.929 . S
H320 C353 0.932 . S
H321 C350 0.931 . S
H322 C352 0.929 . S
H323 C355 0.929 . S
H324 C356 0.930 . S
H325 C358 0.929 . S
H326 C359 0.931 . S
H327 C361 0.930 . S
H328 C362 0.932 . S
H329 C364 0.931 . S
H330 C365 0.929 . S
H331 C367 0.929 . S
H332 C368 0.931 . S
H333 C370 0.929 . S
N334 C354 1.433 . S
N334 C360 1.435 . S
N334 C366 1.423 . S
H335 C371 0.932 . S
C336 N311 1.433 . S
C336 C337 1.363 . S
C336 C341 1.370 . S
C337 H310 0.929 . S
C337 C336 1.363 . S
C337 C338 1.385 . S
C338 H312 0.930 . S
C338 C337 1.385 . S
C338 C339 1.357 . S
C339 C338 1.357 . S
C339 C340 1.406 . S
C340 H314 0.929 . S
C340 C339 1.406 . S
C340 C341 1.391 . S
C341 H313 0.931 . S
C341 C336 1.370 . S
C341 C340 1.391 . S
C342 N311 1.435 . S
C342 C343 1.358 . S
C342 C347 1.371 . S
C343 H315 0.930 . S
C343 C342 1.358 . S
C343 C344 1.405 . S
C344 H316 0.932 . S
C344 C343 1.405 . S
C344 C345 1.383 . S
C345 C344 1.383 . S
C345 C346 1.393 . S
C346 H318 0.931 . S
C346 C345 1.393 . S
C346 C347 1.382 . S
C347 H317 0.929 . S
C347 C342 1.371 . S
C347 C346 1.382 . S
C348 N311 1.423 . S
C348 C349 1.362 . S
C348 C353 1.388 . S
C349 H319 0.929 . S
C349 C348 1.362 . S
C349 C350 1.376 . S
C350 H321 0.931 . S
C350 C349 1.376 . S
C350 C351 1.396 . S
C351 C350 1.396 . S
C351 C352 1.348 . S
C351 C369 1.472 . S
C352 H322 0.929 . S
C352 C351 1.348 . S
C352 C353 1.443 . S
C353 H320 0.932 . S
C353 C348 1.388 . S
C353 C352 1.443 . S
C354 N334 1.433 . S
C354 C355 1.363 . S
C354 C359 1.370 . S
C355 H323 0.929 . S
C355 C354 1.363 . S
C355 C356 1.385 . S
C356 H324 0.930 . S
C356 C355 1.385 . S
C356 C357 1.357 . S
C357 C356 1.357 . S
C357 C358 1.406 . S
C358 H325 0.929 . S
C358 C357 1.406 . S
C358 C359 1.391 . S
C359 H326 0.931 . S
C359 C354 1.370 . S
C359 C358 1.391 . S
C360 N334 1.435 . S
C360 C361 1.358 . S
C360 C365 1.371 . S
C361 H327 0.930 . S
C361 C360 1.358 . S
C361 C362 1.405 . S
C362 H328 0.932 . S
C362 C361 1.405 . S
C362 C363 1.383 . S
C363 C362 1.383 . S
C363 C364 1.393 . S
C364 H329 0.931 . S
C364 C363 1.393 . S
C364 C365 1.382 . S
C365 H330 0.929 . S
C365 C360 1.371 . S
C365 C364 1.382 . S
C366 N334 1.423 . S
C366 C367 1.362 . S
C366 C371 1.388 . S
C367 H331 0.929 . S
C367 C366 1.362 . S
C367 C368 1.376 . S
C368 H332 0.931 . S
C368 C367 1.376 . S
C368 C369 1.396 . S
C369 C351 1.472 . S
C369 C368 1.396 . S
C369 C370 1.348 . S
C370 H333 0.929 . S
C370 C369 1.348 . S
C370 C371 1.443 . S
C371 H335 0.932 . S
C371 C366 1.388 . S
C371 C370 1.443 . S
Mn372 O377 2.095 . S
Mn372 O387 2.162 . S
Mn372 O388 2.297 . S
Mn372 O396 2.385 . S
Mn372 O397 2.209 . S
Mn372 O398 2.094 . S
Mn373 O378 2.121 . S
Mn373 N380 2.257 . S
Mn373 N389 2.282 . S
Mn373 O397 2.215 . S
Mn373 O399 2.117 . S
C374 O396 1.234 . S
C374 O397 1.283 . S
C375 O387 1.281 . S
C375 O388 1.236 . S
C376 O398 1.240 . S
C376 O399 1.264 . S
O377 Mn372 2.095 . S
O377 C386 1.250 . S
O378 Mn373 2.121 . S
O378 C386 1.258 . S
C379 N380 1.326 . S
C379 C383 1.460 . S
C379 H385 0.929 . S
N380 Mn373 2.257 . S
N380 C379 1.326 . S
N380 C384 1.362 . S
C381 C382 1.258 . S
C381 C384 1.431 . S
C381 C401 1.449 . S
C382 C381 1.258 . S
C382 C383 1.477 . S
C382 H402 0.931 . S
C383 C379 1.460 . S
C383 C382 1.477 . S
C383 H403 0.930 . S
C384 N380 1.362 . S
C384 C381 1.431 . S
C384 C394 1.476 . S
H385 C379 0.929 . S
C386 O377 1.250 . S
C386 O378 1.258 . S
O387 Mn372 2.162 . S
O387 C375 1.281 . S
O388 Mn372 2.297 . S
O388 C375 1.236 . S
N389 Mn373 2.282 . S
N389 C390 1.328 . S
N389 C394 1.318 . S
C390 N389 1.328 . S
C390 C391 1.457 . S
C390 H395 0.929 . S
C391 C390 1.457 . S
C391 C392 1.291 . S
C391 H404 0.931 . S
C392 C391 1.291 . S
C392 C393 1.373 . S
C392 H405 0.929 . S
C393 C392 1.373 . S
C393 C394 1.396 . S
C393 C400 1.403 . S
C394 C384 1.476 . S
C394 N389 1.318 . S
C394 C393 1.396 . S
H395 C390 0.929 . S
O396 Mn372 2.385 . S
O396 C374 1.234 . S
O397 Mn372 2.209 . S
O397 Mn373 2.215 . S
O397 C374 1.283 . S
O398 Mn372 2.094 . S
O398 C376 1.240 . S
O399 Mn373 2.117 . S
O399 C376 1.264 . S
C400 C393 1.403 . S
C400 C401 1.399 . S
C400 H406 0.929 . S
C401 C381 1.449 . S
C401 C400 1.399 . S
C401 H407 0.930 . S
H402 C382 0.931 . S
H403 C383 0.930 . S
H404 C391 0.931 . S
H405 C392 0.929 . S
H406 C400 0.929 . S
H407 C401 0.930 . S
Mn408 O413 2.095 . S
Mn408 O423 2.162 . S
Mn408 O424 2.297 . S
Mn408 O432 2.385 . S
Mn408 O433 2.209 . S
Mn408 O434 2.094 . S
Mn409 O414 2.121 . S
Mn409 N416 2.257 . S
Mn409 N425 2.282 . S
Mn409 O433 2.215 . S
Mn409 O435 2.117 . S
C410 O432 1.234 . S
C410 O433 1.283 . S
C411 O423 1.281 . S
C411 O424 1.236 . S
C412 O434 1.240 . S
C412 O435 1.264 . S
O413 Mn408 2.095 . S
O413 C422 1.250 . S
O414 Mn409 2.121 . S
O414 C422 1.258 . S
C415 N416 1.326 . S
C415 C419 1.460 . S
C415 H421 0.929 . S
N416 Mn409 2.257 . S
N416 C415 1.326 . S
N416 C420 1.362 . S
C417 C418 1.258 . S
C417 C420 1.431 . S
C417 C437 1.449 . S
C418 C417 1.258 . S
C418 C419 1.477 . S
C418 H438 0.931 . S
C419 C415 1.460 . S
C419 C418 1.477 . S
C419 H439 0.930 . S
C420 N416 1.362 . S
C420 C417 1.431 . S
C420 C430 1.476 . S
H421 C415 0.929 . S
C422 O413 1.250 . S
C422 O414 1.258 . S
O423 Mn408 2.162 . S
O423 C411 1.281 . S
O424 Mn408 2.297 . S
O424 C411 1.236 . S
N425 Mn409 2.282 . S
N425 C426 1.328 . S
N425 C430 1.318 . S
C426 N425 1.328 . S
C426 C427 1.457 . S
C426 H431 0.929 . S
C427 C426 1.457 . S
C427 C428 1.291 . S
C427 H440 0.931 . S
C428 C427 1.291 . S
C428 C429 1.373 . S
C428 H441 0.929 . S
C429 C428 1.373 . S
C429 C430 1.396 . S
C429 C436 1.403 . S
C430 C420 1.476 . S
C430 N425 1.318 . S
C430 C429 1.396 . S
H431 C426 0.929 . S
O432 Mn408 2.385 . S
O432 C410 1.234 . S
O433 Mn408 2.209 . S
O433 Mn409 2.215 . S
O433 C410 1.283 . S
O434 Mn408 2.094 . S
O434 C412 1.240 . S
O435 Mn409 2.117 . S
O435 C412 1.264 . S
C436 C429 1.403 . S
C436 C437 1.399 . S
C436 H442 0.929 . S
C437 C417 1.449 . S
C437 C436 1.399 . S
C437 H443 0.930 . S
H438 C418 0.931 . S
H439 C419 0.930 . S
H440 C427 0.931 . S
H441 C428 0.929 . S
H442 C436 0.929 . S
H443 C437 0.930 . S
Mn444 O449 2.095 . S
Mn444 O459 2.162 . S
Mn444 O460 2.297 . S
Mn444 O468 2.385 . S
Mn444 O469 2.209 . S
Mn444 O470 2.094 . S
Mn445 O450 2.121 . S
Mn445 N452 2.257 . S
Mn445 N461 2.282 . S
Mn445 O469 2.215 . S
Mn445 O471 2.117 . S
C446 O468 1.234 . S
C446 O469 1.283 . S
C447 O459 1.281 . S
C447 O460 1.236 . S
C448 O470 1.240 . S
C448 O471 1.264 . S
O449 Mn444 2.095 . S
O449 C458 1.250 . S
O450 Mn445 2.121 . S
O450 C458 1.258 . S
C451 N452 1.326 . S
C451 C455 1.460 . S
C451 H457 0.929 . S
N452 Mn445 2.257 . S
N452 C451 1.326 . S
N452 C456 1.362 . S
C453 C454 1.258 . S
C453 C456 1.431 . S
C453 C473 1.449 . S
C454 C453 1.258 . S
C454 C455 1.477 . S
C454 H474 0.931 . S
C455 C451 1.460 . S
C455 C454 1.477 . S
C455 H475 0.930 . S
C456 N452 1.362 . S
C456 C453 1.431 . S
C456 C466 1.476 . S
H457 C451 0.929 . S
C458 O449 1.250 . S
C458 O450 1.258 . S
O459 Mn444 2.162 . S
O459 C447 1.281 . S
O460 Mn444 2.297 . S
O460 C447 1.236 . S
N461 Mn445 2.282 . S
N461 C462 1.328 . S
N461 C466 1.318 . S
C462 N461 1.328 . S
C462 C463 1.457 . S
C462 H467 0.929 . S
C463 C462 1.457 . S
C463 C464 1.291 . S
C463 H476 0.931 . S
C464 C463 1.291 . S
C464 C465 1.373 . S
C464 H477 0.929 . S
C465 C464 1.373 . S
C465 C466 1.396 . S
C465 C472 1.403 . S
C466 C456 1.476 . S
C466 N461 1.318 . S
C466 C465 1.396 . S
H467 C462 0.929 . S
O468 Mn444 2.385 . S
O468 C446 1.234 . S
O469 Mn444 2.209 . S
O469 Mn445 2.215 . S
O469 C446 1.283 . S
O470 Mn444 2.094 . S
O470 C448 1.240 . S
O471 Mn445 2.117 . S
O471 C448 1.264 . S
C472 C465 1.403 . S
C472 C473 1.399 . S
C472 H478 0.929 . S
C473 C453 1.449 . S
C473 C472 1.399 . S
C473 H479 0.930 . S
H474 C454 0.931 . S
H475 C455 0.930 . S
H476 C463 0.931 . S
H477 C464 0.929 . S
H478 C472 0.929 . S
H479 C473 0.930 . S
Mn480 O485 2.095 . S
Mn480 O495 2.162 . S
Mn480 O496 2.297 . S
Mn480 O504 2.385 . S
Mn480 O505 2.209 . S
Mn480 O506 2.094 . S
Mn481 O486 2.121 . S
Mn481 N488 2.257 . S
Mn481 N497 2.282 . S
Mn481 O505 2.215 . S
Mn481 O507 2.117 . S
C482 O504 1.234 . S
C482 O505 1.283 . S
C483 O495 1.281 . S
C483 O496 1.236 . S
C484 O506 1.240 . S
C484 O507 1.264 . S
O485 Mn480 2.095 . S
O485 C494 1.250 . S
O486 Mn481 2.121 . S
O486 C494 1.258 . S
C487 N488 1.326 . S
C487 C491 1.460 . S
C487 H493 0.929 . S
N488 Mn481 2.257 . S
N488 C487 1.326 . S
N488 C492 1.362 . S
C489 C490 1.258 . S
C489 C492 1.431 . S
C489 C509 1.449 . S
C490 C489 1.258 . S
C490 C491 1.477 . S
C490 H510 0.931 . S
C491 C487 1.460 . S
C491 C490 1.477 . S
C491 H511 0.930 . S
C492 N488 1.362 . S
C492 C489 1.431 . S
C492 C502 1.476 . S
H493 C487 0.929 . S
C494 O485 1.250 . S
C494 O486 1.258 . S
O495 Mn480 2.162 . S
O495 C483 1.281 . S
O496 Mn480 2.297 . S
O496 C483 1.236 . S
N497 Mn481 2.282 . S
N497 C498 1.328 . S
N497 C502 1.318 . S
C498 N497 1.328 . S
C498 C499 1.457 . S
C498 H503 0.929 . S
C499 C498 1.457 . S
C499 C500 1.291 . S
C499 H512 0.931 . S
C500 C499 1.291 . S
C500 C501 1.373 . S
C500 H513 0.929 . S
C501 C500 1.373 . S
C501 C502 1.396 . S
C501 C508 1.403 . S
C502 C492 1.476 . S
C502 N497 1.318 . S
C502 C501 1.396 . S
H503 C498 0.929 . S
O504 Mn480 2.385 . S
O504 C482 1.234 . S
O505 Mn480 2.209 . S
O505 Mn481 2.215 . S
O505 C482 1.283 . S
O506 Mn480 2.094 . S
O506 C484 1.240 . S
O507 Mn481 2.117 . S
O507 C484 1.264 . S
C508 C501 1.403 . S
C508 C509 1.399 . S
C508 H514 0.929 . S
C509 C489 1.449 . S
C509 C508 1.399 . S
C509 H515 0.930 . S
H510 C490 0.931 . S
H511 C491 0.930 . S
H512 C499 0.931 . S
H513 C500 0.929 . S
H514 C508 0.929 . S
H515 C509 0.930 . S
Mn516 O521 2.095 . S
Mn516 O531 2.162 . S
Mn516 O532 2.297 . S
Mn516 O540 2.385 . S
Mn516 O541 2.209 . S
Mn516 O542 2.094 . S
Mn517 O522 2.121 . S
Mn517 N524 2.257 . S
Mn517 N533 2.282 . S
Mn517 O541 2.215 . S
Mn517 O543 2.117 . S
C518 O540 1.234 . S
C518 O541 1.283 . S
C519 O531 1.281 . S
C519 O532 1.236 . S
C520 O542 1.240 . S
C520 O543 1.264 . S
O521 Mn516 2.095 . S
O521 C530 1.250 . S
O522 Mn517 2.121 . S
O522 C530 1.258 . S
C523 N524 1.326 . S
C523 C527 1.460 . S
C523 H529 0.929 . S
N524 Mn517 2.257 . S
N524 C523 1.326 . S
N524 C528 1.362 . S
C525 C526 1.258 . S
C525 C528 1.431 . S
C525 C545 1.449 . S
C526 C525 1.258 . S
C526 C527 1.477 . S
C526 H546 0.931 . S
C527 C523 1.460 . S
C527 C526 1.477 . S
C527 H547 0.930 . S
C528 N524 1.362 . S
C528 C525 1.431 . S
C528 C538 1.476 . S
H529 C523 0.929 . S
C530 O521 1.250 . S
C530 O522 1.258 . S
O531 Mn516 2.162 . S
O531 C519 1.281 . S
O532 Mn516 2.297 . S
O532 C519 1.236 . S
N533 Mn517 2.282 . S
N533 C534 1.328 . S
N533 C538 1.318 . S
C534 N533 1.328 . S
C534 C535 1.457 . S
C534 H539 0.929 . S
C535 C534 1.457 . S
C535 C536 1.291 . S
C535 H548 0.931 . S
C536 C535 1.291 . S
C536 C537 1.373 . S
C536 H549 0.929 . S
C537 C536 1.373 . S
C537 C538 1.396 . S
C537 C544 1.403 . S
C538 C528 1.476 . S
C538 N533 1.318 . S
C538 C537 1.396 . S
H539 C534 0.929 . S
O540 Mn516 2.385 . S
O540 C518 1.234 . S
O541 Mn516 2.209 . S
O541 Mn517 2.215 . S
O541 C518 1.283 . S
O542 Mn516 2.094 . S
O542 C520 1.240 . S
O543 Mn517 2.117 . S
O543 C520 1.264 . S
C544 C537 1.403 . S
C544 C545 1.399 . S
C544 H550 0.929 . S
C545 C525 1.449 . S
C545 C544 1.399 . S
C545 H551 0.930 . S
H546 C526 0.931 . S
H547 C527 0.930 . S
H548 C535 0.931 . S
H549 C536 0.929 . S
H550 C544 0.929 . S
H551 C545 0.930 . S
Mn552 O557 2.095 . S
Mn552 O567 2.162 . S
Mn552 O568 2.297 . S
Mn552 O576 2.385 . S
Mn552 O577 2.209 . S
Mn552 O578 2.094 . S
Mn553 O558 2.121 . S
Mn553 N560 2.257 . S
Mn553 N569 2.282 . S
Mn553 O577 2.215 . S
Mn553 O579 2.117 . S
C554 O576 1.234 . S
C554 O577 1.283 . S
C555 O567 1.281 . S
C555 O568 1.236 . S
C556 O578 1.240 . S
C556 O579 1.264 . S
O557 Mn552 2.095 . S
O557 C566 1.250 . S
O558 Mn553 2.121 . S
O558 C566 1.258 . S
C559 N560 1.326 . S
C559 C563 1.460 . S
C559 H565 0.929 . S
N560 Mn553 2.257 . S
N560 C559 1.326 . S
N560 C564 1.362 . S
C561 C562 1.258 . S
C561 C564 1.431 . S
C561 C581 1.449 . S
C562 C561 1.258 . S
C562 C563 1.477 . S
C562 H582 0.931 . S
C563 C559 1.460 . S
C563 C562 1.477 . S
C563 H583 0.930 . S
C564 N560 1.362 . S
C564 C561 1.431 . S
C564 C574 1.476 . S
H565 C559 0.929 . S
C566 O557 1.250 . S
C566 O558 1.258 . S
O567 Mn552 2.162 . S
O567 C555 1.281 . S
O568 Mn552 2.297 . S
O568 C555 1.236 . S
N569 Mn553 2.282 . S
N569 C570 1.328 . S
N569 C574 1.318 . S
C570 N569 1.328 . S
C570 C571 1.457 . S
C570 H575 0.929 . S
C571 C570 1.457 . S
C571 C572 1.291 . S
C571 H584 0.931 . S
C572 C571 1.291 . S
C572 C573 1.373 . S
C572 H585 0.929 . S
C573 C572 1.373 . S
C573 C574 1.396 . S
C573 C580 1.403 . S
C574 C564 1.476 . S
C574 N569 1.318 . S
C574 C573 1.396 . S
H575 C570 0.929 . S
O576 Mn552 2.385 . S
O576 C554 1.234 . S
O577 Mn552 2.209 . S
O577 Mn553 2.215 . S
O577 C554 1.283 . S
O578 Mn552 2.094 . S
O578 C556 1.240 . S
O579 Mn553 2.117 . S
O579 C556 1.264 . S
C580 C573 1.403 . S
C580 C581 1.399 . S
C580 H586 0.929 . S
C581 C561 1.449 . S
C581 C580 1.399 . S
C581 H587 0.930 . S
H582 C562 0.931 . S
H583 C563 0.930 . S
H584 C571 0.931 . S
H585 C572 0.929 . S
H586 C580 0.929 . S
H587 C581 0.930 . S
H588 C596 0.950 . S
H589 C601 0.950 . S
H590 C598 0.950 . S
H591 C600 0.950 . S
H592 C602 0.950 . S
H593 C604 0.950 . S
H594 C606 0.950 . S
H595 C607 0.950 . S
C596 H588 0.950 . S
C596 C597 1.386 . S
C596 C598 1.391 . S
C597 C596 1.386 . S
C597 C601 1.393 . S
C598 H590 0.950 . S
C598 C596 1.391 . S
C598 C599 1.400 . S
C599 C598 1.400 . S
C599 C600 1.398 . S
C599 C605 1.491 . S
C600 H591 0.950 . S
C600 C599 1.398 . S
C600 C601 1.391 . S
C601 H589 0.950 . S
C601 C597 1.393 . S
C601 C600 1.391 . S
C602 H592 0.950 . S
C602 C603 1.386 . S
C602 C604 1.391 . S
C603 C602 1.386 . S
C603 C607 1.393 . S
C604 H593 0.950 . S
C604 C602 1.391 . S
C604 C605 1.400 . S
C605 C599 1.491 . S
C605 C604 1.400 . S
C605 C606 1.398 . S
C606 H594 0.950 . S
C606 C605 1.398 . S
C606 C607 1.391 . S
C607 H595 0.950 . S
C607 C603 1.393 . S
C607 C606 1.391 . S
H608 C616 0.950 . S
H609 C621 0.950 . S
H610 C618 0.950 . S
H611 C620 0.950 . S
H612 C622 0.950 . S
H613 C624 0.950 . S
H614 C626 0.950 . S
H615 C627 0.950 . S
C616 H608 0.950 . S
C616 C617 1.386 . S
C616 C618 1.391 . S
C617 C616 1.386 . S
C617 C621 1.393 . S
C618 H610 0.950 . S
C618 C616 1.391 . S
C618 C619 1.400 . S
C619 C618 1.400 . S
C619 C620 1.398 . S
C619 C625 1.491 . S
C620 H611 0.950 . S
C620 C619 1.398 . S
C620 C621 1.391 . S
C621 H609 0.950 . S
C621 C617 1.393 . S
C621 C620 1.391 . S
C622 H612 0.950 . S
C622 C623 1.386 . S
C622 C624 1.391 . S
C623 C622 1.386 . S
C623 C627 1.393 . S
C624 H613 0.950 . S
C624 C622 1.391 . S
C624 C625 1.400 . S
C625 C619 1.491 . S
C625 C624 1.400 . S
C625 C626 1.398 . S
C626 H614 0.950 . S
C626 C625 1.398 . S
C626 C627 1.391 . S
C627 H615 0.950 . S
C627 C623 1.393 . S
C627 C626 1.391 . S
H628 C636 0.950 . S
H629 C641 0.950 . S
H630 C638 0.950 . S
H631 C640 0.950 . S
H632 C642 0.950 . S
H633 C644 0.950 . S
H634 C646 0.950 . S
H635 C647 0.950 . S
C636 H628 0.950 . S
C636 C637 1.386 . S
C636 C638 1.391 . S
C637 C636 1.386 . S
C637 C641 1.393 . S
C638 H630 0.950 . S
C638 C636 1.391 . S
C638 C639 1.400 . S
C639 C638 1.400 . S
C639 C640 1.398 . S
C639 C645 1.491 . S
C640 H631 0.950 . S
C640 C639 1.398 . S
C640 C641 1.391 . S
C641 H629 0.950 . S
C641 C637 1.393 . S
C641 C640 1.391 . S
C642 H632 0.950 . S
C642 C643 1.386 . S
C642 C644 1.391 . S
C643 C642 1.386 . S
C643 C647 1.393 . S
C644 H633 0.950 . S
C644 C642 1.391 . S
C644 C645 1.400 . S
C645 C639 1.491 . S
C645 C644 1.400 . S
C645 C646 1.398 . S
C646 H634 0.950 . S
C646 C645 1.398 . S
C646 C647 1.391 . S
C647 H635 0.950 . S
C647 C643 1.393 . S
C647 C646 1.391 . S
H648 C656 0.950 . S
H649 C661 0.950 . S
H650 C658 0.950 . S
H651 C660 0.950 . S
H652 C662 0.950 . S
H653 C664 0.950 . S
H654 C666 0.950 . S
H655 C667 0.950 . S
C656 H648 0.950 . S
C656 C657 1.386 . S
C656 C658 1.391 . S
C657 C656 1.386 . S
C657 C661 1.393 . S
C658 H650 0.950 . S
C658 C656 1.391 . S
C658 C659 1.400 . S
C659 C658 1.400 . S
C659 C660 1.398 . S
C659 C665 1.491 . S
C660 H651 0.950 . S
C660 C659 1.398 . S
C660 C661 1.391 . S
C661 H649 0.950 . S
C661 C657 1.393 . S
C661 C660 1.391 . S
C662 H652 0.950 . S
C662 C663 1.386 . S
C662 C664 1.391 . S
C663 C662 1.386 . S
C663 C667 1.393 . S
C664 H653 0.950 . S
C664 C662 1.391 . S
C664 C665 1.400 . S
C665 C659 1.491 . S
C665 C664 1.400 . S
C665 C666 1.398 . S
C666 H654 0.950 . S
C666 C665 1.398 . S
C666 C667 1.391 . S
C667 H655 0.950 . S
C667 C663 1.393 . S
C667 C666 1.391 . S
H668 C676 0.950 . S
H669 C681 0.950 . S
H670 C678 0.950 . S
H671 C680 0.950 . S
H672 C682 0.950 . S
H673 C684 0.950 . S
H674 C686 0.950 . S
H675 C687 0.950 . S
C676 H668 0.950 . S
C676 C677 1.386 . S
C676 C678 1.391 . S
C677 C676 1.386 . S
C677 C681 1.393 . S
C678 H670 0.950 . S
C678 C676 1.391 . S
C678 C679 1.400 . S
C679 C678 1.400 . S
C679 C680 1.398 . S
C679 C685 1.491 . S
C680 H671 0.950 . S
C680 C679 1.398 . S
C680 C681 1.391 . S
C681 H669 0.950 . S
C681 C677 1.393 . S
C681 C680 1.391 . S
C682 H672 0.950 . S
C682 C683 1.386 . S
C682 C684 1.391 . S
C683 C682 1.386 . S
C683 C687 1.393 . S
C684 H673 0.950 . S
C684 C682 1.391 . S
C684 C685 1.400 . S
C685 C679 1.491 . S
C685 C684 1.400 . S
C685 C686 1.398 . S
C686 H674 0.950 . S
C686 C685 1.398 . S
C686 C687 1.391 . S
C687 H675 0.950 . S
C687 C683 1.393 . S
C687 C686 1.391 . S
H688 C696 0.950 . S
H689 C701 0.950 . S
H690 C698 0.950 . S
H691 C700 0.950 . S
H692 C702 0.950 . S
H693 C704 0.950 . S
H694 C706 0.950 . S
H695 C707 0.950 . S
C696 H688 0.950 . S
C696 C697 1.386 . S
C696 C698 1.391 . S
C697 C696 1.386 . S
C697 C701 1.393 . S
C698 H690 0.950 . S
C698 C696 1.391 . S
C698 C699 1.400 . S
C699 C698 1.400 . S
C699 C700 1.398 . S
C699 C705 1.491 . S
C700 H691 0.950 . S
C700 C699 1.398 . S
C700 C701 1.391 . S
C701 H689 0.950 . S
C701 C697 1.393 . S
C701 C700 1.391 . S
C702 H692 0.950 . S
C702 C703 1.386 . S
C702 C704 1.391 . S
C703 C702 1.386 . S
C703 C707 1.393 . S
C704 H693 0.950 . S
C704 C702 1.391 . S
C704 C705 1.400 . S
C705 C699 1.491 . S
C705 C704 1.400 . S
C705 C706 1.398 . S
C706 H694 0.950 . S
C706 C705 1.398 . S
C706 C707 1.391 . S
C707 H695 0.950 . S
C707 C703 1.393 . S
C707 C706 1.391 . S
H708 C716 0.950 . S
H709 C721 0.950 . S
H710 C718 0.950 . S
H711 C720 0.950 . S
H712 C722 0.950 . S
H713 C724 0.950 . S
H714 C726 0.950 . S
H715 C727 0.950 . S
C716 H708 0.950 . S
C716 C717 1.386 . S
C716 C718 1.391 . S
C717 C716 1.386 . S
C717 C721 1.393 . S
C718 H710 0.950 . S
C718 C716 1.391 . S
C718 C719 1.400 . S
C719 C718 1.400 . S
C719 C720 1.398 . S
C719 C725 1.491 . S
C720 H711 0.950 . S
C720 C719 1.398 . S
C720 C721 1.391 . S
C721 H709 0.950 . S
C721 C717 1.393 . S
C721 C720 1.391 . S
C722 H712 0.950 . S
C722 C723 1.386 . S
C722 C724 1.391 . S
C723 C722 1.386 . S
C723 C727 1.393 . S
C724 H713 0.950 . S
C724 C722 1.391 . S
C724 C725 1.400 . S
C725 C719 1.491 . S
C725 C724 1.400 . S
C725 C726 1.398 . S
C726 H714 0.950 . S
C726 C725 1.398 . S
C726 C727 1.391 . S
C727 H715 0.950 . S
C727 C723 1.393 . S
C727 C726 1.391 . S
H728 C736 0.950 . S
H729 C741 0.950 . S
H730 C738 0.950 . S
H731 C740 0.950 . S
H732 C742 0.950 . S
H733 C744 0.950 . S
H734 C746 0.950 . S
H735 C747 0.950 . S
C736 H728 0.950 . S
C736 C737 1.386 . S
C736 C738 1.391 . S
C737 C736 1.386 . S
C737 C741 1.393 . S
C738 H730 0.950 . S
C738 C736 1.391 . S
C738 C739 1.400 . S
C739 C738 1.400 . S
C739 C740 1.398 . S
C739 C745 1.491 . S
C740 H731 0.950 . S
C740 C739 1.398 . S
C740 C741 1.391 . S
C741 H729 0.950 . S
C741 C737 1.393 . S
C741 C740 1.391 . S
C742 H732 0.950 . S
C742 C743 1.386 . S
C742 C744 1.391 . S
C743 C742 1.386 . S
C743 C747 1.393 . S
C744 H733 0.950 . S
C744 C742 1.391 . S
C744 C745 1.400 . S
C745 C739 1.491 . S
C745 C744 1.400 . S
C745 C746 1.398 . S
C746 H734 0.950 . S
C746 C745 1.398 . S
C746 C747 1.391 . S
C747 H735 0.950 . S
C747 C743 1.393 . S
C747 C746 1.391 . S
H748 C756 0.950 . S
H749 C761 0.950 . S
H750 C758 0.950 . S
H751 C760 0.950 . S
H752 C762 0.950 . S
H753 C764 0.950 . S
H754 C766 0.950 . S
H755 C767 0.950 . S
C756 H748 0.950 . S
C756 C757 1.386 . S
C756 C758 1.391 . S
C757 C756 1.386 . S
C757 C761 1.393 . S
C758 H750 0.950 . S
C758 C756 1.391 . S
C758 C759 1.400 . S
C759 C758 1.400 . S
C759 C760 1.398 . S
C759 C765 1.491 . S
C760 H751 0.950 . S
C760 C759 1.398 . S
C760 C761 1.391 . S
C761 H749 0.950 . S
C761 C757 1.393 . S
C761 C760 1.391 . S
C762 H752 0.950 . S
C762 C763 1.386 . S
C762 C764 1.391 . S
C763 C762 1.386 . S
C763 C767 1.393 . S
C764 H753 0.950 . S
C764 C762 1.391 . S
C764 C765 1.400 . S
C765 C759 1.491 . S
C765 C764 1.400 . S
C765 C766 1.398 . S
C766 H754 0.950 . S
C766 C765 1.398 . S
C766 C767 1.391 . S
C767 H755 0.950 . S
C767 C763 1.393 . S
C767 C766 1.391 . S
H768 C776 0.950 . S
H769 C781 0.950 1_556 S
H770 C778 0.950 . S
H771 C780 0.984 . S
H772 C782 0.950 . S
H773 C784 0.950 . S
H774 C786 0.950 . S
H775 C787 0.950 . S
C776 H768 0.950 . S
C776 C777 1.386 . S
C776 C778 1.391 . S
C777 C776 1.386 . S
C777 C781 1.393 . S
C778 H770 0.950 . S
C778 C776 1.391 . S
C778 C779 1.400 . S
C779 C778 1.400 . S
C779 C780 1.398 . S
C779 C785 1.491 . S
C780 H771 0.984 . S
C780 C779 1.398 . S
C780 C781 1.391 . S
C781 H769 0.950 1_554 S
C781 C777 1.393 . S
C781 C780 1.391 . S
C782 H772 0.950 . S
C782 C783 1.386 . S
C782 C784 1.391 . S
C783 C782 1.386 . S
C783 C787 1.393 . S
C784 H773 0.950 . S
C784 C782 1.391 . S
C784 C785 1.400 . S
C785 C779 1.491 . S
C785 C784 1.400 . S
C785 C786 1.398 . S
C786 H774 0.950 . S
C786 C785 1.398 . S
C786 C787 1.391 . S
C787 H775 0.950 . S
C787 C783 1.393 . S
C787 C786 1.391 . S
H788 C796 0.950 . S
H789 C801 0.950 . S
H790 C798 0.950 . S
H791 C800 0.950 . S
H792 C802 0.950 . S
H793 C804 0.950 . S
H794 C806 0.950 . S
H795 C807 0.950 . S
C796 H788 0.950 . S
C796 C797 1.386 . S
C796 C798 1.391 . S
C797 C796 1.386 . S
C797 C801 1.393 . S
C798 H790 0.950 . S
C798 C796 1.391 . S
C798 C799 1.400 . S
C799 C798 1.400 . S
C799 C800 1.398 . S
C799 C805 1.491 . S
C800 H791 0.950 . S
C800 C799 1.398 . S
C800 C801 1.391 . S
C801 H789 0.950 . S
C801 C797 1.393 . S
C801 C800 1.391 . S
C802 H792 0.950 . S
C802 C803 1.386 . S
C802 C804 1.391 . S
C803 C802 1.386 . S
C803 C807 1.393 . S
C804 H793 0.950 . S
C804 C802 1.391 . S
C804 C805 1.400 . S
C805 C799 1.491 . S
C805 C804 1.400 . S
C805 C806 1.398 . S
C806 H794 0.950 . S
C806 C805 1.398 . S
C806 C807 1.391 . S
C807 H795 0.950 . S
C807 C803 1.393 . S
C807 C806 1.391 . S
H808 C816 0.950 . S
H809 C821 0.950 . S
H810 C818 0.950 . S
H811 C820 0.950 . S
H812 C822 0.950 . S
H813 C824 0.950 . S
H814 C826 0.950 . S
H815 C827 0.950 . S
C816 H808 0.950 . S
C816 C817 1.386 . S
C816 C818 1.391 . S
C817 C816 1.386 . S
C817 C821 1.393 . S
C818 H810 0.950 . S
C818 C816 1.391 . S
C818 C819 1.400 . S
C819 C818 1.400 . S
C819 C820 1.398 . S
C819 C825 1.491 . S
C820 H811 0.950 . S
C820 C819 1.398 . S
C820 C821 1.391 . S
C821 H809 0.950 . S
C821 C817 1.393 . S
C821 C820 1.391 . S
C822 H812 0.950 . S
C822 C823 1.386 . S
C822 C824 1.391 . S
C823 C822 1.386 . S
C823 C827 1.393 . S
C824 H813 0.950 . S
C824 C822 1.391 . S
C824 C825 1.400 . S
C825 C819 1.491 . S
C825 C824 1.400 . S
C825 C826 1.398 . S
C826 H814 0.950 . S
C826 C825 1.398 . S
C826 C827 1.391 . S
C827 H815 0.950 . S
C827 C823 1.393 . S
C827 C826 1.391 . S
H828 C836 0.950 . S
H829 C841 0.950 . S
H830 C838 0.950 . S
H831 C840 0.950 . S
H832 C842 0.950 . S
H833 C844 0.950 . S
H834 C846 0.950 . S
H835 C847 0.950 . S
C836 H828 0.950 . S
C836 C837 1.386 . S
C836 C838 1.391 . S
C837 C836 1.386 . S
C837 C841 1.393 . S
C838 H830 0.950 . S
C838 C836 1.391 . S
C838 C839 1.400 . S
C839 C838 1.400 . S
C839 C840 1.398 . S
C839 C845 1.491 . S
C840 H831 0.950 . S
C840 C839 1.398 . S
C840 C841 1.391 . S
C841 H829 0.950 . S
C841 C837 1.393 . S
C841 C840 1.391 . S
C842 H832 0.950 . S
C842 C843 1.386 . S
C842 C844 1.391 . S
C843 C842 1.386 . S
C843 C847 1.393 . S
C844 H833 0.950 . S
C844 C842 1.391 . S
C844 C845 1.400 . S
C845 C839 1.491 . S
C845 C844 1.400 . S
C845 C846 1.398 . S
C846 H834 0.950 . S
C846 C845 1.398 . S
C846 C847 1.391 . S
C847 H835 0.950 . S
C847 C843 1.393 . S
C847 C846 1.391 . S
H848 C856 0.950 . S
H849 C861 0.950 . S
H850 C858 0.950 . S
H851 C860 0.950 . S
H852 C862 0.950 . S
H853 C864 0.950 . S
H854 C866 0.950 . S
H855 C867 0.950 . S
C856 H848 0.950 . S
C856 C857 1.386 . S
C856 C858 1.391 . S
C857 C856 1.386 . S
C857 C861 1.393 . S
C858 H850 0.950 . S
C858 C856 1.391 . S
C858 C859 1.400 . S
C859 C858 1.400 . S
C859 C860 1.398 . S
C859 C865 1.491 . S
C860 H851 0.950 . S
C860 C859 1.398 . S
C860 C861 1.391 . S
C861 H849 0.950 . S
C861 C857 1.393 . S
C861 C860 1.391 . S
C862 H852 0.950 . S
C862 C863 1.386 . S
C862 C864 1.391 . S
C863 C862 1.386 . S
C863 C867 1.393 . S
C864 H853 0.950 . S
C864 C862 1.391 . S
C864 C865 1.400 . S
C865 C859 1.491 . S
C865 C864 1.400 . S
C865 C866 1.398 . S
C866 H854 0.950 . S
C866 C865 1.398 . S
C866 C867 1.391 . S
C867 H855 0.950 . S
C867 C863 1.393 . S
C867 C866 1.391 . S
H868 C876 0.950 . S
H869 C881 0.950 . S
H870 C878 0.950 . S
H871 C880 0.950 . S
H872 C882 0.950 . S
H873 C884 0.950 . S
H874 C886 0.950 . S
H875 C887 0.950 . S
C876 H868 0.950 . S
C876 C877 1.386 . S
C876 C878 1.391 . S
C877 C876 1.386 . S
C877 C881 1.393 . S
C878 H870 0.950 . S
C878 C876 1.391 . S
C878 C879 1.400 . S
C879 C878 1.400 . S
C879 C880 1.398 . S
C879 C885 1.491 . S
C880 H871 0.950 . S
C880 C879 1.398 . S
C880 C881 1.391 . S
C881 H869 0.950 . S
C881 C877 1.393 . S
C881 C880 1.391 . S
C882 H872 0.950 . S
C882 C883 1.386 . S
C882 C884 1.391 . S
C883 C882 1.386 . S
C883 C887 1.393 . S
C884 H873 0.950 . S
C884 C882 1.391 . S
C884 C885 1.400 . S
C885 C879 1.491 . S
C885 C884 1.400 . S
C885 C886 1.398 . S
C886 H874 0.950 . S
C886 C885 1.398 . S
C886 C887 1.391 . S
C887 H875 0.950 . S
C887 C883 1.393 . S
C887 C886 1.391 . S
H888 C896 0.950 . S
H889 C901 0.950 . S
H890 C898 0.950 . S
H891 C900 0.950 . S
H892 C902 0.950 . S
H893 C904 0.950 . S
H894 C906 0.950 . S
H895 C907 0.950 . S
C896 H888 0.950 . S
C896 C897 1.386 . S
C896 C898 1.391 . S
C897 C896 1.386 . S
C897 C901 1.393 . S
C898 H890 0.950 . S
C898 C896 1.391 . S
C898 C899 1.400 . S
C899 C898 1.400 . S
C899 C900 1.398 . S
C899 C905 1.491 . S
C900 H891 0.950 . S
C900 C899 1.398 . S
C900 C901 1.391 . S
C901 H889 0.950 . S
C901 C897 1.393 . S
C901 C900 1.391 . S
C902 H892 0.950 . S
C902 C903 1.386 . S
C902 C904 1.391 1_554 S
C903 C902 1.386 . S
C903 C907 1.393 1_554 S
C904 H893 0.950 . S
C904 C902 1.391 1_556 S
C904 C905 1.400 . S
C905 C899 1.491 . S
C905 C904 1.400 . S
C905 C906 1.398 . S
C906 H894 0.950 . S
C906 C905 1.398 . S
C906 C907 1.391 . S
C907 H895 0.950 . S
C907 C903 1.393 1_556 S
C907 C906 1.391 . S
H908 C916 0.950 . S
H909 C921 0.950 . S
H910 C918 0.950 . S
H911 C920 0.950 . S
H912 C922 0.950 . S
H913 C924 0.950 . S
H914 C926 0.950 . S
H915 C927 0.950 . S
C916 H908 0.950 . S
C916 C917 1.386 . S
C916 C918 1.391 . S
C917 C916 1.386 . S
C917 C921 1.393 . S
C918 H910 0.950 . S
C918 C916 1.391 . S
C918 C919 1.400 . S
C919 C918 1.400 . S
C919 C920 1.398 . S
C919 C925 1.491 . S
C920 H911 0.950 . S
C920 C919 1.398 . S
C920 C921 1.391 . S
C921 H909 0.950 . S
C921 C917 1.393 . S
C921 C920 1.391 . S
C922 H912 0.950 . S
C922 C923 1.386 . S
C922 C924 1.391 . S
C923 C922 1.386 . S
C923 C927 1.393 . S
C924 H913 0.950 . S
C924 C922 1.391 . S
C924 C925 1.400 . S
C925 C919 1.491 . S
C925 C924 1.400 . S
C925 C926 1.398 . S
C926 H914 0.950 . S
C926 C925 1.398 . S
C926 C927 1.391 . S
C927 H915 0.950 . S
C927 C923 1.393 . S
C927 C926 1.391 . S
H928 C936 0.950 . S
H929 C941 0.950 . S
H930 C938 0.950 . S
H931 C940 0.950 . S
H932 C942 0.950 . S
H933 C944 0.950 . S
H934 C946 0.950 . S
H935 C947 0.950 . S
C936 H928 0.950 . S
C936 C937 1.386 . S
C936 C938 1.391 . S
C937 C936 1.386 . S
C937 C941 1.393 . S
C938 H930 0.950 . S
C938 C936 1.391 . S
C938 C939 1.400 . S
C939 C938 1.400 . S
C939 C940 1.398 . S
C939 C945 1.491 . S
C940 H931 0.950 . S
C940 C939 1.398 . S
C940 C941 1.391 . S
C941 H929 0.950 . S
C941 C937 1.393 . S
C941 C940 1.391 . S
C942 H932 0.950 . S
C942 C943 1.386 . S
C942 C944 1.391 . S
C943 C942 1.386 . S
C943 C947 1.393 . S
C944 H933 0.950 . S
C944 C942 1.391 . S
C944 C945 1.400 . S
C945 C939 1.491 . S
C945 C944 1.400 . S
C945 C946 1.398 . S
C946 H934 0.950 . S
C946 C945 1.398 . S
C946 C947 1.391 . S
C947 H935 0.950 . S
C947 C943 1.393 . S
C947 C946 1.391 . S
H948 C956 0.950 . S
H949 C961 0.950 . S
H950 C958 0.950 . S
H951 C960 0.950 . S
H952 C962 0.950 . S
H953 C964 0.950 . S
H954 C966 0.950 . S
H955 C967 0.950 . S
C956 H948 0.950 . S
C956 C957 1.386 . S
C956 C958 1.391 . S
C957 C956 1.386 . S
C957 C961 1.393 . S
C958 H950 0.950 . S
C958 C956 1.391 . S
C958 C959 1.400 . S
C959 C958 1.400 . S
C959 C960 1.398 . S
C959 C965 1.491 . S
C960 H951 0.950 . S
C960 C959 1.398 . S
C960 C961 1.391 . S
C961 H949 0.950 . S
C961 C957 1.393 . S
C961 C960 1.391 . S
C962 H952 0.950 . S
C962 C963 1.386 . S
C962 C964 1.391 . S
C963 C962 1.386 . S
C963 C967 1.393 . S
C964 H953 0.950 . S
C964 C962 1.391 . S
C964 C965 1.400 . S
C965 C959 1.491 . S
C965 C964 1.400 . S
C965 C966 1.398 . S
C966 H954 0.950 . S
C966 C965 1.398 . S
C966 C967 1.391 . S
C967 H955 0.950 . S
C967 C963 1.393 . S
C967 C966 1.391 . S
H968 C976 0.950 . S
H969 C981 0.950 . S
H970 C978 0.950 . S
H971 C980 0.950 . S
H972 C982 0.950 . S
H973 C984 0.950 . S
H974 C986 0.950 . S
H975 C987 0.950 . S
C976 H968 0.950 . S
C976 C977 1.386 . S
C976 C978 1.391 . S
C977 C976 1.386 . S
C977 C981 1.393 . S
C978 H970 0.950 . S
C978 C976 1.391 . S
C978 C979 1.400 . S
C979 C978 1.400 . S
C979 C980 1.398 . S
C979 C985 1.491 . S
C980 H971 0.950 . S
C980 C979 1.398 . S
C980 C981 1.391 . S
C981 H969 0.950 . S
C981 C977 1.393 . S
C981 C980 1.391 . S
C982 H972 0.950 . S
C982 C983 1.386 . S
C982 C984 1.391 . S
C983 C982 1.386 . S
C983 C987 1.393 . S
C984 H973 0.950 . S
C984 C982 1.391 . S
C984 C985 1.400 . S
C985 C979 1.491 . S
C985 C984 1.400 . S
C985 C986 1.398 . S
C986 H974 0.950 . S
C986 C985 1.398 . S
C986 C987 1.391 . S
C987 H975 0.950 . S
C987 C983 1.393 . S
C987 C986 1.391 . S
H988 C996 0.950 . S
H989 C1001 0.950 . S
H990 C998 0.950 . S
H991 C1000 0.950 . S
H992 C1002 0.950 . S
H993 C1004 0.950 . S
H994 C1006 0.950 . S
H995 C1007 0.950 . S
C996 H988 0.950 . S
C996 C997 1.386 . S
C996 C998 1.391 . S
C997 C996 1.386 . S
C997 C1001 1.393 . S
C998 H990 0.950 . S
C998 C996 1.391 . S
C998 C999 1.400 . S
C999 C998 1.400 . S
C999 C1000 1.398 . S
C999 C1005 1.491 . S
C1000 H991 0.950 . S
C1000 C999 1.398 . S
C1000 C1001 1.391 . S
C1001 H989 0.950 . S
C1001 C997 1.393 . S
C1001 C1000 1.391 . S
C1002 H992 0.950 . S
C1002 C1003 1.386 . S
C1002 C1004 1.391 . S
C1003 C1002 1.386 . S
C1003 C1007 1.393 . S
C1004 H993 0.950 . S
C1004 C1002 1.391 . S
C1004 C1005 1.400 . S
C1005 C999 1.491 . S
C1005 C1004 1.400 . S
C1005 C1006 1.398 . S
C1006 H994 0.950 . S
C1006 C1005 1.398 . S
C1006 C1007 1.391 . S
C1007 H995 0.950 . S
C1007 C1003 1.393 . S
C1007 C1006 1.391 . S
H1008 C1016 0.950 . S
H1009 C1021 0.950 . S
H1010 C1018 0.950 . S
H1011 C1020 0.950 . S
H1012 C1022 0.950 . S
H1013 C1024 0.950 . S
H1014 C1026 0.950 . S
H1015 C1027 0.950 . S
C1016 H1008 0.950 . S
C1016 C1017 1.386 . S
C1016 C1018 1.391 . S
C1017 C1016 1.386 . S
C1017 C1021 1.393 . S
C1018 H1010 0.950 . S
C1018 C1016 1.391 . S
C1018 C1019 1.400 . S
C1019 C1018 1.400 . S
C1019 C1020 1.398 . S
C1019 C1025 1.491 . S
C1020 H1011 0.950 . S
C1020 C1019 1.398 . S
C1020 C1021 1.391 . S
C1021 H1009 0.950 . S
C1021 C1017 1.393 . S
C1021 C1020 1.391 . S
C1022 H1012 0.950 . S
C1022 C1023 1.386 . S
C1022 C1024 1.391 . S
C1023 C1022 1.386 . S
C1023 C1027 1.393 . S
C1024 H1013 0.950 . S
C1024 C1022 1.391 . S
C1024 C1025 1.400 . S
C1025 C1019 1.491 . S
C1025 C1024 1.400 . S
C1025 C1026 1.398 . S
C1026 H1014 0.950 . S
C1026 C1025 1.398 . S
C1026 C1027 1.391 . S
C1027 H1015 0.950 . S
C1027 C1023 1.393 . S
C1027 C1026 1.391 . S
H1028 C1036 0.950 . S
H1029 C1041 0.950 . S
H1030 C1038 0.950 . S
H1031 C1040 0.950 1_556 S
H1032 C1042 0.950 . S
H1033 C1044 0.950 . S
H1034 C1046 0.950 . S
H1035 C1047 0.950 . S
C1036 H1028 0.950 . S
C1036 C1037 1.386 . S
C1036 C1038 1.391 . S
C1037 C1036 1.386 . S
C1037 C1041 1.393 . S
C1038 H1030 0.950 . S
C1038 C1036 1.391 . S
C1038 C1039 1.411 . S
C1039 C1038 1.411 . S
C1039 C1040 1.400 . S
C1039 C1045 1.478 1_554 S
C1040 H1031 0.950 1_554 S
C1040 C1039 1.400 . S
C1040 C1041 1.391 . S
C1041 H1029 0.950 . S
C1041 C1037 1.393 . S
C1041 C1040 1.391 . S
C1042 H1032 0.950 . S
C1042 C1043 1.386 . S
C1042 C1044 1.391 . S
C1043 C1042 1.386 . S
C1043 C1047 1.393 . S
C1044 H1033 0.950 . S
C1044 C1042 1.391 . S
C1044 C1045 1.400 . S
C1045 C1039 1.478 1_556 S
C1045 C1044 1.400 . S
C1045 C1046 1.398 . S
C1046 H1034 0.950 . S
C1046 C1045 1.398 . S
C1046 C1047 1.391 . S
C1047 H1035 0.950 . S
C1047 C1043 1.393 . S
C1047 C1046 1.391 . S
H1048 C1056 0.950 . S
H1049 C1061 0.950 . S
H1050 C1058 0.950 . S
H1051 C1060 0.950 . S
H1052 C1062 0.950 . S
H1053 C1064 0.950 . S
H1054 C1066 0.950 . S
H1055 C1067 0.950 . S
C1056 H1048 0.950 . S
C1056 C1057 1.386 . S
C1056 C1058 1.391 . S
C1057 C1056 1.386 . S
C1057 C1061 1.393 . S
C1058 H1050 0.950 . S
C1058 C1056 1.391 . S
C1058 C1059 1.400 . S
C1059 C1058 1.400 . S
C1059 C1060 1.398 . S
C1059 C1065 1.491 . S
C1060 H1051 0.950 . S
C1060 C1059 1.398 . S
C1060 C1061 1.391 . S
C1061 H1049 0.950 . S
C1061 C1057 1.393 . S
C1061 C1060 1.391 . S
C1062 H1052 0.950 . S
C1062 C1063 1.386 . S
C1062 C1064 1.391 . S
C1063 C1062 1.386 . S
C1063 C1067 1.393 . S
C1064 H1053 0.950 . S
C1064 C1062 1.391 . S
C1064 C1065 1.400 . S
C1065 C1059 1.491 . S
C1065 C1064 1.400 . S
C1065 C1066 1.398 . S
C1066 H1054 0.950 . S
C1066 C1065 1.398 . S
C1066 C1067 1.391 . S
C1067 H1055 0.950 . S
C1067 C1063 1.393 . S
C1067 C1066 1.391 . S
C603 C555 1.674 . S
C597 C29 1.580 . S
C617 C115 1.594 . S
C623 C375 1.619 . S
C637 C153 1.585 . S
C643 C422 1.645 . S
C657 C239 1.509 . S
C663 C458 1.486 . S
C683 C483 1.596 . S
C677 C301 1.572 . S
C697 C339 1.811 . S
C703 C519 1.926 . S
C717 C91 1.608 . S
C723 C411 1.720 . S
C737 C177 1.542 . S
C743 C447 1.555 . S
C757 C215 1.526 . S
C763 C494 1.578 . S
C783 C530 1.904 . S
C777 C277 1.802 . S
C803 C566 1.574 . S
C797 C363 1.585 . S
C823 C386 1.543 . S
C817 C53 1.555 . S
C837 C35 1.542 . S
C843 C410 1.556 . S
C857 C109 1.415 . S
C863 C446 1.509 . S
C883 C484 1.464 . S
C877 C159 1.446 . S
C897 C233 1.617 . S
C903 C520 1.722 . S
C923 C556 1.514 . S
C917 C295 1.382 . S
C943 C376 1.349 . S
C937 C345 1.328 . S
C963 C554 1.442 . S
C957 C97 1.430 . S
C977 C171 1.386 . S
C983 C374 1.482 . S
C1003 C412 1.553 . S
C997 C221 1.535 . S
C1017 C283 1.387 . S
C1023 C448 1.404 . S
C1037 C357 1.432 . S
C1043 C482 1.552 . S
C1057 C47 1.635 . S
C1063 C518 1.726 . S
