# Generated by pormake.
# Topology anh, (6,3)-cn, num edge types: 1
# Building blocks:
#     Node 0, Type 0, BuildingBlock: BETDAH_clean_sbu_0, # of connection points: 6
#     Node 1, Type 0, BuildingBlock: BETDAH_clean_sbu_0, # of connection points: 6
#     Node 2, Type 0, BuildingBlock: BETDAH_clean_sbu_0, # of connection points: 6
#     Node 3, Type 1, BuildingBlock: ESEHIV_clean_linker_0, # of connection points: 3
#     Node 4, Type 1, BuildingBlock: ESEHIV_clean_linker_0, # of connection points: 3
#     Node 5, Type 1, BuildingBlock: ESEHIV_clean_linker_0, # of connection points: 3
#     Node 6, Type 1, BuildingBlock: ESEHIV_clean_linker_0, # of connection points: 3
#     Node 7, Type 1, BuildingBlock: ESEHIV_clean_linker_0, # of connection points: 3
#     Node 8, Type 1, BuildingBlock: ESEHIV_clean_linker_0, # of connection points: 3
#     Edge 9, Type (0, 1), BuildingBlock: AJUNOK_clean_linker_0, # of connection points: 2
#     Edge 10, Type (0, 1), BuildingBlock: AJUNOK_clean_linker_0, # of connection points: 2
#     Edge 11, Type (0, 1), BuildingBlock: AJUNOK_clean_linker_0, # of connection points: 2
#     Edge 12, Type (0, 1), BuildingBlock: AJUNOK_clean_linker_0, # of connection points: 2
#     Edge 13, Type (0, 1), BuildingBlock: AJUNOK_clean_linker_0, # of connection points: 2
#     Edge 14, Type (0, 1), BuildingBlock: AJUNOK_clean_linker_0, # of connection points: 2
#     Edge 15, Type (0, 1), BuildingBlock: AJUNOK_clean_linker_0, # of connection points: 2
#     Edge 16, Type (0, 1), BuildingBlock: AJUNOK_clean_linker_0, # of connection points: 2
#     Edge 17, Type (0, 1), BuildingBlock: AJUNOK_clean_linker_0, # of connection points: 2
#     Edge 18, Type (0, 1), BuildingBlock: AJUNOK_clean_linker_0, # of connection points: 2
#     Edge 19, Type (0, 1), BuildingBlock: AJUNOK_clean_linker_0, # of connection points: 2
#     Edge 20, Type (0, 1), BuildingBlock: AJUNOK_clean_linker_0, # of connection points: 2
#     Edge 21, Type (0, 1), BuildingBlock: AJUNOK_clean_linker_0, # of connection points: 2
#     Edge 22, Type (0, 1), BuildingBlock: AJUNOK_clean_linker_0, # of connection points: 2
#     Edge 23, Type (0, 1), BuildingBlock: AJUNOK_clean_linker_0, # of connection points: 2
#     Edge 24, Type (0, 1), BuildingBlock: AJUNOK_clean_linker_0, # of connection points: 2
#     Edge 25, Type (0, 1), BuildingBlock: AJUNOK_clean_linker_0, # of connection points: 2
#     Edge 26, Type (0, 1), BuildingBlock: AJUNOK_clean_linker_0, # of connection points: 2
# Relax obj value: 0.283
# Max RMSD: 0.261
# Mean RMSD: 0.181
data_MOF--net-anh--node1-BETDAH_clean_sbu_0--node2-ESEHIV_clean_linker_0--edge1-AJUNOK_clean_linker_0
_symmetry_space_group_name_H-M    P1
_symmetry_Int_Tables_number       1
_symmetry_cell_setting            triclinic
loop_
_symmetry_equiv_pos_as_xyz
'x, y, z'
_cell_length_a     21.325841
_cell_length_b     26.922764
_cell_length_c     37.561795
_cell_angle_alpha  92.098727
_cell_angle_beta   88.263405
_cell_angle_gamma 133.61968
loop_
_atom_site_label
_atom_site_type_symbol
_atom_site_fract_x
_atom_site_fract_y
_atom_site_fract_z
_atom_type_partial_charge
Ho0 Ho 0.2197 0.54787 0.14103 0.0
Ho1 Ho 1.0996 0.56138 0.16992 0.0
C2 C 0.29692 0.70356 0.15931 0.0
C3 C 0.339 0.56978 0.10368 0.0
C4 C 0.43193 0.61978 0.11061 0.0
C5 C 0.48673 0.62257 0.0876 0.0
C6 C 0.56727 0.65141 0.09964 0.0
C7 C 0.59221 0.67572 0.13523 0.0
C8 C 0.54361 0.68378 0.1558 0.0
C9 C 0.46309 0.65521 0.14362 0.0
C10 C 0.20855 0.54695 0.21273 0.0
C11 C 1.02406 0.406 0.15273 0.0
C12 C 0.98886 0.54375 0.21268 0.0
C13 C 0.8967 0.4838 0.21945 0.0
C14 C 0.86339 0.41697 0.21617 0.0
C15 C 0.7761 0.36179 0.20819 0.0
C16 C 0.7221 0.37346 0.20402 0.0
C17 C 0.75191 0.43734 0.21474 0.0
C18 C 0.83947 0.49274 0.22179 0.0
C19 C 1.11171 0.56183 0.09766 0.0
O20 O 0.3085 0.66491 0.14424 0.0
O21 O 0.22115 0.67452 0.17391 0.0
O22 O 0.29244 0.52143 0.12729 0.0
O23 O 0.30677 0.59522 0.09563 0.0
O24 O 0.22221 0.51335 0.19444 0.0
O25 O 0.21037 0.5839 0.19225 0.0
O26 O 1.01239 0.44458 0.16775 0.0
O27 O 1.09851 0.43446 0.13698 0.0
O28 O 1.007 0.5698 0.18095 0.0
O29 O 1.04236 0.53847 0.22237 0.0
O30 O 1.10107 0.59767 0.11594 0.0
O31 O 1.10861 0.52453 0.11849 0.0
H32 H 0.4639 0.59621 0.0619 0.0
H33 H 0.60338 0.64483 0.08282 0.0
H34 H 0.56177 0.70305 0.18303 0.0
H35 H 0.42141 0.65406 0.16159 0.0
H36 H 0.90584 0.40824 0.21598 0.0
H37 H 0.75425 0.31284 0.20029 0.0
H38 H 0.71116 0.44745 0.21185 0.0
H39 H 0.86371 0.54366 0.22498 0.0
Ho40 Ho 0.71585 0.05317 0.46855 0.0
Ho41 Ho 0.5992 0.07408 0.46108 0.0
C42 C 0.50824 0.91881 0.45751 0.0
C43 C 0.79352 1.01609 0.48844 0.0
C44 C 0.77106 0.95468 0.50229 0.0
C45 C 0.76271 0.94379 0.53916 0.0
C46 C 0.74652 0.88796 0.55231 0.0
C47 C 0.73851 0.84198 0.52891 0.0
C48 C 0.74674 0.85272 0.49209 0.0
C49 C 0.76303 0.90859 0.47891 0.0
C50 C 0.70063 0.07433 0.40103 0.0
C51 C 0.81035 0.20999 0.46359 0.0
C52 C 0.52984 0.12041 0.44757 0.0
C53 C 0.54776 0.17891 0.46511 0.0
C54 C 0.54966 0.22331 0.44554 0.0
C55 C 0.57377 0.28194 0.46202 0.0
C56 C 0.59683 0.29706 0.49823 0.0
C57 C 0.59356 0.25179 0.51774 0.0
C58 C 0.57024 0.19384 0.5013 0.0
C59 C 0.61674 0.05657 0.52947 0.0
O60 O 0.58095 0.94365 0.47266 0.0
O61 O 0.50461 0.96198 0.4447 0.0
O62 O 0.77354 1.01308 0.45538 0.0
O63 O 0.77899 0.04699 0.50952 0.0
O64 O 0.77201 0.0975 0.41452 0.0
O65 O 0.63936 0.03705 0.42306 0.0
O66 O 0.73152 0.18404 0.45758 0.0
O67 O 0.8217 0.16908 0.47132 0.0
O68 O 0.49246 0.06736 0.46754 0.0
O69 O 0.59408 0.13641 0.42885 0.0
O70 O 0.54538 0.03224 0.51556 0.0
O71 O 0.67718 0.09215 0.50678 0.0
H72 H 0.76968 0.97882 0.55795 0.0
H73 H 0.74044 0.88077 0.58083 0.0
H74 H 0.74264 0.81883 0.47352 0.0
H75 H 0.77069 0.91623 0.45042 0.0
H76 H 0.53382 0.21323 0.41747 0.0
H77 H 0.57572 0.31597 0.44636 0.0
H78 H 0.60865 0.26093 0.54587 0.0
H79 H 0.5706 0.16097 0.51691 0.0
Ho80 Ho 0.68253 0.61089 0.85339 0.0
Ho81 Ho 0.55299 0.46132 0.85733 0.0
C82 C 0.46963 0.53058 0.86132 0.0
C83 C 0.76909 0.73525 0.83375 0.0
C84 C 0.74941 0.77507 0.82113 0.0
C85 C 0.74934 0.78386 0.78444 0.0
C86 C 0.73355 0.82288 0.77222 0.0
C87 C 0.71773 0.85446 0.79633 0.0
C88 C 0.71829 0.8461 0.83304 0.0
C89 C 0.73396 0.80692 0.8453 0.0
C90 C 0.65019 0.56257 0.91907 0.0
C91 C 0.76865 0.5444 0.858 0.0
C92 C 0.47349 0.33543 0.86864 0.0
C93 C 0.4899 0.29428 0.85223 0.0
C94 C 0.48174 0.24696 0.87224 0.0
C95 C 0.50004 0.2098 0.85667 0.0
C96 C 0.52648 0.21919 0.82076 0.0
C97 C 0.53504 0.2669 0.80096 0.0
C98 C 0.51765 0.30433 0.81654 0.0
C99 C 0.58663 0.50628 0.79006 0.0
O100 O 0.55124 0.58623 0.85099 0.0
O101 O 0.456 0.47533 0.86963 0.0
O102 O 0.75169 0.71681 0.86706 0.0
O103 O 0.74925 0.68685 0.81225 0.0
O104 O 0.72734 0.61567 0.9078 0.0
O105 O 0.59433 0.54029 0.89586 0.0
O106 O 0.68401 0.48572 0.86016 0.0
O107 O 0.78573 0.60229 0.85377 0.0
O108 O 0.44443 0.35282 0.8472 0.0
O109 O 0.53417 0.38644 0.88961 0.0
O110 O 0.51086 0.45365 0.80208 0.0
O111 O 0.64224 0.5312 0.81406 0.0
H112 H 0.76191 0.76077 0.76505 0.0
H113 H 0.73329 0.82806 0.74378 0.0
H114 H 0.70818 0.87089 0.85237 0.0
H115 H 0.73477 0.80218 0.87375 0.0
H116 H 0.46143 0.23888 0.89989 0.0
H117 H 0.49253 0.17316 0.87253 0.0
H118 H 0.55635 0.27592 0.77342 0.0
H119 H 0.52632 0.34148 0.80062 0.0
H120 H 0.55154 0.95389 0.2442 0.0
H121 H 0.79036 0.16511 0.24246 0.0
H122 H 0.66735 0.05322 0.14338 0.0
C123 C 0.6031 0.99903 0.22908 0.0
C124 C 0.60028 0.99503 0.19168 0.0
C125 C 0.67073 0.06007 0.24737 0.0
C126 C 0.73777 0.11835 0.22803 0.0
C127 C 0.73851 0.11782 0.19058 0.0
C128 C 0.66859 0.05518 0.17221 0.0
H129 H 0.68561 0.64721 0.64103 0.0
H130 H 0.64584 0.46788 0.62831 0.0
H131 H 0.68851 0.5783 0.53613 0.0
C132 C 0.6827 0.61234 0.62392 0.0
C133 C 0.68965 0.61978 0.58678 0.0
C134 C 0.66637 0.55746 0.63894 0.0
C135 C 0.65992 0.51106 0.61676 0.0
C136 C 0.66806 0.5185 0.57967 0.0
C137 C 0.68249 0.5727 0.56479 0.0
H138 H 1.02323 0.55087 0.93638 0.0
H139 H 0.21963 0.54581 0.93904 0.0
H140 H 0.11963 0.53553 0.83717 0.0
C141 C 1.06548 0.54839 0.92155 0.0
C142 C 1.06067 0.54423 0.88412 0.0
C143 C 0.12059 0.54773 0.94094 0.0
C144 C 0.17647 0.54385 0.92305 0.0
C145 C 0.1805 0.53887 0.88568 0.0
C146 C 0.12036 0.53932 0.86594 0.0
H147 H 1.07038 0.44533 0.37306 0.0
H148 H 0.28457 0.66414 0.3711 0.0
H149 H 0.15819 0.56516 0.47088 0.0
C150 C 0.11531 0.49443 0.38711 0.0
C151 C 1.10675 0.49685 0.42425 0.0
C152 C 0.17905 0.55423 0.36775 0.0
C153 C 0.23511 0.6179 0.38596 0.0
C154 C 0.22914 0.62331 0.423 0.0
C155 C 0.16419 0.56208 0.44234 0.0
H156 H 0.60955 0.11603 0.69227 0.0
H157 H 0.67401 0.99646 0.68319 0.0
H158 H 0.62769 0.04039 0.78671 0.0
C159 C 0.62164 0.0879 0.70506 0.0
C160 C 0.61655 0.08295 0.74246 0.0
C161 C 0.64246 0.05704 0.68369 0.0
C162 C 0.65982 1.02148 0.69984 0.0
C163 C 0.65459 1.01504 0.73712 0.0
C164 C 0.63283 0.04594 0.75813 0.0
H165 H 0.63092 0.55345 0.06846 0.0
H166 H 0.54942 0.35729 0.05384 0.0
H167 H 0.61218 0.45102 0.15881 0.0
C168 C 0.61487 0.50936 0.07989 0.0
C169 C 0.6238 0.50823 0.11651 0.0
C170 C 0.58783 0.45527 0.05741 0.0
C171 C 0.56626 0.39768 0.07153 0.0
C172 C 0.57314 0.39514 0.10839 0.0
C173 C 0.60174 0.45065 0.13069 0.0
C174 C 0.71398 0.68315 0.13397 0.0
C175 C 0.64281 0.66468 0.15291 0.0
C176 C 0.7176 0.63379 0.12664 0.0
C177 C 0.65182 0.56657 0.13923 0.0
H178 H 0.75521 0.72952 0.11856 0.0
H179 H 0.76348 0.64493 0.10672 0.0
S180 S 0.48583 0.50984 0.20737 0.0
N181 N 0.53193 0.58814 0.19746 0.0
N182 N 0.53721 0.49465 0.18317 0.0
C183 C 0.597 0.55539 0.16639 0.0
C184 C 0.59426 0.60599 0.17407 0.0
C185 C 0.97184 0.31212 0.45359 0.0
C186 C 0.88797 0.28629 0.45913 0.0
C187 C 1.04356 0.38153 0.44497 0.0
C188 C 1.0359 0.42932 0.44226 0.0
H189 H 0.98168 0.27772 0.45421 0.0
H190 H 1.10506 0.39732 0.43885 0.0
S191 S 0.83321 0.39084 0.45657 0.0
N192 N 0.80364 0.31669 0.46294 0.0
N193 N 0.93792 0.44607 0.44717 0.0
C194 C 0.95359 0.40518 0.44924 0.0
C195 C 0.88013 0.33429 0.4576 0.0
C196 C 0.75603 0.94495 0.75616 0.0
C197 C 0.70208 0.89669 0.7829 0.0
C198 C 0.7409 0.98344 0.742 0.0
C199 C 0.6707 0.97503 0.75372 0.0
H200 H 0.81084 0.95334 0.74617 0.0
H201 H 0.78485 1.02028 0.72169 0.0
S202 S 0.50774 0.8531 0.82218 0.0
N203 N 0.57516 0.84232 0.82035 0.0
N204 N 0.54481 0.9126 0.79296 0.0
C205 C 0.61617 0.92687 0.78046 0.0
C206 C 0.63232 0.88832 0.79521 0.0
C207 C 0.57506 0.31324 0.1828 0.0
C208 C 0.65639 0.33597 0.17582 0.0
C209 C 0.53372 0.31753 0.15656 0.0
C210 C 0.57408 0.34577 0.12326 0.0
H211 H 0.55033 0.3026 0.20986 0.0
H212 H 0.47872 0.31049 0.16439 0.0
S213 S 0.774 0.39405 0.08934 0.0
N214 N 0.7656 0.37336 0.13117 0.0
N215 N 0.6861 0.37863 0.08179 0.0
C216 C 0.64481 0.35401 0.11383 0.0
C217 C 0.68733 0.35045 0.14047 0.0
C218 C 0.43923 0.79487 0.46064 0.0
C219 C 0.43179 0.84179 0.45309 0.0
C220 C 0.37096 0.72328 0.45368 0.0
C221 C 0.29132 0.69482 0.43934 0.0
H222 H 0.49961 0.81376 0.47075 0.0
H223 H 0.38218 0.69038 0.45796 0.0
S224 S 0.23444 0.79263 0.41677 0.0
N225 N 0.33431 0.85198 0.43198 0.0
N226 N 0.20818 0.71903 0.41906 0.0
C227 C 0.28177 0.74051 0.43299 0.0
C228 C 0.35101 0.81321 0.43986 0.0
C229 C 0.50637 0.14534 0.7706 0.0
C230 C 0.54508 0.17973 0.80336 0.0
C231 C 0.5281 0.11285 0.75187 0.0
C232 C 0.59134 0.11469 0.76452 0.0
H233 H 0.45888 0.14372 0.75923 0.0
H234 H 0.49505 0.08632 0.72705 0.0
S235 S 0.71202 0.19847 0.84941 0.0
N236 N 0.64664 0.2112 0.84866 0.0
N237 N 0.69292 0.15514 0.81234 0.0
C238 C 0.62987 0.14839 0.79763 0.0
C239 C 0.60551 0.17965 0.81725 0.0
C240 C 0.77807 0.79679 0.57036 0.0
C241 C 0.72468 0.78436 0.54307 0.0
C242 C 0.7667 0.74337 0.58415 0.0
C243 C 0.70158 0.67559 0.57112 0.0
H244 H 0.82965 0.84838 0.5809 0.0
H245 H 0.8096 0.75525 0.60501 0.0
S246 S 0.5406 0.6152 0.50169 0.0
N247 N 0.6018 0.69891 0.50467 0.0
N248 N 0.58026 0.59832 0.53065 0.0
C249 C 0.64722 0.66232 0.54407 0.0
C250 C 0.65881 0.71674 0.53003 0.0
C251 C 0.93363 0.60438 0.86942 0.0
C252 C 0.84513 0.54469 0.86084 0.0
C253 C 1.00174 0.60446 0.87395 0.0
C254 C 0.99096 0.54559 0.86912 0.0
H255 H 0.95075 0.65241 0.87405 0.0
H256 H 1.06453 0.65224 0.88257 0.0
S257 S 0.77401 0.37393 0.84611 0.0
N258 N 0.75395 0.42324 0.84774 0.0
N259 N 0.87773 0.42393 0.85537 0.0
C260 C 0.90298 0.48572 0.86011 0.0
C261 C 0.83299 0.48528 0.8561 0.0
C262 C 0.45868 0.81117 0.15421 0.0
C263 C 0.3733 0.78074 0.16251 0.0
C264 C 0.532 0.88205 0.1606 0.0
C265 C 0.52366 0.92628 0.17519 0.0
H266 H 0.46964 0.77949 0.14411 0.0
H267 H 0.59598 0.90149 0.15594 0.0
S268 S 0.31599 0.87569 0.19872 0.0
N269 N 0.2862 0.80353 0.18392 0.0
N270 N 0.42272 0.93504 0.19574 0.0
C271 C 0.43879 0.89737 0.1819 0.0
C272 C 0.36429 0.82543 0.1756 0.0
C273 C 0.5705 0.37322 0.51244 0.0
C274 C 0.62189 0.35865 0.51623 0.0
C275 C 0.58768 0.42672 0.53219 0.0
C276 C 0.65642 0.46707 0.55652 0.0
H277 H 0.5147 0.34148 0.49511 0.0
H278 H 0.54506 0.43501 0.52938 0.0
S279 S 0.81724 0.4564 0.57272 0.0
N280 N 0.75024 0.39416 0.5433 0.0
N281 N 0.78063 0.49331 0.58108 0.0
C282 C 0.71043 0.45509 0.55946 0.0
C283 C 0.69367 0.40125 0.53913 0.0
C284 C 0.31328 0.481 0.88311 0.0
C285 C 0.39339 0.53105 0.86426 0.0
C286 C 0.24583 0.48215 0.88741 0.0
C287 C 0.24823 0.53211 0.87256 0.0
H288 H 0.30277 0.4404 0.89594 0.0
H289 H 0.1904 0.44292 0.90378 0.0
S290 S 0.44041 0.67568 0.81915 0.0
N291 N 0.46719 0.63332 0.82972 0.0
N292 N 0.34413 0.63452 0.83716 0.0
C293 C 0.32733 0.58188 0.85298 0.0
C294 C 0.39711 0.58142 0.84902 0.0
C295 C 0.96723 0.29457 0.17629 0.0
C296 C 0.95337 0.32915 0.156 0.0
C297 C 0.89882 0.22463 0.1847 0.0
C298 C 0.81294 0.18525 0.17298 0.0
H299 H 1.03062 0.32274 0.18741 0.0
H300 H 0.91252 0.20194 0.20212 0.0
S301 S 0.74537 0.24771 0.11351 0.0
N302 N 0.84919 0.31607 0.12059 0.0
N303 N 0.72142 0.18508 0.13623 0.0
C304 C 0.79982 0.21793 0.15042 0.0
C305 C 0.86945 0.28959 0.14216 0.0
C306 C 0.11908 0.60227 0.03673 0.0
C307 C 0.11468 0.55779 0.05788 0.0
C308 C 0.12134 0.59894 -0.0008 0.0
C309 C 0.1192 0.5509 0.98107 0.0
H310 H 0.12102 0.6402 0.04925 0.0
H311 H 0.12549 0.63478 0.98424 0.0
S312 S 1.10374 0.42059 0.024 0.0
N313 N 1.1067 0.46324 0.05771 0.0
N314 N 1.10898 0.456 0.98765 0.0
C315 C 0.11417 0.50582 0.002 0.0
C316 C 1.11234 0.50946 0.04016 0.0
C317 C 0.6683 1.01514 0.34251 0.0
C318 C 0.68776 0.06935 0.36249 0.0
C319 C 0.66099 1.01171 0.30533 0.0
C320 C 0.67308 0.06252 0.28697 0.0
H321 H 0.66025 0.97587 0.35567 0.0
H322 H 0.64809 0.97 0.29078 0.0
S323 S 0.71939 0.21243 0.32815 0.0
N324 N 0.7158 0.17321 0.36212 0.0
N325 N 0.70032 0.16649 0.29225 0.0
C326 C 0.69035 0.11606 0.30704 0.0
C327 C 0.69812 0.11953 0.34484 0.0
C328 C 0.69033 0.57749 0.73967 0.0
C329 C 0.60646 0.51957 0.75152 0.0
C330 C 0.70973 0.59006 0.70312 0.0
C331 C 0.64639 0.54421 0.67736 0.0
H332 H 0.74124 0.61333 0.75869 0.0
H333 H 0.77475 0.63539 0.69492 0.0
S334 S 0.41749 0.38554 0.69401 0.0
N335 N 0.45944 0.41658 0.73411 0.0
N336 N 0.49715 0.43967 0.66576 0.0
C337 C 0.56276 0.48623 0.68875 0.0
C338 C 0.54247 0.47401 0.72576 0.0
C339 C 0.55402 0.0247 0.59089 0.0
C340 C 0.62701 0.05737 0.56854 0.0
C341 C 0.56007 0.02526 0.62797 0.0
C342 C 0.639 0.05746 0.64428 0.0
H343 H 0.4914 0.99877 0.57971 0.0
H344 H 0.50226 0.99982 0.64406 0.0
S345 S 0.84968 0.15093 0.59846 0.0
N346 N 0.78153 0.12436 0.56588 0.0
N347 N 0.79189 0.12294 0.63566 0.0
C348 C 0.71242 0.08971 0.62247 0.0
C349 C 0.7067 0.09033 0.5846 0.0
C350 C 0.54932 0.4885 0.96854 0.0
C351 C 0.63103 0.52699 0.95221 0.0
C352 C 0.5321 0.45929 0.00181 0.0
C353 C 0.59522 0.46604 0.01898 0.0
H354 H 0.50009 0.48405 0.95644 0.0
H355 H 0.47109 0.43464 0.01505 0.0
S356 S 0.81448 0.5533 0.98508 0.0
N357 N 0.77247 0.56469 0.95399 0.0
N358 N 0.73907 0.50831 0.0163 0.0
C359 C 0.67471 0.50008 0.00178 0.0
C360 C 0.69296 0.53103 0.96834 0.0
C361 C 0.20181 0.59531 0.26938 0.0
C362 C 0.20123 0.54769 0.25216 0.0
C363 C 0.1944 0.59686 0.3066 0.0
C364 C 0.18623 0.55092 0.32819 0.0
H365 H 0.2081 0.63184 0.25401 0.0
H366 H 0.1943 0.63405 0.31853 0.0
S367 S 0.18381 0.41744 0.29629 0.0
N368 N 0.19266 0.45382 0.25956 0.0
N369 N 0.18052 0.45761 0.32946 0.0
C370 C 0.18608 0.50327 0.31129 0.0
C371 C 0.19338 0.50158 0.27335 0.0
loop_
_geom_bond_atom_site_label_1
_geom_bond_atom_site_label_2
_geom_bond_distance
_geom_bond_site_symmetry_2
_ccdc_geom_bond_type
Ho0 C3 2.811 . S
Ho0 O20 2.322 . S
Ho0 O22 2.378 . S
Ho0 O23 2.524 . S
Ho0 O24 2.381 . S
Ho0 O25 2.669 . S
Ho0 O27 2.346 1_455 S
Ho0 O31 2.305 . S
Ho1 C12 2.811 . S
Ho1 O21 2.346 1_655 S
Ho1 O25 2.305 1_655 S
Ho1 O26 2.322 . S
Ho1 O28 2.378 . S
Ho1 O29 2.524 . S
Ho1 O30 2.381 . S
Ho1 O31 2.669 1_655 S
C2 O20 1.259 . S
C2 O21 1.268 . S
C3 Ho0 2.811 . S
C3 C4 1.488 . S
C3 O22 1.215 . S
C3 O23 1.289 . S
C4 C3 1.488 . S
C4 C5 1.348 . S
C4 C9 1.413 . S
C5 C4 1.348 . S
C5 C6 1.442 . S
C5 H32 0.930 . S
C6 C5 1.442 . S
C6 C7 1.381 . S
C6 H33 0.931 . S
C7 C6 1.381 . S
C7 C8 1.321 . S
C8 C7 1.321 . S
C8 C9 1.403 . S
C8 H34 0.934 . S
C9 C4 1.413 . S
C9 C8 1.403 . S
C9 H35 0.930 . S
C10 O24 1.275 . S
C10 O25 1.256 . S
C11 O26 1.259 . S
C11 O27 1.268 . S
C12 Ho1 2.811 . S
C12 C13 1.488 . S
C12 O28 1.215 . S
C12 O29 1.289 . S
C13 C12 1.488 . S
C13 C14 1.348 . S
C13 C18 1.413 . S
C14 C13 1.348 . S
C14 C15 1.442 . S
C14 H36 0.930 . S
C15 C14 1.442 . S
C15 C16 1.381 . S
C15 H37 0.931 . S
C16 C15 1.381 . S
C16 C17 1.321 . S
C17 C16 1.321 . S
C17 C18 1.403 . S
C17 H38 0.934 . S
C18 C13 1.413 . S
C18 C17 1.403 . S
C18 H39 0.930 . S
C19 O30 1.275 1_455 S
C19 O31 1.256 . S
O20 Ho0 2.322 . S
O20 C2 1.259 . S
O21 Ho1 2.346 1_455 S
O21 C2 1.268 . S
O22 Ho0 2.378 . S
O22 C3 1.215 . S
O23 Ho0 2.524 . S
O23 C3 1.289 . S
O24 Ho0 2.381 . S
O24 C10 1.275 . S
O25 Ho0 2.669 . S
O25 Ho1 2.305 1_455 S
O25 C10 1.256 . S
O26 Ho1 2.322 . S
O26 C11 1.259 . S
O27 Ho0 2.346 1_655 S
O27 C11 1.268 . S
O28 Ho1 2.378 . S
O28 C12 1.215 . S
O29 Ho1 2.524 . S
O29 C12 1.289 . S
O30 Ho1 2.381 . S
O30 C19 1.275 1_655 S
O31 Ho0 2.305 . S
O31 Ho1 2.669 1_455 S
O31 C19 1.256 . S
H32 C5 0.930 . S
H33 C6 0.931 . S
H34 C8 0.934 . S
H35 C9 0.930 . S
H36 C14 0.930 . S
H37 C15 0.931 . S
H38 C17 0.934 . S
H39 C18 0.930 . S
Ho40 C43 2.811 . S
Ho40 O60 2.322 . S
Ho40 O62 2.378 . S
Ho40 O63 2.524 . S
Ho40 O64 2.381 . S
Ho40 O65 2.669 1_565 S
Ho40 O67 2.346 1_565 S
Ho40 O71 2.305 . S
Ho41 C52 2.811 . S
Ho41 O61 2.346 1_545 S
Ho41 O65 2.305 . S
Ho41 O66 2.322 . S
Ho41 O68 2.378 . S
Ho41 O69 2.524 . S
Ho41 O70 2.381 . S
Ho41 O71 2.669 1_545 S
C42 O60 1.259 . S
C42 O61 1.268 . S
C43 Ho40 2.811 . S
C43 C44 1.488 . S
C43 O62 1.215 . S
C43 O63 1.289 . S
C44 C43 1.488 . S
C44 C45 1.348 . S
C44 C49 1.413 . S
C45 C44 1.348 . S
C45 C46 1.442 . S
C45 H72 0.930 . S
C46 C45 1.442 . S
C46 C47 1.381 . S
C46 H73 0.931 . S
C47 C46 1.381 . S
C47 C48 1.321 . S
C48 C47 1.321 . S
C48 C49 1.403 . S
C48 H74 0.934 . S
C49 C44 1.413 . S
C49 C48 1.403 . S
C49 H75 0.930 . S
C50 O64 1.275 1_545 S
C50 O65 1.256 . S
C51 O66 1.259 . S
C51 O67 1.268 . S
C52 Ho41 2.811 . S
C52 C53 1.488 . S
C52 O68 1.215 . S
C52 O69 1.289 . S
C53 C52 1.488 . S
C53 C54 1.348 . S
C53 C58 1.413 . S
C54 C53 1.348 . S
C54 C55 1.442 . S
C54 H76 0.930 . S
C55 C54 1.442 . S
C55 C56 1.381 . S
C55 H77 0.931 . S
C56 C55 1.381 . S
C56 C57 1.321 . S
C57 C56 1.321 . S
C57 C58 1.403 . S
C57 H78 0.934 . S
C58 C53 1.413 . S
C58 C57 1.403 . S
C58 H79 0.930 . S
C59 O70 1.275 . S
C59 O71 1.256 1_545 S
O60 Ho40 2.322 . S
O60 C42 1.259 . S
O61 Ho41 2.346 1_565 S
O61 C42 1.268 . S
O62 Ho40 2.378 . S
O62 C43 1.215 . S
O63 Ho40 2.524 . S
O63 C43 1.289 . S
O64 Ho40 2.381 . S
O64 C50 1.275 1_565 S
O65 Ho40 2.669 1_545 S
O65 Ho41 2.305 . S
O65 C50 1.256 . S
O66 Ho41 2.322 . S
O66 C51 1.259 . S
O67 Ho40 2.346 1_545 S
O67 C51 1.268 . S
O68 Ho41 2.378 . S
O68 C52 1.215 . S
O69 Ho41 2.524 . S
O69 C52 1.289 . S
O70 Ho41 2.381 . S
O70 C59 1.275 . S
O71 Ho40 2.305 . S
O71 Ho41 2.669 1_565 S
O71 C59 1.256 1_565 S
H72 C45 0.930 . S
H73 C46 0.931 . S
H74 C48 0.934 . S
H75 C49 0.930 . S
H76 C54 0.930 . S
H77 C55 0.931 . S
H78 C57 0.934 . S
H79 C58 0.930 . S
Ho80 C83 2.811 . S
Ho80 O100 2.322 . S
Ho80 O102 2.378 . S
Ho80 O103 2.524 . S
Ho80 O104 2.381 . S
Ho80 O105 2.669 . S
Ho80 O107 2.346 . S
Ho80 O111 2.305 . S
Ho81 C92 2.811 . S
Ho81 O101 2.346 . S
Ho81 O105 2.305 . S
Ho81 O106 2.322 . S
Ho81 O108 2.378 . S
Ho81 O109 2.524 . S
Ho81 O110 2.381 . S
Ho81 O111 2.669 . S
C82 O100 1.259 . S
C82 O101 1.268 . S
C83 Ho80 2.811 . S
C83 C84 1.488 . S
C83 O102 1.215 . S
C83 O103 1.289 . S
C84 C83 1.488 . S
C84 C85 1.348 . S
C84 C89 1.413 . S
C85 C84 1.348 . S
C85 C86 1.442 . S
C85 H112 0.930 . S
C86 C85 1.442 . S
C86 C87 1.381 . S
C86 H113 0.931 . S
C87 C86 1.381 . S
C87 C88 1.321 . S
C88 C87 1.321 . S
C88 C89 1.403 . S
C88 H114 0.934 . S
C89 C84 1.413 . S
C89 C88 1.403 . S
C89 H115 0.930 . S
C90 O104 1.275 . S
C90 O105 1.256 . S
C91 O106 1.259 . S
C91 O107 1.268 . S
C92 Ho81 2.811 . S
C92 C93 1.488 . S
C92 O108 1.215 . S
C92 O109 1.289 . S
C93 C92 1.488 . S
C93 C94 1.348 . S
C93 C98 1.413 . S
C94 C93 1.348 . S
C94 C95 1.442 . S
C94 H116 0.930 . S
C95 C94 1.442 . S
C95 C96 1.381 . S
C95 H117 0.931 . S
C96 C95 1.381 . S
C96 C97 1.321 . S
C97 C96 1.321 . S
C97 C98 1.403 . S
C97 H118 0.934 . S
C98 C93 1.413 . S
C98 C97 1.403 . S
C98 H119 0.930 . S
C99 O110 1.275 . S
C99 O111 1.256 . S
O100 Ho80 2.322 . S
O100 C82 1.259 . S
O101 Ho81 2.346 . S
O101 C82 1.268 . S
O102 Ho80 2.378 . S
O102 C83 1.215 . S
O103 Ho80 2.524 . S
O103 C83 1.289 . S
O104 Ho80 2.381 . S
O104 C90 1.275 . S
O105 Ho80 2.669 . S
O105 Ho81 2.305 . S
O105 C90 1.256 . S
O106 Ho81 2.322 . S
O106 C91 1.259 . S
O107 Ho80 2.346 . S
O107 C91 1.268 . S
O108 Ho81 2.378 . S
O108 C92 1.215 . S
O109 Ho81 2.524 . S
O109 C92 1.289 . S
O110 Ho81 2.381 . S
O110 C99 1.275 . S
O111 Ho80 2.305 . S
O111 Ho81 2.669 . S
O111 C99 1.256 . S
H112 C85 0.930 . S
H113 C86 0.931 . S
H114 C88 0.934 . S
H115 C89 0.930 . S
H116 C94 0.930 . S
H117 C95 0.931 . S
H118 C97 0.934 . S
H119 C98 0.930 . S
H120 C123 0.931 . S
H121 C126 0.928 . S
H122 C128 0.930 . S
C123 H120 0.931 . S
C123 C124 1.413 . S
C123 C125 1.360 1_565 S
C124 C123 1.413 . S
C124 C128 1.429 1_565 S
C125 C123 1.360 1_545 S
C125 C126 1.372 . S
C126 H121 0.928 . S
C126 C125 1.372 . S
C126 C127 1.404 . S
C127 C126 1.404 . S
C127 C128 1.391 . S
C128 H122 0.930 . S
C128 C124 1.429 1_545 S
C128 C127 1.391 . S
H129 C132 0.931 . S
H130 C135 0.928 . S
H131 C137 0.930 . S
C132 H129 0.931 . S
C132 C133 1.413 . S
C132 C134 1.360 . S
C133 C132 1.413 . S
C133 C137 1.429 . S
C134 C132 1.360 . S
C134 C135 1.372 . S
C135 H130 0.928 . S
C135 C134 1.372 . S
C135 C136 1.404 . S
C136 C135 1.404 . S
C136 C137 1.391 . S
C137 H131 0.930 . S
C137 C133 1.429 . S
C137 C136 1.391 . S
H138 C141 0.931 1_655 S
H139 C144 0.928 . S
H140 C146 0.930 . S
C141 H138 0.931 1_455 S
C141 C142 1.413 . S
C141 C143 1.360 . S
C142 C141 1.413 . S
C142 C146 1.429 . S
C143 C141 1.360 . S
C143 C144 1.372 . S
C144 H139 0.928 . S
C144 C143 1.372 . S
C144 C145 1.404 . S
C145 C144 1.404 . S
C145 C146 1.391 . S
C146 H140 0.930 . S
C146 C142 1.429 . S
C146 C145 1.391 . S
H147 C150 0.931 . S
H148 C153 0.928 . S
H149 C155 0.932 . S
C150 H147 0.931 . S
C150 C151 1.413 . S
C150 C152 1.357 1_655 S
C151 C150 1.413 . S
C151 C155 1.429 1_655 S
C152 C150 1.357 1_455 S
C152 C153 1.375 . S
C153 H148 0.928 . S
C153 C152 1.375 . S
C153 C154 1.404 . S
C154 C153 1.404 . S
C154 C155 1.391 . S
C155 H149 0.932 . S
C155 C151 1.429 1_455 S
C155 C154 1.391 . S
H156 C159 0.931 . S
H157 C162 0.928 . S
H158 C164 0.930 . S
C159 H156 0.931 . S
C159 C160 1.413 . S
C159 C161 1.360 1_545 S
C160 C159 1.413 . S
C160 C164 1.429 . S
C161 C159 1.360 1_565 S
C161 C162 1.372 . S
C162 H157 0.928 . S
C162 C161 1.372 . S
C162 C163 1.404 . S
C163 C162 1.404 . S
C163 C164 1.391 1_565 S
C164 H158 0.930 . S
C164 C160 1.429 . S
C164 C163 1.391 1_545 S
H165 C168 0.931 . S
H166 C171 0.928 . S
H167 C173 0.930 . S
C168 H165 0.931 . S
C168 C169 1.413 . S
C168 C170 1.360 . S
C169 C168 1.413 . S
C169 C173 1.429 . S
C170 C168 1.360 . S
C170 C171 1.372 . S
C171 H166 0.928 . S
C171 C170 1.372 . S
C171 C172 1.404 . S
C172 C171 1.404 . S
C172 C173 1.391 . S
C173 H167 0.930 . S
C173 C169 1.429 . S
C173 C172 1.391 . S
C174 C175 1.369 . S
C174 C176 1.419 . S
C174 H178 0.930 . S
C175 C174 1.369 . S
C175 C184 1.429 . S
C176 C174 1.419 . S
C176 C177 1.363 . S
C176 H179 0.929 . S
C177 C176 1.363 . S
C177 C183 1.428 . S
H178 C174 0.930 . S
H179 C176 0.929 . S
S180 N181 1.613 . S
S180 N182 1.610 . S
N181 S180 1.613 . S
N181 C184 1.350 . S
N182 S180 1.610 . S
N182 C183 1.351 . S
C183 C177 1.428 . S
C183 N182 1.351 . S
C183 C184 1.434 . S
C184 C175 1.429 . S
C184 N181 1.350 . S
C184 C183 1.434 . S
C185 C186 1.369 . S
C185 C187 1.419 . S
C185 H189 0.930 . S
C186 C185 1.369 . S
C186 C195 1.429 . S
C187 C185 1.419 . S
C187 C188 1.363 . S
C187 H190 0.929 . S
C188 C187 1.363 . S
C188 C194 1.428 . S
H189 C185 0.930 . S
H190 C187 0.929 . S
S191 N192 1.613 . S
S191 N193 1.610 . S
N192 S191 1.613 . S
N192 C195 1.350 . S
N193 S191 1.610 . S
N193 C194 1.351 . S
C194 C188 1.428 . S
C194 N193 1.351 . S
C194 C195 1.434 . S
C195 C186 1.429 . S
C195 N192 1.350 . S
C195 C194 1.434 . S
C196 C197 1.369 . S
C196 C198 1.419 . S
C196 H200 0.930 . S
C197 C196 1.369 . S
C197 C206 1.429 . S
C198 C196 1.419 . S
C198 C199 1.363 . S
C198 H201 0.929 . S
C199 C198 1.363 . S
C199 C205 1.428 . S
H200 C196 0.930 . S
H201 C198 0.929 . S
S202 N203 1.613 . S
S202 N204 1.610 . S
N203 S202 1.613 . S
N203 C206 1.350 . S
N204 S202 1.610 . S
N204 C205 1.351 . S
C205 C199 1.428 . S
C205 N204 1.351 . S
C205 C206 1.434 . S
C206 C197 1.429 . S
C206 N203 1.350 . S
C206 C205 1.434 . S
C207 C208 1.369 . S
C207 C209 1.419 . S
C207 H211 0.930 . S
C208 C207 1.369 . S
C208 C217 1.429 . S
C209 C207 1.419 . S
C209 C210 1.363 . S
C209 H212 0.929 . S
C210 C209 1.363 . S
C210 C216 1.428 . S
H211 C207 0.930 . S
H212 C209 0.929 . S
S213 N214 1.613 . S
S213 N215 1.610 . S
N214 S213 1.613 . S
N214 C217 1.350 . S
N215 S213 1.610 . S
N215 C216 1.351 . S
C216 C210 1.428 . S
C216 N215 1.351 . S
C216 C217 1.434 . S
C217 C208 1.429 . S
C217 N214 1.350 . S
C217 C216 1.434 . S
C218 C219 1.369 . S
C218 C220 1.419 . S
C218 H222 0.930 . S
C219 C218 1.369 . S
C219 C228 1.429 . S
C220 C218 1.419 . S
C220 C221 1.363 . S
C220 H223 0.929 . S
C221 C220 1.363 . S
C221 C227 1.428 . S
H222 C218 0.930 . S
H223 C220 0.929 . S
S224 N225 1.613 . S
S224 N226 1.610 . S
N225 S224 1.613 . S
N225 C228 1.350 . S
N226 S224 1.610 . S
N226 C227 1.351 . S
C227 C221 1.428 . S
C227 N226 1.351 . S
C227 C228 1.434 . S
C228 C219 1.429 . S
C228 N225 1.350 . S
C228 C227 1.434 . S
C229 C230 1.369 . S
C229 C231 1.419 . S
C229 H233 0.930 . S
C230 C229 1.369 . S
C230 C239 1.429 . S
C231 C229 1.419 . S
C231 C232 1.363 . S
C231 H234 0.929 . S
C232 C231 1.363 . S
C232 C238 1.428 . S
H233 C229 0.930 . S
H234 C231 0.929 . S
S235 N236 1.613 . S
S235 N237 1.610 . S
N236 S235 1.613 . S
N236 C239 1.350 . S
N237 S235 1.610 . S
N237 C238 1.351 . S
C238 C232 1.428 . S
C238 N237 1.351 . S
C238 C239 1.434 . S
C239 C230 1.429 . S
C239 N236 1.350 . S
C239 C238 1.434 . S
C240 C241 1.369 . S
C240 C242 1.419 . S
C240 H244 0.930 . S
C241 C240 1.369 . S
C241 C250 1.429 . S
C242 C240 1.419 . S
C242 C243 1.363 . S
C242 H245 0.929 . S
C243 C242 1.363 . S
C243 C249 1.428 . S
H244 C240 0.930 . S
H245 C242 0.929 . S
S246 N247 1.613 . S
S246 N248 1.610 . S
N247 S246 1.613 . S
N247 C250 1.350 . S
N248 S246 1.610 . S
N248 C249 1.351 . S
C249 C243 1.428 . S
C249 N248 1.351 . S
C249 C250 1.434 . S
C250 C241 1.429 . S
C250 N247 1.350 . S
C250 C249 1.434 . S
C251 C252 1.369 . S
C251 C253 1.419 . S
C251 H255 0.930 . S
C252 C251 1.369 . S
C252 C261 1.429 . S
C253 C251 1.419 . S
C253 C254 1.363 . S
C253 H256 0.929 . S
C254 C253 1.363 . S
C254 C260 1.428 . S
H255 C251 0.930 . S
H256 C253 0.929 . S
S257 N258 1.613 . S
S257 N259 1.610 . S
N258 S257 1.613 . S
N258 C261 1.350 . S
N259 S257 1.610 . S
N259 C260 1.351 . S
C260 C254 1.428 . S
C260 N259 1.351 . S
C260 C261 1.434 . S
C261 C252 1.429 . S
C261 N258 1.350 . S
C261 C260 1.434 . S
C262 C263 1.369 . S
C262 C264 1.419 . S
C262 H266 0.930 . S
C263 C262 1.369 . S
C263 C272 1.429 . S
C264 C262 1.419 . S
C264 C265 1.363 . S
C264 H267 0.929 . S
C265 C264 1.363 . S
C265 C271 1.428 . S
H266 C262 0.930 . S
H267 C264 0.929 . S
S268 N269 1.613 . S
S268 N270 1.610 . S
N269 S268 1.613 . S
N269 C272 1.350 . S
N270 S268 1.610 . S
N270 C271 1.351 . S
C271 C265 1.428 . S
C271 N270 1.351 . S
C271 C272 1.434 . S
C272 C263 1.429 . S
C272 N269 1.350 . S
C272 C271 1.434 . S
C273 C274 1.369 . S
C273 C275 1.419 . S
C273 H277 0.930 . S
C274 C273 1.369 . S
C274 C283 1.429 . S
C275 C273 1.419 . S
C275 C276 1.363 . S
C275 H278 0.929 . S
C276 C275 1.363 . S
C276 C282 1.428 . S
H277 C273 0.930 . S
H278 C275 0.929 . S
S279 N280 1.613 . S
S279 N281 1.610 . S
N280 S279 1.613 . S
N280 C283 1.350 . S
N281 S279 1.610 . S
N281 C282 1.351 . S
C282 C276 1.428 . S
C282 N281 1.351 . S
C282 C283 1.434 . S
C283 C274 1.429 . S
C283 N280 1.350 . S
C283 C282 1.434 . S
C284 C285 1.369 . S
C284 C286 1.419 . S
C284 H288 0.930 . S
C285 C284 1.369 . S
C285 C294 1.429 . S
C286 C284 1.419 . S
C286 C287 1.363 . S
C286 H289 0.929 . S
C287 C286 1.363 . S
C287 C293 1.428 . S
H288 C284 0.930 . S
H289 C286 0.929 . S
S290 N291 1.613 . S
S290 N292 1.610 . S
N291 S290 1.613 . S
N291 C294 1.350 . S
N292 S290 1.610 . S
N292 C293 1.351 . S
C293 C287 1.428 . S
C293 N292 1.351 . S
C293 C294 1.434 . S
C294 C285 1.429 . S
C294 N291 1.350 . S
C294 C293 1.434 . S
C295 C296 1.369 . S
C295 C297 1.419 . S
C295 H299 0.930 . S
C296 C295 1.369 . S
C296 C305 1.429 . S
C297 C295 1.419 . S
C297 C298 1.363 . S
C297 H300 0.929 . S
C298 C297 1.363 . S
C298 C304 1.428 . S
H299 C295 0.930 . S
H300 C297 0.929 . S
S301 N302 1.613 . S
S301 N303 1.610 . S
N302 S301 1.613 . S
N302 C305 1.350 . S
N303 S301 1.610 . S
N303 C304 1.351 . S
C304 C298 1.428 . S
C304 N303 1.351 . S
C304 C305 1.434 . S
C305 C296 1.429 . S
C305 N302 1.350 . S
C305 C304 1.434 . S
C306 C307 1.369 . S
C306 C308 1.419 . S
C306 H310 0.930 . S
C307 C306 1.369 . S
C307 C316 1.429 . S
C308 C306 1.419 . S
C308 C309 1.363 1_554 S
C308 H311 0.929 . S
C309 C308 1.363 1_556 S
C309 C315 1.428 1_556 S
H310 C306 0.930 . S
H311 C308 0.929 . S
S312 N313 1.613 . S
S312 N314 1.610 1_554 S
N313 S312 1.613 . S
N313 C316 1.350 1_655 S
N314 S312 1.610 1_556 S
N314 C315 1.351 1_656 S
C315 C309 1.428 1_554 S
C315 N314 1.351 1_454 S
C315 C316 1.434 . S
C316 C307 1.429 . S
C316 N313 1.350 1_455 S
C316 C315 1.434 . S
C317 C318 1.369 1_565 S
C317 C319 1.419 . S
C317 H321 0.930 . S
C318 C317 1.369 1_545 S
C318 C327 1.429 . S
C319 C317 1.419 . S
C319 C320 1.363 1_565 S
C319 H322 0.929 . S
C320 C319 1.363 1_545 S
C320 C326 1.428 . S
H321 C317 0.930 . S
H322 C319 0.929 . S
S323 N324 1.613 . S
S323 N325 1.610 . S
N324 S323 1.613 . S
N324 C327 1.350 . S
N325 S323 1.610 . S
N325 C326 1.351 . S
C326 C320 1.428 . S
C326 N325 1.351 . S
C326 C327 1.434 . S
C327 C318 1.429 . S
C327 N324 1.350 . S
C327 C326 1.434 . S
C328 C329 1.369 . S
C328 C330 1.419 . S
C328 H332 0.930 . S
C329 C328 1.369 . S
C329 C338 1.429 . S
C330 C328 1.419 . S
C330 C331 1.363 . S
C330 H333 0.929 . S
C331 C330 1.363 . S
C331 C337 1.428 . S
H332 C328 0.930 . S
H333 C330 0.929 . S
S334 N335 1.613 . S
S334 N336 1.610 . S
N335 S334 1.613 . S
N335 C338 1.350 . S
N336 S334 1.610 . S
N336 C337 1.351 . S
C337 C331 1.428 . S
C337 N336 1.351 . S
C337 C338 1.434 . S
C338 C329 1.429 . S
C338 N335 1.350 . S
C338 C337 1.434 . S
C339 C340 1.369 1_565 S
C339 C341 1.419 . S
C339 H343 0.930 . S
C340 C339 1.369 1_545 S
C340 C349 1.429 . S
C341 C339 1.419 . S
C341 C342 1.363 . S
C341 H344 0.929 . S
C342 C341 1.363 . S
C342 C348 1.428 1_565 S
H343 C339 0.930 . S
H344 C341 0.929 . S
S345 N346 1.613 . S
S345 N347 1.610 . S
N346 S345 1.613 . S
N346 C349 1.350 . S
N347 S345 1.610 . S
N347 C348 1.351 . S
C348 C342 1.428 1_545 S
C348 N347 1.351 . S
C348 C349 1.434 . S
C349 C340 1.429 . S
C349 N346 1.350 . S
C349 C348 1.434 . S
C350 C351 1.369 . S
C350 C352 1.419 . S
C350 H354 0.930 . S
C351 C350 1.369 . S
C351 C360 1.429 . S
C352 C350 1.419 . S
C352 C353 1.363 1_556 S
C352 H355 0.929 1_556 S
C353 C352 1.363 1_554 S
C353 C359 1.428 1_554 S
H354 C350 0.930 . S
H355 C352 0.929 1_554 S
S356 N357 1.613 . S
S356 N358 1.610 . S
N357 S356 1.613 . S
N357 C360 1.350 . S
N358 S356 1.610 . S
N358 C359 1.351 . S
C359 C353 1.428 1_556 S
C359 N358 1.351 . S
C359 C360 1.434 . S
C360 C351 1.429 . S
C360 N357 1.350 . S
C360 C359 1.434 . S
C361 C362 1.369 1_655 S
C361 C363 1.419 . S
C361 H365 0.930 . S
C362 C361 1.369 1_455 S
C362 C371 1.429 . S
C363 C361 1.419 . S
C363 C364 1.363 1_655 S
C363 H366 0.929 . S
C364 C363 1.363 1_455 S
C364 C370 1.428 . S
H365 C361 0.930 . S
H366 C363 0.929 . S
S367 N368 1.613 . S
S367 N369 1.610 . S
N368 S367 1.613 . S
N368 C371 1.350 . S
N369 S367 1.610 . S
N369 C370 1.351 . S
C370 C364 1.428 . S
C370 N369 1.351 . S
C370 C371 1.434 . S
C371 C362 1.429 . S
C371 N368 1.350 . S
C371 C370 1.434 . S
C175 C7 1.229 . S
C177 C169 1.396 . S
C186 C51 1.878 . S
C188 C151 1.850 . S
C197 C87 1.630 . S
C199 C163 1.760 . S
C208 C16 0.944 . S
C210 C172 1.114 . S
C221 C154 1.867 . S
C219 C42 1.896 . S
C232 C160 1.585 . S
C230 C96 1.489 . S
C241 C47 1.471 . S
C243 C133 1.554 . S
C252 C91 3.045 . S
C254 C142 3.008 1_655 S
C263 C2 1.934 . S
C265 C124 1.947 . S
C276 C136 1.646 . S
C274 C56 1.509 . S
C287 C145 2.988 . S
C285 C82 2.980 . S
C296 C11 1.879 . S
C298 C127 1.871 . S
C309 C143 1.810 . S
C307 C19 1.751 . S
C318 C50 1.300 . S
C320 C125 1.339 . S
C329 C99 1.434 . S
C331 C134 1.497 . S
C342 C161 1.462 . S
C340 C59 1.420 . S
C353 C170 1.005 . S
C351 C90 1.011 . S
C362 C10 1.278 . S
C364 C152 1.313 . S
