# Generated by pormake.
# Topology anh, (6,3)-cn, num edge types: 1
# Building blocks:
#     Node 0, Type 0, BuildingBlock: GEDQOX_clean_sbu_0, # of connection points: 6
#     Node 1, Type 0, BuildingBlock: GEDQOX_clean_sbu_0, # of connection points: 6
#     Node 2, Type 0, BuildingBlock: GEDQOX_clean_sbu_0, # of connection points: 6
#     Node 3, Type 1, BuildingBlock: BETDIP_clean_linker_0, # of connection points: 3
#     Node 4, Type 1, BuildingBlock: BETDIP_clean_linker_0, # of connection points: 3
#     Node 5, Type 1, BuildingBlock: BETDIP_clean_linker_0, # of connection points: 3
#     Node 6, Type 1, BuildingBlock: BETDIP_clean_linker_0, # of connection points: 3
#     Node 7, Type 1, BuildingBlock: BETDIP_clean_linker_0, # of connection points: 3
#     Node 8, Type 1, BuildingBlock: BETDIP_clean_linker_0, # of connection points: 3
#     Edge 9, Type (0, 1), BuildingBlock: UVAHIK_clean_linker_0, # of connection points: 2
#     Edge 10, Type (0, 1), BuildingBlock: UVAHIK_clean_linker_0, # of connection points: 2
#     Edge 11, Type (0, 1), BuildingBlock: UVAHIK_clean_linker_0, # of connection points: 2
#     Edge 12, Type (0, 1), BuildingBlock: UVAHIK_clean_linker_0, # of connection points: 2
#     Edge 13, Type (0, 1), BuildingBlock: UVAHIK_clean_linker_0, # of connection points: 2
#     Edge 14, Type (0, 1), BuildingBlock: UVAHIK_clean_linker_0, # of connection points: 2
#     Edge 15, Type (0, 1), BuildingBlock: UVAHIK_clean_linker_0, # of connection points: 2
#     Edge 16, Type (0, 1), BuildingBlock: UVAHIK_clean_linker_0, # of connection points: 2
#     Edge 17, Type (0, 1), BuildingBlock: UVAHIK_clean_linker_0, # of connection points: 2
#     Edge 18, Type (0, 1), BuildingBlock: UVAHIK_clean_linker_0, # of connection points: 2
#     Edge 19, Type (0, 1), BuildingBlock: UVAHIK_clean_linker_0, # of connection points: 2
#     Edge 20, Type (0, 1), BuildingBlock: UVAHIK_clean_linker_0, # of connection points: 2
#     Edge 21, Type (0, 1), BuildingBlock: UVAHIK_clean_linker_0, # of connection points: 2
#     Edge 22, Type (0, 1), BuildingBlock: UVAHIK_clean_linker_0, # of connection points: 2
#     Edge 23, Type (0, 1), BuildingBlock: UVAHIK_clean_linker_0, # of connection points: 2
#     Edge 24, Type (0, 1), BuildingBlock: UVAHIK_clean_linker_0, # of connection points: 2
#     Edge 25, Type (0, 1), BuildingBlock: UVAHIK_clean_linker_0, # of connection points: 2
#     Edge 26, Type (0, 1), BuildingBlock: UVAHIK_clean_linker_0, # of connection points: 2
# Relax obj value: 0.123
# Max RMSD: 0.172
# Mean RMSD: 0.120
data_MOF--net-anh--node1-GEDQOX_clean_sbu_0--node2-BETDIP_clean_linker_0--edge1-UVAHIK_clean_linker_0
_symmetry_space_group_name_H-M    P1
_symmetry_Int_Tables_number       1
_symmetry_cell_setting            triclinic
loop_
_symmetry_equiv_pos_as_xyz
'x, y, z'
_cell_length_a     41.573145
_cell_length_b     39.191706
_cell_length_c     64.260023
_cell_angle_alpha  96.798964
_cell_angle_beta   90.706205
_cell_angle_gamma 108.49272
loop_
_atom_site_label
_atom_site_type_symbol
_atom_site_fract_x
_atom_site_fract_y
_atom_site_fract_z
_atom_type_partial_charge
Nd0 Nd 0.08836 0.58957 0.14158 0.0
Nd1 Nd 0.06615 0.51033 0.14314 0.0
C2 C 0.11927 0.65612 0.1328 0.0
C3 C 0.15397 0.68193 0.13653 0.0
C4 C 0.16566 0.70982 0.12397 0.0
C5 C 0.1985 0.73469 0.1276 0.0
C6 C 0.22025 0.73219 0.14394 0.0
C7 C 0.20838 0.70382 0.15633 0.0
C8 C 0.17566 0.67888 0.1526 0.0
C9 C 0.07876 0.57123 0.18128 0.0
C10 C 0.14989 0.54812 0.14309 0.0
C11 C 0.03727 0.44355 0.15236 0.0
C12 C 1.00303 0.41913 0.15554 0.0
C13 C 0.97661 0.43284 0.16131 0.0
C14 C 0.94441 0.40924 0.1646 0.0
C15 C 0.938 0.37143 0.16221 0.0
C16 C 0.96458 0.3579 0.15625 0.0
C17 C 0.99674 0.38153 0.15295 0.0
C18 C 0.07642 0.53011 0.10373 0.0
C19 C 1.00472 0.55145 0.14067 0.0
O20 O 0.11576 0.62704 0.1195 0.0
O21 O 0.10185 0.64911 0.14948 0.0
O22 O 0.06991 0.59712 0.17467 0.0
O23 O 0.09343 0.55689 0.16744 0.0
O24 O 0.14167 0.57767 0.14014 0.0
O25 O 0.12495 0.51822 0.14624 0.0
O26 O 0.04969 0.47189 0.16653 0.0
O27 O 0.04363 0.45101 0.13325 0.0
O28 O 0.08658 0.50486 0.11018 0.0
O29 O 0.061 0.54314 0.11764 0.0
O30 O 1.01316 0.52286 0.14539 0.0
O31 O 1.02959 0.58043 0.13618 0.0
H32 H 0.14937 0.71239 0.11137 0.0
H33 H 0.20688 0.75572 0.1175 0.0
H34 H 0.22409 0.70122 0.16923 0.0
H35 H 0.16718 0.65739 0.16241 0.0
H36 H 0.98092 0.46179 0.16338 0.0
H37 H 0.92447 0.42062 0.16889 0.0
H38 H 0.96075 0.32904 0.15454 0.0
H39 H 1.01683 0.37044 0.14854 0.0
Nd40 Nd 0.51066 0.01233 0.51383 0.0
Nd41 Nd 0.58415 0.03298 0.5031 0.0
C42 C 0.44997 0.98349 0.52831 0.0
C43 C 0.42341 0.94794 0.52408 0.0
C44 C 0.39715 0.93782 0.53783 0.0
C45 C 0.37146 0.90427 0.53357 0.0
C46 C 0.37156 0.8803 0.51543 0.0
C47 C 0.39829 0.89059 0.50183 0.0
C48 C 0.42402 0.92398 0.50617 0.0
C49 C 0.5214 0.01474 0.4719 0.0
C50 C 0.54753 0.94801 0.50579 0.0
C51 C 0.64331 0.06064 0.48653 0.0
C52 C 0.66753 0.09668 0.48415 0.0
C53 C 0.67806 0.10448 0.4641 0.0
C54 C 0.70144 0.13808 0.46143 0.0
C55 C 0.71497 0.16454 0.4788 0.0
C56 C 0.70427 0.15677 0.49888 0.0
C57 C 0.68066 0.12323 0.50154 0.0
C58 C 0.57411 0.029 0.5449 0.0
C59 C 0.5477 0.09721 0.513 0.0
O60 O 0.47816 0.98389 0.53776 0.0
O61 O 0.4553 0.00316 0.51284 0.0
O62 O 0.49879 0.02627 0.48138 0.0
O63 O 0.5363 1.00125 0.48419 0.0
O64 O 0.52269 0.95847 0.51416 0.0
O65 O 0.57318 0.97116 0.49763 0.0
O66 O 0.61421 0.05103 0.47577 0.0
O67 O 0.64034 0.05103 0.50541 0.0
O68 O 0.59708 0.01861 0.53497 0.0
O69 O 0.55864 0.04301 0.53315 0.0
O70 O 0.57151 0.08688 0.50309 0.0
O71 O 0.52342 0.0738 0.52195 0.0
H72 H 0.39645 0.95591 0.55181 0.0
H73 H 0.35163 0.89708 0.54457 0.0
H74 H 0.39903 0.87319 0.48756 0.0
H75 H 0.44421 0.93132 0.49539 0.0
H76 H 0.66835 0.08442 0.45048 0.0
H77 H 0.70944 0.14309 0.44578 0.0
H78 H 0.71396 0.17675 0.51253 0.0
H79 H 0.67281 0.1181 0.51719 0.0
Nd80 Nd 0.50364 0.49568 0.82386 0.0
Nd81 Nd 0.57509 0.52724 0.84133 0.0
C82 C 0.44449 0.47975 0.80299 0.0
C83 C 0.41839 0.49765 0.8021 0.0
C84 C 0.38472 0.47862 0.80594 0.0
C85 C 0.36055 0.49654 0.80808 0.0
C86 C 0.36969 0.53381 0.80638 0.0
C87 C 0.40305 0.5524 0.80151 0.0
C88 C 0.42718 0.53448 0.79941 0.0
C89 C 0.51065 0.50178 0.86695 0.0
C90 C 0.53729 0.58503 0.83471 0.0
C91 C 0.63414 0.54149 0.86179 0.0
C92 C 0.6633 0.52907 0.85702 0.0
C93 C 0.6864 0.52918 0.8731 0.0
C94 C 0.71533 0.51955 0.86824 0.0
C95 C 0.72153 0.51006 0.84724 0.0
C96 C 0.69761 0.50854 0.83128 0.0
C97 C 0.66854 0.51766 0.83616 0.0
C98 C 0.56921 0.52209 0.79842 0.0
C99 C 0.54123 0.43762 0.82986 0.0
O100 O 0.47359 0.49532 0.79509 0.0
O101 O 0.44803 0.46799 0.82079 0.0
O102 O 0.48926 0.47425 0.85556 0.0
O103 O 0.52623 0.52543 0.8558 0.0
O104 O 0.51513 0.55748 0.82284 0.0
O105 O 0.56045 0.57938 0.84689 0.0
O106 O 0.60664 0.51675 0.86641 0.0
O107 O 0.62803 0.56242 0.84892 0.0
O108 O 0.59137 0.54848 0.81005 0.0
O109 O 0.55289 0.49813 0.80922 0.0
O110 O 0.56409 0.46504 0.84141 0.0
O111 O 0.51716 0.44328 0.81858 0.0
H112 H 0.37742 0.45018 0.80801 0.0
H113 H 0.33491 0.48144 0.81155 0.0
H114 H 0.41094 0.58119 0.80031 0.0
H115 H 0.45296 0.54977 0.7964 0.0
H116 H 0.68252 0.53761 0.88929 0.0
H117 H 0.73365 0.52123 0.88078 0.0
H118 H 0.70186 0.50117 0.815 0.0
H119 H 0.65062 0.51683 0.82356 0.0
H120 H 0.55595 0.03402 0.19118 0.0
H121 H 0.60443 0.08335 0.25194 0.0
H122 H 0.52168 0.98351 0.24643 0.0
H123 H 0.61423 0.13477 0.23553 0.0
C124 C 0.62322 0.12547 0.22081 0.0
C125 C 0.55798 0.03382 0.20799 0.0
C126 C 0.53583 0.0052 0.21731 0.0
C127 C 0.58276 0.06231 0.22032 0.0
C128 C 0.58515 0.06203 0.24219 0.0
C129 C 0.56335 0.0335 0.2516 0.0
C130 C 0.53905 0.0051 0.23907 0.0
N131 N 0.60572 0.09014 0.21035 0.0
H132 H 0.54286 0.49065 0.5125 0.0
H133 H 0.54129 0.55779 0.57051 0.0
H134 H 0.54002 0.44808 0.57147 0.0
H135 H 0.50115 0.57005 0.54616 0.0
C136 C 0.52105 0.57967 0.53539 0.0
C137 C 0.54252 0.49431 0.52946 0.0
C138 C 0.54103 0.46504 0.54079 0.0
C139 C 0.54172 0.52777 0.54011 0.0
C140 C 0.54128 0.53209 0.56218 0.0
C141 C 0.54055 0.50347 0.57358 0.0
C142 C 0.54027 0.47019 0.56273 0.0
N143 N 0.54084 0.55683 0.52877 0.0
H144 H 0.06932 0.68366 0.853 0.0
H145 H 0.14102 0.70817 0.90553 0.0
H146 H 0.05808 0.60783 0.89774 0.0
H147 H 0.16972 0.77888 0.87613 0.0
C148 C 0.15842 0.74975 0.87208 0.0
C149 C 0.07789 0.67573 0.8671 0.0
C150 C 0.06096 0.64172 0.87337 0.0
C151 C 0.10661 0.69956 0.87864 0.0
C152 C 0.11873 0.68955 0.89672 0.0
C153 C 0.10151 0.65617 0.9037 0.0
C154 C 0.07262 0.63266 0.89191 0.0
N155 N 0.12259 0.73411 0.87219 0.0
H156 H 0.0635 0.54821 0.46248 0.0
H157 H 1.0144 0.49979 0.40186 0.0
H158 H 0.11458 0.57729 0.40611 0.0
H159 H 0.96738 0.5011 0.42111 0.0
C160 C 0.9733 0.48872 0.4343 0.0
C161 C 0.06391 0.54534 0.44551 0.0
C162 C 0.09268 0.5654 0.43576 0.0
C163 C 0.0354 0.52187 0.43343 0.0
C164 C 0.03592 0.51833 0.41139 0.0
C165 C 0.0645 0.53802 0.40147 0.0
C166 C 0.09286 0.5612 0.41374 0.0
N167 N 1.00685 0.50138 0.44367 0.0
H168 H 0.53933 0.04133 0.82915 0.0
H169 H 0.54499 0.97823 0.77037 0.0
H170 H 0.54606 0.08827 0.77142 0.0
H171 H 0.50141 0.93619 0.78893 0.0
C172 C 0.51928 0.93891 0.80202 0.0
C173 C 0.5415 0.03909 0.8123 0.0
C174 C 0.54274 0.0689 0.80152 0.0
C175 C 0.54127 0.00572 0.80101 0.0
C176 C 0.54396 0.00324 0.77908 0.0
C177 C 0.54624 0.03304 0.76836 0.0
C178 C 0.54528 0.06547 0.77969 0.0
N179 N 0.53815 0.97469 0.81156 0.0
H180 H 0.54701 0.55331 0.15451 0.0
H181 H 0.59475 0.54369 0.0955 0.0
H182 H 0.49104 0.54139 0.09545 0.0
H183 H 0.62252 0.51271 0.11316 0.0
C184 C 0.63325 0.53348 0.12638 0.0
C185 C 0.54578 0.54986 0.13753 0.0
C186 C 0.51416 0.54785 0.12629 0.0
C187 C 0.57577 0.54722 0.12643 0.0
C188 C 0.57281 0.54369 0.10439 0.0
C189 C 0.54272 0.54176 0.09335 0.0
C190 C 0.51414 0.54356 0.10431 0.0
N191 N 0.6088 0.54954 0.13658 0.0
C192 C 0.21526 0.5799 0.13967 0.0
C193 C 0.18782 0.54861 0.14278 0.0
C194 C 0.24993 0.58021 0.13922 0.0
C195 C 0.3072 0.51729 0.13731 0.0
H196 H 0.3807 0.60816 0.14715 0.0
C197 C 0.45304 0.51925 0.13897 0.0
C198 C 0.48004 0.55046 0.13523 0.0
C199 C 0.41858 0.51923 0.141 0.0
C200 C 0.36102 0.58213 0.14408 0.0
H201 H 0.17815 0.49273 0.14793 0.0
H202 H 0.23709 0.49317 0.14737 0.0
H203 H 0.32213 0.60774 0.14811 0.0
H204 H 0.48883 0.60595 0.12973 0.0
H205 H 0.43062 0.60646 0.13361 0.0
H206 H 0.3461 0.49168 0.13323 0.0
C207 C 0.23218 0.51794 0.14496 0.0
C208 C 0.32639 0.58189 0.14464 0.0
C209 C 0.19754 0.51767 0.14543 0.0
C210 C 0.47006 0.58159 0.13364 0.0
C211 C 0.43573 0.58166 0.13568 0.0
C212 C 0.34185 0.51753 0.13673 0.0
C213 C 0.25984 0.54921 0.14182 0.0
C214 C 0.29801 0.54946 0.14126 0.0
C215 C 0.40841 0.55032 0.13909 0.0
C216 C 0.37022 0.54997 0.14006 0.0
H217 H 0.21 0.60462 0.13747 0.0
H218 H 0.26899 0.60518 0.13649 0.0
H219 H 0.2875 0.49126 0.13422 0.0
H220 H 0.45824 0.49396 0.13939 0.0
H221 H 0.39976 0.49412 0.14376 0.0
C222 C 0.76983 0.21463 0.48939 0.0
C223 C 0.74053 0.19985 0.47591 0.0
C224 C 0.79466 0.24697 0.48602 0.0
C225 C 0.82558 0.30501 0.44415 0.0
H226 H 0.87466 0.37637 0.49028 0.0
C227 C 0.91464 0.44514 0.43024 0.0
C228 C 0.94645 0.45781 0.44118 0.0
C229 C 0.88936 0.41468 0.43545 0.0
C230 C 0.86135 0.35653 0.47725 0.0
H231 H 0.71367 0.20818 0.44886 0.0
H232 H 0.75659 0.26478 0.44314 0.0
H233 H 0.83039 0.32155 0.49759 0.0
H234 H 0.97662 0.44911 0.46656 0.0
H235 H 0.93229 0.39569 0.47575 0.0
H236 H 0.85631 0.34 0.42382 0.0
C237 C 0.76091 0.25097 0.456 0.0
C238 C 0.836 0.32509 0.48142 0.0
C239 C 0.73624 0.21856 0.4593 0.0
C240 C 0.95231 0.43995 0.45784 0.0
C241 C 0.92689 0.40947 0.46315 0.0
C242 C 0.85072 0.33645 0.43999 0.0
C243 C 0.79067 0.26539 0.46915 0.0
C244 C 0.81771 0.29896 0.4649 0.0
C245 C 0.89529 0.3962 0.4518 0.0
C246 C 0.86883 0.36265 0.45647 0.0
H247 H 0.77403 0.20065 0.50221 0.0
H248 H 0.81739 0.25699 0.49631 0.0
H249 H 0.81262 0.28517 0.43104 0.0
H250 H 0.90945 0.45851 0.41737 0.0
H251 H 0.86514 0.40552 0.42662 0.0
C252 C 0.55967 0.65309 0.84578 0.0
C253 C 0.53634 0.6227 0.83376 0.0
C254 C 0.55955 0.68847 0.84385 0.0
C255 C 0.53111 0.74023 0.8065 0.0
H256 H 0.54396 0.81466 0.85417 0.0
C257 C 0.50149 0.87155 0.7981 0.0
C258 C 0.52292 0.90482 0.80835 0.0
C259 C 0.50485 0.83865 0.80237 0.0
C260 C 0.54075 0.79436 0.84065 0.0
H261 H 0.49415 0.60624 0.81059 0.0
H262 H 0.49371 0.66719 0.8074 0.0
H263 H 0.54641 0.7546 0.85951 0.0
H264 H 0.56458 0.92952 0.83155 0.0
H265 H 0.57072 0.87163 0.83904 0.0
H266 H 0.52548 0.77955 0.7876 0.0
C267 C 0.51252 0.66393 0.81811 0.0
C268 C 0.54213 0.75983 0.84371 0.0
C269 C 0.51259 0.62873 0.82008 0.0
C270 C 0.54759 0.90434 0.82341 0.0
C271 C 0.55102 0.87113 0.82772 0.0
C272 C 0.52981 0.77457 0.80345 0.0
C273 C 0.53622 0.69444 0.82976 0.0
C274 C 0.53674 0.73204 0.8267 0.0
C275 C 0.52995 0.83778 0.81699 0.0
C276 C 0.53398 0.80204 0.82048 0.0
H277 H 0.57839 0.64962 0.85648 0.0
H278 H 0.57831 0.7112 0.85301 0.0
H279 H 0.52776 0.72002 0.79291 0.0
H280 H 0.4821 0.87092 0.7865 0.0
H281 H 0.48757 0.81374 0.79412 0.0
C282 C 0.93936 0.51984 0.144 0.0
C283 C 0.96672 0.55078 0.14032 0.0
C284 C 0.90459 0.51915 0.14368 0.0
C285 C 0.8459 0.58011 0.14254 0.0
H286 H 0.77448 0.48782 0.13164 0.0
C287 C 0.69575 0.56786 0.14429 0.0
C288 C 0.67153 0.53824 0.13182 0.0
C289 C 0.73129 0.57064 0.14631 0.0
C290 C 0.79356 0.51428 0.13458 0.0
H291 H 0.97612 0.60574 0.13341 0.0
H292 H 0.91683 0.60467 0.13278 0.0
H293 H 0.83347 0.48999 0.13237 0.0
H294 H 0.66851 0.48871 0.1118 0.0
H295 H 0.72774 0.4932 0.11527 0.0
H296 H 0.80555 0.60428 0.14449 0.0
C297 C 0.922 0.58047 0.13614 0.0
C298 C 0.82842 0.5155 0.13529 0.0
C299 C 0.95679 0.58107 0.13638 0.0
C300 C 0.68518 0.51192 0.12183 0.0
C301 C 0.72009 0.51447 0.12394 0.0
C302 C 0.81087 0.57886 0.14195 0.0
C303 C 0.89445 0.54942 0.13972 0.0
C304 C 0.85607 0.54843 0.1392 0.0
C305 C 0.74472 0.54388 0.13615 0.0
C306 C 0.7833 0.54586 0.13777 0.0
H307 H 0.94474 0.49563 0.14719 0.0
H308 H 0.88559 0.49446 0.14688 0.0
H309 H 0.86512 0.60644 0.14587 0.0
H310 H 0.68754 0.58939 0.15218 0.0
H311 H 0.74828 0.59401 0.15602 0.0
C312 C 0.30974 0.84254 0.51435 0.0
C313 C 0.34361 0.84511 0.51038 0.0
C314 C 0.28335 0.80998 0.50862 0.0
C315 C 0.26154 0.7275 0.47088 0.0
H316 H 0.18781 0.68996 0.50689 0.0
C317 C 0.15526 0.59377 0.44388 0.0
C318 C 0.12191 0.59252 0.44819 0.0
C319 C 0.18294 0.62206 0.45359 0.0
C320 C 0.20801 0.70023 0.49654 0.0
H321 H 0.37619 0.81469 0.49802 0.0
H322 H 0.33008 0.75825 0.48763 0.0
H323 H 0.23475 0.74465 0.51974 0.0
H324 H 0.09132 0.61925 0.46648 0.0
H325 H 0.13954 0.66921 0.48312 0.0
H326 H 0.23462 0.68418 0.44742 0.0
C327 C 0.324 0.7816 0.49503 0.0
C328 C 0.23494 0.73153 0.50395 0.0
C329 C 0.35041 0.81402 0.50092 0.0
C330 C 0.1168 0.61938 0.46304 0.0
C331 C 0.1445 0.64798 0.47258 0.0
C332 C 0.23452 0.69651 0.46341 0.0
C333 C 0.29016 0.77931 0.49863 0.0
C334 C 0.26196 0.74551 0.49117 0.0
C335 C 0.17795 0.65013 0.46764 0.0
C336 C 0.20732 0.68242 0.4761 0.0
H337 H 0.30342 0.86598 0.52132 0.0
H338 H 0.25749 0.80916 0.51138 0.0
H339 H 0.28171 0.73796 0.46053 0.0
H340 H 0.15989 0.57317 0.43265 0.0
H341 H 0.20828 0.62221 0.44979 0.0
C342 C 0.56931 0.39282 0.83991 0.0
C343 C 0.54239 0.39985 0.82962 0.0
C344 C 0.56981 0.3571 0.83987 0.0
C345 C 0.51302 0.26105 0.83199 0.0
H346 H 0.59589 0.23772 0.8222 0.0
C347 C 0.51237 0.11466 0.80618 0.0
C348 C 0.5399 0.10373 0.81203 0.0
C349 C 0.51259 0.15036 0.81174 0.0
C350 C 0.5726 0.24372 0.82535 0.0
H351 H 0.49496 0.37437 0.81116 0.0
H352 H 0.49588 0.31257 0.81108 0.0
H353 H 0.59701 0.30077 0.82476 0.0
H354 H 0.58897 0.12146 0.82877 0.0
H355 H 0.58923 0.18401 0.839 0.0
H356 H 0.48849 0.20418 0.83246 0.0
C357 C 0.51649 0.33456 0.81937 0.0
C358 C 0.57324 0.28 0.82675 0.0
C359 C 0.51611 0.37018 0.81929 0.0
C360 C 0.56714 0.12898 0.82438 0.0
C361 C 0.56747 0.16495 0.82993 0.0
C362 C 0.5124 0.22488 0.83069 0.0
C363 C 0.54327 0.32741 0.82971 0.0
C364 C 0.54331 0.28912 0.8297 0.0
C365 C 0.5405 0.17639 0.82325 0.0
C366 C 0.54203 0.21549 0.82695 0.0
H367 H 0.59001 0.41492 0.84804 0.0
H368 H 0.59075 0.35271 0.8481 0.0
H369 H 0.48959 0.26702 0.83474 0.0
H370 H 0.49133 0.09592 0.79632 0.0
H371 H 0.49155 0.15794 0.806 0.0
C372 C 0.57283 0.89701 0.49861 0.0
C373 C 0.54615 0.9094 0.50588 0.0
C374 C 0.57151 0.86084 0.49941 0.0
C375 C 0.51058 0.76903 0.50488 0.0
H376 H 0.59091 0.74691 0.52164 0.0
C377 C 0.5015 0.63321 0.53418 0.0
C378 C 0.52558 0.61592 0.52852 0.0
C379 C 0.50515 0.66796 0.52917 0.0
C380 C 0.56832 0.75249 0.51664 0.0
H381 H 0.49705 0.89287 0.51965 0.0
H382 H 0.49494 0.83062 0.52121 0.0
H383 H 0.59513 0.80937 0.51728 0.0
H384 H 0.57274 0.62191 0.51314 0.0
H385 H 0.57934 0.68319 0.50433 0.0
H386 H 0.48363 0.71246 0.50458 0.0
C387 C 0.51676 0.84851 0.51458 0.0
C388 C 0.57072 0.78841 0.51413 0.0
C389 C 0.51809 0.88452 0.51382 0.0
C390 C 0.55361 0.63437 0.51759 0.0
C391 C 0.55747 0.66958 0.51269 0.0
C392 C 0.50818 0.73329 0.50743 0.0
C393 C 0.54342 0.836 0.50741 0.0
C394 C 0.54172 0.79735 0.50858 0.0
C395 C 0.5332 0.68684 0.51841 0.0
C396 C 0.53685 0.72451 0.51372 0.0
H397 H 0.59487 0.91529 0.49239 0.0
H398 H 0.59241 0.85228 0.49355 0.0
H399 H 0.48781 0.77444 0.50007 0.0
H400 H 0.47975 0.61989 0.54275 0.0
H401 H 0.48622 0.68039 0.5342 0.0
C402 C 0.77439 0.52809 0.82791 0.0
C403 C 0.7547 0.50618 0.84185 0.0
C404 C 0.80789 0.52928 0.82516 0.0
C405 C 0.87751 0.51439 0.85496 0.0
H406 H 0.92766 0.55519 0.80835 0.0
C407 C 1.02245 0.57848 0.8608 0.0
C408 C 1.02989 0.61631 0.86156 0.0
C409 C 0.99086 0.55476 0.85279 0.0
C410 C 0.91391 0.54316 0.82129 0.0
H411 H 0.75323 0.46604 0.86252 0.0
H412 H 0.81144 0.46656 0.85696 0.0
H413 H 0.86599 0.52766 0.80422 0.0
H414 H 1.01059 0.65839 0.85284 0.0
H415 H 0.95616 0.61676 0.83809 0.0
H416 H 0.92562 0.53025 0.87197 0.0
C417 C 0.80158 0.484 0.84874 0.0
C418 C 0.8786 0.52775 0.81908 0.0
C419 C 0.7682 0.48347 0.85187 0.0
C420 C 1.00607 0.62955 0.85241 0.0
C421 C 0.97481 0.60572 0.84395 0.0
C422 C 0.91283 0.52888 0.85695 0.0
C423 C 0.82235 0.50807 0.83601 0.0
C424 C 0.85976 0.51508 0.83629 0.0
C425 C 0.96657 0.56834 0.84478 0.0
C426 C 0.93106 0.54491 0.84049 0.0
H427 H 0.76458 0.5461 0.82015 0.0
H428 H 0.82292 0.5487 0.81554 0.0
H429 H 0.86423 0.50535 0.86869 0.0
H430 H 0.04055 0.56719 0.86712 0.0
H431 H 0.98493 0.52596 0.85353 0.0
C432 C 0.28228 0.74875 0.15503 0.0
C433 C 0.2549 0.75932 0.14832 0.0
C434 C 0.31432 0.77443 0.16018 0.0
C435 C 0.36866 0.86669 0.15305 0.0
H436 H 0.41295 0.86295 0.20575 0.0
C437 C 0.48441 0.98458 0.19241 0.0
C438 C 0.50807 0.97604 0.20485 0.0
C439 C 0.45526 0.95729 0.18336 0.0
C440 C 0.4014 0.86411 0.19077 0.0
H441 H 0.24026 0.80552 0.14159 0.0
H442 H 0.29634 0.8501 0.15021 0.0
H443 H 0.35912 0.817 0.19397 0.0
H444 H 0.52108 0.9322 0.21646 0.0
H445 H 0.47112 0.88444 0.20006 0.0
H446 H 0.41106 0.91371 0.14976 0.0
C447 C 0.29291 0.82183 0.15137 0.0
C448 C 0.37038 0.83775 0.18407 0.0
C449 C 0.26075 0.7962 0.14639 0.0
C450 C 0.50302 0.93954 0.20711 0.0
C451 C 0.4742 0.91224 0.19785 0.0
C452 C 0.39995 0.89293 0.15965 0.0
C453 C 0.31994 0.8113 0.15859 0.0
C454 C 0.35353 0.83881 0.1652 0.0
C455 C 0.44936 0.9208 0.18637 0.0
C456 C 0.4167 0.89211 0.17868 0.0
H457 H 0.27903 0.72055 0.15628 0.0
H458 H 0.33478 0.76539 0.1654 0.0
H459 H 0.35642 0.86802 0.13832 0.0
H460 H 0.48754 0.01257 0.1906 0.0
H461 H 0.43666 0.96509 0.17482 0.0
C462 C 0.52115 0.14626 0.52241 0.0
C463 C 0.54799 0.13562 0.5138 0.0
C464 C 0.52067 0.18192 0.52255 0.0
C465 C 0.57575 0.27641 0.51901 0.0
H466 H 0.48992 0.29188 0.50788 0.0
C467 C 0.56655 0.422 0.52001 0.0
C468 C 0.53915 0.42815 0.53061 0.0
C469 C 0.56759 0.38643 0.51479 0.0
C470 C 0.51413 0.2882 0.51118 0.0
H471 H 0.59566 0.15479 0.49872 0.0
H472 H 0.59485 0.21696 0.49903 0.0
H473 H 0.49231 0.2303 0.50591 0.0
H474 H 0.49084 0.40194 0.54327 0.0
H475 H 0.49237 0.34048 0.53418 0.0
H476 H 0.59743 0.33437 0.52471 0.0
C477 C 0.57417 0.19767 0.50578 0.0
C478 C 0.51548 0.25273 0.51007 0.0
C479 C 0.57456 0.16188 0.50552 0.0
C480 C 0.51211 0.39801 0.53489 0.0
C481 C 0.51304 0.36266 0.52963 0.0
C482 C 0.57437 0.31197 0.5202 0.0
C483 C 0.54708 0.20818 0.51417 0.0
C484 C 0.5462 0.24623 0.51427 0.0
C485 C 0.54116 0.35624 0.51997 0.0
C486 C 0.54342 0.31845 0.51662 0.0
H487 H 0.50023 0.12694 0.52896 0.0
H488 H 0.49964 0.18899 0.52947 0.0
H489 H 0.59983 0.2726 0.5225 0.0
H490 H 0.58796 0.44471 0.51678 0.0
H491 H 0.58948 0.38265 0.50712 0.0
C492 C 0.34317 0.58083 0.79923 0.0
C493 C 0.34543 0.55394 0.8113 0.0
C494 C 0.32234 0.6018 0.80503 0.0
C495 C 0.28395 0.63392 0.85123 0.0
H496 H 0.22692 0.6568 0.81047 0.0
C497 C 0.2143 0.73879 0.87182 0.0
C498 C 0.18017 0.72793 0.86459 0.0
C499 C 0.23498 0.71816 0.86493 0.0
C500 C 0.24266 0.65052 0.82203 0.0
H501 H 0.32739 0.52769 0.83876 0.0
H502 H 0.29068 0.56391 0.84868 0.0
H503 H 0.2609 0.61807 0.79895 0.0
H504 H 0.14132 0.68832 0.8435 0.0
H505 H 0.17709 0.65202 0.83182 0.0
H506 H 0.26538 0.66595 0.87435 0.0
C507 C 0.30521 0.56896 0.83485 0.0
C508 C 0.26229 0.62863 0.81541 0.0
C509 C 0.32589 0.54792 0.829 0.0
C510 C 0.16726 0.69675 0.84988 0.0
C511 C 0.1879 0.67626 0.84292 0.0
C512 C 0.26447 0.65596 0.85783 0.0
C513 C 0.30356 0.59642 0.82308 0.0
C514 C 0.28296 0.61993 0.82997 0.0
C515 C 0.22192 0.68663 0.85044 0.0
C516 C 0.24349 0.66431 0.84332 0.0
H517 H 0.35778 0.58589 0.78543 0.0
H518 H 0.32166 0.62289 0.79573 0.0
H519 H 0.29998 0.62802 0.86277 0.0
H520 H 0.22484 0.763 0.88298 0.0
H521 H 0.26125 0.72704 0.87079 0.0
C522 C 0.88578 0.35517 0.18323 0.0
C523 C 0.904 0.34625 0.16629 0.0
C524 C 0.85427 0.33122 0.18741 0.0
C525 C 0.80175 0.23439 0.17803 0.0
H526 H 0.72956 0.27155 0.19682 0.0
C527 C 0.66782 0.13963 0.19395 0.0
C528 C 0.65344 0.15033 0.21225 0.0
C529 C 0.69726 0.16335 0.18679 0.0
C530 C 0.74953 0.26072 0.19174 0.0
H531 H 0.90276 0.30525 0.14019 0.0
H532 H 0.84783 0.26347 0.1475 0.0
H533 H 0.78294 0.31323 0.18729 0.0
H534 H 0.65833 0.19406 0.23728 0.0
H535 H 0.70958 0.23529 0.22493 0.0
H536 H 0.76838 0.18189 0.18269 0.0
C537 C 0.85819 0.28882 0.15774 0.0
C538 C 0.78018 0.28465 0.18629 0.0
C539 C 0.88971 0.3128 0.15355 0.0
C540 C 0.66879 0.1852 0.22307 0.0
C541 C 0.69806 0.20889 0.21591 0.0
C542 C 0.77105 0.21042 0.18348 0.0
C543 C 0.84009 0.29767 0.17477 0.0
C544 C 0.80685 0.27188 0.17959 0.0
C545 C 0.71281 0.19826 0.19774 0.0
C546 C 0.74469 0.22335 0.19064 0.0
H547 H 0.89621 0.38038 0.19359 0.0
H548 H 0.84137 0.3387 0.20086 0.0
H549 H 0.82185 0.22362 0.17318 0.0
H550 H 0.65657 0.11288 0.18527 0.0
H551 H 0.70776 0.1544 0.17263 0.0
C552 C 0.11102 0.53828 0.07208 0.0
C553 C 0.08434 0.5442 0.08351 0.0
C554 C 0.1193 0.55304 0.05331 0.0
C555 C 0.12046 0.5699 0.00846 0.0
H556 H 0.10177 0.65836 0.0005 0.0
C557 C 0.10698 0.61011 0.92644 0.0
C558 C 0.11159 0.64653 0.924 0.0
C559 C 0.11053 0.59999 0.94623 0.0
C560 C 0.10794 0.63405 0.00244 0.0
H561 H 0.04498 0.56952 0.08432 0.0
H562 H 0.05788 0.59346 0.05111 0.0
H563 H 0.09527 0.63728 0.03451 0.0
H564 H 0.12658 0.7013 0.94045 0.0
H565 H 0.13515 0.68406 0.97463 0.0
H566 H 0.13472 0.56765 0.97664 0.0
C567 C 0.07353 0.57879 0.05685 0.0
C568 C 0.10343 0.62144 0.02197 0.0
C569 C 0.06579 0.5647 0.0758 0.0
C570 C 0.12275 0.67297 0.94164 0.0
C571 C 0.12706 0.66294 0.9614 0.0
C572 C 0.12572 0.58296 0.98903 0.0
C573 C 0.10059 0.57346 0.04538 0.0
C574 C 0.10867 0.58863 0.02512 0.0
C575 C 0.11968 0.62614 0.96412 0.0
C576 C 0.11863 0.61472 0.98555 0.0
H577 H 0.12596 0.52287 0.07787 0.0
H578 H 0.14065 0.5488 0.04521 0.0
H579 H 0.12466 0.54445 0.01012 0.0
H580 H 0.09931 0.58904 0.91314 0.0
H581 H 0.10441 0.57137 0.94749 0.0
C582 C 0.51823 0.04143 0.43886 0.0
C583 C 0.52904 0.01761 0.44971 0.0
C584 C 0.52556 0.0444 0.41785 0.0
C585 C 0.53914 0.99359 0.37016 0.0
H586 H 0.58286 0.08693 0.35133 0.0
C587 C 0.56829 0.00363 0.28326 0.0
C588 C 0.56498 0.03367 0.27464 0.0
C589 C 0.56746 0.00269 0.30493 0.0
C590 C 0.57016 0.06067 0.3562 0.0
H591 H 0.55595 0.97826 0.44726 0.0
H592 H 0.56773 0.98255 0.41017 0.0
H593 H 0.57371 0.08334 0.38856 0.0
H594 H 0.55836 0.0863 0.28169 0.0
H595 H 0.55533 0.08419 0.31939 0.0
H596 H 0.5338 0.97086 0.33796 0.0
C597 C 0.55396 0.99917 0.41805 0.0
C598 C 0.56517 0.05867 0.37757 0.0
C599 C 0.54727 0.99676 0.4392 0.0
C600 C 0.56131 0.06299 0.28804 0.0
C601 C 0.55977 0.06177 0.30968 0.0
C602 C 0.54347 0.99562 0.34875 0.0
C603 C 0.54321 0.02307 0.40721 0.0
C604 C 0.54957 0.02513 0.38471 0.0
C605 C 0.56252 0.03143 0.31845 0.0
C606 C 0.559 0.02921 0.34142 0.0
H607 H 0.5043 0.05795 0.44666 0.0
H608 H 0.51684 0.06286 0.40978 0.0
H609 H 0.52669 0.96745 0.37529 0.0
H610 H 0.57141 0.98081 0.2732 0.0
H611 H 0.57056 0.97926 0.31102 0.0
C612 C 0.54109 0.49031 0.76355 0.0
C613 C 0.56501 0.52012 0.77543 0.0
C614 C 0.53718 0.4892 0.74177 0.0
C615 C 0.58229 0.5288 0.69662 0.0
H616 H 0.49266 0.49386 0.66852 0.0
C617 C 0.56241 0.53906 0.6089 0.0
C618 C 0.5403 0.508 0.59686 0.0
C619 C 0.56403 0.54184 0.63082 0.0
C620 C 0.51788 0.50344 0.67612 0.0
H621 H 0.60329 0.57225 0.77404 0.0
H622 H 0.59634 0.57047 0.73622 0.0
H623 H 0.49845 0.49518 0.70649 0.0
H624 H 0.50143 0.45629 0.59842 0.0
H625 H 0.50459 0.46089 0.63658 0.0
H626 H 0.60177 0.53693 0.6663 0.0
C627 C 0.58095 0.54768 0.74354 0.0
C628 C 0.52119 0.50411 0.69787 0.0
C629 C 0.58483 0.54878 0.76524 0.0
C630 C 0.51905 0.48036 0.60725 0.0
C631 C 0.52061 0.48317 0.62913 0.0
C632 C 0.57898 0.52816 0.67491 0.0
C633 C 0.55715 0.51786 0.73152 0.0
C634 C 0.55345 0.5168 0.70837 0.0
C635 C 0.54348 0.51369 0.64118 0.0
C636 C 0.54675 0.51544 0.66438 0.0
H637 H 0.52546 0.46788 0.77105 0.0
H638 H 0.51885 0.46567 0.73294 0.0
H639 H 0.60755 0.53818 0.70416 0.0
H640 H 0.57921 0.56073 0.60136 0.0
H641 H 0.58159 0.56594 0.63966 0.0
C642 C 0.54482 0.04028 0.57767 0.0
C643 C 0.5695 0.02783 0.56757 0.0
C644 C 0.54126 0.0395 0.59928 0.0
C645 C 0.58938 0.03786 0.64751 0.0
H646 H 0.50101 0.00745 0.67126 0.0
C647 C 0.57247 0.05905 0.73644 0.0
C648 C 0.5493 0.03058 0.74525 0.0
C649 C 0.57453 0.05774 0.71471 0.0
C650 C 0.52586 0.01577 0.66483 0.0
H651 H 0.60926 0.0041 0.57192 0.0
H652 H 0.60306 0.00271 0.60947 0.0
H653 H 0.50479 0.0068 0.63326 0.0
H654 H 0.51016 0.9783 0.73817 0.0
H655 H 0.51398 0.97583 0.70006 0.0
H656 H 0.61052 0.04657 0.67896 0.0
C657 C 0.58674 0.01351 0.60086 0.0
C658 C 0.52801 0.01577 0.64311 0.0
C659 C 0.59019 0.01416 0.57933 0.0
C660 C 0.52844 1.00052 0.73183 0.0
C661 C 0.53037 0.9993 0.71003 0.0
C662 C 0.58723 0.03804 0.66918 0.0
C663 C 0.56243 0.02641 0.61114 0.0
C664 C 0.55982 0.02674 0.63421 0.0
C665 C 0.55339 0.02796 0.70124 0.0
C666 C 0.55547 0.02702 0.67811 0.0
H667 H 0.52846 0.05084 0.56893 0.0
H668 H 0.52243 0.04984 0.60678 0.0
H669 H 0.61427 0.04683 0.64117 0.0
H670 H 0.58908 0.08243 0.74638 0.0
H671 H 0.59232 0.08039 0.70844 0.0
C672 C 0.49454 0.47947 0.90147 0.0
C673 C 0.51514 0.50578 0.89005 0.0
C674 C 0.49868 0.48339 0.92336 0.0
C675 C 0.53463 0.55246 0.96945 0.0
H676 H 0.52451 0.4682 -0.00196 0.0
C677 C 0.52517 0.5583 0.0593 0.0
C678 C 0.54113 0.5382 0.06996 0.0
C679 C 0.52309 0.55455 0.03738 0.0
C680 C 0.52776 0.49209 0.99032 0.0
H681 H 0.55662 0.5565 0.89245 0.0
H682 H 0.56427 0.56314 0.9306 0.0
H683 H 0.51966 0.46117 0.95984 0.0
H684 H 0.56754 0.49841 0.0658 0.0
H685 H 0.56469 0.49254 0.02754 0.0
H686 H 0.54347 0.58351 -0.00011 0.0
C687 C 0.54443 0.5398 0.92276 0.0
C688 C 0.52452 0.48798 0.96839 0.0
C689 C 0.54018 0.53593 0.90089 0.0
C690 C 0.55528 0.51451 0.05811 0.0
C691 C 0.55329 0.51082 0.03616 0.0
C692 C 0.53794 0.55658 0.99137 0.0
C693 C 0.52365 0.51365 0.93431 0.0
C694 C 0.52776 0.51809 0.95766 0.0
C695 C 0.53706 0.53071 0.0255 0.0
C696 C 0.53439 0.52643 0.00211 0.0
H697 H 0.47501 0.45596 0.89351 0.0
H698 H 0.48191 0.46297 0.93173 0.0
H699 H 0.53693 0.57621 0.96177 0.0
H700 H 0.51436 0.57713 0.06792 0.0
H701 H 0.51006 0.57 0.02974 0.0
C702 C 0.09531 0.54461 0.21169 0.0
C703 C 0.07532 0.56285 0.20306 0.0
C704 C 0.09327 0.53909 0.23284 0.0
C705 C 0.06354 0.57412 0.28298 0.0
H706 H 0.07714 0.48986 0.30292 0.0
C707 C 0.03695 0.54082 0.36719 0.0
C708 C 0.06413 0.53594 0.37829 0.0
C709 C 0.0376 0.5416 0.34552 0.0
C710 C 0.0734 0.51355 0.29751 0.0
H711 H 0.03627 0.58786 0.20924 0.0
H712 H 1.03142 0.57682 0.24567 0.0
H713 H 0.07878 0.49533 0.2654 0.0
H714 H 0.11271 0.52678 0.37544 0.0
H715 H 0.11351 0.52743 0.33731 0.0
H716 H 0.05726 0.59172 0.31505 0.0
C717 C 0.04981 0.5681 0.23658 0.0
C718 C 0.07452 0.51685 0.27605 0.0
C719 C 0.05235 0.5742 0.21563 0.0
C720 C 0.09151 0.53074 0.36723 0.0
C721 C 0.09188 0.53089 0.34547 0.0
C722 C 0.06185 0.57048 0.30431 0.0
C723 C 0.07074 0.55117 0.24566 0.0
C724 C 0.06956 0.54721 0.26848 0.0
C725 C 0.06519 0.53695 0.33449 0.0
C726 C 0.06676 0.54021 0.31178 0.0
H727 H 0.11325 0.5356 0.20227 0.0
H728 H 0.11004 0.52628 0.23925 0.0
H729 H 0.06055 0.5984 0.27795 0.0
H730 H 1.01566 0.54515 0.37537 0.0
H731 H 1.01664 0.54614 0.33738 0.0
loop_
_geom_bond_atom_site_label_1
_geom_bond_atom_site_label_2
_geom_bond_distance
_geom_bond_site_symmetry_2
_ccdc_geom_bond_type
Nd0 C2 2.836 . S
Nd0 O20 2.500 . S
Nd0 O21 2.492 . S
Nd0 O22 2.487 . S
Nd0 O23 2.682 . S
Nd0 O24 2.410 . S
Nd0 O29 2.414 . S
Nd0 O31 2.424 . S
Nd1 C11 2.836 1_455 S
Nd1 O23 2.414 . S
Nd1 O25 2.424 . S
Nd1 O26 2.500 1_455 S
Nd1 O27 2.492 1_455 S
Nd1 O28 2.487 . S
Nd1 O29 2.682 . S
Nd1 O30 2.410 1_455 S
C2 Nd0 2.836 . S
C2 C3 1.498 . S
C2 O20 1.258 . S
C2 O21 1.239 . S
C3 C2 1.498 . S
C3 C4 1.366 . S
C3 C8 1.407 . S
C4 C3 1.366 . S
C4 C5 1.392 . S
C4 H32 0.930 . S
C5 C4 1.392 . S
C5 C6 1.398 . S
C5 H33 0.929 . S
C6 C5 1.398 . S
C6 C7 1.352 . S
C7 C6 1.352 . S
C7 C8 1.384 . S
C7 H34 0.930 . S
C8 C3 1.407 . S
C8 C7 1.384 . S
C8 H35 0.929 . S
C9 O22 1.241 . S
C9 O23 1.273 . S
C10 O24 1.251 . S
C10 O25 1.268 . S
C11 Nd1 2.836 1_655 S
C11 C12 1.498 . S
C11 O26 1.258 . S
C11 O27 1.239 . S
C12 C11 1.498 . S
C12 C13 1.366 . S
C12 C17 1.407 . S
C13 C12 1.366 . S
C13 C14 1.392 . S
C13 H36 0.930 . S
C14 C13 1.392 . S
C14 C15 1.398 . S
C14 H37 0.929 . S
C15 C14 1.398 . S
C15 C16 1.352 . S
C16 C15 1.352 . S
C16 C17 1.384 . S
C16 H38 0.930 . S
C17 C12 1.407 . S
C17 C16 1.384 . S
C17 H39 0.929 . S
C18 O28 1.241 . S
C18 O29 1.273 . S
C19 O30 1.251 . S
C19 O31 1.268 1_655 S
O20 Nd0 2.500 . S
O20 C2 1.258 . S
O21 Nd0 2.492 . S
O21 C2 1.239 . S
O22 Nd0 2.487 . S
O22 C9 1.241 . S
O23 Nd0 2.682 . S
O23 Nd1 2.414 . S
O23 C9 1.273 . S
O24 Nd0 2.410 . S
O24 C10 1.251 . S
O25 Nd1 2.424 . S
O25 C10 1.268 . S
O26 Nd1 2.500 1_655 S
O26 C11 1.258 . S
O27 Nd1 2.492 1_655 S
O27 C11 1.239 . S
O28 Nd1 2.487 . S
O28 C18 1.241 . S
O29 Nd0 2.414 . S
O29 Nd1 2.682 . S
O29 C18 1.273 . S
O30 Nd1 2.410 1_655 S
O30 C19 1.251 . S
O31 Nd0 2.424 . S
O31 C19 1.268 1_455 S
H32 C4 0.930 . S
H33 C5 0.929 . S
H34 C7 0.930 . S
H35 C8 0.929 . S
H36 C13 0.930 . S
H37 C14 0.929 . S
H38 C16 0.930 . S
H39 C17 0.929 . S
Nd40 C42 2.836 1_545 S
Nd40 O60 2.500 1_545 S
Nd40 O61 2.492 1_545 S
Nd40 O62 2.487 . S
Nd40 O63 2.682 . S
Nd40 O64 2.410 1_545 S
Nd40 O69 2.414 . S
Nd40 O71 2.424 . S
Nd41 C51 2.836 . S
Nd41 O63 2.414 . S
Nd41 O65 2.424 1_545 S
Nd41 O66 2.500 . S
Nd41 O67 2.492 . S
Nd41 O68 2.487 . S
Nd41 O69 2.682 . S
Nd41 O70 2.410 . S
C42 Nd40 2.836 1_565 S
C42 C43 1.498 . S
C42 O60 1.258 . S
C42 O61 1.239 . S
C43 C42 1.498 . S
C43 C44 1.366 . S
C43 C48 1.407 . S
C44 C43 1.366 . S
C44 C45 1.392 . S
C44 H72 0.930 . S
C45 C44 1.392 . S
C45 C46 1.398 . S
C45 H73 0.929 . S
C46 C45 1.398 . S
C46 C47 1.352 . S
C47 C46 1.352 . S
C47 C48 1.384 . S
C47 H74 0.930 . S
C48 C43 1.407 . S
C48 C47 1.384 . S
C48 H75 0.929 . S
C49 O62 1.241 . S
C49 O63 1.273 . S
C50 O64 1.251 . S
C50 O65 1.268 . S
C51 Nd41 2.836 . S
C51 C52 1.498 . S
C51 O66 1.258 . S
C51 O67 1.239 . S
C52 C51 1.498 . S
C52 C53 1.366 . S
C52 C57 1.407 . S
C53 C52 1.366 . S
C53 C54 1.392 . S
C53 H76 0.930 . S
C54 C53 1.392 . S
C54 C55 1.398 . S
C54 H77 0.929 . S
C55 C54 1.398 . S
C55 C56 1.352 . S
C56 C55 1.352 . S
C56 C57 1.384 . S
C56 H78 0.930 . S
C57 C52 1.407 . S
C57 C56 1.384 . S
C57 H79 0.929 . S
C58 O68 1.241 . S
C58 O69 1.273 . S
C59 O70 1.251 . S
C59 O71 1.268 . S
O60 Nd40 2.500 1_565 S
O60 C42 1.258 . S
O61 Nd40 2.492 1_565 S
O61 C42 1.239 . S
O62 Nd40 2.487 . S
O62 C49 1.241 . S
O63 Nd40 2.682 . S
O63 Nd41 2.414 . S
O63 C49 1.273 . S
O64 Nd40 2.410 1_565 S
O64 C50 1.251 . S
O65 Nd41 2.424 1_565 S
O65 C50 1.268 . S
O66 Nd41 2.500 . S
O66 C51 1.258 . S
O67 Nd41 2.492 . S
O67 C51 1.239 . S
O68 Nd41 2.487 . S
O68 C58 1.241 . S
O69 Nd40 2.414 . S
O69 Nd41 2.682 . S
O69 C58 1.273 . S
O70 Nd41 2.410 . S
O70 C59 1.251 . S
O71 Nd40 2.424 . S
O71 C59 1.268 . S
H72 C44 0.930 . S
H73 C45 0.929 . S
H74 C47 0.930 . S
H75 C48 0.929 . S
H76 C53 0.930 . S
H77 C54 0.929 . S
H78 C56 0.930 . S
H79 C57 0.929 . S
Nd80 C82 2.836 . S
Nd80 O100 2.500 . S
Nd80 O101 2.492 . S
Nd80 O102 2.487 . S
Nd80 O103 2.682 . S
Nd80 O104 2.410 . S
Nd80 O109 2.414 . S
Nd80 O111 2.424 . S
Nd81 C91 2.836 . S
Nd81 O103 2.414 . S
Nd81 O105 2.424 . S
Nd81 O106 2.500 . S
Nd81 O107 2.492 . S
Nd81 O108 2.487 . S
Nd81 O109 2.682 . S
Nd81 O110 2.410 . S
C82 Nd80 2.836 . S
C82 C83 1.498 . S
C82 O100 1.258 . S
C82 O101 1.239 . S
C83 C82 1.498 . S
C83 C84 1.366 . S
C83 C88 1.407 . S
C84 C83 1.366 . S
C84 C85 1.392 . S
C84 H112 0.930 . S
C85 C84 1.392 . S
C85 C86 1.398 . S
C85 H113 0.929 . S
C86 C85 1.398 . S
C86 C87 1.352 . S
C87 C86 1.352 . S
C87 C88 1.384 . S
C87 H114 0.930 . S
C88 C83 1.407 . S
C88 C87 1.384 . S
C88 H115 0.929 . S
C89 O102 1.241 . S
C89 O103 1.273 . S
C90 O104 1.251 . S
C90 O105 1.268 . S
C91 Nd81 2.836 . S
C91 C92 1.498 . S
C91 O106 1.258 . S
C91 O107 1.239 . S
C92 C91 1.498 . S
C92 C93 1.366 . S
C92 C97 1.407 . S
C93 C92 1.366 . S
C93 C94 1.392 . S
C93 H116 0.930 . S
C94 C93 1.392 . S
C94 C95 1.398 . S
C94 H117 0.929 . S
C95 C94 1.398 . S
C95 C96 1.352 . S
C96 C95 1.352 . S
C96 C97 1.384 . S
C96 H118 0.930 . S
C97 C92 1.407 . S
C97 C96 1.384 . S
C97 H119 0.929 . S
C98 O108 1.241 . S
C98 O109 1.273 . S
C99 O110 1.251 . S
C99 O111 1.268 . S
O100 Nd80 2.500 . S
O100 C82 1.258 . S
O101 Nd80 2.492 . S
O101 C82 1.239 . S
O102 Nd80 2.487 . S
O102 C89 1.241 . S
O103 Nd80 2.682 . S
O103 Nd81 2.414 . S
O103 C89 1.273 . S
O104 Nd80 2.410 . S
O104 C90 1.251 . S
O105 Nd81 2.424 . S
O105 C90 1.268 . S
O106 Nd81 2.500 . S
O106 C91 1.258 . S
O107 Nd81 2.492 . S
O107 C91 1.239 . S
O108 Nd81 2.487 . S
O108 C98 1.241 . S
O109 Nd80 2.414 . S
O109 Nd81 2.682 . S
O109 C98 1.273 . S
O110 Nd81 2.410 . S
O110 C99 1.251 . S
O111 Nd80 2.424 . S
O111 C99 1.268 . S
H112 C84 0.930 . S
H113 C85 0.929 . S
H114 C87 0.930 . S
H115 C88 0.929 . S
H116 C93 0.930 . S
H117 C94 0.929 . S
H118 C96 0.930 . S
H119 C97 0.929 . S
H120 C125 0.930 . S
H121 C128 0.930 . S
H122 C130 0.930 . S
H123 C124 1.016 . S
C124 H123 1.016 . S
C124 N131 1.286 . S
C125 H120 0.930 . S
C125 C126 1.397 . S
C125 C127 1.361 . S
C126 C125 1.397 . S
C126 C130 1.390 . S
C127 C125 1.361 . S
C127 C128 1.393 . S
C127 N131 1.413 . S
C128 H121 0.930 . S
C128 C127 1.393 . S
C128 C129 1.399 . S
C129 C128 1.399 . S
C129 C130 1.381 . S
C130 H122 0.930 . S
C130 C126 1.390 . S
C130 C129 1.381 . S
N131 C124 1.286 . S
N131 C127 1.413 . S
H132 C137 0.930 . S
H133 C140 0.930 . S
H134 C142 0.930 . S
H135 C136 1.016 . S
C136 H135 1.016 . S
C136 N143 1.286 . S
C137 H132 0.930 . S
C137 C138 1.397 . S
C137 C139 1.361 . S
C138 C137 1.397 . S
C138 C142 1.390 . S
C139 C137 1.361 . S
C139 C140 1.393 . S
C139 N143 1.413 . S
C140 H133 0.930 . S
C140 C139 1.393 . S
C140 C141 1.399 . S
C141 C140 1.399 . S
C141 C142 1.381 . S
C142 H134 0.930 . S
C142 C138 1.390 . S
C142 C141 1.381 . S
N143 C136 1.286 . S
N143 C139 1.413 . S
H144 C149 0.930 . S
H145 C152 0.930 . S
H146 C154 0.930 . S
H147 C148 1.016 . S
C148 H147 1.016 . S
C148 N155 1.286 . S
C149 H144 0.930 . S
C149 C150 1.397 . S
C149 C151 1.361 . S
C150 C149 1.397 . S
C150 C154 1.390 . S
C151 C149 1.361 . S
C151 C152 1.393 . S
C151 N155 1.413 . S
C152 H145 0.930 . S
C152 C151 1.393 . S
C152 C153 1.399 . S
C153 C152 1.399 . S
C153 C154 1.381 . S
C154 H146 0.930 . S
C154 C150 1.390 . S
C154 C153 1.381 . S
N155 C148 1.286 . S
N155 C151 1.413 . S
H156 C161 0.930 . S
H157 C164 0.930 . S
H158 C166 0.930 . S
H159 C160 1.016 . S
C160 H159 1.016 . S
C160 N167 1.286 . S
C161 H156 0.930 . S
C161 C162 1.397 . S
C161 C163 1.361 1_455 S
C162 C161 1.397 . S
C162 C166 1.390 . S
C163 C161 1.361 1_655 S
C163 C164 1.393 . S
C163 N167 1.413 . S
C164 H157 0.930 . S
C164 C163 1.393 . S
C164 C165 1.399 1_655 S
C165 C164 1.399 1_455 S
C165 C166 1.381 . S
C166 H158 0.930 . S
C166 C162 1.390 . S
C166 C165 1.381 . S
N167 C160 1.286 . S
N167 C163 1.413 . S
H168 C173 0.930 . S
H169 C176 0.930 . S
H170 C178 0.930 . S
H171 C172 1.016 . S
C172 H171 1.016 . S
C172 N179 1.286 . S
C173 H168 0.930 . S
C173 C174 1.397 . S
C173 C175 1.361 . S
C174 C173 1.397 . S
C174 C178 1.390 . S
C175 C173 1.361 . S
C175 C176 1.393 1_545 S
C175 N179 1.413 1_545 S
C176 H169 0.930 . S
C176 C175 1.393 1_565 S
C176 C177 1.399 1_565 S
C177 C176 1.399 1_545 S
C177 C178 1.381 . S
C178 H170 0.930 . S
C178 C174 1.390 . S
C178 C177 1.381 . S
N179 C172 1.286 . S
N179 C175 1.413 1_565 S
H180 C185 0.930 . S
H181 C188 0.930 . S
H182 C190 0.930 . S
H183 C184 1.016 . S
C184 H183 1.016 . S
C184 N191 1.286 . S
C185 H180 0.930 . S
C185 C186 1.397 . S
C185 C187 1.361 . S
C186 C185 1.397 . S
C186 C190 1.390 . S
C187 C185 1.361 . S
C187 C188 1.393 . S
C187 N191 1.413 . S
C188 H181 0.930 . S
C188 C187 1.393 . S
C188 C189 1.399 . S
C189 C188 1.399 . S
C189 C190 1.381 . S
C190 H182 0.930 . S
C190 C186 1.390 . S
C190 C189 1.381 . S
N191 C184 1.286 . S
N191 C187 1.413 . S
C192 C193 1.349 . S
C192 C194 1.327 . S
C192 H217 0.950 . S
C193 C192 1.349 . S
C193 C209 1.349 . S
C194 C192 1.327 . S
C194 C213 1.429 . S
C194 H218 0.950 . S
C195 C212 1.574 . S
C195 C214 1.368 . S
C195 H219 0.949 . S
H196 C200 0.949 . S
C197 C198 1.349 . S
C197 C199 1.327 . S
C197 H220 0.950 . S
C198 C197 1.349 . S
C198 C210 1.349 . S
C199 C197 1.327 . S
C199 C215 1.429 . S
C199 H221 0.950 . S
C200 H196 0.949 . S
C200 C208 1.574 . S
C200 C216 1.368 . S
H201 C209 0.950 . S
H202 C207 0.950 . S
H203 C208 0.949 . S
H204 C210 0.950 . S
H205 C211 0.950 . S
H206 C212 0.949 . S
C207 H202 0.950 . S
C207 C209 1.327 . S
C207 C213 1.429 . S
C208 C200 1.574 . S
C208 H203 0.949 . S
C208 C214 1.368 . S
C209 C193 1.349 . S
C209 H201 0.950 . S
C209 C207 1.327 . S
C210 C198 1.349 . S
C210 H204 0.950 . S
C210 C211 1.327 . S
C211 H205 0.950 . S
C211 C210 1.327 . S
C211 C215 1.429 . S
C212 C195 1.574 . S
C212 H206 0.949 . S
C212 C216 1.368 . S
C213 C194 1.429 . S
C213 C207 1.429 . S
C213 C214 1.523 . S
C214 C195 1.368 . S
C214 C208 1.368 . S
C214 C213 1.523 . S
C215 C199 1.429 . S
C215 C211 1.429 . S
C215 C216 1.523 . S
C216 C200 1.368 . S
C216 C212 1.368 . S
C216 C215 1.523 . S
H217 C192 0.950 . S
H218 C194 0.950 . S
H219 C195 0.949 . S
H220 C197 0.950 . S
H221 C199 0.950 . S
C222 C223 1.349 . S
C222 C224 1.327 . S
C222 H247 0.950 . S
C223 C222 1.349 . S
C223 C239 1.349 . S
C224 C222 1.327 . S
C224 C243 1.429 . S
C224 H248 0.950 . S
C225 C242 1.574 . S
C225 C244 1.368 . S
C225 H249 0.949 . S
H226 C230 0.949 . S
C227 C228 1.349 . S
C227 C229 1.327 . S
C227 H250 0.950 . S
C228 C227 1.349 . S
C228 C240 1.349 . S
C229 C227 1.327 . S
C229 C245 1.429 . S
C229 H251 0.950 . S
C230 H226 0.949 . S
C230 C238 1.574 . S
C230 C246 1.368 . S
H231 C239 0.950 . S
H232 C237 0.950 . S
H233 C238 0.949 . S
H234 C240 0.950 . S
H235 C241 0.950 . S
H236 C242 0.949 . S
C237 H232 0.950 . S
C237 C239 1.327 . S
C237 C243 1.429 . S
C238 C230 1.574 . S
C238 H233 0.949 . S
C238 C244 1.368 . S
C239 C223 1.349 . S
C239 H231 0.950 . S
C239 C237 1.327 . S
C240 C228 1.349 . S
C240 H234 0.950 . S
C240 C241 1.327 . S
C241 H235 0.950 . S
C241 C240 1.327 . S
C241 C245 1.429 . S
C242 C225 1.574 . S
C242 H236 0.949 . S
C242 C246 1.368 . S
C243 C224 1.429 . S
C243 C237 1.429 . S
C243 C244 1.523 . S
C244 C225 1.368 . S
C244 C238 1.368 . S
C244 C243 1.523 . S
C245 C229 1.429 . S
C245 C241 1.429 . S
C245 C246 1.523 . S
C246 C230 1.368 . S
C246 C242 1.368 . S
C246 C245 1.523 . S
H247 C222 0.950 . S
H248 C224 0.950 . S
H249 C225 0.949 . S
H250 C227 0.950 . S
H251 C229 0.950 . S
C252 C253 1.349 . S
C252 C254 1.327 . S
C252 H277 0.950 . S
C253 C252 1.349 . S
C253 C269 1.349 . S
C254 C252 1.327 . S
C254 C273 1.429 . S
C254 H278 0.950 . S
C255 C272 1.574 . S
C255 C274 1.368 . S
C255 H279 0.949 . S
H256 C260 0.949 . S
C257 C258 1.349 . S
C257 C259 1.327 . S
C257 H280 0.950 . S
C258 C257 1.349 . S
C258 C270 1.349 . S
C259 C257 1.327 . S
C259 C275 1.429 . S
C259 H281 0.950 . S
C260 H256 0.949 . S
C260 C268 1.574 . S
C260 C276 1.368 . S
H261 C269 0.950 . S
H262 C267 0.950 . S
H263 C268 0.949 . S
H264 C270 0.950 . S
H265 C271 0.950 . S
H266 C272 0.949 . S
C267 H262 0.950 . S
C267 C269 1.327 . S
C267 C273 1.429 . S
C268 C260 1.574 . S
C268 H263 0.949 . S
C268 C274 1.368 . S
C269 C253 1.349 . S
C269 H261 0.950 . S
C269 C267 1.327 . S
C270 C258 1.349 . S
C270 H264 0.950 . S
C270 C271 1.327 . S
C271 H265 0.950 . S
C271 C270 1.327 . S
C271 C275 1.429 . S
C272 C255 1.574 . S
C272 H266 0.949 . S
C272 C276 1.368 . S
C273 C254 1.429 . S
C273 C267 1.429 . S
C273 C274 1.523 . S
C274 C255 1.368 . S
C274 C268 1.368 . S
C274 C273 1.523 . S
C275 C259 1.429 . S
C275 C271 1.429 . S
C275 C276 1.523 . S
C276 C260 1.368 . S
C276 C272 1.368 . S
C276 C275 1.523 . S
H277 C252 0.950 . S
H278 C254 0.950 . S
H279 C255 0.949 . S
H280 C257 0.950 . S
H281 C259 0.950 . S
C282 C283 1.349 . S
C282 C284 1.327 . S
C282 H307 0.950 . S
C283 C282 1.349 . S
C283 C299 1.349 . S
C284 C282 1.327 . S
C284 C303 1.429 . S
C284 H308 0.950 . S
C285 C302 1.574 . S
C285 C304 1.368 . S
C285 H309 0.949 . S
H286 C290 0.949 . S
C287 C288 1.349 . S
C287 C289 1.327 . S
C287 H310 0.950 . S
C288 C287 1.349 . S
C288 C300 1.349 . S
C289 C287 1.327 . S
C289 C305 1.429 . S
C289 H311 0.950 . S
C290 H286 0.949 . S
C290 C298 1.574 . S
C290 C306 1.368 . S
H291 C299 0.950 . S
H292 C297 0.950 . S
H293 C298 0.949 . S
H294 C300 0.950 . S
H295 C301 0.950 . S
H296 C302 0.949 . S
C297 H292 0.950 . S
C297 C299 1.327 . S
C297 C303 1.429 . S
C298 C290 1.574 . S
C298 H293 0.949 . S
C298 C304 1.368 . S
C299 C283 1.349 . S
C299 H291 0.950 . S
C299 C297 1.327 . S
C300 C288 1.349 . S
C300 H294 0.950 . S
C300 C301 1.327 . S
C301 H295 0.950 . S
C301 C300 1.327 . S
C301 C305 1.429 . S
C302 C285 1.574 . S
C302 H296 0.949 . S
C302 C306 1.368 . S
C303 C284 1.429 . S
C303 C297 1.429 . S
C303 C304 1.523 . S
C304 C285 1.368 . S
C304 C298 1.368 . S
C304 C303 1.523 . S
C305 C289 1.429 . S
C305 C301 1.429 . S
C305 C306 1.523 . S
C306 C290 1.368 . S
C306 C302 1.368 . S
C306 C305 1.523 . S
H307 C282 0.950 . S
H308 C284 0.950 . S
H309 C285 0.949 . S
H310 C287 0.950 . S
H311 C289 0.950 . S
C312 C313 1.349 . S
C312 C314 1.327 . S
C312 H337 0.950 . S
C313 C312 1.349 . S
C313 C329 1.349 . S
C314 C312 1.327 . S
C314 C333 1.429 . S
C314 H338 0.950 . S
C315 C332 1.574 . S
C315 C334 1.368 . S
C315 H339 0.949 . S
H316 C320 0.949 . S
C317 C318 1.349 . S
C317 C319 1.327 . S
C317 H340 0.950 . S
C318 C317 1.349 . S
C318 C330 1.349 . S
C319 C317 1.327 . S
C319 C335 1.429 . S
C319 H341 0.950 . S
C320 H316 0.949 . S
C320 C328 1.574 . S
C320 C336 1.368 . S
H321 C329 0.950 . S
H322 C327 0.950 . S
H323 C328 0.949 . S
H324 C330 0.950 . S
H325 C331 0.950 . S
H326 C332 0.949 . S
C327 H322 0.950 . S
C327 C329 1.327 . S
C327 C333 1.429 . S
C328 C320 1.574 . S
C328 H323 0.949 . S
C328 C334 1.368 . S
C329 C313 1.349 . S
C329 H321 0.950 . S
C329 C327 1.327 . S
C330 C318 1.349 . S
C330 H324 0.950 . S
C330 C331 1.327 . S
C331 H325 0.950 . S
C331 C330 1.327 . S
C331 C335 1.429 . S
C332 C315 1.574 . S
C332 H326 0.949 . S
C332 C336 1.368 . S
C333 C314 1.429 . S
C333 C327 1.429 . S
C333 C334 1.523 . S
C334 C315 1.368 . S
C334 C328 1.368 . S
C334 C333 1.523 . S
C335 C319 1.429 . S
C335 C331 1.429 . S
C335 C336 1.523 . S
C336 C320 1.368 . S
C336 C332 1.368 . S
C336 C335 1.523 . S
H337 C312 0.950 . S
H338 C314 0.950 . S
H339 C315 0.949 . S
H340 C317 0.950 . S
H341 C319 0.950 . S
C342 C343 1.349 . S
C342 C344 1.327 . S
C342 H367 0.950 . S
C343 C342 1.349 . S
C343 C359 1.349 . S
C344 C342 1.327 . S
C344 C363 1.429 . S
C344 H368 0.950 . S
C345 C362 1.574 . S
C345 C364 1.368 . S
C345 H369 0.949 . S
H346 C350 0.949 . S
C347 C348 1.349 . S
C347 C349 1.327 . S
C347 H370 0.950 . S
C348 C347 1.349 . S
C348 C360 1.349 . S
C349 C347 1.327 . S
C349 C365 1.429 . S
C349 H371 0.950 . S
C350 H346 0.949 . S
C350 C358 1.574 . S
C350 C366 1.368 . S
H351 C359 0.950 . S
H352 C357 0.950 . S
H353 C358 0.949 . S
H354 C360 0.950 . S
H355 C361 0.950 . S
H356 C362 0.949 . S
C357 H352 0.950 . S
C357 C359 1.327 . S
C357 C363 1.429 . S
C358 C350 1.574 . S
C358 H353 0.949 . S
C358 C364 1.368 . S
C359 C343 1.349 . S
C359 H351 0.950 . S
C359 C357 1.327 . S
C360 C348 1.349 . S
C360 H354 0.950 . S
C360 C361 1.327 . S
C361 H355 0.950 . S
C361 C360 1.327 . S
C361 C365 1.429 . S
C362 C345 1.574 . S
C362 H356 0.949 . S
C362 C366 1.368 . S
C363 C344 1.429 . S
C363 C357 1.429 . S
C363 C364 1.523 . S
C364 C345 1.368 . S
C364 C358 1.368 . S
C364 C363 1.523 . S
C365 C349 1.429 . S
C365 C361 1.429 . S
C365 C366 1.523 . S
C366 C350 1.368 . S
C366 C362 1.368 . S
C366 C365 1.523 . S
H367 C342 0.950 . S
H368 C344 0.950 . S
H369 C345 0.949 . S
H370 C347 0.950 . S
H371 C349 0.950 . S
C372 C373 1.349 . S
C372 C374 1.327 . S
C372 H397 0.950 . S
C373 C372 1.349 . S
C373 C389 1.349 . S
C374 C372 1.327 . S
C374 C393 1.429 . S
C374 H398 0.950 . S
C375 C392 1.574 . S
C375 C394 1.368 . S
C375 H399 0.949 . S
H376 C380 0.949 . S
C377 C378 1.349 . S
C377 C379 1.327 . S
C377 H400 0.950 . S
C378 C377 1.349 . S
C378 C390 1.349 . S
C379 C377 1.327 . S
C379 C395 1.429 . S
C379 H401 0.950 . S
C380 H376 0.949 . S
C380 C388 1.574 . S
C380 C396 1.368 . S
H381 C389 0.950 . S
H382 C387 0.950 . S
H383 C388 0.949 . S
H384 C390 0.950 . S
H385 C391 0.950 . S
H386 C392 0.949 . S
C387 H382 0.950 . S
C387 C389 1.327 . S
C387 C393 1.429 . S
C388 C380 1.574 . S
C388 H383 0.949 . S
C388 C394 1.368 . S
C389 C373 1.349 . S
C389 H381 0.950 . S
C389 C387 1.327 . S
C390 C378 1.349 . S
C390 H384 0.950 . S
C390 C391 1.327 . S
C391 H385 0.950 . S
C391 C390 1.327 . S
C391 C395 1.429 . S
C392 C375 1.574 . S
C392 H386 0.949 . S
C392 C396 1.368 . S
C393 C374 1.429 . S
C393 C387 1.429 . S
C393 C394 1.523 . S
C394 C375 1.368 . S
C394 C388 1.368 . S
C394 C393 1.523 . S
C395 C379 1.429 . S
C395 C391 1.429 . S
C395 C396 1.523 . S
C396 C380 1.368 . S
C396 C392 1.368 . S
C396 C395 1.523 . S
H397 C372 0.950 . S
H398 C374 0.950 . S
H399 C375 0.949 . S
H400 C377 0.950 . S
H401 C379 0.950 . S
C402 C403 1.349 . S
C402 C404 1.327 . S
C402 H427 0.950 . S
C403 C402 1.349 . S
C403 C419 1.349 . S
C404 C402 1.327 . S
C404 C423 1.429 . S
C404 H428 0.950 . S
C405 C422 1.574 . S
C405 C424 1.368 . S
C405 H429 0.949 . S
H406 C410 0.949 . S
C407 C408 1.349 . S
C407 C409 1.327 . S
C407 H430 0.950 . S
C408 C407 1.349 . S
C408 C420 1.349 . S
C409 C407 1.327 . S
C409 C425 1.429 . S
C409 H431 0.950 . S
C410 H406 0.949 . S
C410 C418 1.574 . S
C410 C426 1.368 . S
H411 C419 0.950 . S
H412 C417 0.950 . S
H413 C418 0.949 . S
H414 C420 0.950 1_455 S
H415 C421 0.950 . S
H416 C422 0.949 . S
C417 H412 0.950 . S
C417 C419 1.327 . S
C417 C423 1.429 . S
C418 C410 1.574 . S
C418 H413 0.949 . S
C418 C424 1.368 . S
C419 C403 1.349 . S
C419 H411 0.950 . S
C419 C417 1.327 . S
C420 C408 1.349 . S
C420 H414 0.950 1_655 S
C420 C421 1.327 . S
C421 H415 0.950 . S
C421 C420 1.327 . S
C421 C425 1.429 . S
C422 C405 1.574 . S
C422 H416 0.949 . S
C422 C426 1.368 . S
C423 C404 1.429 . S
C423 C417 1.429 . S
C423 C424 1.523 . S
C424 C405 1.368 . S
C424 C418 1.368 . S
C424 C423 1.523 . S
C425 C409 1.429 . S
C425 C421 1.429 . S
C425 C426 1.523 . S
C426 C410 1.368 . S
C426 C422 1.368 . S
C426 C425 1.523 . S
H427 C402 0.950 . S
H428 C404 0.950 . S
H429 C405 0.949 . S
H430 C407 0.950 . S
H431 C409 0.950 . S
C432 C433 1.349 . S
C432 C434 1.327 . S
C432 H457 0.950 . S
C433 C432 1.349 . S
C433 C449 1.349 . S
C434 C432 1.327 . S
C434 C453 1.429 . S
C434 H458 0.950 . S
C435 C452 1.574 . S
C435 C454 1.368 . S
C435 H459 0.949 . S
H436 C440 0.949 . S
C437 C438 1.355 1_565 S
C437 C439 1.326 . S
C437 H460 0.952 1_565 S
C438 C437 1.355 1_545 S
C438 C450 1.332 1_545 S
C439 C437 1.326 . S
C439 C455 1.429 . S
C439 H461 0.950 . S
C440 H436 0.949 . S
C440 C448 1.574 . S
C440 C456 1.368 . S
H441 C449 0.950 . S
H442 C447 0.950 . S
H443 C448 0.949 . S
H444 C450 0.950 . S
H445 C451 0.950 . S
H446 C452 0.949 . S
C447 H442 0.950 . S
C447 C449 1.327 . S
C447 C453 1.429 . S
C448 C440 1.574 . S
C448 H443 0.949 . S
C448 C454 1.368 . S
C449 C433 1.349 . S
C449 H441 0.950 . S
C449 C447 1.327 . S
C450 C438 1.332 1_565 S
C450 H444 0.950 . S
C450 C451 1.327 . S
C451 H445 0.950 . S
C451 C450 1.327 . S
C451 C455 1.429 . S
C452 C435 1.574 . S
C452 H446 0.949 . S
C452 C456 1.368 . S
C453 C434 1.429 . S
C453 C447 1.429 . S
C453 C454 1.523 . S
C454 C435 1.368 . S
C454 C448 1.368 . S
C454 C453 1.523 . S
C455 C439 1.429 . S
C455 C451 1.429 . S
C455 C456 1.523 . S
C456 C440 1.368 . S
C456 C452 1.368 . S
C456 C455 1.523 . S
H457 C432 0.950 . S
H458 C434 0.950 . S
H459 C435 0.949 . S
H460 C437 0.952 1_545 S
H461 C439 0.950 . S
C462 C463 1.349 . S
C462 C464 1.327 . S
C462 H487 0.950 . S
C463 C462 1.349 . S
C463 C479 1.349 . S
C464 C462 1.327 . S
C464 C483 1.429 . S
C464 H488 0.950 . S
C465 C482 1.574 . S
C465 C484 1.368 . S
C465 H489 0.949 . S
H466 C470 0.949 . S
C467 C468 1.349 . S
C467 C469 1.327 . S
C467 H490 0.950 . S
C468 C467 1.349 . S
C468 C480 1.349 . S
C469 C467 1.327 . S
C469 C485 1.429 . S
C469 H491 0.950 . S
C470 H466 0.949 . S
C470 C478 1.574 . S
C470 C486 1.368 . S
H471 C479 0.950 . S
H472 C477 0.950 . S
H473 C478 0.949 . S
H474 C480 0.950 . S
H475 C481 0.950 . S
H476 C482 0.949 . S
C477 H472 0.950 . S
C477 C479 1.327 . S
C477 C483 1.429 . S
C478 C470 1.574 . S
C478 H473 0.949 . S
C478 C484 1.368 . S
C479 C463 1.349 . S
C479 H471 0.950 . S
C479 C477 1.327 . S
C480 C468 1.349 . S
C480 H474 0.950 . S
C480 C481 1.327 . S
C481 H475 0.950 . S
C481 C480 1.327 . S
C481 C485 1.429 . S
C482 C465 1.574 . S
C482 H476 0.949 . S
C482 C486 1.368 . S
C483 C464 1.429 . S
C483 C477 1.429 . S
C483 C484 1.523 . S
C484 C465 1.368 . S
C484 C478 1.368 . S
C484 C483 1.523 . S
C485 C469 1.429 . S
C485 C481 1.429 . S
C485 C486 1.523 . S
C486 C470 1.368 . S
C486 C482 1.368 . S
C486 C485 1.523 . S
H487 C462 0.950 . S
H488 C464 0.950 . S
H489 C465 0.949 . S
H490 C467 0.950 . S
H491 C469 0.950 . S
C492 C493 1.349 . S
C492 C494 1.327 . S
C492 H517 0.950 . S
C493 C492 1.349 . S
C493 C509 1.349 . S
C494 C492 1.327 . S
C494 C513 1.429 . S
C494 H518 0.950 . S
C495 C512 1.574 . S
C495 C514 1.368 . S
C495 H519 0.949 . S
H496 C500 0.949 . S
C497 C498 1.349 . S
C497 C499 1.327 . S
C497 H520 0.950 . S
C498 C497 1.349 . S
C498 C510 1.349 . S
C499 C497 1.327 . S
C499 C515 1.429 . S
C499 H521 0.950 . S
C500 H496 0.949 . S
C500 C508 1.574 . S
C500 C516 1.368 . S
H501 C509 0.950 . S
H502 C507 0.950 . S
H503 C508 0.949 . S
H504 C510 0.950 . S
H505 C511 0.950 . S
H506 C512 0.949 . S
C507 H502 0.950 . S
C507 C509 1.327 . S
C507 C513 1.429 . S
C508 C500 1.574 . S
C508 H503 0.949 . S
C508 C514 1.368 . S
C509 C493 1.349 . S
C509 H501 0.950 . S
C509 C507 1.327 . S
C510 C498 1.349 . S
C510 H504 0.950 . S
C510 C511 1.327 . S
C511 H505 0.950 . S
C511 C510 1.327 . S
C511 C515 1.429 . S
C512 C495 1.574 . S
C512 H506 0.949 . S
C512 C516 1.368 . S
C513 C494 1.429 . S
C513 C507 1.429 . S
C513 C514 1.523 . S
C514 C495 1.368 . S
C514 C508 1.368 . S
C514 C513 1.523 . S
C515 C499 1.429 . S
C515 C511 1.429 . S
C515 C516 1.523 . S
C516 C500 1.368 . S
C516 C512 1.368 . S
C516 C515 1.523 . S
H517 C492 0.950 . S
H518 C494 0.950 . S
H519 C495 0.949 . S
H520 C497 0.950 . S
H521 C499 0.950 . S
C522 C523 1.349 . S
C522 C524 1.327 . S
C522 H547 0.950 . S
C523 C522 1.349 . S
C523 C539 1.349 . S
C524 C522 1.327 . S
C524 C543 1.429 . S
C524 H548 0.950 . S
C525 C542 1.574 . S
C525 C544 1.368 . S
C525 H549 0.949 . S
H526 C530 0.949 . S
C527 C528 1.349 . S
C527 C529 1.327 . S
C527 H550 0.950 . S
C528 C527 1.349 . S
C528 C540 1.349 . S
C529 C527 1.327 . S
C529 C545 1.429 . S
C529 H551 0.950 . S
C530 H526 0.949 . S
C530 C538 1.574 . S
C530 C546 1.368 . S
H531 C539 0.950 . S
H532 C537 0.950 . S
H533 C538 0.949 . S
H534 C540 0.950 . S
H535 C541 0.950 . S
H536 C542 0.949 . S
C537 H532 0.950 . S
C537 C539 1.327 . S
C537 C543 1.429 . S
C538 C530 1.574 . S
C538 H533 0.949 . S
C538 C544 1.368 . S
C539 C523 1.349 . S
C539 H531 0.950 . S
C539 C537 1.327 . S
C540 C528 1.349 . S
C540 H534 0.950 . S
C540 C541 1.327 . S
C541 H535 0.950 . S
C541 C540 1.327 . S
C541 C545 1.429 . S
C542 C525 1.574 . S
C542 H536 0.949 . S
C542 C546 1.368 . S
C543 C524 1.429 . S
C543 C537 1.429 . S
C543 C544 1.523 . S
C544 C525 1.368 . S
C544 C538 1.368 . S
C544 C543 1.523 . S
C545 C529 1.429 . S
C545 C541 1.429 . S
C545 C546 1.523 . S
C546 C530 1.368 . S
C546 C542 1.368 . S
C546 C545 1.523 . S
H547 C522 0.950 . S
H548 C524 0.950 . S
H549 C525 0.949 . S
H550 C527 0.950 . S
H551 C529 0.950 . S
C552 C553 1.349 . S
C552 C554 1.327 . S
C552 H577 0.950 . S
C553 C552 1.349 . S
C553 C569 1.349 . S
C554 C552 1.327 . S
C554 C573 1.429 . S
C554 H578 0.950 . S
C555 C572 1.574 . S
C555 C574 1.368 . S
C555 H579 0.949 . S
H556 C560 0.933 1_556 S
C557 C558 1.349 . S
C557 C559 1.327 . S
C557 H580 0.950 . S
C558 C557 1.349 . S
C558 C570 1.349 . S
C559 C557 1.327 . S
C559 C575 1.429 . S
C559 H581 0.950 . S
C560 H556 0.933 1_554 S
C560 C568 1.574 . S
C560 C576 1.368 1_554 S
H561 C569 0.950 . S
H562 C567 0.950 . S
H563 C568 0.949 . S
H564 C570 0.950 . S
H565 C571 0.950 . S
H566 C572 0.949 1_556 S
C567 H562 0.950 . S
C567 C569 1.327 . S
C567 C573 1.429 . S
C568 C560 1.574 . S
C568 H563 0.949 . S
C568 C574 1.368 . S
C569 C553 1.349 . S
C569 H561 0.950 . S
C569 C567 1.327 . S
C570 C558 1.349 . S
C570 H564 0.950 . S
C570 C571 1.327 . S
C571 H565 0.950 . S
C571 C570 1.327 . S
C571 C575 1.429 . S
C572 C555 1.574 . S
C572 H566 0.949 1_554 S
C572 C576 1.368 1_554 S
C573 C554 1.429 . S
C573 C567 1.429 . S
C573 C574 1.523 . S
C574 C555 1.368 . S
C574 C568 1.368 . S
C574 C573 1.523 . S
C575 C559 1.429 . S
C575 C571 1.429 . S
C575 C576 1.523 . S
C576 C560 1.368 1_556 S
C576 C572 1.368 1_556 S
C576 C575 1.523 . S
H577 C552 0.950 . S
H578 C554 0.950 . S
H579 C555 0.949 . S
H580 C557 0.950 . S
H581 C559 0.950 . S
C582 C583 1.349 . S
C582 C584 1.327 . S
C582 H607 0.950 . S
C583 C582 1.349 . S
C583 C599 1.349 . S
C584 C582 1.327 . S
C584 C603 1.429 . S
C584 H608 0.950 . S
C585 C602 1.574 . S
C585 C604 1.368 . S
C585 H609 0.949 . S
H586 C590 0.949 . S
C587 C588 1.349 . S
C587 C589 1.327 . S
C587 H610 0.950 . S
C588 C587 1.349 . S
C588 C600 1.349 . S
C589 C587 1.327 . S
C589 C605 1.429 . S
C589 H611 0.950 . S
C590 H586 0.949 . S
C590 C598 1.574 . S
C590 C606 1.368 . S
H591 C599 0.950 . S
H592 C597 0.950 . S
H593 C598 0.949 . S
H594 C600 0.950 . S
H595 C601 0.950 . S
H596 C602 0.949 . S
C597 H592 0.950 . S
C597 C599 1.327 . S
C597 C603 1.429 . S
C598 C590 1.574 . S
C598 H593 0.949 . S
C598 C604 1.368 . S
C599 C583 1.349 . S
C599 H591 0.950 . S
C599 C597 1.327 . S
C600 C588 1.349 . S
C600 H594 0.950 . S
C600 C601 1.327 . S
C601 H595 0.950 . S
C601 C600 1.327 . S
C601 C605 1.429 . S
C602 C585 1.574 . S
C602 H596 0.949 . S
C602 C606 1.368 . S
C603 C584 1.429 . S
C603 C597 1.429 . S
C603 C604 1.523 . S
C604 C585 1.368 . S
C604 C598 1.368 . S
C604 C603 1.523 . S
C605 C589 1.429 . S
C605 C601 1.429 . S
C605 C606 1.523 . S
C606 C590 1.368 . S
C606 C602 1.368 . S
C606 C605 1.523 . S
H607 C582 0.950 . S
H608 C584 0.950 . S
H609 C585 0.949 . S
H610 C587 0.950 . S
H611 C589 0.950 . S
C612 C613 1.349 . S
C612 C614 1.327 . S
C612 H637 0.950 . S
C613 C612 1.349 . S
C613 C629 1.349 . S
C614 C612 1.327 . S
C614 C633 1.429 . S
C614 H638 0.950 . S
C615 C632 1.574 . S
C615 C634 1.368 . S
C615 H639 0.949 . S
H616 C620 0.949 . S
C617 C618 1.349 . S
C617 C619 1.327 . S
C617 H640 0.950 . S
C618 C617 1.349 . S
C618 C630 1.349 . S
C619 C617 1.327 . S
C619 C635 1.429 . S
C619 H641 0.950 . S
C620 H616 0.949 . S
C620 C628 1.574 . S
C620 C636 1.368 . S
H621 C629 0.950 . S
H622 C627 0.950 . S
H623 C628 0.949 . S
H624 C630 0.950 . S
H625 C631 0.950 . S
H626 C632 0.949 . S
C627 H622 0.950 . S
C627 C629 1.327 . S
C627 C633 1.429 . S
C628 C620 1.574 . S
C628 H623 0.949 . S
C628 C634 1.368 . S
C629 C613 1.349 . S
C629 H621 0.950 . S
C629 C627 1.327 . S
C630 C618 1.349 . S
C630 H624 0.950 . S
C630 C631 1.327 . S
C631 H625 0.950 . S
C631 C630 1.327 . S
C631 C635 1.429 . S
C632 C615 1.574 . S
C632 H626 0.949 . S
C632 C636 1.368 . S
C633 C614 1.429 . S
C633 C627 1.429 . S
C633 C634 1.523 . S
C634 C615 1.368 . S
C634 C628 1.368 . S
C634 C633 1.523 . S
C635 C619 1.429 . S
C635 C631 1.429 . S
C635 C636 1.523 . S
C636 C620 1.368 . S
C636 C632 1.368 . S
C636 C635 1.523 . S
H637 C612 0.950 . S
H638 C614 0.950 . S
H639 C615 0.949 . S
H640 C617 0.950 . S
H641 C619 0.950 . S
C642 C643 1.349 . S
C642 C644 1.327 . S
C642 H667 0.950 . S
C643 C642 1.349 . S
C643 C659 1.349 . S
C644 C642 1.327 . S
C644 C663 1.429 . S
C644 H668 0.950 . S
C645 C662 1.574 . S
C645 C664 1.368 . S
C645 H669 0.949 1_545 S
H646 C650 0.949 . S
C647 C648 1.350 1_565 S
C647 C649 1.327 1_565 S
C647 H670 0.948 . S
C648 C647 1.350 1_545 S
C648 C660 1.349 . S
C649 C647 1.327 1_545 S
C649 C665 1.429 . S
C649 H671 0.950 1_545 S
C650 H646 0.949 . S
C650 C658 1.574 . S
C650 C666 1.368 . S
H651 C659 0.950 . S
H652 C657 0.950 1_565 S
H653 C658 0.949 . S
H654 C660 0.950 . S
H655 C661 0.950 . S
H656 C662 0.949 1_565 S
C657 H652 0.950 1_545 S
C657 C659 1.327 . S
C657 C663 1.429 . S
C658 C650 1.574 . S
C658 H653 0.949 . S
C658 C664 1.368 . S
C659 C643 1.349 . S
C659 H651 0.950 . S
C659 C657 1.327 . S
C660 C648 1.349 . S
C660 H654 0.950 . S
C660 C661 1.327 . S
C661 H655 0.950 . S
C661 C660 1.327 . S
C661 C665 1.429 . S
C662 C645 1.574 . S
C662 H656 0.949 1_545 S
C662 C666 1.368 . S
C663 C644 1.429 . S
C663 C657 1.429 . S
C663 C664 1.523 . S
C664 C645 1.368 . S
C664 C658 1.368 . S
C664 C663 1.523 . S
C665 C649 1.429 . S
C665 C661 1.429 . S
C665 C666 1.523 . S
C666 C650 1.368 . S
C666 C662 1.368 . S
C666 C665 1.523 . S
H667 C642 0.950 . S
H668 C644 0.950 . S
H669 C645 0.949 1_565 S
H670 C647 0.948 . S
H671 C649 0.950 1_565 S
C672 C673 1.349 . S
C672 C674 1.327 . S
C672 H697 0.950 . S
C673 C672 1.349 . S
C673 C689 1.349 . S
C674 C672 1.327 . S
C674 C693 1.429 . S
C674 H698 0.950 . S
C675 C692 1.574 . S
C675 C694 1.368 . S
C675 H699 0.949 . S
H676 C680 0.949 1_554 S
C677 C678 1.349 . S
C677 C679 1.327 . S
C677 H700 0.950 . S
C678 C677 1.349 . S
C678 C690 1.349 . S
C679 C677 1.327 . S
C679 C695 1.429 . S
C679 H701 0.950 . S
C680 H676 0.949 1_556 S
C680 C688 1.574 . S
C680 C696 1.368 1_556 S
H681 C689 0.950 . S
H682 C687 0.950 . S
H683 C688 0.949 . S
H684 C690 0.950 . S
H685 C691 0.950 . S
H686 C692 0.949 1_554 S
C687 H682 0.950 . S
C687 C689 1.327 . S
C687 C693 1.429 . S
C688 C680 1.574 . S
C688 H683 0.949 . S
C688 C694 1.368 . S
C689 C673 1.349 . S
C689 H681 0.950 . S
C689 C687 1.327 . S
C690 C678 1.349 . S
C690 H684 0.950 . S
C690 C691 1.327 . S
C691 H685 0.950 . S
C691 C690 1.327 . S
C691 C695 1.429 . S
C692 C675 1.574 . S
C692 H686 0.949 1_556 S
C692 C696 1.368 1_556 S
C693 C674 1.429 . S
C693 C687 1.429 . S
C693 C694 1.523 . S
C694 C675 1.368 . S
C694 C688 1.368 . S
C694 C693 1.523 . S
C695 C679 1.429 . S
C695 C691 1.429 . S
C695 C696 1.523 . S
C696 C680 1.368 1_554 S
C696 C692 1.368 1_554 S
C696 C695 1.523 . S
H697 C672 0.950 . S
H698 C674 0.950 . S
H699 C675 0.949 . S
H700 C677 0.950 . S
H701 C679 0.950 . S
C702 C703 1.349 . S
C702 C704 1.327 . S
C702 H727 0.950 . S
C703 C702 1.349 . S
C703 C719 1.349 . S
C704 C702 1.327 . S
C704 C723 1.429 . S
C704 H728 0.950 . S
C705 C722 1.574 . S
C705 C724 1.368 . S
C705 H729 0.949 . S
H706 C710 0.949 . S
C707 C708 1.349 . S
C707 C709 1.327 . S
C707 H730 0.950 . S
C708 C707 1.349 . S
C708 C720 1.349 . S
C709 C707 1.327 . S
C709 C725 1.429 . S
C709 H731 0.950 . S
C710 H706 0.949 . S
C710 C718 1.574 . S
C710 C726 1.368 . S
H711 C719 0.950 . S
H712 C717 0.950 . S
H713 C718 0.949 . S
H714 C720 0.950 . S
H715 C721 0.950 . S
H716 C722 0.949 . S
C717 H712 0.950 . S
C717 C719 1.327 . S
C717 C723 1.429 . S
C718 C710 1.574 . S
C718 H713 0.949 . S
C718 C724 1.368 . S
C719 C703 1.349 . S
C719 H711 0.950 . S
C719 C717 1.327 . S
C720 C708 1.349 . S
C720 H714 0.950 . S
C720 C721 1.327 . S
C721 H715 0.950 . S
C721 C720 1.327 . S
C721 C725 1.429 . S
C722 C705 1.574 . S
C722 H716 0.949 . S
C722 C726 1.368 . S
C723 C704 1.429 . S
C723 C717 1.429 . S
C723 C724 1.523 . S
C724 C705 1.368 . S
C724 C718 1.368 . S
C724 C723 1.523 . S
C725 C709 1.429 . S
C725 C721 1.429 . S
C725 C726 1.523 . S
C726 C710 1.368 . S
C726 C722 1.368 . S
C726 C725 1.523 . S
H727 C702 0.950 . S
H728 C704 0.950 . S
H729 C705 0.949 . S
H730 C707 0.950 . S
H731 C709 0.950 . S
C193 C10 3.407 . S
C198 C186 3.382 . S
C223 C55 1.258 . S
C228 C160 1.244 . S
C253 C90 1.933 . S
C258 C172 1.884 . S
C283 C19 2.662 . S
C288 C184 2.578 . S
C318 C162 1.112 . S
C313 C46 1.115 . S
C348 C174 1.844 . S
C343 C99 1.856 . S
C373 C50 1.932 . S
C378 C136 1.876 . S
C403 C95 0.753 . S
C408 C150 0.753 1_655 S
C433 C6 1.113 . S
C438 C126 1.114 . S
C468 C138 1.821 . S
C463 C59 1.843 . S
C498 C148 0.392 . S
C493 C86 0.324 . S
C523 C15 1.247 . S
C528 C124 1.232 . S
C558 C153 1.279 . S
C553 C18 1.241 . S
C583 C49 1.523 . S
C588 C129 1.539 . S
C613 C98 1.411 . S
C618 C141 1.447 . S
C648 C177 1.481 . S
C643 C58 1.423 . S
C678 C189 1.752 . S
C673 C89 1.677 . S
C703 C9 1.500 . S
C708 C165 1.525 . S
