# Generated by pormake.
# Topology rtl, (3,6)-cn, num edge types: 1
# Building blocks:
#     Node 0, Type 0, BuildingBlock: VETTIZ_charged_linker_0, # of connection points: 3
#     Node 1, Type 0, BuildingBlock: VETTIZ_charged_linker_0, # of connection points: 3
#     Node 2, Type 0, BuildingBlock: VETTIZ_charged_linker_0, # of connection points: 3
#     Node 3, Type 0, BuildingBlock: VETTIZ_charged_linker_0, # of connection points: 3
#     Node 4, Type 1, BuildingBlock: CIFDUS_clean_sbu_1, # of connection points: 6
#     Node 5, Type 1, BuildingBlock: CIFDUS_clean_sbu_1, # of connection points: 6
#     Edge 6, Type (0, 1), BuildingBlock: MIFKUJ_clean_linker_0, # of connection points: 2
#     Edge 7, Type (0, 1), BuildingBlock: MIFKUJ_clean_linker_0, # of connection points: 2
#     Edge 8, Type (0, 1), BuildingBlock: MIFKUJ_clean_linker_0, # of connection points: 2
#     Edge 9, Type (0, 1), BuildingBlock: MIFKUJ_clean_linker_0, # of connection points: 2
#     Edge 10, Type (0, 1), BuildingBlock: MIFKUJ_clean_linker_0, # of connection points: 2
#     Edge 11, Type (0, 1), BuildingBlock: MIFKUJ_clean_linker_0, # of connection points: 2
#     Edge 12, Type (0, 1), BuildingBlock: MIFKUJ_clean_linker_0, # of connection points: 2
#     Edge 13, Type (0, 1), BuildingBlock: MIFKUJ_clean_linker_0, # of connection points: 2
#     Edge 14, Type (0, 1), BuildingBlock: MIFKUJ_clean_linker_0, # of connection points: 2
#     Edge 15, Type (0, 1), BuildingBlock: MIFKUJ_clean_linker_0, # of connection points: 2
#     Edge 16, Type (0, 1), BuildingBlock: MIFKUJ_clean_linker_0, # of connection points: 2
#     Edge 17, Type (0, 1), BuildingBlock: MIFKUJ_clean_linker_0, # of connection points: 2
# Relax obj value: 0.030
# Max RMSD: 0.064
# Mean RMSD: 0.050
data_MOF--net-rtl--node1-CIFDUS_clean_sbu_1--node2-VETTIZ_charged_linker_0--edge1-MIFKUJ_clean_linker_0
_symmetry_space_group_name_H-M    P1
_symmetry_Int_Tables_number       1
_symmetry_cell_setting            triclinic
loop_
_symmetry_equiv_pos_as_xyz
'x, y, z'
_cell_length_a     45.957889
_cell_length_b     52.343071
_cell_length_c     36.73201
_cell_angle_alpha  90.098304
_cell_angle_beta   97.655281
_cell_angle_gamma 89.894244
loop_
_atom_site_label
_atom_site_type_symbol
_atom_site_fract_x
_atom_site_fract_y
_atom_site_fract_z
_atom_type_partial_charge
C0 C 0.24988 0.92305 0.96521 0.0
C1 C 0.22804 0.94209 0.95951 0.0
C2 C 0.21971 0.95499 0.99024 0.0
C3 C 0.25224 0.92823 0.03133 0.0
C4 C 0.2616 0.91643 1.00126 0.0
C5 C 0.28329 0.89533 0.01246 0.0
H6 H 0.3507 0.81758 0.14529 0.0
C7 C 0.2665 0.91533 0.06488 0.0
C8 C 0.2849 0.89612 0.0541 0.0
H9 H 0.35383 0.81443 0.02844 0.0
H10 H 0.3254 0.85333 0.01987 0.0
H11 H 0.35822 0.88155 0.15315 0.0
H12 H 0.28267 0.83176 0.1393 0.0
H13 H 0.27821 0.85453 0.17336 0.0
H14 H 0.30825 0.83225 0.18078 0.0
H15 H 0.34993 0.86051 0.18893 0.0
H16 H 0.33333 0.89174 0.18271 0.0
C17 C 0.31297 0.90272 0.99979 0.0
C18 C 0.27001 0.86993 0.99602 0.0
C19 C 0.23435 0.93844 0.18759 0.0
C20 C 0.24156 0.92902 0.22345 0.0
C21 C 0.26397 0.91051 0.2302 0.0
C22 C 0.27804 0.90076 0.20135 0.0
C23 C 0.26967 0.90965 0.16531 0.0
C24 C 0.24867 0.92867 0.15922 0.0
C25 C 0.24274 0.93629 0.11954 0.0
C26 C 0.263 0.91827 0.10248 0.0
C27 C 0.27868 0.90253 0.12926 0.0
C28 C 0.25213 0.96455 0.11639 0.0
C29 C 0.20988 0.93095 0.10585 0.0
C30 C 0.34548 0.8256 0.11803 0.0
C31 C 0.35435 0.81309 0.0874 0.0
C32 C 0.34707 0.82381 0.05228 0.0
C33 C 0.33048 0.84631 0.0474 0.0
C34 C 0.32049 0.85804 0.0779 0.0
C35 C 0.32843 0.84798 0.11263 0.0
C36 C 0.31511 0.86282 0.14157 0.0
C37 C 0.29755 0.8831 0.11841 0.0
C38 C 0.30078 0.8801 0.08108 0.0
C39 C 0.34032 0.87472 0.16831 0.0
C40 C 0.29509 0.84452 0.16007 0.0
H41 H 0.22391 0.95847 0.04807 0.0
H42 H 0.25669 0.91268 0.94223 0.0
H43 H 0.24573 0.86979 0.9953 0.0
H44 H 0.27761 0.85301 0.01249 0.0
H45 H 0.27485 0.86714 0.96744 0.0
H46 H 0.31689 0.92364 1.00279 0.0
H47 H 0.31334 0.89772 0.97045 0.0
H48 H 0.332 0.89375 0.01657 0.0
H49 H 0.21763 0.95302 0.18162 0.0
H50 H 0.26998 0.90299 0.25764 0.0
H51 H 0.29451 0.88636 0.20807 0.0
H52 H 0.27149 0.96909 0.13694 0.0
H53 H 0.23415 0.9778 0.12129 0.0
H54 H 0.25933 0.96898 0.08957 0.0
H55 H 0.2021 0.91375 0.11947 0.0
H56 H 0.20556 0.92656 0.07625 0.0
H57 H 0.19585 0.94729 0.11196 0.0
H58 H 0.20342 0.97007 0.98663 0.0
C59 C 0.23173 0.94826 0.02597 0.0
C60 C 0.7263 0.629 0.70464 0.0
C61 C 0.70578 0.60906 0.70547 0.0
C62 C 0.69463 0.59694 0.6722 0.0
C63 C 0.72404 0.62417 0.63845 0.0
C64 C 0.73517 0.63614 0.67089 0.0
C65 C 0.75645 0.65709 0.66459 0.0
H66 H 0.82533 0.72591 0.54448 0.0
C67 C 0.73719 0.63614 0.60815 0.0
C68 C 0.75643 0.65538 0.62319 0.0
H69 H 0.82877 0.73744 0.66143 0.0
H70 H 0.79776 0.70054 0.66556 0.0
H71 H 0.82957 0.66334 0.54627 0.0
H72 H 0.75784 0.71682 0.53067 0.0
H73 H 0.74866 0.69168 0.49976 0.0
H74 H 0.78083 0.71057 0.49581 0.0
H75 H 0.82067 0.68125 0.50465 0.0
H76 H 0.80352 0.65092 0.51139 0.0
C77 C 0.78682 0.65023 0.68581 0.0
C78 C 0.74367 0.68281 0.67621 0.0
C79 C 0.70308 0.609 0.47642 0.0
C80 C 0.71037 0.61737 0.44238 0.0
C81 C 0.7335 0.63501 0.44203 0.0
C82 C 0.74818 0.64501 0.4748 0.0
C83 C 0.73964 0.63745 0.50848 0.0
C84 C 0.71797 0.61924 0.50897 0.0
C85 C 0.71217 0.61322 0.54738 0.0
C86 C 0.73311 0.63156 0.56968 0.0
C87 C 0.74904 0.64575 0.54674 0.0
C88 C 0.72082 0.58495 0.5555 0.0
C89 C 0.67959 0.61964 0.55026 0.0
C90 C 0.81976 0.7202 0.57103 0.0
C91 C 0.8295 0.73451 0.60269 0.0
C92 C 0.82132 0.72678 0.63665 0.0
C93 C 0.80331 0.70537 0.63896 0.0
C94 C 0.79294 0.69171 0.60688 0.0
C95 C 0.80134 0.69914 0.57368 0.0
C96 C 0.78695 0.68333 0.54213 0.0
C97 C 0.76859 0.66518 0.56179 0.0
C98 C 0.77224 0.67005 0.59978 0.0
C99 C 0.81129 0.66902 0.52483 0.0
C100 C 0.76767 0.70136 0.51539 0.0
H101 H 0.69409 0.59434 0.61474 0.0
H102 H 0.73536 0.63872 0.72964 0.0
H103 H 0.71927 0.68282 0.67067 0.0
H104 H 0.75044 0.69924 0.66053 0.0
H105 H 0.74993 0.68643 0.70603 0.0
H106 H 0.79158 0.62955 0.68279 0.0
H107 H 0.78754 0.65436 0.71559 0.0
H108 H 0.80507 0.66035 0.67542 0.0
H109 H 0.68542 0.59551 0.47778 0.0
H110 H 0.7401 0.6413 0.41628 0.0
H111 H 0.76527 0.65862 0.47258 0.0
H112 H 0.73958 0.57917 0.54101 0.0
H113 H 0.70225 0.5719 0.54629 0.0
H114 H 0.7286 0.58143 0.58485 0.0
H115 H 0.67234 0.63677 0.53354 0.0
H116 H 0.67565 0.62463 0.5784 0.0
H117 H 0.66496 0.60356 0.54012 0.0
H118 H 0.67835 0.58197 0.67171 0.0
C119 C 0.70367 0.60428 0.63892 0.0
C120 C 0.78897 0.12356 0.12986 0.0
C121 C 0.8115 0.1052 0.13628 0.0
C122 C 0.82167 0.0933 0.10586 0.0
C123 C 0.78882 0.11929 0.06401 0.0
C124 C 0.77813 0.13037 0.09368 0.0
C125 C 0.75554 0.15067 0.08213 0.0
H126 H 0.69303 0.23098 0.95082 0.0
C127 C 0.77466 0.13201 0.03031 0.0
C128 C 0.7551 0.15042 0.04065 0.0
H129 H 0.67827 0.22601 0.06468 0.0
H130 H 0.70861 0.18868 0.0727 0.0
H131 H 0.76076 0.21595 0.95949 0.0
H132 H 0.6842 0.16769 0.93873 0.0
H133 H 0.71029 0.15703 0.91125 0.0
H134 H 0.69489 0.18868 0.90427 0.0
H135 H 0.73601 0.21722 0.91731 0.0
H136 H 0.76545 0.19433 0.92392 0.0
C137 C 0.76724 0.17628 0.09951 0.0
C138 C 0.72579 0.142 0.0935 0.0
C139 C 0.80736 0.10868 0.90806 0.0
C140 C 0.80035 0.11806 0.87212 0.0
C141 C 0.77921 0.13772 0.86563 0.0
C142 C 0.76564 0.14801 0.89449 0.0
C143 C 0.77329 0.13864 0.93035 0.0
C144 C 0.79362 0.11911 0.93646 0.0
C145 C 0.79949 0.11159 0.97617 0.0
C146 C 0.77905 0.12957 0.99296 0.0
C147 C 0.76386 0.14558 0.96616 0.0
C148 C 0.83228 0.11713 0.99003 0.0
C149 C 0.79028 0.0833 0.97947 0.0
C150 C 0.69607 0.22181 0.97744 0.0
C151 C 0.68397 0.23242 0.00751 0.0
C152 C 0.68829 0.21928 0.04139 0.0
C153 C 0.70579 0.19733 0.04603 0.0
C154 C 0.71911 0.18799 0.0165 0.0
C155 C 0.71322 0.19948 0.98249 0.0
C156 C 0.72764 0.18541 0.95373 0.0
C157 C 0.74435 0.16456 0.97667 0.0
C158 C 0.73951 0.16648 0.01356 0.0
C159 C 0.7485 0.2041 0.93742 0.0
C160 C 0.70315 0.17419 0.9252 0.0
H161 H 0.81944 0.09062 0.04807 0.0
H162 H 0.78023 0.13277 0.15251 0.0
H163 H 0.72438 0.12082 0.09495 0.0
H164 H 0.70688 0.14762 0.0732 0.0
H165 H 0.72266 0.1497 0.12091 0.0
H166 H 0.79089 0.17868 0.09669 0.0
H167 H 0.76507 0.17689 0.12926 0.0
H168 H 0.7562 0.19321 0.08631 0.0
H169 H 0.82382 0.09394 0.91431 0.0
H170 H 0.77307 0.14511 0.83816 0.0
H171 H 0.74992 0.16303 0.88783 0.0
H172 H 0.84051 0.13354 0.97512 0.0
H173 H 0.84631 0.10036 0.98584 0.0
H174 H 0.83613 0.12288 0.01921 0.0
H175 H 0.77022 0.07899 0.95997 0.0
H176 H 0.78437 0.07856 0.00684 0.0
H177 H 0.8079 0.07014 0.97307 0.0
H178 H 0.83918 0.07929 0.10978 0.0
C179 C 0.81037 0.10012 0.06989 0.0
C180 C 0.25915 0.42309 0.37759 0.0
C181 C 0.28152 0.44166 0.37743 0.0
C182 C 0.29267 0.45328 0.41119 0.0
C183 C 0.26008 0.42833 0.44349 0.0
C184 C 0.2491 0.41653 0.41092 0.0
C185 C 0.22744 0.39575 0.41689 0.0
H186 H 0.15818 0.32761 0.5373 0.0
C187 C 0.24634 0.41663 0.47346 0.0
C188 C 0.22717 0.3974 0.45827 0.0
H189 H 0.15597 0.31462 0.42047 0.0
H190 H 0.18532 0.35227 0.4159 0.0
H191 H 0.22266 0.33324 0.55107 0.0
H192 H 0.15652 0.39178 0.53618 0.0
H193 H 0.18215 0.39965 0.57475 0.0
H194 H 0.16183 0.37027 0.57455 0.0
H195 H 0.2049 0.34438 0.5887 0.0
H196 H 0.23782 0.35927 0.57689 0.0
C197 C 0.23998 0.36992 0.40533 0.0
C198 C 0.19729 0.40283 0.39539 0.0
C199 C 0.27821 0.4457 0.60465 0.0
C200 C 0.27379 0.43565 0.63916 0.0
C201 C 0.25314 0.41559 0.63957 0.0
C202 C 0.238 0.40569 0.60698 0.0
C203 C 0.24415 0.41503 0.57309 0.0
C204 C 0.26397 0.43469 0.57235 0.0
C205 C 0.27004 0.44051 0.53401 0.0
C206 C 0.25022 0.42129 0.51187 0.0
C207 C 0.2349 0.40661 0.53485 0.0
C208 C 0.3031 0.43514 0.53204 0.0
C209 C 0.2602 0.46834 0.52485 0.0
C210 C 0.16396 0.33261 0.51061 0.0
C211 C 0.15465 0.31763 0.47934 0.0
C212 C 0.16236 0.32568 0.44515 0.0
C213 C 0.17987 0.34743 0.44255 0.0
C214 C 0.19041 0.36113 0.47452 0.0
C215 C 0.18216 0.35372 0.50775 0.0
C216 C 0.19712 0.36906 0.53942 0.0
C217 C 0.21538 0.38721 0.51972 0.0
C218 C 0.21138 0.38263 0.48163 0.0
C219 C 0.21651 0.3507 0.56564 0.0
C220 C 0.17329 0.38342 0.55751 0.0
H221 H 0.29127 0.45686 0.46809 0.0
H222 H 0.24973 0.41363 0.3526 0.0
H223 H 0.19248 0.42346 0.39898 0.0
H224 H 0.17893 0.39243 0.40507 0.0
H225 H 0.19695 0.39916 0.36554 0.0
H226 H 0.26433 0.36954 0.41169 0.0
H227 H 0.23427 0.36657 0.37537 0.0
H228 H 0.23252 0.3535 0.42043 0.0
H229 H 0.29307 0.46137 0.60214 0.0
H230 H 0.24913 0.40656 0.66482 0.0
H231 H 0.22278 0.3905 0.60949 0.0
H232 H 0.31248 0.42138 0.55354 0.0
H233 H 0.3163 0.45292 0.53594 0.0
H234 H 0.30692 0.42594 0.50594 0.0
H235 H 0.23911 0.47258 0.53541 0.0
H236 H 0.25595 0.47208 0.49504 0.0
H237 H 0.27679 0.48219 0.53766 0.0
H238 H 0.31054 0.46681 0.41311 0.0
C239 C 0.28177 0.44709 0.44375 0.0
O240 O 0.99081 0.03377 0.50079 0.0
Mn241 Mn 0.01572 0.0159 0.54706 0.0
O242 O 0.96163 0.00342 0.47472 0.0
Mn243 Mn 0.98945 0.97992 0.4909 0.0
O244 O 0.0413 0.99666 0.59221 0.0
O245 O 0.03517 0.05303 0.55516 0.0
Mn246 Mn 0.03902 0.0459 0.60372 0.0
O247 O 0.98167 0.02467 0.57763 0.0
O248 O 0.07078 0.02614 0.61798 0.0
O249 O 0.04852 0.00647 0.51373 0.0
O250 O 0.02381 0.98151 0.47063 0.0
O251 O 0.04839 0.07785 0.60581 0.0
O252 O 0.00662 0.04111 0.62751 0.0
C253 C 0.98335 0.95756 0.53429 0.0
C254 C 0.9693 0.02651 0.47702 0.0
C255 C 0.06482 1.00302 0.61319 0.0
C256 C 0.04546 0.07493 0.57048 0.0
C257 C 0.98287 0.03309 0.61037 0.0
C258 C 0.04694 0.99341 0.4837 0.0
O259 O 0.9959 0.98016 0.53929 0.0
O260 O 0.97614 0.94929 0.50099 0.0
O261 O 0.52401 0.5317 0.09026 0.0
Mn262 Mn 0.49894 0.51671 0.04303 0.0
O263 O 0.52511 0.49876 0.12921 0.0
Mn264 Mn 0.50883 0.47507 0.09529 0.0
O265 O 0.47336 0.50122 0.9956 0.0
O266 O 0.47907 0.55168 0.03289 0.0
Mn267 Mn 0.4772 0.55616 0.98476 0.0
O268 O 0.53315 0.52543 0.01241 0.0
O269 O 0.44837 0.53389 0.96638 0.0
O270 O 0.46366 0.50925 0.07371 0.0
O271 O 0.46949 0.46943 0.09271 0.0
O272 O 0.47473 0.588 0.00364 0.0
O273 O 0.51249 0.55097 0.96731 0.0
C274 C 0.53229 0.45857 0.05815 0.0
C275 C 0.53121 0.52178 0.12225 0.0
C276 C 0.45316 0.5101 0.97096 0.0
C277 C 0.48008 0.57656 0.03505 0.0
C278 C 0.53413 0.53835 0.98294 0.0
C279 C 0.45367 0.48902 0.08737 0.0
O280 O 0.51966 0.48109 0.05142 0.0
O281 O 0.5301 0.4475 0.08923 0.0
H282 H 0.11355 0.29324 0.42894 0.0
H283 H 0.09325 0.25044 0.43338 0.0
H284 H 0.13884 0.24338 0.54343 0.0
H285 H 0.16125 0.28468 0.53809 0.0
H286 H 0.1478 0.20325 0.50924 0.0
H287 H 0.0605 0.25216 0.52046 0.0
H288 H 0.02094 0.28322 0.50157 0.0
H289 H 0.99453 0.23993 0.40333 0.0
H290 H 0.03414 0.20876 0.42148 0.0
H291 H 0.08165 0.11186 0.59994 0.0
H292 H 0.09664 0.15022 0.57289 0.0
H293 H 0.0517 0.12727 0.46732 0.0
H294 H 0.03424 0.08808 0.49562 0.0
H295 H 0.04286 0.17873 0.48382 0.0
H296 H 0.12932 0.12519 0.48584 0.0
H297 H 0.16665 0.09504 0.51508 0.0
H298 H 0.1929 0.14954 0.60062 0.0
H299 H 0.15564 0.1799 0.57211 0.0
C300 C 0.1195 0.28255 0.45401 0.0
C301 C 0.1393 0.29272 0.48304 0.0
C302 C 0.10743 0.25813 0.45672 0.0
C303 C 0.11437 0.24355 0.48879 0.0
C304 C 0.13318 0.25408 0.51824 0.0
C305 C 0.1457 0.27811 0.5153 0.0
C306 C 0.10391 0.21673 0.4914 0.0
C307 C 0.12479 0.19801 0.50373 0.0
C308 C 0.07405 0.20948 0.48315 0.0
C309 C 0.05052 0.22836 0.47205 0.0
C310 C 0.04644 0.24942 0.49465 0.0
C311 C 0.02396 0.267 0.48413 0.0
C312 C 0.00531 0.26361 0.4512 0.0
C313 C 0.00904 0.24258 0.42878 0.0
C314 C 0.03149 0.22495 0.43917 0.0
C315 C 0.07458 0.11455 0.57087 0.0
C316 C 0.05638 0.09667 0.55006 0.0
C317 C 0.08369 0.13665 0.55529 0.0
C318 C 0.07612 0.14145 0.51786 0.0
C319 C 0.05816 0.12373 0.49631 0.0
C320 C 0.04838 0.10131 0.51233 0.0
C321 C 0.08665 0.16569 0.50298 0.0
C322 C 0.06591 0.18392 0.48831 0.0
C323 C 0.11663 0.17284 0.51021 0.0
C324 C 0.13972 0.15484 0.5267 0.0
C325 C 0.14307 0.13074 0.51085 0.0
C326 C 0.16421 0.11361 0.52734 0.0
C327 C 0.18215 0.12038 0.55966 0.0
C328 C 0.17907 0.14434 0.57552 0.0
C329 C 0.15802 0.16155 0.55913 0.0
H330 H 0.19843 0.10706 0.57242 0.0
H331 H 0.98791 0.27723 0.44311 0.0
H332 H 0.3313 0.76738 0.06472 0.0
H333 H 0.35587 0.72564 0.06755 0.0
H334 H 0.43567 0.76056 0.11977 0.0
H335 H 0.41078 0.80243 0.11743 0.0
H336 H 0.44241 0.72694 0.0585 0.0
H337 H 0.39873 0.72552 0.17196 0.0
H338 H 0.35688 0.73047 0.20708 0.0
H339 H 0.30937 0.67255 0.14094 0.0
H340 H 0.35086 0.66743 0.10525 0.0
H341 H 0.51544 0.61034 0.07534 0.0
H342 H 0.49675 0.65073 0.09656 0.0
H343 H 0.40868 0.62052 0.07864 0.0
H344 H 0.42774 0.57978 0.05992 0.0
H345 H 0.40821 0.65358 0.12683 0.0
H346 H 0.44355 0.6555 0.01042 0.0
H347 H 0.47839 0.65169 0.96509 0.0
H348 H 0.53386 0.7084 0.02331 0.0
H349 H 0.49951 0.71233 0.06925 0.0
C350 C 0.35401 0.76603 0.07709 0.0
C351 C 0.36917 0.78793 0.09112 0.0
C352 C 0.36801 0.74224 0.07872 0.0
C353 C 0.39756 0.73993 0.09409 0.0
C354 C 0.41283 0.76189 0.10794 0.0
C355 C 0.39864 0.7857 0.10679 0.0
C356 C 0.41245 0.7146 0.09505 0.0
C357 C 0.43545 0.71098 0.07407 0.0
C358 C 0.40243 0.69354 0.11395 0.0
C359 C 0.37783 0.69615 0.13595 0.0
C360 C 0.37932 0.7139 0.16488 0.0
C361 C 0.35567 0.71672 0.18488 0.0
C362 C 0.33048 0.70184 0.17624 0.0
C363 C 0.32891 0.68404 0.14764 0.0
C364 C 0.35251 0.68112 0.12759 0.0
C365 C 0.49238 0.61176 0.07851 0.0
C366 C 0.47313 0.59174 0.06647 0.0
C367 C 0.48151 0.63519 0.0895 0.0
C368 C 0.45106 0.63927 0.08763 0.0
C369 C 0.43223 0.6182 0.08004 0.0
C370 C 0.44323 0.59459 0.06999 0.0
C371 C 0.43861 0.66562 0.09031 0.0
C372 C 0.41577 0.66948 0.11171 0.0
C373 C 0.44809 0.68673 0.07058 0.0
C374 C 0.4692 0.6839 0.04359 0.0
C375 C 0.46334 0.66695 0.01378 0.0
C376 C 0.48296 0.66482 0.98792 0.0
C377 C 0.50838 0.67972 0.9914 0.0
C378 C 0.51422 0.69681 0.02072 0.0
C379 C 0.49469 0.69898 0.04668 0.0
H380 H 0.52351 0.67808 0.97131 0.0
H381 H 0.31217 0.70409 0.19171 0.0
H382 H 0.87895 0.74092 0.56951 0.0
H383 H 0.9071 0.78045 0.56519 0.0
H384 H 0.8465 0.82106 0.62447 0.0
H385 H 0.8186 0.78162 0.62927 0.0
H386 H 0.86034 0.84599 0.5588 0.0
H387 H 0.90957 0.80452 0.66889 0.0
H388 H 0.93624 0.76913 0.70287 0.0
H389 H 0.0032 0.77283 0.6319 0.0
H390 H 0.97666 0.80796 0.59714 0.0
H391 H 0.93789 0.96187 0.57426 0.0
H392 H 0.91177 0.92458 0.59392 0.0
H393 H 0.98359 0.8762 0.57173 0.0
H394 H 0.01 0.91345 0.55445 0.0
H395 H 0.9625 0.8549 0.62059 0.0
H396 H 0.91756 0.89116 0.5075 0.0
H397 H 0.892 0.92219 0.46391 0.0
H398 H 0.81942 0.92432 0.52635 0.0
H399 H 0.84476 0.89364 0.57067 0.0
C400 C 0.87173 0.7583 0.58163 0.0
C401 C 0.84679 0.7582 0.60005 0.0
C402 C 0.88781 0.78081 0.57923 0.0
C403 C 0.87896 0.80363 0.59474 0.0
C404 C 0.85375 0.80364 0.61247 0.0
C405 C 0.83797 0.78109 0.61541 0.0
C406 C 0.89595 0.82757 0.59268 0.0
C407 C 0.88257 0.84819 0.57267 0.0
C408 C 0.92528 0.82996 0.60953 0.0
C409 C 0.94099 0.80868 0.63024 0.0
C410 C 0.92982 0.7976 0.66031 0.0
C411 C 0.94494 0.77763 0.67975 0.0
C412 C 0.97136 0.7687 0.6695 0.0
C413 C 0.98272 0.77973 0.63978 0.0
C414 C 0.96765 0.79967 0.62022 0.0
C415 C 0.94883 0.94347 0.57607 0.0
C416 C 0.97623 0.94059 0.56355 0.0
C417 C 0.93349 0.92199 0.58613 0.0
C418 C 0.94509 0.89727 0.58298 0.0
C419 C 0.97385 0.89487 0.57429 0.0
C420 C 0.98929 0.91631 0.56498 0.0
C421 C 0.92712 0.87379 0.5864 0.0
C422 C 0.94025 0.85307 0.60669 0.0
C423 C 0.89791 0.871 0.56841 0.0
C424 C 0.88332 0.89045 0.5428 0.0
C425 C 0.89636 0.89855 0.51226 0.0
C426 C 0.88185 0.91601 0.48734 0.0
C427 C 0.85416 0.92531 0.49245 0.0
C428 C 0.84093 0.9172 0.52252 0.0
C429 C 0.85537 0.89981 0.54758 0.0
H430 H 0.84291 0.93873 0.47303 0.0
H431 H 0.98307 0.75327 0.68464 0.0
H432 H 0.64838 0.25274 0.94754 0.0
H433 H 0.62194 0.29358 0.94408 0.0
H434 H 0.65517 0.30894 0.05724 0.0
H435 H 0.68296 0.26931 0.06052 0.0
H436 H 0.59352 0.31544 0.0399 0.0
H437 H 0.68402 0.33947 0.99911 0.0
H438 H 0.7238 0.33791 0.96033 0.0
H439 H 0.66249 0.35668 0.86544 0.0
H440 H 0.62217 0.35784 0.90361 0.0
H441 H 0.58904 0.44709 0.0756 0.0
H442 H 0.61263 0.40923 0.054 0.0
H443 H 0.54039 0.39967 0.96751 0.0
H444 H 0.51594 0.43734 0.99017 0.0
H445 H 0.61595 0.38883 0.96297 0.0
H446 H 0.52458 0.366 0.0118 0.0
H447 H 0.48966 0.36905 0.05708 0.0
H448 H 0.55805 0.34862 0.14348 0.0
H449 H 0.5936 0.3463 0.09884 0.0
C450 C 0.65049 0.26492 0.97158 0.0
C451 C 0.66769 0.25731 0.00449 0.0
C452 C 0.63516 0.28821 0.96957 0.0
C453 C 0.63643 0.30419 1.0005 0.0
C454 C 0.6536 0.29676 0.03317 0.0
C455 C 0.66931 0.27385 0.03503 0.0
C456 C 0.61978 0.32861 0.99942 0.0
C457 C 0.59824 0.3314 0.0228 0.0
C458 C 0.62595 0.34944 0.97717 0.0
C459 C 0.65 0.3483 0.95407 0.0
C460 C 0.67893 0.34288 0.96988 0.0
C461 C 0.7016 0.34215 0.94804 0.0
C462 C 0.69566 0.34708 0.91041 0.0
C463 C 0.66703 0.35277 0.89456 0.0
C464 C 0.64426 0.35344 0.91628 0.0
C465 C 0.57888 0.43776 0.05074 0.0
C466 C 0.55084 0.4454 0.03422 0.0
C467 C 0.59222 0.4159 0.03875 0.0
C468 C 0.57803 0.40143 0.0096 0.0
C469 C 0.5516 0.41057 0.99024 0.0
C470 C 0.53789 0.43235 1.00273 0.0
C471 C 0.5894 0.37549 1.00302 0.0
C472 C 0.61041 0.37254 0.97891 0.0
C473 C 0.58311 0.35455 0.02508 0.0
C474 C 0.56189 0.35657 0.05205 0.0
C475 C 0.53233 0.36274 0.04055 0.0
C476 C 0.51238 0.36421 0.06609 0.0
C477 C 0.52166 0.35919 0.10318 0.0
C478 C 0.55092 0.35266 0.11479 0.0
C479 C 0.57098 0.35134 0.08938 0.0
H480 H 0.50615 0.36022 0.12288 0.0
H481 H 0.71325 0.34658 0.89355 0.0
H482 H 0.18223 0.933 0.22065 0.0
H483 H 0.15422 0.94768 0.26863 0.0
H484 H 0.23481 0.96018 0.34121 0.0
H485 H 0.26296 0.94454 0.29336 0.0
H486 H 0.19584 0.93945 0.37808 0.0
H487 H 0.19213 0.01127 0.29454 0.0
H488 H 0.18254 0.0323 0.23404 0.0
H489 H 0.09245 0.00845 0.22341 0.0
H490 H 0.10156 0.9871 0.28366 0.0
H491 H 0.10725 0.99993 0.50439 0.0
H492 H 0.14622 0.9934 0.46487 0.0
H493 H 0.08021 0.97631 0.3732 0.0
H494 H 0.04212 0.98336 0.41121 0.0
H495 H 0.11858 0.00543 0.35051 0.0
H496 H 0.12092 0.92934 0.42515 0.0
H497 H 0.12763 0.90424 0.48243 0.0
H498 H 0.21609 0.93172 0.50671 0.0
H499 H 0.20974 0.95726 0.44976 0.0
C500 C 0.194 0.93901 0.24677 0.0
C501 C 0.22482 0.93785 0.25312 0.0
C502 C 0.17796 0.94754 0.27419 0.0
C503 C 0.19235 0.95574 0.30838 0.0
C504 C 0.22315 0.95416 0.31503 0.0
C505 C 0.23924 0.94522 0.2877 0.0
C506 C 0.17511 0.96549 0.33722 0.0
C507 C 0.17936 0.95427 0.37228 0.0
C508 C 0.1531 0.98445 0.32962 0.0
C509 C 0.14758 0.99753 0.29356 0.0
C510 C 0.17031 0.01045 0.27923 0.0
C511 C 0.16495 0.02243 0.24499 0.0
C512 C 0.13691 0.02169 0.22489 0.0
C513 C 0.11415 0.00902 0.23902 0.0
C514 C 0.11938 0.99704 0.27324 0.0
C515 C 0.10123 0.99512 0.4757 0.0
C516 C 0.07154 0.99198 0.46119 0.0
C517 C 0.12346 0.99117 0.4532 0.0
C518 C 0.11621 0.98415 0.41597 0.0
C519 C 0.08656 0.98175 0.40163 0.0
C520 C 0.06468 0.98567 0.42372 0.0
C521 C 0.1387 0.97888 0.39107 0.0
C522 C 0.1355 0.991 0.35666 0.0
C523 C 0.16113 0.96036 0.399 0.0
C524 C 0.1647 0.94553 0.43358 0.0
C525 C 0.14167 0.93027 0.44295 0.0
C526 C 0.14544 0.91591 0.47529 0.0
C527 C 0.17223 0.91648 0.49828 0.0
C528 C 0.19532 0.93138 0.48895 0.0
C529 C 0.19164 0.94581 0.45667 0.0
H530 H 0.17512 0.9053 0.52327 0.0
H531 H 0.13282 0.03096 0.19838 0.0
H532 H 0.69166 0.63923 0.76209 0.0
H533 H 0.66858 0.62567 0.81538 0.0
H534 H 0.67202 0.54723 0.78018 0.0
H535 H 0.69564 0.56045 0.72764 0.0
H536 H 0.61635 0.56266 0.79238 0.0
H537 H 0.71597 0.56677 0.8549 0.0
H538 H 0.76323 0.58761 0.87645 0.0
H539 H 0.7187 0.64428 0.9333 0.0
H540 H 0.67113 0.62394 0.91171 0.0
H541 H 0.5577 0.50401 0.93928 0.0
H542 H 0.59234 0.51436 0.89592 0.0
H543 H 0.60248 0.59031 0.94184 0.0
H544 H 0.56865 0.57967 0.98544 0.0
H545 H 0.65216 0.57629 0.92435 0.0
H546 H 0.5539 0.57601 0.86321 0.0
H547 H 0.50459 0.55977 0.83985 0.0
H548 H 0.54282 0.50187 0.77812 0.0
H549 H 0.59241 0.51749 0.80159 0.0
C550 C 0.68811 0.61905 0.76616 0.0
C551 C 0.69516 0.60096 0.74028 0.0
C552 C 0.67483 0.61134 0.79657 0.0
C553 C 0.66843 0.58544 0.80162 0.0
C554 C 0.67652 0.56732 0.77665 0.0
C555 C 0.68991 0.57495 0.74652 0.0
C556 C 0.65156 0.57719 0.83133 0.0
C557 C 0.62437 0.56523 0.8213 0.0
C558 C 0.66147 0.58154 0.86892 0.0
C559 C 0.68999 0.59398 0.88138 0.0
C560 C 0.71624 0.58382 0.87168 0.0
C561 C 0.74309 0.59551 0.88399 0.0
C562 C 0.74397 0.61729 0.90615 0.0
C563 C 0.71799 0.62743 0.91609 0.0
C564 C 0.69109 0.61582 0.90385 0.0
C565 C 0.5685 0.52244 0.94111 0.0
C566 C 0.56129 0.54083 0.96627 0.0
C567 C 0.58777 0.52856 0.91588 0.0
C568 C 0.59965 0.55332 0.91509 0.0
C569 C 0.59373 0.5711 0.94183 0.0
C570 C 0.57465 0.56494 0.96702 0.0
C571 C 0.617 0.5613 0.88554 0.0
C572 C 0.64416 0.57344 0.89549 0.0
C573 C 0.60668 0.55769 0.84775 0.0
C574 C 0.57691 0.54767 0.83466 0.0
C575 C 0.55182 0.55958 0.84508 0.0
C576 C 0.52381 0.55054 0.83171 0.0
C577 C 0.52058 0.52974 0.80764 0.0
C578 C 0.54536 0.51792 0.79688 0.0
C579 C 0.57342 0.52685 0.81023 0.0
H580 H 0.49887 0.52282 0.79723 0.0
H581 H 0.76478 0.62628 0.91571 0.0
H582 H 0.83089 0.05887 0.16506 0.0
H583 H 0.85786 0.05043 0.22564 0.0
H584 H 0.85027 0.12983 0.25473 0.0
H585 H 0.82467 0.13872 0.19346 0.0
H586 H 0.90473 0.1135 0.27438 0.0
H587 H 0.80829 0.08137 0.28945 0.0
H588 H 0.76394 0.05505 0.27344 0.0
H589 H 0.81656 0.98691 0.28373 0.0
H590 H 0.86125 0.01283 0.2994 0.0
H591 H 0.94659 0.07594 0.47238 0.0
H592 H 0.92052 0.09581 0.41599 0.0
H593 H 0.94173 0.03054 0.35272 0.0
H594 H 0.96794 0.01127 0.4076 0.0
H595 H 0.87763 0.04408 0.35511 0.0
H596 H 0.97248 0.07299 0.33075 0.0
H597 H 0.01926 0.09631 0.34346 0.0
H598 H 0.97232 0.16709 0.34701 0.0
H599 H 0.92517 0.14405 0.33501 0.0
C600 C 0.83501 0.07458 0.18426 0.0
C601 C 0.82557 0.09949 0.17428 0.0
C602 C 0.85016 0.06966 0.21911 0.0
C603 C 0.85579 0.08944 0.24499 0.0
C604 C 0.84607 0.11424 0.2353 0.0
C605 C 0.83113 0.11923 0.20035 0.0
C606 C 0.87277 0.08444 0.28161 0.0
C607 C 0.8984 0.0987 0.2924 0.0
C608 C 0.86503 0.06466 0.30474 0.0
C609 C 0.83812 0.04907 0.29542 0.0
C610 C 0.81041 0.06079 0.2881 0.0
C611 C 0.78521 0.04593 0.27912 0.0
C612 C 0.78743 0.01933 0.27753 0.0
C613 C 0.81486 0.00752 0.28497 0.0
C614 C 0.84012 0.02228 0.29397 0.0
C615 C 0.94632 0.06636 0.44619 0.0
C616 C 0.9588 0.04197 0.44434 0.0
C617 C 0.9314 0.07758 0.41416 0.0
C618 C 0.92902 0.06439 0.38044 0.0
C619 C 0.94317 0.0409 0.37848 0.0
C620 C 0.95809 0.02995 0.40993 0.0
C621 C 0.90937 0.07312 0.34766 0.0
C622 C 0.88339 0.05937 0.33749 0.0
C623 C 0.91708 0.09294 0.32482 0.0
C624 C 0.94531 0.10674 0.33281 0.0
C625 C 0.97211 0.09346 0.33491 0.0
C626 C 0.9987 0.10664 0.34181 0.0
C627 C 0.99877 0.13315 0.34627 0.0
C628 C 0.97223 0.14654 0.34373 0.0
C629 C 0.94557 0.13343 0.33693 0.0
H630 H 0.01938 0.14334 0.35152 0.0
H631 H 0.7679 0.00787 0.27057 0.0
H632 H 0.32727 0.4617 0.64809 0.0
H633 H 0.35678 0.47421 0.70422 0.0
H634 H 0.29456 0.43951 0.76707 0.0
H635 H 0.26203 0.43107 0.71136 0.0
H636 H 0.31422 0.4767 0.80229 0.0
H637 H 0.36712 0.41054 0.74123 0.0
H638 H 0.39044 0.39431 0.68894 0.0
H639 H 0.44738 0.45959 0.69591 0.0
H640 H 0.42424 0.47629 0.74797 0.0
H641 H 0.40887 0.47479 0.97027 0.0
H642 H 0.37936 0.45777 0.91462 0.0
H643 H 0.43686 0.49537 0.84768 0.0
H644 H 0.46676 0.51096 0.90282 0.0
H645 H 0.42011 0.45492 0.81531 0.0
H646 H 0.3697 0.52233 0.87126 0.0
H647 H 0.34653 0.5434 0.92026 0.0
H648 H 0.28571 0.48119 0.92006 0.0
H649 H 0.30879 0.45961 0.87141 0.0
C650 C 0.31891 0.4573 0.67345 0.0
C651 C 0.29186 0.44461 0.67406 0.0
C652 C 0.33661 0.46394 0.70599 0.0
C653 C 0.32888 0.45665 0.74018 0.0
C654 C 0.30155 0.44493 0.74114 0.0
C655 C 0.28306 0.43953 0.70872 0.0
C656 C 0.34899 0.46107 0.775 0.0
C657 C 0.33725 0.47144 0.80522 0.0
C658 C 0.37943 0.45524 0.77881 0.0
C659 C 0.39387 0.44468 0.74832 0.0
C660 C 0.38463 0.42139 0.73158 0.0
C661 C 0.39778 0.41214 0.70197 0.0
C662 C 0.42034 0.42592 0.68908 0.0
C663 C 0.42991 0.44893 0.7059 0.0
C664 C 0.41683 0.45827 0.73549 0.0
C665 C 0.4157 0.47839 0.94365 0.0
C666 C 0.44008 0.49389 0.94055 0.0
C667 C 0.39863 0.4691 0.91186 0.0
C668 C 0.4054 0.47585 0.87679 0.0
C669 C 0.43102 0.48988 0.87419 0.0
C670 C 0.44818 0.49874 0.90574 0.0
C671 C 0.38516 0.47008 0.84265 0.0
C672 C 0.39693 0.45969 0.81251 0.0
C673 C 0.3549 0.47633 0.83868 0.0
C674 C 0.3412 0.48922 0.86809 0.0
C675 C 0.35154 0.51306 0.8819 0.0
C676 C 0.33841 0.5251 0.90957 0.0
C677 C 0.31473 0.5136 0.92335 0.0
C678 C 0.3041 0.49005 0.90944 0.0
C679 C 0.3172 0.4779 0.88184 0.0
H680 H 0.30457 0.52296 0.94474 0.0
H681 H 0.43043 0.41877 0.66609 0.0
H682 H 0.692 0.64624 0.38178 0.0
H683 H 0.66295 0.63276 0.32457 0.0
H684 H 0.65924 0.55614 0.36677 0.0
H685 H 0.68925 0.56932 0.42385 0.0
H686 H 0.66956 0.5554 0.29662 0.0
H687 H 0.60014 0.59456 0.36412 0.0
H688 H 0.57999 0.62813 0.4008 0.0
H689 H 0.57817 0.68058 0.31075 0.0
H690 H 0.59863 0.64735 0.27365 0.0
H691 H 0.54302 0.50719 0.19351 0.0
H692 H 0.57511 0.52734 0.24279 0.0
H693 H 0.59067 0.58954 0.17118 0.0
H694 H 0.55842 0.56902 0.12034 0.0
H695 H 0.57651 0.60033 0.25146 0.0
H696 H 0.64346 0.55503 0.18274 0.0
H697 H 0.65998 0.51761 0.15007 0.0
H698 H 0.66189 0.47236 0.24777 0.0
H699 H 0.64504 0.50945 0.28089 0.0
C700 C 0.6854 0.62642 0.37876 0.0
C701 C 0.69307 0.60883 0.40738 0.0
C702 C 0.6685 0.61881 0.34615 0.0
C703 C 0.65867 0.59352 0.34151 0.0
C704 C 0.66656 0.57579 0.36979 0.0
C705 C 0.68351 0.58339 0.40249 0.0
C706 C 0.64001 0.58568 0.30719 0.0
C707 C 0.6492 0.56521 0.28685 0.0
C708 C 0.61354 0.59858 0.29419 0.0
C709 C 0.60121 0.61859 0.31628 0.0
C710 C 0.59566 0.61332 0.35225 0.0
C711 C 0.58414 0.63226 0.37309 0.0
C712 C 0.57789 0.6565 0.35816 0.0
C713 C 0.58306 0.66181 0.3223 0.0
C714 C 0.59459 0.64293 0.30133 0.0
C715 C 0.55305 0.5252 0.18784 0.0
C716 C 0.54834 0.53631 0.1526 0.0
C717 C 0.57144 0.53668 0.21626 0.0
C718 C 0.58549 0.55967 0.21045 0.0
C719 C 0.58003 0.57164 0.17598 0.0
C720 C 0.56161 0.55995 0.14706 0.0
C721 C 0.60629 0.57032 0.24086 0.0
C722 C 0.59729 0.59106 0.26079 0.0
C723 C 0.63258 0.55727 0.25398 0.0
C724 C 0.64282 0.53497 0.2342 0.0
C725 C 0.64719 0.53705 0.19716 0.0
C726 C 0.65667 0.51591 0.17859 0.0
C727 C 0.66194 0.49261 0.19682 0.0
C728 C 0.6578 0.49041 0.23369 0.0
C729 C 0.64834 0.5115 0.25239 0.0
H730 H 0.66927 0.47626 0.18239 0.0
H731 H 0.56897 0.67115 0.37434 0.0
H732 H 0.82045 0.14447 0.81606 0.0
H733 H 0.84765 0.12772 0.76836 0.0
H734 H 0.84306 0.05181 0.81267 0.0
H735 H 0.8155 0.06831 0.86016 0.0
H736 H 0.89837 0.0636 0.79851 0.0
H737 H 0.79974 0.06855 0.73323 0.0
H738 H 0.7533 0.0907 0.71122 0.0
H739 H 0.80017 0.14551 0.65454 0.0
H740 H 0.84691 0.12382 0.67653 0.0
H741 H 0.9588 1.00088 0.65601 0.0
H742 H 0.92334 0.01274 0.69765 0.0
H743 H 0.91529 0.08786 0.64887 0.0
H744 H 0.94974 0.07556 0.60658 0.0
H745 H 0.86498 0.07516 0.66547 0.0
H746 H 0.96255 0.07392 0.73 0.0
H747 H 0.01098 0.05592 0.75379 0.0
H748 H 0.96959 0.99924 0.81379 0.0
H749 H 0.92086 0.01669 0.78992 0.0
C750 C 0.82477 0.12414 0.81533 0.0
C751 C 0.81569 0.10775 0.84196 0.0
C752 C 0.84045 0.11461 0.7881 0.0
C753 C 0.84721 0.08847 0.78677 0.0
C754 C 0.83814 0.07205 0.81322 0.0
C755 C 0.82244 0.08155 0.84041 0.0
C756 C 0.86419 0.07829 0.7582 0.0
C757 C 0.89086 0.06571 0.76939 0.0
C758 C 0.85489 0.08183 0.72027 0.0
C759 C 0.82679 0.09466 0.70669 0.0
C760 C 0.80013 0.0854 0.71621 0.0
C761 C 0.77377 0.09786 0.70373 0.0
C762 C 0.77379 0.11952 0.68155 0.0
C763 C 0.80018 0.12873 0.67172 0.0
C764 C 0.8266 0.11634 0.68413 0.0
C765 C 0.94845 0.01952 0.65337 0.0
C766 C 0.95631 0.03716 0.62773 0.0
C767 C 0.92863 0.02647 0.67752 0.0
C768 C 0.91707 0.05142 0.677 0.0
C769 C 0.92382 0.06853 0.64991 0.0
C770 C 0.94332 0.06147 0.62555 0.0
C771 C 0.89925 0.06028 0.70565 0.0
C772 C 0.87246 0.07275 0.69454 0.0
C773 C 0.90879 0.05711 0.74373 0.0
C774 C 0.93804 0.0464 0.75778 0.0
C775 C 0.96376 0.05746 0.74797 0.0
C776 C 0.99127 0.04739 0.76153 0.0
C777 C 0.99336 0.02639 0.78518 0.0
C778 C 0.96794 0.01546 0.79539 0.0
C779 C 0.94037 0.02543 0.78185 0.0
H780 H 0.01467 0.01864 0.79569 0.0
H781 H 0.75335 0.12915 0.67193 0.0
H782 H 0.30745 0.48703 0.36055 0.0
H783 H 0.33421 0.4958 0.30998 0.0
H784 H 0.30797 0.42288 0.26147 0.0
H785 H 0.28499 0.41204 0.31531 0.0
H786 H 0.35996 0.42918 0.25262 0.0
H787 H 0.27785 0.48905 0.23019 0.0
H788 H 0.2463 0.5238 0.24832 0.0
H789 H 0.32159 0.57251 0.27183 0.0
H790 H 0.35354 0.53803 0.254 0.0
H791 H 0.41074 0.45346 0.08456 0.0
H792 H 0.37706 0.44721 0.12998 0.0
H793 H 0.40747 0.51756 0.18345 0.0
H794 H 0.44013 0.5244 0.1368 0.0
H795 H 0.35283 0.51283 0.18886 0.0
H796 H 0.4348 0.45548 0.21383 0.0
H797 H 0.46941 0.42133 0.20193 0.0
H798 H 0.39779 0.36868 0.17853 0.0
H799 H 0.36275 0.40258 0.19003 0.0
C800 C 0.30777 0.47238 0.33983 0.0
C801 C 0.29425 0.44845 0.34309 0.0
C802 C 0.32252 0.47788 0.30996 0.0
C803 C 0.32262 0.4604 0.28096 0.0
C804 C 0.30824 0.43686 0.28328 0.0
C805 C 0.29456 0.43083 0.31407 0.0
C806 C 0.33893 0.46608 0.24925 0.0
C807 C 0.35779 0.44729 0.23819 0.0
C808 C 0.3374 0.49011 0.2312 0.0
C809 C 0.31803 0.51098 0.24087 0.0
C810 C 0.28762 0.50719 0.23922 0.0
C811 C 0.26969 0.52682 0.24946 0.0
C812 C 0.28194 0.55033 0.26124 0.0
C813 C 0.31212 0.55431 0.26265 0.0
C814 C 0.33013 0.53477 0.25237 0.0
C815 C 0.4093 0.46808 0.10517 0.0
C816 C 0.42762 0.48962 0.10683 0.0
C817 C 0.39051 0.46424 0.1316 0.0
C818 C 0.39033 0.48147 0.16095 0.0
C819 C 0.40725 0.50389 0.16125 0.0
C820 C 0.42566 0.50799 0.1343 0.0
C821 C 0.37328 0.47573 0.19183 0.0
C822 C 0.35455 0.49457 0.20291 0.0
C823 C 0.37517 0.45184 0.21018 0.0
C824 C 0.39615 0.43164 0.20235 0.0
C825 C 0.42643 0.43669 0.20579 0.0
C826 C 0.44612 0.41735 0.19923 0.0
C827 C 0.4358 0.39287 0.18937 0.0
C828 C 0.40575 0.38766 0.1861 0.0
C829 C 0.38598 0.40691 0.19267 0.0
H830 H 0.45108 0.37793 0.18434 0.0
H831 H 0.26803 0.56548 0.26926 0.0
H832 H 0.16918 0.94825 0.93965 0.0
H833 H 0.14288 0.95595 0.87843 0.0
H834 H 0.22476 0.95507 0.8332 0.0
H835 H 0.25145 0.94761 0.89483 0.0
H836 H 0.1856 0.99556 0.80644 0.0
H837 H 0.18347 0.90379 0.82105 0.0
H838 H 0.1744 0.86438 0.85446 0.0
H839 H 0.08389 0.88558 0.85262 0.0
H840 H 0.09254 0.92525 0.81949 0.0
H841 H 0.12292 0.99325 0.62211 0.0
H842 H 0.15207 0.98006 0.67961 0.0
H843 H 0.0724 0.96508 0.72614 0.0
H844 H 0.04329 0.97748 0.668 0.0
H845 H 0.11171 0.93231 0.75256 0.0
H846 H 0.11108 0.02297 0.74053 0.0
H847 H 0.11794 0.06534 0.71368 0.0
H848 H 0.21003 0.05018 0.71605 0.0
H849 H 0.20366 0.00759 0.74252 0.0
C850 C 0.18169 0.94999 0.91679 0.0
C851 C 0.21244 0.94738 0.92213 0.0
C852 C 0.16658 0.9542 0.88176 0.0
C853 C 0.18182 0.95586 0.85121 0.0
C854 C 0.21258 0.95378 0.85642 0.0
C855 C 0.22776 0.94936 0.89155 0.0
C856 C 0.16541 0.95929 0.81386 0.0
C857 C 0.16985 0.98155 0.79424 0.0
C858 C 0.14403 0.94148 0.79869 0.0
C859 C 0.13868 0.91749 0.81799 0.0
C860 C 0.16168 0.90007 0.82792 0.0
C861 C 0.15661 0.8777 0.84677 0.0
C862 C 0.12859 0.87249 0.85569 0.0
C863 C 0.10557 0.88963 0.84567 0.0
C864 C 0.11052 0.91203 0.8268 0.0
C865 C 0.11171 0.98586 0.64402 0.0
C866 C 0.08089 0.98572 0.64033 0.0
C867 C 0.12836 0.97892 0.6772 0.0
C868 C 0.11449 0.97229 0.70768 0.0
C869 C 0.08368 0.97023 0.70313 0.0
C870 C 0.067 0.97688 0.66968 0.0
C871 C 0.13199 0.96859 0.74454 0.0
C872 C 0.12765 0.94631 0.76432 0.0
C873 C 0.15307 0.98671 0.76015 0.0
C874 C 0.1568 0.01194 0.74301 0.0
C875 C 0.13272 0.02854 0.73488 0.0
C876 C 0.13655 0.05263 0.71986 0.0
C877 C 0.16438 0.06041 0.71303 0.0
C878 C 0.18846 0.04411 0.72125 0.0
C879 C 0.18476 0.01999 0.73626 0.0
H880 H 0.16731 0.07909 0.70149 0.0
H881 H 0.12472 0.85516 0.87033 0.0
loop_
_geom_bond_atom_site_label_1
_geom_bond_atom_site_label_2
_geom_bond_distance
_geom_bond_site_symmetry_2
_ccdc_geom_bond_type
C0 C1 1.391 . S
C0 C4 1.391 . S
C0 H42 0.948 . S
C1 C0 1.391 . S
C1 C2 1.391 . S
C2 C1 1.391 . S
C2 H58 0.947 . S
C2 C59 1.392 1_556 S
C3 C4 1.391 1_554 S
C3 C7 1.397 . S
C3 C59 1.419 . S
C4 C0 1.391 . S
C4 C3 1.391 1_556 S
C4 C5 1.399 1_556 S
C5 C4 1.399 1_554 S
C5 C8 1.396 . S
C5 C17 1.453 1_554 S
C5 C18 1.684 1_554 S
H6 C30 0.948 . S
C7 C3 1.397 . S
C7 C8 1.394 . S
C7 C26 1.723 . S
C8 C5 1.396 . S
C8 C7 1.394 . S
C8 C38 1.723 . S
H9 C32 0.947 . S
H10 C33 0.948 . S
H11 C39 0.982 . S
H12 C40 0.979 . S
H13 C40 0.980 . S
H14 C40 0.983 . S
H15 C39 0.979 . S
H16 C39 0.977 . S
C17 C5 1.453 1_556 S
C17 H46 0.982 1_556 S
C17 H47 0.979 . S
C17 H48 0.977 1_556 S
C18 C5 1.684 1_556 S
C18 H43 0.979 . S
C18 H44 0.980 . S
C18 H45 0.983 . S
C19 C20 1.391 . S
C19 C24 1.391 . S
C19 H49 0.948 . S
C20 C19 1.391 . S
C20 C21 1.391 . S
C21 C20 1.391 . S
C21 C22 1.392 . S
C21 H50 0.947 . S
C22 C21 1.392 . S
C22 C23 1.419 . S
C22 H51 0.948 . S
C23 C22 1.419 . S
C23 C24 1.391 . S
C23 C27 1.397 . S
C24 C19 1.391 . S
C24 C23 1.391 . S
C24 C25 1.399 . S
C25 C24 1.399 . S
C25 C26 1.396 . S
C25 C28 1.453 . S
C25 C29 1.684 . S
C26 C7 1.723 . S
C26 C25 1.396 . S
C26 C27 1.394 . S
C27 C23 1.397 . S
C27 C26 1.394 . S
C27 C37 1.723 . S
C28 C25 1.453 . S
C28 H52 0.982 . S
C28 H53 0.979 . S
C28 H54 0.977 . S
C29 C25 1.684 . S
C29 H55 0.979 . S
C29 H56 0.980 . S
C29 H57 0.983 . S
C30 H6 0.948 . S
C30 C31 1.391 . S
C30 C35 1.391 . S
C31 C30 1.391 . S
C31 C32 1.391 . S
C32 H9 0.947 . S
C32 C31 1.391 . S
C32 C33 1.392 . S
C33 H10 0.948 . S
C33 C32 1.392 . S
C33 C34 1.419 . S
C34 C33 1.419 . S
C34 C35 1.391 . S
C34 C38 1.397 . S
C35 C30 1.391 . S
C35 C34 1.391 . S
C35 C36 1.399 . S
C36 C35 1.399 . S
C36 C37 1.396 . S
C36 C39 1.453 . S
C36 C40 1.684 . S
C37 C27 1.723 . S
C37 C36 1.396 . S
C37 C38 1.394 . S
C38 C8 1.723 . S
C38 C34 1.397 . S
C38 C37 1.394 . S
C39 H11 0.982 . S
C39 H15 0.979 . S
C39 H16 0.977 . S
C39 C36 1.453 . S
C40 H12 0.979 . S
C40 H13 0.980 . S
C40 H14 0.983 . S
C40 C36 1.684 . S
H41 C59 0.948 . S
H42 C0 0.948 . S
H43 C18 0.979 . S
H44 C18 0.980 . S
H45 C18 0.983 . S
H46 C17 0.982 1_554 S
H47 C17 0.979 . S
H48 C17 0.977 1_554 S
H49 C19 0.948 . S
H50 C21 0.947 . S
H51 C22 0.948 . S
H52 C28 0.982 . S
H53 C28 0.979 . S
H54 C28 0.977 . S
H55 C29 0.979 . S
H56 C29 0.980 . S
H57 C29 0.983 . S
H58 C2 0.947 . S
C59 C2 1.392 1_554 S
C59 C3 1.419 . S
C59 H41 0.948 . S
C60 C61 1.391 . S
C60 C64 1.391 . S
C60 H102 0.948 . S
C61 C60 1.391 . S
C61 C62 1.391 . S
C62 C61 1.391 . S
C62 H118 0.947 . S
C62 C119 1.392 . S
C63 C64 1.391 . S
C63 C67 1.397 . S
C63 C119 1.419 . S
C64 C60 1.391 . S
C64 C63 1.391 . S
C64 C65 1.399 . S
C65 C64 1.399 . S
C65 C68 1.396 . S
C65 C77 1.453 . S
C65 C78 1.684 . S
H66 C90 0.948 . S
C67 C63 1.397 . S
C67 C68 1.394 . S
C67 C86 1.723 . S
C68 C65 1.396 . S
C68 C67 1.394 . S
C68 C98 1.723 . S
H69 C92 0.947 . S
H70 C93 0.948 . S
H71 C99 0.982 . S
H72 C100 0.979 . S
H73 C100 0.980 . S
H74 C100 0.983 . S
H75 C99 0.979 . S
H76 C99 0.977 . S
C77 C65 1.453 . S
C77 H106 0.982 . S
C77 H107 0.979 . S
C77 H108 0.977 . S
C78 C65 1.684 . S
C78 H103 0.979 . S
C78 H104 0.980 . S
C78 H105 0.983 . S
C79 C80 1.391 . S
C79 C84 1.391 . S
C79 H109 0.948 . S
C80 C79 1.391 . S
C80 C81 1.391 . S
C81 C80 1.391 . S
C81 C82 1.392 . S
C81 H110 0.947 . S
C82 C81 1.392 . S
C82 C83 1.419 . S
C82 H111 0.948 . S
C83 C82 1.419 . S
C83 C84 1.391 . S
C83 C87 1.397 . S
C84 C79 1.391 . S
C84 C83 1.391 . S
C84 C85 1.399 . S
C85 C84 1.399 . S
C85 C86 1.396 . S
C85 C88 1.453 . S
C85 C89 1.684 . S
C86 C67 1.723 . S
C86 C85 1.396 . S
C86 C87 1.394 . S
C87 C83 1.397 . S
C87 C86 1.394 . S
C87 C97 1.723 . S
C88 C85 1.453 . S
C88 H112 0.982 . S
C88 H113 0.979 . S
C88 H114 0.977 . S
C89 C85 1.684 . S
C89 H115 0.979 . S
C89 H116 0.980 . S
C89 H117 0.983 . S
C90 H66 0.948 . S
C90 C91 1.391 . S
C90 C95 1.391 . S
C91 C90 1.391 . S
C91 C92 1.391 . S
C92 H69 0.947 . S
C92 C91 1.391 . S
C92 C93 1.392 . S
C93 H70 0.948 . S
C93 C92 1.392 . S
C93 C94 1.419 . S
C94 C93 1.419 . S
C94 C95 1.391 . S
C94 C98 1.397 . S
C95 C90 1.391 . S
C95 C94 1.391 . S
C95 C96 1.399 . S
C96 C95 1.399 . S
C96 C97 1.396 . S
C96 C99 1.453 . S
C96 C100 1.684 . S
C97 C87 1.723 . S
C97 C96 1.396 . S
C97 C98 1.394 . S
C98 C68 1.723 . S
C98 C94 1.397 . S
C98 C97 1.394 . S
C99 H71 0.982 . S
C99 H75 0.979 . S
C99 H76 0.977 . S
C99 C96 1.453 . S
C100 H72 0.979 . S
C100 H73 0.980 . S
C100 H74 0.983 . S
C100 C96 1.684 . S
H101 C119 0.948 . S
H102 C60 0.948 . S
H103 C78 0.979 . S
H104 C78 0.980 . S
H105 C78 0.983 . S
H106 C77 0.982 . S
H107 C77 0.979 . S
H108 C77 0.977 . S
H109 C79 0.948 . S
H110 C81 0.947 . S
H111 C82 0.948 . S
H112 C88 0.982 . S
H113 C88 0.979 . S
H114 C88 0.977 . S
H115 C89 0.979 . S
H116 C89 0.980 . S
H117 C89 0.983 . S
H118 C62 0.947 . S
C119 C62 1.392 . S
C119 C63 1.419 . S
C119 H101 0.948 . S
C120 C121 1.391 . S
C120 C124 1.391 . S
C120 H162 0.948 . S
C121 C120 1.391 . S
C121 C122 1.391 . S
C122 C121 1.391 . S
C122 H178 0.947 . S
C122 C179 1.392 . S
C123 C124 1.391 . S
C123 C127 1.397 . S
C123 C179 1.419 . S
C124 C120 1.391 . S
C124 C123 1.391 . S
C124 C125 1.399 . S
C125 C124 1.399 . S
C125 C128 1.396 . S
C125 C137 1.453 . S
C125 C138 1.684 . S
H126 C150 0.948 . S
C127 C123 1.397 . S
C127 C128 1.394 . S
C127 C146 1.723 1_554 S
C128 C125 1.396 . S
C128 C127 1.394 . S
C128 C158 1.723 . S
H129 C152 0.947 . S
H130 C153 0.948 . S
H131 C159 0.982 . S
H132 C160 0.979 . S
H133 C160 0.980 . S
H134 C160 0.983 . S
H135 C159 0.979 . S
H136 C159 0.977 . S
C137 C125 1.453 . S
C137 H166 0.982 . S
C137 H167 0.979 . S
C137 H168 0.977 . S
C138 C125 1.684 . S
C138 H163 0.979 . S
C138 H164 0.980 . S
C138 H165 0.983 . S
C139 C140 1.391 . S
C139 C144 1.391 . S
C139 H169 0.948 . S
C140 C139 1.391 . S
C140 C141 1.391 . S
C141 C140 1.391 . S
C141 C142 1.392 . S
C141 H170 0.947 . S
C142 C141 1.392 . S
C142 C143 1.419 . S
C142 H171 0.948 . S
C143 C142 1.419 . S
C143 C144 1.391 . S
C143 C147 1.397 . S
C144 C139 1.391 . S
C144 C143 1.391 . S
C144 C145 1.399 . S
C145 C144 1.399 . S
C145 C146 1.396 . S
C145 C148 1.453 . S
C145 C149 1.684 . S
C146 C127 1.723 1_556 S
C146 C145 1.396 . S
C146 C147 1.394 . S
C147 C143 1.397 . S
C147 C146 1.394 . S
C147 C157 1.723 . S
C148 C145 1.453 . S
C148 H172 0.982 . S
C148 H173 0.979 . S
C148 H174 0.977 1_556 S
C149 C145 1.684 . S
C149 H175 0.979 . S
C149 H176 0.980 1_556 S
C149 H177 0.983 . S
C150 H126 0.948 . S
C150 C151 1.385 1_556 S
C150 C155 1.391 . S
C151 C150 1.385 1_554 S
C151 C152 1.398 . S
C152 H129 0.947 . S
C152 C151 1.398 . S
C152 C153 1.392 . S
C153 H130 0.948 . S
C153 C152 1.392 . S
C153 C154 1.419 . S
C154 C153 1.419 . S
C154 C155 1.391 1_554 S
C154 C158 1.397 . S
C155 C150 1.391 . S
C155 C154 1.391 1_556 S
C155 C156 1.399 . S
C156 C155 1.399 . S
C156 C157 1.396 . S
C156 C159 1.453 . S
C156 C160 1.684 . S
C157 C147 1.723 . S
C157 C156 1.396 . S
C157 C158 1.394 1_556 S
C158 C128 1.723 . S
C158 C154 1.397 . S
C158 C157 1.394 1_554 S
C159 H131 0.982 . S
C159 H135 0.979 . S
C159 H136 0.977 . S
C159 C156 1.453 . S
C160 H132 0.979 . S
C160 H133 0.980 . S
C160 H134 0.983 . S
C160 C156 1.684 . S
H161 C179 0.948 . S
H162 C120 0.948 . S
H163 C138 0.979 . S
H164 C138 0.980 . S
H165 C138 0.983 . S
H166 C137 0.982 . S
H167 C137 0.979 . S
H168 C137 0.977 . S
H169 C139 0.948 . S
H170 C141 0.947 . S
H171 C142 0.948 . S
H172 C148 0.982 . S
H173 C148 0.979 . S
H174 C148 0.977 1_554 S
H175 C149 0.979 . S
H176 C149 0.980 1_554 S
H177 C149 0.983 . S
H178 C122 0.947 . S
C179 C122 1.392 . S
C179 C123 1.419 . S
C179 H161 0.948 . S
C180 C181 1.391 . S
C180 C184 1.391 . S
C180 H222 0.948 . S
C181 C180 1.391 . S
C181 C182 1.391 . S
C182 C181 1.391 . S
C182 H238 0.947 . S
C182 C239 1.392 . S
C183 C184 1.391 . S
C183 C187 1.397 . S
C183 C239 1.419 . S
C184 C180 1.391 . S
C184 C183 1.391 . S
C184 C185 1.399 . S
C185 C184 1.399 . S
C185 C188 1.396 . S
C185 C197 1.453 . S
C185 C198 1.684 . S
H186 C210 0.948 . S
C187 C183 1.397 . S
C187 C188 1.394 . S
C187 C206 1.723 . S
C188 C185 1.396 . S
C188 C187 1.394 . S
C188 C218 1.723 . S
H189 C212 0.947 . S
H190 C213 0.948 . S
H191 C219 0.982 . S
H192 C220 0.979 . S
H193 C220 0.980 . S
H194 C220 0.983 . S
H195 C219 0.979 . S
H196 C219 0.977 . S
C197 C185 1.453 . S
C197 H226 0.982 . S
C197 H227 0.979 . S
C197 H228 0.977 . S
C198 C185 1.684 . S
C198 H223 0.979 . S
C198 H224 0.980 . S
C198 H225 0.983 . S
C199 C200 1.391 . S
C199 C204 1.391 . S
C199 H229 0.948 . S
C200 C199 1.391 . S
C200 C201 1.391 . S
C201 C200 1.391 . S
C201 C202 1.392 . S
C201 H230 0.947 . S
C202 C201 1.392 . S
C202 C203 1.419 . S
C202 H231 0.948 . S
C203 C202 1.419 . S
C203 C204 1.391 . S
C203 C207 1.397 . S
C204 C199 1.391 . S
C204 C203 1.391 . S
C204 C205 1.399 . S
C205 C204 1.399 . S
C205 C206 1.396 . S
C205 C208 1.453 . S
C205 C209 1.684 . S
C206 C187 1.723 . S
C206 C205 1.396 . S
C206 C207 1.394 . S
C207 C203 1.397 . S
C207 C206 1.394 . S
C207 C217 1.723 . S
C208 C205 1.453 . S
C208 H232 0.982 . S
C208 H233 0.979 . S
C208 H234 0.977 . S
C209 C205 1.684 . S
C209 H235 0.979 . S
C209 H236 0.980 . S
C209 H237 0.983 . S
C210 H186 0.948 . S
C210 C211 1.391 . S
C210 C215 1.391 . S
C211 C210 1.391 . S
C211 C212 1.391 . S
C212 H189 0.947 . S
C212 C211 1.391 . S
C212 C213 1.392 . S
C213 H190 0.948 . S
C213 C212 1.392 . S
C213 C214 1.419 . S
C214 C213 1.419 . S
C214 C215 1.391 . S
C214 C218 1.397 . S
C215 C210 1.391 . S
C215 C214 1.391 . S
C215 C216 1.399 . S
C216 C215 1.399 . S
C216 C217 1.396 . S
C216 C219 1.453 . S
C216 C220 1.684 . S
C217 C207 1.723 . S
C217 C216 1.396 . S
C217 C218 1.394 . S
C218 C188 1.723 . S
C218 C214 1.397 . S
C218 C217 1.394 . S
C219 H191 0.982 . S
C219 H195 0.979 . S
C219 H196 0.977 . S
C219 C216 1.453 . S
C220 H192 0.979 . S
C220 H193 0.980 . S
C220 H194 0.983 . S
C220 C216 1.684 . S
H221 C239 0.948 . S
H222 C180 0.948 . S
H223 C198 0.979 . S
H224 C198 0.980 . S
H225 C198 0.983 . S
H226 C197 0.982 . S
H227 C197 0.979 . S
H228 C197 0.977 . S
H229 C199 0.948 . S
H230 C201 0.947 . S
H231 C202 0.948 . S
H232 C208 0.982 . S
H233 C208 0.979 . S
H234 C208 0.977 . S
H235 C209 0.979 . S
H236 C209 0.980 . S
H237 C209 0.983 . S
H238 C182 0.947 . S
C239 C182 1.392 . S
C239 C183 1.419 . S
C239 H221 0.948 . S
O240 Mn241 2.163 1_655 S
O240 C254 1.244 . S
Mn241 O240 2.163 1_455 S
Mn241 O244 2.160 1_545 S
Mn241 O245 2.221 . S
Mn241 O247 2.163 1_455 S
Mn241 O249 2.160 . S
Mn241 O259 2.221 1_445 S
O242 Mn243 2.087 1_545 S
O242 C254 1.256 . S
Mn243 O242 2.087 1_565 S
Mn243 O250 2.089 1_655 S
Mn243 O259 2.290 . S
Mn243 O260 2.251 . S
O244 Mn241 2.160 1_565 S
O244 C255 1.239 1_565 S
O245 Mn241 2.221 . S
O245 Mn246 2.290 . S
O245 C256 1.278 . S
Mn246 O245 2.290 . S
Mn246 O248 2.089 . S
Mn246 O251 2.251 . S
Mn246 O252 2.087 1_455 S
O247 Mn241 2.163 1_655 S
O247 C257 1.244 . S
O248 Mn246 2.089 . S
O248 C255 1.256 . S
O249 Mn241 2.160 . S
O249 C258 1.239 1_545 S
O250 Mn243 2.089 1_455 S
O250 C258 1.256 . S
O251 Mn246 2.251 . S
O251 C256 1.241 . S
O252 Mn246 2.087 1_655 S
O252 C257 1.256 . S
C253 O259 1.278 . S
C253 O260 1.241 . S
C254 O240 1.244 . S
C254 O242 1.256 . S
C255 O244 1.239 1_545 S
C255 O248 1.256 . S
C256 O245 1.278 . S
C256 O251 1.241 . S
C257 O247 1.244 . S
C257 O252 1.256 . S
C258 O249 1.239 1_565 S
C258 O250 1.256 . S
O259 Mn241 2.221 1_665 S
O259 Mn243 2.290 . S
O259 C253 1.278 . S
O260 Mn243 2.251 . S
O260 C253 1.241 . S
O261 Mn262 2.163 . S
O261 C275 1.244 . S
Mn262 O261 2.163 . S
Mn262 O265 2.160 1_554 S
Mn262 O266 2.221 . S
Mn262 O268 2.163 . S
Mn262 O270 2.160 . S
Mn262 O280 2.221 . S
O263 Mn264 2.087 . S
O263 C275 1.256 . S
Mn264 O263 2.087 . S
Mn264 O271 2.089 . S
Mn264 O280 2.290 . S
Mn264 O281 2.251 . S
O265 Mn262 2.160 1_556 S
O265 C276 1.239 . S
O266 Mn262 2.221 . S
O266 Mn267 2.290 1_554 S
O266 C277 1.278 . S
Mn267 O266 2.290 1_556 S
Mn267 O269 2.089 . S
Mn267 O272 2.251 1_556 S
Mn267 O273 2.087 . S
O268 Mn262 2.163 . S
O268 C278 1.244 1_554 S
O269 Mn267 2.089 . S
O269 C276 1.256 . S
O270 Mn262 2.160 . S
O270 C279 1.239 . S
O271 Mn264 2.089 . S
O271 C279 1.256 . S
O272 Mn267 2.251 1_554 S
O272 C277 1.241 . S
O273 Mn267 2.087 . S
O273 C278 1.256 . S
C274 O280 1.278 . S
C274 O281 1.241 . S
C275 O261 1.244 . S
C275 O263 1.256 . S
C276 O265 1.239 . S
C276 O269 1.256 . S
C277 O266 1.278 . S
C277 O272 1.241 . S
C278 O268 1.244 1_556 S
C278 O273 1.256 . S
C279 O270 1.239 . S
C279 O271 1.256 . S
O280 Mn262 2.221 . S
O280 Mn264 2.290 . S
O280 C274 1.278 . S
O281 Mn264 2.251 . S
O281 C274 1.241 . S
H282 C300 0.951 . S
H283 C302 0.951 . S
H284 C304 0.950 . S
H285 C305 0.950 . S
H286 C307 0.950 . S
H287 C310 0.950 . S
H288 C311 0.950 . S
H289 C313 0.937 1_655 S
H290 C314 0.950 . S
H291 C315 0.951 . S
H292 C317 0.951 . S
H293 C319 0.950 . S
H294 C320 0.950 . S
H295 C322 0.950 . S
H296 C325 0.950 . S
H297 C326 0.950 . S
H298 C328 0.950 . S
H299 C329 0.950 . S
C300 H282 0.951 . S
C300 C301 1.366 . S
C300 C302 1.388 . S
C301 C300 1.366 . S
C301 C305 1.385 . S
C302 H283 0.951 . S
C302 C300 1.388 . S
C302 C303 1.366 . S
C303 C302 1.366 . S
C303 C304 1.414 . S
C303 C306 1.499 . S
C304 H284 0.950 . S
C304 C303 1.414 . S
C304 C305 1.374 . S
C305 H285 0.950 . S
C305 C301 1.385 . S
C305 C304 1.374 . S
C306 C303 1.499 . S
C306 C307 1.373 . S
C306 C308 1.389 . S
C307 H286 0.950 . S
C307 C306 1.373 . S
C307 C323 1.377 . S
C308 C306 1.389 . S
C308 C309 1.524 . S
C308 C322 1.377 . S
C309 C308 1.524 . S
C309 C310 1.397 . S
C309 C314 1.363 . S
C310 H287 0.950 . S
C310 C309 1.397 . S
C310 C311 1.334 . S
C311 H288 0.950 . S
C311 C310 1.334 . S
C311 C312 1.287 . S
C312 C311 1.287 . S
C312 C313 1.524 . S
C312 H331 0.913 1_455 S
C313 H289 0.937 1_455 S
C313 C312 1.524 . S
C313 C314 1.415 . S
C314 H290 0.950 . S
C314 C309 1.363 . S
C314 C313 1.415 . S
C315 H291 0.951 . S
C315 C316 1.366 . S
C315 C317 1.388 . S
C316 C315 1.366 . S
C316 C320 1.385 . S
C317 H292 0.951 . S
C317 C315 1.388 . S
C317 C318 1.366 . S
C318 C317 1.366 . S
C318 C319 1.414 . S
C318 C321 1.499 . S
C319 H293 0.950 . S
C319 C318 1.414 . S
C319 C320 1.374 . S
C320 H294 0.950 . S
C320 C316 1.385 . S
C320 C319 1.374 . S
C321 C318 1.499 . S
C321 C322 1.373 . S
C321 C323 1.389 . S
C322 H295 0.950 . S
C322 C308 1.377 . S
C322 C321 1.373 . S
C323 C307 1.377 . S
C323 C321 1.389 . S
C323 C324 1.524 . S
C324 C323 1.524 . S
C324 C325 1.397 . S
C324 C329 1.363 . S
C325 H296 0.950 . S
C325 C324 1.397 . S
C325 C326 1.334 . S
C326 H297 0.950 . S
C326 C325 1.334 . S
C326 C327 1.287 . S
C327 C326 1.287 . S
C327 C328 1.524 . S
C327 H330 0.999 . S
C328 H298 0.950 . S
C328 C327 1.524 . S
C328 C329 1.415 . S
C329 H299 0.950 . S
C329 C324 1.363 . S
C329 C328 1.415 . S
H330 C327 0.999 . S
H331 C312 0.913 1_655 S
H332 C350 0.951 . S
H333 C352 0.951 . S
H334 C354 0.950 . S
H335 C355 0.950 . S
H336 C357 0.950 . S
H337 C360 0.950 . S
H338 C361 0.950 . S
H339 C363 0.950 . S
H340 C364 0.950 . S
H341 C365 0.951 . S
H342 C367 0.951 . S
H343 C369 0.950 . S
H344 C370 0.950 . S
H345 C372 0.950 . S
H346 C375 0.950 . S
H347 C376 0.950 . S
H348 C378 0.950 . S
H349 C379 0.950 . S
C350 H332 0.951 . S
C350 C351 1.366 . S
C350 C352 1.388 . S
C351 C350 1.366 . S
C351 C355 1.385 . S
C352 H333 0.951 . S
C352 C350 1.388 . S
C352 C353 1.366 . S
C353 C352 1.366 . S
C353 C354 1.414 . S
C353 C356 1.499 . S
C354 H334 0.950 . S
C354 C353 1.414 . S
C354 C355 1.374 . S
C355 H335 0.950 . S
C355 C351 1.385 . S
C355 C354 1.374 . S
C356 C353 1.499 . S
C356 C357 1.373 . S
C356 C358 1.389 . S
C357 H336 0.950 . S
C357 C356 1.373 . S
C357 C373 1.377 . S
C358 C356 1.389 . S
C358 C359 1.524 . S
C358 C372 1.377 . S
C359 C358 1.524 . S
C359 C360 1.397 . S
C359 C364 1.363 . S
C360 H337 0.950 . S
C360 C359 1.397 . S
C360 C361 1.334 . S
C361 H338 0.950 . S
C361 C360 1.334 . S
C361 C362 1.287 . S
C362 C361 1.287 . S
C362 C363 1.524 . S
C362 H381 0.913 . S
C363 H339 0.950 . S
C363 C362 1.524 . S
C363 C364 1.415 . S
C364 H340 0.950 . S
C364 C359 1.363 . S
C364 C363 1.415 . S
C365 H341 0.951 . S
C365 C366 1.366 . S
C365 C367 1.388 . S
C366 C365 1.366 . S
C366 C370 1.385 . S
C367 H342 0.951 . S
C367 C365 1.388 . S
C367 C368 1.366 . S
C368 C367 1.366 . S
C368 C369 1.414 . S
C368 C371 1.499 . S
C369 H343 0.950 . S
C369 C368 1.414 . S
C369 C370 1.374 . S
C370 H344 0.950 . S
C370 C366 1.385 . S
C370 C369 1.374 . S
C371 C368 1.499 . S
C371 C372 1.373 . S
C371 C373 1.389 . S
C372 H345 0.950 . S
C372 C358 1.377 . S
C372 C371 1.373 . S
C373 C357 1.377 . S
C373 C371 1.389 . S
C373 C374 1.524 . S
C374 C373 1.524 . S
C374 C375 1.397 1_554 S
C374 C379 1.363 . S
C375 H346 0.950 . S
C375 C374 1.397 1_556 S
C375 C376 1.334 . S
C376 H347 0.950 . S
C376 C375 1.334 . S
C376 C377 1.287 . S
C377 C376 1.287 . S
C377 C378 1.524 1_556 S
C377 H380 0.999 . S
C378 H348 0.950 . S
C378 C377 1.524 1_554 S
C378 C379 1.415 . S
C379 H349 0.950 . S
C379 C374 1.363 . S
C379 C378 1.415 . S
H380 C377 0.999 . S
H381 C362 0.913 . S
H382 C400 0.951 . S
H383 C402 0.951 . S
H384 C404 0.950 . S
H385 C405 0.950 . S
H386 C407 0.950 . S
H387 C410 0.950 . S
H388 C411 0.950 . S
H389 C413 0.950 1_455 S
H390 C414 0.950 . S
H391 C415 0.951 . S
H392 C417 0.951 . S
H393 C419 0.950 . S
H394 C420 0.950 . S
H395 C422 0.950 . S
H396 C425 0.950 . S
H397 C426 0.950 . S
H398 C428 0.950 . S
H399 C429 0.950 . S
C400 H382 0.951 . S
C400 C401 1.366 . S
C400 C402 1.388 . S
C401 C400 1.366 . S
C401 C405 1.385 . S
C402 H383 0.951 . S
C402 C400 1.388 . S
C402 C403 1.366 . S
C403 C402 1.366 . S
C403 C404 1.414 . S
C403 C406 1.499 . S
C404 H384 0.950 . S
C404 C403 1.414 . S
C404 C405 1.374 . S
C405 H385 0.950 . S
C405 C401 1.385 . S
C405 C404 1.374 . S
C406 C403 1.499 . S
C406 C407 1.373 . S
C406 C408 1.389 . S
C407 H386 0.950 . S
C407 C406 1.373 . S
C407 C423 1.377 . S
C408 C406 1.389 . S
C408 C409 1.524 . S
C408 C422 1.377 . S
C409 C408 1.524 . S
C409 C410 1.397 . S
C409 C414 1.363 . S
C410 H387 0.950 . S
C410 C409 1.397 . S
C410 C411 1.334 . S
C411 H388 0.950 . S
C411 C410 1.334 . S
C411 C412 1.287 . S
C412 C411 1.287 . S
C412 C413 1.524 . S
C412 H431 0.913 . S
C413 H389 0.950 1_655 S
C413 C412 1.524 . S
C413 C414 1.415 . S
C414 H390 0.950 . S
C414 C409 1.363 . S
C414 C413 1.415 . S
C415 H391 0.951 . S
C415 C416 1.366 . S
C415 C417 1.388 . S
C416 C415 1.366 . S
C416 C420 1.385 . S
C417 H392 0.951 . S
C417 C415 1.388 . S
C417 C418 1.366 . S
C418 C417 1.366 . S
C418 C419 1.414 . S
C418 C421 1.499 . S
C419 H393 0.950 . S
C419 C418 1.414 . S
C419 C420 1.374 . S
C420 H394 0.950 . S
C420 C416 1.385 . S
C420 C419 1.374 . S
C421 C418 1.499 . S
C421 C422 1.373 . S
C421 C423 1.389 . S
C422 H395 0.950 . S
C422 C408 1.377 . S
C422 C421 1.373 . S
C423 C407 1.377 . S
C423 C421 1.389 . S
C423 C424 1.524 . S
C424 C423 1.524 . S
C424 C425 1.397 . S
C424 C429 1.363 . S
C425 H396 0.950 . S
C425 C424 1.397 . S
C425 C426 1.334 . S
C426 H397 0.950 . S
C426 C425 1.334 . S
C426 C427 1.287 . S
C427 C426 1.287 . S
C427 C428 1.524 . S
C427 H430 0.999 . S
C428 H398 0.950 . S
C428 C427 1.524 . S
C428 C429 1.415 . S
C429 H399 0.950 . S
C429 C424 1.363 . S
C429 C428 1.415 . S
H430 C427 0.999 . S
H431 C412 0.913 . S
H432 C450 0.951 . S
H433 C452 0.951 . S
H434 C454 0.950 . S
H435 C455 0.950 . S
H436 C457 0.950 . S
H437 C460 0.949 . S
H438 C461 0.950 . S
H439 C463 0.950 . S
H440 C464 0.950 . S
H441 C465 0.951 . S
H442 C467 0.951 . S
H443 C469 0.950 . S
H444 C470 0.950 . S
H445 C472 0.950 . S
H446 C475 0.950 . S
H447 C476 0.950 . S
H448 C478 0.950 . S
H449 C479 0.950 . S
C450 H432 0.951 . S
C450 C451 1.366 . S
C450 C452 1.388 . S
C451 C450 1.366 . S
C451 C455 1.385 1_556 S
C452 H433 0.951 . S
C452 C450 1.388 . S
C452 C453 1.366 1_556 S
C453 C452 1.366 1_554 S
C453 C454 1.414 . S
C453 C456 1.499 . S
C454 H434 0.950 . S
C454 C453 1.414 . S
C454 C455 1.374 . S
C455 H435 0.950 . S
C455 C451 1.385 1_554 S
C455 C454 1.374 . S
C456 C453 1.499 . S
C456 C457 1.373 . S
C456 C458 1.389 1_554 S
C457 H436 0.950 . S
C457 C456 1.373 . S
C457 C473 1.377 . S
C458 C456 1.389 1_556 S
C458 C459 1.524 . S
C458 C472 1.377 . S
C459 C458 1.524 . S
C459 C460 1.397 . S
C459 C464 1.363 . S
C460 H437 0.949 . S
C460 C459 1.397 . S
C460 C461 1.334 . S
C461 H438 0.950 . S
C461 C460 1.334 . S
C461 C462 1.287 . S
C462 C461 1.287 . S
C462 C463 1.524 . S
C462 H481 0.913 . S
C463 H439 0.950 . S
C463 C462 1.524 . S
C463 C464 1.415 . S
C464 H440 0.950 . S
C464 C459 1.363 . S
C464 C463 1.415 . S
C465 H441 0.951 . S
C465 C466 1.366 . S
C465 C467 1.388 . S
C466 C465 1.366 . S
C466 C470 1.385 1_554 S
C467 H442 0.951 . S
C467 C465 1.388 . S
C467 C468 1.366 . S
C468 C467 1.366 . S
C468 C469 1.414 1_554 S
C468 C471 1.499 . S
C469 H443 0.950 . S
C469 C468 1.414 1_556 S
C469 C470 1.374 . S
C470 H444 0.950 . S
C470 C466 1.385 1_556 S
C470 C469 1.374 . S
C471 C468 1.499 . S
C471 C472 1.373 1_554 S
C471 C473 1.389 . S
C472 H445 0.950 . S
C472 C458 1.377 . S
C472 C471 1.373 1_556 S
C473 C457 1.377 . S
C473 C471 1.389 . S
C473 C474 1.524 . S
C474 C473 1.524 . S
C474 C475 1.397 . S
C474 C479 1.363 . S
C475 H446 0.950 . S
C475 C474 1.397 . S
C475 C476 1.334 . S
C476 H447 0.950 . S
C476 C475 1.334 . S
C476 C477 1.287 . S
C477 C476 1.287 . S
C477 C478 1.524 . S
C477 H480 0.999 . S
C478 H448 0.950 . S
C478 C477 1.524 . S
C478 C479 1.415 . S
C479 H449 0.950 . S
C479 C474 1.363 . S
C479 C478 1.415 . S
H480 C477 0.999 . S
H481 C462 0.913 . S
H482 C500 0.951 . S
H483 C502 0.951 . S
H484 C504 0.950 . S
H485 C505 0.950 . S
H486 C507 0.950 . S
H487 C510 0.950 . S
H488 C511 0.950 . S
H489 C513 0.950 . S
H490 C514 0.950 . S
H491 C515 0.951 . S
H492 C517 0.951 . S
H493 C519 0.950 . S
H494 C520 0.950 . S
H495 C522 0.950 . S
H496 C525 0.950 . S
H497 C526 0.950 . S
H498 C528 0.950 . S
H499 C529 0.950 . S
C500 H482 0.951 . S
C500 C501 1.366 . S
C500 C502 1.388 . S
C501 C500 1.366 . S
C501 C505 1.385 . S
C502 H483 0.951 . S
C502 C500 1.388 . S
C502 C503 1.366 . S
C503 C502 1.366 . S
C503 C504 1.414 . S
C503 C506 1.499 . S
C504 H484 0.950 . S
C504 C503 1.414 . S
C504 C505 1.374 . S
C505 H485 0.950 . S
C505 C501 1.385 . S
C505 C504 1.374 . S
C506 C503 1.499 . S
C506 C507 1.373 . S
C506 C508 1.389 . S
C507 H486 0.950 . S
C507 C506 1.373 . S
C507 C523 1.377 . S
C508 C506 1.389 . S
C508 C509 1.524 . S
C508 C522 1.377 . S
C509 C508 1.524 . S
C509 C510 1.397 1_565 S
C509 C514 1.363 . S
C510 H487 0.950 . S
C510 C509 1.397 1_545 S
C510 C511 1.334 . S
C511 H488 0.950 . S
C511 C510 1.334 . S
C511 C512 1.287 . S
C512 C511 1.287 . S
C512 C513 1.524 . S
C512 H531 0.913 . S
C513 H489 0.950 . S
C513 C512 1.524 . S
C513 C514 1.415 1_545 S
C514 H490 0.950 . S
C514 C509 1.363 . S
C514 C513 1.415 1_565 S
C515 H491 0.951 . S
C515 C516 1.366 . S
C515 C517 1.388 . S
C516 C515 1.366 . S
C516 C520 1.385 . S
C517 H492 0.951 . S
C517 C515 1.388 . S
C517 C518 1.366 . S
C518 C517 1.366 . S
C518 C519 1.414 . S
C518 C521 1.499 . S
C519 H493 0.950 . S
C519 C518 1.414 . S
C519 C520 1.374 . S
C520 H494 0.950 . S
C520 C516 1.385 . S
C520 C519 1.374 . S
C521 C518 1.499 . S
C521 C522 1.373 . S
C521 C523 1.389 . S
C522 H495 0.950 . S
C522 C508 1.377 . S
C522 C521 1.373 . S
C523 C507 1.377 . S
C523 C521 1.389 . S
C523 C524 1.524 . S
C524 C523 1.524 . S
C524 C525 1.397 . S
C524 C529 1.363 . S
C525 H496 0.950 . S
C525 C524 1.397 . S
C525 C526 1.334 . S
C526 H497 0.950 . S
C526 C525 1.334 . S
C526 C527 1.287 . S
C527 C526 1.287 . S
C527 C528 1.524 . S
C527 H530 0.999 . S
C528 H498 0.950 . S
C528 C527 1.524 . S
C528 C529 1.415 . S
C529 H499 0.950 . S
C529 C524 1.363 . S
C529 C528 1.415 . S
H530 C527 0.999 . S
H531 C512 0.913 . S
H532 C550 0.951 . S
H533 C552 0.951 . S
H534 C554 0.950 . S
H535 C555 0.950 . S
H536 C557 0.950 . S
H537 C560 0.950 . S
H538 C561 0.950 . S
H539 C563 0.950 . S
H540 C564 0.950 . S
H541 C565 0.951 . S
H542 C567 0.951 . S
H543 C569 0.950 . S
H544 C570 0.950 . S
H545 C572 0.950 . S
H546 C575 0.950 . S
H547 C576 0.950 . S
H548 C578 0.950 . S
H549 C579 0.950 . S
C550 H532 0.951 . S
C550 C551 1.366 . S
C550 C552 1.388 . S
C551 C550 1.366 . S
C551 C555 1.385 . S
C552 H533 0.951 . S
C552 C550 1.388 . S
C552 C553 1.366 . S
C553 C552 1.366 . S
C553 C554 1.414 . S
C553 C556 1.499 . S
C554 H534 0.950 . S
C554 C553 1.414 . S
C554 C555 1.374 . S
C555 H535 0.950 . S
C555 C551 1.385 . S
C555 C554 1.374 . S
C556 C553 1.499 . S
C556 C557 1.373 . S
C556 C558 1.389 . S
C557 H536 0.950 . S
C557 C556 1.373 . S
C557 C573 1.377 . S
C558 C556 1.389 . S
C558 C559 1.524 . S
C558 C572 1.377 . S
C559 C558 1.524 . S
C559 C560 1.397 . S
C559 C564 1.363 . S
C560 H537 0.950 . S
C560 C559 1.397 . S
C560 C561 1.334 . S
C561 H538 0.950 . S
C561 C560 1.334 . S
C561 C562 1.287 . S
C562 C561 1.287 . S
C562 C563 1.524 . S
C562 H581 0.913 . S
C563 H539 0.950 . S
C563 C562 1.524 . S
C563 C564 1.415 . S
C564 H540 0.950 . S
C564 C559 1.363 . S
C564 C563 1.415 . S
C565 H541 0.951 . S
C565 C566 1.366 . S
C565 C567 1.388 . S
C566 C565 1.366 . S
C566 C570 1.385 . S
C567 H542 0.951 . S
C567 C565 1.388 . S
C567 C568 1.366 . S
C568 C567 1.366 . S
C568 C569 1.414 . S
C568 C571 1.499 . S
C569 H543 0.950 . S
C569 C568 1.414 . S
C569 C570 1.374 . S
C570 H544 0.950 . S
C570 C566 1.385 . S
C570 C569 1.374 . S
C571 C568 1.499 . S
C571 C572 1.373 . S
C571 C573 1.389 . S
C572 H545 0.950 . S
C572 C558 1.377 . S
C572 C571 1.373 . S
C573 C557 1.377 . S
C573 C571 1.389 . S
C573 C574 1.524 . S
C574 C573 1.524 . S
C574 C575 1.397 . S
C574 C579 1.363 . S
C575 H546 0.950 . S
C575 C574 1.397 . S
C575 C576 1.334 . S
C576 H547 0.950 . S
C576 C575 1.334 . S
C576 C577 1.287 . S
C577 C576 1.287 . S
C577 C578 1.524 . S
C577 H580 0.999 . S
C578 H548 0.950 . S
C578 C577 1.524 . S
C578 C579 1.415 . S
C579 H549 0.950 . S
C579 C574 1.363 . S
C579 C578 1.415 . S
H580 C577 0.999 . S
H581 C562 0.913 . S
H582 C600 0.951 . S
H583 C602 0.951 . S
H584 C604 0.950 . S
H585 C605 0.950 . S
H586 C607 0.950 . S
H587 C610 0.950 . S
H588 C611 0.950 . S
H589 C613 0.950 . S
H590 C614 0.950 . S
H591 C615 0.951 . S
H592 C617 0.951 . S
H593 C619 0.950 . S
H594 C620 0.950 . S
H595 C622 0.950 . S
H596 C625 0.950 . S
H597 C626 0.950 1_455 S
H598 C628 0.950 . S
H599 C629 0.950 . S
C600 H582 0.951 . S
C600 C601 1.366 . S
C600 C602 1.388 . S
C601 C600 1.366 . S
C601 C605 1.385 . S
C602 H583 0.951 . S
C602 C600 1.388 . S
C602 C603 1.366 . S
C603 C602 1.366 . S
C603 C604 1.414 . S
C603 C606 1.499 . S
C604 H584 0.950 . S
C604 C603 1.414 . S
C604 C605 1.374 . S
C605 H585 0.950 . S
C605 C601 1.385 . S
C605 C604 1.374 . S
C606 C603 1.499 . S
C606 C607 1.373 . S
C606 C608 1.389 . S
C607 H586 0.950 . S
C607 C606 1.373 . S
C607 C623 1.377 . S
C608 C606 1.389 . S
C608 C609 1.524 . S
C608 C622 1.377 . S
C609 C608 1.524 . S
C609 C610 1.397 . S
C609 C614 1.363 . S
C610 H587 0.950 . S
C610 C609 1.397 . S
C610 C611 1.334 . S
C611 H588 0.950 . S
C611 C610 1.334 . S
C611 C612 1.287 . S
C612 C611 1.287 . S
C612 C613 1.524 1_545 S
C612 H631 0.913 . S
C613 H589 0.950 . S
C613 C612 1.524 1_565 S
C613 C614 1.415 1_565 S
C614 H590 0.950 . S
C614 C609 1.363 . S
C614 C613 1.415 1_545 S
C615 H591 0.951 . S
C615 C616 1.366 . S
C615 C617 1.388 . S
C616 C615 1.366 . S
C616 C620 1.385 . S
C617 H592 0.951 . S
C617 C615 1.388 . S
C617 C618 1.366 . S
C618 C617 1.366 . S
C618 C619 1.414 . S
C618 C621 1.499 . S
C619 H593 0.950 . S
C619 C618 1.414 . S
C619 C620 1.374 . S
C620 H594 0.950 . S
C620 C616 1.385 . S
C620 C619 1.374 . S
C621 C618 1.499 . S
C621 C622 1.373 . S
C621 C623 1.389 . S
C622 H595 0.950 . S
C622 C608 1.377 . S
C622 C621 1.373 . S
C623 C607 1.377 . S
C623 C621 1.389 . S
C623 C624 1.524 . S
C624 C623 1.524 . S
C624 C625 1.397 . S
C624 C629 1.363 . S
C625 H596 0.950 . S
C625 C624 1.397 . S
C625 C626 1.334 . S
C626 H597 0.950 1_655 S
C626 C625 1.334 . S
C626 C627 1.287 . S
C627 C626 1.287 . S
C627 C628 1.524 . S
C627 H630 0.999 1_655 S
C628 H598 0.950 . S
C628 C627 1.524 . S
C628 C629 1.415 . S
C629 H599 0.950 . S
C629 C624 1.363 . S
C629 C628 1.415 . S
H630 C627 0.999 1_455 S
H631 C612 0.913 . S
H632 C650 0.951 . S
H633 C652 0.951 . S
H634 C654 0.950 . S
H635 C655 0.950 . S
H636 C657 0.950 . S
H637 C660 0.950 . S
H638 C661 0.950 . S
H639 C663 0.950 . S
H640 C664 0.950 . S
H641 C665 0.951 . S
H642 C667 0.951 . S
H643 C669 0.950 . S
H644 C670 0.950 . S
H645 C672 0.950 . S
H646 C675 0.950 . S
H647 C676 0.950 . S
H648 C678 0.950 . S
H649 C679 0.950 . S
C650 H632 0.951 . S
C650 C651 1.366 . S
C650 C652 1.388 . S
C651 C650 1.366 . S
C651 C655 1.385 . S
C652 H633 0.951 . S
C652 C650 1.388 . S
C652 C653 1.366 . S
C653 C652 1.366 . S
C653 C654 1.414 . S
C653 C656 1.499 . S
C654 H634 0.950 . S
C654 C653 1.414 . S
C654 C655 1.374 . S
C655 H635 0.950 . S
C655 C651 1.385 . S
C655 C654 1.374 . S
C656 C653 1.499 . S
C656 C657 1.373 . S
C656 C658 1.389 . S
C657 H636 0.950 . S
C657 C656 1.373 . S
C657 C673 1.377 . S
C658 C656 1.389 . S
C658 C659 1.524 . S
C658 C672 1.377 . S
C659 C658 1.524 . S
C659 C660 1.397 . S
C659 C664 1.363 . S
C660 H637 0.950 . S
C660 C659 1.397 . S
C660 C661 1.334 . S
C661 H638 0.950 . S
C661 C660 1.334 . S
C661 C662 1.287 . S
C662 C661 1.287 . S
C662 C663 1.524 . S
C662 H681 0.913 . S
C663 H639 0.950 . S
C663 C662 1.524 . S
C663 C664 1.415 . S
C664 H640 0.950 . S
C664 C659 1.363 . S
C664 C663 1.415 . S
C665 H641 0.951 . S
C665 C666 1.366 . S
C665 C667 1.388 . S
C666 C665 1.366 . S
C666 C670 1.385 . S
C667 H642 0.951 . S
C667 C665 1.388 . S
C667 C668 1.366 . S
C668 C667 1.366 . S
C668 C669 1.414 . S
C668 C671 1.499 . S
C669 H643 0.950 . S
C669 C668 1.414 . S
C669 C670 1.374 . S
C670 H644 0.950 . S
C670 C666 1.385 . S
C670 C669 1.374 . S
C671 C668 1.499 . S
C671 C672 1.373 . S
C671 C673 1.389 . S
C672 H645 0.950 . S
C672 C658 1.377 . S
C672 C671 1.373 . S
C673 C657 1.377 . S
C673 C671 1.389 . S
C673 C674 1.524 . S
C674 C673 1.524 . S
C674 C675 1.397 . S
C674 C679 1.363 . S
C675 H646 0.950 . S
C675 C674 1.397 . S
C675 C676 1.334 . S
C676 H647 0.950 . S
C676 C675 1.334 . S
C676 C677 1.287 . S
C677 C676 1.287 . S
C677 C678 1.524 . S
C677 H680 0.999 . S
C678 H648 0.950 . S
C678 C677 1.524 . S
C678 C679 1.415 . S
C679 H649 0.950 . S
C679 C674 1.363 . S
C679 C678 1.415 . S
H680 C677 0.999 . S
H681 C662 0.913 . S
H682 C700 0.951 . S
H683 C702 0.951 . S
H684 C704 0.950 . S
H685 C705 0.950 . S
H686 C707 0.950 . S
H687 C710 0.950 . S
H688 C711 0.950 . S
H689 C713 0.950 . S
H690 C714 0.950 . S
H691 C715 0.951 . S
H692 C717 0.951 . S
H693 C719 0.950 . S
H694 C720 0.950 . S
H695 C722 0.950 . S
H696 C725 0.950 . S
H697 C726 0.950 . S
H698 C728 0.950 . S
H699 C729 0.950 . S
C700 H682 0.951 . S
C700 C701 1.366 . S
C700 C702 1.388 . S
C701 C700 1.366 . S
C701 C705 1.385 . S
C702 H683 0.951 . S
C702 C700 1.388 . S
C702 C703 1.366 . S
C703 C702 1.366 . S
C703 C704 1.414 . S
C703 C706 1.499 . S
C704 H684 0.950 . S
C704 C703 1.414 . S
C704 C705 1.374 . S
C705 H685 0.950 . S
C705 C701 1.385 . S
C705 C704 1.374 . S
C706 C703 1.499 . S
C706 C707 1.373 . S
C706 C708 1.389 . S
C707 H686 0.950 . S
C707 C706 1.373 . S
C707 C723 1.377 . S
C708 C706 1.389 . S
C708 C709 1.524 . S
C708 C722 1.377 . S
C709 C708 1.524 . S
C709 C710 1.397 . S
C709 C714 1.363 . S
C710 H687 0.950 . S
C710 C709 1.397 . S
C710 C711 1.334 . S
C711 H688 0.950 . S
C711 C710 1.334 . S
C711 C712 1.287 . S
C712 C711 1.287 . S
C712 C713 1.524 . S
C712 H731 0.913 . S
C713 H689 0.950 . S
C713 C712 1.524 . S
C713 C714 1.415 . S
C714 H690 0.950 . S
C714 C709 1.363 . S
C714 C713 1.415 . S
C715 H691 0.951 . S
C715 C716 1.366 . S
C715 C717 1.388 . S
C716 C715 1.366 . S
C716 C720 1.385 . S
C717 H692 0.951 . S
C717 C715 1.388 . S
C717 C718 1.366 . S
C718 C717 1.366 . S
C718 C719 1.414 . S
C718 C721 1.499 . S
C719 H693 0.950 . S
C719 C718 1.414 . S
C719 C720 1.374 . S
C720 H694 0.950 . S
C720 C716 1.385 . S
C720 C719 1.374 . S
C721 C718 1.499 . S
C721 C722 1.373 . S
C721 C723 1.389 . S
C722 H695 0.950 . S
C722 C708 1.377 . S
C722 C721 1.373 . S
C723 C707 1.377 . S
C723 C721 1.389 . S
C723 C724 1.524 . S
C724 C723 1.524 . S
C724 C725 1.397 . S
C724 C729 1.363 . S
C725 H696 0.950 . S
C725 C724 1.397 . S
C725 C726 1.334 . S
C726 H697 0.950 . S
C726 C725 1.334 . S
C726 C727 1.287 . S
C727 C726 1.287 . S
C727 C728 1.524 . S
C727 H730 0.999 . S
C728 H698 0.950 . S
C728 C727 1.524 . S
C728 C729 1.415 . S
C729 H699 0.950 . S
C729 C724 1.363 . S
C729 C728 1.415 . S
H730 C727 0.999 . S
H731 C712 0.913 . S
H732 C750 0.951 . S
H733 C752 0.951 . S
H734 C754 0.950 . S
H735 C755 0.950 . S
H736 C757 0.950 . S
H737 C760 0.950 . S
H738 C761 0.950 . S
H739 C763 0.950 . S
H740 C764 0.950 . S
H741 C765 0.951 . S
H742 C767 0.951 . S
H743 C769 0.950 . S
H744 C770 0.950 . S
H745 C772 0.950 . S
H746 C775 0.950 . S
H747 C776 0.950 1_455 S
H748 C778 0.950 1_565 S
H749 C779 0.950 . S
C750 H732 0.951 . S
C750 C751 1.366 . S
C750 C752 1.388 . S
C751 C750 1.366 . S
C751 C755 1.385 . S
C752 H733 0.951 . S
C752 C750 1.388 . S
C752 C753 1.366 . S
C753 C752 1.366 . S
C753 C754 1.414 . S
C753 C756 1.499 . S
C754 H734 0.950 . S
C754 C753 1.414 . S
C754 C755 1.374 . S
C755 H735 0.950 . S
C755 C751 1.385 . S
C755 C754 1.374 . S
C756 C753 1.499 . S
C756 C757 1.373 . S
C756 C758 1.389 . S
C757 H736 0.950 . S
C757 C756 1.373 . S
C757 C773 1.377 . S
C758 C756 1.389 . S
C758 C759 1.524 . S
C758 C772 1.377 . S
C759 C758 1.524 . S
C759 C760 1.397 . S
C759 C764 1.363 . S
C760 H737 0.950 . S
C760 C759 1.397 . S
C760 C761 1.334 . S
C761 H738 0.950 . S
C761 C760 1.334 . S
C761 C762 1.287 . S
C762 C761 1.287 . S
C762 C763 1.524 . S
C762 H781 0.913 . S
C763 H739 0.950 . S
C763 C762 1.524 . S
C763 C764 1.415 . S
C764 H740 0.950 . S
C764 C759 1.363 . S
C764 C763 1.415 . S
C765 H741 0.951 . S
C765 C766 1.366 . S
C765 C767 1.388 . S
C766 C765 1.366 . S
C766 C770 1.385 . S
C767 H742 0.951 . S
C767 C765 1.388 . S
C767 C768 1.366 . S
C768 C767 1.366 . S
C768 C769 1.414 . S
C768 C771 1.499 . S
C769 H743 0.950 . S
C769 C768 1.414 . S
C769 C770 1.374 . S
C770 H744 0.950 . S
C770 C766 1.385 . S
C770 C769 1.374 . S
C771 C768 1.499 . S
C771 C772 1.373 . S
C771 C773 1.389 . S
C772 H745 0.950 . S
C772 C758 1.377 . S
C772 C771 1.373 . S
C773 C757 1.377 . S
C773 C771 1.389 . S
C773 C774 1.524 . S
C774 C773 1.524 . S
C774 C775 1.397 . S
C774 C779 1.363 . S
C775 H746 0.950 . S
C775 C774 1.397 . S
C775 C776 1.334 . S
C776 H747 0.950 1_655 S
C776 C775 1.334 . S
C776 C777 1.287 . S
C777 C776 1.287 . S
C777 C778 1.524 . S
C777 H780 0.999 1_655 S
C778 H748 0.950 1_545 S
C778 C777 1.524 . S
C778 C779 1.415 . S
C779 H749 0.950 . S
C779 C774 1.363 . S
C779 C778 1.415 . S
H780 C777 0.999 1_455 S
H781 C762 0.913 . S
H782 C800 0.951 . S
H783 C802 0.951 . S
H784 C804 0.950 . S
H785 C805 0.950 . S
H786 C807 0.950 . S
H787 C810 0.950 . S
H788 C811 0.950 . S
H789 C813 0.950 . S
H790 C814 0.950 . S
H791 C815 0.951 . S
H792 C817 0.951 . S
H793 C819 0.950 . S
H794 C820 0.950 . S
H795 C822 0.950 . S
H796 C825 0.950 . S
H797 C826 0.950 . S
H798 C828 0.950 . S
H799 C829 0.950 . S
C800 H782 0.951 . S
C800 C801 1.366 . S
C800 C802 1.388 . S
C801 C800 1.366 . S
C801 C805 1.385 . S
C802 H783 0.951 . S
C802 C800 1.388 . S
C802 C803 1.366 . S
C803 C802 1.366 . S
C803 C804 1.414 . S
C803 C806 1.499 . S
C804 H784 0.950 . S
C804 C803 1.414 . S
C804 C805 1.374 . S
C805 H785 0.950 . S
C805 C801 1.385 . S
C805 C804 1.374 . S
C806 C803 1.499 . S
C806 C807 1.373 . S
C806 C808 1.389 . S
C807 H786 0.950 . S
C807 C806 1.373 . S
C807 C823 1.377 . S
C808 C806 1.389 . S
C808 C809 1.524 . S
C808 C822 1.377 . S
C809 C808 1.524 . S
C809 C810 1.397 . S
C809 C814 1.363 . S
C810 H787 0.950 . S
C810 C809 1.397 . S
C810 C811 1.334 . S
C811 H788 0.950 . S
C811 C810 1.334 . S
C811 C812 1.287 . S
C812 C811 1.287 . S
C812 C813 1.524 . S
C812 H831 0.913 . S
C813 H789 0.950 . S
C813 C812 1.524 . S
C813 C814 1.415 . S
C814 H790 0.950 . S
C814 C809 1.363 . S
C814 C813 1.415 . S
C815 H791 0.951 . S
C815 C816 1.366 . S
C815 C817 1.388 . S
C816 C815 1.366 . S
C816 C820 1.385 . S
C817 H792 0.951 . S
C817 C815 1.388 . S
C817 C818 1.366 . S
C818 C817 1.366 . S
C818 C819 1.414 . S
C818 C821 1.499 . S
C819 H793 0.950 . S
C819 C818 1.414 . S
C819 C820 1.374 . S
C820 H794 0.950 . S
C820 C816 1.385 . S
C820 C819 1.374 . S
C821 C818 1.499 . S
C821 C822 1.373 . S
C821 C823 1.389 . S
C822 H795 0.950 . S
C822 C808 1.377 . S
C822 C821 1.373 . S
C823 C807 1.377 . S
C823 C821 1.389 . S
C823 C824 1.524 . S
C824 C823 1.524 . S
C824 C825 1.397 . S
C824 C829 1.363 . S
C825 H796 0.950 . S
C825 C824 1.397 . S
C825 C826 1.334 . S
C826 H797 0.950 . S
C826 C825 1.334 . S
C826 C827 1.287 . S
C827 C826 1.287 . S
C827 C828 1.524 . S
C827 H830 0.999 . S
C828 H798 0.950 . S
C828 C827 1.524 . S
C828 C829 1.415 . S
C829 H799 0.950 . S
C829 C824 1.363 . S
C829 C828 1.415 . S
H830 C827 0.999 . S
H831 C812 0.913 . S
H832 C850 0.951 . S
H833 C852 0.951 . S
H834 C854 0.950 . S
H835 C855 0.950 . S
H836 C857 0.950 . S
H837 C860 0.950 . S
H838 C861 0.950 . S
H839 C863 0.950 . S
H840 C864 0.950 . S
H841 C865 0.951 . S
H842 C867 0.951 . S
H843 C869 0.950 . S
H844 C870 0.950 . S
H845 C872 0.950 . S
H846 C875 0.950 . S
H847 C876 0.950 . S
H848 C878 0.950 . S
H849 C879 0.950 . S
C850 H832 0.951 . S
C850 C851 1.366 . S
C850 C852 1.388 . S
C851 C850 1.366 . S
C851 C855 1.385 . S
C852 H833 0.951 . S
C852 C850 1.388 . S
C852 C853 1.366 . S
C853 C852 1.366 . S
C853 C854 1.414 . S
C853 C856 1.499 . S
C854 H834 0.950 . S
C854 C853 1.414 . S
C854 C855 1.374 . S
C855 H835 0.950 . S
C855 C851 1.385 . S
C855 C854 1.374 . S
C856 C853 1.499 . S
C856 C857 1.373 . S
C856 C858 1.389 . S
C857 H836 0.950 . S
C857 C856 1.373 . S
C857 C873 1.377 . S
C858 C856 1.389 . S
C858 C859 1.524 . S
C858 C872 1.377 . S
C859 C858 1.524 . S
C859 C860 1.397 . S
C859 C864 1.363 . S
C860 H837 0.950 . S
C860 C859 1.397 . S
C860 C861 1.334 . S
C861 H838 0.950 . S
C861 C860 1.334 . S
C861 C862 1.287 . S
C862 C861 1.287 . S
C862 C863 1.524 . S
C862 H881 0.913 . S
C863 H839 0.950 . S
C863 C862 1.524 . S
C863 C864 1.415 . S
C864 H840 0.950 . S
C864 C859 1.363 . S
C864 C863 1.415 . S
C865 H841 0.951 . S
C865 C866 1.366 . S
C865 C867 1.388 . S
C866 C865 1.366 . S
C866 C870 1.385 . S
C867 H842 0.951 . S
C867 C865 1.388 . S
C867 C868 1.366 . S
C868 C867 1.366 . S
C868 C869 1.414 . S
C868 C871 1.499 . S
C869 H843 0.950 . S
C869 C868 1.414 . S
C869 C870 1.374 . S
C870 H844 0.950 . S
C870 C866 1.385 . S
C870 C869 1.374 . S
C871 C868 1.499 . S
C871 C872 1.373 . S
C871 C873 1.389 . S
C872 H845 0.950 . S
C872 C858 1.377 . S
C872 C871 1.373 . S
C873 C857 1.377 . S
C873 C871 1.389 . S
C873 C874 1.524 1_565 S
C874 C873 1.524 1_545 S
C874 C875 1.397 . S
C874 C879 1.363 . S
C875 H846 0.950 . S
C875 C874 1.397 . S
C875 C876 1.334 . S
C876 H847 0.950 . S
C876 C875 1.334 . S
C876 C877 1.287 . S
C877 C876 1.287 . S
C877 C878 1.524 . S
C877 H880 0.999 . S
C878 H848 0.950 . S
C878 C877 1.524 . S
C878 C879 1.415 . S
C879 H849 0.950 . S
C879 C874 1.363 . S
C879 C878 1.415 . S
H880 C877 0.999 . S
H881 C862 0.913 . S
C316 C256 1.313 . S
C301 C211 1.501 . S
C351 C31 1.424 . S
C366 C277 1.315 . S
C401 C91 1.656 . S
C416 C253 1.482 . S
C451 C151 1.668 1_556 S
C466 C274 1.482 . S
C516 C258 1.622 . S
C501 C20 1.599 . S
C566 C278 1.563 . S
C551 C61 1.528 . S
C601 C121 1.556 . S
C616 C254 1.510 . S
C651 C200 1.620 . S
C666 C276 1.557 . S
C716 C275 1.511 . S
C701 C80 1.529 . S
C766 C257 1.563 . S
C751 C140 1.609 . S
C816 C279 1.622 . S
C801 C181 1.608 . S
C851 C1 1.561 . S
C866 C255 1.557 1_565 S
