# Generated by pormake.
# Topology zzz, (3,6)-cn, num edge types: 1
# Building blocks:
#     Node 0, Type 0, BuildingBlock: MIDCAF_clean_linker_0, # of connection points: 3
#     Node 1, Type 0, BuildingBlock: MIDCAF_clean_linker_0, # of connection points: 3
#     Node 2, Type 0, BuildingBlock: MIDCAF_clean_linker_0, # of connection points: 3
#     Node 3, Type 0, BuildingBlock: MIDCAF_clean_linker_0, # of connection points: 3
#     Node 4, Type 0, BuildingBlock: MIDCAF_clean_linker_0, # of connection points: 3
#     Node 5, Type 0, BuildingBlock: MIDCAF_clean_linker_0, # of connection points: 3
#     Node 6, Type 0, BuildingBlock: MIDCAF_clean_linker_0, # of connection points: 3
#     Node 7, Type 0, BuildingBlock: MIDCAF_clean_linker_0, # of connection points: 3
#     Node 8, Type 1, BuildingBlock: BETDAH_clean_sbu_0, # of connection points: 6
#     Node 9, Type 1, BuildingBlock: BETDAH_clean_sbu_0, # of connection points: 6
#     Node 10, Type 1, BuildingBlock: BETDAH_clean_sbu_0, # of connection points: 6
#     Node 11, Type 1, BuildingBlock: BETDAH_clean_sbu_0, # of connection points: 6
#     Edge 12, Type (0, 1), BuildingBlock: ZUJKAS_clean_linker_0, # of connection points: 2
#     Edge 13, Type (0, 1), BuildingBlock: ZUJKAS_clean_linker_0, # of connection points: 2
#     Edge 14, Type (0, 1), BuildingBlock: ZUJKAS_clean_linker_0, # of connection points: 2
#     Edge 15, Type (0, 1), BuildingBlock: ZUJKAS_clean_linker_0, # of connection points: 2
#     Edge 16, Type (0, 1), BuildingBlock: ZUJKAS_clean_linker_0, # of connection points: 2
#     Edge 17, Type (0, 1), BuildingBlock: ZUJKAS_clean_linker_0, # of connection points: 2
#     Edge 18, Type (0, 1), BuildingBlock: ZUJKAS_clean_linker_0, # of connection points: 2
#     Edge 19, Type (0, 1), BuildingBlock: ZUJKAS_clean_linker_0, # of connection points: 2
#     Edge 20, Type (0, 1), BuildingBlock: ZUJKAS_clean_linker_0, # of connection points: 2
#     Edge 21, Type (0, 1), BuildingBlock: ZUJKAS_clean_linker_0, # of connection points: 2
#     Edge 22, Type (0, 1), BuildingBlock: ZUJKAS_clean_linker_0, # of connection points: 2
#     Edge 23, Type (0, 1), BuildingBlock: ZUJKAS_clean_linker_0, # of connection points: 2
#     Edge 24, Type (0, 1), BuildingBlock: ZUJKAS_clean_linker_0, # of connection points: 2
#     Edge 25, Type (0, 1), BuildingBlock: ZUJKAS_clean_linker_0, # of connection points: 2
#     Edge 26, Type (0, 1), BuildingBlock: ZUJKAS_clean_linker_0, # of connection points: 2
#     Edge 27, Type (0, 1), BuildingBlock: ZUJKAS_clean_linker_0, # of connection points: 2
#     Edge 28, Type (0, 1), BuildingBlock: ZUJKAS_clean_linker_0, # of connection points: 2
#     Edge 29, Type (0, 1), BuildingBlock: ZUJKAS_clean_linker_0, # of connection points: 2
#     Edge 30, Type (0, 1), BuildingBlock: ZUJKAS_clean_linker_0, # of connection points: 2
#     Edge 31, Type (0, 1), BuildingBlock: ZUJKAS_clean_linker_0, # of connection points: 2
#     Edge 32, Type (0, 1), BuildingBlock: ZUJKAS_clean_linker_0, # of connection points: 2
#     Edge 33, Type (0, 1), BuildingBlock: ZUJKAS_clean_linker_0, # of connection points: 2
#     Edge 34, Type (0, 1), BuildingBlock: ZUJKAS_clean_linker_0, # of connection points: 2
#     Edge 35, Type (0, 1), BuildingBlock: ZUJKAS_clean_linker_0, # of connection points: 2
# Relax obj value: 0.414
# Max RMSD: 0.277
# Mean RMSD: 0.254
data_MOF--net-zzz--node1-BETDAH_clean_sbu_0--node2-MIDCAF_clean_linker_0--edge1-ZUJKAS_clean_linker_0
_symmetry_space_group_name_H-M    P1
_symmetry_Int_Tables_number       1
_symmetry_cell_setting            triclinic
loop_
_symmetry_equiv_pos_as_xyz
'x, y, z'
_cell_length_a     74.777072
_cell_length_b     74.774885
_cell_length_c     22.57302
_cell_angle_alpha  89.935733
_cell_angle_beta   89.98946
_cell_angle_gamma 90.242081
loop_
_atom_site_label
_atom_site_type_symbol
_atom_site_fract_x
_atom_site_fract_y
_atom_site_fract_z
_atom_type_partial_charge
C0 C 0.78819 0.53578 0.33182 0.0
C1 C 0.78691 0.52563 0.38409 0.0
C2 C 0.77072 0.5165 0.39579 0.0
C3 C 0.75646 0.51704 0.35505 0.0
H4 H 0.69425 0.49413 0.23874 0.0
H5 H 0.66301 0.4913 0.20743 0.0
H6 H 0.66294 0.54722 0.15857 0.0
H7 H 0.69381 0.54991 0.19143 0.0
H8 H 0.72303 0.51321 0.04661 0.0
H9 H 0.73612 0.5082 0.94884 0.0
H10 H 0.7881 0.52267 0.01777 0.0
H11 H 0.77515 0.52791 0.11444 0.0
H12 H 0.77597 0.54362 0.25046 0.0
H13 H 0.80044 0.54279 0.32063 0.0
H14 H 0.76922 0.50865 0.43585 0.0
H15 H 0.74445 0.50936 0.364 0.0
N16 N 0.72706 0.5238 0.26142 0.0
N17 N 0.72278 0.52171 0.15812 0.0
N18 N 0.75165 0.52406 0.19629 0.0
C19 C 0.71589 0.52245 0.21361 0.0
C20 C 0.74063 0.52242 0.14903 0.0
C21 C 0.74515 0.52474 0.2524 0.0
C22 C 0.69627 0.52232 0.21862 0.0
C23 C 0.68717 0.50597 0.22433 0.0
C24 C 0.66938 0.50431 0.2052 0.0
C25 C 0.66046 0.51895 0.17931 0.0
C26 C 0.66919 0.53567 0.17865 0.0
C27 C 0.6869 0.53729 0.19788 0.0
C28 C 0.74807 0.52084 0.08855 0.0
C29 C 0.73721 0.51557 0.04062 0.0
C30 C 0.74468 0.51265 0.98465 0.0
C31 C 0.7631 0.51512 0.97548 0.0
C32 C 0.77379 0.52097 0.02296 0.0
C33 C 0.76638 0.52379 0.07873 0.0
C34 C 0.75826 0.52651 0.30153 0.0
C35 C 0.77414 0.53616 0.29122 0.0
C36 C 0.97854 0.77704 0.37952 0.0
C37 C 0.99439 0.78484 0.40165 0.0
C38 C 0.01082 0.77691 0.38658 0.0
C39 C 0.0115 0.7627 0.34635 0.0
H40 H 0.01025 0.69047 0.25058 0.0
H41 H 0.00779 0.6599 0.21146 0.0
H42 H 0.96436 0.67665 0.09845 0.0
H43 H 0.96702 0.70699 0.13716 0.0
H44 H 0.01484 0.73367 0.05524 0.0
H45 H 0.02529 0.75097 0.9696 0.0
H46 H 0.01785 0.79982 0.06816 0.0
H47 H 0.00747 0.7828 0.15309 0.0
H48 H 0.96697 0.7579 0.31945 0.0
H49 H 0.96564 0.78281 0.38961 0.0
H50 H 0.02328 0.78223 0.40365 0.0
H51 H 0.02443 0.75786 0.33197 0.0
N52 N 0.99225 0.72813 0.26027 0.0
N53 N 0.99924 0.72925 0.15843 0.0
N54 N 0.00293 0.75474 0.21681 0.0
C55 C 0.99341 0.7199 0.20634 0.0
C56 C 0.00406 0.74665 0.16333 0.0
C57 C 0.99705 0.74572 0.26519 0.0
C58 C 0.98863 0.70094 0.19745 0.0
C59 C 0.99974 0.68735 0.21918 0.0
C60 C 0.99847 0.66995 0.19619 0.0
C61 C 0.98593 0.66584 0.15155 0.0
C62 C 0.97401 0.67924 0.1332 0.0
C63 C 0.97548 0.69663 0.15545 0.0
C64 C 0.0103 0.75686 0.11102 0.0
C65 C 0.01537 0.74811 0.05847 0.0
C66 C 0.02142 0.75796 0.00956 0.0
C67 C 0.0222 0.7767 0.01218 0.0
C68 C 0.0171 0.78539 0.0646 0.0
C69 C 0.01128 0.7756 0.11347 0.0
C70 C 0.99578 0.7558 0.32117 0.0
C71 C 0.97925 0.76266 0.33959 0.0
C72 C 0.71001 0.97936 0.33293 0.0
C73 C 0.7117 0.98961 0.38479 0.0
C74 C 0.72799 0.99867 0.39517 0.0
C75 C 0.74198 0.99796 0.35347 0.0
H76 H 0.80374 0.02107 0.21896 0.0
H77 H 0.83485 0.02186 0.18558 0.0
H78 H 0.83391 0.96436 0.16635 0.0
H79 H 0.80306 0.96374 0.20133 0.0
H80 H 0.7737 0.00267 0.04371 0.0
H81 H 0.76025 0.00825 0.94683 0.0
H82 H 0.70826 0.99499 0.01842 0.0
H83 H 0.72156 0.98918 0.11432 0.0
H84 H 0.72165 0.97141 0.25072 0.0
H85 H 0.69765 0.9724 0.3229 0.0
H86 H 0.72977 0.00659 0.43487 0.0
H87 H 0.75408 0.00561 0.36135 0.0
N88 N 0.77066 0.99079 0.25813 0.0
N89 N 0.77437 0.99389 0.15488 0.0
N90 N 0.74569 0.99151 0.19472 0.0
C91 C 0.78156 0.99249 0.20981 0.0
C92 C 0.75646 0.99344 0.14689 0.0
C93 C 0.75253 0.99022 0.25028 0.0
C94 C 0.80119 0.99232 0.21383 0.0
C95 C 0.81057 0.00857 0.21063 0.0
C96 C 0.82828 0.00901 0.19039 0.0
C97 C 0.83685 0.9932 0.17204 0.0
C98 C 0.82789 0.97679 0.18043 0.0
C99 C 0.81021 0.97638 0.20091 0.0
C100 C 0.74869 0.99559 0.08699 0.0
C101 C 0.75942 1.00072 0.03856 0.0
C102 C 0.75174 0.00397 0.98308 0.0
C103 C 0.73323 1.00198 0.97488 0.0
C104 C 0.72263 0.99634 0.02289 0.0
C105 C 0.73025 0.99318 0.0782 0.0
C106 C 0.73976 0.98845 0.30029 0.0
C107 C 0.72378 0.97887 0.29127 0.0
C108 C 0.43579 0.73196 0.13933 0.0
C109 C 0.43199 0.73964 0.08384 0.0
C110 C 0.43724 0.75745 0.07332 0.0
C111 C 0.44724 0.76685 0.11557 0.0
H112 H 0.46501 0.81883 0.20461 0.0
H113 H 0.47423 0.84722 0.16185 0.0
H114 H 0.52962 0.83184 0.17883 0.0
H115 H 0.52019 0.80309 0.22232 0.0
H116 H 0.46716 0.75052 0.37812 0.0
H117 H 0.47452 0.72441 0.4378 0.0
H118 H 0.52729 0.72337 0.36023 0.0
H119 H 0.51986 0.74994 0.30088 0.0
H120 H 0.44901 0.73459 0.22246 0.0
H121 H 0.43221 0.71822 0.14904 0.0
H122 H 0.4343 0.76387 0.03144 0.0
H123 H 0.45185 0.78021 0.10486 0.0
N124 N 0.47201 0.78354 0.19819 0.0
N125 N 0.49304 0.78045 0.27538 0.0
N126 N 0.47258 0.75734 0.25413 0.0
C127 C 0.48561 0.79046 0.23106 0.0
C128 C 0.4862 0.76387 0.28739 0.0
C129 C 0.46551 0.76695 0.20914 0.0
C130 C 0.49188 0.80876 0.21666 0.0
C131 C 0.47918 0.82166 0.20054 0.0
C132 C 0.48449 0.838 0.17627 0.0
C133 C 0.50267 0.84182 0.16669 0.0
C134 C 0.51549 0.82924 0.18537 0.0
C135 C 0.51014 0.81288 0.21071 0.0
C136 C 0.49299 0.7523 0.33534 0.0
C137 C 0.48057 0.74513 0.37555 0.0
C138 C 0.48471 0.73002 0.4091 0.0
C139 C 0.50134 0.72154 0.40274 0.0
C140 C 0.51436 0.72959 0.36614 0.0
C141 C 0.51019 0.74487 0.33251 0.0
C142 C 0.45218 0.75859 0.16915 0.0
C143 C 0.44568 0.74133 0.18146 0.0
C144 C 0.21553 0.51762 0.98488 0.0
C145 C 0.21447 0.50468 0.93988 0.0
C146 C 0.22817 0.49181 0.93605 0.0
C147 C 0.24217 0.49151 0.97777 0.0
H148 H 0.3086 0.51764 0.07698 0.0
H149 H 0.33993 0.51763 0.10928 0.0
H150 H 0.3308 0.46779 0.20167 0.0
H151 H 0.29979 0.46789 0.16911 0.0
H152 H 0.27441 0.50807 0.28599 0.0
H153 H 0.26075 0.51374 0.3827 0.0
H154 H 0.20836 0.50681 0.30537 0.0
H155 H 0.22183 0.50119 0.20927 0.0
H156 H 0.22913 0.52683 0.06242 0.0
H157 H 0.20518 0.52759 0.98986 0.0
H158 H 0.22782 0.48171 0.9017 0.0
H159 H 0.25208 0.48101 0.97544 0.0
N160 N 0.27231 0.49781 0.07117 0.0
N161 N 0.27479 0.49782 0.17529 0.0
N162 N 0.24722 0.50358 0.13118 0.0
C163 C 0.28244 0.49587 0.12123 0.0
C164 C 0.25723 0.50167 0.18071 0.0
C165 C 0.25449 0.50164 0.07644 0.0
C166 C 0.30188 0.49265 0.11996 0.0
C167 C 0.31361 0.50627 0.10163 0.0
C168 C 0.33145 0.50639 0.12103 0.0
C169 C 0.33787 0.49283 0.15886 0.0
C170 C 0.32647 0.47837 0.17228 0.0
C171 C 0.30867 0.47836 0.1534 0.0
C172 C 0.24918 0.50423 0.23989 0.0
C173 C 0.25998 0.50758 0.28981 0.0
C174 C 0.2522 0.51088 0.3451 0.0
C175 C 0.23354 0.51056 0.35154 0.0
C176 C 0.22281 0.50684 0.3019 0.0
C177 C 0.23053 0.50379 0.24669 0.0
C178 C 0.24251 0.50388 0.02458 0.0
C179 C 0.22927 0.51715 0.02673 0.0
C180 C 0.00744 0.22846 0.93838 0.0
C181 C 0.02073 0.21516 0.93461 0.0
C182 C 0.03685 0.21788 0.96548 0.0
C183 C 0.03902 0.23253 0.00312 0.0
H184 H 0.03927 0.3141 0.06597 0.0
H185 H 0.03563 0.34491 0.10092 0.0
H186 H 0.98772 0.32906 0.19468 0.0
H187 H 0.99139 0.29857 0.15909 0.0
H188 H 0.03107 0.27678 0.27343 0.0
H189 H 0.03432 0.26215 0.36937 0.0
H190 H 0.04629 0.21238 0.28087 0.0
H191 H 0.04353 0.22696 0.18569 0.0
H192 H 0.99884 0.25271 0.98105 0.0
H193 H 0.99485 0.22683 0.91532 0.0
H194 H 0.04759 0.20825 0.96247 0.0
H195 H 0.05121 0.23358 0.02889 0.0
N196 N 0.02055 0.27489 0.05833 0.0
N197 N 0.02659 0.27815 0.16026 0.0
N198 N 0.03189 0.25082 0.11401 0.0
C199 C 0.021 0.28525 0.1082 0.0
C200 C 0.03211 0.26098 0.16363 0.0
C201 C 0.02616 0.25752 0.06141 0.0
C202 C 0.01541 0.3041 0.10896 0.0
C203 C 0.0275 0.3175 0.09152 0.0
C204 C 0.02556 0.33506 0.11248 0.0
C205 C 0.01151 0.33948 0.15137 0.0
C206 C 0.9986 0.32629 0.16442 0.0
C207 C 1.00061 0.3088 0.14376 0.0
C208 C 0.03673 0.25297 0.22168 0.0
C209 C 0.03476 0.26279 0.27446 0.0
C210 C 0.03658 0.25442 0.32954 0.0
C211 C 0.04045 0.23607 0.33297 0.0
C212 C 0.04355 0.22659 0.28017 0.0
C213 C 0.04176 0.23493 0.22527 0.0
C214 C 0.02529 0.2451 0.01031 0.0
C215 C 0.00973 0.24334 0.97583 0.0
C216 C 0.27186 0.01237 0.95335 0.0
C217 C 0.28523 0.02571 0.95073 0.0
C218 C 0.28279 0.04144 0.98382 0.0
C219 C 0.26832 0.04312 0.02247 0.0
H220 H 0.19345 0.00301 0.09122 0.0
H221 H 0.16221 0.9991 0.1228 0.0
H222 H 0.16441 0.05037 0.21076 0.0
H223 H 0.19523 0.05414 0.17888 0.0
H224 H 0.22822 0.03068 0.29775 0.0
H225 H 0.24367 0.02676 0.39208 0.0
H226 H 0.29418 0.02456 0.29924 0.0
H227 H 0.27899 0.02901 0.20606 0.0
H228 H 0.24786 0.00312 0.99676 0.0
H229 H 0.27334 1.00006 0.92861 0.0
H230 H 0.29256 0.05216 0.98197 0.0
H231 H 0.26754 0.05487 0.05042 0.0
N232 N 0.22597 0.02833 0.07925 0.0
N233 N 0.22497 0.0301 0.18351 0.0
N234 N 0.25251 0.03015 0.13513 0.0
C235 C 0.21634 0.02909 0.13072 0.0
C236 C 0.24304 0.03046 0.18621 0.0
C237 C 0.24423 0.02912 0.08177 0.0
C238 C 0.19662 0.02895 0.13217 0.0
C239 C 0.18691 0.01371 0.11507 0.0
C240 C 0.16913 0.0114 0.13395 0.0
C241 C 0.1608 0.02434 0.1699 0.0
C242 C 0.17021 0.0402 0.18267 0.0
C243 C 0.18792 0.0424 0.16436 0.0
C244 C 0.25234 0.03002 0.24412 0.0
C245 C 0.24266 0.02965 0.29763 0.0
C246 C 0.25149 0.02732 0.35174 0.0
C247 C 0.27016 0.02534 0.35341 0.0
C248 C 0.27983 0.02639 0.30002 0.0
C249 C 0.27106 0.02878 0.24621 0.0
C250 C 0.25571 0.02928 0.02846 0.0
C251 C 0.2572 0.01414 0.99204 0.0
C252 C 0.56848 0.28169 0.19052 0.0
C253 C 0.57298 0.27437 0.24596 0.0
C254 C 0.56775 0.25666 0.25852 0.0
C255 C 0.55706 0.24709 0.21859 0.0
H256 H 0.53695 0.1947 0.13569 0.0
H257 H 0.52775 0.1664 0.17941 0.0
H258 H 0.47253 0.18291 0.17135 0.0
H259 H 0.4819 0.21151 0.12649 0.0
H260 H 0.53394 0.26241 0.95957 0.0
H261 H 0.52611 0.28824 0.89927 0.0
H262 H 0.47402 0.28975 0.98161 0.0
H263 H 0.48193 0.26347 0.04178 0.0
H264 H 0.55408 0.27864 0.10975 0.0
H265 H 0.572 0.29533 0.17921 0.0
H266 H 0.57124 0.25048 0.30032 0.0
H267 H 0.55248 0.23384 0.23099 0.0
N268 N 0.53072 0.23024 0.14147 0.0
N269 N 0.50871 0.23321 0.06724 0.0
N270 N 0.52989 0.25602 0.08344 0.0
C271 C 0.51653 0.22337 0.11125 0.0
C272 C 0.5157 0.24955 0.05282 0.0
C273 C 0.53739 0.24662 0.12813 0.0
C274 C 0.51014 0.20528 0.12772 0.0
C275 C 0.5228 0.19215 0.14203 0.0
C276 C 0.51751 0.17588 0.16687 0.0
C277 C 0.49941 0.17239 0.17899 0.0
C278 C 0.48659 0.18526 0.1627 0.0
C279 C 0.49191 0.20153 0.13662 0.0
C280 C 0.5085 0.2609 0.00497 0.0
C281 C 0.52057 0.26784 0.96315 0.0
C282 C 0.51616 0.28278 0.92919 0.0
C283 C 0.49961 0.29131 0.93664 0.0
C284 C 0.48689 0.28347 0.97488 0.0
C285 C 0.49133 0.26836 0.00897 0.0
C286 C 0.55142 0.25503 0.16528 0.0
C287 C 0.55793 0.27213 0.15067 0.0
Ho288 Ho 0.00969 0.99491 0.71797 0.0
Ho289 Ho 0.98571 0.00676 0.6077 0.0
C290 C 0.99316 0.96471 0.63119 0.0
C291 C 0.02575 0.98582 0.81373 0.0
C292 C 0.03759 0.97048 0.82478 0.0
C293 C 0.03342 0.95849 0.87049 0.0
C294 C 0.04188 0.9419 0.87355 0.0
C295 C 0.05477 0.93704 0.83105 0.0
C296 C 0.05983 0.94962 0.78787 0.0
C297 C 0.05127 0.96615 0.78454 0.0
C298 C 0.02618 0.99736 0.61187 0.0
C299 C 0.99912 0.03676 0.70126 0.0
C300 C 0.9767 0.02094 0.50864 0.0
C301 C 0.98031 0.03952 0.48941 0.0
C302 C 0.99787 0.0452 0.47725 0.0
C303 C 1.00223 0.06336 0.47797 0.0
C304 C 0.98904 0.07622 0.48979 0.0
C305 C 0.97116 0.07062 0.49558 0.0
C306 C 0.96683 0.05244 0.49524 0.0
C307 C 0.96534 0.99903 0.70517 0.0
O308 O 0.99881 0.96854 0.68556 0.0
O309 O 0.98922 0.97723 0.59144 0.0
O310 O 0.03192 0.99826 0.77804 0.0
O311 O 0.00905 0.98151 0.80275 0.0
O312 O 0.03003 0.98555 0.65181 0.0
O313 O 0.01438 0.00785 0.63131 0.0
O314 O 0.99325 0.03335 0.64705 0.0
O315 O 0.00433 0.02397 0.73817 0.0
O316 O 0.96576 0.0196 0.55371 0.0
O317 O 0.99056 0.0103 0.51372 0.0
O318 O 0.95868 0.00332 0.65407 0.0
O319 O 0.98195 0.99868 0.69883 0.0
H320 H 0.02281 0.96148 0.90162 0.0
H321 H 0.03743 0.93249 0.90697 0.0
H322 H 0.0699 0.94642 0.75509 0.0
H323 H 0.05474 0.9751 0.74856 0.0
H324 H 0.00849 0.03562 0.47101 0.0
H325 H 0.01612 0.0672 0.47285 0.0
H326 H 0.96059 0.08024 0.50277 0.0
H327 H 0.95312 0.04848 0.50378 0.0
Ho328 Ho 0.50363 0.01847 0.71785 0.0
Ho329 Ho 0.49411 0.99389 0.62181 0.0
C330 C 0.53461 0.00443 0.62636 0.0
C331 C 0.52089 0.03448 0.80092 0.0
C332 C 0.53981 0.04008 0.79989 0.0
C333 C 0.55157 0.03321 0.84247 0.0
C334 C 0.57003 0.03454 0.8341 0.0
C335 C 0.57701 0.04287 0.78317 0.0
C336 C 0.56528 0.05091 0.7428 0.0
C337 C 0.54682 0.04941 0.75081 0.0
C338 C 0.4924 0.03512 0.61833 0.0
C339 C 0.46309 0.00801 0.71312 0.0
C340 C 0.47751 0.97749 0.53796 0.0
C341 C 0.45884 0.97118 0.53653 0.0
C342 C 0.4475 0.97723 0.49152 0.0
C343 C 0.42907 0.9746 0.49583 0.0
C344 C 0.42159 0.96567 0.54503 0.0
C345 C 0.43312 0.95867 0.58832 0.0
C346 C 0.45155 0.96151 0.58435 0.0
C347 C 0.50567 0.97734 0.72117 0.0
O348 O 0.53061 0.01044 0.67985 0.0
O349 O 0.52189 0.99916 0.5898 0.0
O350 O 0.51013 0.04287 0.76481 0.0
O351 O 0.5184 0.01716 0.80011 0.0
O352 O 0.48812 0.04001 0.67151 0.0
O353 O 0.50282 0.02191 0.62047 0.0
O354 O 0.46707 1.00186 0.65974 0.0
O355 O 0.47581 0.01337 0.74958 0.0
O356 O 0.4882 0.96936 0.57492 0.0
O357 O 0.47939 0.99488 0.53945 0.0
O358 O 0.51001 0.97261 0.66791 0.0
O359 O 0.49501 0.99037 0.71922 0.0
H360 H 0.5465 0.02587 0.88036 0.0
H361 H 0.57885 0.02848 0.86638 0.0
H362 H 0.57033 0.05733 0.70309 0.0
H363 H 0.5381 0.05464 0.71668 0.0
H364 H 0.4528 0.98491 0.45472 0.0
H365 H 0.42066 0.98051 0.4621 0.0
H366 H 0.42789 0.95151 0.62629 0.0
H367 H 0.45996 0.95681 0.62015 0.0
Ho368 Ho 0.48863 0.51311 0.71345 0.0
Ho369 Ho 0.51207 0.4988 0.61855 0.0
C370 C 0.50709 0.54164 0.63043 0.0
C371 C 0.47137 0.52441 0.80487 0.0
C372 C 0.46409 0.54224 0.81754 0.0
C373 C 0.47309 0.55762 0.79749 0.0
C374 C 0.46548 0.57446 0.80463 0.0
C375 C 0.44865 0.5763 0.83159 0.0
C376 C 0.43973 0.5609 0.85224 0.0
C377 C 0.44739 0.54398 0.84511 0.0
C378 C 0.47304 0.51156 0.60521 0.0
C379 C 0.49359 0.47023 0.70175 0.0
C380 C 0.52962 0.48792 0.52704 0.0
C381 C 0.53812 0.47062 0.51483 0.0
C382 C 0.5314 0.45495 0.54104 0.0
C383 C 0.54 0.43866 0.53249 0.0
C384 C 0.55561 0.43769 0.49795 0.0
C385 C 0.56233 0.45344 0.47168 0.0
C386 C 0.55364 0.46979 0.48018 0.0
C387 C 0.52762 0.50053 0.72691 0.0
O388 O 0.50119 0.53884 0.68469 0.0
O389 O 0.5099 0.52813 0.59376 0.0
O390 O 0.46367 0.51598 0.76106 0.0
O391 O 0.48882 0.52322 0.80314 0.0
O392 O 0.47104 0.52457 0.6423 0.0
O393 O 0.48287 0.49968 0.62776 0.0
O394 O 0.49981 0.47296 0.64782 0.0
O395 O 0.49044 0.48377 0.73799 0.0
O396 O 0.53694 0.49713 0.56982 0.0
O397 O 0.51215 0.48778 0.53004 0.0
O398 O 0.5298 0.48751 0.6899 0.0
O399 O 0.51777 0.51229 0.70394 0.0
H400 H 0.48594 0.55664 0.77569 0.0
H401 H 0.47289 0.58606 0.78932 0.0
H402 H 0.4267 0.56187 0.87288 0.0
H403 H 0.44015 0.53225 0.86012 0.0
H404 H 0.51951 0.45529 0.56837 0.0
H405 H 0.53424 0.42677 0.55239 0.0
H406 H 0.5744 0.45316 0.4452 0.0
H407 H 0.55915 0.4818 0.46029 0.0
Ho408 Ho 0.99567 0.49027 0.70241 0.0
Ho409 Ho 0.00699 0.51491 0.59433 0.0
C410 C 0.96539 0.50719 0.61136 0.0
C411 C 0.97849 0.47596 0.78912 0.0
C412 C 0.95931 0.47722 0.8026 0.0
C413 C 0.95034 0.49349 0.79449 0.0
C414 C 0.93173 0.49393 0.79268 0.0
C415 C 0.92167 0.4781 0.79867 0.0
C416 C 0.93068 0.46201 0.81088 0.0
C417 C 0.94936 0.46158 0.81262 0.0
C418 C 0.00734 0.47359 0.60374 0.0
C419 C 0.03661 0.50164 0.69303 0.0
C420 C 0.02343 0.52469 0.50047 0.0
C421 C 0.04122 0.53313 0.49927 0.0
C422 C 0.05444 0.52605 0.46223 0.0
C423 C 0.07247 0.52956 0.47363 0.0
C424 C 0.07753 0.54019 0.52227 0.0
C425 C 0.06423 0.54849 0.55619 0.0
C426 C 0.04622 0.54492 0.54497 0.0
C427 C 1.00208 0.53495 0.69388 0.0
O428 O 0.96936 0.50006 0.66377 0.0
O429 O 0.97784 0.5126 0.57347 0.0
O430 O 0.98202 0.46742 0.73998 0.0
O431 O 0.98792 0.49068 0.79477 0.0
O432 O 0.01072 0.46814 0.65724 0.0
O433 O 0.99749 0.48725 0.60557 0.0
O434 O 0.03313 0.50736 0.63854 0.0
O435 O 0.02392 0.49593 0.7295 0.0
O436 O 0.0104 0.53416 0.52347 0.0
O437 O 0.0237 0.50816 0.51991 0.0
O438 O 0.00651 0.54157 0.64281 0.0
O439 O 1.00049 0.51834 0.68729 0.0
H440 H 0.95767 0.50574 0.78568 0.0
H441 H 0.92535 0.50654 0.78255 0.0
H442 H 0.92335 0.44965 0.81743 0.0
H443 H 0.95604 0.44888 0.81862 0.0
H444 H 0.0509 0.51674 0.42735 0.0
H445 H 0.08249 0.52325 0.44611 0.0
H446 H 0.06775 0.55669 0.594 0.0
H447 H 0.03632 0.55032 0.57498 0.0
H448 H 0.14967 0.99297 0.22086 0.0
H449 H 0.12382 0.98821 0.28524 0.0
H450 H 0.10739 0.04273 0.25676 0.0
H451 H 0.13292 0.04745 0.19069 0.0
H452 H 0.11915 0.00698 0.38898 0.0
H453 H 0.05993 0.01584 0.24391 0.0
H454 H 0.08206 0.01181 0.21485 0.0
H455 H 0.07598 0.03374 0.24012 0.0
C456 C 0.14025 0.00379 0.22654 0.0
C457 C 0.14344 0.02061 0.20045 0.0
C458 C 0.12553 1.00109 0.26388 0.0
C459 C 0.11357 0.01507 0.27573 0.0
C460 C 0.11623 0.03164 0.24768 0.0
H461 H 0.03005 0.02783 0.54533 0.0
H462 H 0.05037 0.03245 0.46074 0.0
C463 C 0.13096 0.03437 0.2103 0.0
C464 C 0.09953 0.01282 0.32201 0.0
H465 H 0.05446 0.01453 0.34774 0.0
C466 C 0.10501 0.00853 0.37978 0.0
C467 C 0.08107 0.01507 0.31029 0.0
C468 C 0.07433 0.01922 0.24885 0.0
C469 C 0.09262 0.00649 0.42607 0.0
C470 C 0.07414 0.00845 0.41427 0.0
C471 C 0.06861 0.01298 0.35671 0.0
C472 C 0.06048 0.00537 0.46117 0.0
C473 C 0.09948 1.00254 0.48759 0.0
C474 C 0.059 0.98851 0.48823 0.0
C475 C 0.04742 0.98588 0.53606 0.0
C476 C 0.03689 0.99998 0.55744 0.0
C477 C 0.0378 0.01668 0.52897 0.0
C478 C 0.04947 0.01934 0.48098 0.0
H479 H 0.11382 0.00621 0.49241 0.0
H480 H 0.09166 0.00985 0.52159 0.0
H481 H 0.09815 0.988 0.49653 0.0
H482 H 0.06712 0.97746 0.47309 0.0
H483 H 0.04692 0.97285 0.55704 0.0
H484 H 0.47705 0.16971 0.27473 0.0
H485 H 0.47319 0.14393 0.34078 0.0
H486 H 0.50687 0.11236 0.2269 0.0
H487 H 0.51093 0.1381 0.1611 0.0
H488 H 0.46108 0.10856 0.3282 0.0
H489 H 0.53335 0.11067 0.38463 0.0
H490 H 0.52246 0.12844 0.34454 0.0
H491 H 0.5288 0.10824 0.30698 0.0
C492 C 0.48331 0.15717 0.26308 0.0
C493 C 0.49446 0.15601 0.21301 0.0
C494 C 0.48117 0.14246 0.30103 0.0
C495 C 0.4901 0.12633 0.2896 0.0
C496 C 0.50023 0.12479 0.23749 0.0
H497 H 0.50671 0.03091 0.50757 0.0
H498 H 0.50476 0.05174 0.42369 0.0
C499 C 0.50248 0.1395 0.19979 0.0
C500 C 0.48968 0.11154 0.33379 0.0
H501 H 0.51642 0.08707 0.42585 0.0
C502 C 0.47318 0.10383 0.34949 0.0
C503 C 0.50547 0.10539 0.36174 0.0
C504 C 0.52351 0.11369 0.34915 0.0
C505 C 0.47207 0.09008 0.392 0.0
C506 C 0.48785 0.08404 0.42019 0.0
C507 C 0.50435 0.09161 0.40396 0.0
C508 C 0.48757 0.07056 0.46876 0.0
C509 C 0.45403 0.082 0.40596 0.0
C510 C 0.47851 0.07415 0.5219 0.0
C511 C 0.47964 0.06231 0.56979 0.0
C512 C 0.48994 0.04668 0.56566 0.0
C513 C 0.49866 0.04285 0.51201 0.0
C514 C 0.49756 0.05474 0.46411 0.0
H515 H 0.44434 0.08423 0.3694 0.0
H516 H 0.4551 0.06741 0.41428 0.0
H517 H 0.4486 0.08839 0.44645 0.0
H518 H 0.47104 0.08642 0.52708 0.0
H519 H 0.47281 0.06564 0.61061 0.0
H520 H 0.35178 0.52315 0.2088 0.0
H521 H 0.37742 0.52564 0.2753 0.0
H522 H 0.38834 0.46952 0.25243 0.0
H523 H 0.36286 0.46696 0.18464 0.0
H524 H 0.37927 0.50567 0.38204 0.0
H525 H 0.43847 0.49309 0.23928 0.0
H526 H 0.41708 0.49978 0.20947 0.0
H527 H 0.42048 0.47715 0.23341 0.0
C528 C 0.35994 0.51143 0.21624 0.0
C529 C 0.35522 0.49485 0.19109 0.0
C530 C 0.37453 0.51286 0.25478 0.0
C531 C 0.38488 0.4978 0.2687 0.0
C532 C 0.38072 0.48138 0.24178 0.0
H533 H 0.46894 0.48168 0.53547 0.0
H534 H 0.44802 0.47775 0.45227 0.0
C535 C 0.36605 0.47992 0.20334 0.0
C536 C 0.3988 0.499 0.31572 0.0
H537 H 0.44366 0.49527 0.34261 0.0
C538 C 0.39336 0.50345 0.37333 0.0
C539 C 0.41714 0.49585 0.30454 0.0
C540 C 0.42375 0.49132 0.24329 0.0
C541 C 0.40569 0.50485 0.42003 0.0
C542 C 0.42412 0.50218 0.4087 0.0
C543 C 0.42957 0.49741 0.35126 0.0
C544 C 0.43783 0.50479 0.45584 0.0
C545 C 0.39878 0.5089 0.48139 0.0
C546 C 0.43948 0.5214 0.48425 0.0
C547 C 0.45127 0.52362 0.53175 0.0
C548 C 0.46185 0.50932 0.55154 0.0
C549 C 0.46087 0.4929 0.52135 0.0
C550 C 0.44895 0.49066 0.47383 0.0
H551 H 0.3844 0.50533 0.48598 0.0
H552 H 0.40647 0.50156 0.51569 0.0
H553 H 0.40016 0.52344 0.49007 0.0
H554 H 0.4314 0.53263 0.47028 0.0
H555 H 0.45189 0.53649 0.55363 0.0
H556 H 0.04018 0.35731 0.19911 0.0
H557 H 0.03972 0.38277 0.26682 0.0
H558 H 0.98245 0.38604 0.24899 0.0
H559 H 0.98276 0.36064 0.18056 0.0
H560 H 0.02635 0.41865 0.26073 0.0
H561 H 0.99062 0.3771 0.42773 0.0
H562 H 1.00107 0.3676 0.36301 0.0
H563 H 0.97987 0.37866 0.35675 0.0
C564 C 0.02751 0.3637 0.20818 0.0
C565 C 0.01148 0.35677 0.18452 0.0
C566 C 0.02727 0.37823 0.2473 0.0
C567 C 0.01103 0.38611 0.26385 0.0
C568 C 0.99511 0.37994 0.23774 0.0
H569 H 0.99589 0.48012 0.49046 0.0
H570 H 0.99751 0.45985 0.40514 0.0
C571 C 0.99532 0.36541 0.19859 0.0
C572 C 0.01068 0.39989 0.31139 0.0
H573 H 0.99613 0.40721 0.45282 0.0
C574 C 0.01969 0.41621 0.30266 0.0
C575 C 1.00221 0.39657 0.36645 0.0
C576 C 0.99301 0.37899 0.37955 0.0
C577 C 0.02032 0.42933 0.34737 0.0
C578 C 0.01164 0.42608 0.40207 0.0
C579 C 0.0027 0.40973 0.41077 0.0
C580 C 0.01199 0.43915 0.45176 0.0
C581 C 0.03063 0.44639 0.33633 0.0
C582 C 0.0196 0.43431 0.50631 0.0
C583 C 0.01867 0.44583 0.555 0.0
C584 C 0.00998 0.4624 0.55032 0.0
C585 C 0.00275 0.46747 0.49531 0.0
C586 C 0.00373 0.45593 0.44647 0.0
H587 H 0.03973 0.44521 0.29763 0.0
H588 H 0.02109 0.45739 0.3273 0.0
H589 H 0.03864 0.45014 0.37588 0.0
H590 H 0.026 0.42143 0.51149 0.0
H591 H 0.02436 0.44155 0.59677 0.0
H592 H 0.84628 0.01778 0.08762 0.0
H593 H 0.87181 0.01708 0.02065 0.0
H594 H 0.89115 0.96947 0.10683 0.0
H595 H 0.86558 0.97013 0.17485 0.0
H596 H 0.90891 0.01729 0.03662 0.0
H597 H 0.88536 0.95387 0.93363 0.0
H598 H 0.87148 0.96686 0.98261 0.0
H599 H 0.88899 0.95315 0.01229 0.0
C600 C 0.85615 0.00738 0.09358 0.0
C601 C 0.85377 0.99398 0.13683 0.0
C602 C 0.87072 0.00694 0.05481 0.0
C603 C 0.88325 0.99307 0.05798 0.0
C604 C 0.88145 0.98011 0.10274 0.0
H605 H 0.97756 0.99631 0.81967 0.0
H606 H 0.95944 0.99335 0.91017 0.0
C607 C 0.86683 0.98052 0.14166 0.0
C608 C 0.89756 0.99185 0.01228 0.0
H609 H 0.9113 0.967 0.89378 0.0
C610 C 0.9096 0.0062 0.0058 0.0
C611 C 0.8983 0.97745 0.97166 0.0
C612 C 0.88529 0.962 0.97481 0.0
C613 C 0.92207 0.00673 0.95911 0.0
C614 C 0.92267 0.99242 0.91814 0.0
C615 C 0.91093 0.97788 0.92549 0.0
C616 C 0.93405 0.99311 0.86407 0.0
C617 C 0.93392 0.02299 0.95235 0.0
C618 C 0.92588 0.99342 0.80812 0.0
C619 C 0.93618 0.99494 0.75671 0.0
C620 C 0.95491 0.99603 0.76001 0.0
C621 C 0.96318 0.99528 0.81585 0.0
C622 C 0.95282 0.9938 0.86754 0.0
H623 H 0.92953 0.03422 0.98099 0.0
H624 H 0.94781 0.01946 0.9649 0.0
H625 H 0.93408 0.02763 0.9056 0.0
H626 H 0.91144 0.99289 0.80426 0.0
H627 H 0.92944 0.99551 0.71428 0.0
H628 H 0.52678 0.84434 0.07577 0.0
H629 H 0.53108 0.8695 0.00766 0.0
H630 H 0.49358 0.90079 0.10852 0.0
H631 H 0.48951 0.87586 0.1775 0.0
H632 H 0.503 0.88301 0.94064 0.0
H633 H 0.53353 0.93707 0.07546 0.0
H634 H 0.53375 0.91389 0.09816 0.0
H635 H 0.51394 0.9271 0.10793 0.0
C636 C 0.51989 0.85677 0.08462 0.0
C637 C 0.50777 0.85806 0.13205 0.0
C638 C 0.52227 0.87111 0.04536 0.0
C639 C 0.51274 0.8871 0.05308 0.0
C640 C 0.50131 0.88873 0.10209 0.0
H641 H 0.49013 0.97978 0.83104 0.0
H642 H 0.49273 0.95834 0.91322 0.0
C643 C 0.49888 0.87439 0.14122 0.0
C644 C 0.51318 0.90119 0.00647 0.0
H645 H 0.52186 0.9455 0.98113 0.0
C646 C 0.5073 0.89663 0.94938 0.0
C647 C 0.51855 0.91902 0.01808 0.0
C648 C 0.52545 0.92459 0.07808 0.0
C649 C 0.50636 0.90941 0.90389 0.0
C650 C 0.51183 0.92723 0.91527 0.0
C651 C 0.51771 0.93184 0.97239 0.0
C652 C 0.51152 0.94114 0.86807 0.0
C653 C 0.49901 0.90379 0.84442 0.0
C654 C 0.52165 0.93893 0.81624 0.0
C655 C 0.5201 0.95104 0.76934 0.0
C656 C 0.50853 0.96575 0.77348 0.0
C657 C 0.49908 0.96851 0.82653 0.0
C658 C 0.50057 0.95629 0.87347 0.0
H659 H 0.49101 0.89127 0.84766 0.0
H660 H 0.49046 0.91441 0.82509 0.0
H661 H 0.51028 0.90131 0.81356 0.0
H662 H 0.5305 0.92758 0.81157 0.0
H663 H 0.52771 0.94868 0.72928 0.0
H664 H 0.63181 0.54199 0.17054 0.0
H665 H 0.606 0.53948 0.10416 0.0
H666 H 0.62454 0.48797 0.04537 0.0
H667 H 0.65044 0.49047 0.11031 0.0
H668 H 0.60813 0.53622 0.98064 0.0
H669 H 0.57138 0.4786 0.07652 0.0
H670 H 0.58817 0.49089 0.11736 0.0
H671 H 0.59467 0.47422 0.06426 0.0
C672 C 0.63033 0.53003 0.14395 0.0
C673 C 0.64329 0.51642 0.14615 0.0
C674 C 0.61551 0.5286 0.10613 0.0
C675 C 0.6132 0.51345 0.07019 0.0
C676 C 0.62578 0.49961 0.0736 0.0
H677 H 0.55161 0.47722 0.77343 0.0
H678 H 0.57095 0.48146 0.85962 0.0
C679 C 0.64062 0.50105 0.11113 0.0
C680 C 0.59854 0.51266 0.02556 0.0
H681 H 0.56365 0.48684 0.97734 0.0
C682 C 0.59822 0.52558 0.98035 0.0
C683 C 0.58567 0.49874 0.02507 0.0
C684 C 0.58483 0.48491 0.0737 0.0
C685 C 0.58592 0.52451 0.9333 0.0
C686 C 0.5733 0.51033 0.93201 0.0
C687 C 0.57331 0.4977 0.97818 0.0
C688 C 0.56078 0.5077 0.88134 0.0
C689 C 0.58713 0.5381 0.88395 0.0
C690 C 0.5483 0.52088 0.86531 0.0
C691 C 0.53726 0.51851 0.81563 0.0
C692 C 0.53841 0.50285 0.78144 0.0
C693 C 0.55048 0.48947 0.79869 0.0
C694 C 0.56152 0.49186 0.84808 0.0
H695 H 0.60007 0.54546 0.88456 0.0
H696 H 0.58557 0.53159 0.84006 0.0
H697 H 0.57624 0.54801 0.88915 0.0
H698 H 0.54717 0.53304 0.89098 0.0
H699 H 0.52799 0.529 0.8036 0.0
H700 H 0.0154 0.64818 0.11059 0.0
H701 H 0.0162 0.62264 0.0431 0.0
H702 H 0.9587 0.61872 0.05039 0.0
H703 H 0.95779 0.64449 0.1173 0.0
H704 H 0.00476 0.58757 0.04429 0.0
H705 H 0.96751 0.62652 0.87519 0.0
H706 H 0.97629 0.63661 0.94166 0.0
H707 H 0.9559 0.62378 0.94421 0.0
C708 C 0.00294 0.64166 0.09891 0.0
C709 C 0.98651 0.6485 0.11898 0.0
C710 C 0.00341 0.62707 0.06006 0.0
C711 C 0.98749 0.61898 0.0405 0.0
C712 C 0.97114 0.62502 0.06356 0.0
H713 H 0.98798 0.52464 0.80189 0.0
H714 H 0.98356 0.54355 0.88979 0.0
C715 C 0.97064 0.63971 0.10201 0.0
C716 C 0.98804 0.60512 0.99306 0.0
H717 H 0.97508 0.59699 0.85036 0.0
C718 C 0.99817 0.58955 0.002 0.0
C719 C 0.97962 0.6078 0.93754 0.0
C720 C 0.96935 0.62464 0.92364 0.0
C721 C 1.00029 0.57674 0.9568 0.0
C722 C 0.99183 0.57944 0.90141 0.0
C723 C 0.98145 0.59484 0.89294 0.0
C724 C 0.99479 0.56742 0.8497 0.0
C725 C 0.01215 0.56081 0.96786 0.0
C726 C 1.00229 0.57451 0.79772 0.0
C727 C 0.00468 0.56379 0.74779 0.0
C728 C 0.99965 0.54567 0.74843 0.0
C729 C 0.99219 0.53846 0.80041 0.0
C730 C 0.98971 0.54927 0.85066 0.0
H731 H 0.02055 0.56258 0.00804 0.0
H732 H 0.00369 0.54874 0.9743 0.0
H733 H 0.02104 0.55839 0.92932 0.0
H734 H 0.0063 0.58844 0.79572 0.0
H735 H 0.01047 0.56977 0.70843 0.0
H736 H 0.0156 0.24075 0.42065 0.0
H737 H 0.00754 0.21911 0.49693 0.0
H738 H 0.05249 0.18645 0.44653 0.0
H739 H 0.06127 0.20857 0.37321 0.0
H740 H 0.99612 0.18932 0.45862 0.0
H741 H 0.0494 0.17223 0.61462 0.0
H742 H 0.04971 0.19306 0.57395 0.0
H743 H 0.05936 0.17306 0.5426 0.0
C744 C 0.02435 0.22946 0.42793 0.0
C745 C 0.03885 0.22615 0.38979 0.0
C746 C 0.01966 0.21702 0.47156 0.0
C747 C 0.02929 0.20103 0.47746 0.0
C748 C 0.04494 0.19875 0.44389 0.0
H749 H 0.01384 0.09614 0.42928 0.0
H750 H 0.02232 0.12727 0.44677 0.0
C751 C 0.04978 0.21129 0.40095 0.0
C752 C 0.02089 0.18516 0.50579 0.0
H753 H 0.03226 0.14599 0.57342 0.0
C754 C 0.00375 0.18018 0.48593 0.0
C755 C 0.03065 0.17318 0.54184 0.0
C756 C 0.04822 0.17833 0.56989 0.0
C757 C 0.99714 0.16286 0.495 0.0
C758 C 0.00795 0.15026 0.52441 0.0
C759 C 0.02418 0.15569 0.54985 0.0
C760 C 0.00394 0.13103 0.51964 0.0
C761 C 0.97938 0.1576 0.46825 0.0
C762 C 0.99081 0.12297 0.55501 0.0
C763 C 0.9859 0.10517 0.54506 0.0
C764 C 0.99406 0.0952 0.4996 0.0
C765 C 0.00742 0.10335 0.46495 0.0
C766 C 0.01231 0.1211 0.47497 0.0
H767 H 0.97231 0.16918 0.44833 0.0
H768 H 0.9815 0.14736 0.43337 0.0
H769 H 0.97067 0.15156 0.50278 0.0
H770 H 0.9842 0.13052 0.58954 0.0
H771 H 0.97578 0.09919 0.5732 0.0
H772 H 0.30292 0.03711 0.39066 0.0
H773 H 0.3216 0.02342 0.46585 0.0
H774 H 0.27729 0.99033 0.52195 0.0
H775 H 0.25887 0.00292 0.44285 0.0
H776 H 0.32356 0.01763 0.58054 0.0
H777 H 0.31046 0.95241 0.46821 0.0
H778 H 0.30201 0.97304 0.4385 0.0
H779 H 0.29189 0.96323 0.50322 0.0
C780 C 0.29708 0.02696 0.41904 0.0
C781 C 0.27963 0.02063 0.40913 0.0
C782 C 0.30772 0.01928 0.46272 0.0
C783 C 0.30105 0.00535 0.49828 0.0
C784 C 0.28293 1.00058 0.4936 0.0
H785 H 0.40252 0.96852 0.64904 0.0
H786 H 0.3704 0.9733 0.6595 0.0
C787 C 0.27233 0.008 0.44881 0.0
C788 C 0.31397 0.99459 0.53311 0.0
H789 H 0.33597 0.95476 0.52549 0.0
C790 C 0.3261 0.00374 0.56977 0.0
C791 C 0.31708 0.97633 0.51975 0.0
C792 C 0.30477 0.96563 0.48013 0.0
C793 C 0.34243 0.99602 0.58636 0.0
C794 C 0.34629 0.97834 0.5679 0.0
C795 C 0.33303 0.96838 0.53872 0.0
C796 C 0.36491 0.9716 0.5655 0.0
C797 C 0.35604 0.00751 0.61807 0.0
C798 C 0.37228 0.96757 0.50988 0.0
C799 C 0.39049 0.96427 0.50393 0.0
C800 C 0.40186 0.96527 0.55333 0.0
C801 C 0.39423 0.96781 0.60982 0.0
C802 C 0.37586 0.9708 0.61589 0.0
H803 H 0.35169 0.02165 0.62193 0.0
H804 H 0.35811 1.00221 0.66342 0.0
H805 H 0.36906 0.00729 0.5945 0.0
H806 H 0.36409 0.96789 0.47028 0.0
H807 H 0.39577 0.96173 0.46007 0.0
H808 H 0.59789 0.30127 0.23363 0.0
H809 H 0.60224 0.32616 0.30129 0.0
H810 H 0.5705 0.29898 0.43353 0.0
H811 H 0.56485 0.27471 0.36437 0.0
H812 H 0.55628 0.32909 0.40883 0.0
H813 H 0.62785 0.34283 0.44419 0.0
H814 H 0.62362 0.34079 0.36643 0.0
H815 H 0.62002 0.3218 0.41445 0.0
C816 C 0.5921 0.3004 0.27752 0.0
C817 C 0.58058 0.28619 0.29273 0.0
C818 C 0.5949 0.31456 0.31676 0.0
C819 C 0.58668 0.31453 0.37269 0.0
C820 C 0.57694 0.29935 0.39054 0.0
H821 H 0.56093 0.41072 0.5783 0.0
H822 H 0.57111 0.38027 0.55781 0.0
C823 C 0.57384 0.28535 0.35089 0.0
C824 C 0.58504 0.33151 0.40628 0.0
H825 H 0.60806 0.36902 0.44804 0.0
C826 C 0.56768 0.33756 0.41898 0.0
C827 C 0.59985 0.34269 0.4193 0.0
C828 C 0.61887 0.33656 0.41088 0.0
C829 C 0.56468 0.35479 0.44079 0.0
C830 C 0.5794 0.36632 0.45007 0.0
C831 C 0.59682 0.36011 0.44027 0.0
C832 C 0.5765 0.38526 0.46519 0.0
C833 C 0.54571 0.36095 0.45086 0.0
C834 C 0.5766 0.39814 0.42003 0.0
C835 C 0.57056 0.41546 0.43125 0.0
C836 C 0.56433 0.42014 0.48793 0.0
C837 C 0.5653 0.40743 0.53389 0.0
C838 C 0.57128 0.3901 0.52253 0.0
H839 H 0.53569 0.35065 0.43802 0.0
H840 H 0.5438 0.36417 0.49842 0.0
H841 H 0.54312 0.37332 0.42505 0.0
H842 H 0.58044 0.39452 0.37535 0.0
H843 H 0.56986 0.42485 0.39479 0.0
H844 H 0.20654 0.49267 0.40653 0.0
H845 H 0.18722 0.50421 0.48438 0.0
H846 H 0.2217 0.55024 0.50395 0.0
H847 H 0.24091 0.53891 0.42431 0.0
H848 H 0.18868 0.51787 0.60298 0.0
H849 H 0.17567 0.57091 0.43389 0.0
H850 H 0.18871 0.55151 0.41529 0.0
H851 H 0.19786 0.56837 0.46326 0.0
C852 C 0.21024 0.50504 0.42836 0.0
C853 C 0.22491 0.51514 0.40847 0.0
C854 C 0.1993 0.51155 0.47328 0.0
C855 C 0.20284 0.52826 0.49905 0.0
C856 C 0.21861 0.53744 0.48394 0.0
H857 H 0.09674 0.56986 0.55578 0.0
H858 H 0.1288 0.57137 0.57887 0.0
C859 C 0.2296 0.53092 0.43869 0.0
C860 C 0.18818 0.53706 0.5317 0.0
H861 H 0.15286 0.56395 0.49941 0.0
C862 C 0.18109 0.52843 0.58179 0.0
C863 C 0.17843 0.55109 0.5048 0.0
C864 C 0.18544 0.56106 0.4513 0.0
C865 C 0.1636 0.53191 0.60093 0.0
C866 C 0.15296 0.544 0.56825 0.0
C867 C 0.16095 0.55446 0.52386 0.0
C868 C 0.13317 0.54293 0.56861 0.0
C869 C 0.1563 0.52161 0.65307 0.0
C870 C 0.12496 0.52646 0.55579 0.0
C871 C 0.10683 0.52562 0.54216 0.0
C872 C 0.0965 0.54125 0.54057 0.0
C873 C 0.10445 0.55763 0.55636 0.0
C874 C 0.12269 0.55849 0.56991 0.0
H875 H 0.16668 0.52026 0.68798 0.0
H876 H 0.14433 0.52812 0.67251 0.0
H877 H 0.15262 0.50791 0.63853 0.0
H878 H 0.13277 0.51433 0.55286 0.0
H879 H 0.10095 0.51275 0.5316 0.0
H880 H 0.00665 0.8062 0.96546 0.0
H881 H 0.01981 0.82736 0.89619 0.0
H882 H 0.06546 0.79284 0.87413 0.0
H883 H 0.05241 0.7717 0.94563 0.0
H884 H 0.07605 0.82489 0.90361 0.0
H885 H 0.02794 0.83388 0.72361 0.0
H886 H 0.01555 0.83473 0.79133 0.0
H887 H 0.02719 0.81448 0.77141 0.0
C888 C 0.01931 0.80293 0.94489 0.0
C889 C 0.02862 0.78746 0.96136 0.0
C890 C 0.02673 0.81491 0.90448 0.0
C891 C 0.04353 0.81159 0.87904 0.0
C892 C 0.0524 0.79558 0.89271 0.0
H893 H 0.06036 0.91672 0.73179 0.0
H894 H 0.06517 0.88453 0.72732 0.0
C895 C 0.04493 0.78352 0.93339 0.0
C896 C 0.05275 0.82635 0.84735 0.0
H897 H 0.04204 0.8621 0.76135 0.0
C898 C 0.06895 0.83275 0.87082 0.0
C899 C 0.04403 0.83636 0.80284 0.0
C900 C 0.02783 0.82931 0.77048 0.0
C901 C 0.07519 0.84998 0.85728 0.0
C902 C 0.06464 0.86119 0.82099 0.0
C903 C 0.04991 0.85381 0.79086 0.0
C904 C 0.06644 0.88097 0.82238 0.0
C905 C 0.09248 0.85629 0.88469 0.0
C906 C 0.0662 0.88985 0.87722 0.0
C907 C 0.06382 0.90832 0.87992 0.0
C908 C 0.06118 0.91828 0.82789 0.0
C909 C 0.06253 0.90954 0.77282 0.0
C910 C 0.06517 0.89107 0.77012 0.0
H911 H 0.10235 0.84523 0.88579 0.0
H912 H 0.09837 0.86775 0.86007 0.0
H913 H 0.09001 0.86037 0.93122 0.0
H914 H 0.06663 0.88242 0.91836 0.0
H915 H 0.06312 0.91464 0.92299 0.0
H916 H 0.74014 0.03133 0.90543 0.0
H917 H 0.72096 0.04322 0.8269 0.0
H918 H 0.68695 0.99666 0.84094 0.0
H919 H 0.70648 0.98433 0.91686 0.0
H920 H 0.68763 0.01067 0.7265 0.0
H921 H 0.67543 0.06384 0.89538 0.0
H922 H 0.69761 0.06169 0.86582 0.0
H923 H 0.68859 0.04441 0.91265 0.0
C924 C 0.72896 0.02332 0.89014 0.0
C925 C 0.7245 0.00712 0.91841 0.0
C926 C 0.71794 0.03021 0.84558 0.0
C927 C 0.70225 0.02108 0.82946 0.0
C928 C 0.69892 0.00402 0.85308 0.0
H929 H 0.59797 0.01343 0.78828 0.0
H930 H 0.63022 0.01173 0.77475 0.0
C931 C 0.70997 0.99707 0.897 0.0
C932 C 0.68763 0.03009 0.79698 0.0
H933 H 0.65357 0.05906 0.82464 0.0
C934 C 0.68044 0.02165 0.74675 0.0
C935 C 0.67834 0.04459 0.82296 0.0
C936 C 0.68526 0.05417 0.87727 0.0
C937 C 0.66335 0.02604 0.72582 0.0
C938 C 0.65324 0.03903 0.75637 0.0
C939 C 0.66132 0.04899 0.80167 0.0
C940 C 0.63352 0.03972 0.75205 0.0
C941 C 0.6558 0.01589 0.67382 0.0
C942 C 0.62461 0.05604 0.74403 0.0
C943 C 0.60609 0.05706 0.75242 0.0
C944 C 0.59636 0.04184 0.77009 0.0
C945 C 0.60523 0.02543 0.77588 0.0
C946 C 0.62361 0.02438 0.7669 0.0
H947 H 0.6665 0.01275 0.64132 0.0
H948 H 0.65016 0.003 0.6897 0.0
H949 H 0.64508 0.02349 0.65105 0.0
H950 H 0.63206 0.06808 0.73349 0.0
H951 H 0.59952 0.06986 0.74753 0.0
H952 H 0.44198 0.73982 0.96709 0.0
H953 H 0.4371 0.71601 0.89548 0.0
H954 H 0.40303 0.68852 0.02048 0.0
H955 H 0.40674 0.71292 0.09054 0.0
H956 H 0.45041 0.68537 0.92074 0.0
H957 H 0.37926 0.67344 0.87191 0.0
H958 H 0.38707 0.69416 0.90408 0.0
H959 H 0.38225 0.67505 0.95042 0.0
C960 C 0.43268 0.72921 0.97833 0.0
C961 C 0.42505 0.72812 0.03522 0.0
C962 C 0.43001 0.71549 0.93731 0.0
C963 C 0.41978 0.70037 0.9525 0.0
C964 C 0.41076 0.70011 0.00704 0.0
H965 H 0.43109 0.58951 0.92842 0.0
H966 H 0.42157 0.62034 0.94526 0.0
C967 C 0.41316 0.71398 0.04766 0.0
C968 C 0.42162 0.68359 0.91802 0.0
H969 H 0.39848 0.64681 0.87048 0.0
C970 C 0.43901 0.6772 0.90814 0.0
C971 C 0.4068 0.67282 0.90178 0.0
C972 C 0.38782 0.67936 0.90709 0.0
C973 C 0.44199 0.65997 0.88627 0.0
C974 C 0.42719 0.64881 0.8738 0.0
C975 C 0.40978 0.65541 0.88064 0.0
C976 C 0.42983 0.62981 0.85888 0.0
C977 C 0.46097 0.65339 0.8799 0.0
C978 C 0.43713 0.62493 0.80412 0.0
C979 C 0.44254 0.60733 0.79428 0.0
C980 C 0.44079 0.59435 0.8392 0.0
C981 C 0.43252 0.59913 0.89282 0.0
C982 C 0.42708 0.61673 0.90253 0.0
H983 H 0.47092 0.66311 0.89743 0.0
H984 H 0.46264 0.64048 0.90356 0.0
H985 H 0.46394 0.65106 0.83237 0.0
H986 H 0.43929 0.63488 0.76992 0.0
H987 H 0.44852 0.60399 0.75204 0.0
H988 H 0.75657 0.48556 0.90677 0.0
H989 H 0.77624 0.47363 0.82977 0.0
H990 H 0.80937 0.52085 0.84237 0.0
H991 H 0.78927 0.53326 0.91619 0.0
H992 H 0.81075 0.50637 0.73146 0.0
H993 H 0.82077 0.45352 0.90357 0.0
H994 H 0.79912 0.45532 0.86985 0.0
H995 H 0.80706 0.47274 0.91814 0.0
C996 C 0.76763 0.49371 0.89129 0.0
C997 C 0.77173 0.51011 0.91879 0.0
C998 C 0.77895 0.48679 0.84768 0.0
C999 C 0.79463 0.49604 0.83202 0.0
C1000 C 0.79747 0.51334 0.85426 0.0
H1001 H 0.89806 0.50436 0.82995 0.0
H1002 H 0.86594 0.50502 0.81332 0.0
C1003 C 0.78608 0.52035 0.89702 0.0
C1004 C 0.80975 0.48701 0.80226 0.0
H1005 H 0.84395 0.45891 0.83797 0.0
C1006 C 0.81774 0.49554 0.7534 0.0
C1007 C 0.81884 0.47273 0.83054 0.0
C1008 C 0.81112 0.46303 0.88353 0.0
C1009 C 0.83537 0.49164 0.73683 0.0
C1010 C 0.84507 0.47895 0.76987 0.0
C1011 C 0.83637 0.46875 0.81323 0.0
C1012 C 0.86476 0.47914 0.77076 0.0
C1013 C 0.84403 0.50215 0.68752 0.0
C1014 C 0.87466 0.46426 0.75266 0.0
C1015 C 0.89318 0.46395 0.7612 0.0
C1016 C 0.90199 0.47833 0.78934 0.0
C1017 C 0.89188 0.49319 0.80722 0.0
C1018 C 0.8735 0.49362 0.79766 0.0
H1019 H 0.83391 0.50682 0.65505 0.0
H1020 H 0.85081 0.51407 0.70652 0.0
H1021 H 0.85422 0.49404 0.66403 0.0
H1022 H 0.86804 0.45287 0.73257 0.0
H1023 H 0.90057 0.45245 0.74568 0.0
H1024 H 0.02998 0.18171 0.97188 0.0
H1025 H 0.02466 0.15314 0.9234 0.0
H1026 H 0.99772 0.17998 0.78005 0.0
H1027 H 0.0035 0.20898 0.82785 0.0
H1028 H 0.9919 0.13795 0.89618 0.0
H1029 H 0.03276 0.14707 0.69229 0.0
H1030 H 0.03467 0.16188 0.75508 0.0
H1031 H 0.01597 0.16371 0.70559 0.0
C1032 C 0.02323 0.18169 0.92945 0.0
C1033 C 0.01741 0.19779 0.90348 0.0
C1034 C 0.02006 0.16525 0.90197 0.0
C1035 C 0.01099 0.16435 0.84765 0.0
C1036 C 0.00503 0.18033 0.82144 0.0
H1037 H 0.98821 0.06689 0.6413 0.0
H1038 H 0.98968 0.09801 0.67475 0.0
C1039 C 0.00819 0.19689 0.84912 0.0
C1040 C 0.00732 0.1465 0.82067 0.0
H1041 H 0.01761 0.11953 0.70322 0.0
C1042 C 0.99748 0.13396 0.85386 0.0
C1043 C 0.01436 0.14132 0.76503 0.0
C1044 C 0.02514 0.15412 0.72743 0.0
C1045 C 0.99483 0.11636 0.83382 0.0
C1046 C 0.00262 0.11089 0.77963 0.0
C1047 C 0.01184 0.12362 0.74514 0.0
C1048 C 1.00181 0.09191 0.75917 0.0
C1049 C 0.98355 0.10385 0.8709 0.0
C1050 C 0.00839 0.07806 0.79514 0.0
C1051 C 0.00744 0.06022 0.77654 0.0
C1052 C 1.0001 0.05577 0.72104 0.0
C1053 C 0.99386 0.06972 0.68449 0.0
C1054 C 0.99473 0.08757 0.70339 0.0
H1055 H 0.97403 0.11133 0.89928 0.0
H1056 H 0.97585 0.09439 0.84277 0.0
H1057 H 0.99239 0.096 0.90053 0.0
H1058 H 0.01437 0.08105 0.8377 0.0
H1059 H 0.01257 0.04993 0.80566 0.0
H1060 H 0.31885 0.03346 0.99004 0.0
H1061 H 0.34734 0.02862 0.94024 0.0
H1062 H 0.31979 0.0056 0.79076 0.0
H1063 H 0.29092 0.0107 0.84032 0.0
H1064 H 0.36109 0.99473 0.89968 0.0
H1065 H 0.35385 0.04435 0.71713 0.0
H1066 H 0.34038 0.04532 0.78351 0.0
H1067 H 0.3359 0.0286 0.72853 0.0
C1068 C 0.31874 0.02762 0.94615 0.0
C1069 C 0.3025 0.02271 0.91889 0.0
C1070 C 0.3351 0.02473 0.91792 0.0
C1071 C 0.33573 0.01693 0.86152 0.0
C1072 C 0.31961 0.01187 0.83399 0.0
H1073 H 0.43299 0.99989 0.64819 0.0
H1074 H 0.40172 1.00104 0.68065 0.0
C1075 C 0.30314 0.01467 0.86252 0.0
C1076 C 0.35342 0.01382 0.83308 0.0
H1077 H 0.38111 0.02885 0.72295 0.0
C1078 C 0.36542 1.00209 0.86075 0.0
C1079 C 0.35903 0.02331 0.78204 0.0
C1080 C 0.34672 0.0362 0.75096 0.0
C1081 C 0.38294 0.99983 0.83955 0.0
C1082 C 0.38886 0.00996 0.79017 0.0
C1083 C 0.37666 0.02122 0.76113 0.0
C1084 C 0.40784 0.00958 0.76986 0.0
C1085 C 0.39496 0.98658 0.8703 0.0
C1086 C 0.42171 0.01448 0.80867 0.0
C1087 C 0.43958 0.01399 0.79023 0.0
C1088 C 0.44405 0.00864 0.73237 0.0
C1089 C 0.4301 0.00398 0.6932 0.0
C1090 C 0.41219 0.0046 0.71165 0.0
H1091 H 0.38708 0.9762 0.89415 0.0
H1092 H 0.40398 0.97987 0.8383 0.0
H1093 H 0.40329 0.99372 0.90343 0.0
H1094 H 0.41871 0.0188 0.85334 0.0
H1095 H 0.44989 0.01778 0.82151 0.0
H1096 H 0.46971 0.30405 0.87863 0.0
H1097 H 0.46588 0.33365 0.83258 0.0
H1098 H 0.51877 0.34881 0.89037 0.0
H1099 H 0.52274 0.31945 0.93508 0.0
H1100 H 0.46637 0.36742 0.8767 0.0
H1101 H 0.52185 0.36051 0.71693 0.0
H1102 H 0.51325 0.34178 0.75872 0.0
H1103 H 0.52935 0.35682 0.79134 0.0
C1104 C 0.4805 0.31371 0.88124 0.0
C1105 C 0.49667 0.30925 0.90939 0.0
C1106 C 0.47832 0.33061 0.85492 0.0
C1107 C 0.49224 0.34334 0.85654 0.0
C1108 C 0.50808 0.33907 0.88657 0.0
H1109 H 0.48914 0.45843 0.81589 0.0
H1110 H 0.48716 0.42752 0.85068 0.0
C1111 C 0.51032 0.32223 0.91225 0.0
C1112 C 0.49031 0.36123 0.82799 0.0
H1113 H 0.51167 0.39039 0.73496 0.0
C1114 C 0.47615 0.37238 0.84516 0.0
C1115 C 0.50284 0.36765 0.78586 0.0
C1116 C 0.51755 0.35598 0.76165 0.0
C1117 C 0.47462 0.38996 0.82328 0.0
C1118 C 0.48788 0.39678 0.78434 0.0
C1119 C 0.50162 0.38536 0.76543 0.0
C1120 C 0.48804 0.41572 0.76313 0.0
C1121 C 0.45868 0.40092 0.84177 0.0
C1122 C 0.48966 0.41954 0.70237 0.0
C1123 C 0.49117 0.43722 0.68245 0.0
C1124 C 0.49099 0.45155 0.72279 0.0
C1125 C 0.4891 0.44775 0.78352 0.0
C1126 C 0.48783 0.43003 0.80349 0.0
H1127 H 0.44715 0.39224 0.85385 0.0
H1128 H 0.46225 0.40893 0.88143 0.0
H1129 H 0.45444 0.41018 0.806 0.0
H1130 H 0.48995 0.4088 0.67023 0.0
H1131 H 0.4926 0.43963 0.63536 0.0
H1132 H 0.19702 0.53267 0.88669 0.0
H1133 H 0.16798 0.53204 0.8367 0.0
H1134 H 0.16593 0.47471 0.85543 0.0
H1135 H 0.195 0.47521 0.90566 0.0
H1136 H 0.15296 0.48754 0.74372 0.0
H1137 H 0.12202 0.52303 0.93363 0.0
H1138 H 0.1409 0.53428 0.90112 0.0
H1139 H 0.14397 0.51316 0.93774 0.0
C1140 C 0.19047 0.51989 0.8798 0.0
C1141 C 0.1983 0.50401 0.90092 0.0
C1142 C 0.17384 0.51957 0.85126 0.0
C1143 C 0.16457 0.50337 0.84344 0.0
C1144 C 0.17279 0.48738 0.86124 0.0
H1145 H 0.05014 0.48911 0.79829 0.0
H1146 H 0.08126 0.4893 0.83151 0.0
C1147 C 0.18947 0.48768 0.88971 0.0
C1148 C 0.14592 0.50324 0.81996 0.0
H1149 H 0.10359 0.51772 0.85049 0.0
C1150 C 0.14216 0.49415 0.76697 0.0
C1151 C 0.13176 0.51169 0.85068 0.0
C1152 C 0.13475 0.52097 0.90922 0.0
C1153 C 0.1247 0.49351 0.74345 0.0
C1154 C 0.1106 0.50221 0.77376 0.0
C1155 C 0.11437 0.51114 0.82704 0.0
C1156 C 0.09172 0.50181 0.75218 0.0
C1157 C 0.12145 0.48321 0.68702 0.0
C1158 C 0.08711 0.50894 0.69667 0.0
C1159 C 0.06929 0.50877 0.67735 0.0
C1160 C 0.05559 0.50164 0.71341 0.0
C1161 C 0.06026 0.49467 0.76922 0.0
C1162 C 0.07809 0.49478 0.78834 0.0
H1163 H 0.13256 0.47386 0.67717 0.0
H1164 H 0.10877 0.47547 0.68965 0.0
H1165 H 0.12037 0.49274 0.64948 0.0
H1166 H 0.09726 0.51486 0.66853 0.0
H1167 H 0.06626 0.51438 0.63427 0.0
H1168 H 0.01751 0.8132 0.39174 0.0
H1169 H 0.01624 0.84206 0.44129 0.0
H1170 H 0.96876 0.82539 0.53486 0.0
H1171 H 0.97003 0.79617 0.48572 0.0
H1172 H 0.96517 0.85868 0.48496 0.0
H1173 H 0.02854 0.85582 0.61068 0.0
H1174 H 0.03176 0.8512 0.53342 0.0
H1175 H 0.0184 0.83625 0.57782 0.0
C1176 C 0.00701 0.8154 0.42393 0.0
C1177 C 0.99399 0.80214 0.4351 0.0
C1178 C 0.0063 0.83202 0.45223 0.0
C1179 C 0.9926 0.83586 0.4927 0.0
C1180 C 0.97954 0.82272 0.50409 0.0
H1181 H 0.99709 0.93491 0.70136 0.0
H1182 H 0.99555 0.90351 0.67163 0.0
C1183 C 0.98025 0.80602 0.47577 0.0
C1184 C 0.99148 0.85396 0.52022 0.0
H1185 H 0.01584 0.88496 0.59731 0.0
C1186 C 0.97617 0.86435 0.51008 0.0
C1187 C 0.00567 0.86133 0.55397 0.0
C1188 C 0.02194 0.8505 0.5702 0.0
C1189 C 0.97498 0.88208 0.53058 0.0
C1190 C 0.98967 0.88985 0.56094 0.0
C1191 C 0.00467 0.87919 0.57325 0.0
C1192 C 0.98992 0.90903 0.57938 0.0
C1193 C 0.95789 0.89224 0.51978 0.0
C1194 C 0.98742 0.92273 0.53752 0.0
C1195 C 0.98816 0.94074 0.55447 0.0
C1196 C 0.99167 0.94554 0.61364 0.0
C1197 C 0.9943 0.93179 0.65544 0.0
C1198 C 0.99344 0.91377 0.63848 0.0
H1199 H 0.94632 0.88302 0.51426 0.0
H1200 H 0.95496 0.90157 0.55675 0.0
H1201 H 0.95924 0.90014 0.47836 0.0
H1202 H 0.9852 0.91952 0.49134 0.0
H1203 H 0.98628 0.9509 0.52084 0.0
H1204 H 0.68806 0.96376 0.42169 0.0
H1205 H 0.6595 0.96804 0.4724 0.0
H1206 H 0.67087 0.02434 0.48985 0.0
H1207 H 0.6993 0.02027 0.43751 0.0
H1208 H 0.64935 0.98213 0.58309 0.0
H1209 H 0.62364 0.02319 0.39638 0.0
H1210 H 0.64384 0.01019 0.39075 0.0
H1211 H 0.64399 0.03112 0.42977 0.0
C1212 C 0.68456 0.97706 0.43661 0.0
C1213 C 0.6959 0.99171 0.42471 0.0
C1214 C 0.66825 0.97946 0.4659 0.0
C1215 C 0.66285 0.99657 0.48386 0.0
C1216 C 0.6746 0.01107 0.47537 0.0
H1217 H 0.56432 0.01485 0.68909 0.0
H1218 H 0.59559 0.0141 0.65729 0.0
C1219 C 0.69096 0.00867 0.44604 0.0
C1220 C 0.64451 0.99922 0.50813 0.0
H1221 H 0.60422 0.01856 0.47704 0.0
C1222 C 0.6395 0.99019 0.56018 0.0
C1223 C 0.63159 0.00958 0.4778 0.0
C1224 C 0.63591 0.01898 0.42031 0.0
C1225 C 0.62197 0.99122 0.58268 0.0
C1226 C 0.60905 1.00157 0.55228 0.0
C1227 C 0.61411 0.01068 0.50045 0.0
C1228 C 0.59 1.00243 0.57166 0.0
C1229 C 0.61729 0.98076 0.6378 0.0
C1230 C 0.57632 0.99665 0.53343 0.0
C1231 C 0.55838 0.99733 0.55106 0.0
C1232 C 0.55367 0.00383 0.60738 0.0
C1233 C 0.5674 0.00975 0.64543 0.0
C1234 C 0.58535 0.00918 0.62758 0.0
H1235 H 0.62745 0.97039 0.64791 0.0
H1236 H 0.61666 0.99003 0.67608 0.0
H1237 H 0.60404 0.97416 0.63319 0.0
H1238 H 0.57955 0.99146 0.48996 0.0
H1239 H 0.5482 0.99268 0.52052 0.0
H1240 H 0.47811 0.69344 0.40219 0.0
H1241 H 0.48189 0.66385 0.44544 0.0
H1242 H 0.53462 0.67861 0.50579 0.0
H1243 H 0.53098 0.70847 0.46142 0.0
H1244 H 0.53413 0.64506 0.45886 0.0
H1245 H 0.47845 0.65121 0.61839 0.0
H1246 H 0.47115 0.65538 0.54404 0.0
H1247 H 0.48722 0.67016 0.57807 0.0
C1248 C 0.49045 0.69053 0.42534 0.0
C1249 C 0.50411 0.70348 0.42937 0.0
C1250 C 0.49258 0.67356 0.45014 0.0
C1251 C 0.50833 0.6691 0.48037 0.0
C1252 C 0.52225 0.6818 0.48324 0.0
H1253 H 0.50828 0.57208 0.69748 0.0
H1254 H 0.51079 0.60299 0.66337 0.0
C1255 C 0.52017 0.69884 0.45786 0.0
C1256 C 0.51018 0.65104 0.50781 0.0
H1257 H 0.48875 0.62147 0.59923 0.0
C1258 C 0.52433 0.63996 0.49008 0.0
C1259 C 0.4976 0.64443 0.54947 0.0
C1260 C 0.48288 0.65599 0.5741 0.0
C1261 C 0.52583 0.62227 0.51103 0.0
C1262 C 0.51256 0.61529 0.54963 0.0
C1263 C 0.49881 0.62663 0.56902 0.0
C1264 C 0.51246 0.5963 0.57024 0.0
C1265 C 0.54174 0.61135 0.49197 0.0
C1266 C 0.51257 0.58208 0.52948 0.0
C1267 C 0.51135 0.56431 0.549 0.0
C1268 C 0.50964 0.56036 0.60968 0.0
C1269 C 0.50957 0.5746 0.65041 0.0
C1270 C 0.511 0.59232 0.63093 0.0
H1271 H 0.55325 0.62006 0.47985 0.0
H1272 H 0.54604 0.60202 0.52745 0.0
H1273 H 0.5381 0.60341 0.45224 0.0
H1274 H 0.51313 0.58472 0.48235 0.0
H1275 H 0.51124 0.5537 0.51636 0.0
H1276 H 0.79956 0.49535 0.4389 0.0
H1277 H 0.82813 0.49161 0.49053 0.0
H1278 H 0.8398 0.54763 0.46569 0.0
H1279 H 0.81106 0.55161 0.41634 0.0
H1280 H 0.86075 0.49676 0.44123 0.0
H1281 H 0.85458 0.54137 0.63562 0.0
H1282 H 0.83552 0.53497 0.59119 0.0
H1283 H 0.85016 0.55272 0.56724 0.0
C1284 C 0.80795 0.50699 0.44601 0.0
C1285 C 0.80297 0.52378 0.42317 0.0
C1286 C 0.82438 0.5048 0.47514 0.0
C1287 C 0.83614 0.51936 0.48256 0.0
C1288 C 0.8309 0.53624 0.4617 0.0
H1289 H 0.95119 0.52279 0.51157 0.0
H1290 H 0.91965 0.52494 0.48342 0.0
C1291 C 0.81449 0.53845 0.43276 0.0
C1292 C 0.85449 0.51663 0.507 0.0
H1293 H 0.88436 0.53208 0.61011 0.0
C1294 C 0.86581 0.50437 0.47857 0.0
C1295 C 0.8612 0.52652 0.55582 0.0
C1296 C 0.84967 0.5395 0.58959 0.0
C1297 C 0.88371 0.50217 0.49623 0.0
C1298 C 0.89055 0.51249 0.54354 0.0
C1299 C 0.87913 0.5243 0.57343 0.0
C1300 C 0.90966 0.51142 0.56152 0.0
C1301 C 0.89528 0.4889 0.4639 0.0
C1302 C 0.91453 0.5032 0.61498 0.0
C1303 C 0.93259 0.50178 0.63092 0.0
C1304 C 0.94618 0.50883 0.59434 0.0
C1305 C 0.94117 0.51721 0.541 0.0
C1306 C 0.92312 0.51846 0.52477 0.0
H1307 H 0.88726 0.47972 0.43567 0.0
H1308 H 0.90485 0.49623 0.43508 0.0
H1309 H 0.90316 0.48083 0.49585 0.0
H1310 H 0.90438 0.4976 0.64392 0.0
H1311 H 0.93591 0.49493 0.67156 0.0
loop_
_geom_bond_atom_site_label_1
_geom_bond_atom_site_label_2
_geom_bond_distance
_geom_bond_site_symmetry_2
_ccdc_geom_bond_type
C0 C1 1.384 . S
C0 H13 0.947 . S
C0 C35 1.382 . S
C1 C0 1.384 . S
C1 C2 1.378 . S
C2 C1 1.378 . S
C2 C3 1.378 . S
C2 H14 0.952 . S
C3 C2 1.378 . S
C3 H15 0.950 . S
C3 C34 1.383 . S
H4 C23 0.947 . S
H5 C24 0.946 . S
H6 C26 0.953 . S
H7 C27 0.945 . S
H8 C29 0.952 . S
H9 C30 0.949 . S
H10 C32 0.950 . S
H11 C33 0.948 . S
H12 C35 0.951 . S
H13 C0 0.947 . S
H14 C2 0.952 . S
H15 C3 0.950 . S
N16 C19 1.382 . S
N16 C21 1.363 . S
N17 C19 1.371 . S
N17 C20 1.372 . S
N18 C20 1.361 . S
N18 C21 1.377 . S
C19 N16 1.382 . S
C19 N17 1.371 . S
C19 C22 1.480 . S
C20 N17 1.372 . S
C20 N18 1.361 . S
C20 C28 1.457 . S
C21 N16 1.363 . S
C21 N18 1.377 . S
C21 C34 1.479 . S
C22 C19 1.480 . S
C22 C23 1.383 . S
C22 C27 1.385 . S
C23 H4 0.947 . S
C23 C22 1.383 . S
C23 C24 1.388 . S
C24 H5 0.946 . S
C24 C23 1.388 . S
C24 C25 1.384 . S
C25 C24 1.384 . S
C25 C26 1.377 . S
C26 H6 0.953 . S
C26 C25 1.377 . S
C26 C27 1.369 . S
C27 H7 0.945 . S
C27 C22 1.385 . S
C27 C26 1.369 . S
C28 C20 1.457 . S
C28 C29 1.372 . S
C28 C33 1.364 . S
C29 H8 0.952 . S
C29 C28 1.372 . S
C29 C30 1.389 . S
C30 H9 0.949 . S
C30 C29 1.389 . S
C30 C31 1.387 . S
C31 C30 1.387 . S
C31 C32 1.372 . S
C32 H10 0.950 . S
C32 C31 1.372 . S
C32 C33 1.379 . S
C33 H11 0.948 . S
C33 C28 1.364 . S
C33 C32 1.379 . S
C34 C3 1.383 . S
C34 C21 1.479 . S
C34 C35 1.398 . S
C35 C0 1.382 . S
C35 H12 0.951 . S
C35 C34 1.398 . S
C36 C37 1.381 1_655 S
C36 H49 0.948 . S
C36 C71 1.382 1_655 S
C37 C36 1.381 1_455 S
C37 C38 1.388 . S
C38 C37 1.388 . S
C38 C39 1.378 . S
C38 H50 0.952 . S
C39 C38 1.378 . S
C39 H51 0.950 . S
C39 C70 1.383 . S
H40 C59 0.947 . S
H41 C60 0.952 . S
H42 C62 0.953 . S
H43 C63 0.945 . S
H44 C65 0.949 1_655 S
H45 C66 0.956 . S
H46 C68 0.950 . S
H47 C69 0.948 . S
H48 C71 0.952 1_655 S
H49 C36 0.948 . S
H50 C38 0.952 . S
H51 C39 0.950 . S
N52 C55 1.382 . S
N52 C57 1.363 . S
N53 C55 1.371 . S
N53 C56 1.372 . S
N54 C56 1.361 . S
N54 C57 1.377 . S
C55 N52 1.382 . S
C55 N53 1.371 . S
C55 C58 1.480 . S
C56 N53 1.372 . S
C56 N54 1.361 . S
C56 C64 1.457 . S
C57 N52 1.363 . S
C57 N54 1.377 . S
C57 C70 1.479 . S
C58 C55 1.480 . S
C58 C59 1.383 . S
C58 C63 1.385 . S
C59 H40 0.947 . S
C59 C58 1.383 . S
C59 C60 1.386 1_455 S
C60 H41 0.952 . S
C60 C59 1.386 1_655 S
C60 C61 1.381 1_655 S
C61 C60 1.381 1_455 S
C61 C62 1.377 . S
C62 H42 0.953 . S
C62 C61 1.377 . S
C62 C63 1.369 . S
C63 H43 0.945 . S
C63 C58 1.385 . S
C63 C62 1.369 . S
C64 C56 1.457 . S
C64 C65 1.375 . S
C64 C69 1.364 . S
C65 H44 0.949 1_455 S
C65 C64 1.375 . S
C65 C66 1.386 1_455 S
C66 H45 0.956 . S
C66 C65 1.386 1_655 S
C66 C67 1.383 1_655 S
C67 C66 1.383 1_455 S
C67 C68 1.372 . S
C68 H46 0.950 . S
C68 C67 1.372 . S
C68 C69 1.379 . S
C69 H47 0.948 . S
C69 C64 1.364 . S
C69 C68 1.379 . S
C70 C39 1.383 . S
C70 C57 1.479 . S
C70 C71 1.397 . S
C71 C36 1.382 1_455 S
C71 H48 0.952 1_455 S
C71 C70 1.397 . S
C72 C73 1.384 . S
C72 H85 0.947 . S
C72 C107 1.382 . S
C73 C72 1.384 . S
C73 C74 1.378 . S
C74 C73 1.378 . S
C74 C75 1.382 . S
C74 H86 0.952 . S
C75 C74 1.382 . S
C75 H87 0.942 1_565 S
C75 C106 1.389 . S
H76 C95 0.947 . S
H77 C96 0.946 . S
H78 C98 0.953 . S
H79 C99 0.941 1_545 S
H80 C101 0.952 . S
H81 C102 0.949 . S
H82 C104 0.949 1_545 S
H83 C105 0.949 . S
H84 C107 0.951 . S
H85 C72 0.947 . S
H86 C74 0.952 . S
H87 C75 0.942 1_545 S
N88 C91 1.382 . S
N88 C93 1.363 . S
N89 C91 1.371 . S
N89 C92 1.378 . S
N90 C92 1.364 . S
N90 C93 1.377 . S
C91 N88 1.382 . S
C91 N89 1.371 . S
C91 C94 1.480 . S
C92 N89 1.378 . S
C92 N90 1.364 . S
C92 C100 1.459 . S
C93 N88 1.363 . S
C93 N90 1.377 . S
C93 C106 1.479 . S
C94 C91 1.480 . S
C94 C95 1.383 . S
C94 C99 1.387 . S
C95 H76 0.947 . S
C95 C94 1.383 . S
C95 C96 1.388 . S
C96 H77 0.946 . S
C96 C95 1.388 . S
C96 C97 1.384 . S
C97 C96 1.384 . S
C97 C98 1.377 . S
C98 H78 0.953 . S
C98 C97 1.377 . S
C98 C99 1.372 . S
C99 H79 0.941 1_565 S
C99 C94 1.387 . S
C99 C98 1.372 . S
C100 C92 1.459 . S
C100 C101 1.372 . S
C100 C105 1.364 1_565 S
C101 H80 0.952 . S
C101 C100 1.372 . S
C101 C102 1.389 . S
C102 H81 0.949 . S
C102 C101 1.389 . S
C102 C103 1.387 . S
C103 C102 1.387 . S
C103 C104 1.372 . S
C104 H82 0.949 1_565 S
C104 C103 1.372 . S
C104 C105 1.378 1_565 S
C105 H83 0.949 . S
C105 C100 1.364 1_545 S
C105 C104 1.378 1_545 S
C106 C75 1.389 . S
C106 C93 1.479 . S
C106 C107 1.398 . S
C107 C72 1.382 . S
C107 H84 0.951 . S
C107 C106 1.398 . S
C108 C109 1.384 . S
C108 H121 0.947 . S
C108 C143 1.382 . S
C109 C108 1.384 . S
C109 C110 1.378 . S
C110 C109 1.378 . S
C110 C111 1.378 . S
C110 H122 0.952 . S
C111 C110 1.378 . S
C111 H123 0.950 . S
C111 C142 1.383 . S
H112 C131 0.947 . S
H113 C132 0.946 . S
H114 C134 0.953 . S
H115 C135 0.945 . S
H116 C137 0.952 . S
H117 C138 0.949 . S
H118 C140 0.950 . S
H119 C141 0.948 . S
H120 C143 0.951 . S
H121 C108 0.947 . S
H122 C110 0.952 . S
H123 C111 0.950 . S
N124 C127 1.382 . S
N124 C129 1.363 . S
N125 C127 1.371 . S
N125 C128 1.372 . S
N126 C128 1.361 . S
N126 C129 1.377 . S
C127 N124 1.382 . S
C127 N125 1.371 . S
C127 C130 1.480 . S
C128 N125 1.372 . S
C128 N126 1.361 . S
C128 C136 1.457 . S
C129 N124 1.363 . S
C129 N126 1.377 . S
C129 C142 1.479 . S
C130 C127 1.480 . S
C130 C131 1.383 . S
C130 C135 1.385 . S
C131 H112 0.947 . S
C131 C130 1.383 . S
C131 C132 1.388 . S
C132 H113 0.946 . S
C132 C131 1.388 . S
C132 C133 1.384 . S
C133 C132 1.384 . S
C133 C134 1.377 . S
C134 H114 0.953 . S
C134 C133 1.377 . S
C134 C135 1.369 . S
C135 H115 0.945 . S
C135 C130 1.385 . S
C135 C134 1.369 . S
C136 C128 1.457 . S
C136 C137 1.372 . S
C136 C141 1.364 . S
C137 H116 0.952 . S
C137 C136 1.372 . S
C137 C138 1.389 . S
C138 H117 0.949 . S
C138 C137 1.389 . S
C138 C139 1.387 . S
C139 C138 1.387 . S
C139 C140 1.372 . S
C140 H118 0.950 . S
C140 C139 1.372 . S
C140 C141 1.379 . S
C141 H119 0.948 . S
C141 C136 1.364 . S
C141 C140 1.379 . S
C142 C111 1.383 . S
C142 C129 1.479 . S
C142 C143 1.398 . S
C143 C108 1.382 . S
C143 H120 0.951 . S
C143 C142 1.398 . S
C144 C145 1.384 . S
C144 H157 0.947 . S
C144 C179 1.382 . S
C145 C144 1.384 . S
C145 C146 1.378 . S
C146 C145 1.378 . S
C146 C147 1.378 . S
C146 H158 0.952 . S
C147 C146 1.378 . S
C147 H159 0.950 . S
C147 C178 1.383 . S
H148 C167 0.947 1_556 S
H149 C168 0.946 . S
H150 C170 0.953 . S
H151 C171 0.945 . S
H152 C173 0.952 . S
H153 C174 0.949 . S
H154 C176 0.950 . S
H155 C177 0.948 . S
H156 C179 0.951 . S
H157 C144 0.947 . S
H158 C146 0.952 . S
H159 C147 0.950 . S
N160 C163 1.382 1_556 S
N160 C165 1.363 . S
N161 C163 1.371 . S
N161 C164 1.372 . S
N162 C164 1.361 . S
N162 C165 1.377 1_554 S
C163 N160 1.382 1_554 S
C163 N161 1.371 . S
C163 C166 1.480 . S
C164 N161 1.372 . S
C164 N162 1.361 . S
C164 C172 1.457 . S
C165 N160 1.363 . S
C165 N162 1.377 1_556 S
C165 C178 1.479 . S
C166 C163 1.480 . S
C166 C167 1.383 . S
C166 C171 1.385 . S
C167 H148 0.947 1_554 S
C167 C166 1.383 . S
C167 C168 1.388 . S
C168 H149 0.946 . S
C168 C167 1.388 . S
C168 C169 1.384 . S
C169 C168 1.384 . S
C169 C170 1.377 . S
C170 H150 0.953 . S
C170 C169 1.377 . S
C170 C171 1.369 . S
C171 H151 0.945 . S
C171 C166 1.385 . S
C171 C170 1.369 . S
C172 C164 1.457 . S
C172 C173 1.372 . S
C172 C177 1.364 . S
C173 H152 0.952 . S
C173 C172 1.372 . S
C173 C174 1.389 . S
C174 H153 0.949 . S
C174 C173 1.389 . S
C174 C175 1.387 . S
C175 C174 1.387 . S
C175 C176 1.372 . S
C176 H154 0.950 . S
C176 C175 1.372 . S
C176 C177 1.379 . S
C177 H155 0.948 . S
C177 C172 1.364 . S
C177 C176 1.379 . S
C178 C147 1.383 . S
C178 C165 1.479 . S
C178 C179 1.398 . S
C179 C144 1.382 . S
C179 H156 0.951 . S
C179 C178 1.398 . S
C180 C181 1.384 . S
C180 H193 0.948 1_455 S
C180 C215 1.382 . S
C181 C180 1.384 . S
C181 C182 1.378 . S
C182 C181 1.378 . S
C182 C183 1.378 . S
C182 H194 0.952 . S
C183 C182 1.378 . S
C183 H195 0.950 . S
C183 C214 1.383 . S
H184 C203 0.947 1_556 S
H185 C204 0.948 . S
H186 C206 0.953 . S
H187 C207 0.945 . S
H188 C209 0.947 1_655 S
H189 C210 0.953 . S
H190 C212 0.950 . S
H191 C213 0.948 . S
H192 C215 0.950 1_655 S
H193 C180 0.948 1_655 S
H194 C182 0.952 . S
H195 C183 0.950 . S
N196 C199 1.382 1_556 S
N196 C201 1.363 . S
N197 C199 1.371 . S
N197 C200 1.372 . S
N198 C200 1.361 . S
N198 C201 1.377 1_554 S
C199 N196 1.382 1_554 S
C199 N197 1.371 . S
C199 C202 1.480 . S
C200 N197 1.372 . S
C200 N198 1.361 . S
C200 C208 1.457 . S
C201 N196 1.363 . S
C201 N198 1.377 1_556 S
C201 C214 1.479 . S
C202 C199 1.480 . S
C202 C203 1.383 . S
C202 C207 1.385 . S
C203 H184 0.947 1_554 S
C203 C202 1.383 . S
C203 C204 1.387 1_455 S
C204 H185 0.948 . S
C204 C203 1.387 1_655 S
C204 C205 1.383 1_655 S
C205 C204 1.383 1_455 S
C205 C206 1.377 . S
C206 H186 0.953 . S
C206 C205 1.377 . S
C206 C207 1.369 . S
C207 H187 0.945 . S
C207 C202 1.385 . S
C207 C206 1.369 . S
C208 C200 1.457 . S
C208 C209 1.379 . S
C208 C213 1.364 . S
C209 H188 0.947 1_455 S
C209 C208 1.379 . S
C209 C210 1.387 1_455 S
C210 H189 0.953 . S
C210 C209 1.387 1_655 S
C210 C211 1.384 1_655 S
C211 C210 1.384 1_455 S
C211 C212 1.372 . S
C212 H190 0.950 . S
C212 C211 1.372 . S
C212 C213 1.379 . S
C213 H191 0.948 . S
C213 C208 1.364 . S
C213 C212 1.379 . S
C214 C183 1.383 . S
C214 C201 1.479 . S
C214 C215 1.399 . S
C215 C180 1.382 . S
C215 H192 0.950 1_455 S
C215 C214 1.399 . S
C216 C217 1.384 . S
C216 H229 0.947 . S
C216 C251 1.382 . S
C217 C216 1.384 . S
C217 C218 1.378 . S
C218 C217 1.378 . S
C218 C219 1.378 . S
C218 H230 0.952 . S
C219 C218 1.378 . S
C219 H231 0.950 . S
C219 C250 1.383 . S
H220 C239 0.947 1_556 S
H221 C240 0.946 . S
H222 C242 0.953 . S
H223 C243 0.945 . S
H224 C245 0.952 . S
H225 C246 0.949 . S
H226 C248 0.950 . S
H227 C249 0.948 . S
H228 C251 0.951 . S
H229 C216 0.947 . S
H230 C218 0.952 . S
H231 C219 0.950 . S
N232 C235 1.382 1_556 S
N232 C237 1.363 . S
N233 C235 1.371 . S
N233 C236 1.372 . S
N234 C236 1.361 . S
N234 C237 1.377 1_554 S
C235 N232 1.382 1_554 S
C235 N233 1.371 . S
C235 C238 1.480 . S
C236 N233 1.372 . S
C236 N234 1.361 . S
C236 C244 1.457 . S
C237 N232 1.363 . S
C237 N234 1.377 1_556 S
C237 C250 1.479 . S
C238 C235 1.480 . S
C238 C239 1.383 . S
C238 C243 1.385 . S
C239 H220 0.947 1_554 S
C239 C238 1.383 . S
C239 C240 1.388 . S
C240 H221 0.946 . S
C240 C239 1.388 . S
C240 C241 1.384 . S
C241 C240 1.384 . S
C241 C242 1.377 . S
C242 H222 0.953 . S
C242 C241 1.377 . S
C242 C243 1.369 . S
C243 H223 0.945 . S
C243 C238 1.385 . S
C243 C242 1.369 . S
C244 C236 1.457 . S
C244 C245 1.372 . S
C244 C249 1.364 . S
C245 H224 0.952 . S
C245 C244 1.372 . S
C245 C246 1.389 . S
C246 H225 0.949 . S
C246 C245 1.389 . S
C246 C247 1.387 . S
C247 C246 1.387 . S
C247 C248 1.372 . S
C248 H226 0.950 . S
C248 C247 1.372 . S
C248 C249 1.379 . S
C249 H227 0.948 . S
C249 C244 1.364 . S
C249 C248 1.379 . S
C250 C219 1.383 . S
C250 C237 1.479 . S
C250 C251 1.398 . S
C251 C216 1.382 . S
C251 H228 0.951 . S
C251 C250 1.398 . S
C252 C253 1.384 . S
C252 H265 0.947 . S
C252 C287 1.382 . S
C253 C252 1.384 . S
C253 C254 1.378 . S
C254 C253 1.378 . S
C254 C255 1.378 . S
C254 H266 0.952 . S
C255 C254 1.378 . S
C255 H267 0.950 . S
C255 C286 1.383 . S
H256 C275 0.947 . S
H257 C276 0.946 . S
H258 C278 0.953 1_556 S
H259 C279 0.945 1_556 S
H260 C281 0.952 . S
H261 C282 0.949 . S
H262 C284 0.950 . S
H263 C285 0.948 . S
H264 C287 0.951 . S
H265 C252 0.947 . S
H266 C254 0.952 . S
H267 C255 0.950 . S
N268 C271 1.382 . S
N268 C273 1.363 . S
N269 C271 1.371 1_556 S
N269 C272 1.372 . S
N270 C272 1.361 1_554 S
N270 C273 1.377 . S
C271 N268 1.382 . S
C271 N269 1.371 1_554 S
C271 C274 1.480 . S
C272 N269 1.372 . S
C272 N270 1.361 1_556 S
C272 C280 1.457 . S
C273 N268 1.363 . S
C273 N270 1.377 . S
C273 C286 1.479 . S
C274 C271 1.480 . S
C274 C275 1.383 . S
C274 C279 1.385 . S
C275 H256 0.947 . S
C275 C274 1.383 . S
C275 C276 1.388 . S
C276 H257 0.946 . S
C276 C275 1.388 . S
C276 C277 1.384 . S
C277 C276 1.384 . S
C277 C278 1.377 . S
C278 H258 0.953 1_554 S
C278 C277 1.377 . S
C278 C279 1.369 . S
C279 H259 0.945 1_554 S
C279 C274 1.385 . S
C279 C278 1.369 . S
C280 C272 1.457 . S
C280 C281 1.372 . S
C280 C285 1.364 . S
C281 H260 0.952 . S
C281 C280 1.372 . S
C281 C282 1.389 . S
C282 H261 0.949 . S
C282 C281 1.389 . S
C282 C283 1.387 . S
C283 C282 1.387 . S
C283 C284 1.372 . S
C284 H262 0.950 . S
C284 C283 1.372 . S
C284 C285 1.379 . S
C285 H263 0.948 . S
C285 C280 1.364 . S
C285 C284 1.379 . S
C286 C255 1.383 . S
C286 C273 1.479 . S
C286 C287 1.398 . S
C287 C252 1.382 . S
C287 H264 0.951 . S
C287 C286 1.398 . S
Ho288 C291 2.811 . S
Ho288 O308 2.322 . S
Ho288 O310 2.378 . S
Ho288 O311 2.541 . S
Ho288 O312 2.381 . S
Ho288 O313 2.669 1_565 S
Ho288 O315 2.346 1_565 S
Ho288 O319 2.317 1_455 S
Ho289 C300 2.811 . S
Ho289 O309 2.346 1_545 S
Ho289 O313 2.305 1_655 S
Ho289 O314 2.322 . S
Ho289 O316 2.378 . S
Ho289 O317 2.535 . S
Ho289 O318 2.381 . S
Ho289 O319 2.643 1_545 S
C290 O308 1.259 1_655 S
C290 O309 1.268 . S
C291 Ho288 2.811 . S
C291 C292 1.488 . S
C291 O310 1.215 . S
C291 O311 1.329 . S
C292 C291 1.488 . S
C292 C293 1.348 . S
C292 C297 1.413 . S
C293 C292 1.348 . S
C293 C294 1.442 . S
C293 H320 0.930 1_455 S
C294 C293 1.442 . S
C294 C295 1.381 . S
C294 H321 0.931 1_455 S
C295 C294 1.381 . S
C295 C296 1.321 . S
C296 C295 1.321 . S
C296 C297 1.403 . S
C296 H322 0.934 . S
C297 C292 1.413 . S
C297 C296 1.403 . S
C297 H323 0.930 . S
C298 O312 1.275 1_545 S
C298 O313 1.256 . S
C299 O314 1.259 1_455 S
C299 O315 1.268 . S
C300 Ho289 2.811 . S
C300 C301 1.488 . S
C300 O316 1.215 . S
C300 O317 1.315 . S
C301 C300 1.488 . S
C301 C302 1.348 . S
C301 C306 1.413 . S
C302 C301 1.348 . S
C302 C303 1.442 . S
C302 H324 0.930 1_655 S
C303 C302 1.442 . S
C303 C304 1.381 . S
C303 H325 0.931 1_655 S
C304 C303 1.381 . S
C304 C305 1.321 . S
C305 C304 1.321 . S
C305 C306 1.403 . S
C305 H326 0.934 . S
C306 C301 1.413 . S
C306 C305 1.403 . S
C306 H327 0.930 . S
C307 O318 1.275 . S
C307 O319 1.239 1_545 S
O308 Ho288 2.322 . S
O308 C290 1.259 1_455 S
O309 Ho289 2.346 1_565 S
O309 C290 1.268 . S
O310 Ho288 2.378 . S
O310 C291 1.215 . S
O311 Ho288 2.541 . S
O311 C291 1.329 . S
O312 Ho288 2.381 . S
O312 C298 1.275 1_565 S
O313 Ho288 2.669 1_545 S
O313 Ho289 2.305 1_455 S
O313 C298 1.256 . S
O314 Ho289 2.322 . S
O314 C299 1.259 1_655 S
O315 Ho288 2.346 1_545 S
O315 C299 1.268 . S
O316 Ho289 2.378 . S
O316 C300 1.215 . S
O317 Ho289 2.535 . S
O317 C300 1.315 . S
O318 Ho289 2.381 . S
O318 C307 1.275 . S
O319 Ho288 2.317 1_655 S
O319 Ho289 2.643 1_565 S
O319 C307 1.239 1_565 S
H320 C293 0.930 1_655 S
H321 C294 0.931 1_655 S
H322 C296 0.934 . S
H323 C297 0.930 . S
H324 C302 0.930 1_455 S
H325 C303 0.931 1_455 S
H326 C305 0.934 . S
H327 C306 0.930 . S
Ho328 C331 2.811 . S
Ho328 O348 2.322 . S
Ho328 O350 2.378 . S
Ho328 O351 2.524 . S
Ho328 O352 2.381 . S
Ho328 O353 2.669 . S
Ho328 O355 2.346 . S
Ho328 O359 2.305 1_545 S
Ho329 C340 2.811 . S
Ho329 O349 2.346 . S
Ho329 O353 2.305 1_565 S
Ho329 O354 2.322 . S
Ho329 O356 2.378 . S
Ho329 O357 2.524 1_565 S
Ho329 O358 2.381 . S
Ho329 O359 2.669 . S
C330 O348 1.259 1_565 S
C330 O349 1.268 . S
C331 Ho328 2.811 . S
C331 C332 1.488 . S
C331 O350 1.215 . S
C331 O351 1.289 . S
C332 C331 1.488 . S
C332 C333 1.348 . S
C332 C337 1.413 . S
C333 C332 1.348 . S
C333 C334 1.442 . S
C333 H360 0.930 1_545 S
C334 C333 1.442 . S
C334 C335 1.381 . S
C334 H361 0.931 1_545 S
C335 C334 1.381 . S
C335 C336 1.321 . S
C336 C335 1.321 . S
C336 C337 1.403 . S
C336 H362 0.934 . S
C337 C332 1.413 . S
C337 C336 1.403 . S
C337 H363 0.930 . S
C338 O352 1.275 . S
C338 O353 1.256 . S
C339 O354 1.259 1_545 S
C339 O355 1.268 . S
C340 Ho329 2.811 . S
C340 C341 1.488 . S
C340 O356 1.215 . S
C340 O357 1.289 1_565 S
C341 C340 1.488 . S
C341 C342 1.348 1_565 S
C341 C346 1.413 . S
C342 C341 1.348 1_545 S
C342 C343 1.441 1_545 S
C342 H364 0.930 . S
C343 C342 1.441 1_565 S
C343 C344 1.384 . S
C343 H365 0.928 1_565 S
C344 C343 1.384 . S
C344 C345 1.321 . S
C345 C344 1.321 . S
C345 C346 1.403 . S
C345 H366 0.934 . S
C346 C341 1.413 . S
C346 C345 1.403 . S
C346 H367 0.930 . S
C347 O358 1.275 . S
C347 O359 1.256 . S
O348 Ho328 2.322 . S
O348 C330 1.259 1_545 S
O349 Ho329 2.346 . S
O349 C330 1.268 . S
O350 Ho328 2.378 . S
O350 C331 1.215 . S
O351 Ho328 2.524 . S
O351 C331 1.289 . S
O352 Ho328 2.381 . S
O352 C338 1.275 . S
O353 Ho328 2.669 . S
O353 Ho329 2.305 1_545 S
O353 C338 1.256 . S
O354 Ho329 2.322 . S
O354 C339 1.259 1_565 S
O355 Ho328 2.346 . S
O355 C339 1.268 . S
O356 Ho329 2.378 . S
O356 C340 1.215 . S
O357 Ho329 2.524 1_545 S
O357 C340 1.289 1_545 S
O358 Ho329 2.381 . S
O358 C347 1.275 . S
O359 Ho328 2.305 1_565 S
O359 Ho329 2.669 . S
O359 C347 1.256 . S
H360 C333 0.930 1_565 S
H361 C334 0.931 1_565 S
H362 C336 0.934 . S
H363 C337 0.930 . S
H364 C342 0.930 . S
H365 C343 0.928 1_545 S
H366 C345 0.934 . S
H367 C346 0.930 . S
Ho368 C371 2.811 . S
Ho368 O388 2.322 . S
Ho368 O390 2.378 . S
Ho368 O391 2.524 . S
Ho368 O392 2.381 . S
Ho368 O393 2.669 . S
Ho368 O395 2.346 . S
Ho368 O399 2.305 . S
Ho369 C380 2.811 . S
Ho369 O389 2.346 . S
Ho369 O393 2.305 . S
Ho369 O394 2.322 . S
Ho369 O396 2.378 . S
Ho369 O397 2.524 . S
Ho369 O398 2.381 . S
Ho369 O399 2.669 . S
C370 O388 1.259 . S
C370 O389 1.268 . S
C371 Ho368 2.811 . S
C371 C372 1.488 . S
C371 O390 1.215 . S
C371 O391 1.289 . S
C372 C371 1.488 . S
C372 C373 1.348 . S
C372 C377 1.413 . S
C373 C372 1.348 . S
C373 C374 1.442 . S
C373 H400 0.930 . S
C374 C373 1.442 . S
C374 C375 1.381 . S
C374 H401 0.931 . S
C375 C374 1.381 . S
C375 C376 1.321 . S
C376 C375 1.321 . S
C376 C377 1.403 . S
C376 H402 0.934 . S
C377 C372 1.413 . S
C377 C376 1.403 . S
C377 H403 0.930 . S
C378 O392 1.275 . S
C378 O393 1.256 . S
C379 O394 1.259 . S
C379 O395 1.268 . S
C380 Ho369 2.811 . S
C380 C381 1.488 . S
C380 O396 1.215 . S
C380 O397 1.289 . S
C381 C380 1.488 . S
C381 C382 1.348 . S
C381 C386 1.413 . S
C382 C381 1.348 . S
C382 C383 1.442 . S
C382 H404 0.930 . S
C383 C382 1.442 . S
C383 C384 1.381 . S
C383 H405 0.931 . S
C384 C383 1.381 . S
C384 C385 1.321 . S
C385 C384 1.321 . S
C385 C386 1.403 . S
C385 H406 0.934 . S
C386 C381 1.413 . S
C386 C385 1.403 . S
C386 H407 0.930 . S
C387 O398 1.275 . S
C387 O399 1.256 . S
O388 Ho368 2.322 . S
O388 C370 1.259 . S
O389 Ho369 2.346 . S
O389 C370 1.268 . S
O390 Ho368 2.378 . S
O390 C371 1.215 . S
O391 Ho368 2.524 . S
O391 C371 1.289 . S
O392 Ho368 2.381 . S
O392 C378 1.275 . S
O393 Ho368 2.669 . S
O393 Ho369 2.305 . S
O393 C378 1.256 . S
O394 Ho369 2.322 . S
O394 C379 1.259 . S
O395 Ho368 2.346 . S
O395 C379 1.268 . S
O396 Ho369 2.378 . S
O396 C380 1.215 . S
O397 Ho369 2.524 . S
O397 C380 1.289 . S
O398 Ho369 2.381 . S
O398 C387 1.275 . S
O399 Ho368 2.305 . S
O399 Ho369 2.669 . S
O399 C387 1.256 . S
H400 C373 0.930 . S
H401 C374 0.931 . S
H402 C376 0.934 . S
H403 C377 0.930 . S
H404 C382 0.930 . S
H405 C383 0.931 . S
H406 C385 0.934 . S
H407 C386 0.930 . S
Ho408 C411 2.811 . S
Ho408 O428 2.322 . S
Ho408 O430 2.378 . S
Ho408 O431 2.524 . S
Ho408 O432 2.381 . S
Ho408 O433 2.669 1_655 S
Ho408 O435 2.346 1_655 S
Ho408 O439 2.305 . S
Ho409 C420 2.811 . S
Ho409 O429 2.346 1_455 S
Ho409 O433 2.305 . S
Ho409 O434 2.322 . S
Ho409 O436 2.378 . S
Ho409 O437 2.524 . S
Ho409 O438 2.381 . S
Ho409 O439 2.669 1_455 S
C410 O428 1.259 . S
C410 O429 1.268 . S
C411 Ho408 2.811 . S
C411 C412 1.488 . S
C411 O430 1.215 . S
C411 O431 1.289 . S
C412 C411 1.488 . S
C412 C413 1.348 . S
C412 C417 1.413 . S
C413 C412 1.348 . S
C413 C414 1.442 . S
C413 H440 0.930 . S
C414 C413 1.442 . S
C414 C415 1.381 . S
C414 H441 0.931 . S
C415 C414 1.381 . S
C415 C416 1.321 . S
C416 C415 1.321 . S
C416 C417 1.403 . S
C416 H442 0.934 . S
C417 C412 1.413 . S
C417 C416 1.403 . S
C417 H443 0.930 . S
C418 O432 1.275 . S
C418 O433 1.256 1_655 S
C419 O434 1.259 . S
C419 O435 1.268 . S
C420 Ho409 2.811 . S
C420 C421 1.488 . S
C420 O436 1.215 . S
C420 O437 1.289 . S
C421 C420 1.488 . S
C421 C422 1.348 . S
C421 C426 1.413 . S
C422 C421 1.348 . S
C422 C423 1.442 . S
C422 H444 0.930 . S
C423 C422 1.442 . S
C423 C424 1.381 . S
C423 H445 0.931 . S
C424 C423 1.381 . S
C424 C425 1.321 . S
C425 C424 1.321 . S
C425 C426 1.403 . S
C425 H446 0.934 . S
C426 C421 1.413 . S
C426 C425 1.403 . S
C426 H447 0.930 . S
C427 O438 1.275 . S
C427 O439 1.256 1_455 S
O428 Ho408 2.322 . S
O428 C410 1.259 . S
O429 Ho409 2.346 1_655 S
O429 C410 1.268 . S
O430 Ho408 2.378 . S
O430 C411 1.215 . S
O431 Ho408 2.524 . S
O431 C411 1.289 . S
O432 Ho408 2.381 . S
O432 C418 1.275 . S
O433 Ho408 2.669 1_455 S
O433 Ho409 2.305 . S
O433 C418 1.256 1_455 S
O434 Ho409 2.322 . S
O434 C419 1.259 . S
O435 Ho408 2.346 1_455 S
O435 C419 1.268 . S
O436 Ho409 2.378 . S
O436 C420 1.215 . S
O437 Ho409 2.524 . S
O437 C420 1.289 . S
O438 Ho409 2.381 . S
O438 C427 1.275 . S
O439 Ho408 2.305 . S
O439 Ho409 2.669 1_655 S
O439 C427 1.256 1_655 S
H440 C413 0.930 . S
H441 C414 0.931 . S
H442 C416 0.934 . S
H443 C417 0.930 . S
H444 C422 0.930 . S
H445 C423 0.931 . S
H446 C425 0.934 . S
H447 C426 0.930 . S
H448 C456 0.966 . S
H449 C458 0.930 . S
H450 C460 0.930 . S
H451 C463 0.929 . S
H452 C466 0.930 . S
H453 C468 0.968 . S
H454 C468 0.960 1_565 S
H455 C468 0.960 . S
C456 H448 0.966 . S
C456 C457 1.340 1_565 S
C456 C458 1.387 . S
C457 C456 1.340 1_545 S
C457 C463 1.390 . S
C458 H449 0.930 . S
C458 C456 1.387 . S
C458 C459 1.372 1_565 S
C459 C458 1.372 1_545 S
C459 C460 1.400 . S
C459 C464 1.490 . S
C460 H450 0.930 . S
C460 C459 1.400 . S
C460 C463 1.386 . S
H461 C477 0.930 . S
H462 C478 0.931 . S
C463 H451 0.929 . S
C463 C457 1.390 . S
C463 C460 1.386 . S
C464 C459 1.490 . S
C464 C466 1.395 . S
C464 C467 1.403 . S
H465 C471 0.930 . S
C466 H452 0.930 . S
C466 C464 1.395 . S
C466 C469 1.403 . S
C467 C464 1.403 . S
C467 C468 1.524 . S
C467 C471 1.400 . S
C468 H453 0.968 . S
C468 H454 0.960 1_545 S
C468 H455 0.960 . S
C468 C467 1.524 . S
C469 C466 1.403 . S
C469 C470 1.392 . S
C469 C473 1.495 . S
C470 C469 1.392 . S
C470 C471 1.385 . S
C470 C472 1.478 . S
C471 H465 0.930 . S
C471 C467 1.400 . S
C471 C470 1.385 . S
C472 C470 1.478 . S
C472 C474 1.381 1_545 S
C472 C478 1.383 . S
C473 C469 1.495 . S
C473 H479 0.959 . S
C473 H480 0.961 . S
C473 H481 0.960 . S
C474 C472 1.381 1_565 S
C474 C475 1.394 . S
C474 H482 0.930 . S
C475 C474 1.394 . S
C475 C476 1.383 1_565 S
C475 H483 0.929 . S
C476 C475 1.383 1_545 S
C476 C477 1.377 . S
C477 H461 0.930 . S
C477 C476 1.377 . S
C477 C478 1.379 . S
C478 H462 0.931 . S
C478 C472 1.383 . S
C478 C477 1.379 . S
H479 C473 0.959 . S
H480 C473 0.961 . S
H481 C473 0.960 . S
H482 C474 0.930 . S
H483 C475 0.929 . S
H484 C492 0.929 . S
H485 C494 0.930 . S
H486 C496 0.930 . S
H487 C499 0.929 . S
H488 C502 0.930 . S
H489 C504 0.960 . S
H490 C504 0.960 . S
H491 C504 0.960 . S
C492 H484 0.929 . S
C492 C493 1.377 . S
C492 C494 1.384 . S
C493 C492 1.377 . S
C493 C499 1.390 . S
C494 H485 0.930 . S
C494 C492 1.384 . S
C494 C495 1.372 . S
C495 C494 1.372 . S
C495 C496 1.400 . S
C495 C500 1.490 . S
C496 H486 0.930 . S
C496 C495 1.400 . S
C496 C499 1.386 . S
H497 C513 0.930 . S
H498 C514 0.931 . S
C499 H487 0.929 . S
C499 C493 1.390 . S
C499 C496 1.386 . S
C500 C495 1.490 . S
C500 C502 1.395 . S
C500 C503 1.403 . S
H501 C507 0.930 . S
C502 H488 0.930 . S
C502 C500 1.395 . S
C502 C505 1.403 . S
C503 C500 1.403 . S
C503 C504 1.524 . S
C503 C507 1.400 . S
C504 H489 0.960 . S
C504 H490 0.960 . S
C504 H491 0.960 . S
C504 C503 1.524 . S
C505 C502 1.403 . S
C505 C506 1.392 . S
C505 C509 1.495 . S
C506 C505 1.392 . S
C506 C507 1.385 . S
C506 C508 1.478 . S
C507 H501 0.930 . S
C507 C503 1.400 . S
C507 C506 1.385 . S
C508 C506 1.478 . S
C508 C510 1.381 . S
C508 C514 1.383 . S
C509 C505 1.495 . S
C509 H515 0.959 . S
C509 H516 0.961 . S
C509 H517 0.960 . S
C510 C508 1.381 . S
C510 C511 1.394 . S
C510 H518 0.930 . S
C511 C510 1.394 . S
C511 C512 1.383 . S
C511 H519 0.929 . S
C512 C511 1.383 . S
C512 C513 1.377 . S
C513 H497 0.930 . S
C513 C512 1.377 . S
C513 C514 1.379 . S
C514 H498 0.931 . S
C514 C508 1.383 . S
C514 C513 1.379 . S
H515 C509 0.959 . S
H516 C509 0.961 . S
H517 C509 0.960 . S
H518 C510 0.930 . S
H519 C511 0.929 . S
H520 C528 0.929 . S
H521 C530 0.930 . S
H522 C532 0.930 . S
H523 C535 0.929 . S
H524 C538 0.930 . S
H525 C540 0.960 . S
H526 C540 0.960 . S
H527 C540 0.960 . S
C528 H520 0.929 . S
C528 C529 1.377 . S
C528 C530 1.384 . S
C529 C528 1.377 . S
C529 C535 1.390 . S
C530 H521 0.930 . S
C530 C528 1.384 . S
C530 C531 1.372 . S
C531 C530 1.372 . S
C531 C532 1.400 . S
C531 C536 1.490 . S
C532 H522 0.930 . S
C532 C531 1.400 . S
C532 C535 1.386 . S
H533 C549 0.930 . S
H534 C550 0.931 . S
C535 H523 0.929 . S
C535 C529 1.390 . S
C535 C532 1.386 . S
C536 C531 1.490 . S
C536 C538 1.395 . S
C536 C539 1.403 . S
H537 C543 0.930 . S
C538 H524 0.930 . S
C538 C536 1.395 . S
C538 C541 1.403 . S
C539 C536 1.403 . S
C539 C540 1.524 . S
C539 C543 1.400 . S
C540 H525 0.960 . S
C540 H526 0.960 . S
C540 H527 0.960 . S
C540 C539 1.524 . S
C541 C538 1.403 . S
C541 C542 1.392 . S
C541 C545 1.495 . S
C542 C541 1.392 . S
C542 C543 1.385 . S
C542 C544 1.478 . S
C543 H537 0.930 . S
C543 C539 1.400 . S
C543 C542 1.385 . S
C544 C542 1.478 . S
C544 C546 1.381 . S
C544 C550 1.383 . S
C545 C541 1.495 . S
C545 H551 0.959 . S
C545 H552 0.961 . S
C545 H553 0.960 . S
C546 C544 1.381 . S
C546 C547 1.394 . S
C546 H554 0.930 . S
C547 C546 1.394 . S
C547 C548 1.383 . S
C547 H555 0.929 . S
C548 C547 1.383 . S
C548 C549 1.377 . S
C549 H533 0.930 . S
C549 C548 1.377 . S
C549 C550 1.379 . S
C550 H534 0.931 . S
C550 C544 1.383 . S
C550 C549 1.379 . S
H551 C545 0.959 . S
H552 C545 0.961 . S
H553 C545 0.960 . S
H554 C546 0.930 . S
H555 C547 0.929 . S
H556 C564 0.929 . S
H557 C566 0.930 . S
H558 C568 0.930 . S
H559 C571 0.929 . S
H560 C574 0.930 . S
H561 C576 0.960 . S
H562 C576 0.960 . S
H563 C576 0.960 . S
C564 H556 0.929 . S
C564 C565 1.382 . S
C564 C566 1.384 . S
C565 C564 1.382 . S
C565 C571 1.385 1_455 S
C566 H557 0.930 . S
C566 C564 1.384 . S
C566 C567 1.372 . S
C567 C566 1.372 . S
C567 C568 1.400 1_455 S
C567 C572 1.490 . S
C568 H558 0.930 . S
C568 C567 1.400 1_655 S
C568 C571 1.386 . S
H569 C585 0.930 . S
H570 C586 0.931 . S
C571 H559 0.929 . S
C571 C565 1.385 1_655 S
C571 C568 1.386 . S
C572 C567 1.490 . S
C572 C574 1.395 . S
C572 C575 1.403 1_455 S
H573 C579 0.930 . S
C574 H560 0.930 . S
C574 C572 1.395 . S
C574 C577 1.403 . S
C575 C572 1.403 1_655 S
C575 C576 1.524 . S
C575 C579 1.400 . S
C576 H561 0.960 . S
C576 H562 0.960 . S
C576 H563 0.960 . S
C576 C575 1.524 . S
C577 C574 1.403 . S
C577 C578 1.392 . S
C577 C581 1.495 . S
C578 C577 1.392 . S
C578 C579 1.385 1_455 S
C578 C580 1.478 . S
C579 H573 0.930 . S
C579 C575 1.400 . S
C579 C578 1.385 1_655 S
C580 C578 1.478 . S
C580 C582 1.381 . S
C580 C586 1.383 1_455 S
C581 C577 1.495 . S
C581 H587 0.959 . S
C581 H588 0.961 . S
C581 H589 0.960 . S
C582 C580 1.381 . S
C582 C583 1.394 . S
C582 H590 0.930 . S
C583 C582 1.394 . S
C583 C584 1.383 . S
C583 H591 0.929 . S
C584 C583 1.383 . S
C584 C585 1.377 1_455 S
C585 H569 0.930 . S
C585 C584 1.377 1_655 S
C585 C586 1.379 . S
C586 H570 0.931 . S
C586 C580 1.383 1_655 S
C586 C585 1.379 . S
H587 C581 0.959 . S
H588 C581 0.961 . S
H589 C581 0.960 . S
H590 C582 0.930 . S
H591 C583 0.929 . S
H592 C600 0.929 . S
H593 C602 0.930 . S
H594 C604 0.930 . S
H595 C607 0.929 . S
H596 C610 0.930 . S
H597 C612 0.960 1_556 S
H598 C612 0.960 . S
H599 C612 0.960 . S
C600 H592 0.929 . S
C600 C601 1.377 1_545 S
C600 C602 1.384 . S
C601 C600 1.377 1_565 S
C601 C607 1.390 . S
C602 H593 0.930 . S
C602 C600 1.384 . S
C602 C603 1.372 1_545 S
C603 C602 1.372 1_565 S
C603 C604 1.400 . S
C603 C608 1.490 . S
C604 H594 0.930 . S
C604 C603 1.400 . S
C604 C607 1.386 . S
H605 C621 0.930 . S
H606 C622 0.931 . S
C607 H595 0.929 . S
C607 C601 1.390 . S
C607 C604 1.386 . S
C608 C603 1.490 . S
C608 C610 1.395 1_565 S
C608 C611 1.403 . S
H609 C615 0.930 . S
C610 H596 0.930 . S
C610 C608 1.395 1_545 S
C610 C613 1.403 1_554 S
C611 C608 1.403 . S
C611 C612 1.524 . S
C611 C615 1.400 1_554 S
C612 H597 0.960 1_554 S
C612 H598 0.960 . S
C612 H599 0.960 . S
C612 C611 1.524 . S
C613 C610 1.403 1_556 S
C613 C614 1.392 . S
C613 C617 1.495 . S
C614 C613 1.392 . S
C614 C615 1.385 1_545 S
C614 C616 1.478 . S
C615 H609 0.930 . S
C615 C611 1.400 1_556 S
C615 C614 1.385 1_565 S
C616 C614 1.478 . S
C616 C618 1.381 . S
C616 C622 1.383 1_545 S
C617 C613 1.495 . S
C617 H623 0.959 . S
C617 H624 0.961 . S
C617 H625 0.960 . S
C618 C616 1.381 . S
C618 C619 1.394 . S
C618 H626 0.930 . S
C619 C618 1.394 . S
C619 C620 1.383 . S
C619 H627 0.929 . S
C620 C619 1.383 . S
C620 C621 1.377 1_545 S
C621 H605 0.930 . S
C621 C620 1.377 1_565 S
C621 C622 1.379 . S
C622 H606 0.931 . S
C622 C616 1.383 1_565 S
C622 C621 1.379 . S
H623 C617 0.959 . S
H624 C617 0.961 . S
H625 C617 0.960 . S
H626 C618 0.930 . S
H627 C619 0.929 . S
H628 C636 0.929 . S
H629 C638 0.930 . S
H630 C640 0.930 . S
H631 C643 0.929 . S
H632 C646 0.930 . S
H633 C648 0.960 . S
H634 C648 0.960 . S
H635 C648 0.960 . S
C636 H628 0.929 . S
C636 C637 1.377 . S
C636 C638 1.384 . S
C637 C636 1.377 . S
C637 C643 1.390 . S
C638 H629 0.930 . S
C638 C636 1.384 . S
C638 C639 1.372 . S
C639 C638 1.372 . S
C639 C640 1.400 . S
C639 C644 1.490 . S
C640 H630 0.930 . S
C640 C639 1.400 . S
C640 C643 1.386 . S
H641 C657 0.930 . S
H642 C658 0.931 . S
C643 H631 0.929 . S
C643 C637 1.390 . S
C643 C640 1.386 . S
C644 C639 1.490 . S
C644 C646 1.395 1_554 S
C644 C647 1.403 . S
H645 C651 0.930 . S
C646 H632 0.930 . S
C646 C644 1.395 1_556 S
C646 C649 1.403 . S
C647 C644 1.403 . S
C647 C648 1.524 . S
C647 C651 1.400 1_554 S
C648 H633 0.960 . S
C648 H634 0.960 . S
C648 H635 0.960 . S
C648 C647 1.524 . S
C649 C646 1.403 . S
C649 C650 1.392 . S
C649 C653 1.495 . S
C650 C649 1.392 . S
C650 C651 1.385 . S
C650 C652 1.478 . S
C651 H645 0.930 . S
C651 C647 1.400 1_556 S
C651 C650 1.385 . S
C652 C650 1.478 . S
C652 C654 1.381 . S
C652 C658 1.383 . S
C653 C649 1.495 . S
C653 H659 0.959 . S
C653 H660 0.961 . S
C653 H661 0.960 . S
C654 C652 1.381 . S
C654 C655 1.394 . S
C654 H662 0.930 . S
C655 C654 1.394 . S
C655 C656 1.383 . S
C655 H663 0.929 . S
C656 C655 1.383 . S
C656 C657 1.377 . S
C657 H641 0.930 . S
C657 C656 1.377 . S
C657 C658 1.379 . S
C658 H642 0.931 . S
C658 C652 1.383 . S
C658 C657 1.379 . S
H659 C653 0.959 . S
H660 C653 0.961 . S
H661 C653 0.960 . S
H662 C654 0.930 . S
H663 C655 0.929 . S
H664 C672 0.929 . S
H665 C674 0.930 . S
H666 C676 0.930 . S
H667 C679 0.929 . S
H668 C682 0.930 . S
H669 C684 0.960 . S
H670 C684 0.960 . S
H671 C684 0.960 . S
C672 H664 0.929 . S
C672 C673 1.377 . S
C672 C674 1.384 . S
C673 C672 1.377 . S
C673 C679 1.390 . S
C674 H665 0.930 . S
C674 C672 1.384 . S
C674 C675 1.372 . S
C675 C674 1.372 . S
C675 C676 1.400 . S
C675 C680 1.490 . S
C676 H666 0.930 . S
C676 C675 1.400 . S
C676 C679 1.386 . S
H677 C693 0.930 . S
H678 C694 0.931 . S
C679 H667 0.929 . S
C679 C673 1.390 . S
C679 C676 1.386 . S
C680 C675 1.490 . S
C680 C682 1.395 1_554 S
C680 C683 1.403 . S
H681 C687 0.930 . S
C682 H668 0.930 . S
C682 C680 1.395 1_556 S
C682 C685 1.403 . S
C683 C680 1.403 . S
C683 C684 1.524 . S
C683 C687 1.400 1_554 S
C684 H669 0.960 . S
C684 H670 0.960 . S
C684 H671 0.960 . S
C684 C683 1.524 . S
C685 C682 1.403 . S
C685 C686 1.392 . S
C685 C689 1.495 . S
C686 C685 1.392 . S
C686 C687 1.385 . S
C686 C688 1.478 . S
C687 H681 0.930 . S
C687 C683 1.400 1_556 S
C687 C686 1.385 . S
C688 C686 1.478 . S
C688 C690 1.381 . S
C688 C694 1.383 . S
C689 C685 1.495 . S
C689 H695 0.959 . S
C689 H696 0.961 . S
C689 H697 0.960 . S
C690 C688 1.381 . S
C690 C691 1.394 . S
C690 H698 0.930 . S
C691 C690 1.394 . S
C691 C692 1.383 . S
C691 H699 0.929 . S
C692 C691 1.383 . S
C692 C693 1.377 . S
C693 H677 0.930 . S
C693 C692 1.377 . S
C693 C694 1.379 . S
C694 H678 0.931 . S
C694 C688 1.383 . S
C694 C693 1.379 . S
H695 C689 0.959 . S
H696 C689 0.961 . S
H697 C689 0.960 . S
H698 C690 0.930 . S
H699 C691 0.929 . S
H700 C708 0.929 . S
H701 C710 0.930 . S
H702 C712 0.930 . S
H703 C715 0.929 . S
H704 C718 0.930 . S
H705 C720 0.960 . S
H706 C720 0.960 . S
H707 C720 0.960 1_554 S
C708 H700 0.929 . S
C708 C709 1.380 1_455 S
C708 C710 1.384 . S
C709 C708 1.380 1_655 S
C709 C715 1.388 . S
C710 H701 0.930 . S
C710 C708 1.384 . S
C710 C711 1.401 . S
C711 C710 1.401 . S
C711 C712 1.370 1_455 S
C711 C716 1.490 . S
C712 H702 0.930 . S
C712 C711 1.370 1_655 S
C712 C715 1.386 . S
H713 C729 0.930 . S
H714 C730 0.931 . S
C715 H703 0.929 . S
C715 C709 1.388 . S
C715 C712 1.386 . S
C716 C711 1.490 . S
C716 C718 1.436 . S
C716 C719 1.365 1_454 S
H717 C723 0.930 . S
C718 H704 0.930 . S
C718 C716 1.436 . S
C718 C721 1.403 1_554 S
C719 C716 1.365 1_656 S
C719 C720 1.524 . S
C719 C723 1.400 . S
C720 H705 0.960 . S
C720 H706 0.960 . S
C720 H707 0.960 1_556 S
C720 C719 1.524 . S
C721 C718 1.403 1_556 S
C721 C722 1.392 . S
C721 C725 1.495 . S
C722 C721 1.392 . S
C722 C723 1.385 1_455 S
C722 C724 1.478 . S
C723 H717 0.930 . S
C723 C719 1.400 . S
C723 C722 1.385 1_655 S
C724 C722 1.478 . S
C724 C726 1.381 . S
C724 C730 1.383 1_455 S
C725 C721 1.495 . S
C725 H731 0.959 1_556 S
C725 H732 0.961 . S
C725 H733 0.960 . S
C726 C724 1.381 . S
C726 C727 1.394 . S
C726 H734 0.930 . S
C727 C726 1.394 . S
C727 C728 1.382 . S
C727 H735 0.929 . S
C728 C727 1.382 . S
C728 C729 1.378 1_455 S
C729 H713 0.930 . S
C729 C728 1.378 1_655 S
C729 C730 1.379 . S
C730 H714 0.931 . S
C730 C724 1.383 1_655 S
C730 C729 1.379 . S
H731 C725 0.959 1_554 S
H732 C725 0.961 . S
H733 C725 0.960 . S
H734 C726 0.930 . S
H735 C727 0.929 . S
H736 C744 0.929 . S
H737 C746 0.930 . S
H738 C748 0.930 . S
H739 C751 0.929 . S
H740 C754 0.930 . S
H741 C756 0.960 . S
H742 C756 0.960 . S
H743 C756 0.960 . S
C744 H736 0.929 . S
C744 C745 1.377 1_655 S
C744 C746 1.384 . S
C745 C744 1.377 1_455 S
C745 C751 1.390 . S
C746 H737 0.930 . S
C746 C744 1.384 . S
C746 C747 1.372 . S
C747 C746 1.372 . S
C747 C748 1.400 1_655 S
C747 C752 1.490 . S
C748 H738 0.930 . S
C748 C747 1.400 1_455 S
C748 C751 1.386 . S
H749 C765 0.930 . S
H750 C766 0.931 . S
C751 H739 0.929 . S
C751 C745 1.390 . S
C751 C748 1.386 . S
C752 C747 1.490 . S
C752 C754 1.395 . S
C752 C755 1.403 1_655 S
H753 C759 0.930 1_455 S
C754 H740 0.930 . S
C754 C752 1.395 . S
C754 C757 1.403 . S
C755 C752 1.403 1_455 S
C755 C756 1.524 . S
C755 C759 1.400 1_455 S
C756 H741 0.960 . S
C756 H742 0.960 . S
C756 H743 0.960 . S
C756 C755 1.524 . S
C757 C754 1.403 . S
C757 C758 1.392 . S
C757 C761 1.495 . S
C758 C757 1.392 . S
C758 C759 1.385 . S
C758 C760 1.478 . S
C759 H753 0.930 1_655 S
C759 C755 1.400 1_655 S
C759 C758 1.385 . S
C760 C758 1.478 . S
C760 C762 1.381 . S
C760 C766 1.383 . S
C761 C757 1.495 . S
C761 H767 0.959 . S
C761 H768 0.961 . S
C761 H769 0.960 . S
C762 C760 1.381 . S
C762 C763 1.394 . S
C762 H770 0.930 . S
C763 C762 1.394 . S
C763 C764 1.383 . S
C763 H771 0.929 . S
C764 C763 1.383 . S
C764 C765 1.377 . S
C765 H749 0.930 . S
C765 C764 1.377 . S
C765 C766 1.379 . S
C766 H750 0.931 . S
C766 C760 1.383 . S
C766 C765 1.379 . S
H767 C761 0.959 . S
H768 C761 0.961 . S
H769 C761 0.960 . S
H770 C762 0.930 . S
H771 C763 0.929 . S
H772 C780 0.929 . S
H773 C782 0.930 . S
H774 C784 0.930 . S
H775 C787 0.929 . S
H776 C790 0.930 . S
H777 C792 0.960 . S
H778 C792 0.960 . S
H779 C792 0.960 . S
C780 H772 0.929 . S
C780 C781 1.377 . S
C780 C782 1.384 . S
C781 C780 1.377 . S
C781 C787 1.390 1_545 S
C782 H773 0.930 . S
C782 C780 1.384 . S
C782 C783 1.372 . S
C783 C782 1.372 . S
C783 C784 1.400 1_545 S
C783 C788 1.490 . S
C784 H774 0.930 . S
C784 C783 1.400 1_565 S
C784 C787 1.386 . S
H785 C801 0.930 . S
H786 C802 0.931 . S
C787 H775 0.929 . S
C787 C781 1.390 1_565 S
C787 C784 1.386 . S
C788 C783 1.490 . S
C788 C790 1.395 . S
C788 C791 1.403 1_545 S
H789 C795 0.930 . S
C790 H776 0.930 . S
C790 C788 1.395 . S
C790 C793 1.403 . S
C791 C788 1.403 1_565 S
C791 C792 1.524 . S
C791 C795 1.400 . S
C792 H777 0.960 . S
C792 H778 0.960 . S
C792 H779 0.960 . S
C792 C791 1.524 . S
C793 C790 1.403 . S
C793 C794 1.392 1_545 S
C793 C797 1.495 . S
C794 C793 1.392 1_565 S
C794 C795 1.385 . S
C794 C796 1.478 . S
C795 H789 0.930 . S
C795 C791 1.400 . S
C795 C794 1.385 . S
C796 C794 1.478 . S
C796 C798 1.381 1_565 S
C796 C802 1.383 . S
C797 C793 1.495 . S
C797 H803 0.959 . S
C797 H804 0.961 . S
C797 H805 0.960 . S
C798 C796 1.381 1_545 S
C798 C799 1.394 1_545 S
C798 H806 0.930 . S
C799 C798 1.394 1_565 S
C799 C800 1.383 . S
C799 H807 0.929 1_565 S
C800 C799 1.383 . S
C800 C801 1.377 . S
C801 H785 0.930 . S
C801 C800 1.377 . S
C801 C802 1.379 . S
C802 H786 0.931 . S
C802 C796 1.383 . S
C802 C801 1.379 . S
H803 C797 0.959 . S
H804 C797 0.961 . S
H805 C797 0.960 . S
H806 C798 0.930 . S
H807 C799 0.929 1_545 S
H808 C816 0.929 . S
H809 C818 0.930 . S
H810 C820 0.930 . S
H811 C823 0.929 . S
H812 C826 0.930 . S
H813 C828 0.960 . S
H814 C828 0.960 . S
H815 C828 0.960 . S
C816 H808 0.929 . S
C816 C817 1.377 . S
C816 C818 1.384 . S
C817 C816 1.377 . S
C817 C823 1.390 . S
C818 H809 0.930 . S
C818 C816 1.384 . S
C818 C819 1.372 . S
C819 C818 1.372 . S
C819 C820 1.400 . S
C819 C824 1.490 . S
C820 H810 0.930 . S
C820 C819 1.400 . S
C820 C823 1.386 . S
H821 C837 0.930 . S
H822 C838 0.931 . S
C823 H811 0.929 . S
C823 C817 1.390 . S
C823 C820 1.386 . S
C824 C819 1.490 . S
C824 C826 1.395 . S
C824 C827 1.403 . S
H825 C831 0.930 . S
C826 H812 0.930 . S
C826 C824 1.395 . S
C826 C829 1.403 . S
C827 C824 1.403 . S
C827 C828 1.524 . S
C827 C831 1.400 . S
C828 H813 0.960 . S
C828 H814 0.960 . S
C828 H815 0.960 . S
C828 C827 1.524 . S
C829 C826 1.403 . S
C829 C830 1.392 . S
C829 C833 1.495 . S
C830 C829 1.392 . S
C830 C831 1.385 . S
C830 C832 1.478 . S
C831 H825 0.930 . S
C831 C827 1.400 . S
C831 C830 1.385 . S
C832 C830 1.478 . S
C832 C834 1.381 . S
C832 C838 1.383 . S
C833 C829 1.495 . S
C833 H839 0.959 . S
C833 H840 0.961 . S
C833 H841 0.960 . S
C834 C832 1.381 . S
C834 C835 1.394 . S
C834 H842 0.930 . S
C835 C834 1.394 . S
C835 C836 1.383 . S
C835 H843 0.929 . S
C836 C835 1.383 . S
C836 C837 1.377 . S
C837 H821 0.930 . S
C837 C836 1.377 . S
C837 C838 1.379 . S
C838 H822 0.931 . S
C838 C832 1.383 . S
C838 C837 1.379 . S
H839 C833 0.959 . S
H840 C833 0.961 . S
H841 C833 0.960 . S
H842 C834 0.930 . S
H843 C835 0.929 . S
H844 C852 0.929 . S
H845 C854 0.930 . S
H846 C856 0.930 . S
H847 C859 0.929 . S
H848 C862 0.930 . S
H849 C864 0.960 . S
H850 C864 0.960 . S
H851 C864 0.960 . S
C852 H844 0.929 . S
C852 C853 1.377 . S
C852 C854 1.384 . S
C853 C852 1.377 . S
C853 C859 1.390 . S
C854 H845 0.930 . S
C854 C852 1.384 . S
C854 C855 1.372 . S
C855 C854 1.372 . S
C855 C856 1.400 . S
C855 C860 1.490 . S
C856 H846 0.930 . S
C856 C855 1.400 . S
C856 C859 1.386 . S
H857 C873 0.930 . S
H858 C874 0.931 . S
C859 H847 0.929 . S
C859 C853 1.390 . S
C859 C856 1.386 . S
C860 C855 1.490 . S
C860 C862 1.395 . S
C860 C863 1.403 . S
H861 C867 0.930 . S
C862 H848 0.930 . S
C862 C860 1.395 . S
C862 C865 1.403 . S
C863 C860 1.403 . S
C863 C864 1.524 . S
C863 C867 1.400 . S
C864 H849 0.960 . S
C864 H850 0.960 . S
C864 H851 0.960 . S
C864 C863 1.524 . S
C865 C862 1.403 . S
C865 C866 1.392 . S
C865 C869 1.495 . S
C866 C865 1.392 . S
C866 C867 1.385 . S
C866 C868 1.478 . S
C867 H861 0.930 . S
C867 C863 1.400 . S
C867 C866 1.385 . S
C868 C866 1.478 . S
C868 C870 1.381 . S
C868 C874 1.383 . S
C869 C865 1.495 . S
C869 H875 0.959 . S
C869 H876 0.961 . S
C869 H877 0.960 . S
C870 C868 1.381 . S
C870 C871 1.394 . S
C870 H878 0.930 . S
C871 C870 1.394 . S
C871 C872 1.383 . S
C871 H879 0.929 . S
C872 C871 1.383 . S
C872 C873 1.377 . S
C873 H857 0.930 . S
C873 C872 1.377 . S
C873 C874 1.379 . S
C874 H858 0.931 . S
C874 C868 1.383 . S
C874 C873 1.379 . S
H875 C869 0.959 . S
H876 C869 0.961 . S
H877 C869 0.960 . S
H878 C870 0.930 . S
H879 C871 0.929 . S
H880 C888 0.929 . S
H881 C890 0.930 . S
H882 C892 0.930 . S
H883 C895 0.929 . S
H884 C898 0.930 . S
H885 C900 0.960 . S
H886 C900 0.960 1_655 S
H887 C900 0.960 . S
C888 H880 0.929 . S
C888 C889 1.377 . S
C888 C890 1.384 . S
C889 C888 1.377 . S
C889 C895 1.390 1_655 S
C890 H881 0.930 . S
C890 C888 1.384 . S
C890 C891 1.372 1_655 S
C891 C890 1.372 1_455 S
C891 C892 1.400 . S
C891 C896 1.490 . S
C892 H882 0.930 . S
C892 C891 1.400 . S
C892 C895 1.386 . S
H893 C909 0.930 . S
H894 C910 0.931 . S
C895 H883 0.929 . S
C895 C889 1.390 1_455 S
C895 C892 1.386 . S
C896 C891 1.490 . S
C896 C898 1.395 . S
C896 C899 1.403 1_554 S
H897 C903 0.930 . S
C898 H884 0.930 . S
C898 C896 1.395 . S
C898 C901 1.403 . S
C899 C896 1.403 1_556 S
C899 C900 1.524 . S
C899 C903 1.400 . S
C900 H885 0.960 . S
C900 H886 0.960 1_455 S
C900 H887 0.960 . S
C900 C899 1.524 . S
C901 C898 1.403 . S
C901 C902 1.392 1_554 S
C901 C905 1.495 . S
C902 C901 1.392 1_556 S
C902 C903 1.385 . S
C902 C904 1.478 . S
C903 H897 0.930 . S
C903 C899 1.400 . S
C903 C902 1.385 . S
C904 C902 1.478 . S
C904 C906 1.381 . S
C904 C910 1.383 . S
C905 C901 1.495 . S
C905 H911 0.959 . S
C905 H912 0.961 . S
C905 H913 0.960 . S
C906 C904 1.381 . S
C906 C907 1.394 . S
C906 H914 0.930 1_455 S
C907 C906 1.394 . S
C907 C908 1.383 . S
C907 H915 0.929 . S
C908 C907 1.383 . S
C908 C909 1.377 . S
C909 H893 0.930 . S
C909 C908 1.377 . S
C909 C910 1.379 . S
C910 H894 0.931 . S
C910 C904 1.383 . S
C910 C909 1.379 . S
H911 C905 0.959 . S
H912 C905 0.961 . S
H913 C905 0.960 . S
H914 C906 0.930 1_655 S
H915 C907 0.929 . S
H916 C924 0.929 . S
H917 C926 0.930 . S
H918 C928 0.930 . S
H919 C931 0.929 . S
H920 C934 0.930 . S
H921 C936 0.960 . S
H922 C936 0.960 . S
H923 C936 0.960 . S
C924 H916 0.929 . S
C924 C925 1.377 1_545 S
C924 C926 1.384 . S
C925 C924 1.377 1_565 S
C925 C931 1.390 . S
C926 H917 0.930 . S
C926 C924 1.384 . S
C926 C927 1.372 . S
C927 C926 1.372 . S
C927 C928 1.400 1_545 S
C927 C932 1.490 . S
C928 H918 0.930 . S
C928 C927 1.400 1_565 S
C928 C931 1.386 . S
H929 C945 0.930 . S
H930 C946 0.885 1_565 S
C931 H919 0.929 . S
C931 C925 1.390 . S
C931 C928 1.386 . S
C932 C927 1.490 . S
C932 C934 1.395 1_554 S
C932 C935 1.403 1_545 S
H933 C939 0.930 1_565 S
C934 H920 0.930 . S
C934 C932 1.395 1_556 S
C934 C937 1.403 . S
C935 C932 1.403 1_565 S
C935 C936 1.524 . S
C935 C939 1.400 1_564 S
C936 H921 0.960 . S
C936 H922 0.960 . S
C936 H923 0.960 . S
C936 C935 1.524 . S
C937 C934 1.403 . S
C937 C938 1.392 . S
C937 C941 1.495 . S
C938 C937 1.392 . S
C938 C939 1.385 . S
C938 C940 1.478 . S
C939 H933 0.930 1_545 S
C939 C935 1.400 1_546 S
C939 C938 1.385 . S
C940 C938 1.478 . S
C940 C942 1.381 . S
C940 C946 1.383 . S
C941 C937 1.495 . S
C941 H947 0.959 . S
C941 H948 0.961 . S
C941 H949 0.960 . S
C942 C940 1.381 . S
C942 C943 1.394 . S
C942 H950 0.930 . S
C943 C942 1.394 . S
C943 C944 1.383 . S
C943 H951 0.929 . S
C944 C943 1.383 . S
C944 C945 1.377 . S
C945 H929 0.930 . S
C945 C944 1.377 . S
C945 C946 1.379 . S
C946 H930 0.885 1_545 S
C946 C940 1.383 . S
C946 C945 1.379 . S
H947 C941 0.959 . S
H948 C941 0.961 . S
H949 C941 0.960 . S
H950 C942 0.930 . S
H951 C943 0.929 . S
H952 C960 0.929 . S
H953 C962 0.930 . S
H954 C964 0.930 . S
H955 C967 0.929 . S
H956 C970 0.930 . S
H957 C972 0.960 . S
H958 C972 0.960 . S
H959 C972 0.960 . S
C960 H952 0.929 . S
C960 C961 1.377 . S
C960 C962 1.384 . S
C961 C960 1.377 . S
C961 C967 1.390 . S
C962 H953 0.930 . S
C962 C960 1.384 . S
C962 C963 1.372 . S
C963 C962 1.372 . S
C963 C964 1.400 . S
C963 C968 1.490 . S
C964 H954 0.930 . S
C964 C963 1.400 . S
C964 C967 1.386 . S
H965 C981 0.930 . S
H966 C982 0.931 . S
C967 H955 0.929 . S
C967 C961 1.390 . S
C967 C964 1.386 . S
C968 C963 1.490 . S
C968 C970 1.395 . S
C968 C971 1.403 1_554 S
H969 C975 0.930 . S
C970 H956 0.930 . S
C970 C968 1.395 . S
C970 C973 1.403 1_554 S
C971 C968 1.403 1_556 S
C971 C972 1.524 . S
C971 C975 1.400 . S
C972 H957 0.960 . S
C972 H958 0.960 . S
C972 H959 0.960 . S
C972 C971 1.524 . S
C973 C970 1.403 1_556 S
C973 C974 1.392 . S
C973 C977 1.496 . S
C974 C973 1.392 . S
C974 C975 1.385 . S
C974 C976 1.478 . S
C975 H969 0.930 . S
C975 C971 1.400 . S
C975 C974 1.385 . S
C976 C974 1.478 . S
C976 C978 1.381 . S
C976 C982 1.383 . S
C977 C973 1.496 . S
C977 H983 0.955 1_556 S
C977 H984 0.958 1_556 S
C977 H985 0.965 . S
C978 C976 1.381 . S
C978 C979 1.394 . S
C978 H986 0.930 . S
C979 C978 1.394 . S
C979 C980 1.383 . S
C979 H987 0.929 . S
C980 C979 1.383 . S
C980 C981 1.377 . S
C981 H965 0.930 . S
C981 C980 1.377 . S
C981 C982 1.379 . S
C982 H966 0.931 . S
C982 C976 1.383 . S
C982 C981 1.379 . S
H983 C977 0.955 1_554 S
H984 C977 0.958 1_554 S
H985 C977 0.965 . S
H986 C978 0.930 . S
H987 C979 0.929 . S
H988 C996 0.929 . S
H989 C998 0.930 1_556 S
H990 C1000 0.930 . S
H991 C1003 0.929 . S
H992 C1006 0.930 . S
H993 C1008 0.960 . S
H994 C1008 0.960 . S
H995 C1008 0.960 . S
C996 H988 0.929 . S
C996 C997 1.377 . S
C996 C998 1.384 . S
C997 C996 1.377 . S
C997 C1003 1.390 . S
C998 H989 0.930 1_554 S
C998 C996 1.384 . S
C998 C999 1.372 . S
C999 C998 1.372 . S
C999 C1000 1.400 . S
C999 C1004 1.490 . S
C1000 H990 0.930 . S
C1000 C999 1.400 . S
C1000 C1003 1.386 . S
H1001 C1017 0.930 . S
H1002 C1018 0.931 . S
C1003 H991 0.929 . S
C1003 C997 1.390 . S
C1003 C1000 1.386 . S
C1004 C999 1.490 . S
C1004 C1006 1.395 1_554 S
C1004 C1007 1.403 . S
H1005 C1011 0.930 1_554 S
C1006 H992 0.930 . S
C1006 C1004 1.395 1_556 S
C1006 C1009 1.403 . S
C1007 C1004 1.403 . S
C1007 C1008 1.524 . S
C1007 C1011 1.400 1_554 S
C1008 H993 0.960 . S
C1008 H994 0.960 . S
C1008 H995 0.960 . S
C1008 C1007 1.524 . S
C1009 C1006 1.403 . S
C1009 C1010 1.392 . S
C1009 C1013 1.495 . S
C1010 C1009 1.392 . S
C1010 C1011 1.385 . S
C1010 C1012 1.478 . S
C1011 H1005 0.930 1_556 S
C1011 C1007 1.400 1_556 S
C1011 C1010 1.385 . S
C1012 C1010 1.478 . S
C1012 C1014 1.381 . S
C1012 C1018 1.383 . S
C1013 C1009 1.495 . S
C1013 H1019 0.959 . S
C1013 H1020 0.961 . S
C1013 H1021 0.960 . S
C1014 C1012 1.381 . S
C1014 C1015 1.394 . S
C1014 H1022 0.930 . S
C1015 C1014 1.394 . S
C1015 C1016 1.383 . S
C1015 H1023 0.929 . S
C1016 C1015 1.383 . S
C1016 C1017 1.377 . S
C1017 H1001 0.930 . S
C1017 C1016 1.377 . S
C1017 C1018 1.379 . S
C1018 H1002 0.931 . S
C1018 C1012 1.383 . S
C1018 C1017 1.379 . S
H1019 C1013 0.959 . S
H1020 C1013 0.961 . S
H1021 C1013 0.960 . S
H1022 C1014 0.930 . S
H1023 C1015 0.929 . S
H1024 C1032 0.929 . S
H1025 C1034 0.930 . S
H1026 C1036 0.930 . S
H1027 C1039 0.929 . S
H1028 C1042 0.930 . S
H1029 C1044 0.960 . S
H1030 C1044 0.960 1_455 S
H1031 C1044 0.960 . S
C1032 H1024 0.929 . S
C1032 C1033 1.377 . S
C1032 C1034 1.384 . S
C1033 C1032 1.377 . S
C1033 C1039 1.390 1_455 S
C1034 H1025 0.930 . S
C1034 C1032 1.384 . S
C1034 C1035 1.372 . S
C1035 C1034 1.372 . S
C1035 C1036 1.400 1_455 S
C1035 C1040 1.490 . S
C1036 H1026 0.930 . S
C1036 C1035 1.400 1_655 S
C1036 C1039 1.386 . S
H1037 C1053 0.930 . S
H1038 C1054 0.931 . S
C1039 H1027 0.929 . S
C1039 C1033 1.390 1_655 S
C1039 C1036 1.386 . S
C1040 C1035 1.490 . S
C1040 C1042 1.395 . S
C1040 C1043 1.401 1_455 S
H1041 C1047 0.914 1_655 S
C1042 H1028 0.930 . S
C1042 C1040 1.395 . S
C1042 C1045 1.403 . S
C1043 C1040 1.401 1_655 S
C1043 C1044 1.525 . S
C1043 C1047 1.397 1_655 S
C1044 H1029 0.960 . S
C1044 H1030 0.960 1_655 S
C1044 H1031 0.960 . S
C1044 C1043 1.525 . S
C1045 C1042 1.403 . S
C1045 C1046 1.392 . S
C1045 C1049 1.495 . S
C1046 C1045 1.392 . S
C1046 C1047 1.409 . S
C1046 C1048 1.478 . S
C1047 H1041 0.914 1_455 S
C1047 C1043 1.397 1_455 S
C1047 C1046 1.409 . S
C1048 C1046 1.478 . S
C1048 C1050 1.381 . S
C1048 C1054 1.383 1_455 S
C1049 C1045 1.495 . S
C1049 H1055 0.959 . S
C1049 H1056 0.961 . S
C1049 H1057 0.960 . S
C1050 C1048 1.381 . S
C1050 C1051 1.394 . S
C1050 H1058 0.930 . S
C1051 C1050 1.394 . S
C1051 C1052 1.383 . S
C1051 H1059 0.929 . S
C1052 C1051 1.383 . S
C1052 C1053 1.377 1_455 S
C1053 H1037 0.930 . S
C1053 C1052 1.377 1_655 S
C1053 C1054 1.379 . S
C1054 H1038 0.931 . S
C1054 C1048 1.383 1_655 S
C1054 C1053 1.379 . S
H1055 C1049 0.959 . S
H1056 C1049 0.961 . S
H1057 C1049 0.960 . S
H1058 C1050 0.930 . S
H1059 C1051 0.929 . S
H1060 C1068 0.929 . S
H1061 C1070 0.930 . S
H1062 C1072 0.930 1_565 S
H1063 C1075 0.906 1_565 S
H1064 C1078 0.930 . S
H1065 C1080 0.960 . S
H1066 C1080 0.960 . S
H1067 C1080 0.960 . S
C1068 H1060 0.929 . S
C1068 C1069 1.377 . S
C1068 C1070 1.384 . S
C1069 C1068 1.377 . S
C1069 C1075 1.413 . S
C1070 H1061 0.930 . S
C1070 C1068 1.384 . S
C1070 C1071 1.372 . S
C1071 C1070 1.372 . S
C1071 C1072 1.400 . S
C1071 C1076 1.490 . S
C1072 H1062 0.930 1_545 S
C1072 C1071 1.400 . S
C1072 C1075 1.387 . S
H1073 C1089 0.927 . S
H1074 C1090 0.941 . S
C1075 H1063 0.906 1_545 S
C1075 C1069 1.413 . S
C1075 C1072 1.387 . S
C1076 C1071 1.490 . S
C1076 C1078 1.395 . S
C1076 C1079 1.403 . S
H1077 C1083 0.930 . S
C1078 H1064 0.930 . S
C1078 C1076 1.395 . S
C1078 C1081 1.403 . S
C1079 C1076 1.403 . S
C1079 C1080 1.524 . S
C1079 C1083 1.400 . S
C1080 H1065 0.960 . S
C1080 H1066 0.960 . S
C1080 H1067 0.960 . S
C1080 C1079 1.524 . S
C1081 C1078 1.403 . S
C1081 C1082 1.392 . S
C1081 C1085 1.495 . S
C1082 C1081 1.392 . S
C1082 C1083 1.385 . S
C1082 C1084 1.478 . S
C1083 H1077 0.930 . S
C1083 C1079 1.400 . S
C1083 C1082 1.385 . S
C1084 C1082 1.478 . S
C1084 C1086 1.381 . S
C1084 C1090 1.373 1_545 S
C1085 C1081 1.495 . S
C1085 H1091 0.959 . S
C1085 H1092 0.924 1_545 S
C1085 H1093 0.960 . S
C1086 C1084 1.381 . S
C1086 C1087 1.394 . S
C1086 H1094 0.930 . S
C1087 C1086 1.394 . S
C1087 C1088 1.383 . S
C1087 H1095 0.929 . S
C1088 C1087 1.383 . S
C1088 C1089 1.379 1_545 S
C1089 H1073 0.927 . S
C1089 C1088 1.379 1_565 S
C1089 C1090 1.379 . S
C1090 H1074 0.941 . S
C1090 C1084 1.373 1_565 S
C1090 C1089 1.379 . S
H1091 C1085 0.959 . S
H1092 C1085 0.924 1_565 S
H1093 C1085 0.960 . S
H1094 C1086 0.930 . S
H1095 C1087 0.929 . S
H1096 C1104 0.929 . S
H1097 C1106 0.930 . S
H1098 C1108 0.930 . S
H1099 C1111 0.929 . S
H1100 C1114 0.930 . S
H1101 C1116 0.960 . S
H1102 C1116 0.960 . S
H1103 C1116 0.960 . S
C1104 H1096 0.929 . S
C1104 C1105 1.377 . S
C1104 C1106 1.384 . S
C1105 C1104 1.377 . S
C1105 C1111 1.390 . S
C1106 H1097 0.930 . S
C1106 C1104 1.384 . S
C1106 C1107 1.372 . S
C1107 C1106 1.372 . S
C1107 C1108 1.400 . S
C1107 C1112 1.490 . S
C1108 H1098 0.930 . S
C1108 C1107 1.400 . S
C1108 C1111 1.386 . S
H1109 C1125 0.930 . S
H1110 C1126 0.931 . S
C1111 H1099 0.929 . S
C1111 C1105 1.390 . S
C1111 C1108 1.386 . S
C1112 C1107 1.490 . S
C1112 C1114 1.395 . S
C1112 C1115 1.403 . S
H1113 C1119 0.930 . S
C1114 H1100 0.930 . S
C1114 C1112 1.395 . S
C1114 C1117 1.403 . S
C1115 C1112 1.403 . S
C1115 C1116 1.524 . S
C1115 C1119 1.400 . S
C1116 H1101 0.960 . S
C1116 H1102 0.960 . S
C1116 H1103 0.960 . S
C1116 C1115 1.524 . S
C1117 C1114 1.403 . S
C1117 C1118 1.392 . S
C1117 C1121 1.495 . S
C1118 C1117 1.392 . S
C1118 C1119 1.385 . S
C1118 C1120 1.478 . S
C1119 H1113 0.930 . S
C1119 C1115 1.400 . S
C1119 C1118 1.385 . S
C1120 C1118 1.478 . S
C1120 C1122 1.381 . S
C1120 C1126 1.383 . S
C1121 C1117 1.495 . S
C1121 H1127 0.959 . S
C1121 H1128 0.961 . S
C1121 H1129 0.960 . S
C1122 C1120 1.381 . S
C1122 C1123 1.394 . S
C1122 H1130 0.930 . S
C1123 C1122 1.394 . S
C1123 C1124 1.383 . S
C1123 H1131 0.929 . S
C1124 C1123 1.383 . S
C1124 C1125 1.377 . S
C1125 H1109 0.930 . S
C1125 C1124 1.377 . S
C1125 C1126 1.379 . S
C1126 H1110 0.931 . S
C1126 C1120 1.383 . S
C1126 C1125 1.379 . S
H1127 C1121 0.959 . S
H1128 C1121 0.961 . S
H1129 C1121 0.960 . S
H1130 C1122 0.930 . S
H1131 C1123 0.929 . S
H1132 C1140 0.929 . S
H1133 C1142 0.930 . S
H1134 C1144 0.930 . S
H1135 C1147 0.929 . S
H1136 C1150 0.930 . S
H1137 C1152 0.960 . S
H1138 C1152 0.960 . S
H1139 C1152 0.960 . S
C1140 H1132 0.929 . S
C1140 C1141 1.377 . S
C1140 C1142 1.384 . S
C1141 C1140 1.377 . S
C1141 C1147 1.390 . S
C1142 H1133 0.930 . S
C1142 C1140 1.384 . S
C1142 C1143 1.372 . S
C1143 C1142 1.372 . S
C1143 C1144 1.400 . S
C1143 C1148 1.490 . S
C1144 H1134 0.930 . S
C1144 C1143 1.400 . S
C1144 C1147 1.386 . S
H1145 C1161 0.930 . S
H1146 C1162 0.931 . S
C1147 H1135 0.929 . S
C1147 C1141 1.390 . S
C1147 C1144 1.386 . S
C1148 C1143 1.490 . S
C1148 C1150 1.395 . S
C1148 C1151 1.403 . S
H1149 C1155 0.930 . S
C1150 H1136 0.930 . S
C1150 C1148 1.395 . S
C1150 C1153 1.403 . S
C1151 C1148 1.403 . S
C1151 C1152 1.524 . S
C1151 C1155 1.400 . S
C1152 H1137 0.960 . S
C1152 H1138 0.960 . S
C1152 H1139 0.960 . S
C1152 C1151 1.524 . S
C1153 C1150 1.403 . S
C1153 C1154 1.392 . S
C1153 C1157 1.495 . S
C1154 C1153 1.392 . S
C1154 C1155 1.385 . S
C1154 C1156 1.478 . S
C1155 H1149 0.930 . S
C1155 C1151 1.400 . S
C1155 C1154 1.385 . S
C1156 C1154 1.478 . S
C1156 C1158 1.381 . S
C1156 C1162 1.383 . S
C1157 C1153 1.495 . S
C1157 H1163 0.959 . S
C1157 H1164 0.961 . S
C1157 H1165 0.960 . S
C1158 C1156 1.381 . S
C1158 C1159 1.394 . S
C1158 H1166 0.930 . S
C1159 C1158 1.394 . S
C1159 C1160 1.383 . S
C1159 H1167 0.929 . S
C1160 C1159 1.383 . S
C1160 C1161 1.377 . S
C1161 H1145 0.930 . S
C1161 C1160 1.377 . S
C1161 C1162 1.379 . S
C1162 H1146 0.931 . S
C1162 C1156 1.383 . S
C1162 C1161 1.379 . S
H1163 C1157 0.959 . S
H1164 C1157 0.961 . S
H1165 C1157 0.960 . S
H1166 C1158 0.930 . S
H1167 C1159 0.929 . S
H1168 C1176 0.929 . S
H1169 C1178 0.930 . S
H1170 C1180 0.930 . S
H1171 C1183 0.929 . S
H1172 C1186 0.930 . S
H1173 C1188 0.960 . S
H1174 C1188 0.960 . S
H1175 C1188 0.960 1_655 S
C1176 H1168 0.929 . S
C1176 C1177 1.377 1_455 S
C1176 C1178 1.384 . S
C1177 C1176 1.377 1_655 S
C1177 C1183 1.390 . S
C1178 H1169 0.930 . S
C1178 C1176 1.384 . S
C1178 C1179 1.372 1_455 S
C1179 C1178 1.372 1_655 S
C1179 C1180 1.400 . S
C1179 C1184 1.490 . S
C1180 H1170 0.930 . S
C1180 C1179 1.400 . S
C1180 C1183 1.386 . S
H1181 C1197 0.930 . S
H1182 C1198 0.931 . S
C1183 H1171 0.929 . S
C1183 C1177 1.390 . S
C1183 C1180 1.386 . S
C1184 C1179 1.490 . S
C1184 C1186 1.395 . S
C1184 C1187 1.406 . S
H1185 C1191 0.934 . S
C1186 H1172 0.930 . S
C1186 C1184 1.395 . S
C1186 C1189 1.403 . S
C1187 C1184 1.406 . S
C1187 C1188 1.519 1_655 S
C1187 C1191 1.402 . S
C1188 H1173 0.960 . S
C1188 H1174 0.960 . S
C1188 H1175 0.960 1_455 S
C1188 C1187 1.519 1_455 S
C1189 C1186 1.403 . S
C1189 C1190 1.392 . S
C1189 C1193 1.495 . S
C1190 C1189 1.392 . S
C1190 C1191 1.385 . S
C1190 C1192 1.478 . S
C1191 H1185 0.934 . S
C1191 C1187 1.402 . S
C1191 C1190 1.385 . S
C1192 C1190 1.478 . S
C1192 C1194 1.381 1_655 S
C1192 C1198 1.383 . S
C1193 C1189 1.495 . S
C1193 H1199 0.959 . S
C1193 H1200 0.961 . S
C1193 H1201 0.960 . S
C1194 C1192 1.381 1_455 S
C1194 C1195 1.394 . S
C1194 H1202 0.930 . S
C1195 C1194 1.394 . S
C1195 C1196 1.383 1_455 S
C1195 H1203 0.929 . S
C1196 C1195 1.383 1_655 S
C1196 C1197 1.377 . S
C1197 H1181 0.930 . S
C1197 C1196 1.377 . S
C1197 C1198 1.379 . S
C1198 H1182 0.931 . S
C1198 C1192 1.383 . S
C1198 C1197 1.379 . S
H1199 C1193 0.959 . S
H1200 C1193 0.961 . S
H1201 C1193 0.960 . S
H1202 C1194 0.930 . S
H1203 C1195 0.929 . S
H1204 C1212 0.929 . S
H1205 C1214 0.930 . S
H1206 C1216 0.930 . S
H1207 C1219 0.929 . S
H1208 C1222 0.930 . S
H1209 C1224 0.960 . S
H1210 C1224 0.960 . S
H1211 C1224 0.960 . S
C1212 H1204 0.929 . S
C1212 C1213 1.377 . S
C1212 C1214 1.384 . S
C1213 C1212 1.377 . S
C1213 C1219 1.390 1_565 S
C1214 H1205 0.930 . S
C1214 C1212 1.384 . S
C1214 C1215 1.372 . S
C1215 C1214 1.372 . S
C1215 C1216 1.400 1_565 S
C1215 C1220 1.490 . S
C1216 H1206 0.930 . S
C1216 C1215 1.400 1_545 S
C1216 C1219 1.386 . S
H1217 C1233 0.930 . S
H1218 C1234 0.931 . S
C1219 H1207 0.929 . S
C1219 C1213 1.390 1_545 S
C1219 C1216 1.386 . S
C1220 C1215 1.490 . S
C1220 C1222 1.395 . S
C1220 C1223 1.403 1_565 S
H1221 C1227 0.939 . S
C1222 H1208 0.930 . S
C1222 C1220 1.395 . S
C1222 C1225 1.403 . S
C1223 C1220 1.403 1_545 S
C1223 C1224 1.524 . S
C1223 C1227 1.401 . S
C1224 H1209 0.960 . S
C1224 H1210 0.960 . S
C1224 H1211 0.960 . S
C1224 C1223 1.524 . S
C1225 C1222 1.403 . S
C1225 C1226 1.392 . S
C1225 C1229 1.495 . S
C1226 C1225 1.392 . S
C1226 C1227 1.376 1_565 S
C1226 C1228 1.478 . S
C1227 H1221 0.939 . S
C1227 C1223 1.401 . S
C1227 C1226 1.376 1_545 S
C1228 C1226 1.478 . S
C1228 C1230 1.381 . S
C1228 C1234 1.383 1_565 S
C1229 C1225 1.495 . S
C1229 H1235 0.959 . S
C1229 H1236 0.961 . S
C1229 H1237 0.960 . S
C1230 C1228 1.381 . S
C1230 C1231 1.394 . S
C1230 H1238 0.930 . S
C1231 C1230 1.394 . S
C1231 C1232 1.383 . S
C1231 H1239 0.929 . S
C1232 C1231 1.383 . S
C1232 C1233 1.377 1_565 S
C1233 H1217 0.930 . S
C1233 C1232 1.377 1_545 S
C1233 C1234 1.379 . S
C1234 H1218 0.931 . S
C1234 C1228 1.383 1_545 S
C1234 C1233 1.379 . S
H1235 C1229 0.959 . S
H1236 C1229 0.961 . S
H1237 C1229 0.960 . S
H1238 C1230 0.930 . S
H1239 C1231 0.929 . S
H1240 C1248 0.929 . S
H1241 C1250 0.930 . S
H1242 C1252 0.930 . S
H1243 C1255 0.929 . S
H1244 C1258 0.930 . S
H1245 C1260 0.960 . S
H1246 C1260 0.960 . S
H1247 C1260 0.960 . S
C1248 H1240 0.929 . S
C1248 C1249 1.377 . S
C1248 C1250 1.384 . S
C1249 C1248 1.377 . S
C1249 C1255 1.390 . S
C1250 H1241 0.930 . S
C1250 C1248 1.384 . S
C1250 C1251 1.372 . S
C1251 C1250 1.372 . S
C1251 C1252 1.400 . S
C1251 C1256 1.490 . S
C1252 H1242 0.930 . S
C1252 C1251 1.400 . S
C1252 C1255 1.386 . S
H1253 C1269 0.930 . S
H1254 C1270 0.931 . S
C1255 H1243 0.929 . S
C1255 C1249 1.390 . S
C1255 C1252 1.386 . S
C1256 C1251 1.490 . S
C1256 C1258 1.395 . S
C1256 C1259 1.403 . S
H1257 C1263 0.930 . S
C1258 H1244 0.930 . S
C1258 C1256 1.395 . S
C1258 C1261 1.403 . S
C1259 C1256 1.403 . S
C1259 C1260 1.524 . S
C1259 C1263 1.400 . S
C1260 H1245 0.960 . S
C1260 H1246 0.960 . S
C1260 H1247 0.960 . S
C1260 C1259 1.524 . S
C1261 C1258 1.403 . S
C1261 C1262 1.392 . S
C1261 C1265 1.495 . S
C1262 C1261 1.392 . S
C1262 C1263 1.385 . S
C1262 C1264 1.478 . S
C1263 H1257 0.930 . S
C1263 C1259 1.400 . S
C1263 C1262 1.385 . S
C1264 C1262 1.478 . S
C1264 C1266 1.381 . S
C1264 C1270 1.383 . S
C1265 C1261 1.495 . S
C1265 H1271 0.959 . S
C1265 H1272 0.961 . S
C1265 H1273 0.960 . S
C1266 C1264 1.381 . S
C1266 C1267 1.394 . S
C1266 H1274 0.930 . S
C1267 C1266 1.394 . S
C1267 C1268 1.383 . S
C1267 H1275 0.929 . S
C1268 C1267 1.383 . S
C1268 C1269 1.377 . S
C1269 H1253 0.930 . S
C1269 C1268 1.377 . S
C1269 C1270 1.379 . S
C1270 H1254 0.931 . S
C1270 C1264 1.383 . S
C1270 C1269 1.379 . S
H1271 C1265 0.959 . S
H1272 C1265 0.961 . S
H1273 C1265 0.960 . S
H1274 C1266 0.930 . S
H1275 C1267 0.929 . S
H1276 C1284 0.929 . S
H1277 C1286 0.930 . S
H1278 C1288 0.930 . S
H1279 C1291 0.929 . S
H1280 C1294 0.930 . S
H1281 C1296 0.960 . S
H1282 C1296 0.960 . S
H1283 C1296 0.960 . S
C1284 H1276 0.929 . S
C1284 C1285 1.377 . S
C1284 C1286 1.384 . S
C1285 C1284 1.377 . S
C1285 C1291 1.390 . S
C1286 H1277 0.930 . S
C1286 C1284 1.384 . S
C1286 C1287 1.372 . S
C1287 C1286 1.372 . S
C1287 C1288 1.400 . S
C1287 C1292 1.490 . S
C1288 H1278 0.930 . S
C1288 C1287 1.400 . S
C1288 C1291 1.386 . S
H1289 C1305 0.930 . S
H1290 C1306 0.931 . S
C1291 H1279 0.929 . S
C1291 C1285 1.390 . S
C1291 C1288 1.386 . S
C1292 C1287 1.490 . S
C1292 C1294 1.395 . S
C1292 C1295 1.403 . S
H1293 C1299 0.930 . S
C1294 H1280 0.930 . S
C1294 C1292 1.395 . S
C1294 C1297 1.403 . S
C1295 C1292 1.403 . S
C1295 C1296 1.524 . S
C1295 C1299 1.400 . S
C1296 H1281 0.960 . S
C1296 H1282 0.960 . S
C1296 H1283 0.960 . S
C1296 C1295 1.524 . S
C1297 C1294 1.403 . S
C1297 C1298 1.392 . S
C1297 C1301 1.495 . S
C1298 C1297 1.392 . S
C1298 C1299 1.385 . S
C1298 C1300 1.478 . S
C1299 H1293 0.930 . S
C1299 C1295 1.400 . S
C1299 C1298 1.385 . S
C1300 C1298 1.478 . S
C1300 C1302 1.381 . S
C1300 C1306 1.383 . S
C1301 C1297 1.495 . S
C1301 H1307 0.959 . S
C1301 H1308 0.961 . S
C1301 H1309 0.960 . S
C1302 C1300 1.381 . S
C1302 C1303 1.394 . S
C1302 H1310 0.930 . S
C1303 C1302 1.394 . S
C1303 C1304 1.383 . S
C1303 H1311 0.929 . S
C1304 C1303 1.383 . S
C1304 C1305 1.377 . S
C1305 H1289 0.930 . S
C1305 C1304 1.377 . S
C1305 C1306 1.379 . S
C1306 H1290 0.931 . S
C1306 C1300 1.383 . S
C1306 C1305 1.379 . S
H1307 C1301 0.959 . S
H1308 C1301 0.961 . S
H1309 C1301 0.960 . S
H1310 C1302 0.930 . S
H1311 C1303 0.929 . S
C457 C241 1.860 . S
C476 C298 1.997 . S
C512 C338 2.016 . S
C493 C277 1.906 . S
C548 C378 2.001 . S
C529 C169 1.861 . S
C584 C418 2.010 1_455 S
C565 C205 1.855 . S
C620 C307 1.991 . S
C601 C97 1.852 . S
C637 C133 1.909 . S
C656 C347 2.006 . S
C673 C25 1.859 . S
C692 C387 2.004 . S
C709 C61 1.856 1_655 S
C728 C427 1.999 . S
C764 C304 0.351 . S
C745 C211 0.291 . S
C800 C344 0.228 . S
C781 C247 0.262 . S
C836 C384 0.177 . S
C817 C253 0.257 . S
C853 C175 0.271 . S
C872 C424 0.286 . S
C889 C67 0.371 1_655 S
C908 C295 0.281 . S
C944 C335 0.355 . S
C925 C103 0.351 . S
C980 C375 0.189 . S
C961 C109 0.218 . S
C997 C31 0.354 . S
C1016 C415 0.264 . S
C1033 C181 2.542 . S
C1052 C299 2.818 . S
C1069 C217 2.526 . S
C1088 C339 2.797 . S
C1124 C379 2.817 . S
C1105 C283 2.475 . S
C1160 C419 2.812 . S
C1141 C145 2.528 . S
C1177 C37 2.542 1_655 S
C1196 C290 2.820 . S
C1232 C330 2.802 . S
C1213 C73 2.521 . S
C1268 C370 2.810 . S
C1249 C139 2.464 . S
C1285 C1 2.539 . S
C1304 C410 2.808 . S
