# Generated by pormake.
# Topology zzz, (3,6)-cn, num edge types: 1
# Building blocks:
#     Node 0, Type 0, BuildingBlock: VETTIZ_charged_linker_0, # of connection points: 3
#     Node 1, Type 0, BuildingBlock: VETTIZ_charged_linker_0, # of connection points: 3
#     Node 2, Type 0, BuildingBlock: VETTIZ_charged_linker_0, # of connection points: 3
#     Node 3, Type 0, BuildingBlock: VETTIZ_charged_linker_0, # of connection points: 3
#     Node 4, Type 0, BuildingBlock: VETTIZ_charged_linker_0, # of connection points: 3
#     Node 5, Type 0, BuildingBlock: VETTIZ_charged_linker_0, # of connection points: 3
#     Node 6, Type 0, BuildingBlock: VETTIZ_charged_linker_0, # of connection points: 3
#     Node 7, Type 0, BuildingBlock: VETTIZ_charged_linker_0, # of connection points: 3
#     Node 8, Type 1, BuildingBlock: VOLQOD_clean_sbu_1, # of connection points: 6
#     Node 9, Type 1, BuildingBlock: VOLQOD_clean_sbu_1, # of connection points: 6
#     Node 10, Type 1, BuildingBlock: VOLQOD_clean_sbu_1, # of connection points: 6
#     Node 11, Type 1, BuildingBlock: VOLQOD_clean_sbu_1, # of connection points: 6
#     Edge 12, Type (0, 1), BuildingBlock: XUDNAN_clean_linker_2, # of connection points: 2
#     Edge 13, Type (0, 1), BuildingBlock: XUDNAN_clean_linker_2, # of connection points: 2
#     Edge 14, Type (0, 1), BuildingBlock: XUDNAN_clean_linker_2, # of connection points: 2
#     Edge 15, Type (0, 1), BuildingBlock: XUDNAN_clean_linker_2, # of connection points: 2
#     Edge 16, Type (0, 1), BuildingBlock: XUDNAN_clean_linker_2, # of connection points: 2
#     Edge 17, Type (0, 1), BuildingBlock: XUDNAN_clean_linker_2, # of connection points: 2
#     Edge 18, Type (0, 1), BuildingBlock: XUDNAN_clean_linker_2, # of connection points: 2
#     Edge 19, Type (0, 1), BuildingBlock: XUDNAN_clean_linker_2, # of connection points: 2
#     Edge 20, Type (0, 1), BuildingBlock: XUDNAN_clean_linker_2, # of connection points: 2
#     Edge 21, Type (0, 1), BuildingBlock: XUDNAN_clean_linker_2, # of connection points: 2
#     Edge 22, Type (0, 1), BuildingBlock: XUDNAN_clean_linker_2, # of connection points: 2
#     Edge 23, Type (0, 1), BuildingBlock: XUDNAN_clean_linker_2, # of connection points: 2
#     Edge 24, Type (0, 1), BuildingBlock: XUDNAN_clean_linker_2, # of connection points: 2
#     Edge 25, Type (0, 1), BuildingBlock: XUDNAN_clean_linker_2, # of connection points: 2
#     Edge 26, Type (0, 1), BuildingBlock: XUDNAN_clean_linker_2, # of connection points: 2
#     Edge 27, Type (0, 1), BuildingBlock: XUDNAN_clean_linker_2, # of connection points: 2
#     Edge 28, Type (0, 1), BuildingBlock: XUDNAN_clean_linker_2, # of connection points: 2
#     Edge 29, Type (0, 1), BuildingBlock: XUDNAN_clean_linker_2, # of connection points: 2
#     Edge 30, Type (0, 1), BuildingBlock: XUDNAN_clean_linker_2, # of connection points: 2
#     Edge 31, Type (0, 1), BuildingBlock: XUDNAN_clean_linker_2, # of connection points: 2
#     Edge 32, Type (0, 1), BuildingBlock: XUDNAN_clean_linker_2, # of connection points: 2
#     Edge 33, Type (0, 1), BuildingBlock: XUDNAN_clean_linker_2, # of connection points: 2
#     Edge 34, Type (0, 1), BuildingBlock: XUDNAN_clean_linker_2, # of connection points: 2
#     Edge 35, Type (0, 1), BuildingBlock: XUDNAN_clean_linker_2, # of connection points: 2
# Relax obj value: 0.368
# Max RMSD: 0.260
# Mean RMSD: 0.211
data_MOF--net-zzz--node1-VOLQOD_clean_sbu_1--node2-VETTIZ_charged_linker_0--edge1-XUDNAN_clean_linker_2
_symmetry_space_group_name_H-M    P1
_symmetry_Int_Tables_number       1
_symmetry_cell_setting            triclinic
loop_
_symmetry_equiv_pos_as_xyz
'x, y, z'
_cell_length_a     57.189449
_cell_length_b     56.4636
_cell_length_c     22.660569
_cell_angle_alpha  90.154923
_cell_angle_beta   90.205575
_cell_angle_gamma 92.334702
loop_
_atom_site_label
_atom_site_type_symbol
_atom_site_fract_x
_atom_site_fract_y
_atom_site_fract_z
_atom_type_partial_charge
C0 C 0.82336 0.51353 0.30465 0.0
C1 C 0.84454 0.50565 0.32861 0.0
C2 C 0.85603 0.48735 0.29998 0.0
C3 C 0.8262 0.48512 0.22432 0.0
C4 C 0.81429 0.50265 0.2526 0.0
C5 C 0.79164 0.50753 0.22054 0.0
H6 H 0.71734 0.47708 0.99289 0.0
C7 C 0.81309 0.47774 0.17089 0.0
C8 C 0.79247 0.49036 0.16824 0.0
H9 H 0.70791 0.53161 0.12461 0.0
H10 H 0.74496 0.52268 0.16885 0.0
H11 H 0.76729 0.49539 0.96461 0.0
H12 H 0.7422 0.43736 0.07278 0.0
H13 H 0.76447 0.42758 0.02571 0.0
H14 H 0.73832 0.43891 0.99416 0.0
H15 H 0.75981 0.46688 0.9334 0.0
H16 H 0.78888 0.47428 0.96104 0.0
C17 C 0.79268 0.53365 0.20032 0.0
C18 C 0.77106 0.50126 0.26236 0.0
C19 C 0.85234 0.42401 0.02657 0.0
C20 C 0.84691 0.41649 0.96885 0.0
C21 C 0.82436 0.4204 0.94625 0.0
C22 C 0.80804 0.43269 0.97969 0.0
C23 C 0.81448 0.44147 0.03593 0.0
C24 C 0.83615 0.43657 0.05869 0.0
C25 C 0.84079 0.44814 0.11737 0.0
C26 C 0.8187 0.46173 0.12528 0.0
C27 C 0.80323 0.45762 0.07801 0.0
C28 C 0.86287 0.46495 0.11126 0.0
C29 C 0.84284 0.42822 0.16407 0.0
C30 C 0.72303 0.48749 0.03076 0.0
C31 C 0.70903 0.50505 0.05486 0.0
C32 C 0.71768 0.51756 0.10526 0.0
C33 C 0.73942 0.5125 0.1309 0.0
C34 C 0.75305 0.49499 0.10568 0.0
C35 C 0.74486 0.48317 0.05574 0.0
C36 C 0.76235 0.46674 0.03092 0.0
C37 C 0.78186 0.4695 0.07603 0.0
C38 C 0.77646 0.48599 0.12037 0.0
C39 C 0.76997 0.47606 0.96919 0.0
C40 C 0.75134 0.44125 0.03042 0.0
H41 H 0.857 0.4635 0.229 0.0
H42 H 0.81409 0.52749 0.32611 0.0
H43 H 0.77369 0.48397 0.28432 0.0
H44 H 0.75413 0.49927 0.23915 0.0
H45 H 0.76966 0.51496 0.29733 0.0
H46 H 0.81025 0.53858 0.18208 0.0
H47 H 0.78939 0.54574 0.23787 0.0
H48 H 0.78012 0.53708 0.16462 0.0
H49 H 0.86961 0.42188 0.0451 0.0
H50 H 0.81963 0.41465 0.902 0.0
H51 H 0.79132 0.43549 0.95982 0.0
H52 H 0.86355 0.47331 0.06685 0.0
H53 H 0.87916 0.45514 0.11707 0.0
H54 H 0.86323 0.48003 0.14231 0.0
H55 H 0.83331 0.41156 0.15004 0.0
H56 H 0.83474 0.4328 0.20672 0.0
H57 H 0.86138 0.42391 0.17173 0.0
H58 H 0.8724 0.48115 0.31718 0.0
C59 C 0.84703 0.47709 0.24845 0.0
C60 C 0.06679 0.8245 0.01004 0.0
C61 C 0.05807 0.84717 1.00025 0.0
C62 C 0.03459 0.8513 0.01515 0.0
C63 C 0.03073 0.8128 0.0595 0.0
C64 C 0.05244 0.80732 0.03843 0.0
C65 C 0.05693 0.78152 0.0483 0.0
H66 H 0.00828 0.67526 0.13755 0.0
C67 C 0.02054 0.79234 0.09066 0.0
C68 C 0.03341 0.77289 0.07468 0.0
H69 H 0.02894 0.6925 0.95827 0.0
H70 H 0.03348 0.73373 0.98555 0.0
H71 H 0.05018 0.72051 0.20723 0.0
H72 H 0.97615 0.72284 0.16099 0.0
H73 H 0.98394 0.72804 0.23684 0.0
H74 H 0.98623 0.69906 0.20616 0.0
H75 H 0.02971 0.69818 0.23477 0.0
H76 H 0.0308 0.72745 0.26538 0.0
C77 C 0.07685 0.77924 0.09369 0.0
C78 C 0.06335 0.76969 0.98971 0.0
C79 C 0.98546 0.81446 0.28504 0.0
C80 C 0.98927 0.80535 0.34163 0.0
C81 C 0.99607 0.78164 0.34657 0.0
C82 C 1.00069 0.76813 0.29555 0.0
C83 C 0.99912 0.77865 0.23951 0.0
C84 C 0.99224 0.8018 0.23545 0.0
C85 C 0.99645 0.81237 0.17549 0.0
C86 C 0.00799 0.79195 0.14466 0.0
C87 C 0.00819 0.77169 0.18103 0.0
C88 C 0.01275 0.83505 0.18101 0.0
C89 C 0.97252 0.81736 0.14756 0.0
C90 C 0.01508 0.68767 0.10493 0.0
C91 C 0.01869 0.68025 0.0459 0.0
C92 C 0.02634 0.69731 0.00399 0.0
C93 C 0.03034 0.72097 0.01992 0.0
C94 C 0.02842 0.72759 0.07894 0.0
C95 C 0.01958 0.71171 0.12022 0.0
C96 C 0.01397 0.72444 0.17746 0.0
C97 C 0.01757 0.7504 0.15865 0.0
C98 C 0.02889 0.75132 0.10404 0.0
C99 C 0.03207 0.71733 0.22403 0.0
C100 C 0.98863 0.71828 0.19653 0.0
H101 H 0.00273 0.8373 0.05228 0.0
H102 H 0.08428 0.82036 0.99635 0.0
H103 H 0.07868 0.7791 0.96918 0.0
H104 H 0.04855 0.77008 0.95785 0.0
H105 H 0.06858 0.75124 0.99717 0.0
H106 H 0.07264 0.78832 0.13574 0.0
H107 H 0.09352 0.78729 0.07648 0.0
H108 H 0.07959 0.76028 0.10353 0.0
H109 H 0.97945 0.83227 0.27957 0.0
H110 H 0.9991 0.77403 0.38959 0.0
H111 H 0.00657 0.75052 0.30123 0.0
H112 H 0.0315 0.83065 0.17915 0.0
H113 H 0.0104 0.84481 0.2229 0.0
H114 H 0.00904 0.84823 0.14666 0.0
H115 H 0.96015 0.80176 0.15221 0.0
H116 H 0.97393 0.82104 0.09986 0.0
H117 H 0.96469 0.83278 0.16942 0.0
H118 H 0.02676 0.86786 0.00397 0.0
C119 C 0.02077 0.83398 0.04371 0.0
C120 C 0.81868 0.00737 0.0705 0.0
C121 C 0.83022 0.01764 0.02101 0.0
C122 C 0.81887 0.03528 0.98911 0.0
C123 C 0.78532 0.03194 0.0537 0.0
C124 C 0.79626 0.0149 0.08622 0.0
C125 C 0.78107 0.00623 0.13717 0.0
H126 H 0.67537 0.0115 0.27696 0.0
C127 C 0.76196 0.03539 0.07898 0.0
C128 C 0.7592 0.02051 0.12854 0.0
H129 H 0.73238 0.96797 0.32807 0.0
H130 H 0.75589 0.98425 0.24695 0.0
H131 H 0.70558 0.05837 0.24892 0.0
H132 H 0.67703 0.99983 0.14818 0.0
H133 H 0.67721 0.02344 0.09832 0.0
H134 H 0.66003 0.0249 0.16487 0.0
H135 H 0.675 0.05357 0.23281 0.0
H136 H 0.6941 0.0705 0.18414 0.0
C137 C 0.79384 0.01273 0.19548 0.0
C138 C 0.77581 0.97937 0.12936 0.0
C139 C 0.70465 0.08561 0.96747 0.0
C140 C 0.68016 0.08766 0.97275 0.0
C141 C 0.66947 0.07961 0.02569 0.0
C142 C 0.68222 0.06834 0.06927 0.0
C143 C 0.70589 0.06409 0.05984 0.0
C144 C 0.7169 0.07316 0.01037 0.0
C145 C 0.74171 0.06533 0.00575 0.0
C146 C 0.74339 0.04954 0.05987 0.0
C147 C 0.72241 0.0491 0.0913 0.0
C148 C 0.7583 0.08765 0.01063 0.0
C149 C 0.74386 0.05113 0.94733 0.0
C150 C 0.69278 0.00507 0.2707 0.0
C151 C 0.70173 0.98806 0.30858 0.0
C152 C 0.72491 0.98099 0.29937 0.0
C153 C 0.7385 0.99041 0.25219 0.0
C154 C 0.72886 0.00714 0.21396 0.0
C155 C 0.70632 0.01409 0.22429 0.0
C156 C 0.69809 0.0314 0.17991 0.0
C157 C 0.71951 0.03443 0.1415 0.0
C158 C 0.7377 0.02018 0.16074 0.0
C159 C 0.6927 0.0547 0.21277 0.0
C160 C 0.67694 0.01952 0.14613 0.0
H161 H 0.78927 0.05593 0.97868 0.0
H162 H 0.82689 0.99391 0.09637 0.0
H163 H 0.7705 0.97529 0.08304 0.0
H164 H 0.76126 0.97269 0.1573 0.0
H165 H 0.79153 0.96919 0.13964 0.0
H166 H 0.80133 0.0312 0.19377 0.0
H167 H 0.80843 1.00073 0.20364 0.0
H168 H 0.78204 0.01207 0.23387 0.0
H169 H 0.71407 0.09218 0.92923 0.0
H170 H 0.65086 0.08036 0.03281 0.0
H171 H 0.6727 0.06223 0.10727 0.0
H172 H 0.75087 0.10116 0.04027 0.0
H173 H 0.76117 0.09605 0.96684 0.0
H174 H 0.77541 0.08387 0.03062 0.0
H175 H 0.72721 0.04109 0.93675 0.0
H176 H 0.75705 0.03743 0.94935 0.0
H177 H 0.74794 0.0631 0.90961 0.0
H178 H 0.82681 0.04319 0.95017 0.0
C179 C 0.79678 0.04255 0.00537 0.0
C180 C 0.53727 0.70596 0.32152 0.0
C181 C 0.53296 0.68241 0.34105 0.0
C182 C 0.51739 0.66738 0.30879 0.0
C183 C 0.51134 0.69825 0.23767 0.0
C184 C 0.52628 0.71348 0.26913 0.0
C185 C 0.52894 0.7374 0.23891 0.0
H186 H 0.50032 0.80572 0.00211 0.0
C187 C 0.50266 0.71077 0.18567 0.0
C188 C 0.51256 0.73393 0.18571 0.0
H189 H 0.54841 0.82504 0.14338 0.0
H190 H 0.53971 0.78724 0.19102 0.0
H191 H 0.5162 0.75131 0.98839 0.0
H192 H 0.4602 0.78352 0.08232 0.0
H193 H 0.44927 0.75576 0.05718 0.0
H194 H 0.45848 0.77814 0.00433 0.0
H195 H 0.49307 0.76659 0.9529 0.0
H196 H 0.4895 0.73591 0.97212 0.0
C197 C 0.55476 0.74116 0.22009 0.0
C198 C 0.52047 0.7566 0.28153 0.0
C199 C 0.45313 0.66396 0.03783 0.0
C200 C 0.44151 0.66963 0.98507 0.0
C201 C 0.4405 0.69392 0.96998 0.0
C202 C 0.45248 0.71158 0.00358 0.0
C203 C 0.4653 0.7051 0.05362 0.0
C204 C 0.46436 0.68179 0.07137 0.0
C205 C 0.47713 0.67812 0.12821 0.0
C206 C 0.4873 0.7029 0.13988 0.0
C207 C 0.48076 0.71857 0.09561 0.0
C208 C 0.49651 0.66018 0.11671 0.0
C209 C 0.45872 0.67024 0.17536 0.0
C210 C 0.5088 0.80208 0.04372 0.0
C211 C 0.52504 0.81855 0.06886 0.0
C212 C 0.53599 0.81263 0.12257 0.0
C213 C 0.53092 0.79067 0.15021 0.0
C214 C 0.51492 0.77427 0.12365 0.0
C215 C 0.50408 0.7803 0.0714 0.0
C216 C 0.48783 0.76088 0.04826 0.0
C217 C 0.49082 0.74196 0.09461 0.0
C218 C 0.50673 0.74973 0.13911 0.0
C219 C 0.49691 0.75321 0.98706 0.0
C220 C 0.46261 0.76994 0.04743 0.0
H221 H 0.49539 0.66243 0.23538 0.0
H222 H 0.54908 0.71794 0.34569 0.0
H223 H 0.5037 0.75065 0.30254 0.0
H224 H 0.51696 0.77337 0.25898 0.0
H225 H 0.53352 0.76026 0.31719 0.0
H226 H 0.56152 0.7245 0.20161 0.0
H227 H 0.56597 0.74652 0.25839 0.0
H228 H 0.55719 0.75447 0.18492 0.0
H229 H 0.45476 0.64592 0.05236 0.0
H230 H 0.43094 0.69943 0.93149 0.0
H231 H 0.45171 0.72956 0.98861 0.0
H232 H 0.5044 0.663 0.07233 0.0
H233 H 0.48931 0.64163 0.11845 0.0
H234 H 0.51139 0.66207 0.14774 0.0
H235 H 0.44079 0.6755 0.16322 0.0
H236 H 0.4621 0.67884 0.21875 0.0
H237 H 0.45797 0.6507 0.18106 0.0
H238 H 0.51335 0.64942 0.32342 0.0
C239 C 0.50668 0.6751 0.25766 0.0
C240 C 0.32083 0.50289 0.28891 0.0
C241 C 0.33299 0.51409 0.33645 0.0
C242 C 0.32398 0.53466 0.36142 0.0
C243 C 0.29065 0.53188 0.29532 0.0
C244 C 0.2999 0.51244 0.26821 0.0
C245 C 0.28487 0.50389 0.21658 0.0
H246 H 0.18749 0.52014 0.04696 0.0
C247 C 0.26856 0.53726 0.26545 0.0
C248 C 0.26533 0.52154 0.21753 0.0
H249 H 0.23547 0.4636 0.03015 0.0
H250 H 0.25911 0.48037 0.11109 0.0
H251 H 0.18046 0.51417 0.16809 0.0
H252 H 0.22534 0.56474 0.08092 0.0
H253 H 0.21087 0.57967 0.13783 0.0
H254 H 0.19391 0.56412 0.08155 0.0
H255 H 0.17099 0.54339 0.15432 0.0
H256 H 0.18504 0.5358 0.2228 0.0
C257 C 0.27558 0.47838 0.22978 0.0
C258 C 0.29962 0.50601 0.15978 0.0
C259 C 0.2101 0.58791 0.36873 0.0
C260 C 0.18683 0.59289 0.35429 0.0
C261 C 0.1793 0.59006 0.29531 0.0
C262 C 0.19367 0.57978 0.25336 0.0
C263 C 0.21561 0.57186 0.27072 0.0
C264 C 0.22413 0.57724 0.32641 0.0
C265 C 0.24819 0.56796 0.33607 0.0
C266 C 0.25122 0.55364 0.27962 0.0
C267 C 0.232 0.55595 0.24194 0.0
C268 C 0.24761 0.552 0.3916 0.0
C269 C 0.26597 0.58944 0.34038 0.0
C270 C 0.20346 0.51175 0.05959 0.0
C271 C 0.21001 0.49096 0.03142 0.0
C272 C 0.2303 0.47987 0.05092 0.0
C273 C 0.24389 0.48958 0.09795 0.0
C274 C 0.2367 0.5102 0.12675 0.0
C275 C 0.21659 0.52068 0.10742 0.0
C276 C 0.20948 0.54044 0.14679 0.0
C277 C 0.22916 0.54101 0.19177 0.0
C278 C 0.24538 0.52351 0.17989 0.0
C279 C 0.18527 0.53331 0.17434 0.0
C280 C 0.20972 0.56354 0.11007 0.0
H281 H 0.29692 0.55904 0.3626 0.0
H282 H 0.32753 0.48723 0.26831 0.0
H283 H 0.30928 0.5235 0.15821 0.0
H284 H 0.28887 0.5049 0.11932 0.0
H285 H 0.31267 0.49198 0.15805 0.0
H286 H 0.27025 0.47668 0.27681 0.0
H287 H 0.28925 0.46537 0.22134 0.0
H288 H 0.25981 0.47324 0.20387 0.0
H289 H 0.21657 0.59061 0.4133 0.0
H290 H 0.16158 0.59388 0.28255 0.0
H291 H 0.18659 0.57712 0.20993 0.0
H292 H 0.23257 0.53889 0.38922 0.0
H293 H 0.24573 0.56275 0.4323 0.0
H294 H 0.26346 0.54175 0.39686 0.0
H295 H 0.25826 0.60627 0.32602 0.0
H296 H 0.28125 0.58727 0.31109 0.0
H297 H 0.27231 0.59224 0.38637 0.0
H298 H 0.33291 0.54354 0.39804 0.0
C299 C 0.303 0.54358 0.34112 0.0
C300 C 0.08312 0.18877 0.40754 0.0
C301 C 0.07871 0.16418 0.403 0.0
C302 C 0.08116 0.15311 0.34759 0.0
C303 C 0.08792 0.19131 0.30137 0.0
C304 C 0.08747 0.20199 0.3562 0.0
C305 C 0.08988 0.22854 0.35224 0.0
H306 H 0.06704 0.32591 0.20137 0.0
C307 C 0.08847 0.21012 0.25623 0.0
C308 C 0.08975 0.23199 0.28544 0.0
H309 H 0.09339 0.31934 0.37988 0.0
H310 H 0.10157 0.27884 0.36167 0.0
H311 H 0.11192 0.29116 0.14774 0.0
H312 H 0.03881 0.27414 0.18556 0.0
H313 H 0.04695 0.26479 0.11397 0.0
H314 H 0.04753 0.29586 0.13111 0.0
H315 H 0.08884 0.30366 0.10537 0.0
H316 H 0.09853 0.27427 0.09041 0.0
C317 C 0.11359 0.23672 0.38089 0.0
C318 C 0.06821 0.23895 0.38218 0.0
C319 C 0.07537 0.18573 0.04366 0.0
C320 C 0.07049 0.1978 0.99129 0.0
C321 C 0.06918 0.22277 0.99365 0.0
C322 C 0.07275 0.23529 0.04725 0.0
C323 C 0.07754 0.22274 0.09926 0.0
C324 C 0.07875 0.19834 0.09635 0.0
C325 C 0.08255 0.18732 0.1554 0.0
C326 C 0.08467 0.20912 0.19438 0.0
C327 C 0.08162 0.23003 0.16189 0.0
C328 C 0.10582 0.1742 0.15343 0.0
C329 C 0.06059 0.17123 0.17011 0.0
C330 C 0.07449 0.31561 0.23645 0.0
C331 C 0.07905 0.32588 0.2927 0.0
C332 C 0.08962 0.31213 0.33636 0.0
C333 C 0.09401 0.2884 0.32626 0.0
C334 C 0.08737 0.27788 0.27252 0.0
C335 C 0.07933 0.29156 0.227 0.0
C336 C 0.07669 0.27714 0.17053 0.0
C337 C 0.08258 0.25238 0.19191 0.0
C338 C 0.08793 0.25317 0.25255 0.0
C339 C 0.09481 0.28705 0.12569 0.0
C340 C 0.05116 0.27803 0.14868 0.0
H341 H 0.08682 0.15709 0.256 0.0
H342 H 0.08197 0.19765 0.44978 0.0
H343 H 0.05181 0.2303 0.36445 0.0
H344 H 0.06677 0.2581 0.37526 0.0
H345 H 0.06861 0.23605 0.43062 0.0
H346 H 0.12495 0.22165 0.39045 0.0
H347 H 0.11093 0.24605 0.42342 0.0
H348 H 0.1241 0.24854 0.35117 0.0
H349 H 0.07568 0.16656 0.04443 0.0
H350 H 0.06536 0.23262 0.95406 0.0
H351 H 0.07129 0.25417 0.04646 0.0
H352 H 0.11941 0.18478 0.12884 0.0
H353 H 0.1034 0.15677 0.13092 0.0
H354 H 0.1134 0.17145 0.1977 0.0
H355 H 0.04518 0.17552 0.14257 0.0
H356 H 0.05451 0.1736 0.21599 0.0
H357 H 0.0639 0.15222 0.16259 0.0
H358 H 0.07783 0.1342 0.34242 0.0
C359 C 0.08596 0.16651 0.29698 0.0
C360 C 0.31945 0.00643 0.04967 0.0
C361 C 0.33927 0.99586 0.02501 0.0
C362 C 0.34451 0.97277 0.04283 0.0
C363 C 0.31483 0.97343 0.11776 0.0
C364 C 0.30722 0.99459 0.09599 0.0
C365 C 0.28554 0.00195 0.12891 0.0
H366 H 0.21754 0.98534 0.37569 0.0
C367 C 0.30192 0.96745 0.17193 0.0
C368 C 0.28427 0.9838 0.1791 0.0
H369 H 0.20232 0.02937 0.22586 0.0
H370 H 0.23877 0.01867 0.17957 0.0
H371 H 0.23445 0.94063 0.30557 0.0
H372 H 0.2708 1.00081 0.38411 0.0
H373 H 0.29111 0.97833 0.38494 0.0
H374 H 0.26415 0.97454 0.42587 0.0
H375 H 0.23601 0.94675 0.3834 0.0
H376 H 0.25834 0.93072 0.34718 0.0
C377 C 0.26441 0.99888 0.08646 0.0
C378 C 0.28944 0.02751 0.15216 0.0
C379 C 0.34245 0.91471 0.31625 0.0
C380 C 0.34126 0.91326 0.37803 0.0
C381 C 0.32132 0.92159 0.40672 0.0
C382 C 0.30407 0.93315 0.37486 0.0
C383 C 0.30704 0.93692 0.31398 0.0
C384 C 0.32583 0.92741 0.28561 0.0
C385 C 0.32763 0.93496 0.22225 0.0
C386 C 0.30764 0.95188 0.21836 0.0
C387 C 0.29522 0.95233 0.27144 0.0
C388 C 0.32262 0.91266 0.18354 0.0
C389 C 0.35214 0.94743 0.21175 0.0
C390 C 0.22207 0.99298 0.33326 0.0
C391 C 0.20689 0.00816 0.30455 0.0
C392 C 0.21352 0.01738 0.24876 0.0
C393 C 0.23455 0.01103 0.22169 0.0
C394 C 0.24902 0.99504 0.25022 0.0
C395 C 0.24269 0.98652 0.30539 0.0
C396 C 0.25976 0.96951 0.32945 0.0
C397 C 0.27623 0.9675 0.27764 0.0
C398 C 0.27042 0.98295 0.23157 0.0
C399 C 0.24656 0.9456 0.3425 0.0
C400 C 0.27206 0.98119 0.38408 0.0
H401 H 0.33775 0.94436 0.10113 0.0
H402 H 0.31426 0.02367 0.03496 0.0
H403 H 0.30611 0.02925 0.17752 0.0
H404 H 0.27532 0.03274 0.18199 0.0
H405 H 0.2904 0.04035 0.11511 0.0
H406 H 0.26617 0.98311 0.0575 0.0
H407 H 0.26301 0.01462 0.05753 0.0
H408 H 0.24772 0.99564 0.1099 0.0
H409 H 0.35729 0.90808 0.29264 0.0
H410 H 0.31981 0.92074 0.45428 0.0
H411 H 0.2897 0.93973 0.39937 0.0
H412 H 0.30845 0.90109 0.203 0.0
H413 H 0.33845 0.90199 0.17974 0.0
H414 H 0.31626 0.917 0.13888 0.0
H415 H 0.36278 0.94939 0.25274 0.0
H416 H 0.35083 0.96583 0.1956 0.0
H417 H 0.36274 0.9374 0.18004 0.0
H418 H 0.35862 0.96353 0.02233 0.0
C419 C 0.33245 0.96159 0.08878 0.0
C420 C 0.47488 0.28335 0.01677 0.0
C421 C 0.47097 0.30763 0.0053 0.0
C422 C 0.46775 0.32299 0.05351 0.0
C423 C 0.47944 0.29276 0.12023 0.0
C424 C 0.47819 0.27613 0.07588 0.0
C425 C 0.48025 0.25141 0.10172 0.0
H426 H 0.51357 0.1881 0.34484 0.0
C427 C 0.48794 0.28186 0.17384 0.0
C428 C 0.48734 0.25723 0.16577 0.0
H429 H 0.47824 0.15957 0.18972 0.0
H430 H 0.47888 0.19899 0.14615 0.0
H431 H 0.54844 0.22568 0.26816 0.0
H432 H 0.48397 0.23129 0.36457 0.0
H433 H 0.50145 0.25694 0.37963 0.0
H434 H 0.51156 0.22838 0.40138 0.0
H435 H 0.54672 0.22256 0.34687 0.0
H436 H 0.55075 0.25115 0.31277 0.0
C437 C 0.49929 0.23816 0.0688 0.0
C438 C 0.45583 0.23874 0.09802 0.0
C439 C 0.53952 0.33492 0.3031 0.0
C440 C 0.55022 0.3321 0.35834 0.0
C441 C 0.5489 0.30949 0.38497 0.0
C442 C 0.53663 0.29038 0.35743 0.0
C443 C 0.52525 0.29398 0.3032 0.0
C444 C 0.52638 0.31618 0.27794 0.0
C445 C 0.51049 0.31812 0.22561 0.0
C446 C 0.50104 0.29256 0.22049 0.0
C447 C 0.5103 0.27844 0.26475 0.0
C448 C 0.52539 0.32586 0.17162 0.0
C449 C 0.49124 0.33582 0.24092 0.0
C450 C 0.50544 0.19022 0.30204 0.0
C451 C 0.4953 0.17064 0.27167 0.0
C452 C 0.48595 0.17431 0.21464 0.0
C453 C 0.48594 0.19722 0.18975 0.0
C454 C 0.49517 0.21668 0.22234 0.0
C455 C 0.50504 0.2128 0.27714 0.0
C456 C 0.51454 0.23518 0.30567 0.0
C457 C 0.50701 0.25344 0.26158 0.0
C458 C 0.49591 0.24268 0.21199 0.0
C459 C 0.54151 0.23371 0.3091 0.0
C460 C 0.50247 0.23818 0.36623 0.0
H461 H 0.46868 0.32755 0.14621 0.0
H462 H 0.47596 0.27074 0.98093 0.0
H463 H 0.44182 0.25126 0.10802 0.0
H464 H 0.45349 0.22439 0.13056 0.0
H465 H 0.45247 0.23144 0.05306 0.0
H466 H 0.51601 0.24893 0.06868 0.0
H467 H 0.49401 0.23463 0.02228 0.0
H468 H 0.5028 0.22102 0.08975 0.0
H469 H 0.54025 0.35185 0.28078 0.0
H470 H 0.55654 0.30672 0.42805 0.0
H471 H 0.5359 0.27372 0.38021 0.0
H472 H 0.53903 0.31285 0.16263 0.0
H473 H 0.53424 0.34347 0.17933 0.0
H474 H 0.51476 0.32751 0.13121 0.0
H475 H 0.49431 0.34506 0.28381 0.0
H476 H 0.47375 0.32664 0.24486 0.0
H477 H 0.49039 0.3501 0.20748 0.0
H478 H 0.46391 0.34143 0.04696 0.0
C479 C 0.47154 0.31546 0.11094 0.0
O480 O 0.07094 0.01672 0.60776 0.0
Zn481 Zn 0.05083 0.01686 0.68275 0.0
O482 O 0.01839 0.00452 0.66732 0.0
Zn483 Zn 0.99638 0.02864 0.69007 0.0
Zn484 Zn 0.01529 0.99679 0.58242 0.0
Zn485 Zn 0.00988 0.97577 0.71213 0.0
O486 O 0.97499 0.01811 0.7568 0.0
O487 O 0.98265 0.98025 0.76882 0.0
O488 O 0.05087 0.05081 0.71659 0.0
O489 O 0.01323 0.05928 0.71314 0.0
O490 O 0.97649 0.03333 0.61936 0.0
O491 O 0.99393 0.01947 0.54239 0.0
O492 O 0.00466 0.96281 0.56884 0.0
O493 O 0.0664 0.99509 0.74052 0.0
O494 O 1.0019 0.94729 0.65855 0.0
O495 O 0.038 0.96785 0.75965 0.0
C496 C 0.06656 0.0094 0.55534 0.0
C497 C 0.97103 0.99829 0.78239 0.0
C498 C 0.98654 0.03721 0.57036 0.0
C499 C 0.03454 0.06535 0.7238 0.0
C500 C 1.00062 0.9451 0.60256 0.0
C501 C 0.05877 0.97643 0.76682 0.0
O502 O 0.04628 0.0011 0.54118 0.0
O503 O 0.50483 0.04279 0.5953 0.0
Zn504 Zn 0.51036 0.02785 0.67575 0.0
O505 O 0.5195 0.99441 0.66701 0.0
Zn506 Zn 0.49682 0.97394 0.70853 0.0
Zn507 Zn 0.52057 0.98604 0.58264 0.0
Zn508 Zn 0.55015 0.98893 0.70218 0.0
O509 O 0.51154 0.95343 0.76945 0.0
O510 O 0.54904 0.96487 0.76982 0.0
O511 O 0.48056 0.03056 0.72553 0.0
O512 O 0.47323 0.993 0.75119 0.0
O513 O 0.47945 0.95264 0.6513 0.0
O514 O 0.4961 0.96003 0.56437 0.0
O515 O 0.55311 0.97635 0.55736 0.0
O516 O 0.53728 0.04732 0.7134 0.0
O517 O 0.57315 0.97809 0.64129 0.0
O518 O 0.56376 0.02011 0.72982 0.0
C519 C 0.50695 0.03534 0.54243 0.0
C520 C 0.53213 0.95192 0.79014 0.0
C521 C 0.48097 0.9488 0.59609 0.0
C522 C 0.46839 0.01478 0.75329 0.0
C523 C 0.5722 0.97429 0.58589 0.0
C524 C 0.55737 0.04143 0.73145 0.0
O525 O 0.51295 0.01424 0.53195 0.0
O526 O 0.46814 0.4847 0.63922 0.0
Zn527 Zn 0.48751 0.48939 0.71418 0.0
O528 O 0.51912 0.50283 0.69597 0.0
Zn529 Zn 0.54251 0.48032 0.71805 0.0
Zn530 Zn 0.52063 0.50934 0.61127 0.0
Zn531 Zn 0.52633 0.53222 0.73951 0.0
O532 O 0.56589 0.4938 0.77754 0.0
O533 O 0.55171 0.52849 0.80243 0.0
O534 O 0.48871 0.45702 0.75478 0.0
O535 O 0.5268 0.45077 0.75181 0.0
O536 O 0.55973 0.46918 0.6474 0.0
O537 O 0.54205 0.48656 0.57267 0.0
O538 O 0.5328 0.54273 0.59528 0.0
O539 O 0.4697 0.51342 0.76168 0.0
O540 O 0.53665 0.55908 0.68419 0.0
O541 O 0.49664 0.54261 0.77563 0.0
C542 C 0.47017 0.49327 0.5874 0.0
C543 C 0.5667 0.51255 0.80899 0.0
C544 C 0.5569 0.47228 0.59232 0.0
C545 C 0.50592 0.44376 0.76406 0.0
C546 C 0.53816 0.56049 0.62815 0.0
C547 C 0.47588 0.53393 0.78133 0.0
O548 O 0.48873 0.50479 0.57161 0.0
O549 O 0.98619 0.53106 0.62398 0.0
Zn550 Zn 0.01695 0.52771 0.67022 0.0
O551 O 0.02481 0.49406 0.68213 0.0
Zn552 Zn 0.02527 0.48594 0.76656 0.0
Zn553 Zn 1.00124 0.47414 0.64158 0.0
Zn554 Zn 0.05555 0.48751 0.64917 0.0
O555 O 0.05688 0.47458 0.793 0.0
O556 O 0.07872 0.47815 0.71237 0.0
O557 O 0.01372 0.54378 0.75015 0.0
O558 O 0.01946 0.51525 0.81554 0.0
O559 O 1.00019 0.46069 0.78563 0.0
O560 O 0.98403 0.45266 0.69804 0.0
O561 O 0.01513 0.455 0.57632 0.0
O562 O 0.04326 0.54539 0.62589 0.0
O563 O 0.05343 0.46266 0.583 0.0
O564 O 0.06922 0.51742 0.61494 0.0
C565 C 0.97214 0.51524 0.60195 0.0
C566 C 0.07651 0.47333 0.76701 0.0
C567 C 0.98522 0.44932 0.75342 0.0
C568 C 0.01526 0.53674 0.80349 0.0
C569 C 0.03587 0.45198 0.55827 0.0
C570 C 0.0631 0.53867 0.60828 0.0
O571 O 0.97637 0.49337 0.60577 0.0
H572 H 0.19639 0.0167 0.42155 0.0
H573 H 0.16444 0.00872 0.24823 0.0
H574 H 0.12533 0.01063 0.29327 0.0
H575 H 0.15588 0.9802 0.49752 0.0
H576 H 0.15554 0.99792 0.56377 0.0
H577 H 0.18116 0.99861 0.51781 0.0
H578 H 0.17945 0.04424 0.50855 0.0
H579 H 0.15391 0.0437 0.55503 0.0
H580 H 0.15289 0.05704 0.48295 0.0
H581 H 0.08973 0.00881 0.35774 0.0
H582 H 0.06005 0.00635 0.4361 0.0
H583 H 0.1146 0.01631 0.56866 0.0
C584 C 0.18118 0.01569 0.39293 0.0
C585 C 0.18358 0.01263 0.33111 0.0
C586 C 0.16317 0.01145 0.29541 0.0
C587 C 0.14083 0.01236 0.3207 0.0
C588 C 0.1391 0.01471 0.38181 0.0
C589 C 0.15872 0.0167 0.41745 0.0
C590 C 0.15196 0.01817 0.48213 0.0
C591 C 0.16171 0.99749 0.51736 0.0
C592 C 0.16003 0.04222 0.50872 0.0
C593 C 0.12547 0.01598 0.47742 0.0
C594 C 0.11847 0.01407 0.41908 0.0
C595 C 0.09501 0.01061 0.40349 0.0
C596 C 0.07826 0.00908 0.44852 0.0
C597 C 0.08489 0.01119 0.50877 0.0
C598 C 0.10889 0.01486 0.52313 0.0
H599 H 0.48729 0.16014 0.3885 0.0
H600 H 0.5022 0.12705 0.2204 0.0
H601 H 0.50421 0.08826 0.27035 0.0
H602 H 0.52727 0.12823 0.47257 0.0
H603 H 0.50902 0.12613 0.53718 0.0
H604 H 0.50648 0.15064 0.48729 0.0
H605 H 0.46216 0.14039 0.47479 0.0
H606 H 0.46455 0.11584 0.52478 0.0
H607 H 0.45263 0.11096 0.45181 0.0
H608 H 0.50725 0.05344 0.34063 0.0
H609 H 0.51093 0.02579 0.42399 0.0
H610 H 0.49521 0.08225 0.54632 0.0
C611 C 0.49096 0.14478 0.36192 0.0
C612 C 0.49467 0.14678 0.30028 0.0
C613 C 0.49902 0.12604 0.26741 0.0
C614 C 0.50031 0.10392 0.29552 0.0
C615 C 0.49712 0.10277 0.35653 0.0
C616 C 0.49244 0.12268 0.38923 0.0
C617 C 0.49075 0.11704 0.4545 0.0
C618 C 0.5095 0.13136 0.48995 0.0
C619 C 0.46605 0.12131 0.47783 0.0
C620 C 0.49562 0.09088 0.45376 0.0
C621 C 0.49906 0.08291 0.39682 0.0
C622 C 0.50443 0.0595 0.3853 0.0
C623 C 0.5065 0.0439 0.43311 0.0
C624 C 0.50333 0.05173 0.49202 0.0
C625 C 0.49763 0.07557 0.50202 0.0
H626 H 0.3751 0.53737 0.35857 0.0
H627 H 0.33849 0.46913 0.37734 0.0
H628 H 0.37117 0.45508 0.43842 0.0
H629 H 0.4353 0.51407 0.35301 0.0
H630 H 0.44758 0.5391 0.39369 0.0
H631 H 0.42254 0.54262 0.34645 0.0
H632 H 0.39978 0.55953 0.43464 0.0
H633 H 0.42459 0.55581 0.48226 0.0
H634 H 0.39653 0.54228 0.50117 0.0
H635 H 0.40496 0.45093 0.5101 0.0
H636 H 0.43937 0.45519 0.57651 0.0
H637 H 0.45539 0.52516 0.50555 0.0
C638 C 0.37429 0.51926 0.37429 0.0
C639 C 0.35435 0.50425 0.36301 0.0
C640 C 0.35376 0.48076 0.38474 0.0
C641 C 0.37217 0.47271 0.41977 0.0
C642 C 0.39126 0.48823 0.4317 0.0
C643 C 0.39268 0.51085 0.40846 0.0
C644 C 0.41463 0.52436 0.42957 0.0
C645 C 0.43098 0.53039 0.37758 0.0
C646 C 0.40851 0.54681 0.46395 0.0
C647 C 0.42502 0.50612 0.46986 0.0
C648 C 0.41123 0.48542 0.47071 0.0
C649 C 0.41616 0.46683 0.50865 0.0
C650 C 0.43566 0.46944 0.54643 0.0
C651 C 0.45024 0.49033 0.54549 0.0
C652 C 0.4449 0.50876 0.50617 0.0
H653 H 0.10265 0.36031 0.35808 0.0
H654 H 0.03641 0.34429 0.27014 0.0
H655 H 0.01922 0.37812 0.3213 0.0
H656 H 0.08 0.37082 0.49348 0.0
H657 H 0.10023 0.39466 0.51475 0.0
H658 H 0.10895 0.37284 0.46221 0.0
H659 H 0.11916 0.40572 0.38603 0.0
H660 H 0.1109 0.42779 0.43879 0.0
H661 H 0.09752 0.42672 0.36664 0.0
H662 H 0.0074 0.40854 0.3954 0.0
H663 H 1.00265 0.43574 0.47933 0.0
H664 H 0.07657 0.43194 0.52071 0.0
C665 C 0.08474 0.36441 0.34807 0.0
C666 C 0.07089 0.34967 0.30984 0.0
C667 C 0.04748 0.35553 0.29828 0.0
C668 C 0.03752 0.37462 0.32762 0.0
C669 C 0.05128 0.38786 0.36781 0.0
C670 C 0.07454 0.3833 0.37717 0.0
C671 C 0.08493 0.39862 0.42664 0.0
C672 C 0.09405 0.38331 0.47724 0.0
C673 C 0.10427 0.41573 0.40311 0.0
C674 C 0.06363 0.41183 0.44539 0.0
C675 C 0.04446 0.40552 0.41053 0.0
C676 C 0.0224 0.41397 0.42214 0.0
C677 C 0.01986 0.4293 0.47032 0.0
C678 C 0.03925 0.43612 0.50668 0.0
C679 C 0.06147 0.42737 0.49342 0.0
H680 H 0.86644 0.0454 0.97574 0.0
H681 H 0.84658 0.9723 0.01646 0.0
H682 H 0.88253 0.95936 0.96732 0.0
H683 H 0.88492 0.03454 0.83257 0.0
H684 H 0.90862 0.05659 0.83348 0.0
H685 H 0.88349 0.06023 0.87964 0.0
H686 H 0.91031 0.06376 0.97194 0.0
H687 H 0.93559 0.0603 0.92595 0.0
H688 H 0.9303 0.0407 0.98755 0.0
H689 H 0.91913 0.95434 0.9041 0.0
H690 H 0.95233 0.95773 0.83446 0.0
H691 H 0.94638 0.0341 0.83161 0.0
C692 C 0.86967 0.02664 0.97501 0.0
C693 C 0.8535 0.00988 1.00001 0.0
C694 C 0.85875 0.98556 0.99847 0.0
C695 C 0.87909 0.97803 0.97025 0.0
C696 C 0.89411 0.99502 0.94394 0.0
C697 C 0.88965 0.01886 0.94654 0.0
C698 C 0.90737 0.03354 0.91121 0.0
C699 C 0.89538 0.047 0.86128 0.0
C700 C 0.92174 0.05058 0.95158 0.0
C701 C 0.92228 0.01423 0.88701 0.0
C702 C 0.91461 0.99214 0.90691 0.0
C703 C 0.92534 0.9716 0.88876 0.0
C704 C 0.94421 0.9737 0.84909 0.0
C705 C 0.95206 0.99618 0.82731 0.0
C706 C 0.94093 0.01664 0.84726 0.0
H707 H 0.49499 0.84706 0.00977 0.0
H708 H 0.5683 0.84122 0.05514 0.0
H709 H 0.57817 0.87638 0.99372 0.0
H710 H 0.50385 0.86109 0.86067 0.0
H711 H 0.48036 0.88135 0.8563 0.0
H712 H 0.47893 0.85749 0.90879 0.0
H713 H 0.47362 0.88757 0.99383 0.0
H714 H 0.47492 0.91155 0.94151 0.0
H715 H 0.49476 0.91184 0.00352 0.0
H716 H 0.58017 0.91068 0.91978 0.0
H717 H 0.57392 0.94094 0.84299 0.0
H718 H 0.49939 0.92303 0.84548 0.0
C719 C 0.51314 0.85321 0.00724 0.0
C720 C 0.53086 0.84126 0.03743 0.0
C721 C 0.55433 0.85019 0.03322 0.0
C722 C 0.56013 0.87009 0.99808 0.0
C723 C 0.54226 0.881 0.96762 0.0
C724 C 0.51921 0.87292 0.97233 0.0
C725 C 0.50333 0.88691 0.93317 0.0
C726 C 0.4909 0.87075 0.88701 0.0
C727 C 0.48562 0.90026 0.97023 0.0
C728 C 0.52106 0.90387 0.90467 0.0
C729 C 0.54342 0.90038 0.92528 0.0
C730 C 0.56268 0.91364 0.90376 0.0
C731 C 0.55897 0.93079 0.86004 0.0
C732 C 0.53617 0.93447 0.83797 0.0
C733 C 0.51706 0.92081 0.86123 0.0
H734 H 0.69506 0.49898 0.93786 0.0
H735 H 0.66947 0.52263 0.10784 0.0
H736 H 0.63135 0.52997 0.06206 0.0
H737 H 0.66319 0.53707 0.84388 0.0
H738 H 0.65705 0.51436 0.78929 0.0
H739 H 0.68315 0.5135 0.83385 0.0
H740 H 0.67106 0.47101 0.86816 0.0
H741 H 0.645 0.47169 0.82351 0.0
H742 H 0.64275 0.46551 0.90133 0.0
H743 H 0.59524 0.53461 0.99617 0.0
H744 H 0.56401 0.53201 0.91977 0.0
H745 H 0.6121 0.50007 0.79864 0.0
C746 C 0.68157 0.50539 0.96638 0.0
C747 C 0.68581 0.5102 0.02711 0.0
C748 C 0.6673 0.51924 0.06111 0.0
C749 C 0.64536 0.52332 0.03553 0.0
C750 C 0.64186 0.51796 0.97595 0.0
C751 C 0.65943 0.50887 0.94215 0.0
C752 C 0.65088 0.50285 0.88032 0.0
C753 C 0.66437 0.51785 0.83412 0.0
C754 C 0.65251 0.47619 0.86761 0.0
C755 C 0.62567 0.50987 0.88454 0.0
C756 C 0.62087 0.51903 0.93962 0.0
C757 C 0.59881 0.52729 0.9531 0.0
C758 C 0.58121 0.52583 0.90946 0.0
C759 C 0.58561 0.51566 0.85362 0.0
C760 C 0.60818 0.50769 0.84121 0.0
H761 H 0.99881 0.66457 0.94168 0.0
H762 H 0.02924 0.63917 0.10414 0.0
H763 H 0.02769 0.59837 0.06342 0.0
H764 H 0.96172 0.61142 0.90535 0.0
H765 H 0.9678 0.61421 0.82762 0.0
H766 H 0.96754 0.64029 0.87359 0.0
H767 H 0.00954 0.65225 0.83922 0.0
H768 H 0.01001 0.62618 0.79357 0.0
H769 H 0.03254 0.63164 0.84833 0.0
H770 H 0.02677 0.56102 0.99974 0.0
H771 H 0.02695 0.53102 0.92018 0.0
H772 H 0.99962 0.58209 0.79772 0.0
C773 C 0.00496 0.65045 0.96918 0.0
C774 C 0.01432 0.6552 0.02616 0.0
C775 C 0.02177 0.63602 0.06072 0.0
C776 C 0.02106 0.61279 0.03775 0.0
C777 C 0.01274 0.60902 0.98029 0.0
C778 C 0.0047 0.62738 0.94669 0.0
C779 C 0.99863 0.61932 0.88446 0.0
C780 C 0.97236 0.62143 0.87205 0.0
C781 C 0.01358 0.63316 0.83873 0.0
C782 C 0.00514 0.59365 0.88751 0.0
C783 C 0.01285 0.58788 0.94338 0.0
C784 C 0.02055 0.56534 0.95607 0.0
C785 C 0.02059 0.5484 0.91047 0.0
C786 C 0.01331 0.55414 0.85249 0.0
C787 C 0.00526 0.57706 0.84143 0.0
H788 H 0.08742 0.11881 0.43632 0.0
H789 H 0.0451 0.17841 0.47959 0.0
H790 H 0.02079 0.15285 0.54467 0.0
H791 H 0.04414 0.08037 0.41275 0.0
H792 H 0.05646 0.05441 0.4443 0.0
H793 H 0.07546 0.07793 0.41723 0.0
H794 H 0.09617 0.08224 0.51787 0.0
H795 H 0.07786 0.05843 0.54702 0.0
H796 H 0.07928 0.08666 0.5838 0.0
H797 H 0.99606 0.11944 0.58678 0.0
H798 H 0.97386 0.08143 0.60283 0.0
H799 H 0.03077 0.04374 0.5254 0.0
C800 C 0.07352 0.12665 0.46106 0.0
C801 C 0.06823 0.15059 0.45293 0.0
C802 C 0.04984 0.16022 0.48593 0.0
C803 C 0.03583 0.14578 0.52293 0.0
C804 C 0.04056 0.12184 0.52688 0.0
C805 C 0.05922 0.11243 0.49744 0.0
C806 C 0.05869 0.08574 0.50183 0.0
C807 C 0.05867 0.07395 0.44039 0.0
C808 C 0.07922 0.07781 0.53988 0.0
C809 C 0.03561 0.08143 0.53316 0.0
C810 C 0.02587 0.10244 0.54953 0.0
C811 C 0.00374 0.10286 0.57516 0.0
C812 C 0.99118 0.08126 0.58369 0.0
C813 C 1.00053 0.05969 0.56501 0.0
C814 C 0.02317 0.05988 0.54032 0.0
H815 H 0.38633 0.92656 0.35238 0.0
H816 H 0.34415 0.88896 0.4835 0.0
H817 H 0.37892 0.88731 0.54834 0.0
H818 H 0.4434 0.89665 0.38437 0.0
H819 H 0.45971 0.92414 0.37155 0.0
H820 H 0.4331 0.91739 0.33082 0.0
H821 H 0.41653 0.95703 0.36603 0.0
H822 H 0.4428 0.96378 0.40722 0.0
H823 H 0.41489 0.96312 0.44404 0.0
H824 H 0.41573 0.89681 0.60535 0.0
H825 H 0.45093 0.91649 0.64942 0.0
H826 H 0.46914 0.94689 0.47926 0.0
C827 C 0.38454 0.91684 0.39332 0.0
C828 C 0.3625 0.9076 0.41242 0.0
C829 C 0.36083 0.89613 0.46783 0.0
C830 C 0.38055 0.89495 0.50472 0.0
C831 C 0.40182 0.90505 0.48522 0.0
C832 C 0.40395 0.9155 0.43034 0.0
C833 C 0.42767 0.92796 0.42259 0.0
C834 C 0.44181 0.9158 0.37448 0.0
C835 C 0.42531 0.95453 0.40925 0.0
C836 C 0.43811 0.92416 0.48299 0.0
C837 C 0.42317 0.91047 0.51813 0.0
C838 C 0.42782 0.907 0.57781 0.0
C839 C 0.44783 0.91835 0.60251 0.0
C840 C 0.46286 0.93313 0.56765 0.0
C841 C 0.4583 0.93529 0.50674 0.0
H842 H 0.53461 0.37717 0.35402 0.0
H843 H 0.58758 0.33529 0.43699 0.0
H844 H 0.60083 0.37047 0.49531 0.0
H845 H 0.5712 0.43405 0.34775 0.0
H846 H 0.54568 0.45098 0.36106 0.0
H847 H 0.54302 0.42351 0.32035 0.0
H848 H 0.51141 0.40771 0.39376 0.0
H849 H 0.51393 0.43496 0.43439 0.0
H850 H 0.51814 0.40726 0.47154 0.0
H851 H 0.60316 0.40812 0.55585 0.0
H852 H 0.59382 0.44375 0.61318 0.0
H853 H 0.54241 0.46153 0.4811 0.0
C854 C 0.54978 0.37539 0.38206 0.0
C855 C 0.56022 0.35335 0.38997 0.0
C856 C 0.57915 0.35188 0.43017 0.0
C857 C 0.58702 0.37187 0.46289 0.0
C858 C 0.57616 0.39327 0.45378 0.0
C859 C 0.55814 0.39512 0.41359 0.0
C860 C 0.54763 0.4192 0.41561 0.0
C861 C 0.55217 0.43273 0.35775 0.0
C862 C 0.52125 0.41713 0.42971 0.0
C863 C 0.56157 0.43028 0.46588 0.0
C864 C 0.57822 0.41526 0.48692 0.0
C865 C 0.59071 0.42031 0.5387 0.0
C866 C 0.58528 0.44059 0.57099 0.0
C867 C 0.5675 0.45549 0.55128 0.0
C868 C 0.55649 0.45085 0.49654 0.0
H869 H 0.18341 0.56853 0.45693 0.0
H870 H 0.1494 0.62241 0.35568 0.0
H871 H 0.11521 0.61896 0.42218 0.0
H872 H 0.13712 0.53191 0.46895 0.0
H873 H 0.14266 0.52147 0.5426 0.0
H874 H 0.16654 0.53243 0.49796 0.0
H875 H 0.17872 0.56322 0.57851 0.0
H876 H 0.15505 0.55202 0.62428 0.0
H877 H 0.15748 0.58311 0.60639 0.0
H878 H 0.08206 0.60414 0.48862 0.0
H879 H 0.05384 0.57958 0.54761 0.0
H880 H 0.11015 0.53528 0.60223 0.0
C881 C 0.16937 0.58057 0.4505 0.0
C882 C 0.16924 0.59595 0.40152 0.0
C883 C 0.14994 0.61057 0.39314 0.0
C884 C 0.13048 0.60879 0.43085 0.0
C885 C 0.1307 0.59246 0.47695 0.0
C886 C 0.14987 0.57885 0.48727 0.0
C887 C 0.14475 0.56022 0.53373 0.0
C888 C 0.14794 0.53505 0.5093 0.0
C889 C 0.1599 0.56494 0.58902 0.0
C890 C 0.11934 0.56459 0.54579 0.0
C891 C 0.11157 0.58358 0.5139 0.0
C892 C 0.0881 0.58955 0.51469 0.0
C893 C 0.07219 0.57551 0.54817 0.0
C894 C 0.07982 0.5555 0.5792 0.0
C895 C 0.10378 0.55046 0.5789 0.0
H896 H 0.05948 0.89391 0.02865 0.0
H897 H 0.0879 0.84381 0.90582 0.0
H898 H 0.10357 0.87696 0.84527 0.0
H899 H 0.03445 0.92505 0.9297 0.0
H900 H 0.03869 0.95395 0.96307 0.0
H901 H 0.03864 0.92809 0.00833 0.0
H902 H 0.0797 0.94084 0.04885 0.0
H903 H 0.07985 0.96696 0.00313 0.0
H904 H 0.10348 0.94687 0.99837 0.0
H905 H 0.10582 0.91311 0.78489 0.0
H906 H 0.09144 0.94692 0.72836 0.0
H907 H 0.05856 0.97343 0.88515 0.0
C908 C 0.06974 0.89 0.99003 0.0
C909 C 0.07239 0.86636 0.97173 0.0
C910 C 0.08591 0.86179 0.92115 0.0
C911 C 0.09493 0.88058 0.88653 0.0
C912 C 0.0904 0.90378 0.90333 0.0
C913 C 0.07821 0.90851 0.95442 0.0
C914 C 0.07078 0.93392 0.95626 0.0
C915 C 0.04408 0.9353 0.96473 0.0
C916 C 0.08427 0.94798 0.00451 0.0
C917 C 0.07842 0.94204 0.89554 0.0
C918 C 0.09089 0.92489 0.86696 0.0
C919 C 0.09682 0.92697 0.80743 0.0
C920 C 0.08867 0.94625 0.77562 0.0
C921 C 0.07446 0.96281 0.8033 0.0
C922 C 0.07018 0.96131 0.8642 0.0
H923 H 0.63441 0.10323 0.9712 0.0
H924 H 0.69129 0.08576 0.85357 0.0
H925 H 0.66433 0.08508 0.77094 0.0
H926 H 0.60035 0.05927 0.92422 0.0
H927 H 0.5726 0.07317 0.92975 0.0
H928 H 0.59665 0.08338 0.97527 0.0
H929 H 0.59312 0.12594 0.93481 0.0
H930 H 0.56879 0.11582 0.88913 0.0
H931 H 0.59384 0.13098 0.85631 0.0
H932 H 0.63179 0.07368 0.70759 0.0
H933 H 0.59668 0.05151 0.6713 0.0
H934 H 0.55911 0.07024 0.82895 0.0
C935 C 0.64151 0.09955 0.92823 0.0
C936 C 0.66535 0.09412 0.92068 0.0
C937 C 0.67351 0.09041 0.86234 0.0
C938 C 0.65811 0.08987 0.81423 0.0
C939 C 0.63442 0.09276 0.8245 0.0
C940 C 0.62609 0.09765 0.88016 0.0
C941 C 0.59962 0.0943 0.88242 0.0
C942 C 0.59188 0.07646 0.93071 0.0
C943 C 0.58817 0.11819 0.89117 0.0
C944 C 0.59467 0.08453 0.82105 0.0
C945 C 0.6149 0.08497 0.78752 0.0
C946 C 0.61571 0.07395 0.73255 0.0
C947 C 0.59574 0.06132 0.71236 0.0
C948 C 0.57529 0.05969 0.74709 0.0
C949 C 0.57439 0.07208 0.80101 0.0
H950 H 0.4298 0.62228 0.01031 0.0
H951 H 0.43506 0.67186 0.86368 0.0
H952 H 0.43146 0.63876 0.79483 0.0
H953 H 0.47175 0.58994 0.95732 0.0
H954 H 0.46064 0.56143 0.98281 0.0
H955 H 0.45285 0.58783 0.02079 0.0
H956 H 0.40888 0.57641 0.00585 0.0
H957 H 0.41661 0.54979 0.96763 0.0
H958 H 0.39772 0.57038 0.93261 0.0
H959 H 0.43781 0.60199 0.74174 0.0
H960 H 0.45769 0.56616 0.71071 0.0
H961 H 0.45641 0.54039 0.89031 0.0
C962 C 0.43004 0.62652 0.96389 0.0
C963 C 0.4332 0.65021 0.9436 0.0
C964 C 0.43231 0.65431 0.88184 0.0
C965 C 0.43032 0.63539 0.84175 0.0
C966 C 0.4296 0.61232 0.86352 0.0
C967 C 0.42956 0.6078 0.92336 0.0
C968 C 0.43473 0.58212 0.93585 0.0
C969 C 0.45627 0.58025 0.97652 0.0
C970 C 0.41319 0.56889 0.96202 0.0
C971 C 0.43959 0.57343 0.87397 0.0
C972 C 0.4352 0.59079 0.83271 0.0
C973 C 0.44072 0.58807 0.77335 0.0
C974 C 0.452 0.56768 0.7561 0.0
C975 C 0.45803 0.55053 0.79814 0.0
C976 C 0.45115 0.55299 0.85736 0.0
H977 H 0.85608 0.42913 0.85471 0.0
H978 H 0.88193 0.38672 0.99827 0.0
H979 H 0.91993 0.38462 0.94811 0.0
H980 H 0.89232 0.39936 0.73237 0.0
H981 H 0.89611 0.42747 0.69538 0.0
H982 H 0.8694 0.42033 0.73475 0.0
H983 H 0.87545 0.45905 0.79531 0.0
H984 H 0.90232 0.46603 0.75746 0.0
H985 H 0.90216 0.46409 0.83685 0.0
H986 H 0.9573 0.39741 0.89928 0.0
H987 H 0.98958 0.41827 0.84521 0.0
H988 H 0.93909 0.44862 0.72759 0.0
C989 C 0.86922 0.41822 0.87395 0.0
C990 C 0.86609 0.40831 0.93068 0.0
C991 C 0.88404 0.39474 0.95514 0.0
C992 C 0.90567 0.39334 0.92683 0.0
C993 C 0.90884 0.40493 0.87309 0.0
C994 C 0.89082 0.41637 0.84572 0.0
C995 C 0.89945 0.42965 0.79149 0.0
C996 C 0.88868 0.41853 0.73516 0.0
C997 C 0.89456 0.45626 0.79562 0.0
C998 C 0.92537 0.42543 0.79539 0.0
C999 C 0.93048 0.41097 0.84247 0.0
C1000 C 0.95351 0.40786 0.86071 0.0
C1001 C 0.97172 0.41987 0.83018 0.0
C1002 C 0.96673 0.43445 0.78155 0.0
C1003 C 0.94333 0.43679 0.76327 0.0
H1004 H 0.09244 0.15832 0.95115 0.0
H1005 H 0.03635 0.20486 0.908 0.0
H1006 H 0.02409 0.17811 0.82611 0.0
H1007 H 0.10485 0.13854 0.7978 0.0
H1008 H 0.11007 0.10875 0.82143 0.0
H1009 H 0.11666 0.13339 0.8703 0.0
H1010 H 0.09017 0.11378 0.95039 0.0
H1011 H 0.08342 0.08918 0.90182 0.0
H1012 H 0.06011 0.10574 0.93279 0.0
H1013 H 0.01449 0.1435 0.75851 0.0
H1014 H 0.00898 0.10469 0.70907 0.0
H1015 H 0.07128 0.08033 0.79579 0.0
C1016 C 0.07781 0.16315 0.92389 0.0
C1017 C 0.0654 0.18383 0.9362 0.0
C1018 C 0.04641 0.18942 0.89912 0.0
C1019 C 0.03923 0.17422 0.8526 0.0
C1020 C 0.05135 0.15357 0.84318 0.0
C1021 C 0.07041 0.14816 0.87744 0.0
C1022 C 0.07929 0.124 0.86138 0.0
C1023 C 0.1042 0.12632 0.83622 0.0
C1024 C 0.07817 0.10719 0.91476 0.0
C1025 C 0.06175 0.11624 0.8141 0.0
C1026 C 0.04592 0.13367 0.80385 0.0
C1027 C 0.02703 0.12994 0.76547 0.0
C1028 C 0.02401 0.10777 0.73766 0.0
C1029 C 0.03981 0.0895 0.74805 0.0
C1030 C 0.05919 0.09406 0.78593 0.0
H1031 H 0.38668 0.99678 0.02949 0.0
H1032 H 0.32926 0.02202 0.92492 0.0
H1033 H 0.35759 0.03563 0.84787 0.0
H1034 H 0.43274 0.0412 0.98421 0.0
H1035 H 0.45459 0.01909 0.98307 0.0
H1036 H 0.4305 0.01637 0.03401 0.0
H1037 H 0.41982 0.97441 0.9929 0.0
H1038 H 0.44372 0.97701 0.94183 0.0
H1039 H 0.41443 0.97062 0.91493 0.0
H1040 H 0.39279 0.04193 0.77674 0.0
H1041 H 0.42934 0.03801 0.71893 0.0
H1042 H 0.46167 0.00484 0.8687 0.0
C1043 C 0.38001 0.00559 0.99088 0.0
C1044 C 0.35571 0.00824 0.98311 0.0
C1045 C 0.3478 0.02 0.93213 0.0
C1046 C 0.3638 0.02769 0.88811 0.0
C1047 C 0.3876 0.0236 0.89604 0.0
C1048 C 0.39555 0.01283 0.94657 0.0
C1049 C 0.42123 0.00759 0.94246 0.0
C1050 C 0.43561 0.02192 0.98868 0.0
C1051 C 0.425 0.98083 0.94834 0.0
C1052 C 0.42652 0.0163 0.8808 0.0
C1053 C 0.4072 0.02611 0.85499 0.0
C1054 C 0.408 0.03452 0.797 0.0
C1055 C 0.42882 0.03233 0.76454 0.0
C1056 C 0.44825 0.02131 0.78976 0.0
C1057 C 0.4471 0.01356 0.84876 0.0
H1058 H 0.44383 0.34096 0.95381 0.0
H1059 H 0.50592 0.30091 0.92624 0.0
H1060 H 0.51915 0.32945 0.84991 0.0
H1061 H 0.43822 0.36471 0.79618 0.0
H1062 H 0.42922 0.39284 0.82404 0.0
H1063 H 0.42153 0.36593 0.86339 0.0
H1064 H 0.44077 0.38405 0.9576 0.0
H1065 H 0.44917 0.41068 0.91851 0.0
H1066 H 0.47109 0.39413 0.95579 0.0
H1067 H 0.53014 0.36676 0.7959 0.0
H1068 H 0.53584 0.40738 0.75795 0.0
H1069 H 0.46699 0.4244 0.82152 0.0
C1070 C 0.45966 0.33758 0.92962 0.0
C1071 C 0.47381 0.3186 0.94589 0.0
C1072 C 0.49456 0.31497 0.91387 0.0
C1073 C 0.50234 0.33131 0.87082 0.0
C1074 C 0.48899 0.35099 0.85967 0.0
C1075 C 0.46775 0.35389 0.88707 0.0
C1076 C 0.45821 0.37797 0.87303 0.0
C1077 C 0.43544 0.37519 0.837 0.0
C1078 C 0.45461 0.39255 0.92959 0.0
C1079 C 0.47795 0.38868 0.83602 0.0
C1080 C 0.4954 0.3727 0.82829 0.0
C1081 C 0.51634 0.37918 0.80041 0.0
C1082 C 0.51949 0.40245 0.77951 0.0
C1083 C 0.50184 0.41917 0.78649 0.0
C1084 C 0.48069 0.412 0.8147 0.0
H1085 H 0.19576 0.51076 0.92808 0.0
H1086 H 0.18673 0.44792 0.03602 0.0
H1087 H 0.15324 0.43412 0.97339 0.0
H1088 H 0.13788 0.52159 0.90838 0.0
H1089 H 0.13985 0.53115 0.83266 0.0
H1090 H 0.16501 0.53436 0.88026 0.0
H1091 H 0.18932 0.51018 0.80703 0.0
H1092 H 0.16427 0.50715 0.75865 0.0
H1093 H 0.17858 0.48115 0.78386 0.0
H1094 H 0.11632 0.43142 0.911 0.0
H1095 H 0.08228 0.4372 0.84517 0.0
H1096 H 0.11735 0.49977 0.77177 0.0
C1097 C 0.18724 0.49366 0.937 0.0
C1098 C 0.19396 0.48019 0.98626 0.0
C1099 C 0.18213 0.4582 0.99772 0.0
C1100 C 0.163 0.45034 0.96261 0.0
C1101 C 0.15627 0.46445 0.91547 0.0
C1102 C 0.16845 0.48536 0.90167 0.0
C1103 C 0.15698 0.49787 0.85068 0.0
C1104 C 0.14949 0.5227 0.86914 0.0
C1105 C 0.17326 0.49916 0.79686 0.0
C1106 C 0.13595 0.48126 0.83937 0.0
C1107 C 0.13576 0.46211 0.87736 0.0
C1108 C 0.11668 0.4459 0.87978 0.0
C1109 C 0.0974 0.44933 0.84247 0.0
C1110 C 0.09754 0.46852 0.80248 0.0
C1111 C 0.1172 0.48447 0.80053 0.0
H1112 H 0.00639 0.85107 0.34334 0.0
H1113 H 0.97329 0.79775 0.45641 0.0
H1114 H 0.97275 0.82737 0.53792 0.0
H1115 H 0.04194 0.88088 0.45199 0.0
H1116 H 0.03785 0.9097 0.4205 0.0
H1117 H 0.03659 0.88379 0.37395 0.0
H1118 H 0.99536 0.89453 0.33734 0.0
H1119 H 0.99644 0.92044 0.38387 0.0
H1120 H 0.97249 0.89886 0.39037 0.0
H1121 H 0.9759 0.86456 0.60695 0.0
H1122 H 0.9818 0.90418 0.65387 0.0
H1123 H 0.01005 0.93204 0.48958 0.0
C1124 C 0.99866 0.84549 0.38485 0.0
C1125 C 0.98943 0.82209 0.39291 0.0
C1126 C 0.98041 0.81555 0.44899 0.0
C1127 C 0.97996 0.83231 0.4954 0.0
C1128 C 0.98862 0.85546 0.48493 0.0
C1129 C 0.99778 0.86189 0.43072 0.0
C1130 C 0.00553 0.88777 0.42898 0.0
C1131 C 0.03205 0.89069 0.41824 0.0
C1132 C 0.99162 0.90119 0.38239 0.0
C1133 C 0.99926 0.89521 0.49073 0.0
C1134 C 0.98974 0.87643 0.52292 0.0
C1135 C 0.98323 0.87933 0.58179 0.0
C1136 C 0.98662 0.9019 0.6081 0.0
C1137 C 0.99614 0.92134 0.57529 0.0
C1138 C 1.0024 0.91774 0.51582 0.0
H1139 H 0.65471 0.97644 0.30439 0.0
H1140 H 0.71412 0.97934 0.42413 0.0
H1141 H 0.68738 0.97065 0.50776 0.0
H1142 H 0.61852 0.00811 0.39322 0.0
H1143 H 0.59183 0.99189 0.37336 0.0
H1144 H 0.61583 0.99367 0.32233 0.0
H1145 H 0.61583 0.94782 0.31671 0.0
H1146 H 0.59168 0.94589 0.36762 0.0
H1147 H 0.61819 0.9309 0.38367 0.0
H1148 H 0.65343 0.96707 0.57962 0.0
H1149 H 0.61602 0.96902 0.63287 0.0
H1150 H 0.57878 0.97041 0.46573 0.0
C1151 C 0.66223 0.97487 0.34806 0.0
C1152 C 0.68661 0.97865 0.35757 0.0
C1153 C 0.69561 0.97622 0.41544 0.0
C1154 C 0.6805 0.9714 0.46328 0.0
C1155 C 0.65644 0.96889 0.4525 0.0
C1156 C 0.64742 0.97038 0.39609 0.0
C1157 C 0.62088 0.96943 0.39647 0.0
C1158 C 0.61121 0.99212 0.36979 0.0
C1159 C 0.61107 0.94718 0.36421 0.0
C1160 C 0.61625 0.96794 0.46214 0.0
C1161 C 0.63696 0.96725 0.4937 0.0
C1162 C 0.63714 0.96726 0.55521 0.0
C1163 C 0.61572 0.96841 0.5851 0.0
C1164 C 0.59429 0.96977 0.55368 0.0
C1165 C 0.5947 0.96907 0.49127 0.0
H1166 H 0.55567 0.64146 0.34893 0.0
H1167 H 0.53209 0.69974 0.45453 0.0
H1168 H 0.53826 0.6763 0.54528 0.0
H1169 H 0.52386 0.59989 0.41809 0.0
H1170 H 0.54424 0.57643 0.41361 0.0
H1171 H 0.54533 0.59977 0.36003 0.0
H1172 H 0.58888 0.60951 0.38529 0.0
H1173 H 0.58813 0.58579 0.43843 0.0
H1174 H 0.59741 0.61537 0.46077 0.0
H1175 H 0.53929 0.64338 0.62177 0.0
H1176 H 0.53479 0.60523 0.67488 0.0
H1177 H 0.55474 0.56794 0.51652 0.0
C1178 C 0.5529 0.64968 0.39144 0.0
C1179 C 0.54368 0.67248 0.39493 0.0
C1180 C 0.53966 0.68252 0.45104 0.0
C1181 C 0.54297 0.66921 0.50273 0.0
C1182 C 0.55045 0.64602 0.49736 0.0
C1183 C 0.55565 0.63649 0.44288 0.0
C1184 C 0.55956 0.61018 0.44698 0.0
C1185 C 0.54221 0.59574 0.40737 0.0
C1186 C 0.58501 0.60491 0.43199 0.0
C1187 C 0.55459 0.606 0.51167 0.0
C1188 C 0.55002 0.62692 0.54055 0.0
C1189 C 0.54329 0.62702 0.59972 0.0
C1190 C 0.54077 0.60523 0.62958 0.0
C1191 C 0.54444 0.58358 0.59987 0.0
C1192 C 0.55193 0.58418 0.54056 0.0
H1193 H 0.85588 0.48221 0.42776 0.0
H1194 H 0.86115 0.55138 0.34634 0.0
H1195 H 0.89139 0.56419 0.41985 0.0
H1196 H 0.87061 0.50141 0.58554 0.0
H1197 H 0.88713 0.47523 0.59617 0.0
H1198 H 0.86183 0.47418 0.54839 0.0
H1199 H 0.88732 0.45851 0.46367 0.0
H1200 H 0.91274 0.46 0.51041 0.0
H1201 H 0.91307 0.47558 0.44107 0.0
H1202 H 0.92662 0.56638 0.49048 0.0
H1203 H 0.96158 0.55808 0.55113 0.0
H1204 H 0.93348 0.48669 0.5816 0.0
C1205 C 0.86253 0.50045 0.42751 0.0
C1206 C 0.85591 0.51599 0.38229 0.0
C1207 C 0.86555 0.53946 0.38167 0.0
C1208 C 0.88288 0.54676 0.42301 0.0
C1209 C 0.89017 0.53042 0.46484 0.0
C1210 C 0.87991 0.50783 0.46786 0.0
C1211 C 0.89279 0.49241 0.5106 0.0
C1212 C 0.87716 0.48541 0.56331 0.0
C1213 C 0.90202 0.47035 0.47955 0.0
C1214 C 0.91257 0.50939 0.52922 0.0
C1215 C 0.91064 0.53141 0.50358 0.0
C1216 C 0.928 0.54932 0.51157 0.0
C1217 C 0.94784 0.54446 0.546 0.0
C1218 C 0.95034 0.52172 0.571 0.0
C1219 C 0.93216 0.50427 0.56314 0.0
loop_
_geom_bond_atom_site_label_1
_geom_bond_atom_site_label_2
_geom_bond_distance
_geom_bond_site_symmetry_2
_ccdc_geom_bond_type
C0 C1 1.391 . S
C0 C4 1.391 . S
C0 H42 0.948 . S
C1 C0 1.391 . S
C1 C2 1.391 . S
C2 C1 1.391 . S
C2 H58 0.947 . S
C2 C59 1.392 . S
C3 C4 1.391 . S
C3 C7 1.397 . S
C3 C59 1.419 . S
C4 C0 1.391 . S
C4 C3 1.391 . S
C4 C5 1.399 . S
C5 C4 1.399 . S
C5 C8 1.396 . S
C5 C17 1.453 . S
C5 C18 1.684 . S
H6 C30 0.948 . S
C7 C3 1.397 . S
C7 C8 1.394 . S
C7 C26 1.723 . S
C8 C5 1.396 . S
C8 C7 1.394 . S
C8 C38 1.723 . S
H9 C32 0.947 . S
H10 C33 0.948 . S
H11 C39 0.982 . S
H12 C40 0.979 . S
H13 C40 0.980 . S
H14 C40 0.983 . S
H15 C39 0.979 . S
H16 C39 0.977 . S
C17 C5 1.453 . S
C17 H46 0.982 . S
C17 H47 0.979 . S
C17 H48 0.977 . S
C18 C5 1.684 . S
C18 H43 0.979 . S
C18 H44 0.980 . S
C18 H45 0.983 . S
C19 C20 1.391 . S
C19 C24 1.391 . S
C19 H49 0.948 . S
C20 C19 1.391 . S
C20 C21 1.391 . S
C21 C20 1.391 . S
C21 C22 1.392 . S
C21 H50 0.947 . S
C22 C21 1.392 . S
C22 C23 1.419 . S
C22 H51 0.948 . S
C23 C22 1.419 . S
C23 C24 1.391 . S
C23 C27 1.397 . S
C24 C19 1.391 . S
C24 C23 1.391 . S
C24 C25 1.399 1_556 S
C25 C24 1.399 1_554 S
C25 C26 1.396 . S
C25 C28 1.453 . S
C25 C29 1.684 . S
C26 C7 1.723 . S
C26 C25 1.396 . S
C26 C27 1.394 1_554 S
C27 C23 1.397 . S
C27 C26 1.394 1_556 S
C27 C37 1.723 . S
C28 C25 1.453 . S
C28 H52 0.982 . S
C28 H53 0.979 . S
C28 H54 0.977 . S
C29 C25 1.684 . S
C29 H55 0.979 . S
C29 H56 0.980 . S
C29 H57 0.983 . S
C30 H6 0.948 . S
C30 C31 1.391 . S
C30 C35 1.391 . S
C31 C30 1.391 . S
C31 C32 1.391 1_556 S
C32 H9 0.947 . S
C32 C31 1.391 1_554 S
C32 C33 1.392 . S
C33 H10 0.948 . S
C33 C32 1.392 . S
C33 C34 1.419 . S
C34 C33 1.419 . S
C34 C35 1.391 1_554 S
C34 C38 1.397 . S
C35 C30 1.391 . S
C35 C34 1.391 1_556 S
C35 C36 1.399 . S
C36 C35 1.399 . S
C36 C37 1.396 . S
C36 C39 1.453 . S
C36 C40 1.684 . S
C37 C27 1.723 . S
C37 C36 1.396 . S
C37 C38 1.394 1_556 S
C38 C8 1.723 . S
C38 C34 1.397 . S
C38 C37 1.394 1_554 S
C39 H11 0.982 . S
C39 H15 0.979 . S
C39 H16 0.977 . S
C39 C36 1.453 . S
C40 H12 0.979 . S
C40 H13 0.980 . S
C40 H14 0.983 . S
C40 C36 1.684 . S
H41 C59 0.948 . S
H42 C0 0.948 . S
H43 C18 0.979 . S
H44 C18 0.980 . S
H45 C18 0.983 . S
H46 C17 0.982 . S
H47 C17 0.979 . S
H48 C17 0.977 . S
H49 C19 0.948 . S
H50 C21 0.947 . S
H51 C22 0.948 . S
H52 C28 0.982 . S
H53 C28 0.979 . S
H54 C28 0.977 . S
H55 C29 0.979 . S
H56 C29 0.980 . S
H57 C29 0.983 . S
H58 C2 0.947 . S
C59 C2 1.392 . S
C59 C3 1.419 . S
C59 H41 0.948 . S
C60 C61 1.391 . S
C60 C64 1.391 . S
C60 H102 0.948 . S
C61 C60 1.391 . S
C61 C62 1.391 . S
C62 C61 1.391 . S
C62 H118 0.945 1_556 S
C62 C119 1.392 1_556 S
C63 C64 1.391 1_554 S
C63 C67 1.397 . S
C63 C119 1.419 . S
C64 C60 1.391 . S
C64 C63 1.391 1_556 S
C64 C65 1.399 . S
C65 C64 1.399 . S
C65 C68 1.396 1_556 S
C65 C77 1.453 1_655 S
C65 C78 1.684 . S
H66 C90 0.948 . S
C67 C63 1.397 . S
C67 C68 1.394 . S
C67 C86 1.723 . S
C68 C65 1.396 1_554 S
C68 C67 1.394 . S
C68 C98 1.723 . S
H69 C92 0.947 . S
H70 C93 0.948 . S
H71 C99 0.982 . S
H72 C100 0.979 . S
H73 C100 0.980 . S
H74 C100 0.983 . S
H75 C99 0.979 . S
H76 C99 0.977 . S
C77 C65 1.453 1_455 S
C77 H106 0.982 . S
C77 H107 0.979 . S
C77 H108 0.977 . S
C78 C65 1.684 . S
C78 H103 0.979 . S
C78 H104 0.980 . S
C78 H105 0.983 . S
C79 C80 1.391 . S
C79 C84 1.391 . S
C79 H109 0.948 . S
C80 C79 1.391 . S
C80 C81 1.391 . S
C81 C80 1.391 . S
C81 C82 1.392 . S
C81 H110 0.947 . S
C82 C81 1.392 . S
C82 C83 1.419 . S
C82 H111 0.948 . S
C83 C82 1.419 . S
C83 C84 1.391 . S
C83 C87 1.397 . S
C84 C79 1.391 . S
C84 C83 1.391 . S
C84 C85 1.399 . S
C85 C84 1.399 . S
C85 C86 1.396 . S
C85 C88 1.453 1_655 S
C85 C89 1.684 . S
C86 C67 1.723 . S
C86 C85 1.396 . S
C86 C87 1.394 . S
C87 C83 1.397 . S
C87 C86 1.394 . S
C87 C97 1.723 . S
C88 C85 1.453 1_455 S
C88 H112 0.982 . S
C88 H113 0.979 . S
C88 H114 0.977 . S
C89 C85 1.684 . S
C89 H115 0.979 . S
C89 H116 0.980 . S
C89 H117 0.983 . S
C90 H66 0.948 . S
C90 C91 1.391 . S
C90 C95 1.391 . S
C91 C90 1.391 . S
C91 C92 1.391 1_554 S
C92 H69 0.947 . S
C92 C91 1.391 1_556 S
C92 C93 1.392 . S
C93 H70 0.948 . S
C93 C92 1.392 . S
C93 C94 1.419 1_556 S
C94 C93 1.419 1_554 S
C94 C95 1.391 . S
C94 C98 1.397 . S
C95 C90 1.391 . S
C95 C94 1.391 . S
C95 C96 1.399 . S
C96 C95 1.399 . S
C96 C97 1.396 . S
C96 C99 1.453 1_655 S
C96 C100 1.684 . S
C97 C87 1.723 . S
C97 C96 1.396 . S
C97 C98 1.394 . S
C98 C68 1.723 . S
C98 C94 1.397 . S
C98 C97 1.394 . S
C99 H71 0.982 . S
C99 H75 0.979 . S
C99 H76 0.977 . S
C99 C96 1.453 1_455 S
C100 H72 0.979 . S
C100 H73 0.980 . S
C100 H74 0.983 . S
C100 C96 1.684 . S
H101 C119 0.948 . S
H102 C60 0.948 . S
H103 C78 0.979 . S
H104 C78 0.980 . S
H105 C78 0.983 . S
H106 C77 0.982 . S
H107 C77 0.979 . S
H108 C77 0.977 . S
H109 C79 0.948 . S
H110 C81 0.947 . S
H111 C82 0.948 . S
H112 C88 0.982 . S
H113 C88 0.979 . S
H114 C88 0.977 . S
H115 C89 0.979 . S
H116 C89 0.980 . S
H117 C89 0.983 . S
H118 C62 0.945 1_554 S
C119 C62 1.392 1_554 S
C119 C63 1.419 . S
C119 H101 0.948 . S
C120 C121 1.391 . S
C120 C124 1.391 . S
C120 H162 0.948 . S
C121 C120 1.391 . S
C121 C122 1.391 1_554 S
C122 C121 1.391 1_556 S
C122 H178 0.947 . S
C122 C179 1.392 . S
C123 C124 1.391 . S
C123 C127 1.396 . S
C123 C179 1.419 1_554 S
C124 C120 1.391 . S
C124 C123 1.391 . S
C124 C125 1.399 . S
C125 C124 1.399 . S
C125 C128 1.396 1_565 S
C125 C137 1.453 1_565 S
C125 C138 1.684 . S
H126 C150 0.948 . S
C127 C123 1.396 . S
C127 C128 1.394 1_565 S
C127 C146 1.723 1_564 S
C128 C125 1.396 1_545 S
C128 C127 1.394 1_545 S
C128 C158 1.723 . S
H129 C152 0.947 . S
H130 C153 0.948 . S
H131 C159 0.982 . S
H132 C160 0.979 . S
H133 C160 0.980 . S
H134 C160 0.983 . S
H135 C159 0.979 . S
H136 C159 0.977 . S
C137 C125 1.453 1_545 S
C137 H166 0.982 . S
C137 H167 0.979 . S
C137 H168 0.977 . S
C138 C125 1.684 . S
C138 H163 0.979 . S
C138 H164 0.980 . S
C138 H165 0.983 . S
C139 C140 1.391 . S
C139 C144 1.391 . S
C139 H169 0.948 . S
C140 C139 1.391 . S
C140 C141 1.391 . S
C141 C140 1.391 . S
C141 C142 1.392 . S
C141 H170 0.947 . S
C142 C141 1.392 . S
C142 C143 1.419 . S
C142 H171 0.948 1_556 S
C143 C142 1.419 . S
C143 C144 1.391 . S
C143 C147 1.397 1_566 S
C144 C139 1.391 . S
C144 C143 1.391 . S
C144 C145 1.399 . S
C145 C144 1.399 . S
C145 C146 1.396 1_565 S
C145 C148 1.453 1_565 S
C145 C149 1.684 . S
C146 C127 1.723 1_546 S
C146 C145 1.396 1_545 S
C146 C147 1.394 1_556 S
C147 C143 1.397 1_544 S
C147 C146 1.394 1_554 S
C147 C157 1.723 . S
C148 C145 1.453 1_545 S
C148 H172 0.982 . S
C148 H173 0.979 . S
C148 H174 0.977 . S
C149 C145 1.684 . S
C149 H175 0.979 . S
C149 H176 0.980 . S
C149 H177 0.983 . S
C150 H126 0.948 . S
C150 C151 1.391 . S
C150 C155 1.391 . S
C151 C150 1.391 . S
C151 C152 1.391 . S
C152 H129 0.947 . S
C152 C151 1.391 . S
C152 C153 1.392 . S
C153 H130 0.948 . S
C153 C152 1.392 . S
C153 C154 1.419 . S
C154 C153 1.419 . S
C154 C155 1.391 . S
C154 C158 1.397 1_565 S
C155 C150 1.391 . S
C155 C154 1.391 . S
C155 C156 1.399 . S
C156 C155 1.399 . S
C156 C157 1.396 1_565 S
C156 C159 1.453 1_565 S
C156 C160 1.684 . S
C157 C147 1.723 . S
C157 C156 1.396 1_545 S
C157 C158 1.394 . S
C158 C128 1.723 . S
C158 C154 1.397 1_545 S
C158 C157 1.394 . S
C159 H131 0.982 . S
C159 H135 0.979 . S
C159 H136 0.977 . S
C159 C156 1.453 1_545 S
C160 H132 0.979 . S
C160 H133 0.980 . S
C160 H134 0.983 . S
C160 C156 1.684 . S
H161 C179 0.948 . S
H162 C120 0.948 . S
H163 C138 0.979 . S
H164 C138 0.980 . S
H165 C138 0.983 . S
H166 C137 0.982 . S
H167 C137 0.979 . S
H168 C137 0.977 . S
H169 C139 0.948 . S
H170 C141 0.947 . S
H171 C142 0.948 1_554 S
H172 C148 0.982 . S
H173 C148 0.979 . S
H174 C148 0.977 . S
H175 C149 0.979 . S
H176 C149 0.980 . S
H177 C149 0.983 . S
H178 C122 0.947 . S
C179 C122 1.392 . S
C179 C123 1.419 1_556 S
C179 H161 0.948 . S
C180 C181 1.391 . S
C180 C184 1.391 . S
C180 H222 0.948 . S
C181 C180 1.391 . S
C181 C182 1.391 . S
C182 C181 1.391 . S
C182 H238 0.947 . S
C182 C239 1.392 . S
C183 C184 1.391 . S
C183 C187 1.397 . S
C183 C239 1.419 . S
C184 C180 1.391 . S
C184 C183 1.391 . S
C184 C185 1.399 . S
C185 C184 1.399 . S
C185 C188 1.396 . S
C185 C197 1.453 . S
C185 C198 1.684 . S
H186 C210 0.948 . S
C187 C183 1.397 . S
C187 C188 1.394 . S
C187 C206 1.723 . S
C188 C185 1.396 . S
C188 C187 1.394 . S
C188 C218 1.723 . S
H189 C212 0.947 . S
H190 C213 0.948 . S
H191 C219 0.982 . S
H192 C220 0.979 . S
H193 C220 0.980 . S
H194 C220 0.983 . S
H195 C219 0.979 . S
H196 C219 0.977 . S
C197 C185 1.453 . S
C197 H226 0.982 . S
C197 H227 0.979 . S
C197 H228 0.977 . S
C198 C185 1.684 . S
C198 H223 0.979 . S
C198 H224 0.980 . S
C198 H225 0.983 . S
C199 C200 1.391 . S
C199 C204 1.391 . S
C199 H229 0.948 . S
C200 C199 1.391 . S
C200 C201 1.391 . S
C201 C200 1.391 . S
C201 C202 1.392 . S
C201 H230 0.947 . S
C202 C201 1.392 . S
C202 C203 1.419 . S
C202 H231 0.948 . S
C203 C202 1.419 . S
C203 C204 1.391 . S
C203 C207 1.397 . S
C204 C199 1.391 . S
C204 C203 1.391 . S
C204 C205 1.399 1_556 S
C205 C204 1.399 1_554 S
C205 C206 1.396 . S
C205 C208 1.453 . S
C205 C209 1.684 . S
C206 C187 1.723 . S
C206 C205 1.396 . S
C206 C207 1.394 1_554 S
C207 C203 1.397 . S
C207 C206 1.394 1_556 S
C207 C217 1.723 . S
C208 C205 1.453 . S
C208 H232 0.982 . S
C208 H233 0.979 . S
C208 H234 0.977 . S
C209 C205 1.684 . S
C209 H235 0.979 . S
C209 H236 0.980 . S
C209 H237 0.983 . S
C210 H186 0.948 . S
C210 C211 1.391 1_556 S
C210 C215 1.391 . S
C211 C210 1.391 1_554 S
C211 C212 1.391 . S
C212 H189 0.947 . S
C212 C211 1.391 . S
C212 C213 1.392 . S
C213 H190 0.948 . S
C213 C212 1.392 . S
C213 C214 1.419 . S
C214 C213 1.419 . S
C214 C215 1.391 1_554 S
C214 C218 1.397 . S
C215 C210 1.391 . S
C215 C214 1.391 1_556 S
C215 C216 1.399 . S
C216 C215 1.399 . S
C216 C217 1.396 . S
C216 C219 1.453 . S
C216 C220 1.684 . S
C217 C207 1.723 . S
C217 C216 1.396 . S
C217 C218 1.394 1_556 S
C218 C188 1.723 . S
C218 C214 1.397 . S
C218 C217 1.394 1_554 S
C219 H191 0.982 . S
C219 H195 0.979 . S
C219 H196 0.977 . S
C219 C216 1.453 . S
C220 H192 0.979 . S
C220 H193 0.980 . S
C220 H194 0.983 . S
C220 C216 1.684 . S
H221 C239 0.948 . S
H222 C180 0.948 . S
H223 C198 0.979 . S
H224 C198 0.980 . S
H225 C198 0.983 . S
H226 C197 0.982 . S
H227 C197 0.979 . S
H228 C197 0.977 . S
H229 C199 0.948 . S
H230 C201 0.947 . S
H231 C202 0.948 . S
H232 C208 0.982 . S
H233 C208 0.979 . S
H234 C208 0.977 . S
H235 C209 0.979 . S
H236 C209 0.980 . S
H237 C209 0.983 . S
H238 C182 0.947 . S
C239 C182 1.392 . S
C239 C183 1.419 . S
C239 H221 0.948 . S
C240 C241 1.391 . S
C240 C244 1.391 . S
C240 H282 0.948 . S
C241 C240 1.391 . S
C241 C242 1.391 . S
C242 C241 1.391 . S
C242 H298 0.947 . S
C242 C299 1.392 . S
C243 C244 1.391 . S
C243 C247 1.397 . S
C243 C299 1.419 . S
C244 C240 1.391 . S
C244 C243 1.391 . S
C244 C245 1.399 . S
C245 C244 1.399 . S
C245 C248 1.396 . S
C245 C257 1.453 . S
C245 C258 1.684 . S
H246 C270 0.948 . S
C247 C243 1.397 . S
C247 C248 1.394 . S
C247 C266 1.723 . S
C248 C245 1.396 . S
C248 C247 1.394 . S
C248 C278 1.723 . S
H249 C272 0.947 1_556 S
H250 C273 0.948 . S
H251 C279 0.982 . S
H252 C280 0.979 . S
H253 C280 0.980 . S
H254 C280 0.983 . S
H255 C279 0.979 . S
H256 C279 0.977 . S
C257 C245 1.453 . S
C257 H286 0.982 . S
C257 H287 0.979 . S
C257 H288 0.977 . S
C258 C245 1.684 . S
C258 H283 0.979 . S
C258 H284 0.980 . S
C258 H285 0.983 . S
C259 C260 1.391 . S
C259 C264 1.391 . S
C259 H289 0.948 . S
C260 C259 1.391 . S
C260 C261 1.391 . S
C261 C260 1.391 . S
C261 C262 1.392 . S
C261 H290 0.947 . S
C262 C261 1.392 . S
C262 C263 1.419 . S
C262 H291 0.948 . S
C263 C262 1.419 . S
C263 C264 1.391 . S
C263 C267 1.397 . S
C264 C259 1.391 . S
C264 C263 1.391 . S
C264 C265 1.399 . S
C265 C264 1.399 . S
C265 C266 1.396 . S
C265 C268 1.453 . S
C265 C269 1.684 . S
C266 C247 1.723 . S
C266 C265 1.396 . S
C266 C267 1.394 . S
C267 C263 1.397 . S
C267 C266 1.394 . S
C267 C277 1.723 . S
C268 C265 1.453 . S
C268 H292 0.982 . S
C268 H293 0.979 . S
C268 H294 0.977 . S
C269 C265 1.684 . S
C269 H295 0.979 . S
C269 H296 0.980 . S
C269 H297 0.983 . S
C270 H246 0.948 . S
C270 C271 1.391 . S
C270 C275 1.391 . S
C271 C270 1.391 . S
C271 C272 1.391 . S
C272 H249 0.947 1_554 S
C272 C271 1.391 . S
C272 C273 1.392 . S
C273 H250 0.948 . S
C273 C272 1.392 . S
C273 C274 1.419 . S
C274 C273 1.419 . S
C274 C275 1.391 . S
C274 C278 1.397 . S
C275 C270 1.391 . S
C275 C274 1.391 . S
C275 C276 1.399 . S
C276 C275 1.399 . S
C276 C277 1.396 . S
C276 C279 1.453 . S
C276 C280 1.684 . S
C277 C267 1.723 . S
C277 C276 1.396 . S
C277 C278 1.394 . S
C278 C248 1.723 . S
C278 C274 1.397 . S
C278 C277 1.394 . S
C279 H251 0.982 . S
C279 H255 0.979 . S
C279 H256 0.977 . S
C279 C276 1.453 . S
C280 H252 0.979 . S
C280 H253 0.980 . S
C280 H254 0.983 . S
C280 C276 1.684 . S
H281 C299 0.948 . S
H282 C240 0.948 . S
H283 C258 0.979 . S
H284 C258 0.980 . S
H285 C258 0.983 . S
H286 C257 0.982 . S
H287 C257 0.979 . S
H288 C257 0.977 . S
H289 C259 0.948 . S
H290 C261 0.947 . S
H291 C262 0.948 . S
H292 C268 0.982 . S
H293 C268 0.979 . S
H294 C268 0.977 . S
H295 C269 0.979 . S
H296 C269 0.980 . S
H297 C269 0.983 . S
H298 C242 0.947 . S
C299 C242 1.392 . S
C299 C243 1.419 . S
C299 H281 0.948 . S
C300 C301 1.391 . S
C300 C304 1.391 . S
C300 H342 0.948 . S
C301 C300 1.391 . S
C301 C302 1.391 . S
C302 C301 1.391 . S
C302 H358 0.947 . S
C302 C359 1.392 . S
C303 C304 1.391 . S
C303 C307 1.397 . S
C303 C359 1.419 . S
C304 C300 1.391 . S
C304 C303 1.391 . S
C304 C305 1.399 . S
C305 C304 1.399 . S
C305 C308 1.396 . S
C305 C317 1.453 . S
C305 C318 1.684 . S
H306 C330 0.948 . S
C307 C303 1.397 . S
C307 C308 1.394 . S
C307 C326 1.723 . S
C308 C305 1.396 . S
C308 C307 1.394 . S
C308 C338 1.723 . S
H309 C332 0.947 . S
H310 C333 0.948 . S
H311 C339 0.982 . S
H312 C340 0.979 . S
H313 C340 0.980 . S
H314 C340 0.983 . S
H315 C339 0.979 . S
H316 C339 0.977 . S
C317 C305 1.453 . S
C317 H346 0.982 . S
C317 H347 0.979 . S
C317 H348 0.977 . S
C318 C305 1.684 . S
C318 H343 0.979 . S
C318 H344 0.980 . S
C318 H345 0.983 . S
C319 C320 1.391 . S
C319 C324 1.391 . S
C319 H349 0.948 . S
C320 C319 1.391 . S
C320 C321 1.391 . S
C321 C320 1.391 . S
C321 C322 1.392 . S
C321 H350 0.947 . S
C322 C321 1.392 . S
C322 C323 1.419 . S
C322 H351 0.948 . S
C323 C322 1.419 . S
C323 C324 1.391 . S
C323 C327 1.397 . S
C324 C319 1.391 . S
C324 C323 1.391 . S
C324 C325 1.399 . S
C325 C324 1.399 . S
C325 C326 1.396 . S
C325 C328 1.453 . S
C325 C329 1.684 . S
C326 C307 1.723 . S
C326 C325 1.396 . S
C326 C327 1.394 . S
C327 C323 1.397 . S
C327 C326 1.394 . S
C327 C337 1.723 . S
C328 C325 1.453 . S
C328 H352 0.982 . S
C328 H353 0.979 . S
C328 H354 0.977 . S
C329 C325 1.684 . S
C329 H355 0.979 . S
C329 H356 0.980 . S
C329 H357 0.983 . S
C330 H306 0.948 . S
C330 C331 1.391 . S
C330 C335 1.391 . S
C331 C330 1.391 . S
C331 C332 1.391 . S
C332 H309 0.947 . S
C332 C331 1.391 . S
C332 C333 1.392 . S
C333 H310 0.948 . S
C333 C332 1.392 . S
C333 C334 1.419 . S
C334 C333 1.419 . S
C334 C335 1.391 . S
C334 C338 1.397 . S
C335 C330 1.391 . S
C335 C334 1.391 . S
C335 C336 1.399 . S
C336 C335 1.399 . S
C336 C337 1.396 . S
C336 C339 1.453 . S
C336 C340 1.684 . S
C337 C327 1.723 . S
C337 C336 1.396 . S
C337 C338 1.394 . S
C338 C308 1.723 . S
C338 C334 1.397 . S
C338 C337 1.394 . S
C339 H311 0.982 . S
C339 H315 0.979 . S
C339 H316 0.977 . S
C339 C336 1.453 . S
C340 H312 0.979 . S
C340 H313 0.980 . S
C340 H314 0.983 . S
C340 C336 1.684 . S
H341 C359 0.948 . S
H342 C300 0.948 . S
H343 C318 0.979 . S
H344 C318 0.980 . S
H345 C318 0.983 . S
H346 C317 0.982 . S
H347 C317 0.979 . S
H348 C317 0.977 . S
H349 C319 0.948 . S
H350 C321 0.947 . S
H351 C322 0.948 . S
H352 C328 0.982 . S
H353 C328 0.979 . S
H354 C328 0.977 . S
H355 C329 0.979 . S
H356 C329 0.980 . S
H357 C329 0.983 . S
H358 C302 0.947 . S
C359 C302 1.392 . S
C359 C303 1.419 . S
C359 H341 0.948 . S
C360 C361 1.391 . S
C360 C364 1.391 . S
C360 H402 0.948 . S
C361 C360 1.391 . S
C361 C362 1.391 . S
C362 C361 1.391 . S
C362 H418 0.947 . S
C362 C419 1.392 . S
C363 C364 1.391 . S
C363 C367 1.397 1_545 S
C363 C419 1.419 . S
C364 C360 1.391 . S
C364 C363 1.391 . S
C364 C365 1.399 . S
C365 C364 1.399 . S
C365 C368 1.396 1_545 S
C365 C377 1.453 1_545 S
C365 C378 1.684 . S
H366 C390 0.948 . S
C367 C363 1.397 1_565 S
C367 C368 1.394 . S
C367 C386 1.723 . S
C368 C365 1.396 1_565 S
C368 C367 1.394 . S
C368 C398 1.723 . S
H369 C392 0.947 . S
H370 C393 0.948 . S
H371 C399 0.982 . S
H372 C400 0.979 . S
H373 C400 0.980 . S
H374 C400 0.983 . S
H375 C399 0.979 . S
H376 C399 0.977 . S
C377 C365 1.453 1_565 S
C377 H406 0.982 . S
C377 H407 0.979 . S
C377 H408 0.977 . S
C378 C365 1.684 . S
C378 H403 0.979 . S
C378 H404 0.980 . S
C378 H405 0.983 . S
C379 C380 1.391 . S
C379 C384 1.391 . S
C379 H409 0.948 . S
C380 C379 1.391 . S
C380 C381 1.391 . S
C381 C380 1.391 . S
C381 C382 1.392 . S
C381 H410 0.947 . S
C382 C381 1.392 . S
C382 C383 1.419 . S
C382 H411 0.948 . S
C383 C382 1.419 . S
C383 C384 1.391 . S
C383 C387 1.397 1_545 S
C384 C379 1.391 . S
C384 C383 1.391 . S
C384 C385 1.399 . S
C385 C384 1.399 . S
C385 C386 1.396 1_545 S
C385 C388 1.453 1_545 S
C385 C389 1.684 . S
C386 C367 1.723 . S
C386 C385 1.396 1_565 S
C386 C387 1.394 . S
C387 C383 1.397 1_565 S
C387 C386 1.394 . S
C387 C397 1.723 . S
C388 C385 1.453 1_565 S
C388 H412 0.982 . S
C388 H413 0.979 . S
C388 H414 0.977 . S
C389 C385 1.684 . S
C389 H415 0.979 . S
C389 H416 0.980 . S
C389 H417 0.983 . S
C390 H366 0.948 . S
C390 C391 1.391 . S
C390 C395 1.391 . S
C391 C390 1.391 . S
C391 C392 1.391 . S
C392 H369 0.947 . S
C392 C391 1.391 . S
C392 C393 1.392 . S
C393 H370 0.948 . S
C393 C392 1.392 . S
C393 C394 1.419 . S
C394 C393 1.419 . S
C394 C395 1.391 . S
C394 C398 1.397 1_545 S
C395 C390 1.391 . S
C395 C394 1.391 . S
C395 C396 1.399 . S
C396 C395 1.399 . S
C396 C397 1.396 1_545 S
C396 C399 1.453 1_545 S
C396 C400 1.684 . S
C397 C387 1.723 . S
C397 C396 1.396 1_565 S
C397 C398 1.394 . S
C398 C368 1.723 . S
C398 C394 1.397 1_565 S
C398 C397 1.394 . S
C399 H371 0.982 . S
C399 H375 0.979 . S
C399 H376 0.977 . S
C399 C396 1.453 1_565 S
C400 H372 0.979 . S
C400 H373 0.980 . S
C400 H374 0.983 . S
C400 C396 1.684 . S
H401 C419 0.948 . S
H402 C360 0.948 . S
H403 C378 0.979 . S
H404 C378 0.980 . S
H405 C378 0.983 . S
H406 C377 0.982 . S
H407 C377 0.979 . S
H408 C377 0.977 . S
H409 C379 0.948 . S
H410 C381 0.947 . S
H411 C382 0.948 . S
H412 C388 0.982 . S
H413 C388 0.979 . S
H414 C388 0.977 . S
H415 C389 0.979 . S
H416 C389 0.980 . S
H417 C389 0.983 . S
H418 C362 0.947 . S
C419 C362 1.392 . S
C419 C363 1.419 . S
C419 H401 0.948 . S
C420 C421 1.391 . S
C420 C424 1.391 . S
C420 H462 0.948 . S
C421 C420 1.391 . S
C421 C422 1.391 . S
C422 C421 1.391 . S
C422 H478 0.947 . S
C422 C479 1.392 . S
C423 C424 1.391 . S
C423 C427 1.397 . S
C423 C479 1.419 . S
C424 C420 1.391 . S
C424 C423 1.391 . S
C424 C425 1.399 . S
C425 C424 1.399 . S
C425 C428 1.396 . S
C425 C437 1.453 . S
C425 C438 1.684 . S
H426 C450 0.948 . S
C427 C423 1.397 . S
C427 C428 1.394 . S
C427 C446 1.723 . S
C428 C425 1.396 . S
C428 C427 1.394 . S
C428 C458 1.723 . S
H429 C452 0.947 . S
H430 C453 0.948 . S
H431 C459 0.982 . S
H432 C460 0.979 . S
H433 C460 0.980 . S
H434 C460 0.983 . S
H435 C459 0.979 . S
H436 C459 0.977 . S
C437 C425 1.453 . S
C437 H466 0.982 . S
C437 H467 0.979 . S
C437 H468 0.977 . S
C438 C425 1.684 . S
C438 H463 0.979 . S
C438 H464 0.980 . S
C438 H465 0.983 . S
C439 C440 1.391 . S
C439 C444 1.391 . S
C439 H469 0.948 . S
C440 C439 1.391 . S
C440 C441 1.391 . S
C441 C440 1.391 . S
C441 C442 1.392 . S
C441 H470 0.947 . S
C442 C441 1.392 . S
C442 C443 1.419 . S
C442 H471 0.948 . S
C443 C442 1.419 . S
C443 C444 1.391 . S
C443 C447 1.397 . S
C444 C439 1.391 . S
C444 C443 1.391 . S
C444 C445 1.399 . S
C445 C444 1.399 . S
C445 C446 1.396 . S
C445 C448 1.453 . S
C445 C449 1.684 . S
C446 C427 1.723 . S
C446 C445 1.396 . S
C446 C447 1.394 . S
C447 C443 1.397 . S
C447 C446 1.394 . S
C447 C457 1.723 . S
C448 C445 1.453 . S
C448 H472 0.982 . S
C448 H473 0.979 . S
C448 H474 0.977 . S
C449 C445 1.684 . S
C449 H475 0.979 . S
C449 H476 0.980 . S
C449 H477 0.983 . S
C450 H426 0.948 . S
C450 C451 1.391 . S
C450 C455 1.391 . S
C451 C450 1.391 . S
C451 C452 1.391 . S
C452 H429 0.947 . S
C452 C451 1.391 . S
C452 C453 1.392 . S
C453 H430 0.948 . S
C453 C452 1.392 . S
C453 C454 1.419 . S
C454 C453 1.419 . S
C454 C455 1.391 . S
C454 C458 1.397 . S
C455 C450 1.391 . S
C455 C454 1.391 . S
C455 C456 1.399 . S
C456 C455 1.399 . S
C456 C457 1.396 . S
C456 C459 1.453 . S
C456 C460 1.684 . S
C457 C447 1.723 . S
C457 C456 1.396 . S
C457 C458 1.394 . S
C458 C428 1.723 . S
C458 C454 1.397 . S
C458 C457 1.394 . S
C459 H431 0.982 . S
C459 H435 0.979 . S
C459 H436 0.977 . S
C459 C456 1.453 . S
C460 H432 0.979 . S
C460 H433 0.980 . S
C460 H434 0.983 . S
C460 C456 1.684 . S
H461 C479 0.948 . S
H462 C420 0.948 . S
H463 C438 0.979 . S
H464 C438 0.980 . S
H465 C438 0.983 . S
H466 C437 0.982 . S
H467 C437 0.979 . S
H468 C437 0.977 . S
H469 C439 0.948 . S
H470 C441 0.947 . S
H471 C442 0.948 . S
H472 C448 0.982 . S
H473 C448 0.979 . S
H474 C448 0.977 . S
H475 C449 0.979 . S
H476 C449 0.980 . S
H477 C449 0.983 . S
H478 C422 0.947 . S
C479 C422 1.392 . S
C479 C423 1.419 . S
C479 H461 0.948 . S
O480 Zn481 1.952 . S
O480 C496 1.237 . S
Zn481 O480 1.952 . S
Zn481 O482 1.950 . S
Zn481 O488 1.919 1_565 S
Zn481 O493 1.924 . S
O482 Zn481 1.950 . S
O482 Zn483 1.902 1_565 S
O482 Zn484 1.953 . S
O482 Zn485 1.962 . S
Zn483 O482 1.902 1_545 S
Zn483 O486 1.933 1_455 S
Zn483 O489 1.941 . S
Zn483 O490 1.965 . S
Zn484 O482 1.953 . S
Zn484 O491 1.938 1_565 S
Zn484 O492 1.906 . S
Zn484 O502 1.953 . S
Zn485 O482 1.962 . S
Zn485 O487 1.932 1_455 S
Zn485 O494 1.977 . S
Zn485 O495 1.910 . S
O486 Zn483 1.933 1_655 S
O486 C497 1.226 . S
O487 Zn485 1.932 1_655 S
O487 C497 1.307 1_565 S
O488 Zn481 1.919 1_545 S
O488 C499 1.253 . S
O489 Zn483 1.941 . S
O489 C499 1.283 . S
O490 Zn483 1.965 . S
O490 C498 1.303 . S
O491 Zn484 1.938 1_545 S
O491 C498 1.247 . S
O492 Zn484 1.906 . S
O492 C500 1.304 . S
O493 Zn481 1.924 . S
O493 C501 1.311 . S
O494 Zn485 1.977 . S
O494 C500 1.272 . S
O495 Zn485 1.910 . S
O495 C501 1.231 . S
C496 O480 1.237 . S
C496 O502 1.298 . S
C497 O486 1.226 . S
C497 O487 1.307 1_545 S
C498 O490 1.303 . S
C498 O491 1.247 . S
C499 O488 1.253 . S
C499 O489 1.283 . S
C500 O492 1.304 . S
C500 O494 1.272 . S
C501 O493 1.311 . S
C501 O495 1.231 . S
O502 Zn484 1.953 . S
O502 C496 1.298 . S
O503 Zn504 1.953 . S
O503 C519 1.225 . S
Zn504 O503 1.953 . S
Zn504 O505 1.949 . S
Zn504 O511 1.919 . S
Zn504 O516 1.924 . S
O505 Zn504 1.949 . S
O505 Zn506 1.923 1_545 S
O505 Zn507 1.950 . S
O505 Zn508 1.945 1_545 S
Zn506 O505 1.923 1_565 S
Zn506 O509 1.933 . S
Zn506 O512 1.941 . S
Zn506 O513 1.965 . S
Zn507 O505 1.950 . S
Zn507 O514 1.938 . S
Zn507 O515 1.887 1_545 S
Zn507 O525 1.953 . S
Zn508 O505 1.945 1_565 S
Zn508 O510 1.932 . S
Zn508 O517 1.977 . S
Zn508 O518 1.910 1_565 S
O509 Zn506 1.933 . S
O509 C520 1.226 . S
O510 Zn508 1.932 . S
O510 C520 1.307 . S
O511 Zn504 1.919 . S
O511 C522 1.253 . S
O512 Zn506 1.941 . S
O512 C522 1.283 1_565 S
O513 Zn506 1.965 . S
O513 C521 1.303 . S
O514 Zn507 1.938 . S
O514 C521 1.247 1_545 S
O515 Zn507 1.887 1_565 S
O515 C523 1.331 . S
O516 Zn504 1.924 . S
O516 C524 1.311 . S
O517 Zn508 1.977 . S
O517 C523 1.272 . S
O518 Zn508 1.910 1_545 S
O518 C524 1.231 . S
C519 O503 1.225 . S
C519 O525 1.298 . S
C520 O509 1.226 . S
C520 O510 1.307 . S
C521 O513 1.303 . S
C521 O514 1.247 1_565 S
C522 O511 1.253 . S
C522 O512 1.283 1_545 S
C523 O515 1.331 . S
C523 O517 1.272 . S
C524 O516 1.311 . S
C524 O518 1.231 . S
O525 Zn507 1.953 . S
O525 C519 1.298 . S
O526 Zn527 1.953 . S
O526 C542 1.225 . S
Zn527 O526 1.953 . S
Zn527 O528 1.949 . S
Zn527 O534 1.919 . S
Zn527 O539 1.924 . S
O528 Zn527 1.949 . S
O528 Zn529 1.923 . S
O528 Zn530 1.950 . S
O528 Zn531 1.945 . S
Zn529 O528 1.923 . S
Zn529 O532 1.933 . S
Zn529 O535 1.941 . S
Zn529 O536 1.965 . S
Zn530 O528 1.950 . S
Zn530 O537 1.938 . S
Zn530 O538 1.906 . S
Zn530 O548 1.953 . S
Zn531 O528 1.945 . S
Zn531 O533 1.932 . S
Zn531 O540 1.977 . S
Zn531 O541 1.910 . S
O532 Zn529 1.933 . S
O532 C543 1.226 . S
O533 Zn531 1.932 . S
O533 C543 1.307 . S
O534 Zn527 1.919 . S
O534 C545 1.253 . S
O535 Zn529 1.941 . S
O535 C545 1.283 . S
O536 Zn529 1.965 . S
O536 C544 1.303 . S
O537 Zn530 1.938 . S
O537 C544 1.247 . S
O538 Zn530 1.906 . S
O538 C546 1.304 . S
O539 Zn527 1.924 . S
O539 C547 1.311 . S
O540 Zn531 1.977 . S
O540 C546 1.272 . S
O541 Zn531 1.910 . S
O541 C547 1.231 . S
C542 O526 1.225 . S
C542 O548 1.298 . S
C543 O532 1.226 . S
C543 O533 1.307 . S
C544 O536 1.303 . S
C544 O537 1.247 . S
C545 O534 1.253 . S
C545 O535 1.283 . S
C546 O538 1.304 . S
C546 O540 1.272 . S
C547 O539 1.311 . S
C547 O541 1.231 . S
O548 Zn530 1.953 . S
O548 C542 1.298 . S
O549 Zn550 1.953 1_655 S
O549 C565 1.225 . S
Zn550 O549 1.953 1_455 S
Zn550 O551 1.949 . S
Zn550 O557 1.919 . S
Zn550 O562 1.924 . S
O551 Zn550 1.949 . S
O551 Zn552 1.923 . S
O551 Zn553 1.950 1_455 S
O551 Zn554 1.945 . S
Zn552 O551 1.923 . S
Zn552 O555 1.933 . S
Zn552 O558 1.945 . S
Zn552 O559 1.965 1_455 S
Zn553 O551 1.950 1_655 S
Zn553 O560 1.938 . S
Zn553 O561 1.906 1_655 S
Zn553 O571 1.953 . S
Zn554 O551 1.945 . S
Zn554 O556 1.932 . S
Zn554 O563 1.977 . S
Zn554 O564 1.910 . S
O555 Zn552 1.933 . S
O555 C566 1.226 . S
O556 Zn554 1.932 . S
O556 C566 1.307 . S
O557 Zn550 1.919 . S
O557 C568 1.253 . S
O558 Zn552 1.945 . S
O558 C568 1.286 . S
O559 Zn552 1.965 1_655 S
O559 C567 1.303 . S
O560 Zn553 1.938 . S
O560 C567 1.247 . S
O561 Zn553 1.906 1_455 S
O561 C569 1.304 . S
O562 Zn550 1.924 . S
O562 C570 1.311 . S
O563 Zn554 1.977 . S
O563 C569 1.272 . S
O564 Zn554 1.910 . S
O564 C570 1.231 . S
C565 O549 1.225 . S
C565 O571 1.298 . S
C566 O555 1.226 . S
C566 O556 1.307 . S
C567 O559 1.303 . S
C567 O560 1.247 . S
C568 O557 1.253 . S
C568 O558 1.286 . S
C569 O561 1.304 . S
C569 O563 1.272 . S
C570 O562 1.311 . S
C570 O564 1.231 . S
O571 Zn553 1.953 . S
O571 C565 1.298 . S
H572 C584 0.930 . S
H573 C586 0.930 . S
H574 C587 0.930 . S
H575 C591 0.959 . S
H576 C591 0.959 . S
H577 C591 0.961 . S
H578 C592 0.960 . S
H579 C592 0.961 . S
H580 C592 0.959 . S
H581 C595 0.929 . S
H582 C596 0.931 . S
H583 C598 0.930 . S
C584 H572 0.930 . S
C584 C585 1.399 1_545 S
C584 C589 1.399 . S
C585 C584 1.399 1_565 S
C585 C586 1.376 . S
C586 H573 0.930 . S
C586 C585 1.376 . S
C586 C587 1.388 . S
C587 H574 0.930 . S
C587 C586 1.388 . S
C587 C588 1.390 . S
C588 C587 1.390 . S
C588 C589 1.394 1_565 S
C588 C594 1.465 . S
C589 C584 1.399 . S
C589 C588 1.394 1_545 S
C589 C590 1.516 . S
C590 C589 1.516 . S
C590 C591 1.502 . S
C590 C592 1.561 . S
C590 C593 1.526 . S
C591 H575 0.959 . S
C591 H576 0.959 . S
C591 H577 0.961 . S
C591 C590 1.502 . S
C592 H578 0.960 . S
C592 H579 0.961 . S
C592 H580 0.959 . S
C592 C590 1.561 . S
C593 C590 1.526 . S
C593 C594 1.396 1_545 S
C593 C598 1.390 . S
C594 C588 1.465 . S
C594 C593 1.396 1_565 S
C594 C595 1.399 . S
C595 H581 0.929 . S
C595 C594 1.399 . S
C595 C596 1.385 . S
C596 H582 0.931 . S
C596 C595 1.385 . S
C596 C597 1.389 . S
C597 C596 1.389 . S
C597 C598 1.387 1_565 S
C598 H583 0.930 . S
C598 C593 1.390 . S
C598 C597 1.387 1_545 S
H599 C611 0.930 . S
H600 C613 0.930 . S
H601 C614 0.930 . S
H602 C618 0.959 . S
H603 C618 0.959 . S
H604 C618 0.961 . S
H605 C619 0.960 . S
H606 C619 0.961 . S
H607 C619 0.959 . S
H608 C622 0.929 . S
H609 C623 0.931 . S
H610 C625 0.930 . S
C611 H599 0.930 . S
C611 C612 1.399 . S
C611 C616 1.399 . S
C612 C611 1.399 . S
C612 C613 1.376 . S
C613 H600 0.930 . S
C613 C612 1.376 . S
C613 C614 1.388 . S
C614 H601 0.930 . S
C614 C613 1.388 . S
C614 C615 1.390 . S
C615 C614 1.390 . S
C615 C616 1.394 . S
C615 C621 1.465 . S
C616 C611 1.399 . S
C616 C615 1.394 . S
C616 C617 1.516 . S
C617 C616 1.516 . S
C617 C618 1.502 . S
C617 C619 1.561 . S
C617 C620 1.526 . S
C618 H602 0.959 . S
C618 H603 0.959 . S
C618 H604 0.961 . S
C618 C617 1.502 . S
C619 H605 0.960 . S
C619 H606 0.961 . S
C619 H607 0.959 . S
C619 C617 1.561 . S
C620 C617 1.526 . S
C620 C621 1.396 . S
C620 C625 1.390 . S
C621 C615 1.465 . S
C621 C620 1.396 . S
C621 C622 1.399 . S
C622 H608 0.929 . S
C622 C621 1.399 . S
C622 C623 1.385 . S
C623 H609 0.931 . S
C623 C622 1.385 . S
C623 C624 1.389 . S
C624 C623 1.389 . S
C624 C625 1.387 . S
C625 H610 0.930 . S
C625 C620 1.390 . S
C625 C624 1.387 . S
H626 C638 0.930 . S
H627 C640 0.930 . S
H628 C641 0.930 . S
H629 C645 0.959 . S
H630 C645 0.959 . S
H631 C645 0.961 . S
H632 C646 0.960 . S
H633 C646 0.961 . S
H634 C646 0.959 . S
H635 C649 0.929 . S
H636 C650 0.931 . S
H637 C652 0.930 . S
C638 H626 0.930 . S
C638 C639 1.399 . S
C638 C643 1.399 . S
C639 C638 1.399 . S
C639 C640 1.376 . S
C640 H627 0.930 . S
C640 C639 1.376 . S
C640 C641 1.388 . S
C641 H628 0.930 . S
C641 C640 1.388 . S
C641 C642 1.390 . S
C642 C641 1.390 . S
C642 C643 1.394 . S
C642 C648 1.465 . S
C643 C638 1.399 . S
C643 C642 1.394 . S
C643 C644 1.516 . S
C644 C643 1.516 . S
C644 C645 1.502 . S
C644 C646 1.561 . S
C644 C647 1.526 . S
C645 H629 0.959 . S
C645 H630 0.959 . S
C645 H631 0.961 . S
C645 C644 1.502 . S
C646 H632 0.960 . S
C646 H633 0.961 . S
C646 H634 0.959 . S
C646 C644 1.561 . S
C647 C644 1.526 . S
C647 C648 1.396 . S
C647 C652 1.390 . S
C648 C642 1.465 . S
C648 C647 1.396 . S
C648 C649 1.399 . S
C649 H635 0.929 . S
C649 C648 1.399 . S
C649 C650 1.385 . S
C650 H636 0.931 . S
C650 C649 1.385 . S
C650 C651 1.389 . S
C651 C650 1.389 . S
C651 C652 1.387 . S
C652 H637 0.930 . S
C652 C647 1.390 . S
C652 C651 1.387 . S
H653 C665 0.930 . S
H654 C667 0.930 . S
H655 C668 0.930 . S
H656 C672 0.959 . S
H657 C672 0.959 . S
H658 C672 0.961 . S
H659 C673 0.960 . S
H660 C673 0.961 . S
H661 C673 0.959 . S
H662 C676 0.929 . S
H663 C677 0.931 . S
H664 C679 0.930 . S
C665 H653 0.930 . S
C665 C666 1.399 . S
C665 C670 1.399 . S
C666 C665 1.399 . S
C666 C667 1.376 . S
C667 H654 0.930 . S
C667 C666 1.376 . S
C667 C668 1.388 . S
C668 H655 0.930 . S
C668 C667 1.388 . S
C668 C669 1.390 . S
C669 C668 1.390 . S
C669 C670 1.394 . S
C669 C675 1.465 . S
C670 C665 1.399 . S
C670 C669 1.394 . S
C670 C671 1.516 . S
C671 C670 1.516 . S
C671 C672 1.502 . S
C671 C673 1.561 . S
C671 C674 1.526 . S
C672 H656 0.959 . S
C672 H657 0.959 . S
C672 H658 0.961 . S
C672 C671 1.502 . S
C673 H659 0.960 . S
C673 H660 0.961 . S
C673 H661 0.959 . S
C673 C671 1.561 . S
C674 C671 1.526 . S
C674 C675 1.396 . S
C674 C679 1.390 . S
C675 C669 1.465 . S
C675 C674 1.396 . S
C675 C676 1.399 . S
C676 H662 0.929 . S
C676 C675 1.399 . S
C676 C677 1.385 . S
C677 H663 0.931 . S
C677 C676 1.385 . S
C677 C678 1.389 . S
C678 C677 1.389 . S
C678 C679 1.387 . S
C679 H664 0.930 . S
C679 C674 1.390 . S
C679 C678 1.387 . S
H680 C692 0.930 . S
H681 C694 0.930 . S
H682 C695 0.930 . S
H683 C699 0.959 . S
H684 C699 0.959 . S
H685 C699 0.961 . S
H686 C700 0.960 . S
H687 C700 0.961 . S
H688 C700 0.959 . S
H689 C703 0.929 . S
H690 C704 0.931 . S
H691 C706 0.930 . S
C692 H680 0.930 . S
C692 C693 1.399 1_545 S
C692 C697 1.399 . S
C693 C692 1.399 1_565 S
C693 C694 1.376 . S
C694 H681 0.930 . S
C694 C693 1.376 . S
C694 C695 1.388 . S
C695 H682 0.930 . S
C695 C694 1.388 . S
C695 C696 1.390 . S
C696 C695 1.390 . S
C696 C697 1.394 1_565 S
C696 C702 1.465 . S
C697 C692 1.399 . S
C697 C696 1.394 1_545 S
C697 C698 1.516 . S
C698 C697 1.516 . S
C698 C699 1.502 . S
C698 C700 1.561 . S
C698 C701 1.526 . S
C699 H683 0.959 . S
C699 H684 0.959 . S
C699 H685 0.961 . S
C699 C698 1.502 . S
C700 H686 0.960 . S
C700 H687 0.961 . S
C700 H688 0.959 . S
C700 C698 1.561 . S
C701 C698 1.526 . S
C701 C702 1.396 1_545 S
C701 C706 1.390 . S
C702 C696 1.465 . S
C702 C701 1.396 1_565 S
C702 C703 1.399 . S
C703 H689 0.929 . S
C703 C702 1.399 . S
C703 C704 1.385 . S
C704 H690 0.931 . S
C704 C703 1.385 . S
C704 C705 1.389 1_565 S
C705 C704 1.389 1_545 S
C705 C706 1.387 . S
C706 H691 0.930 . S
C706 C701 1.390 . S
C706 C705 1.387 . S
H707 C719 0.930 . S
H708 C721 0.930 . S
H709 C722 0.930 . S
H710 C726 0.959 . S
H711 C726 0.959 . S
H712 C726 0.961 . S
H713 C727 0.960 . S
H714 C727 0.961 . S
H715 C727 0.959 . S
H716 C730 0.929 . S
H717 C731 0.931 . S
H718 C733 0.930 . S
C719 H707 0.930 . S
C719 C720 1.399 . S
C719 C724 1.399 . S
C720 C719 1.399 . S
C720 C721 1.376 . S
C721 H708 0.930 . S
C721 C720 1.376 . S
C721 C722 1.388 . S
C722 H709 0.930 . S
C722 C721 1.388 . S
C722 C723 1.390 . S
C723 C722 1.390 . S
C723 C724 1.394 . S
C723 C729 1.465 . S
C724 C719 1.399 . S
C724 C723 1.394 . S
C724 C725 1.516 . S
C725 C724 1.516 . S
C725 C726 1.502 . S
C725 C727 1.561 . S
C725 C728 1.526 . S
C726 H710 0.959 . S
C726 H711 0.959 . S
C726 H712 0.961 . S
C726 C725 1.502 . S
C727 H713 0.960 . S
C727 H714 0.961 . S
C727 H715 0.959 . S
C727 C725 1.561 . S
C728 C725 1.526 . S
C728 C729 1.396 . S
C728 C733 1.390 . S
C729 C723 1.465 . S
C729 C728 1.396 . S
C729 C730 1.399 . S
C730 H716 0.929 . S
C730 C729 1.399 . S
C730 C731 1.385 . S
C731 H717 0.931 . S
C731 C730 1.385 . S
C731 C732 1.389 . S
C732 C731 1.389 . S
C732 C733 1.387 . S
C733 H718 0.930 . S
C733 C728 1.390 . S
C733 C732 1.387 . S
H734 C746 0.930 . S
H735 C748 0.930 . S
H736 C749 0.930 . S
H737 C753 0.959 . S
H738 C753 0.959 . S
H739 C753 0.961 . S
H740 C754 0.960 . S
H741 C754 0.961 . S
H742 C754 0.959 . S
H743 C757 0.929 . S
H744 C758 0.931 . S
H745 C760 0.930 . S
C746 H734 0.930 . S
C746 C747 1.399 . S
C746 C751 1.399 . S
C747 C746 1.399 . S
C747 C748 1.376 . S
C748 H735 0.930 . S
C748 C747 1.376 . S
C748 C749 1.388 . S
C749 H736 0.930 . S
C749 C748 1.388 . S
C749 C750 1.390 . S
C750 C749 1.390 . S
C750 C751 1.394 . S
C750 C756 1.465 . S
C751 C746 1.399 . S
C751 C750 1.394 . S
C751 C752 1.516 . S
C752 C751 1.516 . S
C752 C753 1.502 . S
C752 C754 1.561 . S
C752 C755 1.526 . S
C753 H737 0.959 . S
C753 H738 0.959 . S
C753 H739 0.961 . S
C753 C752 1.502 . S
C754 H740 0.960 . S
C754 H741 0.961 . S
C754 H742 0.959 . S
C754 C752 1.561 . S
C755 C752 1.526 . S
C755 C756 1.396 . S
C755 C760 1.390 . S
C756 C750 1.465 . S
C756 C755 1.396 . S
C756 C757 1.399 . S
C757 H743 0.929 . S
C757 C756 1.399 . S
C757 C758 1.385 . S
C758 H744 0.931 . S
C758 C757 1.385 . S
C758 C759 1.389 . S
C759 C758 1.389 . S
C759 C760 1.387 . S
C760 H745 0.930 . S
C760 C755 1.390 . S
C760 C759 1.387 . S
H761 C773 0.930 1_554 S
H762 C775 0.930 . S
H763 C776 0.930 1_455 S
H764 C780 0.959 . S
H765 C780 0.961 . S
H766 C780 0.957 1_654 S
H767 C781 0.960 . S
H768 C781 0.961 . S
H769 C781 0.959 . S
H770 C784 0.929 . S
H771 C785 0.931 . S
H772 C787 0.930 1_655 S
C773 H761 0.930 1_556 S
C773 C774 1.399 . S
C773 C778 1.399 . S
C774 C773 1.399 . S
C774 C775 1.376 . S
C775 H762 0.930 . S
C775 C774 1.376 . S
C775 C776 1.388 . S
C776 H763 0.930 1_655 S
C776 C775 1.388 . S
C776 C777 1.390 . S
C777 C776 1.390 . S
C777 C778 1.394 . S
C777 C783 1.462 1_655 S
C778 C773 1.399 . S
C778 C777 1.394 . S
C778 C779 1.516 . S
C779 C778 1.516 . S
C779 C780 1.502 1_655 S
C779 C781 1.561 . S
C779 C782 1.526 . S
C780 H764 0.959 . S
C780 H765 0.961 . S
C780 H766 0.957 1_456 S
C780 C779 1.502 1_455 S
C781 H767 0.960 . S
C781 H768 0.961 . S
C781 H769 0.959 . S
C781 C779 1.561 . S
C782 C779 1.526 . S
C782 C783 1.394 1_655 S
C782 C787 1.390 1_655 S
C783 C777 1.462 1_455 S
C783 C782 1.394 1_455 S
C783 C784 1.403 . S
C784 H770 0.929 . S
C784 C783 1.403 . S
C784 C785 1.385 . S
C785 H771 0.931 . S
C785 C784 1.385 . S
C785 C786 1.389 . S
C786 C785 1.389 . S
C786 C787 1.385 . S
C787 H772 0.930 1_455 S
C787 C782 1.390 1_455 S
C787 C786 1.385 . S
H788 C800 0.930 . S
H789 C802 0.930 . S
H790 C803 0.930 . S
H791 C807 0.959 . S
H792 C807 0.959 . S
H793 C807 0.961 . S
H794 C808 0.960 . S
H795 C808 0.961 . S
H796 C808 0.959 . S
H797 C811 0.929 . S
H798 C812 0.931 . S
H799 C814 0.930 . S
C800 H788 0.930 . S
C800 C801 1.399 . S
C800 C805 1.399 . S
C801 C800 1.399 . S
C801 C802 1.376 . S
C802 H789 0.930 . S
C802 C801 1.376 . S
C802 C803 1.388 . S
C803 H790 0.930 . S
C803 C802 1.388 . S
C803 C804 1.390 . S
C804 C803 1.390 . S
C804 C805 1.394 . S
C804 C810 1.465 . S
C805 C800 1.399 . S
C805 C804 1.394 . S
C805 C806 1.516 . S
C806 C805 1.516 . S
C806 C807 1.502 . S
C806 C808 1.561 . S
C806 C809 1.526 . S
C807 H791 0.959 . S
C807 H792 0.959 . S
C807 H793 0.961 . S
C807 C806 1.502 . S
C808 H794 0.960 . S
C808 H795 0.961 . S
C808 H796 0.959 . S
C808 C806 1.561 . S
C809 C806 1.526 . S
C809 C810 1.396 . S
C809 C814 1.390 . S
C810 C804 1.465 . S
C810 C809 1.396 . S
C810 C811 1.399 . S
C811 H797 0.929 . S
C811 C810 1.399 . S
C811 C812 1.385 . S
C812 H798 0.931 . S
C812 C811 1.385 . S
C812 C813 1.389 . S
C813 C812 1.389 . S
C813 C814 1.387 . S
C814 H799 0.930 . S
C814 C809 1.390 . S
C814 C813 1.387 . S
H815 C827 0.930 . S
H816 C829 0.930 . S
H817 C830 0.930 . S
H818 C834 0.959 . S
H819 C834 0.959 . S
H820 C834 0.961 . S
H821 C835 0.960 . S
H822 C835 0.961 . S
H823 C835 0.959 . S
H824 C838 0.929 . S
H825 C839 0.931 . S
H826 C841 0.930 . S
C827 H815 0.930 . S
C827 C828 1.399 1_545 S
C827 C832 1.399 . S
C828 C827 1.399 1_565 S
C828 C829 1.376 . S
C829 H816 0.930 . S
C829 C828 1.376 . S
C829 C830 1.388 . S
C830 H817 0.930 . S
C830 C829 1.388 . S
C830 C831 1.390 . S
C831 C830 1.390 . S
C831 C832 1.394 1_565 S
C831 C837 1.465 . S
C832 C827 1.399 . S
C832 C831 1.394 1_545 S
C832 C833 1.516 . S
C833 C832 1.516 . S
C833 C834 1.502 . S
C833 C835 1.561 . S
C833 C836 1.526 . S
C834 H818 0.959 . S
C834 H819 0.959 . S
C834 H820 0.961 . S
C834 C833 1.502 . S
C835 H821 0.960 . S
C835 H822 0.961 . S
C835 H823 0.959 . S
C835 C833 1.561 . S
C836 C833 1.526 . S
C836 C837 1.396 1_545 S
C836 C841 1.390 . S
C837 C831 1.465 . S
C837 C836 1.396 1_565 S
C837 C838 1.399 . S
C838 H824 0.929 . S
C838 C837 1.399 . S
C838 C839 1.385 . S
C839 H825 0.931 . S
C839 C838 1.385 . S
C839 C840 1.389 . S
C840 C839 1.389 . S
C840 C841 1.387 1_565 S
C841 H826 0.930 . S
C841 C836 1.390 . S
C841 C840 1.387 1_545 S
H842 C854 0.930 . S
H843 C856 0.930 . S
H844 C857 0.930 . S
H845 C861 0.959 . S
H846 C861 0.959 . S
H847 C861 0.961 . S
H848 C862 0.960 . S
H849 C862 0.961 . S
H850 C862 0.959 . S
H851 C865 0.929 . S
H852 C866 0.931 . S
H853 C868 0.930 . S
C854 H842 0.930 . S
C854 C855 1.399 . S
C854 C859 1.399 . S
C855 C854 1.399 . S
C855 C856 1.376 . S
C856 H843 0.930 . S
C856 C855 1.376 . S
C856 C857 1.388 . S
C857 H844 0.930 . S
C857 C856 1.388 . S
C857 C858 1.390 . S
C858 C857 1.390 . S
C858 C859 1.394 . S
C858 C864 1.465 . S
C859 C854 1.399 . S
C859 C858 1.394 . S
C859 C860 1.516 . S
C860 C859 1.516 . S
C860 C861 1.502 . S
C860 C862 1.561 . S
C860 C863 1.526 . S
C861 H845 0.959 . S
C861 H846 0.959 . S
C861 H847 0.961 . S
C861 C860 1.502 . S
C862 H848 0.960 . S
C862 H849 0.961 . S
C862 H850 0.959 . S
C862 C860 1.561 . S
C863 C860 1.526 . S
C863 C864 1.396 . S
C863 C868 1.390 . S
C864 C858 1.465 . S
C864 C863 1.396 . S
C864 C865 1.399 . S
C865 H851 0.929 . S
C865 C864 1.399 . S
C865 C866 1.385 . S
C866 H852 0.931 . S
C866 C865 1.385 . S
C866 C867 1.389 . S
C867 C866 1.389 . S
C867 C868 1.387 . S
C868 H853 0.930 . S
C868 C863 1.390 . S
C868 C867 1.387 . S
H869 C881 0.930 . S
H870 C883 0.930 . S
H871 C884 0.930 . S
H872 C888 0.959 . S
H873 C888 0.959 . S
H874 C888 0.961 . S
H875 C889 0.960 . S
H876 C889 0.961 . S
H877 C889 0.959 . S
H878 C892 0.929 . S
H879 C893 0.931 . S
H880 C895 0.930 . S
C881 H869 0.930 . S
C881 C882 1.399 . S
C881 C886 1.399 . S
C882 C881 1.399 . S
C882 C883 1.376 . S
C883 H870 0.930 . S
C883 C882 1.376 . S
C883 C884 1.388 . S
C884 H871 0.930 . S
C884 C883 1.388 . S
C884 C885 1.390 . S
C885 C884 1.390 . S
C885 C886 1.394 . S
C885 C891 1.465 . S
C886 C881 1.399 . S
C886 C885 1.394 . S
C886 C887 1.516 . S
C887 C886 1.516 . S
C887 C888 1.502 . S
C887 C889 1.561 . S
C887 C890 1.526 . S
C888 H872 0.959 . S
C888 H873 0.959 . S
C888 H874 0.961 . S
C888 C887 1.502 . S
C889 H875 0.960 . S
C889 H876 0.961 . S
C889 H877 0.959 . S
C889 C887 1.561 . S
C890 C887 1.526 . S
C890 C891 1.396 . S
C890 C895 1.390 . S
C891 C885 1.465 . S
C891 C890 1.396 . S
C891 C892 1.399 . S
C892 H878 0.929 . S
C892 C891 1.399 . S
C892 C893 1.385 . S
C893 H879 0.931 . S
C893 C892 1.385 . S
C893 C894 1.389 . S
C894 C893 1.389 . S
C894 C895 1.387 . S
C895 H880 0.930 . S
C895 C890 1.390 . S
C895 C894 1.387 . S
H896 C908 0.930 . S
H897 C910 0.930 . S
H898 C911 0.930 . S
H899 C915 0.959 1_655 S
H900 C915 0.959 . S
H901 C915 0.961 1_655 S
H902 C916 0.960 . S
H903 C916 0.961 . S
H904 C916 0.959 . S
H905 C919 0.929 . S
H906 C920 0.931 . S
H907 C922 0.930 . S
C908 H896 0.930 . S
C908 C909 1.399 . S
C908 C913 1.399 1_655 S
C909 C908 1.399 . S
C909 C910 1.376 . S
C910 H897 0.930 . S
C910 C909 1.376 . S
C910 C911 1.388 1_655 S
C911 H898 0.930 . S
C911 C910 1.388 1_455 S
C911 C912 1.390 . S
C912 C911 1.390 . S
C912 C913 1.394 . S
C912 C918 1.465 . S
C913 C908 1.399 1_455 S
C913 C912 1.394 . S
C913 C914 1.516 . S
C914 C913 1.516 . S
C914 C915 1.502 . S
C914 C916 1.561 . S
C914 C917 1.526 . S
C915 H899 0.959 1_455 S
C915 H900 0.959 . S
C915 H901 0.961 1_455 S
C915 C914 1.502 . S
C916 H902 0.960 . S
C916 H903 0.961 . S
C916 H904 0.959 . S
C916 C914 1.561 . S
C917 C914 1.526 . S
C917 C918 1.396 . S
C917 C922 1.390 . S
C918 C912 1.465 . S
C918 C917 1.396 . S
C918 C919 1.399 . S
C919 H905 0.929 . S
C919 C918 1.399 . S
C919 C920 1.385 . S
C920 H906 0.931 . S
C920 C919 1.385 . S
C920 C921 1.389 . S
C921 C920 1.389 . S
C921 C922 1.387 . S
C922 H907 0.930 . S
C922 C917 1.390 . S
C922 C921 1.387 . S
H923 C935 0.930 1_565 S
H924 C937 0.930 . S
H925 C938 0.930 . S
H926 C942 0.959 . S
H927 C942 0.959 1_545 S
H928 C942 0.961 . S
H929 C943 0.960 . S
H930 C943 0.961 . S
H931 C943 0.959 . S
H932 C946 0.929 . S
H933 C947 0.931 . S
H934 C949 0.930 . S
C935 H923 0.930 1_545 S
C935 C936 1.399 1_545 S
C935 C940 1.399 . S
C936 C935 1.399 1_565 S
C936 C937 1.376 1_565 S
C937 H924 0.930 . S
C937 C936 1.376 1_545 S
C937 C938 1.388 . S
C938 H925 0.930 . S
C938 C937 1.388 . S
C938 C939 1.390 . S
C939 C938 1.390 . S
C939 C940 1.394 . S
C939 C945 1.465 . S
C940 C935 1.399 . S
C940 C939 1.394 . S
C940 C941 1.516 . S
C941 C940 1.516 . S
C941 C942 1.502 1_545 S
C941 C943 1.561 . S
C941 C944 1.526 . S
C942 H926 0.959 . S
C942 H927 0.959 1_565 S
C942 H928 0.961 . S
C942 C941 1.502 1_565 S
C943 H929 0.960 . S
C943 H930 0.961 . S
C943 H931 0.959 . S
C943 C941 1.561 . S
C944 C941 1.526 . S
C944 C945 1.396 . S
C944 C949 1.390 . S
C945 C939 1.465 . S
C945 C944 1.396 . S
C945 C946 1.399 . S
C946 H932 0.929 . S
C946 C945 1.399 . S
C946 C947 1.385 . S
C947 H933 0.931 . S
C947 C946 1.385 . S
C947 C948 1.389 . S
C948 C947 1.389 . S
C948 C949 1.387 . S
C949 H934 0.930 . S
C949 C944 1.390 . S
C949 C948 1.387 . S
H950 C962 0.930 . S
H951 C964 0.930 . S
H952 C965 0.930 . S
H953 C969 0.959 . S
H954 C969 0.959 . S
H955 C969 0.961 . S
H956 C970 0.960 . S
H957 C970 0.961 . S
H958 C970 0.959 . S
H959 C973 0.929 . S
H960 C974 0.931 . S
H961 C976 0.930 . S
C962 H950 0.930 . S
C962 C963 1.399 . S
C962 C967 1.399 . S
C963 C962 1.399 . S
C963 C964 1.376 . S
C964 H951 0.930 . S
C964 C963 1.376 . S
C964 C965 1.388 . S
C965 H952 0.930 . S
C965 C964 1.388 . S
C965 C966 1.390 . S
C966 C965 1.390 . S
C966 C967 1.394 . S
C966 C972 1.465 . S
C967 C962 1.399 . S
C967 C966 1.394 . S
C967 C968 1.516 . S
C968 C967 1.516 . S
C968 C969 1.502 . S
C968 C970 1.561 . S
C968 C971 1.526 . S
C969 H953 0.959 . S
C969 H954 0.959 . S
C969 H955 0.961 . S
C969 C968 1.502 . S
C970 H956 0.960 . S
C970 H957 0.961 . S
C970 H958 0.959 . S
C970 C968 1.561 . S
C971 C968 1.526 . S
C971 C972 1.396 . S
C971 C976 1.390 . S
C972 C966 1.465 . S
C972 C971 1.396 . S
C972 C973 1.399 . S
C973 H959 0.929 . S
C973 C972 1.399 . S
C973 C974 1.385 . S
C974 H960 0.931 . S
C974 C973 1.385 . S
C974 C975 1.389 . S
C975 C974 1.389 . S
C975 C976 1.387 . S
C976 H961 0.930 . S
C976 C971 1.390 . S
C976 C975 1.387 . S
H977 C989 0.930 . S
H978 C991 0.930 . S
H979 C992 0.930 . S
H980 C996 0.959 . S
H981 C996 0.959 . S
H982 C996 0.961 . S
H983 C997 0.960 . S
H984 C997 0.961 . S
H985 C997 0.959 . S
H986 C1000 0.929 . S
H987 C1001 0.931 . S
H988 C1003 0.930 . S
C989 H977 0.930 . S
C989 C990 1.399 . S
C989 C994 1.399 . S
C990 C989 1.399 . S
C990 C991 1.376 . S
C991 H978 0.930 . S
C991 C990 1.376 . S
C991 C992 1.388 . S
C992 H979 0.930 . S
C992 C991 1.388 . S
C992 C993 1.390 . S
C993 C992 1.390 . S
C993 C994 1.394 . S
C993 C999 1.465 . S
C994 C989 1.399 . S
C994 C993 1.394 . S
C994 C995 1.516 . S
C995 C994 1.516 . S
C995 C996 1.502 . S
C995 C997 1.561 . S
C995 C998 1.526 . S
C996 H980 0.959 . S
C996 H981 0.959 . S
C996 H982 0.961 . S
C996 C995 1.502 . S
C997 H983 0.960 . S
C997 H984 0.961 . S
C997 H985 0.959 . S
C997 C995 1.561 . S
C998 C995 1.526 . S
C998 C999 1.396 . S
C998 C1003 1.390 . S
C999 C993 1.465 . S
C999 C998 1.396 . S
C999 C1000 1.399 . S
C1000 H986 0.929 . S
C1000 C999 1.399 . S
C1000 C1001 1.385 . S
C1001 H987 0.931 . S
C1001 C1000 1.385 . S
C1001 C1002 1.389 . S
C1002 C1001 1.389 . S
C1002 C1003 1.387 . S
C1003 H988 0.930 . S
C1003 C998 1.390 . S
C1003 C1002 1.387 . S
H1004 C1016 0.930 . S
H1005 C1018 0.930 . S
H1006 C1019 0.930 . S
H1007 C1023 0.959 1_556 S
H1008 C1023 0.959 . S
H1009 C1023 0.961 . S
H1010 C1024 0.960 . S
H1011 C1024 0.961 . S
H1012 C1024 0.959 . S
H1013 C1027 0.929 . S
H1014 C1028 0.931 . S
H1015 C1030 0.930 . S
C1016 H1004 0.930 . S
C1016 C1017 1.399 . S
C1016 C1021 1.399 . S
C1017 C1016 1.399 . S
C1017 C1018 1.376 1_554 S
C1018 H1005 0.930 . S
C1018 C1017 1.376 1_556 S
C1018 C1019 1.388 . S
C1019 H1006 0.930 . S
C1019 C1018 1.388 . S
C1019 C1020 1.390 . S
C1020 C1019 1.390 . S
C1020 C1021 1.394 1_556 S
C1020 C1026 1.465 . S
C1021 C1016 1.399 . S
C1021 C1020 1.394 1_554 S
C1021 C1022 1.516 . S
C1022 C1021 1.516 . S
C1022 C1023 1.502 . S
C1022 C1024 1.561 . S
C1022 C1025 1.526 1_554 S
C1023 H1007 0.959 1_554 S
C1023 H1008 0.959 . S
C1023 H1009 0.961 . S
C1023 C1022 1.502 . S
C1024 H1010 0.960 . S
C1024 H1011 0.961 . S
C1024 H1012 0.959 . S
C1024 C1022 1.561 . S
C1025 C1022 1.526 1_556 S
C1025 C1026 1.396 . S
C1025 C1030 1.390 . S
C1026 C1020 1.465 . S
C1026 C1025 1.396 . S
C1026 C1027 1.399 . S
C1027 H1013 0.929 . S
C1027 C1026 1.399 . S
C1027 C1028 1.385 . S
C1028 H1014 0.931 . S
C1028 C1027 1.385 . S
C1028 C1029 1.389 . S
C1029 C1028 1.389 . S
C1029 C1030 1.387 . S
C1030 H1015 0.930 . S
C1030 C1025 1.390 . S
C1030 C1029 1.387 . S
H1031 C1043 0.930 . S
H1032 C1045 0.930 . S
H1033 C1046 0.930 . S
H1034 C1050 0.959 . S
H1035 C1050 0.959 . S
H1036 C1050 0.961 . S
H1037 C1051 0.960 . S
H1038 C1051 0.961 . S
H1039 C1051 0.959 . S
H1040 C1054 0.929 . S
H1041 C1055 0.931 . S
H1042 C1057 0.930 . S
C1043 H1031 0.930 . S
C1043 C1044 1.399 1_545 S
C1043 C1048 1.399 . S
C1044 C1043 1.399 1_565 S
C1044 C1045 1.376 1_556 S
C1045 H1032 0.930 . S
C1045 C1044 1.376 1_554 S
C1045 C1046 1.388 1_554 S
C1046 H1033 0.930 . S
C1046 C1045 1.388 1_556 S
C1046 C1047 1.390 . S
C1047 C1046 1.390 . S
C1047 C1048 1.394 1_565 S
C1047 C1053 1.465 . S
C1048 C1043 1.399 . S
C1048 C1047 1.394 1_545 S
C1048 C1049 1.516 . S
C1049 C1048 1.516 . S
C1049 C1050 1.502 . S
C1049 C1051 1.561 . S
C1049 C1052 1.526 . S
C1050 H1034 0.959 . S
C1050 H1035 0.959 . S
C1050 H1036 0.961 . S
C1050 C1049 1.502 . S
C1051 H1037 0.960 . S
C1051 H1038 0.961 . S
C1051 H1039 0.959 . S
C1051 C1049 1.561 . S
C1052 C1049 1.526 . S
C1052 C1053 1.396 1_545 S
C1052 C1057 1.390 . S
C1053 C1047 1.465 . S
C1053 C1052 1.396 1_565 S
C1053 C1054 1.399 . S
C1054 H1040 0.929 . S
C1054 C1053 1.399 . S
C1054 C1055 1.385 . S
C1055 H1041 0.931 . S
C1055 C1054 1.385 . S
C1055 C1056 1.389 . S
C1056 C1055 1.389 . S
C1056 C1057 1.387 1_565 S
C1057 H1042 0.930 . S
C1057 C1052 1.390 . S
C1057 C1056 1.387 1_545 S
H1058 C1070 0.930 . S
H1059 C1072 0.930 . S
H1060 C1073 0.930 1_554 S
H1061 C1077 0.959 . S
H1062 C1077 0.959 . S
H1063 C1077 0.961 . S
H1064 C1078 0.960 . S
H1065 C1078 0.961 . S
H1066 C1078 0.959 . S
H1067 C1081 0.929 . S
H1068 C1082 0.931 . S
H1069 C1084 0.930 . S
C1070 H1058 0.930 . S
C1070 C1071 1.399 . S
C1070 C1075 1.399 . S
C1071 C1070 1.399 . S
C1071 C1072 1.376 1_556 S
C1072 H1059 0.930 . S
C1072 C1071 1.376 1_554 S
C1072 C1073 1.388 1_554 S
C1073 H1060 0.930 1_556 S
C1073 C1072 1.388 1_556 S
C1073 C1074 1.390 . S
C1074 C1073 1.390 . S
C1074 C1075 1.394 . S
C1074 C1080 1.465 . S
C1075 C1070 1.399 . S
C1075 C1074 1.394 . S
C1075 C1076 1.516 . S
C1076 C1075 1.516 . S
C1076 C1077 1.502 . S
C1076 C1078 1.561 . S
C1076 C1079 1.526 . S
C1077 H1061 0.959 . S
C1077 H1062 0.959 . S
C1077 H1063 0.961 . S
C1077 C1076 1.502 . S
C1078 H1064 0.960 . S
C1078 H1065 0.961 . S
C1078 H1066 0.959 . S
C1078 C1076 1.561 . S
C1079 C1076 1.526 . S
C1079 C1080 1.396 . S
C1079 C1084 1.390 . S
C1080 C1074 1.465 . S
C1080 C1079 1.396 . S
C1080 C1081 1.399 . S
C1081 H1067 0.929 . S
C1081 C1080 1.399 . S
C1081 C1082 1.385 . S
C1082 H1068 0.931 . S
C1082 C1081 1.385 . S
C1082 C1083 1.389 . S
C1083 C1082 1.389 . S
C1083 C1084 1.387 . S
C1084 H1069 0.930 . S
C1084 C1079 1.390 . S
C1084 C1083 1.387 . S
H1085 C1097 0.930 . S
H1086 C1099 0.930 . S
H1087 C1100 0.930 . S
H1088 C1104 0.959 . S
H1089 C1104 0.959 . S
H1090 C1104 0.961 . S
H1091 C1105 0.960 . S
H1092 C1105 0.961 . S
H1093 C1105 0.959 . S
H1094 C1108 0.929 . S
H1095 C1109 0.931 . S
H1096 C1111 0.930 . S
C1097 H1085 0.930 . S
C1097 C1098 1.399 . S
C1097 C1102 1.399 . S
C1098 C1097 1.399 . S
C1098 C1099 1.376 . S
C1099 H1086 0.930 . S
C1099 C1098 1.376 . S
C1099 C1100 1.388 . S
C1100 H1087 0.930 . S
C1100 C1099 1.388 . S
C1100 C1101 1.390 . S
C1101 C1100 1.390 . S
C1101 C1102 1.394 . S
C1101 C1107 1.465 . S
C1102 C1097 1.399 . S
C1102 C1101 1.394 . S
C1102 C1103 1.516 . S
C1103 C1102 1.516 . S
C1103 C1104 1.502 . S
C1103 C1105 1.561 . S
C1103 C1106 1.526 . S
C1104 H1088 0.959 . S
C1104 H1089 0.959 . S
C1104 H1090 0.961 . S
C1104 C1103 1.502 . S
C1105 H1091 0.960 . S
C1105 H1092 0.961 . S
C1105 H1093 0.959 . S
C1105 C1103 1.561 . S
C1106 C1103 1.526 . S
C1106 C1107 1.396 . S
C1106 C1111 1.390 . S
C1107 C1101 1.465 . S
C1107 C1106 1.396 . S
C1107 C1108 1.399 . S
C1108 H1094 0.929 . S
C1108 C1107 1.399 . S
C1108 C1109 1.385 . S
C1109 H1095 0.931 . S
C1109 C1108 1.385 . S
C1109 C1110 1.389 . S
C1110 C1109 1.389 . S
C1110 C1111 1.387 . S
C1111 H1096 0.930 . S
C1111 C1106 1.390 . S
C1111 C1110 1.387 . S
H1112 C1124 0.930 . S
H1113 C1126 0.930 . S
H1114 C1127 0.930 . S
H1115 C1131 0.959 . S
H1116 C1131 0.959 . S
H1117 C1131 0.961 . S
H1118 C1132 0.960 . S
H1119 C1132 0.961 . S
H1120 C1132 0.959 . S
H1121 C1135 0.929 . S
H1122 C1136 0.931 . S
H1123 C1138 0.930 1_455 S
C1124 H1112 0.930 . S
C1124 C1125 1.399 . S
C1124 C1129 1.399 . S
C1125 C1124 1.399 . S
C1125 C1126 1.376 . S
C1126 H1113 0.930 . S
C1126 C1125 1.376 . S
C1126 C1127 1.388 . S
C1127 H1114 0.930 . S
C1127 C1126 1.388 . S
C1127 C1128 1.390 . S
C1128 C1127 1.390 . S
C1128 C1129 1.394 . S
C1128 C1134 1.465 . S
C1129 C1124 1.399 . S
C1129 C1128 1.394 . S
C1129 C1130 1.516 . S
C1130 C1129 1.516 . S
C1130 C1131 1.502 1_655 S
C1130 C1132 1.561 . S
C1130 C1133 1.526 . S
C1131 H1115 0.959 . S
C1131 H1116 0.959 . S
C1131 H1117 0.961 . S
C1131 C1130 1.502 1_455 S
C1132 H1118 0.960 . S
C1132 H1119 0.961 . S
C1132 H1120 0.959 . S
C1132 C1130 1.561 . S
C1133 C1130 1.526 . S
C1133 C1134 1.396 . S
C1133 C1138 1.390 . S
C1134 C1128 1.465 . S
C1134 C1133 1.396 . S
C1134 C1135 1.399 . S
C1135 H1121 0.929 . S
C1135 C1134 1.399 . S
C1135 C1136 1.385 . S
C1136 H1122 0.931 . S
C1136 C1135 1.385 . S
C1136 C1137 1.389 . S
C1137 C1136 1.389 . S
C1137 C1138 1.387 . S
C1138 H1123 0.930 1_655 S
C1138 C1133 1.390 . S
C1138 C1137 1.387 . S
H1139 C1151 0.930 . S
H1140 C1153 0.930 . S
H1141 C1154 0.930 . S
H1142 C1158 0.959 . S
H1143 C1158 0.959 . S
H1144 C1158 0.961 . S
H1145 C1159 0.960 . S
H1146 C1159 0.961 . S
H1147 C1159 0.959 . S
H1148 C1162 0.929 . S
H1149 C1163 0.931 . S
H1150 C1165 0.930 . S
C1151 H1139 0.930 . S
C1151 C1152 1.429 . S
C1151 C1156 1.399 . S
C1152 C1151 1.429 . S
C1152 C1153 1.345 1_565 S
C1153 H1140 0.930 . S
C1153 C1152 1.345 1_545 S
C1153 C1154 1.388 . S
C1154 H1141 0.930 . S
C1154 C1153 1.388 . S
C1154 C1155 1.390 . S
C1155 C1154 1.390 . S
C1155 C1156 1.394 1_545 S
C1155 C1161 1.465 1_545 S
C1156 C1151 1.399 . S
C1156 C1155 1.394 1_565 S
C1156 C1157 1.516 . S
C1157 C1156 1.516 . S
C1157 C1158 1.502 . S
C1157 C1159 1.561 . S
C1157 C1160 1.526 . S
C1158 H1142 0.959 . S
C1158 H1143 0.959 . S
C1158 H1144 0.961 . S
C1158 C1157 1.502 . S
C1159 H1145 0.960 . S
C1159 H1146 0.961 . S
C1159 H1147 0.959 . S
C1159 C1157 1.561 . S
C1160 C1157 1.526 . S
C1160 C1161 1.396 . S
C1160 C1165 1.390 . S
C1161 C1155 1.465 1_565 S
C1161 C1160 1.396 . S
C1161 C1162 1.399 1_565 S
C1162 H1148 0.929 . S
C1162 C1161 1.399 1_545 S
C1162 C1163 1.385 . S
C1163 H1149 0.931 . S
C1163 C1162 1.385 . S
C1163 C1164 1.389 1_545 S
C1164 C1163 1.389 1_565 S
C1164 C1165 1.387 . S
C1165 H1150 0.930 . S
C1165 C1160 1.390 . S
C1165 C1164 1.387 . S
H1166 C1178 0.930 . S
H1167 C1180 0.930 . S
H1168 C1181 0.930 . S
H1169 C1185 0.959 . S
H1170 C1185 0.959 . S
H1171 C1185 0.961 . S
H1172 C1186 0.960 . S
H1173 C1186 0.961 . S
H1174 C1186 0.959 . S
H1175 C1189 0.929 . S
H1176 C1190 0.931 . S
H1177 C1192 0.930 . S
C1178 H1166 0.930 . S
C1178 C1179 1.399 . S
C1178 C1183 1.399 . S
C1179 C1178 1.399 . S
C1179 C1180 1.376 . S
C1180 H1167 0.930 . S
C1180 C1179 1.376 . S
C1180 C1181 1.388 . S
C1181 H1168 0.930 . S
C1181 C1180 1.388 . S
C1181 C1182 1.390 . S
C1182 C1181 1.390 . S
C1182 C1183 1.394 . S
C1182 C1188 1.465 . S
C1183 C1178 1.399 . S
C1183 C1182 1.394 . S
C1183 C1184 1.516 . S
C1184 C1183 1.516 . S
C1184 C1185 1.502 . S
C1184 C1186 1.561 . S
C1184 C1187 1.526 . S
C1185 H1169 0.959 . S
C1185 H1170 0.959 . S
C1185 H1171 0.961 . S
C1185 C1184 1.502 . S
C1186 H1172 0.960 . S
C1186 H1173 0.961 . S
C1186 H1174 0.959 . S
C1186 C1184 1.561 . S
C1187 C1184 1.526 . S
C1187 C1188 1.396 . S
C1187 C1192 1.390 . S
C1188 C1182 1.465 . S
C1188 C1187 1.396 . S
C1188 C1189 1.399 . S
C1189 H1175 0.929 . S
C1189 C1188 1.399 . S
C1189 C1190 1.385 . S
C1190 H1176 0.931 . S
C1190 C1189 1.385 . S
C1190 C1191 1.389 . S
C1191 C1190 1.389 . S
C1191 C1192 1.387 . S
C1192 H1177 0.930 . S
C1192 C1187 1.390 . S
C1192 C1191 1.387 . S
H1193 C1205 0.930 . S
H1194 C1207 0.930 . S
H1195 C1208 0.930 . S
H1196 C1212 0.959 . S
H1197 C1212 0.959 . S
H1198 C1212 0.961 . S
H1199 C1213 0.960 . S
H1200 C1213 0.961 . S
H1201 C1213 0.959 . S
H1202 C1216 0.929 . S
H1203 C1217 0.931 . S
H1204 C1219 0.930 . S
C1205 H1193 0.930 . S
C1205 C1206 1.399 . S
C1205 C1210 1.399 . S
C1206 C1205 1.399 . S
C1206 C1207 1.376 . S
C1207 H1194 0.930 . S
C1207 C1206 1.376 . S
C1207 C1208 1.388 . S
C1208 H1195 0.930 . S
C1208 C1207 1.388 . S
C1208 C1209 1.390 . S
C1209 C1208 1.390 . S
C1209 C1210 1.394 . S
C1209 C1215 1.465 . S
C1210 C1205 1.399 . S
C1210 C1209 1.394 . S
C1210 C1211 1.516 . S
C1211 C1210 1.516 . S
C1211 C1212 1.502 . S
C1211 C1213 1.561 . S
C1211 C1214 1.526 . S
C1212 H1196 0.959 . S
C1212 H1197 0.959 . S
C1212 H1198 0.961 . S
C1212 C1211 1.502 . S
C1213 H1199 0.960 . S
C1213 H1200 0.961 . S
C1213 H1201 0.959 . S
C1213 C1211 1.561 . S
C1214 C1211 1.526 . S
C1214 C1215 1.396 . S
C1214 C1219 1.390 . S
C1215 C1209 1.465 . S
C1215 C1214 1.396 . S
C1215 C1216 1.399 . S
C1216 H1202 0.929 . S
C1216 C1215 1.399 . S
C1216 C1217 1.385 . S
C1217 H1203 0.931 . S
C1217 C1216 1.385 . S
C1217 C1218 1.389 . S
C1218 C1217 1.389 . S
C1218 C1219 1.387 . S
C1219 H1204 0.930 . S
C1219 C1214 1.390 . S
C1219 C1218 1.387 . S
C585 C391 1.753 1_565 S
C597 C496 1.673 . S
C624 C519 1.896 . S
C612 C451 1.932 . S
C651 C542 1.729 . S
C639 C241 1.674 . S
C678 C569 1.677 . S
C666 C331 1.542 . S
C705 C497 1.595 . S
C693 C121 1.523 1_556 S
C720 C211 1.681 1_556 S
C732 C520 1.660 . S
C747 C31 1.511 . S
C759 C543 1.519 . S
C774 C91 1.559 1_556 S
C786 C568 1.746 . S
C813 C498 0.308 . S
C801 C301 0.707 . S
C840 C521 0.245 . S
C828 C380 0.382 1_565 S
C867 C544 0.135 . S
C855 C440 0.334 . S
C882 C260 0.481 . S
C894 C570 0.671 . S
C909 C61 0.575 . S
C921 C501 0.678 . S
C948 C524 0.675 . S
C936 C140 0.628 . S
C975 C547 0.641 . S
C963 C200 0.571 . S
C990 C20 0.263 . S
C1002 C567 0.302 . S
C1017 C320 1.959 . S
C1029 C499 1.943 . S
C1044 C361 1.684 1_566 S
C1056 C522 1.914 1_565 S
C1083 C545 1.947 . S
C1071 C421 1.712 1_556 S
C1110 C566 1.676 . S
C1098 C271 1.665 1_556 S
C1125 C80 2.043 . S
C1137 C500 1.913 1_655 S
C1164 C523 1.750 . S
C1152 C151 1.906 . S
C1191 C546 1.798 . S
C1179 C181 1.624 . S
C1206 C1 1.811 . S
C1218 C565 2.070 . S
