# Generated by pormake.
# Topology anh, (6,3)-cn, num edge types: 1
# Building blocks:
#     Node 0, Type 0, BuildingBlock: PAMTOO_clean_sbu_0, # of connection points: 6
#     Node 1, Type 0, BuildingBlock: PAMTOO_clean_sbu_0, # of connection points: 6
#     Node 2, Type 0, BuildingBlock: PAMTOO_clean_sbu_0, # of connection points: 6
#     Node 3, Type 1, BuildingBlock: CUQRIR_clean_linker_1, # of connection points: 3
#     Node 4, Type 1, BuildingBlock: CUQRIR_clean_linker_1, # of connection points: 3
#     Node 5, Type 1, BuildingBlock: CUQRIR_clean_linker_1, # of connection points: 3
#     Node 6, Type 1, BuildingBlock: CUQRIR_clean_linker_1, # of connection points: 3
#     Node 7, Type 1, BuildingBlock: CUQRIR_clean_linker_1, # of connection points: 3
#     Node 8, Type 1, BuildingBlock: CUQRIR_clean_linker_1, # of connection points: 3
#     Edge 9, Type (0, 1), BuildingBlock: XUDNAN_clean_linker_2, # of connection points: 2
#     Edge 10, Type (0, 1), BuildingBlock: XUDNAN_clean_linker_2, # of connection points: 2
#     Edge 11, Type (0, 1), BuildingBlock: XUDNAN_clean_linker_2, # of connection points: 2
#     Edge 12, Type (0, 1), BuildingBlock: XUDNAN_clean_linker_2, # of connection points: 2
#     Edge 13, Type (0, 1), BuildingBlock: XUDNAN_clean_linker_2, # of connection points: 2
#     Edge 14, Type (0, 1), BuildingBlock: XUDNAN_clean_linker_2, # of connection points: 2
#     Edge 15, Type (0, 1), BuildingBlock: XUDNAN_clean_linker_2, # of connection points: 2
#     Edge 16, Type (0, 1), BuildingBlock: XUDNAN_clean_linker_2, # of connection points: 2
#     Edge 17, Type (0, 1), BuildingBlock: XUDNAN_clean_linker_2, # of connection points: 2
#     Edge 18, Type (0, 1), BuildingBlock: XUDNAN_clean_linker_2, # of connection points: 2
#     Edge 19, Type (0, 1), BuildingBlock: XUDNAN_clean_linker_2, # of connection points: 2
#     Edge 20, Type (0, 1), BuildingBlock: XUDNAN_clean_linker_2, # of connection points: 2
#     Edge 21, Type (0, 1), BuildingBlock: XUDNAN_clean_linker_2, # of connection points: 2
#     Edge 22, Type (0, 1), BuildingBlock: XUDNAN_clean_linker_2, # of connection points: 2
#     Edge 23, Type (0, 1), BuildingBlock: XUDNAN_clean_linker_2, # of connection points: 2
#     Edge 24, Type (0, 1), BuildingBlock: XUDNAN_clean_linker_2, # of connection points: 2
#     Edge 25, Type (0, 1), BuildingBlock: XUDNAN_clean_linker_2, # of connection points: 2
#     Edge 26, Type (0, 1), BuildingBlock: XUDNAN_clean_linker_2, # of connection points: 2
# Relax obj value: 0.209
# Max RMSD: 0.218
# Mean RMSD: 0.165
data_MOF--net-anh--node1-PAMTOO_clean_sbu_0--node2-CUQRIR_clean_linker_1--edge1-XUDNAN_clean_linker_2
_symmetry_space_group_name_H-M    P1
_symmetry_Int_Tables_number       1
_symmetry_cell_setting            triclinic
loop_
_symmetry_equiv_pos_as_xyz
'x, y, z'
_cell_length_a     27.517496
_cell_length_b     26.969973
_cell_length_c     46.703011
_cell_angle_alpha  85.054836
_cell_angle_beta   94.114374
_cell_angle_gamma 100.38862
loop_
_atom_site_label
_atom_site_type_symbol
_atom_site_fract_x
_atom_site_fract_y
_atom_site_fract_z
_atom_type_partial_charge
Dy0 Dy 1.06467 0.56842 0.14191 0.0
Dy1 Dy 1.05252 0.44608 0.1575 0.0
C2 C 1.04705 0.49064 0.0914 0.0
O3 O 0.98297 0.5436 0.13276 0.0
O4 O 0.97725 0.46778 0.15992 0.0
O5 O 1.09545 0.63596 0.11639 0.0
O6 O 1.05757 0.64211 0.15443 0.0
O7 O 1.08889 0.4852 0.19551 0.0
O8 O 1.04781 0.55103 0.18822 0.0
O9 O 0.13225 0.46664 0.14586 0.0
O10 O 0.14112 0.55076 0.1537 0.0
O11 O 1.0407 0.38768 0.19216 0.0
O12 O 1.04308 0.36726 0.14862 0.0
C13 C 0.95618 0.50347 0.14555 0.0
O14 O 1.06136 0.53714 0.09891 0.0
O15 O 1.03668 0.4517 0.11016 0.0
C16 C 0.13106 0.69976 0.1461 0.0
C17 C 0.22145 0.76009 0.16305 0.0
C18 C 0.18679 0.78076 0.14422 0.0
C19 C 0.14198 0.75059 0.1356 0.0
C20 C 0.16478 0.67979 0.16579 0.0
C21 C 0.20964 0.70953 0.17404 0.0
C22 C 1.08688 0.666 0.13509 0.0
C23 C 1.07081 0.5212 0.20567 0.0
C24 C 0.16056 0.51093 0.14934 0.0
C25 C 0.98335 0.3179 0.17836 0.0
C26 C 0.8881 0.26505 0.19113 0.0
C27 C 0.93025 0.25513 0.20802 0.0
C28 C 0.97742 0.28139 0.20168 0.0
C29 C 0.94165 0.32674 0.16088 0.0
C30 C 0.89461 0.30035 0.16707 0.0
C31 C 1.03147 0.35138 0.17486 0.0
H32 H 0.19514 0.81963 0.13541 0.0
H33 H 0.11647 0.76655 0.12029 0.0
H34 H 0.15685 0.64077 0.17432 0.0
H35 H 0.23537 0.69284 0.18887 0.0
H36 H 0.92669 0.2287 0.22687 0.0
H37 H 1.00905 0.27466 0.2157 0.0
H38 H 0.94519 0.3553 0.143 0.0
H39 H 0.86321 0.30839 0.15327 0.0
Dy40 Dy 0.61803 0.0328 0.53128 0.0
Dy41 Dy 0.73939 0.04605 0.52803 0.0
C42 C 0.68956 0.04451 0.58744 0.0
O43 O 0.64012 0.11624 0.52276 0.0
O44 O 0.72515 0.12436 0.53096 0.0
O45 O 0.55241 1.01197 0.55528 0.0
O46 O 0.54565 0.03102 0.50936 0.0
O47 O 0.70766 0.07212 0.48535 0.0
O48 O 0.63656 0.0148 0.48784 0.0
O49 O 0.71028 0.96338 0.52357 0.0
O50 O 0.63813 0.9585 0.54608 0.0
O51 O 0.80246 0.03462 0.50603 0.0
O52 O 0.81333 0.07221 0.5458 0.0
C53 C 0.68449 0.14381 0.5261 0.0
O54 O 0.65165 0.06023 0.57314 0.0
O55 O 0.72231 0.02629 0.57419 0.0
C56 C 0.48874 0.96152 0.52836 0.0
C57 C 0.43071 0.8665 0.51754 0.0
C58 C 0.46369 0.87178 0.54194 0.0
C59 C 0.49236 0.91866 0.54729 0.0
C60 C 0.45457 0.95673 0.50452 0.0
C61 C 0.42586 0.90971 0.49914 0.0
C62 C 0.5229 1.00999 0.53211 0.0
C63 C 0.66899 0.0456 0.47262 0.0
C64 C 0.67133 0.93673 0.53582 0.0
C65 C 0.86966 0.10369 0.50974 0.0
C66 C 0.93514 0.18653 0.48468 0.0
C67 C 0.90364 0.15294 0.46726 0.0
C68 C 0.87119 0.11203 0.47963 0.0
C69 C 0.9018 0.13677 0.52714 0.0
C70 C 0.93399 0.17787 0.51476 0.0
C71 C 0.83397 0.06186 0.52323 0.0
H72 H 0.46776 0.83953 0.55684 0.0
H73 H 0.51819 0.92088 0.56594 0.0
H74 H 0.45111 0.9891 0.48957 0.0
H75 H 0.40113 0.90693 0.48001 0.0
H76 H 0.9034 0.15881 0.44402 0.0
H77 H 0.84698 0.08736 0.46554 0.0
H78 H 0.90173 0.13111 0.55039 0.0
H79 H 0.95832 0.20264 0.52876 0.0
Dy80 Dy 0.73969 0.65629 0.84308 0.0
Dy81 Dy 0.6201 0.64706 0.84323 0.0
C82 C 0.67341 0.6564 0.78431 0.0
O83 O 0.72421 0.72817 0.85813 0.0
O84 O 0.65208 0.72778 0.83098 0.0
O85 O 0.80845 0.69819 0.82752 0.0
O86 O 0.80806 0.62927 0.85494 0.0
O87 O 0.64692 0.64932 0.88959 0.0
O88 O 0.72345 0.62716 0.88814 0.0
O89 O 0.63587 0.56915 0.85431 0.0
O90 O 0.70644 0.57881 0.8299 0.0
O91 O 0.54638 0.61774 0.82676 0.0
O92 O 0.55718 0.6702 0.86023 0.0
C93 C 0.69109 0.75264 0.84462 0.0
O94 O 0.71401 0.67708 0.79814 0.0
O95 O 0.63425 0.63481 0.798 0.0
C96 C 0.85895 0.64212 0.81616 0.0
C97 C 0.90585 0.58779 0.78097 0.0
C98 C 0.85486 0.58829 0.77661 0.0
C99 C 0.83158 0.61527 0.79409 0.0
C100 C 0.91016 0.64451 0.81936 0.0
C101 C 0.9335 0.61768 0.80186 0.0
C102 C 0.83327 0.66297 0.83747 0.0
C103 C 0.68578 0.63308 0.9024 0.0
C104 C 0.66852 0.54961 0.84182 0.0
C105 C 0.48866 0.60347 0.86306 0.0
C106 C 0.41459 0.53865 0.89373 0.0
C107 C 0.42107 0.59141 0.89507 0.0
C108 C 0.45758 0.62348 0.87974 0.0
C109 C 0.4839 0.55072 0.86281 0.0
C110 C 0.44711 0.51869 0.87787 0.0
C111 C 0.52559 0.63786 0.84602 0.0
H112 H 0.83262 0.56573 0.76072 0.0
H113 H 0.79183 0.61315 0.79134 0.0
H114 H 0.93169 0.66493 0.83635 0.0
H115 H 0.97265 0.61743 0.80621 0.0
H116 H 0.39718 0.60802 0.90745 0.0
H117 H 0.46103 0.66401 0.88057 0.0
H118 H 0.5078 0.53408 0.85044 0.0
H119 H 0.44289 0.47838 0.87598 0.0
C120 C 0.54755 0.02385 0.22348 0.0
N121 N 0.57774 0.04816 0.24388 0.0
N122 N 0.51151 0.98955 0.23571 0.0
C123 C 0.55401 0.03322 0.19168 0.0
C124 C 0.52098 0.99357 0.26433 0.0
N125 N 0.56175 0.02907 0.26944 0.0
C126 C 0.48938 0.96347 0.287 0.0
H127 H 0.55231 0.07337 0.18495 0.0
H128 H 0.52523 1.00861 0.17898 0.0
H129 H 0.59119 0.02657 0.187 0.0
H130 H 0.50273 0.9273 0.2929 0.0
H131 H 0.45026 0.95428 0.27875 0.0
H132 H 0.49113 0.98447 0.30657 0.0
C133 C 0.68111 0.53973 0.54536 0.0
N134 N 0.67829 0.57513 0.56368 0.0
N135 N 0.68562 0.49519 0.56018 0.0
C136 C 0.67725 0.54799 0.51312 0.0
C137 C 0.68543 0.50484 0.58816 0.0
N138 N 0.68062 0.55342 0.59026 0.0
C139 C 0.69342 0.46782 0.6133 0.0
H140 H 0.66233 0.51206 0.50314 0.0
H141 H 0.71475 0.56259 0.50543 0.0
H142 H 0.65338 0.57637 0.50614 0.0
H143 H 0.71484 0.43954 0.60728 0.0
H144 H 0.6569 0.44752 0.62019 0.0
H145 H 0.71323 0.4876 0.63175 0.0
C146 C 1.08101 0.33559 0.86741 0.0
N147 N 1.08833 0.34782 0.8951 0.0
N148 N 1.03725 0.34616 0.8554 0.0
C149 C 0.11996 0.31974 0.85089 0.0
C150 C 1.01669 0.36208 0.87782 0.0
N151 N 1.04785 0.36381 0.90159 0.0
C152 C 0.96889 0.38244 0.87548 0.0
H153 H 0.10475 0.30753 0.82946 0.0
H154 H 0.13459 0.28814 0.86334 0.0
H155 H 0.15143 0.35157 0.84815 0.0
H156 H 0.93894 0.35514 0.86546 0.0
H157 H 0.97352 0.41848 0.86176 0.0
H158 H 0.95712 0.38904 0.89683 0.0
C159 C 0.1839 0.5265 0.45543 0.0
N160 N 0.15416 0.50531 0.43368 0.0
N161 N 0.20905 0.57242 0.44619 0.0
C162 C 0.1876 0.50264 0.48565 0.0
C163 C 0.19382 0.57818 0.4181 0.0
N164 N 0.16074 0.53742 0.41051 0.0
C165 C 0.21177 0.62337 0.39799 0.0
H166 H 0.1552 0.50796 0.49712 0.0
H167 H 0.22148 0.5199 0.49789 0.0
H168 H 0.18682 0.46141 0.48532 0.0
H169 H 0.2508 0.63976 0.40387 0.0
H170 H 0.18868 0.65259 0.39973 0.0
H171 H 0.20863 0.61327 0.37532 0.0
C172 C 0.68474 0.15357 0.82845 0.0
N173 N 0.69063 0.11705 0.81138 0.0
N174 N 0.67884 0.19661 0.81236 0.0
C175 C 0.68437 0.1472 0.86073 0.0
C176 C 0.68088 0.18491 0.78491 0.0
N177 N 0.68762 0.13648 0.78428 0.0
C178 C 0.67625 0.22081 0.75871 0.0
H179 H 0.66834 0.10776 0.868 0.0
H180 H 0.66319 0.17356 0.86912 0.0
H181 H 0.72301 0.15559 0.86992 0.0
H182 H 0.6867 0.2608 0.76386 0.0
H183 H 0.63718 0.21475 0.75009 0.0
H184 H 0.69973 0.2137 0.74169 0.0
C185 C 0.55821 0.51043 0.13935 0.0
N186 N 0.59707 0.51644 0.12199 0.0
N187 N 0.51555 0.51689 0.12391 0.0
C188 C 0.56189 0.49915 0.17141 0.0
C189 C 0.53001 0.52777 0.09663 0.0
N190 N 0.57928 0.52795 0.09542 0.0
C191 C 0.49564 0.53824 0.07111 0.0
H192 H 0.55415 0.45759 0.17628 0.0
H193 H 0.53425 0.51553 0.18197 0.0
H194 H 0.59957 0.51402 0.18048 0.0
H195 H 0.49372 0.57914 0.06898 0.0
H196 H 0.45767 0.51707 0.07393 0.0
H197 H 0.5089 0.52787 0.05094 0.0
H198 H 0.21955 0.44811 0.12939 0.0
H199 H 0.22829 0.5881 0.17047 0.0
H200 H 0.31914 0.60154 0.17093 0.0
H201 H 0.32998 0.4095 0.16674 0.0
H202 H 0.34936 0.38521 0.13547 0.0
H203 H 0.28459 0.38467 0.13944 0.0
H204 H 0.27853 0.43495 0.08992 0.0
H205 H 0.34321 0.43548 0.08577 0.0
H206 H 0.31994 0.49413 0.0833 0.0
H207 H 0.41005 0.60185 0.16599 0.0
H208 H 0.49332 0.59025 0.15369 0.0
H209 H 0.4284 0.45135 0.11539 0.0
C210 C 0.24058 0.48129 0.13876 0.0
C211 C 0.21609 0.51685 0.15004 0.0
C212 C 0.2455 0.56014 0.16166 0.0
C213 C 0.29747 0.56813 0.16212 0.0
C214 C 0.32037 0.5327 0.15078 0.0
C215 C 0.29296 0.49021 0.13916 0.0
C216 C 0.32714 0.45932 0.12723 0.0
C217 C 0.32248 0.40654 0.14318 0.0
C218 C 0.31656 0.45577 0.09462 0.0
C219 C 0.37778 0.49111 0.13389 0.0
C220 C 0.37293 0.53314 0.14767 0.0
C221 C 0.4142 0.56884 0.1554 0.0
C222 C 0.46142 0.56191 0.14852 0.0
C223 C 0.46744 0.51969 0.13402 0.0
C224 C 0.42491 0.48362 0.12687 0.0
H225 H 0.95386 0.2843 0.50042 0.0
H226 H 0.99334 0.18792 0.4393 0.0
H227 H 1.05087 0.2605 0.41789 0.0
H228 H 0.9585 0.39712 0.45151 0.0
H229 H 0.98425 0.43929 0.47879 0.0
H230 H 0.94494 0.38018 0.48864 0.0
H231 H 1.01385 0.35568 0.52504 0.0
H232 H 1.05334 0.41469 0.51532 0.0
H233 H 1.07453 0.35586 0.51276 0.0
H234 H 0.10784 0.3424 0.4051 0.0
H235 H 0.15887 0.42799 0.40156 0.0
H236 H 1.07982 0.47192 0.46934 0.0
C237 C 0.97468 0.27845 0.48257 0.0
C238 C 0.96913 0.23042 0.47152 0.0
C239 C 0.99662 0.22447 0.44791 0.0
C240 C 1.02949 0.26542 0.43568 0.0
C241 C 1.03419 0.31219 0.44715 0.0
C242 C 1.00738 0.31897 0.46998 0.0
C243 C 1.01976 0.37293 0.47855 0.0
C244 C 0.97414 0.39891 0.4741 0.0
C245 C 1.04168 0.37488 0.50977 0.0
C246 C 1.05833 0.39525 0.45729 0.0
C247 C 1.06607 0.35962 0.43932 0.0
C248 C 1.10151 0.37081 0.41874 0.0
C249 C 0.12998 0.41955 0.41665 0.0
C250 C 0.12257 0.45648 0.43482 0.0
C251 C 1.08601 0.44421 0.4552 0.0
H252 H 0.6367 0.81667 0.81295 0.0
H253 H 0.76253 0.8158 0.87454 0.0
H254 H 0.7757 0.90902 0.87291 0.0
H255 H 0.68979 0.92821 0.76992 0.0
H256 H 0.63211 0.951 0.76297 0.0
H257 H 0.63214 0.88412 0.76911 0.0
H258 H 0.5733 0.8788 0.81064 0.0
H259 H 0.57302 0.94562 0.80457 0.0
H260 H 0.59071 0.91936 0.83977 0.0
H261 H 0.77567 1.00281 0.86426 0.0
H262 H 0.76214 0.08985 0.849 0.0
H263 H 0.63628 0.02979 0.79358 0.0
C264 C 0.66693 0.83599 0.8262 0.0
C265 C 0.6985 0.80871 0.84397 0.0
C266 C 0.73782 0.83568 0.86078 0.0
C267 C 0.74561 0.8887 0.86 0.0
C268 C 0.71392 0.91437 0.84222 0.0
C269 C 0.67541 0.88893 0.82557 0.0
C270 C 0.64698 0.92555 0.80806 0.0
C271 C 0.65048 0.92198 0.7756 0.0
C272 C 0.59279 0.9168 0.81626 0.0
C273 C 0.67524 0.9755 0.81764 0.0
C274 C 0.71381 0.96826 0.8373 0.0
C275 C 0.74541 1.00885 0.84901 0.0
C276 C 0.73736 0.05804 0.8404 0.0
C277 C 0.698 0.06624 0.82039 0.0
C278 C 0.66666 0.02437 0.80889 0.0
H279 H 0.89474 0.57015 0.12099 0.0
H280 H 0.89058 0.42377 0.16843 0.0
H281 H 0.79992 0.4128 0.16832 0.0
H282 H 0.79609 0.60768 0.15663 0.0
H283 H 0.77016 0.63776 0.12462 0.0
H284 H 0.83522 0.63469 0.12787 0.0
H285 H 0.82673 0.59089 0.08008 0.0
H286 H 0.76164 0.59394 0.07671 0.0
H287 H 0.78167 0.53404 0.07616 0.0
H288 H 0.70869 0.41617 0.16268 0.0
H289 H 0.62406 0.43402 0.15146 0.0
H290 H 0.68471 0.57928 0.1095 0.0
C291 C 0.87481 0.53578 0.13136 0.0
C292 C 0.90061 0.49794 0.14481 0.0
C293 C 0.87248 0.45358 0.15803 0.0
C294 C 0.8206 0.44688 0.15809 0.0
C295 C 0.7965 0.48479 0.14486 0.0
C296 C 0.82255 0.5284 0.13166 0.0
C297 C 0.78706 0.56306 0.11894 0.0
C298 C 0.79778 0.61381 0.13285 0.0
C299 C 0.78944 0.57095 0.08602 0.0
C300 C 0.7373 0.53232 0.12728 0.0
C301 C 0.74372 0.48715 0.14209 0.0
C302 C 0.70337 0.45167 0.15134 0.0
C303 C 0.65532 0.4623 0.14512 0.0
C304 C 0.64742 0.50822 0.12996 0.0
C305 C 0.68934 0.54386 0.12119 0.0
H306 H 0.33415 0.84161 0.4962 0.0
H307 H 0.46501 0.77662 0.52301 0.0
H308 H 0.4202 0.69271 0.51082 0.0
H309 H 0.24325 0.73435 0.52118 0.0
H310 H 0.20026 0.74143 0.49075 0.0
H311 H 0.24161 0.79598 0.50322 0.0
H312 H 0.2748 0.81708 0.45221 0.0
H313 H 0.23347 0.76272 0.4396 0.0
H314 H 0.29899 0.76975 0.43531 0.0
H315 H 0.36291 0.61672 0.4929 0.0
H316 H 0.29686 0.55468 0.47021 0.0
H317 H 0.20366 0.66855 0.45541 0.0
C318 C 0.35341 0.80976 0.49954 0.0
C319 C 0.40304 0.81577 0.5108 0.0
C320 C 0.42673 0.77292 0.51496 0.0
C321 C 0.40167 0.72509 0.50796 0.0
C322 C 0.35287 0.72058 0.49685 0.0
C323 C 0.32896 0.76173 0.49266 0.0
C324 C 0.277 0.74701 0.47943 0.0
C325 C 0.23825 0.75518 0.49987 0.0
C326 C 0.27072 0.77585 0.44989 0.0
C327 C 0.27567 0.69132 0.47648 0.0
C328 C 0.31972 0.67672 0.48677 0.0
C329 C 0.32801 0.62753 0.48518 0.0
C330 C 0.29041 0.59254 0.47248 0.0
C331 C 0.24524 0.60691 0.46176 0.0
C332 C 0.23775 0.65676 0.46395 0.0
H333 H 0.73504 0.49319 0.82606 0.0
H334 H 0.58667 0.4796 0.8554 0.0
H335 H 0.57453 0.38705 0.85324 0.0
H336 H 0.70882 0.39842 0.77651 0.0
H337 H 0.76532 0.37391 0.78473 0.0
H338 H 0.76382 0.4392 0.78948 0.0
H339 H 0.79583 0.42714 0.84235 0.0
H340 H 0.79632 0.36093 0.83935 0.0
H341 H 0.76172 0.37986 0.86646 0.0
H342 H 0.5772 0.29568 0.84583 0.0
H343 H 0.59539 0.21317 0.83377 0.0
H344 H 0.74217 0.28573 0.81094 0.0
C345 C 0.69999 0.4708 0.83206 0.0
C346 C 0.66177 0.49385 0.84083 0.0
C347 C 0.6166 0.46297 0.84866 0.0
C348 C 0.6093 0.41028 0.84751 0.0
C349 C 0.64767 0.38879 0.83874 0.0
C350 C 0.69221 0.41807 0.83129 0.0
C351 C 0.72751 0.38557 0.82269 0.0
C352 C 0.74224 0.40017 0.79151 0.0
C353 C 0.77308 0.38863 0.84395 0.0
C354 C 0.69539 0.33371 0.82552 0.0
C355 C 0.64957 0.33625 0.83507 0.0
C356 C 0.61313 0.29325 0.8386 0.0
C357 C 0.62367 0.24666 0.83185 0.0
C358 C 0.67014 0.24353 0.82177 0.0
C359 C 0.70656 0.28746 0.8189 0.0
H360 H 0.73667 0.87269 0.5271 0.0
H361 H 0.58658 0.87354 0.55015 0.0
H362 H 0.57101 0.78102 0.55612 0.0
H363 H 0.70712 0.7578 0.48769 0.0
H364 H 0.76296 0.73515 0.5008 0.0
H365 H 0.76237 0.80211 0.49655 0.0
H366 H 0.79284 0.81025 0.55006 0.0
H367 H 0.7937 0.74342 0.55437 0.0
H368 H 0.75845 0.77124 0.57771 0.0
H369 H 0.57263 0.68965 0.56358 0.0
H370 H 0.59199 0.60305 0.57101 0.0
H371 H 0.73895 0.6581 0.54179 0.0
C372 C 0.70044 0.85333 0.53312 0.0
C373 C 0.66299 0.88067 0.53825 0.0
C374 C 0.61613 0.85379 0.54629 0.0
C375 C 0.60672 0.80103 0.54964 0.0
C376 C 0.64441 0.77528 0.54481 0.0
C377 C 0.69031 0.80025 0.53665 0.0
C378 C 0.72472 0.76293 0.53399 0.0
C379 C 0.7402 0.76461 0.5029 0.0
C380 C 0.77011 0.77255 0.5553 0.0
C381 C 0.69106 0.71345 0.54228 0.0
C382 C 0.64488 0.72166 0.5484 0.0
C383 C 0.60832 0.68254 0.55839 0.0
C384 C 0.61943 0.63371 0.5625 0.0
C385 C 0.66635 0.62451 0.55643 0.0
C386 C 0.70244 0.66458 0.54584 0.0
H387 H 0.86657 0.48903 0.77637 0.0
H388 H 0.9976 0.59979 0.7592 0.0
H389 H 1.04566 0.53174 0.75828 0.0
H390 H 0.90545 0.42667 0.82501 0.0
H391 H 0.87919 0.36211 0.81814 0.0
H392 H 0.8504 0.41253 0.80188 0.0
H393 H 0.85594 0.38369 0.7515 0.0
H394 H 0.88446 0.33184 0.76739 0.0
H395 H 0.91466 0.37498 0.73981 0.0
H396 H 1.08315 0.46579 0.78245 0.0
H397 H 0.10329 0.41022 0.82363 0.0
H398 H 0.95244 0.33 0.82181 0.0
C399 C 0.90455 0.4985 0.77035 0.0
C400 C 0.92861 0.54945 0.76829 0.0
C401 C 0.9786 0.56092 0.76116 0.0
C402 C 1.0061 0.52227 0.76038 0.0
C403 C 0.98288 0.47226 0.76622 0.0
C404 C 0.93245 0.45994 0.76979 0.0
C405 C 0.91851 0.40564 0.78212 0.0
C406 C 0.8867 0.40155 0.8084 0.0
C407 C 0.89185 0.37206 0.7588 0.0
C408 C 0.96945 0.39309 0.79028 0.0
C409 C 1.00601 0.43094 0.7794 0.0
C410 C 1.05518 0.43465 0.78981 0.0
C411 C 1.06657 0.40229 0.81332 0.0
C412 C 1.02932 0.36532 0.82587 0.0
C413 C 0.98132 0.35797 0.81247 0.0
H414 H 0.24266 0.85522 0.18279 0.0
H415 H 0.31112 0.73203 0.16045 0.0
H416 H 0.39348 0.77957 0.17461 0.0
H417 H 0.34042 0.95849 0.15947 0.0
H418 H 0.3352 0.99549 0.18909 0.0
H419 H 0.28183 0.95324 0.17547 0.0
H420 H 0.27025 0.9087 0.22658 0.0
H421 H 0.32361 0.95071 0.24032 0.0
H422 H 0.32089 0.88328 0.24543 0.0
H423 H 0.46796 0.83895 0.19245 0.0
H424 H 0.52962 0.90595 0.21449 0.0
H425 H 0.41349 0.98968 0.22638 0.0
C426 C 0.27513 0.83871 0.18053 0.0
C427 C 0.2707 0.79008 0.17047 0.0
C428 C 0.31382 0.76916 0.16826 0.0
C429 C 0.36071 0.79594 0.17611 0.0
C430 C 0.36384 0.84354 0.18626 0.0
C431 C 0.32227 0.86476 0.18859 0.0
C432 C 0.33582 0.91545 0.20152 0.0
C433 C 0.32253 0.9582 0.1801 0.0
C434 C 0.31118 0.91444 0.23016 0.0
C435 C 0.39138 0.91919 0.20626 0.0
C436 C 0.4068 0.87746 0.19708 0.0
C437 C 0.45637 0.87187 0.19962 0.0
C438 C 0.49102 0.90981 0.21207 0.0
C439 C 0.47579 0.95231 0.2219 0.0
C440 C 0.42555 0.95729 0.21884 0.0
H441 H 0.62222 0.19891 0.54683 0.0
H442 H 0.75919 0.21335 0.50389 0.0
H443 H 0.77098 0.30635 0.50457 0.0
H444 H 0.58207 0.31429 0.51373 0.0
H445 H 0.55931 0.32903 0.54666 0.0
H446 H 0.55883 0.26414 0.53993 0.0
H447 H 0.60958 0.25167 0.58813 0.0
H448 H 0.61032 0.31648 0.59498 0.0
H449 H 0.6677 0.29318 0.5948 0.0
H450 H 0.76944 0.39745 0.51154 0.0
H451 H 0.75754 0.47964 0.52759 0.0
H452 H 0.62465 0.40556 0.56842 0.0
C453 C 0.65408 0.22184 0.53704 0.0
C454 C 0.68947 0.19928 0.52492 0.0
C455 C 0.73156 0.23015 0.51312 0.0
C456 C 0.73845 0.28291 0.51332 0.0
C457 C 0.70322 0.30409 0.52576 0.0
C458 C 0.66207 0.27453 0.53763 0.0
C459 C 0.63211 0.30637 0.55192 0.0
C460 C 0.57999 0.30327 0.53717 0.0
C461 C 0.62982 0.291 0.58437 0.0
C462 C 0.66296 0.35835 0.54636 0.0
C463 C 0.70344 0.35634 0.53087 0.0
C464 C 0.73776 0.39953 0.52355 0.0
C465 C 0.73077 0.44589 0.53261 0.0
C466 C 0.69026 0.44836 0.54905 0.0
C467 C 0.65581 0.4042 0.55579 0.0
H468 H 0.32071 0.55784 0.8933 0.0
H469 H 0.40902 0.44232 0.92028 0.0
H470 H 0.33286 0.38197 0.93176 0.0
H471 H 0.22155 0.5155 0.94684 0.0
H472 H 0.17458 0.53109 0.92042 0.0
H473 H 0.23635 0.56753 0.92018 0.0
H474 H 0.24127 0.54956 0.86685 0.0
H475 H 0.1799 0.51326 0.86696 0.0
H476 H 0.23035 0.48499 0.85721 0.0
H477 H 0.24602 0.33051 0.93144 0.0
H478 H 0.15749 0.29481 0.91997 0.0
H479 H 0.12902 0.4449 0.89399 0.0
C480 C 0.32448 0.52064 0.90289 0.0
C481 C 0.37092 0.50499 0.90597 0.0
C482 C 0.37378 0.45515 0.91753 0.0
C483 C 0.33075 0.42071 0.92438 0.0
C484 C 0.28529 0.43695 0.91999 0.0
C485 C 0.28211 0.4861 0.90989 0.0
C486 C 0.22905 0.49292 0.90357 0.0
C487 C 0.21454 0.5289 0.92398 0.0
C488 C 0.21964 0.51121 0.87178 0.0
C489 C 0.20293 0.43942 0.91015 0.0
C490 C 0.23558 0.4076 0.92017 0.0
C491 C 0.21996 0.35535 0.9245 0.0
C492 C 0.16991 0.33532 0.91796 0.0
C493 C 0.13674 0.36762 0.90715 0.0
C494 C 0.15343 0.42008 0.90367 0.0
H495 H 0.85641 0.16697 0.21326 0.0
H496 H 0.80487 0.30837 0.18801 0.0
H497 H 0.7207 0.26867 0.20074 0.0
H498 H 0.7495 0.0848 0.18755 0.0
H499 H 0.75064 0.03745 0.21717 0.0
H500 H 0.80735 0.0771 0.20658 0.0
H501 H 0.82526 0.10515 0.25856 0.0
H502 H 0.76849 0.0656 0.26929 0.0
H503 H 0.77971 0.13203 0.27504 0.0
H504 H 0.64138 0.21306 0.21376 0.0
H505 H 0.57212 0.14448 0.22734 0.0
H506 H 0.67474 0.04068 0.24687 0.0
C507 C 0.82762 0.18981 0.21071 0.0
C508 C 0.83743 0.24077 0.1993 0.0
C509 C 0.79831 0.269 0.19604 0.0
C510 C 0.75037 0.24694 0.2035 0.0
C511 C 0.74202 0.1967 0.21451 0.0
C512 C 0.77951 0.16849 0.21827 0.0
C513 C 0.76027 0.11493 0.23015 0.0
C514 C 0.76736 0.0763 0.2091 0.0
C515 C 0.78491 0.10379 0.26004 0.0
C516 C 0.706 0.11731 0.23208 0.0
C517 C 0.69635 0.16493 0.22296 0.0
C518 C 0.64859 0.17588 0.22135 0.0
C519 C 0.60963 0.13702 0.22906 0.0
C520 C 0.61878 0.08825 0.23855 0.0
C521 C 0.66746 0.07824 0.24027 0.0
H522 H 1.0492 0.40133 0.06826 0.0
H523 H 1.03966 0.55874 0.04484 0.0
H524 H 1.03742 0.54289 0.99334 0.0
H525 H 0.13015 0.38981 0.01333 0.0
H526 H 0.10211 0.32557 0.0073 0.0
H527 H 1.10115 0.34893 0.0422 0.0
H528 H 1.00553 0.32376 0.04044 0.0
H529 H 1.00621 0.30029 0.00554 0.0
H530 H 0.96925 0.34741 0.01036 0.0
H531 H 1.03669 0.50981 0.94448 0.0
H532 H 1.03941 0.46212 0.90178 0.0
H533 H 1.05199 0.32735 0.95714 0.0
C534 C 1.04612 0.43241 0.05233 0.0
C535 C 1.04415 0.48122 0.06054 0.0
C536 C 1.04111 0.52105 0.03902 0.0
C537 C 1.03977 0.51239 0.00974 0.0
C538 C 1.04201 0.46385 0.00242 0.0
C539 C 1.04541 0.4246 0.02309 0.0
C540 C 1.04897 0.37638 0.00959 0.0
C541 C 1.09854 0.35918 0.01865 0.0
C542 C 1.00485 0.3345 0.01692 0.0
C543 C 1.04652 0.39444 0.97803 0.0
C544 C 1.04239 0.44499 0.97435 0.0
C545 C 1.03958 0.47017 0.94712 0.0
C546 C 1.04081 0.44286 0.92307 0.0
C547 C 1.04479 0.39103 0.92643 0.0
C548 C 1.04826 0.36678 0.95423 0.0
H549 H 0.63678 0.97331 0.43467 0.0
H550 H 0.6814 0.13491 0.44012 0.0
H551 H 0.66208 0.14888 0.38774 0.0
H552 H 0.69018 0.97128 0.36485 0.0
H553 H 0.64153 0.92198 0.35293 0.0
H554 H 0.65918 0.925 0.39073 0.0
H555 H 0.56836 0.92709 0.40122 0.0
H556 H 0.5505 0.92435 0.36347 0.0
H557 H 0.53745 0.97516 0.38269 0.0
H558 H 0.62827 0.1451 0.33597 0.0
H559 H 0.59177 0.12335 0.28778 0.0
H560 H 0.58282 0.96419 0.31433 0.0
C561 C 0.64269 1.01153 0.4247 0.0
C562 C 0.66013 0.05315 0.44122 0.0
C563 C 0.66809 0.10264 0.42763 0.0
C564 C 0.65714 0.1109 0.39798 0.0
C565 C 0.63965 0.06909 0.3822 0.0
C566 C 0.63354 0.0203 0.39497 0.0
C567 C 0.61537 0.98192 0.37305 0.0
C568 C 0.65387 0.94805 0.37022 0.0
C569 C 0.56493 0.95028 0.38057 0.0
C570 C 0.61071 0.01676 0.34617 0.0
C571 C 0.62438 0.06691 0.35192 0.0
C572 C 0.61883 0.10594 0.331 0.0
C573 C 0.59853 0.09329 0.30358 0.0
C574 C 0.58509 0.04212 0.29714 0.0
C575 C 0.59239 1.00362 0.31866 0.0
H576 H 0.6171 0.58749 0.74995 0.0
H577 H 0.73332 0.7198 0.74799 0.0
H578 H 0.74322 0.71087 0.69676 0.0
H579 H 0.675 0.51699 0.7081 0.0
H580 H 0.61954 0.48739 0.68903 0.0
H581 H 0.61637 0.5075 0.7245 0.0
H582 H 0.551 0.56216 0.70518 0.0
H583 H 0.5535 0.54172 0.66965 0.0
H584 H 0.5645 0.60823 0.6752 0.0
H585 H 0.74666 0.68333 0.64764 0.0
H586 H 0.74209 0.63903 0.60307 0.0
H587 H 0.62357 0.525 0.63597 0.0
C588 C 0.64357 0.6154 0.73848 0.0
C589 C 0.67409 0.65466 0.75283 0.0
C590 C 0.70939 0.68958 0.73736 0.0
C591 C 0.71525 0.68489 0.70825 0.0
C592 C 0.68558 0.64503 0.6949 0.0
C593 C 0.65024 0.61098 0.70939 0.0
C594 C 0.62595 0.56932 0.69053 0.0
C595 C 0.63476 0.51724 0.70384 0.0
C596 C 0.57044 0.57045 0.6848 0.0
C597 C 0.65383 0.58483 0.66344 0.0
C598 C 0.68778 0.62884 0.66639 0.0
C599 C 0.71964 0.64934 0.64487 0.0
C600 C 0.71672 0.62416 0.61965 0.0
C601 C 0.68221 0.57916 0.61615 0.0
C602 C 0.65021 0.55943 0.63826 0.0
H603 H 0.62604 0.07467 0.62224 0.0
H604 H 0.76725 0.02371 0.62412 0.0
H605 H 0.77888 0.03442 0.67634 0.0
H606 H 0.66273 0.17014 0.66937 0.0
H607 H 0.60496 0.16021 0.6867 0.0
H608 H 0.6059 0.14425 0.65015 0.0
H609 H 0.56277 0.05258 0.66434 0.0
H610 H 0.56164 0.06837 0.70098 0.0
H611 H 0.58994 0.01606 0.69331 0.0
H612 H 0.77808 0.05778 0.72776 0.0
H613 H 0.76477 0.09277 0.77346 0.0
H614 H 0.62324 0.12496 0.73799 0.0
C615 C 0.65921 0.06516 0.63362 0.0
C616 C 0.69573 0.04832 0.61902 0.0
C617 C 0.73865 0.03654 0.63481 0.0
C618 C 0.74555 0.04239 0.66451 0.0
C619 C 0.70899 0.05959 0.67815 0.0
C620 C 0.66654 0.07053 0.6632 0.0
C621 C 0.63393 0.09076 0.68247 0.0
C622 C 0.62647 0.14452 0.67151 0.0
C623 C 0.58412 0.05478 0.68545 0.0
C624 C 0.66526 0.09088 0.71043 0.0
C625 C 0.70825 0.07236 0.70765 0.0
C626 C 0.74423 0.07168 0.73026 0.0
C627 C 0.7364 0.09137 0.7561 0.0
C628 C 0.69307 0.11137 0.759 0.0
C629 C 0.6567 0.10997 0.73612 0.0
H630 H 0.63886 0.66982 0.94359 0.0
H631 H 0.72863 0.55778 0.93081 0.0
H632 H 0.71696 0.52193 0.9809 0.0
H633 H 0.68378 0.68753 0.01996 0.0
H634 H 0.62384 0.69613 0.02978 0.0
H635 H 0.64318 0.71539 0.99383 0.0
H636 H 0.56404 0.65945 0.97304 0.0
H637 H 0.54478 0.6396 0.00886 0.0
H638 H 0.55117 0.59308 0.98454 0.0
H639 H 0.68383 0.49019 0.02969 0.0
H640 H 0.63961 0.47151 0.07486 0.0
H641 H 0.58111 0.61048 0.05812 0.0
C642 C 0.65691 0.63843 0.95156 0.0
C643 C 0.68468 0.61658 0.9334 0.0
C644 C 0.70763 0.57541 0.9445 0.0
C645 C 0.70106 0.55468 0.97288 0.0
C646 C 0.67247 0.57639 0.99007 0.0
C647 C 0.65176 0.61812 0.98002 0.0
C648 C 0.62164 0.63357 0.00253 0.0
C649 C 0.64449 0.68628 0.01209 0.0
C650 C 0.5672 0.63127 0.99158 0.0
C651 C 0.62701 0.59289 0.02637 0.0
C652 C 0.65625 0.56004 0.0188 0.0
C653 C 0.66204 0.51648 0.03619 0.0
C654 C 0.63699 0.50619 0.06181 0.0
C655 C 0.60745 0.53984 0.07004 0.0
C656 C 0.60348 0.58418 0.05231 0.0
H657 H 0.13804 0.48808 0.24528 0.0
H658 H 1.01287 0.56681 0.23662 0.0
H659 H 1.01827 0.57347 0.28931 0.0
H660 H 0.11009 0.41783 0.31342 0.0
H661 H 0.17391 0.42539 0.32671 0.0
H662 H 0.15847 0.42418 0.28859 0.0
H663 H 0.21544 0.51106 0.27951 0.0
H664 H 0.2315 0.51219 0.31752 0.0
H665 H 0.20644 0.56383 0.29851 0.0
H666 H 1.03787 0.57176 0.34309 0.0
H667 H 1.07587 0.56944 0.39303 0.0
H668 H 0.19037 0.49656 0.36569 0.0
C669 C 0.11154 0.50641 0.2545 0.0
C670 C 1.07478 0.5266 0.23697 0.0
C671 C 1.04133 0.55112 0.24972 0.0
C672 C 1.04392 0.55478 0.27961 0.0
C673 C 1.08045 0.53416 0.29633 0.0
C674 C 0.11408 0.51107 0.28417 0.0
C675 C 0.15176 0.49487 0.30658 0.0
C676 C 0.14833 0.43714 0.30896 0.0
C677 C 0.20439 0.52213 0.30014 0.0
C678 C 0.13429 0.51268 0.33326 0.0
C679 C 1.09262 0.53452 0.32702 0.0
C680 C 1.07028 0.55446 0.34824 0.0
C681 C 1.09172 0.5528 0.37642 0.0
C682 C 0.13495 0.53174 0.38289 0.0
C683 C 0.15638 0.5114 0.36114 0.0
loop_
_geom_bond_atom_site_label_1
_geom_bond_atom_site_label_2
_geom_bond_distance
_geom_bond_site_symmetry_2
_ccdc_geom_bond_type
Dy0 O3 2.307 1_455 S
Dy0 O5 2.395 . S
Dy0 O6 2.379 . S
Dy0 O8 2.339 . S
Dy0 O10 2.298 . S
Dy0 O14 2.275 . S
Dy0 C22 2.738 . S
Dy1 O4 2.298 . S
Dy1 O7 2.275 . S
Dy1 O9 2.307 1_655 S
Dy1 O11 2.395 . S
Dy1 O12 2.379 . S
Dy1 O15 2.339 . S
Dy1 C31 2.738 . S
C2 O14 1.254 . S
C2 O15 1.257 1_455 S
O3 Dy0 2.307 1_655 S
O3 C13 1.266 . S
O4 Dy1 2.298 . S
O4 C13 1.236 . S
O5 Dy0 2.395 . S
O5 C22 1.255 . S
O6 Dy0 2.379 . S
O6 C22 1.249 . S
O7 Dy1 2.275 . S
O7 C23 1.254 1_655 S
O8 Dy0 2.339 . S
O8 C23 1.257 . S
O9 Dy1 2.307 1_455 S
O9 C24 1.266 . S
O10 Dy0 2.298 . S
O10 C24 1.236 . S
O11 Dy1 2.395 . S
O11 C31 1.255 . S
O12 Dy1 2.379 . S
O12 C31 1.249 . S
C13 O3 1.266 . S
C13 O4 1.236 . S
O14 Dy0 2.275 . S
O14 C2 1.254 . S
O15 Dy1 2.339 . S
O15 C2 1.257 1_655 S
C16 C19 1.344 . S
C16 C20 1.328 . S
C16 C22 1.516 . S
C17 C18 1.304 . S
C17 C21 1.323 . S
C18 C17 1.304 . S
C18 C19 1.371 . S
C18 H32 0.930 . S
C19 C16 1.344 . S
C19 C18 1.371 . S
C19 H33 0.931 . S
C20 C16 1.328 . S
C20 C21 1.433 . S
C20 H34 0.931 . S
C21 C17 1.323 . S
C21 C20 1.433 . S
C21 H35 0.933 . S
C22 Dy0 2.738 . S
C22 O5 1.255 . S
C22 O6 1.249 . S
C22 C16 1.516 . S
C23 O7 1.254 1_455 S
C23 O8 1.257 . S
C24 O9 1.266 . S
C24 O10 1.236 . S
C25 C28 1.344 . S
C25 C29 1.328 . S
C25 C31 1.516 . S
C26 C27 1.304 . S
C26 C30 1.323 . S
C27 C26 1.304 . S
C27 C28 1.371 . S
C27 H36 0.930 . S
C28 C25 1.344 . S
C28 C27 1.371 . S
C28 H37 0.931 . S
C29 C25 1.328 . S
C29 C30 1.433 . S
C29 H38 0.931 . S
C30 C26 1.323 . S
C30 C29 1.433 . S
C30 H39 0.933 . S
C31 Dy1 2.738 . S
C31 O11 1.255 . S
C31 O12 1.249 . S
C31 C25 1.516 . S
H32 C18 0.930 . S
H33 C19 0.931 . S
H34 C20 0.931 . S
H35 C21 0.933 . S
H36 C27 0.930 . S
H37 C28 0.931 . S
H38 C29 0.931 . S
H39 C30 0.933 . S
Dy40 O43 2.307 1_565 S
Dy40 O45 2.395 . S
Dy40 O46 2.379 . S
Dy40 O48 2.339 1_565 S
Dy40 O50 2.298 . S
Dy40 O54 2.275 1_565 S
Dy40 C62 2.738 . S
Dy41 O44 2.298 . S
Dy41 O47 2.275 . S
Dy41 O49 2.307 1_545 S
Dy41 O51 2.395 . S
Dy41 O52 2.379 . S
Dy41 O55 2.339 . S
Dy41 C71 2.738 . S
C42 O54 1.254 . S
C42 O55 1.257 . S
O43 Dy40 2.307 1_545 S
O43 C53 1.266 . S
O44 Dy41 2.298 . S
O44 C53 1.236 . S
O45 Dy40 2.395 . S
O45 C62 1.255 . S
O46 Dy40 2.379 . S
O46 C62 1.249 . S
O47 Dy41 2.275 . S
O47 C63 1.254 . S
O48 Dy40 2.339 1_545 S
O48 C63 1.257 . S
O49 Dy41 2.307 1_565 S
O49 C64 1.266 . S
O50 Dy40 2.298 . S
O50 C64 1.236 . S
O51 Dy41 2.395 . S
O51 C71 1.255 . S
O52 Dy41 2.379 . S
O52 C71 1.249 . S
C53 O43 1.266 . S
C53 O44 1.236 . S
O54 Dy40 2.275 1_545 S
O54 C42 1.254 . S
O55 Dy41 2.339 . S
O55 C42 1.257 . S
C56 C59 1.344 . S
C56 C60 1.328 . S
C56 C62 1.516 . S
C57 C58 1.304 . S
C57 C61 1.323 . S
C58 C57 1.304 . S
C58 C59 1.371 . S
C58 H72 0.930 . S
C59 C56 1.344 . S
C59 C58 1.371 . S
C59 H73 0.931 . S
C60 C56 1.328 . S
C60 C61 1.433 . S
C60 H74 0.931 . S
C61 C57 1.323 . S
C61 C60 1.433 . S
C61 H75 0.933 . S
C62 Dy40 2.738 . S
C62 O45 1.255 . S
C62 O46 1.249 . S
C62 C56 1.516 . S
C63 O47 1.254 . S
C63 O48 1.257 . S
C64 O49 1.266 . S
C64 O50 1.236 . S
C65 C68 1.344 . S
C65 C69 1.328 . S
C65 C71 1.516 . S
C66 C67 1.304 . S
C66 C70 1.323 . S
C67 C66 1.304 . S
C67 C68 1.371 . S
C67 H76 0.930 . S
C68 C65 1.344 . S
C68 C67 1.371 . S
C68 H77 0.931 . S
C69 C65 1.328 . S
C69 C70 1.433 . S
C69 H78 0.931 . S
C70 C66 1.323 . S
C70 C69 1.433 . S
C70 H79 0.933 . S
C71 Dy41 2.738 . S
C71 O51 1.255 . S
C71 O52 1.249 . S
C71 C65 1.516 . S
H72 C58 0.930 . S
H73 C59 0.931 . S
H74 C60 0.931 . S
H75 C61 0.933 . S
H76 C67 0.930 . S
H77 C68 0.931 . S
H78 C69 0.931 . S
H79 C70 0.933 . S
Dy80 O83 2.307 . S
Dy80 O85 2.395 . S
Dy80 O86 2.379 . S
Dy80 O88 2.339 . S
Dy80 O90 2.298 . S
Dy80 O94 2.275 . S
Dy80 C102 2.738 . S
Dy81 O84 2.298 . S
Dy81 O87 2.275 . S
Dy81 O89 2.307 . S
Dy81 O91 2.395 . S
Dy81 O92 2.379 . S
Dy81 O95 2.339 . S
Dy81 C111 2.738 . S
C82 O94 1.254 . S
C82 O95 1.257 . S
O83 Dy80 2.307 . S
O83 C93 1.266 . S
O84 Dy81 2.298 . S
O84 C93 1.236 . S
O85 Dy80 2.395 . S
O85 C102 1.255 . S
O86 Dy80 2.379 . S
O86 C102 1.249 . S
O87 Dy81 2.275 . S
O87 C103 1.254 . S
O88 Dy80 2.339 . S
O88 C103 1.257 . S
O89 Dy81 2.307 . S
O89 C104 1.266 . S
O90 Dy80 2.298 . S
O90 C104 1.236 . S
O91 Dy81 2.395 . S
O91 C111 1.255 . S
O92 Dy81 2.379 . S
O92 C111 1.249 . S
C93 O83 1.266 . S
C93 O84 1.236 . S
O94 Dy80 2.275 . S
O94 C82 1.254 . S
O95 Dy81 2.339 . S
O95 C82 1.257 . S
C96 C99 1.344 . S
C96 C100 1.328 . S
C96 C102 1.516 . S
C97 C98 1.304 . S
C97 C101 1.323 . S
C98 C97 1.304 . S
C98 C99 1.371 . S
C98 H112 0.930 . S
C99 C96 1.344 . S
C99 C98 1.371 . S
C99 H113 0.931 . S
C100 C96 1.328 . S
C100 C101 1.433 . S
C100 H114 0.931 . S
C101 C97 1.323 . S
C101 C100 1.433 . S
C101 H115 0.933 . S
C102 Dy80 2.738 . S
C102 O85 1.255 . S
C102 O86 1.249 . S
C102 C96 1.516 . S
C103 O87 1.254 . S
C103 O88 1.257 . S
C104 O89 1.266 . S
C104 O90 1.236 . S
C105 C108 1.344 . S
C105 C109 1.328 . S
C105 C111 1.516 . S
C106 C107 1.304 . S
C106 C110 1.323 . S
C107 C106 1.304 . S
C107 C108 1.371 . S
C107 H116 0.930 . S
C108 C105 1.344 . S
C108 C107 1.371 . S
C108 H117 0.931 . S
C109 C105 1.328 . S
C109 C110 1.433 . S
C109 H118 0.931 . S
C110 C106 1.323 . S
C110 C109 1.433 . S
C110 H119 0.933 . S
C111 Dy81 2.738 . S
C111 O91 1.255 . S
C111 O92 1.249 . S
C111 C105 1.516 . S
H112 C98 0.930 . S
H113 C99 0.931 . S
H114 C100 0.931 . S
H115 C101 0.933 . S
H116 C107 0.930 . S
H117 C108 0.931 . S
H118 C109 0.931 . S
H119 C110 0.933 . S
C120 N121 1.317 . S
C120 N122 1.348 1_545 S
C120 C123 1.485 . S
N121 C120 1.317 . S
N121 N125 1.370 . S
N122 C120 1.348 1_565 S
N122 C124 1.346 . S
C123 C120 1.485 . S
C123 H127 0.960 . S
C123 H128 0.961 1_545 S
C123 H129 0.960 . S
C124 N122 1.346 . S
C124 N125 1.307 1_565 S
C124 C126 1.486 . S
N125 N121 1.370 . S
N125 C124 1.307 1_545 S
C126 C124 1.486 . S
C126 H130 0.960 . S
C126 H131 0.960 . S
C126 H132 0.959 . S
H127 C123 0.960 . S
H128 C123 0.961 1_565 S
H129 C123 0.960 . S
H130 C126 0.960 . S
H131 C126 0.960 . S
H132 C126 0.959 . S
C133 N134 1.317 . S
C133 N135 1.348 . S
C133 C136 1.485 . S
N134 C133 1.317 . S
N134 N138 1.370 . S
N135 C133 1.348 . S
N135 C137 1.346 . S
C136 C133 1.485 . S
C136 H140 0.960 . S
C136 H141 0.961 . S
C136 H142 0.960 . S
C137 N135 1.346 . S
C137 N138 1.307 . S
C137 C139 1.486 . S
N138 N134 1.370 . S
N138 C137 1.307 . S
C139 C137 1.486 . S
C139 H143 0.960 . S
C139 H144 0.960 . S
C139 H145 0.959 . S
H140 C136 0.960 . S
H141 C136 0.961 . S
H142 C136 0.960 . S
H143 C139 0.960 . S
H144 C139 0.960 . S
H145 C139 0.959 . S
C146 N147 1.317 . S
C146 N148 1.348 1_455 S
C146 C149 1.485 . S
N147 C146 1.317 . S
N147 N151 1.370 . S
N148 C146 1.348 1_655 S
N148 C150 1.346 . S
C149 C146 1.485 . S
C149 H153 0.960 . S
C149 H154 0.961 1_455 S
C149 H155 0.960 . S
C150 N148 1.346 . S
C150 N151 1.307 1_655 S
C150 C152 1.486 . S
N151 N147 1.370 . S
N151 C150 1.307 1_455 S
C152 C150 1.486 . S
C152 H156 0.960 . S
C152 H157 0.960 . S
C152 H158 0.959 . S
H153 C149 0.960 . S
H154 C149 0.961 1_655 S
H155 C149 0.960 . S
H156 C152 0.960 . S
H157 C152 0.960 . S
H158 C152 0.959 . S
C159 N160 1.317 . S
C159 N161 1.348 . S
C159 C162 1.485 . S
N160 C159 1.317 . S
N160 N164 1.370 . S
N161 C159 1.348 . S
N161 C163 1.346 . S
C162 C159 1.485 . S
C162 H166 0.960 . S
C162 H167 0.961 . S
C162 H168 0.960 . S
C163 N161 1.346 . S
C163 N164 1.307 . S
C163 C165 1.486 . S
N164 N160 1.370 . S
N164 C163 1.307 . S
C165 C163 1.486 . S
C165 H169 0.960 . S
C165 H170 0.960 . S
C165 H171 0.959 . S
H166 C162 0.960 . S
H167 C162 0.961 . S
H168 C162 0.960 . S
H169 C165 0.960 . S
H170 C165 0.960 . S
H171 C165 0.959 . S
C172 N173 1.317 . S
C172 N174 1.348 . S
C172 C175 1.485 . S
N173 C172 1.317 . S
N173 N177 1.370 . S
N174 C172 1.348 . S
N174 C176 1.346 . S
C175 C172 1.485 . S
C175 H179 0.960 . S
C175 H180 0.961 . S
C175 H181 0.960 1_545 S
C176 N174 1.346 . S
C176 N177 1.307 . S
C176 C178 1.486 . S
N177 N173 1.370 . S
N177 C176 1.307 . S
C178 C176 1.486 . S
C178 H182 0.960 . S
C178 H183 0.960 . S
C178 H184 0.959 . S
H179 C175 0.960 . S
H180 C175 0.961 . S
H181 C175 0.960 1_565 S
H182 C178 0.960 . S
H183 C178 0.960 . S
H184 C178 0.959 . S
C185 N186 1.317 . S
C185 N187 1.348 . S
C185 C188 1.485 . S
N186 C185 1.317 . S
N186 N190 1.370 . S
N187 C185 1.348 . S
N187 C189 1.346 . S
C188 C185 1.485 . S
C188 H192 0.960 . S
C188 H193 0.961 . S
C188 H194 0.960 . S
C189 N187 1.346 . S
C189 N190 1.307 . S
C189 C191 1.486 . S
N190 N186 1.370 . S
N190 C189 1.307 . S
C191 C189 1.486 . S
C191 H195 0.960 . S
C191 H196 0.960 . S
C191 H197 0.959 . S
H192 C188 0.960 . S
H193 C188 0.961 . S
H194 C188 0.960 . S
H195 C191 0.960 . S
H196 C191 0.960 . S
H197 C191 0.959 . S
H198 C210 0.930 . S
H199 C212 0.930 . S
H200 C213 0.930 . S
H201 C217 0.959 . S
H202 C217 0.959 . S
H203 C217 0.961 . S
H204 C218 0.960 . S
H205 C218 0.961 . S
H206 C218 0.959 . S
H207 C221 0.929 . S
H208 C222 0.931 . S
H209 C224 0.930 . S
C210 H198 0.930 . S
C210 C211 1.399 . S
C210 C215 1.399 . S
C211 C210 1.399 . S
C211 C212 1.376 . S
C212 H199 0.930 . S
C212 C211 1.376 . S
C212 C213 1.388 . S
C213 H200 0.930 . S
C213 C212 1.388 . S
C213 C214 1.390 . S
C214 C213 1.390 . S
C214 C215 1.394 . S
C214 C220 1.465 . S
C215 C210 1.399 . S
C215 C214 1.394 . S
C215 C216 1.516 . S
C216 C215 1.516 . S
C216 C217 1.502 . S
C216 C218 1.561 . S
C216 C219 1.526 . S
C217 H201 0.959 . S
C217 H202 0.959 . S
C217 H203 0.961 . S
C217 C216 1.502 . S
C218 H204 0.960 . S
C218 H205 0.961 . S
C218 H206 0.959 . S
C218 C216 1.561 . S
C219 C216 1.526 . S
C219 C220 1.396 . S
C219 C224 1.390 . S
C220 C214 1.465 . S
C220 C219 1.396 . S
C220 C221 1.399 . S
C221 H207 0.929 . S
C221 C220 1.399 . S
C221 C222 1.385 . S
C222 H208 0.931 . S
C222 C221 1.385 . S
C222 C223 1.389 . S
C223 C222 1.389 . S
C223 C224 1.387 . S
C224 H209 0.930 . S
C224 C219 1.390 . S
C224 C223 1.387 . S
H225 C237 0.930 . S
H226 C239 0.930 . S
H227 C240 0.930 . S
H228 C244 0.959 . S
H229 C244 0.959 . S
H230 C244 0.961 . S
H231 C245 0.960 . S
H232 C245 0.961 . S
H233 C245 0.959 . S
H234 C248 0.929 . S
H235 C249 0.931 1_455 S
H236 C251 0.930 . S
C237 H225 0.930 . S
C237 C238 1.399 . S
C237 C242 1.399 . S
C238 C237 1.399 . S
C238 C239 1.376 . S
C239 H226 0.930 . S
C239 C238 1.376 . S
C239 C240 1.388 . S
C240 H227 0.930 . S
C240 C239 1.388 . S
C240 C241 1.390 . S
C241 C240 1.390 . S
C241 C242 1.394 . S
C241 C247 1.465 . S
C242 C237 1.399 . S
C242 C241 1.394 . S
C242 C243 1.516 . S
C243 C242 1.516 . S
C243 C244 1.502 . S
C243 C245 1.561 . S
C243 C246 1.526 . S
C244 H228 0.959 . S
C244 H229 0.959 . S
C244 H230 0.961 . S
C244 C243 1.502 . S
C245 H231 0.960 . S
C245 H232 0.961 . S
C245 H233 0.959 . S
C245 C243 1.561 . S
C246 C243 1.526 . S
C246 C247 1.396 . S
C246 C251 1.390 . S
C247 C241 1.465 . S
C247 C246 1.396 . S
C247 C248 1.399 . S
C248 H234 0.929 . S
C248 C247 1.399 . S
C248 C249 1.385 . S
C249 H235 0.931 1_655 S
C249 C248 1.385 . S
C249 C250 1.389 . S
C250 C249 1.389 . S
C250 C251 1.387 . S
C251 H236 0.930 . S
C251 C246 1.390 . S
C251 C250 1.387 . S
H252 C264 0.930 . S
H253 C266 0.930 . S
H254 C267 0.930 . S
H255 C271 0.959 . S
H256 C271 0.959 . S
H257 C271 0.961 . S
H258 C272 0.960 . S
H259 C272 0.961 . S
H260 C272 0.959 . S
H261 C275 0.929 . S
H262 C276 0.931 . S
H263 C278 0.930 . S
C264 H252 0.930 . S
C264 C265 1.399 . S
C264 C269 1.399 . S
C265 C264 1.399 . S
C265 C266 1.376 . S
C266 H253 0.930 . S
C266 C265 1.376 . S
C266 C267 1.388 . S
C267 H254 0.930 . S
C267 C266 1.388 . S
C267 C268 1.390 . S
C268 C267 1.390 . S
C268 C269 1.394 . S
C268 C274 1.465 . S
C269 C264 1.399 . S
C269 C268 1.394 . S
C269 C270 1.516 . S
C270 C269 1.516 . S
C270 C271 1.502 . S
C270 C272 1.561 . S
C270 C273 1.526 . S
C271 H255 0.959 . S
C271 H256 0.959 . S
C271 H257 0.961 . S
C271 C270 1.502 . S
C272 H258 0.960 . S
C272 H259 0.961 . S
C272 H260 0.959 . S
C272 C270 1.561 . S
C273 C270 1.526 . S
C273 C274 1.396 . S
C273 C278 1.390 . S
C274 C268 1.465 . S
C274 C273 1.396 . S
C274 C275 1.399 . S
C275 H261 0.929 . S
C275 C274 1.399 . S
C275 C276 1.385 . S
C276 H262 0.931 . S
C276 C275 1.385 . S
C276 C277 1.389 . S
C277 C276 1.389 . S
C277 C278 1.387 . S
C278 H263 0.930 . S
C278 C273 1.390 . S
C278 C277 1.387 . S
H279 C291 0.930 . S
H280 C293 0.930 . S
H281 C294 0.930 . S
H282 C298 0.959 . S
H283 C298 0.959 . S
H284 C298 0.961 . S
H285 C299 0.960 . S
H286 C299 0.961 . S
H287 C299 0.959 . S
H288 C302 0.929 . S
H289 C303 0.931 . S
H290 C305 0.930 . S
C291 H279 0.930 . S
C291 C292 1.399 . S
C291 C296 1.399 . S
C292 C291 1.399 . S
C292 C293 1.376 . S
C293 H280 0.930 . S
C293 C292 1.376 . S
C293 C294 1.388 . S
C294 H281 0.930 . S
C294 C293 1.388 . S
C294 C295 1.390 . S
C295 C294 1.390 . S
C295 C296 1.394 . S
C295 C301 1.465 . S
C296 C291 1.399 . S
C296 C295 1.394 . S
C296 C297 1.516 . S
C297 C296 1.516 . S
C297 C298 1.502 . S
C297 C299 1.561 . S
C297 C300 1.526 . S
C298 H282 0.959 . S
C298 H283 0.959 . S
C298 H284 0.961 . S
C298 C297 1.502 . S
C299 H285 0.960 . S
C299 H286 0.961 . S
C299 H287 0.959 . S
C299 C297 1.561 . S
C300 C297 1.526 . S
C300 C301 1.396 . S
C300 C305 1.390 . S
C301 C295 1.465 . S
C301 C300 1.396 . S
C301 C302 1.399 . S
C302 H288 0.929 . S
C302 C301 1.399 . S
C302 C303 1.385 . S
C303 H289 0.931 . S
C303 C302 1.385 . S
C303 C304 1.389 . S
C304 C303 1.389 . S
C304 C305 1.387 . S
C305 H290 0.930 . S
C305 C300 1.390 . S
C305 C304 1.387 . S
H306 C318 0.930 . S
H307 C320 0.930 . S
H308 C321 0.930 . S
H309 C325 0.959 . S
H310 C325 0.959 . S
H311 C325 0.961 . S
H312 C326 0.960 . S
H313 C326 0.961 . S
H314 C326 0.959 . S
H315 C329 0.929 . S
H316 C330 0.931 . S
H317 C332 0.930 . S
C318 H306 0.930 . S
C318 C319 1.399 . S
C318 C323 1.399 . S
C319 C318 1.399 . S
C319 C320 1.376 . S
C320 H307 0.930 . S
C320 C319 1.376 . S
C320 C321 1.388 . S
C321 H308 0.930 . S
C321 C320 1.388 . S
C321 C322 1.390 . S
C322 C321 1.390 . S
C322 C323 1.394 . S
C322 C328 1.465 . S
C323 C318 1.399 . S
C323 C322 1.394 . S
C323 C324 1.516 . S
C324 C323 1.516 . S
C324 C325 1.502 . S
C324 C326 1.561 . S
C324 C327 1.526 . S
C325 H309 0.959 . S
C325 H310 0.959 . S
C325 H311 0.961 . S
C325 C324 1.502 . S
C326 H312 0.960 . S
C326 H313 0.961 . S
C326 H314 0.959 . S
C326 C324 1.561 . S
C327 C324 1.526 . S
C327 C328 1.396 . S
C327 C332 1.390 . S
C328 C322 1.465 . S
C328 C327 1.396 . S
C328 C329 1.399 . S
C329 H315 0.929 . S
C329 C328 1.399 . S
C329 C330 1.385 . S
C330 H316 0.931 . S
C330 C329 1.385 . S
C330 C331 1.389 . S
C331 C330 1.389 . S
C331 C332 1.387 . S
C332 H317 0.930 . S
C332 C327 1.390 . S
C332 C331 1.387 . S
H333 C345 0.930 . S
H334 C347 0.930 . S
H335 C348 0.930 . S
H336 C352 0.959 . S
H337 C352 0.959 . S
H338 C352 0.961 . S
H339 C353 0.960 . S
H340 C353 0.961 . S
H341 C353 0.959 . S
H342 C356 0.929 . S
H343 C357 0.931 . S
H344 C359 0.930 . S
C345 H333 0.930 . S
C345 C346 1.399 . S
C345 C350 1.399 . S
C346 C345 1.399 . S
C346 C347 1.376 . S
C347 H334 0.930 . S
C347 C346 1.376 . S
C347 C348 1.388 . S
C348 H335 0.930 . S
C348 C347 1.388 . S
C348 C349 1.390 . S
C349 C348 1.390 . S
C349 C350 1.394 . S
C349 C355 1.465 . S
C350 C345 1.399 . S
C350 C349 1.394 . S
C350 C351 1.516 . S
C351 C350 1.516 . S
C351 C352 1.502 . S
C351 C353 1.561 . S
C351 C354 1.526 . S
C352 H336 0.959 . S
C352 H337 0.959 . S
C352 H338 0.961 . S
C352 C351 1.502 . S
C353 H339 0.960 . S
C353 H340 0.961 . S
C353 H341 0.959 . S
C353 C351 1.561 . S
C354 C351 1.526 . S
C354 C355 1.396 . S
C354 C359 1.390 . S
C355 C349 1.465 . S
C355 C354 1.396 . S
C355 C356 1.399 . S
C356 H342 0.929 . S
C356 C355 1.399 . S
C356 C357 1.385 . S
C357 H343 0.931 . S
C357 C356 1.385 . S
C357 C358 1.389 . S
C358 C357 1.389 . S
C358 C359 1.387 . S
C359 H344 0.930 . S
C359 C354 1.390 . S
C359 C358 1.387 . S
H360 C372 0.930 . S
H361 C374 0.930 . S
H362 C375 0.930 . S
H363 C379 0.959 . S
H364 C379 0.959 . S
H365 C379 0.961 . S
H366 C380 0.960 . S
H367 C380 0.961 . S
H368 C380 0.959 . S
H369 C383 0.929 . S
H370 C384 0.931 . S
H371 C386 0.930 . S
C372 H360 0.930 . S
C372 C373 1.399 . S
C372 C377 1.399 . S
C373 C372 1.399 . S
C373 C374 1.376 . S
C374 H361 0.930 . S
C374 C373 1.376 . S
C374 C375 1.388 . S
C375 H362 0.930 . S
C375 C374 1.388 . S
C375 C376 1.390 . S
C376 C375 1.390 . S
C376 C377 1.394 . S
C376 C382 1.465 . S
C377 C372 1.399 . S
C377 C376 1.394 . S
C377 C378 1.516 . S
C378 C377 1.516 . S
C378 C379 1.502 . S
C378 C380 1.561 . S
C378 C381 1.526 . S
C379 H363 0.959 . S
C379 H364 0.959 . S
C379 H365 0.961 . S
C379 C378 1.502 . S
C380 H366 0.960 . S
C380 H367 0.961 . S
C380 H368 0.959 . S
C380 C378 1.561 . S
C381 C378 1.526 . S
C381 C382 1.396 . S
C381 C386 1.390 . S
C382 C376 1.465 . S
C382 C381 1.396 . S
C382 C383 1.399 . S
C383 H369 0.929 . S
C383 C382 1.399 . S
C383 C384 1.385 . S
C384 H370 0.931 . S
C384 C383 1.385 . S
C384 C385 1.389 . S
C385 C384 1.389 . S
C385 C386 1.387 . S
C386 H371 0.930 . S
C386 C381 1.390 . S
C386 C385 1.387 . S
H387 C399 0.930 . S
H388 C401 0.930 . S
H389 C402 0.930 . S
H390 C406 0.959 . S
H391 C406 0.959 . S
H392 C406 0.961 . S
H393 C407 0.960 . S
H394 C407 0.961 . S
H395 C407 0.959 . S
H396 C410 0.929 . S
H397 C411 0.931 . S
H398 C413 0.930 . S
C399 H387 0.930 . S
C399 C400 1.399 . S
C399 C404 1.399 . S
C400 C399 1.399 . S
C400 C401 1.376 . S
C401 H388 0.930 . S
C401 C400 1.376 . S
C401 C402 1.388 . S
C402 H389 0.930 . S
C402 C401 1.388 . S
C402 C403 1.390 . S
C403 C402 1.390 . S
C403 C404 1.394 . S
C403 C409 1.465 . S
C404 C399 1.399 . S
C404 C403 1.394 . S
C404 C405 1.516 . S
C405 C404 1.516 . S
C405 C406 1.502 . S
C405 C407 1.561 . S
C405 C408 1.526 . S
C406 H390 0.959 . S
C406 H391 0.959 . S
C406 H392 0.961 . S
C406 C405 1.502 . S
C407 H393 0.960 . S
C407 H394 0.961 . S
C407 H395 0.959 . S
C407 C405 1.561 . S
C408 C405 1.526 . S
C408 C409 1.396 . S
C408 C413 1.390 . S
C409 C403 1.465 . S
C409 C408 1.396 . S
C409 C410 1.399 . S
C410 H396 0.929 . S
C410 C409 1.399 . S
C410 C411 1.385 . S
C411 H397 0.931 . S
C411 C410 1.385 . S
C411 C412 1.389 . S
C412 C411 1.389 . S
C412 C413 1.387 . S
C413 H398 0.930 . S
C413 C408 1.390 . S
C413 C412 1.387 . S
H414 C426 0.930 . S
H415 C428 0.930 . S
H416 C429 0.930 . S
H417 C433 0.959 . S
H418 C433 0.959 . S
H419 C433 0.961 . S
H420 C434 0.960 . S
H421 C434 0.961 . S
H422 C434 0.959 . S
H423 C437 0.929 . S
H424 C438 0.931 . S
H425 C440 0.930 . S
C426 H414 0.930 . S
C426 C427 1.399 . S
C426 C431 1.399 . S
C427 C426 1.399 . S
C427 C428 1.376 . S
C428 H415 0.930 . S
C428 C427 1.376 . S
C428 C429 1.388 . S
C429 H416 0.930 . S
C429 C428 1.388 . S
C429 C430 1.390 . S
C430 C429 1.390 . S
C430 C431 1.394 . S
C430 C436 1.465 . S
C431 C426 1.399 . S
C431 C430 1.394 . S
C431 C432 1.516 . S
C432 C431 1.516 . S
C432 C433 1.502 . S
C432 C434 1.561 . S
C432 C435 1.526 . S
C433 H417 0.959 . S
C433 H418 0.959 . S
C433 H419 0.961 . S
C433 C432 1.502 . S
C434 H420 0.960 . S
C434 H421 0.961 . S
C434 H422 0.959 . S
C434 C432 1.561 . S
C435 C432 1.526 . S
C435 C436 1.396 . S
C435 C440 1.390 . S
C436 C430 1.465 . S
C436 C435 1.396 . S
C436 C437 1.399 . S
C437 H423 0.929 . S
C437 C436 1.399 . S
C437 C438 1.385 . S
C438 H424 0.931 . S
C438 C437 1.385 . S
C438 C439 1.389 . S
C439 C438 1.389 . S
C439 C440 1.387 . S
C440 H425 0.930 . S
C440 C435 1.390 . S
C440 C439 1.387 . S
H441 C453 0.930 . S
H442 C455 0.930 . S
H443 C456 0.930 . S
H444 C460 0.959 . S
H445 C460 0.959 . S
H446 C460 0.961 . S
H447 C461 0.960 . S
H448 C461 0.961 . S
H449 C461 0.959 . S
H450 C464 0.929 . S
H451 C465 0.931 . S
H452 C467 0.930 . S
C453 H441 0.930 . S
C453 C454 1.399 . S
C453 C458 1.399 . S
C454 C453 1.399 . S
C454 C455 1.376 . S
C455 H442 0.930 . S
C455 C454 1.376 . S
C455 C456 1.388 . S
C456 H443 0.930 . S
C456 C455 1.388 . S
C456 C457 1.390 . S
C457 C456 1.390 . S
C457 C458 1.394 . S
C457 C463 1.465 . S
C458 C453 1.399 . S
C458 C457 1.394 . S
C458 C459 1.516 . S
C459 C458 1.516 . S
C459 C460 1.502 . S
C459 C461 1.561 . S
C459 C462 1.526 . S
C460 H444 0.959 . S
C460 H445 0.959 . S
C460 H446 0.961 . S
C460 C459 1.502 . S
C461 H447 0.960 . S
C461 H448 0.961 . S
C461 H449 0.959 . S
C461 C459 1.561 . S
C462 C459 1.526 . S
C462 C463 1.396 . S
C462 C467 1.390 . S
C463 C457 1.465 . S
C463 C462 1.396 . S
C463 C464 1.399 . S
C464 H450 0.929 . S
C464 C463 1.399 . S
C464 C465 1.385 . S
C465 H451 0.931 . S
C465 C464 1.385 . S
C465 C466 1.389 . S
C466 C465 1.389 . S
C466 C467 1.387 . S
C467 H452 0.930 . S
C467 C462 1.390 . S
C467 C466 1.387 . S
H468 C480 0.930 . S
H469 C482 0.930 . S
H470 C483 0.930 . S
H471 C487 0.959 . S
H472 C487 0.959 . S
H473 C487 0.961 . S
H474 C488 0.960 . S
H475 C488 0.961 . S
H476 C488 0.959 . S
H477 C491 0.929 . S
H478 C492 0.931 . S
H479 C494 0.930 . S
C480 H468 0.930 . S
C480 C481 1.399 . S
C480 C485 1.399 . S
C481 C480 1.399 . S
C481 C482 1.376 . S
C482 H469 0.930 . S
C482 C481 1.376 . S
C482 C483 1.388 . S
C483 H470 0.930 . S
C483 C482 1.388 . S
C483 C484 1.390 . S
C484 C483 1.390 . S
C484 C485 1.394 . S
C484 C490 1.465 . S
C485 C480 1.399 . S
C485 C484 1.394 . S
C485 C486 1.516 . S
C486 C485 1.516 . S
C486 C487 1.502 . S
C486 C488 1.561 . S
C486 C489 1.526 . S
C487 H471 0.959 . S
C487 H472 0.959 . S
C487 H473 0.961 . S
C487 C486 1.502 . S
C488 H474 0.960 . S
C488 H475 0.961 . S
C488 H476 0.959 . S
C488 C486 1.561 . S
C489 C486 1.526 . S
C489 C490 1.396 . S
C489 C494 1.390 . S
C490 C484 1.465 . S
C490 C489 1.396 . S
C490 C491 1.399 . S
C491 H477 0.929 . S
C491 C490 1.399 . S
C491 C492 1.385 . S
C492 H478 0.931 . S
C492 C491 1.385 . S
C492 C493 1.389 . S
C493 C492 1.389 . S
C493 C494 1.387 . S
C494 H479 0.930 . S
C494 C489 1.390 . S
C494 C493 1.387 . S
H495 C507 0.930 . S
H496 C509 0.930 . S
H497 C510 0.930 . S
H498 C514 0.959 . S
H499 C514 0.959 . S
H500 C514 0.961 . S
H501 C515 0.960 . S
H502 C515 0.961 . S
H503 C515 0.959 . S
H504 C518 0.929 . S
H505 C519 0.931 . S
H506 C521 0.930 . S
C507 H495 0.930 . S
C507 C508 1.399 . S
C507 C512 1.399 . S
C508 C507 1.399 . S
C508 C509 1.376 . S
C509 H496 0.930 . S
C509 C508 1.376 . S
C509 C510 1.388 . S
C510 H497 0.930 . S
C510 C509 1.388 . S
C510 C511 1.390 . S
C511 C510 1.390 . S
C511 C512 1.394 . S
C511 C517 1.465 . S
C512 C507 1.399 . S
C512 C511 1.394 . S
C512 C513 1.516 . S
C513 C512 1.516 . S
C513 C514 1.502 . S
C513 C515 1.561 . S
C513 C516 1.526 . S
C514 H498 0.959 . S
C514 H499 0.959 . S
C514 H500 0.961 . S
C514 C513 1.502 . S
C515 H501 0.960 . S
C515 H502 0.961 . S
C515 H503 0.959 . S
C515 C513 1.561 . S
C516 C513 1.526 . S
C516 C517 1.396 . S
C516 C521 1.390 . S
C517 C511 1.465 . S
C517 C516 1.396 . S
C517 C518 1.399 . S
C518 H504 0.929 . S
C518 C517 1.399 . S
C518 C519 1.385 . S
C519 H505 0.931 . S
C519 C518 1.385 . S
C519 C520 1.389 . S
C520 C519 1.389 . S
C520 C521 1.387 . S
C521 H506 0.930 . S
C521 C516 1.390 . S
C521 C520 1.387 . S
H522 C534 0.930 . S
H523 C536 0.930 . S
H524 C537 0.930 . S
H525 C541 0.959 . S
H526 C541 0.959 1_556 S
H527 C541 0.961 . S
H528 C542 0.960 . S
H529 C542 0.961 1_556 S
H530 C542 0.959 . S
H531 C545 0.929 . S
H532 C546 0.931 . S
H533 C548 0.930 . S
C534 H522 0.930 . S
C534 C535 1.399 . S
C534 C539 1.399 . S
C535 C534 1.399 . S
C535 C536 1.376 . S
C536 H523 0.930 . S
C536 C535 1.376 . S
C536 C537 1.388 . S
C537 H524 0.930 . S
C537 C536 1.388 . S
C537 C538 1.390 . S
C538 C537 1.390 . S
C538 C539 1.394 . S
C538 C544 1.432 1_554 S
C539 C534 1.399 . S
C539 C538 1.394 . S
C539 C540 1.516 . S
C540 C539 1.516 . S
C540 C541 1.502 . S
C540 C542 1.561 1_455 S
C540 C543 1.526 1_554 S
C541 H525 0.959 . S
C541 H526 0.959 1_554 S
C541 H527 0.961 . S
C541 C540 1.502 . S
C542 H528 0.960 . S
C542 H529 0.961 1_554 S
C542 H530 0.959 . S
C542 C540 1.561 1_655 S
C543 C540 1.526 1_556 S
C543 C544 1.413 . S
C543 C548 1.390 . S
C544 C538 1.432 1_556 S
C544 C543 1.413 . S
C544 C545 1.416 . S
C545 H531 0.929 . S
C545 C544 1.416 . S
C545 C546 1.385 . S
C546 H532 0.931 . S
C546 C545 1.385 . S
C546 C547 1.389 . S
C547 C546 1.389 . S
C547 C548 1.387 . S
C548 H533 0.930 . S
C548 C543 1.390 . S
C548 C547 1.387 . S
H549 C561 0.930 . S
H550 C563 0.930 . S
H551 C564 0.930 . S
H552 C568 0.959 . S
H553 C568 0.959 . S
H554 C568 0.961 . S
H555 C569 0.960 . S
H556 C569 0.961 . S
H557 C569 0.959 . S
H558 C572 0.929 . S
H559 C573 0.931 . S
H560 C575 0.953 . S
C561 H549 0.930 . S
C561 C562 1.399 1_565 S
C561 C566 1.399 1_565 S
C562 C561 1.399 1_545 S
C562 C563 1.376 . S
C563 H550 0.930 . S
C563 C562 1.376 . S
C563 C564 1.388 . S
C564 H551 0.930 . S
C564 C563 1.388 . S
C564 C565 1.390 . S
C565 C564 1.390 . S
C565 C566 1.394 . S
C565 C571 1.465 . S
C566 C561 1.399 1_545 S
C566 C565 1.394 . S
C566 C567 1.516 1_545 S
C567 C566 1.516 1_565 S
C567 C568 1.502 . S
C567 C569 1.561 . S
C567 C570 1.526 1_565 S
C568 H552 0.959 . S
C568 H553 0.959 . S
C568 H554 0.961 . S
C568 C567 1.502 . S
C569 H555 0.960 . S
C569 H556 0.961 . S
C569 H557 0.959 . S
C569 C567 1.561 . S
C570 C567 1.526 1_545 S
C570 C571 1.396 . S
C570 C575 1.385 1_545 S
C571 C565 1.465 . S
C571 C570 1.396 . S
C571 C572 1.399 . S
C572 H558 0.929 . S
C572 C571 1.399 . S
C572 C573 1.385 . S
C573 H559 0.931 . S
C573 C572 1.385 . S
C573 C574 1.389 . S
C574 C573 1.389 . S
C574 C575 1.368 1_545 S
C575 H560 0.953 . S
C575 C570 1.385 1_565 S
C575 C574 1.368 1_565 S
H576 C588 0.930 . S
H577 C590 0.930 . S
H578 C591 0.930 . S
H579 C595 0.959 . S
H580 C595 0.959 . S
H581 C595 0.961 . S
H582 C596 0.960 . S
H583 C596 0.961 . S
H584 C596 0.959 . S
H585 C599 0.929 . S
H586 C600 0.931 . S
H587 C602 0.930 . S
C588 H576 0.930 . S
C588 C589 1.399 . S
C588 C593 1.399 . S
C589 C588 1.399 . S
C589 C590 1.376 . S
C590 H577 0.930 . S
C590 C589 1.376 . S
C590 C591 1.388 . S
C591 H578 0.930 . S
C591 C590 1.388 . S
C591 C592 1.390 . S
C592 C591 1.390 . S
C592 C593 1.394 . S
C592 C598 1.465 . S
C593 C588 1.399 . S
C593 C592 1.394 . S
C593 C594 1.516 . S
C594 C593 1.516 . S
C594 C595 1.502 . S
C594 C596 1.561 . S
C594 C597 1.526 . S
C595 H579 0.959 . S
C595 H580 0.959 . S
C595 H581 0.961 . S
C595 C594 1.502 . S
C596 H582 0.960 . S
C596 H583 0.961 . S
C596 H584 0.959 . S
C596 C594 1.561 . S
C597 C594 1.526 . S
C597 C598 1.396 . S
C597 C602 1.390 . S
C598 C592 1.465 . S
C598 C597 1.396 . S
C598 C599 1.399 . S
C599 H585 0.929 . S
C599 C598 1.399 . S
C599 C600 1.385 . S
C600 H586 0.931 . S
C600 C599 1.385 . S
C600 C601 1.389 . S
C601 C600 1.389 . S
C601 C602 1.387 . S
C602 H587 0.930 . S
C602 C597 1.390 . S
C602 C601 1.387 . S
H603 C615 0.930 . S
H604 C617 0.930 . S
H605 C618 0.930 . S
H606 C622 0.959 . S
H607 C622 0.959 . S
H608 C622 0.961 . S
H609 C623 0.960 . S
H610 C623 0.961 . S
H611 C623 0.959 . S
H612 C626 0.929 . S
H613 C627 0.931 . S
H614 C629 0.930 . S
C615 H603 0.930 . S
C615 C616 1.399 1_565 S
C615 C620 1.399 . S
C616 C615 1.399 1_545 S
C616 C617 1.376 . S
C617 H604 0.930 . S
C617 C616 1.376 . S
C617 C618 1.388 . S
C618 H605 0.930 . S
C618 C617 1.388 . S
C618 C619 1.390 . S
C619 C618 1.390 . S
C619 C620 1.394 1_545 S
C619 C625 1.465 . S
C620 C615 1.399 . S
C620 C619 1.394 1_565 S
C620 C621 1.516 . S
C621 C620 1.516 . S
C621 C622 1.502 . S
C621 C623 1.561 . S
C621 C624 1.526 . S
C622 H606 0.959 . S
C622 H607 0.959 . S
C622 H608 0.961 . S
C622 C621 1.502 . S
C623 H609 0.960 . S
C623 H610 0.961 . S
C623 H611 0.959 . S
C623 C621 1.561 . S
C624 C621 1.526 . S
C624 C625 1.396 1_565 S
C624 C629 1.390 . S
C625 C619 1.465 . S
C625 C624 1.396 1_545 S
C625 C626 1.399 . S
C626 H612 0.929 . S
C626 C625 1.399 . S
C626 C627 1.385 . S
C627 H613 0.931 . S
C627 C626 1.385 . S
C627 C628 1.389 . S
C628 C627 1.389 . S
C628 C629 1.387 1_545 S
C629 H614 0.930 . S
C629 C624 1.390 . S
C629 C628 1.387 1_565 S
H630 C642 0.930 . S
H631 C644 0.930 . S
H632 C645 0.930 . S
H633 C649 0.959 . S
H634 C649 0.959 1_554 S
H635 C649 0.961 . S
H636 C650 0.960 . S
H637 C650 0.961 1_554 S
H638 C650 0.959 . S
H639 C653 0.929 . S
H640 C654 0.931 . S
H641 C656 0.930 . S
C642 H630 0.930 . S
C642 C643 1.399 . S
C642 C647 1.399 . S
C643 C642 1.399 . S
C643 C644 1.376 . S
C644 H631 0.930 . S
C644 C643 1.376 . S
C644 C645 1.388 . S
C645 H632 0.930 . S
C645 C644 1.388 . S
C645 C646 1.390 . S
C646 C645 1.390 . S
C646 C647 1.394 . S
C646 C652 1.465 1_556 S
C647 C642 1.399 . S
C647 C646 1.394 . S
C647 C648 1.516 . S
C648 C647 1.516 . S
C648 C649 1.502 . S
C648 C650 1.561 . S
C648 C651 1.526 1_556 S
C649 H633 0.959 . S
C649 H634 0.959 1_556 S
C649 H635 0.961 . S
C649 C648 1.502 . S
C650 H636 0.960 . S
C650 H637 0.961 1_556 S
C650 H638 0.959 . S
C650 C648 1.561 . S
C651 C648 1.526 1_554 S
C651 C652 1.396 . S
C651 C656 1.390 . S
C652 C646 1.465 1_554 S
C652 C651 1.396 . S
C652 C653 1.399 . S
C653 H639 0.929 . S
C653 C652 1.399 . S
C653 C654 1.385 . S
C654 H640 0.931 . S
C654 C653 1.385 . S
C654 C655 1.389 . S
C655 C654 1.389 . S
C655 C656 1.387 . S
C656 H641 0.930 . S
C656 C651 1.390 . S
C656 C655 1.387 . S
H657 C669 0.930 . S
H658 C671 0.930 . S
H659 C672 0.930 . S
H660 C676 0.959 . S
H661 C676 0.959 . S
H662 C676 0.961 . S
H663 C677 0.960 1_655 S
H664 C677 0.961 1_655 S
H665 C677 0.959 . S
H666 C680 0.929 . S
H667 C681 0.931 . S
H668 C683 0.930 1_655 S
C669 H657 0.930 . S
C669 C670 1.399 1_655 S
C669 C674 1.399 . S
C670 C669 1.399 1_455 S
C670 C671 1.376 . S
C671 H658 0.930 . S
C671 C670 1.376 . S
C671 C672 1.388 . S
C672 H659 0.930 . S
C672 C671 1.388 . S
C672 C673 1.390 . S
C673 C672 1.390 . S
C673 C674 1.394 1_455 S
C673 C679 1.465 . S
C674 C669 1.399 . S
C674 C673 1.394 1_655 S
C674 C675 1.516 . S
C675 C674 1.516 . S
C675 C676 1.502 . S
C675 C677 1.561 1_655 S
C675 C678 1.526 1_655 S
C676 H660 0.959 . S
C676 H661 0.959 . S
C676 H662 0.961 . S
C676 C675 1.502 . S
C677 H663 0.960 1_455 S
C677 H664 0.961 1_455 S
C677 H665 0.959 . S
C677 C675 1.561 1_455 S
C678 C675 1.526 1_455 S
C678 C679 1.396 . S
C678 C683 1.390 . S
C679 C673 1.465 . S
C679 C678 1.396 . S
C679 C680 1.399 . S
C680 H666 0.929 . S
C680 C679 1.399 . S
C680 C681 1.385 . S
C681 H667 0.931 . S
C681 C680 1.385 . S
C681 C682 1.389 . S
C682 C681 1.389 . S
C682 C683 1.387 . S
C683 H668 0.930 1_455 S
C683 C678 1.390 . S
C683 C682 1.387 . S
C211 C24 2.717 . S
C223 N187 2.711 . S
C238 C66 1.099 . S
C250 N160 1.102 1_655 S
C265 C93 1.675 . S
C277 N173 1.700 1_565 S
C292 C13 3.298 . S
C304 N186 3.319 . S
C331 N161 1.341 . S
C319 C57 1.353 . S
C358 N174 1.926 . S
C346 C104 1.959 . S
C373 C64 1.808 . S
C385 N134 1.822 . S
C400 C97 0.405 . S
C412 N148 0.403 . S
C427 C17 1.318 . S
C439 N122 1.362 . S
C466 N135 1.839 . S
C454 C53 1.838 . S
C493 N147 0.458 . S
C481 C106 0.659 . S
C508 C26 1.116 . S
C520 N121 1.177 . S
C547 N151 1.213 . S
C535 C2 1.246 . S
C562 C63 1.512 . S
C574 N125 1.603 . S
C589 C82 1.433 . S
C601 N138 1.462 . S
C628 N177 1.525 . S
C616 C42 1.507 . S
C655 N190 1.719 . S
C643 C103 1.728 . S
C670 C23 1.459 . S
C682 N164 1.536 . S
