# Generated by pormake.
# Topology nom, (4,4)-cn, num edge types: 1
# Building blocks:
#     Node 0, Type 0, BuildingBlock: MIFKUJ_clean_linker_1, # of connection points: 4
#     Node 1, Type 0, BuildingBlock: MIFKUJ_clean_linker_1, # of connection points: 4
#     Node 2, Type 0, BuildingBlock: MIFKUJ_clean_linker_1, # of connection points: 4
#     Node 3, Type 0, BuildingBlock: MIFKUJ_clean_linker_1, # of connection points: 4
#     Node 4, Type 0, BuildingBlock: MIFKUJ_clean_linker_1, # of connection points: 4
#     Node 5, Type 0, BuildingBlock: MIFKUJ_clean_linker_1, # of connection points: 4
#     Node 6, Type 1, BuildingBlock: CEKHIL_clean_sbu_0, # of connection points: 4
#     Node 7, Type 1, BuildingBlock: CEKHIL_clean_sbu_0, # of connection points: 4
#     Node 8, Type 1, BuildingBlock: CEKHIL_clean_sbu_0, # of connection points: 4
#     Node 9, Type 1, BuildingBlock: CEKHIL_clean_sbu_0, # of connection points: 4
#     Node 10, Type 1, BuildingBlock: CEKHIL_clean_sbu_0, # of connection points: 4
#     Node 11, Type 1, BuildingBlock: CEKHIL_clean_sbu_0, # of connection points: 4
#     Edge 12, Type (0, 1), BuildingBlock: MIFKUJ_clean_linker_0, # of connection points: 2
#     Edge 13, Type (0, 1), BuildingBlock: MIFKUJ_clean_linker_0, # of connection points: 2
#     Edge 14, Type (0, 1), BuildingBlock: MIFKUJ_clean_linker_0, # of connection points: 2
#     Edge 15, Type (0, 1), BuildingBlock: MIFKUJ_clean_linker_0, # of connection points: 2
#     Edge 16, Type (0, 1), BuildingBlock: MIFKUJ_clean_linker_0, # of connection points: 2
#     Edge 17, Type (0, 1), BuildingBlock: MIFKUJ_clean_linker_0, # of connection points: 2
#     Edge 18, Type (0, 1), BuildingBlock: MIFKUJ_clean_linker_0, # of connection points: 2
#     Edge 19, Type (0, 1), BuildingBlock: MIFKUJ_clean_linker_0, # of connection points: 2
#     Edge 20, Type (0, 1), BuildingBlock: MIFKUJ_clean_linker_0, # of connection points: 2
#     Edge 21, Type (0, 1), BuildingBlock: MIFKUJ_clean_linker_0, # of connection points: 2
#     Edge 22, Type (0, 1), BuildingBlock: MIFKUJ_clean_linker_0, # of connection points: 2
#     Edge 23, Type (0, 1), BuildingBlock: MIFKUJ_clean_linker_0, # of connection points: 2
#     Edge 24, Type (0, 1), BuildingBlock: MIFKUJ_clean_linker_0, # of connection points: 2
#     Edge 25, Type (0, 1), BuildingBlock: MIFKUJ_clean_linker_0, # of connection points: 2
#     Edge 26, Type (0, 1), BuildingBlock: MIFKUJ_clean_linker_0, # of connection points: 2
#     Edge 27, Type (0, 1), BuildingBlock: MIFKUJ_clean_linker_0, # of connection points: 2
#     Edge 28, Type (0, 1), BuildingBlock: MIFKUJ_clean_linker_0, # of connection points: 2
#     Edge 29, Type (0, 1), BuildingBlock: MIFKUJ_clean_linker_0, # of connection points: 2
#     Edge 30, Type (0, 1), BuildingBlock: MIFKUJ_clean_linker_0, # of connection points: 2
#     Edge 31, Type (0, 1), BuildingBlock: MIFKUJ_clean_linker_0, # of connection points: 2
#     Edge 32, Type (0, 1), BuildingBlock: MIFKUJ_clean_linker_0, # of connection points: 2
#     Edge 33, Type (0, 1), BuildingBlock: MIFKUJ_clean_linker_0, # of connection points: 2
#     Edge 34, Type (0, 1), BuildingBlock: MIFKUJ_clean_linker_0, # of connection points: 2
#     Edge 35, Type (0, 1), BuildingBlock: MIFKUJ_clean_linker_0, # of connection points: 2
# Relax obj value: 0.002
# Max RMSD: 0.099
# Mean RMSD: 0.066
data_MOF--net-nom--node1-CEKHIL_clean_sbu_0--node2-MIFKUJ_clean_linker_1--edge1-MIFKUJ_clean_linker_0
_symmetry_space_group_name_H-M    P1
_symmetry_Int_Tables_number       1
_symmetry_cell_setting            triclinic
loop_
_symmetry_equiv_pos_as_xyz
'x, y, z'
_cell_length_a     66.925871
_cell_length_b     66.225822
_cell_length_c     70.478316
_cell_angle_alpha  90.025291
_cell_angle_beta   89.964345
_cell_angle_gamma 120.99373
loop_
_atom_site_label
_atom_site_type_symbol
_atom_site_fract_x
_atom_site_fract_y
_atom_site_fract_z
_atom_type_partial_charge
H0 H 0.98768 0.48011 0.28969 0.0
H1 H 0.96044 0.46661 0.26308 0.0
H2 H 0.94066 0.51729 0.27803 0.0
H3 H 0.96758 0.53026 0.30492 0.0
H4 H 0.02575 0.52567 0.29723 0.0
H5 H 0.9506 0.46922 0.32632 0.0
H6 H 0.90973 0.45448 0.33419 0.0
H7 H 0.9298 0.52056 0.36181 0.0
H8 H 0.97054 0.53503 0.35406 0.0
H9 H 0.0394 0.56359 0.37246 0.0
H10 H 0.06774 0.57541 0.39815 0.0
H11 H 0.08271 0.52188 0.3807 0.0
H12 H 0.05533 0.51125 0.35445 0.0
H13 H 0.9992 0.51888 0.36394 0.0
H14 H 0.06714 0.57805 0.33508 0.0
H15 H 0.10843 0.60147 0.32679 0.0
H16 H 0.10341 0.54127 0.29831 0.0
H17 H 0.0619 0.51774 0.3068 0.0
C18 C 0.97953 0.50605 0.29937 0.0
C19 C 0.97747 0.48831 0.2872 0.0
C20 C 0.96196 0.4807 0.27193 0.0
C21 C 0.94832 0.49087 0.26833 0.0
C22 C 0.95057 0.50879 0.28051 0.0
C23 C 0.96603 0.5163 0.29586 0.0
C24 C 0.99599 0.5139 0.3156 0.0
C25 C 0.01986 0.52373 0.31182 0.0
C26 C 0.98847 0.51261 0.3346 0.0
C27 C 0.96363 0.50329 0.3395 0.0
C28 C 0.94615 0.48055 0.334 0.0
C29 C 0.92278 0.47217 0.33846 0.0
C30 C 0.91644 0.48633 0.34864 0.0
C31 C 0.93405 0.50904 0.35422 0.0
C32 C 0.95737 0.51738 0.34975 0.0
C33 C 0.04532 0.5366 0.36156 0.0
C34 C 0.04882 0.55444 0.37424 0.0
C35 C 0.06497 0.56105 0.38901 0.0
C36 C 0.07762 0.5496 0.39168 0.0
C37 C 0.07375 0.53148 0.379 0.0
C38 C 0.05791 0.52519 0.36403 0.0
C39 C 0.02874 0.52998 0.34553 0.0
C40 C 0.00496 0.52049 0.34934 0.0
C41 C 0.03636 0.53239 0.32652 0.0
C42 C 0.06151 0.5461 0.32169 0.0
C43 C 0.07496 0.56981 0.32719 0.0
C44 C 0.09849 0.58323 0.32232 0.0
C45 C 0.10912 0.57321 0.31187 0.0
C46 C 0.0957 0.54938 0.3065 0.0
C47 C 0.07201 0.53598 0.31124 0.0
H48 H 0.43809 0.95909 0.51592 0.0
H49 H 0.41384 0.91727 0.52354 0.0
H50 H 0.46512 0.90454 0.49807 0.0
H51 H 0.48931 0.94648 0.49046 0.0
H52 H 0.48221 0.99168 0.52711 0.0
H53 H 0.44269 0.95932 0.46574 0.0
H54 H 0.43119 0.9316 0.43935 0.0
H55 H 0.50354 0.95358 0.43012 0.0
H56 H 0.51482 0.98203 0.45595 0.0
H57 H 0.54589 0.05851 0.47078 0.0
H58 H 0.56284 0.10032 0.46285 0.0
H59 H 0.50485 0.09982 0.49028 0.0
H60 H 0.48799 0.05817 0.49803 0.0
H61 H 0.50366 0.0197 0.46075 0.0
H62 H 0.54425 0.05759 0.51629 0.0
H63 H 0.55825 0.08524 0.54273 0.0
H64 H 0.48841 0.05124 0.56564 0.0
H65 H 0.47428 0.02422 0.53856 0.0
C66 C 0.46542 0.9559 0.5025 0.0
C67 C 0.44415 0.94731 0.51204 0.0
C68 C 0.43033 0.9234 0.51642 0.0
C69 C 0.43754 0.90756 0.51141 0.0
C70 C 0.45891 0.91622 0.50188 0.0
C71 C 0.47277 0.94019 0.49755 0.0
C72 C 0.47979 0.98133 0.49782 0.0
C73 C 0.48669 0.99785 0.5126 0.0
C74 C 0.48654 0.98931 0.47897 0.0
C75 C 0.47959 0.97268 0.46279 0.0
C76 C 0.45603 0.95818 0.45793 0.0
C77 C 0.44949 0.94217 0.44292 0.0
C78 C 0.46638 0.94013 0.43253 0.0
C79 C 0.49002 0.95483 0.43749 0.0
C80 C 0.49654 0.97106 0.45234 0.0
C81 C 0.51577 0.05531 0.48508 0.0
C82 C 0.53686 0.06745 0.47504 0.0
C83 C 0.54658 0.09132 0.47065 0.0
C84 C 0.53515 0.10329 0.47596 0.0
C85 C 0.51395 0.091 0.48588 0.0
C86 C 0.50438 0.06727 0.49041 0.0
C87 C 0.50538 0.03008 0.48999 0.0
C88 C 0.49931 0.0136 0.47529 0.0
C89 C 0.49974 0.02216 0.50899 0.0
C90 C 0.50813 0.03893 0.52526 0.0
C91 C 0.53185 0.05626 0.52684 0.0
C92 C 0.5399 0.07193 0.54213 0.0
C93 C 0.52449 0.07047 0.5564 0.0
C94 C 0.50072 0.05308 0.55481 0.0
C95 C 0.49265 0.03745 0.53942 0.0
H96 H 0.51158 0.52565 0.70341 0.0
H97 H 0.49818 0.53888 0.73028 0.0
H98 H 0.42702 0.49507 0.71123 0.0
H99 H 0.4406 0.4819 0.6843 0.0
H100 H 0.50139 0.48134 0.694 0.0
H101 H 0.48554 0.53992 0.66777 0.0
H102 H 0.46011 0.55522 0.65982 0.0
H103 H 0.41916 0.4951 0.62368 0.0
H104 H 0.44375 0.4792 0.63232 0.0
H105 H 0.47907 0.44895 0.61687 0.0
H106 H 0.49501 0.43732 0.59079 0.0
H107 H 0.56468 0.48414 0.61209 0.0
H108 H 0.54836 0.49472 0.63863 0.0
H109 H 0.4868 0.49282 0.62701 0.0
H110 H 0.49048 0.4304 0.65452 0.0
H111 H 0.50607 0.40549 0.66333 0.0
H112 H 0.56054 0.46293 0.69561 0.0
H113 H 0.54491 0.48796 0.68656 0.0
C114 C 0.47714 0.50296 0.69173 0.0
C115 C 0.49308 0.51883 0.70505 0.0
C116 C 0.48538 0.52633 0.72044 0.0
C117 C 0.46151 0.51803 0.72293 0.0
C118 C 0.44554 0.50204 0.7096 0.0
C119 C 0.45327 0.49446 0.69422 0.0
C120 C 0.48569 0.4952 0.67544 0.0
C121 C 0.49851 0.48425 0.67936 0.0
C122 C 0.48086 0.49785 0.65628 0.0
C123 C 0.46637 0.50812 0.65095 0.0
C124 C 0.4709 0.52981 0.65836 0.0
C125 C 0.45646 0.53863 0.65375 0.0
C126 C 0.43767 0.52628 0.64118 0.0
C127 C 0.43359 0.50501 0.63333 0.0
C128 C 0.44768 0.49595 0.63825 0.0
C129 C 0.5125 0.47263 0.6297 0.0
C130 C 0.49777 0.45667 0.61589 0.0
C131 C 0.50699 0.45017 0.60089 0.0
C132 C 0.53124 0.45984 0.59916 0.0
C133 C 0.54594 0.47597 0.61304 0.0
C134 C 0.53665 0.48219 0.62819 0.0
C135 C 0.50269 0.47943 0.64568 0.0
C136 C 0.48975 0.49017 0.64169 0.0
C137 C 0.50648 0.47575 0.66475 0.0
C138 C 0.51666 0.46112 0.66974 0.0
C139 C 0.50593 0.43773 0.66333 0.0
C140 C 0.51472 0.42344 0.66853 0.0
C141 C 0.53448 0.43223 0.68022 0.0
C142 C 0.54539 0.45574 0.68647 0.0
C143 C 0.53643 0.47 0.6814 0.0
H144 H 0.03944 0.53072 0.79077 0.0
H145 H 0.06684 0.54393 0.7643 0.0
H146 H 0.08149 0.48885 0.77675 0.0
H147 H 0.0548 0.47655 0.80378 0.0
H148 H 0.999 0.48301 0.79686 0.0
H149 H 0.07402 0.5399 0.82612 0.0
H150 H 0.11484 0.5546 0.83408 0.0
H151 H 0.09459 0.48853 0.86176 0.0
H152 H 0.05388 0.47411 0.85393 0.0
H153 H 0.98709 0.44813 0.87377 0.0
H154 H 0.95892 0.43675 0.89957 0.0
H155 H 0.93965 0.48588 0.87878 0.0
H156 H 0.96715 0.49629 0.85258 0.0
H157 H 0.02531 0.49078 0.86372 0.0
H158 H 0.9572 0.43141 0.83602 0.0
H159 H 0.91597 0.40772 0.82775 0.0
H160 H 0.92146 0.46637 0.79635 0.0
H161 H 0.96288 0.49025 0.80495 0.0
C162 C 0.04517 0.50274 0.79924 0.0
C163 C 0.04862 0.52155 0.78777 0.0
C164 C 0.06421 0.52896 0.77254 0.0
C165 C 0.0764 0.51741 0.76821 0.0
C166 C 0.07277 0.49845 0.77977 0.0
C167 C 0.05738 0.49126 0.79516 0.0
C168 C 0.02863 0.49507 0.81538 0.0
C169 C 0.00479 0.48514 0.81149 0.0
C170 C 0.03608 0.49658 0.83439 0.0
C171 C 0.0609 0.50583 0.83931 0.0
C172 C 0.07841 0.52856 0.83381 0.0
C173 C 0.10176 0.53691 0.83834 0.0
C174 C 0.10803 0.52275 0.84856 0.0
C175 C 0.09038 0.50006 0.85414 0.0
C176 C 0.06708 0.49174 0.84961 0.0
C177 C 0.97916 0.47298 0.86124 0.0
C178 C 0.97681 0.45645 0.87483 0.0
C179 C 0.96074 0.45008 0.88965 0.0
C180 C 0.94694 0.46042 0.89139 0.0
C181 C 0.94959 0.47719 0.87779 0.0
C182 C 0.96544 0.48331 0.86284 0.0
C183 C 0.99578 0.47938 0.84522 0.0
C184 C 0.01956 0.48894 0.84909 0.0
C185 C 0.98821 0.47661 0.82616 0.0
C186 C 0.96307 0.46268 0.82125 0.0
C187 C 0.9495 0.43928 0.82751 0.0
C188 C 0.92599 0.42568 0.82264 0.0
C189 C 0.9155 0.43516 0.81136 0.0
C190 C 0.92904 0.45867 0.80519 0.0
C191 C 0.95269 0.47226 0.80998 0.0
H192 H 0.58194 0.04869 0.02098 0.0
H193 H 0.606 0.09008 0.02929 0.0
H194 H 0.5613 0.10555 0.99584 0.0
H195 H 0.53614 0.06367 0.98895 0.0
H196 H 0.53952 0.01655 0.02803 0.0
H197 H 0.58196 0.05613 0.97084 0.0
H198 H 0.59367 0.08432 0.94464 0.0
H199 H 0.52255 0.04885 0.92477 0.0
H200 H 0.51066 0.02129 0.95142 0.0
H201 H 0.4761 0.95006 0.97366 0.0
H202 H 0.45896 0.9082 0.96554 0.0
H203 H 0.52014 0.91015 0.98751 0.0
H204 H 0.53699 0.95174 0.99581 0.0
H205 H 0.52145 0.98975 0.96116 0.0
H206 H 0.47821 0.95404 0.01797 0.0
H207 H 0.46371 0.92615 0.04427 0.0
H208 H 0.53456 0.95253 0.06278 0.0
H209 H 0.54881 0.98102 0.03672 0.0
C210 C 0.55738 0.05302 0.00409 0.0
C211 C 0.57711 0.06094 0.01564 0.0
C212 C 0.59111 0.08477 0.02014 0.0
C213 C 0.58594 0.1014 0.01298 0.0
C214 C 0.56583 0.09335 1.00174 0.0
C215 C 0.55154 0.06937 0.99756 0.0
C216 C 0.54336 0.0277 0.99878 0.0
C217 C 0.53581 0.01081 0.01337 0.0
C218 C 0.53776 0.02005 0.97965 0.0
C219 C 0.54531 0.03679 0.96338 0.0
C220 C 0.5688 0.05459 0.96103 0.0
C221 C 0.5755 0.07067 0.94604 0.0
C222 C 0.55898 0.06882 0.93277 0.0
C223 C 0.53564 0.05064 0.93479 0.0
C224 C 0.52886 0.03486 0.94999 0.0
C225 C 0.50775 0.95389 0.98534 0.0
C226 C 0.48575 0.9414 0.97671 0.0
C227 C 0.47597 0.91755 0.9722 0.0
C228 C 0.48829 0.90605 0.97589 0.0
C229 C 0.51038 0.91867 0.98441 0.0
C230 C 0.51996 0.94235 0.9892 0.0
C231 C 0.51824 0.97905 0.99035 0.0
C232 C 0.52513 0.99575 0.97576 0.0
C233 C 0.52317 0.98662 0.00939 0.0
C234 C 0.51458 0.96953 0.02534 0.0
C235 C 0.49061 0.95373 0.02767 0.0
C236 C 0.48236 0.93767 0.04268 0.0
C237 C 0.49793 0.93688 0.05568 0.0
C238 C 0.522 0.95278 0.05326 0.0
C239 C 0.53022 0.96903 0.03831 0.0
H240 H 0.51268 0.47759 0.19846 0.0
H241 H 0.52609 0.46276 0.22435 0.0
H242 H 0.59729 0.51683 0.21251 0.0
H243 H 0.58375 0.53148 0.18649 0.0
H244 H 0.5237 0.52788 0.19408 0.0
H245 H 0.53486 0.46731 0.16077 0.0
H246 H 0.5599 0.45182 0.15223 0.0
H247 H 0.61172 0.52052 0.13098 0.0
H248 H 0.58615 0.53542 0.13885 0.0
H249 H 0.543 0.55384 0.11259 0.0
H250 H 0.52567 0.564 0.08643 0.0
H251 H 0.46078 0.5339 0.11713 0.0
H252 H 0.47748 0.52231 0.14274 0.0
H253 H 0.53802 0.51758 0.12667 0.0
H254 H 0.53523 0.57997 0.15489 0.0
H255 H 0.52012 0.60525 0.164 0.0
H256 H 0.46613 0.54839 0.19708 0.0
H257 H 0.48132 0.52304 0.18783 0.0
C258 C 0.54724 0.50555 0.19058 0.0
C259 C 0.53117 0.48622 0.20146 0.0
C260 C 0.53885 0.4777 0.21614 0.0
C261 C 0.56274 0.48862 0.22039 0.0
C262 C 0.57879 0.50817 0.20959 0.0
C263 C 0.57111 0.51648 0.19472 0.0
C264 C 0.53892 0.51422 0.17489 0.0
C265 C 0.52646 0.52535 0.17931 0.0
C266 C 0.54384 0.5122 0.15574 0.0
C267 C 0.55866 0.50248 0.1504 0.0
C268 C 0.55159 0.47893 0.15419 0.0
C269 C 0.56603 0.47018 0.14942 0.0
C270 C 0.58793 0.48487 0.14088 0.0
C271 C 0.59486 0.5085 0.13716 0.0
C272 C 0.58031 0.51712 0.14174 0.0
C273 C 0.51174 0.53757 0.1299 0.0
C274 C 0.52498 0.54918 0.11369 0.0
C275 C 0.51513 0.55508 0.09877 0.0
C276 C 0.492 0.54986 0.09992 0.0
C277 C 0.47875 0.53835 0.11607 0.0
C278 C 0.48839 0.53191 0.13076 0.0
C279 C 0.52208 0.53087 0.14569 0.0
C280 C 0.53501 0.52012 0.14136 0.0
C281 C 0.51875 0.53448 0.16499 0.0
C282 C 0.50929 0.54957 0.17057 0.0
C283 C 0.52008 0.5729 0.16404 0.0
C284 C 0.51154 0.58737 0.16936 0.0
C285 C 0.49198 0.57879 0.18127 0.0
C286 C 0.48113 0.5554 0.18777 0.0
C287 C 0.48985 0.54097 0.1826 0.0
Co288 Co 0.64079 0.38134 0.41063 0.0
O289 O 0.66225 0.38033 0.39301 0.0
O290 O 0.6708 0.41027 0.41211 0.0
C291 C 0.62718 0.34498 0.42273 0.0
O292 O 0.62361 0.38829 0.43123 0.0
Co293 Co 0.58757 0.34631 0.4066 0.0
O294 O 0.58539 0.36063 0.43061 0.0
C295 C 0.61201 0.38487 0.37908 0.0
C296 C 0.67767 0.40105 0.39926 0.0
C297 C 0.60273 0.37885 0.4379 0.0
O298 O 0.62989 0.39489 0.39011 0.0
O299 O 0.59446 0.36427 0.38219 0.0
O300 O 0.6466 0.36274 0.4289 0.0
O301 O 0.61784 0.34937 0.40853 0.0
Co302 Co 0.26698 0.62976 0.58038 0.0
O303 O 0.29009 0.6317 0.59771 0.0
O304 O 0.26894 0.60156 0.57861 0.0
C305 C 0.28948 0.66652 0.56865 0.0
O306 O 0.24244 0.62211 0.5598 0.0
Co307 Co 0.24756 0.66309 0.58448 0.0
O308 O 0.23353 0.65054 0.55934 0.0
C309 C 0.23049 0.62218 0.61011 0.0
C310 C 0.28535 0.61134 0.59131 0.0
C311 C 0.23204 0.63205 0.55239 0.0
O312 O 0.24229 0.61498 0.60087 0.0
O313 O 0.23138 0.64156 0.60646 0.0
O314 O 0.2913 0.64921 0.56208 0.0
O315 O 0.27558 0.6615 0.58292 0.0
Co316 Co 0.63931 0.26244 0.74472 0.0
O317 O 0.64217 0.28607 0.72715 0.0
O318 O 0.61148 0.26453 0.74541 0.0
C319 C 0.67523 0.28479 0.75749 0.0
O320 O 0.63051 0.23748 0.76537 0.0
Co321 Co 0.67184 0.24207 0.74206 0.0
O322 O 0.65633 0.22528 0.76577 0.0
C323 C 0.63383 0.22718 0.71426 0.0
C324 C 0.62177 0.28127 0.73292 0.0
C325 C 0.63862 0.2252 0.77246 0.0
O326 O 0.62544 0.23758 0.72406 0.0
O327 O 0.65324 0.22876 0.71824 0.0
O328 O 0.65802 0.28702 0.76324 0.0
O329 O 0.67067 0.27065 0.74335 0.0
Co330 Co 0.38363 0.628 0.91075 0.0
O331 O 0.3628 0.62861 0.8922 0.0
O332 O 0.35341 0.59936 0.91229 0.0
C333 C 0.39711 0.66485 0.92168 0.0
O334 O 0.39982 0.62141 0.93248 0.0
Co335 Co 0.43696 0.6621 0.90856 0.0
O336 O 0.43652 0.65194 0.93504 0.0
C337 C 0.41449 0.62097 0.88289 0.0
C338 C 0.34702 0.60825 0.89881 0.0
C339 C 0.41938 0.63285 0.94141 0.0
O340 O 0.39483 0.61345 0.89136 0.0
O341 O 0.43299 0.64049 0.88703 0.0
O342 O 0.37752 0.64735 0.92787 0.0
O343 O 0.40696 0.65988 0.90818 0.0
Co344 Co 0.75776 0.37984 0.08053 0.0
O345 O 0.73505 0.37813 0.0983 0.0
O346 O 0.75617 0.40817 0.07907 0.0
C347 C 0.73504 0.34329 0.06857 0.0
O348 O 0.78194 0.38753 0.05962 0.0
Co349 Co 0.77719 0.34639 0.08388 0.0
O350 O 0.79187 0.35982 0.05911 0.0
C351 C 0.79432 0.38683 0.10997 0.0
C352 C 0.73998 0.39859 0.09196 0.0
C353 C 0.79287 0.3781 0.05224 0.0
O354 O 0.78274 0.39432 0.1008 0.0
O355 O 0.79329 0.36743 0.10613 0.0
O356 O 0.733 0.36066 0.06252 0.0
O357 O 0.74917 0.34806 0.08264 0.0
Co358 Co 0.385 0.74667 0.24495 0.0
O359 O 0.38293 0.72359 0.22719 0.0
O360 O 0.41319 0.7452 0.24584 0.0
C361 C 0.34894 0.72347 0.25715 0.0
O362 O 0.39287 0.77124 0.26571 0.0
Co363 Co 0.35157 0.76594 0.24228 0.0
O364 O 0.36304 0.77759 0.26835 0.0
C365 C 0.38959 0.78105 0.21442 0.0
C366 C 0.40332 0.72864 0.23314 0.0
C367 C 0.38206 0.77995 0.27443 0.0
O368 O 0.39877 0.77185 0.22467 0.0
O369 O 0.36971 0.77866 0.21802 0.0
O370 O 0.36628 0.72162 0.26314 0.0
O371 O 0.35357 0.73785 0.24319 0.0
H372 H 0.13114 0.6173 0.29658 0.0
H373 H 0.17229 0.64195 0.28802 0.0
H374 H 0.18455 0.58702 0.30602 0.0
H375 H 0.14325 0.56221 0.31471 0.0
H376 H 0.21801 0.63254 0.31959 0.0
H377 H 0.18224 0.59459 0.26066 0.0
H378 H 0.15353 0.58211 0.23474 0.0
H379 H 0.177 0.65441 0.22214 0.0
H380 H 0.20564 0.66732 0.24817 0.0
H381 H 0.33183 0.68422 0.27937 0.0
H382 H 0.29146 0.65817 0.28949 0.0
H383 H 0.27195 0.70408 0.2626 0.0
H384 H 0.31208 0.7296 0.25182 0.0
H385 H 0.24189 0.66137 0.25371 0.0
H386 H 0.2764 0.70008 0.31252 0.0
H387 H 0.3046 0.71378 0.3389 0.0
H388 H 0.28328 0.64223 0.35244 0.0
H389 H 0.25515 0.62811 0.32597 0.0
C390 C 0.14261 0.6105 0.29878 0.0
C391 C 0.134 0.58784 0.30632 0.0
C392 C 0.16607 0.62454 0.29379 0.0
C393 C 0.18142 0.61625 0.29631 0.0
C394 C 0.17295 0.5937 0.30395 0.0
C395 C 0.14938 0.57952 0.30878 0.0
C396 C 0.2063 0.63128 0.29095 0.0
C397 C 0.22334 0.6386 0.30514 0.0
C398 C 0.21309 0.63963 0.2722 0.0
C399 C 0.19594 0.63191 0.25648 0.0
C400 C 0.18115 0.60782 0.25246 0.0
C401 C 0.16491 0.60067 0.23773 0.0
C402 C 0.1634 0.61745 0.22683 0.0
C403 C 0.17817 0.64143 0.23061 0.0
C404 C 0.19443 0.64867 0.24534 0.0
C405 C 0.31896 0.68886 0.2758 0.0
C406 C 0.32508 0.70892 0.2648 0.0
C407 C 0.29588 0.674 0.28165 0.0
C408 C 0.27861 0.67923 0.27698 0.0
C409 C 0.28489 0.69959 0.26634 0.0
C410 C 0.30786 0.71423 0.26024 0.0
C411 C 0.25381 0.66301 0.28241 0.0
C412 C 0.23671 0.65537 0.26819 0.0
C413 C 0.24697 0.65461 0.30119 0.0
C414 C 0.26384 0.66305 0.31714 0.0
C415 C 0.27785 0.68728 0.32103 0.0
C416 C 0.2938 0.69512 0.33602 0.0
C417 C 0.29577 0.67889 0.34731 0.0
C418 C 0.28175 0.65478 0.34367 0.0
C419 C 0.26579 0.64685 0.32869 0.0
H420 H 0.30813 0.685 0.35891 0.0
H421 H 0.15082 0.61188 0.21542 0.0
H422 H 0.58017 0.1396 0.48022 0.0
H423 H 0.5962 0.18126 0.47237 0.0
H424 H 0.52853 0.1653 0.45281 0.0
H425 H 0.51246 0.1237 0.46054 0.0
H426 H 0.56472 0.19367 0.42783 0.0
H427 H 0.54692 0.19037 0.49457 0.0
H428 H 0.54904 0.18129 0.52818 0.0
H429 H 0.62333 0.2278 0.52747 0.0
H430 H 0.62169 0.23689 0.49376 0.0
H431 H 0.58338 0.30736 0.41738 0.0
H432 H 0.56792 0.26686 0.42801 0.0
H433 H 0.63342 0.28757 0.45536 0.0
H434 H 0.64863 0.32837 0.44541 0.0
H435 H 0.59952 0.2567 0.47655 0.0
H436 H 0.61871 0.26027 0.4108 0.0
H437 H 0.61837 0.26917 0.37687 0.0
H438 H 0.5442 0.22208 0.37506 0.0
H439 H 0.54406 0.21313 0.40906 0.0
C440 C 0.56878 0.145 0.47415 0.0
C441 C 0.54507 0.12845 0.47103 0.0
C442 C 0.5779 0.16878 0.46981 0.0
C443 C 0.56349 0.17635 0.46215 0.0
C444 C 0.53991 0.15981 0.45877 0.0
C445 C 0.53074 0.1361 0.46328 0.0
C446 C 0.57297 0.20147 0.45743 0.0
C447 C 0.57208 0.20745 0.4385 0.0
C448 C 0.58322 0.21945 0.47129 0.0
C449 C 0.58421 0.21412 0.49159 0.0
C450 C 0.56373 0.19851 0.50154 0.0
C451 C 0.56484 0.19339 0.52061 0.0
C452 C 0.58632 0.20391 0.52994 0.0
C453 C 0.60672 0.21963 0.52022 0.0
C454 C 0.6057 0.22479 0.50114 0.0
C455 C 0.59441 0.30331 0.42581 0.0
C456 C 0.61727 0.32095 0.43043 0.0
C457 C 0.58561 0.28013 0.43178 0.0
C458 C 0.59969 0.27401 0.44209 0.0
C459 C 0.62226 0.29181 0.44733 0.0
C460 C 0.63094 0.31511 0.44162 0.0
C461 C 0.59109 0.24898 0.44691 0.0
C462 C 0.5922 0.24299 0.46584 0.0
C463 C 0.58132 0.23097 0.43299 0.0
C464 C 0.58136 0.2362 0.41252 0.0
C465 C 0.60231 0.25193 0.4032 0.0
C466 C 0.60221 0.25697 0.38395 0.0
C467 C 0.58127 0.24624 0.37383 0.0
C468 C 0.5604 0.2304 0.38292 0.0
C469 C 0.56041 0.22532 0.40218 0.0
H470 H 0.58122 0.25017 0.35893 0.0
H471 H 0.58714 0.19992 0.54471 0.0
H472 H 0.42528 0.5331 0.60597 0.0
H473 H 0.3988 0.54719 0.59805 0.0
H474 H 0.38801 0.55319 0.65761 0.0
H475 H 0.41488 0.53958 0.6656 0.0
H476 H 0.34553 0.52865 0.63378 0.0
H477 H 0.42034 0.60066 0.638 0.0
H478 H 0.46189 0.62712 0.63031 0.0
H479 H 0.44468 0.62583 0.57146 0.0
H480 H 0.40302 0.59905 0.57878 0.0
H481 H 0.32201 0.63022 0.61577 0.0
H482 H 0.34678 0.61473 0.6246 0.0
H483 H 0.30545 0.55353 0.58966 0.0
H484 H 0.2804 0.56901 0.58067 0.0
H485 H 0.3739 0.60541 0.60169 0.0
H486 H 0.3067 0.50683 0.61164 0.0
H487 H 0.26531 0.48099 0.62029 0.0
H488 H 0.26764 0.53691 0.65297 0.0
H489 H 0.3091 0.56296 0.64472 0.0
C490 C 0.41727 0.53748 0.61734 0.0
C491 C 0.42213 0.53533 0.63639 0.0
C492 C 0.40219 0.54551 0.61281 0.0
C493 C 0.39143 0.55115 0.62725 0.0
C494 C 0.39611 0.54885 0.64628 0.0
C495 C 0.41154 0.54125 0.65082 0.0
C496 C 0.37547 0.55969 0.62246 0.0
C497 C 0.35168 0.5454 0.62672 0.0
C498 C 0.38357 0.58157 0.61334 0.0
C499 C 0.4086 0.59763 0.60891 0.0
C500 C 0.42544 0.60581 0.62339 0.0
C501 C 0.44901 0.62091 0.61911 0.0
C502 C 0.45593 0.62809 0.6004 0.0
C503 C 0.4393 0.62022 0.58594 0.0
C504 C 0.4157 0.60509 0.59015 0.0
C505 C 0.31801 0.61337 0.61003 0.0
C506 C 0.2992 0.60084 0.5975 0.0
C507 C 0.33229 0.6046 0.61505 0.0
C508 C 0.328 0.583 0.6078 0.0
C509 C 0.30899 0.57018 0.59552 0.0
C510 C 0.2947 0.57904 0.59039 0.0
C511 C 0.34383 0.57433 0.61291 0.0
C512 C 0.36765 0.58858 0.60864 0.0
C513 C 0.33575 0.55246 0.6221 0.0
C514 C 0.31092 0.53689 0.62739 0.0
C515 C 0.29838 0.51357 0.62072 0.0
C516 C 0.27492 0.4989 0.62555 0.0
C517 C 0.26383 0.50733 0.63712 0.0
C518 C 0.27622 0.53043 0.64395 0.0
C519 C 0.29969 0.54516 0.63918 0.0
H520 H 0.24565 0.49595 0.64082 0.0
H521 H 0.47419 0.6398 0.59711 0.0
H522 H 0.88167 0.44679 0.81184 0.0
H523 H 0.84039 0.42159 0.8034 0.0
H524 H 0.85197 0.36483 0.79011 0.0
H525 H 0.89316 0.38993 0.79831 0.0
H526 H 0.82586 0.37103 0.76284 0.0
H527 H 0.82694 0.36437 0.83113 0.0
H528 H 0.83605 0.38021 0.86371 0.0
H529 H 0.79393 0.41124 0.85596 0.0
H530 H 0.78483 0.39587 0.82322 0.0
H531 H 0.71089 0.27632 0.75482 0.0
H532 H 0.75116 0.30175 0.76532 0.0
H533 H 0.7339 0.35184 0.78712 0.0
H534 H 0.69331 0.3258 0.7775 0.0
H535 H 0.76313 0.35063 0.80996 0.0
H536 H 0.76164 0.35845 0.74255 0.0
H537 H 0.753 0.3448 0.70936 0.0
H538 H 0.79623 0.31464 0.71436 0.0
H539 H 0.80489 0.32785 0.74766 0.0
C540 C 0.87541 0.42899 0.80699 0.0
C541 C 0.89061 0.42029 0.80583 0.0
C542 C 0.85183 0.41458 0.8023 0.0
C543 C 0.84309 0.39127 0.7963 0.0
C544 C 0.85833 0.38273 0.79478 0.0
C545 C 0.88182 0.39704 0.79958 0.0
C546 C 0.81806 0.37567 0.79157 0.0
C547 C 0.81213 0.36634 0.77319 0.0
C548 C 0.80016 0.37017 0.80492 0.0
C549 C 0.80539 0.37916 0.82467 0.0
C550 C 0.81975 0.37472 0.83633 0.0
C551 C 0.82489 0.38359 0.85483 0.0
C552 C 0.81562 0.39677 0.86188 0.0
C553 C 0.80112 0.40105 0.85047 0.0
C554 C 0.79595 0.39225 0.83195 0.0
C555 C 0.71566 0.29265 0.76203 0.0
C556 C 0.69904 0.29918 0.76522 0.0
C557 C 0.73873 0.30728 0.7679 0.0
C558 C 0.74581 0.32909 0.77656 0.0
C559 C 0.72897 0.3352 0.78038 0.0
C560 C 0.70577 0.32032 0.77487 0.0
C561 C 0.7708 0.34571 0.78119 0.0
C562 C 0.77678 0.35531 0.79955 0.0
C563 C 0.78877 0.35177 0.76772 0.0
C564 C 0.78374 0.34396 0.74765 0.0
C565 C 0.76919 0.34878 0.7366 0.0
C566 C 0.7643 0.34114 0.71777 0.0
C567 C 0.77402 0.32881 0.70977 0.0
C568 C 0.7887 0.32416 0.72058 0.0
C569 C 0.79362 0.33175 0.73942 0.0
H570 H 0.7702 0.3229 0.69519 0.0
H571 H 0.81963 0.40364 0.8762 0.0
H572 H 0.44515 0.86873 0.9845 0.0
H573 H 0.42926 0.82712 0.97632 0.0
H574 H 0.49313 0.84555 0.94718 0.0
H575 H 0.50918 0.88704 0.95552 0.0
H576 H 0.45098 0.815 0.92646 0.0
H577 H 0.48601 0.82216 0.98782 0.0
H578 H 0.49228 0.83248 0.02179 0.0
H579 H 0.41993 0.78334 0.03309 0.0
H580 H 0.41315 0.773 0.99911 0.0
H581 H 0.43822 0.704 0.91169 0.0
H582 H 0.45323 0.74454 0.92206 0.0
H583 H 0.39313 0.72121 0.95811 0.0
H584 H 0.37819 0.68049 0.94803 0.0
H585 H 0.43188 0.75412 0.97572 0.0
H586 H 0.39594 0.74621 0.9156 0.0
H587 H 0.38789 0.73595 0.88171 0.0
H588 H 0.4592 0.78633 0.86803 0.0
H589 H 0.46777 0.79665 0.9019 0.0
C590 C 0.45571 0.86385 0.9763 0.0
C591 C 0.47838 0.88101 0.97066 0.0
C592 C 0.44669 0.84014 0.97172 0.0
C593 C 0.46009 0.83333 0.96123 0.0
C594 C 0.48256 0.8505 0.95531 0.0
C595 C 0.49172 0.87411 0.96014 0.0
C596 C 0.45072 0.80828 0.95635 0.0
C597 C 0.44706 0.80171 0.93719 0.0
C598 C 0.44495 0.79092 0.97044 0.0
C599 C 0.44902 0.79701 0.99089 0.0
C600 C 0.47139 0.81372 0.99752 0.0
C601 C 0.47504 0.81954 0.01678 0.0
C602 C 0.4565 0.80863 0.02958 0.0
C603 C 0.43427 0.79181 0.02315 0.0
C604 C 0.43051 0.78596 0.00389 0.0
C605 C 0.42827 0.70747 0.92192 0.0
C606 C 0.40694 0.6891 0.92893 0.0
C607 C 0.43682 0.73066 0.92778 0.0
C608 C 0.4241 0.73596 0.94061 0.0
C609 C 0.40318 0.71753 0.94814 0.0
C610 C 0.39465 0.6943 0.94233 0.0
C611 C 0.43236 0.7608 0.94574 0.0
C612 C 0.43575 0.76736 0.96496 0.0
C613 C 0.43762 0.77815 0.9317 0.0
C614 C 0.43255 0.77204 0.91131 0.0
C615 C 0.40996 0.75497 0.90538 0.0
C616 C 0.40529 0.74916 0.88618 0.0
C617 C 0.42304 0.76044 0.87273 0.0
C618 C 0.44548 0.77759 0.87847 0.0
C619 C 0.45025 0.78344 0.89767 0.0
H620 H 0.41939 0.75593 0.85787 0.0
H621 H 0.45937 0.81316 0.04449 0.0
H622 H 0.61695 0.49627 0.11003 0.0
H623 H 0.64361 0.48267 0.10261 0.0
H624 H 0.62019 0.43806 0.15216 0.0
H625 H 0.5946 0.45286 0.16046 0.0
H626 H 0.66483 0.45788 0.14983 0.0
H627 H 0.60283 0.4163 0.10556 0.0
H628 H 0.57482 0.41122 0.08059 0.0
H629 H 0.63131 0.45421 0.04271 0.0
H630 H 0.65969 0.45981 0.06755 0.0
H631 H 0.70871 0.38448 0.12105 0.0
H632 H 0.68409 0.40029 0.12988 0.0
H633 H 0.71579 0.45278 0.08591 0.0
H634 H 0.74057 0.43704 0.07695 0.0
H635 H 0.66727 0.42889 0.08546 0.0
H636 H 0.72907 0.46871 0.13123 0.0
H637 H 0.75543 0.47085 0.15662 0.0
H638 H 0.69661 0.42713 0.19224 0.0
H639 H 0.66987 0.42446 0.16695 0.0
C640 C 0.61762 0.4838 0.11954 0.0
C641 C 0.60354 0.47574 0.1359 0.0
C642 C 0.63268 0.47574 0.11509 0.0
C643 C 0.6337 0.45901 0.12663 0.0
C644 C 0.61969 0.4509 0.14297 0.0
C645 C 0.60482 0.45919 0.14757 0.0
C646 C 0.64968 0.45033 0.12184 0.0
C647 C 0.6651 0.45124 0.13582 0.0
C648 C 0.6504 0.44199 0.10347 0.0
C649 C 0.63339 0.43866 0.08849 0.0
C650 C 0.60928 0.42482 0.09196 0.0
C651 C 0.59334 0.42182 0.07782 0.0
C652 C 0.60128 0.43244 0.06009 0.0
C653 C 0.62519 0.44603 0.05646 0.0
C654 C 0.64121 0.4491 0.07056 0.0
C655 C 0.71064 0.39956 0.11337 0.0
C656 C 0.72661 0.40954 0.09831 0.0
C657 C 0.69658 0.40859 0.11847 0.0
C658 C 0.69817 0.42777 0.10861 0.0
C659 C 0.7143 0.43797 0.09371 0.0
C660 C 0.72852 0.42904 0.08868 0.0
C661 C 0.68237 0.43656 0.1134 0.0
C662 C 0.66697 0.4356 0.09944 0.0
C663 C 0.6814 0.44445 0.13185 0.0
C664 C 0.69747 0.44622 0.14713 0.0
C665 C 0.72175 0.45941 0.14442 0.0
C666 C 0.73676 0.46074 0.15881 0.0
C667 C 0.7277 0.44909 0.17602 0.0
C668 C 0.7036 0.43613 0.1789 0.0
C669 C 0.68852 0.43473 0.16455 0.0
H670 H 0.73935 0.45014 0.18713 0.0
H671 H 0.58891 0.4301 0.04916 0.0
H672 H 0.41419 0.88842 0.54456 0.0
H673 H 0.3895 0.84682 0.55257 0.0
H674 H 0.40347 0.82755 0.49782 0.0
H675 H 0.42771 0.86931 0.48945 0.0
H676 H 0.35794 0.80104 0.50657 0.0
H677 H 0.42958 0.82255 0.53703 0.0
H678 H 0.46413 0.8462 0.55711 0.0
H679 H 0.42012 0.83173 0.60576 0.0
H680 H 0.38525 0.80826 0.58591 0.0
H681 H 0.31448 0.68072 0.53564 0.0
H682 H 0.33958 0.72125 0.5243 0.0
H683 H 0.32174 0.74735 0.57358 0.0
H684 H 0.29637 0.70696 0.58485 0.0
H685 H 0.37072 0.76932 0.56613 0.0
H686 H 0.29889 0.74861 0.53419 0.0
H687 H 0.26516 0.7242 0.51351 0.0
H688 H 0.31116 0.73623 0.46675 0.0
H689 H 0.34521 0.76043 0.48726 0.0
C690 C 0.41188 0.87536 0.53415 0.0
C691 C 0.42291 0.88219 0.51636 0.0
C692 C 0.39794 0.85157 0.53882 0.0
C693 C 0.39485 0.83406 0.52588 0.0
C694 C 0.40569 0.84077 0.50805 0.0
C695 C 0.41968 0.86463 0.50335 0.0
C696 C 0.38007 0.8088 0.53102 0.0
C697 C 0.36097 0.79401 0.51943 0.0
C698 C 0.38385 0.79968 0.54792 0.0
C699 C 0.40478 0.81382 0.55993 0.0
C700 C 0.42724 0.82458 0.55198 0.0
C701 C 0.4469 0.83792 0.56332 0.0
C702 C 0.44432 0.84052 0.58269 0.0
C703 C 0.42208 0.82973 0.59075 0.0
C704 C 0.40237 0.81638 0.57946 0.0
C705 C 0.31578 0.6951 0.54396 0.0
C706 C 0.3035 0.69072 0.56113 0.0
C707 C 0.33007 0.71819 0.53746 0.0
C708 C 0.33249 0.73723 0.54813 0.0
C709 C 0.32011 0.73286 0.56518 0.0
C710 C 0.30556 0.7098 0.57154 0.0
C711 C 0.34846 0.76177 0.54185 0.0
C712 C 0.36782 0.77638 0.55322 0.0
C713 C 0.34505 0.7706 0.52467 0.0
C714 C 0.32461 0.75609 0.51232 0.0
C715 C 0.30183 0.74585 0.51955 0.0
C716 C 0.28265 0.7321 0.50785 0.0
C717 C 0.28602 0.7286 0.48884 0.0
C718 C 0.30858 0.73891 0.48149 0.0
C719 C 0.32783 0.75266 0.49314 0.0
H720 H 0.27114 0.71795 0.4798 0.0
H721 H 0.45956 0.85084 0.59145 0.0
H722 H 0.57969 0.4424 0.68044 0.0
H723 H 0.59396 0.41621 0.68927 0.0
H724 H 0.52366 0.36088 0.70189 0.0
H725 H 0.50932 0.38698 0.69321 0.0
H726 H 0.55596 0.36603 0.7296 0.0
H727 H 0.54744 0.35899 0.66146 0.0
H728 H 0.55431 0.37451 0.62879 0.0
H729 H 0.62799 0.40439 0.63596 0.0
H730 H 0.62158 0.38934 0.66878 0.0
H731 H 0.57709 0.2719 0.73772 0.0
H732 H 0.5614 0.29661 0.72824 0.0
H733 H 0.62837 0.34783 0.70492 0.0
H734 H 0.64373 0.32277 0.71359 0.0
H735 H 0.5971 0.34469 0.68246 0.0
H736 H 0.60766 0.35418 0.74978 0.0
H737 H 0.60303 0.34153 0.78321 0.0
H738 H 0.52889 0.31054 0.77882 0.0
H739 H 0.53306 0.32275 0.74527 0.0
C740 C 0.56732 0.42471 0.68523 0.0
C741 C 0.54337 0.4167 0.68603 0.0
C742 C 0.57546 0.40973 0.69016 0.0
C743 C 0.55983 0.38653 0.69608 0.0
C744 C 0.536 0.37868 0.69731 0.0
C745 C 0.52782 0.39356 0.69222 0.0
C746 C 0.56824 0.37031 0.70082 0.0
C747 C 0.5647 0.36109 0.71925 0.0
C748 C 0.5802 0.36442 0.68745 0.0
C749 C 0.58404 0.37322 0.66763 0.0
C750 C 0.56512 0.36901 0.65611 0.0
C751 C 0.56893 0.37771 0.63757 0.0
C752 C 0.59157 0.39048 0.63032 0.0
C753 C 0.61045 0.39452 0.6416 0.0
C754 C 0.60674 0.38589 0.66017 0.0
C755 C 0.58838 0.28835 0.73045 0.0
C756 C 0.61165 0.2954 0.72645 0.0
C757 C 0.57946 0.30257 0.72515 0.0
C758 C 0.5938 0.32439 0.71616 0.0
C759 C 0.61691 0.33114 0.71183 0.0
C760 C 0.6257 0.31678 0.71683 0.0
C761 C 0.58493 0.34032 0.71136 0.0
C762 C 0.58836 0.34953 0.69288 0.0
C763 C 0.57322 0.34653 0.7248 0.0
C764 C 0.57065 0.33915 0.74496 0.0
C765 C 0.59035 0.34451 0.7559 0.0
C766 C 0.58781 0.33745 0.77488 0.0
C767 C 0.56567 0.32518 0.78312 0.0
C768 C 0.54603 0.32001 0.77241 0.0
C769 C 0.54847 0.32701 0.75342 0.0
H770 H 0.56374 0.31973 0.79781 0.0
H771 H 0.59449 0.39721 0.61596 0.0
H772 H 0.1468 0.54877 0.82638 0.0
H773 H 0.18741 0.56265 0.83434 0.0
H774 H 0.16605 0.52979 0.88936 0.0
H775 H 0.12555 0.5167 0.8818 0.0
H776 H 0.20376 0.57215 0.89262 0.0
H777 H 0.18053 0.50472 0.85296 0.0
H778 H 0.1643 0.48026 0.82427 0.0
H779 H 0.21798 0.53538 0.79035 0.0
H780 H 0.23436 0.56031 0.81882 0.0
H781 H 0.30787 0.5739 0.91661 0.0
H782 H 0.26723 0.55844 0.90725 0.0
H783 H 0.2904 0.60132 0.85677 0.0
H784 H 0.33103 0.61715 0.86619 0.0
H785 H 0.25219 0.55385 0.85094 0.0
H786 H 0.27492 0.62123 0.89071 0.0
H787 H 0.29107 0.64555 0.91947 0.0
H788 H 0.23794 0.58983 0.95333 0.0
H789 H 0.2217 0.56501 0.92478 0.0
C790 C 0.15075 0.54472 0.84025 0.0
C791 C 0.13285 0.5315 0.85341 0.0
C792 C 0.17397 0.55245 0.84471 0.0
C793 C 0.17978 0.54696 0.86235 0.0
C794 C 0.16201 0.53414 0.87562 0.0
C795 C 0.13881 0.52647 0.8712 0.0
C796 C 0.20436 0.55463 0.86704 0.0
C797 C 0.2142 0.56783 0.88363 0.0
C798 C 0.21823 0.54947 0.85512 0.0
C799 C 0.20853 0.53446 0.838 0.0
C800 C 0.18877 0.51169 0.83936 0.0
C801 C 0.17956 0.49773 0.82314 0.0
C802 C 0.19007 0.50628 0.80549 0.0
C803 C 0.20985 0.52879 0.80403 0.0
C804 C 0.21911 0.54283 0.82021 0.0
C805 C 0.3043 0.57978 0.90339 0.0
C806 C 0.32261 0.59679 0.89216 0.0
C807 C 0.2811 0.57102 0.89811 0.0
C808 C 0.27585 0.57888 0.88139 0.0
C809 C 0.2941 0.59505 0.86972 0.0
C810 C 0.31728 0.6041 0.87515 0.0
C811 C 0.25137 0.57113 0.87654 0.0
C812 C 0.24163 0.55802 0.85993 0.0
C813 C 0.23755 0.57629 0.88845 0.0
C814 C 0.24728 0.59115 0.90564 0.0
C815 C 0.26683 0.61406 0.90431 0.0
C816 C 0.27597 0.62796 0.92057 0.0
C817 C 0.26559 0.61921 0.93823 0.0
C818 C 0.246 0.59657 0.93965 0.0
C819 C 0.23681 0.58258 0.92344 0.0
H820 H 0.27267 0.63001 0.95079 0.0
H821 H 0.18291 0.49545 0.79295 0.0
H822 H 0.57403 0.13508 0.01878 0.0
H823 H 0.60003 0.17685 0.02603 0.0
H824 H 0.65907 0.16739 0.02496 0.0
H825 H 0.63361 0.12603 0.0166 0.0
H826 H 0.6527 0.19084 0.0592 0.0
H827 H 0.65634 0.19324 0.9904 0.0
H828 H 0.63868 0.18513 0.95853 0.0
H829 H 0.60726 0.226 0.97149 0.0
H830 H 0.62445 0.23404 0.00357 0.0
H831 H 0.74432 0.30779 0.07013 0.0
H832 H 0.71985 0.2674 0.05868 0.0
H833 H 0.66886 0.28397 0.03896 0.0
H834 H 0.694 0.32473 0.04939 0.0
H835 H 0.67013 0.25622 0.01499 0.0
H836 H 0.66365 0.25387 0.08252 0.0
H837 H 0.67732 0.26093 0.11569 0.0
H838 H 0.70889 0.21925 0.10731 0.0
H839 H 0.69566 0.21218 0.074 0.0
C840 C 0.59258 0.14188 0.01971 0.0
C841 C 0.60161 0.12698 0.01718 0.0
C842 C 0.60737 0.16574 0.02399 0.0
C843 C 0.63139 0.17507 0.02606 0.0
C844 C 0.64052 0.1604 0.02353 0.0
C845 C 0.62585 0.13669 0.01891 0.0
C846 C 0.64701 0.20004 0.03131 0.0
C847 C 0.65681 0.20519 0.04951 0.0
C848 C 0.65157 0.21861 0.01882 0.0
C849 C 0.64148 0.21402 0.99946 0.0
C850 C 0.6455 0.20032 0.98652 0.0
C851 C 0.6356 0.19577 0.9684 0.0
C852 C 0.6218 0.20499 0.963 0.0
C853 C 0.61793 0.21885 0.9757 0.0
C854 C 0.62776 0.22341 0.99384 0.0
C855 C 0.72797 0.30281 0.06322 0.0
C856 C 0.72095 0.31929 0.06076 0.0
C857 C 0.71389 0.27968 0.05678 0.0
C858 C 0.69214 0.27237 0.04837 0.0
C859 C 0.68547 0.28907 0.04544 0.0
C860 C 0.69983 0.31236 0.05145 0.0
C861 C 0.67617 0.24727 0.04301 0.0
C862 C 0.66617 0.242 0.02479 0.0
C863 C 0.67093 0.22854 0.05568 0.0
C864 C 0.67887 0.23269 0.07572 0.0
C865 C 0.67365 0.24634 0.08772 0.0
C866 C 0.68129 0.25033 0.10655 0.0
C867 C 0.69402 0.2406 0.11359 0.0
C868 C 0.69906 0.2268 0.10183 0.0
C869 C 0.69148 0.22278 0.08298 0.0
H870 H 0.69992 0.24371 0.12817 0.0
H871 H 0.61415 0.20144 0.94897 0.0
H872 H 0.44682 0.5686 0.18118 0.0
H873 H 0.43247 0.59483 0.1897 0.0
H874 H 0.50267 0.6502 0.20257 0.0
H875 H 0.51709 0.62407 0.19414 0.0
H876 H 0.46939 0.64432 0.23022 0.0
H877 H 0.47975 0.65217 0.16206 0.0
H878 H 0.47342 0.63658 0.12943 0.0
H879 H 0.39966 0.60701 0.13567 0.0
H880 H 0.40553 0.62213 0.16846 0.0
H881 H 0.44796 0.73812 0.23871 0.0
H882 H 0.46409 0.71378 0.22917 0.0
H883 H 0.39799 0.66315 0.20421 0.0
H884 H 0.38222 0.68782 0.21294 0.0
H885 H 0.4299 0.66674 0.18238 0.0
H886 H 0.41679 0.65548 0.24922 0.0
H887 H 0.41987 0.66694 0.28287 0.0
H888 H 0.49416 0.69805 0.28061 0.0
H889 H 0.49154 0.68704 0.24685 0.0
C890 C 0.45915 0.58631 0.18596 0.0
C891 C 0.48308 0.59433 0.18693 0.0
C892 C 0.45096 0.6013 0.19071 0.0
C893 C 0.46655 0.62451 0.19661 0.0
C894 C 0.49037 0.63238 0.19799 0.0
C895 C 0.49859 0.6175 0.19307 0.0
C896 C 0.45809 0.6407 0.2012 0.0
C897 C 0.46104 0.64953 0.21973 0.0
C898 C 0.44654 0.64682 0.18763 0.0
C899 C 0.44307 0.63812 0.16778 0.0
C900 C 0.46217 0.64222 0.15652 0.0
C901 C 0.45866 0.63348 0.13799 0.0
C902 C 0.43615 0.62076 0.1305 0.0
C903 C 0.41709 0.61685 0.1415 0.0
C904 C 0.4205 0.62552 0.16005 0.0
C905 C 0.43697 0.72189 0.23105 0.0
C906 C 0.41381 0.71487 0.22663 0.0
C907 C 0.44614 0.70789 0.22572 0.0
C908 C 0.43215 0.68634 0.21625 0.0
C909 C 0.40918 0.67965 0.21148 0.0
C910 C 0.40016 0.69378 0.21653 0.0
C911 C 0.44117 0.67053 0.21152 0.0
C912 C 0.43831 0.66169 0.19294 0.0
C913 C 0.45234 0.66396 0.22518 0.0
C914 C 0.45399 0.67068 0.24545 0.0
C915 C 0.4338 0.66494 0.25586 0.0
C916 C 0.43546 0.67132 0.27496 0.0
C917 C 0.4572 0.68328 0.28386 0.0
C918 C 0.47733 0.68883 0.27368 0.0
C919 C 0.47577 0.68252 0.25457 0.0
H920 H 0.45845 0.6882 0.29865 0.0
H921 H 0.43346 0.61398 0.11616 0.0
H922 H 0.89892 0.49241 0.38186 0.0
H923 H 0.85841 0.47897 0.38956 0.0
H924 H 0.83701 0.44618 0.33452 0.0
H925 H 0.87772 0.46042 0.3264 0.0
H926 H 0.81468 0.46824 0.34254 0.0
H927 H 0.8281 0.41335 0.37452 0.0
H928 H 0.84805 0.39934 0.39534 0.0
H929 H 0.83708 0.43266 0.44318 0.0
H930 H 0.81735 0.44718 0.42258 0.0
H931 H 0.69417 0.39146 0.3673 0.0
H932 H 0.73489 0.40786 0.35798 0.0
H933 H 0.75729 0.45246 0.4075 0.0
H934 H 0.71647 0.4364 0.41677 0.0
H935 H 0.77865 0.42427 0.402 0.0
H936 H 0.76281 0.47743 0.36729 0.0
H937 H 0.74092 0.48739 0.34485 0.0
H938 H 0.75424 0.45187 0.30008 0.0
H939 H 0.77588 0.44134 0.32232 0.0
C940 C 0.88565 0.48252 0.37131 0.0
C941 C 0.89162 0.47752 0.3535 0.0
C942 C 0.86243 0.47462 0.37581 0.0
C943 C 0.84458 0.46132 0.36271 0.0
C944 C 0.85046 0.45636 0.34488 0.0
C945 C 0.87372 0.46432 0.34033 0.0
C946 C 0.81986 0.45284 0.3676 0.0
C947 C 0.80674 0.45839 0.35544 0.0
C948 C 0.80949 0.44013 0.3845 0.0
C949 C 0.82148 0.43158 0.39695 0.0
C950 C 0.83014 0.41789 0.38944 0.0
C951 C 0.84137 0.40981 0.40121 0.0
C952 C 0.8439 0.41517 0.42056 0.0
C953 C 0.83515 0.42857 0.42818 0.0
C954 C 0.82393 0.43671 0.41647 0.0
C955 C 0.70775 0.40498 0.37608 0.0
C956 C 0.70215 0.41267 0.39277 0.0
C957 C 0.73099 0.41434 0.37072 0.0
C958 C 0.74907 0.43136 0.38204 0.0
C959 C 0.74355 0.43934 0.39857 0.0
C960 C 0.72026 0.43025 0.40379 0.0
C961 C 0.77369 0.43993 0.37707 0.0
C962 C 0.78672 0.43427 0.38918 0.0
C963 C 0.78376 0.45201 0.35991 0.0
C964 C 0.77078 0.4584 0.34653 0.0
C965 C 0.76088 0.47154 0.35271 0.0
C966 C 0.74855 0.47732 0.34001 0.0
C967 C 0.74615 0.47021 0.32106 0.0
C968 C 0.75609 0.45733 0.31476 0.0
C969 C 0.7684 0.45147 0.32741 0.0
H970 H 0.73666 0.47473 0.31122 0.0
H971 H 0.85258 0.40888 0.42966 0.0
H972 H 0.07522 0.56499 0.42743 0.0
H973 H 0.10395 0.57786 0.45285 0.0
H974 H 0.14691 0.56149 0.41836 0.0
H975 H 0.11903 0.5499 0.39227 0.0
H976 H 0.13713 0.5444 0.46031 0.0
H977 H 0.1673 0.61274 0.41975 0.0
H978 H 0.16409 0.64222 0.40077 0.0
H979 H 0.14323 0.66439 0.4504 0.0
H980 H 0.14596 0.63476 0.46962 0.0
H981 H 0.23309 0.60199 0.52589 0.0
H982 H 0.20916 0.58657 0.49715 0.0
H983 H 0.17291 0.62252 0.51228 0.0
H984 H 0.19715 0.63854 0.54035 0.0
H985 H 0.18256 0.62924 0.47708 0.0
H986 H 0.14922 0.56062 0.51745 0.0
H987 H 0.14952 0.53011 0.5373 0.0
H988 H 0.17331 0.50745 0.48981 0.0
H989 H 0.17342 0.53803 0.46973 0.0
C990 C 0.09089 0.5644 0.42501 0.0
C991 C 0.09473 0.55651 0.40759 0.0
C992 C 0.10717 0.57153 0.4397 0.0
C993 C 0.12748 0.57057 0.43745 0.0
C994 C 0.13122 0.56218 0.42038 0.0
C995 C 0.11515 0.55545 0.40551 0.0
C996 C 0.1451 0.57926 0.4528 0.0
C997 C 0.14742 0.56298 0.46385 0.0
C998 C 0.15807 0.60341 0.45755 0.0
C999 C 0.15662 0.62138 0.44607 0.0
C1000 C 0.16182 0.62375 0.42657 0.0
C1001 C 0.16013 0.64052 0.41578 0.0
C1002 C 0.15341 0.65513 0.42436 0.0
C1003 C 0.14842 0.65304 0.44377 0.0
C1004 C 0.15005 0.63628 0.45462 0.0
C1005 C 0.21994 0.60649 0.52307 0.0
C1006 C 0.21712 0.62157 0.53538 0.0
C1007 C 0.20621 0.59761 0.50668 0.0
C1008 C 0.18906 0.60325 0.50253 0.0
C1009 C 0.18609 0.61802 0.515 0.0
C1010 C 0.19998 0.62715 0.53113 0.0
C1011 C 0.17436 0.59435 0.48512 0.0
C1012 C 0.17256 0.61064 0.47356 0.0
C1013 C 0.16164 0.57015 0.48012 0.0
C1014 C 0.1616 0.55179 0.49216 0.0
C1015 C 0.1547 0.54925 0.51129 0.0
C1016 C 0.15476 0.53192 0.52257 0.0
C1017 C 0.16151 0.5169 0.51484 0.0
C1018 C 0.16814 0.51913 0.49579 0.0
C1019 C 0.16813 0.53645 0.48445 0.0
H1020 H 0.16154 0.5035 0.52359 0.0
H1021 H 0.15211 0.6681 0.41598 0.0
H1022 H 0.56511 0.08562 0.57597 0.0
H1023 H 0.57989 0.11217 0.60309 0.0
H1024 H 0.5186 0.11799 0.60242 0.0
H1025 H 0.50405 0.09206 0.57463 0.0
H1026 H 0.55707 0.16035 0.60851 0.0
H1027 H 0.52435 0.08381 0.6355 0.0
H1028 H 0.51729 0.04361 0.63912 0.0
H1029 H 0.58982 0.07184 0.65119 0.0
H1030 H 0.59739 0.11221 0.64738 0.0
H1031 H 0.59076 0.21679 0.70082 0.0
H1032 H 0.56846 0.19014 0.67466 0.0
H1033 H 0.62413 0.17665 0.6647 0.0
H1034 H 0.64628 0.20282 0.69063 0.0
H1035 H 0.58257 0.13634 0.6659 0.0
H1036 H 0.61532 0.21282 0.63574 0.0
H1037 H 0.62193 0.25286 0.63216 0.0
H1038 H 0.54824 0.22423 0.62671 0.0
H1039 H 0.54117 0.18402 0.6305 0.0
C1040 C 0.55484 0.09273 0.58139 0.0
C1041 C 0.53335 0.08665 0.57306 0.0
C1042 C 0.56321 0.10773 0.59708 0.0
C1043 C 0.5502 0.11682 0.60502 0.0
C1044 C 0.52889 0.11109 0.59662 0.0
C1045 C 0.5205 0.09609 0.58084 0.0
C1046 C 0.55903 0.13226 0.62206 0.0
C1047 C 0.56225 0.15495 0.6212 0.0
C1048 C 0.56595 0.12532 0.6386 0.0
C1049 C 0.56146 0.10105 0.64102 0.0
C1050 C 0.53883 0.08144 0.6388 0.0
C1051 C 0.53473 0.05863 0.6409 0.0
C1052 C 0.5531 0.05517 0.64535 0.0
C1053 C 0.57561 0.07454 0.64774 0.0
C1054 C 0.5798 0.0974 0.64563 0.0
C1055 C 0.59829 0.20823 0.693 0.0
C1056 C 0.62033 0.21197 0.69794 0.0
C1057 C 0.58553 0.19304 0.67802 0.0
C1058 C 0.59463 0.18139 0.6677 0.0
C1059 C 0.61668 0.18532 0.67251 0.0
C1060 C 0.62938 0.20041 0.68737 0.0
C1061 C 0.58131 0.16467 0.65211 0.0
C1062 C 0.57713 0.14165 0.6533 0.0
C1063 C 0.57344 0.1713 0.63596 0.0
C1064 C 0.5777 0.19545 0.63364 0.0
C1065 C 0.60052 0.21508 0.63394 0.0
C1066 C 0.60435 0.2378 0.63184 0.0
C1067 C 0.58551 0.2411 0.62927 0.0
C1068 C 0.56281 0.22166 0.62874 0.0
C1069 C 0.55888 0.1989 0.63085 0.0
H1070 H 0.58852 0.2587 0.62765 0.0
H1071 H 0.5499 0.03749 0.64697 0.0
H1072 H 0.47656 0.52366 0.7597 0.0
H1073 H 0.46439 0.53801 0.78661 0.0
H1074 H 0.41566 0.5443 0.75075 0.0
H1075 H 0.42829 0.53057 0.72355 0.0
H1076 H 0.43914 0.58257 0.77236 0.0
H1077 H 0.39643 0.50008 0.78315 0.0
H1078 H 0.38981 0.46004 0.78653 0.0
H1079 H 0.43601 0.48248 0.83441 0.0
H1080 H 0.4432 0.52278 0.83115 0.0
H1081 H 0.38054 0.59228 0.85759 0.0
H1082 H 0.38476 0.57174 0.83018 0.0
H1083 H 0.4559 0.59666 0.84616 0.0
H1084 H 0.45213 0.61783 0.8731 0.0
H1085 H 0.41594 0.54027 0.83399 0.0
H1086 H 0.46412 0.6251 0.81659 0.0
H1087 H 0.46862 0.66431 0.81313 0.0
H1088 H 0.40799 0.63479 0.77747 0.0
H1089 H 0.40298 0.59532 0.78098 0.0
C1090 C 0.46333 0.5282 0.75749 0.0
C1091 C 0.45342 0.52599 0.73945 0.0
C1092 C 0.4562 0.53617 0.77295 0.0
C1093 C 0.43889 0.54197 0.77078 0.0
C1094 C 0.42895 0.53982 0.75279 0.0
C1095 C 0.43607 0.5318 0.73729 0.0
C1096 C 0.4318 0.55099 0.78722 0.0
C1097 C 0.43373 0.57308 0.78571 0.0
C1098 C 0.42477 0.53874 0.80474 0.0
C1099 C 0.4205 0.51452 0.8068 0.0
C1100 C 0.40533 0.49653 0.79431 0.0
C1101 C 0.40145 0.47378 0.79622 0.0
C1102 C 0.41252 0.46873 0.81065 0.0
C1103 C 0.42746 0.48642 0.82323 0.0
C1104 C 0.43143 0.50922 0.82137 0.0
C1105 C 0.39699 0.59317 0.85533 0.0
C1106 C 0.41605 0.60675 0.8674 0.0
C1107 C 0.39937 0.58149 0.8397 0.0
C1108 C 0.42066 0.58282 0.83619 0.0
C1109 C 0.43937 0.59553 0.84865 0.0
C1110 C 0.4372 0.60764 0.86397 0.0
C1111 C 0.42388 0.57186 0.81908 0.0
C1112 C 0.42114 0.54948 0.82052 0.0
C1113 C 0.42995 0.58366 0.80145 0.0
C1114 C 0.433 0.60729 0.79926 0.0
C1115 C 0.45162 0.62696 0.80819 0.0
C1116 C 0.4543 0.64922 0.80618 0.0
C1117 C 0.43855 0.65203 0.79514 0.0
C1118 C 0.42013 0.63258 0.78605 0.0
C1119 C 0.41737 0.61027 0.78804 0.0
H1120 H 0.44065 0.66928 0.79359 0.0
H1121 H 0.40949 0.45109 0.81211 0.0
H1122 H 0.9514 0.44947 0.92814 0.0
H1123 H 0.92284 0.43672 0.95372 0.0
H1124 H 0.8758 0.44456 0.91704 0.0
H1125 H 0.90375 0.45624 0.89094 0.0
H1126 H 0.88253 0.46432 0.95684 0.0
H1127 H 0.8616 0.39338 0.92215 0.0
H1128 H 0.86989 0.36522 0.9064 0.0
H1129 H 0.89495 0.35381 0.959 0.0
H1130 H 0.88713 0.3822 0.975 0.0
H1131 H 0.78808 0.40355 0.0236 0.0
H1132 H 0.81197 0.41892 0.9948 0.0
H1133 H 0.85596 0.39336 0.01475 0.0
H1134 H 0.83165 0.37716 0.04282 0.0
H1135 H 0.84723 0.38225 0.98019 0.0
H1136 H 0.87162 0.45434 0.01478 0.0
H1137 H 0.86606 0.48397 0.03124 0.0
H1138 H 0.83728 0.49474 0.98048 0.0
H1139 H 0.84243 0.46495 0.96379 0.0
C1140 C 0.93491 0.44825 0.92534 0.0
C1141 C 0.92991 0.45372 0.90731 0.0
C1142 C 0.9187 0.44118 0.94008 0.0
C1143 C 0.89725 0.4397 0.93724 0.0
C1144 C 0.89235 0.44576 0.91952 0.0
C1145 C 0.90843 0.45251 0.90464 0.0
C1146 C 0.87966 0.43075 0.95264 0.0
C1147 C 0.87446 0.44629 0.96182 0.0
C1148 C 0.86953 0.40737 0.95925 0.0
C1149 C 0.87396 0.39006 0.94973 0.0
C1150 C 0.86905 0.385 0.93032 0.0
C1151 C 0.87363 0.36898 0.92136 0.0
C1152 C 0.88298 0.35777 0.93168 0.0
C1153 C 0.88771 0.36252 0.95101 0.0
C1154 C 0.88319 0.37856 0.96004 0.0
C1155 C 0.80294 0.40139 0.02182 0.0
C1156 C 0.8079 0.38903 0.0354 0.0
C1157 C 0.81666 0.41024 0.0054 0.0
C1158 C 0.83593 0.40744 0.00256 0.0
C1159 C 0.84112 0.3956 0.01642 0.0
C1160 C 0.82721 0.38637 0.03253 0.0
C1161 C 0.85045 0.41599 0.98502 0.0
C1162 C 0.85505 0.40029 0.97527 0.0
C1163 C 0.86024 0.43933 0.9781 0.0
C1164 C 0.85715 0.45723 0.98812 0.0
C1165 C 0.86394 0.4629 0.00718 0.0
C1166 C 0.86089 0.47974 0.01654 0.0
C1167 C 0.85125 0.49118 0.00693 0.0
C1168 C 0.8447 0.48584 0.98792 0.0
C1169 C 0.84769 0.46899 0.9785 0.0
H1170 H 0.84891 0.50421 0.0142 0.0
H1171 H 0.88653 0.34537 0.92472 0.0
H1172 H 0.4606 0.89143 0.05592 0.0
H1173 H 0.44424 0.86468 0.08292 0.0
H1174 H 0.49884 0.91611 0.11889 0.0
H1175 H 0.51486 0.94351 0.09218 0.0
H1176 H 0.48791 0.86712 0.12323 0.0
H1177 H 0.45068 0.91344 0.12234 0.0
H1178 H 0.42901 0.92992 0.10708 0.0
H1179 H 0.37225 0.86009 0.09509 0.0
H1180 H 0.39375 0.8432 0.11003 0.0
H1181 H 0.43587 0.81443 0.21205 0.0
H1182 H 0.45622 0.84062 0.18525 0.0
H1183 H 0.39286 0.80503 0.15221 0.0
H1184 H 0.37224 0.78024 0.1795 0.0
H1185 H 0.40984 0.84734 0.14631 0.0
H1186 H 0.44484 0.79967 0.14585 0.0
H1187 H 0.46569 0.78119 0.15912 0.0
H1188 H 0.52502 0.84945 0.17116 0.0
H1189 H 0.5044 0.86835 0.15817 0.0
C1190 C 0.46909 0.89723 0.06957 0.0
C1191 C 0.48896 0.91984 0.07183 0.0
C1192 C 0.4598 0.88179 0.08496 0.0
C1193 C 0.47028 0.88848 0.10289 0.0
C1194 C 0.49057 0.9106 0.10512 0.0
C1195 C 0.49974 0.9262 0.08978 0.0
C1196 C 0.4593 0.87282 0.1195 0.0
C1197 C 0.47094 0.8629 0.12848 0.0
C1198 C 0.43694 0.86693 0.12594 0.0
C1199 C 0.42392 0.87708 0.11714 0.0
C1200 C 0.43366 0.90161 0.11632 0.0
C1201 C 0.4214 0.91102 0.10775 0.0
C1202 C 0.39929 0.89606 0.10008 0.0
C1203 C 0.38938 0.87166 0.10101 0.0
C1204 C 0.40159 0.86216 0.10954 0.0
C1205 C 0.42643 0.81217 0.19898 0.0
C1206 C 0.40253 0.79538 0.19779 0.0
C1207 C 0.43809 0.82702 0.18358 0.0
C1208 C 0.42627 0.82471 0.16645 0.0
C1209 C 0.40246 0.80739 0.16521 0.0
C1210 C 0.39067 0.79313 0.18078 0.0
C1211 C 0.43815 0.84096 0.15011 0.0
C1212 C 0.42674 0.85123 0.14116 0.0
C1213 C 0.46052 0.84673 0.14347 0.0
C1214 C 0.47298 0.83541 0.15121 0.0
C1215 C 0.46227 0.81073 0.15144 0.0
C1216 C 0.47406 0.80018 0.15889 0.0
C1217 C 0.49664 0.81413 0.16602 0.0
C1218 C 0.50752 0.83867 0.16565 0.0
C1219 C 0.4958 0.84931 0.15823 0.0
H1220 H 0.50574 0.80593 0.17179 0.0
H1221 H 0.38983 0.90338 0.09345 0.0
H1222 H 0.55047 0.44316 0.22728 0.0
H1223 H 0.56202 0.42797 0.25405 0.0
H1224 H 0.60412 0.49851 0.27614 0.0
H1225 H 0.59309 0.51384 0.24898 0.0
H1226 H 0.62609 0.47548 0.28113 0.0
H1227 H 0.54904 0.45913 0.29424 0.0
H1228 H 0.50742 0.44386 0.28787 0.0
H1229 H 0.49516 0.37375 0.28271 0.0
H1230 H 0.53677 0.38865 0.28879 0.0
H1231 H 0.63327 0.43268 0.37366 0.0
H1232 H 0.62785 0.45296 0.34682 0.0
H1233 H 0.58355 0.38599 0.31946 0.0
H1234 H 0.58813 0.36576 0.34644 0.0
H1235 H 0.56343 0.4103 0.31872 0.0
H1236 H 0.64237 0.42839 0.30521 0.0
H1237 H 0.68391 0.445 0.31306 0.0
H1238 H 0.69238 0.5133 0.32073 0.0
H1239 H 0.65086 0.49706 0.31318 0.0
C1240 C 0.56221 0.45541 0.23784 0.0
C1241 C 0.57071 0.47964 0.23616 0.0
C1242 C 0.56878 0.44673 0.25316 0.0
C1243 C 0.58356 0.46203 0.26737 0.0
C1244 C 0.59265 0.48634 0.26541 0.0
C1245 C 0.58633 0.49508 0.24991 0.0
C1246 C 0.58899 0.45249 0.28444 0.0
C1247 C 0.61238 0.46139 0.28948 0.0
C1248 C 0.57115 0.43408 0.29536 0.0
C1249 C 0.54607 0.42504 0.29182 0.0
C1250 C 0.5375 0.44048 0.29163 0.0
C1251 C 0.5139 0.43189 0.28808 0.0
C1252 C 0.49867 0.40786 0.28485 0.0
C1253 C 0.50698 0.39236 0.2852 0.0
C1254 C 0.53057 0.40086 0.28871 0.0
C1255 C 0.6226 0.42237 0.3618 0.0
C1256 C 0.611 0.39763 0.36221 0.0
C1257 C 0.61957 0.43397 0.34643 0.0
C1258 C 0.60535 0.42103 0.33101 0.0
C1259 C 0.59446 0.39638 0.3312 0.0
C1260 C 0.59713 0.38483 0.34664 0.0
C1261 C 0.60055 0.43269 0.31508 0.0
C1262 C 0.57718 0.42433 0.31035 0.0
C1263 C 0.61842 0.4517 0.30461 0.0
C1264 C 0.64346 0.46146 0.3088 0.0
C1265 C 0.65307 0.44692 0.30867 0.0
C1266 C 0.67661 0.45627 0.31305 0.0
C1267 C 0.69074 0.48017 0.31745 0.0
C1268 C 0.6814 0.49479 0.31736 0.0
C1269 C 0.65788 0.48553 0.31301 0.0
H1270 H 0.70892 0.48739 0.32091 0.0
H1271 H 0.48041 0.40125 0.28211 0.0
H1272 H 0.42706 0.89601 0.42975 0.0
H1273 H 0.41505 0.86841 0.40342 0.0
H1274 H 0.47836 0.91615 0.37342 0.0
H1275 H 0.48965 0.94472 0.39906 0.0
H1276 H 0.44545 0.89949 0.34956 0.0
H1277 H 0.46842 0.86353 0.39604 0.0
H1278 H 0.46994 0.84798 0.42744 0.0
H1279 H 0.39683 0.79655 0.42402 0.0
H1280 H 0.39479 0.81201 0.3927 0.0
H1281 H 0.4283 0.80828 0.28323 0.0
H1282 H 0.44498 0.83459 0.31078 0.0
H1283 H 0.37587 0.80961 0.33245 0.0
H1284 H 0.35908 0.78392 0.30474 0.0
H1285 H 0.41478 0.81434 0.35993 0.0
H1286 H 0.39365 0.8553 0.31357 0.0
H1287 H 0.39493 0.87099 0.28158 0.0
H1288 H 0.46959 0.91323 0.28461 0.0
H1289 H 0.46874 0.89748 0.31655 0.0
C1290 C 0.43835 0.90088 0.41748 0.0
C1291 C 0.45938 0.92277 0.41665 0.0
C1292 C 0.43161 0.88481 0.4025 0.0
C1293 C 0.44597 0.88989 0.38649 0.0
C1294 C 0.46698 0.91168 0.38562 0.0
C1295 C 0.47356 0.92794 0.40046 0.0
C1296 C 0.43868 0.87283 0.37042 0.0
C1297 C 0.43915 0.88097 0.3519 0.0
C1298 C 0.43028 0.84853 0.37328 0.0
C1299 C 0.43141 0.83907 0.39208 0.0
C1300 C 0.45262 0.84901 0.40204 0.0
C1301 C 0.45359 0.8402 0.41982 0.0
C1302 C 0.43348 0.82133 0.42774 0.0
C1303 C 0.41238 0.81119 0.41787 0.0
C1304 C 0.41132 0.81995 0.40009 0.0
C1305 C 0.4167 0.80823 0.29398 0.0
C1306 C 0.39239 0.79415 0.29181 0.0
C1307 C 0.42624 0.82326 0.30966 0.0
C1308 C 0.41162 0.82399 0.32359 0.0
C1309 C 0.38741 0.80923 0.32186 0.0
C1310 C 0.37787 0.79467 0.30599 0.0
C1311 C 0.4214 0.84111 0.33943 0.0
C1312 C 0.42136 0.83295 0.35778 0.0
C1313 C 0.43065 0.86543 0.33642 0.0
C1314 C 0.43115 0.87499 0.31731 0.0
C1315 C 0.41035 0.86774 0.30733 0.0
C1316 C 0.41099 0.87668 0.28923 0.0
C1317 C 0.43233 0.89303 0.28104 0.0
C1318 C 0.45307 0.90052 0.29096 0.0
C1319 C 0.45252 0.8916 0.30906 0.0
H1320 H 0.4328 0.89994 0.26702 0.0
H1321 H 0.43426 0.81454 0.44151 0.0
H1322 H 0.5695 0.4545 0.59887 0.0
H1323 H 0.58501 0.4431 0.57218 0.0
H1324 H 0.53037 0.43755 0.53621 0.0
H1325 H 0.51542 0.45011 0.56238 0.0
H1326 H 0.53659 0.39667 0.53712 0.0
H1327 H 0.58019 0.48179 0.52938 0.0
H1328 H 0.60684 0.52247 0.54027 0.0
H1329 H 0.66045 0.50633 0.55002 0.0
H1330 H 0.63397 0.46543 0.53943 0.0
H1331 H 0.56317 0.3791 0.44572 0.0
H1332 H 0.55433 0.39465 0.47371 0.0
H1333 H 0.62266 0.41745 0.49632 0.0
H1334 H 0.63206 0.40287 0.46761 0.0
H1335 H 0.61206 0.44873 0.50486 0.0
H1336 H 0.57194 0.36571 0.51213 0.0
H1337 H 0.54666 0.32397 0.50322 0.0
H1338 H 0.48839 0.33389 0.49757 0.0
H1339 H 0.5134 0.37578 0.50619 0.0
C1340 C 0.56098 0.45131 0.58522 0.0
C1341 C 0.54106 0.45318 0.58291 0.0
C1342 C 0.56983 0.44466 0.57001 0.0
C1343 C 0.5588 0.43948 0.55227 0.0
C1344 C 0.53904 0.44136 0.54985 0.0
C1345 C 0.5304 0.44836 0.56492 0.0
C1346 C 0.56725 0.43127 0.5363 0.0
C1347 C 0.55298 0.40808 0.52992 0.0
C1348 C 0.5891 0.44589 0.52752 0.0
C1349 C 0.605 0.47048 0.53383 0.0
C1350 C 0.59757 0.48685 0.53402 0.0
C1351 C 0.61267 0.50996 0.5401 0.0
C1352 C 0.6353 0.51696 0.54589 0.0
C1353 C 0.6429 0.50087 0.54556 0.0
C1354 C 0.62786 0.47773 0.53951 0.0
C1355 C 0.57637 0.38749 0.45662 0.0
C1356 C 0.59822 0.38952 0.45458 0.0
C1357 C 0.57124 0.39627 0.4727 0.0
C1358 C 0.58753 0.4066 0.48748 0.0
C1359 C 0.6097 0.40938 0.48522 0.0
C1360 C 0.61506 0.40103 0.46883 0.0
C1361 C 0.58108 0.41416 0.50523 0.0
C1362 C 0.59573 0.43717 0.51207 0.0
C1363 C 0.55977 0.39917 0.51478 0.0
C1364 C 0.5446 0.37394 0.50968 0.0
C1365 C 0.55377 0.35903 0.50887 0.0
C1366 C 0.53948 0.33533 0.50389 0.0
C1367 C 0.51594 0.3263 0.4998 0.0
C1368 C 0.50663 0.34092 0.50073 0.0
C1369 C 0.52085 0.36463 0.50569 0.0
H1370 H 0.50491 0.30795 0.49594 0.0
H1371 H 0.64697 0.53487 0.55058 0.0
H1372 H 0.0718 0.53394 0.73374 0.0
H1373 H 0.09869 0.54759 0.70711 0.0
H1374 H 0.14388 0.5303 0.73746 0.0
H1375 H 0.11786 0.51823 0.76487 0.0
H1376 H 0.16938 0.56988 0.72096 0.0
H1377 H 0.10805 0.49603 0.6991 0.0
H1378 H 0.06764 0.46463 0.69226 0.0
H1379 H 0.06003 0.51047 0.65377 0.0
H1380 H 0.10029 0.54228 0.66058 0.0
H1381 H 0.23433 0.59091 0.63324 0.0
H1382 H 0.20877 0.56846 0.65996 0.0
H1383 H 0.16531 0.59741 0.64807 0.0
H1384 H 0.19083 0.62013 0.62182 0.0
H1385 H 0.14068 0.54668 0.65501 0.0
H1386 H 0.20168 0.62161 0.68129 0.0
H1387 H 0.24269 0.65154 0.68798 0.0
H1388 H 0.25132 0.60005 0.71789 0.0
H1389 H 0.21041 0.56972 0.71112 0.0
C1390 C 0.08758 0.53328 0.73495 0.0
C1391 C 0.09256 0.52497 0.7516 0.0
C1392 C 0.1028 0.54074 0.71949 0.0
C1393 C 0.12315 0.53953 0.72002 0.0
C1394 C 0.12823 0.53125 0.73659 0.0
C1395 C 0.11316 0.52411 0.75222 0.0
C1396 C 0.13941 0.54774 0.70352 0.0
C1397 C 0.16311 0.56436 0.7066 0.0
C1398 C 0.1314 0.5407 0.68467 0.0
C1399 C 0.10717 0.5216 0.68046 0.0
C1400 C 0.09771 0.49947 0.68927 0.0
C1401 C 0.07484 0.48159 0.68539 0.0
C1402 C 0.06127 0.48557 0.67262 0.0
C1403 C 0.07056 0.50742 0.66367 0.0
C1404 C 0.09342 0.52537 0.66752 0.0
C1405 C 0.21923 0.59232 0.63628 0.0
C1406 C 0.21467 0.6074 0.62553 0.0
C1407 C 0.20471 0.57955 0.65153 0.0
C1408 C 0.1852 0.58134 0.65596 0.0
C1409 C 0.18025 0.59577 0.64486 0.0
C1410 C 0.19494 0.60884 0.62993 0.0
C1411 C 0.17024 0.56903 0.67257 0.0
C1412 C 0.14685 0.55172 0.66946 0.0
C1413 C 0.17859 0.5751 0.69136 0.0
C1414 C 0.20311 0.59335 0.6955 0.0
C1415 C 0.21239 0.61662 0.68913 0.0
C1416 C 0.2356 0.63367 0.69297 0.0
C1417 C 0.24963 0.62768 0.70329 0.0
C1418 C 0.24045 0.60465 0.70985 0.0
C1419 C 0.21726 0.58753 0.70603 0.0
H1420 H 0.26759 0.6409 0.70625 0.0
H1421 H 0.04356 0.4717 0.66963 0.0
H1422 H 0.5844 0.11695 0.93407 0.0
H1423 H 0.5962 0.14456 0.90729 0.0
H1424 H 0.5618 0.08608 0.8685 0.0
H1425 H 0.54961 0.05846 0.8952 0.0
H1426 H 0.61055 0.12266 0.85959 0.0
H1427 H 0.53567 0.11323 0.87602 0.0
H1428 H 0.50777 0.11437 0.89822 0.0
H1429 H 0.55591 0.18781 0.90868 0.0
H1430 H 0.58424 0.18702 0.88672 0.0
H1431 H 0.61919 0.17801 0.77357 0.0
H1432 H 0.60339 0.15215 0.80118 0.0
H1433 H 0.61751 0.21176 0.83601 0.0
H1434 H 0.63187 0.23737 0.80789 0.0
H1435 H 0.58031 0.17615 0.84859 0.0
H1436 H 0.655 0.18811 0.83378 0.0
H1437 H 0.68596 0.18941 0.81387 0.0
H1438 H 0.64327 0.11509 0.80351 0.0
H1439 H 0.61192 0.11339 0.82316 0.0
C1440 C 0.57936 0.11004 0.91981 0.0
C1441 C 0.56609 0.0856 0.91667 0.0
C1442 C 0.586 0.12579 0.90458 0.0
C1443 C 0.57979 0.11732 0.88595 0.0
C1444 C 0.5667 0.09293 0.88278 0.0
C1445 C 0.5597 0.07721 0.89802 0.0
C1446 C 0.58743 0.13382 0.86965 0.0
C1447 C 0.60376 0.13417 0.85701 0.0
C1448 C 0.57927 0.14949 0.86682 0.0
C1449 C 0.56216 0.15 0.87988 0.0
C1450 C 0.54039 0.12957 0.88317 0.0
C1451 C 0.52448 0.13016 0.89569 0.0
C1452 C 0.53009 0.15113 0.90489 0.0
C1453 C 0.5516 0.17157 0.90156 0.0
C1454 C 0.56757 0.17107 0.88906 0.0
C1455 C 0.61851 0.18544 0.78709 0.0
C1456 C 0.62673 0.20958 0.78872 0.0
C1457 C 0.60972 0.17074 0.80292 0.0
C1458 C 0.60993 0.18005 0.82091 0.0
C1459 C 0.61728 0.2041 0.82236 0.0
C1460 C 0.62548 0.21874 0.80634 0.0
C1461 C 0.60326 0.16479 0.83814 0.0
C1462 C 0.58721 0.16472 0.85107 0.0
C1463 C 0.61217 0.14977 0.84156 0.0
C1464 C 0.63104 0.15067 0.82982 0.0
C1465 C 0.65216 0.17207 0.82716 0.0
C1466 C 0.66978 0.17287 0.81593 0.0
C1467 C 0.66656 0.15236 0.8074 0.0
C1468 C 0.64573 0.13097 0.81012 0.0
C1469 C 0.62804 0.13007 0.82132 0.0
H1470 H 0.68022 0.15302 0.7987 0.0
H1471 H 0.51775 0.15155 0.91458 0.0
H1472 H 0.4735 0.57809 0.10133 0.0
H1473 H 0.45781 0.58978 0.07494 0.0
H1474 H 0.47038 0.54631 0.03691 0.0
H1475 H 0.48736 0.53587 0.06312 0.0
H1476 H 0.4832 0.58421 0.02022 0.0
H1477 H 0.41281 0.53177 0.05397 0.0
H1478 H 0.38735 0.5166 0.08214 0.0
H1479 H 0.39001 0.58247 0.08806 0.0
H1480 H 0.41561 0.59809 0.06 0.0
H1481 H 0.39079 0.58919 0.95753 0.0
H1482 H 0.3993 0.57236 0.98522 0.0
H1483 H 0.4644 0.63761 0.99325 0.0
H1484 H 0.45626 0.65442 0.96577 0.0
H1485 H 0.40927 0.58447 0.02355 0.0
H1486 H 0.50627 0.62532 0.00242 0.0
H1487 H 0.53037 0.63762 0.97341 0.0
H1488 H 0.47113 0.58816 0.94056 0.0
H1489 H 0.44678 0.57533 0.96939 0.0
C1490 C 0.47279 0.57104 0.08731 0.0
C1491 C 0.48163 0.55615 0.08416 0.0
C1492 C 0.46364 0.57753 0.07225 0.0
C1493 C 0.46246 0.56864 0.05388 0.0
C1494 C 0.47107 0.55348 0.05088 0.0
C1495 C 0.48074 0.54748 0.06583 0.0
C1496 C 0.45341 0.576 0.03759 0.0
C1497 C 0.46696 0.58409 0.02101 0.0
C1498 C 0.43204 0.57566 0.03834 0.0
C1499 C 0.41622 0.56613 0.05495 0.0
C1500 C 0.408 0.54303 0.06131 0.0
C1501 C 0.39354 0.53435 0.07725 0.0
C1502 C 0.38709 0.54857 0.08689 0.0
C1503 C 0.395 0.57147 0.08056 0.0
C1504 C 0.40944 0.58022 0.06461 0.0
C1505 C 0.4068 0.60003 0.96531 0.0
C1506 C 0.42298 0.62306 0.9592 0.0
C1507 C 0.4116 0.5904 0.98116 0.0
C1508 C 0.43265 0.60362 0.99111 0.0
C1509 C 0.44822 0.62695 0.98561 0.0
C1510 C 0.44351 0.63653 0.96983 0.0
C1511 C 0.43927 0.59286 0.00651 0.0
C1512 C 0.42536 0.58428 0.02284 0.0
C1513 C 0.46004 0.5922 0.00543 0.0
C1514 C 0.47467 0.59953 0.98805 0.0
C1515 C 0.49842 0.61699 0.98902 0.0
C1516 C 0.51212 0.62407 0.9726 0.0
C1517 C 0.50227 0.61373 0.95515 0.0
C1518 C 0.47872 0.59622 0.95407 0.0
C1519 C 0.46496 0.58906 0.97044 0.0
H1520 H 0.5129 0.61925 0.94245 0.0
H1521 H 0.37594 0.54184 0.09925 0.0
H1522 H 0.90464 0.48516 0.26657 0.0
H1523 H 0.87782 0.47161 0.23966 0.0
H1524 H 0.92748 0.46378 0.20628 0.0
H1525 H 0.95486 0.47851 0.23273 0.0
H1526 H 0.90881 0.48181 0.18508 0.0
H1527 H 0.87912 0.41616 0.22782 0.0
H1528 H 0.86474 0.39528 0.2583 0.0
H1529 H 0.80822 0.40837 0.25752 0.0
H1530 H 0.82246 0.42961 0.22713 0.0
H1531 H 0.83464 0.38986 0.12103 0.0
H1532 H 0.8597 0.41198 0.14775 0.0
H1533 H 0.81403 0.43776 0.16159 0.0
H1534 H 0.78905 0.41609 0.13436 0.0
H1535 H 0.82831 0.41376 0.1928 0.0
H1536 H 0.85791 0.47653 0.14696 0.0
H1537 H 0.87277 0.49444 0.11556 0.0
H1538 H 0.93027 0.48333 0.12147 0.0
H1539 H 0.91553 0.46499 0.15279 0.0
C1540 C 0.91003 0.48089 0.25342 0.0
C1541 C 0.93193 0.48283 0.25191 0.0
C1542 C 0.89453 0.47288 0.23809 0.0
C1543 C 0.90045 0.46632 0.22098 0.0
C1544 C 0.92244 0.46864 0.21933 0.0
C1545 C 0.93801 0.47682 0.23458 0.0
C1546 C 0.88371 0.45673 0.20486 0.0
C1547 C 0.89125 0.46687 0.18681 0.0
C1548 C 0.86061 0.43746 0.20707 0.0
C1549 C 0.85202 0.42473 0.22533 0.0
C1550 C 0.86374 0.41476 0.23423 0.0
C1551 C 0.8556 0.40283 0.25147 0.0
C1552 C 0.83563 0.40058 0.25987 0.0
C1553 C 0.82372 0.41018 0.25102 0.0
C1554 C 0.83181 0.42216 0.23378 0.0
C1555 C 0.82997 0.40034 0.12967 0.0
C1556 C 0.80986 0.40123 0.12564 0.0
C1557 C 0.84434 0.413 0.14489 0.0
C1558 C 0.83867 0.42644 0.15659 0.0
C1559 C 0.81864 0.42746 0.15266 0.0
C1560 C 0.80449 0.41519 0.1371 0.0
C1561 C 0.85356 0.43876 0.17319 0.0
C1562 C 0.84573 0.429 0.19125 0.0
C1563 C 0.8765 0.45808 0.17095 0.0
C1564 C 0.88548 0.46918 0.15215 0.0
C1565 C 0.87359 0.47769 0.14149 0.0
C1566 C 0.88202 0.48797 0.12372 0.0
C1567 C 0.90242 0.48997 0.1165 0.0
C1568 C 0.91445 0.48175 0.12707 0.0
C1569 C 0.90608 0.47143 0.14484 0.0
H1570 H 0.90892 0.49794 0.10275 0.0
H1571 H 0.82935 0.39132 0.27322 0.0
loop_
_geom_bond_atom_site_label_1
_geom_bond_atom_site_label_2
_geom_bond_distance
_geom_bond_site_symmetry_2
_ccdc_geom_bond_type
H0 C19 0.949 . S
H1 C20 0.950 . S
H2 C22 0.950 . S
H3 C23 0.950 . S
H4 C25 0.950 . S
H5 C28 0.950 . S
H6 C29 0.950 . S
H7 C31 0.951 . S
H8 C32 0.949 . S
H9 C34 0.949 . S
H10 C35 0.950 . S
H11 C37 0.950 . S
H12 C38 0.950 . S
H13 C40 0.950 1_655 S
H14 C43 0.950 . S
H15 C44 0.950 . S
H16 C46 0.951 . S
H17 C47 0.949 . S
C18 C19 1.376 . S
C18 C23 1.386 . S
C18 C24 1.483 . S
C19 H0 0.949 . S
C19 C18 1.376 . S
C19 C20 1.397 . S
C20 H1 0.950 . S
C20 C19 1.397 . S
C20 C21 1.391 . S
C21 C20 1.391 . S
C21 C22 1.405 . S
C22 H2 0.950 . S
C22 C21 1.405 . S
C22 C23 1.367 . S
C23 H3 0.950 . S
C23 C18 1.386 . S
C23 C22 1.367 . S
C24 C18 1.483 . S
C24 C25 1.382 1_655 S
C24 C26 1.403 . S
C25 H4 0.950 . S
C25 C24 1.382 1_455 S
C25 C41 1.411 . S
C26 C24 1.403 . S
C26 C27 1.489 . S
C26 C40 1.411 1_655 S
C27 C26 1.489 . S
C27 C28 1.383 . S
C27 C32 1.382 . S
C28 H5 0.950 . S
C28 C27 1.383 . S
C28 C29 1.395 . S
C29 H6 0.950 . S
C29 C28 1.395 . S
C29 C30 1.288 . S
C30 C29 1.288 . S
C30 C31 1.392 . S
C31 H7 0.951 . S
C31 C30 1.392 . S
C31 C32 1.392 . S
C32 H8 0.949 . S
C32 C27 1.382 . S
C32 C31 1.392 . S
C33 C34 1.376 . S
C33 C38 1.386 . S
C33 C39 1.483 . S
C34 H9 0.949 . S
C34 C33 1.376 . S
C34 C35 1.397 . S
C35 H10 0.950 . S
C35 C34 1.397 . S
C35 C36 1.391 . S
C36 C35 1.391 . S
C36 C37 1.405 . S
C37 H11 0.950 . S
C37 C36 1.405 . S
C37 C38 1.367 . S
C38 H12 0.950 . S
C38 C33 1.386 . S
C38 C37 1.367 . S
C39 C33 1.483 . S
C39 C40 1.382 . S
C39 C41 1.403 . S
C40 H13 0.950 1_455 S
C40 C26 1.411 1_455 S
C40 C39 1.382 . S
C41 C25 1.411 . S
C41 C39 1.403 . S
C41 C42 1.489 . S
C42 C41 1.489 . S
C42 C43 1.383 . S
C42 C47 1.382 . S
C43 H14 0.950 . S
C43 C42 1.383 . S
C43 C44 1.395 . S
C44 H15 0.950 . S
C44 C43 1.395 . S
C44 C45 1.288 . S
C45 C44 1.288 . S
C45 C46 1.392 . S
C46 H16 0.951 . S
C46 C45 1.392 . S
C46 C47 1.392 . S
C47 H17 0.949 . S
C47 C42 1.382 . S
C47 C46 1.392 . S
H48 C67 0.949 . S
H49 C68 0.950 . S
H50 C70 0.950 . S
H51 C71 0.950 . S
H52 C73 0.950 . S
H53 C76 0.950 . S
H54 C77 0.950 . S
H55 C79 0.951 . S
H56 C80 0.949 . S
H57 C82 0.949 . S
H58 C83 0.950 . S
H59 C85 0.950 . S
H60 C86 0.950 . S
H61 C88 0.950 . S
H62 C91 0.950 . S
H63 C92 0.950 . S
H64 C94 0.951 . S
H65 C95 0.949 . S
C66 C67 1.376 . S
C66 C71 1.386 . S
C66 C72 1.483 . S
C67 H48 0.949 . S
C67 C66 1.376 . S
C67 C68 1.397 . S
C68 H49 0.950 . S
C68 C67 1.397 . S
C68 C69 1.391 . S
C69 C68 1.391 . S
C69 C70 1.405 . S
C70 H50 0.950 . S
C70 C69 1.405 . S
C70 C71 1.367 . S
C71 H51 0.950 . S
C71 C66 1.386 . S
C71 C70 1.367 . S
C72 C66 1.483 . S
C72 C73 1.382 . S
C72 C74 1.403 . S
C73 H52 0.950 . S
C73 C72 1.382 . S
C73 C89 1.411 1_565 S
C74 C72 1.403 . S
C74 C75 1.489 . S
C74 C88 1.411 1_565 S
C75 C74 1.489 . S
C75 C76 1.383 . S
C75 C80 1.382 . S
C76 H53 0.950 . S
C76 C75 1.383 . S
C76 C77 1.395 . S
C77 H54 0.950 . S
C77 C76 1.395 . S
C77 C78 1.288 . S
C78 C77 1.288 . S
C78 C79 1.392 . S
C79 H55 0.951 . S
C79 C78 1.392 . S
C79 C80 1.392 . S
C80 H56 0.949 . S
C80 C75 1.382 . S
C80 C79 1.392 . S
C81 C82 1.376 . S
C81 C86 1.386 . S
C81 C87 1.483 . S
C82 H57 0.949 . S
C82 C81 1.376 . S
C82 C83 1.397 . S
C83 H58 0.950 . S
C83 C82 1.397 . S
C83 C84 1.391 . S
C84 C83 1.391 . S
C84 C85 1.405 . S
C85 H59 0.950 . S
C85 C84 1.405 . S
C85 C86 1.367 . S
C86 H60 0.950 . S
C86 C81 1.386 . S
C86 C85 1.367 . S
C87 C81 1.483 . S
C87 C88 1.382 . S
C87 C89 1.403 . S
C88 H61 0.950 . S
C88 C74 1.411 1_545 S
C88 C87 1.382 . S
C89 C73 1.411 1_545 S
C89 C87 1.403 . S
C89 C90 1.489 . S
C90 C89 1.489 . S
C90 C91 1.383 . S
C90 C95 1.382 . S
C91 H62 0.950 . S
C91 C90 1.383 . S
C91 C92 1.395 . S
C92 H63 0.950 . S
C92 C91 1.395 . S
C92 C93 1.288 . S
C93 C92 1.288 . S
C93 C94 1.392 . S
C94 H64 0.951 . S
C94 C93 1.392 . S
C94 C95 1.392 . S
C95 H65 0.949 . S
C95 C90 1.382 . S
C95 C94 1.392 . S
H96 C115 0.949 . S
H97 C116 0.950 . S
H98 C118 0.950 . S
H99 C119 0.950 . S
H100 C121 0.950 . S
H101 C124 0.950 . S
H102 C125 0.950 . S
H103 C127 0.951 . S
H104 C128 0.949 . S
H105 C130 0.949 . S
H106 C131 0.950 . S
H107 C133 0.950 . S
H108 C134 0.950 . S
H109 C136 0.950 . S
H110 C139 0.950 . S
H111 C140 0.950 . S
H112 C142 0.951 . S
H113 C143 0.949 . S
C114 C115 1.376 . S
C114 C119 1.386 . S
C114 C120 1.483 . S
C115 H96 0.949 . S
C115 C114 1.376 . S
C115 C116 1.397 . S
C116 H97 0.950 . S
C116 C115 1.397 . S
C116 C117 1.391 . S
C117 C116 1.391 . S
C117 C118 1.405 . S
C118 H98 0.950 . S
C118 C117 1.405 . S
C118 C119 1.367 . S
C119 H99 0.950 . S
C119 C114 1.386 . S
C119 C118 1.367 . S
C120 C114 1.483 . S
C120 C121 1.382 . S
C120 C122 1.403 . S
C121 H100 0.950 . S
C121 C120 1.382 . S
C121 C137 1.411 . S
C122 C120 1.403 . S
C122 C123 1.489 . S
C122 C136 1.411 . S
C123 C122 1.489 . S
C123 C124 1.383 . S
C123 C128 1.382 . S
C124 H101 0.950 . S
C124 C123 1.383 . S
C124 C125 1.395 . S
C125 H102 0.950 . S
C125 C124 1.395 . S
C125 C126 1.288 . S
C126 C125 1.288 . S
C126 C127 1.392 . S
C127 H103 0.951 . S
C127 C126 1.392 . S
C127 C128 1.392 . S
C128 H104 0.949 . S
C128 C123 1.382 . S
C128 C127 1.392 . S
C129 C130 1.376 . S
C129 C134 1.386 . S
C129 C135 1.483 . S
C130 H105 0.949 . S
C130 C129 1.376 . S
C130 C131 1.397 . S
C131 H106 0.950 . S
C131 C130 1.397 . S
C131 C132 1.391 . S
C132 C131 1.391 . S
C132 C133 1.405 . S
C133 H107 0.950 . S
C133 C132 1.405 . S
C133 C134 1.367 . S
C134 H108 0.950 . S
C134 C129 1.386 . S
C134 C133 1.367 . S
C135 C129 1.483 . S
C135 C136 1.382 . S
C135 C137 1.403 . S
C136 H109 0.950 . S
C136 C122 1.411 . S
C136 C135 1.382 . S
C137 C121 1.411 . S
C137 C135 1.403 . S
C137 C138 1.489 . S
C138 C137 1.489 . S
C138 C139 1.383 . S
C138 C143 1.382 . S
C139 H110 0.950 . S
C139 C138 1.383 . S
C139 C140 1.395 . S
C140 H111 0.950 . S
C140 C139 1.395 . S
C140 C141 1.288 . S
C141 C140 1.288 . S
C141 C142 1.392 . S
C142 H112 0.951 . S
C142 C141 1.392 . S
C142 C143 1.392 . S
C143 H113 0.949 . S
C143 C138 1.382 . S
C143 C142 1.392 . S
H144 C163 0.949 . S
H145 C164 0.950 . S
H146 C166 0.950 . S
H147 C167 0.950 . S
H148 C169 0.950 1_655 S
H149 C172 0.950 . S
H150 C173 0.950 . S
H151 C175 0.951 . S
H152 C176 0.949 . S
H153 C178 0.949 . S
H154 C179 0.950 . S
H155 C181 0.950 . S
H156 C182 0.950 . S
H157 C184 0.950 . S
H158 C187 0.950 . S
H159 C188 0.950 . S
H160 C190 0.951 . S
H161 C191 0.949 . S
C162 C163 1.376 . S
C162 C167 1.386 . S
C162 C168 1.483 . S
C163 H144 0.949 . S
C163 C162 1.376 . S
C163 C164 1.397 . S
C164 H145 0.950 . S
C164 C163 1.397 . S
C164 C165 1.391 . S
C165 C164 1.391 . S
C165 C166 1.405 . S
C166 H146 0.950 . S
C166 C165 1.405 . S
C166 C167 1.367 . S
C167 H147 0.950 . S
C167 C162 1.386 . S
C167 C166 1.367 . S
C168 C162 1.483 . S
C168 C169 1.382 . S
C168 C170 1.403 . S
C169 H148 0.950 1_455 S
C169 C168 1.382 . S
C169 C185 1.411 1_455 S
C170 C168 1.403 . S
C170 C171 1.489 . S
C170 C184 1.411 . S
C171 C170 1.489 . S
C171 C172 1.383 . S
C171 C176 1.382 . S
C172 H149 0.950 . S
C172 C171 1.383 . S
C172 C173 1.395 . S
C173 H150 0.950 . S
C173 C172 1.395 . S
C173 C174 1.288 . S
C174 C173 1.288 . S
C174 C175 1.392 . S
C175 H151 0.951 . S
C175 C174 1.392 . S
C175 C176 1.392 . S
C176 H152 0.949 . S
C176 C171 1.382 . S
C176 C175 1.392 . S
C177 C178 1.376 . S
C177 C182 1.386 . S
C177 C183 1.483 . S
C178 H153 0.949 . S
C178 C177 1.376 . S
C178 C179 1.397 . S
C179 H154 0.950 . S
C179 C178 1.397 . S
C179 C180 1.391 . S
C180 C179 1.391 . S
C180 C181 1.405 . S
C181 H155 0.950 . S
C181 C180 1.405 . S
C181 C182 1.367 . S
C182 H156 0.950 . S
C182 C177 1.386 . S
C182 C181 1.367 . S
C183 C177 1.483 . S
C183 C184 1.382 1_655 S
C183 C185 1.403 . S
C184 H157 0.950 . S
C184 C170 1.411 . S
C184 C183 1.382 1_455 S
C185 C169 1.411 1_655 S
C185 C183 1.403 . S
C185 C186 1.489 . S
C186 C185 1.489 . S
C186 C187 1.383 . S
C186 C191 1.382 . S
C187 H158 0.950 . S
C187 C186 1.383 . S
C187 C188 1.395 . S
C188 H159 0.950 . S
C188 C187 1.395 . S
C188 C189 1.288 . S
C189 C188 1.288 . S
C189 C190 1.392 . S
C190 H160 0.951 . S
C190 C189 1.392 . S
C190 C191 1.392 . S
C191 H161 0.949 . S
C191 C186 1.382 . S
C191 C190 1.392 . S
H192 C211 0.949 . S
H193 C212 0.950 . S
H194 C214 0.950 . S
H195 C215 0.975 . S
H196 C217 0.950 . S
H197 C220 0.950 . S
H198 C221 0.950 . S
H199 C223 0.951 . S
H200 C224 0.949 . S
H201 C226 0.949 . S
H202 C227 0.950 . S
H203 C229 0.950 . S
H204 C230 0.950 . S
H205 C232 0.950 . S
H206 C235 0.950 . S
H207 C236 0.950 . S
H208 C238 0.951 . S
H209 C239 0.949 . S
C210 C211 1.376 . S
C210 C215 1.377 1_554 S
C210 C216 1.483 1_554 S
C211 H192 0.949 . S
C211 C210 1.376 . S
C211 C212 1.397 . S
C212 H193 0.950 . S
C212 C211 1.397 . S
C212 C213 1.391 . S
C213 C212 1.391 . S
C213 C214 1.405 . S
C214 H194 0.950 . S
C214 C213 1.405 . S
C214 C215 1.354 1_554 S
C215 H195 0.975 . S
C215 C210 1.377 1_556 S
C215 C214 1.354 1_556 S
C216 C210 1.483 1_556 S
C216 C217 1.382 1_556 S
C216 C218 1.403 . S
C217 H196 0.950 . S
C217 C216 1.382 1_554 S
C217 C233 1.411 1_545 S
C218 C216 1.403 . S
C218 C219 1.489 . S
C218 C232 1.411 1_545 S
C219 C218 1.489 . S
C219 C220 1.383 . S
C219 C224 1.382 . S
C220 H197 0.950 . S
C220 C219 1.383 . S
C220 C221 1.395 . S
C221 H198 0.950 . S
C221 C220 1.395 . S
C221 C222 1.288 . S
C222 C221 1.288 . S
C222 C223 1.392 . S
C223 H199 0.951 . S
C223 C222 1.392 . S
C223 C224 1.392 . S
C224 H200 0.949 . S
C224 C219 1.382 . S
C224 C223 1.392 . S
C225 C226 1.376 . S
C225 C230 1.386 . S
C225 C231 1.483 . S
C226 H201 0.949 . S
C226 C225 1.376 . S
C226 C227 1.397 . S
C227 H202 0.950 . S
C227 C226 1.397 . S
C227 C228 1.391 . S
C228 C227 1.391 . S
C228 C229 1.405 . S
C229 H203 0.950 . S
C229 C228 1.405 . S
C229 C230 1.367 . S
C230 H204 0.950 . S
C230 C225 1.386 . S
C230 C229 1.367 . S
C231 C225 1.483 . S
C231 C232 1.382 . S
C231 C233 1.403 1_556 S
C232 H205 0.950 . S
C232 C218 1.411 1_565 S
C232 C231 1.382 . S
C233 C217 1.411 1_565 S
C233 C231 1.403 1_554 S
C233 C234 1.489 . S
C234 C233 1.489 . S
C234 C235 1.383 . S
C234 C239 1.382 . S
C235 H206 0.950 . S
C235 C234 1.383 . S
C235 C236 1.395 . S
C236 H207 0.950 . S
C236 C235 1.395 . S
C236 C237 1.288 . S
C237 C236 1.288 . S
C237 C238 1.392 . S
C238 H208 0.951 . S
C238 C237 1.392 . S
C238 C239 1.392 . S
C239 H209 0.949 . S
C239 C234 1.382 . S
C239 C238 1.392 . S
H240 C259 0.949 . S
H241 C260 0.950 . S
H242 C262 0.950 . S
H243 C263 0.950 . S
H244 C265 0.950 . S
H245 C268 0.950 . S
H246 C269 0.950 . S
H247 C271 0.951 . S
H248 C272 0.949 . S
H249 C274 0.949 . S
H250 C275 0.950 . S
H251 C277 0.950 . S
H252 C278 0.950 . S
H253 C280 0.950 . S
H254 C283 0.950 . S
H255 C284 0.950 . S
H256 C286 0.951 . S
H257 C287 0.949 . S
C258 C259 1.376 . S
C258 C263 1.386 . S
C258 C264 1.483 . S
C259 H240 0.949 . S
C259 C258 1.376 . S
C259 C260 1.397 . S
C260 H241 0.950 . S
C260 C259 1.397 . S
C260 C261 1.391 . S
C261 C260 1.391 . S
C261 C262 1.405 . S
C262 H242 0.950 . S
C262 C261 1.405 . S
C262 C263 1.367 . S
C263 H243 0.950 . S
C263 C258 1.386 . S
C263 C262 1.367 . S
C264 C258 1.483 . S
C264 C265 1.382 . S
C264 C266 1.403 . S
C265 H244 0.950 . S
C265 C264 1.382 . S
C265 C281 1.411 . S
C266 C264 1.403 . S
C266 C267 1.489 . S
C266 C280 1.411 . S
C267 C266 1.489 . S
C267 C268 1.383 . S
C267 C272 1.382 . S
C268 H245 0.950 . S
C268 C267 1.383 . S
C268 C269 1.395 . S
C269 H246 0.950 . S
C269 C268 1.395 . S
C269 C270 1.288 . S
C270 C269 1.288 . S
C270 C271 1.392 . S
C271 H247 0.951 . S
C271 C270 1.392 . S
C271 C272 1.392 . S
C272 H248 0.949 . S
C272 C267 1.382 . S
C272 C271 1.392 . S
C273 C274 1.376 . S
C273 C278 1.386 . S
C273 C279 1.483 . S
C274 H249 0.949 . S
C274 C273 1.376 . S
C274 C275 1.397 . S
C275 H250 0.950 . S
C275 C274 1.397 . S
C275 C276 1.391 . S
C276 C275 1.391 . S
C276 C277 1.405 . S
C277 H251 0.950 . S
C277 C276 1.405 . S
C277 C278 1.367 . S
C278 H252 0.950 . S
C278 C273 1.386 . S
C278 C277 1.367 . S
C279 C273 1.483 . S
C279 C280 1.382 . S
C279 C281 1.403 . S
C280 H253 0.950 . S
C280 C266 1.411 . S
C280 C279 1.382 . S
C281 C265 1.411 . S
C281 C279 1.403 . S
C281 C282 1.489 . S
C282 C281 1.489 . S
C282 C283 1.383 . S
C282 C287 1.382 . S
C283 H254 0.950 . S
C283 C282 1.383 . S
C283 C284 1.395 . S
C284 H255 0.950 . S
C284 C283 1.395 . S
C284 C285 1.288 . S
C285 C284 1.288 . S
C285 C286 1.392 . S
C286 H256 0.951 . S
C286 C285 1.392 . S
C286 C287 1.392 . S
C287 H257 0.949 . S
C287 C282 1.382 . S
C287 C286 1.392 . S
Co288 O289 2.216 . S
Co288 O290 2.091 . S
Co288 O292 2.004 . S
Co288 O298 2.021 . S
Co288 O300 2.137 . S
Co288 O301 2.244 . S
O289 Co288 2.216 . S
O289 C296 1.247 . S
O290 Co288 2.091 . S
O290 C296 1.261 . S
C291 O300 1.247 . S
C291 O301 1.272 . S
O292 Co288 2.004 . S
O292 C297 1.259 . S
Co293 O294 2.061 . S
Co293 O299 2.052 . S
Co293 O301 2.135 . S
O294 Co293 2.061 . S
O294 C297 1.235 . S
C295 O298 1.238 . S
C295 O299 1.241 . S
C296 O289 1.247 . S
C296 O290 1.261 . S
C297 O292 1.259 . S
C297 O294 1.235 . S
O298 Co288 2.021 . S
O298 C295 1.238 . S
O299 Co293 2.052 . S
O299 C295 1.241 . S
O300 Co288 2.137 . S
O300 C291 1.247 . S
O301 Co288 2.244 . S
O301 C291 1.272 . S
O301 Co293 2.135 . S
Co302 O303 2.216 . S
Co302 O304 2.091 . S
Co302 O306 2.004 . S
Co302 O312 2.021 . S
Co302 O314 2.137 . S
Co302 O315 2.244 . S
O303 Co302 2.216 . S
O303 C310 1.247 . S
O304 Co302 2.091 . S
O304 C310 1.261 . S
C305 O314 1.247 . S
C305 O315 1.272 . S
O306 Co302 2.004 . S
O306 C311 1.259 . S
Co307 O308 2.061 . S
Co307 O313 2.052 . S
Co307 O315 2.135 . S
O308 Co307 2.061 . S
O308 C311 1.235 . S
C309 O312 1.238 . S
C309 O313 1.241 . S
C310 O303 1.247 . S
C310 O304 1.261 . S
C311 O306 1.259 . S
C311 O308 1.235 . S
O312 Co302 2.021 . S
O312 C309 1.238 . S
O313 Co307 2.052 . S
O313 C309 1.241 . S
O314 Co302 2.137 . S
O314 C305 1.247 . S
O315 Co302 2.244 . S
O315 C305 1.272 . S
O315 Co307 2.135 . S
Co316 O317 2.216 . S
Co316 O318 2.091 . S
Co316 O320 2.004 . S
Co316 O326 2.021 . S
Co316 O328 2.137 . S
Co316 O329 2.244 . S
O317 Co316 2.216 . S
O317 C324 1.247 . S
O318 Co316 2.091 . S
O318 C324 1.261 . S
C319 O328 1.247 . S
C319 O329 1.272 . S
O320 Co316 2.004 . S
O320 C325 1.259 . S
Co321 O322 2.061 . S
Co321 O327 2.052 . S
Co321 O329 2.135 . S
O322 Co321 2.061 . S
O322 C325 1.235 . S
C323 O326 1.238 . S
C323 O327 1.241 . S
C324 O317 1.247 . S
C324 O318 1.261 . S
C325 O320 1.259 . S
C325 O322 1.235 . S
O326 Co316 2.021 . S
O326 C323 1.238 . S
O327 Co321 2.052 . S
O327 C323 1.241 . S
O328 Co316 2.137 . S
O328 C319 1.247 . S
O329 Co316 2.244 . S
O329 C319 1.272 . S
O329 Co321 2.135 . S
Co330 O331 2.216 . S
Co330 O332 2.091 . S
Co330 O334 2.004 . S
Co330 O340 2.021 . S
Co330 O342 2.137 . S
Co330 O343 2.244 . S
O331 Co330 2.216 . S
O331 C338 1.247 . S
O332 Co330 2.091 . S
O332 C338 1.261 . S
C333 O342 1.247 . S
C333 O343 1.272 . S
O334 Co330 2.004 . S
O334 C339 1.259 . S
Co335 O336 2.061 . S
Co335 O341 2.052 . S
Co335 O343 2.135 . S
O336 Co335 2.061 . S
O336 C339 1.235 . S
C337 O340 1.238 . S
C337 O341 1.241 . S
C338 O331 1.247 . S
C338 O332 1.261 . S
C339 O334 1.259 . S
C339 O336 1.235 . S
O340 Co330 2.021 . S
O340 C337 1.238 . S
O341 Co335 2.052 . S
O341 C337 1.241 . S
O342 Co330 2.137 . S
O342 C333 1.247 . S
O343 Co330 2.244 . S
O343 C333 1.272 . S
O343 Co335 2.135 . S
Co344 O345 2.216 . S
Co344 O346 2.091 . S
Co344 O348 2.004 . S
Co344 O354 2.021 . S
Co344 O356 2.137 . S
Co344 O357 2.244 . S
O345 Co344 2.216 . S
O345 C352 1.247 . S
O346 Co344 2.091 . S
O346 C352 1.261 . S
C347 O356 1.247 . S
C347 O357 1.272 . S
O348 Co344 2.004 . S
O348 C353 1.259 . S
Co349 O350 2.061 . S
Co349 O355 2.052 . S
Co349 O357 2.135 . S
O350 Co349 2.061 . S
O350 C353 1.235 . S
C351 O354 1.238 . S
C351 O355 1.241 . S
C352 O345 1.247 . S
C352 O346 1.261 . S
C353 O348 1.259 . S
C353 O350 1.235 . S
O354 Co344 2.021 . S
O354 C351 1.238 . S
O355 Co349 2.052 . S
O355 C351 1.241 . S
O356 Co344 2.137 . S
O356 C347 1.247 . S
O357 Co344 2.244 . S
O357 C347 1.272 . S
O357 Co349 2.135 . S
Co358 O359 2.216 . S
Co358 O360 2.091 . S
Co358 O362 2.004 . S
Co358 O368 2.021 . S
Co358 O370 2.137 . S
Co358 O371 2.244 . S
O359 Co358 2.216 . S
O359 C366 1.247 . S
O360 Co358 2.091 . S
O360 C366 1.261 . S
C361 O370 1.247 . S
C361 O371 1.272 . S
O362 Co358 2.004 . S
O362 C367 1.259 . S
Co363 O364 2.061 . S
Co363 O369 2.052 . S
Co363 O371 2.135 . S
O364 Co363 2.061 . S
O364 C367 1.235 . S
C365 O368 1.238 . S
C365 O369 1.241 . S
C366 O359 1.247 . S
C366 O360 1.261 . S
C367 O362 1.259 . S
C367 O364 1.235 . S
O368 Co358 2.021 . S
O368 C365 1.238 . S
O369 Co363 2.052 . S
O369 C365 1.241 . S
O370 Co358 2.137 . S
O370 C361 1.247 . S
O371 Co358 2.244 . S
O371 C361 1.272 . S
O371 Co363 2.135 . S
H372 C390 0.951 . S
H373 C392 0.951 . S
H374 C394 0.950 . S
H375 C395 0.950 . S
H376 C397 0.950 . S
H377 C400 0.950 . S
H378 C401 0.950 . S
H379 C403 0.950 . S
H380 C404 0.950 . S
H381 C405 0.951 . S
H382 C407 0.951 . S
H383 C409 0.950 . S
H384 C410 0.950 . S
H385 C412 0.950 . S
H386 C415 0.950 . S
H387 C416 0.950 . S
H388 C418 0.950 . S
H389 C419 0.950 . S
C390 H372 0.951 . S
C390 C391 1.366 . S
C390 C392 1.388 . S
C391 C390 1.366 . S
C391 C395 1.385 . S
C392 H373 0.951 . S
C392 C390 1.388 . S
C392 C393 1.366 . S
C393 C392 1.366 . S
C393 C394 1.414 . S
C393 C396 1.499 . S
C394 H374 0.950 . S
C394 C393 1.414 . S
C394 C395 1.374 . S
C395 H375 0.950 . S
C395 C391 1.385 . S
C395 C394 1.374 . S
C396 C393 1.499 . S
C396 C397 1.373 . S
C396 C398 1.389 . S
C397 H376 0.950 . S
C397 C396 1.373 . S
C397 C413 1.377 . S
C398 C396 1.389 . S
C398 C399 1.524 . S
C398 C412 1.377 . S
C399 C398 1.524 . S
C399 C400 1.397 . S
C399 C404 1.363 . S
C400 H377 0.950 . S
C400 C399 1.397 . S
C400 C401 1.334 . S
C401 H378 0.950 . S
C401 C400 1.334 . S
C401 C402 1.287 . S
C402 C401 1.287 . S
C402 C403 1.524 . S
C402 H421 0.913 . S
C403 H379 0.950 . S
C403 C402 1.524 . S
C403 C404 1.415 . S
C404 H380 0.950 . S
C404 C399 1.363 . S
C404 C403 1.415 . S
C405 H381 0.951 . S
C405 C406 1.366 . S
C405 C407 1.388 . S
C406 C405 1.366 . S
C406 C410 1.385 . S
C407 H382 0.951 . S
C407 C405 1.388 . S
C407 C408 1.366 . S
C408 C407 1.366 . S
C408 C409 1.414 . S
C408 C411 1.499 . S
C409 H383 0.950 . S
C409 C408 1.414 . S
C409 C410 1.374 . S
C410 H384 0.950 . S
C410 C406 1.385 . S
C410 C409 1.374 . S
C411 C408 1.499 . S
C411 C412 1.373 . S
C411 C413 1.389 . S
C412 H385 0.950 . S
C412 C398 1.377 . S
C412 C411 1.373 . S
C413 C397 1.377 . S
C413 C411 1.389 . S
C413 C414 1.524 . S
C414 C413 1.524 . S
C414 C415 1.397 . S
C414 C419 1.363 . S
C415 H386 0.950 . S
C415 C414 1.397 . S
C415 C416 1.334 . S
C416 H387 0.950 . S
C416 C415 1.334 . S
C416 C417 1.287 . S
C417 C416 1.287 . S
C417 C418 1.524 . S
C417 H420 0.999 . S
C418 H388 0.950 . S
C418 C417 1.524 . S
C418 C419 1.415 . S
C419 H389 0.950 . S
C419 C414 1.363 . S
C419 C418 1.415 . S
H420 C417 0.999 . S
H421 C402 0.913 . S
H422 C440 0.951 . S
H423 C442 0.951 . S
H424 C444 0.950 . S
H425 C445 0.950 . S
H426 C447 0.950 . S
H427 C450 0.950 . S
H428 C451 0.950 . S
H429 C453 0.950 . S
H430 C454 0.950 . S
H431 C455 0.951 . S
H432 C457 0.951 . S
H433 C459 0.950 . S
H434 C460 0.950 . S
H435 C462 0.950 . S
H436 C465 0.950 . S
H437 C466 0.950 . S
H438 C468 0.950 . S
H439 C469 0.950 . S
C440 H422 0.951 . S
C440 C441 1.366 . S
C440 C442 1.388 . S
C441 C440 1.366 . S
C441 C445 1.385 . S
C442 H423 0.951 . S
C442 C440 1.388 . S
C442 C443 1.366 . S
C443 C442 1.366 . S
C443 C444 1.414 . S
C443 C446 1.499 . S
C444 H424 0.950 . S
C444 C443 1.414 . S
C444 C445 1.374 . S
C445 H425 0.950 . S
C445 C441 1.385 . S
C445 C444 1.374 . S
C446 C443 1.499 . S
C446 C447 1.373 . S
C446 C448 1.389 . S
C447 H426 0.950 . S
C447 C446 1.373 . S
C447 C463 1.377 . S
C448 C446 1.389 . S
C448 C449 1.524 . S
C448 C462 1.377 . S
C449 C448 1.524 . S
C449 C450 1.397 . S
C449 C454 1.363 . S
C450 H427 0.950 . S
C450 C449 1.397 . S
C450 C451 1.334 . S
C451 H428 0.950 . S
C451 C450 1.334 . S
C451 C452 1.287 . S
C452 C451 1.287 . S
C452 C453 1.524 . S
C452 H471 0.913 . S
C453 H429 0.950 . S
C453 C452 1.524 . S
C453 C454 1.415 . S
C454 H430 0.950 . S
C454 C449 1.363 . S
C454 C453 1.415 . S
C455 H431 0.951 . S
C455 C456 1.366 . S
C455 C457 1.388 . S
C456 C455 1.366 . S
C456 C460 1.385 . S
C457 H432 0.951 . S
C457 C455 1.388 . S
C457 C458 1.366 . S
C458 C457 1.366 . S
C458 C459 1.414 . S
C458 C461 1.499 . S
C459 H433 0.950 . S
C459 C458 1.414 . S
C459 C460 1.374 . S
C460 H434 0.950 . S
C460 C456 1.385 . S
C460 C459 1.374 . S
C461 C458 1.499 . S
C461 C462 1.373 . S
C461 C463 1.389 . S
C462 H435 0.950 . S
C462 C448 1.377 . S
C462 C461 1.373 . S
C463 C447 1.377 . S
C463 C461 1.389 . S
C463 C464 1.524 . S
C464 C463 1.524 . S
C464 C465 1.397 . S
C464 C469 1.363 . S
C465 H436 0.950 . S
C465 C464 1.397 . S
C465 C466 1.334 . S
C466 H437 0.950 . S
C466 C465 1.334 . S
C466 C467 1.287 . S
C467 C466 1.287 . S
C467 C468 1.524 . S
C467 H470 0.999 . S
C468 H438 0.950 . S
C468 C467 1.524 . S
C468 C469 1.415 . S
C469 H439 0.950 . S
C469 C464 1.363 . S
C469 C468 1.415 . S
H470 C467 0.999 . S
H471 C452 0.913 . S
H472 C490 0.951 . S
H473 C492 0.951 . S
H474 C494 0.950 . S
H475 C495 0.950 . S
H476 C497 0.950 . S
H477 C500 0.950 . S
H478 C501 0.950 . S
H479 C503 0.950 . S
H480 C504 0.950 . S
H481 C505 0.951 . S
H482 C507 0.951 . S
H483 C509 0.950 . S
H484 C510 0.950 . S
H485 C512 0.950 . S
H486 C515 0.950 . S
H487 C516 0.950 . S
H488 C518 0.950 . S
H489 C519 0.950 . S
C490 H472 0.951 . S
C490 C491 1.366 . S
C490 C492 1.388 . S
C491 C490 1.366 . S
C491 C495 1.385 . S
C492 H473 0.951 . S
C492 C490 1.388 . S
C492 C493 1.366 . S
C493 C492 1.366 . S
C493 C494 1.414 . S
C493 C496 1.499 . S
C494 H474 0.950 . S
C494 C493 1.414 . S
C494 C495 1.374 . S
C495 H475 0.950 . S
C495 C491 1.385 . S
C495 C494 1.374 . S
C496 C493 1.499 . S
C496 C497 1.373 . S
C496 C498 1.389 . S
C497 H476 0.950 . S
C497 C496 1.373 . S
C497 C513 1.377 . S
C498 C496 1.389 . S
C498 C499 1.524 . S
C498 C512 1.377 . S
C499 C498 1.524 . S
C499 C500 1.397 . S
C499 C504 1.363 . S
C500 H477 0.950 . S
C500 C499 1.397 . S
C500 C501 1.334 . S
C501 H478 0.950 . S
C501 C500 1.334 . S
C501 C502 1.287 . S
C502 C501 1.287 . S
C502 C503 1.524 . S
C502 H521 0.913 . S
C503 H479 0.950 . S
C503 C502 1.524 . S
C503 C504 1.415 . S
C504 H480 0.950 . S
C504 C499 1.363 . S
C504 C503 1.415 . S
C505 H481 0.951 . S
C505 C506 1.366 . S
C505 C507 1.388 . S
C506 C505 1.366 . S
C506 C510 1.385 . S
C507 H482 0.951 . S
C507 C505 1.388 . S
C507 C508 1.366 . S
C508 C507 1.366 . S
C508 C509 1.414 . S
C508 C511 1.499 . S
C509 H483 0.950 . S
C509 C508 1.414 . S
C509 C510 1.374 . S
C510 H484 0.950 . S
C510 C506 1.385 . S
C510 C509 1.374 . S
C511 C508 1.499 . S
C511 C512 1.373 . S
C511 C513 1.389 . S
C512 H485 0.950 . S
C512 C498 1.377 . S
C512 C511 1.373 . S
C513 C497 1.377 . S
C513 C511 1.389 . S
C513 C514 1.524 . S
C514 C513 1.524 . S
C514 C515 1.397 . S
C514 C519 1.363 . S
C515 H486 0.950 . S
C515 C514 1.397 . S
C515 C516 1.334 . S
C516 H487 0.950 . S
C516 C515 1.334 . S
C516 C517 1.287 . S
C517 C516 1.287 . S
C517 C518 1.524 . S
C517 H520 0.999 . S
C518 H488 0.950 . S
C518 C517 1.524 . S
C518 C519 1.415 . S
C519 H489 0.950 . S
C519 C514 1.363 . S
C519 C518 1.415 . S
H520 C517 0.999 . S
H521 C502 0.913 . S
H522 C540 0.951 . S
H523 C542 0.951 . S
H524 C544 0.950 . S
H525 C545 0.950 . S
H526 C547 0.950 . S
H527 C550 0.950 . S
H528 C551 0.950 . S
H529 C553 0.950 . S
H530 C554 0.950 . S
H531 C555 0.951 . S
H532 C557 0.951 . S
H533 C559 0.950 . S
H534 C560 0.950 . S
H535 C562 0.950 . S
H536 C565 0.950 . S
H537 C566 0.950 . S
H538 C568 0.950 . S
H539 C569 0.950 . S
C540 H522 0.951 . S
C540 C541 1.366 . S
C540 C542 1.388 . S
C541 C540 1.366 . S
C541 C545 1.385 . S
C542 H523 0.951 . S
C542 C540 1.388 . S
C542 C543 1.366 . S
C543 C542 1.366 . S
C543 C544 1.414 . S
C543 C546 1.499 . S
C544 H524 0.950 . S
C544 C543 1.414 . S
C544 C545 1.374 . S
C545 H525 0.950 . S
C545 C541 1.385 . S
C545 C544 1.374 . S
C546 C543 1.499 . S
C546 C547 1.373 . S
C546 C548 1.389 . S
C547 H526 0.950 . S
C547 C546 1.373 . S
C547 C563 1.377 . S
C548 C546 1.389 . S
C548 C549 1.524 . S
C548 C562 1.377 . S
C549 C548 1.524 . S
C549 C550 1.397 . S
C549 C554 1.363 . S
C550 H527 0.950 . S
C550 C549 1.397 . S
C550 C551 1.334 . S
C551 H528 0.950 . S
C551 C550 1.334 . S
C551 C552 1.287 . S
C552 C551 1.287 . S
C552 C553 1.524 . S
C552 H571 0.913 . S
C553 H529 0.950 . S
C553 C552 1.524 . S
C553 C554 1.415 . S
C554 H530 0.950 . S
C554 C549 1.363 . S
C554 C553 1.415 . S
C555 H531 0.951 . S
C555 C556 1.366 . S
C555 C557 1.388 . S
C556 C555 1.366 . S
C556 C560 1.385 . S
C557 H532 0.951 . S
C557 C555 1.388 . S
C557 C558 1.366 . S
C558 C557 1.366 . S
C558 C559 1.414 . S
C558 C561 1.499 . S
C559 H533 0.950 . S
C559 C558 1.414 . S
C559 C560 1.374 . S
C560 H534 0.950 . S
C560 C556 1.385 . S
C560 C559 1.374 . S
C561 C558 1.499 . S
C561 C562 1.373 . S
C561 C563 1.389 . S
C562 H535 0.950 . S
C562 C548 1.377 . S
C562 C561 1.373 . S
C563 C547 1.377 . S
C563 C561 1.389 . S
C563 C564 1.524 . S
C564 C563 1.524 . S
C564 C565 1.397 . S
C564 C569 1.363 . S
C565 H536 0.950 . S
C565 C564 1.397 . S
C565 C566 1.334 . S
C566 H537 0.950 . S
C566 C565 1.334 . S
C566 C567 1.287 . S
C567 C566 1.287 . S
C567 C568 1.524 . S
C567 H570 0.999 . S
C568 H538 0.950 . S
C568 C567 1.524 . S
C568 C569 1.415 . S
C569 H539 0.950 . S
C569 C564 1.363 . S
C569 C568 1.415 . S
H570 C567 0.999 . S
H571 C552 0.913 . S
H572 C590 0.951 . S
H573 C592 0.951 . S
H574 C594 0.950 . S
H575 C595 0.950 . S
H576 C597 0.950 . S
H577 C600 0.950 . S
H578 C601 0.950 . S
H579 C603 0.950 . S
H580 C604 0.947 1_556 S
H581 C605 0.951 . S
H582 C607 0.951 . S
H583 C609 0.950 . S
H584 C610 0.950 . S
H585 C612 0.950 . S
H586 C615 0.950 . S
H587 C616 0.950 . S
H588 C618 0.950 . S
H589 C619 0.950 . S
C590 H572 0.951 . S
C590 C591 1.366 . S
C590 C592 1.388 . S
C591 C590 1.366 . S
C591 C595 1.385 . S
C592 H573 0.951 . S
C592 C590 1.388 . S
C592 C593 1.366 . S
C593 C592 1.366 . S
C593 C594 1.414 . S
C593 C596 1.499 . S
C594 H574 0.950 . S
C594 C593 1.414 . S
C594 C595 1.374 . S
C595 H575 0.950 . S
C595 C591 1.385 . S
C595 C594 1.374 . S
C596 C593 1.499 . S
C596 C597 1.373 . S
C596 C598 1.389 . S
C597 H576 0.950 . S
C597 C596 1.373 . S
C597 C613 1.377 . S
C598 C596 1.389 . S
C598 C599 1.524 . S
C598 C612 1.377 . S
C599 C598 1.524 . S
C599 C600 1.397 . S
C599 C604 1.342 1_556 S
C600 H577 0.950 . S
C600 C599 1.397 . S
C600 C601 1.334 1_556 S
C601 H578 0.950 . S
C601 C600 1.334 1_554 S
C601 C602 1.287 . S
C602 C601 1.287 . S
C602 C603 1.524 . S
C602 H621 0.913 . S
C603 H579 0.950 . S
C603 C602 1.524 . S
C603 C604 1.439 . S
C604 H580 0.947 1_554 S
C604 C599 1.342 1_554 S
C604 C603 1.439 . S
C605 H581 0.951 . S
C605 C606 1.366 . S
C605 C607 1.388 . S
C606 C605 1.366 . S
C606 C610 1.385 . S
C607 H582 0.951 . S
C607 C605 1.388 . S
C607 C608 1.366 . S
C608 C607 1.366 . S
C608 C609 1.414 . S
C608 C611 1.499 . S
C609 H583 0.950 . S
C609 C608 1.414 . S
C609 C610 1.374 . S
C610 H584 0.950 . S
C610 C606 1.385 . S
C610 C609 1.374 . S
C611 C608 1.499 . S
C611 C612 1.373 . S
C611 C613 1.389 . S
C612 H585 0.950 . S
C612 C598 1.377 . S
C612 C611 1.373 . S
C613 C597 1.377 . S
C613 C611 1.389 . S
C613 C614 1.524 . S
C614 C613 1.524 . S
C614 C615 1.397 . S
C614 C619 1.363 . S
C615 H586 0.950 . S
C615 C614 1.397 . S
C615 C616 1.334 . S
C616 H587 0.950 . S
C616 C615 1.334 . S
C616 C617 1.287 . S
C617 C616 1.287 . S
C617 C618 1.524 . S
C617 H620 0.999 . S
C618 H588 0.950 . S
C618 C617 1.524 . S
C618 C619 1.415 . S
C619 H589 0.950 . S
C619 C614 1.363 . S
C619 C618 1.415 . S
H620 C617 0.999 . S
H621 C602 0.913 . S
H622 C640 0.951 . S
H623 C642 0.951 . S
H624 C644 0.950 . S
H625 C645 0.950 . S
H626 C647 0.950 . S
H627 C650 0.950 . S
H628 C651 0.950 . S
H629 C653 0.950 . S
H630 C654 0.950 . S
H631 C655 0.951 . S
H632 C657 0.951 . S
H633 C659 0.950 . S
H634 C660 0.950 . S
H635 C662 0.950 . S
H636 C665 0.950 . S
H637 C666 0.950 . S
H638 C668 0.950 . S
H639 C669 0.950 . S
C640 H622 0.951 . S
C640 C641 1.366 . S
C640 C642 1.388 . S
C641 C640 1.366 . S
C641 C645 1.385 . S
C642 H623 0.951 . S
C642 C640 1.388 . S
C642 C643 1.366 . S
C643 C642 1.366 . S
C643 C644 1.414 . S
C643 C646 1.499 . S
C644 H624 0.950 . S
C644 C643 1.414 . S
C644 C645 1.374 . S
C645 H625 0.950 . S
C645 C641 1.385 . S
C645 C644 1.374 . S
C646 C643 1.499 . S
C646 C647 1.373 . S
C646 C648 1.389 . S
C647 H626 0.950 . S
C647 C646 1.373 . S
C647 C663 1.377 . S
C648 C646 1.389 . S
C648 C649 1.524 . S
C648 C662 1.377 . S
C649 C648 1.524 . S
C649 C650 1.397 . S
C649 C654 1.363 . S
C650 H627 0.950 . S
C650 C649 1.397 . S
C650 C651 1.334 . S
C651 H628 0.950 . S
C651 C650 1.334 . S
C651 C652 1.287 . S
C652 C651 1.287 . S
C652 C653 1.524 . S
C652 H671 0.913 . S
C653 H629 0.950 . S
C653 C652 1.524 . S
C653 C654 1.415 . S
C654 H630 0.950 . S
C654 C649 1.363 . S
C654 C653 1.415 . S
C655 H631 0.951 . S
C655 C656 1.366 . S
C655 C657 1.388 . S
C656 C655 1.366 . S
C656 C660 1.385 . S
C657 H632 0.951 . S
C657 C655 1.388 . S
C657 C658 1.366 . S
C658 C657 1.366 . S
C658 C659 1.414 . S
C658 C661 1.499 . S
C659 H633 0.950 . S
C659 C658 1.414 . S
C659 C660 1.374 . S
C660 H634 0.950 . S
C660 C656 1.385 . S
C660 C659 1.374 . S
C661 C658 1.499 . S
C661 C662 1.373 . S
C661 C663 1.389 . S
C662 H635 0.950 . S
C662 C648 1.377 . S
C662 C661 1.373 . S
C663 C647 1.377 . S
C663 C661 1.389 . S
C663 C664 1.524 . S
C664 C663 1.524 . S
C664 C665 1.397 . S
C664 C669 1.363 . S
C665 H636 0.950 . S
C665 C664 1.397 . S
C665 C666 1.334 . S
C666 H637 0.950 . S
C666 C665 1.334 . S
C666 C667 1.287 . S
C667 C666 1.287 . S
C667 C668 1.524 . S
C667 H670 0.999 . S
C668 H638 0.950 . S
C668 C667 1.524 . S
C668 C669 1.415 . S
C669 H639 0.950 . S
C669 C664 1.363 . S
C669 C668 1.415 . S
H670 C667 0.999 . S
H671 C652 0.913 . S
H672 C690 0.951 . S
H673 C692 0.951 . S
H674 C694 0.950 . S
H675 C695 0.950 . S
H676 C697 0.950 . S
H677 C700 0.950 . S
H678 C701 0.950 . S
H679 C703 0.950 . S
H680 C704 0.950 . S
H681 C705 0.951 . S
H682 C707 0.951 . S
H683 C709 0.950 . S
H684 C710 0.950 . S
H685 C712 0.950 . S
H686 C715 0.950 . S
H687 C716 0.950 . S
H688 C718 0.950 . S
H689 C719 0.950 . S
C690 H672 0.951 . S
C690 C691 1.366 . S
C690 C692 1.388 . S
C691 C690 1.366 . S
C691 C695 1.385 . S
C692 H673 0.951 . S
C692 C690 1.388 . S
C692 C693 1.366 . S
C693 C692 1.366 . S
C693 C694 1.414 . S
C693 C696 1.499 . S
C694 H674 0.950 . S
C694 C693 1.414 . S
C694 C695 1.374 . S
C695 H675 0.950 . S
C695 C691 1.385 . S
C695 C694 1.374 . S
C696 C693 1.499 . S
C696 C697 1.373 . S
C696 C698 1.389 . S
C697 H676 0.950 . S
C697 C696 1.373 . S
C697 C713 1.377 . S
C698 C696 1.389 . S
C698 C699 1.524 . S
C698 C712 1.377 . S
C699 C698 1.524 . S
C699 C700 1.397 . S
C699 C704 1.363 . S
C700 H677 0.950 . S
C700 C699 1.397 . S
C700 C701 1.334 . S
C701 H678 0.950 . S
C701 C700 1.334 . S
C701 C702 1.287 . S
C702 C701 1.287 . S
C702 C703 1.524 . S
C702 H721 0.913 . S
C703 H679 0.950 . S
C703 C702 1.524 . S
C703 C704 1.415 . S
C704 H680 0.950 . S
C704 C699 1.363 . S
C704 C703 1.415 . S
C705 H681 0.951 . S
C705 C706 1.366 . S
C705 C707 1.388 . S
C706 C705 1.366 . S
C706 C710 1.385 . S
C707 H682 0.951 . S
C707 C705 1.388 . S
C707 C708 1.366 . S
C708 C707 1.366 . S
C708 C709 1.414 . S
C708 C711 1.499 . S
C709 H683 0.950 . S
C709 C708 1.414 . S
C709 C710 1.374 . S
C710 H684 0.950 . S
C710 C706 1.385 . S
C710 C709 1.374 . S
C711 C708 1.499 . S
C711 C712 1.373 . S
C711 C713 1.389 . S
C712 H685 0.950 . S
C712 C698 1.377 . S
C712 C711 1.373 . S
C713 C697 1.377 . S
C713 C711 1.389 . S
C713 C714 1.524 . S
C714 C713 1.524 . S
C714 C715 1.397 . S
C714 C719 1.363 . S
C715 H686 0.950 . S
C715 C714 1.397 . S
C715 C716 1.334 . S
C716 H687 0.950 . S
C716 C715 1.334 . S
C716 C717 1.287 . S
C717 C716 1.287 . S
C717 C718 1.524 . S
C717 H720 0.999 . S
C718 H688 0.950 . S
C718 C717 1.524 . S
C718 C719 1.415 . S
C719 H689 0.950 . S
C719 C714 1.363 . S
C719 C718 1.415 . S
H720 C717 0.999 . S
H721 C702 0.913 . S
H722 C740 0.951 . S
H723 C742 0.951 . S
H724 C744 0.950 . S
H725 C745 0.950 . S
H726 C747 0.950 . S
H727 C750 0.950 . S
H728 C751 0.950 . S
H729 C753 0.950 . S
H730 C754 0.950 . S
H731 C755 0.951 . S
H732 C757 0.951 . S
H733 C759 0.950 . S
H734 C760 0.950 . S
H735 C762 0.950 . S
H736 C765 0.950 . S
H737 C766 0.950 . S
H738 C768 0.950 . S
H739 C769 0.950 . S
C740 H722 0.951 . S
C740 C741 1.366 . S
C740 C742 1.388 . S
C741 C740 1.366 . S
C741 C745 1.385 . S
C742 H723 0.951 . S
C742 C740 1.388 . S
C742 C743 1.366 . S
C743 C742 1.366 . S
C743 C744 1.414 . S
C743 C746 1.499 . S
C744 H724 0.950 . S
C744 C743 1.414 . S
C744 C745 1.374 . S
C745 H725 0.950 . S
C745 C741 1.385 . S
C745 C744 1.374 . S
C746 C743 1.499 . S
C746 C747 1.373 . S
C746 C748 1.389 . S
C747 H726 0.950 . S
C747 C746 1.373 . S
C747 C763 1.377 . S
C748 C746 1.389 . S
C748 C749 1.524 . S
C748 C762 1.377 . S
C749 C748 1.524 . S
C749 C750 1.397 . S
C749 C754 1.363 . S
C750 H727 0.950 . S
C750 C749 1.397 . S
C750 C751 1.334 . S
C751 H728 0.950 . S
C751 C750 1.334 . S
C751 C752 1.287 . S
C752 C751 1.287 . S
C752 C753 1.524 . S
C752 H771 0.913 . S
C753 H729 0.950 . S
C753 C752 1.524 . S
C753 C754 1.415 . S
C754 H730 0.950 . S
C754 C749 1.363 . S
C754 C753 1.415 . S
C755 H731 0.951 . S
C755 C756 1.366 . S
C755 C757 1.388 . S
C756 C755 1.366 . S
C756 C760 1.385 . S
C757 H732 0.951 . S
C757 C755 1.388 . S
C757 C758 1.366 . S
C758 C757 1.366 . S
C758 C759 1.414 . S
C758 C761 1.499 . S
C759 H733 0.950 . S
C759 C758 1.414 . S
C759 C760 1.374 . S
C760 H734 0.950 . S
C760 C756 1.385 . S
C760 C759 1.374 . S
C761 C758 1.499 . S
C761 C762 1.373 . S
C761 C763 1.389 . S
C762 H735 0.950 . S
C762 C748 1.377 . S
C762 C761 1.373 . S
C763 C747 1.377 . S
C763 C761 1.389 . S
C763 C764 1.524 . S
C764 C763 1.524 . S
C764 C765 1.397 . S
C764 C769 1.363 . S
C765 H736 0.950 . S
C765 C764 1.397 . S
C765 C766 1.334 . S
C766 H737 0.950 . S
C766 C765 1.334 . S
C766 C767 1.287 . S
C767 C766 1.287 . S
C767 C768 1.524 . S
C767 H770 0.999 . S
C768 H738 0.950 . S
C768 C767 1.524 . S
C768 C769 1.415 . S
C769 H739 0.950 . S
C769 C764 1.363 . S
C769 C768 1.415 . S
H770 C767 0.999 . S
H771 C752 0.913 . S
H772 C790 0.951 . S
H773 C792 0.951 . S
H774 C794 0.950 . S
H775 C795 0.950 . S
H776 C797 0.950 . S
H777 C800 0.950 . S
H778 C801 0.950 . S
H779 C803 0.950 . S
H780 C804 0.950 . S
H781 C805 0.951 . S
H782 C807 0.951 . S
H783 C809 0.950 . S
H784 C810 0.950 . S
H785 C812 0.950 . S
H786 C815 0.950 . S
H787 C816 0.950 . S
H788 C818 0.950 . S
H789 C819 0.950 . S
C790 H772 0.951 . S
C790 C791 1.366 . S
C790 C792 1.388 . S
C791 C790 1.366 . S
C791 C795 1.385 . S
C792 H773 0.951 . S
C792 C790 1.388 . S
C792 C793 1.366 . S
C793 C792 1.366 . S
C793 C794 1.414 . S
C793 C796 1.499 . S
C794 H774 0.950 . S
C794 C793 1.414 . S
C794 C795 1.374 . S
C795 H775 0.950 . S
C795 C791 1.385 . S
C795 C794 1.374 . S
C796 C793 1.499 . S
C796 C797 1.373 . S
C796 C798 1.389 . S
C797 H776 0.950 . S
C797 C796 1.373 . S
C797 C813 1.377 . S
C798 C796 1.389 . S
C798 C799 1.524 . S
C798 C812 1.377 . S
C799 C798 1.524 . S
C799 C800 1.397 . S
C799 C804 1.363 . S
C800 H777 0.950 . S
C800 C799 1.397 . S
C800 C801 1.334 . S
C801 H778 0.950 . S
C801 C800 1.334 . S
C801 C802 1.287 . S
C802 C801 1.287 . S
C802 C803 1.524 . S
C802 H821 0.913 . S
C803 H779 0.950 . S
C803 C802 1.524 . S
C803 C804 1.415 . S
C804 H780 0.950 . S
C804 C799 1.363 . S
C804 C803 1.415 . S
C805 H781 0.951 . S
C805 C806 1.366 . S
C805 C807 1.388 . S
C806 C805 1.366 . S
C806 C810 1.385 . S
C807 H782 0.951 . S
C807 C805 1.388 . S
C807 C808 1.366 . S
C808 C807 1.366 . S
C808 C809 1.414 . S
C808 C811 1.499 . S
C809 H783 0.950 . S
C809 C808 1.414 . S
C809 C810 1.374 . S
C810 H784 0.950 . S
C810 C806 1.385 . S
C810 C809 1.374 . S
C811 C808 1.499 . S
C811 C812 1.373 . S
C811 C813 1.389 . S
C812 H785 0.950 . S
C812 C798 1.377 . S
C812 C811 1.373 . S
C813 C797 1.377 . S
C813 C811 1.389 . S
C813 C814 1.524 . S
C814 C813 1.524 . S
C814 C815 1.397 . S
C814 C819 1.363 . S
C815 H786 0.950 . S
C815 C814 1.397 . S
C815 C816 1.334 . S
C816 H787 0.950 . S
C816 C815 1.334 . S
C816 C817 1.287 . S
C817 C816 1.287 . S
C817 C818 1.524 . S
C817 H820 0.999 . S
C818 H788 0.950 . S
C818 C817 1.524 . S
C818 C819 1.415 . S
C819 H789 0.950 . S
C819 C814 1.363 . S
C819 C818 1.415 . S
H820 C817 0.999 . S
H821 C802 0.913 . S
H822 C840 0.951 . S
H823 C842 0.951 . S
H824 C844 0.950 . S
H825 C845 0.950 . S
H826 C847 0.950 . S
H827 C850 0.950 . S
H828 C851 0.950 . S
H829 C853 0.950 . S
H830 C854 0.950 1_554 S
H831 C855 0.951 . S
H832 C857 0.951 . S
H833 C859 0.950 . S
H834 C860 0.950 . S
H835 C862 0.950 . S
H836 C865 0.950 . S
H837 C866 0.950 . S
H838 C868 0.950 . S
H839 C869 0.950 . S
C840 H822 0.951 . S
C840 C841 1.366 . S
C840 C842 1.388 . S
C841 C840 1.366 . S
C841 C845 1.385 . S
C842 H823 0.951 . S
C842 C840 1.388 . S
C842 C843 1.366 . S
C843 C842 1.366 . S
C843 C844 1.414 . S
C843 C846 1.499 . S
C844 H824 0.950 . S
C844 C843 1.414 . S
C844 C845 1.374 . S
C845 H825 0.950 . S
C845 C841 1.385 . S
C845 C844 1.374 . S
C846 C843 1.499 . S
C846 C847 1.373 . S
C846 C848 1.389 . S
C847 H826 0.950 . S
C847 C846 1.373 . S
C847 C863 1.377 . S
C848 C846 1.389 . S
C848 C849 1.524 . S
C848 C862 1.377 . S
C849 C848 1.524 . S
C849 C850 1.397 1_554 S
C849 C854 1.363 1_554 S
C850 H827 0.950 . S
C850 C849 1.397 1_556 S
C850 C851 1.334 . S
C851 H828 0.950 . S
C851 C850 1.334 . S
C851 C852 1.287 . S
C852 C851 1.287 . S
C852 C853 1.524 . S
C852 H871 0.913 . S
C853 H829 0.950 . S
C853 C852 1.524 . S
C853 C854 1.415 . S
C854 H830 0.950 1_556 S
C854 C849 1.363 1_556 S
C854 C853 1.415 . S
C855 H831 0.951 . S
C855 C856 1.366 . S
C855 C857 1.388 . S
C856 C855 1.366 . S
C856 C860 1.385 . S
C857 H832 0.951 . S
C857 C855 1.388 . S
C857 C858 1.366 . S
C858 C857 1.366 . S
C858 C859 1.414 . S
C858 C861 1.499 . S
C859 H833 0.950 . S
C859 C858 1.414 . S
C859 C860 1.374 . S
C860 H834 0.950 . S
C860 C856 1.385 . S
C860 C859 1.374 . S
C861 C858 1.499 . S
C861 C862 1.373 . S
C861 C863 1.389 . S
C862 H835 0.950 . S
C862 C848 1.377 . S
C862 C861 1.373 . S
C863 C847 1.377 . S
C863 C861 1.389 . S
C863 C864 1.524 . S
C864 C863 1.524 . S
C864 C865 1.397 . S
C864 C869 1.363 . S
C865 H836 0.950 . S
C865 C864 1.397 . S
C865 C866 1.334 . S
C866 H837 0.950 . S
C866 C865 1.334 . S
C866 C867 1.287 . S
C867 C866 1.287 . S
C867 C868 1.524 . S
C867 H870 0.999 . S
C868 H838 0.950 . S
C868 C867 1.524 . S
C868 C869 1.415 . S
C869 H839 0.950 . S
C869 C864 1.363 . S
C869 C868 1.415 . S
H870 C867 0.999 . S
H871 C852 0.913 . S
H872 C890 0.951 . S
H873 C892 0.951 . S
H874 C894 0.950 . S
H875 C895 0.950 . S
H876 C897 0.950 . S
H877 C900 0.950 . S
H878 C901 0.950 . S
H879 C903 0.950 . S
H880 C904 0.950 . S
H881 C905 0.951 . S
H882 C907 0.951 . S
H883 C909 0.950 . S
H884 C910 0.950 . S
H885 C912 0.950 . S
H886 C915 0.950 . S
H887 C916 0.950 . S
H888 C918 0.950 . S
H889 C919 0.950 . S
C890 H872 0.951 . S
C890 C891 1.366 . S
C890 C892 1.388 . S
C891 C890 1.366 . S
C891 C895 1.385 . S
C892 H873 0.951 . S
C892 C890 1.388 . S
C892 C893 1.366 . S
C893 C892 1.366 . S
C893 C894 1.414 . S
C893 C896 1.499 . S
C894 H874 0.950 . S
C894 C893 1.414 . S
C894 C895 1.374 . S
C895 H875 0.950 . S
C895 C891 1.385 . S
C895 C894 1.374 . S
C896 C893 1.499 . S
C896 C897 1.373 . S
C896 C898 1.389 . S
C897 H876 0.950 . S
C897 C896 1.373 . S
C897 C913 1.377 . S
C898 C896 1.389 . S
C898 C899 1.524 . S
C898 C912 1.377 . S
C899 C898 1.524 . S
C899 C900 1.397 . S
C899 C904 1.363 . S
C900 H877 0.950 . S
C900 C899 1.397 . S
C900 C901 1.334 . S
C901 H878 0.950 . S
C901 C900 1.334 . S
C901 C902 1.287 . S
C902 C901 1.287 . S
C902 C903 1.524 . S
C902 H921 0.913 . S
C903 H879 0.950 . S
C903 C902 1.524 . S
C903 C904 1.415 . S
C904 H880 0.950 . S
C904 C899 1.363 . S
C904 C903 1.415 . S
C905 H881 0.951 . S
C905 C906 1.366 . S
C905 C907 1.388 . S
C906 C905 1.366 . S
C906 C910 1.385 . S
C907 H882 0.951 . S
C907 C905 1.388 . S
C907 C908 1.366 . S
C908 C907 1.366 . S
C908 C909 1.414 . S
C908 C911 1.499 . S
C909 H883 0.950 . S
C909 C908 1.414 . S
C909 C910 1.374 . S
C910 H884 0.950 . S
C910 C906 1.385 . S
C910 C909 1.374 . S
C911 C908 1.499 . S
C911 C912 1.373 . S
C911 C913 1.389 . S
C912 H885 0.950 . S
C912 C898 1.377 . S
C912 C911 1.373 . S
C913 C897 1.377 . S
C913 C911 1.389 . S
C913 C914 1.524 . S
C914 C913 1.524 . S
C914 C915 1.397 . S
C914 C919 1.363 . S
C915 H886 0.950 . S
C915 C914 1.397 . S
C915 C916 1.334 . S
C916 H887 0.950 . S
C916 C915 1.334 . S
C916 C917 1.287 . S
C917 C916 1.287 . S
C917 C918 1.524 . S
C917 H920 0.999 . S
C918 H888 0.950 . S
C918 C917 1.524 . S
C918 C919 1.415 . S
C919 H889 0.950 . S
C919 C914 1.363 . S
C919 C918 1.415 . S
H920 C917 0.999 . S
H921 C902 0.913 . S
H922 C940 0.951 . S
H923 C942 0.951 . S
H924 C944 0.950 . S
H925 C945 0.950 . S
H926 C947 0.950 . S
H927 C950 0.950 . S
H928 C951 0.950 . S
H929 C953 0.950 . S
H930 C954 0.950 . S
H931 C955 0.951 . S
H932 C957 0.951 . S
H933 C959 0.950 . S
H934 C960 0.950 . S
H935 C962 0.950 . S
H936 C965 0.950 . S
H937 C966 0.950 . S
H938 C968 0.950 . S
H939 C969 0.950 . S
C940 H922 0.951 . S
C940 C941 1.366 . S
C940 C942 1.388 . S
C941 C940 1.366 . S
C941 C945 1.385 . S
C942 H923 0.951 . S
C942 C940 1.388 . S
C942 C943 1.366 . S
C943 C942 1.366 . S
C943 C944 1.414 . S
C943 C946 1.499 . S
C944 H924 0.950 . S
C944 C943 1.414 . S
C944 C945 1.374 . S
C945 H925 0.950 . S
C945 C941 1.385 . S
C945 C944 1.374 . S
C946 C943 1.499 . S
C946 C947 1.373 . S
C946 C948 1.389 . S
C947 H926 0.950 . S
C947 C946 1.373 . S
C947 C963 1.377 . S
C948 C946 1.389 . S
C948 C949 1.524 . S
C948 C962 1.377 . S
C949 C948 1.524 . S
C949 C950 1.397 . S
C949 C954 1.363 . S
C950 H927 0.950 . S
C950 C949 1.397 . S
C950 C951 1.334 . S
C951 H928 0.950 . S
C951 C950 1.334 . S
C951 C952 1.287 . S
C952 C951 1.287 . S
C952 C953 1.524 . S
C952 H971 0.913 . S
C953 H929 0.950 . S
C953 C952 1.524 . S
C953 C954 1.415 . S
C954 H930 0.950 . S
C954 C949 1.363 . S
C954 C953 1.415 . S
C955 H931 0.951 . S
C955 C956 1.366 . S
C955 C957 1.388 . S
C956 C955 1.366 . S
C956 C960 1.385 . S
C957 H932 0.951 . S
C957 C955 1.388 . S
C957 C958 1.366 . S
C958 C957 1.366 . S
C958 C959 1.414 . S
C958 C961 1.499 . S
C959 H933 0.950 . S
C959 C958 1.414 . S
C959 C960 1.374 . S
C960 H934 0.950 . S
C960 C956 1.385 . S
C960 C959 1.374 . S
C961 C958 1.499 . S
C961 C962 1.373 . S
C961 C963 1.389 . S
C962 H935 0.950 . S
C962 C948 1.377 . S
C962 C961 1.373 . S
C963 C947 1.377 . S
C963 C961 1.389 . S
C963 C964 1.524 . S
C964 C963 1.524 . S
C964 C965 1.397 . S
C964 C969 1.363 . S
C965 H936 0.950 . S
C965 C964 1.397 . S
C965 C966 1.334 . S
C966 H937 0.950 . S
C966 C965 1.334 . S
C966 C967 1.287 . S
C967 C966 1.287 . S
C967 C968 1.524 . S
C967 H970 0.999 . S
C968 H938 0.950 . S
C968 C967 1.524 . S
C968 C969 1.415 . S
C969 H939 0.950 . S
C969 C964 1.363 . S
C969 C968 1.415 . S
H970 C967 0.999 . S
H971 C952 0.913 . S
H972 C990 0.951 . S
H973 C992 0.951 . S
H974 C994 0.950 . S
H975 C995 0.950 . S
H976 C997 0.950 . S
H977 C1000 0.950 . S
H978 C1001 0.950 . S
H979 C1003 0.950 . S
H980 C1004 0.950 . S
H981 C1005 0.951 . S
H982 C1007 0.951 . S
H983 C1009 0.950 . S
H984 C1010 0.950 . S
H985 C1012 0.950 . S
H986 C1015 0.950 . S
H987 C1016 0.950 . S
H988 C1018 0.950 . S
H989 C1019 0.950 . S
C990 H972 0.951 . S
C990 C991 1.366 . S
C990 C992 1.388 . S
C991 C990 1.366 . S
C991 C995 1.385 . S
C992 H973 0.951 . S
C992 C990 1.388 . S
C992 C993 1.366 . S
C993 C992 1.366 . S
C993 C994 1.414 . S
C993 C996 1.499 . S
C994 H974 0.950 . S
C994 C993 1.414 . S
C994 C995 1.374 . S
C995 H975 0.950 . S
C995 C991 1.385 . S
C995 C994 1.374 . S
C996 C993 1.499 . S
C996 C997 1.373 . S
C996 C998 1.389 . S
C997 H976 0.950 . S
C997 C996 1.373 . S
C997 C1013 1.377 . S
C998 C996 1.389 . S
C998 C999 1.524 . S
C998 C1012 1.377 . S
C999 C998 1.524 . S
C999 C1000 1.397 . S
C999 C1004 1.363 . S
C1000 H977 0.950 . S
C1000 C999 1.397 . S
C1000 C1001 1.334 . S
C1001 H978 0.950 . S
C1001 C1000 1.334 . S
C1001 C1002 1.287 . S
C1002 C1001 1.287 . S
C1002 C1003 1.524 . S
C1002 H1021 0.913 . S
C1003 H979 0.950 . S
C1003 C1002 1.524 . S
C1003 C1004 1.415 . S
C1004 H980 0.950 . S
C1004 C999 1.363 . S
C1004 C1003 1.415 . S
C1005 H981 0.951 . S
C1005 C1006 1.366 . S
C1005 C1007 1.388 . S
C1006 C1005 1.366 . S
C1006 C1010 1.385 . S
C1007 H982 0.951 . S
C1007 C1005 1.388 . S
C1007 C1008 1.366 . S
C1008 C1007 1.366 . S
C1008 C1009 1.414 . S
C1008 C1011 1.499 . S
C1009 H983 0.950 . S
C1009 C1008 1.414 . S
C1009 C1010 1.374 . S
C1010 H984 0.950 . S
C1010 C1006 1.385 . S
C1010 C1009 1.374 . S
C1011 C1008 1.499 . S
C1011 C1012 1.373 . S
C1011 C1013 1.389 . S
C1012 H985 0.950 . S
C1012 C998 1.377 . S
C1012 C1011 1.373 . S
C1013 C997 1.377 . S
C1013 C1011 1.389 . S
C1013 C1014 1.524 . S
C1014 C1013 1.524 . S
C1014 C1015 1.397 . S
C1014 C1019 1.363 . S
C1015 H986 0.950 . S
C1015 C1014 1.397 . S
C1015 C1016 1.334 . S
C1016 H987 0.950 . S
C1016 C1015 1.334 . S
C1016 C1017 1.287 . S
C1017 C1016 1.287 . S
C1017 C1018 1.524 . S
C1017 H1020 0.999 . S
C1018 H988 0.950 . S
C1018 C1017 1.524 . S
C1018 C1019 1.415 . S
C1019 H989 0.950 . S
C1019 C1014 1.363 . S
C1019 C1018 1.415 . S
H1020 C1017 0.999 . S
H1021 C1002 0.913 . S
H1022 C1040 0.951 . S
H1023 C1042 0.951 . S
H1024 C1044 0.950 . S
H1025 C1045 0.950 . S
H1026 C1047 0.950 . S
H1027 C1050 0.950 . S
H1028 C1051 0.950 . S
H1029 C1053 0.950 . S
H1030 C1054 0.950 . S
H1031 C1055 0.951 . S
H1032 C1057 0.951 . S
H1033 C1059 0.950 . S
H1034 C1060 0.950 . S
H1035 C1062 0.950 . S
H1036 C1065 0.950 . S
H1037 C1066 0.950 . S
H1038 C1068 0.950 . S
H1039 C1069 0.950 . S
C1040 H1022 0.951 . S
C1040 C1041 1.366 . S
C1040 C1042 1.388 . S
C1041 C1040 1.366 . S
C1041 C1045 1.385 . S
C1042 H1023 0.951 . S
C1042 C1040 1.388 . S
C1042 C1043 1.366 . S
C1043 C1042 1.366 . S
C1043 C1044 1.414 . S
C1043 C1046 1.499 . S
C1044 H1024 0.950 . S
C1044 C1043 1.414 . S
C1044 C1045 1.374 . S
C1045 H1025 0.950 . S
C1045 C1041 1.385 . S
C1045 C1044 1.374 . S
C1046 C1043 1.499 . S
C1046 C1047 1.373 . S
C1046 C1048 1.389 . S
C1047 H1026 0.950 . S
C1047 C1046 1.373 . S
C1047 C1063 1.377 . S
C1048 C1046 1.389 . S
C1048 C1049 1.524 . S
C1048 C1062 1.377 . S
C1049 C1048 1.524 . S
C1049 C1050 1.397 . S
C1049 C1054 1.363 . S
C1050 H1027 0.950 . S
C1050 C1049 1.397 . S
C1050 C1051 1.334 . S
C1051 H1028 0.950 . S
C1051 C1050 1.334 . S
C1051 C1052 1.287 . S
C1052 C1051 1.287 . S
C1052 C1053 1.524 . S
C1052 H1071 0.913 . S
C1053 H1029 0.950 . S
C1053 C1052 1.524 . S
C1053 C1054 1.415 . S
C1054 H1030 0.950 . S
C1054 C1049 1.363 . S
C1054 C1053 1.415 . S
C1055 H1031 0.951 . S
C1055 C1056 1.366 . S
C1055 C1057 1.388 . S
C1056 C1055 1.366 . S
C1056 C1060 1.385 . S
C1057 H1032 0.951 . S
C1057 C1055 1.388 . S
C1057 C1058 1.366 . S
C1058 C1057 1.366 . S
C1058 C1059 1.414 . S
C1058 C1061 1.499 . S
C1059 H1033 0.950 . S
C1059 C1058 1.414 . S
C1059 C1060 1.374 . S
C1060 H1034 0.950 . S
C1060 C1056 1.385 . S
C1060 C1059 1.374 . S
C1061 C1058 1.499 . S
C1061 C1062 1.373 . S
C1061 C1063 1.389 . S
C1062 H1035 0.950 . S
C1062 C1048 1.377 . S
C1062 C1061 1.373 . S
C1063 C1047 1.377 . S
C1063 C1061 1.389 . S
C1063 C1064 1.524 . S
C1064 C1063 1.524 . S
C1064 C1065 1.397 . S
C1064 C1069 1.363 . S
C1065 H1036 0.950 . S
C1065 C1064 1.397 . S
C1065 C1066 1.334 . S
C1066 H1037 0.950 . S
C1066 C1065 1.334 . S
C1066 C1067 1.287 . S
C1067 C1066 1.287 . S
C1067 C1068 1.524 . S
C1067 H1070 0.999 . S
C1068 H1038 0.950 . S
C1068 C1067 1.524 . S
C1068 C1069 1.415 . S
C1069 H1039 0.950 . S
C1069 C1064 1.363 . S
C1069 C1068 1.415 . S
H1070 C1067 0.999 . S
H1071 C1052 0.913 . S
H1072 C1090 0.951 . S
H1073 C1092 0.951 . S
H1074 C1094 0.950 . S
H1075 C1095 0.950 . S
H1076 C1097 0.950 . S
H1077 C1100 0.950 . S
H1078 C1101 0.950 . S
H1079 C1103 0.950 . S
H1080 C1104 0.950 . S
H1081 C1105 0.951 . S
H1082 C1107 0.951 . S
H1083 C1109 0.950 . S
H1084 C1110 0.950 . S
H1085 C1112 0.950 . S
H1086 C1115 0.950 . S
H1087 C1116 0.950 . S
H1088 C1118 0.950 . S
H1089 C1119 0.950 . S
C1090 H1072 0.951 . S
C1090 C1091 1.366 . S
C1090 C1092 1.388 . S
C1091 C1090 1.366 . S
C1091 C1095 1.385 . S
C1092 H1073 0.951 . S
C1092 C1090 1.388 . S
C1092 C1093 1.366 . S
C1093 C1092 1.366 . S
C1093 C1094 1.414 . S
C1093 C1096 1.499 . S
C1094 H1074 0.950 . S
C1094 C1093 1.414 . S
C1094 C1095 1.374 . S
C1095 H1075 0.950 . S
C1095 C1091 1.385 . S
C1095 C1094 1.374 . S
C1096 C1093 1.499 . S
C1096 C1097 1.373 . S
C1096 C1098 1.389 . S
C1097 H1076 0.950 . S
C1097 C1096 1.373 . S
C1097 C1113 1.377 . S
C1098 C1096 1.389 . S
C1098 C1099 1.524 . S
C1098 C1112 1.377 . S
C1099 C1098 1.524 . S
C1099 C1100 1.397 . S
C1099 C1104 1.363 . S
C1100 H1077 0.950 . S
C1100 C1099 1.397 . S
C1100 C1101 1.334 . S
C1101 H1078 0.950 . S
C1101 C1100 1.334 . S
C1101 C1102 1.287 . S
C1102 C1101 1.287 . S
C1102 C1103 1.524 . S
C1102 H1121 0.913 . S
C1103 H1079 0.950 . S
C1103 C1102 1.524 . S
C1103 C1104 1.415 . S
C1104 H1080 0.950 . S
C1104 C1099 1.363 . S
C1104 C1103 1.415 . S
C1105 H1081 0.951 . S
C1105 C1106 1.366 . S
C1105 C1107 1.388 . S
C1106 C1105 1.366 . S
C1106 C1110 1.385 . S
C1107 H1082 0.951 . S
C1107 C1105 1.388 . S
C1107 C1108 1.366 . S
C1108 C1107 1.366 . S
C1108 C1109 1.414 . S
C1108 C1111 1.499 . S
C1109 H1083 0.950 . S
C1109 C1108 1.414 . S
C1109 C1110 1.374 . S
C1110 H1084 0.950 . S
C1110 C1106 1.385 . S
C1110 C1109 1.374 . S
C1111 C1108 1.499 . S
C1111 C1112 1.373 . S
C1111 C1113 1.389 . S
C1112 H1085 0.950 . S
C1112 C1098 1.377 . S
C1112 C1111 1.373 . S
C1113 C1097 1.377 . S
C1113 C1111 1.389 . S
C1113 C1114 1.524 . S
C1114 C1113 1.524 . S
C1114 C1115 1.397 . S
C1114 C1119 1.363 . S
C1115 H1086 0.950 . S
C1115 C1114 1.397 . S
C1115 C1116 1.334 . S
C1116 H1087 0.950 . S
C1116 C1115 1.334 . S
C1116 C1117 1.287 . S
C1117 C1116 1.287 . S
C1117 C1118 1.524 . S
C1117 H1120 0.999 . S
C1118 H1088 0.950 . S
C1118 C1117 1.524 . S
C1118 C1119 1.415 . S
C1119 H1089 0.950 . S
C1119 C1114 1.363 . S
C1119 C1118 1.415 . S
H1120 C1117 0.999 . S
H1121 C1102 0.913 . S
H1122 C1140 0.951 . S
H1123 C1142 0.951 . S
H1124 C1144 0.950 . S
H1125 C1145 0.950 . S
H1126 C1147 0.950 . S
H1127 C1150 0.950 . S
H1128 C1151 0.950 . S
H1129 C1153 0.950 . S
H1130 C1154 0.950 . S
H1131 C1155 0.951 . S
H1132 C1157 0.951 . S
H1133 C1159 0.950 . S
H1134 C1160 0.950 . S
H1135 C1162 0.950 . S
H1136 C1165 0.950 1_554 S
H1137 C1166 0.950 . S
H1138 C1168 0.950 . S
H1139 C1169 0.950 . S
C1140 H1122 0.951 . S
C1140 C1141 1.366 . S
C1140 C1142 1.388 . S
C1141 C1140 1.366 . S
C1141 C1145 1.385 . S
C1142 H1123 0.951 . S
C1142 C1140 1.388 . S
C1142 C1143 1.366 . S
C1143 C1142 1.366 . S
C1143 C1144 1.414 . S
C1143 C1146 1.499 . S
C1144 H1124 0.950 . S
C1144 C1143 1.414 . S
C1144 C1145 1.374 . S
C1145 H1125 0.950 . S
C1145 C1141 1.385 . S
C1145 C1144 1.374 . S
C1146 C1143 1.499 . S
C1146 C1147 1.373 . S
C1146 C1148 1.389 . S
C1147 H1126 0.950 . S
C1147 C1146 1.373 . S
C1147 C1163 1.377 . S
C1148 C1146 1.389 . S
C1148 C1149 1.524 . S
C1148 C1162 1.377 . S
C1149 C1148 1.524 . S
C1149 C1150 1.397 . S
C1149 C1154 1.363 . S
C1150 H1127 0.950 . S
C1150 C1149 1.397 . S
C1150 C1151 1.334 . S
C1151 H1128 0.950 . S
C1151 C1150 1.334 . S
C1151 C1152 1.287 . S
C1152 C1151 1.287 . S
C1152 C1153 1.524 . S
C1152 H1171 0.913 . S
C1153 H1129 0.950 . S
C1153 C1152 1.524 . S
C1153 C1154 1.415 . S
C1154 H1130 0.950 . S
C1154 C1149 1.363 . S
C1154 C1153 1.415 . S
C1155 H1131 0.951 . S
C1155 C1156 1.366 . S
C1155 C1157 1.388 1_554 S
C1156 C1155 1.366 . S
C1156 C1160 1.385 . S
C1157 H1132 0.951 . S
C1157 C1155 1.388 1_556 S
C1157 C1158 1.366 . S
C1158 C1157 1.366 . S
C1158 C1159 1.414 1_556 S
C1158 C1161 1.499 . S
C1159 H1133 0.950 . S
C1159 C1158 1.414 1_554 S
C1159 C1160 1.374 . S
C1160 H1134 0.950 . S
C1160 C1156 1.385 . S
C1160 C1159 1.374 . S
C1161 C1158 1.499 . S
C1161 C1162 1.373 . S
C1161 C1163 1.389 . S
C1162 H1135 0.950 . S
C1162 C1148 1.377 . S
C1162 C1161 1.373 . S
C1163 C1147 1.377 . S
C1163 C1161 1.389 . S
C1163 C1164 1.524 . S
C1164 C1163 1.524 . S
C1164 C1165 1.397 . S
C1164 C1169 1.363 . S
C1165 H1136 0.950 1_556 S
C1165 C1164 1.397 . S
C1165 C1166 1.334 1_556 S
C1166 H1137 0.950 . S
C1166 C1165 1.334 1_554 S
C1166 C1167 1.287 1_554 S
C1167 C1166 1.287 1_556 S
C1167 C1168 1.524 . S
C1167 H1170 0.996 1_556 S
C1168 H1138 0.950 . S
C1168 C1167 1.524 . S
C1168 C1169 1.415 . S
C1169 H1139 0.950 . S
C1169 C1164 1.363 . S
C1169 C1168 1.415 . S
H1170 C1167 0.996 1_554 S
H1171 C1152 0.913 . S
H1172 C1190 0.951 . S
H1173 C1192 0.951 . S
H1174 C1194 0.950 . S
H1175 C1195 0.950 . S
H1176 C1197 0.950 . S
H1177 C1200 0.950 . S
H1178 C1201 0.950 . S
H1179 C1203 0.950 . S
H1180 C1204 0.950 . S
H1181 C1205 0.951 . S
H1182 C1207 0.951 . S
H1183 C1209 0.950 . S
H1184 C1210 0.950 . S
H1185 C1212 0.950 . S
H1186 C1215 0.950 . S
H1187 C1216 0.950 . S
H1188 C1218 0.950 . S
H1189 C1219 0.950 . S
C1190 H1172 0.951 . S
C1190 C1191 1.366 . S
C1190 C1192 1.388 . S
C1191 C1190 1.366 . S
C1191 C1195 1.385 . S
C1192 H1173 0.951 . S
C1192 C1190 1.388 . S
C1192 C1193 1.366 . S
C1193 C1192 1.366 . S
C1193 C1194 1.414 . S
C1193 C1196 1.499 . S
C1194 H1174 0.950 . S
C1194 C1193 1.414 . S
C1194 C1195 1.374 . S
C1195 H1175 0.950 . S
C1195 C1191 1.385 . S
C1195 C1194 1.374 . S
C1196 C1193 1.499 . S
C1196 C1197 1.373 . S
C1196 C1198 1.389 . S
C1197 H1176 0.950 . S
C1197 C1196 1.373 . S
C1197 C1213 1.377 . S
C1198 C1196 1.389 . S
C1198 C1199 1.524 . S
C1198 C1212 1.377 . S
C1199 C1198 1.524 . S
C1199 C1200 1.397 . S
C1199 C1204 1.363 . S
C1200 H1177 0.950 . S
C1200 C1199 1.397 . S
C1200 C1201 1.334 . S
C1201 H1178 0.950 . S
C1201 C1200 1.334 . S
C1201 C1202 1.287 . S
C1202 C1201 1.287 . S
C1202 C1203 1.524 . S
C1202 H1221 0.913 . S
C1203 H1179 0.950 . S
C1203 C1202 1.524 . S
C1203 C1204 1.415 . S
C1204 H1180 0.950 . S
C1204 C1199 1.363 . S
C1204 C1203 1.415 . S
C1205 H1181 0.951 . S
C1205 C1206 1.366 . S
C1205 C1207 1.388 . S
C1206 C1205 1.366 . S
C1206 C1210 1.385 . S
C1207 H1182 0.951 . S
C1207 C1205 1.388 . S
C1207 C1208 1.366 . S
C1208 C1207 1.366 . S
C1208 C1209 1.414 . S
C1208 C1211 1.499 . S
C1209 H1183 0.950 . S
C1209 C1208 1.414 . S
C1209 C1210 1.374 . S
C1210 H1184 0.950 . S
C1210 C1206 1.385 . S
C1210 C1209 1.374 . S
C1211 C1208 1.499 . S
C1211 C1212 1.373 . S
C1211 C1213 1.389 . S
C1212 H1185 0.950 . S
C1212 C1198 1.377 . S
C1212 C1211 1.373 . S
C1213 C1197 1.377 . S
C1213 C1211 1.389 . S
C1213 C1214 1.524 . S
C1214 C1213 1.524 . S
C1214 C1215 1.397 . S
C1214 C1219 1.363 . S
C1215 H1186 0.950 . S
C1215 C1214 1.397 . S
C1215 C1216 1.334 . S
C1216 H1187 0.950 . S
C1216 C1215 1.334 . S
C1216 C1217 1.287 . S
C1217 C1216 1.287 . S
C1217 C1218 1.524 . S
C1217 H1220 0.999 . S
C1218 H1188 0.950 . S
C1218 C1217 1.524 . S
C1218 C1219 1.415 . S
C1219 H1189 0.950 . S
C1219 C1214 1.363 . S
C1219 C1218 1.415 . S
H1220 C1217 0.999 . S
H1221 C1202 0.913 . S
H1222 C1240 0.951 . S
H1223 C1242 0.951 . S
H1224 C1244 0.950 . S
H1225 C1245 0.950 . S
H1226 C1247 0.950 . S
H1227 C1250 0.950 . S
H1228 C1251 0.950 . S
H1229 C1253 0.950 . S
H1230 C1254 0.950 . S
H1231 C1255 0.951 . S
H1232 C1257 0.951 . S
H1233 C1259 0.950 . S
H1234 C1260 0.950 . S
H1235 C1262 0.950 . S
H1236 C1265 0.950 . S
H1237 C1266 0.950 . S
H1238 C1268 0.950 . S
H1239 C1269 0.950 . S
C1240 H1222 0.951 . S
C1240 C1241 1.366 . S
C1240 C1242 1.388 . S
C1241 C1240 1.366 . S
C1241 C1245 1.385 . S
C1242 H1223 0.951 . S
C1242 C1240 1.388 . S
C1242 C1243 1.366 . S
C1243 C1242 1.366 . S
C1243 C1244 1.414 . S
C1243 C1246 1.499 . S
C1244 H1224 0.950 . S
C1244 C1243 1.414 . S
C1244 C1245 1.374 . S
C1245 H1225 0.950 . S
C1245 C1241 1.385 . S
C1245 C1244 1.374 . S
C1246 C1243 1.499 . S
C1246 C1247 1.373 . S
C1246 C1248 1.389 . S
C1247 H1226 0.950 . S
C1247 C1246 1.373 . S
C1247 C1263 1.377 . S
C1248 C1246 1.389 . S
C1248 C1249 1.524 . S
C1248 C1262 1.377 . S
C1249 C1248 1.524 . S
C1249 C1250 1.397 . S
C1249 C1254 1.363 . S
C1250 H1227 0.950 . S
C1250 C1249 1.397 . S
C1250 C1251 1.334 . S
C1251 H1228 0.950 . S
C1251 C1250 1.334 . S
C1251 C1252 1.287 . S
C1252 C1251 1.287 . S
C1252 C1253 1.524 . S
C1252 H1271 0.913 . S
C1253 H1229 0.950 . S
C1253 C1252 1.524 . S
C1253 C1254 1.415 . S
C1254 H1230 0.950 . S
C1254 C1249 1.363 . S
C1254 C1253 1.415 . S
C1255 H1231 0.951 . S
C1255 C1256 1.366 . S
C1255 C1257 1.388 . S
C1256 C1255 1.366 . S
C1256 C1260 1.385 . S
C1257 H1232 0.951 . S
C1257 C1255 1.388 . S
C1257 C1258 1.366 . S
C1258 C1257 1.366 . S
C1258 C1259 1.414 . S
C1258 C1261 1.499 . S
C1259 H1233 0.950 . S
C1259 C1258 1.414 . S
C1259 C1260 1.374 . S
C1260 H1234 0.950 . S
C1260 C1256 1.385 . S
C1260 C1259 1.374 . S
C1261 C1258 1.499 . S
C1261 C1262 1.373 . S
C1261 C1263 1.389 . S
C1262 H1235 0.950 . S
C1262 C1248 1.377 . S
C1262 C1261 1.373 . S
C1263 C1247 1.377 . S
C1263 C1261 1.389 . S
C1263 C1264 1.524 . S
C1264 C1263 1.524 . S
C1264 C1265 1.397 . S
C1264 C1269 1.363 . S
C1265 H1236 0.950 . S
C1265 C1264 1.397 . S
C1265 C1266 1.334 . S
C1266 H1237 0.950 . S
C1266 C1265 1.334 . S
C1266 C1267 1.287 . S
C1267 C1266 1.287 . S
C1267 C1268 1.524 . S
C1267 H1270 0.999 . S
C1268 H1238 0.950 . S
C1268 C1267 1.524 . S
C1268 C1269 1.415 . S
C1269 H1239 0.950 . S
C1269 C1264 1.363 . S
C1269 C1268 1.415 . S
H1270 C1267 0.999 . S
H1271 C1252 0.913 . S
H1272 C1290 0.951 . S
H1273 C1292 0.951 . S
H1274 C1294 0.950 . S
H1275 C1295 0.950 . S
H1276 C1297 0.950 . S
H1277 C1300 0.950 . S
H1278 C1301 0.950 . S
H1279 C1303 0.950 . S
H1280 C1304 0.950 . S
H1281 C1305 0.951 . S
H1282 C1307 0.951 . S
H1283 C1309 0.950 . S
H1284 C1310 0.950 . S
H1285 C1312 0.950 . S
H1286 C1315 0.950 . S
H1287 C1316 0.950 . S
H1288 C1318 0.950 . S
H1289 C1319 0.950 . S
C1290 H1272 0.951 . S
C1290 C1291 1.366 . S
C1290 C1292 1.388 . S
C1291 C1290 1.366 . S
C1291 C1295 1.385 . S
C1292 H1273 0.951 . S
C1292 C1290 1.388 . S
C1292 C1293 1.366 . S
C1293 C1292 1.366 . S
C1293 C1294 1.414 . S
C1293 C1296 1.499 . S
C1294 H1274 0.950 . S
C1294 C1293 1.414 . S
C1294 C1295 1.374 . S
C1295 H1275 0.950 . S
C1295 C1291 1.385 . S
C1295 C1294 1.374 . S
C1296 C1293 1.499 . S
C1296 C1297 1.373 . S
C1296 C1298 1.389 . S
C1297 H1276 0.950 . S
C1297 C1296 1.373 . S
C1297 C1313 1.377 . S
C1298 C1296 1.389 . S
C1298 C1299 1.524 . S
C1298 C1312 1.377 . S
C1299 C1298 1.524 . S
C1299 C1300 1.397 . S
C1299 C1304 1.363 . S
C1300 H1277 0.950 . S
C1300 C1299 1.397 . S
C1300 C1301 1.334 . S
C1301 H1278 0.950 . S
C1301 C1300 1.334 . S
C1301 C1302 1.287 . S
C1302 C1301 1.287 . S
C1302 C1303 1.524 . S
C1302 H1321 0.913 . S
C1303 H1279 0.950 . S
C1303 C1302 1.524 . S
C1303 C1304 1.415 . S
C1304 H1280 0.950 . S
C1304 C1299 1.363 . S
C1304 C1303 1.415 . S
C1305 H1281 0.951 . S
C1305 C1306 1.366 . S
C1305 C1307 1.388 . S
C1306 C1305 1.366 . S
C1306 C1310 1.385 . S
C1307 H1282 0.951 . S
C1307 C1305 1.388 . S
C1307 C1308 1.366 . S
C1308 C1307 1.366 . S
C1308 C1309 1.414 . S
C1308 C1311 1.499 . S
C1309 H1283 0.950 . S
C1309 C1308 1.414 . S
C1309 C1310 1.374 . S
C1310 H1284 0.950 . S
C1310 C1306 1.385 . S
C1310 C1309 1.374 . S
C1311 C1308 1.499 . S
C1311 C1312 1.373 . S
C1311 C1313 1.389 . S
C1312 H1285 0.950 . S
C1312 C1298 1.377 . S
C1312 C1311 1.373 . S
C1313 C1297 1.377 . S
C1313 C1311 1.389 . S
C1313 C1314 1.524 . S
C1314 C1313 1.524 . S
C1314 C1315 1.397 . S
C1314 C1319 1.363 . S
C1315 H1286 0.950 . S
C1315 C1314 1.397 . S
C1315 C1316 1.334 . S
C1316 H1287 0.950 . S
C1316 C1315 1.334 . S
C1316 C1317 1.287 . S
C1317 C1316 1.287 . S
C1317 C1318 1.524 . S
C1317 H1320 0.999 . S
C1318 H1288 0.950 . S
C1318 C1317 1.524 . S
C1318 C1319 1.415 . S
C1319 H1289 0.950 . S
C1319 C1314 1.363 . S
C1319 C1318 1.415 . S
H1320 C1317 0.999 . S
H1321 C1302 0.913 . S
H1322 C1340 0.951 . S
H1323 C1342 0.951 . S
H1324 C1344 0.950 . S
H1325 C1345 0.950 . S
H1326 C1347 0.950 . S
H1327 C1350 0.950 . S
H1328 C1351 0.950 . S
H1329 C1353 0.950 . S
H1330 C1354 0.950 . S
H1331 C1355 0.951 . S
H1332 C1357 0.951 . S
H1333 C1359 0.950 . S
H1334 C1360 0.950 . S
H1335 C1362 0.950 . S
H1336 C1365 0.950 . S
H1337 C1366 0.950 . S
H1338 C1368 0.950 . S
H1339 C1369 0.950 . S
C1340 H1322 0.951 . S
C1340 C1341 1.366 . S
C1340 C1342 1.388 . S
C1341 C1340 1.366 . S
C1341 C1345 1.385 . S
C1342 H1323 0.951 . S
C1342 C1340 1.388 . S
C1342 C1343 1.366 . S
C1343 C1342 1.366 . S
C1343 C1344 1.414 . S
C1343 C1346 1.499 . S
C1344 H1324 0.950 . S
C1344 C1343 1.414 . S
C1344 C1345 1.374 . S
C1345 H1325 0.950 . S
C1345 C1341 1.385 . S
C1345 C1344 1.374 . S
C1346 C1343 1.499 . S
C1346 C1347 1.373 . S
C1346 C1348 1.389 . S
C1347 H1326 0.950 . S
C1347 C1346 1.373 . S
C1347 C1363 1.377 . S
C1348 C1346 1.389 . S
C1348 C1349 1.524 . S
C1348 C1362 1.377 . S
C1349 C1348 1.524 . S
C1349 C1350 1.397 . S
C1349 C1354 1.363 . S
C1350 H1327 0.950 . S
C1350 C1349 1.397 . S
C1350 C1351 1.334 . S
C1351 H1328 0.950 . S
C1351 C1350 1.334 . S
C1351 C1352 1.287 . S
C1352 C1351 1.287 . S
C1352 C1353 1.524 . S
C1352 H1371 0.913 . S
C1353 H1329 0.950 . S
C1353 C1352 1.524 . S
C1353 C1354 1.415 . S
C1354 H1330 0.950 . S
C1354 C1349 1.363 . S
C1354 C1353 1.415 . S
C1355 H1331 0.951 . S
C1355 C1356 1.366 . S
C1355 C1357 1.388 . S
C1356 C1355 1.366 . S
C1356 C1360 1.385 . S
C1357 H1332 0.951 . S
C1357 C1355 1.388 . S
C1357 C1358 1.366 . S
C1358 C1357 1.366 . S
C1358 C1359 1.414 . S
C1358 C1361 1.499 . S
C1359 H1333 0.950 . S
C1359 C1358 1.414 . S
C1359 C1360 1.374 . S
C1360 H1334 0.950 . S
C1360 C1356 1.385 . S
C1360 C1359 1.374 . S
C1361 C1358 1.499 . S
C1361 C1362 1.373 . S
C1361 C1363 1.389 . S
C1362 H1335 0.950 . S
C1362 C1348 1.377 . S
C1362 C1361 1.373 . S
C1363 C1347 1.377 . S
C1363 C1361 1.389 . S
C1363 C1364 1.524 . S
C1364 C1363 1.524 . S
C1364 C1365 1.397 . S
C1364 C1369 1.363 . S
C1365 H1336 0.950 . S
C1365 C1364 1.397 . S
C1365 C1366 1.334 . S
C1366 H1337 0.950 . S
C1366 C1365 1.334 . S
C1366 C1367 1.287 . S
C1367 C1366 1.287 . S
C1367 C1368 1.524 . S
C1367 H1370 0.999 . S
C1368 H1338 0.950 . S
C1368 C1367 1.524 . S
C1368 C1369 1.415 . S
C1369 H1339 0.950 . S
C1369 C1364 1.363 . S
C1369 C1368 1.415 . S
H1370 C1367 0.999 . S
H1371 C1352 0.913 . S
H1372 C1390 0.951 . S
H1373 C1392 0.951 . S
H1374 C1394 0.950 . S
H1375 C1395 0.950 . S
H1376 C1397 0.950 . S
H1377 C1400 0.950 . S
H1378 C1401 0.950 . S
H1379 C1403 0.950 . S
H1380 C1404 0.950 . S
H1381 C1405 0.951 . S
H1382 C1407 0.951 . S
H1383 C1409 0.950 . S
H1384 C1410 0.950 . S
H1385 C1412 0.950 . S
H1386 C1415 0.950 . S
H1387 C1416 0.950 . S
H1388 C1418 0.950 . S
H1389 C1419 0.950 . S
C1390 H1372 0.951 . S
C1390 C1391 1.366 . S
C1390 C1392 1.388 . S
C1391 C1390 1.366 . S
C1391 C1395 1.385 . S
C1392 H1373 0.951 . S
C1392 C1390 1.388 . S
C1392 C1393 1.366 . S
C1393 C1392 1.366 . S
C1393 C1394 1.414 . S
C1393 C1396 1.499 . S
C1394 H1374 0.950 . S
C1394 C1393 1.414 . S
C1394 C1395 1.374 . S
C1395 H1375 0.950 . S
C1395 C1391 1.385 . S
C1395 C1394 1.374 . S
C1396 C1393 1.499 . S
C1396 C1397 1.373 . S
C1396 C1398 1.389 . S
C1397 H1376 0.950 . S
C1397 C1396 1.373 . S
C1397 C1413 1.377 . S
C1398 C1396 1.389 . S
C1398 C1399 1.524 . S
C1398 C1412 1.377 . S
C1399 C1398 1.524 . S
C1399 C1400 1.397 . S
C1399 C1404 1.363 . S
C1400 H1377 0.950 . S
C1400 C1399 1.397 . S
C1400 C1401 1.334 . S
C1401 H1378 0.950 . S
C1401 C1400 1.334 . S
C1401 C1402 1.287 . S
C1402 C1401 1.287 . S
C1402 C1403 1.524 . S
C1402 H1421 0.913 . S
C1403 H1379 0.950 . S
C1403 C1402 1.524 . S
C1403 C1404 1.415 . S
C1404 H1380 0.950 . S
C1404 C1399 1.363 . S
C1404 C1403 1.415 . S
C1405 H1381 0.951 . S
C1405 C1406 1.366 . S
C1405 C1407 1.388 . S
C1406 C1405 1.366 . S
C1406 C1410 1.385 . S
C1407 H1382 0.951 . S
C1407 C1405 1.388 . S
C1407 C1408 1.366 . S
C1408 C1407 1.366 . S
C1408 C1409 1.414 . S
C1408 C1411 1.499 . S
C1409 H1383 0.950 . S
C1409 C1408 1.414 . S
C1409 C1410 1.374 . S
C1410 H1384 0.950 . S
C1410 C1406 1.385 . S
C1410 C1409 1.374 . S
C1411 C1408 1.499 . S
C1411 C1412 1.373 . S
C1411 C1413 1.389 . S
C1412 H1385 0.950 . S
C1412 C1398 1.377 . S
C1412 C1411 1.373 . S
C1413 C1397 1.377 . S
C1413 C1411 1.389 . S
C1413 C1414 1.524 . S
C1414 C1413 1.524 . S
C1414 C1415 1.397 . S
C1414 C1419 1.363 . S
C1415 H1386 0.950 . S
C1415 C1414 1.397 . S
C1415 C1416 1.334 . S
C1416 H1387 0.950 . S
C1416 C1415 1.334 . S
C1416 C1417 1.287 . S
C1417 C1416 1.287 . S
C1417 C1418 1.524 . S
C1417 H1420 0.999 . S
C1418 H1388 0.950 . S
C1418 C1417 1.524 . S
C1418 C1419 1.415 . S
C1419 H1389 0.950 . S
C1419 C1414 1.363 . S
C1419 C1418 1.415 . S
H1420 C1417 0.999 . S
H1421 C1402 0.913 . S
H1422 C1440 0.951 . S
H1423 C1442 0.951 . S
H1424 C1444 0.950 . S
H1425 C1445 0.950 . S
H1426 C1447 0.950 . S
H1427 C1450 0.950 . S
H1428 C1451 0.950 . S
H1429 C1453 0.950 . S
H1430 C1454 0.950 . S
H1431 C1455 0.951 . S
H1432 C1457 0.951 . S
H1433 C1459 0.950 . S
H1434 C1460 0.950 . S
H1435 C1462 0.950 . S
H1436 C1465 0.950 . S
H1437 C1466 0.950 . S
H1438 C1468 0.950 . S
H1439 C1469 0.950 . S
C1440 H1422 0.951 . S
C1440 C1441 1.366 . S
C1440 C1442 1.388 . S
C1441 C1440 1.366 . S
C1441 C1445 1.385 . S
C1442 H1423 0.951 . S
C1442 C1440 1.388 . S
C1442 C1443 1.366 . S
C1443 C1442 1.366 . S
C1443 C1444 1.414 . S
C1443 C1446 1.499 . S
C1444 H1424 0.950 . S
C1444 C1443 1.414 . S
C1444 C1445 1.374 . S
C1445 H1425 0.950 . S
C1445 C1441 1.385 . S
C1445 C1444 1.374 . S
C1446 C1443 1.499 . S
C1446 C1447 1.373 . S
C1446 C1448 1.389 . S
C1447 H1426 0.950 . S
C1447 C1446 1.373 . S
C1447 C1463 1.377 . S
C1448 C1446 1.389 . S
C1448 C1449 1.524 . S
C1448 C1462 1.377 . S
C1449 C1448 1.524 . S
C1449 C1450 1.397 . S
C1449 C1454 1.363 . S
C1450 H1427 0.950 . S
C1450 C1449 1.397 . S
C1450 C1451 1.334 . S
C1451 H1428 0.950 . S
C1451 C1450 1.334 . S
C1451 C1452 1.287 . S
C1452 C1451 1.287 . S
C1452 C1453 1.524 . S
C1452 H1471 0.913 . S
C1453 H1429 0.950 . S
C1453 C1452 1.524 . S
C1453 C1454 1.415 . S
C1454 H1430 0.950 . S
C1454 C1449 1.363 . S
C1454 C1453 1.415 . S
C1455 H1431 0.951 . S
C1455 C1456 1.366 . S
C1455 C1457 1.388 . S
C1456 C1455 1.366 . S
C1456 C1460 1.385 . S
C1457 H1432 0.951 . S
C1457 C1455 1.388 . S
C1457 C1458 1.366 . S
C1458 C1457 1.366 . S
C1458 C1459 1.414 . S
C1458 C1461 1.499 . S
C1459 H1433 0.950 . S
C1459 C1458 1.414 . S
C1459 C1460 1.374 . S
C1460 H1434 0.950 . S
C1460 C1456 1.385 . S
C1460 C1459 1.374 . S
C1461 C1458 1.499 . S
C1461 C1462 1.373 . S
C1461 C1463 1.389 . S
C1462 H1435 0.950 . S
C1462 C1448 1.377 . S
C1462 C1461 1.373 . S
C1463 C1447 1.377 . S
C1463 C1461 1.389 . S
C1463 C1464 1.524 . S
C1464 C1463 1.524 . S
C1464 C1465 1.397 . S
C1464 C1469 1.363 . S
C1465 H1436 0.950 . S
C1465 C1464 1.397 . S
C1465 C1466 1.334 . S
C1466 H1437 0.950 . S
C1466 C1465 1.334 . S
C1466 C1467 1.287 . S
C1467 C1466 1.287 . S
C1467 C1468 1.524 . S
C1467 H1470 0.999 . S
C1468 H1438 0.950 . S
C1468 C1467 1.524 . S
C1468 C1469 1.415 . S
C1469 H1439 0.950 . S
C1469 C1464 1.363 . S
C1469 C1468 1.415 . S
H1470 C1467 0.999 . S
H1471 C1452 0.913 . S
H1472 C1490 0.951 . S
H1473 C1492 0.951 . S
H1474 C1494 0.950 . S
H1475 C1495 0.950 . S
H1476 C1497 0.950 . S
H1477 C1500 0.950 . S
H1478 C1501 0.950 . S
H1479 C1503 0.950 . S
H1480 C1504 0.950 . S
H1481 C1505 0.951 . S
H1482 C1507 0.951 . S
H1483 C1509 0.950 1_554 S
H1484 C1510 0.950 . S
H1485 C1512 0.950 . S
H1486 C1515 0.950 . S
H1487 C1516 0.950 . S
H1488 C1518 0.950 . S
H1489 C1519 0.950 . S
C1490 H1472 0.951 . S
C1490 C1491 1.366 . S
C1490 C1492 1.388 . S
C1491 C1490 1.366 . S
C1491 C1495 1.385 . S
C1492 H1473 0.951 . S
C1492 C1490 1.388 . S
C1492 C1493 1.366 . S
C1493 C1492 1.366 . S
C1493 C1494 1.414 . S
C1493 C1496 1.499 . S
C1494 H1474 0.950 . S
C1494 C1493 1.414 . S
C1494 C1495 1.374 . S
C1495 H1475 0.950 . S
C1495 C1491 1.385 . S
C1495 C1494 1.374 . S
C1496 C1493 1.499 . S
C1496 C1497 1.373 . S
C1496 C1498 1.389 . S
C1497 H1476 0.950 . S
C1497 C1496 1.373 . S
C1497 C1513 1.377 . S
C1498 C1496 1.389 . S
C1498 C1499 1.524 . S
C1498 C1512 1.377 . S
C1499 C1498 1.524 . S
C1499 C1500 1.397 . S
C1499 C1504 1.363 . S
C1500 H1477 0.950 . S
C1500 C1499 1.397 . S
C1500 C1501 1.334 . S
C1501 H1478 0.950 . S
C1501 C1500 1.334 . S
C1501 C1502 1.287 . S
C1502 C1501 1.287 . S
C1502 C1503 1.524 . S
C1502 H1521 0.913 . S
C1503 H1479 0.950 . S
C1503 C1502 1.524 . S
C1503 C1504 1.415 . S
C1504 H1480 0.950 . S
C1504 C1499 1.363 . S
C1504 C1503 1.415 . S
C1505 H1481 0.951 . S
C1505 C1506 1.366 . S
C1505 C1507 1.388 . S
C1506 C1505 1.366 . S
C1506 C1510 1.385 . S
C1507 H1482 0.951 . S
C1507 C1505 1.388 . S
C1507 C1508 1.366 . S
C1508 C1507 1.366 . S
C1508 C1509 1.414 . S
C1508 C1511 1.499 1_556 S
C1509 H1483 0.950 1_556 S
C1509 C1508 1.414 . S
C1509 C1510 1.374 . S
C1510 H1484 0.950 . S
C1510 C1506 1.385 . S
C1510 C1509 1.374 . S
C1511 C1508 1.499 1_554 S
C1511 C1512 1.373 . S
C1511 C1513 1.389 . S
C1512 H1485 0.950 . S
C1512 C1498 1.377 . S
C1512 C1511 1.373 . S
C1513 C1497 1.377 . S
C1513 C1511 1.389 . S
C1513 C1514 1.524 1_554 S
C1514 C1513 1.524 1_556 S
C1514 C1515 1.397 . S
C1514 C1519 1.363 . S
C1515 H1486 0.950 . S
C1515 C1514 1.397 . S
C1515 C1516 1.334 . S
C1516 H1487 0.950 . S
C1516 C1515 1.334 . S
C1516 C1517 1.287 . S
C1517 C1516 1.287 . S
C1517 C1518 1.524 . S
C1517 H1520 0.999 . S
C1518 H1488 0.950 . S
C1518 C1517 1.524 . S
C1518 C1519 1.415 . S
C1519 H1489 0.950 . S
C1519 C1514 1.363 . S
C1519 C1518 1.415 . S
H1520 C1517 0.999 . S
H1521 C1502 0.913 . S
H1522 C1540 0.951 . S
H1523 C1542 0.951 . S
H1524 C1544 0.950 . S
H1525 C1545 0.950 . S
H1526 C1547 0.950 . S
H1527 C1550 0.950 . S
H1528 C1551 0.950 . S
H1529 C1553 0.950 . S
H1530 C1554 0.950 . S
H1531 C1555 0.951 . S
H1532 C1557 0.951 . S
H1533 C1559 0.950 . S
H1534 C1560 0.950 . S
H1535 C1562 0.950 . S
H1536 C1565 0.950 . S
H1537 C1566 0.950 . S
H1538 C1568 0.950 . S
H1539 C1569 0.950 . S
C1540 H1522 0.951 . S
C1540 C1541 1.366 . S
C1540 C1542 1.388 . S
C1541 C1540 1.366 . S
C1541 C1545 1.385 . S
C1542 H1523 0.951 . S
C1542 C1540 1.388 . S
C1542 C1543 1.366 . S
C1543 C1542 1.366 . S
C1543 C1544 1.414 . S
C1543 C1546 1.499 . S
C1544 H1524 0.950 . S
C1544 C1543 1.414 . S
C1544 C1545 1.374 . S
C1545 H1525 0.950 . S
C1545 C1541 1.385 . S
C1545 C1544 1.374 . S
C1546 C1543 1.499 . S
C1546 C1547 1.373 . S
C1546 C1548 1.389 . S
C1547 H1526 0.950 . S
C1547 C1546 1.373 . S
C1547 C1563 1.377 . S
C1548 C1546 1.389 . S
C1548 C1549 1.524 . S
C1548 C1562 1.377 . S
C1549 C1548 1.524 . S
C1549 C1550 1.397 . S
C1549 C1554 1.363 . S
C1550 H1527 0.950 . S
C1550 C1549 1.397 . S
C1550 C1551 1.334 . S
C1551 H1528 0.950 . S
C1551 C1550 1.334 . S
C1551 C1552 1.287 . S
C1552 C1551 1.287 . S
C1552 C1553 1.524 . S
C1552 H1571 0.913 . S
C1553 H1529 0.950 . S
C1553 C1552 1.524 . S
C1553 C1554 1.415 . S
C1554 H1530 0.950 . S
C1554 C1549 1.363 . S
C1554 C1553 1.415 . S
C1555 H1531 0.951 . S
C1555 C1556 1.366 . S
C1555 C1557 1.388 . S
C1556 C1555 1.366 . S
C1556 C1560 1.385 . S
C1557 H1532 0.951 . S
C1557 C1555 1.388 . S
C1557 C1558 1.366 . S
C1558 C1557 1.366 . S
C1558 C1559 1.414 . S
C1558 C1561 1.499 . S
C1559 H1533 0.950 . S
C1559 C1558 1.414 . S
C1559 C1560 1.374 . S
C1560 H1534 0.950 . S
C1560 C1556 1.385 . S
C1560 C1559 1.374 . S
C1561 C1558 1.499 . S
C1561 C1562 1.373 . S
C1561 C1563 1.389 . S
C1562 H1535 0.950 . S
C1562 C1548 1.377 . S
C1562 C1561 1.373 . S
C1563 C1547 1.377 . S
C1563 C1561 1.389 . S
C1563 C1564 1.524 . S
C1564 C1563 1.524 . S
C1564 C1565 1.397 . S
C1564 C1569 1.363 . S
C1565 H1536 0.950 . S
C1565 C1564 1.397 . S
C1565 C1566 1.334 . S
C1566 H1537 0.950 . S
C1566 C1565 1.334 . S
C1566 C1567 1.287 . S
C1567 C1566 1.287 . S
C1567 C1568 1.524 . S
C1567 H1570 0.999 . S
C1568 H1538 0.950 . S
C1568 C1567 1.524 . S
C1568 C1569 1.415 . S
C1569 H1539 0.950 . S
C1569 C1564 1.363 . S
C1569 C1568 1.415 . S
H1570 C1567 0.999 . S
H1571 C1552 0.913 . S
C406 C361 1.620 . S
C391 C45 1.624 . S
C441 C84 1.619 . S
C456 C291 1.621 . S
C491 C126 1.611 . S
C506 C310 1.643 . S
C541 C189 1.623 . S
C556 C319 1.620 . S
C606 C333 1.621 . S
C591 C228 1.619 . S
C641 C270 1.612 . S
C656 C352 1.643 . S
C691 C69 1.584 . S
C706 C305 1.597 . S
C741 C141 1.620 . S
C756 C324 1.618 . S
C791 C174 1.591 . S
C806 C338 1.619 . S
C856 C347 1.597 . S
C841 C213 1.584 . S
C906 C366 1.618 . S
C891 C285 1.620 . S
C956 C296 1.619 . S
C941 C30 1.590 . S
C991 C36 1.505 . S
C1006 C311 1.493 . S
C1041 C93 1.495 . S
C1056 C323 1.472 . S
C1106 C337 1.481 . S
C1091 C117 1.506 . S
C1141 C180 1.505 . S
C1156 C353 1.493 . S
C1206 C365 1.472 . S
C1191 C237 1.495 . S
C1256 C295 1.480 . S
C1241 C261 1.506 . S
C1306 C367 1.499 . S
C1291 C78 1.503 . S
C1341 C132 1.524 . S
C1356 C297 1.515 . S
C1406 C309 1.488 . S
C1391 C165 1.512 . S
C1441 C222 1.503 . S
C1456 C325 1.500 . S
C1491 C276 1.524 . S
C1506 C339 1.515 . S
C1541 C21 1.512 . S
C1556 C351 1.488 . S
