# Generated by pormake.
# Topology anh, (6,3)-cn, num edge types: 1
# Building blocks:
#     Node 0, Type 0, BuildingBlock: PAMTOO_clean_sbu_0, # of connection points: 6
#     Node 1, Type 0, BuildingBlock: PAMTOO_clean_sbu_0, # of connection points: 6
#     Node 2, Type 0, BuildingBlock: PAMTOO_clean_sbu_0, # of connection points: 6
#     Node 3, Type 1, BuildingBlock: QEWDON_clean_linker_0, # of connection points: 3
#     Node 4, Type 1, BuildingBlock: QEWDON_clean_linker_0, # of connection points: 3
#     Node 5, Type 1, BuildingBlock: QEWDON_clean_linker_0, # of connection points: 3
#     Node 6, Type 1, BuildingBlock: QEWDON_clean_linker_0, # of connection points: 3
#     Node 7, Type 1, BuildingBlock: QEWDON_clean_linker_0, # of connection points: 3
#     Node 8, Type 1, BuildingBlock: QEWDON_clean_linker_0, # of connection points: 3
#     Edge 9, Type (0, 1), BuildingBlock: TEMPAE_clean_linker_10, # of connection points: 2
#     Edge 10, Type (0, 1), BuildingBlock: TEMPAE_clean_linker_10, # of connection points: 2
#     Edge 11, Type (0, 1), BuildingBlock: TEMPAE_clean_linker_10, # of connection points: 2
#     Edge 12, Type (0, 1), BuildingBlock: TEMPAE_clean_linker_10, # of connection points: 2
#     Edge 13, Type (0, 1), BuildingBlock: TEMPAE_clean_linker_10, # of connection points: 2
#     Edge 14, Type (0, 1), BuildingBlock: TEMPAE_clean_linker_10, # of connection points: 2
#     Edge 15, Type (0, 1), BuildingBlock: TEMPAE_clean_linker_10, # of connection points: 2
#     Edge 16, Type (0, 1), BuildingBlock: TEMPAE_clean_linker_10, # of connection points: 2
#     Edge 17, Type (0, 1), BuildingBlock: TEMPAE_clean_linker_10, # of connection points: 2
#     Edge 18, Type (0, 1), BuildingBlock: TEMPAE_clean_linker_10, # of connection points: 2
#     Edge 19, Type (0, 1), BuildingBlock: TEMPAE_clean_linker_10, # of connection points: 2
#     Edge 20, Type (0, 1), BuildingBlock: TEMPAE_clean_linker_10, # of connection points: 2
#     Edge 21, Type (0, 1), BuildingBlock: TEMPAE_clean_linker_10, # of connection points: 2
#     Edge 22, Type (0, 1), BuildingBlock: TEMPAE_clean_linker_10, # of connection points: 2
#     Edge 23, Type (0, 1), BuildingBlock: TEMPAE_clean_linker_10, # of connection points: 2
#     Edge 24, Type (0, 1), BuildingBlock: TEMPAE_clean_linker_10, # of connection points: 2
#     Edge 25, Type (0, 1), BuildingBlock: TEMPAE_clean_linker_10, # of connection points: 2
#     Edge 26, Type (0, 1), BuildingBlock: TEMPAE_clean_linker_10, # of connection points: 2
# Relax obj value: 0.128
# Max RMSD: 0.151
# Mean RMSD: 0.118
data_MOF--net-anh--node1-PAMTOO_clean_sbu_0--node2-QEWDON_clean_linker_0--edge1-TEMPAE_clean_linker_10
_symmetry_space_group_name_H-M    P1
_symmetry_Int_Tables_number       1
_symmetry_cell_setting            triclinic
loop_
_symmetry_equiv_pos_as_xyz
'x, y, z'
_cell_length_a     32.169829
_cell_length_b     31.322445
_cell_length_c     48.962579
_cell_angle_alpha  94.798972
_cell_angle_beta   99.622188
_cell_angle_gamma 102.43303
loop_
_atom_site_label
_atom_site_type_symbol
_atom_site_fract_x
_atom_site_fract_y
_atom_site_fract_z
_atom_type_partial_charge
Dy0 Dy 0.10784 0.61544 0.16154 0.0
Dy1 Dy 0.08031 0.51045 0.14036 0.0
C2 C 0.10276 0.58103 0.09837 0.0
O3 O 1.03531 0.60037 0.14467 0.0
O4 O 1.02009 0.52791 0.15166 0.0
O5 O 0.10733 0.68269 0.15504 0.0
O6 O 0.13899 0.66794 0.19472 0.0
O7 O 0.10094 0.51797 0.18686 0.0
O8 O 0.08159 0.58275 0.1957 0.0
O9 O 0.15115 0.5284 0.13736 0.0
O10 O 0.1712 0.59296 0.16728 0.0
O11 O 0.08525 0.44354 0.14491 0.0
O12 O 1.03908 0.45661 0.11106 0.0
C13 C 1.00707 0.56436 0.14751 0.0
O14 O 0.12484 0.60939 0.11966 0.0
O15 O 1.07623 0.5445 0.10176 0.0
C16 C 0.17177 0.73401 0.17886 0.0
C17 C 0.24711 0.80029 0.1793 0.0
C18 C 0.21557 0.78616 0.15476 0.0
C19 C 0.17829 0.75337 0.15453 0.0
C20 C 0.20301 0.74853 0.20343 0.0
C21 C 0.24033 0.78103 0.20361 0.0
C22 C 0.13303 0.69864 0.17901 0.0
C23 C 0.09 0.54633 0.20385 0.0
C24 C 0.18163 0.56077 0.15254 0.0
C25 C 1.01643 0.39476 0.13301 0.0
C26 C 0.94232 0.33816 0.14447 0.0
C27 C 0.96172 0.3781 0.1617 0.0
C28 C 0.99837 0.4062 0.15597 0.0
C29 C 0.99802 0.35448 0.11621 0.0
C30 C 0.96123 0.32633 0.1219 0.0
C31 C 1.05164 0.42671 0.12517 0.0
H32 H 0.2195 0.80072 0.13579 0.0
H33 H 0.15469 0.74319 0.13528 0.0
H34 H 0.19882 0.7344 0.22252 0.0
H35 H 0.26421 0.7906 0.22277 0.0
H36 H 0.94756 0.3885 0.17895 0.0
H37 H 1.01184 0.43752 0.16895 0.0
H38 H 1.0114 0.34535 0.0983 0.0
H39 H 0.94716 0.29562 0.10839 0.0
Dy40 Dy 0.5996 0.026 0.50088 0.0
Dy41 Dy 0.70612 0.05252 0.51171 0.0
C42 C 0.654 0.03213 0.56091 0.0
O43 O 0.62017 0.09857 0.5156 0.0
O44 O 0.68494 0.11321 0.50081 0.0
O45 O 0.54073 0.02742 0.51627 0.0
O46 O 0.53767 0.99674 0.47437 0.0
O47 O 0.68411 0.03881 0.46531 0.0
O48 O 0.61584 0.05127 0.46197 0.0
O49 O 0.68949 0.98043 0.51572 0.0
O50 O 0.61989 0.96351 0.49035 0.0
O51 O 0.76781 0.04896 0.50072 0.0
O52 O 0.76557 0.09065 0.53771 0.0
C53 C 0.65238 0.12653 0.50872 0.0
O54 O 0.62243 1.00687 0.54236 0.0
O55 O 0.68542 0.05971 0.55308 0.0
C56 C 0.4841 0.9652 0.49858 0.0
C57 C 0.42165 0.88968 0.50382 0.0
C58 C 0.46612 0.89027 0.50996 0.0
C59 C 0.49713 0.9278 0.50737 0.0
C60 C 0.44002 0.96523 0.49315 0.0
C61 C 0.40902 0.92781 0.49575 0.0
C62 C 0.51602 1.00363 0.49393 0.0
C63 C 0.64904 0.04665 0.45065 0.0
C64 C 0.65461 0.95138 0.50228 0.0
C65 C 0.81573 0.11919 0.51081 0.0
C66 C 0.86123 0.20041 0.4983 0.0
C67 C 0.81976 0.1799 0.48281 0.0
C68 C 0.79718 0.13974 0.48907 0.0
C69 C 0.8576 0.13864 0.52568 0.0
C70 C 0.88026 0.17889 0.51944 0.0
C71 C 0.78933 0.08082 0.52014 0.0
H72 H 0.47687 0.86156 0.51642 0.0
H73 H 0.5312 0.92739 0.51171 0.0
H74 H 0.42952 0.99385 0.48627 0.0
H75 H 0.37506 0.92821 0.49041 0.0
H76 H 0.80439 0.19532 0.4662 0.0
H77 H 0.76463 0.12542 0.47752 0.0
H78 H 0.87211 0.12354 0.54279 0.0
H79 H 0.9119 0.19407 0.532 0.0
Dy80 Dy 0.63721 0.55296 0.82972 0.0
Dy81 Dy 0.53133 0.52834 0.81405 0.0
C82 C 0.58869 0.53227 0.76633 0.0
O83 O 0.62027 0.61611 0.81932 0.0
O84 O 0.55064 0.60099 0.82706 0.0
O85 O 0.69962 0.58724 0.82321 0.0
O86 O 0.69539 0.54376 0.85535 0.0
O87 O 0.55098 0.52542 0.85986 0.0
O88 O 0.61585 0.57569 0.86815 0.0
O89 O 0.54874 0.46442 0.80399 0.0
O90 O 0.61397 0.48151 0.83439 0.0
O91 O 0.4694 0.49695 0.82343 0.0
O92 O 0.47207 0.53593 0.78902 0.0
C93 C 0.58507 0.6289 0.82291 0.0
O94 O 0.62193 0.52813 0.78452 0.0
O95 O 0.55273 0.53842 0.7735 0.0
C96 C 0.75285 0.54547 0.83026 0.0
C97 C 0.82257 0.51424 0.81486 0.0
C98 C 0.80551 0.5451 0.80005 0.0
C99 C 0.77116 0.56068 0.80774 0.0
C100 C 0.76767 0.51211 0.84369 0.0
C101 C 0.80209 0.49647 0.83596 0.0
C102 C 0.72048 0.56632 0.84065 0.0
C103 C 0.58258 0.5534 0.87715 0.0
C104 C 0.58151 0.45238 0.8185 0.0
C105 C 0.42759 0.55003 0.81963 0.0
C106 C 0.39954 0.62416 0.83887 0.0
C107 C 0.43557 0.61292 0.85431 0.0
C108 C 0.44948 0.57622 0.84478 0.0
C109 C 0.39058 0.56007 0.80472 0.0
C110 C 0.37649 0.59679 0.81434 0.0
C111 C 0.44887 0.51901 0.80657 0.0
H112 H 0.82098 0.56006 0.78403 0.0
H113 H 0.76045 0.58629 0.79689 0.0
H114 H 0.75402 0.49947 0.861 0.0
H115 H 0.81451 0.47256 0.84767 0.0
H116 H 0.4536 0.63308 0.87344 0.0
H117 H 0.47871 0.56965 0.85639 0.0
H118 H 0.37395 0.54091 0.78495 0.0
H119 H 0.34878 0.60493 0.80189 0.0
H120 H 0.62891 0.12317 0.23804 0.0
C121 C 0.60143 0.09609 0.22931 0.0
C122 C 0.58866 0.06233 0.24549 0.0
C123 C 0.57798 0.09569 0.20225 0.0
H124 H 0.54066 1.00352 0.24733 0.0
C125 C 0.55211 0.02819 0.23434 0.0
C126 C 0.52848 0.02698 0.20737 0.0
C127 C 0.54192 0.06065 0.19136 0.0
C128 C 0.58956 0.13282 0.1858 0.0
H129 H 0.52413 0.05967 0.17038 0.0
C130 C 0.63314 0.15171 0.18494 0.0
C131 C 0.6438 0.18701 0.16938 0.0
C132 C 0.55671 0.14986 0.17098 0.0
H133 H 0.52294 0.13661 0.17161 0.0
C134 C 0.56708 0.18467 0.15548 0.0
H135 H 0.65872 0.13896 0.19636 0.0
C136 C 0.61024 0.20311 0.15459 0.0
H137 H 0.6173 0.2297 0.14205 0.0
H138 H 0.54152 0.19743 0.14409 0.0
H139 H 0.62267 0.56237 0.55371 0.0
C140 C 0.62894 0.53064 0.54776 0.0
C141 C 0.63254 0.5013 0.56784 0.0
C142 C 0.63229 0.51874 0.51992 0.0
H143 H 0.63909 0.43572 0.57441 0.0
C144 C 0.63914 0.45962 0.55965 0.0
C145 C 0.64414 0.44741 0.53243 0.0
C146 C 0.64082 0.4772 0.51268 0.0
C147 C 0.6244 0.54836 0.49808 0.0
H148 H 0.645 0.46794 0.49168 0.0
C149 C 0.63671 0.59489 0.50418 0.0
C150 C 0.6276 0.6221 0.48341 0.0
C151 C 0.60271 0.52981 0.47088 0.0
H152 H 0.59147 0.49448 0.46549 0.0
C153 C 0.59399 0.55653 0.45032 0.0
H154 H 0.65387 0.61001 0.52483 0.0
C155 C 0.60621 0.60221 0.45647 0.0
H156 H 0.59798 0.62201 0.44019 0.0
H157 H 0.57706 0.54171 0.42957 0.0
H158 H 0.16348 0.74574 0.92504 0.0
C159 C 0.14538 0.72296 0.90695 0.0
C160 C 0.12662 0.67937 0.91018 0.0
C161 C 0.14127 0.73717 0.88037 0.0
H162 H 0.08876 0.61654 0.88917 0.0
C163 C 0.10457 0.64983 0.88658 0.0
C164 C 0.09959 0.66379 0.85999 0.0
C165 C 0.11768 0.70769 0.85699 0.0
C166 C 0.1661 0.78096 0.87664 0.0
H167 H 0.11406 0.71861 0.83646 0.0
C168 C 0.21128 0.78949 0.88284 0.0
C169 C 0.23687 0.8279 0.87602 0.0
C170 C 0.14596 0.8122 0.86459 0.0
H171 H 0.11094 0.80593 0.85941 0.0
C172 C 0.17125 0.85153 0.85879 0.0
H173 H 0.22647 0.76415 0.89088 0.0
C174 C 0.21658 0.85911 0.86401 0.0
H175 H 0.23564 0.88852 0.85802 0.0
H176 H 0.15565 0.87548 0.84934 0.0
H177 H 1.06138 0.54665 0.41706 0.0
C178 C 0.09198 0.56868 0.42703 0.0
C179 C 0.12378 0.58299 0.41112 0.0
C180 C 0.09835 0.58498 0.45547 0.0
H181 H 0.18805 0.62294 0.41271 0.0
C182 C 0.16262 0.61263 0.42439 0.0
C183 C 0.16877 0.63049 0.45237 0.0
C184 C 0.13683 0.61599 0.46796 0.0
C185 C 1.06371 0.57186 0.47176 0.0
H186 H 0.1414 0.62976 0.48961 0.0
C187 C 1.04298 0.52724 0.47101 0.0
C188 C 1.01092 0.51485 0.48709 0.0
C189 C 1.05147 0.60409 0.48836 0.0
H190 H 1.06648 0.63871 0.48902 0.0
C191 C 1.01933 0.59203 0.50401 0.0
H192 H 1.05278 0.50215 0.45864 0.0
C193 C 0.99922 0.54775 0.50348 0.0
H194 H 0.97423 0.53925 0.51574 0.0
H195 H 1.00997 0.61711 0.51662 0.0
H196 H 0.58369 0.00888 0.76503 0.0
C197 C 0.58801 0.04309 0.77321 0.0
C198 C 0.60073 0.0759 0.75643 0.0
C199 C 0.57829 0.05406 0.79955 0.0
H200 H 0.61261 0.14512 0.75275 0.0
C201 C 0.60383 0.12011 0.7661 0.0
C202 C 0.59473 0.13227 0.79232 0.0
C203 C 0.58256 0.09901 0.80907 0.0
C204 C 0.56074 0.01854 0.81611 0.0
H205 H 0.57639 0.10827 0.82955 0.0
C206 C 0.57378 0.97809 0.81549 0.0
C207 C 0.5552 0.94409 0.83009 0.0
C208 C 0.52894 0.02423 0.83176 0.0
H209 H 0.51695 0.05397 0.83217 0.0
C210 C 0.51095 0.99101 0.84647 0.0
H211 H 0.59862 0.9731 0.80394 0.0
C212 C 0.52375 0.95127 0.8456 0.0
H213 H 0.50818 0.92569 0.85661 0.0
H214 H 0.4863 0.99582 0.85822 0.0
H215 H 0.56328 0.57059 0.09614 0.0
C216 C 0.59573 0.56745 0.10424 0.0
C217 C 0.62287 0.5619 0.08521 0.0
C218 C 0.61034 0.56959 0.13324 0.0
H219 H 0.6868 0.55813 0.08006 0.0
C220 C 0.66578 0.55984 0.09507 0.0
C221 C 0.68243 0.56116 0.12358 0.0
C222 C 0.65424 0.56596 0.14265 0.0
C223 C 0.58039 0.57772 0.15332 0.0
H224 H 0.66652 0.56607 0.1646 0.0
C225 C 0.53372 0.56725 0.14565 0.0
C226 C 0.50732 0.57683 0.16506 0.0
C227 C 0.59897 0.59846 0.18058 0.0
H228 H 0.63373 0.60895 0.18742 0.0
C229 C 0.5733 0.60759 0.19956 0.0
H230 H 0.51769 0.55097 0.12506 0.0
C231 C 0.52828 0.59693 0.192 0.0
H232 H 0.50966 0.60528 0.20731 0.0
H233 H 0.58856 0.62369 0.22035 0.0
C234 C 0.26244 0.59692 0.16687 0.0
C235 C 0.22899 0.56148 0.15254 0.0
C236 C 0.3068 0.59812 0.16682 0.0
C237 C 0.31894 0.56302 0.15214 0.0
C238 C 0.28533 0.52734 0.13746 0.0
C239 C 0.24122 0.52703 0.13779 0.0
C240 C 0.34086 0.63704 0.18276 0.0
C241 C 0.29601 0.489 0.12157 0.0
C242 C 0.43542 0.58362 0.13624 0.0
C243 C 0.45812 0.56721 0.15855 0.0
C244 C 0.39026 0.58172 0.13349 0.0
C245 C 0.36661 0.56271 0.15338 0.0
C246 C 0.38914 0.54445 0.17519 0.0
C247 C 0.43408 0.54701 0.17751 0.0
C248 C 0.36819 0.60167 0.10985 0.0
C249 C 0.36602 0.52335 0.1968 0.0
H250 H 0.25401 0.624 0.17825 0.0
H251 H 0.21618 0.49941 0.12648 0.0
H252 H 0.36196 0.62585 0.19966 0.0
H253 H 0.36188 0.6523 0.1687 0.0
H254 H 0.32649 0.66254 0.19219 0.0
H255 H 0.26648 0.46443 0.11042 0.0
H256 H 0.31598 0.50095 0.10613 0.0
H257 H 0.31549 0.47231 0.13618 0.0
H258 H 0.45337 0.59987 0.12166 0.0
H259 H 0.45092 0.53411 0.19484 0.0
H260 H 0.35754 0.6306 0.11838 0.0
H261 H 0.33875 0.57758 0.09821 0.0
H262 H 0.38985 0.61245 0.09504 0.0
H263 H 0.35436 0.5484 0.20891 0.0
H264 H 0.38728 0.50852 0.21158 0.0
H265 H 0.33716 0.49731 0.18648 0.0
C266 C 0.92817 0.25621 0.49426 0.0
C267 C 0.88335 0.24529 0.49364 0.0
C268 C 0.94971 0.29928 0.49167 0.0
C269 C 0.92586 0.3322 0.48837 0.0
C270 C 0.88046 0.32114 0.48703 0.0
C271 C 0.85979 0.27788 0.48975 0.0
C272 C 0.99816 0.30982 0.49317 0.0
C273 C 0.85385 0.35529 0.48358 0.0
C274 C 0.98417 0.45158 0.51255 0.0
C275 C 0.99012 0.46771 0.48727 0.0
C276 C 0.96368 0.40747 0.51318 0.0
C277 C 0.94867 0.37873 0.48788 0.0
C278 C 0.95493 0.39465 0.46229 0.0
C279 C 0.9757 0.43897 0.46229 0.0
C280 C 0.9579 0.3917 0.54093 0.0
C281 C 0.93913 0.36502 0.43489 0.0
H282 H 0.94647 0.23107 0.49692 0.0
H283 H 0.82526 0.26992 0.48969 0.0
H284 H 1.00632 0.32522 0.47456 0.0
H285 H 1.01438 0.33398 0.51178 0.0
H286 H 1.01164 0.28008 0.49444 0.0
H287 H 0.81855 0.34075 0.4812 0.0
H288 H 0.86397 0.38079 0.50206 0.0
H289 H 0.85959 0.37213 0.46504 0.0
H290 H 0.99585 0.47348 0.53196 0.0
H291 H 0.97989 0.45139 0.44267 0.0
H292 H 0.97347 0.36371 0.54419 0.0
H293 H 0.92289 0.37954 0.54105 0.0
H294 H 0.97201 0.41808 0.55873 0.0
H295 H 0.95347 0.33584 0.43546 0.0
H296 H 0.94745 0.38219 0.41689 0.0
H297 H 0.90341 0.35273 0.43147 0.0
C298 C 0.54407 0.68821 0.81814 0.0
C299 C 0.58396 0.67605 0.82259 0.0
C300 C 0.54215 0.73256 0.81787 0.0
C301 C 0.58104 0.76586 0.8228 0.0
C302 C 0.62144 0.75381 0.82702 0.0
C303 C 0.62242 0.70904 0.82663 0.0
C304 C 0.49841 0.74382 0.81252 0.0
C305 C 0.66362 0.78827 0.83245 0.0
C306 C 0.57057 0.87894 0.80308 0.0
C307 C 0.5669 0.90042 0.82861 0.0
C308 C 0.57668 0.83567 0.801 0.0
C309 C 0.57913 0.81327 0.82499 0.0
C310 C 0.57708 0.83539 0.85099 0.0
C311 C 0.5712 0.87862 0.85249 0.0
C312 C 0.57877 0.81333 0.77289 0.0
C313 C 0.57978 0.81289 0.87712 0.0
H314 H 0.51414 0.66295 0.81466 0.0
H315 H 0.65336 0.69996 0.83007 0.0
H316 H 0.49502 0.7654 0.83074 0.0
H317 H 0.49568 0.76247 0.79427 0.0
H318 H 0.47119 0.71407 0.80847 0.0
H319 H 0.69223 0.77348 0.83399 0.0
H320 H 0.66423 0.80971 0.81553 0.0
H321 H 0.66651 0.8097 0.85223 0.0
H322 H 0.56692 0.89528 0.78447 0.0
H323 H 0.56922 0.89518 0.87241 0.0
H324 H 0.54959 0.786 0.7657 0.0
H325 H 0.60744 0.79872 0.77448 0.0
H326 H 0.58042 0.83643 0.75686 0.0
H327 H 0.55276 0.78317 0.87431 0.0
H328 H 0.57822 0.8348 0.89579 0.0
H329 H 0.61047 0.80174 0.88109 0.0
C330 C 0.93334 0.53343 0.15938 0.0
C331 C 0.95993 0.56477 0.14686 0.0
C332 C 0.889 0.53288 0.15881 0.0
C333 C 0.8696 0.56362 0.14469 0.0
C334 C 0.89636 0.59544 0.13209 0.0
C335 C 0.94096 0.59602 0.13366 0.0
C336 C 0.86276 0.49899 0.17323 0.0
C337 C 0.87752 0.62822 0.11614 0.0
C338 C 0.74696 0.53089 0.11477 0.0
C339 C 0.72943 0.558 0.13199 0.0
C340 C 0.79181 0.53237 0.11876 0.0
C341 C 0.82098 0.56052 0.1413 0.0
C342 C 0.80341 0.586 0.15991 0.0
C343 C 0.75821 0.58475 0.15495 0.0
C344 C 0.80815 0.50471 0.09806 0.0
C345 C 0.83258 0.61547 0.18477 0.0
H346 H 0.94734 0.50929 0.16992 0.0
H347 H 0.96077 0.62035 0.12382 0.0
H348 H 0.84566 0.51522 0.18741 0.0
H349 H 0.83766 0.47537 0.15754 0.0
H350 H 0.88319 0.48018 0.18552 0.0
H351 H 0.90239 0.65134 0.10791 0.0
H352 H 0.8518 0.61046 0.09836 0.0
H353 H 0.86216 0.64759 0.12978 0.0
H354 H 0.7255 0.50894 0.0974 0.0
H355 H 0.74574 0.60594 0.16853 0.0
H356 H 0.82547 0.4821 0.10893 0.0
H357 H 0.8317 0.52634 0.08805 0.0
H358 H 0.78157 0.48479 0.08147 0.0
H359 H 0.85339 0.59683 0.19683 0.0
H360 H 0.81392 0.6296 0.19886 0.0
H361 H 0.85437 0.64294 0.17756 0.0
C362 C 0.39281 0.80829 0.49132 0.0
C363 C 0.38823 0.84866 0.50365 0.0
C364 C 0.35871 0.77055 0.48701 0.0
C365 C 0.31907 0.77333 0.49514 0.0
C366 C 0.31531 0.81317 0.50934 0.0
C367 C 0.34997 0.85038 0.51344 0.0
C368 C 0.36406 0.72863 0.47187 0.0
C369 C 0.27368 0.8174 0.51849 0.0
C370 C 0.218 0.70195 0.44854 0.0
C371 C 0.20685 0.66717 0.46418 0.0
C372 C 0.25414 0.73675 0.4586 0.0
C373 C 0.2799 0.73695 0.48506 0.0
C374 C 0.26849 0.70236 0.50126 0.0
C375 C 0.23189 0.66782 0.49063 0.0
C376 C 0.26492 0.77318 0.44074 0.0
C377 C 0.29527 0.70156 0.52954 0.0
H378 H 0.42213 0.8067 0.48353 0.0
H379 H 0.34657 0.8813 0.52347 0.0
H380 H 0.35182 0.69986 0.48246 0.0
H381 H 0.34469 0.72316 0.45035 0.0
H382 H 0.39844 0.72997 0.47051 0.0
H383 H 0.27799 0.84827 0.53268 0.0
H384 H 0.24873 0.81743 0.49987 0.0
H385 H 0.26107 0.78895 0.52924 0.0
H386 H 0.19816 0.70206 0.42834 0.0
H387 H 0.22332 0.64093 0.50274 0.0
H388 H 0.29763 0.77493 0.43581 0.0
H389 H 0.26561 0.80541 0.45231 0.0
H390 H 0.24118 0.76831 0.42081 0.0
H391 H 0.32857 0.69952 0.5273 0.0
H392 H 0.28111 0.67325 0.53997 0.0
H393 H 0.29818 0.73254 0.54323 0.0
C394 C 0.6077 0.38976 0.83863 0.0
C395 C 0.58218 0.405 0.81715 0.0
C396 C 0.60979 0.34526 0.83729 0.0
C397 C 0.58663 0.3154 0.8136 0.0
C398 C 0.56059 0.33055 0.79194 0.0
C399 C 0.55831 0.37502 0.79412 0.0
C400 C 0.63717 0.33033 0.86111 0.0
C401 C 0.53603 0.30003 0.76607 0.0
C402 C 0.62679 0.21344 0.79393 0.0
C403 C 0.59559 0.17948 0.80099 0.0
C404 C 0.62462 0.25773 0.79832 0.0
C405 C 0.59106 0.26878 0.81079 0.0
C406 C 0.56089 0.23506 0.81944 0.0
C407 C 0.56326 0.19083 0.81423 0.0
C408 C 0.65735 0.29252 0.78862 0.0
C409 C 0.52522 0.24555 0.8334 0.0
H410 H 0.62597 0.41263 0.85662 0.0
H411 H 0.53875 0.3866 0.77736 0.0
H412 H 0.61756 0.30174 0.86875 0.0
H413 H 0.66438 0.3193 0.85375 0.0
H414 H 0.6508 0.35689 0.87885 0.0
H415 H 0.51679 0.31675 0.75129 0.0
H416 H 0.55912 0.28694 0.75517 0.0
H417 H 0.51377 0.27144 0.77187 0.0
H418 H 0.65258 0.20531 0.78435 0.0
H419 H 0.53875 0.16506 0.8196 0.0
H420 H 0.67425 0.31835 0.80621 0.0
H421 H 0.64047 0.30883 0.77237 0.0
H422 H 0.68201 0.27865 0.77983 0.0
H423 H 0.53889 0.27211 0.8511 0.0
H424 H 0.50703 0.21633 0.84129 0.0
H425 H 0.50211 0.25775 0.81832 0.0
C426 C 0.61567 0.872 0.48843 0.0
C427 C 0.65356 0.90347 0.50119 0.0
C428 C 0.61379 0.82664 0.48739 0.0
C429 C 0.65069 0.81208 0.49941 0.0
C430 C 0.68892 0.84358 0.51256 0.0
C431 C 0.68992 0.88883 0.5133 0.0
C432 C 0.57234 0.79425 0.47316 0.0
C433 C 0.7289 0.82945 0.52568 0.0
C434 C 0.62958 0.69206 0.51357 0.0
C435 C 0.63872 0.67117 0.48953 0.0
C436 C 0.6348 0.73811 0.51761 0.0
C437 C 0.6495 0.76391 0.49714 0.0
C438 C 0.6606 0.74316 0.47348 0.0
C439 C 0.65519 0.6972 0.47001 0.0
C440 C 0.62281 0.75894 0.54321 0.0
C441 C 0.6766 0.7693 0.4512 0.0
H442 H 0.58723 0.88274 0.47916 0.0
H443 H 0.7193 0.91273 0.52333 0.0
H444 H 0.57844 0.77426 0.4551 0.0
H445 H 0.56083 0.77118 0.48777 0.0
H446 H 0.54612 0.81083 0.46561 0.0
H447 H 0.75557 0.85791 0.53592 0.0
H448 H 0.72094 0.80712 0.54146 0.0
H449 H 0.74065 0.81073 0.50953 0.0
H450 H 0.61657 0.67224 0.52867 0.0
H451 H 0.66304 0.68143 0.45161 0.0
H452 H 0.59375 0.77215 0.53694 0.0
H453 H 0.64946 0.78705 0.55384 0.0
H454 H 0.61565 0.73508 0.55832 0.0
H455 H 0.65063 0.78409 0.44091 0.0
H456 H 0.68641 0.74867 0.43497 0.0
H457 H 0.70469 0.79677 0.46067 0.0
C458 C 0.89808 0.51738 0.83737 0.0
C459 C 0.86683 0.5096 0.81278 0.0
C460 C 0.94211 0.5313 0.83668 0.0
C461 C 0.95504 0.53664 0.81061 0.0
C462 C 0.9244 0.52095 0.78561 0.0
C463 C 0.88025 0.50821 0.78694 0.0
C464 C 0.97374 0.5463 0.86409 0.0
C465 C 0.93729 0.52186 0.75742 0.0
C466 C 1.03213 0.6462 0.82461 0.0
C467 C 1.06952 0.6338 0.83675 0.0
C468 C 0.99505 0.61418 0.81166 0.0
C469 C 0.99613 0.56901 0.81054 0.0
C470 C 1.03623 0.55733 0.81787 0.0
C471 C 1.07255 0.58994 0.83157 0.0
C472 C 0.95327 0.62849 0.80317 0.0
C473 C 1.03978 0.51006 0.81441 0.0
H474 H 0.88803 0.51801 0.85743 0.0
H475 H 0.85618 0.50073 0.76779 0.0
H476 H 1.00175 0.53092 0.86457 0.0
H477 H 0.98633 0.58258 0.86648 0.0
H478 H 0.95864 0.5378 0.88233 0.0
H479 H 0.91814 0.49227 0.74304 0.0
H480 H 0.92992 0.55113 0.74814 0.0
H481 H 0.97234 0.52314 0.75876 0.0
H482 H 1.03008 0.68024 0.82831 0.0
H483 H 0.10206 0.58055 0.84033 0.0
H484 H 0.93102 0.61802 0.81769 0.0
H485 H 0.93684 0.61275 0.78188 0.0
H486 H 0.95873 0.66479 0.80345 0.0
H487 H 1.03823 0.49621 0.83443 0.0
H488 H 1.07149 0.50807 0.8089 0.0
H489 H 1.01331 0.48947 0.79804 0.0
C490 C 0.30395 0.8668 0.20298 0.0
C491 C 0.28713 0.83476 0.1797 0.0
C492 C 0.34301 0.89793 0.20457 0.0
C493 C 0.36564 0.89749 0.18215 0.0
C494 C 0.34823 0.86622 0.15817 0.0
C495 C 0.30927 0.83505 0.15729 0.0
C496 C 0.36055 0.9307 0.23056 0.0
C497 C 0.37123 0.86509 0.13375 0.0
C498 C 0.45041 1.00297 0.18341 0.0
C499 C 0.48804 0.99217 0.19706 0.0
C500 C 0.41064 0.97166 0.17692 0.0
C501 C 0.40838 0.92876 0.18459 0.0
C502 C 0.44663 0.91703 0.19707 0.0
C503 C 0.48602 0.94878 0.20297 0.0
C504 C 0.37065 0.98521 0.16322 0.0
C505 C 0.44558 0.87163 0.2056 0.0
H506 H 0.28661 0.86744 0.22013 0.0
H507 H 0.29674 0.81019 0.13932 0.0
H508 H 0.39262 0.92631 0.24071 0.0
H509 H 0.36544 0.9648 0.22499 0.0
H510 H 0.33862 0.92709 0.24593 0.0
H511 H 0.35181 0.84095 0.11583 0.0
H512 H 0.37849 0.89818 0.12668 0.0
H513 H 0.40266 0.85618 0.14026 0.0
H514 H 0.45153 0.03647 0.17894 0.0
H515 H 0.51513 0.93996 0.213 0.0
H516 H 0.34913 0.98739 0.17853 0.0
H517 H 0.35209 0.96018 0.14556 0.0
H518 H 0.37871 0.01766 0.15535 0.0
H519 H 0.4268 0.86655 0.2226 0.0
H520 H 0.47858 0.86674 0.21308 0.0
H521 H 0.42902 0.84599 0.18783 0.0
C522 C 0.68284 0.20301 0.49847 0.0
C523 C 0.6521 0.17404 0.50962 0.0
C524 C 0.68346 0.24815 0.49951 0.0
C525 C 0.65294 0.26494 0.5123 0.0
C526 C 0.62165 0.23582 0.52338 0.0
C527 C 0.62146 0.19076 0.52178 0.0
C528 C 0.71719 0.27793 0.48727 0.0
C529 C 0.58887 0.25244 0.53751 0.0
C530 C 0.67831 0.3847 0.54392 0.0
C531 C 0.65092 0.40254 0.52499 0.0
C532 C 0.68033 0.34041 0.53957 0.0
C533 C 0.65484 0.31319 0.51542 0.0
C534 C 0.62913 0.33159 0.49535 0.0
C535 C 0.62734 0.37602 0.50042 0.0
C536 C 0.70821 0.32226 0.56151 0.0
C537 C 0.60209 0.30386 0.4691 0.0
H538 H 0.70656 0.19047 0.48889 0.0
H539 H 0.59766 0.16874 0.53048 0.0
H540 H 0.70146 0.29725 0.47245 0.0
H541 H 0.73976 0.30182 0.50412 0.0
H542 H 0.73642 0.25926 0.47618 0.0
H543 H 0.56613 0.22547 0.54453 0.0
H544 H 0.60588 0.27672 0.55592 0.0
H545 H 0.56978 0.26965 0.52304 0.0
H546 H 0.69734 0.40519 0.56269 0.0
H547 H 0.60597 0.3894 0.48573 0.0
H548 H 0.73039 0.30572 0.5519 0.0
H549 H 0.6873 0.2971 0.57109 0.0
H550 H 0.72788 0.34829 0.57833 0.0
H551 H 0.62211 0.2857 0.45844 0.0
H552 H 0.58749 0.32399 0.45429 0.0
H553 H 0.57558 0.279 0.47457 0.0
C554 C 0.34324 0.66467 0.84717 0.0
C555 C 0.38692 0.66514 0.84778 0.0
C556 C 0.33039 0.70327 0.85455 0.0
C557 C 0.36208 0.74359 0.8625 0.0
C558 C 0.40641 0.74425 0.86361 0.0
C559 C 0.41833 0.70486 0.85631 0.0
C560 C 0.28269 0.70076 0.85372 0.0
C561 C 0.44115 0.78642 0.87162 0.0
C562 C 0.29762 0.82782 0.85114 0.0
C563 C 0.28318 0.82924 0.87657 0.0
C564 C 0.33005 0.80557 0.84731 0.0
C565 C 0.34748 0.78432 0.86937 0.0
C566 C 0.33924 0.7936 0.89646 0.0
C567 C 0.3072 0.81653 0.89982 0.0
C568 C 0.34019 0.79862 0.81853 0.0
C569 C 0.3585 0.77305 0.92083 0.0
H570 H 0.31903 0.63389 0.84106 0.0
H571 H 0.45222 0.70534 0.85672 0.0
H572 H 0.27755 0.71309 0.87451 0.0
H573 H 0.27096 0.72192 0.83853 0.0
H574 H 0.26252 0.66666 0.84768 0.0
H575 H 0.47337 0.77978 0.87927 0.0
H576 H 0.44338 0.80403 0.85299 0.0
H577 H 0.43361 0.80874 0.88794 0.0
H578 H 0.27964 0.8384 0.8332 0.0
H579 H 0.29662 0.81868 0.91969 0.0
H580 H 0.3205 0.76621 0.80773 0.0
H581 H 0.37489 0.7984 0.81974 0.0
H582 H 0.33243 0.82459 0.80577 0.0
H583 H 0.33977 0.73854 0.9197 0.0
H584 H 0.35716 0.7911 0.94106 0.0
H585 H 0.39266 0.7723 0.92026 0.0
C586 C 0.89462 0.30324 0.17605 0.0
C587 C 0.90089 0.31063 0.14901 0.0
C588 C 0.85428 0.28058 0.18076 0.0
C589 C 0.81938 0.26518 0.15789 0.0
C590 C 0.82589 0.27139 0.13047 0.0
C591 C 0.86657 0.29399 0.12636 0.0
C592 C 0.84867 0.27428 0.21028 0.0
C593 C 0.78941 0.25567 0.10554 0.0
C594 C 0.71881 0.18031 0.16474 0.0
C595 C 0.68969 0.20696 0.1682 0.0
C596 C 0.76153 0.19884 0.16202 0.0
C597 C 0.77533 0.24505 0.16267 0.0
C598 C 0.74639 0.27218 0.1668 0.0
C599 C 0.70402 0.25282 0.1696 0.0
C600 C 0.79155 0.16891 0.15775 0.0
C601 C 0.7599 0.32163 0.16767 0.0
H602 H 0.9212 0.31562 0.1936 0.0
H603 H 0.87103 0.3001 0.10545 0.0
H604 H 0.82545 0.29314 0.21637 0.0
H605 H 0.83485 0.23906 0.21168 0.0
H606 H 0.87974 0.2854 0.22551 0.0
H607 H 0.80045 0.2607 0.08548 0.0
H608 H 0.77465 0.22014 0.10519 0.0
H609 H 0.76361 0.27374 0.10711 0.0
H610 H 0.70787 0.14483 0.16337 0.0
H611 H 0.68194 0.27367 0.17278 0.0
H612 H 0.8222 0.1798 0.17334 0.0
H613 H 0.8001 0.1708 0.13679 0.0
H614 H 0.77675 0.13402 0.15951 0.0
H615 H 0.78914 0.33518 0.18411 0.0
H616 H 0.73389 0.33812 0.17183 0.0
H617 H 0.76857 0.33006 0.14746 0.0
C618 C 0.14653 0.61972 0.0666 0.0
C619 C 0.10819 0.59132 0.07013 0.0
C620 C 0.15167 0.63247 0.0404 0.0
C621 C 0.11729 0.61709 0.01725 0.0
C622 C 1.0788 0.58764 0.02053 0.0
C623 C 1.07488 0.5747 0.04695 0.0
C624 C 0.19355 0.66314 0.03762 0.0
C625 C 1.04124 0.57105 -0.00364 0.0
C626 C 0.11227 0.68859 0.95851 0.0
C627 C 0.12724 0.66495 0.9382 0.0
C628 C 0.10859 0.67316 0.98428 0.0
C629 C 0.12093 0.63356 0.98996 0.0
C630 C 0.13707 0.61011 0.96974 0.0
C631 C 0.13964 0.62591 0.94394 0.0
C632 C 0.09073 0.69878 0.00519 0.0
C633 C 0.1514 0.5683 0.9753 0.0
H634 H 0.17261 0.63221 0.08444 0.0
H635 H 1.04517 0.55287 0.04967 0.0
H636 H 0.20721 0.64903 0.02055 0.0
H637 H 0.18725 0.69508 0.03206 0.0
H638 H 0.21823 0.66954 0.05721 0.0
H639 H 1.0142 0.54717 0.00214 0.0
H640 H 1.0288 0.59923 0.98885 0.0
H641 H 1.05211 0.55496 0.97868 0.0
H642 H 0.10208 0.71844 0.95387 0.0
H643 H 0.15128 0.60772 0.92817 0.0
H644 H 0.11493 0.70913 0.0249 0.0
H645 H 1.0614 0.67751 0.01028 0.0
H646 H 0.08203 0.7286 -0.00264 0.0
H647 H 0.17688 0.57466 -0.00556 0.0
H648 H 0.16432 0.5547 0.95767 0.0
H649 H 0.12372 0.54298 0.97905 0.0
C650 C 0.68421 0.05958 0.40904 0.0
C651 C 0.64661 0.05098 0.42059 0.0
C652 C 0.68175 0.06429 0.38053 0.0
C653 C 0.64071 0.05961 0.36321 0.0
C654 C 0.60272 0.05085 0.37481 0.0
C655 C 0.60618 0.04694 0.40334 0.0
C656 C 0.72294 0.07428 0.36895 0.0
C657 C 0.55825 0.04508 0.35701 0.0
C658 C 0.62041 0.10289 0.2934 0.0
C659 C 0.61063 0.06384 0.27492 0.0
C660 C 0.63361 0.10272 0.32222 0.0
C661 C 0.63665 0.0625 0.33275 0.0
C662 C 0.62989 0.02369 0.31398 0.0
C663 C 0.61724 0.02491 0.28529 0.0
C664 C 0.64118 0.14494 0.34154 0.0
C665 C 0.63273 0.9801 0.32429 0.0
H666 H 0.71559 0.06315 0.42233 0.0
H667 H 0.57695 0.04009 0.41207 0.0
H668 H 0.72261 0.04724 0.35271 0.0
H669 H 0.7251 0.10483 0.35878 0.0
H670 H 0.75237 0.07845 0.38537 0.0
H671 H 0.53197 0.03837 0.36928 0.0
H672 H 0.55625 0.07519 0.34693 0.0
H673 H 0.55242 0.01736 0.34012 0.0
H674 H 0.61525 0.13308 0.2856 0.0
H675 H 0.61056 0.99481 0.27102 0.0
H676 H 0.67079 0.149 0.35773 0.0
H677 H 0.61343 0.14372 0.35244 0.0
H678 H 0.64448 0.17427 0.33007 0.0
H679 H 0.663 0.98372 0.33982 0.0
H680 H 0.63168 0.9543 0.30702 0.0
H681 H 0.60515 0.9687 0.33488 0.0
C682 C 0.56525 0.50006 0.7165 0.0
C683 C 0.593 0.53202 0.73698 0.0
C684 C 0.57124 0.498 0.6887 0.0
C685 C 0.60473 0.52974 0.68126 0.0
C686 C 0.63149 0.56333 0.70182 0.0
C687 C 0.62585 0.56348 0.72961 0.0
C688 C 0.543 0.46083 0.66759 0.0
C689 C 0.66652 0.59861 0.69457 0.0
C690 C 0.65218 0.49686 0.61914 0.0
C691 C 0.62799 0.51267 0.59725 0.0
C692 C 0.64482 0.50216 0.64647 0.0
C693 C 0.61388 0.5257 0.6525 0.0
C694 C 0.59122 0.5442 0.63098 0.0
C695 C 0.598 0.53687 0.60351 0.0
C696 C 0.66922 0.48126 0.66871 0.0
C697 C 0.55916 0.57094 0.63686 0.0
H698 H 0.54001 0.47572 0.72247 0.0
H699 H 0.64697 0.5884 0.74563 0.0
H700 H 0.52663 0.47414 0.64958 0.0
H701 H 0.56343 0.4403 0.65942 0.0
H702 H 0.51791 0.43939 0.67663 0.0
H703 H 0.68109 0.62506 0.71228 0.0
H704 H 0.69262 0.58385 0.68865 0.0
H705 H 0.65315 0.61363 0.67635 0.0
H706 H 0.67648 0.4794 0.61483 0.0
H707 H 0.57886 0.54906 0.58688 0.0
H708 H 0.64594 0.45799 0.67797 0.0
H709 H 0.68859 0.50684 0.6858 0.0
H710 H 0.6914 0.46304 0.66038 0.0
H711 H 0.53064 0.54935 0.64262 0.0
H712 H 0.54771 0.58693 0.61855 0.0
H713 H 0.57404 0.5968 0.65482 0.0
C714 C 0.68011 0.06426 0.61108 0.0
C715 C 0.6514 0.03229 0.59084 0.0
C716 C 0.67441 0.068 0.63893 0.0
C717 C 0.63925 0.03903 0.64669 0.0
C718 C 0.61162 1.0052 0.6267 0.0
C719 C 0.61801 1.00226 0.59903 0.0
C720 C 0.70464 0.10443 0.6597 0.0
C721 C 0.57387 0.97355 0.63416 0.0
C722 C 0.63587 0.03546 0.72385 0.0
C723 C 0.60914 0.06436 0.72815 0.0
C724 C 0.6459 0.0266 0.69739 0.0
C725 C 0.62861 0.04701 0.67481 0.0
C726 C 0.60088 0.07546 0.67898 0.0
C727 C 0.59145 0.08369 0.70555 0.0
C728 C 0.6755 0.99602 0.69369 0.0
C729 C 0.58144 0.09757 0.65539 0.0
H730 H 0.70609 0.08747 0.60499 0.0
H731 H 0.59586 0.97713 0.58362 0.0
H732 H 0.68677 0.12927 0.66564 0.0
H733 H 0.71674 0.0912 0.67903 0.0
H734 H 0.73286 0.12123 0.65115 0.0
H735 H 0.5583 0.94636 0.61705 0.0
H736 H 0.58463 0.95911 0.65327 0.0
H737 H 0.54915 0.99156 0.63868 0.0
H738 H 0.64976 0.02065 0.74133 0.0
H739 H 0.57014 0.10543 0.70868 0.0
H740 H 0.70522 0.01416 0.6873 0.0
H741 H 0.65929 0.96876 0.6768 0.0
H742 H 0.68513 0.9817 0.71311 0.0
H743 H 0.60763 0.11846 0.64699 0.0
H744 H 0.56025 0.11853 0.66209 0.0
H745 H 0.56202 0.07237 0.63808 0.0
C746 C 0.54652 0.53513 0.91776 0.0
C747 C 0.58212 0.55783 0.9075 0.0
C748 C 0.54725 0.53653 0.94661 0.0
C749 C 0.58453 0.56101 0.96562 0.0
C750 C 0.61983 0.58536 0.95536 0.0
C751 C 0.61816 0.58356 0.92647 0.0
C752 C 0.50882 0.51047 0.95674 0.0
C753 C 0.66023 0.61186 0.97493 0.0
C754 C 0.58652 0.58973 0.04301 0.0
C755 C 0.60735 0.55863 0.05459 0.0
C756 C 0.57699 0.58983 0.0139 0.0
C757 C 0.58865 0.55812 -0.00388 0.0
C758 C 0.60764 0.52534 0.00774 0.0
C759 C 0.61663 0.52595 0.03678 0.0
C760 C 0.55638 0.62507 0.00226 0.0
C761 C 0.62042 0.4908 0.98958 0.0
H762 H 0.51834 0.51551 0.90327 0.0
H763 H 0.64574 0.60144 0.9188 0.0
H764 H 0.51799 0.48251 0.96679 0.0
H765 H 0.49883 0.53133 0.97271 0.0
H766 H 0.48061 0.49714 0.93947 0.0
H767 H 0.68353 0.63133 0.96369 0.0
H768 H 0.65164 0.63472 0.99044 0.0
H769 H 0.67665 0.58938 0.98667 0.0
H770 H 0.57943 0.61513 0.05671 0.0
H771 H 0.6321 0.50142 0.04569 0.0
H772 H 0.5288 0.61032 0.98487 0.0
H773 H 0.58045 0.6485 -0.00633 0.0
H774 H 0.54456 0.64382 0.01842 0.0
H775 H 0.59245 0.47352 0.97306 0.0
H776 H 0.63223 0.46596 0.00175 0.0
H777 H 0.64651 0.50686 0.97902 0.0
C778 C 0.12029 0.52181 0.24856 0.0
C779 C 0.08833 0.53864 0.23293 0.0
C780 C 0.12331 0.52193 0.27754 0.0
C781 C 0.0929 0.53817 0.29082 0.0
C782 C 1.05831 0.55147 0.27457 0.0
C783 C 1.05688 0.55223 0.24586 0.0
C784 C 0.16114 0.5083 0.29417 0.0
C785 C 1.02452 0.56785 0.28774 0.0
C786 C 0.09251 0.52799 0.36785 0.0
C787 C 0.11566 0.57035 0.3803 0.0
C788 C 0.08471 0.51674 0.33869 0.0
C789 C 0.10119 0.5483 0.32174 0.0
C790 C 0.12478 0.59088 0.3342 0.0
C791 C 0.13098 0.60155 0.36313 0.0
C792 C 1.05848 0.47138 0.32601 0.0
C793 C 0.14321 0.62553 0.31695 0.0
H794 H 0.14465 0.5114 0.2385 0.0
H795 H 1.03176 0.56467 0.2336 0.0
H796 H 0.18464 0.53807 0.30589 0.0
H797 H 0.1503 0.4867 0.30968 0.0
H798 H 0.17819 0.49079 0.28059 0.0
H799 H 0.99601 0.56952 0.27192 0.0
H800 H 1.01331 0.54618 0.30314 0.0
H801 H 1.03891 0.60135 0.29907 0.0
H802 H 0.08064 0.50357 0.38085 0.0
H803 H 0.14756 0.63484 0.37224 0.0
H804 H 1.07778 0.45444 0.31391 0.0
H805 H 1.02933 0.47415 0.31119 0.0
H806 H 1.04791 0.45063 0.34204 0.0
H807 H 0.16349 0.61242 0.30364 0.0
H808 H 0.16333 0.65599 0.33008 0.0
H809 H 0.11647 0.63445 0.30289 0.0
loop_
_geom_bond_atom_site_label_1
_geom_bond_atom_site_label_2
_geom_bond_distance
_geom_bond_site_symmetry_2
_ccdc_geom_bond_type
Dy0 O3 2.307 1_455 S
Dy0 O5 2.395 . S
Dy0 O6 2.379 . S
Dy0 O8 2.339 . S
Dy0 O10 2.298 . S
Dy0 O14 2.275 . S
Dy0 C22 2.738 . S
Dy1 O4 2.298 1_455 S
Dy1 O7 2.275 . S
Dy1 O9 2.307 . S
Dy1 O11 2.395 1_455 S
Dy1 O12 2.379 1_455 S
Dy1 O15 2.339 . S
Dy1 C31 2.738 1_455 S
C2 O14 1.254 . S
C2 O15 1.257 . S
O3 Dy0 2.307 1_655 S
O3 C13 1.266 . S
O4 Dy1 2.298 1_655 S
O4 C13 1.236 . S
O5 Dy0 2.395 . S
O5 C22 1.255 . S
O6 Dy0 2.379 . S
O6 C22 1.249 . S
O7 Dy1 2.275 . S
O7 C23 1.254 . S
O8 Dy0 2.339 . S
O8 C23 1.257 . S
O9 Dy1 2.307 . S
O9 C24 1.266 . S
O10 Dy0 2.298 . S
O10 C24 1.236 . S
O11 Dy1 2.395 1_655 S
O11 C31 1.255 . S
O12 Dy1 2.379 1_655 S
O12 C31 1.249 . S
C13 O3 1.266 . S
C13 O4 1.236 . S
O14 Dy0 2.275 . S
O14 C2 1.254 . S
O15 Dy1 2.339 . S
O15 C2 1.257 . S
C16 C19 1.344 . S
C16 C20 1.328 . S
C16 C22 1.516 . S
C17 C18 1.304 . S
C17 C21 1.323 . S
C18 C17 1.304 . S
C18 C19 1.371 . S
C18 H32 0.930 . S
C19 C16 1.344 . S
C19 C18 1.371 . S
C19 H33 0.931 . S
C20 C16 1.328 . S
C20 C21 1.433 . S
C20 H34 0.931 . S
C21 C17 1.323 . S
C21 C20 1.433 . S
C21 H35 0.933 . S
C22 Dy0 2.738 . S
C22 O5 1.255 . S
C22 O6 1.249 . S
C22 C16 1.516 . S
C23 O7 1.254 . S
C23 O8 1.257 . S
C24 O9 1.266 . S
C24 O10 1.236 . S
C25 C28 1.344 . S
C25 C29 1.328 . S
C25 C31 1.516 . S
C26 C27 1.304 . S
C26 C30 1.323 . S
C27 C26 1.304 . S
C27 C28 1.371 . S
C27 H36 0.930 . S
C28 C25 1.344 . S
C28 C27 1.371 . S
C28 H37 0.931 . S
C29 C25 1.328 . S
C29 C30 1.433 . S
C29 H38 0.931 . S
C30 C26 1.323 . S
C30 C29 1.433 . S
C30 H39 0.933 . S
C31 Dy1 2.738 1_655 S
C31 O11 1.255 . S
C31 O12 1.249 . S
C31 C25 1.516 . S
H32 C18 0.930 . S
H33 C19 0.931 . S
H34 C20 0.931 . S
H35 C21 0.933 . S
H36 C27 0.930 . S
H37 C28 0.931 . S
H38 C29 0.931 . S
H39 C30 0.933 . S
Dy40 O43 2.307 . S
Dy40 O45 2.395 1_545 S
Dy40 O46 2.379 1_545 S
Dy40 O48 2.339 . S
Dy40 O50 2.298 1_545 S
Dy40 O54 2.275 . S
Dy40 C62 2.738 1_545 S
Dy41 O44 2.298 . S
Dy41 O47 2.275 . S
Dy41 O49 2.307 . S
Dy41 O51 2.395 . S
Dy41 O52 2.379 . S
Dy41 O55 2.339 . S
Dy41 C71 2.738 . S
C42 O54 1.254 . S
C42 O55 1.257 . S
O43 Dy40 2.307 . S
O43 C53 1.266 . S
O44 Dy41 2.298 . S
O44 C53 1.236 . S
O45 Dy40 2.395 1_565 S
O45 C62 1.255 . S
O46 Dy40 2.379 1_565 S
O46 C62 1.249 . S
O47 Dy41 2.275 . S
O47 C63 1.254 . S
O48 Dy40 2.339 . S
O48 C63 1.257 . S
O49 Dy41 2.307 . S
O49 C64 1.266 1_545 S
O50 Dy40 2.298 1_565 S
O50 C64 1.236 . S
O51 Dy41 2.395 . S
O51 C71 1.255 . S
O52 Dy41 2.379 . S
O52 C71 1.249 . S
C53 O43 1.266 . S
C53 O44 1.236 . S
O54 Dy40 2.275 . S
O54 C42 1.254 . S
O55 Dy41 2.339 . S
O55 C42 1.257 . S
C56 C59 1.344 . S
C56 C60 1.328 . S
C56 C62 1.516 . S
C57 C58 1.304 . S
C57 C61 1.323 . S
C58 C57 1.304 . S
C58 C59 1.371 . S
C58 H72 0.930 . S
C59 C56 1.344 . S
C59 C58 1.371 . S
C59 H73 0.931 . S
C60 C56 1.328 . S
C60 C61 1.433 . S
C60 H74 0.931 . S
C61 C57 1.323 . S
C61 C60 1.433 . S
C61 H75 0.933 . S
C62 Dy40 2.738 1_565 S
C62 O45 1.255 . S
C62 O46 1.249 . S
C62 C56 1.516 . S
C63 O47 1.254 . S
C63 O48 1.257 . S
C64 O49 1.266 1_565 S
C64 O50 1.236 . S
C65 C68 1.344 . S
C65 C69 1.328 . S
C65 C71 1.516 . S
C66 C67 1.304 . S
C66 C70 1.323 . S
C67 C66 1.304 . S
C67 C68 1.371 . S
C67 H76 0.930 . S
C68 C65 1.344 . S
C68 C67 1.371 . S
C68 H77 0.931 . S
C69 C65 1.328 . S
C69 C70 1.433 . S
C69 H78 0.931 . S
C70 C66 1.323 . S
C70 C69 1.433 . S
C70 H79 0.933 . S
C71 Dy41 2.738 . S
C71 O51 1.255 . S
C71 O52 1.249 . S
C71 C65 1.516 . S
H72 C58 0.930 . S
H73 C59 0.931 . S
H74 C60 0.931 . S
H75 C61 0.933 . S
H76 C67 0.930 . S
H77 C68 0.931 . S
H78 C69 0.931 . S
H79 C70 0.933 . S
Dy80 O83 2.307 . S
Dy80 O85 2.395 . S
Dy80 O86 2.379 . S
Dy80 O88 2.339 . S
Dy80 O90 2.298 . S
Dy80 O94 2.275 . S
Dy80 C102 2.738 . S
Dy81 O84 2.298 . S
Dy81 O87 2.275 . S
Dy81 O89 2.307 . S
Dy81 O91 2.395 . S
Dy81 O92 2.379 . S
Dy81 O95 2.339 . S
Dy81 C111 2.738 . S
C82 O94 1.254 . S
C82 O95 1.257 . S
O83 Dy80 2.307 . S
O83 C93 1.266 . S
O84 Dy81 2.298 . S
O84 C93 1.236 . S
O85 Dy80 2.395 . S
O85 C102 1.255 . S
O86 Dy80 2.379 . S
O86 C102 1.249 . S
O87 Dy81 2.275 . S
O87 C103 1.254 . S
O88 Dy80 2.339 . S
O88 C103 1.257 . S
O89 Dy81 2.307 . S
O89 C104 1.266 . S
O90 Dy80 2.298 . S
O90 C104 1.236 . S
O91 Dy81 2.395 . S
O91 C111 1.255 . S
O92 Dy81 2.379 . S
O92 C111 1.249 . S
C93 O83 1.266 . S
C93 O84 1.236 . S
O94 Dy80 2.275 . S
O94 C82 1.254 . S
O95 Dy81 2.339 . S
O95 C82 1.257 . S
C96 C99 1.344 . S
C96 C100 1.328 . S
C96 C102 1.516 . S
C97 C98 1.304 . S
C97 C101 1.323 . S
C98 C97 1.304 . S
C98 C99 1.371 . S
C98 H112 0.930 . S
C99 C96 1.344 . S
C99 C98 1.371 . S
C99 H113 0.931 . S
C100 C96 1.328 . S
C100 C101 1.433 . S
C100 H114 0.931 . S
C101 C97 1.323 . S
C101 C100 1.433 . S
C101 H115 0.933 . S
C102 Dy80 2.738 . S
C102 O85 1.255 . S
C102 O86 1.249 . S
C102 C96 1.516 . S
C103 O87 1.254 . S
C103 O88 1.257 . S
C104 O89 1.266 . S
C104 O90 1.236 . S
C105 C108 1.344 . S
C105 C109 1.328 . S
C105 C111 1.516 . S
C106 C107 1.304 . S
C106 C110 1.323 . S
C107 C106 1.304 . S
C107 C108 1.371 . S
C107 H116 0.930 . S
C108 C105 1.344 . S
C108 C107 1.371 . S
C108 H117 0.931 . S
C109 C105 1.328 . S
C109 C110 1.433 . S
C109 H118 0.931 . S
C110 C106 1.323 . S
C110 C109 1.433 . S
C110 H119 0.933 . S
C111 Dy81 2.738 . S
C111 O91 1.255 . S
C111 O92 1.249 . S
C111 C105 1.516 . S
H112 C98 0.930 . S
H113 C99 0.931 . S
H114 C100 0.931 . S
H115 C101 0.933 . S
H116 C107 0.930 . S
H117 C108 0.931 . S
H118 C109 0.931 . S
H119 C110 0.933 . S
H120 C121 0.949 . S
C121 H120 0.949 . S
C121 C122 1.395 . S
C121 C123 1.391 . S
C122 C121 1.395 . S
C122 C125 1.390 . S
C123 C121 1.391 . S
C123 C127 1.387 . S
C123 C128 1.491 . S
H124 C125 0.950 . S
C125 C122 1.390 . S
C125 H124 0.950 . S
C125 C126 1.378 . S
C126 C125 1.378 . S
C126 C127 1.409 . S
C127 C123 1.387 . S
C127 C126 1.409 . S
C127 H129 0.951 . S
C128 C123 1.491 . S
C128 C130 1.382 . S
C128 C132 1.404 . S
H129 C127 0.951 . S
C130 C128 1.382 . S
C130 C131 1.390 . S
C130 H135 0.949 . S
C131 C130 1.390 . S
C131 C136 1.399 . S
C132 C128 1.404 . S
C132 H133 0.950 . S
C132 C134 1.375 . S
H133 C132 0.950 . S
C134 C132 1.375 . S
C134 C136 1.382 . S
C134 H138 0.950 . S
H135 C130 0.949 . S
C136 C131 1.399 . S
C136 C134 1.382 . S
C136 H137 0.952 . S
H137 C136 0.952 . S
H138 C134 0.950 . S
H139 C140 0.949 . S
C140 H139 0.949 . S
C140 C141 1.395 . S
C140 C142 1.391 . S
C141 C140 1.395 . S
C141 C144 1.390 . S
C142 C140 1.391 . S
C142 C146 1.387 . S
C142 C147 1.491 . S
H143 C144 0.950 . S
C144 C141 1.390 . S
C144 H143 0.950 . S
C144 C145 1.378 . S
C145 C144 1.378 . S
C145 C146 1.409 . S
C146 C142 1.387 . S
C146 C145 1.409 . S
C146 H148 0.951 . S
C147 C142 1.491 . S
C147 C149 1.382 . S
C147 C151 1.404 . S
H148 C146 0.951 . S
C149 C147 1.382 . S
C149 C150 1.390 . S
C149 H154 0.949 . S
C150 C149 1.390 . S
C150 C155 1.399 . S
C151 C147 1.404 . S
C151 H152 0.950 . S
C151 C153 1.375 . S
H152 C151 0.950 . S
C153 C151 1.375 . S
C153 C155 1.382 . S
C153 H157 0.950 . S
H154 C149 0.949 . S
C155 C150 1.399 . S
C155 C153 1.382 . S
C155 H156 0.952 . S
H156 C155 0.952 . S
H157 C153 0.950 . S
H158 C159 0.949 . S
C159 H158 0.949 . S
C159 C160 1.395 . S
C159 C161 1.391 . S
C160 C159 1.395 . S
C160 C163 1.390 1_455 S
C161 C159 1.391 . S
C161 C165 1.387 . S
C161 C166 1.491 . S
H162 C163 0.950 . S
C163 C160 1.390 1_655 S
C163 H162 0.950 . S
C163 C164 1.378 . S
C164 C163 1.378 . S
C164 C165 1.409 1_655 S
C165 C161 1.387 . S
C165 C164 1.409 1_455 S
C165 H167 0.951 . S
C166 C161 1.491 . S
C166 C168 1.382 . S
C166 C170 1.404 . S
H167 C165 0.951 . S
C168 C166 1.382 . S
C168 C169 1.390 . S
C168 H173 0.949 . S
C169 C168 1.390 . S
C169 C174 1.399 . S
C170 C166 1.404 . S
C170 H171 0.950 . S
C170 C172 1.375 . S
H171 C170 0.950 . S
C172 C170 1.375 . S
C172 C174 1.382 . S
C172 H176 0.950 . S
H173 C168 0.949 . S
C174 C169 1.399 . S
C174 C172 1.382 . S
C174 H175 0.952 . S
H175 C174 0.952 . S
H176 C172 0.950 . S
H177 C178 0.949 1_655 S
C178 H177 0.949 1_455 S
C178 C179 1.395 . S
C178 C180 1.391 . S
C179 C178 1.395 . S
C179 C182 1.390 . S
C180 C178 1.391 . S
C180 C184 1.387 . S
C180 C185 1.491 1_455 S
H181 C182 0.950 . S
C182 C179 1.390 . S
C182 H181 0.950 . S
C182 C183 1.378 . S
C183 C182 1.378 . S
C183 C184 1.409 . S
C184 C180 1.387 . S
C184 C183 1.409 . S
C184 H186 0.951 . S
C185 C180 1.491 1_655 S
C185 C187 1.382 . S
C185 C189 1.404 . S
H186 C184 0.951 . S
C187 C185 1.382 . S
C187 C188 1.390 . S
C187 H192 0.949 . S
C188 C187 1.390 . S
C188 C193 1.399 . S
C189 C185 1.404 . S
C189 H190 0.950 1_655 S
C189 C191 1.375 . S
H190 C189 0.950 1_455 S
C191 C189 1.375 . S
C191 C193 1.382 . S
C191 H195 0.950 . S
H192 C187 0.949 . S
C193 C188 1.399 . S
C193 C191 1.382 . S
C193 H194 0.952 . S
H194 C193 0.952 . S
H195 C191 0.950 . S
H196 C197 0.949 1_565 S
C197 H196 0.949 1_545 S
C197 C198 1.395 . S
C197 C199 1.391 . S
C198 C197 1.395 . S
C198 C201 1.390 . S
C199 C197 1.391 . S
C199 C203 1.387 . S
C199 C204 1.491 1_545 S
H200 C201 0.950 . S
C201 C198 1.390 . S
C201 H200 0.950 . S
C201 C202 1.378 . S
C202 C201 1.378 . S
C202 C203 1.409 . S
C203 C199 1.387 . S
C203 C202 1.409 . S
C203 H205 0.951 . S
C204 C199 1.491 1_565 S
C204 C206 1.382 . S
C204 C208 1.404 . S
H205 C203 0.951 . S
C206 C204 1.382 . S
C206 C207 1.390 . S
C206 H211 0.949 . S
C207 C206 1.390 . S
C207 C212 1.399 . S
C208 C204 1.404 . S
C208 H209 0.950 . S
C208 C210 1.375 . S
H209 C208 0.950 . S
C210 C208 1.375 . S
C210 C212 1.382 . S
C210 H214 0.950 . S
H211 C206 0.949 . S
C212 C207 1.399 . S
C212 C210 1.382 . S
C212 H213 0.952 . S
H213 C212 0.952 . S
H214 C210 0.950 . S
H215 C216 0.949 . S
C216 H215 0.949 . S
C216 C217 1.395 . S
C216 C218 1.391 . S
C217 C216 1.395 . S
C217 C220 1.390 . S
C218 C216 1.391 . S
C218 C222 1.387 . S
C218 C223 1.491 . S
H219 C220 0.950 . S
C220 C217 1.390 . S
C220 H219 0.950 . S
C220 C221 1.378 . S
C221 C220 1.378 . S
C221 C222 1.409 . S
C222 C218 1.387 . S
C222 C221 1.409 . S
C222 H224 0.951 . S
C223 C218 1.491 . S
C223 C225 1.382 . S
C223 C227 1.404 . S
H224 C222 0.951 . S
C225 C223 1.382 . S
C225 C226 1.390 . S
C225 H230 0.949 . S
C226 C225 1.390 . S
C226 C231 1.399 . S
C227 C223 1.404 . S
C227 H228 0.950 . S
C227 C229 1.375 . S
H228 C227 0.950 . S
C229 C227 1.375 . S
C229 C231 1.382 . S
C229 H233 0.950 . S
H230 C225 0.949 . S
C231 C226 1.399 . S
C231 C229 1.382 . S
C231 H232 0.952 . S
H232 C231 0.952 . S
H233 C229 0.950 . S
C234 C235 1.391 . S
C234 C236 1.394 . S
C234 H250 0.931 . S
C235 C234 1.391 . S
C235 C239 1.376 . S
C236 C234 1.394 . S
C236 C237 1.369 . S
C236 C240 1.531 . S
C237 C236 1.369 . S
C237 C238 1.410 . S
C237 C245 1.503 . S
C238 C237 1.410 . S
C238 C239 1.392 . S
C238 C241 1.511 . S
C239 C235 1.376 . S
C239 C238 1.392 . S
C239 H251 0.929 . S
C240 C236 1.531 . S
C240 H252 0.960 . S
C240 H253 0.962 . S
C240 H254 0.960 . S
C241 C238 1.511 . S
C241 H255 0.961 . S
C241 H256 0.961 . S
C241 H257 0.961 . S
C242 C243 1.370 . S
C242 C244 1.363 . S
C242 H258 0.931 . S
C243 C242 1.370 . S
C243 C247 1.408 . S
C244 C242 1.363 . S
C244 C245 1.370 . S
C244 C248 1.524 . S
C245 C237 1.503 . S
C245 C244 1.370 . S
C245 C246 1.403 . S
C246 C245 1.403 . S
C246 C247 1.404 . S
C246 C249 1.539 . S
C247 C243 1.408 . S
C247 C246 1.404 . S
C247 H259 0.930 . S
C248 C244 1.524 . S
C248 H260 0.956 . S
C248 H261 0.961 . S
C248 H262 0.961 . S
C249 C246 1.539 . S
C249 H263 0.958 . S
C249 H264 0.961 . S
C249 H265 0.960 . S
H250 C234 0.931 . S
H251 C239 0.929 . S
H252 C240 0.960 . S
H253 C240 0.962 . S
H254 C240 0.960 . S
H255 C241 0.961 . S
H256 C241 0.961 . S
H257 C241 0.961 . S
H258 C242 0.931 . S
H259 C247 0.930 . S
H260 C248 0.956 . S
H261 C248 0.961 . S
H262 C248 0.961 . S
H263 C249 0.958 . S
H264 C249 0.961 . S
H265 C249 0.960 . S
C266 C267 1.391 . S
C266 C268 1.394 . S
C266 H282 0.931 . S
C267 C266 1.391 . S
C267 C271 1.376 . S
C268 C266 1.394 . S
C268 C269 1.369 . S
C268 C272 1.531 . S
C269 C268 1.369 . S
C269 C270 1.410 . S
C269 C277 1.503 . S
C270 C269 1.410 . S
C270 C271 1.392 . S
C270 C273 1.511 . S
C271 C267 1.376 . S
C271 C270 1.392 . S
C271 H283 0.929 . S
C272 C268 1.531 . S
C272 H284 0.960 . S
C272 H285 0.962 . S
C272 H286 0.960 . S
C273 C270 1.511 . S
C273 H287 0.961 . S
C273 H288 0.961 . S
C273 H289 0.961 . S
C274 C275 1.370 . S
C274 C276 1.363 . S
C274 H290 0.931 . S
C275 C274 1.370 . S
C275 C279 1.408 . S
C276 C274 1.363 . S
C276 C277 1.370 . S
C276 C280 1.524 . S
C277 C269 1.503 . S
C277 C276 1.370 . S
C277 C278 1.403 . S
C278 C277 1.403 . S
C278 C279 1.404 . S
C278 C281 1.539 . S
C279 C275 1.408 . S
C279 C278 1.404 . S
C279 H291 0.930 . S
C280 C276 1.524 . S
C280 H292 0.956 . S
C280 H293 0.961 . S
C280 H294 0.961 . S
C281 C278 1.539 . S
C281 H295 0.958 . S
C281 H296 0.961 . S
C281 H297 0.960 . S
H282 C266 0.931 . S
H283 C271 0.929 . S
H284 C272 0.960 . S
H285 C272 0.962 . S
H286 C272 0.960 . S
H287 C273 0.961 . S
H288 C273 0.961 . S
H289 C273 0.961 . S
H290 C274 0.931 . S
H291 C279 0.930 . S
H292 C280 0.956 . S
H293 C280 0.961 . S
H294 C280 0.961 . S
H295 C281 0.958 . S
H296 C281 0.961 . S
H297 C281 0.960 . S
C298 C299 1.391 . S
C298 C300 1.394 . S
C298 H314 0.931 . S
C299 C298 1.391 . S
C299 C303 1.376 . S
C300 C298 1.394 . S
C300 C301 1.369 . S
C300 C304 1.531 . S
C301 C300 1.369 . S
C301 C302 1.410 . S
C301 C309 1.503 . S
C302 C301 1.410 . S
C302 C303 1.392 . S
C302 C305 1.511 . S
C303 C299 1.376 . S
C303 C302 1.392 . S
C303 H315 0.929 . S
C304 C300 1.531 . S
C304 H316 0.960 . S
C304 H317 0.962 . S
C304 H318 0.960 . S
C305 C302 1.511 . S
C305 H319 0.961 . S
C305 H320 0.961 . S
C305 H321 0.961 . S
C306 C307 1.370 . S
C306 C308 1.363 . S
C306 H322 0.931 . S
C307 C306 1.370 . S
C307 C311 1.408 . S
C308 C306 1.363 . S
C308 C309 1.370 . S
C308 C312 1.524 . S
C309 C301 1.503 . S
C309 C308 1.370 . S
C309 C310 1.403 . S
C310 C309 1.403 . S
C310 C311 1.404 . S
C310 C313 1.539 . S
C311 C307 1.408 . S
C311 C310 1.404 . S
C311 H323 0.930 . S
C312 C308 1.524 . S
C312 H324 0.956 . S
C312 H325 0.961 . S
C312 H326 0.961 . S
C313 C310 1.539 . S
C313 H327 0.958 . S
C313 H328 0.961 . S
C313 H329 0.960 . S
H314 C298 0.931 . S
H315 C303 0.929 . S
H316 C304 0.960 . S
H317 C304 0.962 . S
H318 C304 0.960 . S
H319 C305 0.961 . S
H320 C305 0.961 . S
H321 C305 0.961 . S
H322 C306 0.931 . S
H323 C311 0.930 . S
H324 C312 0.956 . S
H325 C312 0.961 . S
H326 C312 0.961 . S
H327 C313 0.958 . S
H328 C313 0.961 . S
H329 C313 0.960 . S
C330 C331 1.391 . S
C330 C332 1.394 . S
C330 H346 0.931 . S
C331 C330 1.391 . S
C331 C335 1.376 . S
C332 C330 1.394 . S
C332 C333 1.369 . S
C332 C336 1.531 . S
C333 C332 1.369 . S
C333 C334 1.410 . S
C333 C341 1.503 . S
C334 C333 1.410 . S
C334 C335 1.392 . S
C334 C337 1.511 . S
C335 C331 1.376 . S
C335 C334 1.392 . S
C335 H347 0.929 . S
C336 C332 1.531 . S
C336 H348 0.960 . S
C336 H349 0.962 . S
C336 H350 0.960 . S
C337 C334 1.511 . S
C337 H351 0.961 . S
C337 H352 0.961 . S
C337 H353 0.961 . S
C338 C339 1.370 . S
C338 C340 1.363 . S
C338 H354 0.931 . S
C339 C338 1.370 . S
C339 C343 1.408 . S
C340 C338 1.363 . S
C340 C341 1.370 . S
C340 C344 1.524 . S
C341 C333 1.503 . S
C341 C340 1.370 . S
C341 C342 1.403 . S
C342 C341 1.403 . S
C342 C343 1.404 . S
C342 C345 1.539 . S
C343 C339 1.408 . S
C343 C342 1.404 . S
C343 H355 0.930 . S
C344 C340 1.524 . S
C344 H356 0.956 . S
C344 H357 0.961 . S
C344 H358 0.961 . S
C345 C342 1.539 . S
C345 H359 0.958 . S
C345 H360 0.961 . S
C345 H361 0.960 . S
H346 C330 0.931 . S
H347 C335 0.929 . S
H348 C336 0.960 . S
H349 C336 0.962 . S
H350 C336 0.960 . S
H351 C337 0.961 . S
H352 C337 0.961 . S
H353 C337 0.961 . S
H354 C338 0.931 . S
H355 C343 0.930 . S
H356 C344 0.956 . S
H357 C344 0.961 . S
H358 C344 0.961 . S
H359 C345 0.958 . S
H360 C345 0.961 . S
H361 C345 0.960 . S
C362 C363 1.391 . S
C362 C364 1.394 . S
C362 H378 0.931 . S
C363 C362 1.391 . S
C363 C367 1.376 . S
C364 C362 1.394 . S
C364 C365 1.369 . S
C364 C368 1.531 . S
C365 C364 1.369 . S
C365 C366 1.410 . S
C365 C373 1.503 . S
C366 C365 1.410 . S
C366 C367 1.392 . S
C366 C369 1.511 . S
C367 C363 1.376 . S
C367 C366 1.392 . S
C367 H379 0.929 . S
C368 C364 1.531 . S
C368 H380 0.960 . S
C368 H381 0.962 . S
C368 H382 0.960 . S
C369 C366 1.511 . S
C369 H383 0.961 . S
C369 H384 0.961 . S
C369 H385 0.961 . S
C370 C371 1.370 . S
C370 C372 1.363 . S
C370 H386 0.931 . S
C371 C370 1.370 . S
C371 C375 1.408 . S
C372 C370 1.363 . S
C372 C373 1.370 . S
C372 C376 1.524 . S
C373 C365 1.503 . S
C373 C372 1.370 . S
C373 C374 1.403 . S
C374 C373 1.403 . S
C374 C375 1.404 . S
C374 C377 1.539 . S
C375 C371 1.408 . S
C375 C374 1.404 . S
C375 H387 0.930 . S
C376 C372 1.524 . S
C376 H388 0.956 . S
C376 H389 0.961 . S
C376 H390 0.961 . S
C377 C374 1.539 . S
C377 H391 0.958 . S
C377 H392 0.961 . S
C377 H393 0.960 . S
H378 C362 0.931 . S
H379 C367 0.929 . S
H380 C368 0.960 . S
H381 C368 0.962 . S
H382 C368 0.960 . S
H383 C369 0.961 . S
H384 C369 0.961 . S
H385 C369 0.961 . S
H386 C370 0.931 . S
H387 C375 0.930 . S
H388 C376 0.956 . S
H389 C376 0.961 . S
H390 C376 0.961 . S
H391 C377 0.958 . S
H392 C377 0.961 . S
H393 C377 0.960 . S
C394 C395 1.391 . S
C394 C396 1.394 . S
C394 H410 0.931 . S
C395 C394 1.391 . S
C395 C399 1.376 . S
C396 C394 1.394 . S
C396 C397 1.369 . S
C396 C400 1.531 . S
C397 C396 1.369 . S
C397 C398 1.410 . S
C397 C405 1.503 . S
C398 C397 1.410 . S
C398 C399 1.392 . S
C398 C401 1.511 . S
C399 C395 1.376 . S
C399 C398 1.392 . S
C399 H411 0.929 . S
C400 C396 1.531 . S
C400 H412 0.960 . S
C400 H413 0.962 . S
C400 H414 0.960 . S
C401 C398 1.511 . S
C401 H415 0.961 . S
C401 H416 0.961 . S
C401 H417 0.961 . S
C402 C403 1.370 . S
C402 C404 1.363 . S
C402 H418 0.931 . S
C403 C402 1.370 . S
C403 C407 1.408 . S
C404 C402 1.363 . S
C404 C405 1.370 . S
C404 C408 1.524 . S
C405 C397 1.503 . S
C405 C404 1.370 . S
C405 C406 1.403 . S
C406 C405 1.403 . S
C406 C407 1.404 . S
C406 C409 1.539 . S
C407 C403 1.408 . S
C407 C406 1.404 . S
C407 H419 0.930 . S
C408 C404 1.524 . S
C408 H420 0.956 . S
C408 H421 0.961 . S
C408 H422 0.961 . S
C409 C406 1.539 . S
C409 H423 0.958 . S
C409 H424 0.961 . S
C409 H425 0.960 . S
H410 C394 0.931 . S
H411 C399 0.929 . S
H412 C400 0.960 . S
H413 C400 0.962 . S
H414 C400 0.960 . S
H415 C401 0.961 . S
H416 C401 0.961 . S
H417 C401 0.961 . S
H418 C402 0.931 . S
H419 C407 0.930 . S
H420 C408 0.956 . S
H421 C408 0.961 . S
H422 C408 0.961 . S
H423 C409 0.958 . S
H424 C409 0.961 . S
H425 C409 0.960 . S
C426 C427 1.391 . S
C426 C428 1.394 . S
C426 H442 0.931 . S
C427 C426 1.391 . S
C427 C431 1.376 . S
C428 C426 1.394 . S
C428 C429 1.369 . S
C428 C432 1.531 . S
C429 C428 1.369 . S
C429 C430 1.410 . S
C429 C437 1.503 . S
C430 C429 1.410 . S
C430 C431 1.392 . S
C430 C433 1.511 . S
C431 C427 1.376 . S
C431 C430 1.392 . S
C431 H443 0.929 . S
C432 C428 1.531 . S
C432 H444 0.960 . S
C432 H445 0.962 . S
C432 H446 0.960 . S
C433 C430 1.511 . S
C433 H447 0.961 . S
C433 H448 0.961 . S
C433 H449 0.961 . S
C434 C435 1.370 . S
C434 C436 1.363 . S
C434 H450 0.931 . S
C435 C434 1.370 . S
C435 C439 1.408 . S
C436 C434 1.363 . S
C436 C437 1.370 . S
C436 C440 1.524 . S
C437 C429 1.503 . S
C437 C436 1.370 . S
C437 C438 1.403 . S
C438 C437 1.403 . S
C438 C439 1.404 . S
C438 C441 1.539 . S
C439 C435 1.408 . S
C439 C438 1.404 . S
C439 H451 0.930 . S
C440 C436 1.524 . S
C440 H452 0.956 . S
C440 H453 0.961 . S
C440 H454 0.961 . S
C441 C438 1.539 . S
C441 H455 0.958 . S
C441 H456 0.961 . S
C441 H457 0.960 . S
H442 C426 0.931 . S
H443 C431 0.929 . S
H444 C432 0.960 . S
H445 C432 0.962 . S
H446 C432 0.960 . S
H447 C433 0.961 . S
H448 C433 0.961 . S
H449 C433 0.961 . S
H450 C434 0.931 . S
H451 C439 0.930 . S
H452 C440 0.956 . S
H453 C440 0.961 . S
H454 C440 0.961 . S
H455 C441 0.958 . S
H456 C441 0.961 . S
H457 C441 0.960 . S
C458 C459 1.391 . S
C458 C460 1.394 . S
C458 H474 0.931 . S
C459 C458 1.391 . S
C459 C463 1.376 . S
C460 C458 1.394 . S
C460 C461 1.369 . S
C460 C464 1.531 . S
C461 C460 1.369 . S
C461 C462 1.410 . S
C461 C469 1.503 . S
C462 C461 1.410 . S
C462 C463 1.392 . S
C462 C465 1.511 . S
C463 C459 1.376 . S
C463 C462 1.392 . S
C463 H475 0.929 . S
C464 C460 1.531 . S
C464 H476 0.960 . S
C464 H477 0.962 . S
C464 H478 0.960 . S
C465 C462 1.511 . S
C465 H479 0.961 . S
C465 H480 0.961 . S
C465 H481 0.961 . S
C466 C467 1.370 . S
C466 C468 1.363 . S
C466 H482 0.931 . S
C467 C466 1.370 . S
C467 C471 1.408 . S
C468 C466 1.363 . S
C468 C469 1.370 . S
C468 C472 1.524 . S
C469 C461 1.503 . S
C469 C468 1.370 . S
C469 C470 1.403 . S
C470 C469 1.403 . S
C470 C471 1.404 . S
C470 C473 1.539 . S
C471 C467 1.408 . S
C471 C470 1.404 . S
C471 H483 0.930 . S
C472 C468 1.524 . S
C472 H484 0.956 . S
C472 H485 0.961 . S
C472 H486 0.961 . S
C473 C470 1.539 . S
C473 H487 0.958 . S
C473 H488 0.961 . S
C473 H489 0.960 . S
H474 C458 0.931 . S
H475 C463 0.929 . S
H476 C464 0.960 . S
H477 C464 0.962 . S
H478 C464 0.960 . S
H479 C465 0.961 . S
H480 C465 0.961 . S
H481 C465 0.961 . S
H482 C466 0.931 . S
H483 C471 0.930 . S
H484 C472 0.956 . S
H485 C472 0.961 . S
H486 C472 0.961 . S
H487 C473 0.958 . S
H488 C473 0.961 . S
H489 C473 0.960 . S
C490 C491 1.391 . S
C490 C492 1.394 . S
C490 H506 0.931 . S
C491 C490 1.391 . S
C491 C495 1.376 . S
C492 C490 1.394 . S
C492 C493 1.369 . S
C492 C496 1.531 . S
C493 C492 1.369 . S
C493 C494 1.410 . S
C493 C501 1.503 . S
C494 C493 1.410 . S
C494 C495 1.392 . S
C494 C497 1.511 . S
C495 C491 1.376 . S
C495 C494 1.392 . S
C495 H507 0.929 . S
C496 C492 1.531 . S
C496 H508 0.960 . S
C496 H509 0.962 1_565 S
C496 H510 0.960 . S
C497 C494 1.511 . S
C497 H511 0.961 . S
C497 H512 0.961 . S
C497 H513 0.961 . S
C498 C499 1.370 . S
C498 C500 1.363 1_545 S
C498 H514 0.931 . S
C499 C498 1.370 . S
C499 C503 1.408 1_545 S
C500 C498 1.363 1_565 S
C500 C501 1.370 . S
C500 C504 1.524 . S
C501 C493 1.503 . S
C501 C500 1.370 . S
C501 C502 1.403 . S
C502 C501 1.403 . S
C502 C503 1.404 . S
C502 C505 1.539 . S
C503 C499 1.408 1_565 S
C503 C502 1.404 . S
C503 H515 0.930 . S
C504 C500 1.524 . S
C504 H516 0.956 . S
C504 H517 0.961 . S
C504 H518 0.961 1_565 S
C505 C502 1.539 . S
C505 H519 0.958 . S
C505 H520 0.961 . S
C505 H521 0.960 . S
H506 C490 0.931 . S
H507 C495 0.929 . S
H508 C496 0.960 . S
H509 C496 0.962 1_545 S
H510 C496 0.960 . S
H511 C497 0.961 . S
H512 C497 0.961 . S
H513 C497 0.961 . S
H514 C498 0.931 . S
H515 C503 0.930 . S
H516 C504 0.956 . S
H517 C504 0.961 . S
H518 C504 0.961 1_545 S
H519 C505 0.958 . S
H520 C505 0.961 . S
H521 C505 0.960 . S
C522 C523 1.391 . S
C522 C524 1.394 . S
C522 H538 0.931 . S
C523 C522 1.391 . S
C523 C527 1.376 . S
C524 C522 1.394 . S
C524 C525 1.369 . S
C524 C528 1.531 . S
C525 C524 1.369 . S
C525 C526 1.410 . S
C525 C533 1.503 . S
C526 C525 1.410 . S
C526 C527 1.392 . S
C526 C529 1.511 . S
C527 C523 1.376 . S
C527 C526 1.392 . S
C527 H539 0.929 . S
C528 C524 1.531 . S
C528 H540 0.960 . S
C528 H541 0.962 . S
C528 H542 0.960 . S
C529 C526 1.511 . S
C529 H543 0.961 . S
C529 H544 0.961 . S
C529 H545 0.961 . S
C530 C531 1.370 . S
C530 C532 1.363 . S
C530 H546 0.931 . S
C531 C530 1.370 . S
C531 C535 1.408 . S
C532 C530 1.363 . S
C532 C533 1.370 . S
C532 C536 1.524 . S
C533 C525 1.503 . S
C533 C532 1.370 . S
C533 C534 1.403 . S
C534 C533 1.403 . S
C534 C535 1.404 . S
C534 C537 1.539 . S
C535 C531 1.408 . S
C535 C534 1.404 . S
C535 H547 0.930 . S
C536 C532 1.524 . S
C536 H548 0.956 . S
C536 H549 0.961 . S
C536 H550 0.961 . S
C537 C534 1.539 . S
C537 H551 0.958 . S
C537 H552 0.961 . S
C537 H553 0.960 . S
H538 C522 0.931 . S
H539 C527 0.929 . S
H540 C528 0.960 . S
H541 C528 0.962 . S
H542 C528 0.960 . S
H543 C529 0.961 . S
H544 C529 0.961 . S
H545 C529 0.961 . S
H546 C530 0.931 . S
H547 C535 0.930 . S
H548 C536 0.956 . S
H549 C536 0.961 . S
H550 C536 0.961 . S
H551 C537 0.958 . S
H552 C537 0.961 . S
H553 C537 0.960 . S
C554 C555 1.391 . S
C554 C556 1.394 . S
C554 H570 0.931 . S
C555 C554 1.391 . S
C555 C559 1.376 . S
C556 C554 1.394 . S
C556 C557 1.369 . S
C556 C560 1.531 . S
C557 C556 1.369 . S
C557 C558 1.410 . S
C557 C565 1.503 . S
C558 C557 1.410 . S
C558 C559 1.392 . S
C558 C561 1.511 . S
C559 C555 1.376 . S
C559 C558 1.392 . S
C559 H571 0.929 . S
C560 C556 1.531 . S
C560 H572 0.960 . S
C560 H573 0.962 . S
C560 H574 0.960 . S
C561 C558 1.511 . S
C561 H575 0.961 . S
C561 H576 0.961 . S
C561 H577 0.961 . S
C562 C563 1.370 . S
C562 C564 1.363 . S
C562 H578 0.931 . S
C563 C562 1.370 . S
C563 C567 1.408 . S
C564 C562 1.363 . S
C564 C565 1.370 . S
C564 C568 1.524 . S
C565 C557 1.503 . S
C565 C564 1.370 . S
C565 C566 1.403 . S
C566 C565 1.403 . S
C566 C567 1.404 . S
C566 C569 1.539 . S
C567 C563 1.408 . S
C567 C566 1.404 . S
C567 H579 0.930 . S
C568 C564 1.524 . S
C568 H580 0.956 . S
C568 H581 0.961 . S
C568 H582 0.961 . S
C569 C566 1.539 . S
C569 H583 0.958 . S
C569 H584 0.961 . S
C569 H585 0.960 . S
H570 C554 0.931 . S
H571 C559 0.929 . S
H572 C560 0.960 . S
H573 C560 0.962 . S
H574 C560 0.960 . S
H575 C561 0.961 . S
H576 C561 0.961 . S
H577 C561 0.961 . S
H578 C562 0.931 . S
H579 C567 0.930 . S
H580 C568 0.956 . S
H581 C568 0.961 . S
H582 C568 0.961 . S
H583 C569 0.958 . S
H584 C569 0.961 . S
H585 C569 0.960 . S
C586 C587 1.391 . S
C586 C588 1.394 . S
C586 H602 0.931 . S
C587 C586 1.391 . S
C587 C591 1.376 . S
C588 C586 1.394 . S
C588 C589 1.369 . S
C588 C592 1.531 . S
C589 C588 1.369 . S
C589 C590 1.410 . S
C589 C597 1.503 . S
C590 C589 1.410 . S
C590 C591 1.392 . S
C590 C593 1.511 . S
C591 C587 1.376 . S
C591 C590 1.392 . S
C591 H603 0.929 . S
C592 C588 1.531 . S
C592 H604 0.960 . S
C592 H605 0.962 . S
C592 H606 0.960 . S
C593 C590 1.511 . S
C593 H607 0.961 . S
C593 H608 0.961 . S
C593 H609 0.961 . S
C594 C595 1.370 . S
C594 C596 1.363 . S
C594 H610 0.931 . S
C595 C594 1.370 . S
C595 C599 1.408 . S
C596 C594 1.363 . S
C596 C597 1.370 . S
C596 C600 1.524 . S
C597 C589 1.503 . S
C597 C596 1.370 . S
C597 C598 1.403 . S
C598 C597 1.403 . S
C598 C599 1.404 . S
C598 C601 1.539 . S
C599 C595 1.408 . S
C599 C598 1.404 . S
C599 H611 0.930 . S
C600 C596 1.524 . S
C600 H612 0.956 . S
C600 H613 0.961 . S
C600 H614 0.961 . S
C601 C598 1.539 . S
C601 H615 0.958 . S
C601 H616 0.961 . S
C601 H617 0.960 . S
H602 C586 0.931 . S
H603 C591 0.929 . S
H604 C592 0.960 . S
H605 C592 0.962 . S
H606 C592 0.960 . S
H607 C593 0.961 . S
H608 C593 0.961 . S
H609 C593 0.961 . S
H610 C594 0.931 . S
H611 C599 0.930 . S
H612 C600 0.956 . S
H613 C600 0.961 . S
H614 C600 0.961 . S
H615 C601 0.958 . S
H616 C601 0.961 . S
H617 C601 0.960 . S
C618 C619 1.391 . S
C618 C620 1.394 . S
C618 H634 0.931 . S
C619 C618 1.391 . S
C619 C623 1.376 . S
C620 C618 1.394 . S
C620 C621 1.369 . S
C620 C624 1.531 . S
C621 C620 1.369 . S
C621 C622 1.410 . S
C621 C629 1.473 1_554 S
C622 C621 1.410 . S
C622 C623 1.392 . S
C622 C625 1.511 . S
C623 C619 1.376 . S
C623 C622 1.392 . S
C623 H635 0.929 . S
C624 C620 1.531 . S
C624 H636 0.960 . S
C624 H637 0.962 . S
C624 H638 0.960 . S
C625 C622 1.511 . S
C625 H639 0.961 . S
C625 H640 0.961 . S
C625 H641 0.961 1_455 S
C626 C627 1.370 . S
C626 C628 1.363 . S
C626 H642 0.931 . S
C627 C626 1.370 . S
C627 C631 1.408 . S
C628 C626 1.363 . S
C628 C629 1.384 . S
C628 C632 1.524 1_556 S
C629 C621 1.473 1_556 S
C629 C628 1.384 . S
C629 C630 1.420 1_455 S
C630 C629 1.420 1_655 S
C630 C631 1.404 1_655 S
C630 C633 1.539 . S
C631 C627 1.408 . S
C631 C630 1.404 1_455 S
C631 H643 0.930 1_455 S
C632 C628 1.524 1_554 S
C632 H644 0.956 . S
C632 H645 0.961 . S
C632 H646 0.961 . S
C633 C630 1.539 . S
C633 H647 0.958 . S
C633 H648 0.961 . S
C633 H649 0.960 . S
H634 C618 0.931 . S
H635 C623 0.929 . S
H636 C624 0.960 . S
H637 C624 0.962 . S
H638 C624 0.960 . S
H639 C625 0.961 . S
H640 C625 0.961 . S
H641 C625 0.961 1_655 S
H642 C626 0.931 . S
H643 C631 0.930 1_655 S
H644 C632 0.956 . S
H645 C632 0.961 . S
H646 C632 0.961 . S
H647 C633 0.958 . S
H648 C633 0.961 . S
H649 C633 0.960 . S
C650 C651 1.391 . S
C650 C652 1.394 . S
C650 H666 0.931 . S
C651 C650 1.391 . S
C651 C655 1.376 . S
C652 C650 1.394 . S
C652 C653 1.369 . S
C652 C656 1.531 . S
C653 C652 1.369 . S
C653 C654 1.410 . S
C653 C661 1.503 . S
C654 C653 1.410 . S
C654 C655 1.392 . S
C654 C657 1.511 . S
C655 C651 1.376 . S
C655 C654 1.392 . S
C655 H667 0.929 . S
C656 C652 1.531 . S
C656 H668 0.960 . S
C656 H669 0.962 . S
C656 H670 0.960 . S
C657 C654 1.511 . S
C657 H671 0.961 . S
C657 H672 0.961 . S
C657 H673 0.961 . S
C658 C659 1.370 . S
C658 C660 1.363 . S
C658 H674 0.931 . S
C659 C658 1.370 . S
C659 C663 1.408 . S
C660 C658 1.363 . S
C660 C661 1.370 . S
C660 C664 1.524 . S
C661 C653 1.503 . S
C661 C660 1.370 . S
C661 C662 1.403 . S
C662 C661 1.403 . S
C662 C663 1.404 . S
C662 C665 1.539 1_545 S
C663 C659 1.408 . S
C663 C662 1.404 . S
C663 H675 0.930 . S
C664 C660 1.524 . S
C664 H676 0.956 . S
C664 H677 0.961 . S
C664 H678 0.961 . S
C665 C662 1.539 1_565 S
C665 H679 0.958 . S
C665 H680 0.961 . S
C665 H681 0.960 . S
H666 C650 0.931 . S
H667 C655 0.929 . S
H668 C656 0.960 . S
H669 C656 0.962 . S
H670 C656 0.960 . S
H671 C657 0.961 . S
H672 C657 0.961 . S
H673 C657 0.961 . S
H674 C658 0.931 . S
H675 C663 0.930 . S
H676 C664 0.956 . S
H677 C664 0.961 . S
H678 C664 0.961 . S
H679 C665 0.958 . S
H680 C665 0.961 . S
H681 C665 0.960 . S
C682 C683 1.391 . S
C682 C684 1.394 . S
C682 H698 0.931 . S
C683 C682 1.391 . S
C683 C687 1.376 . S
C684 C682 1.394 . S
C684 C685 1.369 . S
C684 C688 1.531 . S
C685 C684 1.369 . S
C685 C686 1.410 . S
C685 C693 1.503 . S
C686 C685 1.410 . S
C686 C687 1.392 . S
C686 C689 1.511 . S
C687 C683 1.376 . S
C687 C686 1.392 . S
C687 H699 0.929 . S
C688 C684 1.531 . S
C688 H700 0.960 . S
C688 H701 0.962 . S
C688 H702 0.960 . S
C689 C686 1.511 . S
C689 H703 0.961 . S
C689 H704 0.961 . S
C689 H705 0.961 . S
C690 C691 1.370 . S
C690 C692 1.363 . S
C690 H706 0.931 . S
C691 C690 1.370 . S
C691 C695 1.408 . S
C692 C690 1.363 . S
C692 C693 1.370 . S
C692 C696 1.524 . S
C693 C685 1.503 . S
C693 C692 1.370 . S
C693 C694 1.403 . S
C694 C693 1.403 . S
C694 C695 1.404 . S
C694 C697 1.539 . S
C695 C691 1.408 . S
C695 C694 1.404 . S
C695 H707 0.930 . S
C696 C692 1.524 . S
C696 H708 0.956 . S
C696 H709 0.961 . S
C696 H710 0.961 . S
C697 C694 1.539 . S
C697 H711 0.958 . S
C697 H712 0.961 . S
C697 H713 0.960 . S
H698 C682 0.931 . S
H699 C687 0.929 . S
H700 C688 0.960 . S
H701 C688 0.962 . S
H702 C688 0.960 . S
H703 C689 0.961 . S
H704 C689 0.961 . S
H705 C689 0.961 . S
H706 C690 0.931 . S
H707 C695 0.930 . S
H708 C696 0.956 . S
H709 C696 0.961 . S
H710 C696 0.961 . S
H711 C697 0.958 . S
H712 C697 0.961 . S
H713 C697 0.960 . S
C714 C715 1.391 . S
C714 C716 1.394 . S
C714 H730 0.931 . S
C715 C714 1.391 . S
C715 C719 1.376 . S
C716 C714 1.394 . S
C716 C717 1.369 . S
C716 C720 1.531 . S
C717 C716 1.369 . S
C717 C718 1.410 . S
C717 C725 1.503 . S
C718 C717 1.410 . S
C718 C719 1.392 . S
C718 C721 1.511 1_545 S
C719 C715 1.376 . S
C719 C718 1.392 . S
C719 H731 0.929 1_545 S
C720 C716 1.531 . S
C720 H732 0.960 . S
C720 H733 0.962 . S
C720 H734 0.960 . S
C721 C718 1.511 1_565 S
C721 H735 0.961 . S
C721 H736 0.961 . S
C721 H737 0.961 . S
C722 C723 1.370 . S
C722 C724 1.363 . S
C722 H738 0.931 . S
C723 C722 1.370 . S
C723 C727 1.408 . S
C724 C722 1.363 . S
C724 C725 1.370 . S
C724 C728 1.524 . S
C725 C717 1.503 . S
C725 C724 1.370 . S
C725 C726 1.403 . S
C726 C725 1.403 . S
C726 C727 1.404 . S
C726 C729 1.539 . S
C727 C723 1.408 . S
C727 C726 1.404 . S
C727 H739 0.930 . S
C728 C724 1.524 . S
C728 H740 0.956 . S
C728 H741 0.973 . S
C728 H742 0.961 . S
C729 C726 1.539 . S
C729 H743 0.958 . S
C729 H744 0.961 . S
C729 H745 0.960 . S
H730 C714 0.931 . S
H731 C719 0.929 1_565 S
H732 C720 0.960 . S
H733 C720 0.962 . S
H734 C720 0.960 . S
H735 C721 0.961 . S
H736 C721 0.961 . S
H737 C721 0.961 . S
H738 C722 0.931 . S
H739 C727 0.930 . S
H740 C728 0.956 . S
H741 C728 0.973 . S
H742 C728 0.961 . S
H743 C729 0.958 . S
H744 C729 0.961 . S
H745 C729 0.960 . S
C746 C747 1.391 . S
C746 C748 1.394 . S
C746 H762 0.931 . S
C747 C746 1.391 . S
C747 C751 1.376 . S
C748 C746 1.394 . S
C748 C749 1.369 . S
C748 C752 1.531 . S
C749 C748 1.369 . S
C749 C750 1.410 . S
C749 C757 1.503 1_556 S
C750 C749 1.410 . S
C750 C751 1.392 . S
C750 C753 1.511 . S
C751 C747 1.376 . S
C751 C750 1.392 . S
C751 H763 0.929 . S
C752 C748 1.531 . S
C752 H764 0.960 . S
C752 H765 0.962 . S
C752 H766 0.960 . S
C753 C750 1.511 . S
C753 H767 0.961 . S
C753 H768 0.961 . S
C753 H769 0.961 . S
C754 C755 1.370 . S
C754 C756 1.363 . S
C754 H770 0.931 . S
C755 C754 1.370 . S
C755 C759 1.408 . S
C756 C754 1.363 . S
C756 C757 1.370 . S
C756 C760 1.524 1_554 S
C757 C749 1.503 1_554 S
C757 C756 1.370 . S
C757 C758 1.403 . S
C758 C757 1.403 . S
C758 C759 1.404 . S
C758 C761 1.539 . S
C759 C755 1.408 . S
C759 C758 1.404 . S
C759 H771 0.930 . S
C760 C756 1.524 1_556 S
C760 H772 0.956 . S
C760 H773 0.961 . S
C760 H774 0.961 . S
C761 C758 1.539 . S
C761 H775 0.958 . S
C761 H776 0.961 . S
C761 H777 0.960 . S
H762 C746 0.931 . S
H763 C751 0.929 . S
H764 C752 0.960 . S
H765 C752 0.962 . S
H766 C752 0.960 . S
H767 C753 0.961 . S
H768 C753 0.961 . S
H769 C753 0.961 . S
H770 C754 0.931 . S
H771 C759 0.930 . S
H772 C760 0.956 . S
H773 C760 0.961 . S
H774 C760 0.961 . S
H775 C761 0.958 . S
H776 C761 0.961 . S
H777 C761 0.960 . S
C778 C779 1.391 . S
C778 C780 1.394 . S
C778 H794 0.931 . S
C779 C778 1.391 . S
C779 C783 1.376 . S
C780 C778 1.394 . S
C780 C781 1.369 . S
C780 C784 1.531 . S
C781 C780 1.369 . S
C781 C782 1.410 . S
C781 C789 1.503 . S
C782 C781 1.410 . S
C782 C783 1.392 . S
C782 C785 1.511 1_455 S
C783 C779 1.376 . S
C783 C782 1.392 . S
C783 H795 0.929 1_455 S
C784 C780 1.531 . S
C784 H796 0.960 . S
C784 H797 0.962 . S
C784 H798 0.960 . S
C785 C782 1.511 1_655 S
C785 H799 0.961 . S
C785 H800 0.961 . S
C785 H801 0.961 . S
C786 C787 1.370 . S
C786 C788 1.363 . S
C786 H802 0.931 . S
C787 C786 1.370 . S
C787 C791 1.408 . S
C788 C786 1.363 . S
C788 C789 1.370 . S
C788 C792 1.524 1_455 S
C789 C781 1.503 . S
C789 C788 1.370 . S
C789 C790 1.403 . S
C790 C789 1.403 . S
C790 C791 1.404 . S
C790 C793 1.539 . S
C791 C787 1.408 . S
C791 C790 1.404 . S
C791 H803 0.930 . S
C792 C788 1.524 1_655 S
C792 H804 0.956 1_655 S
C792 H805 0.961 . S
C792 H806 0.961 . S
C793 C790 1.539 . S
C793 H807 0.958 . S
C793 H808 0.961 . S
C793 H809 0.960 . S
H794 C778 0.931 . S
H795 C783 0.929 1_655 S
H796 C784 0.960 . S
H797 C784 0.962 . S
H798 C784 0.960 . S
H799 C785 0.961 . S
H800 C785 0.961 . S
H801 C785 0.961 . S
H802 C786 0.931 . S
H803 C791 0.930 . S
H804 C792 0.956 1_455 S
H805 C792 0.961 . S
H806 C792 0.961 . S
H807 C793 0.958 . S
H808 C793 0.961 . S
H809 C793 0.960 . S
C235 C24 3.083 . S
C243 C226 3.006 . S
C267 C66 1.189 . S
C275 C188 1.171 . S
C299 C93 1.894 . S
C307 C207 1.822 . S
C331 C13 3.015 . S
C339 C221 2.978 . S
C371 C183 1.054 . S
C363 C57 1.056 . S
C403 C202 1.851 . S
C395 C104 1.864 . S
C427 C64 2.045 . S
C435 C150 1.976 . S
C459 C97 0.270 . S
C467 C164 0.218 . S
C491 C17 1.148 . S
C499 C126 1.171 . S
C531 C145 1.704 . S
C523 C53 1.735 . S
C563 C169 0.502 . S
C555 C106 0.294 . S
C587 C26 1.213 . S
C595 C131 1.174 . S
C627 C160 1.329 . S
C619 C2 1.284 . S
C651 C63 1.499 . S
C659 C122 1.500 . S
C683 C82 1.474 . S
C691 C141 1.545 . S
C723 C198 1.506 . S
C715 C42 1.496 . S
C755 C217 1.726 . S
C747 C103 1.711 . S
C779 C23 1.583 . S
C787 C179 1.576 . S
