# Generated by pormake.
# Topology zzz, (3,6)-cn, num edge types: 1
# Building blocks:
#     Node 0, Type 0, BuildingBlock: ESEHIV_clean_linker_0, # of connection points: 3
#     Node 1, Type 0, BuildingBlock: ESEHIV_clean_linker_0, # of connection points: 3
#     Node 2, Type 0, BuildingBlock: ESEHIV_clean_linker_0, # of connection points: 3
#     Node 3, Type 0, BuildingBlock: ESEHIV_clean_linker_0, # of connection points: 3
#     Node 4, Type 0, BuildingBlock: ESEHIV_clean_linker_0, # of connection points: 3
#     Node 5, Type 0, BuildingBlock: ESEHIV_clean_linker_0, # of connection points: 3
#     Node 6, Type 0, BuildingBlock: ESEHIV_clean_linker_0, # of connection points: 3
#     Node 7, Type 0, BuildingBlock: ESEHIV_clean_linker_0, # of connection points: 3
#     Node 8, Type 1, BuildingBlock: JUFBIX_clean_sbu_0, # of connection points: 6
#     Node 9, Type 1, BuildingBlock: JUFBIX_clean_sbu_0, # of connection points: 6
#     Node 10, Type 1, BuildingBlock: JUFBIX_clean_sbu_0, # of connection points: 6
#     Node 11, Type 1, BuildingBlock: JUFBIX_clean_sbu_0, # of connection points: 6
#     Edge 12, Type (0, 1), BuildingBlock: UVAHIK_clean_linker_0, # of connection points: 2
#     Edge 13, Type (0, 1), BuildingBlock: UVAHIK_clean_linker_0, # of connection points: 2
#     Edge 14, Type (0, 1), BuildingBlock: UVAHIK_clean_linker_0, # of connection points: 2
#     Edge 15, Type (0, 1), BuildingBlock: UVAHIK_clean_linker_0, # of connection points: 2
#     Edge 16, Type (0, 1), BuildingBlock: UVAHIK_clean_linker_0, # of connection points: 2
#     Edge 17, Type (0, 1), BuildingBlock: UVAHIK_clean_linker_0, # of connection points: 2
#     Edge 18, Type (0, 1), BuildingBlock: UVAHIK_clean_linker_0, # of connection points: 2
#     Edge 19, Type (0, 1), BuildingBlock: UVAHIK_clean_linker_0, # of connection points: 2
#     Edge 20, Type (0, 1), BuildingBlock: UVAHIK_clean_linker_0, # of connection points: 2
#     Edge 21, Type (0, 1), BuildingBlock: UVAHIK_clean_linker_0, # of connection points: 2
#     Edge 22, Type (0, 1), BuildingBlock: UVAHIK_clean_linker_0, # of connection points: 2
#     Edge 23, Type (0, 1), BuildingBlock: UVAHIK_clean_linker_0, # of connection points: 2
#     Edge 24, Type (0, 1), BuildingBlock: UVAHIK_clean_linker_0, # of connection points: 2
#     Edge 25, Type (0, 1), BuildingBlock: UVAHIK_clean_linker_0, # of connection points: 2
#     Edge 26, Type (0, 1), BuildingBlock: UVAHIK_clean_linker_0, # of connection points: 2
#     Edge 27, Type (0, 1), BuildingBlock: UVAHIK_clean_linker_0, # of connection points: 2
#     Edge 28, Type (0, 1), BuildingBlock: UVAHIK_clean_linker_0, # of connection points: 2
#     Edge 29, Type (0, 1), BuildingBlock: UVAHIK_clean_linker_0, # of connection points: 2
#     Edge 30, Type (0, 1), BuildingBlock: UVAHIK_clean_linker_0, # of connection points: 2
#     Edge 31, Type (0, 1), BuildingBlock: UVAHIK_clean_linker_0, # of connection points: 2
#     Edge 32, Type (0, 1), BuildingBlock: UVAHIK_clean_linker_0, # of connection points: 2
#     Edge 33, Type (0, 1), BuildingBlock: UVAHIK_clean_linker_0, # of connection points: 2
#     Edge 34, Type (0, 1), BuildingBlock: UVAHIK_clean_linker_0, # of connection points: 2
#     Edge 35, Type (0, 1), BuildingBlock: UVAHIK_clean_linker_0, # of connection points: 2
# Relax obj value: 0.290
# Max RMSD: 0.223
# Mean RMSD: 0.188
data_MOF--net-zzz--node1-JUFBIX_clean_sbu_0--node2-ESEHIV_clean_linker_0--edge1-UVAHIK_clean_linker_0
_symmetry_space_group_name_H-M    P1
_symmetry_Int_Tables_number       1
_symmetry_cell_setting            triclinic
loop_
_symmetry_equiv_pos_as_xyz
'x, y, z'
_cell_length_a     58.02481
_cell_length_b     59.804961
_cell_length_c     22.988218
_cell_angle_alpha  82.908618
_cell_angle_beta   90.178234
_cell_angle_gamma 86.561998
loop_
_atom_site_label
_atom_site_type_symbol
_atom_site_fract_x
_atom_site_fract_y
_atom_site_fract_z
_atom_type_partial_charge
H0 H 0.8126 0.55774 0.29715 0.0
H1 H 0.75946 0.55704 0.16706 0.0
H2 H 0.74239 0.5781 0.33512 0.0
C3 C 0.79465 0.56066 0.28342 0.0
C4 C 0.77843 0.56867 0.32218 0.0
C5 C 0.788 0.55619 0.22766 0.0
C6 C 0.76487 0.56048 0.21011 0.0
C7 C 0.7484 0.56849 0.24838 0.0
C8 C 0.75509 0.57227 0.30506 0.0
H9 H 0.028 0.80494 0.28067 0.0
H10 H 0.03846 0.75561 0.16196 0.0
H11 H 0.01487 0.73544 0.33751 0.0
C12 C 0.02785 0.78752 0.27202 0.0
C13 C 0.02123 0.77088 0.31626 0.0
C14 C 0.03403 0.78209 0.2166 0.0
C15 C 0.03401 0.75968 0.2054 0.0
C16 C 0.02713 0.74266 0.24843 0.0
C17 C 0.02028 0.74837 0.30399 0.0
H18 H 0.71123 0.96389 0.2521 0.0
H19 H 0.76446 0.97366 0.12392 0.0
H20 H 0.78254 0.95857 0.30723 0.0
C21 C 0.72941 0.96391 0.24116 0.0
C22 C 0.74604 0.96029 0.28621 0.0
C23 C 0.7359 0.96888 0.18267 0.0
C24 C 0.75933 0.96982 0.16923 0.0
C25 C 0.77627 0.96584 0.21364 0.0
C26 C 0.76962 0.96098 0.27251 0.0
H27 H 0.47466 0.69577 0.25205 0.0
H28 H 0.49087 0.76421 0.26293 0.0
H29 H 0.46815 0.74459 0.09856 0.0
C30 C 0.47551 0.71297 0.23114 0.0
C31 C 0.47024 0.7182 0.17136 0.0
C32 C 0.48285 0.7294 0.26425 0.0
C33 C 0.48518 0.75152 0.23721 0.0
C34 C 0.47952 0.75726 0.17726 0.0
C35 C 0.47215 0.74043 0.14485 0.0
H36 H 0.18767 0.46783 0.2302 0.0
H37 H 0.2412 0.48096 0.34867 0.0
H38 H 0.25894 0.45593 0.1856 0.0
C39 C 0.20584 0.46792 0.24139 0.0
C40 C 0.22244 0.46096 0.20219 0.0
C41 C 0.21239 0.47523 0.29422 0.0
C42 C 0.23592 0.47519 0.30804 0.0
C43 C 0.25277 0.46811 0.2694 0.0
C44 C 0.24603 0.46097 0.21617 0.0
H45 H 0.98231 0.2101 0.25657 0.0
H46 H 0.96655 0.25876 0.3747 0.0
H47 H 0.99071 0.28057 0.20055 0.0
C48 C 0.98122 0.22751 0.26562 0.0
C49 C 0.98726 0.24463 0.22213 0.0
C50 C 0.97353 0.23258 0.32027 0.0
C51 C 0.97187 0.25503 0.33155 0.0
C52 C 0.97809 0.27257 0.28908 0.0
C53 C 0.98591 0.26729 0.23389 0.0
H54 H 0.28644 0.05819 0.27664 0.0
H55 H 0.23427 0.04257 0.40453 0.0
H56 H 0.21516 0.06007 0.22245 0.0
C57 C 0.26839 0.05675 0.28778 0.0
C58 C 0.25157 0.06029 0.24313 0.0
C59 C 0.26232 0.05013 0.34591 0.0
C60 C 0.23909 0.04749 0.3594 0.0
C61 C 0.22194 0.05119 0.31545 0.0
C62 C 0.22819 0.0577 0.25691 0.0
H63 H 0.51533 0.32806 0.28395 0.0
H64 H 0.49611 0.26039 0.27469 0.0
H65 H 0.51984 0.27963 0.43857 0.0
C66 C 0.51359 0.31105 0.3054 0.0
C67 C 0.51873 0.30583 0.36526 0.0
C68 C 0.50563 0.29479 0.27268 0.0
C69 C 0.50254 0.27287 0.30001 0.0
C70 C 0.5073 0.26736 0.36049 0.0
C71 C 0.51556 0.28392 0.39246 0.0
Co72 Co 0.00855 0.01684 0.79935 0.0
C73 C 0.96994 0.99455 0.84349 0.0
Co74 Co 0.99175 0.99696 0.73715 0.0
C75 C 0.01911 0.05662 0.85482 0.0
C76 C 0.02925 0.02557 0.90763 0.0
N77 N 0.02067 0.03392 0.85418 0.0
N78 N 0.02592 0.06257 0.90678 0.0
C79 C 0.03247 0.04304 0.93985 0.0
H80 H 0.01159 0.06849 0.81955 0.0
H81 H 0.03165 0.00782 0.9238 0.0
C82 C 0.03046 0.01932 0.69336 0.0
N83 N 0.97965 0.97982 0.68278 0.0
C84 C 0.97927 0.95709 0.68546 0.0
C85 C 0.97275 0.98769 0.62767 0.0
N86 N 0.97275 0.9504 0.6339 0.0
C87 C 0.9685 0.96981 0.59776 0.0
C88 C 0.97416 0.04099 0.72824 0.0
O89 O 0.0313 0.02611 0.74366 0.0
O90 O 0.01471 0.0065 0.68223 0.0
O91 O 0.97222 0.02246 0.70745 0.0
O92 O 0.98877 0.04187 0.76901 0.0
O93 O 0.96889 0.98771 0.79324 0.0
H94 H 0.97215 0.00524 0.60918 0.0
H95 H 0.98458 0.94569 0.72397 0.0
O96 O 0.98577 0.00733 0.8541 0.0
O97 O 0.02814 0.99127 0.8287 0.0
O98 O 0.01148 0.97191 0.7673 0.0
C99 C 0.0262 0.97278 0.80775 0.0
H100 H 0.03819 0.04141 0.98513 0.0
H101 H 0.96396 0.97119 0.55176 0.0
Co102 Co 0.49044 0.01909 0.80171 0.0
C103 C 0.49836 0.9721 0.8251 0.0
Co104 Co 0.50748 0.0029 0.73023 0.0
C105 C 0.45392 0.04201 0.86123 0.0
C106 C 0.48136 0.02816 0.91961 0.0
N107 N 0.47508 0.03117 0.86258 0.0
N108 N 0.44653 0.04555 0.91527 0.0
C109 C 0.46393 0.03697 0.95199 0.0
H110 H 0.44383 0.0465 0.82143 0.0
H111 H 0.49706 0.01906 0.93695 0.0
C112 C 0.4995 0.04992 0.70704 0.0
N113 N 0.52281 0.99099 0.6689 0.0
C114 C 0.54448 0.98129 0.66854 0.0
C115 C 0.51616 0.99439 0.61205 0.0
N116 N 0.55174 0.97908 0.61371 0.0
C117 C 0.5339 0.98718 0.57808 0.0
C118 C 0.46018 0.00584 0.7198 0.0
O119 O 0.49086 0.0482 0.75808 0.0
O120 O 0.50777 0.03223 0.68717 0.0
O121 O 0.47849 0.99886 0.69589 0.0
O122 O 0.46172 0.01489 0.76663 0.0
O123 O 0.50704 0.97369 0.77405 0.0
H124 H 0.50007 0.00304 0.59586 0.0
H125 H 0.55544 0.9776 0.70713 0.0
O126 O 0.49014 0.98987 0.84471 0.0
O127 O 0.51946 0.02312 0.83619 0.0
O128 O 0.53615 0.0071 0.76527 0.0
C129 C 0.53775 0.01614 0.81211 0.0
H130 H 0.46364 0.03583 0.99931 0.0
H131 H 0.53415 0.98889 0.53065 0.0
Co132 Co 0.51873 0.51307 0.78048 0.0
C133 C 0.49628 0.47448 0.82501 0.0
Co134 Co 0.48276 0.51203 0.74891 0.0
C135 C 0.55701 0.52781 0.8438 0.0
C136 C 0.56554 0.49682 0.80897 0.0
N137 N 0.5484 0.51297 0.81091 0.0
N138 N 0.57876 0.52151 0.86268 0.0
C139 C 0.58423 0.50207 0.8405 0.0
H140 H 0.54737 0.5428 0.85449 0.0
H141 H 0.56427 0.48177 0.78776 0.0
C142 C 0.50529 0.55064 0.70426 0.0
N143 N 0.45298 0.51244 0.71807 0.0
C144 C 0.44479 0.4997 0.67883 0.0
C145 C 0.43586 0.52836 0.72323 0.0
N146 N 0.42352 0.50732 0.65864 0.0
C147 C 0.4178 0.52524 0.68697 0.0
C148 C 0.48559 0.53315 0.84827 0.0
O149 O 0.52239 0.54148 0.73499 0.0
O150 O 0.48673 0.54038 0.70396 0.0
O151 O 0.47151 0.52721 0.81162 0.0
O152 O 0.50701 0.5282 0.84317 0.0
O153 O 0.47905 0.4836 0.79462 0.0
H154 H 0.43689 0.54221 0.74903 0.0
H155 H 0.45479 0.48601 0.66236 0.0
O156 O 0.51485 0.48475 0.82516 0.0
O157 O 0.5301 0.49784 0.71781 0.0
O158 O 0.49454 0.49688 0.6865 0.0
C159 C 0.51594 0.49188 0.68131 0.0
H160 H 0.60021 0.49184 0.84861 0.0
H161 H 0.40203 0.5359 0.6803 0.0
Co162 Co 0.00305 0.52507 0.77544 0.0
C163 C 0.03521 0.49206 0.828 0.0
Co164 Co 0.99625 0.49006 0.76059 0.0
C165 C 0.0092 0.56061 0.84801 0.0
C166 C 0.01221 0.57245 0.75677 0.0
N167 N 0.00833 0.55383 0.79402 0.0
N168 N 0.01353 0.58262 0.84588 0.0
C169 C 0.01554 0.59011 0.78851 0.0
H170 H 0.00705 0.54953 0.8883 0.0
H171 H 0.01252 0.57318 0.70954 0.0
C172 C 0.96398 0.52289 0.70828 0.0
N173 N 0.99096 0.46136 0.74153 0.0
C174 C 0.99065 0.45496 0.6871 0.0
C175 C 0.98652 0.44259 0.7776 0.0
N176 N 0.98625 0.43304 0.68773 0.0
C177 C 0.98349 0.42519 0.7446 0.0
C178 C 0.97415 0.50223 0.85737 0.0
O179 O 0.97641 0.53675 0.72976 0.0
O180 O 0.97007 0.50195 0.71564 0.0
O181 O 0.97707 0.48579 0.82747 0.0
O182 O 0.98419 0.52028 0.84207 0.0
O183 O 0.02262 0.47837 0.80639 0.0
H184 H 0.98563 0.44157 0.82483 0.0
H185 H 0.99326 0.46625 0.64744 0.0
O186 O 0.02942 0.51308 0.82036 0.0
O187 O 0.02202 0.52942 0.70841 0.0
O188 O 0.01538 0.49484 0.69415 0.0
C189 C 0.02525 0.51297 0.67874 0.0
H190 H 0.0188 0.60724 0.77075 0.0
H191 H 0.97996 0.40801 0.76119 0.0
C192 C 0.18117 0.06567 0.32939 0.0
C193 C 0.19784 0.04753 0.33295 0.0
C194 C 0.16051 0.06348 0.36058 0.0
C195 C 0.14154 0.03274 0.4966 0.0
H196 H 0.07916 0.05368 0.44743 0.0
C197 C 0.06783 0.03606 0.66265 0.0
C198 C 0.04781 0.02575 0.64822 0.0
C199 C 0.08483 0.04075 0.62064 0.0
C200 C 0.09652 0.04779 0.46166 0.0
H201 H 0.20542 0.01249 0.36721 0.0
H202 H 0.16938 0.00857 0.42083 0.0
H203 H 0.11064 0.0568 0.37618 0.0
H204 H 0.02948 0.01317 0.57766 0.0
H205 H 0.05913 0.02146 0.50447 0.0
H206 H 0.12768 0.02368 0.58173 0.0
C207 C 0.1723 0.02454 0.395 0.0
C208 C 0.11449 0.04966 0.42102 0.0
C209 C 0.1928 0.02671 0.36397 0.0
C210 C 0.04478 0.02099 0.59034 0.0
C211 C 0.06167 0.02589 0.54822 0.0
C212 C 0.12372 0.03114 0.53719 0.0
C213 C 0.15641 0.04316 0.39576 0.0
C214 C 0.13712 0.04185 0.43801 0.0
C215 C 0.08205 0.03546 0.56318 0.0
C216 C 0.10099 0.03847 0.52016 0.0
H217 H 0.18484 0.08194 0.30621 0.0
H218 H 0.14853 0.0781 0.36041 0.0
H219 H 0.15888 0.02691 0.5112 0.0
H220 H 0.07064 0.04002 0.70675 0.0
H221 H 0.10029 0.04833 0.63325 0.0
C222 C 0.49326 0.24224 0.4467 0.0
C223 C 0.50366 0.24451 0.3913 0.0
C224 C 0.49166 0.22099 0.4787 0.0
C225 C 0.49495 0.15963 0.46756 0.0
H226 H 0.50951 0.15502 0.63359 0.0
C227 C 0.50893 0.07381 0.61372 0.0
C228 C 0.49966 0.07214 0.67046 0.0
C229 C 0.50887 0.09468 0.57875 0.0
C230 C 0.50512 0.15603 0.58747 0.0
H231 H 0.51984 0.22617 0.32517 0.0
H232 H 0.51713 0.18889 0.38129 0.0
H233 H 0.50995 0.19144 0.57342 0.0
H234 H 0.48296 0.09112 0.73476 0.0
H235 H 0.48275 0.1275 0.67361 0.0
H236 H 0.49023 0.12412 0.48178 0.0
C237 C 0.51007 0.2036 0.39978 0.0
C238 C 0.50536 0.17694 0.55291 0.0
C239 C 0.51162 0.22494 0.36759 0.0
C240 C 0.49033 0.09182 0.6914 0.0
C241 C 0.49031 0.1127 0.65641 0.0
C242 C 0.49471 0.13867 0.5022 0.0
C243 C 0.50045 0.20143 0.45622 0.0
C244 C 0.50021 0.17904 0.49256 0.0
C245 C 0.49958 0.11438 0.59965 0.0
C246 C 0.49976 0.13664 0.56262 0.0
H247 H 0.48653 0.25697 0.46565 0.0
H248 H 0.48364 0.21992 0.52135 0.0
H249 H 0.49065 0.16068 0.42139 0.0
H250 H 0.51627 0.05899 0.59619 0.0
H251 H 0.51643 0.0954 0.53558 0.0
C252 C 0.29087 0.44904 0.30272 0.0
C253 C 0.27727 0.46898 0.28568 0.0
C254 C 0.31217 0.4499 0.33099 0.0
C255 C 0.35563 0.48933 0.36945 0.0
H256 H 0.35969 0.45084 0.51829 0.0
C257 C 0.39761 0.51605 0.5726 0.0
C258 C 0.41112 0.5002 0.61042 0.0
C259 C 0.38572 0.50943 0.52544 0.0
C260 C 0.35914 0.46139 0.47642 0.0
H261 H 0.27545 0.50536 0.28129 0.0
H262 H 0.31256 0.50702 0.32977 0.0
H263 H 0.33145 0.44397 0.44467 0.0
H264 H 0.42288 0.46494 0.62821 0.0
H265 H 0.40169 0.45319 0.54561 0.0
H266 H 0.38251 0.50745 0.40246 0.0
C267 C 0.30712 0.49071 0.32128 0.0
C268 C 0.34299 0.45743 0.43411 0.0
C269 C 0.28583 0.48981 0.29365 0.0
C270 C 0.41261 0.47751 0.5997 0.0
C271 C 0.40046 0.4708 0.55265 0.0
C272 C 0.3717 0.49332 0.41175 0.0
C273 C 0.32019 0.47075 0.34209 0.0
C274 C 0.34048 0.47188 0.38104 0.0
C275 C 0.38692 0.48674 0.51498 0.0
C276 C 0.37302 0.47992 0.46651 0.0
H277 H 0.28439 0.43278 0.29746 0.0
H278 H 0.32194 0.43426 0.34617 0.0
H279 H 0.35441 0.5005 0.32858 0.0
H280 H 0.39639 0.5337 0.57903 0.0
H281 H 0.37517 0.52206 0.49777 0.0
C282 C 0.95779 0.30363 0.3359 0.0
C283 C 0.97709 0.29589 0.30565 0.0
C284 C 0.9586 0.32268 0.36513 0.0
C285 C 0.0017 0.35542 0.43222 0.0
H286 H 0.94648 0.38973 0.47268 0.0
C287 C 0.00048 0.42455 0.59101 0.0
C288 C 0.9852 0.42059 0.63802 0.0
C289 C -0.00018 0.41206 0.54337 0.0
C290 C 0.96204 0.3803 0.46161 0.0
H291 H 0.01172 0.30325 0.27798 0.0
H292 H 0.01291 0.33729 0.32697 0.0
H293 H 0.94458 0.36504 0.39616 0.0
H294 H 0.95695 0.40088 0.67142 0.0
H295 H 0.95534 0.37946 0.58735 0.0
H296 H 0.01909 0.37115 0.49754 0.0
C297 C 0.99734 0.32813 0.32986 0.0
C298 C 0.96099 0.36603 0.41793 0.0
C299 C 0.99656 0.30883 0.30088 0.0
C300 C 0.969 0.40416 0.63596 0.0
C301 C 0.96798 0.39205 0.58775 0.0
C302 C 0.00282 0.37008 0.47511 0.0
C303 C 0.97867 0.33481 0.36436 0.0
C304 C 0.98064 0.3528 0.40379 0.0
C305 C 0.98349 0.39576 0.54117 0.0
C306 C 0.98287 0.38218 0.49132 0.0
H307 H 0.94245 0.29408 0.34 0.0
H308 H 0.9439 0.32693 0.39135 0.0
H309 H 0.01716 0.34539 0.4235 0.0
H310 H 0.01325 0.437 0.59172 0.0
H311 H 0.01196 0.41524 0.50803 0.0
C312 C 0.81608 0.94875 0.20069 0.0
C313 C 0.80064 0.96786 0.19663 0.0
C314 C 0.83745 0.94984 0.17248 0.0
C315 C 0.8782 0.98987 0.09945 0.0
H316 H 0.89233 0.94263 0.00139 0.0
C317 C 0.93295 0.97741 0.8773 0.0
C318 C 0.95296 0.98815 0.88966 0.0
C319 C 0.91647 0.9727 0.92085 0.0
C320 C 0.88859 0.95597 0.02842 0.0
H321 H 0.79556 0.00322 0.16291 0.0
H322 H 0.83276 0.0053 0.11444 0.0
H323 H 0.86036 0.9391 0.07013 0.0
H324 H 0.97184 0.00143 0.9582 0.0
H325 H 0.94345 0.99291 0.03383 0.0
H326 H 0.90563 0.00727 0.05614 0.0
C327 C 0.82867 0.98949 0.13937 0.0
C328 C 0.87048 0.9538 0.06844 0.0
C329 C 0.80735 0.98834 0.16705 0.0
C330 C 0.95648 0.9934 0.94688 0.0
C331 C 0.94014 0.98859 0.99032 0.0
C332 C 0.89626 0.99204 0.05954 0.0
C333 C 0.84371 0.97012 0.14027 0.0
C334 C 0.8648 0.97094 0.10363 0.0
C335 C 0.91973 0.97854 0.97769 0.0
C336 C 0.90147 0.9753 0.02284 0.0
H337 H 0.81108 0.93272 0.22273 0.0
H338 H 0.84877 0.93469 0.17441 0.0
H339 H 0.8744 0.00328 0.12625 0.0
H340 H 0.92974 0.97314 0.83368 0.0
H341 H 0.90084 0.96514 0.90942 0.0
C342 C 0.46435 0.7903 0.10695 0.0
C343 C 0.48148 0.78058 0.14728 0.0
C344 C 0.46705 0.81118 0.07404 0.0
C345 C 0.49875 0.8631 0.06635 0.0
H346 H 0.48207 0.86857 0.9014 0.0
C347 C 0.48961 0.94888 0.91979 0.0
C348 C 0.49787 0.94999 0.86209 0.0
C349 C 0.48897 0.92818 0.95509 0.0
C350 C 0.48701 0.86728 0.94722 0.0
H351 H 0.51457 0.78561 0.18606 0.0
H352 H 0.51925 0.82233 0.12868 0.0
H353 H 0.47831 0.83281 0.96307 0.0
H354 H 0.51212 0.93013 0.79648 0.0
H355 H 0.51098 0.89388 0.85828 0.0
H356 H 0.50756 0.89758 0.0503 0.0
C357 C 0.50369 0.81371 0.12268 0.0
C358 C 0.4846 0.84686 0.98276 0.0
C359 C 0.50099 0.79271 0.15565 0.0
C360 C 0.50559 0.92987 0.84062 0.0
C361 C 0.50485 0.90909 0.87596 0.0
C362 C 0.50107 0.88358 0.03082 0.0
C363 C 0.48693 0.82297 0.08068 0.0
C364 C 0.49024 0.84457 0.04285 0.0
C365 C 0.49651 0.90802 0.93361 0.0
C366 C 0.49507 0.88596 0.9709 0.0
H367 H 0.44887 0.78161 0.10034 0.0
H368 H 0.45356 0.81808 0.04313 0.0
H369 H 0.50316 0.86192 0.11249 0.0
H370 H 0.48353 0.96404 0.93782 0.0
H371 H 0.48215 0.92793 0.99895 0.0
C372 C 0.70915 0.55474 0.23949 0.0
C373 C 0.7243 0.57209 0.22756 0.0
C374 C 0.68899 0.55477 0.20593 0.0
C375 C 0.64477 0.55983 0.13215 0.0
H376 H 0.65939 0.57272 0.96732 0.0
C377 C 0.58222 0.54379 0.9459 0.0
C378 C 0.5926 0.53206 0.90242 0.0
C379 C 0.5958 0.55267 0.98691 0.0
C380 C 0.65499 0.56912 0.01315 0.0
H381 H 0.72985 0.60375 0.17473 0.0
H382 H 0.69425 0.6043 0.11725 0.0
H383 H 0.68632 0.58166 0.04097 0.0
H384 H 0.62527 0.52113 0.8667 0.0
H385 H 0.64894 0.53647 0.93811 0.0
H386 H 0.6139 0.54622 0.10377 0.0
C387 C 0.698 0.59048 0.15167 0.0
C388 C 0.67029 0.57453 0.05549 0.0
C389 C 0.7182 0.59035 0.18495 0.0
C390 C 0.61679 0.5299 0.89994 0.0
C391 C 0.63033 0.5389 0.94052 0.0
C392 C 0.6294 0.55446 0.08962 0.0
C393 C 0.68375 0.57214 0.15981 0.0
C394 C 0.66565 0.56948 0.11557 0.0
C395 C 0.62001 0.5502 0.98482 0.0
C396 C 0.63467 0.55851 0.02971 0.0
H397 H 0.71383 0.5403 0.27147 0.0
H398 H 0.67855 0.54029 0.21312 0.0
H399 H 0.64061 0.55589 0.17801 0.0
H400 H 0.56362 0.54554 0.94932 0.0
H401 H 0.58737 0.56138 0.02035 0.0
C402 C 0.04639 0.71032 0.20531 0.0
C403 C 0.02678 0.71944 0.2319 0.0
C404 C 0.04473 0.69222 0.17292 0.0
C405 C 0.01447 0.64496 0.13637 0.0
H406 H 0.02715 0.66756 0.97492 0.0
C407 C 0.00081 0.59221 0.94306 0.0
C408 C 0.01535 0.59561 0.89438 0.0
C409 C 0.0018 0.60578 0.98855 0.0
C410 C 0.02397 0.66068 0.01975 0.0
H411 H 0.99056 0.71548 0.24982 0.0
H412 H 0.9878 0.68311 0.19397 0.0
H413 H 0.03021 0.6921 0.05086 0.0
H414 H 0.04307 0.61499 0.8565 0.0
H415 H 0.04569 0.63787 0.93641 0.0
H416 H 0.00907 0.61322 0.10578 0.0
C417 C 0.00437 0.69023 0.19813 0.0
C418 C 0.02552 0.6749 0.06322 0.0
C419 C 0.00598 0.70862 0.23032 0.0
C420 C 0.03139 0.6123 0.89299 0.0
C421 C 0.03272 0.62552 0.93882 0.0
C422 C 0.01334 0.63048 0.09284 0.0
C423 C 0.02352 0.68261 0.167 0.0
C424 C 0.02094 0.66718 0.12191 0.0
C425 C 0.01765 0.62282 0.98686 0.0
C426 C 0.01827 0.6381 0.03383 0.0
H427 H 0.06264 0.71833 0.20589 0.0
H428 H 0.05975 0.68654 0.14962 0.0
H429 H 0.01088 0.63866 0.18144 0.0
H430 H 0.98818 0.57954 0.94501 0.0
H431 H 0.98972 0.60325 0.02417 0.0
C432 C 0.98436 0.19597 0.38087 0.0
C433 C 0.96825 0.21428 0.36662 0.0
C434 C 0.98001 0.17911 0.42626 0.0
C435 C 0.97245 0.15674 0.55017 0.0
H436 H 0.91823 0.12178 0.55028 0.0
C437 C 0.96433 0.0823 0.72439 0.0
C438 C 0.96238 0.0621 0.69982 0.0
C439 C 0.95857 0.10305 0.69135 0.0
C440 C 0.9333 0.1316 0.55108 0.0
H441 H 0.93477 0.2292 0.38726 0.0
H442 H 0.92692 0.19921 0.46652 0.0
H443 H 0.9221 0.15424 0.47504 0.0
H444 H 0.95045 0.04767 0.62389 0.0
H445 H 0.94059 0.08396 0.56598 0.0
H446 H 0.98418 0.13394 0.62448 0.0
C447 C 0.94295 0.19813 0.44271 0.0
C448 C 0.93546 0.15014 0.50832 0.0
C449 C 0.94748 0.21524 0.39778 0.0
C450 C 0.95228 0.06296 0.64389 0.0
C451 C 0.94654 0.08376 0.61077 0.0
C452 C 0.97018 0.13849 0.59315 0.0
C453 C 0.95935 0.18011 0.45772 0.0
C454 C 0.95539 0.16242 0.50669 0.0
C455 C 0.95077 0.10397 0.63317 0.0
C456 C 0.95086 0.12538 0.59327 0.0
H457 H 0.00055 0.19494 0.35771 0.0
H458 H 0.99281 0.16524 0.43682 0.0
H459 H 0.98789 0.1661 0.54996 0.0
H460 H 0.97169 0.08218 0.7678 0.0
H461 H 0.96158 0.11839 0.71005 0.0
C462 C 0.29839 0.05927 0.39568 0.0
C463 C 0.2804 0.04482 0.39189 0.0
C464 C 0.316 0.0537 0.43735 0.0
C465 C 0.34598 0.00519 0.52358 0.0
H466 H 0.36941 0.05037 0.6118 0.0
C467 C 0.43568 0.99728 0.63645 0.0
C468 C 0.43748 0.0055 0.69085 0.0
C469 C 0.41472 0.99974 0.60562 0.0
C470 C 0.36288 0.03749 0.58801 0.0
H471 H 0.26663 0.01327 0.42859 0.0
H472 H 0.29746 0.00354 0.50162 0.0
H473 H 0.33583 0.06008 0.54749 0.0
H474 H 0.4184 0.0216 0.75714 0.0
H475 H 0.38189 0.02585 0.70322 0.0
H476 H 0.37328 0.98269 0.56354 0.0
C477 C 0.29791 0.01915 0.47232 0.0
C478 C 0.34383 0.04312 0.5508 0.0
C479 C 0.28019 0.02481 0.43095 0.0
C480 C 0.41765 0.01522 0.71511 0.0
C481 C 0.39675 0.01777 0.68418 0.0
C482 C 0.36517 0.9996 0.5605 0.0
C483 C 0.31604 0.03348 0.47568 0.0
C484 C 0.33535 0.0271 0.51778 0.0
C485 C 0.39522 0.01054 0.62854 0.0
C486 C 0.37391 0.01576 0.59267 0.0
H487 H 0.29887 0.07485 0.36627 0.0
H488 H 0.32989 0.06496 0.43866 0.0
H489 H 0.33988 0.99256 0.49828 0.0
H490 H 0.45065 0.9897 0.61664 0.0
H491 H 0.41407 0.99414 0.56263 0.0
C492 C 0.54125 0.33987 0.37406 0.0
C493 C 0.52636 0.32371 0.39924 0.0
C494 C 0.54608 0.35834 0.40274 0.0
C495 C 0.53499 0.40297 0.45131 0.0
H496 H 0.54654 0.39917 0.6186 0.0
C497 C 0.50878 0.47294 0.5927 0.0
C498 C 0.52371 0.47678 0.63816 0.0
C499 C 0.51429 0.45581 0.55812 0.0
C500 C 0.54369 0.4005 0.57167 0.0
H501 H 0.50578 0.31378 0.4757 0.0
H502 H 0.51463 0.3458 0.52624 0.0
H503 H 0.54718 0.36462 0.57161 0.0
H504 H 0.55668 0.46651 0.68112 0.0
H505 H 0.56613 0.4363 0.62097 0.0
H506 H 0.53053 0.43878 0.45181 0.0
C507 C 0.52253 0.34413 0.48424 0.0
C508 C 0.54386 0.38075 0.54496 0.0
C509 C 0.51749 0.32577 0.45529 0.0
C510 C 0.54485 0.46398 0.6463 0.0
C511 C 0.55021 0.44661 0.6122 0.0
C512 C 0.53454 0.4227 0.47815 0.0
C513 C 0.53639 0.36088 0.45756 0.0
C514 C 0.53907 0.38177 0.48474 0.0
C515 C 0.5347 0.44202 0.5688 0.0
C516 C 0.53844 0.42162 0.53876 0.0
H517 H 0.5488 0.33852 0.33151 0.0
H518 H 0.55707 0.37087 0.38159 0.0
H519 H 0.53106 0.40424 0.40488 0.0
H520 H 0.49239 0.48256 0.58535 0.0
H521 H 0.50194 0.45253 0.52524 0.0
C522 C 0.17548 0.49708 0.31238 0.0
C523 C 0.19457 0.48297 0.33448 0.0
C524 C 0.15787 0.50316 0.34962 0.0
C525 C 0.12751 0.52118 0.44377 0.0
H526 H 0.10609 0.47188 0.55156 0.0
C527 C 0.05772 0.53085 0.62228 0.0
C528 C 0.04214 0.51365 0.63078 0.0
C529 C 0.07604 0.52929 0.58322 0.0
C530 C 0.11179 0.4858 0.52145 0.0
H531 H 0.21057 0.46475 0.41312 0.0
H532 H 0.17984 0.47554 0.47841 0.0
H533 H 0.13964 0.46536 0.49139 0.0
H534 H 0.03252 0.48222 0.60194 0.0
H535 H 0.06419 0.47969 0.53371 0.0
H536 H 0.09924 0.54148 0.47347 0.0
C537 C 0.17843 0.48171 0.43214 0.0
C538 C 0.1312 0.48214 0.48758 0.0
C539 C 0.19609 0.47569 0.3949 0.0
C540 C 0.04438 0.49563 0.59695 0.0
C541 C 0.0626 0.49409 0.55809 0.0
C542 C 0.10809 0.52488 0.47802 0.0
C543 C 0.15896 0.4952 0.40971 0.0
C544 C 0.13917 0.49972 0.44804 0.0
C545 C 0.07902 0.51051 0.55218 0.0
C546 C 0.09989 0.50712 0.51664 0.0
H547 H 0.17403 0.50321 0.26608 0.0
H548 H 0.14302 0.51344 0.33099 0.0
H549 H 0.13339 0.53508 0.4139 0.0
H550 H 0.05643 0.54494 0.64776 0.0
H551 H 0.08846 0.54219 0.57949 0.0
C552 C 0.05902 0.79849 0.13529 0.0
C553 C 0.03902 0.80009 0.16922 0.0
C554 C 0.06307 0.81535 0.08925 0.0
C555 C 0.03247 0.85636 0.98392 0.0
H556 H 0.08593 0.89251 0.97871 0.0
C557 C 0.04938 0.95085 0.88993 0.0
C558 C 0.03842 0.95172 0.83504 0.0
C559 C 0.05602 0.93004 0.92195 0.0
C560 C 0.07108 0.88235 0.97928 0.0
H561 H 0.00756 0.82024 0.18189 0.0
H562 H 0.01442 0.84943 0.10084 0.0
H563 H 0.08365 0.85992 0.05442 0.0
H564 H 0.02836 0.93171 0.76757 0.0
H565 H 0.04005 0.89551 0.82336 0.0
H566 H 0.01932 0.87897 0.91078 0.0
C567 C 0.02703 0.83531 0.11016 0.0
C568 C 0.06983 0.86373 0.02228 0.0
C569 C 0.02319 0.81874 0.15661 0.0
C570 C 0.0364 0.93158 0.81023 0.0
C571 C 0.04307 0.91084 0.84213 0.0
C572 C 0.03382 0.87468 0.94069 0.0
C573 C 0.0469 0.83369 0.07594 0.0
C574 C 0.05016 0.85108 0.02586 0.0
C575 C 0.05185 0.90983 0.89945 0.0
C576 C 0.05283 0.88825 0.93885 0.0
H577 H 0.07148 0.78424 0.14447 0.0
H578 H 0.0785 0.81382 0.06326 0.0
H579 H 0.01719 0.84672 0.9858 0.0
H580 H 0.0513 0.9661 0.91005 0.0
H581 H 0.06268 0.92979 0.96611 0.0
C582 C 0.6994 0.9606 0.13363 0.0
C583 C 0.71805 0.97436 0.13626 0.0
C584 C 0.68183 0.96652 0.09205 0.0
C585 C 0.65293 0.01534 0.00578 0.0
H586 H 0.62799 0.97077 0.91804 0.0
C587 C 0.58029 0.00694 0.81565 0.0
C588 C 0.56052 0.01643 0.84076 0.0
C589 C 0.60126 0.00419 0.84616 0.0
C590 C 0.63493 0.98347 0.94174 0.0
H591 H 0.7331 0.00498 0.09759 0.0
H592 H 0.70219 0.0154 0.02484 0.0
H593 H 0.66173 0.96035 0.98144 0.0
H594 H 0.54758 0.03169 0.91603 0.0
H595 H 0.58439 0.02693 0.96931 0.0
H596 H 0.62578 0.03832 0.96691 0.0
C597 C 0.70126 1.00004 0.0549 0.0
C598 C 0.65409 0.97744 0.97835 0.0
C599 C 0.71898 0.99399 0.09608 0.0
C600 C 0.56249 0.02429 0.89558 0.0
C601 C 0.58356 0.02164 0.92599 0.0
C602 C 0.63359 0.02131 0.96958 0.0
C603 C 0.68246 0.98643 0.05278 0.0
C604 C 0.66312 0.99325 0.01111 0.0
C605 C 0.60296 0.01099 0.90221 0.0
C606 C 0.62433 0.00536 0.93758 0.0
H607 H 0.69836 0.94534 0.16402 0.0
H608 H 0.66742 0.95582 0.09162 0.0
H609 H 0.65949 0.02779 0.03096 0.0
H610 H 0.57942 1.00088 0.77325 0.0
H611 H 0.61605 0.99622 0.82651 0.0
C612 C 0.45044 0.68262 0.16115 0.0
C613 C 0.46408 0.7 0.1366 0.0
C614 C 0.44726 0.66391 0.13186 0.0
C615 C 0.45145 0.64243 0.98901 0.0
H616 H 0.46992 0.58496 0.07947 0.0
C617 C 0.45565 0.55944 0.88578 0.0
C618 C 0.47759 0.54802 0.89179 0.0
C619 C 0.44957 0.5764 0.92054 0.0
C620 C 0.4645 0.60086 0.0539 0.0
H621 H 0.48414 0.71175 0.06057 0.0
H622 H 0.47805 0.67936 0.00886 0.0
H623 H 0.46663 0.61919 0.12788 0.0
H624 H 0.50974 0.54434 0.94146 0.0
H625 H 0.49891 0.5737 0.00279 0.0
H626 H 0.44998 0.62421 0.9147 0.0
C627 C 0.4699 0.68026 0.05091 0.0
C628 C 0.46248 0.62039 0.08157 0.0
C629 C 0.47332 0.69885 0.0805 0.0
C630 C 0.49273 0.55287 0.93575 0.0
C631 C 0.4865 0.56961 0.971 0.0
C632 C 0.45316 0.62285 0.9615 0.0
C633 C 0.45735 0.66236 0.07701 0.0
C634 C 0.45647 0.64143 0.04908 0.0
C635 C 0.46515 0.58199 0.9625 0.0
C636 C 0.46024 0.60198 0.99344 0.0
H637 H 0.44263 0.68321 0.20371 0.0
H638 H 0.43728 0.65045 0.15254 0.0
H639 H 0.44669 0.65844 0.96311 0.0
H640 H 0.44361 0.55609 0.85228 0.0
H641 H 0.43293 0.58561 0.91349 0.0
C642 C 0.80601 0.55562 0.12881 0.0
C643 C 0.80527 0.54689 0.18831 0.0
C644 C 0.8233 0.54785 0.09286 0.0
C645 C 0.86828 0.50199 0.08139 0.0
H646 H 0.89895 0.54906 0.98567 0.0
C647 C 0.93944 0.48689 0.90921 0.0
C648 C 0.95731 0.50185 0.90532 0.0
C649 C 0.92099 0.48978 0.94722 0.0
C650 C 0.89066 0.53572 0.01246 0.0
H651 H 0.82126 0.52234 0.25606 0.0
H652 H 0.85172 0.50909 0.19355 0.0
H653 H 0.86539 0.55903 0.04218 0.0
H654 H 0.971 0.53019 0.94171 0.0
H655 H 0.93915 0.53492 0.00835 0.0
H656 H 0.89403 0.47874 0.05208 0.0
C657 C 0.83889 0.52184 0.17462 0.0
C658 C 0.87123 0.5414 0.04416 0.0
C659 C 0.82164 0.52964 0.21057 0.0
C660 C 0.95731 0.51859 0.94313 0.0
C661 C 0.939 0.5214 0.98106 0.0
C662 C 0.88775 0.49627 0.0493 0.0
C663 C 0.84016 0.53116 0.11567 0.0
C664 C 0.85991 0.52465 0.07933 0.0
C665 C 0.92023 0.50761 0.98185 0.0
C666 C 0.89929 0.51315 0.01515 0.0
H667 H 0.79366 0.56895 0.11048 0.0
H668 H 0.8237 0.55516 0.04738 0.0
H669 H 0.85979 0.48871 0.10785 0.0
H670 H 0.939 0.47387 0.88047 0.0
H671 H 0.90674 0.47889 0.94704 0.0
C672 C 0.01619 0.22689 0.15973 0.0
C673 C 0.99427 0.2377 0.16492 0.0
C674 C 0.02039 0.21277 0.11613 0.0
C675 C 0.98764 0.17432 0.04318 0.0
H676 H 0.04483 0.16208 0.96276 0.0
C677 C 0.0158 0.08639 0.98443 0.0
C678 C 0.02287 0.08452 0.92671 0.0
C679 C 0.01215 0.10751 0.00391 0.0
C680 C 0.02868 0.16546 0.98446 0.0
H681 H 0.95998 0.24337 0.12696 0.0
H682 H 0.9673 0.21896 0.05016 0.0
H683 H 0.03931 0.19674 0.00974 0.0
H684 H 0.03192 0.10339 0.84435 0.0
H685 H 0.02607 0.14066 0.87915 0.0
H686 H 0.9774 0.14268 0.02035 0.0
C687 C 0.98128 0.22136 0.07965 0.0
C688 C 0.02555 0.18521 0.01153 0.0
C689 C 0.97716 0.2356 0.12301 0.0
C690 C 0.02643 0.10436 0.88898 0.0
C691 C 0.02319 0.12561 0.90892 0.0
C692 C 0.9909 0.15451 0.017 0.0
C693 C 0.00259 0.20894 0.07749 0.0
C694 C 0.0051 0.18971 0.04192 0.0
C695 C 0.01578 0.12736 0.96649 0.0
C696 C 0.01159 0.14964 0.98827 0.0
H697 H 0.02945 0.22781 0.19251 0.0
H698 H 0.03692 0.20334 0.11605 0.0
H699 H 0.97182 0.17704 0.06688 0.0
H700 H 0.0126 0.07147 0.01433 0.0
H701 H 0.0066 0.10833 0.0486 0.0
C702 C 0.26626 0.08601 0.16007 0.0
C703 C 0.25978 0.06444 0.18239 0.0
C704 C 0.28152 0.08871 0.11301 0.0
C705 C 0.32893 0.08612 0.06013 0.0
H706 H 0.33982 0.04297 0.94915 0.0
C707 C 0.42017 0.06101 0.98697 0.0
C708 C 0.42377 0.0537 0.9317 0.0
C709 C 0.39792 0.0666 0.0057 0.0
C710 C 0.33696 0.0555 0.97898 0.0
H711 H 0.26288 0.02901 0.17174 0.0
H712 H 0.2897 0.03342 0.09077 0.0
H713 H 0.30261 0.04561 0.99686 0.0
H714 H 0.40643 0.04758 0.85176 0.0
H715 H 0.36782 0.05811 0.88359 0.0
H716 H 0.36315 0.09618 0.04187 0.0
C717 C 0.28274 0.04847 0.10779 0.0
C718 C 0.31563 0.0568 0.00704 0.0
C719 C 0.26727 0.04587 0.15424 0.0
C720 C 0.40451 0.05319 0.89452 0.0
C721 C 0.38222 0.05897 0.91312 0.0
C722 C 0.35011 0.08503 0.03153 0.0
C723 C 0.29099 0.06979 0.08841 0.0
C724 C 0.31162 0.07154 0.04968 0.0
C725 C 0.37857 0.06532 0.96945 0.0
C726 C 0.35476 0.0691 0.99227 0.0
H727 H 0.26095 0.1005 0.18187 0.0
H728 H 0.287 0.10546 0.09843 0.0
H729 H 0.32674 0.09759 0.09289 0.0
H730 H 0.43451 0.06201 0.01651 0.0
H731 H 0.39591 0.07111 0.04966 0.0
C732 C 0.47951 0.31358 0.19334 0.0
C733 C 0.50062 0.30181 0.21 0.0
C734 C 0.47741 0.32754 0.13981 0.0
C735 C 0.51487 0.36359 0.0513 0.0
H736 H 0.46256 0.37746 0.94499 0.0
C737 C 0.51591 0.4385 0.87122 0.0
C738 C 0.49537 0.4519 0.85898 0.0
C739 C 0.51572 0.41758 0.9055 0.0
C740 C 0.47722 0.37394 0.97463 0.0
H741 H 0.53552 0.294 0.18299 0.0
H742 H 0.53183 0.31807 0.08894 0.0
H743 H 0.46318 0.34389 0.01797 0.0
H744 H 0.45838 0.45367 0.8716 0.0
H745 H 0.45809 0.41747 0.93419 0.0
H746 H 0.52847 0.39395 0.01128 0.0
C747 C 0.51691 0.31661 0.11706 0.0
C748 C 0.47762 0.35461 0.01608 0.0
C749 C 0.51897 0.30262 0.17043 0.0
C750 C 0.47447 0.44367 0.88049 0.0
C751 C 0.47433 0.42284 0.916 0.0
C752 C 0.51434 0.38295 0.0107 0.0
C753 C 0.49652 0.33011 0.10263 0.0
C754 C 0.49649 0.34926 0.05484 0.0
C755 C 0.49505 0.40968 0.92978 0.0
C756 C 0.49553 0.38848 0.97171 0.0
H757 H 0.46534 0.31355 0.22393 0.0
H758 H 0.46154 0.33783 0.13011 0.0
H759 H 0.52936 0.36031 0.08162 0.0
H760 H 0.53224 0.44419 0.85425 0.0
H761 H 0.53193 0.40771 0.91339 0.0
C762 C 0.20293 0.43567 0.1425 0.0
C763 C 0.21415 0.45564 0.14522 0.0
C764 C 0.1879 0.43386 0.09588 0.0
C765 C 0.16338 0.46497 0.95493 0.0
H766 H 0.10612 0.44202 0.01698 0.0
C767 C 0.07387 0.49936 0.86711 0.0
C768 C 0.05719 0.48395 0.85848 0.0
C769 C 0.09506 0.49189 0.89366 0.0
C770 C 0.12207 0.44814 0.99861 0.0
H771 H 0.21983 0.48875 0.1005 0.0
H772 H 0.19341 0.48598 0.01975 0.0
H773 H 0.14126 0.43503 0.07585 0.0
H774 H 0.04963 0.44861 0.87117 0.0
H775 H 0.08663 0.43562 0.91945 0.0
H776 H 0.14353 0.47938 0.87922 0.0
C777 C 0.19644 0.47138 0.05226 0.0
C778 C 0.14234 0.44403 0.03219 0.0
C779 C 0.21168 0.47303 0.09849 0.0
C780 C 0.06213 0.46089 0.87735 0.0
C781 C 0.08327 0.45345 0.90486 0.0
C782 C 0.14302 0.46932 0.92171 0.0
C783 C 0.18345 0.45222 0.05191 0.0
C784 C 0.16316 0.45295 0.01155 0.0
C785 C 0.09997 0.46889 0.91292 0.0
C786 C 0.12207 0.46147 0.94396 0.0
H787 H 0.20441 0.42219 0.17866 0.0
H788 H 0.17865 0.41865 0.09636 0.0
H789 H 0.17913 0.47171 0.93703 0.0
H790 H 0.07068 0.51722 0.85278 0.0
H791 H 0.10748 0.50421 0.90013 0.0
C792 C 0.99265 0.77836 0.39444 0.0
C793 C 0.01542 0.77823 0.37406 0.0
C794 C 0.98583 0.79156 0.43864 0.0
C795 C 0.00871 0.82934 0.54305 0.0
H796 H 0.95028 0.86312 0.50765 0.0
C797 C 0.98422 0.90923 0.65374 0.0
C798 C 0.97324 0.92762 0.61778 0.0
C799 C 0.98643 0.8877 0.63528 0.0
C800 C 0.96675 0.85402 0.51802 0.0
H801 H 0.04926 0.79028 0.38657 0.0
H802 H 0.03762 0.81333 0.46215 0.0
H803 H 0.96048 0.83064 0.45746 0.0
H804 H 0.95476 0.93686 0.53509 0.0
H805 H 0.95969 0.9002 0.50206 0.0
H806 H 0.01583 0.85379 0.59998 0.0
C807 C 0.02486 0.8032 0.4455 0.0
C808 C 0.97245 0.83497 0.48988 0.0
C809 C 0.03162 0.78996 0.40187 0.0
C810 C 0.96378 0.9235 0.56388 0.0
C811 C 0.96627 0.90212 0.54514 0.0
C812 C 0.00319 0.84861 0.57043 0.0
C813 C 0.00164 0.80499 0.46295 0.0
C814 C 0.99384 0.82271 0.50062 0.0
C815 C 0.97794 0.88392 0.58007 0.0
C816 C 0.98241 0.86165 0.55708 0.0
H817 H 0.97977 0.76963 0.37331 0.0
H818 H 0.96792 0.79205 0.45172 0.0
H819 H 0.0251 0.82011 0.5538 0.0
H820 H 0.99172 0.9114 0.69561 0.0
H821 H 0.9951 0.87411 0.66419 0.0
C822 C 0.73186 0.93732 0.37528 0.0
C823 C 0.73764 0.95832 0.34695 0.0
C824 C 0.71692 0.93615 0.4232 0.0
C825 C 0.68296 0.97224 0.52049 0.0
H826 H 0.63584 0.93018 0.5025 0.0
C827 C 0.58462 0.98701 0.54852 0.0
C828 C 0.57503 0.97384 0.59617 0.0
C829 C 0.60738 0.9825 0.53202 0.0
C830 C 0.64908 0.94171 0.50879 0.0
H831 H 0.73352 0.99443 0.34743 0.0
H832 H 0.70729 0.99267 0.42961 0.0
H833 H 0.67222 0.92668 0.45077 0.0
H834 H 0.58161 0.94566 0.66391 0.0
H835 H 0.62158 0.93712 0.63322 0.0
H836 H 0.65858 0.98838 0.57443 0.0
C837 C 0.71456 0.97694 0.41685 0.0
C838 C 0.67005 0.93969 0.47947 0.0
C839 C 0.72967 0.97803 0.36959 0.0
C840 C 0.58867 0.956 0.62702 0.0
C841 C 0.6114 0.95115 0.60962 0.0
C842 C 0.66181 0.97448 0.54889 0.0
C843 C 0.70712 0.95603 0.44271 0.0
C844 C 0.68702 0.95539 0.48331 0.0
C845 C 0.62088 0.9645 0.56219 0.0
C846 C 0.64454 0.95956 0.542 0.0
H847 H 0.73756 0.92192 0.35779 0.0
H848 H 0.71204 0.91972 0.4427 0.0
H849 H 0.69572 0.98434 0.52574 0.0
H850 H 0.5746 1.00107 0.52462 0.0
H851 H 0.6144 0.99292 0.49517 0.0
C852 C 0.47051 0.71441 0.36379 0.0
C853 C 0.4882 0.72237 0.32688 0.0
C854 C 0.47575 0.70128 0.41718 0.0
C855 C 0.52162 0.66061 0.4791 0.0
H856 H 0.48018 0.65459 0.61134 0.0
C857 C 0.52762 0.58328 0.66009 0.0
C858 C 0.50645 0.57326 0.67032 0.0
C859 C 0.52836 0.60459 0.62718 0.0
C860 C 0.49199 0.65612 0.57484 0.0
H861 H 0.52513 0.72426 0.31788 0.0
H862 H 0.53448 0.70157 0.41227 0.0
H863 H 0.47667 0.68848 0.54017 0.0
H864 H 0.46944 0.578 0.65522 0.0
H865 H 0.47075 0.615 0.59847 0.0
H866 H 0.53646 0.6279 0.51307 0.0
C867 C 0.51652 0.70528 0.39973 0.0
C868 C 0.48998 0.67552 0.53404 0.0
C869 C 0.51122 0.71852 0.34617 0.0
C870 C 0.48606 0.58516 0.64796 0.0
C871 C 0.48677 0.60649 0.61588 0.0
C872 C 0.52374 0.64127 0.52022 0.0
C873 C 0.49886 0.6957 0.43468 0.0
C874 C 0.50419 0.67764 0.48442 0.0
C875 C 0.50791 0.61641 0.60481 0.0
C876 C 0.50838 0.63846 0.5673 0.0
H877 H 0.45265 0.71691 0.34923 0.0
H878 H 0.46167 0.69404 0.44233 0.0
H879 H 0.5327 0.66147 0.44119 0.0
H880 H 0.54363 0.57455 0.67685 0.0
H881 H 0.5449 0.61185 0.61934 0.0
C882 C 0.78366 0.55481 0.42783 0.0
C883 C 0.78672 0.57175 0.38115 0.0
C884 C 0.79836 0.55256 0.4768 0.0
C885 C 0.8459 0.57738 0.55102 0.0
H886 H 0.87433 0.51672 0.55987 0.0
C887 C 0.93728 0.55266 0.65191 0.0
C888 C 0.94171 0.53042 0.67878 0.0
C889 C 0.91609 0.55915 0.62337 0.0
C890 C 0.86641 0.5336 0.55938 0.0
H891 H 0.80582 0.60083 0.3507 0.0
H892 H 0.83123 0.59724 0.4367 0.0
H893 H 0.83925 0.52643 0.50296 0.0
H894 H 0.92704 0.49794 0.69993 0.0
H895 H 0.89007 0.50937 0.65295 0.0
H896 H 0.87328 0.58454 0.60743 0.0
C897 C 0.81755 0.58573 0.43588 0.0
C898 C 0.84619 0.53916 0.52658 0.0
C899 C 0.80298 0.58784 0.38675 0.0
C900 C 0.92434 0.51508 0.67844 0.0
C901 C 0.90311 0.52165 0.6512 0.0
C902 C 0.86605 0.57171 0.58478 0.0
C903 C 0.81626 0.56728 0.47969 0.0
C904 C 0.83583 0.56114 0.52143 0.0
C905 C 0.89879 0.54363 0.62218 0.0
C906 C 0.87673 0.54977 0.58884 0.0
H907 H 0.77146 0.54204 0.42393 0.0
H908 H 0.79687 0.53831 0.51029 0.0
H909 H 0.8383 0.59449 0.54756 0.0
H910 H 0.95036 0.56485 0.65177 0.0
H911 H 0.91354 0.57616 0.60106 0.0
loop_
_geom_bond_atom_site_label_1
_geom_bond_atom_site_label_2
_geom_bond_distance
_geom_bond_site_symmetry_2
_ccdc_geom_bond_type
H0 C3 0.931 . S
H1 C6 0.928 . S
H2 C8 0.930 . S
C3 H0 0.931 . S
C3 C4 1.413 . S
C3 C5 1.360 . S
C4 C3 1.413 . S
C4 C8 1.429 . S
C5 C3 1.360 . S
C5 C6 1.372 . S
C6 H1 0.928 . S
C6 C5 1.372 . S
C6 C7 1.404 . S
C7 C6 1.404 . S
C7 C8 1.391 . S
C8 H2 0.930 . S
C8 C4 1.429 . S
C8 C7 1.391 . S
H9 C12 0.931 . S
H10 C15 0.928 . S
H11 C17 0.931 . S
C12 H9 0.931 . S
C12 C13 1.414 . S
C12 C14 1.360 . S
C13 C12 1.414 . S
C13 C17 1.430 1_655 S
C14 C12 1.360 . S
C14 C15 1.374 . S
C15 H10 0.928 . S
C15 C14 1.374 . S
C15 C16 1.404 . S
C16 C15 1.404 . S
C16 C17 1.390 1_655 S
C17 H11 0.931 . S
C17 C13 1.430 1_455 S
C17 C16 1.390 1_455 S
H18 C21 0.931 . S
H19 C24 0.928 . S
H20 C26 0.930 . S
C21 H18 0.931 . S
C21 C22 1.413 . S
C21 C23 1.360 . S
C22 C21 1.413 . S
C22 C26 1.429 . S
C23 C21 1.360 . S
C23 C24 1.372 . S
C24 H19 0.928 . S
C24 C23 1.372 . S
C24 C25 1.404 . S
C25 C24 1.404 . S
C25 C26 1.391 . S
C26 H20 0.930 . S
C26 C22 1.429 . S
C26 C25 1.391 . S
H27 C30 0.931 . S
H28 C33 0.928 . S
H29 C35 0.930 . S
C30 H27 0.931 . S
C30 C31 1.413 . S
C30 C32 1.360 . S
C31 C30 1.413 . S
C31 C35 1.429 . S
C32 C30 1.360 . S
C32 C33 1.372 . S
C33 H28 0.928 . S
C33 C32 1.372 . S
C33 C34 1.404 . S
C34 C33 1.404 . S
C34 C35 1.391 . S
C35 H29 0.930 . S
C35 C31 1.429 . S
C35 C34 1.391 . S
H36 C39 0.931 . S
H37 C42 0.928 . S
H38 C44 0.930 . S
C39 H36 0.931 . S
C39 C40 1.413 . S
C39 C41 1.360 . S
C40 C39 1.413 . S
C40 C44 1.429 . S
C41 C39 1.360 . S
C41 C42 1.372 . S
C42 H37 0.928 . S
C42 C41 1.372 . S
C42 C43 1.404 . S
C43 C42 1.404 . S
C43 C44 1.391 . S
C44 H38 0.930 . S
C44 C40 1.429 . S
C44 C43 1.391 . S
H45 C48 0.930 . S
H46 C51 0.928 . S
H47 C53 0.929 . S
C48 H45 0.930 . S
C48 C49 1.413 . S
C48 C50 1.360 . S
C49 C48 1.413 . S
C49 C53 1.429 1_655 S
C50 C48 1.360 . S
C50 C51 1.371 . S
C51 H46 0.928 . S
C51 C50 1.371 . S
C51 C52 1.404 . S
C52 C51 1.404 . S
C52 C53 1.391 1_655 S
C53 H47 0.929 . S
C53 C49 1.429 1_455 S
C53 C52 1.391 1_455 S
H54 C57 0.931 . S
H55 C60 0.928 . S
H56 C62 0.930 . S
C57 H54 0.931 . S
C57 C58 1.413 . S
C57 C59 1.360 . S
C58 C57 1.413 . S
C58 C62 1.429 . S
C59 C57 1.360 . S
C59 C60 1.372 . S
C60 H55 0.928 . S
C60 C59 1.372 . S
C60 C61 1.404 . S
C61 C60 1.404 . S
C61 C62 1.391 . S
C62 H56 0.930 . S
C62 C58 1.429 . S
C62 C61 1.391 . S
H63 C66 0.931 . S
H64 C69 0.928 . S
H65 C71 0.930 . S
C66 H63 0.931 . S
C66 C67 1.413 . S
C66 C68 1.360 . S
C67 C66 1.413 . S
C67 C71 1.429 . S
C68 C66 1.360 . S
C68 C69 1.372 . S
C69 H64 0.928 . S
C69 C68 1.372 . S
C69 C70 1.404 . S
C70 C69 1.404 . S
C70 C71 1.391 . S
C71 H65 0.930 . S
C71 C67 1.429 . S
C71 C70 1.391 . S
Co72 N77 2.057 . S
Co72 O89 2.021 . S
Co72 O92 2.062 1_455 S
Co72 O96 2.117 1_455 S
Co72 O97 2.020 1_545 S
C73 O93 1.259 1_545 S
C73 O96 1.258 . S
Co74 N83 2.057 . S
Co74 O90 2.117 1_665 S
Co74 O91 2.020 1_565 S
Co74 O93 2.021 . S
Co74 O98 2.062 1_655 S
C75 N77 1.316 . S
C75 N78 1.347 . S
C75 H80 0.931 . S
C76 N77 1.375 1_655 S
C76 C79 1.350 . S
C76 H81 0.930 . S
N77 Co72 2.057 . S
N77 C75 1.316 . S
N77 C76 1.375 1_455 S
N78 C75 1.347 . S
N78 C79 1.373 1_455 S
C79 C76 1.350 . S
C79 N78 1.373 1_655 S
C79 H100 0.931 . S
H80 C75 0.931 . S
H81 C76 0.930 . S
C82 O89 1.259 . S
C82 O90 1.258 . S
N83 Co74 2.057 . S
N83 C84 1.316 . S
N83 C85 1.375 1_655 S
C84 N83 1.316 . S
C84 N86 1.347 . S
C84 H95 0.931 . S
C85 N83 1.375 1_455 S
C85 C87 1.350 . S
C85 H94 0.930 . S
N86 C84 1.347 . S
N86 C87 1.373 1_655 S
C87 C85 1.350 . S
C87 N86 1.373 1_455 S
C87 H101 0.931 . S
C88 O91 1.256 . S
C88 O92 1.255 . S
O89 Co72 2.021 . S
O89 C82 1.259 . S
O90 Co74 2.117 1_445 S
O90 C82 1.258 . S
O91 Co74 2.020 1_545 S
O91 C88 1.256 . S
O92 Co72 2.062 1_655 S
O92 C88 1.255 . S
O93 C73 1.259 1_565 S
O93 Co74 2.021 . S
H94 C85 0.930 . S
H95 C84 0.931 . S
O96 Co72 2.117 1_655 S
O96 C73 1.258 . S
O97 Co72 2.020 1_565 S
O97 C99 1.256 . S
O98 Co74 2.062 1_455 S
O98 C99 1.255 . S
C99 O97 1.256 . S
C99 O98 1.255 . S
H100 C79 0.931 . S
H101 C87 0.931 . S
Co102 N107 2.057 . S
Co102 O119 2.021 . S
Co102 O122 2.062 . S
Co102 O126 2.117 1_545 S
Co102 O127 2.020 . S
C103 O123 1.259 . S
C103 O126 1.258 . S
Co104 N113 2.054 1_545 S
Co104 O120 2.141 . S
Co104 O121 2.022 . S
Co104 O123 1.998 1_545 S
Co104 O128 2.063 1_545 S
C105 N107 1.316 . S
C105 N108 1.347 . S
C105 H110 0.931 . S
C106 N107 1.375 . S
C106 C109 1.350 . S
C106 H111 0.930 1_545 S
N107 Co102 2.057 . S
N107 C105 1.316 . S
N107 C106 1.375 . S
N108 C105 1.347 . S
N108 C109 1.373 . S
C109 C106 1.350 . S
C109 N108 1.373 . S
C109 H130 0.931 . S
H110 C105 0.931 . S
H111 C106 0.930 1_565 S
C112 O119 1.259 . S
C112 O120 1.258 . S
N113 Co104 2.054 1_565 S
N113 C114 1.316 . S
N113 C115 1.375 1_565 S
C114 N113 1.316 . S
C114 N116 1.347 . S
C114 H125 0.931 . S
C115 N113 1.375 1_545 S
C115 C117 1.350 . S
C115 H124 0.930 . S
N116 C114 1.347 . S
N116 C117 1.373 1_565 S
C117 C115 1.350 . S
C117 N116 1.373 1_545 S
C117 H131 0.931 . S
C118 O121 1.256 . S
C118 O122 1.255 . S
O119 Co102 2.021 . S
O119 C112 1.259 . S
O120 Co104 2.141 . S
O120 C112 1.258 . S
O121 Co104 2.022 . S
O121 C118 1.256 . S
O122 Co102 2.062 . S
O122 C118 1.255 . S
O123 C103 1.259 . S
O123 Co104 1.998 1_565 S
H124 C115 0.930 . S
H125 C114 0.931 . S
O126 Co102 2.117 1_565 S
O126 C103 1.258 . S
O127 Co102 2.020 . S
O127 C129 1.256 . S
O128 Co104 2.063 1_565 S
O128 C129 1.255 1_565 S
C129 O127 1.256 . S
C129 O128 1.255 1_545 S
H130 C109 0.931 . S
H131 C117 0.931 . S
Co132 N137 2.057 . S
Co132 O149 2.021 . S
Co132 O152 2.062 . S
Co132 O156 2.117 . S
Co132 O157 2.020 . S
C133 O153 1.259 . S
C133 O156 1.258 . S
Co134 N143 2.057 . S
Co134 O150 2.117 . S
Co134 O151 2.020 . S
Co134 O153 2.021 . S
Co134 O158 2.062 . S
C135 N137 1.316 . S
C135 N138 1.347 . S
C135 H140 0.931 . S
C136 N137 1.375 . S
C136 C139 1.350 . S
C136 H141 0.930 . S
N137 Co132 2.057 . S
N137 C135 1.316 . S
N137 C136 1.375 . S
N138 C135 1.347 . S
N138 C139 1.373 . S
C139 C136 1.350 . S
C139 N138 1.373 . S
C139 H160 0.931 . S
H140 C135 0.931 . S
H141 C136 0.930 . S
C142 O149 1.259 . S
C142 O150 1.258 . S
N143 Co134 2.057 . S
N143 C144 1.316 . S
N143 C145 1.375 . S
C144 N143 1.316 . S
C144 N146 1.347 . S
C144 H155 0.931 . S
C145 N143 1.375 . S
C145 C147 1.350 . S
C145 H154 0.930 . S
N146 C144 1.347 . S
N146 C147 1.373 . S
C147 C145 1.350 . S
C147 N146 1.373 . S
C147 H161 0.931 . S
C148 O151 1.256 . S
C148 O152 1.255 . S
O149 Co132 2.021 . S
O149 C142 1.259 . S
O150 Co134 2.117 . S
O150 C142 1.258 . S
O151 Co134 2.020 . S
O151 C148 1.256 . S
O152 Co132 2.062 . S
O152 C148 1.255 . S
O153 C133 1.259 . S
O153 Co134 2.021 . S
H154 C145 0.930 . S
H155 C144 0.931 . S
O156 Co132 2.117 . S
O156 C133 1.258 . S
O157 Co132 2.020 . S
O157 C159 1.256 . S
O158 Co134 2.062 . S
O158 C159 1.255 . S
C159 O157 1.256 . S
C159 O158 1.255 . S
H160 C139 0.931 . S
H161 C147 0.931 . S
Co162 N167 2.057 . S
Co162 O179 2.021 1_455 S
Co162 O182 2.062 1_455 S
Co162 O186 2.117 . S
Co162 O187 2.020 . S
C163 O183 1.259 . S
C163 O186 1.258 . S
Co164 N173 2.057 . S
Co164 O180 2.117 . S
Co164 O181 2.020 . S
Co164 O183 2.021 1_655 S
Co164 O188 2.062 1_655 S
C165 N167 1.316 . S
C165 N168 1.347 . S
C165 H170 0.931 1_455 S
C166 N167 1.375 . S
C166 C169 1.350 . S
C166 H171 0.930 . S
N167 Co162 2.057 . S
N167 C165 1.316 . S
N167 C166 1.375 . S
N168 C165 1.347 . S
N168 C169 1.373 . S
C169 C166 1.350 . S
C169 N168 1.373 . S
C169 H190 0.931 . S
H170 C165 0.931 1_655 S
H171 C166 0.930 . S
C172 O179 1.259 . S
C172 O180 1.258 . S
N173 Co164 2.057 . S
N173 C174 1.316 . S
N173 C175 1.375 . S
C174 N173 1.316 . S
C174 N176 1.347 . S
C174 H185 0.931 1_655 S
C175 N173 1.375 . S
C175 C177 1.350 . S
C175 H184 0.930 . S
N176 C174 1.347 . S
N176 C177 1.373 . S
C177 C175 1.350 . S
C177 N176 1.373 . S
C177 H191 0.931 . S
C178 O181 1.256 . S
C178 O182 1.255 . S
O179 Co162 2.021 1_655 S
O179 C172 1.259 . S
O180 Co164 2.117 . S
O180 C172 1.258 . S
O181 Co164 2.020 . S
O181 C178 1.256 . S
O182 Co162 2.062 1_655 S
O182 C178 1.255 . S
O183 C163 1.259 . S
O183 Co164 2.021 1_455 S
H184 C175 0.930 . S
H185 C174 0.931 1_455 S
O186 Co162 2.117 . S
O186 C163 1.258 . S
O187 Co162 2.020 . S
O187 C189 1.256 . S
O188 Co164 2.062 1_455 S
O188 C189 1.255 . S
C189 O187 1.256 . S
C189 O188 1.255 . S
H190 C169 0.931 . S
H191 C177 0.931 . S
C192 C193 1.349 . S
C192 C194 1.327 . S
C192 H217 0.950 . S
C193 C192 1.349 . S
C193 C209 1.349 . S
C194 C192 1.327 . S
C194 C213 1.429 . S
C194 H218 0.950 . S
C195 C212 1.574 . S
C195 C214 1.368 . S
C195 H219 0.949 . S
H196 C200 0.949 . S
C197 C198 1.349 . S
C197 C199 1.327 . S
C197 H220 0.950 . S
C198 C197 1.349 . S
C198 C210 1.349 . S
C199 C197 1.327 . S
C199 C215 1.429 . S
C199 H221 0.950 . S
C200 H196 0.949 . S
C200 C208 1.574 . S
C200 C216 1.368 . S
H201 C209 0.950 . S
H202 C207 0.950 . S
H203 C208 0.949 . S
H204 C210 0.950 . S
H205 C211 0.950 . S
H206 C212 0.949 . S
C207 H202 0.950 . S
C207 C209 1.327 . S
C207 C213 1.429 . S
C208 C200 1.574 . S
C208 H203 0.949 . S
C208 C214 1.368 . S
C209 C193 1.349 . S
C209 H201 0.950 . S
C209 C207 1.327 . S
C210 C198 1.349 . S
C210 H204 0.950 . S
C210 C211 1.327 . S
C211 H205 0.950 . S
C211 C210 1.327 . S
C211 C215 1.429 . S
C212 C195 1.574 . S
C212 H206 0.949 . S
C212 C216 1.368 . S
C213 C194 1.429 . S
C213 C207 1.429 . S
C213 C214 1.523 . S
C214 C195 1.368 . S
C214 C208 1.368 . S
C214 C213 1.523 . S
C215 C199 1.429 . S
C215 C211 1.429 . S
C215 C216 1.523 . S
C216 C200 1.368 . S
C216 C212 1.368 . S
C216 C215 1.523 . S
H217 C192 0.950 . S
H218 C194 0.950 . S
H219 C195 0.949 . S
H220 C197 0.950 . S
H221 C199 0.950 . S
C222 C223 1.349 . S
C222 C224 1.327 . S
C222 H247 0.950 . S
C223 C222 1.349 . S
C223 C239 1.349 . S
C224 C222 1.327 . S
C224 C243 1.429 . S
C224 H248 0.950 . S
C225 C242 1.574 . S
C225 C244 1.368 . S
C225 H249 0.949 . S
H226 C230 0.949 . S
C227 C228 1.349 . S
C227 C229 1.327 . S
C227 H250 0.950 . S
C228 C227 1.349 . S
C228 C240 1.349 . S
C229 C227 1.327 . S
C229 C245 1.429 . S
C229 H251 0.950 . S
C230 H226 0.949 . S
C230 C238 1.574 . S
C230 C246 1.368 . S
H231 C239 0.950 . S
H232 C237 0.950 . S
H233 C238 0.949 . S
H234 C240 0.950 . S
H235 C241 0.950 . S
H236 C242 0.949 . S
C237 H232 0.950 . S
C237 C239 1.327 . S
C237 C243 1.429 . S
C238 C230 1.574 . S
C238 H233 0.949 . S
C238 C244 1.368 . S
C239 C223 1.349 . S
C239 H231 0.950 . S
C239 C237 1.327 . S
C240 C228 1.349 . S
C240 H234 0.950 . S
C240 C241 1.327 . S
C241 H235 0.950 . S
C241 C240 1.327 . S
C241 C245 1.429 . S
C242 C225 1.574 . S
C242 H236 0.949 . S
C242 C246 1.368 . S
C243 C224 1.429 . S
C243 C237 1.429 . S
C243 C244 1.523 . S
C244 C225 1.368 . S
C244 C238 1.368 . S
C244 C243 1.523 . S
C245 C229 1.429 . S
C245 C241 1.429 . S
C245 C246 1.523 . S
C246 C230 1.368 . S
C246 C242 1.368 . S
C246 C245 1.523 . S
H247 C222 0.950 . S
H248 C224 0.950 . S
H249 C225 0.949 . S
H250 C227 0.950 . S
H251 C229 0.950 . S
C252 C253 1.349 . S
C252 C254 1.327 . S
C252 H277 0.950 . S
C253 C252 1.349 . S
C253 C269 1.349 . S
C254 C252 1.327 . S
C254 C273 1.429 . S
C254 H278 0.950 . S
C255 C272 1.574 . S
C255 C274 1.368 . S
C255 H279 0.949 . S
H256 C260 0.949 . S
C257 C258 1.349 . S
C257 C259 1.327 . S
C257 H280 0.950 . S
C258 C257 1.349 . S
C258 C270 1.349 . S
C259 C257 1.327 . S
C259 C275 1.429 . S
C259 H281 0.950 . S
C260 H256 0.949 . S
C260 C268 1.574 . S
C260 C276 1.368 . S
H261 C269 0.950 . S
H262 C267 0.950 . S
H263 C268 0.949 . S
H264 C270 0.950 . S
H265 C271 0.950 . S
H266 C272 0.949 . S
C267 H262 0.950 . S
C267 C269 1.327 . S
C267 C273 1.429 . S
C268 C260 1.574 . S
C268 H263 0.949 . S
C268 C274 1.368 . S
C269 C253 1.349 . S
C269 H261 0.950 . S
C269 C267 1.327 . S
C270 C258 1.349 . S
C270 H264 0.950 . S
C270 C271 1.327 . S
C271 H265 0.950 . S
C271 C270 1.327 . S
C271 C275 1.429 . S
C272 C255 1.574 . S
C272 H266 0.949 . S
C272 C276 1.368 . S
C273 C254 1.429 . S
C273 C267 1.429 . S
C273 C274 1.523 . S
C274 C255 1.368 . S
C274 C268 1.368 . S
C274 C273 1.523 . S
C275 C259 1.429 . S
C275 C271 1.429 . S
C275 C276 1.523 . S
C276 C260 1.368 . S
C276 C272 1.368 . S
C276 C275 1.523 . S
H277 C252 0.950 . S
H278 C254 0.950 . S
H279 C255 0.949 . S
H280 C257 0.950 . S
H281 C259 0.950 . S
C282 C283 1.364 . S
C282 C284 1.327 . S
C282 H307 0.950 . S
C283 C282 1.364 . S
C283 C299 1.334 1_655 S
C284 C282 1.327 . S
C284 C303 1.429 . S
C284 H308 0.950 . S
C285 C302 1.574 . S
C285 C304 1.368 1_455 S
C285 H309 0.949 . S
H286 C290 0.949 . S
C287 C288 1.349 1_455 S
C287 C289 1.327 . S
C287 H310 0.950 . S
C288 C287 1.349 1_655 S
C288 C300 1.349 . S
C289 C287 1.327 . S
C289 C305 1.429 1_455 S
C289 H311 0.950 . S
C290 H286 0.949 . S
C290 C298 1.574 . S
C290 C306 1.368 . S
H291 C299 0.950 . S
H292 C297 0.950 . S
H293 C298 0.949 . S
H294 C300 0.950 . S
H295 C301 0.950 . S
H296 C302 0.949 . S
C297 H292 0.950 . S
C297 C299 1.327 . S
C297 C303 1.429 1_455 S
C298 C290 1.574 . S
C298 H293 0.949 . S
C298 C304 1.368 . S
C299 C283 1.334 1_455 S
C299 H291 0.950 . S
C299 C297 1.327 . S
C300 C288 1.349 . S
C300 H294 0.950 . S
C300 C301 1.327 . S
C301 H295 0.950 . S
C301 C300 1.327 . S
C301 C305 1.429 . S
C302 C285 1.574 . S
C302 H296 0.949 . S
C302 C306 1.368 1_455 S
C303 C284 1.429 . S
C303 C297 1.429 1_655 S
C303 C304 1.523 . S
C304 C285 1.368 1_655 S
C304 C298 1.368 . S
C304 C303 1.523 . S
C305 C289 1.429 1_655 S
C305 C301 1.429 . S
C305 C306 1.523 . S
C306 C290 1.368 . S
C306 C302 1.368 1_655 S
C306 C305 1.523 . S
H307 C282 0.950 . S
H308 C284 0.950 . S
H309 C285 0.949 . S
H310 C287 0.950 . S
H311 C289 0.950 . S
C312 C313 1.349 . S
C312 C314 1.327 . S
C312 H337 0.950 . S
C313 C312 1.349 . S
C313 C329 1.349 . S
C314 C312 1.327 . S
C314 C333 1.429 1_554 S
C314 H338 0.950 . S
C315 C332 1.574 . S
C315 C334 1.368 . S
C315 H339 0.949 . S
H316 C320 0.949 . S
C317 C318 1.349 1_545 S
C317 C319 1.327 1_545 S
C317 H340 0.950 . S
C318 C317 1.349 1_565 S
C318 C330 1.349 . S
C319 C317 1.327 1_565 S
C319 C335 1.429 . S
C319 H341 0.950 1_565 S
C320 H316 0.949 . S
C320 C328 1.574 . S
C320 C336 1.368 . S
H321 C329 0.950 1_556 S
H322 C327 0.950 . S
H323 C328 0.949 1_554 S
H324 C330 0.950 . S
H325 C331 0.950 . S
H326 C332 0.949 . S
C327 H322 0.950 . S
C327 C329 1.327 1_556 S
C327 C333 1.429 . S
C328 C320 1.574 . S
C328 H323 0.949 1_556 S
C328 C334 1.368 . S
C329 C313 1.349 . S
C329 H321 0.950 1_554 S
C329 C327 1.327 1_554 S
C330 C318 1.349 . S
C330 H324 0.950 . S
C330 C331 1.327 . S
C331 H325 0.950 . S
C331 C330 1.327 . S
C331 C335 1.429 . S
C332 C315 1.574 . S
C332 H326 0.949 . S
C332 C336 1.368 . S
C333 C314 1.429 1_556 S
C333 C327 1.429 . S
C333 C334 1.523 . S
C334 C315 1.368 . S
C334 C328 1.368 . S
C334 C333 1.523 . S
C335 C319 1.429 . S
C335 C331 1.429 . S
C335 C336 1.523 . S
C336 C320 1.368 . S
C336 C332 1.368 . S
C336 C335 1.523 . S
H337 C312 0.950 . S
H338 C314 0.950 . S
H339 C315 0.949 . S
H340 C317 0.950 . S
H341 C319 0.950 1_545 S
C342 C343 1.349 . S
C342 C344 1.327 1_554 S
C342 H367 0.950 . S
C343 C342 1.349 . S
C343 C359 1.349 . S
C344 C342 1.327 1_556 S
C344 C363 1.429 1_556 S
C344 H368 0.950 . S
C345 C362 1.574 1_554 S
C345 C364 1.368 1_554 S
C345 H369 0.949 . S
H346 C350 0.949 . S
C347 C348 1.349 . S
C347 C349 1.327 . S
C347 H370 0.950 . S
C348 C347 1.349 . S
C348 C360 1.349 . S
C349 C347 1.327 . S
C349 C365 1.429 . S
C349 H371 0.950 . S
C350 H346 0.949 . S
C350 C358 1.574 . S
C350 C366 1.368 . S
H351 C359 0.950 . S
H352 C357 0.950 . S
H353 C358 0.949 . S
H354 C360 0.950 . S
H355 C361 0.950 . S
H356 C362 0.949 . S
C357 H352 0.950 . S
C357 C359 1.327 . S
C357 C363 1.429 . S
C358 C350 1.574 . S
C358 H353 0.949 . S
C358 C364 1.368 . S
C359 C343 1.349 . S
C359 H351 0.950 . S
C359 C357 1.327 . S
C360 C348 1.349 . S
C360 H354 0.950 . S
C360 C361 1.327 . S
C361 H355 0.950 . S
C361 C360 1.327 . S
C361 C365 1.429 . S
C362 C345 1.574 1_556 S
C362 H356 0.949 . S
C362 C366 1.368 . S
C363 C344 1.429 1_554 S
C363 C357 1.429 . S
C363 C364 1.523 1_554 S
C364 C345 1.368 1_556 S
C364 C358 1.368 . S
C364 C363 1.523 1_556 S
C365 C349 1.429 . S
C365 C361 1.429 . S
C365 C366 1.523 . S
C366 C350 1.368 . S
C366 C362 1.368 . S
C366 C365 1.523 . S
H367 C342 0.950 . S
H368 C344 0.950 . S
H369 C345 0.949 . S
H370 C347 0.950 . S
H371 C349 0.950 . S
C372 C373 1.349 . S
C372 C374 1.334 . S
C372 H397 0.950 . S
C373 C372 1.349 . S
C373 C389 1.349 . S
C374 C372 1.334 . S
C374 C393 1.434 . S
C374 H398 0.938 1_554 S
C375 C392 1.574 1_554 S
C375 C394 1.368 1_554 S
C375 H399 0.949 . S
H376 C380 0.949 . S
C377 C378 1.349 . S
C377 C379 1.327 . S
C377 H400 0.950 . S
C378 C377 1.349 . S
C378 C390 1.349 . S
C379 C377 1.327 . S
C379 C395 1.429 . S
C379 H401 0.950 . S
C380 H376 0.949 . S
C380 C388 1.574 . S
C380 C396 1.368 . S
H381 C389 0.950 . S
H382 C387 0.950 . S
H383 C388 0.949 . S
H384 C390 0.950 . S
H385 C391 0.950 . S
H386 C392 0.949 1_554 S
C387 H382 0.950 . S
C387 C389 1.327 . S
C387 C393 1.429 . S
C388 C380 1.574 . S
C388 H383 0.949 . S
C388 C394 1.368 . S
C389 C373 1.349 . S
C389 H381 0.950 . S
C389 C387 1.327 . S
C390 C378 1.349 . S
C390 H384 0.950 . S
C390 C391 1.327 . S
C391 H385 0.950 . S
C391 C390 1.327 . S
C391 C395 1.429 . S
C392 C375 1.574 1_556 S
C392 H386 0.949 1_556 S
C392 C396 1.368 . S
C393 C374 1.434 . S
C393 C387 1.429 . S
C393 C394 1.523 1_554 S
C394 C375 1.368 1_556 S
C394 C388 1.368 . S
C394 C393 1.523 1_556 S
C395 C379 1.429 . S
C395 C391 1.429 . S
C395 C396 1.523 . S
C396 C380 1.368 . S
C396 C392 1.368 . S
C396 C395 1.523 . S
H397 C372 0.950 . S
H398 C374 0.938 1_556 S
H399 C375 0.949 . S
H400 C377 0.950 . S
H401 C379 0.950 . S
C402 C403 1.352 . S
C402 C404 1.327 . S
C402 H427 0.950 . S
C403 C402 1.352 . S
C403 C419 1.346 1_455 S
C404 C402 1.327 . S
C404 C423 1.429 . S
C404 H428 0.950 1_554 S
C405 C422 1.574 1_554 S
C405 C424 1.368 1_554 S
C405 H429 0.943 1_455 S
H406 C410 0.949 . S
C407 C408 1.349 . S
C407 C409 1.327 . S
C407 H430 0.950 . S
C408 C407 1.349 . S
C408 C420 1.349 . S
C409 C407 1.327 . S
C409 C425 1.429 . S
C409 H431 0.950 . S
C410 H406 0.949 . S
C410 C418 1.574 . S
C410 C426 1.368 . S
H411 C419 0.950 . S
H412 C417 0.957 . S
H413 C418 0.949 . S
H414 C420 0.950 . S
H415 C421 0.950 . S
H416 C422 0.949 1_554 S
C417 H412 0.957 . S
C417 C419 1.328 . S
C417 C423 1.422 1_655 S
C418 C410 1.574 . S
C418 H413 0.949 . S
C418 C424 1.368 . S
C419 C403 1.346 1_655 S
C419 H411 0.950 . S
C419 C417 1.328 . S
C420 C408 1.349 . S
C420 H414 0.950 . S
C420 C421 1.327 . S
C421 H415 0.950 . S
C421 C420 1.327 . S
C421 C425 1.429 . S
C422 C405 1.574 1_556 S
C422 H416 0.949 1_556 S
C422 C426 1.368 . S
C423 C404 1.429 . S
C423 C417 1.422 1_455 S
C423 C424 1.523 1_554 S
C424 C405 1.368 1_556 S
C424 C418 1.368 . S
C424 C423 1.523 1_556 S
C425 C409 1.429 . S
C425 C421 1.429 . S
C425 C426 1.523 . S
C426 C410 1.368 . S
C426 C422 1.368 . S
C426 C425 1.523 . S
H427 C402 0.950 . S
H428 C404 0.950 1_556 S
H429 C405 0.943 1_655 S
H430 C407 0.950 . S
H431 C409 0.950 . S
C432 C433 1.348 1_655 S
C432 C434 1.329 . S
C432 H457 0.950 . S
C433 C432 1.348 1_455 S
C433 C449 1.349 . S
C434 C432 1.329 . S
C434 C453 1.429 . S
C434 H458 0.950 . S
C435 C452 1.574 . S
C435 C454 1.368 . S
C435 H459 0.949 . S
H436 C440 0.949 . S
C437 C438 1.349 . S
C437 C439 1.327 . S
C437 H460 0.950 . S
C438 C437 1.349 . S
C438 C450 1.349 . S
C439 C437 1.327 . S
C439 C455 1.429 . S
C439 H461 0.950 . S
C440 H436 0.949 . S
C440 C448 1.574 . S
C440 C456 1.368 . S
H441 C449 0.950 . S
H442 C447 0.950 1_455 S
H443 C448 0.949 . S
H444 C450 0.950 . S
H445 C451 0.950 . S
H446 C452 0.949 . S
C447 H442 0.950 1_655 S
C447 C449 1.328 1_655 S
C447 C453 1.428 . S
C448 C440 1.574 . S
C448 H443 0.949 . S
C448 C454 1.368 . S
C449 C433 1.349 . S
C449 H441 0.950 . S
C449 C447 1.328 1_455 S
C450 C438 1.349 . S
C450 H444 0.950 . S
C450 C451 1.327 . S
C451 H445 0.950 . S
C451 C450 1.327 . S
C451 C455 1.429 . S
C452 C435 1.574 . S
C452 H446 0.949 . S
C452 C456 1.368 . S
C453 C434 1.429 . S
C453 C447 1.428 . S
C453 C454 1.523 . S
C454 C435 1.368 . S
C454 C448 1.368 . S
C454 C453 1.523 . S
C455 C439 1.429 . S
C455 C451 1.429 . S
C455 C456 1.523 . S
C456 C440 1.368 . S
C456 C452 1.368 . S
C456 C455 1.523 . S
H457 C432 0.950 . S
H458 C434 0.950 . S
H459 C435 0.949 . S
H460 C437 0.950 . S
H461 C439 0.950 . S
C462 C463 1.349 . S
C462 C464 1.327 . S
C462 H487 0.950 . S
C463 C462 1.349 . S
C463 C479 1.349 . S
C464 C462 1.327 . S
C464 C483 1.429 . S
C464 H488 0.950 . S
C465 C482 1.574 . S
C465 C484 1.368 . S
C465 H489 0.949 . S
H466 C470 0.949 . S
C467 C468 1.349 . S
C467 C469 1.327 . S
C467 H490 0.950 . S
C468 C467 1.349 . S
C468 C480 1.349 . S
C469 C467 1.327 . S
C469 C485 1.429 . S
C469 H491 0.950 . S
C470 H466 0.949 . S
C470 C478 1.574 . S
C470 C486 1.368 . S
H471 C479 0.950 . S
H472 C477 0.950 . S
H473 C478 0.949 . S
H474 C480 0.950 . S
H475 C481 0.950 . S
H476 C482 0.949 . S
C477 H472 0.950 . S
C477 C479 1.327 . S
C477 C483 1.429 . S
C478 C470 1.574 . S
C478 H473 0.949 . S
C478 C484 1.368 . S
C479 C463 1.349 . S
C479 H471 0.950 . S
C479 C477 1.327 . S
C480 C468 1.349 . S
C480 H474 0.950 . S
C480 C481 1.327 . S
C481 H475 0.950 . S
C481 C480 1.327 . S
C481 C485 1.429 . S
C482 C465 1.574 . S
C482 H476 0.949 . S
C482 C486 1.368 . S
C483 C464 1.429 . S
C483 C477 1.429 . S
C483 C484 1.523 . S
C484 C465 1.368 . S
C484 C478 1.368 . S
C484 C483 1.523 . S
C485 C469 1.429 . S
C485 C481 1.429 . S
C485 C486 1.523 . S
C486 C470 1.368 . S
C486 C482 1.368 . S
C486 C485 1.523 . S
H487 C462 0.950 . S
H488 C464 0.950 . S
H489 C465 0.949 . S
H490 C467 0.950 . S
H491 C469 0.950 . S
C492 C493 1.349 . S
C492 C494 1.327 . S
C492 H517 0.950 . S
C493 C492 1.349 . S
C493 C509 1.349 . S
C494 C492 1.327 . S
C494 C513 1.429 . S
C494 H518 0.950 . S
C495 C512 1.574 . S
C495 C514 1.368 . S
C495 H519 0.949 . S
H496 C500 0.949 . S
C497 C498 1.349 . S
C497 C499 1.327 . S
C497 H520 0.950 . S
C498 C497 1.349 . S
C498 C510 1.349 . S
C499 C497 1.327 . S
C499 C515 1.429 . S
C499 H521 0.950 . S
C500 H496 0.949 . S
C500 C508 1.574 . S
C500 C516 1.368 . S
H501 C509 0.950 . S
H502 C507 0.950 . S
H503 C508 0.949 . S
H504 C510 0.950 . S
H505 C511 0.950 . S
H506 C512 0.949 . S
C507 H502 0.950 . S
C507 C509 1.327 . S
C507 C513 1.429 . S
C508 C500 1.574 . S
C508 H503 0.949 . S
C508 C514 1.368 . S
C509 C493 1.349 . S
C509 H501 0.950 . S
C509 C507 1.327 . S
C510 C498 1.349 . S
C510 H504 0.950 . S
C510 C511 1.327 . S
C511 H505 0.950 . S
C511 C510 1.327 . S
C511 C515 1.429 . S
C512 C495 1.574 . S
C512 H506 0.949 . S
C512 C516 1.368 . S
C513 C494 1.429 . S
C513 C507 1.429 . S
C513 C514 1.523 . S
C514 C495 1.368 . S
C514 C508 1.368 . S
C514 C513 1.523 . S
C515 C499 1.429 . S
C515 C511 1.429 . S
C515 C516 1.523 . S
C516 C500 1.368 . S
C516 C512 1.368 . S
C516 C515 1.523 . S
H517 C492 0.950 . S
H518 C494 0.950 . S
H519 C495 0.949 . S
H520 C497 0.950 . S
H521 C499 0.950 . S
C522 C523 1.349 . S
C522 C524 1.327 . S
C522 H547 0.950 . S
C523 C522 1.349 . S
C523 C539 1.349 . S
C524 C522 1.327 . S
C524 C543 1.429 . S
C524 H548 0.950 . S
C525 C542 1.574 . S
C525 C544 1.368 . S
C525 H549 0.949 . S
H526 C530 0.949 . S
C527 C528 1.349 . S
C527 C529 1.327 . S
C527 H550 0.950 . S
C528 C527 1.349 . S
C528 C540 1.349 . S
C529 C527 1.327 . S
C529 C545 1.429 . S
C529 H551 0.950 . S
C530 H526 0.949 . S
C530 C538 1.574 . S
C530 C546 1.368 . S
H531 C539 0.950 . S
H532 C537 0.950 . S
H533 C538 0.949 . S
H534 C540 0.950 . S
H535 C541 0.950 . S
H536 C542 0.949 . S
C537 H532 0.950 . S
C537 C539 1.327 . S
C537 C543 1.429 . S
C538 C530 1.574 . S
C538 H533 0.949 . S
C538 C544 1.368 . S
C539 C523 1.349 . S
C539 H531 0.950 . S
C539 C537 1.327 . S
C540 C528 1.349 . S
C540 H534 0.950 . S
C540 C541 1.327 . S
C541 H535 0.950 . S
C541 C540 1.327 . S
C541 C545 1.429 . S
C542 C525 1.574 . S
C542 H536 0.949 . S
C542 C546 1.368 . S
C543 C524 1.429 . S
C543 C537 1.429 . S
C543 C544 1.523 . S
C544 C525 1.368 . S
C544 C538 1.368 . S
C544 C543 1.523 . S
C545 C529 1.429 . S
C545 C541 1.429 . S
C545 C546 1.523 . S
C546 C530 1.368 . S
C546 C542 1.368 . S
C546 C545 1.523 . S
H547 C522 0.950 . S
H548 C524 0.950 . S
H549 C525 0.949 . S
H550 C527 0.950 . S
H551 C529 0.950 . S
C552 C553 1.349 1_455 S
C552 C554 1.327 . S
C552 H577 0.950 . S
C553 C552 1.349 1_655 S
C553 C569 1.349 . S
C554 C552 1.327 . S
C554 C573 1.429 . S
C554 H578 0.950 . S
C555 C572 1.574 . S
C555 C574 1.368 1_655 S
C555 H579 0.949 . S
H556 C560 0.949 . S
C557 C558 1.349 1_655 S
C557 C559 1.327 . S
C557 H580 0.950 . S
C558 C557 1.349 1_455 S
C558 C570 1.349 . S
C559 C557 1.327 . S
C559 C575 1.429 1_655 S
C559 H581 0.950 . S
C560 H556 0.949 . S
C560 C568 1.574 . S
C560 C576 1.368 . S
H561 C569 0.950 . S
H562 C567 0.950 . S
H563 C568 0.949 . S
H564 C570 0.950 . S
H565 C571 0.950 . S
H566 C572 0.949 . S
C567 H562 0.950 . S
C567 C569 1.327 . S
C567 C573 1.429 1_655 S
C568 C560 1.574 . S
C568 H563 0.949 . S
C568 C574 1.368 . S
C569 C553 1.349 . S
C569 H561 0.950 . S
C569 C567 1.327 . S
C570 C558 1.349 . S
C570 H564 0.950 . S
C570 C571 1.327 . S
C571 H565 0.950 . S
C571 C570 1.327 . S
C571 C575 1.429 . S
C572 C555 1.574 . S
C572 H566 0.949 . S
C572 C576 1.368 1_655 S
C573 C554 1.429 . S
C573 C567 1.429 1_455 S
C573 C574 1.523 1_554 S
C574 C555 1.368 1_455 S
C574 C568 1.368 . S
C574 C573 1.523 1_556 S
C575 C559 1.429 1_455 S
C575 C571 1.429 . S
C575 C576 1.523 . S
C576 C560 1.368 . S
C576 C572 1.368 1_455 S
C576 C575 1.523 . S
H577 C552 0.950 . S
H578 C554 0.950 . S
H579 C555 0.949 . S
H580 C557 0.950 . S
H581 C559 0.950 . S
C582 C583 1.349 . S
C582 C584 1.327 1_554 S
C582 H607 0.950 . S
C583 C582 1.349 . S
C583 C599 1.349 . S
C584 C582 1.327 1_556 S
C584 C603 1.429 . S
C584 H608 0.950 . S
C585 C602 1.574 . S
C585 C604 1.368 . S
C585 H609 0.949 1_556 S
H586 C590 0.949 . S
C587 C588 1.349 . S
C587 C589 1.327 . S
C587 H610 0.950 . S
C588 C587 1.349 . S
C588 C600 1.349 1_545 S
C589 C587 1.327 . S
C589 C605 1.429 1_545 S
C589 H611 0.950 . S
C590 H586 0.949 . S
C590 C598 1.574 . S
C590 C606 1.368 . S
H591 C599 0.950 . S
H592 C597 0.950 . S
H593 C598 0.949 . S
H594 C600 0.950 . S
H595 C601 0.950 . S
H596 C602 0.949 1_545 S
C597 H592 0.950 . S
C597 C599 1.327 . S
C597 C603 1.429 1_554 S
C598 C590 1.574 . S
C598 H593 0.949 . S
C598 C604 1.368 . S
C599 C583 1.349 . S
C599 H591 0.950 . S
C599 C597 1.327 . S
C600 C588 1.349 1_565 S
C600 H594 0.950 . S
C600 C601 1.327 . S
C601 H595 0.950 . S
C601 C600 1.327 . S
C601 C605 1.429 . S
C602 C585 1.574 . S
C602 H596 0.949 1_565 S
C602 C606 1.368 . S
C603 C584 1.429 . S
C603 C597 1.429 1_556 S
C603 C604 1.523 . S
C604 C585 1.368 . S
C604 C598 1.368 . S
C604 C603 1.523 . S
C605 C589 1.429 1_565 S
C605 C601 1.429 . S
C605 C606 1.523 . S
C606 C590 1.368 . S
C606 C602 1.368 . S
C606 C605 1.523 . S
H607 C582 0.950 . S
H608 C584 0.950 . S
H609 C585 0.949 1_554 S
H610 C587 0.950 . S
H611 C589 0.950 . S
C612 C613 1.349 . S
C612 C614 1.327 . S
C612 H637 0.950 . S
C613 C612 1.349 . S
C613 C629 1.349 . S
C614 C612 1.327 . S
C614 C633 1.429 . S
C614 H638 0.950 . S
C615 C632 1.574 . S
C615 C634 1.368 . S
C615 H639 0.949 . S
H616 C620 0.949 . S
C617 C618 1.349 . S
C617 C619 1.327 . S
C617 H640 0.950 . S
C618 C617 1.349 . S
C618 C630 1.349 . S
C619 C617 1.327 . S
C619 C635 1.429 . S
C619 H641 0.950 . S
C620 H616 0.949 . S
C620 C628 1.574 1_556 S
C620 C636 1.368 . S
H621 C629 0.950 . S
H622 C627 0.950 . S
H623 C628 0.949 . S
H624 C630 0.950 . S
H625 C631 0.950 . S
H626 C632 0.949 . S
C627 H622 0.950 . S
C627 C629 1.327 1_556 S
C627 C633 1.429 1_556 S
C628 C620 1.574 1_554 S
C628 H623 0.949 . S
C628 C634 1.368 1_554 S
C629 C613 1.349 . S
C629 H621 0.950 . S
C629 C627 1.327 1_554 S
C630 C618 1.349 . S
C630 H624 0.950 . S
C630 C631 1.327 . S
C631 H625 0.950 . S
C631 C630 1.327 . S
C631 C635 1.429 . S
C632 C615 1.574 . S
C632 H626 0.949 . S
C632 C636 1.368 . S
C633 C614 1.429 . S
C633 C627 1.429 1_554 S
C633 C634 1.523 1_554 S
C634 C615 1.368 . S
C634 C628 1.368 1_556 S
C634 C633 1.523 1_556 S
C635 C619 1.429 . S
C635 C631 1.429 . S
C635 C636 1.523 . S
C636 C620 1.368 . S
C636 C632 1.368 . S
C636 C635 1.523 . S
H637 C612 0.950 . S
H638 C614 0.950 . S
H639 C615 0.949 . S
H640 C617 0.950 . S
H641 C619 0.950 . S
C642 C643 1.349 . S
C642 C644 1.327 . S
C642 H667 0.950 . S
C643 C642 1.349 . S
C643 C659 1.349 . S
C644 C642 1.327 . S
C644 C663 1.429 . S
C644 H668 0.950 . S
C645 C662 1.574 . S
C645 C664 1.368 . S
C645 H669 0.949 . S
H646 C650 0.949 . S
C647 C648 1.349 . S
C647 C649 1.327 . S
C647 H670 0.950 . S
C648 C647 1.349 . S
C648 C660 1.349 . S
C649 C647 1.327 . S
C649 C665 1.429 . S
C649 H671 0.950 . S
C650 H646 0.949 . S
C650 C658 1.574 . S
C650 C666 1.368 . S
H651 C659 0.950 . S
H652 C657 0.950 . S
H653 C658 0.949 1_554 S
H654 C660 0.950 . S
H655 C661 0.950 . S
H656 C662 0.949 . S
C657 H652 0.950 . S
C657 C659 1.327 . S
C657 C663 1.429 . S
C658 C650 1.574 . S
C658 H653 0.949 1_556 S
C658 C664 1.368 . S
C659 C643 1.349 . S
C659 H651 0.950 . S
C659 C657 1.327 . S
C660 C648 1.349 . S
C660 H654 0.950 . S
C660 C661 1.327 . S
C661 H655 0.950 . S
C661 C660 1.327 . S
C661 C665 1.429 . S
C662 C645 1.574 . S
C662 H656 0.949 . S
C662 C666 1.368 . S
C663 C644 1.429 . S
C663 C657 1.429 . S
C663 C664 1.523 1_554 S
C664 C645 1.368 . S
C664 C658 1.368 . S
C664 C663 1.523 1_556 S
C665 C649 1.429 . S
C665 C661 1.429 . S
C665 C666 1.523 . S
C666 C650 1.368 . S
C666 C662 1.368 . S
C666 C665 1.523 . S
H667 C642 0.950 . S
H668 C644 0.950 . S
H669 C645 0.949 . S
H670 C647 0.950 . S
H671 C649 0.950 . S
C672 C673 1.362 . S
C672 C674 1.327 . S
C672 H697 0.950 . S
C673 C672 1.362 . S
C673 C689 1.338 1_455 S
C674 C672 1.327 . S
C674 C693 1.429 . S
C674 H698 0.950 . S
C675 C692 1.575 . S
C675 C694 1.368 1_655 S
C675 H699 0.949 . S
H676 C680 0.949 . S
C677 C678 1.349 1_554 S
C677 C679 1.327 . S
C677 H700 0.937 1_455 S
C678 C677 1.349 1_556 S
C678 C690 1.349 . S
C679 C677 1.327 . S
C679 C695 1.429 . S
C679 H701 0.950 1_455 S
C680 H676 0.949 . S
C680 C688 1.574 . S
C680 C696 1.368 . S
H681 C689 0.950 . S
H682 C687 0.950 . S
H683 C688 0.949 . S
H684 C690 0.950 . S
H685 C691 0.950 . S
H686 C692 0.964 . S
C687 H682 0.950 . S
C687 C689 1.327 . S
C687 C693 1.429 1_655 S
C688 C680 1.574 . S
C688 H683 0.949 . S
C688 C694 1.368 . S
C689 C673 1.338 1_655 S
C689 H681 0.950 . S
C689 C687 1.327 . S
C690 C678 1.349 . S
C690 H684 0.950 . S
C690 C691 1.327 . S
C691 H685 0.950 . S
C691 C690 1.327 . S
C691 C695 1.429 1_556 S
C692 C675 1.575 . S
C692 H686 0.964 . S
C692 C696 1.353 1_655 S
C693 C674 1.429 . S
C693 C687 1.429 1_455 S
C693 C694 1.523 . S
C694 C675 1.368 1_455 S
C694 C688 1.368 . S
C694 C693 1.523 . S
C695 C679 1.429 . S
C695 C691 1.429 1_554 S
C695 C696 1.523 . S
C696 C680 1.368 . S
C696 C692 1.353 1_455 S
C696 C695 1.523 . S
H697 C672 0.950 . S
H698 C674 0.950 . S
H699 C675 0.949 . S
H700 C677 0.937 1_655 S
H701 C679 0.950 1_655 S
C702 C703 1.349 . S
C702 C704 1.327 . S
C702 H727 0.950 . S
C703 C702 1.349 . S
C703 C719 1.349 . S
C704 C702 1.327 . S
C704 C723 1.429 . S
C704 H728 0.950 . S
C705 C722 1.574 . S
C705 C724 1.368 . S
C705 H729 0.949 . S
H706 C710 0.949 . S
C707 C708 1.349 1_554 S
C707 C709 1.327 . S
C707 H730 0.950 . S
C708 C707 1.349 1_556 S
C708 C720 1.349 . S
C709 C707 1.327 . S
C709 C725 1.429 . S
C709 H731 0.950 . S
C710 H706 0.949 . S
C710 C718 1.574 . S
C710 C726 1.368 . S
H711 C719 0.950 . S
H712 C717 0.950 . S
H713 C718 0.949 . S
H714 C720 0.950 . S
H715 C721 0.950 . S
H716 C722 0.949 . S
C717 H712 0.950 . S
C717 C719 1.327 . S
C717 C723 1.429 . S
C718 C710 1.574 . S
C718 H713 0.949 . S
C718 C724 1.368 . S
C719 C703 1.349 . S
C719 H711 0.950 . S
C719 C717 1.327 . S
C720 C708 1.349 . S
C720 H714 0.950 . S
C720 C721 1.327 1_556 S
C721 H715 0.950 . S
C721 C720 1.327 1_554 S
C721 C725 1.429 . S
C722 C705 1.574 . S
C722 H716 0.949 . S
C722 C726 1.368 . S
C723 C704 1.429 . S
C723 C717 1.429 . S
C723 C724 1.523 . S
C724 C705 1.368 . S
C724 C718 1.368 . S
C724 C723 1.523 . S
C725 C709 1.429 . S
C725 C721 1.429 . S
C725 C726 1.523 . S
C726 C710 1.368 . S
C726 C722 1.368 . S
C726 C725 1.523 . S
H727 C702 0.950 . S
H728 C704 0.950 . S
H729 C705 0.949 . S
H730 C707 0.950 . S
H731 C709 0.950 . S
C732 C733 1.349 . S
C732 C734 1.327 . S
C732 H757 0.950 . S
C733 C732 1.349 . S
C733 C749 1.349 . S
C734 C732 1.327 . S
C734 C753 1.429 . S
C734 H758 0.950 . S
C735 C752 1.574 . S
C735 C754 1.368 . S
C735 H759 0.949 . S
H736 C740 0.949 . S
C737 C738 1.349 . S
C737 C739 1.327 1_556 S
C737 H760 0.950 . S
C738 C737 1.349 . S
C738 C750 1.349 . S
C739 C737 1.327 1_554 S
C739 C755 1.429 . S
C739 H761 0.950 . S
C740 H736 0.949 . S
C740 C748 1.574 . S
C740 C756 1.368 . S
H741 C749 0.950 . S
H742 C747 0.950 . S
H743 C748 0.949 . S
H744 C750 0.950 . S
H745 C751 0.950 . S
H746 C752 0.949 . S
C747 H742 0.950 . S
C747 C749 1.327 . S
C747 C753 1.429 . S
C748 C740 1.574 . S
C748 H743 0.949 . S
C748 C754 1.368 . S
C749 C733 1.349 . S
C749 H741 0.950 . S
C749 C747 1.327 . S
C750 C738 1.349 . S
C750 H744 0.950 . S
C750 C751 1.327 . S
C751 H745 0.950 . S
C751 C750 1.327 . S
C751 C755 1.429 1_556 S
C752 C735 1.574 . S
C752 H746 0.949 . S
C752 C756 1.368 . S
C753 C734 1.429 . S
C753 C747 1.429 . S
C753 C754 1.523 . S
C754 C735 1.368 . S
C754 C748 1.368 . S
C754 C753 1.523 . S
C755 C739 1.429 . S
C755 C751 1.429 1_554 S
C755 C756 1.523 . S
C756 C740 1.368 . S
C756 C752 1.368 . S
C756 C755 1.523 . S
H757 C732 0.950 . S
H758 C734 0.950 . S
H759 C735 0.949 . S
H760 C737 0.950 . S
H761 C739 0.950 . S
C762 C763 1.349 . S
C762 C764 1.327 . S
C762 H787 0.950 . S
C763 C762 1.349 . S
C763 C779 1.349 . S
C764 C762 1.327 . S
C764 C783 1.429 . S
C764 H788 0.950 . S
C765 C782 1.574 . S
C765 C784 1.368 . S
C765 H789 0.949 . S
H766 C770 0.949 . S
C767 C768 1.349 . S
C767 C769 1.327 . S
C767 H790 0.950 . S
C768 C767 1.349 . S
C768 C780 1.349 . S
C769 C767 1.327 . S
C769 C785 1.429 1_556 S
C769 H791 0.950 . S
C770 H766 0.949 . S
C770 C778 1.574 . S
C770 C786 1.368 . S
H771 C779 0.950 . S
H772 C777 0.950 . S
H773 C778 0.949 . S
H774 C780 0.950 . S
H775 C781 0.950 1_554 S
H776 C782 0.949 . S
C777 H772 0.950 . S
C777 C779 1.327 . S
C777 C783 1.429 . S
C778 C770 1.574 . S
C778 H773 0.949 . S
C778 C784 1.368 . S
C779 C763 1.349 . S
C779 H771 0.950 . S
C779 C777 1.327 . S
C780 C768 1.349 . S
C780 H774 0.950 . S
C780 C781 1.327 . S
C781 H775 0.950 1_556 S
C781 C780 1.327 . S
C781 C785 1.429 1_556 S
C782 C765 1.574 . S
C782 H776 0.949 . S
C782 C786 1.368 . S
C783 C764 1.429 . S
C783 C777 1.429 . S
C783 C784 1.523 . S
C784 C765 1.368 . S
C784 C778 1.368 . S
C784 C783 1.523 . S
C785 C769 1.429 1_554 S
C785 C781 1.429 1_554 S
C785 C786 1.523 . S
C786 C770 1.368 . S
C786 C782 1.368 . S
C786 C785 1.523 . S
H787 C762 0.950 . S
H788 C764 0.950 . S
H789 C765 0.949 . S
H790 C767 0.950 . S
H791 C769 0.950 . S
C792 C793 1.376 . S
C792 C794 1.327 . S
C792 H817 0.950 . S
C793 C792 1.376 . S
C793 C809 1.323 1_655 S
C794 C792 1.327 . S
C794 C813 1.429 . S
C794 H818 0.950 . S
C795 C812 1.574 . S
C795 C814 1.368 1_455 S
C795 H819 0.949 . S
H796 C800 0.949 . S
C797 C798 1.349 1_455 S
C797 C799 1.327 . S
C797 H820 0.950 . S
C798 C797 1.349 1_655 S
C798 C810 1.349 . S
C799 C797 1.327 . S
C799 C815 1.429 1_455 S
C799 H821 0.950 . S
C800 H796 0.949 . S
C800 C808 1.574 . S
C800 C816 1.368 . S
H801 C809 0.950 . S
H802 C807 0.950 . S
H803 C808 0.949 . S
H804 C810 0.950 . S
H805 C811 0.950 . S
H806 C812 0.949 . S
C807 H802 0.950 . S
C807 C809 1.327 . S
C807 C813 1.429 1_455 S
C808 C800 1.574 . S
C808 H803 0.949 . S
C808 C814 1.368 . S
C809 C793 1.323 1_455 S
C809 H801 0.950 . S
C809 C807 1.327 . S
C810 C798 1.349 . S
C810 H804 0.950 . S
C810 C811 1.327 . S
C811 H805 0.950 . S
C811 C810 1.327 . S
C811 C815 1.429 . S
C812 C795 1.574 . S
C812 H806 0.949 . S
C812 C816 1.368 1_455 S
C813 C794 1.429 . S
C813 C807 1.429 1_655 S
C813 C814 1.523 . S
C814 C795 1.368 1_655 S
C814 C808 1.368 . S
C814 C813 1.523 . S
C815 C799 1.429 1_655 S
C815 C811 1.429 . S
C815 C816 1.523 . S
C816 C800 1.368 . S
C816 C812 1.368 1_655 S
C816 C815 1.523 . S
H817 C792 0.950 . S
H818 C794 0.950 . S
H819 C795 0.949 . S
H820 C797 0.950 . S
H821 C799 0.950 . S
C822 C823 1.349 . S
C822 C824 1.327 . S
C822 H847 0.950 . S
C823 C822 1.349 . S
C823 C839 1.349 . S
C824 C822 1.327 . S
C824 C843 1.429 . S
C824 H848 0.950 . S
C825 C842 1.574 . S
C825 C844 1.368 . S
C825 H849 0.949 . S
H826 C830 0.949 . S
C827 C828 1.349 . S
C827 C829 1.327 . S
C827 H850 0.950 1_565 S
C828 C827 1.349 . S
C828 C840 1.349 . S
C829 C827 1.327 . S
C829 C845 1.429 . S
C829 H851 0.974 . S
C830 H826 0.949 . S
C830 C838 1.574 . S
C830 C846 1.368 . S
H831 C839 0.950 . S
H832 C837 0.950 . S
H833 C838 0.949 . S
H834 C840 0.950 . S
H835 C841 0.950 . S
H836 C842 0.949 . S
C837 H832 0.950 . S
C837 C839 1.327 . S
C837 C843 1.429 . S
C838 C830 1.574 . S
C838 H833 0.949 . S
C838 C844 1.368 . S
C839 C823 1.349 . S
C839 H831 0.950 . S
C839 C837 1.327 . S
C840 C828 1.349 . S
C840 H834 0.950 . S
C840 C841 1.327 . S
C841 H835 0.950 . S
C841 C840 1.327 . S
C841 C845 1.429 . S
C842 C825 1.574 . S
C842 H836 0.949 . S
C842 C846 1.368 . S
C843 C824 1.429 . S
C843 C837 1.429 . S
C843 C844 1.523 . S
C844 C825 1.368 . S
C844 C838 1.368 . S
C844 C843 1.523 . S
C845 C829 1.429 . S
C845 C841 1.429 . S
C845 C846 1.523 . S
C846 C830 1.368 . S
C846 C842 1.368 . S
C846 C845 1.523 . S
H847 C822 0.950 . S
H848 C824 0.950 . S
H849 C825 0.949 . S
H850 C827 0.950 1_545 S
H851 C829 0.974 . S
C852 C853 1.349 . S
C852 C854 1.327 . S
C852 H877 0.950 . S
C853 C852 1.349 . S
C853 C869 1.349 . S
C854 C852 1.327 . S
C854 C873 1.429 . S
C854 H878 0.950 . S
C855 C872 1.574 . S
C855 C874 1.368 . S
C855 H879 0.949 . S
H856 C860 0.949 . S
C857 C858 1.349 . S
C857 C859 1.327 . S
C857 H880 0.950 . S
C858 C857 1.349 . S
C858 C870 1.349 . S
C859 C857 1.327 . S
C859 C875 1.429 . S
C859 H881 0.950 . S
C860 H856 0.949 . S
C860 C868 1.574 . S
C860 C876 1.368 . S
H861 C869 0.950 . S
H862 C867 0.950 . S
H863 C868 0.949 . S
H864 C870 0.950 . S
H865 C871 0.950 . S
H866 C872 0.949 . S
C867 H862 0.950 . S
C867 C869 1.327 . S
C867 C873 1.429 . S
C868 C860 1.574 . S
C868 H863 0.949 . S
C868 C874 1.368 . S
C869 C853 1.349 . S
C869 H861 0.950 . S
C869 C867 1.327 . S
C870 C858 1.349 . S
C870 H864 0.950 . S
C870 C871 1.327 . S
C871 H865 0.950 . S
C871 C870 1.327 . S
C871 C875 1.429 . S
C872 C855 1.574 . S
C872 H866 0.949 . S
C872 C876 1.368 . S
C873 C854 1.429 . S
C873 C867 1.429 . S
C873 C874 1.523 . S
C874 C855 1.368 . S
C874 C868 1.368 . S
C874 C873 1.523 . S
C875 C859 1.429 . S
C875 C871 1.429 . S
C875 C876 1.523 . S
C876 C860 1.368 . S
C876 C872 1.368 . S
C876 C875 1.523 . S
H877 C852 0.950 . S
H878 C854 0.950 . S
H879 C855 0.949 . S
H880 C857 0.950 . S
H881 C859 0.950 . S
C882 C883 1.349 . S
C882 C884 1.327 . S
C882 H907 0.950 . S
C883 C882 1.349 . S
C883 C899 1.349 . S
C884 C882 1.327 . S
C884 C903 1.429 . S
C884 H908 0.950 . S
C885 C902 1.574 . S
C885 C904 1.368 . S
C885 H909 0.949 . S
H886 C890 0.949 . S
C887 C888 1.349 . S
C887 C889 1.327 . S
C887 H910 0.950 . S
C888 C887 1.349 . S
C888 C900 1.349 . S
C889 C887 1.327 . S
C889 C905 1.429 . S
C889 H911 0.950 . S
C890 H886 0.949 . S
C890 C898 1.574 . S
C890 C906 1.368 . S
H891 C899 0.950 . S
H892 C897 0.950 . S
H893 C898 0.949 . S
H894 C900 0.950 . S
H895 C901 0.950 . S
H896 C902 0.949 . S
C897 H892 0.950 . S
C897 C899 1.327 . S
C897 C903 1.429 . S
C898 C890 1.574 . S
C898 H893 0.949 . S
C898 C904 1.368 . S
C899 C883 1.349 . S
C899 H891 0.950 . S
C899 C897 1.327 . S
C900 C888 1.349 . S
C900 H894 0.950 . S
C900 C901 1.327 . S
C901 H895 0.950 . S
C901 C900 1.327 . S
C901 C905 1.429 . S
C902 C885 1.574 . S
C902 H896 0.949 . S
C902 C906 1.368 . S
C903 C884 1.429 . S
C903 C897 1.429 . S
C903 C904 1.523 . S
C904 C885 1.368 . S
C904 C898 1.368 . S
C904 C903 1.523 . S
C905 C889 1.429 . S
C905 C901 1.429 . S
C905 C906 1.523 . S
C906 C890 1.368 . S
C906 C902 1.368 . S
C906 C905 1.523 . S
H907 C882 0.950 . S
H908 C884 0.950 . S
H909 C885 0.949 . S
H910 C887 0.950 . S
H911 C889 0.950 . S
C193 C61 1.625 . S
C198 C82 1.646 . S
C228 C112 1.653 . S
C223 C70 1.643 . S
C258 N146 1.462 . S
C253 C43 1.473 . S
C288 N176 1.170 . S
C283 C52 1.197 . S
C318 C73 1.650 1_565 S
C313 C25 1.635 . S
C343 C34 1.644 . S
C348 C103 1.653 . S
C373 C7 1.478 . S
C378 N138 1.462 . S
C403 C16 1.198 1_455 S
C408 N168 1.171 . S
C438 C88 0.501 . S
C433 C50 0.488 1_455 S
C468 C118 0.247 . S
C463 C59 0.391 . S
C498 C159 0.409 . S
C493 C67 0.418 . S
C523 C41 0.383 . S
C528 C189 0.283 . S
C553 C14 0.487 . S
C558 C99 0.495 . S
C588 C129 0.248 . S
C583 C23 0.367 . S
C618 C148 0.409 . S
C613 C31 0.417 . S
C643 C5 0.351 . S
C648 C178 0.289 . S
C673 C49 1.327 1_455 S
C678 N78 1.320 . S
C703 C58 1.458 . S
C708 N108 1.456 . S
C738 C133 1.595 . S
C733 C68 1.554 . S
C768 C163 1.764 . S
C763 C40 1.704 . S
C793 C13 1.327 . S
C798 N86 1.322 . S
C828 N116 1.456 . S
C823 C22 1.459 . S
C858 C142 1.595 . S
C853 C32 1.557 . S
C883 C4 1.710 . S
C888 C172 1.767 . S
