# Generated by pormake.
# Topology eea, (3,6)-cn, num edge types: 1
# Building blocks:
#     Node 0, Type 0, BuildingBlock: ESEHIV_clean_linker_0, # of connection points: 3
#     Node 1, Type 0, BuildingBlock: ESEHIV_clean_linker_0, # of connection points: 3
#     Node 2, Type 0, BuildingBlock: ESEHIV_clean_linker_0, # of connection points: 3
#     Node 3, Type 0, BuildingBlock: ESEHIV_clean_linker_0, # of connection points: 3
#     Node 4, Type 0, BuildingBlock: ESEHIV_clean_linker_0, # of connection points: 3
#     Node 5, Type 0, BuildingBlock: ESEHIV_clean_linker_0, # of connection points: 3
#     Node 6, Type 0, BuildingBlock: ESEHIV_clean_linker_0, # of connection points: 3
#     Node 7, Type 0, BuildingBlock: ESEHIV_clean_linker_0, # of connection points: 3
#     Node 8, Type 0, BuildingBlock: ESEHIV_clean_linker_0, # of connection points: 3
#     Node 9, Type 0, BuildingBlock: ESEHIV_clean_linker_0, # of connection points: 3
#     Node 10, Type 0, BuildingBlock: ESEHIV_clean_linker_0, # of connection points: 3
#     Node 11, Type 0, BuildingBlock: ESEHIV_clean_linker_0, # of connection points: 3
#     Node 12, Type 0, BuildingBlock: ESEHIV_clean_linker_0, # of connection points: 3
#     Node 13, Type 0, BuildingBlock: ESEHIV_clean_linker_0, # of connection points: 3
#     Node 14, Type 0, BuildingBlock: ESEHIV_clean_linker_0, # of connection points: 3
#     Node 15, Type 0, BuildingBlock: ESEHIV_clean_linker_0, # of connection points: 3
#     Node 16, Type 0, BuildingBlock: ESEHIV_clean_linker_0, # of connection points: 3
#     Node 17, Type 0, BuildingBlock: ESEHIV_clean_linker_0, # of connection points: 3
#     Node 18, Type 1, BuildingBlock: NUHQIS_clean_sbu_0, # of connection points: 6
#     Node 19, Type 1, BuildingBlock: NUHQIS_clean_sbu_0, # of connection points: 6
#     Node 20, Type 1, BuildingBlock: NUHQIS_clean_sbu_0, # of connection points: 6
#     Node 21, Type 1, BuildingBlock: NUHQIS_clean_sbu_0, # of connection points: 6
#     Node 22, Type 1, BuildingBlock: NUHQIS_clean_sbu_0, # of connection points: 6
#     Node 23, Type 1, BuildingBlock: NUHQIS_clean_sbu_0, # of connection points: 6
#     Node 24, Type 1, BuildingBlock: NUHQIS_clean_sbu_0, # of connection points: 6
#     Node 25, Type 1, BuildingBlock: NUHQIS_clean_sbu_0, # of connection points: 6
#     Node 26, Type 1, BuildingBlock: NUHQIS_clean_sbu_0, # of connection points: 6
#     Edge 27, Type (0, 1), BuildingBlock: KIFKEQ_clean_linker_1, # of connection points: 2
#     Edge 28, Type (0, 1), BuildingBlock: KIFKEQ_clean_linker_1, # of connection points: 2
#     Edge 29, Type (0, 1), BuildingBlock: KIFKEQ_clean_linker_1, # of connection points: 2
#     Edge 30, Type (0, 1), BuildingBlock: KIFKEQ_clean_linker_1, # of connection points: 2
#     Edge 31, Type (0, 1), BuildingBlock: KIFKEQ_clean_linker_1, # of connection points: 2
#     Edge 32, Type (0, 1), BuildingBlock: KIFKEQ_clean_linker_1, # of connection points: 2
#     Edge 33, Type (0, 1), BuildingBlock: KIFKEQ_clean_linker_1, # of connection points: 2
#     Edge 34, Type (0, 1), BuildingBlock: KIFKEQ_clean_linker_1, # of connection points: 2
#     Edge 35, Type (0, 1), BuildingBlock: KIFKEQ_clean_linker_1, # of connection points: 2
#     Edge 36, Type (0, 1), BuildingBlock: KIFKEQ_clean_linker_1, # of connection points: 2
#     Edge 37, Type (0, 1), BuildingBlock: KIFKEQ_clean_linker_1, # of connection points: 2
#     Edge 38, Type (0, 1), BuildingBlock: KIFKEQ_clean_linker_1, # of connection points: 2
#     Edge 39, Type (0, 1), BuildingBlock: KIFKEQ_clean_linker_1, # of connection points: 2
#     Edge 40, Type (0, 1), BuildingBlock: KIFKEQ_clean_linker_1, # of connection points: 2
#     Edge 41, Type (0, 1), BuildingBlock: KIFKEQ_clean_linker_1, # of connection points: 2
#     Edge 42, Type (0, 1), BuildingBlock: KIFKEQ_clean_linker_1, # of connection points: 2
#     Edge 43, Type (0, 1), BuildingBlock: KIFKEQ_clean_linker_1, # of connection points: 2
#     Edge 44, Type (0, 1), BuildingBlock: KIFKEQ_clean_linker_1, # of connection points: 2
#     Edge 45, Type (0, 1), BuildingBlock: KIFKEQ_clean_linker_1, # of connection points: 2
#     Edge 46, Type (0, 1), BuildingBlock: KIFKEQ_clean_linker_1, # of connection points: 2
#     Edge 47, Type (0, 1), BuildingBlock: KIFKEQ_clean_linker_1, # of connection points: 2
#     Edge 48, Type (0, 1), BuildingBlock: KIFKEQ_clean_linker_1, # of connection points: 2
#     Edge 49, Type (0, 1), BuildingBlock: KIFKEQ_clean_linker_1, # of connection points: 2
#     Edge 50, Type (0, 1), BuildingBlock: KIFKEQ_clean_linker_1, # of connection points: 2
#     Edge 51, Type (0, 1), BuildingBlock: KIFKEQ_clean_linker_1, # of connection points: 2
#     Edge 52, Type (0, 1), BuildingBlock: KIFKEQ_clean_linker_1, # of connection points: 2
#     Edge 53, Type (0, 1), BuildingBlock: KIFKEQ_clean_linker_1, # of connection points: 2
#     Edge 54, Type (0, 1), BuildingBlock: KIFKEQ_clean_linker_1, # of connection points: 2
#     Edge 55, Type (0, 1), BuildingBlock: KIFKEQ_clean_linker_1, # of connection points: 2
#     Edge 56, Type (0, 1), BuildingBlock: KIFKEQ_clean_linker_1, # of connection points: 2
#     Edge 57, Type (0, 1), BuildingBlock: KIFKEQ_clean_linker_1, # of connection points: 2
#     Edge 58, Type (0, 1), BuildingBlock: KIFKEQ_clean_linker_1, # of connection points: 2
#     Edge 59, Type (0, 1), BuildingBlock: KIFKEQ_clean_linker_1, # of connection points: 2
#     Edge 60, Type (0, 1), BuildingBlock: KIFKEQ_clean_linker_1, # of connection points: 2
#     Edge 61, Type (0, 1), BuildingBlock: KIFKEQ_clean_linker_1, # of connection points: 2
#     Edge 62, Type (0, 1), BuildingBlock: KIFKEQ_clean_linker_1, # of connection points: 2
#     Edge 63, Type (0, 1), BuildingBlock: KIFKEQ_clean_linker_1, # of connection points: 2
#     Edge 64, Type (0, 1), BuildingBlock: KIFKEQ_clean_linker_1, # of connection points: 2
#     Edge 65, Type (0, 1), BuildingBlock: KIFKEQ_clean_linker_1, # of connection points: 2
#     Edge 66, Type (0, 1), BuildingBlock: KIFKEQ_clean_linker_1, # of connection points: 2
#     Edge 67, Type (0, 1), BuildingBlock: KIFKEQ_clean_linker_1, # of connection points: 2
#     Edge 68, Type (0, 1), BuildingBlock: KIFKEQ_clean_linker_1, # of connection points: 2
#     Edge 69, Type (0, 1), BuildingBlock: KIFKEQ_clean_linker_1, # of connection points: 2
#     Edge 70, Type (0, 1), BuildingBlock: KIFKEQ_clean_linker_1, # of connection points: 2
#     Edge 71, Type (0, 1), BuildingBlock: KIFKEQ_clean_linker_1, # of connection points: 2
#     Edge 72, Type (0, 1), BuildingBlock: KIFKEQ_clean_linker_1, # of connection points: 2
#     Edge 73, Type (0, 1), BuildingBlock: KIFKEQ_clean_linker_1, # of connection points: 2
#     Edge 74, Type (0, 1), BuildingBlock: KIFKEQ_clean_linker_1, # of connection points: 2
#     Edge 75, Type (0, 1), BuildingBlock: KIFKEQ_clean_linker_1, # of connection points: 2
#     Edge 76, Type (0, 1), BuildingBlock: KIFKEQ_clean_linker_1, # of connection points: 2
#     Edge 77, Type (0, 1), BuildingBlock: KIFKEQ_clean_linker_1, # of connection points: 2
#     Edge 78, Type (0, 1), BuildingBlock: KIFKEQ_clean_linker_1, # of connection points: 2
#     Edge 79, Type (0, 1), BuildingBlock: KIFKEQ_clean_linker_1, # of connection points: 2
#     Edge 80, Type (0, 1), BuildingBlock: KIFKEQ_clean_linker_1, # of connection points: 2
# Relax obj value: 0.035
# Max RMSD: 0.131
# Mean RMSD: 0.088
data_MOF--net-eea--node1-NUHQIS_clean_sbu_0--node2-ESEHIV_clean_linker_0--edge1-KIFKEQ_clean_linker_1
_symmetry_space_group_name_H-M    P1
_symmetry_Int_Tables_number       1
_symmetry_cell_setting            triclinic
loop_
_symmetry_equiv_pos_as_xyz
'x, y, z'
_cell_length_a     48.420494
_cell_length_b     48.94215
_cell_length_c     74.035052
_cell_angle_alpha  93.102347
_cell_angle_beta   92.874061
_cell_angle_gamma 120.04404
loop_
_atom_site_label
_atom_site_type_symbol
_atom_site_fract_x
_atom_site_fract_y
_atom_site_fract_z
_atom_type_partial_charge
H0 H 0.29743 0.19637 0.43792 0.0
H1 H 0.29268 0.10635 0.4399 0.0
H2 H 0.25726 0.12754 0.39147 0.0
C3 C 0.29118 0.17334 0.43149 0.0
C4 C 0.27674 0.16442 0.41359 0.0
C5 C 0.29736 0.15271 0.4411 0.0
C6 C 0.28898 0.12294 0.43251 0.0
C7 C 0.2749 0.11391 0.41457 0.0
C8 C 0.26924 0.13492 0.4051 0.0
H9 H 0.85011 0.10138 0.44535 0.0
H10 H 0.94254 0.18588 0.44635 0.0
H11 H 0.90698 0.11459 0.40077 0.0
C12 C 0.87186 0.11604 0.43899 0.0
C13 C 0.87634 0.10482 0.42227 0.0
C14 C 0.89552 0.14536 0.44779 0.0
C15 C 0.92413 0.1634 0.43954 0.0
C16 C 0.9288 0.15261 0.42249 0.0
C17 C 0.90455 0.12314 0.41406 0.0
H18 H 0.84444 0.75453 0.44863 0.0
H19 H 0.93135 0.75086 0.44785 0.0
H20 H 0.90088 0.78429 0.40295 0.0
C21 C 0.86486 0.75777 0.44167 0.0
C22 C 0.86972 0.77038 0.42469 0.0
C23 C 0.88653 0.75002 0.45006 0.0
C24 C 0.91425 0.7563 0.44149 0.0
C25 C 0.92 0.76959 0.4247 0.0
C26 C 0.89725 0.77578 0.41632 0.0
H27 H 0.0784 0.2476 0.57067 0.0
H28 H 0.16535 0.24413 0.56894 0.0
H29 H 0.10907 0.21141 0.61434 0.0
C30 C 0.09541 0.24182 0.57679 0.0
C31 C 0.09036 0.22896 0.59375 0.0
C32 C 0.12228 0.24711 0.56763 0.0
C33 C 0.14447 0.23989 0.57579 0.0
C34 C 0.13991 0.22712 0.59265 0.0
C35 C 0.11274 0.22156 0.60142 0.0
H36 H 0.71367 0.89002 0.58287 0.0
H37 H 0.70724 0.79922 0.58344 0.0
H38 H 0.74634 0.86528 0.63102 0.0
C39 C 0.71632 0.87276 0.59018 0.0
C40 C 0.73013 0.88094 0.60821 0.0
C41 C 0.70786 0.84331 0.58109 0.0
C42 C 0.71353 0.82199 0.59028 0.0
C43 C 0.72777 0.82998 0.60819 0.0
C44 C 0.73529 0.85912 0.6172 0.0
H45 H 0.07585 0.81053 0.57218 0.0
H46 H 0.16149 0.9007 0.57016 0.0
H47 H 0.1076 0.88266 0.61676 0.0
C48 C 0.09271 0.83423 0.57827 0.0
C49 C 0.08817 0.84438 0.59547 0.0
C50 C 0.11955 0.85421 0.5692 0.0
C51 C 0.1415 0.88472 0.57739 0.0
C52 C 0.13759 0.89513 0.59459 0.0
C53 C 0.11084 0.87478 0.60349 0.0
H54 H 0.94543 0.52116 0.77374 0.0
H55 H 0.94857 0.4349 0.77371 0.0
H56 H 0.91018 0.45458 0.72607 0.0
C57 C 0.94105 0.49921 0.76669 0.0
C58 C 0.92631 0.49027 0.7488 0.0
C59 C 0.9499 0.47975 0.77564 0.0
C60 C 0.9433 0.45083 0.76666 0.0
C61 C 0.92841 0.44148 0.74896 0.0
C62 C 0.92061 0.46152 0.74001 0.0
H63 H 0.50816 0.43857 0.77605 0.0
H64 H 0.59708 0.52669 0.77609 0.0
H65 H 0.56529 0.45598 0.73083 0.0
C66 C 0.52931 0.45401 0.76946 0.0
C67 C 0.53375 0.44372 0.75234 0.0
C68 C 0.55192 0.48386 0.77822 0.0
C69 C 0.57954 0.50351 0.7696 0.0
C70 C 0.58415 0.49373 0.75235 0.0
C71 C 0.56118 0.46389 0.74385 0.0
H72 H 0.51032 0.08136 0.78031 0.0
H73 H 0.60151 0.08622 0.78227 0.0
H74 H 0.57022 0.11767 0.73654 0.0
C75 C 0.53249 0.0879 0.77429 0.0
C76 C 0.53753 0.10064 0.75736 0.0
C77 C 0.55538 0.08263 0.78339 0.0
C78 C 0.58358 0.08974 0.77517 0.0
C79 C 0.58923 0.10245 0.75819 0.0
C80 C 0.56602 0.10781 0.74952 0.0
H81 H 0.74867 0.5862 0.90501 0.0
H82 H 0.83504 0.5812 0.90454 0.0
H83 H 0.77493 0.54587 0.94818 0.0
C84 C 0.765 0.57957 0.91114 0.0
C85 C 0.75806 0.56472 0.92745 0.0
C86 C 0.79291 0.58591 0.90274 0.0
C87 C 0.81393 0.57727 0.91102 0.0
C88 C 0.80753 0.56266 0.92733 0.0
C89 C 0.77953 0.55642 0.93537 0.0
H90 H 0.39975 0.23647 0.91217 0.0
H91 H 0.39347 0.14583 0.91348 0.0
H92 H 0.43122 0.21279 0.96102 0.0
C93 C 0.40329 0.21971 0.91949 0.0
C94 C 0.41636 0.22797 0.93758 0.0
C95 C 0.3947 0.19005 0.91076 0.0
C96 C 0.39906 0.16835 0.92038 0.0
C97 C 0.4126 0.17653 0.93849 0.0
C98 C 0.42068 0.20622 0.94708 0.0
H99 H 0.74441 0.13458 0.9074 0.0
H100 H 0.83167 0.22383 0.90591 0.0
H101 H 0.77375 0.20991 0.95008 0.0
C102 C 0.76104 0.15845 0.91332 0.0
C103 C 0.75563 0.16949 0.93007 0.0
C104 C 0.7885 0.17787 0.90446 0.0
C105 C 0.81062 0.20837 0.9126 0.0
C106 C 0.80535 0.21974 0.92902 0.0
C107 C 0.77775 0.20053 0.93752 0.0
H108 H 0.63484 0.86921 0.10625 0.0
H109 H 0.62639 0.77749 0.10723 0.0
H110 H 0.58683 0.79885 0.06075 0.0
C111 C 0.62667 0.84574 0.09976 0.0
C112 C 0.61013 0.8368 0.08232 0.0
C113 C 0.63267 0.82452 0.10892 0.0
C114 C 0.62282 0.79446 0.10017 0.0
C115 C 0.6066 0.7853 0.08277 0.0
C116 C 0.60019 0.80644 0.07399 0.0
H117 H 0.17782 0.76159 0.11068 0.0
H118 H 0.26807 0.8483 0.11143 0.0
H119 H 0.23339 0.77862 0.06509 0.0
C120 C 0.19894 0.77705 0.10404 0.0
C121 C 0.20328 0.76666 0.08701 0.0
C122 C 0.22187 0.80666 0.11285 0.0
C123 C 0.25008 0.82573 0.1045 0.0
C124 C 0.25487 0.81579 0.08723 0.0
C125 C 0.23098 0.78627 0.07862 0.0
H126 H 0.17736 0.41556 0.11381 0.0
H127 H 0.26377 0.41101 0.11297 0.0
H128 H 0.23433 0.44732 0.06873 0.0
C129 C 0.19852 0.41987 0.10725 0.0
C130 C 0.20307 0.43165 0.09011 0.0
C131 C 0.22036 0.41245 0.11566 0.0
C132 C 0.24714 0.41705 0.10661 0.0
C133 C 0.25257 0.42955 0.08954 0.0
C134 C 0.23027 0.43682 0.08154 0.0
H135 H 0.41459 0.92187 0.23988 0.0
H136 H 0.50176 0.91861 0.2394 0.0
H137 H 0.44202 0.88165 0.28289 0.0
C138 C 0.43104 0.91549 0.24612 0.0
C139 C 0.42482 0.90148 0.26274 0.0
C140 C 0.45836 0.92109 0.23734 0.0
C141 C 0.48022 0.91371 0.24573 0.0
C142 C 0.47442 0.89979 0.2622 0.0
C143 C 0.44655 0.89319 0.27041 0.0
H144 H 0.05851 0.56178 0.24553 0.0
H145 H 0.0597 0.4746 0.24517 0.0
H146 H 0.09967 0.54207 0.29232 0.0
C147 C 0.06471 0.54628 0.25237 0.0
C148 C 0.07998 0.55553 0.27004 0.0
C149 C 0.05741 0.51724 0.24331 0.0
C150 C 0.06456 0.49672 0.25229 0.0
C151 C 0.07988 0.5056 0.26998 0.0
C152 C 0.08741 0.53497 0.27878 0.0
H153 H 0.41255 0.47749 0.2397 0.0
H154 H 0.50023 0.56655 0.23929 0.0
H155 H 0.44546 0.54804 0.28539 0.0
C156 C 0.43002 0.50054 0.24634 0.0
C157 C 0.4252 0.51036 0.2636 0.0
C158 C 0.45743 0.52044 0.23761 0.0
C159 C 0.4797 0.55054 0.24617 0.0
C160 C 0.47522 0.56072 0.26323 0.0
C161 C 0.44819 0.54045 0.27191 0.0
Tb162 Tb 0.49281 0.97807 0.98879 0.0
Eu163 Eu 0.51364 0.0194 0.02901 0.0
C164 C 0.52232 0.96058 0.0217 0.0
C165 C 0.44544 0.95631 0.01908 0.0
C166 C 0.48724 0.96371 0.93885 0.0
C167 C 0.50295 0.9617 0.90829 0.0
C168 C 0.49539 0.94896 0.92505 0.0
C169 C 0.48659 0.9914 0.93558 0.0
C170 C 0.49392 0.00405 0.91878 0.0
C171 C 0.50248 0.98954 0.9049 0.0
C172 C 0.48197 0.95142 0.95694 0.0
O173 O 0.47015 0.00697 0.98871 0.0
O174 O 0.50318 0.04805 0.0102 0.0
O175 O 0.55802 0.03787 0.01354 0.0
O176 O 0.53156 0.0251 0.9852 0.0
C177 C 0.48124 0.03593 0.99634 0.0
O178 O 0.50374 0.04272 0.05179 0.0
O179 O 0.54713 0.04012 0.0533 0.0
O180 O 0.51049 0.97302 0.0327 0.0
O181 O 0.52422 0.96613 1.00452 0.0
O182 O 0.45753 0.94664 1.00637 0.0
O183 O 0.46037 0.98574 0.02637 0.0
C184 C 0.55796 0.04094 0.996 0.0
O185 O 0.50794 0.96015 0.96743 0.0
O186 O 0.4603 0.95332 0.96583 0.0
C187 C 0.52095 0.03404 0.08026 0.0
C188 C 0.50632 0.01022 0.11465 0.0
C189 C 0.5073 0.03863 0.11107 0.0
C190 C 0.51465 0.05046 0.09405 0.0
C191 C 0.51958 0.00545 0.08372 0.0
C192 C 0.51253 0.99377 0.10075 0.0
C193 C 0.52808 0.0464 0.06224 0.0
H194 H 0.50994 0.9501 0.89816 0.0
H195 H 0.49653 0.92786 0.92738 0.0
H196 H 0.48076 0.00348 0.94609 0.0
H197 H 0.49281 0.02521 0.91668 0.0
H198 H 0.50285 0.05197 0.1215 0.0
H199 H 0.51538 0.07245 0.09165 0.0
H200 H 0.52387 0.99203 0.07324 0.0
H201 H 0.5115 0.97159 0.10296 0.0
Tb202 Tb 0.02253 0.5019 0.99189 0.0
Eu203 Eu 0.97875 0.48151 0.02669 0.0
C204 C 0.0412 0.55048 0.0261 0.0
C205 C 0.04283 0.47849 0.02661 0.0
C206 C 0.04504 0.51379 0.94481 0.0
C207 C 0.05571 0.53736 0.9161 0.0
C208 C 0.0642 0.53883 0.9346 0.0
C209 C 0.01716 0.48729 0.93633 0.0
C210 C 0.00889 0.48566 0.91782 0.0
C211 C 0.02808 0.51066 0.90754 0.0
C212 C 0.05384 0.51604 0.96434 0.0
O213 O 0.97782 0.45932 0.98215 0.0
O214 O 0.96659 0.43729 0.00913 0.0
O215 O 0.94899 0.4868 1.00442 0.0
O216 O 0.99 0.52032 0.9882 0.0
C217 C 0.96309 0.43455 0.99135 0.0
O218 O 0.95478 0.44705 0.0462 0.0
O219 O 0.95032 0.48895 0.04621 0.0
O220 O 0.0121 0.53442 0.03128 0.0
O221 O 0.05131 0.53868 0.01344 0.0
O222 O 0.04022 0.47749 0.00875 0.0
O223 O 0.02535 0.48574 0.03655 0.0
C224 C 0.96007 0.50732 0.9922 0.0
O225 O 0.0499 0.53623 0.97447 0.0
O226 O 0.04376 0.48928 0.97157 0.0
C227 C 0.95387 0.47018 0.07441 0.0
C228 C 0.97371 0.47779 0.11164 0.0
C229 C 0.94487 0.45095 0.10431 0.0
C230 C 0.93505 0.4472 0.08582 0.0
C231 C 0.98232 0.49728 0.0817 0.0
C232 C 0.99204 0.50115 0.10017 0.0
C233 C 0.94528 0.46442 0.05475 0.0
H234 H 0.07094 0.55687 0.90843 0.0
H235 H 0.08566 0.55955 0.94096 0.0
H236 H 1.00169 0.46787 0.94399 0.0
H237 H 0.98724 0.46501 0.91157 0.0
H238 H 0.9304 0.43238 0.11272 0.0
H239 H 0.91322 0.42596 0.08033 0.0
H240 H 0.99736 0.51515 0.07306 0.0
H241 H 0.01407 0.52236 0.10543 0.0
Tb242 Tb 0.52148 0.49867 0.02713 0.0
Eu243 Eu 0.49325 0.51404 0.9898 0.0
C244 C 0.48885 0.44819 0.99341 0.0
C245 C 0.56363 0.52175 0.99404 0.0
C246 C 0.53136 0.48868 0.07566 0.0
C247 C 0.52015 0.4675 0.10505 0.0
C248 C 0.52956 0.46667 0.08757 0.0
C249 C 0.52379 0.51174 0.08148 0.0
C250 C 0.51459 0.51274 0.09901 0.0
C251 C 0.51241 0.49048 0.111 0.0
C252 C 0.53824 0.48548 0.05678 0.0
O253 O 0.54173 0.54978 0.02886 0.0
O254 O 0.50347 0.55305 0.01105 0.0
O255 O 0.45141 0.48716 1.00654 0.0
O256 O 0.48024 0.5021 0.03437 0.0
C257 C 0.52754 0.56533 0.02366 0.0
O258 O 0.49746 0.54736 0.97014 0.0
O259 O 0.45814 0.49879 0.96634 0.0
O260 O 0.49609 0.47067 0.98262 0.0
O261 O 0.49045 0.45377 0.01106 0.0
O262 O 0.55534 0.50316 1.0074 0.0
O263 O 0.54606 0.53348 0.98806 0.0
C264 C 0.45289 0.49036 0.02438 0.0
O265 O 0.51347 0.46539 0.0459 0.0
O266 O 0.55593 0.51158 0.0493 0.0
C267 C 0.48227 0.52309 0.94025 0.0
C268 C 0.5012 0.52093 0.90492 0.0
C269 C 0.49301 0.54368 0.91066 0.0
C270 C 0.48362 0.54471 0.92816 0.0
C271 C 0.49048 0.50041 0.93462 0.0
C272 C 0.49964 0.49921 0.91713 0.0
C273 C 0.4742 0.52546 0.95899 0.0
H274 H 0.51825 0.44965 0.11374 0.0
H275 H 0.53478 0.44837 0.0832 0.0
H276 H 0.52458 0.52871 0.0724 0.0
H277 H 0.50927 0.53105 0.10316 0.0
H278 H 0.49437 0.56108 0.90177 0.0
H279 H 0.47781 0.56266 0.93233 0.0
H280 H 0.48999 0.48368 0.94379 0.0
H281 H 0.50524 0.48104 0.91315 0.0
Tb282 Tb 0.16276 0.30876 0.32105 0.0
Eu283 Eu 0.18454 0.35221 0.36106 0.0
C284 C 0.19511 0.2937 0.35397 0.0
C285 C 0.11698 0.28852 0.35188 0.0
C286 C 0.15416 0.29325 0.2712 0.0
C287 C 0.16728 0.2901 0.24011 0.0
C288 C 0.16025 0.27748 0.25694 0.0
C289 C 0.15501 0.3218 0.26833 0.0
C290 C 0.16177 0.3343 0.25146 0.0
C291 C 0.16826 0.31874 0.23717 0.0
C292 C 0.14956 0.28112 0.28934 0.0
O293 O 0.14123 0.33873 0.32084 0.0
O294 O 0.17548 0.38069 0.34151 0.0
O295 O 0.22892 0.37197 0.34565 0.0
O296 O 0.20326 0.35436 0.3169 0.0
C297 C 0.15342 0.36829 0.32773 0.0
O298 O 0.17298 0.37484 0.38344 0.0
O299 O 0.21715 0.37377 0.38568 0.0
O300 O 0.18484 0.30754 0.36517 0.0
O301 O 0.19352 0.29579 0.33637 0.0
O302 O 0.12911 0.27826 0.33955 0.0
O303 O 0.13132 0.31845 0.35813 0.0
C304 C 0.22924 0.37184 0.32787 0.0
O305 O 0.17587 0.28941 0.29937 0.0
O306 O 0.12878 0.28385 0.29869 0.0
C307 C 0.18939 0.36612 0.41214 0.0
C308 C 0.17329 0.34076 0.44611 0.0
C309 C 0.17515 0.36973 0.44293 0.0
C310 C 0.18322 0.38232 0.42613 0.0
C311 C 0.1871 0.33698 0.41518 0.0
C312 C 0.17934 0.32456 0.43199 0.0
C313 C 0.19716 0.3791 0.39428 0.0
H314 H 0.17188 0.27736 0.22937 0.0
H315 H 0.16006 0.25561 0.25892 0.0
H316 H 0.151 0.33474 0.27923 0.0
H317 H 0.16273 0.35659 0.24975 0.0
H318 H 0.17081 0.38291 0.45353 0.0
H319 H 0.1846 0.40469 0.42405 0.0
H320 H 0.19117 0.3237 0.40453 0.0
H321 H 0.17763 0.30198 0.43385 0.0
Tb322 Tb 0.69195 0.84522 0.32676 0.0
Eu323 Eu 0.64848 0.82453 0.36159 0.0
C324 C 0.71001 0.89163 0.36185 0.0
C325 C 0.711 0.81851 0.35967 0.0
C326 C 0.71806 0.85807 0.28003 0.0
C327 C 0.73149 0.87892 0.25072 0.0
C328 C 0.73862 0.88172 0.26948 0.0
C329 C 0.69039 0.83132 0.2716 0.0
C330 C 0.68337 0.82837 0.2528 0.0
C331 C 0.70371 0.85231 0.2422 0.0
C332 C 0.72488 0.86272 0.29985 0.0
O333 O 0.65998 0.79396 0.32176 0.0
O334 O 0.61913 0.78772 0.33879 0.0
O335 O 0.63299 0.85225 0.3445 0.0
O336 O 0.6466 0.84074 0.31713 0.0
C337 C 0.63034 0.77715 0.32614 0.0
O338 O 0.61999 0.78947 0.37996 0.0
O339 O 0.62602 0.83652 0.38294 0.0
O340 O 0.69535 0.86758 0.37154 0.0
O341 O 0.70466 0.88812 0.34408 0.0
O342 O 0.72138 0.84048 0.34823 0.0
O343 O 0.68115 0.80416 0.36374 0.0
C344 C 0.63025 0.85013 0.32666 0.0
O345 O 0.71428 0.87919 0.30828 0.0
O346 O 0.7195 0.83789 0.30815 0.0
C347 C 0.62395 0.81166 0.40959 0.0
C348 C 0.63974 0.81458 0.44706 0.0
C349 C 0.60944 0.79123 0.43889 0.0
C350 C 0.60162 0.78984 0.4203 0.0
C351 C 0.65426 0.83488 0.41761 0.0
C352 C 0.66202 0.83645 0.43619 0.0
C353 C 0.6158 0.80959 0.39002 0.0
H354 H 0.74771 0.89757 0.24287 0.0
H355 H 0.75997 0.9026 0.2758 0.0
H356 H 0.67399 0.813 0.27957 0.0
H357 H 0.66162 0.80778 0.24661 0.0
H358 H 0.5919 0.77374 0.4468 0.0
H359 H 0.57822 0.77158 0.41427 0.0
H360 H 0.67194 0.85184 0.40952 0.0
H361 H 0.68538 0.85502 0.44205 0.0
Tb362 Tb 0.18412 0.82602 0.36018 0.0
Eu363 Eu 0.15606 0.84107 0.32266 0.0
C364 C 0.1485 0.77342 0.328 0.0
C365 C 0.2243 0.84613 0.32621 0.0
C366 C 0.19357 0.81654 0.4085 0.0
C367 C 0.18286 0.79575 0.43801 0.0
C368 C 0.19308 0.79541 0.42069 0.0
C369 C 0.18364 0.83801 0.41383 0.0
C370 C 0.17367 0.83854 0.43116 0.0
C371 C 0.17299 0.81732 0.44348 0.0
C372 C 0.20236 0.81469 0.38991 0.0
O373 O 0.18333 0.86917 0.36712 0.0
O374 O 0.1892 0.88741 0.33899 0.0
O375 O 0.12207 0.83745 0.34344 0.0
O376 O 0.13334 0.80822 0.36269 0.0
C377 C 0.19179 0.89241 0.35671 0.0
O378 O 0.16464 0.87409 0.30209 0.0
O379 O 0.12083 0.82856 0.29945 0.0
O380 O 0.13414 0.78833 0.32207 0.0
O381 O 0.17333 0.78715 0.34016 0.0
O382 O 0.22504 0.85019 0.344 0.0
O383 O 0.19764 0.83539 0.31577 0.0
C384 C 0.11522 0.81967 0.35713 0.0
O385 O 0.1794 0.79301 0.37857 0.0
O386 O 0.21816 0.84151 0.38272 0.0
C387 C 0.14601 0.84879 0.27261 0.0
C388 C 0.16414 0.84239 0.23764 0.0
C389 C 0.16515 0.87049 0.24402 0.0
C390 C 0.15606 0.8736 0.26132 0.0
C391 C 0.14491 0.82064 0.26626 0.0
C392 C 0.15367 0.81741 0.2489 0.0
C393 C 0.13958 0.85371 0.29144 0.0
H394 H 0.18221 0.77873 0.447 0.0
H395 H 0.20019 0.77835 0.41672 0.0
H396 H 0.18342 0.85429 0.40455 0.0
H397 H 0.16676 0.85582 0.43494 0.0
H398 H 0.17284 0.89004 0.2356 0.0
H399 H 0.15742 0.89563 0.26602 0.0
H400 H 0.13785 0.80134 0.27482 0.0
H401 H 0.15298 0.79561 0.24444 0.0
Tb402 Tb 0.82583 0.64646 0.65613 0.0
Eu403 Eu 0.85366 0.69001 0.69618 0.0
C404 C 0.85917 0.62868 0.68625 0.0
C405 C 0.7845 0.62728 0.68992 0.0
C406 C 0.81805 0.6329 0.60611 0.0
C407 C 0.83698 0.63145 0.57634 0.0
C408 C 0.82863 0.619 0.59316 0.0
C409 C 0.81618 0.65965 0.60193 0.0
C410 C 0.82421 0.67191 0.58509 0.0
C411 C 0.8347 0.65798 0.57205 0.0
C412 C 0.81009 0.62006 0.62407 0.0
O413 O 0.82607 0.69023 0.65298 0.0
O414 O 0.82069 0.70376 0.68215 0.0
O415 O 0.88685 0.72044 0.67619 0.0
O416 O 0.87719 0.67852 0.65611 0.0
C417 C 0.81673 0.70446 0.66457 0.0
O418 O 0.84624 0.71406 0.71955 0.0
O419 O 0.8892 0.71093 0.71971 0.0
O420 O 0.87487 0.65852 0.69279 0.0
O421 O 0.83414 0.61743 0.67431 0.0
O422 O 0.78427 0.62826 0.67214 0.0
O423 O 0.81083 0.64376 0.70077 0.0
C424 C 0.89432 0.70868 0.66211 0.0
O425 O 0.83378 0.62221 0.63445 0.0
O426 O 0.79218 0.62757 0.63328 0.0
C427 C 0.8648 0.70519 0.74734 0.0
C428 C 0.84856 0.68034 0.78144 0.0
C429 C 0.85795 0.7122 0.77928 0.0
C430 C 0.86597 0.72445 0.76241 0.0
C431 C 0.85553 0.67344 0.74937 0.0
C432 C 0.84765 0.66119 0.76623 0.0
C433 C 0.87116 0.71766 0.72933 0.0
H434 H 0.84477 0.62001 0.56658 0.0
H435 H 0.83052 0.59851 0.59607 0.0
H436 H 0.80866 0.67129 0.6117 0.0
H437 H 0.82263 0.69264 0.58239 0.0
H438 H 0.85846 0.72759 0.79052 0.0
H439 H 0.87262 0.74889 0.76108 0.0
H440 H 0.85412 0.658 0.73786 0.0
H441 H 0.84101 0.63673 0.76735 0.0
Tb442 Tb 0.36098 0.17495 0.65876 0.0
Eu443 Eu 0.31735 0.15608 0.69372 0.0
C444 C 0.37847 0.2249 0.69217 0.0
C445 C 0.3803 0.15165 0.69342 0.0
C446 C 0.38521 0.18702 0.61208 0.0
C447 C 0.39966 0.20748 0.58277 0.0
C448 C 0.40767 0.20856 0.6013 0.0
C449 C 0.35458 0.16439 0.60417 0.0
C450 C 0.34662 0.16312 0.58564 0.0
C451 C 0.36902 0.18473 0.57471 0.0
C452 C 0.39347 0.18903 0.63164 0.0
O453 O 0.31667 0.13222 0.64882 0.0
O454 O 0.3025 0.11131 0.67604 0.0
O455 O 0.28725 0.16078 0.67147 0.0
O456 O 0.32722 0.19165 0.65374 0.0
C457 C 0.30005 0.10814 0.65824 0.0
O458 O 0.29449 0.12249 0.71379 0.0
O459 O 0.28934 0.16398 0.71333 0.0
O460 O 0.34916 0.20905 0.69699 0.0
O461 O 0.3892 0.21245 0.68025 0.0
O462 O 0.37596 0.14842 0.67558 0.0
O463 O 0.36474 0.16151 0.70328 0.0
C464 C 0.29769 0.1796 0.65838 0.0
O465 O 0.38945 0.20928 0.64164 0.0
O466 O 0.38258 0.1621 0.63876 0.0
C467 C 0.2928 0.14581 0.74176 0.0
C468 C 0.31095 0.15417 0.77922 0.0
C469 C 0.2821 0.12752 0.7718 0.0
C470 C 0.27308 0.12342 0.75319 0.0
C471 C 0.32147 0.17259 0.74912 0.0
C472 C 0.33039 0.17683 0.76772 0.0
C473 C 0.28459 0.13973 0.72208 0.0
H474 H 0.41732 0.22477 0.57483 0.0
H475 H 0.43132 0.2264 0.60726 0.0
H476 H 0.33678 0.1477 0.61231 0.0
H477 H 0.323 0.14498 0.57987 0.0
H478 H 0.26659 0.10983 0.78038 0.0
H479 H 0.25101 0.10247 0.74766 0.0
H480 H 0.33727 0.18987 0.74042 0.0
H481 H 0.35296 0.19737 0.77304 0.0
Tb482 Tb 0.85367 0.15725 0.69425 0.0
Eu483 Eu 0.82477 0.17223 0.65677 0.0
C484 C 0.81756 0.10541 0.66147 0.0
C485 C 0.89483 0.17964 0.66079 0.0
C486 C 0.86383 0.14728 0.74271 0.0
C487 C 0.85323 0.12584 0.77208 0.0
C488 C 0.863 0.12563 0.75462 0.0
C489 C 0.85479 0.16925 0.74851 0.0
C490 C 0.84523 0.16963 0.76601 0.0
C491 C 0.84413 0.1478 0.77802 0.0
C492 C 0.87162 0.14503 0.72389 0.0
O493 O 0.87352 0.20836 0.69574 0.0
O494 O 0.83519 0.21137 0.67781 0.0
O495 O 0.78338 0.14929 0.67428 0.0
O496 O 0.81221 0.15975 0.70201 0.0
C497 C 0.85929 0.2238 0.69038 0.0
O498 O 0.82936 0.20562 0.63709 0.0
O499 O 0.79036 0.15689 0.63294 0.0
O500 O 0.82539 0.12742 0.65029 0.0
O501 O 0.82044 0.11208 0.67909 0.0
O502 O 0.88657 0.16082 0.67404 0.0
O503 O 0.87756 0.1919 0.65523 0.0
C504 C 0.78521 0.15082 0.69217 0.0
O505 O 0.84779 0.12409 0.71278 0.0
O506 O 0.88811 0.17156 0.71658 0.0
C507 C 0.81567 0.18168 0.60714 0.0
C508 C 0.83753 0.1809 0.5725 0.0
C509 C 0.83059 0.2045 0.57836 0.0
C510 C 0.81973 0.20484 0.59551 0.0
C511 C 0.82253 0.15808 0.60137 0.0
C512 C 0.83313 0.15757 0.58421 0.0
C513 C 0.80663 0.18366 0.6257 0.0
H514 H 0.8522 0.10832 0.78077 0.0
H515 H 0.86937 0.10815 0.75029 0.0
H516 H 0.85483 0.18593 0.73945 0.0
H517 H 0.83888 0.18719 0.77013 0.0
H518 H 0.83412 0.22312 0.56986 0.0
H519 H 0.81504 0.22353 0.59981 0.0
H520 H 0.81999 0.14015 0.6102 0.0
H521 H 0.83768 0.13872 0.5801 0.0
H522 H 0.28988 0.88108 0.08845 0.0
H523 H 0.28675 0.79691 0.06449 0.0
H524 H 0.33574 0.9136 0.07211 0.0
H525 H 0.33008 0.8291 0.04659 0.0
H526 H 0.42785 0.89667 0.02783 0.0
H527 H 0.38334 0.86294 0.0451 0.0
H528 H 0.35131 0.93117 0.04449 0.0
H529 H 0.39724 0.96559 0.02851 0.0
C530 C 0.29884 0.86938 0.07971 0.0
C531 C 0.28409 0.83614 0.07779 0.0
C532 C 0.3249 0.88812 0.06994 0.0
C533 C 0.33662 0.87421 0.05761 0.0
C534 C 0.3222 0.84099 0.05596 0.0
C535 C 0.2967 0.82233 0.06606 0.0
C536 C 0.41094 0.90408 0.03123 0.0
C537 C 0.41582 0.93359 0.02682 0.0
C538 C 0.3853 0.88477 0.04115 0.0
C539 C 0.36352 0.89422 0.0465 0.0
C540 C 0.36789 0.92329 0.04125 0.0
C541 C 0.39397 0.9429 0.0318 0.0
H542 H 0.17566 0.46418 0.10449 0.0
H543 H 0.17671 0.41398 0.05503 0.0
H544 H 0.13747 0.47589 0.08916 0.0
H545 H 0.13773 0.42458 0.0398 0.0
H546 H 0.09218 0.47503 0.01228 0.0
H547 H 0.13101 0.46442 0.02769 0.0
H548 H 0.08404 0.45378 0.07713 0.0
H549 H 0.04615 0.4657 0.0619 0.0
C550 C 0.16742 0.45537 0.09038 0.0
C551 C 0.17926 0.43827 0.08095 0.0
C552 C 0.14541 0.46195 0.08157 0.0
C553 C 0.13437 0.45125 0.06316 0.0
C554 C 0.14607 0.43383 0.05384 0.0
C555 C 0.16834 0.4276 0.06259 0.0
C556 C 0.09015 0.4704 0.02643 0.0
C557 C 0.06605 0.47126 0.03583 0.0
C558 C 0.11234 0.46412 0.03529 0.0
C559 C 0.1108 0.45816 0.05372 0.0
C560 C 0.08648 0.45881 0.06305 0.0
C561 C 0.06453 0.46544 0.05426 0.0
H562 H 0.64024 0.75455 0.07953 0.0
H563 H 0.54708 0.74349 0.06648 0.0
H564 H 0.62143 0.70152 0.06497 0.0
H565 H 0.52792 0.69024 0.0523 0.0
H566 H 0.51385 0.60969 0.01218 0.0
H567 H 0.53354 0.66306 0.02622 0.0
H568 H 0.58634 0.64682 0.06898 0.0
H569 H 0.56748 0.59383 0.05462 0.0
C570 C 0.61566 0.74062 0.07365 0.0
C571 C 0.59514 0.75309 0.07404 0.0
C572 C 0.60483 0.71024 0.06537 0.0
C573 C 0.57315 0.69162 0.05745 0.0
C574 C 0.55261 0.70414 0.05796 0.0
C575 C 0.56353 0.73459 0.06611 0.0
C576 C 0.52966 0.61752 0.02458 0.0
C577 C 0.53918 0.59758 0.03226 0.0
C578 C 0.54083 0.64807 0.03268 0.0
C579 C 0.56151 0.65924 0.04874 0.0
C580 C 0.57088 0.63918 0.05646 0.0
C581 C 0.55993 0.60873 0.04827 0.0
H582 H 0.79564 0.26889 0.93765 0.0
H583 H 0.8681 0.24211 0.93939 0.0
H584 H 0.83507 0.3218 0.95208 0.0
H585 H 0.90727 0.29468 0.95427 0.0
H586 H 0.94498 0.37655 1.00303 0.0
H587 H 0.90736 0.32456 0.98713 0.0
H588 H 0.89302 0.36987 0.94212 0.0
H589 H 0.93132 0.42196 0.95774 0.0
C590 C 0.82 0.27442 0.94116 0.0
C591 C 0.82903 0.25169 0.93746 0.0
C592 C 0.84247 0.30456 0.9493 0.0
C593 C 0.87403 0.31207 0.95423 0.0
C594 C 0.883 0.28928 0.9506 0.0
C595 C 0.86074 0.25941 0.94208 0.0
C596 C 0.93392 0.3754 0.98971 0.0
C597 C 0.94104 0.40323 0.9816 0.0
C598 C 0.91254 0.34573 0.98063 0.0
C599 C 0.89741 0.34344 0.96349 0.0
C600 C 0.90441 0.37119 0.95538 0.0
C601 C 0.92636 0.40087 0.96427 0.0
H602 H 0.7169 0.511 0.94291 0.0
H603 H 0.73308 0.60372 0.93282 0.0
H604 H 0.67064 0.50107 0.95913 0.0
H605 H 0.687 0.59402 0.94924 0.0
H606 H 0.58395 0.55374 0.96382 0.0
H607 H 0.62998 0.56365 0.9476 0.0
H608 H 0.65591 0.51615 0.98675 0.0
H609 H 0.60911 0.50542 1.00279 0.0
C610 C 0.71067 0.52936 0.94424 0.0
C611 C 0.72879 0.5582 0.93657 0.0
C612 C 0.68418 0.52371 0.95363 0.0
C613 C 0.67505 0.54677 0.95566 0.0
C614 C 0.69298 0.5755 0.94779 0.0
C615 C 0.71944 0.58109 0.93833 0.0
C616 C 0.59948 0.54548 0.96908 0.0
C617 C 0.59272 0.52878 0.9847 0.0
C618 C 0.62609 0.55134 0.95977 0.0
C619 C 0.64686 0.54079 0.96581 0.0
C620 C 0.64025 0.52427 0.98152 0.0
C621 C 0.6135 0.51829 0.99082 0.0
H622 H 0.37552 0.11234 0.93976 0.0
H623 H 0.46829 0.19275 0.95836 0.0
H624 H 0.39007 0.07743 0.95477 0.0
H625 H 0.48298 0.15808 0.97309 0.0
H626 H 0.49058 0.09271 0.01099 0.0
H627 H 0.47158 0.12566 0.99803 0.0
H628 H 0.42584 0.05676 0.95142 0.0
H629 H 0.44405 0.02341 0.96458 0.0
C630 C 0.39899 0.1225 0.94704 0.0
C631 C 0.42069 0.15525 0.94799 0.0
C632 C 0.40736 0.10256 0.95559 0.0
C633 C 0.43766 0.115 0.96517 0.0
C634 C 0.45922 0.1478 0.96616 0.0
C635 C 0.45082 0.16768 0.95769 0.0
C636 C 0.47636 0.08453 0.99801 0.0
C637 C 0.46893 0.0555 0.98879 0.0
C638 C 0.46557 0.10347 0.99055 0.0
C639 C 0.44732 0.09391 0.97365 0.0
C640 C 0.43947 0.06463 0.96457 0.0
C641 C 0.45009 0.04559 0.97208 0.0
H642 H 0.75251 0.16626 0.96688 0.0
H643 H 0.69417 0.12608 0.91586 0.0
H644 H 0.70564 0.13716 0.98323 0.0
H645 H 0.64764 0.0948 0.93224 0.0
H646 H 0.56336 0.06928 0.96481 0.0
H647 H 0.61116 0.09972 0.94934 0.0
H648 H 0.66776 0.08837 0.99216 0.0
H649 H 0.61976 0.05917 0.00812 0.0
C650 C 0.72969 0.15112 0.95909 0.0
C651 C 0.72719 0.14907 0.93997 0.0
C652 C 0.70276 0.13393 0.96854 0.0
C653 C 0.67255 0.11367 0.95917 0.0
C654 C 0.67027 0.11068 0.94002 0.0
C655 C 0.69716 0.12827 0.93055 0.0
C656 C 0.58609 0.07357 0.97102 0.0
C657 C 0.58783 0.06187 0.98771 0.0
C658 C 0.61354 0.09075 0.96202 0.0
C659 C 0.6435 0.09625 0.96926 0.0
C660 C 0.64528 0.08501 0.98619 0.0
C661 C 0.61777 0.06822 0.99538 0.0
H662 H 0.87292 0.59868 0.93261 0.0
H663 H 0.79339 0.50746 0.94198 0.0
H664 H 0.90989 0.58558 0.94809 0.0
H665 H 0.83027 0.49397 0.9571 0.0
H666 H 0.89997 0.49297 1.00019 0.0
H667 H 0.86379 0.50646 0.98435 0.0
H668 H 0.93367 0.55322 0.94596 0.0
H669 H 0.97031 0.54057 0.9622 0.0
C670 C 0.86339 0.57565 0.93778 0.0
C671 C 0.83021 0.55416 0.93613 0.0
C672 C 0.88459 0.56808 0.94664 0.0
C673 C 0.87316 0.53872 0.95396 0.0
C674 C 0.83997 0.51705 0.952 0.0
C675 C 0.81878 0.52472 0.94327 0.0
C676 C 0.90767 0.50616 0.98838 0.0
C677 C 0.93811 0.51571 0.98251 0.0
C678 C 0.88678 0.51373 0.9792 0.0
C679 C 0.89564 0.53085 0.96378 0.0
C680 C 0.92613 0.54041 0.95791 0.0
C681 C 0.94714 0.53302 0.96719 0.0
H682 H 0.45402 0.28407 0.92392 0.0
H683 H 0.40295 0.2439 0.97057 0.0
H684 H 0.47179 0.33715 0.93774 0.0
H685 H 0.41982 0.29708 0.98428 0.0
H686 H 0.48287 0.39814 0.01101 0.0
H687 H 0.46564 0.34479 0.99778 0.0
H688 H 0.45162 0.37135 0.94481 0.0
H689 H 0.46996 0.42489 0.95792 0.0
C690 C 0.44635 0.28669 0.93708 0.0
C691 C 0.42702 0.26002 0.94617 0.0
C692 C 0.4564 0.31706 0.94498 0.0
C693 C 0.44704 0.3214 0.96207 0.0
C694 C 0.4278 0.29461 0.97121 0.0
C695 C 0.41803 0.26419 0.96336 0.0
C696 C 0.4761 0.39254 0.99654 0.0
C697 C 0.4779 0.41573 0.98549 0.0
C698 C 0.46604 0.36191 0.98898 0.0
C699 C 0.45731 0.35378 0.97023 0.0
C700 C 0.45876 0.37695 0.95924 0.0
C701 C 0.46913 0.40763 0.96677 0.0
H702 H 0.21363 0.72191 0.0704 0.0
H703 H 0.1381 0.74007 0.08364 0.0
H704 H 0.1739 0.6697 0.05609 0.0
H705 H 0.09821 0.68795 0.06903 0.0
H706 H 0.0353 0.57956 0.05725 0.0
H707 H 0.07418 0.63179 0.07222 0.0
H708 H 0.13682 0.64604 0.02968 0.0
H709 H 0.09862 0.59386 0.01508 0.0
C710 C 0.18851 0.71483 0.07006 0.0
C711 C 0.17897 0.73509 0.07807 0.0
C712 C 0.16572 0.68493 0.06185 0.0
C713 C 0.13283 0.67465 0.06134 0.0
C714 C 0.12329 0.69493 0.0694 0.0
C715 C 0.14613 0.72481 0.07772 0.0
C716 C 0.05735 0.59392 0.0511 0.0
C717 C 0.06393 0.58246 0.03504 0.0
C718 C 0.07958 0.62389 0.05963 0.0
C719 C 0.10874 0.64305 0.05221 0.0
C720 C 0.11495 0.6317 0.03599 0.0
C721 C 0.0929 0.60177 0.02755 0.0
H722 H 0.25782 0.42455 0.05277 0.0
H723 H 0.31358 0.44855 0.10459 0.0
H724 H 0.3055 0.43984 0.03729 0.0
H725 H 0.3608 0.46063 0.08905 0.0
H726 H 0.44793 0.51299 0.05781 0.0
H727 H 0.39988 0.49748 0.07332 0.0
H728 H 0.34314 0.42875 0.02797 0.0
H729 H 0.39117 0.4461 0.01204 0.0
C730 C 0.2802 0.43293 0.06095 0.0
C731 C 0.28159 0.43575 0.08006 0.0
C732 C 0.3077 0.44118 0.05197 0.0
C733 C 0.33751 0.45176 0.06176 0.0
C734 C 0.33866 0.45338 0.08089 0.0
C735 C 0.31124 0.44578 0.08989 0.0
C736 C 0.42511 0.49469 0.05113 0.0
C737 C 0.42333 0.48093 0.03363 0.0
C738 C 0.39743 0.48546 0.06013 0.0
C739 C 0.36719 0.4616 0.05208 0.0
C740 C 0.36563 0.44765 0.03458 0.0
C741 C 0.39326 0.45747 0.02541 0.0
H742 H 0.59191 0.87674 0.09791 0.0
H743 H 0.60812 0.84508 0.04594 0.0
H744 H 0.57326 0.90803 0.08282 0.0
H745 H 0.58676 0.87417 0.03072 0.0
H746 H 0.56927 0.95072 0.00936 0.0
H747 H 0.59371 0.92347 0.02406 0.0
H748 H 0.52757 0.89949 0.06562 0.0
H749 H 0.50455 0.928 0.05147 0.0
C750 C 0.59175 0.87658 0.08327 0.0
C751 C 0.60132 0.85808 0.07317 0.0
C752 C 0.58042 0.8941 0.07455 0.0
C753 C 0.5778 0.89318 0.05548 0.0
C754 C 0.58846 0.8756 0.04541 0.0
C755 C 0.60031 0.85849 0.05416 0.0
C756 C 0.55994 0.93941 0.02158 0.0
C757 C 0.53517 0.94158 0.02934 0.0
C758 C 0.57388 0.92375 0.03001 0.0
C759 C 0.56294 0.90955 0.0462 0.0
C760 C 0.53736 0.91092 0.05352 0.0
C761 C 0.52388 0.92698 0.04529 0.0
H762 H 0.96035 0.13224 0.40045 0.0
H763 H 0.96426 0.21765 0.4229 0.0
H764 H 1.00342 0.16327 0.38206 0.0
H765 H 0.00979 0.24903 0.40607 0.0
H766 H 0.0687 0.29782 0.361 0.0
H767 H 0.02358 0.26438 0.37778 0.0
H768 H 0.05675 0.19717 0.38005 0.0
H769 H 0.10049 0.22986 0.362 0.0
C770 C 0.97047 0.15769 0.4016 0.0
C771 C 0.95813 0.1722 0.41301 0.0
C772 C 0.99577 0.17566 0.39122 0.0
C773 C 0.01018 0.20886 0.39227 0.0
C774 C 0.99887 0.2235 0.40437 0.0
C775 C 0.97303 0.20544 0.41442 0.0
C776 C 0.06588 0.27557 0.36485 0.0
C777 C 0.08783 0.26624 0.36013 0.0
C778 C 0.04028 0.25654 0.37474 0.0
C779 C 0.03652 0.22811 0.3807 0.0
C780 C 0.05834 0.21856 0.37559 0.0
C781 C 0.0835 0.23727 0.36522 0.0
H782 H 0.88151 0.81783 0.40245 0.0
H783 H 0.80409 0.74018 0.4262 0.0
H784 H 0.8435 0.82786 0.38625 0.0
H785 H 0.7664 0.75277 0.41173 0.0
H786 H 0.69982 0.76162 0.37035 0.0
H787 H 0.73782 0.74984 0.38569 0.0
H788 H 0.81128 0.84876 0.38726 0.0
H789 H 0.77375 0.85954 0.37063 0.0
C790 C 0.85639 0.80285 0.40433 0.0
C791 C 0.84617 0.77786 0.41561 0.0
C792 C 0.83443 0.80913 0.39526 0.0
C793 C 0.80149 0.79131 0.39757 0.0
C794 C 0.79133 0.76677 0.40919 0.0
C795 C 0.81323 0.75991 0.41788 0.0
C796 C 0.72421 0.7807 0.37392 0.0
C797 C 0.73395 0.8114 0.36917 0.0
C798 C 0.74606 0.77408 0.38291 0.0
C799 C 0.77801 0.79825 0.38787 0.0
C800 C 0.78736 0.82916 0.38333 0.0
C801 C 0.76575 0.83551 0.37387 0.0
H802 H 0.2388 0.05814 0.42906 0.0
H803 H 0.28595 0.09712 0.38114 0.0
H804 H 0.21884 0.00473 0.415 0.0
H805 H 0.26697 0.04364 0.36716 0.0
H806 H 0.19908 0.94399 0.3403 0.0
H807 H 0.21955 0.99752 0.35432 0.0
H808 H 0.23493 0.96809 0.40609 0.0
H809 H 0.21325 0.91433 0.3922 0.0
C810 C 0.24528 0.05519 0.4156 0.0
C811 C 0.26398 0.08164 0.40618 0.0
C812 C 0.23394 0.02461 0.40754 0.0
C813 C 0.24134 0.01982 0.38995 0.0
C814 C 0.26036 0.04642 0.38061 0.0
C815 C 0.27139 0.07703 0.38861 0.0
C816 C 0.20682 0.94898 0.35468 0.0
C817 C 0.20443 0.92493 0.36516 0.0
C818 C 0.21877 0.97973 0.36271 0.0
C819 C 0.22894 0.98719 0.38135 0.0
C820 C 0.22679 0.9631 0.39177 0.0
C821 C 0.21449 0.93229 0.38379 0.0
H822 H 0.46245 0.60406 0.27929 0.0
H823 H 0.5406 0.58975 0.26653 0.0
H824 H 0.50053 0.6567 0.29375 0.0
H825 H 0.57889 0.64229 0.28136 0.0
H826 H 0.63862 0.75055 0.29477 0.0
H827 H 0.60141 0.69854 0.2789 0.0
H828 H 0.53637 0.68004 0.32058 0.0
H829 H 0.57283 0.73196 0.33605 0.0
C830 C 0.48781 0.61212 0.27974 0.0
C831 C 0.49858 0.59278 0.2719 0.0
C832 C 0.50965 0.64225 0.28804 0.0
C833 C 0.54278 0.65365 0.28884 0.0
C834 C 0.55357 0.6344 0.2808 0.0
C835 C 0.53167 0.60429 0.27237 0.0
C836 C 0.61638 0.7353 0.30052 0.0
C837 C 0.60861 0.74546 0.31661 0.0
C838 C 0.59512 0.70547 0.29147 0.0
C839 C 0.56579 0.6852 0.2984 0.0
C840 C 0.55839 0.69529 0.31464 0.0
C841 C 0.57944 0.72506 0.32358 0.0
H842 H 0.36441 0.88401 0.2475 0.0
H843 H 0.41893 0.90462 0.29947 0.0
H844 H 0.31724 0.87275 0.26288 0.0
H845 H 0.37115 0.89031 0.31477 0.0
H846 H 0.28631 0.88862 0.33919 0.0
H847 H 0.33465 0.90398 0.32378 0.0
H848 H 0.27749 0.83555 0.27841 0.0
H849 H 0.22932 0.82188 0.29339 0.0
C850 C 0.36647 0.88618 0.2622 0.0
C851 C 0.39573 0.89511 0.27213 0.0
C852 C 0.33909 0.87908 0.27109 0.0
C853 C 0.33993 0.88015 0.29019 0.0
C854 C 0.36932 0.88946 0.3001 0.0
C855 C 0.3968 0.89714 0.29123 0.0
C856 C 0.2842 0.87686 0.32594 0.0
C857 C 0.25402 0.8541 0.3175 0.0
C858 C 0.31197 0.88554 0.31707 0.0
C859 C 0.31031 0.87117 0.29969 0.0
C860 C 0.27997 0.84787 0.29151 0.0
C861 C 0.25223 0.83972 0.3002 0.0
H862 H 0.04447 0.44161 0.27203 0.0
H863 H 0.13775 0.52339 0.28783 0.0
H864 H 0.0612 0.40795 0.28658 0.0
H865 H 0.15468 0.48987 0.30209 0.0
H866 H 0.16501 0.42663 0.34105 0.0
H867 H 0.1459 0.45915 0.32765 0.0
H868 H 0.09671 0.3873 0.28266 0.0
H869 H 0.11503 0.35439 0.2963 0.0
C870 C 0.06858 0.45231 0.27855 0.0
C871 C 0.08975 0.48509 0.27891 0.0
C872 C 0.0782 0.43308 0.28683 0.0
C873 C 0.10926 0.44624 0.29553 0.0
C874 C 0.1304 0.47905 0.29583 0.0
C875 C 0.12073 0.49826 0.28764 0.0
C876 C 0.15006 0.41773 0.32832 0.0
C877 C 0.14158 0.38793 0.31974 0.0
C878 C 0.13923 0.43644 0.32059 0.0
C879 C 0.11985 0.42587 0.30406 0.0
C880 C 0.11121 0.39596 0.29554 0.0
C881 C 0.12188 0.37717 0.30332 0.0
H882 H 0.39038 0.52781 0.28457 0.0
H883 H 0.39483 0.4456 0.26447 0.0
H884 H 0.34515 0.49431 0.30138 0.0
H885 H 0.34865 0.41203 0.28079 0.0
H886 H 0.24185 0.36377 0.29333 0.0
H887 H 0.2898 0.39675 0.27846 0.0
H888 H 0.33269 0.45857 0.32794 0.0
H889 H 0.28435 0.42515 0.34309 0.0
C890 C 0.38195 0.50265 0.28382 0.0
C891 C 0.39653 0.48951 0.27318 0.0
C892 C 0.35598 0.48349 0.29347 0.0
C893 C 0.34354 0.45064 0.29249 0.0
C894 C 0.35771 0.43733 0.28172 0.0
C895 C 0.38401 0.45655 0.27225 0.0
C896 C 0.26147 0.38435 0.30113 0.0
C897 C 0.25922 0.39196 0.31941 0.0
C898 C 0.28904 0.40309 0.2926 0.0
C899 C 0.31496 0.43017 0.30203 0.0
C900 C 0.31292 0.43785 0.32034 0.0
C901 C 0.28538 0.41871 0.32902 0.0
H902 H 0.53634 0.94117 0.27475 0.0
H903 H 0.46457 0.84185 0.26966 0.0
H904 H 0.57437 0.92926 0.2906 0.0
H905 H 0.50288 0.82979 0.28501 0.0
H906 H 0.59985 0.82711 0.29265 0.0
H907 H 0.5619 0.83889 0.2768 0.0
H908 H 0.57219 0.90221 0.32283 0.0
H909 H 0.60948 0.88981 0.33897 0.0
C910 C 0.5289 0.91681 0.27691 0.0
C911 C 0.49769 0.89238 0.27103 0.0
C912 C 0.5505 0.91003 0.28601 0.0
C913 C 0.54144 0.87864 0.28898 0.0
C914 C 0.5104 0.85415 0.2828 0.0
C915 C 0.48855 0.86102 0.27409 0.0
C916 C 0.59401 0.84354 0.29939 0.0
C917 C 0.6076 0.85755 0.31705 0.0
C918 C 0.57224 0.85015 0.29035 0.0
C919 C 0.56427 0.87146 0.29862 0.0
C920 C 0.57812 0.88578 0.31617 0.0
C921 C 0.59929 0.87859 0.3254 0.0
H922 H 0.10471 0.61163 0.2546 0.0
H923 H 0.07702 0.57128 0.30575 0.0
H924 H 0.11995 0.66367 0.26907 0.0
H925 H 0.09326 0.62379 0.32031 0.0
H926 H 0.16296 0.7304 0.34093 0.0
H927 H 0.14549 0.67704 0.32728 0.0
H928 H 0.09151 0.68973 0.28366 0.0
H929 H 0.10886 0.74298 0.2972 0.0
C930 C 0.10156 0.61377 0.26889 0.0
C931 C 0.08939 0.58722 0.27899 0.0
C932 C 0.11042 0.64361 0.27717 0.0
C933 C 0.10765 0.64764 0.29576 0.0
C934 C 0.09584 0.62128 0.30596 0.0
C935 C 0.08664 0.5913 0.29763 0.0
C936 C 0.14731 0.72177 0.32845 0.0
C937 C 0.13733 0.74089 0.32011 0.0
C938 C 0.13718 0.6912 0.32072 0.0
C939 C 0.11724 0.6794 0.30442 0.0
C940 C 0.10711 0.69842 0.29616 0.0
C941 C 0.11691 0.72881 0.30397 0.0
H942 H 0.8138 0.08529 0.41258 0.0
H943 H 0.8832 0.05455 0.41212 0.0
H944 H 0.77256 0.03341 0.39779 0.0
H945 H 0.8418 0.00244 0.39779 0.0
H946 H 0.74451 0.90455 0.3945 0.0
H947 H 0.78486 0.95663 0.40919 0.0
H948 H 0.76811 0.00156 0.36476 0.0
H949 H 0.72829 0.94946 0.34976 0.0
C950 C 0.82008 0.06734 0.40935 0.0
C951 C 0.8515 0.07369 0.41339 0.0
C952 C 0.79665 0.03786 0.40089 0.0
C953 C 0.80418 0.01415 0.39675 0.0
C954 C 0.83552 0.02041 0.40095 0.0
C955 C 0.85911 0.05011 0.40904 0.0
C956 C 0.74935 0.92555 0.38791 0.0
C957 C 0.73334 0.92305 0.371 0.0
C958 C 0.77248 0.95522 0.39626 0.0
C959 C 0.77942 0.98287 0.38804 0.0
C960 C 0.76298 0.98047 0.37133 0.0
C961 C 0.74037 0.95075 0.36277 0.0
H962 H 0.95836 0.82307 0.40835 0.0
H963 H 0.94865 0.73353 0.42046 0.0
H964 H 0.00506 0.83496 0.39213 0.0
H965 H 0.9953 0.74521 0.404 0.0
H966 H 0.09832 0.79022 0.3884 0.0
H967 H 0.05219 0.77858 0.40499 0.0
H968 H 0.0202 0.8198 0.36474 0.0
H969 H 0.06701 0.83224 0.3483 0.0
C970 C 0.96611 0.8058 0.40746 0.0
C971 C 0.94961 0.77725 0.41565 0.0
C972 C 0.99287 0.81258 0.39807 0.0
C973 C 1.00394 0.79098 0.39656 0.0
C974 C 0.98774 0.76261 0.40502 0.0
C975 C 0.96097 0.75587 0.41448 0.0
C976 C 0.08144 0.79674 0.38299 0.0
C977 C 0.08645 0.81214 0.36692 0.0
C978 C 0.05479 0.78988 0.39251 0.0
C979 C 0.03227 0.79812 0.38625 0.0
C980 C 0.03722 0.81346 0.37014 0.0
C981 C 0.064 0.82044 0.36063 0.0
H982 H 0.28619 0.18229 0.37897 0.0
H983 H 0.24412 0.1912 0.42737 0.0
H984 H 0.26823 0.21463 0.3638 0.0
H985 H 0.22527 0.22237 0.41221 0.0
H986 H 0.22225 0.30241 0.38821 0.0
H987 H 0.24424 0.27275 0.4019 0.0
H988 H 0.22139 0.21435 0.35127 0.0
H989 H 0.20042 0.24527 0.33728 0.0
C990 C 0.27305 0.19115 0.38631 0.0
C991 C 0.26686 0.18465 0.40439 0.0
C992 C 0.26259 0.20947 0.37762 0.0
C993 C 0.24547 0.22131 0.38681 0.0
C994 C 0.23909 0.21439 0.40485 0.0
C995 C 0.24983 0.19647 0.41356 0.0
C996 C 0.22186 0.28322 0.37998 0.0
C997 C 0.20923 0.27586 0.36174 0.0
C998 C 0.23439 0.2661 0.38786 0.0
C999 C 0.23415 0.24079 0.3778 0.0
C1000 C 0.22217 0.23385 0.35938 0.0
C1001 C 0.21 0.25139 0.35138 0.0
H1002 H 0.58725 0.51007 0.71754 0.0
H1003 H 0.64645 0.52292 0.76639 0.0
H1004 H 0.635 0.54237 0.70209 0.0
H1005 H 0.69433 0.55398 0.75086 0.0
H1006 H 0.77334 0.63392 0.72498 0.0
H1007 H 0.72494 0.60276 0.73962 0.0
H1008 H 0.67928 0.54399 0.68926 0.0
H1009 H 0.72777 0.57656 0.67429 0.0
C1010 C 0.61058 0.51973 0.72492 0.0
C1011 C 0.61321 0.5142 0.74318 0.0
C1012 C 0.63799 0.53803 0.71604 0.0
C1013 C 0.66872 0.5509 0.72515 0.0
C1014 C 0.67118 0.54513 0.74345 0.0
C1015 C 0.64375 0.52724 0.75239 0.0
C1016 C 0.75301 0.61432 0.71697 0.0
C1017 C 0.75448 0.6076 0.69845 0.0
C1018 C 0.7252 0.59624 0.72545 0.0
C1019 C 0.69809 0.57051 0.71576 0.0
C1020 C 0.69949 0.56384 0.69716 0.0
C1021 C 0.72733 0.58235 0.68856 0.0
H1022 H 0.52148 0.09588 0.72057 0.0
H1023 H 0.49816 0.11937 0.77261 0.0
H1024 H 0.48505 0.10924 0.70534 0.0
H1025 H 0.45903 0.12927 0.75739 0.0
H1026 H 0.4142 0.17648 0.72641 0.0
H1027 H 0.45196 0.16431 0.74152 0.0
H1028 H 0.4333 0.09485 0.69681 0.0
H1029 H 0.39734 0.10895 0.68124 0.0
C1030 C 0.50856 0.10378 0.72884 0.0
C1031 C 0.5133 0.10679 0.74794 0.0
C1032 C 0.48698 0.11087 0.72003 0.0
C1033 C 0.46877 0.12045 0.73 0.0
C1034 C 0.47293 0.12268 0.7491 0.0
C1035 C 0.49507 0.11631 0.75792 0.0
C1036 C 0.4183 0.15868 0.71983 0.0
C1037 C 0.4029 0.14374 0.70263 0.0
C1038 C 0.43981 0.15141 0.72857 0.0
C1039 C 0.44589 0.12837 0.72055 0.0
C1040 C 0.43002 0.1132 0.70336 0.0
C1041 C 0.40914 0.12109 0.69442 0.0
H1042 H 0.96542 0.41396 0.74676 0.0
H1043 H 0.87092 0.39801 0.73143 0.0
H1044 H 0.94995 0.36167 0.73216 0.0
H1045 H 0.85514 0.34565 0.71727 0.0
H1046 H 0.84617 0.26774 0.67782 0.0
H1047 H 0.86446 0.32091 0.69153 0.0
H1048 H 0.91611 0.30606 0.73562 0.0
H1049 H 0.8986 0.25308 0.72154 0.0
C1050 C 0.94131 0.39915 0.74034 0.0
C1051 C 0.91941 0.41001 0.74008 0.0
C1052 C 0.9324 0.36922 0.73205 0.0
C1053 C 0.90135 0.34954 0.72349 0.0
C1054 C 0.87945 0.36045 0.72339 0.0
C1055 C 0.88843 0.3904 0.73153 0.0
C1056 C 0.86146 0.27581 0.69043 0.0
C1057 C 0.87087 0.2562 0.69863 0.0
C1058 C 0.87184 0.30626 0.69833 0.0
C1059 C 0.89158 0.31767 0.71474 0.0
C1060 C 0.90126 0.29814 0.72286 0.0
C1061 C 0.89109 0.26773 0.71485 0.0
H1062 H 0.1269 0.93695 0.61496 0.0
H1063 H 0.2029 0.92587 0.59403 0.0
H1064 H 0.16664 0.98843 0.63024 0.0
H1065 H 0.24238 0.97795 0.60877 0.0
H1066 H 0.29677 0.08794 0.6226 0.0
H1067 H 0.25746 0.0366 0.6067 0.0
H1068 H 0.21161 0.00693 0.6562 0.0
H1069 H 0.25086 0.05796 0.67217 0.0
C1070 C 0.15202 0.94536 0.61365 0.0
C1071 C 0.16165 0.92711 0.60332 0.0
C1072 C 0.17472 0.97491 0.62233 0.0
C1073 C 0.2075 0.98704 0.62066 0.0
C1074 C 0.2172 0.96921 0.6101 0.0
C1075 C 0.19454 0.93945 0.60162 0.0
C1076 C 0.27834 0.07043 0.63009 0.0
C1077 C 0.27692 0.07696 0.64864 0.0
C1078 C 0.25597 0.04107 0.62101 0.0
C1079 C 0.23152 0.01797 0.63024 0.0
C1080 C 0.23008 0.0245 0.64876 0.0
C1081 C 0.25269 0.05362 0.6579 0.0
H1082 H 0.08736 0.23821 0.63037 0.0
H1083 H 0.02828 0.20549 0.57939 0.0
H1084 H 0.04036 0.22548 0.64654 0.0
H1085 H 0.98132 0.1933 0.59562 0.0
H1086 H 0.91224 0.20843 0.62941 0.0
H1087 H 0.95907 0.22042 0.61339 0.0
H1088 H 0.98993 0.17896 0.65402 0.0
H1089 H 0.94287 0.16704 0.67028 0.0
C1090 C 0.06434 0.22813 0.62258 0.0
C1091 C 0.06173 0.22276 0.60351 0.0
C1092 C 0.03736 0.22082 0.6319 0.0
C1093 C 0.00701 0.2082 0.62242 0.0
C1094 C 1.00439 0.20327 0.60335 0.0
C1095 C 0.03138 0.21039 0.59402 0.0
C1096 C 0.92899 0.20189 0.63504 0.0
C1097 C 0.92376 0.18685 0.65125 0.0
C1098 C 0.95577 0.20858 0.62572 0.0
C1099 C 0.97829 0.20064 0.63237 0.0
C1100 C 0.97319 0.18567 0.6486 0.0
C1101 C 0.94615 0.1787 0.65789 0.0
H1102 H 0.75945 0.8031 0.59323 0.0
H1103 H 0.71983 0.81154 0.64279 0.0
H1104 H 0.77963 0.77239 0.60763 0.0
H1105 H 0.73953 0.77998 0.65725 0.0
H1106 H 0.81261 0.75343 0.68152 0.0
H1107 H 0.78909 0.78281 0.66831 0.0
H1108 H 0.76135 0.72177 0.61836 0.0
H1109 H 0.78548 0.69338 0.63131 0.0
C1110 C 0.7545 0.79779 0.60712 0.0
C1111 C 0.73782 0.80942 0.61684 0.0
C1112 C 0.76608 0.78019 0.6154 0.0
C1113 C 0.76102 0.77354 0.63358 0.0
C1114 C 0.74412 0.78499 0.6433 0.0
C1115 C 0.7327 0.80287 0.63501 0.0
C1116 C 0.80142 0.74639 0.66774 0.0
C1117 C 0.80145 0.7216 0.6573 0.0
C1118 C 0.78779 0.76304 0.66021 0.0
C1119 C 0.7737 0.75488 0.64219 0.0
C1120 C 0.77276 0.72926 0.63208 0.0
C1121 C 0.78662 0.71297 0.63951 0.0
H1122 H 0.08621 0.83543 0.63173 0.0
H1123 H 0.02591 0.80636 0.58128 0.0
H1124 H 0.03939 0.80373 0.64795 0.0
H1125 H 0.97911 0.77428 0.59752 0.0
H1126 H 0.91048 0.69384 0.62986 0.0
H1127 H 0.95712 0.72636 0.61396 0.0
H1128 H 0.98966 0.80257 0.65648 0.0
H1129 H 0.94279 0.76972 0.67267 0.0
C1130 C 0.06294 0.82241 0.6241 0.0
C1131 C 0.05981 0.82356 0.60518 0.0
C1132 C 0.03611 0.80428 0.63342 0.0
C1133 C 0.00553 0.78664 0.62405 0.0
C1134 C 1.00242 0.7874 0.60511 0.0
C1135 C 0.02924 0.80567 0.59579 0.0
C1136 C 0.92755 0.71749 0.63593 0.0
C1137 C 0.92294 0.72911 0.65264 0.0
C1138 C 0.9542 0.73622 0.62669 0.0
C1139 C 0.97706 0.76704 0.63393 0.0
C1140 C 0.97257 0.77877 0.65064 0.0
C1141 C 0.94567 0.76004 0.65987 0.0
H1142 H 0.12783 0.17353 0.60855 0.0
H1143 H 0.20538 0.26381 0.59619 0.0
H1144 H 0.16617 0.16201 0.62372 0.0
H1145 H 0.24388 0.25264 0.61168 0.0
H1146 H 0.30603 0.20954 0.62708 0.0
H1147 H 0.26826 0.22036 0.61044 0.0
H1148 H 0.20112 0.17807 0.65077 0.0
H1149 H 0.23833 0.16649 0.66705 0.0
C1150 C 0.1531 0.19101 0.60918 0.0
C1151 C 0.16354 0.21965 0.60125 0.0
C1152 C 0.17513 0.18447 0.61793 0.0
C1153 C 0.2082 0.20649 0.6191 0.0
C1154 C 0.21867 0.23494 0.61088 0.0
C1155 C 0.1966 0.2414 0.60201 0.0
C1156 C 0.28322 0.20259 0.63241 0.0
C1157 C 0.27524 0.18706 0.6484 0.0
C1158 C 0.26158 0.20892 0.62289 0.0
C1159 C 0.23149 0.19999 0.62918 0.0
C1160 C 0.22374 0.18474 0.64528 0.0
C1161 C 0.24524 0.17828 0.65472 0.0
H1162 H 0.70093 0.91651 0.60612 0.0
H1163 H 0.78531 0.91861 0.63023 0.0
H1164 H 0.72151 0.97081 0.61925 0.0
H1165 H 0.805 0.97223 0.64383 0.0
H1166 H 0.81067 0.05565 0.67965 0.0
H1167 H 0.78804 0.00057 0.66738 0.0
H1168 H 0.77099 0.02501 0.61446 0.0
H1169 H 0.79377 0.08015 0.6266 0.0
C1170 C 0.72376 0.92845 0.61423 0.0
C1171 C 0.74142 0.91313 0.61713 0.0
C1172 C 0.73545 0.95945 0.62177 0.0
C1173 C 0.76477 0.97555 0.63253 0.0
C1174 C 0.78212 0.96013 0.63575 0.0
C1175 C 0.77069 0.92934 0.62803 0.0
C1176 C 0.80207 0.04927 0.6654 0.0
C1177 C 0.80406 0.0722 0.65407 0.0
C1178 C 0.78923 0.01782 0.6584 0.0
C1179 C 0.77775 0.00867 0.64002 0.0
C1180 C 0.77943 0.03149 0.62872 0.0
C1181 C 0.79268 0.06303 0.63565 0.0
H1182 H 0.51199 0.42682 0.7163 0.0
H1183 H 0.50192 0.38804 0.76827 0.0
H1184 H 0.47409 0.37407 0.70172 0.0
H1185 H 0.46342 0.33554 0.75369 0.0
H1186 H 0.37095 0.25372 0.72274 0.0
H1187 H 0.40789 0.30691 0.73723 0.0
H1188 H 0.47275 0.32217 0.69591 0.0
H1189 H 0.43594 0.26912 0.68137 0.0
C1190 C 0.50182 0.40708 0.72461 0.0
C1191 C 0.51005 0.41172 0.74347 0.0
C1192 C 0.48005 0.3769 0.71626 0.0
C1193 C 0.46581 0.35075 0.72658 0.0
C1194 C 0.47372 0.35537 0.74544 0.0
C1195 C 0.49571 0.38548 0.75378 0.0
C1196 C 0.39303 0.26846 0.71671 0.0
C1197 C 0.40052 0.2572 0.7009 0.0
C1198 C 0.41424 0.29882 0.72507 0.0
C1199 C 0.44315 0.31864 0.71768 0.0
C1200 C 0.45049 0.3075 0.7018 0.0
C1201 C 0.42949 0.27705 0.69355 0.0
H1202 H 0.62216 0.06998 0.758 0.0
H1203 H 0.62459 0.15262 0.73823 0.0
H1204 H 0.66954 0.0815 0.74231 0.0
H1205 H 0.67092 0.16308 0.72199 0.0
H1206 H 0.72937 0.14723 0.67888 0.0
H1207 H 0.68254 0.13567 0.69525 0.0
H1208 H 0.72877 0.12518 0.74358 0.0
H1209 H 0.77565 0.13702 0.72738 0.0
C1210 C 0.63281 0.0907 0.75046 0.0
C1211 C 0.61914 0.11014 0.74933 0.0
C1212 C 0.65988 0.09717 0.74138 0.0
C1213 C 0.67372 0.12299 0.73075 0.0
C1214 C 0.66042 0.14266 0.72979 0.0
C1215 C 0.63372 0.13652 0.73908 0.0
C1216 C 0.72952 0.14239 0.69298 0.0
C1217 C 0.75632 0.14314 0.7018 0.0
C1218 C 0.70277 0.13593 0.70238 0.0
C1219 C 0.70199 0.12953 0.72071 0.0
C1220 C 0.72856 0.1298 0.72944 0.0
C1221 C 0.75549 0.13676 0.72015 0.0
H1222 H 0.87361 0.47097 0.72467 0.0
H1223 H 0.95593 0.55538 0.75144 0.0
H1224 H 0.85879 0.50338 0.70795 0.0
H1225 H 0.93891 0.58781 0.73631 0.0
H1226 H 0.91967 0.64147 0.69524 0.0
H1227 H 0.93609 0.60749 0.70935 0.0
H1228 H 0.83644 0.53481 0.70957 0.0
H1229 H 0.82056 0.56813 0.69414 0.0
C1230 C 0.88862 0.49646 0.72706 0.0
C1231 C 0.91629 0.51042 0.73933 0.0
C1232 C 0.87966 0.51516 0.71768 0.0
C1233 C 0.89754 0.5484 0.72068 0.0
C1234 C 0.92483 0.56236 0.73326 0.0
C1235 C 0.93429 0.54365 0.74229 0.0
C1236 C 0.90143 0.618 0.69811 0.0
C1237 C 0.86894 0.60722 0.69356 0.0
C1238 C 0.91075 0.59861 0.70641 0.0
C1239 C 0.88767 0.56836 0.71087 0.0
C1240 C 0.85505 0.55761 0.70609 0.0
C1241 C 0.84583 0.5767 0.6973 0.0
H1242 H 0.47592 0.89996 0.20769 0.0
H1243 H 0.45339 0.97117 0.22602 0.0
H1244 H 0.48658 0.92127 0.17827 0.0
H1245 H 0.46485 0.99321 0.19664 0.0
H1246 H 0.45972 0.00645 0.13576 0.0
H1247 H 0.44713 0.98481 0.16516 0.0
H1248 H 0.52461 0.965 0.16416 0.0
H1249 H 0.53655 0.9859 0.13467 0.0
C1250 C 0.47353 0.92041 0.20547 0.0
C1251 C 0.46402 0.93399 0.21925 0.0
C1252 C 0.47977 0.93275 0.18859 0.0
C1253 C 0.47694 0.95925 0.18502 0.0
C1254 C 0.46697 0.97259 0.19875 0.0
C1255 C 0.46046 0.96003 0.21564 0.0
C1256 C 0.47414 0.99761 0.1419 0.0
C1257 C 0.49904 0.99776 0.13282 0.0
C1258 C 0.46699 0.98525 0.1588 0.0
C1259 C 0.48471 0.97293 0.16711 0.0
C1260 C 0.50991 0.97356 0.15808 0.0
C1261 C 0.51687 0.98566 0.14115 0.0
H1262 H 0.0794 0.55553 0.21603 0.0
H1263 H 0.00657 0.46185 0.22719 0.0
H1264 H 0.05834 0.54399 0.18425 0.0
H1265 H 0.98549 0.45012 0.19512 0.0
H1266 H 0.9385 0.46301 0.14123 0.0
H1267 H 0.95823 0.47017 0.17318 0.0
H1268 H 0.05461 0.50743 0.15778 0.0
H1269 H 0.03501 0.49969 0.12593 0.0
C1270 C 0.05878 0.53249 0.21166 0.0
C1271 C 0.04445 0.50962 0.22404 0.0
C1272 C 0.04693 0.52579 0.19345 0.0
C1273 C 0.02037 0.49615 0.18725 0.0
C1274 C 0.00591 0.47322 0.19962 0.0
C1275 C 0.01804 0.47983 0.21787 0.0
C1276 C 0.96383 0.47231 0.14464 0.0
C1277 C 0.98524 0.48113 0.13104 0.0
C1278 C 0.97508 0.47639 0.16292 0.0
C1279 C 0.00794 0.48955 0.16791 0.0
C1280 C 0.02921 0.4977 0.15431 0.0
C1281 C 0.01798 0.49342 0.13608 0.0
H1282 H 0.51372 0.52883 0.22636 0.0
H1283 H 0.41414 0.49014 0.20769 0.0
H1284 H 0.5251 0.51912 0.1959 0.0
H1285 H 0.42521 0.47883 0.17717 0.0
H1286 H 0.46643 0.50374 0.12155 0.0
H1287 H 0.45156 0.50743 0.15213 0.0
H1288 H 0.51844 0.48026 0.17301 0.0
H1289 H 0.53475 0.47854 0.14265 0.0
C1290 C 0.49414 0.51791 0.21575 0.0
C1291 C 0.46309 0.51062 0.21943 0.0
C1292 C 0.5006 0.51196 0.19828 0.0
C1293 C 0.47612 0.49827 0.18398 0.0
C1294 C 0.44475 0.48984 0.18779 0.0
C1295 C 0.4383 0.49593 0.20533 0.0
C1296 C 0.47823 0.49888 0.13268 0.0
C1297 C 0.50207 0.49116 0.12958 0.0
C1298 C 0.46929 0.50048 0.15022 0.0
C1299 C 0.48383 0.49423 0.16512 0.0
C1300 C 0.50705 0.4857 0.16193 0.0
C1301 C 0.51614 0.48433 0.14444 0.0
H1302 H 0.93465 0.50658 0.80408 0.0
H1303 H 0.99891 0.47303 0.79017 0.0
H1304 H 0.95646 0.51707 0.83577 0.0
H1305 H 0.02004 0.48282 0.82191 0.0
H1306 H 0.01133 0.46124 0.88232 0.0
H1307 H 0.99499 0.45693 0.85007 0.0
H1308 H 0.00855 0.55124 0.85622 0.0
H1309 H 0.02482 0.55551 0.88863 0.0
C1310 C 0.95376 0.50193 0.8077 0.0
C1311 C 0.96487 0.48872 0.79462 0.0
C1312 C 0.96617 0.50788 0.82585 0.0
C1313 C 0.98971 0.50049 0.83126 0.0
C1314 C 1.00154 0.48827 0.81812 0.0
C1315 C 0.98938 0.4826 0.79998 0.0
C1316 C 0.01082 0.48103 0.87677 0.0
C1317 C 0.01924 0.50867 0.88791 0.0
C1318 C 1.00175 0.47868 0.85832 0.0
C1319 C 1.00062 0.5038 0.85069 0.0
C1320 C 0.00913 0.53152 0.86181 0.0
C1321 C 0.01861 0.53402 0.88026 0.0
H1322 H 0.4957 0.47552 0.78987 0.0
H1323 H 0.59573 0.51507 0.8078 0.0
H1324 H 0.4853 0.48696 0.82027 0.0
H1325 H 0.58568 0.52826 0.83812 0.0
H1326 H 0.54739 0.50797 0.89446 0.0
H1327 H 0.56081 0.50202 0.86384 0.0
H1328 H 0.49244 0.52698 0.8425 0.0
H1329 H 0.47756 0.53095 0.87302 0.0
C1330 C 0.51557 0.48689 0.80029 0.0
C1331 C 0.54649 0.49398 0.79641 0.0
C1332 C 0.50968 0.49389 0.81771 0.0
C1333 C 0.53461 0.50848 0.83175 0.0
C1334 C 0.56579 0.51658 0.82773 0.0
C1335 C 0.57165 0.50939 0.81027 0.0
C1336 C 0.53497 0.51191 0.88324 0.0
C1337 C 0.51108 0.51958 0.88627 0.0
C1338 C 0.54306 0.50899 0.86565 0.0
C1339 C 0.52766 0.51389 0.85061 0.0
C1340 C 0.50447 0.52252 0.8537 0.0
C1341 C 0.49621 0.52521 0.87127 0.0
H1342 H 0.53366 0.10122 0.81226 0.0
H1343 H 0.56397 0.03515 0.7956 0.0
H1344 H 0.5218 0.079 0.84152 0.0
H1345 H 0.55243 0.01309 0.82504 0.0
H1346 H 0.48968 0.95847 0.87069 0.0
H1347 H 0.50437 0.98141 0.84183 0.0
H1348 H 0.54942 0.07534 0.86965 0.0
H1349 H 0.53555 0.05258 0.8986 0.0
C1350 C 0.53782 0.08195 0.81486 0.0
C1351 C 0.54963 0.06987 0.80155 0.0
C1352 C 0.53128 0.06939 0.8317 0.0
C1353 C 0.53609 0.04421 0.83564 0.0
C1354 C 0.54817 0.03228 0.82239 0.0
C1355 C 0.55505 0.04509 0.80558 0.0
C1356 C 0.50311 0.98403 0.87076 0.0
C1357 C 0.5113 0.00357 0.88712 0.0
C1358 C 0.51149 0.99718 0.85415 0.0
C1359 C 0.52805 0.03022 0.85339 0.0
C1360 C 0.53629 0.04979 0.86971 0.0
C1361 C 0.52817 0.03667 0.88633 0.0
H1362 H 0.13882 0.22588 0.5375 0.0
H1363 H 0.11742 0.29745 0.55673 0.0
H1364 H 0.14986 0.24802 0.50831 0.0
H1365 H 0.1293 0.32035 0.5276 0.0
H1366 H 0.12668 0.33722 0.46721 0.0
H1367 H 0.11279 0.31408 0.49614 0.0
H1368 H 0.18855 0.29183 0.49468 0.0
H1369 H 0.20175 0.3142 0.46565 0.0
C1370 C 0.13668 0.24653 0.53551 0.0
C1371 C 0.12744 0.26001 0.54951 0.0
C1372 C 0.14317 0.25938 0.51876 0.0
C1373 C 0.14091 0.28632 0.51552 0.0
C1374 C 0.13102 0.29944 0.52944 0.0
C1375 C 0.12424 0.28636 0.54619 0.0
C1376 C 0.14045 0.32752 0.47314 0.0
C1377 C 0.16523 0.32744 0.46404 0.0
C1378 C 0.13253 0.31427 0.48978 0.0
C1379 C 0.14936 0.3008 0.49784 0.0
C1380 C 0.17447 0.30122 0.48879 0.0
C1381 C 0.18217 0.31419 0.47212 0.0
H1382 H 0.66472 0.8563 0.56407 0.0
H1383 H 0.72276 0.81376 0.55405 0.0
H1384 H 0.64747 0.8479 0.53179 0.0
H1385 H 0.70397 0.80358 0.52201 0.0
H1386 H 0.69715 0.82767 0.46398 0.0
H1387 H 0.71195 0.83308 0.49636 0.0
H1388 H 0.61577 0.8087 0.5073 0.0
H1389 H 0.60149 0.80519 0.4749 0.0
C1390 C 0.67359 0.84492 0.55501 0.0
C1391 C 0.69524 0.83585 0.56166 0.0
C1392 C 0.66337 0.83972 0.53652 0.0
C1393 C 0.6744 0.82514 0.52427 0.0
C1394 C 0.69537 0.8153 0.53101 0.0
C1395 C 0.70577 0.82072 0.54946 0.0
C1396 C 0.67922 0.82378 0.47328 0.0
C1397 C 0.64819 0.81622 0.46682 0.0
C1398 C 0.68758 0.82641 0.49187 0.0
C1399 C 0.66504 0.82127 0.50447 0.0
C1400 C 0.63384 0.81319 0.498 0.0
C1401 C 0.62553 0.81077 0.47939 0.0
H1402 H 0.07567 0.82041 0.53997 0.0
H1403 H 0.17631 0.86423 0.5577 0.0
H1404 H 0.08619 0.80678 0.50984 0.0
H1405 H 0.18708 0.8523 0.52753 0.0
H1406 H 0.19721 0.80879 0.47563 0.0
H1407 H 0.18142 0.81214 0.50595 0.0
H1408 H 0.11026 0.83278 0.4838 0.0
H1409 H 0.12462 0.82736 0.45335 0.0
C1410 C 0.09998 0.82692 0.53749 0.0
C1411 C 0.12518 0.84369 0.5512 0.0
C1412 C 0.10609 0.81946 0.52016 0.0
C1413 C 0.13754 0.82861 0.51616 0.0
C1414 C 0.16252 0.84451 0.53008 0.0
C1415 C 0.15639 0.85179 0.54737 0.0
C1416 C 0.17774 0.8134 0.47715 0.0
C1417 C 0.1624 0.81804 0.46198 0.0
C1418 C 0.16895 0.81574 0.49461 0.0
C1419 C 0.14476 0.82307 0.49742 0.0
C1420 C 0.12881 0.82685 0.4822 0.0
C1421 C 0.13742 0.82425 0.46472 0.0
H1422 H 0.6764 0.81093 0.12462 0.0
H1423 H 0.62131 0.856 0.13661 0.0
H1424 H 0.69535 0.81897 0.15669 0.0
H1425 H 0.6409 0.86463 0.16857 0.0
H1426 H 0.70551 0.89827 0.22215 0.0
H1427 H 0.69139 0.89418 0.18955 0.0
H1428 H 0.66901 0.79673 0.18503 0.0
H1429 H 0.6835 0.80093 0.21758 0.0
C1430 C 0.66844 0.82267 0.13406 0.0
C1431 C 0.64715 0.83263 0.12803 0.0
C1432 C 0.67932 0.82728 0.15242 0.0
C1433 C 0.66942 0.84223 0.16513 0.0
C1434 C 0.64915 0.85329 0.15904 0.0
C1435 C 0.63804 0.84845 0.14071 0.0
C1436 C 0.69787 0.87608 0.21414 0.0
C1437 C 0.69562 0.84991 0.22238 0.0
C1438 C 0.68957 0.87369 0.19554 0.0
C1439 C 0.67917 0.84517 0.18477 0.0
C1440 C 0.67728 0.81911 0.19297 0.0
C1441 C 0.68526 0.82141 0.21161 0.0
H1442 H 0.2637 0.83523 0.14359 0.0
H1443 H 0.16597 0.80122 0.12269 0.0
H1444 H 0.25097 0.84606 0.17385 0.0
H1445 H 0.15328 0.8115 0.15278 0.0
H1446 H 0.13328 0.79202 0.21196 0.0
H1447 H 0.14903 0.78636 0.18183 0.0
H1448 H 0.23288 0.87966 0.19159 0.0
H1449 H 0.2172 0.88524 0.22194 0.0
C1450 C 0.23969 0.83053 0.14537 0.0
C1451 C 0.21574 0.81691 0.13078 0.0
C1452 C 0.23239 0.83664 0.1627 0.0
C1453 C 0.20098 0.82912 0.16574 0.0
C1454 C 0.1775 0.81687 0.15096 0.0
C1455 C 0.1848 0.81099 0.13372 0.0
C1456 C 0.15515 0.81126 0.20773 0.0
C1457 C 0.17394 0.83909 0.2193 0.0
C1458 C 0.16405 0.80814 0.19041 0.0
C1459 C 0.19211 0.83266 0.1843 0.0
C1460 C 0.21119 0.86035 0.19595 0.0
C1461 C 0.20208 0.86363 0.21324 0.0
H1462 H 0.22489 0.36218 0.12695 0.0
H1463 H 0.20292 0.43371 0.14545 0.0
H1464 H 0.21262 0.33958 0.1561 0.0
H1465 H 0.19142 0.41177 0.17471 0.0
H1466 H 0.13969 0.34546 0.21771 0.0
H1467 H 0.15299 0.36805 0.18869 0.0
H1468 H 0.22938 0.34669 0.18747 0.0
H1469 H 0.21547 0.32344 0.21632 0.0
C1470 C 0.21787 0.37335 0.13734 0.0
C1471 C 0.21472 0.39965 0.13381 0.0
C1472 C 0.21086 0.36042 0.15411 0.0
C1473 C 0.20076 0.37362 0.16786 0.0
C1474 C 0.19835 0.4004 0.1644 0.0
C1475 C 0.2051 0.41312 0.14761 0.0
C1476 C 0.15942 0.34572 0.21128 0.0
C1477 C 0.17646 0.33257 0.21937 0.0
C1478 C 0.16717 0.35881 0.19463 0.0
C1479 C 0.19241 0.3594 0.18562 0.0
C1480 C 0.20947 0.34626 0.19376 0.0
C1481 C 0.20153 0.33294 0.21036 0.0
H1482 H 0.75117 0.57619 0.87314 0.0
H1483 H 0.85139 0.63041 0.8926 0.0
H1484 H 0.76367 0.59997 0.84437 0.0
H1485 H 0.86409 0.65273 0.86359 0.0
H1486 H 0.87541 0.70985 0.81562 0.0
H1487 H 0.86065 0.68854 0.84479 0.0
H1488 H 0.78773 0.59885 0.81732 0.0
H1489 H 0.80124 0.62076 0.78818 0.0
C1490 C 0.77586 0.59327 0.87135 0.0
C1491 C 0.80023 0.60121 0.88527 0.0
C1492 C 0.78312 0.60661 0.85471 0.0
C1493 C 0.81497 0.62825 0.85149 0.0
C1494 C 0.83924 0.63648 0.86553 0.0
C1495 C 0.83198 0.62328 0.88216 0.0
C1496 C 0.8559 0.68572 0.81576 0.0
C1497 C 0.83961 0.66712 0.79941 0.0
C1498 C 0.84769 0.6733 0.83256 0.0
C1499 C 0.82303 0.64182 0.83355 0.0
C1500 C 0.8066 0.62327 0.8172 0.0
C1501 C 0.81471 0.63575 0.8004 0.0
H1502 H 0.42033 0.22727 0.88337 0.0
H1503 H 0.34211 0.13641 0.89446 0.0
H1504 H 0.39925 0.21734 0.85169 0.0
H1505 H 0.32041 0.12656 0.86267 0.0
H1506 H 0.31029 0.10944 0.79999 0.0
H1507 H 0.33038 0.11668 0.83184 0.0
H1508 H 0.35464 0.21475 0.83436 0.0
H1509 H 0.3351 0.20757 0.80251 0.0
C1510 C 0.39848 0.20521 0.87899 0.0
C1511 C 0.38262 0.18273 0.89135 0.0
C1512 C 0.38632 0.19956 0.86088 0.0
C1513 C 0.35788 0.17137 0.85471 0.0
C1514 C 0.34246 0.14845 0.86698 0.0
C1515 C 0.35481 0.15405 0.88515 0.0
C1516 C 0.31963 0.13243 0.80745 0.0
C1517 C 0.32132 0.15801 0.79879 0.0
C1518 C 0.33111 0.13657 0.82568 0.0
C1519 C 0.34436 0.16636 0.83559 0.0
C1520 C 0.34524 0.19168 0.827 0.0
C1521 C 0.33397 0.18758 0.80878 0.0
H1522 H 0.74523 0.14576 0.87479 0.0
H1523 H 0.84505 0.18619 0.89345 0.0
H1524 H 0.75642 0.13408 0.8444 0.0
H1525 H 0.85656 0.17616 0.86308 0.0
H1526 H 0.86747 0.13688 0.80973 0.0
H1527 H 0.85111 0.13814 0.84011 0.0
H1528 H 0.78186 0.16229 0.81924 0.0
H1529 H 0.79679 0.15899 0.78865 0.0
C1530 C 0.76947 0.15181 0.87247 0.0
C1531 C 0.79428 0.16719 0.88653 0.0
C1532 C 0.776 0.14552 0.85498 0.0
C1533 C 0.80749 0.15445 0.85115 0.0
C1534 C 0.83198 0.16863 0.86545 0.0
C1535 C 0.82544 0.17476 0.88288 0.0
C1536 C 0.84833 0.14187 0.81151 0.0
C1537 C 0.83363 0.148 0.79664 0.0
C1538 C 0.83919 0.143 0.82904 0.0
C1539 C 0.81529 0.15056 0.83225 0.0
C1540 C 0.80013 0.15607 0.81733 0.0
C1541 C 0.8091 0.15471 0.79977 0.0
H1542 H 0.34143 0.14094 0.45808 0.0
H1543 H 0.28365 0.18384 0.46788 0.0
H1544 H 0.35974 0.15073 0.49021 0.0
H1545 H 0.30358 0.1955 0.49978 0.0
H1546 H 0.31176 0.17283 0.55816 0.0
H1547 H 0.29641 0.16731 0.52585 0.0
H1548 H 0.39189 0.1901 0.51428 0.0
H1549 H 0.40665 0.19361 0.54661 0.0
C1550 C 0.33284 0.15271 0.46706 0.0
C1551 C 0.31086 0.16136 0.46039 0.0
C1552 C 0.3437 0.15873 0.48547 0.0
C1553 C 0.33305 0.17381 0.49764 0.0
C1554 C 0.31188 0.18339 0.49086 0.0
C1555 C 0.30081 0.17711 0.47248 0.0
C1556 C 0.32942 0.17636 0.54873 0.0
C1557 C 0.36036 0.18337 0.55501 0.0
C1558 C 0.32075 0.17369 0.53018 0.0
C1559 C 0.3429 0.17826 0.51742 0.0
C1560 C 0.37409 0.186 0.52371 0.0
C1561 C 0.38268 0.18843 0.54228 0.0
H1562 H 0.84037 0.14173 0.45783 0.0
H1563 H 0.93791 0.17386 0.47823 0.0
H1564 H 0.82873 0.1534 0.48782 0.0
H1565 H 0.92676 0.18731 0.50822 0.0
H1566 H 0.88235 0.16521 0.56307 0.0
H1567 H 0.89823 0.16051 0.53294 0.0
H1568 H 0.83669 0.19293 0.51052 0.0
H1569 H 0.81922 0.19563 0.54045 0.0
C1570 C 0.85947 0.15162 0.46871 0.0
C1571 C 0.88997 0.15643 0.46566 0.0
C1572 C 0.8529 0.15875 0.48591 0.0
C1573 C 0.87674 0.17121 0.50056 0.0
C1574 C 0.90766 0.17727 0.49735 0.0
C1575 C 0.9142 0.16995 0.48009 0.0
C1576 C 0.87194 0.17106 0.5517 0.0
C1577 C 0.84913 0.1804 0.55424 0.0
C1578 C 0.88149 0.16888 0.53442 0.0
C1579 C 0.86868 0.1762 0.5192 0.0
C1580 C 0.8467 0.18659 0.52184 0.0
C1581 C 0.83696 0.18853 0.5391 0.0
H1582 H 0.82883 0.70482 0.46051 0.0
H1583 H 0.92897 0.76175 0.47979 0.0
H1584 H 0.81701 0.68254 0.48964 0.0
H1585 H 0.91709 0.73904 0.50898 0.0
H1586 H 0.88584 0.66776 0.55308 0.0
H1587 H 0.89897 0.68915 0.52357 0.0
H1588 H 0.81554 0.6997 0.52097 0.0
H1589 H 0.80213 0.6778 0.55018 0.0
C1590 C 0.84836 0.71278 0.47099 0.0
C1591 C 0.87985 0.73539 0.46776 0.0
C1592 C 0.84155 0.69993 0.48774 0.0
C1593 C 0.86602 0.70913 0.50177 0.0
C1594 C 0.89766 0.73119 0.49845 0.0
C1595 C 0.90449 0.74419 0.48167 0.0
C1596 C 0.87018 0.67443 0.54613 0.0
C1597 C 0.8429 0.671 0.55403 0.0
C1598 C 0.87788 0.68699 0.52929 0.0
C1599 C 0.8583 0.69613 0.51983 0.0
C1600 C 0.831 0.69262 0.52774 0.0
C1601 C 0.82346 0.68033 0.5446 0.0
loop_
_geom_bond_atom_site_label_1
_geom_bond_atom_site_label_2
_geom_bond_distance
_geom_bond_site_symmetry_2
_ccdc_geom_bond_type
H0 C3 0.931 . S
H1 C6 0.928 . S
H2 C8 0.930 . S
C3 H0 0.931 . S
C3 C4 1.413 . S
C3 C5 1.360 . S
C4 C3 1.413 . S
C4 C8 1.429 . S
C5 C3 1.360 . S
C5 C6 1.372 . S
C6 H1 0.928 . S
C6 C5 1.372 . S
C6 C7 1.404 . S
C7 C6 1.404 . S
C7 C8 1.391 . S
C8 H2 0.930 . S
C8 C4 1.429 . S
C8 C7 1.391 . S
H9 C12 0.931 . S
H10 C15 0.928 . S
H11 C17 0.930 . S
C12 H9 0.931 . S
C12 C13 1.413 . S
C12 C14 1.360 . S
C13 C12 1.413 . S
C13 C17 1.429 . S
C14 C12 1.360 . S
C14 C15 1.372 . S
C15 H10 0.928 . S
C15 C14 1.372 . S
C15 C16 1.404 . S
C16 C15 1.404 . S
C16 C17 1.391 . S
C17 H11 0.930 . S
C17 C13 1.429 . S
C17 C16 1.391 . S
H18 C21 0.931 . S
H19 C24 0.928 . S
H20 C26 0.930 . S
C21 H18 0.931 . S
C21 C22 1.413 . S
C21 C23 1.360 . S
C22 C21 1.413 . S
C22 C26 1.429 . S
C23 C21 1.360 . S
C23 C24 1.372 . S
C24 H19 0.928 . S
C24 C23 1.372 . S
C24 C25 1.404 . S
C25 C24 1.404 . S
C25 C26 1.391 . S
C26 H20 0.930 . S
C26 C22 1.429 . S
C26 C25 1.391 . S
H27 C30 0.931 . S
H28 C33 0.928 . S
H29 C35 0.930 . S
C30 H27 0.931 . S
C30 C31 1.413 . S
C30 C32 1.360 . S
C31 C30 1.413 . S
C31 C35 1.429 . S
C32 C30 1.360 . S
C32 C33 1.372 . S
C33 H28 0.928 . S
C33 C32 1.372 . S
C33 C34 1.404 . S
C34 C33 1.404 . S
C34 C35 1.391 . S
C35 H29 0.930 . S
C35 C31 1.429 . S
C35 C34 1.391 . S
H36 C39 0.931 . S
H37 C42 0.928 . S
H38 C44 0.930 . S
C39 H36 0.931 . S
C39 C40 1.413 . S
C39 C41 1.360 . S
C40 C39 1.413 . S
C40 C44 1.429 . S
C41 C39 1.360 . S
C41 C42 1.372 . S
C42 H37 0.928 . S
C42 C41 1.372 . S
C42 C43 1.404 . S
C43 C42 1.404 . S
C43 C44 1.391 . S
C44 H38 0.930 . S
C44 C40 1.429 . S
C44 C43 1.391 . S
H45 C48 0.931 . S
H46 C51 0.928 . S
H47 C53 0.930 . S
C48 H45 0.931 . S
C48 C49 1.413 . S
C48 C50 1.360 . S
C49 C48 1.413 . S
C49 C53 1.429 . S
C50 C48 1.360 . S
C50 C51 1.372 . S
C51 H46 0.928 . S
C51 C50 1.372 . S
C51 C52 1.404 . S
C52 C51 1.404 . S
C52 C53 1.391 . S
C53 H47 0.930 . S
C53 C49 1.429 . S
C53 C52 1.391 . S
H54 C57 0.931 . S
H55 C60 0.928 . S
H56 C62 0.930 . S
C57 H54 0.931 . S
C57 C58 1.413 . S
C57 C59 1.360 . S
C58 C57 1.413 . S
C58 C62 1.429 . S
C59 C57 1.360 . S
C59 C60 1.372 . S
C60 H55 0.928 . S
C60 C59 1.372 . S
C60 C61 1.404 . S
C61 C60 1.404 . S
C61 C62 1.391 . S
C62 H56 0.930 . S
C62 C58 1.429 . S
C62 C61 1.391 . S
H63 C66 0.931 . S
H64 C69 0.928 . S
H65 C71 0.930 . S
C66 H63 0.931 . S
C66 C67 1.413 . S
C66 C68 1.360 . S
C67 C66 1.413 . S
C67 C71 1.429 . S
C68 C66 1.360 . S
C68 C69 1.372 . S
C69 H64 0.928 . S
C69 C68 1.372 . S
C69 C70 1.404 . S
C70 C69 1.404 . S
C70 C71 1.391 . S
C71 H65 0.930 . S
C71 C67 1.429 . S
C71 C70 1.391 . S
H72 C75 0.931 . S
H73 C78 0.928 . S
H74 C80 0.930 . S
C75 H72 0.931 . S
C75 C76 1.413 . S
C75 C77 1.360 . S
C76 C75 1.413 . S
C76 C80 1.429 . S
C77 C75 1.360 . S
C77 C78 1.372 . S
C78 H73 0.928 . S
C78 C77 1.372 . S
C78 C79 1.404 . S
C79 C78 1.404 . S
C79 C80 1.391 . S
C80 H74 0.930 . S
C80 C76 1.429 . S
C80 C79 1.391 . S
H81 C84 0.931 . S
H82 C87 0.928 . S
H83 C89 0.930 . S
C84 H81 0.931 . S
C84 C85 1.413 . S
C84 C86 1.360 . S
C85 C84 1.413 . S
C85 C89 1.429 . S
C86 C84 1.360 . S
C86 C87 1.372 . S
C87 H82 0.928 . S
C87 C86 1.372 . S
C87 C88 1.404 . S
C88 C87 1.404 . S
C88 C89 1.391 . S
C89 H83 0.930 . S
C89 C85 1.429 . S
C89 C88 1.391 . S
H90 C93 0.931 . S
H91 C96 0.928 . S
H92 C98 0.930 . S
C93 H90 0.931 . S
C93 C94 1.413 . S
C93 C95 1.360 . S
C94 C93 1.413 . S
C94 C98 1.429 . S
C95 C93 1.360 . S
C95 C96 1.372 . S
C96 H91 0.928 . S
C96 C95 1.372 . S
C96 C97 1.404 . S
C97 C96 1.404 . S
C97 C98 1.391 . S
C98 H92 0.930 . S
C98 C94 1.429 . S
C98 C97 1.391 . S
H99 C102 0.931 . S
H100 C105 0.928 . S
H101 C107 0.930 . S
C102 H99 0.931 . S
C102 C103 1.413 . S
C102 C104 1.360 . S
C103 C102 1.413 . S
C103 C107 1.429 . S
C104 C102 1.360 . S
C104 C105 1.372 . S
C105 H100 0.928 . S
C105 C104 1.372 . S
C105 C106 1.404 . S
C106 C105 1.404 . S
C106 C107 1.391 . S
C107 H101 0.930 . S
C107 C103 1.429 . S
C107 C106 1.391 . S
H108 C111 0.931 . S
H109 C114 0.928 . S
H110 C116 0.930 . S
C111 H108 0.931 . S
C111 C112 1.413 . S
C111 C113 1.360 . S
C112 C111 1.413 . S
C112 C116 1.429 . S
C113 C111 1.360 . S
C113 C114 1.372 . S
C114 H109 0.928 . S
C114 C113 1.372 . S
C114 C115 1.404 . S
C115 C114 1.404 . S
C115 C116 1.391 . S
C116 H110 0.930 . S
C116 C112 1.429 . S
C116 C115 1.391 . S
H117 C120 0.931 . S
H118 C123 0.928 . S
H119 C125 0.930 . S
C120 H117 0.931 . S
C120 C121 1.413 . S
C120 C122 1.360 . S
C121 C120 1.413 . S
C121 C125 1.429 . S
C122 C120 1.360 . S
C122 C123 1.372 . S
C123 H118 0.928 . S
C123 C122 1.372 . S
C123 C124 1.404 . S
C124 C123 1.404 . S
C124 C125 1.391 . S
C125 H119 0.930 . S
C125 C121 1.429 . S
C125 C124 1.391 . S
H126 C129 0.931 . S
H127 C132 0.928 . S
H128 C134 0.930 . S
C129 H126 0.931 . S
C129 C130 1.413 . S
C129 C131 1.360 . S
C130 C129 1.413 . S
C130 C134 1.429 . S
C131 C129 1.360 . S
C131 C132 1.372 . S
C132 H127 0.928 . S
C132 C131 1.372 . S
C132 C133 1.404 . S
C133 C132 1.404 . S
C133 C134 1.391 . S
C134 H128 0.930 . S
C134 C130 1.429 . S
C134 C133 1.391 . S
H135 C138 0.931 . S
H136 C141 0.928 . S
H137 C143 0.930 . S
C138 H135 0.931 . S
C138 C139 1.413 . S
C138 C140 1.360 . S
C139 C138 1.413 . S
C139 C143 1.429 . S
C140 C138 1.360 . S
C140 C141 1.372 . S
C141 H136 0.928 . S
C141 C140 1.372 . S
C141 C142 1.404 . S
C142 C141 1.404 . S
C142 C143 1.391 . S
C143 H137 0.930 . S
C143 C139 1.429 . S
C143 C142 1.391 . S
H144 C147 0.931 . S
H145 C150 0.928 . S
H146 C152 0.930 . S
C147 H144 0.931 . S
C147 C148 1.413 . S
C147 C149 1.360 . S
C148 C147 1.413 . S
C148 C152 1.429 . S
C149 C147 1.360 . S
C149 C150 1.372 . S
C150 H145 0.928 . S
C150 C149 1.372 . S
C150 C151 1.404 . S
C151 C150 1.404 . S
C151 C152 1.391 . S
C152 H146 0.930 . S
C152 C148 1.429 . S
C152 C151 1.391 . S
H153 C156 0.931 . S
H154 C159 0.928 . S
H155 C161 0.930 . S
C156 H153 0.931 . S
C156 C157 1.413 . S
C156 C158 1.360 . S
C157 C156 1.413 . S
C157 C161 1.429 . S
C158 C156 1.360 . S
C158 C159 1.372 . S
C159 H154 0.928 . S
C159 C158 1.372 . S
C159 C160 1.404 . S
C160 C159 1.404 . S
C160 C161 1.391 . S
C161 H155 0.930 . S
C161 C157 1.429 . S
C161 C160 1.391 . S
Tb162 C172 2.825 . S
Tb162 O173 2.347 1_565 S
Tb162 O176 2.366 1_565 S
Tb162 O181 2.418 . S
Tb162 O182 2.426 . S
Tb162 O185 2.479 . S
Tb162 O186 2.466 1_565 S
Eu163 O174 2.418 . S
Eu163 O175 2.384 . S
Eu163 O178 2.479 . S
Eu163 O179 2.474 . S
Eu163 O180 2.347 1_545 S
Eu163 O183 2.366 1_545 S
Eu163 C193 2.825 . S
C164 O180 1.259 . S
C164 O181 1.265 1_554 S
C165 O182 1.206 1_554 S
C165 O183 1.265 . S
C166 C168 1.380 . S
C166 C169 1.374 1_565 S
C166 C172 1.507 . S
C167 C168 1.384 . S
C167 C171 1.387 1_565 S
C167 H194 0.930 . S
C168 C166 1.380 . S
C168 C167 1.384 . S
C168 H195 0.931 . S
C169 C166 1.374 1_545 S
C169 C170 1.390 . S
C169 H196 0.930 . S
C170 C169 1.390 . S
C170 C171 1.391 . S
C170 H197 0.930 . S
C171 C167 1.387 1_545 S
C171 C170 1.391 . S
C172 Tb162 2.825 . S
C172 C166 1.507 . S
C172 O185 1.238 . S
C172 O186 1.239 1_565 S
O173 Tb162 2.347 1_545 S
O173 C177 1.259 . S
O174 Eu163 2.418 . S
O174 C177 1.265 1_554 S
O175 Eu163 2.384 . S
O175 C184 1.255 1_554 S
O176 Tb162 2.366 1_545 S
O176 C184 1.265 . S
C177 O173 1.259 . S
C177 O174 1.265 1_556 S
O178 Eu163 2.479 . S
O178 C193 1.238 . S
O179 Eu163 2.474 . S
O179 C193 1.252 . S
O180 Eu163 2.347 1_565 S
O180 C164 1.259 . S
O181 Tb162 2.418 . S
O181 C164 1.265 1_556 S
O182 Tb162 2.426 . S
O182 C165 1.206 1_556 S
O183 Eu163 2.366 1_565 S
O183 C165 1.265 . S
C184 O175 1.255 1_556 S
C184 O176 1.265 . S
O185 Tb162 2.479 . S
O185 C172 1.238 . S
O186 Tb162 2.466 1_545 S
O186 C172 1.239 1_545 S
C187 C190 1.380 . S
C187 C191 1.374 1_545 S
C187 C193 1.507 . S
C188 C189 1.387 1_565 S
C188 C192 1.391 . S
C189 C188 1.387 1_545 S
C189 C190 1.384 . S
C189 H198 0.930 . S
C190 C187 1.380 . S
C190 C189 1.384 . S
C190 H199 0.931 . S
C191 C187 1.374 1_565 S
C191 C192 1.390 . S
C191 H200 0.930 . S
C192 C188 1.391 . S
C192 C191 1.390 . S
C192 H201 0.930 . S
C193 Eu163 2.825 . S
C193 O178 1.238 . S
C193 O179 1.252 . S
C193 C187 1.507 . S
H194 C167 0.930 . S
H195 C168 0.931 . S
H196 C169 0.930 . S
H197 C170 0.930 . S
H198 C189 0.930 . S
H199 C190 0.931 . S
H200 C191 0.930 . S
H201 C192 0.930 . S
Tb202 C212 2.825 . S
Tb202 O213 2.347 1_455 S
Tb202 O216 2.366 1_455 S
Tb202 O221 2.418 . S
Tb202 O222 2.384 1_556 S
Tb202 O225 2.479 . S
Tb202 O226 2.471 1_455 S
Eu203 O214 2.418 . S
Eu203 O215 2.358 1_554 S
Eu203 O218 2.479 . S
Eu203 O219 2.471 1_655 S
Eu203 O220 2.347 1_655 S
Eu203 O223 2.366 1_655 S
Eu203 C233 2.825 . S
C204 O220 1.259 . S
C204 O221 1.265 1_554 S
C205 O222 1.255 . S
C205 O223 1.265 . S
C206 C208 1.380 . S
C206 C209 1.374 1_455 S
C206 C212 1.507 . S
C207 C208 1.384 . S
C207 C211 1.387 1_455 S
C207 H234 0.930 . S
C208 C206 1.380 . S
C208 C207 1.384 . S
C208 H235 0.931 . S
C209 C206 1.374 1_655 S
C209 C210 1.390 . S
C209 H236 0.930 . S
C210 C209 1.390 . S
C210 C211 1.391 . S
C210 H237 0.930 . S
C211 C207 1.387 1_655 S
C211 C210 1.391 . S
C212 Tb202 2.825 . S
C212 C206 1.507 . S
C212 O225 1.238 . S
C212 O226 1.247 1_455 S
O213 Tb202 2.347 1_655 S
O213 C217 1.259 . S
O214 Eu203 2.418 . S
O214 C217 1.265 1_554 S
O215 Eu203 2.358 1_556 S
O215 C224 1.287 . S
O216 Tb202 2.366 1_655 S
O216 C224 1.265 . S
C217 O213 1.259 . S
C217 O214 1.265 1_556 S
O218 Eu203 2.479 . S
O218 C233 1.238 . S
O219 Eu203 2.471 1_455 S
O219 C233 1.247 1_455 S
O220 Eu203 2.347 1_455 S
O220 C204 1.259 . S
O221 Tb202 2.418 . S
O221 C204 1.265 1_556 S
O222 Tb202 2.384 1_554 S
O222 C205 1.255 . S
O223 Eu203 2.366 1_455 S
O223 C205 1.265 . S
C224 O215 1.287 . S
C224 O216 1.265 . S
O225 Tb202 2.479 . S
O225 C212 1.238 . S
O226 Tb202 2.471 1_655 S
O226 C212 1.247 1_655 S
C227 C230 1.380 . S
C227 C231 1.374 1_655 S
C227 C233 1.507 . S
C228 C229 1.387 1_455 S
C228 C232 1.391 . S
C229 C228 1.387 1_655 S
C229 C230 1.384 . S
C229 H238 0.930 . S
C230 C227 1.380 . S
C230 C229 1.384 . S
C230 H239 0.931 . S
C231 C227 1.374 1_455 S
C231 C232 1.390 . S
C231 H240 0.930 . S
C232 C228 1.391 . S
C232 C231 1.390 . S
C232 H241 0.930 . S
C233 Eu203 2.825 . S
C233 O218 1.238 . S
C233 O219 1.247 1_655 S
C233 C227 1.507 . S
H234 C207 0.930 . S
H235 C208 0.931 . S
H236 C209 0.930 . S
H237 C210 0.930 . S
H238 C229 0.930 . S
H239 C230 0.931 . S
H240 C231 0.930 . S
H241 C232 0.930 . S
Tb242 C252 2.825 . S
Tb242 O253 2.347 . S
Tb242 O256 2.366 . S
Tb242 O261 2.418 . S
Tb242 O262 2.433 . S
Tb242 O265 2.479 . S
Tb242 O266 2.471 . S
Eu243 O254 2.418 . S
Eu243 O255 2.384 1_556 S
Eu243 O258 2.479 . S
Eu243 O259 2.471 . S
Eu243 O260 2.347 . S
Eu243 O263 2.366 . S
Eu243 C273 2.825 . S
C244 O260 1.259 . S
C244 O261 1.265 1_556 S
C245 O262 1.198 1_556 S
C245 O263 1.265 . S
C246 C248 1.380 . S
C246 C249 1.374 . S
C246 C252 1.507 . S
C247 C248 1.384 . S
C247 C251 1.387 . S
C247 H274 0.930 . S
C248 C246 1.380 . S
C248 C247 1.384 . S
C248 H275 0.931 . S
C249 C246 1.374 . S
C249 C250 1.390 . S
C249 H276 0.930 . S
C250 C249 1.390 . S
C250 C251 1.391 . S
C250 H277 0.930 . S
C251 C247 1.387 . S
C251 C250 1.391 . S
C252 Tb242 2.825 . S
C252 C246 1.507 . S
C252 O265 1.238 . S
C252 O266 1.247 . S
O253 Tb242 2.347 . S
O253 C257 1.259 . S
O254 Eu243 2.418 . S
O254 C257 1.265 1_556 S
O255 Eu243 2.384 1_554 S
O255 C264 1.255 . S
O256 Tb242 2.366 . S
O256 C264 1.265 . S
C257 O253 1.259 . S
C257 O254 1.265 1_554 S
O258 Eu243 2.479 . S
O258 C273 1.238 . S
O259 Eu243 2.471 . S
O259 C273 1.247 . S
O260 Eu243 2.347 . S
O260 C244 1.259 . S
O261 Tb242 2.418 . S
O261 C244 1.265 1_554 S
O262 Tb242 2.433 . S
O262 C245 1.198 1_554 S
O263 Eu243 2.366 . S
O263 C245 1.265 . S
C264 O255 1.255 . S
C264 O256 1.265 . S
O265 Tb242 2.479 . S
O265 C252 1.238 . S
O266 Tb242 2.471 . S
O266 C252 1.247 . S
C267 C270 1.380 . S
C267 C271 1.374 . S
C267 C273 1.507 . S
C268 C269 1.387 . S
C268 C272 1.391 . S
C269 C268 1.387 . S
C269 C270 1.384 . S
C269 H278 0.930 . S
C270 C267 1.380 . S
C270 C269 1.384 . S
C270 H279 0.931 . S
C271 C267 1.374 . S
C271 C272 1.390 . S
C271 H280 0.930 . S
C272 C268 1.391 . S
C272 C271 1.390 . S
C272 H281 0.930 . S
C273 Eu243 2.825 . S
C273 O258 1.238 . S
C273 O259 1.247 . S
C273 C267 1.507 . S
H274 C247 0.930 . S
H275 C248 0.931 . S
H276 C249 0.930 . S
H277 C250 0.930 . S
H278 C269 0.930 . S
H279 C270 0.931 . S
H280 C271 0.930 . S
H281 C272 0.930 . S
Tb282 C292 2.825 . S
Tb282 O293 2.347 . S
Tb282 O296 2.366 . S
Tb282 O301 2.418 . S
Tb282 O302 2.384 . S
Tb282 O305 2.479 . S
Tb282 O306 2.471 . S
Eu283 O294 2.418 . S
Eu283 O295 2.384 . S
Eu283 O298 2.479 . S
Eu283 O299 2.471 . S
Eu283 O300 2.347 . S
Eu283 O303 2.366 . S
Eu283 C313 2.825 . S
C284 O300 1.259 . S
C284 O301 1.265 . S
C285 O302 1.255 . S
C285 O303 1.265 . S
C286 C288 1.380 . S
C286 C289 1.374 . S
C286 C292 1.507 . S
C287 C288 1.384 . S
C287 C291 1.387 . S
C287 H314 0.930 . S
C288 C286 1.380 . S
C288 C287 1.384 . S
C288 H315 0.931 . S
C289 C286 1.374 . S
C289 C290 1.390 . S
C289 H316 0.930 . S
C290 C289 1.390 . S
C290 C291 1.391 . S
C290 H317 0.930 . S
C291 C287 1.387 . S
C291 C290 1.391 . S
C292 Tb282 2.825 . S
C292 C286 1.507 . S
C292 O305 1.238 . S
C292 O306 1.247 . S
O293 Tb282 2.347 . S
O293 C297 1.259 . S
O294 Eu283 2.418 . S
O294 C297 1.265 . S
O295 Eu283 2.384 . S
O295 C304 1.255 . S
O296 Tb282 2.366 . S
O296 C304 1.265 . S
C297 O293 1.259 . S
C297 O294 1.265 . S
O298 Eu283 2.479 . S
O298 C313 1.238 . S
O299 Eu283 2.471 . S
O299 C313 1.247 . S
O300 Eu283 2.347 . S
O300 C284 1.259 . S
O301 Tb282 2.418 . S
O301 C284 1.265 . S
O302 Tb282 2.384 . S
O302 C285 1.255 . S
O303 Eu283 2.366 . S
O303 C285 1.265 . S
C304 O295 1.255 . S
C304 O296 1.265 . S
O305 Tb282 2.479 . S
O305 C292 1.238 . S
O306 Tb282 2.471 . S
O306 C292 1.247 . S
C307 C310 1.380 . S
C307 C311 1.374 . S
C307 C313 1.507 . S
C308 C309 1.387 . S
C308 C312 1.391 . S
C309 C308 1.387 . S
C309 C310 1.384 . S
C309 H318 0.930 . S
C310 C307 1.380 . S
C310 C309 1.384 . S
C310 H319 0.931 . S
C311 C307 1.374 . S
C311 C312 1.390 . S
C311 H320 0.930 . S
C312 C308 1.391 . S
C312 C311 1.390 . S
C312 H321 0.930 . S
C313 Eu283 2.825 . S
C313 O298 1.238 . S
C313 O299 1.247 . S
C313 C307 1.507 . S
H314 C287 0.930 . S
H315 C288 0.931 . S
H316 C289 0.930 . S
H317 C290 0.930 . S
H318 C309 0.930 . S
H319 C310 0.931 . S
H320 C311 0.930 . S
H321 C312 0.930 . S
Tb322 C332 2.825 . S
Tb322 O333 2.347 . S
Tb322 O336 2.366 . S
Tb322 O341 2.418 . S
Tb322 O342 2.384 . S
Tb322 O345 2.479 . S
Tb322 O346 2.471 . S
Eu323 O334 2.418 . S
Eu323 O335 2.384 . S
Eu323 O338 2.479 . S
Eu323 O339 2.471 . S
Eu323 O340 2.347 . S
Eu323 O343 2.366 . S
Eu323 C353 2.825 . S
C324 O340 1.259 . S
C324 O341 1.265 . S
C325 O342 1.255 . S
C325 O343 1.265 . S
C326 C328 1.380 . S
C326 C329 1.374 . S
C326 C332 1.507 . S
C327 C328 1.384 . S
C327 C331 1.387 . S
C327 H354 0.930 . S
C328 C326 1.380 . S
C328 C327 1.384 . S
C328 H355 0.931 . S
C329 C326 1.374 . S
C329 C330 1.390 . S
C329 H356 0.930 . S
C330 C329 1.390 . S
C330 C331 1.391 . S
C330 H357 0.930 . S
C331 C327 1.387 . S
C331 C330 1.391 . S
C332 Tb322 2.825 . S
C332 C326 1.507 . S
C332 O345 1.238 . S
C332 O346 1.247 . S
O333 Tb322 2.347 . S
O333 C337 1.259 . S
O334 Eu323 2.418 . S
O334 C337 1.265 . S
O335 Eu323 2.384 . S
O335 C344 1.255 . S
O336 Tb322 2.366 . S
O336 C344 1.265 . S
C337 O333 1.259 . S
C337 O334 1.265 . S
O338 Eu323 2.479 . S
O338 C353 1.238 . S
O339 Eu323 2.471 . S
O339 C353 1.247 . S
O340 Eu323 2.347 . S
O340 C324 1.259 . S
O341 Tb322 2.418 . S
O341 C324 1.265 . S
O342 Tb322 2.384 . S
O342 C325 1.255 . S
O343 Eu323 2.366 . S
O343 C325 1.265 . S
C344 O335 1.255 . S
C344 O336 1.265 . S
O345 Tb322 2.479 . S
O345 C332 1.238 . S
O346 Tb322 2.471 . S
O346 C332 1.247 . S
C347 C350 1.380 . S
C347 C351 1.374 . S
C347 C353 1.507 . S
C348 C349 1.387 . S
C348 C352 1.391 . S
C349 C348 1.387 . S
C349 C350 1.384 . S
C349 H358 0.930 . S
C350 C347 1.380 . S
C350 C349 1.384 . S
C350 H359 0.931 . S
C351 C347 1.374 . S
C351 C352 1.390 . S
C351 H360 0.930 . S
C352 C348 1.391 . S
C352 C351 1.390 . S
C352 H361 0.930 . S
C353 Eu323 2.825 . S
C353 O338 1.238 . S
C353 O339 1.247 . S
C353 C347 1.507 . S
H354 C327 0.930 . S
H355 C328 0.931 . S
H356 C329 0.930 . S
H357 C330 0.930 . S
H358 C349 0.930 . S
H359 C350 0.931 . S
H360 C351 0.930 . S
H361 C352 0.930 . S
Tb362 C372 2.825 . S
Tb362 O373 2.347 . S
Tb362 O376 2.366 . S
Tb362 O381 2.418 . S
Tb362 O382 2.384 . S
Tb362 O385 2.479 . S
Tb362 O386 2.471 . S
Eu363 O374 2.418 . S
Eu363 O375 2.384 . S
Eu363 O378 2.479 . S
Eu363 O379 2.471 . S
Eu363 O380 2.347 . S
Eu363 O383 2.366 . S
Eu363 C393 2.825 . S
C364 O380 1.259 . S
C364 O381 1.265 . S
C365 O382 1.255 . S
C365 O383 1.265 . S
C366 C368 1.380 . S
C366 C369 1.374 . S
C366 C372 1.507 . S
C367 C368 1.384 . S
C367 C371 1.387 . S
C367 H394 0.930 . S
C368 C366 1.380 . S
C368 C367 1.384 . S
C368 H395 0.931 . S
C369 C366 1.374 . S
C369 C370 1.390 . S
C369 H396 0.930 . S
C370 C369 1.390 . S
C370 C371 1.391 . S
C370 H397 0.930 . S
C371 C367 1.387 . S
C371 C370 1.391 . S
C372 Tb362 2.825 . S
C372 C366 1.507 . S
C372 O385 1.238 . S
C372 O386 1.247 . S
O373 Tb362 2.347 . S
O373 C377 1.259 . S
O374 Eu363 2.418 . S
O374 C377 1.265 . S
O375 Eu363 2.384 . S
O375 C384 1.255 . S
O376 Tb362 2.366 . S
O376 C384 1.265 . S
C377 O373 1.259 . S
C377 O374 1.265 . S
O378 Eu363 2.479 . S
O378 C393 1.238 . S
O379 Eu363 2.471 . S
O379 C393 1.247 . S
O380 Eu363 2.347 . S
O380 C364 1.259 . S
O381 Tb362 2.418 . S
O381 C364 1.265 . S
O382 Tb362 2.384 . S
O382 C365 1.255 . S
O383 Eu363 2.366 . S
O383 C365 1.265 . S
C384 O375 1.255 . S
C384 O376 1.265 . S
O385 Tb362 2.479 . S
O385 C372 1.238 . S
O386 Tb362 2.471 . S
O386 C372 1.247 . S
C387 C390 1.380 . S
C387 C391 1.374 . S
C387 C393 1.507 . S
C388 C389 1.387 . S
C388 C392 1.391 . S
C389 C388 1.387 . S
C389 C390 1.384 . S
C389 H398 0.930 . S
C390 C387 1.380 . S
C390 C389 1.384 . S
C390 H399 0.931 . S
C391 C387 1.374 . S
C391 C392 1.390 . S
C391 H400 0.930 . S
C392 C388 1.391 . S
C392 C391 1.390 . S
C392 H401 0.930 . S
C393 Eu363 2.825 . S
C393 O378 1.238 . S
C393 O379 1.247 . S
C393 C387 1.507 . S
H394 C367 0.930 . S
H395 C368 0.931 . S
H396 C369 0.930 . S
H397 C370 0.930 . S
H398 C389 0.930 . S
H399 C390 0.931 . S
H400 C391 0.930 . S
H401 C392 0.930 . S
Tb402 C412 2.825 . S
Tb402 O413 2.347 . S
Tb402 O416 2.366 . S
Tb402 O421 2.418 . S
Tb402 O422 2.384 . S
Tb402 O425 2.479 . S
Tb402 O426 2.471 . S
Eu403 O414 2.418 . S
Eu403 O415 2.384 . S
Eu403 O418 2.479 . S
Eu403 O419 2.471 . S
Eu403 O420 2.347 . S
Eu403 O423 2.366 . S
Eu403 C433 2.825 . S
C404 O420 1.259 . S
C404 O421 1.265 . S
C405 O422 1.255 . S
C405 O423 1.265 . S
C406 C408 1.380 . S
C406 C409 1.374 . S
C406 C412 1.507 . S
C407 C408 1.384 . S
C407 C411 1.387 . S
C407 H434 0.930 . S
C408 C406 1.380 . S
C408 C407 1.384 . S
C408 H435 0.931 . S
C409 C406 1.374 . S
C409 C410 1.390 . S
C409 H436 0.930 . S
C410 C409 1.390 . S
C410 C411 1.391 . S
C410 H437 0.930 . S
C411 C407 1.387 . S
C411 C410 1.391 . S
C412 Tb402 2.825 . S
C412 C406 1.507 . S
C412 O425 1.238 . S
C412 O426 1.247 . S
O413 Tb402 2.347 . S
O413 C417 1.259 . S
O414 Eu403 2.418 . S
O414 C417 1.265 . S
O415 Eu403 2.384 . S
O415 C424 1.255 . S
O416 Tb402 2.366 . S
O416 C424 1.265 . S
C417 O413 1.259 . S
C417 O414 1.265 . S
O418 Eu403 2.479 . S
O418 C433 1.238 . S
O419 Eu403 2.471 . S
O419 C433 1.247 . S
O420 Eu403 2.347 . S
O420 C404 1.259 . S
O421 Tb402 2.418 . S
O421 C404 1.265 . S
O422 Tb402 2.384 . S
O422 C405 1.255 . S
O423 Eu403 2.366 . S
O423 C405 1.265 . S
C424 O415 1.255 . S
C424 O416 1.265 . S
O425 Tb402 2.479 . S
O425 C412 1.238 . S
O426 Tb402 2.471 . S
O426 C412 1.247 . S
C427 C430 1.380 . S
C427 C431 1.374 . S
C427 C433 1.507 . S
C428 C429 1.387 . S
C428 C432 1.391 . S
C429 C428 1.387 . S
C429 C430 1.384 . S
C429 H438 0.930 . S
C430 C427 1.380 . S
C430 C429 1.384 . S
C430 H439 0.931 . S
C431 C427 1.374 . S
C431 C432 1.390 . S
C431 H440 0.930 . S
C432 C428 1.391 . S
C432 C431 1.390 . S
C432 H441 0.930 . S
C433 Eu403 2.825 . S
C433 O418 1.238 . S
C433 O419 1.247 . S
C433 C427 1.507 . S
H434 C407 0.930 . S
H435 C408 0.931 . S
H436 C409 0.930 . S
H437 C410 0.930 . S
H438 C429 0.930 . S
H439 C430 0.931 . S
H440 C431 0.930 . S
H441 C432 0.930 . S
Tb442 C452 2.825 . S
Tb442 O453 2.347 . S
Tb442 O456 2.366 . S
Tb442 O461 2.418 . S
Tb442 O462 2.384 . S
Tb442 O465 2.479 . S
Tb442 O466 2.471 . S
Eu443 O454 2.418 . S
Eu443 O455 2.384 . S
Eu443 O458 2.479 . S
Eu443 O459 2.471 . S
Eu443 O460 2.347 . S
Eu443 O463 2.366 . S
Eu443 C473 2.825 . S
C444 O460 1.259 . S
C444 O461 1.265 . S
C445 O462 1.255 . S
C445 O463 1.265 . S
C446 C448 1.380 . S
C446 C449 1.374 . S
C446 C452 1.507 . S
C447 C448 1.384 . S
C447 C451 1.387 . S
C447 H474 0.930 . S
C448 C446 1.380 . S
C448 C447 1.384 . S
C448 H475 0.931 . S
C449 C446 1.374 . S
C449 C450 1.390 . S
C449 H476 0.930 . S
C450 C449 1.390 . S
C450 C451 1.391 . S
C450 H477 0.930 . S
C451 C447 1.387 . S
C451 C450 1.391 . S
C452 Tb442 2.825 . S
C452 C446 1.507 . S
C452 O465 1.238 . S
C452 O466 1.247 . S
O453 Tb442 2.347 . S
O453 C457 1.259 . S
O454 Eu443 2.418 . S
O454 C457 1.265 . S
O455 Eu443 2.384 . S
O455 C464 1.255 . S
O456 Tb442 2.366 . S
O456 C464 1.265 . S
C457 O453 1.259 . S
C457 O454 1.265 . S
O458 Eu443 2.479 . S
O458 C473 1.238 . S
O459 Eu443 2.471 . S
O459 C473 1.247 . S
O460 Eu443 2.347 . S
O460 C444 1.259 . S
O461 Tb442 2.418 . S
O461 C444 1.265 . S
O462 Tb442 2.384 . S
O462 C445 1.255 . S
O463 Eu443 2.366 . S
O463 C445 1.265 . S
C464 O455 1.255 . S
C464 O456 1.265 . S
O465 Tb442 2.479 . S
O465 C452 1.238 . S
O466 Tb442 2.471 . S
O466 C452 1.247 . S
C467 C470 1.380 . S
C467 C471 1.374 . S
C467 C473 1.507 . S
C468 C469 1.387 . S
C468 C472 1.391 . S
C469 C468 1.387 . S
C469 C470 1.384 . S
C469 H478 0.930 . S
C470 C467 1.380 . S
C470 C469 1.384 . S
C470 H479 0.931 . S
C471 C467 1.374 . S
C471 C472 1.390 . S
C471 H480 0.930 . S
C472 C468 1.391 . S
C472 C471 1.390 . S
C472 H481 0.930 . S
C473 Eu443 2.825 . S
C473 O458 1.238 . S
C473 O459 1.247 . S
C473 C467 1.507 . S
H474 C447 0.930 . S
H475 C448 0.931 . S
H476 C449 0.930 . S
H477 C450 0.930 . S
H478 C469 0.930 . S
H479 C470 0.931 . S
H480 C471 0.930 . S
H481 C472 0.930 . S
Tb482 C492 2.825 . S
Tb482 O493 2.347 . S
Tb482 O496 2.366 . S
Tb482 O501 2.418 . S
Tb482 O502 2.384 . S
Tb482 O505 2.479 . S
Tb482 O506 2.471 . S
Eu483 O494 2.418 . S
Eu483 O495 2.384 . S
Eu483 O498 2.479 . S
Eu483 O499 2.471 . S
Eu483 O500 2.347 . S
Eu483 O503 2.366 . S
Eu483 C513 2.825 . S
C484 O500 1.259 . S
C484 O501 1.265 . S
C485 O502 1.255 . S
C485 O503 1.265 . S
C486 C488 1.380 . S
C486 C489 1.374 . S
C486 C492 1.507 . S
C487 C488 1.384 . S
C487 C491 1.387 . S
C487 H514 0.930 . S
C488 C486 1.380 . S
C488 C487 1.384 . S
C488 H515 0.931 . S
C489 C486 1.374 . S
C489 C490 1.390 . S
C489 H516 0.930 . S
C490 C489 1.390 . S
C490 C491 1.391 . S
C490 H517 0.930 . S
C491 C487 1.387 . S
C491 C490 1.391 . S
C492 Tb482 2.825 . S
C492 C486 1.507 . S
C492 O505 1.238 . S
C492 O506 1.247 . S
O493 Tb482 2.347 . S
O493 C497 1.259 . S
O494 Eu483 2.418 . S
O494 C497 1.265 . S
O495 Eu483 2.384 . S
O495 C504 1.255 . S
O496 Tb482 2.366 . S
O496 C504 1.265 . S
C497 O493 1.259 . S
C497 O494 1.265 . S
O498 Eu483 2.479 . S
O498 C513 1.238 . S
O499 Eu483 2.471 . S
O499 C513 1.247 . S
O500 Eu483 2.347 . S
O500 C484 1.259 . S
O501 Tb482 2.418 . S
O501 C484 1.265 . S
O502 Tb482 2.384 . S
O502 C485 1.255 . S
O503 Eu483 2.366 . S
O503 C485 1.265 . S
C504 O495 1.255 . S
C504 O496 1.265 . S
O505 Tb482 2.479 . S
O505 C492 1.238 . S
O506 Tb482 2.471 . S
O506 C492 1.247 . S
C507 C510 1.380 . S
C507 C511 1.374 . S
C507 C513 1.507 . S
C508 C509 1.387 . S
C508 C512 1.391 . S
C509 C508 1.387 . S
C509 C510 1.384 . S
C509 H518 0.930 . S
C510 C507 1.380 . S
C510 C509 1.384 . S
C510 H519 0.931 . S
C511 C507 1.374 . S
C511 C512 1.390 . S
C511 H520 0.930 . S
C512 C508 1.391 . S
C512 C511 1.390 . S
C512 H521 0.930 . S
C513 Eu483 2.825 . S
C513 O498 1.238 . S
C513 O499 1.247 . S
C513 C507 1.507 . S
H514 C487 0.930 . S
H515 C488 0.931 . S
H516 C489 0.930 . S
H517 C490 0.930 . S
H518 C509 0.930 . S
H519 C510 0.931 . S
H520 C511 0.930 . S
H521 C512 0.930 . S
H522 C530 0.950 . S
H523 C535 0.950 . S
H524 C532 0.950 . S
H525 C534 0.950 . S
H526 C536 0.950 . S
H527 C538 0.950 . S
H528 C540 0.950 . S
H529 C541 0.950 . S
C530 H522 0.950 . S
C530 C531 1.386 . S
C530 C532 1.391 . S
C531 C530 1.386 . S
C531 C535 1.393 . S
C532 H524 0.950 . S
C532 C530 1.391 . S
C532 C533 1.400 . S
C533 C532 1.400 . S
C533 C534 1.398 . S
C533 C539 1.491 . S
C534 H525 0.950 . S
C534 C533 1.398 . S
C534 C535 1.391 . S
C535 H523 0.950 . S
C535 C531 1.393 . S
C535 C534 1.391 . S
C536 H526 0.950 . S
C536 C537 1.386 . S
C536 C538 1.391 . S
C537 C536 1.386 . S
C537 C541 1.393 . S
C538 H527 0.950 . S
C538 C536 1.391 . S
C538 C539 1.400 . S
C539 C533 1.491 . S
C539 C538 1.400 . S
C539 C540 1.398 . S
C540 H528 0.950 . S
C540 C539 1.398 . S
C540 C541 1.391 . S
C541 H529 0.950 . S
C541 C537 1.393 . S
C541 C540 1.391 . S
H542 C550 0.950 . S
H543 C555 0.950 . S
H544 C552 0.950 . S
H545 C554 0.950 . S
H546 C556 0.950 . S
H547 C558 0.950 . S
H548 C560 0.950 . S
H549 C561 0.950 . S
C550 H542 0.950 . S
C550 C551 1.386 . S
C550 C552 1.391 . S
C551 C550 1.386 . S
C551 C555 1.393 . S
C552 H544 0.950 . S
C552 C550 1.391 . S
C552 C553 1.400 . S
C553 C552 1.400 . S
C553 C554 1.398 . S
C553 C559 1.491 . S
C554 H545 0.950 . S
C554 C553 1.398 . S
C554 C555 1.391 . S
C555 H543 0.950 . S
C555 C551 1.393 . S
C555 C554 1.391 . S
C556 H546 0.950 . S
C556 C557 1.386 . S
C556 C558 1.391 . S
C557 C556 1.386 . S
C557 C561 1.393 . S
C558 H547 0.950 . S
C558 C556 1.391 . S
C558 C559 1.400 . S
C559 C553 1.491 . S
C559 C558 1.400 . S
C559 C560 1.398 . S
C560 H548 0.950 . S
C560 C559 1.398 . S
C560 C561 1.391 . S
C561 H549 0.950 . S
C561 C557 1.393 . S
C561 C560 1.391 . S
H562 C570 0.950 . S
H563 C575 0.950 . S
H564 C572 0.950 . S
H565 C574 0.950 . S
H566 C576 0.950 . S
H567 C578 0.950 . S
H568 C580 0.950 . S
H569 C581 0.950 . S
C570 H562 0.950 . S
C570 C571 1.386 . S
C570 C572 1.391 . S
C571 C570 1.386 . S
C571 C575 1.393 . S
C572 H564 0.950 . S
C572 C570 1.391 . S
C572 C573 1.400 . S
C573 C572 1.400 . S
C573 C574 1.398 . S
C573 C579 1.491 . S
C574 H565 0.950 . S
C574 C573 1.398 . S
C574 C575 1.391 . S
C575 H563 0.950 . S
C575 C571 1.393 . S
C575 C574 1.391 . S
C576 H566 0.950 . S
C576 C577 1.386 . S
C576 C578 1.391 . S
C577 C576 1.386 . S
C577 C581 1.393 . S
C578 H567 0.950 . S
C578 C576 1.391 . S
C578 C579 1.400 . S
C579 C573 1.491 . S
C579 C578 1.400 . S
C579 C580 1.398 . S
C580 H568 0.950 . S
C580 C579 1.398 . S
C580 C581 1.391 . S
C581 H569 0.950 . S
C581 C577 1.393 . S
C581 C580 1.391 . S
H582 C590 0.950 . S
H583 C595 0.950 . S
H584 C592 0.950 . S
H585 C594 0.950 . S
H586 C596 0.950 . S
H587 C598 0.950 . S
H588 C600 0.950 . S
H589 C601 0.950 . S
C590 H582 0.950 . S
C590 C591 1.386 . S
C590 C592 1.391 . S
C591 C590 1.386 . S
C591 C595 1.393 . S
C592 H584 0.950 . S
C592 C590 1.391 . S
C592 C593 1.400 . S
C593 C592 1.400 . S
C593 C594 1.398 . S
C593 C599 1.491 . S
C594 H585 0.950 . S
C594 C593 1.398 . S
C594 C595 1.391 . S
C595 H583 0.950 . S
C595 C591 1.393 . S
C595 C594 1.391 . S
C596 H586 0.950 . S
C596 C597 1.386 . S
C596 C598 1.391 . S
C597 C596 1.386 . S
C597 C601 1.393 . S
C598 H587 0.950 . S
C598 C596 1.391 . S
C598 C599 1.400 . S
C599 C593 1.491 . S
C599 C598 1.400 . S
C599 C600 1.398 . S
C600 H588 0.950 . S
C600 C599 1.398 . S
C600 C601 1.391 . S
C601 H589 0.950 . S
C601 C597 1.393 . S
C601 C600 1.391 . S
H602 C610 0.950 . S
H603 C615 0.950 . S
H604 C612 0.950 . S
H605 C614 0.950 . S
H606 C616 0.950 . S
H607 C618 0.950 . S
H608 C620 0.950 . S
H609 C621 0.950 . S
C610 H602 0.950 . S
C610 C611 1.386 . S
C610 C612 1.391 . S
C611 C610 1.386 . S
C611 C615 1.393 . S
C612 H604 0.950 . S
C612 C610 1.391 . S
C612 C613 1.400 . S
C613 C612 1.400 . S
C613 C614 1.398 . S
C613 C619 1.491 . S
C614 H605 0.950 . S
C614 C613 1.398 . S
C614 C615 1.391 . S
C615 H603 0.950 . S
C615 C611 1.393 . S
C615 C614 1.391 . S
C616 H606 0.950 . S
C616 C617 1.386 . S
C616 C618 1.391 . S
C617 C616 1.386 . S
C617 C621 1.393 . S
C618 H607 0.950 . S
C618 C616 1.391 . S
C618 C619 1.400 . S
C619 C613 1.491 . S
C619 C618 1.400 . S
C619 C620 1.398 . S
C620 H608 0.950 . S
C620 C619 1.398 . S
C620 C621 1.391 . S
C621 H609 0.950 . S
C621 C617 1.393 . S
C621 C620 1.391 . S
H622 C630 0.950 . S
H623 C635 0.950 . S
H624 C632 0.950 . S
H625 C634 0.950 . S
H626 C636 0.950 1_554 S
H627 C638 0.950 . S
H628 C640 0.950 . S
H629 C641 0.950 . S
C630 H622 0.950 . S
C630 C631 1.386 . S
C630 C632 1.391 . S
C631 C630 1.386 . S
C631 C635 1.393 . S
C632 H624 0.950 . S
C632 C630 1.391 . S
C632 C633 1.400 . S
C633 C632 1.400 . S
C633 C634 1.398 . S
C633 C639 1.491 . S
C634 H625 0.950 . S
C634 C633 1.398 . S
C634 C635 1.391 . S
C635 H623 0.950 . S
C635 C631 1.393 . S
C635 C634 1.391 . S
C636 H626 0.950 1_556 S
C636 C637 1.386 . S
C636 C638 1.391 . S
C637 C636 1.386 . S
C637 C641 1.393 . S
C638 H627 0.950 . S
C638 C636 1.391 . S
C638 C639 1.400 . S
C639 C633 1.491 . S
C639 C638 1.400 . S
C639 C640 1.398 . S
C640 H628 0.950 . S
C640 C639 1.398 . S
C640 C641 1.391 . S
C641 H629 0.950 . S
C641 C637 1.393 . S
C641 C640 1.391 . S
H642 C650 0.950 . S
H643 C655 0.950 . S
H644 C652 0.950 . S
H645 C654 0.950 . S
H646 C656 0.950 . S
H647 C658 0.950 . S
H648 C660 0.950 . S
H649 C661 0.950 1_554 S
C650 H642 0.950 . S
C650 C651 1.386 . S
C650 C652 1.391 . S
C651 C650 1.386 . S
C651 C655 1.393 . S
C652 H644 0.950 . S
C652 C650 1.391 . S
C652 C653 1.400 . S
C653 C652 1.400 . S
C653 C654 1.398 . S
C653 C659 1.491 . S
C654 H645 0.950 . S
C654 C653 1.398 . S
C654 C655 1.391 . S
C655 H643 0.950 . S
C655 C651 1.393 . S
C655 C654 1.391 . S
C656 H646 0.950 . S
C656 C657 1.386 . S
C656 C658 1.391 . S
C657 C656 1.386 . S
C657 C661 1.393 . S
C658 H647 0.950 . S
C658 C656 1.391 . S
C658 C659 1.400 . S
C659 C653 1.491 . S
C659 C658 1.400 . S
C659 C660 1.398 . S
C660 H648 0.950 . S
C660 C659 1.398 . S
C660 C661 1.391 . S
C661 H649 0.950 1_556 S
C661 C657 1.393 . S
C661 C660 1.391 . S
H662 C670 0.950 . S
H663 C675 0.950 . S
H664 C672 0.950 . S
H665 C674 0.950 . S
H666 C676 0.950 . S
H667 C678 0.950 . S
H668 C680 0.950 . S
H669 C681 0.950 . S
C670 H662 0.950 . S
C670 C671 1.386 . S
C670 C672 1.391 . S
C671 C670 1.386 . S
C671 C675 1.393 . S
C672 H664 0.950 . S
C672 C670 1.391 . S
C672 C673 1.400 . S
C673 C672 1.400 . S
C673 C674 1.398 . S
C673 C679 1.491 . S
C674 H665 0.950 . S
C674 C673 1.398 . S
C674 C675 1.391 . S
C675 H663 0.950 . S
C675 C671 1.393 . S
C675 C674 1.391 . S
C676 H666 0.950 . S
C676 C677 1.386 . S
C676 C678 1.391 . S
C677 C676 1.386 . S
C677 C681 1.393 . S
C678 H667 0.950 . S
C678 C676 1.391 . S
C678 C679 1.400 . S
C679 C673 1.491 . S
C679 C678 1.400 . S
C679 C680 1.398 . S
C680 H668 0.950 . S
C680 C679 1.398 . S
C680 C681 1.391 . S
C681 H669 0.950 . S
C681 C677 1.393 . S
C681 C680 1.391 . S
H682 C690 0.950 . S
H683 C695 0.950 . S
H684 C692 0.950 . S
H685 C694 0.950 . S
H686 C696 0.894 1_554 S
H687 C698 0.950 1_554 S
H688 C700 0.950 . S
H689 C701 0.950 . S
C690 H682 0.950 . S
C690 C691 1.386 . S
C690 C692 1.391 . S
C691 C690 1.386 . S
C691 C695 1.393 . S
C692 H684 0.950 . S
C692 C690 1.391 . S
C692 C693 1.400 . S
C693 C692 1.400 . S
C693 C694 1.398 . S
C693 C699 1.491 . S
C694 H685 0.950 . S
C694 C693 1.398 . S
C694 C695 1.391 . S
C695 H683 0.950 . S
C695 C691 1.393 . S
C695 C694 1.391 . S
C696 H686 0.894 1_556 S
C696 C697 1.431 . S
C696 C698 1.403 . S
C697 C696 1.431 . S
C697 C701 1.393 . S
C698 H687 0.950 1_556 S
C698 C696 1.403 . S
C698 C699 1.400 . S
C699 C693 1.491 . S
C699 C698 1.400 . S
C699 C700 1.398 . S
C700 H688 0.950 . S
C700 C699 1.398 . S
C700 C701 1.391 . S
C701 H689 0.950 . S
C701 C697 1.393 . S
C701 C700 1.391 . S
H702 C710 0.950 . S
H703 C715 0.950 . S
H704 C712 0.950 . S
H705 C714 0.950 . S
H706 C716 0.950 . S
H707 C718 0.950 . S
H708 C720 0.950 . S
H709 C721 0.950 . S
C710 H702 0.950 . S
C710 C711 1.386 . S
C710 C712 1.391 . S
C711 C710 1.386 . S
C711 C715 1.393 . S
C712 H704 0.950 . S
C712 C710 1.391 . S
C712 C713 1.400 . S
C713 C712 1.400 . S
C713 C714 1.398 . S
C713 C719 1.491 . S
C714 H705 0.950 . S
C714 C713 1.398 . S
C714 C715 1.391 . S
C715 H703 0.950 . S
C715 C711 1.393 . S
C715 C714 1.391 . S
C716 H706 0.950 . S
C716 C717 1.386 . S
C716 C718 1.391 . S
C717 C716 1.386 . S
C717 C721 1.393 . S
C718 H707 0.950 . S
C718 C716 1.391 . S
C718 C719 1.400 . S
C719 C713 1.491 . S
C719 C718 1.400 . S
C719 C720 1.398 . S
C720 H708 0.950 . S
C720 C719 1.398 . S
C720 C721 1.391 . S
C721 H709 0.950 . S
C721 C717 1.393 . S
C721 C720 1.391 . S
H722 C730 0.950 . S
H723 C735 0.950 . S
H724 C732 0.950 . S
H725 C734 0.950 . S
H726 C736 0.950 . S
H727 C738 0.950 . S
H728 C740 0.950 . S
H729 C741 0.950 . S
C730 H722 0.950 . S
C730 C731 1.386 . S
C730 C732 1.391 . S
C731 C730 1.386 . S
C731 C735 1.393 . S
C732 H724 0.950 . S
C732 C730 1.391 . S
C732 C733 1.400 . S
C733 C732 1.400 . S
C733 C734 1.398 . S
C733 C739 1.491 . S
C734 H725 0.950 . S
C734 C733 1.398 . S
C734 C735 1.391 . S
C735 H723 0.950 . S
C735 C731 1.393 . S
C735 C734 1.391 . S
C736 H726 0.950 . S
C736 C737 1.386 . S
C736 C738 1.391 . S
C737 C736 1.386 . S
C737 C741 1.393 . S
C738 H727 0.950 . S
C738 C736 1.391 . S
C738 C739 1.400 . S
C739 C733 1.491 . S
C739 C738 1.400 . S
C739 C740 1.398 . S
C740 H728 0.950 . S
C740 C739 1.398 . S
C740 C741 1.391 . S
C741 H729 0.950 . S
C741 C737 1.393 . S
C741 C740 1.391 . S
H742 C750 0.950 . S
H743 C755 0.950 . S
H744 C752 0.950 . S
H745 C754 0.950 . S
H746 C756 0.950 1_556 S
H747 C758 0.950 . S
H748 C760 0.950 . S
H749 C761 0.950 . S
C750 H742 0.950 . S
C750 C751 1.386 . S
C750 C752 1.391 . S
C751 C750 1.386 . S
C751 C755 1.393 . S
C752 H744 0.950 . S
C752 C750 1.391 . S
C752 C753 1.400 . S
C753 C752 1.400 . S
C753 C754 1.398 . S
C753 C759 1.491 . S
C754 H745 0.950 . S
C754 C753 1.398 . S
C754 C755 1.391 . S
C755 H743 0.950 . S
C755 C751 1.393 . S
C755 C754 1.391 . S
C756 H746 0.950 1_554 S
C756 C757 1.386 . S
C756 C758 1.391 . S
C757 C756 1.386 . S
C757 C761 1.393 . S
C758 H747 0.950 . S
C758 C756 1.391 . S
C758 C759 1.400 . S
C759 C753 1.491 . S
C759 C758 1.400 . S
C759 C760 1.398 . S
C760 H748 0.950 . S
C760 C759 1.398 . S
C760 C761 1.391 . S
C761 H749 0.950 . S
C761 C757 1.393 . S
C761 C760 1.391 . S
H762 C770 0.950 . S
H763 C775 0.950 . S
H764 C772 0.950 . S
H765 C774 0.950 . S
H766 C776 0.950 . S
H767 C778 0.950 . S
H768 C780 0.950 . S
H769 C781 0.950 . S
C770 H762 0.950 . S
C770 C771 1.386 . S
C770 C772 1.391 . S
C771 C770 1.386 . S
C771 C775 1.393 . S
C772 H764 0.950 . S
C772 C770 1.391 . S
C772 C773 1.400 . S
C773 C772 1.400 . S
C773 C774 1.398 . S
C773 C779 1.491 1_655 S
C774 H765 0.950 . S
C774 C773 1.398 . S
C774 C775 1.391 . S
C775 H763 0.950 . S
C775 C771 1.393 . S
C775 C774 1.391 . S
C776 H766 0.950 . S
C776 C777 1.386 . S
C776 C778 1.391 . S
C777 C776 1.386 . S
C777 C781 1.393 . S
C778 H767 0.950 . S
C778 C776 1.391 . S
C778 C779 1.400 . S
C779 C773 1.491 1_455 S
C779 C778 1.400 . S
C779 C780 1.398 . S
C780 H768 0.950 . S
C780 C779 1.398 . S
C780 C781 1.391 . S
C781 H769 0.950 . S
C781 C777 1.393 . S
C781 C780 1.391 . S
H782 C790 0.950 . S
H783 C795 0.950 . S
H784 C792 0.950 . S
H785 C794 0.950 . S
H786 C796 0.950 . S
H787 C798 0.950 . S
H788 C800 0.950 . S
H789 C801 0.950 . S
C790 H782 0.950 . S
C790 C791 1.386 . S
C790 C792 1.391 . S
C791 C790 1.386 . S
C791 C795 1.393 . S
C792 H784 0.950 . S
C792 C790 1.391 . S
C792 C793 1.400 . S
C793 C792 1.400 . S
C793 C794 1.398 . S
C793 C799 1.491 . S
C794 H785 0.950 . S
C794 C793 1.398 . S
C794 C795 1.391 . S
C795 H783 0.950 . S
C795 C791 1.393 . S
C795 C794 1.391 . S
C796 H786 0.950 . S
C796 C797 1.386 . S
C796 C798 1.391 . S
C797 C796 1.386 . S
C797 C801 1.393 . S
C798 H787 0.950 . S
C798 C796 1.391 . S
C798 C799 1.400 . S
C799 C793 1.491 . S
C799 C798 1.400 . S
C799 C800 1.398 . S
C800 H788 0.950 . S
C800 C799 1.398 . S
C800 C801 1.391 . S
C801 H789 0.950 . S
C801 C797 1.393 . S
C801 C800 1.391 . S
H802 C810 0.950 . S
H803 C815 0.950 . S
H804 C812 0.950 . S
H805 C814 0.950 . S
H806 C816 0.950 . S
H807 C818 0.950 . S
H808 C820 0.950 . S
H809 C821 0.950 . S
C810 H802 0.950 . S
C810 C811 1.386 . S
C810 C812 1.391 . S
C811 C810 1.386 . S
C811 C815 1.393 . S
C812 H804 0.950 . S
C812 C810 1.391 . S
C812 C813 1.400 . S
C813 C812 1.400 . S
C813 C814 1.398 . S
C813 C819 1.491 1_545 S
C814 H805 0.950 . S
C814 C813 1.398 . S
C814 C815 1.391 . S
C815 H803 0.950 . S
C815 C811 1.393 . S
C815 C814 1.391 . S
C816 H806 0.950 . S
C816 C817 1.386 . S
C816 C818 1.391 . S
C817 C816 1.386 . S
C817 C821 1.393 . S
C818 H807 0.950 . S
C818 C816 1.391 . S
C818 C819 1.400 . S
C819 C813 1.491 1_565 S
C819 C818 1.400 . S
C819 C820 1.398 . S
C820 H808 0.950 . S
C820 C819 1.398 . S
C820 C821 1.391 . S
C821 H809 0.950 . S
C821 C817 1.393 . S
C821 C820 1.391 . S
H822 C830 0.950 . S
H823 C835 0.950 . S
H824 C832 0.950 . S
H825 C834 0.950 . S
H826 C836 0.950 . S
H827 C838 0.950 . S
H828 C840 0.950 . S
H829 C841 0.950 . S
C830 H822 0.950 . S
C830 C831 1.386 . S
C830 C832 1.391 . S
C831 C830 1.386 . S
C831 C835 1.393 . S
C832 H824 0.950 . S
C832 C830 1.391 . S
C832 C833 1.400 . S
C833 C832 1.400 . S
C833 C834 1.398 . S
C833 C839 1.491 . S
C834 H825 0.950 . S
C834 C833 1.398 . S
C834 C835 1.391 . S
C835 H823 0.950 . S
C835 C831 1.393 . S
C835 C834 1.391 . S
C836 H826 0.950 . S
C836 C837 1.386 . S
C836 C838 1.391 . S
C837 C836 1.386 . S
C837 C841 1.393 . S
C838 H827 0.950 . S
C838 C836 1.391 . S
C838 C839 1.400 . S
C839 C833 1.491 . S
C839 C838 1.400 . S
C839 C840 1.398 . S
C840 H828 0.950 . S
C840 C839 1.398 . S
C840 C841 1.391 . S
C841 H829 0.950 . S
C841 C837 1.393 . S
C841 C840 1.391 . S
H842 C850 0.950 . S
H843 C855 0.950 . S
H844 C852 0.950 . S
H845 C854 0.950 . S
H846 C856 0.950 . S
H847 C858 0.950 . S
H848 C860 0.950 . S
H849 C861 0.950 . S
C850 H842 0.950 . S
C850 C851 1.386 . S
C850 C852 1.391 . S
C851 C850 1.386 . S
C851 C855 1.393 . S
C852 H844 0.950 . S
C852 C850 1.391 . S
C852 C853 1.400 . S
C853 C852 1.400 . S
C853 C854 1.398 . S
C853 C859 1.491 . S
C854 H845 0.950 . S
C854 C853 1.398 . S
C854 C855 1.391 . S
C855 H843 0.950 . S
C855 C851 1.393 . S
C855 C854 1.391 . S
C856 H846 0.950 . S
C856 C857 1.386 . S
C856 C858 1.391 . S
C857 C856 1.386 . S
C857 C861 1.393 . S
C858 H847 0.950 . S
C858 C856 1.391 . S
C858 C859 1.400 . S
C859 C853 1.491 . S
C859 C858 1.400 . S
C859 C860 1.398 . S
C860 H848 0.950 . S
C860 C859 1.398 . S
C860 C861 1.391 . S
C861 H849 0.950 . S
C861 C857 1.393 . S
C861 C860 1.391 . S
H862 C870 0.950 . S
H863 C875 0.950 . S
H864 C872 0.950 . S
H865 C874 0.950 . S
H866 C876 0.950 . S
H867 C878 0.950 . S
H868 C880 0.950 . S
H869 C881 0.950 . S
C870 H862 0.950 . S
C870 C871 1.386 . S
C870 C872 1.391 . S
C871 C870 1.386 . S
C871 C875 1.393 . S
C872 H864 0.950 . S
C872 C870 1.391 . S
C872 C873 1.400 . S
C873 C872 1.400 . S
C873 C874 1.398 . S
C873 C879 1.491 . S
C874 H865 0.950 . S
C874 C873 1.398 . S
C874 C875 1.391 . S
C875 H863 0.950 . S
C875 C871 1.393 . S
C875 C874 1.391 . S
C876 H866 0.950 . S
C876 C877 1.386 . S
C876 C878 1.391 . S
C877 C876 1.386 . S
C877 C881 1.393 . S
C878 H867 0.950 . S
C878 C876 1.391 . S
C878 C879 1.400 . S
C879 C873 1.491 . S
C879 C878 1.400 . S
C879 C880 1.398 . S
C880 H868 0.950 . S
C880 C879 1.398 . S
C880 C881 1.391 . S
C881 H869 0.950 . S
C881 C877 1.393 . S
C881 C880 1.391 . S
H882 C890 0.950 . S
H883 C895 0.950 . S
H884 C892 0.950 . S
H885 C894 0.950 . S
H886 C896 0.950 . S
H887 C898 0.950 . S
H888 C900 0.950 . S
H889 C901 0.950 . S
C890 H882 0.950 . S
C890 C891 1.386 . S
C890 C892 1.391 . S
C891 C890 1.386 . S
C891 C895 1.393 . S
C892 H884 0.950 . S
C892 C890 1.391 . S
C892 C893 1.400 . S
C893 C892 1.400 . S
C893 C894 1.398 . S
C893 C899 1.491 . S
C894 H885 0.950 . S
C894 C893 1.398 . S
C894 C895 1.391 . S
C895 H883 0.950 . S
C895 C891 1.393 . S
C895 C894 1.391 . S
C896 H886 0.950 . S
C896 C897 1.386 . S
C896 C898 1.391 . S
C897 C896 1.386 . S
C897 C901 1.393 . S
C898 H887 0.950 . S
C898 C896 1.391 . S
C898 C899 1.400 . S
C899 C893 1.491 . S
C899 C898 1.400 . S
C899 C900 1.398 . S
C900 H888 0.950 . S
C900 C899 1.398 . S
C900 C901 1.391 . S
C901 H889 0.950 . S
C901 C897 1.393 . S
C901 C900 1.391 . S
H902 C910 0.950 . S
H903 C915 0.950 . S
H904 C912 0.950 . S
H905 C914 0.950 . S
H906 C916 0.950 . S
H907 C918 0.950 . S
H908 C920 0.950 . S
H909 C921 0.950 . S
C910 H902 0.950 . S
C910 C911 1.386 . S
C910 C912 1.391 . S
C911 C910 1.386 . S
C911 C915 1.393 . S
C912 H904 0.950 . S
C912 C910 1.391 . S
C912 C913 1.400 . S
C913 C912 1.400 . S
C913 C914 1.398 . S
C913 C919 1.491 . S
C914 H905 0.950 . S
C914 C913 1.398 . S
C914 C915 1.391 . S
C915 H903 0.950 . S
C915 C911 1.393 . S
C915 C914 1.391 . S
C916 H906 0.950 . S
C916 C917 1.386 . S
C916 C918 1.391 . S
C917 C916 1.386 . S
C917 C921 1.393 . S
C918 H907 0.950 . S
C918 C916 1.391 . S
C918 C919 1.400 . S
C919 C913 1.491 . S
C919 C918 1.400 . S
C919 C920 1.398 . S
C920 H908 0.950 . S
C920 C919 1.398 . S
C920 C921 1.391 . S
C921 H909 0.950 . S
C921 C917 1.393 . S
C921 C920 1.391 . S
H922 C930 0.950 . S
H923 C935 0.950 . S
H924 C932 0.950 . S
H925 C934 0.950 . S
H926 C936 0.950 . S
H927 C938 0.950 . S
H928 C940 0.950 . S
H929 C941 0.950 . S
C930 H922 0.950 . S
C930 C931 1.386 . S
C930 C932 1.391 . S
C931 C930 1.386 . S
C931 C935 1.393 . S
C932 H924 0.950 . S
C932 C930 1.391 . S
C932 C933 1.400 . S
C933 C932 1.400 . S
C933 C934 1.398 . S
C933 C939 1.491 . S
C934 H925 0.950 . S
C934 C933 1.398 . S
C934 C935 1.391 . S
C935 H923 0.950 . S
C935 C931 1.393 . S
C935 C934 1.391 . S
C936 H926 0.950 . S
C936 C937 1.386 . S
C936 C938 1.391 . S
C937 C936 1.386 . S
C937 C941 1.393 . S
C938 H927 0.950 . S
C938 C936 1.391 . S
C938 C939 1.400 . S
C939 C933 1.491 . S
C939 C938 1.400 . S
C939 C940 1.398 . S
C940 H928 0.950 . S
C940 C939 1.398 . S
C940 C941 1.391 . S
C941 H929 0.950 . S
C941 C937 1.393 . S
C941 C940 1.391 . S
H942 C950 0.950 . S
H943 C955 0.950 . S
H944 C952 0.950 . S
H945 C954 0.950 . S
H946 C956 0.950 . S
H947 C958 0.950 . S
H948 C960 0.950 . S
H949 C961 0.950 . S
C950 H942 0.950 . S
C950 C951 1.386 . S
C950 C952 1.391 . S
C951 C950 1.386 . S
C951 C955 1.393 . S
C952 H944 0.950 . S
C952 C950 1.391 . S
C952 C953 1.400 . S
C953 C952 1.400 . S
C953 C954 1.398 . S
C953 C959 1.491 1_545 S
C954 H945 0.950 . S
C954 C953 1.398 . S
C954 C955 1.391 . S
C955 H943 0.950 . S
C955 C951 1.393 . S
C955 C954 1.391 . S
C956 H946 0.950 . S
C956 C957 1.386 . S
C956 C958 1.391 . S
C957 C956 1.386 . S
C957 C961 1.393 . S
C958 H947 0.950 . S
C958 C956 1.391 . S
C958 C959 1.400 . S
C959 C953 1.491 1_565 S
C959 C958 1.400 . S
C959 C960 1.398 . S
C960 H948 0.950 . S
C960 C959 1.398 . S
C960 C961 1.391 . S
C961 H949 0.950 . S
C961 C957 1.393 . S
C961 C960 1.391 . S
H962 C970 0.950 . S
H963 C975 0.950 . S
H964 C972 0.950 1_455 S
H965 C974 0.950 . S
H966 C976 0.950 . S
H967 C978 0.950 . S
H968 C980 0.950 . S
H969 C981 0.950 . S
C970 H962 0.950 . S
C970 C971 1.386 . S
C970 C972 1.391 . S
C971 C970 1.386 . S
C971 C975 1.393 . S
C972 H964 0.950 1_655 S
C972 C970 1.391 . S
C972 C973 1.400 . S
C973 C972 1.400 . S
C973 C974 1.398 . S
C973 C979 1.491 1_655 S
C974 H965 0.950 . S
C974 C973 1.398 . S
C974 C975 1.391 . S
C975 H963 0.950 . S
C975 C971 1.393 . S
C975 C974 1.391 . S
C976 H966 0.950 . S
C976 C977 1.386 . S
C976 C978 1.391 . S
C977 C976 1.386 . S
C977 C981 1.393 . S
C978 H967 0.950 . S
C978 C976 1.391 . S
C978 C979 1.400 . S
C979 C973 1.491 1_455 S
C979 C978 1.400 . S
C979 C980 1.398 . S
C980 H968 0.950 . S
C980 C979 1.398 . S
C980 C981 1.391 . S
C981 H969 0.950 . S
C981 C977 1.393 . S
C981 C980 1.391 . S
H982 C990 0.950 . S
H983 C995 0.950 . S
H984 C992 0.950 . S
H985 C994 0.950 . S
H986 C996 0.950 . S
H987 C998 0.950 . S
H988 C1000 0.950 . S
H989 C1001 0.950 . S
C990 H982 0.950 . S
C990 C991 1.386 . S
C990 C992 1.391 . S
C991 C990 1.386 . S
C991 C995 1.393 . S
C992 H984 0.950 . S
C992 C990 1.391 . S
C992 C993 1.400 . S
C993 C992 1.400 . S
C993 C994 1.398 . S
C993 C999 1.491 . S
C994 H985 0.950 . S
C994 C993 1.398 . S
C994 C995 1.391 . S
C995 H983 0.950 . S
C995 C991 1.393 . S
C995 C994 1.391 . S
C996 H986 0.950 . S
C996 C997 1.386 . S
C996 C998 1.391 . S
C997 C996 1.386 . S
C997 C1001 1.393 . S
C998 H987 0.950 . S
C998 C996 1.391 . S
C998 C999 1.400 . S
C999 C993 1.491 . S
C999 C998 1.400 . S
C999 C1000 1.398 . S
C1000 H988 0.950 . S
C1000 C999 1.398 . S
C1000 C1001 1.391 . S
C1001 H989 0.950 . S
C1001 C997 1.393 . S
C1001 C1000 1.391 . S
H1002 C1010 0.950 . S
H1003 C1015 0.950 . S
H1004 C1012 0.950 . S
H1005 C1014 0.950 . S
H1006 C1016 0.950 . S
H1007 C1018 0.950 . S
H1008 C1020 0.950 . S
H1009 C1021 0.950 . S
C1010 H1002 0.950 . S
C1010 C1011 1.386 . S
C1010 C1012 1.391 . S
C1011 C1010 1.386 . S
C1011 C1015 1.393 . S
C1012 H1004 0.950 . S
C1012 C1010 1.391 . S
C1012 C1013 1.400 . S
C1013 C1012 1.400 . S
C1013 C1014 1.398 . S
C1013 C1019 1.491 . S
C1014 H1005 0.950 . S
C1014 C1013 1.398 . S
C1014 C1015 1.391 . S
C1015 H1003 0.950 . S
C1015 C1011 1.393 . S
C1015 C1014 1.391 . S
C1016 H1006 0.950 . S
C1016 C1017 1.386 . S
C1016 C1018 1.391 . S
C1017 C1016 1.386 . S
C1017 C1021 1.393 . S
C1018 H1007 0.950 . S
C1018 C1016 1.391 . S
C1018 C1019 1.400 . S
C1019 C1013 1.491 . S
C1019 C1018 1.400 . S
C1019 C1020 1.398 . S
C1020 H1008 0.950 . S
C1020 C1019 1.398 . S
C1020 C1021 1.391 . S
C1021 H1009 0.950 . S
C1021 C1017 1.393 . S
C1021 C1020 1.391 . S
H1022 C1030 0.950 . S
H1023 C1035 0.950 . S
H1024 C1032 0.950 . S
H1025 C1034 0.950 . S
H1026 C1036 0.950 . S
H1027 C1038 0.950 . S
H1028 C1040 0.950 . S
H1029 C1041 0.950 . S
C1030 H1022 0.950 . S
C1030 C1031 1.386 . S
C1030 C1032 1.391 . S
C1031 C1030 1.386 . S
C1031 C1035 1.393 . S
C1032 H1024 0.950 . S
C1032 C1030 1.391 . S
C1032 C1033 1.400 . S
C1033 C1032 1.400 . S
C1033 C1034 1.398 . S
C1033 C1039 1.491 . S
C1034 H1025 0.950 . S
C1034 C1033 1.398 . S
C1034 C1035 1.391 . S
C1035 H1023 0.950 . S
C1035 C1031 1.393 . S
C1035 C1034 1.391 . S
C1036 H1026 0.950 . S
C1036 C1037 1.386 . S
C1036 C1038 1.391 . S
C1037 C1036 1.386 . S
C1037 C1041 1.393 . S
C1038 H1027 0.950 . S
C1038 C1036 1.391 . S
C1038 C1039 1.400 . S
C1039 C1033 1.491 . S
C1039 C1038 1.400 . S
C1039 C1040 1.398 . S
C1040 H1028 0.950 . S
C1040 C1039 1.398 . S
C1040 C1041 1.391 . S
C1041 H1029 0.950 . S
C1041 C1037 1.393 . S
C1041 C1040 1.391 . S
H1042 C1050 0.950 . S
H1043 C1055 0.950 . S
H1044 C1052 0.950 . S
H1045 C1054 0.950 . S
H1046 C1056 0.950 . S
H1047 C1058 0.950 . S
H1048 C1060 0.950 . S
H1049 C1061 0.950 . S
C1050 H1042 0.950 . S
C1050 C1051 1.386 . S
C1050 C1052 1.391 . S
C1051 C1050 1.386 . S
C1051 C1055 1.393 . S
C1052 H1044 0.950 . S
C1052 C1050 1.391 . S
C1052 C1053 1.400 . S
C1053 C1052 1.400 . S
C1053 C1054 1.398 . S
C1053 C1059 1.491 . S
C1054 H1045 0.950 . S
C1054 C1053 1.398 . S
C1054 C1055 1.391 . S
C1055 H1043 0.950 . S
C1055 C1051 1.393 . S
C1055 C1054 1.391 . S
C1056 H1046 0.950 . S
C1056 C1057 1.386 . S
C1056 C1058 1.391 . S
C1057 C1056 1.386 . S
C1057 C1061 1.393 . S
C1058 H1047 0.950 . S
C1058 C1056 1.391 . S
C1058 C1059 1.400 . S
C1059 C1053 1.491 . S
C1059 C1058 1.400 . S
C1059 C1060 1.398 . S
C1060 H1048 0.950 . S
C1060 C1059 1.398 . S
C1060 C1061 1.391 . S
C1061 H1049 0.950 . S
C1061 C1057 1.393 . S
C1061 C1060 1.391 . S
H1062 C1070 0.950 . S
H1063 C1075 0.950 . S
H1064 C1072 0.950 . S
H1065 C1074 0.950 . S
H1066 C1076 0.950 . S
H1067 C1078 0.950 . S
H1068 C1080 0.950 . S
H1069 C1081 0.950 . S
C1070 H1062 0.950 . S
C1070 C1071 1.386 . S
C1070 C1072 1.391 . S
C1071 C1070 1.386 . S
C1071 C1075 1.393 . S
C1072 H1064 0.950 . S
C1072 C1070 1.391 . S
C1072 C1073 1.400 . S
C1073 C1072 1.400 . S
C1073 C1074 1.398 . S
C1073 C1079 1.491 1_565 S
C1074 H1065 0.950 . S
C1074 C1073 1.398 . S
C1074 C1075 1.391 . S
C1075 H1063 0.950 . S
C1075 C1071 1.393 . S
C1075 C1074 1.391 . S
C1076 H1066 0.950 . S
C1076 C1077 1.386 . S
C1076 C1078 1.391 . S
C1077 C1076 1.386 . S
C1077 C1081 1.393 . S
C1078 H1067 0.950 . S
C1078 C1076 1.391 . S
C1078 C1079 1.400 . S
C1079 C1073 1.491 1_545 S
C1079 C1078 1.400 . S
C1079 C1080 1.398 . S
C1080 H1068 0.950 . S
C1080 C1079 1.398 . S
C1080 C1081 1.391 . S
C1081 H1069 0.950 . S
C1081 C1077 1.393 . S
C1081 C1080 1.391 . S
H1082 C1090 0.950 . S
H1083 C1095 0.950 . S
H1084 C1092 0.950 . S
H1085 C1094 0.950 1_655 S
H1086 C1096 0.950 . S
H1087 C1098 0.950 . S
H1088 C1100 0.950 . S
H1089 C1101 0.950 . S
C1090 H1082 0.950 . S
C1090 C1091 1.386 . S
C1090 C1092 1.391 . S
C1091 C1090 1.386 . S
C1091 C1095 1.393 . S
C1092 H1084 0.950 . S
C1092 C1090 1.391 . S
C1092 C1093 1.400 . S
C1093 C1092 1.400 . S
C1093 C1094 1.398 . S
C1093 C1099 1.491 1_455 S
C1094 H1085 0.950 1_455 S
C1094 C1093 1.398 . S
C1094 C1095 1.391 . S
C1095 H1083 0.950 . S
C1095 C1091 1.393 . S
C1095 C1094 1.391 . S
C1096 H1086 0.950 . S
C1096 C1097 1.386 . S
C1096 C1098 1.391 . S
C1097 C1096 1.386 . S
C1097 C1101 1.393 . S
C1098 H1087 0.950 . S
C1098 C1096 1.391 . S
C1098 C1099 1.400 . S
C1099 C1093 1.491 1_655 S
C1099 C1098 1.400 . S
C1099 C1100 1.398 . S
C1100 H1088 0.950 . S
C1100 C1099 1.398 . S
C1100 C1101 1.391 . S
C1101 H1089 0.950 . S
C1101 C1097 1.393 . S
C1101 C1100 1.391 . S
H1102 C1110 0.950 . S
H1103 C1115 0.950 . S
H1104 C1112 0.950 . S
H1105 C1114 0.950 . S
H1106 C1116 0.950 . S
H1107 C1118 0.950 . S
H1108 C1120 0.950 . S
H1109 C1121 0.950 . S
C1110 H1102 0.950 . S
C1110 C1111 1.386 . S
C1110 C1112 1.391 . S
C1111 C1110 1.386 . S
C1111 C1115 1.393 . S
C1112 H1104 0.950 . S
C1112 C1110 1.391 . S
C1112 C1113 1.400 . S
C1113 C1112 1.400 . S
C1113 C1114 1.398 . S
C1113 C1119 1.491 . S
C1114 H1105 0.950 . S
C1114 C1113 1.398 . S
C1114 C1115 1.391 . S
C1115 H1103 0.950 . S
C1115 C1111 1.393 . S
C1115 C1114 1.391 . S
C1116 H1106 0.950 . S
C1116 C1117 1.386 . S
C1116 C1118 1.391 . S
C1117 C1116 1.386 . S
C1117 C1121 1.393 . S
C1118 H1107 0.950 . S
C1118 C1116 1.391 . S
C1118 C1119 1.400 . S
C1119 C1113 1.491 . S
C1119 C1118 1.400 . S
C1119 C1120 1.398 . S
C1120 H1108 0.950 . S
C1120 C1119 1.398 . S
C1120 C1121 1.391 . S
C1121 H1109 0.950 . S
C1121 C1117 1.393 . S
C1121 C1120 1.391 . S
H1122 C1130 0.950 . S
H1123 C1135 0.950 . S
H1124 C1132 0.950 . S
H1125 C1134 0.950 . S
H1126 C1136 0.950 . S
H1127 C1138 0.950 . S
H1128 C1140 0.950 . S
H1129 C1141 0.950 . S
C1130 H1122 0.950 . S
C1130 C1131 1.386 . S
C1130 C1132 1.391 . S
C1131 C1130 1.386 . S
C1131 C1135 1.393 . S
C1132 H1124 0.950 . S
C1132 C1130 1.391 . S
C1132 C1133 1.400 . S
C1133 C1132 1.400 . S
C1133 C1134 1.398 . S
C1133 C1139 1.491 1_455 S
C1134 H1125 0.950 . S
C1134 C1133 1.398 . S
C1134 C1135 1.391 . S
C1135 H1123 0.950 . S
C1135 C1131 1.393 . S
C1135 C1134 1.391 . S
C1136 H1126 0.950 . S
C1136 C1137 1.386 . S
C1136 C1138 1.391 . S
C1137 C1136 1.386 . S
C1137 C1141 1.393 . S
C1138 H1127 0.950 . S
C1138 C1136 1.391 . S
C1138 C1139 1.400 . S
C1139 C1133 1.491 1_655 S
C1139 C1138 1.400 . S
C1139 C1140 1.398 . S
C1140 H1128 0.950 . S
C1140 C1139 1.398 . S
C1140 C1141 1.391 . S
C1141 H1129 0.950 . S
C1141 C1137 1.393 . S
C1141 C1140 1.391 . S
H1142 C1150 0.950 . S
H1143 C1155 0.950 . S
H1144 C1152 0.950 . S
H1145 C1154 0.950 . S
H1146 C1156 0.950 . S
H1147 C1158 0.950 . S
H1148 C1160 0.950 . S
H1149 C1161 0.950 . S
C1150 H1142 0.950 . S
C1150 C1151 1.386 . S
C1150 C1152 1.391 . S
C1151 C1150 1.386 . S
C1151 C1155 1.393 . S
C1152 H1144 0.950 . S
C1152 C1150 1.391 . S
C1152 C1153 1.400 . S
C1153 C1152 1.400 . S
C1153 C1154 1.398 . S
C1153 C1159 1.491 . S
C1154 H1145 0.950 . S
C1154 C1153 1.398 . S
C1154 C1155 1.391 . S
C1155 H1143 0.950 . S
C1155 C1151 1.393 . S
C1155 C1154 1.391 . S
C1156 H1146 0.950 . S
C1156 C1157 1.386 . S
C1156 C1158 1.391 . S
C1157 C1156 1.386 . S
C1157 C1161 1.393 . S
C1158 H1147 0.950 . S
C1158 C1156 1.391 . S
C1158 C1159 1.400 . S
C1159 C1153 1.491 . S
C1159 C1158 1.400 . S
C1159 C1160 1.398 . S
C1160 H1148 0.950 . S
C1160 C1159 1.398 . S
C1160 C1161 1.391 . S
C1161 H1149 0.950 . S
C1161 C1157 1.393 . S
C1161 C1160 1.391 . S
H1162 C1170 0.950 . S
H1163 C1175 0.950 . S
H1164 C1172 0.950 . S
H1165 C1174 0.950 . S
H1166 C1176 0.950 . S
H1167 C1178 0.950 . S
H1168 C1180 0.950 . S
H1169 C1181 0.950 . S
C1170 H1162 0.950 . S
C1170 C1171 1.386 . S
C1170 C1172 1.391 . S
C1171 C1170 1.386 . S
C1171 C1175 1.393 . S
C1172 H1164 0.950 . S
C1172 C1170 1.391 . S
C1172 C1173 1.400 . S
C1173 C1172 1.400 . S
C1173 C1174 1.398 . S
C1173 C1179 1.491 1_565 S
C1174 H1165 0.950 . S
C1174 C1173 1.398 . S
C1174 C1175 1.391 . S
C1175 H1163 0.950 . S
C1175 C1171 1.393 . S
C1175 C1174 1.391 . S
C1176 H1166 0.950 . S
C1176 C1177 1.386 . S
C1176 C1178 1.391 . S
C1177 C1176 1.386 . S
C1177 C1181 1.393 . S
C1178 H1167 0.950 . S
C1178 C1176 1.391 . S
C1178 C1179 1.400 . S
C1179 C1173 1.491 1_545 S
C1179 C1178 1.400 . S
C1179 C1180 1.398 . S
C1180 H1168 0.950 . S
C1180 C1179 1.398 . S
C1180 C1181 1.391 . S
C1181 H1169 0.950 . S
C1181 C1177 1.393 . S
C1181 C1180 1.391 . S
H1182 C1190 0.950 . S
H1183 C1195 0.950 . S
H1184 C1192 0.950 . S
H1185 C1194 0.950 . S
H1186 C1196 0.950 . S
H1187 C1198 0.950 . S
H1188 C1200 0.950 . S
H1189 C1201 0.950 . S
C1190 H1182 0.950 . S
C1190 C1191 1.386 . S
C1190 C1192 1.391 . S
C1191 C1190 1.386 . S
C1191 C1195 1.393 . S
C1192 H1184 0.950 . S
C1192 C1190 1.391 . S
C1192 C1193 1.400 . S
C1193 C1192 1.400 . S
C1193 C1194 1.398 . S
C1193 C1199 1.491 . S
C1194 H1185 0.950 . S
C1194 C1193 1.398 . S
C1194 C1195 1.391 . S
C1195 H1183 0.950 . S
C1195 C1191 1.393 . S
C1195 C1194 1.391 . S
C1196 H1186 0.950 . S
C1196 C1197 1.386 . S
C1196 C1198 1.391 . S
C1197 C1196 1.386 . S
C1197 C1201 1.393 . S
C1198 H1187 0.950 . S
C1198 C1196 1.391 . S
C1198 C1199 1.400 . S
C1199 C1193 1.491 . S
C1199 C1198 1.400 . S
C1199 C1200 1.398 . S
C1200 H1188 0.950 . S
C1200 C1199 1.398 . S
C1200 C1201 1.391 . S
C1201 H1189 0.950 . S
C1201 C1197 1.393 . S
C1201 C1200 1.391 . S
H1202 C1210 0.950 . S
H1203 C1215 0.950 . S
H1204 C1212 0.950 . S
H1205 C1214 0.950 . S
H1206 C1216 0.950 . S
H1207 C1218 0.950 . S
H1208 C1220 0.950 . S
H1209 C1221 0.950 . S
C1210 H1202 0.950 . S
C1210 C1211 1.386 . S
C1210 C1212 1.391 . S
C1211 C1210 1.386 . S
C1211 C1215 1.393 . S
C1212 H1204 0.950 . S
C1212 C1210 1.391 . S
C1212 C1213 1.400 . S
C1213 C1212 1.400 . S
C1213 C1214 1.398 . S
C1213 C1219 1.491 . S
C1214 H1205 0.950 . S
C1214 C1213 1.398 . S
C1214 C1215 1.391 . S
C1215 H1203 0.950 . S
C1215 C1211 1.393 . S
C1215 C1214 1.391 . S
C1216 H1206 0.950 . S
C1216 C1217 1.386 . S
C1216 C1218 1.391 . S
C1217 C1216 1.386 . S
C1217 C1221 1.393 . S
C1218 H1207 0.950 . S
C1218 C1216 1.391 . S
C1218 C1219 1.400 . S
C1219 C1213 1.491 . S
C1219 C1218 1.400 . S
C1219 C1220 1.398 . S
C1220 H1208 0.950 . S
C1220 C1219 1.398 . S
C1220 C1221 1.391 . S
C1221 H1209 0.950 . S
C1221 C1217 1.393 . S
C1221 C1220 1.391 . S
H1222 C1230 0.950 . S
H1223 C1235 0.950 . S
H1224 C1232 0.950 . S
H1225 C1234 0.950 . S
H1226 C1236 0.950 . S
H1227 C1238 0.950 . S
H1228 C1240 0.950 . S
H1229 C1241 0.950 . S
C1230 H1222 0.950 . S
C1230 C1231 1.386 . S
C1230 C1232 1.391 . S
C1231 C1230 1.386 . S
C1231 C1235 1.393 . S
C1232 H1224 0.950 . S
C1232 C1230 1.391 . S
C1232 C1233 1.400 . S
C1233 C1232 1.400 . S
C1233 C1234 1.398 . S
C1233 C1239 1.491 . S
C1234 H1225 0.950 . S
C1234 C1233 1.398 . S
C1234 C1235 1.391 . S
C1235 H1223 0.950 . S
C1235 C1231 1.393 . S
C1235 C1234 1.391 . S
C1236 H1226 0.950 . S
C1236 C1237 1.386 . S
C1236 C1238 1.391 . S
C1237 C1236 1.386 . S
C1237 C1241 1.393 . S
C1238 H1227 0.950 . S
C1238 C1236 1.391 . S
C1238 C1239 1.400 . S
C1239 C1233 1.491 . S
C1239 C1238 1.400 . S
C1239 C1240 1.398 . S
C1240 H1228 0.950 . S
C1240 C1239 1.398 . S
C1240 C1241 1.391 . S
C1241 H1229 0.950 . S
C1241 C1237 1.393 . S
C1241 C1240 1.391 . S
H1242 C1250 0.950 . S
H1243 C1255 0.950 . S
H1244 C1252 0.950 . S
H1245 C1254 0.950 . S
H1246 C1256 0.982 . S
H1247 C1258 0.943 1_545 S
H1248 C1260 0.950 . S
H1249 C1261 0.950 . S
C1250 H1242 0.950 . S
C1250 C1251 1.386 . S
C1250 C1252 1.391 . S
C1251 C1250 1.386 . S
C1251 C1255 1.393 . S
C1252 H1244 0.950 . S
C1252 C1250 1.391 . S
C1252 C1253 1.400 . S
C1253 C1252 1.400 . S
C1253 C1254 1.398 . S
C1253 C1259 1.491 . S
C1254 H1245 0.950 . S
C1254 C1253 1.398 . S
C1254 C1255 1.391 . S
C1255 H1243 0.950 . S
C1255 C1251 1.393 . S
C1255 C1254 1.391 . S
C1256 H1246 0.982 . S
C1256 C1257 1.365 1_545 S
C1256 C1258 1.380 1_545 S
C1257 C1256 1.365 1_565 S
C1257 C1261 1.393 . S
C1258 H1247 0.943 1_565 S
C1258 C1256 1.380 1_565 S
C1258 C1259 1.400 . S
C1259 C1253 1.491 . S
C1259 C1258 1.400 . S
C1259 C1260 1.398 . S
C1260 H1248 0.950 . S
C1260 C1259 1.398 . S
C1260 C1261 1.391 . S
C1261 H1249 0.950 . S
C1261 C1257 1.393 . S
C1261 C1260 1.391 . S
H1262 C1270 0.950 . S
H1263 C1275 0.950 . S
H1264 C1272 0.950 . S
H1265 C1274 0.950 . S
H1266 C1276 0.950 . S
H1267 C1278 0.950 . S
H1268 C1280 0.950 . S
H1269 C1281 0.950 . S
C1270 H1262 0.950 . S
C1270 C1271 1.386 . S
C1270 C1272 1.391 . S
C1271 C1270 1.386 . S
C1271 C1275 1.393 1_455 S
C1272 H1264 0.950 . S
C1272 C1270 1.391 . S
C1272 C1273 1.400 . S
C1273 C1272 1.400 . S
C1273 C1274 1.398 1_455 S
C1273 C1279 1.491 . S
C1274 H1265 0.950 . S
C1274 C1273 1.398 1_655 S
C1274 C1275 1.391 . S
C1275 H1263 0.950 . S
C1275 C1271 1.393 1_655 S
C1275 C1274 1.391 . S
C1276 H1266 0.950 . S
C1276 C1277 1.386 1_655 S
C1276 C1278 1.391 . S
C1277 C1276 1.386 1_455 S
C1277 C1281 1.393 . S
C1278 H1267 0.950 . S
C1278 C1276 1.391 . S
C1278 C1279 1.400 1_655 S
C1279 C1273 1.491 . S
C1279 C1278 1.400 1_455 S
C1279 C1280 1.398 . S
C1280 H1268 0.950 . S
C1280 C1279 1.398 . S
C1280 C1281 1.391 . S
C1281 H1269 0.950 . S
C1281 C1277 1.393 . S
C1281 C1280 1.391 . S
H1282 C1290 0.950 . S
H1283 C1295 0.950 . S
H1284 C1292 0.950 . S
H1285 C1294 0.950 . S
H1286 C1296 0.950 . S
H1287 C1298 0.950 . S
H1288 C1300 0.950 . S
H1289 C1301 0.950 . S
C1290 H1282 0.950 . S
C1290 C1291 1.386 . S
C1290 C1292 1.391 . S
C1291 C1290 1.386 . S
C1291 C1295 1.393 . S
C1292 H1284 0.950 . S
C1292 C1290 1.391 . S
C1292 C1293 1.400 . S
C1293 C1292 1.400 . S
C1293 C1294 1.398 . S
C1293 C1299 1.491 . S
C1294 H1285 0.950 . S
C1294 C1293 1.398 . S
C1294 C1295 1.391 . S
C1295 H1283 0.950 . S
C1295 C1291 1.393 . S
C1295 C1294 1.391 . S
C1296 H1286 0.950 . S
C1296 C1297 1.386 . S
C1296 C1298 1.391 . S
C1297 C1296 1.386 . S
C1297 C1301 1.393 . S
C1298 H1287 0.950 . S
C1298 C1296 1.391 . S
C1298 C1299 1.400 . S
C1299 C1293 1.491 . S
C1299 C1298 1.400 . S
C1299 C1300 1.398 . S
C1300 H1288 0.950 . S
C1300 C1299 1.398 . S
C1300 C1301 1.391 . S
C1301 H1289 0.950 . S
C1301 C1297 1.393 . S
C1301 C1300 1.391 . S
H1302 C1310 0.950 . S
H1303 C1315 0.950 . S
H1304 C1312 0.950 . S
H1305 C1314 0.950 . S
H1306 C1316 0.950 . S
H1307 C1318 0.950 . S
H1308 C1320 0.950 . S
H1309 C1321 0.950 . S
C1310 H1302 0.950 . S
C1310 C1311 1.386 . S
C1310 C1312 1.391 . S
C1311 C1310 1.386 . S
C1311 C1315 1.393 . S
C1312 H1304 0.950 . S
C1312 C1310 1.391 . S
C1312 C1313 1.400 . S
C1313 C1312 1.400 . S
C1313 C1314 1.398 . S
C1313 C1319 1.491 . S
C1314 H1305 0.950 . S
C1314 C1313 1.398 . S
C1314 C1315 1.391 . S
C1315 H1303 0.950 . S
C1315 C1311 1.393 . S
C1315 C1314 1.391 . S
C1316 H1306 0.950 . S
C1316 C1317 1.386 . S
C1316 C1318 1.391 . S
C1317 C1316 1.386 . S
C1317 C1321 1.393 . S
C1318 H1307 0.950 . S
C1318 C1316 1.391 . S
C1318 C1319 1.400 . S
C1319 C1313 1.491 . S
C1319 C1318 1.400 . S
C1319 C1320 1.398 . S
C1320 H1308 0.950 . S
C1320 C1319 1.398 . S
C1320 C1321 1.391 . S
C1321 H1309 0.950 . S
C1321 C1317 1.393 . S
C1321 C1320 1.391 . S
H1322 C1330 0.950 . S
H1323 C1335 0.950 . S
H1324 C1332 0.950 . S
H1325 C1334 0.950 . S
H1326 C1336 0.950 . S
H1327 C1338 0.950 . S
H1328 C1340 0.950 . S
H1329 C1341 0.950 . S
C1330 H1322 0.950 . S
C1330 C1331 1.386 . S
C1330 C1332 1.391 . S
C1331 C1330 1.386 . S
C1331 C1335 1.393 . S
C1332 H1324 0.950 . S
C1332 C1330 1.391 . S
C1332 C1333 1.400 . S
C1333 C1332 1.400 . S
C1333 C1334 1.398 . S
C1333 C1339 1.491 . S
C1334 H1325 0.950 . S
C1334 C1333 1.398 . S
C1334 C1335 1.391 . S
C1335 H1323 0.950 . S
C1335 C1331 1.393 . S
C1335 C1334 1.391 . S
C1336 H1326 0.950 . S
C1336 C1337 1.386 . S
C1336 C1338 1.391 . S
C1337 C1336 1.386 . S
C1337 C1341 1.393 . S
C1338 H1327 0.950 . S
C1338 C1336 1.391 . S
C1338 C1339 1.400 . S
C1339 C1333 1.491 . S
C1339 C1338 1.400 . S
C1339 C1340 1.398 . S
C1340 H1328 0.950 . S
C1340 C1339 1.398 . S
C1340 C1341 1.391 . S
C1341 H1329 0.950 . S
C1341 C1337 1.393 . S
C1341 C1340 1.391 . S
H1342 C1350 0.950 . S
H1343 C1355 0.950 . S
H1344 C1352 0.950 . S
H1345 C1354 0.950 1_565 S
H1346 C1356 0.950 . S
H1347 C1358 0.967 . S
H1348 C1360 0.950 . S
H1349 C1361 0.950 . S
C1350 H1342 0.950 . S
C1350 C1351 1.386 . S
C1350 C1352 1.391 . S
C1351 C1350 1.386 . S
C1351 C1355 1.393 . S
C1352 H1344 0.950 . S
C1352 C1350 1.391 . S
C1352 C1353 1.400 . S
C1353 C1352 1.400 . S
C1353 C1354 1.398 . S
C1353 C1359 1.491 . S
C1354 H1345 0.950 1_545 S
C1354 C1353 1.398 . S
C1354 C1355 1.391 . S
C1355 H1343 0.950 . S
C1355 C1351 1.393 . S
C1355 C1354 1.391 . S
C1356 H1346 0.950 . S
C1356 C1357 1.386 1_565 S
C1356 C1358 1.399 . S
C1357 C1356 1.386 1_545 S
C1357 C1361 1.393 . S
C1358 H1347 0.967 . S
C1358 C1356 1.399 . S
C1358 C1359 1.376 1_565 S
C1359 C1353 1.491 . S
C1359 C1358 1.376 1_545 S
C1359 C1360 1.398 . S
C1360 H1348 0.950 . S
C1360 C1359 1.398 . S
C1360 C1361 1.391 . S
C1361 H1349 0.950 . S
C1361 C1357 1.393 . S
C1361 C1360 1.391 . S
H1362 C1370 0.950 . S
H1363 C1375 0.950 . S
H1364 C1372 0.950 . S
H1365 C1374 0.950 . S
H1366 C1376 0.950 . S
H1367 C1378 0.950 . S
H1368 C1380 0.950 . S
H1369 C1381 0.950 . S
C1370 H1362 0.950 . S
C1370 C1371 1.386 . S
C1370 C1372 1.391 . S
C1371 C1370 1.386 . S
C1371 C1375 1.393 . S
C1372 H1364 0.950 . S
C1372 C1370 1.391 . S
C1372 C1373 1.400 . S
C1373 C1372 1.400 . S
C1373 C1374 1.398 . S
C1373 C1379 1.491 . S
C1374 H1365 0.950 . S
C1374 C1373 1.398 . S
C1374 C1375 1.391 . S
C1375 H1363 0.950 . S
C1375 C1371 1.393 . S
C1375 C1374 1.391 . S
C1376 H1366 0.950 . S
C1376 C1377 1.386 . S
C1376 C1378 1.391 . S
C1377 C1376 1.386 . S
C1377 C1381 1.393 . S
C1378 H1367 0.950 . S
C1378 C1376 1.391 . S
C1378 C1379 1.400 . S
C1379 C1373 1.491 . S
C1379 C1378 1.400 . S
C1379 C1380 1.398 . S
C1380 H1368 0.950 . S
C1380 C1379 1.398 . S
C1380 C1381 1.391 . S
C1381 H1369 0.950 . S
C1381 C1377 1.393 . S
C1381 C1380 1.391 . S
H1382 C1390 0.950 . S
H1383 C1395 0.950 . S
H1384 C1392 0.950 . S
H1385 C1394 0.950 . S
H1386 C1396 0.950 . S
H1387 C1398 0.950 . S
H1388 C1400 0.950 . S
H1389 C1401 0.950 . S
C1390 H1382 0.950 . S
C1390 C1391 1.386 . S
C1390 C1392 1.391 . S
C1391 C1390 1.386 . S
C1391 C1395 1.393 . S
C1392 H1384 0.950 . S
C1392 C1390 1.391 . S
C1392 C1393 1.400 . S
C1393 C1392 1.400 . S
C1393 C1394 1.398 . S
C1393 C1399 1.491 . S
C1394 H1385 0.950 . S
C1394 C1393 1.398 . S
C1394 C1395 1.391 . S
C1395 H1383 0.950 . S
C1395 C1391 1.393 . S
C1395 C1394 1.391 . S
C1396 H1386 0.950 . S
C1396 C1397 1.386 . S
C1396 C1398 1.391 . S
C1397 C1396 1.386 . S
C1397 C1401 1.393 . S
C1398 H1387 0.950 . S
C1398 C1396 1.391 . S
C1398 C1399 1.400 . S
C1399 C1393 1.491 . S
C1399 C1398 1.400 . S
C1399 C1400 1.398 . S
C1400 H1388 0.950 . S
C1400 C1399 1.398 . S
C1400 C1401 1.391 . S
C1401 H1389 0.950 . S
C1401 C1397 1.393 . S
C1401 C1400 1.391 . S
H1402 C1410 0.950 . S
H1403 C1415 0.950 . S
H1404 C1412 0.950 . S
H1405 C1414 0.950 . S
H1406 C1416 0.950 . S
H1407 C1418 0.950 . S
H1408 C1420 0.950 . S
H1409 C1421 0.950 . S
C1410 H1402 0.950 . S
C1410 C1411 1.386 . S
C1410 C1412 1.391 . S
C1411 C1410 1.386 . S
C1411 C1415 1.393 . S
C1412 H1404 0.950 . S
C1412 C1410 1.391 . S
C1412 C1413 1.400 . S
C1413 C1412 1.400 . S
C1413 C1414 1.398 . S
C1413 C1419 1.491 . S
C1414 H1405 0.950 . S
C1414 C1413 1.398 . S
C1414 C1415 1.391 . S
C1415 H1403 0.950 . S
C1415 C1411 1.393 . S
C1415 C1414 1.391 . S
C1416 H1406 0.950 . S
C1416 C1417 1.386 . S
C1416 C1418 1.391 . S
C1417 C1416 1.386 . S
C1417 C1421 1.393 . S
C1418 H1407 0.950 . S
C1418 C1416 1.391 . S
C1418 C1419 1.400 . S
C1419 C1413 1.491 . S
C1419 C1418 1.400 . S
C1419 C1420 1.398 . S
C1420 H1408 0.950 . S
C1420 C1419 1.398 . S
C1420 C1421 1.391 . S
C1421 H1409 0.950 . S
C1421 C1417 1.393 . S
C1421 C1420 1.391 . S
H1422 C1430 0.950 . S
H1423 C1435 0.950 . S
H1424 C1432 0.950 . S
H1425 C1434 0.950 . S
H1426 C1436 0.950 . S
H1427 C1438 0.950 . S
H1428 C1440 0.950 . S
H1429 C1441 0.950 . S
C1430 H1422 0.950 . S
C1430 C1431 1.386 . S
C1430 C1432 1.391 . S
C1431 C1430 1.386 . S
C1431 C1435 1.393 . S
C1432 H1424 0.950 . S
C1432 C1430 1.391 . S
C1432 C1433 1.400 . S
C1433 C1432 1.400 . S
C1433 C1434 1.398 . S
C1433 C1439 1.491 . S
C1434 H1425 0.950 . S
C1434 C1433 1.398 . S
C1434 C1435 1.391 . S
C1435 H1423 0.950 . S
C1435 C1431 1.393 . S
C1435 C1434 1.391 . S
C1436 H1426 0.950 . S
C1436 C1437 1.386 . S
C1436 C1438 1.391 . S
C1437 C1436 1.386 . S
C1437 C1441 1.393 . S
C1438 H1427 0.950 . S
C1438 C1436 1.391 . S
C1438 C1439 1.400 . S
C1439 C1433 1.491 . S
C1439 C1438 1.400 . S
C1439 C1440 1.398 . S
C1440 H1428 0.950 . S
C1440 C1439 1.398 . S
C1440 C1441 1.391 . S
C1441 H1429 0.950 . S
C1441 C1437 1.393 . S
C1441 C1440 1.391 . S
H1442 C1450 0.950 . S
H1443 C1455 0.950 . S
H1444 C1452 0.950 . S
H1445 C1454 0.950 . S
H1446 C1456 0.950 . S
H1447 C1458 0.950 . S
H1448 C1460 0.950 . S
H1449 C1461 0.950 . S
C1450 H1442 0.950 . S
C1450 C1451 1.386 . S
C1450 C1452 1.391 . S
C1451 C1450 1.386 . S
C1451 C1455 1.393 . S
C1452 H1444 0.950 . S
C1452 C1450 1.391 . S
C1452 C1453 1.400 . S
C1453 C1452 1.400 . S
C1453 C1454 1.398 . S
C1453 C1459 1.491 . S
C1454 H1445 0.950 . S
C1454 C1453 1.398 . S
C1454 C1455 1.391 . S
C1455 H1443 0.950 . S
C1455 C1451 1.393 . S
C1455 C1454 1.391 . S
C1456 H1446 0.950 . S
C1456 C1457 1.386 . S
C1456 C1458 1.391 . S
C1457 C1456 1.386 . S
C1457 C1461 1.393 . S
C1458 H1447 0.950 . S
C1458 C1456 1.391 . S
C1458 C1459 1.400 . S
C1459 C1453 1.491 . S
C1459 C1458 1.400 . S
C1459 C1460 1.398 . S
C1460 H1448 0.950 . S
C1460 C1459 1.398 . S
C1460 C1461 1.391 . S
C1461 H1449 0.950 . S
C1461 C1457 1.393 . S
C1461 C1460 1.391 . S
H1462 C1470 0.950 . S
H1463 C1475 0.950 . S
H1464 C1472 0.950 . S
H1465 C1474 0.950 . S
H1466 C1476 0.950 . S
H1467 C1478 0.950 . S
H1468 C1480 0.950 . S
H1469 C1481 0.950 . S
C1470 H1462 0.950 . S
C1470 C1471 1.386 . S
C1470 C1472 1.391 . S
C1471 C1470 1.386 . S
C1471 C1475 1.393 . S
C1472 H1464 0.950 . S
C1472 C1470 1.391 . S
C1472 C1473 1.400 . S
C1473 C1472 1.400 . S
C1473 C1474 1.398 . S
C1473 C1479 1.491 . S
C1474 H1465 0.950 . S
C1474 C1473 1.398 . S
C1474 C1475 1.391 . S
C1475 H1463 0.950 . S
C1475 C1471 1.393 . S
C1475 C1474 1.391 . S
C1476 H1466 0.950 . S
C1476 C1477 1.386 . S
C1476 C1478 1.391 . S
C1477 C1476 1.386 . S
C1477 C1481 1.393 . S
C1478 H1467 0.950 . S
C1478 C1476 1.391 . S
C1478 C1479 1.400 . S
C1479 C1473 1.491 . S
C1479 C1478 1.400 . S
C1479 C1480 1.398 . S
C1480 H1468 0.950 . S
C1480 C1479 1.398 . S
C1480 C1481 1.391 . S
C1481 H1469 0.950 . S
C1481 C1477 1.393 . S
C1481 C1480 1.391 . S
H1482 C1490 0.950 . S
H1483 C1495 0.950 . S
H1484 C1492 0.950 . S
H1485 C1494 0.950 . S
H1486 C1496 0.950 . S
H1487 C1498 0.950 . S
H1488 C1500 0.950 . S
H1489 C1501 0.950 . S
C1490 H1482 0.950 . S
C1490 C1491 1.386 . S
C1490 C1492 1.391 . S
C1491 C1490 1.386 . S
C1491 C1495 1.393 . S
C1492 H1484 0.950 . S
C1492 C1490 1.391 . S
C1492 C1493 1.400 . S
C1493 C1492 1.400 . S
C1493 C1494 1.398 . S
C1493 C1499 1.491 . S
C1494 H1485 0.950 . S
C1494 C1493 1.398 . S
C1494 C1495 1.391 . S
C1495 H1483 0.950 . S
C1495 C1491 1.393 . S
C1495 C1494 1.391 . S
C1496 H1486 0.950 . S
C1496 C1497 1.386 . S
C1496 C1498 1.391 . S
C1497 C1496 1.386 . S
C1497 C1501 1.393 . S
C1498 H1487 0.950 . S
C1498 C1496 1.391 . S
C1498 C1499 1.400 . S
C1499 C1493 1.491 . S
C1499 C1498 1.400 . S
C1499 C1500 1.398 . S
C1500 H1488 0.950 . S
C1500 C1499 1.398 . S
C1500 C1501 1.391 . S
C1501 H1489 0.950 . S
C1501 C1497 1.393 . S
C1501 C1500 1.391 . S
H1502 C1510 0.950 . S
H1503 C1515 0.950 . S
H1504 C1512 0.950 . S
H1505 C1514 0.950 . S
H1506 C1516 0.950 . S
H1507 C1518 0.950 . S
H1508 C1520 0.950 . S
H1509 C1521 0.950 . S
C1510 H1502 0.950 . S
C1510 C1511 1.386 . S
C1510 C1512 1.391 . S
C1511 C1510 1.386 . S
C1511 C1515 1.393 . S
C1512 H1504 0.950 . S
C1512 C1510 1.391 . S
C1512 C1513 1.400 . S
C1513 C1512 1.400 . S
C1513 C1514 1.398 . S
C1513 C1519 1.491 . S
C1514 H1505 0.950 . S
C1514 C1513 1.398 . S
C1514 C1515 1.391 . S
C1515 H1503 0.950 . S
C1515 C1511 1.393 . S
C1515 C1514 1.391 . S
C1516 H1506 0.950 . S
C1516 C1517 1.386 . S
C1516 C1518 1.391 . S
C1517 C1516 1.386 . S
C1517 C1521 1.393 . S
C1518 H1507 0.950 . S
C1518 C1516 1.391 . S
C1518 C1519 1.400 . S
C1519 C1513 1.491 . S
C1519 C1518 1.400 . S
C1519 C1520 1.398 . S
C1520 H1508 0.950 . S
C1520 C1519 1.398 . S
C1520 C1521 1.391 . S
C1521 H1509 0.950 . S
C1521 C1517 1.393 . S
C1521 C1520 1.391 . S
H1522 C1530 0.950 . S
H1523 C1535 0.950 . S
H1524 C1532 0.950 . S
H1525 C1534 0.950 . S
H1526 C1536 0.950 . S
H1527 C1538 0.950 . S
H1528 C1540 0.950 . S
H1529 C1541 0.950 . S
C1530 H1522 0.950 . S
C1530 C1531 1.386 . S
C1530 C1532 1.391 . S
C1531 C1530 1.386 . S
C1531 C1535 1.393 . S
C1532 H1524 0.950 . S
C1532 C1530 1.391 . S
C1532 C1533 1.400 . S
C1533 C1532 1.400 . S
C1533 C1534 1.398 . S
C1533 C1539 1.491 . S
C1534 H1525 0.950 . S
C1534 C1533 1.398 . S
C1534 C1535 1.391 . S
C1535 H1523 0.950 . S
C1535 C1531 1.393 . S
C1535 C1534 1.391 . S
C1536 H1526 0.950 . S
C1536 C1537 1.386 . S
C1536 C1538 1.391 . S
C1537 C1536 1.386 . S
C1537 C1541 1.393 . S
C1538 H1527 0.950 . S
C1538 C1536 1.391 . S
C1538 C1539 1.400 . S
C1539 C1533 1.491 . S
C1539 C1538 1.400 . S
C1539 C1540 1.398 . S
C1540 H1528 0.950 . S
C1540 C1539 1.398 . S
C1540 C1541 1.391 . S
C1541 H1529 0.950 . S
C1541 C1537 1.393 . S
C1541 C1540 1.391 . S
H1542 C1550 0.950 . S
H1543 C1555 0.950 . S
H1544 C1552 0.950 . S
H1545 C1554 0.950 . S
H1546 C1556 0.950 . S
H1547 C1558 0.950 . S
H1548 C1560 0.950 . S
H1549 C1561 0.950 . S
C1550 H1542 0.950 . S
C1550 C1551 1.386 . S
C1550 C1552 1.391 . S
C1551 C1550 1.386 . S
C1551 C1555 1.393 . S
C1552 H1544 0.950 . S
C1552 C1550 1.391 . S
C1552 C1553 1.400 . S
C1553 C1552 1.400 . S
C1553 C1554 1.398 . S
C1553 C1559 1.491 . S
C1554 H1545 0.950 . S
C1554 C1553 1.398 . S
C1554 C1555 1.391 . S
C1555 H1543 0.950 . S
C1555 C1551 1.393 . S
C1555 C1554 1.391 . S
C1556 H1546 0.950 . S
C1556 C1557 1.386 . S
C1556 C1558 1.391 . S
C1557 C1556 1.386 . S
C1557 C1561 1.393 . S
C1558 H1547 0.950 . S
C1558 C1556 1.391 . S
C1558 C1559 1.400 . S
C1559 C1553 1.491 . S
C1559 C1558 1.400 . S
C1559 C1560 1.398 . S
C1560 H1548 0.950 . S
C1560 C1559 1.398 . S
C1560 C1561 1.391 . S
C1561 H1549 0.950 . S
C1561 C1557 1.393 . S
C1561 C1560 1.391 . S
H1562 C1570 0.950 . S
H1563 C1575 0.950 . S
H1564 C1572 0.950 . S
H1565 C1574 0.950 . S
H1566 C1576 0.950 . S
H1567 C1578 0.950 . S
H1568 C1580 0.950 . S
H1569 C1581 0.950 . S
C1570 H1562 0.950 . S
C1570 C1571 1.386 . S
C1570 C1572 1.391 . S
C1571 C1570 1.386 . S
C1571 C1575 1.393 . S
C1572 H1564 0.950 . S
C1572 C1570 1.391 . S
C1572 C1573 1.400 . S
C1573 C1572 1.400 . S
C1573 C1574 1.398 . S
C1573 C1579 1.491 . S
C1574 H1565 0.950 . S
C1574 C1573 1.398 . S
C1574 C1575 1.391 . S
C1575 H1563 0.950 . S
C1575 C1571 1.393 . S
C1575 C1574 1.391 . S
C1576 H1566 0.950 . S
C1576 C1577 1.386 . S
C1576 C1578 1.391 . S
C1577 C1576 1.386 . S
C1577 C1581 1.393 . S
C1578 H1567 0.950 . S
C1578 C1576 1.391 . S
C1578 C1579 1.400 . S
C1579 C1573 1.491 . S
C1579 C1578 1.400 . S
C1579 C1580 1.398 . S
C1580 H1568 0.950 . S
C1580 C1579 1.398 . S
C1580 C1581 1.391 . S
C1581 H1569 0.950 . S
C1581 C1577 1.393 . S
C1581 C1580 1.391 . S
H1582 C1590 0.950 . S
H1583 C1595 0.950 . S
H1584 C1592 0.950 . S
H1585 C1594 0.950 . S
H1586 C1596 0.950 . S
H1587 C1598 0.950 . S
H1588 C1600 0.950 . S
H1589 C1601 0.950 . S
C1590 H1582 0.950 . S
C1590 C1591 1.386 . S
C1590 C1592 1.391 . S
C1591 C1590 1.386 . S
C1591 C1595 1.393 . S
C1592 H1584 0.950 . S
C1592 C1590 1.391 . S
C1592 C1593 1.400 . S
C1593 C1592 1.400 . S
C1593 C1594 1.398 . S
C1593 C1599 1.491 . S
C1594 H1585 0.950 . S
C1594 C1593 1.398 . S
C1594 C1595 1.391 . S
C1595 H1583 0.950 . S
C1595 C1591 1.393 . S
C1595 C1594 1.391 . S
C1596 H1586 0.950 . S
C1596 C1597 1.386 . S
C1596 C1598 1.391 . S
C1597 C1596 1.386 . S
C1597 C1601 1.393 . S
C1598 H1587 0.950 . S
C1598 C1596 1.391 . S
C1598 C1599 1.400 . S
C1599 C1593 1.491 . S
C1599 C1598 1.400 . S
C1599 C1600 1.398 . S
C1600 H1588 0.950 . S
C1600 C1599 1.398 . S
C1600 C1601 1.391 . S
C1601 H1589 0.950 . S
C1601 C1597 1.393 . S
C1601 C1600 1.391 . S
C531 C124 1.554 . S
C537 C165 1.568 . S
C551 C130 1.722 . S
C557 C205 1.729 . S
C571 C115 1.562 . S
C577 C257 1.569 . S
C591 C106 1.483 . S
C597 C217 1.479 . S
C617 C245 1.458 . S
C611 C85 1.452 . S
C631 C97 1.295 . S
C637 C177 1.311 . S
C657 C184 1.591 . S
C651 C103 1.574 . S
C677 C224 1.711 . S
C671 C88 1.705 . S
C691 C94 1.577 . S
C697 C244 1.573 . S
C711 C121 1.470 . S
C717 C204 1.462 . S
C731 C133 1.418 . S
C737 C264 1.429 . S
C757 C164 1.333 . S
C751 C112 1.330 . S
C777 C285 1.574 . S
C771 C16 1.565 . S
C791 C22 1.729 . S
C797 C325 1.733 . S
C811 C7 1.573 . S
C817 C377 1.583 . S
C831 C160 1.484 . S
C837 C337 1.478 . S
C851 C139 1.442 . S
C857 C365 1.454 . S
C871 C151 1.296 . S
C877 C297 1.310 . S
C891 C157 1.576 . S
C897 C304 1.591 . S
C911 C142 1.705 . S
C917 C344 1.711 . S
C937 C364 1.571 . S
C931 C148 1.576 . S
C951 C13 1.477 . S
C957 C324 1.478 . S
C977 C384 1.432 . S
C971 C25 1.425 . S
C991 C4 1.319 . S
C997 C284 1.341 . S
C1017 C405 1.575 . S
C1011 C70 1.566 . S
C1031 C76 1.727 . S
C1037 C445 1.728 . S
C1057 C497 1.567 . S
C1051 C61 1.563 . S
C1077 C457 1.475 . S
C1071 C52 1.484 . S
C1097 C485 1.457 . S
C1091 C31 1.452 . S
C1111 C43 1.297 . S
C1117 C417 1.318 . S
C1131 C49 1.574 . S
C1137 C424 1.590 . S
C1151 C34 1.697 . S
C1157 C464 1.705 . S
C1177 C484 1.580 . S
C1171 C40 1.578 . S
C1191 C67 1.470 . S
C1197 C444 1.473 . S
C1211 C79 1.425 . S
C1217 C504 1.433 . S
C1231 C58 1.324 . S
C1237 C404 1.331 . S
C1251 C140 1.394 . S
C1257 C188 1.378 . S
C1277 C228 1.721 . S
C1271 C149 1.739 . S
C1291 C158 1.548 . S
C1297 C251 1.541 . S
C1311 C59 1.755 . S
C1317 C211 1.742 . S
C1331 C68 1.525 . S
C1337 C268 1.526 . S
C1357 C171 1.388 . S
C1351 C77 1.396 . S
C1371 C32 1.394 . S
C1377 C308 1.381 . S
C1391 C41 1.738 . S
C1397 C348 1.728 . S
C1411 C50 1.545 . S
C1417 C371 1.548 . S
C1431 C113 1.764 . S
C1437 C331 1.749 . S
C1457 C388 1.526 . S
C1451 C122 1.530 . S
C1471 C131 1.393 . S
C1477 C291 1.380 . S
C1491 C86 1.395 . S
C1497 C428 1.375 . S
C1511 C95 1.736 . S
C1517 C468 1.719 . S
C1537 C491 1.546 . S
C1531 C104 1.544 . S
C1551 C5 1.760 . S
C1557 C451 1.741 . S
C1571 C14 1.524 . S
C1577 C508 1.525 . S
C1591 C23 1.395 . S
C1597 C411 1.379 . S
