# Generated by pormake.
# Topology pyr, (3,6)-cn, num edge types: 1
# Building blocks:
#     Node 0, Type 0, BuildingBlock: QEWDON_clean_linker_0, # of connection points: 3
#     Node 1, Type 0, BuildingBlock: QEWDON_clean_linker_0, # of connection points: 3
#     Node 2, Type 0, BuildingBlock: QEWDON_clean_linker_0, # of connection points: 3
#     Node 3, Type 0, BuildingBlock: QEWDON_clean_linker_0, # of connection points: 3
#     Node 4, Type 0, BuildingBlock: QEWDON_clean_linker_0, # of connection points: 3
#     Node 5, Type 0, BuildingBlock: QEWDON_clean_linker_0, # of connection points: 3
#     Node 6, Type 0, BuildingBlock: QEWDON_clean_linker_0, # of connection points: 3
#     Node 7, Type 0, BuildingBlock: QEWDON_clean_linker_0, # of connection points: 3
#     Node 8, Type 1, BuildingBlock: JUFBIX_clean_sbu_0, # of connection points: 6
#     Node 9, Type 1, BuildingBlock: JUFBIX_clean_sbu_0, # of connection points: 6
#     Node 10, Type 1, BuildingBlock: JUFBIX_clean_sbu_0, # of connection points: 6
#     Node 11, Type 1, BuildingBlock: JUFBIX_clean_sbu_0, # of connection points: 6
#     Edge 12, Type (0, 1), BuildingBlock: TEMPAE_clean_linker_10, # of connection points: 2
#     Edge 13, Type (0, 1), BuildingBlock: TEMPAE_clean_linker_10, # of connection points: 2
#     Edge 14, Type (0, 1), BuildingBlock: TEMPAE_clean_linker_10, # of connection points: 2
#     Edge 15, Type (0, 1), BuildingBlock: TEMPAE_clean_linker_10, # of connection points: 2
#     Edge 16, Type (0, 1), BuildingBlock: TEMPAE_clean_linker_10, # of connection points: 2
#     Edge 17, Type (0, 1), BuildingBlock: TEMPAE_clean_linker_10, # of connection points: 2
#     Edge 18, Type (0, 1), BuildingBlock: TEMPAE_clean_linker_10, # of connection points: 2
#     Edge 19, Type (0, 1), BuildingBlock: TEMPAE_clean_linker_10, # of connection points: 2
#     Edge 20, Type (0, 1), BuildingBlock: TEMPAE_clean_linker_10, # of connection points: 2
#     Edge 21, Type (0, 1), BuildingBlock: TEMPAE_clean_linker_10, # of connection points: 2
#     Edge 22, Type (0, 1), BuildingBlock: TEMPAE_clean_linker_10, # of connection points: 2
#     Edge 23, Type (0, 1), BuildingBlock: TEMPAE_clean_linker_10, # of connection points: 2
#     Edge 24, Type (0, 1), BuildingBlock: TEMPAE_clean_linker_10, # of connection points: 2
#     Edge 25, Type (0, 1), BuildingBlock: TEMPAE_clean_linker_10, # of connection points: 2
#     Edge 26, Type (0, 1), BuildingBlock: TEMPAE_clean_linker_10, # of connection points: 2
#     Edge 27, Type (0, 1), BuildingBlock: TEMPAE_clean_linker_10, # of connection points: 2
#     Edge 28, Type (0, 1), BuildingBlock: TEMPAE_clean_linker_10, # of connection points: 2
#     Edge 29, Type (0, 1), BuildingBlock: TEMPAE_clean_linker_10, # of connection points: 2
#     Edge 30, Type (0, 1), BuildingBlock: TEMPAE_clean_linker_10, # of connection points: 2
#     Edge 31, Type (0, 1), BuildingBlock: TEMPAE_clean_linker_10, # of connection points: 2
#     Edge 32, Type (0, 1), BuildingBlock: TEMPAE_clean_linker_10, # of connection points: 2
#     Edge 33, Type (0, 1), BuildingBlock: TEMPAE_clean_linker_10, # of connection points: 2
#     Edge 34, Type (0, 1), BuildingBlock: TEMPAE_clean_linker_10, # of connection points: 2
#     Edge 35, Type (0, 1), BuildingBlock: TEMPAE_clean_linker_10, # of connection points: 2
# Relax obj value: 0.181
# Max RMSD: 0.286
# Mean RMSD: 0.183
data_MOF--net-pry--node1-JUFBIX_clean_sbu_0--node2-QEWDON_clean_linker_0--edge1-TEMPAE_clean_linker_10
_symmetry_space_group_name_H-M    P1
_symmetry_Int_Tables_number       1
_symmetry_cell_setting            triclinic
loop_
_symmetry_equiv_pos_as_xyz
'x, y, z'
_cell_length_a     37.59709
_cell_length_b     35.820382
_cell_length_c     40.004203
_cell_angle_alpha  84.379622
_cell_angle_beta   89.369381
_cell_angle_gamma 100.16126
loop_
_atom_site_label
_atom_site_type_symbol
_atom_site_fract_x
_atom_site_fract_y
_atom_site_fract_z
_atom_type_partial_charge
H0 H 0.27777 0.25106 0.18866 0.0
C1 C 0.2631 0.23471 0.21027 0.0
C2 C 0.27298 0.19977 0.2236 0.0
C3 C 0.23552 0.25017 0.2254 0.0
H4 H 0.26142 0.1544 0.2645 0.0
C5 C 0.2536 0.18022 0.25295 0.0
C6 C 0.2258 0.1951 0.26892 0.0
C7 C 0.21702 0.22983 0.25427 0.0
C8 C 0.23422 0.29198 0.21833 0.0
H9 H 0.19672 0.24239 0.26633 0.0
C10 C 0.21061 0.30816 0.19545 0.0
C11 C 0.21144 0.34857 0.19151 0.0
C12 C 0.25761 0.31635 0.23702 0.0
H13 H 0.27563 0.30495 0.25467 0.0
C14 C 0.25785 0.35535 0.23387 0.0
H15 H 0.19239 0.28979 0.18078 0.0
C16 C 0.23509 0.3712 0.21168 0.0
H17 H 0.23591 0.40168 0.21053 0.0
H18 H 0.27582 0.37352 0.2489 0.0
H19 H 0.3648 0.841 0.83531 0.0
C20 C 0.38096 0.8302 0.81711 0.0
C21 C 0.41884 0.83812 0.81803 0.0
C22 C 0.36374 0.81033 0.79175 0.0
H23 H 0.46875 0.83104 0.79408 0.0
C24 C 0.43949 0.82501 0.79355 0.0
C25 C 0.42222 0.80455 0.76814 0.0
C26 C 0.3843 0.79767 0.76731 0.0
C27 C 0.32432 0.80575 0.78912 0.0
H28 H 0.37065 0.7822 0.74774 0.0
C29 C 0.30964 0.83136 0.767 0.0
C30 C 0.27201 0.82844 0.76465 0.0
C31 C 0.30139 0.77688 0.80913 0.0
H32 H 0.31247 0.75704 0.82646 0.0
C33 C 0.26393 0.77355 0.80678 0.0
H34 H 0.32768 0.85416 0.75225 0.0
C35 C 0.24924 0.79916 0.78473 0.0
H36 H 0.22012 0.79591 0.78322 0.0
H37 H 0.24623 0.75112 0.82214 0.0
H38 H 0.73858 0.51117 0.93911 0.0
C39 C 0.72445 0.48193 0.94325 0.0
C40 C 0.74314 0.45269 0.95478 0.0
C41 C 0.68748 0.47397 0.93695 0.0
H42 H 0.7376 0.39253 0.97062 0.0
C43 C 0.72374 0.41524 0.96107 0.0
C44 C 0.6863 0.40704 0.95588 0.0
C45 C 0.66854 0.43653 0.94306 0.0
C46 C 0.66909 0.50509 0.9234 0.0
H47 H 0.63986 0.43054 0.93832 0.0
C48 C 0.65279 0.50354 0.89208 0.0
C49 C 0.63893 0.53496 0.87699 0.0
C50 C 0.67023 0.53765 0.94047 0.0
H51 H 0.68282 0.53936 0.96463 0.0
C52 C 0.65542 0.56839 0.92627 0.0
H53 H 0.65199 0.47825 0.87909 0.0
C54 C 0.64018 0.5673 0.89464 0.0
H55 H 0.63039 0.59228 0.88365 0.0
H56 H 0.65653 0.59353 0.93948 0.0
H57 H 0.94349 0.84118 0.35032 0.0
C58 C 0.92455 0.81847 0.3642 0.0
C59 C 0.93143 0.80585 0.39747 0.0
C60 C 0.89309 0.80225 0.34878 0.0
H61 H 0.9101 0.76898 0.4416 0.0
C62 C 0.90624 0.7768 0.4152 0.0
C63 C 0.87445 0.76046 0.40011 0.0
C64 C 0.86867 0.77266 0.36648 0.0
C65 C 0.88493 0.81687 0.31446 0.0
H66 H 0.84432 0.76032 0.35442 0.0
C67 C 0.87815 0.79172 0.28971 0.0
C68 C 0.87139 0.80505 0.25661 0.0
C69 C 0.88408 0.8557 0.30622 0.0
H70 H 0.88905 0.87557 0.3251 0.0
C71 C 0.87647 0.86903 0.27352 0.0
H72 H 0.88009 0.762 0.29594 0.0
C73 C 0.87042 0.84393 0.24868 0.0
H74 H 0.86557 0.8549 0.22326 0.0
H75 H 0.8758 0.89899 0.26729 0.0
H76 H 0.86834 0.87479 0.92976 0.0
C77 C 0.88202 0.88911 0.90682 0.0
C78 C 0.91469 0.87862 0.89599 0.0
C79 C 0.86589 0.91658 0.88743 0.0
H80 H 0.95552 0.8879 0.85609 0.0
C81 C 0.93096 0.89618 0.86487 0.0
C82 C 0.91537 0.92329 0.84443 0.0
C83 C 0.88308 0.9334 0.85643 0.0
C84 C 0.82702 0.92019 0.89432 0.0
H85 H 0.86987 0.95278 0.84053 0.0
C86 C 0.8145 0.93933 0.92087 0.0
C87 C 0.77677 0.94087 0.92475 0.0
C88 C 0.80146 0.90323 0.8725 0.0
H89 H 0.80988 0.88848 0.85221 0.0
C90 C 0.7649 0.9046 0.8764 0.0
H91 H 0.83363 0.95275 0.938 0.0
C92 C 0.75272 0.92308 0.90213 0.0
H93 H 0.72406 0.92367 0.90428 0.0
H94 H 0.74577 0.8912 0.85926 0.0
H95 H 0.7028 0.20376 0.51265 0.0
C96 C 0.69191 0.19841 0.48823 0.0
C97 C 0.70993 0.17907 0.46655 0.0
C98 C 0.65905 0.20945 0.47918 0.0
H99 H 0.70948 0.157 0.4185 0.0
C100 C 0.69499 0.17124 0.43547 0.0
C101 C 0.66189 0.18177 0.42604 0.0
C102 C 0.64418 0.20131 0.44808 0.0
C103 C 0.63842 0.22541 0.50406 0.0
H104 H 0.61818 0.20878 0.44179 0.0
C105 C 0.63718 0.2646 0.50177 0.0
C106 C 0.61888 0.27947 0.52692 0.0
C107 C 0.62089 0.20106 0.53114 0.0
H108 H 0.62174 0.17084 0.53324 0.0
C109 C 0.60214 0.21548 0.55568 0.0
H110 H 0.65125 0.28345 0.48109 0.0
C111 C 0.60112 0.25435 0.55367 0.0
H112 H 0.58617 0.26475 0.573 0.0
H113 H 0.58846 0.19649 0.57641 0.0
H114 H 0.43137 0.72671 0.23002 0.0
C115 C 0.40627 0.72113 0.21679 0.0
C116 C 0.39438 0.75094 0.19721 0.0
C117 C 0.38648 0.68389 0.21847 0.0
H118 H 0.35436 0.76608 0.16305 0.0
C119 C 0.36241 0.74327 0.17939 0.0
C120 C 0.34184 0.7063 0.18117 0.0
C121 C 0.3542 0.67672 0.20096 0.0
C122 C 0.40084 0.65207 0.23675 0.0
H123 H 0.33873 0.64801 0.20304 0.0
C124 C 0.41072 0.65341 0.27048 0.0
C125 C 0.42628 0.624 0.28732 0.0
C126 C 0.40599 0.62081 0.2199 0.0
H127 H 0.39871 0.61932 0.19386 0.0
C128 C 0.42165 0.59181 0.23615 0.0
H129 H 0.40562 0.67711 0.28355 0.0
C130 C 0.43205 0.59348 0.26942 0.0
H131 H 0.44505 0.57095 0.28086 0.0
H132 H 0.42616 0.56813 0.22278 0.0
H133 H 0.18302 0.4359 0.70304 0.0
C134 C 0.16221 0.41905 0.68951 0.0
C135 C 0.15665 0.43028 0.65558 0.0
C136 C 0.14455 0.38379 0.70498 0.0
H137 H 0.12706 0.41506 0.61164 0.0
C138 C 0.13111 0.40683 0.63793 0.0
C139 C 0.11373 0.37105 0.65294 0.0
C140 C 0.12032 0.36004 0.68668 0.0
C141 C 0.15482 0.37013 0.73897 0.0
H142 H 0.10838 0.33191 0.69824 0.0
C143 C 0.15507 0.39341 0.76512 0.0
C144 C 0.16648 0.38176 0.79712 0.0
C145 C 0.16599 0.3347 0.74511 0.0
H146 H 0.16638 0.31635 0.72518 0.0
C147 C 0.17777 0.32319 0.77689 0.0
H148 H 0.14643 0.42075 0.76052 0.0
C149 C 0.17825 0.34671 0.80283 0.0
H150 H 0.18718 0.33734 0.82739 0.0
H151 H 0.18664 0.29603 0.78138 0.0
Co152 Co 0.03367 0.05531 0.54022 0.0
C153 C 0.0541 0.98541 0.53622 0.0
Co154 Co 0.08654 0.05102 0.56178 0.0
C155 C 0.96369 0.07725 0.52705 0.0
C156 C 0.98127 0.04508 0.48964 0.0
N157 N 0.99043 0.05853 0.5193 0.0
N158 N 0.93862 0.07639 0.50307 0.0
C159 C 0.94956 0.05606 0.4796 0.0
H160 H 0.96349 0.09268 0.54899 0.0
H161 H 0.99732 0.02935 0.47562 0.0
C162 C 0.06508 0.12084 0.56578 0.0
N163 N 0.12975 0.04717 0.58191 0.0
C164 C 0.13625 0.0166 0.60165 0.0
C165 C 0.16103 0.07241 0.58049 0.0
N166 N 0.17037 0.0214 0.61258 0.0
C167 C 0.18612 0.05664 0.59945 0.0
C168 C 0.09423 0.0785 0.49356 0.0
O169 O 0.03789 0.10579 0.55027 0.0
O170 O 0.08969 0.10162 0.57375 0.0
O171 O 0.112 0.0706 0.51945 0.0
O172 O 0.0598 0.07346 0.49688 0.0
O173 O 0.08306 1.00025 0.54935 0.0
H174 H 0.16535 0.10029 0.56644 0.0
H175 H 0.11603 0.99133 0.60814 0.0
O176 O 0.02934 0.00477 0.53048 0.0
O177 O 1.00831 0.03719 0.58368 0.0
O178 O 0.06095 0.0316 0.60437 0.0
C179 C 0.02682 0.02802 0.60886 0.0
H180 H 0.93583 0.05004 0.45656 0.0
H181 H 0.21389 0.06978 0.60278 0.0
Co182 Co 0.52461 0.07442 0.06305 0.0
C183 C 0.51808 0.01444 0.11434 0.0
Co184 Co 0.55807 0.08636 0.107 0.0
C185 C 0.49617 0.03024 1.01083 0.0
C186 C 0.47577 0.08251 1.00843 0.0
N187 N 0.49665 0.06181 0.02674 0.0
N188 N 0.47631 0.03045 0.98295 0.0
C189 C 0.46317 0.06327 0.98149 0.0
H190 H 0.51071 0.00775 1.01941 0.0
H191 H 0.47105 0.11032 1.01368 0.0
C192 C 0.56503 0.14628 0.05557 0.0
N193 N 0.58773 0.09935 0.14271 0.0
C194 C 0.5792 0.10613 0.17426 0.0
C195 C 0.62415 0.10727 0.14072 0.0
N196 N 0.60894 0.11809 0.19188 0.0
C197 C 0.63717 0.11836 0.17072 0.0
C198 C 0.59403 0.05436 0.05655 0.0
O199 O 0.54172 0.12371 0.04105 0.0
O200 O 0.5755 0.13536 0.0844 0.0
O201 O 0.59737 0.06611 0.08564 0.0
O202 O 0.56428 0.05579 0.04206 0.0
O203 O 0.54058 0.03735 0.12944 0.0
H204 H 0.64052 0.10613 0.11859 0.0
H205 H 0.55173 0.10352 0.18372 0.0
O206 O 0.50791 0.02522 0.08532 0.0
O207 O 0.48476 0.09316 0.08414 0.0
O208 O 0.51802 0.10587 0.12757 0.0
C209 C 0.48785 0.10568 0.11301 0.0
H210 H 0.44678 0.07344 0.96172 0.0
H211 H 0.66544 0.12613 0.17626 0.0
Co212 Co 0.5621 0.60736 0.57494 0.0
C213 C 0.51128 0.60944 0.52524 0.0
Co214 Co 0.5096 0.57047 0.5884 0.0
C215 C 0.63795 0.63125 0.55561 0.0
C216 C 0.61109 0.67847 0.56035 0.0
N217 N 0.60558 0.63998 0.56361 0.0
N218 N 0.66323 0.6627 0.54765 0.0
C219 C 0.64642 0.69243 0.55071 0.0
H220 H 0.64287 0.60246 0.555 0.0
H221 H 0.59055 0.69557 0.56356 0.0
C222 C 0.56049 0.56852 0.63798 0.0
N223 N 0.46653 0.53837 0.59976 0.0
C224 C 0.43295 0.54676 0.59886 0.0
C225 C 0.46202 0.50123 0.61149 0.0
N226 N 0.40758 0.51633 0.60977 0.0
C227 C 0.42584 0.48758 0.6176 0.0
C228 C 0.558 0.53451 0.55594 0.0
O229 O 0.58027 0.59265 0.61713 0.0
O230 O 0.52866 0.5544 0.63007 0.0
O231 O 0.52625 0.531 0.56831 0.0
O232 O 0.57928 0.5663 0.55609 0.0
O233 O 0.49083 0.58682 0.54671 0.0
H234 H 0.4837 0.48518 0.61548 0.0
H235 H 0.4274 0.57488 0.59098 0.0
O236 O 0.54375 0.62199 0.5325 0.0
O237 O 0.54416 0.64748 0.59462 0.0
O238 O 0.49296 0.60964 0.6088 0.0
C239 C 0.51314 0.64192 0.60902 0.0
H240 H 0.65831 0.72216 0.54459 0.0
H241 H 0.41394 0.4586 0.62682 0.0
Co242 Co 0.06316 0.59777 1.01966 0.0
C243 C 0.99208 0.56056 0.02437 0.0
Co244 Co 0.03575 0.60232 0.06751 0.0
C245 C 0.11306 0.57474 0.97418 0.0
C246 C 0.07734 0.60718 0.94826 0.0
N247 N 0.08631 0.59434 0.97931 0.0
N248 N 0.1206 0.57407 0.94126 0.0
C249 C 0.0984 0.59482 0.92486 0.0
H250 H 0.12567 0.5596 0.99413 0.0
H251 H 0.05539 0.62246 0.94278 0.0
C252 C 0.10679 0.63855 0.06402 0.0
N253 N 1.01262 0.60552 0.10773 0.0
C254 C 0.98355 0.62188 0.11241 0.0
C255 C 0.02226 0.59401 0.13889 0.0
N256 N 0.97492 0.62163 0.14524 0.0
C257 C 0.99914 0.60383 0.16199 0.0
C258 C 0.07172 0.53886 0.06984 0.0
O259 O 0.10624 0.62783 0.03458 0.0
O260 O 0.07806 0.63123 0.08218 0.0
O261 O 0.05205 0.55611 0.08683 0.0
O262 O 0.07927 0.55181 0.03934 0.0
O263 O 0.9933 0.57316 0.05296 0.0
H264 H 0.04537 0.58053 0.14456 0.0
H265 H 0.97008 0.63548 0.09214 0.0
O266 O 0.02021 0.56741 1.00527 0.0
O267 O 0.04646 0.64359 1.00025 0.0
O268 O 0.01984 0.64885 0.04782 0.0
C269 C 0.02703 0.66125 1.01708 0.0
H270 H 0.09541 0.59811 0.8979 0.0
H271 H 1.00081 0.59925 0.18903 0.0
C272 C 0.19875 0.19858 0.3272 0.0
C273 C 0.20737 0.1763 0.30208 0.0
C274 C 0.18055 0.18212 0.35776 0.0
C275 C 0.17043 0.14193 0.36428 0.0
C276 C 0.17945 0.11913 0.33936 0.0
C277 C 0.19771 0.1364 0.30887 0.0
C278 C 0.17211 0.20799 0.38321 0.0
C279 C 0.1695 0.07627 0.34478 0.0
C280 C 0.15153 0.09981 0.45694 0.0
C281 C 0.11353 0.09375 0.46016 0.0
C282 C 0.17014 0.11471 0.42611 0.0
C283 C 0.15067 0.12411 0.39715 0.0
C284 C 0.11228 0.11771 0.40014 0.0
C285 C 0.09434 0.10275 0.4313 0.0
C286 C 0.21089 0.12084 0.42469 0.0
C287 C 0.09001 0.12711 0.37037 0.0
H288 H 0.2066 0.22929 0.32319 0.0
H289 H 0.20381 0.11853 0.29001 0.0
H290 H 0.14253 0.20323 0.38847 0.0
H291 H 0.18512 0.2012 0.40726 0.0
H292 H 0.1815 0.23862 0.37456 0.0
H293 H 0.17862 0.06231 0.32344 0.0
H294 H 0.18174 0.0655 0.36808 0.0
H295 H 0.13975 0.06769 0.34818 0.0
H296 H 0.16698 0.0931 0.47873 0.0
H297 H 0.06508 0.09833 0.43307 0.0
H298 H 0.22201 0.15155 0.4183 0.0
H299 H 0.22027 0.10529 0.40461 0.0
H300 H 0.22221 0.11111 0.44888 0.0
H301 H 0.09676 0.15806 0.36205 0.0
H302 H 0.06051 0.11947 0.3762 0.0
H303 H 0.09655 0.11173 0.34899 0.0
C304 C 0.42504 0.85417 0.87718 0.0
C305 C 0.43591 0.86263 0.84326 0.0
C306 C 0.43537 0.88054 0.90052 0.0
C307 C 0.45666 0.91642 0.88953 0.0
C308 C 0.46939 0.92424 0.85565 0.0
C309 C 0.45898 0.89708 0.8329 0.0
C310 C 0.42177 0.87081 0.93653 0.0
C311 C 0.49198 0.96222 0.84292 0.0
C312 C 0.44172 0.99827 0.93846 0.0
C313 C 0.47189 1.00244 0.95897 0.0
C314 C 0.43689 0.97089 0.91533 0.0
C315 C 0.46271 0.94681 0.91276 0.0
C316 C 0.49342 0.95107 0.93307 0.0
C317 C 0.49772 0.97891 0.95581 0.0
C318 C 0.40382 0.96737 0.89395 0.0
C319 C 0.52151 0.92592 0.93111 0.0
H320 H 0.40728 0.82742 0.88517 0.0
H321 H 0.46706 0.90376 0.80658 0.0
H322 H 0.4443 0.87694 0.95398 0.0
H323 H 0.40165 0.8888 0.94202 0.0
H324 H 0.4088 0.8404 0.94177 0.0
H325 H 0.50298 0.96226 0.81702 0.0
H326 H 0.47517 0.98476 0.84286 0.0
H327 H 0.5148 0.96984 0.85975 0.0
H328 H 0.42149 0.016 0.94087 0.0
H329 H 0.52155 0.98235 0.97093 0.0
H330 H 0.38684 0.93878 0.89985 0.0
H331 H 0.41199 0.97014 0.86696 0.0
H332 H 0.38712 0.98931 0.89797 0.0
H333 H 0.50895 0.89575 0.93842 0.0
H334 H 0.54452 0.93381 0.94775 0.0
H335 H 0.53215 0.92772 0.90492 0.0
C336 C 0.64266 0.51854 0.81759 0.0
C337 C 0.62534 0.53502 0.84217 0.0
C338 C 0.63166 0.52043 0.78419 0.0
C339 C 0.60322 0.54006 0.7749 0.0
C340 C 0.58514 0.55616 0.79957 0.0
C341 C 0.59617 0.55308 0.83296 0.0
C342 C 0.65121 0.50241 0.75864 0.0
C343 C 0.5549 0.57767 0.79052 0.0
C344 C 0.60178 0.58398 0.68492 0.0
C345 C 0.57325 0.5593 0.67204 0.0
C346 C 0.612 0.5778 0.7183 0.0
C347 C 0.59371 0.54574 0.73906 0.0
C348 C 0.56577 0.51992 0.72585 0.0
C349 C 0.5556 0.52723 0.69253 0.0
C350 C 0.6416 0.60626 0.73164 0.0
C351 C 0.54624 0.48498 0.74705 0.0
H352 H 0.66563 0.50508 0.82416 0.0
H353 H 0.58214 0.56527 0.85181 0.0
H354 H 0.63152 0.48389 0.74424 0.0
H355 H 0.66661 0.52495 0.74039 0.0
H356 H 0.67035 0.4851 0.77049 0.0
H357 H 0.54299 0.58763 0.81283 0.0
H358 H 0.56522 0.60283 0.77237 0.0
H359 H 0.53317 0.55934 0.77807 0.0
H360 H 0.61533 0.60896 0.66925 0.0
H361 H 0.53365 0.50797 0.68258 0.0
H362 H 0.66347 0.59171 0.74178 0.0
H363 H 0.63065 0.61932 0.75264 0.0
H364 H 0.65351 0.62937 0.71204 0.0
H365 H 0.56599 0.46801 0.75815 0.0
H366 H 0.52676 0.4665 0.73237 0.0
H367 H 0.53129 0.49366 0.76819 0.0
C368 C 0.89439 0.78895 0.20235 0.0
C369 C 0.87053 0.77883 0.23019 0.0
C370 C 0.90325 0.761 0.18322 0.0
C371 C 0.88782 0.72229 0.19236 0.0
C372 C 0.85994 0.71278 0.21734 0.0
C373 C 0.85164 0.74128 0.23613 0.0
C374 C 0.93256 0.77239 0.15618 0.0
C375 C 0.84201 0.67198 0.22704 0.0
C376 C 0.91992 0.65052 0.14079 0.0
C377 C 0.94986 0.64253 0.15904 0.0
C378 C 0.89815 0.67515 0.15194 0.0
C379 C 0.90678 0.69223 0.1819 0.0
C380 C 0.9358 0.68269 0.20129 0.0
C381 C 0.95691 0.65797 0.18963 0.0
C382 C 0.86715 0.68415 0.13082 0.0
C383 C 0.94582 0.70012 0.2336 0.0
H384 H 0.90891 0.818 0.19758 0.0
H385 H 0.83256 0.73363 0.25726 0.0
H386 H 0.95823 0.76498 0.16593 0.0
H387 H 0.92569 0.75673 0.13388 0.0
H388 H 0.93714 0.8035 0.1482 0.0
H389 H 0.81594 0.67025 0.24096 0.0
H390 H 0.83708 0.6562 0.20453 0.0
H391 H 0.8601 0.65752 0.2435 0.0
H392 H 0.91393 0.63815 0.1174 0.0
H393 H 0.98011 0.65234 0.20374 0.0
H394 H 0.87574 0.71189 0.1155 0.0
H395 H 0.84352 0.68665 0.14677 0.0
H396 H 0.8586 0.66208 0.11345 0.0
H397 H 0.95442 0.73143 0.22823 0.0
H398 H 0.96812 0.68835 0.24637 0.0
H399 H 0.92206 0.69506 0.25119 0.0
C400 C 0.30592 0.14597 0.20865 0.0
C401 C 0.30481 0.18524 0.20797 0.0
C402 C 0.3353 0.13241 0.19403 0.0
C403 C 0.36485 0.15834 0.1777 0.0
C404 C 0.36401 0.19792 0.17697 0.0
C405 C 0.3346 0.2107 0.19213 0.0
C406 C 0.33461 0.09002 0.196 0.0
C407 C 0.39435 0.22706 0.15997 0.0
C408 C 0.45742 0.12754 0.16337 0.0
C409 C 0.45648 0.11928 0.12961 0.0
C410 C 0.428 0.13965 0.17927 0.0
C411 C 0.39639 0.14432 0.16123 0.0
C412 C 0.39538 0.13619 0.12711 0.0
C413 C 0.42499 0.12368 0.11195 0.0
C414 C 0.43076 0.14736 0.21563 0.0
C415 C 0.36294 0.14099 0.10635 0.0
H416 H 0.28347 0.12549 0.22026 0.0
H417 H 0.33542 0.24108 0.19184 0.0
H418 H 0.33453 0.08083 0.17031 0.0
H419 H 0.35934 0.083 0.20812 0.0
H420 H 0.31056 0.07341 0.21039 0.0
H421 H 0.38967 0.25672 0.16079 0.0
H422 H 0.42021 0.22435 0.17225 0.0
H423 H 0.39753 0.2218 0.13331 0.0
H424 H 0.48121 0.12423 0.17762 0.0
H425 H 0.42351 0.11758 0.08595 0.0
H426 H 0.40787 0.1294 0.2306 0.0
H427 H 0.42885 0.17754 0.21801 0.0
H428 H 0.4565 0.14157 0.2266 0.0
H429 H 0.33832 0.1226 0.11824 0.0
H430 H 0.36603 0.13368 0.08025 0.0
H431 H 0.35857 0.17092 0.10536 0.0
C432 C 0.27241 0.86835 0.70957 0.0
C433 C 0.25685 0.85645 0.74175 0.0
C434 C 0.25935 0.89587 0.68811 0.0
C435 C 0.22983 0.91168 0.699 0.0
C436 C 0.2138 0.89963 0.73133 0.0
C437 C 0.22755 0.87218 0.75235 0.0
C438 C 0.27706 0.90795 0.65375 0.0
C439 C 0.18218 0.9158 0.74372 0.0
C440 C 0.21403 0.00612 0.65525 0.0
C441 C 0.18621 0.99407 0.63358 0.0
C442 C 0.22867 0.97961 0.67662 0.0
C443 C 0.21514 0.94017 0.67622 0.0
C444 C 0.1874 0.92783 0.65412 0.0
C445 C 0.17336 0.9549 0.63303 0.0
C446 C 0.25831 0.99377 0.69986 0.0
C447 C 0.1724 0.886 0.65286 0.0
H448 H 0.29475 0.85592 0.70105 0.0
H449 H 0.21574 0.86352 0.77736 0.0
H450 H 0.25702 0.90149 0.63403 0.0
H451 H 0.28686 0.93921 0.65076 0.0
H452 H 0.30023 0.89343 0.64938 0.0
H453 H 0.17289 0.9035 0.76957 0.0
H454 H 0.18976 0.94719 0.74352 0.0
H455 H 0.15923 0.91012 0.72665 0.0
H456 H 0.22383 0.03632 0.65599 0.0
H457 H 0.1524 0.94532 0.61588 0.0
H458 H 0.28251 0.98101 0.69518 0.0
H459 H 0.24926 0.98469 0.72636 0.0
H460 H 0.26627 0.02532 0.69667 0.0
H461 H 0.19437 0.87071 0.64644 0.0
H462 H 0.15089 0.88115 0.63413 0.0
H463 H 0.16102 0.87316 0.67793 0.0
C464 C 0.80514 0.49068 0.94079 0.0
C465 C 0.78248 0.46198 0.96143 0.0
C466 C 0.84097 0.50361 0.94923 0.0
C467 C 0.85495 0.48656 0.97842 0.0
C468 C 0.83323 0.45558 0.99791 0.0
C469 C 0.79709 0.44401 0.98948 0.0
C470 C 0.86303 0.53717 0.92808 0.0
C471 C 0.84753 0.43601 0.02873 0.0
C472 C 0.95627 0.51296 0.99022 0.0
C473 C 0.95743 0.5405 1.01294 0.0
C474 C 0.92299 0.49417 0.9794 0.0
C475 C 0.89047 0.50424 0.99077 0.0
C476 C 0.8917 0.53231 1.01351 0.0
C477 C 0.92513 0.54965 0.02469 0.0
C478 C 0.92258 0.46354 0.95597 0.0
C479 C 0.85774 0.54464 0.02556 0.0
H480 H 0.79454 0.50396 0.91847 0.0
H481 H 0.77997 0.42199 1.00579 0.0
H482 H 0.86808 0.5621 0.94292 0.0
H483 H 0.88973 0.53072 0.92103 0.0
H484 H 0.8492 0.54527 0.90478 0.0
H485 H 0.82953 0.40876 0.03782 0.0
H486 H 0.87492 0.4301 0.02342 0.0
H487 H 0.84986 0.45496 0.04923 0.0
H488 H 0.9813 0.50575 0.98132 0.0
H489 H 0.92604 0.57125 0.04202 0.0
H490 H 0.91077 0.47215 0.93176 0.0
H491 H 0.90523 0.43672 0.96697 0.0
H492 H 0.95008 0.45774 0.95084 0.0
H493 H 0.84306 0.55526 1.00372 0.0
H494 H 0.86353 0.56747 0.04266 0.0
H495 H 0.83941 0.51998 0.03903 0.0
C496 C 0.80937 0.74034 0.41733 0.0
C497 C 0.84523 0.73492 0.42085 0.0
C498 C 0.78192 0.72075 0.43961 0.0
C499 C 0.79051 0.69534 0.46643 0.0
C500 C 0.82618 0.68801 0.46913 0.0
C501 C 0.8532 0.70792 0.44624 0.0
C502 C 0.74411 0.72922 0.43565 0.0
C503 C 0.83628 0.66088 0.49721 0.0
C504 C 0.72602 0.69561 0.53874 0.0
C505 C 0.69875 0.66504 0.53312 0.0
C506 C 0.75808 0.70358 0.51924 0.0
C507 C 0.76275 0.68045 0.49335 0.0
C508 C 0.73693 0.64726 0.48987 0.0
C509 C 0.7051 0.63988 0.5099 0.0
C510 C 0.78526 0.73888 0.52422 0.0
C511 C 0.74121 0.62159 0.46292 0.0
H512 H 0.80293 0.76155 0.39824 0.0
H513 H 0.88077 0.70318 0.44884 0.0
H514 H 0.72418 0.70234 0.43621 0.0
H515 H 0.73711 0.74456 0.45691 0.0
H516 H 0.7413 0.74704 0.41182 0.0
H517 H 0.86276 0.65258 0.49203 0.0
H518 H 0.83816 0.67482 0.52086 0.0
H519 H 0.81534 0.63475 0.50141 0.0
H520 H 0.72135 0.71452 0.55723 0.0
H521 H 0.68407 0.61614 0.50556 0.0
H522 H 0.78368 0.76122 0.50329 0.0
H523 H 0.81313 0.7327 0.52391 0.0
H524 H 0.78025 0.75047 0.54826 0.0
H525 H 0.73392 0.63506 0.43838 0.0
H526 H 0.72341 0.59329 0.46808 0.0
H527 H 0.76964 0.6174 0.46058 0.0
C528 C 0.20459 0.4046 0.14991 0.0
C529 C 0.1888 0.36926 0.16731 0.0
C530 C 0.18377 0.42926 0.13292 0.0
C531 C 0.14571 0.41837 0.13185 0.0
C532 C 0.12969 0.38155 0.14718 0.0
C533 C 0.15124 0.35765 0.1649 0.0
C534 C 0.20256 0.46801 0.11752 0.0
C535 C 0.08951 0.36785 0.1458 0.0
C536 C 0.09167 0.50069 0.12085 0.0
C537 C 0.08768 0.5058 0.08586 0.0
C538 C 0.10952 0.47197 0.13606 0.0
C539 C 0.12312 0.44652 0.11617 0.0
C540 C 0.11778 0.45055 0.08095 0.0
C541 C 0.10082 0.48032 0.06627 0.0
C542 C 0.11519 0.46994 0.17343 0.0
C543 C 0.13075 0.42397 0.05847 0.0
H544 H 0.23358 0.41387 0.15077 0.0
H545 H 0.13844 0.33067 0.17807 0.0
H546 H 0.19665 0.4719 0.09044 0.0
H547 H 0.1922 0.49061 0.12977 0.0
H548 H 0.23234 0.47219 0.12014 0.0
H549 H 0.08166 0.33718 0.15505 0.0
H550 H 0.07507 0.38462 0.16147 0.0
H551 H 0.08035 0.37233 0.11967 0.0
H552 H 0.08204 0.52022 0.13637 0.0
H553 H 0.09797 0.48369 0.03926 0.0
H554 H 0.14458 0.47584 0.17822 0.0
H555 H 0.10432 0.44086 0.18542 0.0
H556 H 0.10204 0.49071 0.18568 0.0
H557 H 0.16057 0.43134 0.05511 0.0
H558 H 0.11869 0.4259 0.03327 0.0
H559 H 0.12405 0.39402 0.06999 0.0
C560 C 0.63263 0.36363 0.98404 0.0
C561 C 0.6655 0.36821 0.96585 0.0
C562 C 0.61421 0.32732 0.99646 0.0
C563 C 0.62908 0.29482 0.99063 0.0
C564 C 0.66153 0.29911 0.97122 0.0
C565 C 0.67935 0.33579 0.95904 0.0
C566 C 0.57967 0.3239 1.01706 0.0
C567 C 0.67812 0.26508 0.96438 0.0
C568 C 0.60706 0.20862 0.0551 0.0
C569 C 0.58068 0.18449 0.03896 0.0
C570 C 0.62297 0.24454 0.03958 0.0
C571 C 0.61224 0.25672 1.00711 0.0
C572 C 0.58552 0.23265 0.99069 0.0
C573 C 0.57003 0.19677 1.00683 0.0
C574 C 0.65137 0.26942 0.05793 0.0
C575 C 0.5734 0.24478 0.95608 0.0
H576 H 0.62198 0.38857 0.98975 0.0
H577 H 0.70446 0.33914 0.94457 0.0
H578 H 0.55804 0.30273 1.00745 0.0
H579 H 0.58412 0.31355 0.04347 0.0
H580 H 0.57008 0.35153 1.01683 0.0
H581 H 0.70192 0.27299 0.94678 0.0
H582 H 0.68682 0.25153 0.98831 0.0
H583 H 0.65785 0.24342 0.95365 0.0
H584 H 0.6155 0.19938 0.07991 0.0
H585 H 0.54968 0.17827 0.99418 0.0
H586 H 0.64269 0.29691 0.06119 0.0
H587 H 0.67709 0.27604 0.0429 0.0
H588 H 0.65664 0.25571 0.08307 0.0
H589 H 0.56255 0.27161 0.95639 0.0
H590 H 0.55226 0.22277 0.94678 0.0
H591 H 0.59681 0.25067 0.93804 0.0
C592 C 0.96926 0.86619 0.41192 0.0
C593 C 0.96209 0.82626 0.41539 0.0
C594 C 0.99318 0.88635 0.43308 0.0
C595 C 1.0103 0.86604 0.45846 0.0
C596 C 1.00572 0.82586 0.46016 0.0
C597 C 0.98146 0.80635 0.43863 0.0
C598 C 0.99744 0.92932 0.4302 0.0
C599 C 0.02414 0.80323 0.48626 0.0
C600 C 0.07356 0.93748 0.5026 0.0
C601 C 0.04893 0.94704 0.52535 0.0
C602 C 0.06286 0.90733 0.48283 0.0
C603 C 0.02695 0.88684 0.48627 0.0
C604 C 1.00395 0.89326 0.51258 0.0
C605 C 1.0152 0.92361 0.53165 0.0
C606 C 0.08849 0.90049 0.45577 0.0
C607 C 0.96572 0.87153 0.51772 0.0
H608 H 0.95424 0.88181 0.39423 0.0
H609 H 0.97651 0.77545 0.44097 0.0
H610 H 0.98399 0.9381 0.45223 0.0
H611 H 0.02642 0.94256 0.43009 0.0
H612 H 0.98537 0.94084 0.40704 0.0
H613 H 0.02657 0.77491 0.47829 0.0
H614 H 0.05146 0.8187 0.49142 0.0
H615 H 1.00788 0.79847 0.5101 0.0
H616 H 0.0997 0.95579 0.49783 0.0
H617 H 0.9964 0.93105 0.54958 0.0
H618 H 0.08284 0.91622 0.43168 0.0
H619 H 0.0849 0.86978 0.45201 0.0
H620 H 0.11708 0.91075 0.46188 0.0
H621 H 0.94881 0.88127 0.49721 0.0
H622 H 0.95347 0.87601 0.54208 0.0
H623 H 0.96495 0.84057 0.51686 0.0
C624 C 0.43526 0.79513 0.7085 0.0
C625 C 0.44304 0.7893 0.74262 0.0
C626 C 0.45 0.77567 0.68454 0.0
C627 C 0.47268 0.7494 0.69505 0.0
C628 C 0.48235 0.74515 0.72919 0.0
C629 C 0.46753 0.76538 0.75259 0.0
C630 C 0.43947 0.7815 0.64834 0.0
C631 C 0.5063 0.71728 0.74144 0.0
C632 C 0.4689 0.66271 0.64697 0.0
C633 C 0.50179 0.67113 0.62855 0.0
C634 C 0.4591 0.68814 0.66839 0.0
C635 C 0.48259 0.72312 0.67132 0.0
C636 C 0.51534 0.73241 0.65205 0.0
C637 C 0.52464 0.70622 0.63096 0.0
C638 C 0.42392 0.67709 0.68851 0.0
C639 C 0.54082 0.76964 0.65422 0.0
H640 H 0.41658 0.81397 0.70076 0.0
H641 H 0.47339 0.76071 0.77899 0.0
H642 H 0.46363 0.78555 0.63131 0.0
H643 H 0.42082 0.75575 0.64188 0.0
H644 H 0.42577 0.80647 0.6435 0.0
H645 H 0.51442 0.72035 0.76778 0.0
H646 H 0.49168 0.68774 0.74007 0.0
H647 H 0.53102 0.72122 0.72516 0.0
H648 H 0.45105 0.63569 0.64533 0.0
H649 H 0.55012 0.71295 0.61684 0.0
H650 H 0.40665 0.69892 0.68295 0.0
H651 H 0.42936 0.67585 0.71576 0.0
H652 H 0.40855 0.64898 0.6831 0.0
H653 H 0.52627 0.79389 0.64914 0.0
H654 H 0.56419 0.77353 0.6362 0.0
H655 H 0.5512 0.77077 0.68001 0.0
C656 C 0.94413 0.91553 0.78789 0.0
C657 C 0.93149 0.93922 0.80973 0.0
C658 C 0.95852 0.92967 0.75521 0.0
C659 C 0.96123 0.96889 0.74356 0.0
C660 C 0.94872 0.99302 0.76554 0.0
C661 C 0.93383 0.97797 0.79789 0.0
C662 C 0.97069 0.90237 0.73297 0.0
C663 C 0.95148 0.03505 0.75501 0.0
C664 C 0.03093 0.01088 0.67177 0.0
C665 C 1.0095 0.01342 0.64322 0.0
C666 C 1.01568 0.99715 0.70419 0.0
C667 C 0.97776 0.98467 0.70884 0.0
C668 C 0.95594 0.987 0.68011 0.0
C669 C 0.97188 1.00154 0.64798 0.0
C670 C 0.04036 0.99608 0.73363 0.0
C671 C 0.91559 0.97363 0.68322 0.0
H672 H 0.94212 0.88548 0.79612 0.0
H673 H 0.92453 0.99687 0.81426 0.0
H674 H 0.95616 0.90317 0.70898 0.0
H675 H 0.99996 0.91116 0.72665 0.0
H676 H 0.96585 0.87257 0.74503 0.0
H677 H 0.94085 0.05022 0.77478 0.0
H678 H 0.98013 0.04822 0.74915 0.0
H679 H 0.93623 0.03936 0.73179 0.0
H680 H 0.05995 0.01998 0.66886 0.0
H681 H 0.95481 1.00305 0.62641 0.0
H682 H 0.03861 0.96628 0.74502 0.0
H683 H 0.03165 0.01262 0.7533 0.0
H684 H 0.06902 0.00788 0.72631 0.0
H685 H 0.90956 0.94319 0.69345 0.0
H686 H 0.90223 0.97686 0.65874 0.0
H687 H 0.90361 0.99002 0.70115 0.0
C688 C 0.62928 0.19705 0.37306 0.0
C689 C 0.64598 0.17143 0.39349 0.0
C690 C 0.61753 0.18877 0.3409 0.0
C691 C 0.62313 0.15437 0.32871 0.0
C692 C 0.63825 0.12762 0.34986 0.0
C693 C 0.64907 0.13627 0.38205 0.0
C694 C 0.60076 0.21766 0.31938 0.0
C695 C 0.64497 0.09071 0.33784 0.0
C696 C 0.58201 0.11735 0.24903 0.0
C697 C 0.61087 0.12952 0.22563 0.0
C698 C 0.58482 0.1267 0.28239 0.0
C699 C 0.61744 0.14816 0.29273 0.0
C700 C 0.64614 0.16153 0.26901 0.0
C701 C 0.64233 0.15246 0.23582 0.0
C702 C 0.55331 0.11266 0.30679 0.0
C703 C 0.68151 0.18432 0.27894 0.0
H704 H 0.62669 0.22426 0.38161 0.0
H705 H 0.66085 0.11573 0.39801 0.0
H706 H 0.6203 0.23193 0.29913 0.0
H707 H 0.57639 0.20345 0.30716 0.0
H708 H 0.59307 0.23984 0.33417 0.0
H709 H 0.65464 0.07182 0.35813 0.0
H710 H 0.61991 0.07505 0.32781 0.0
H711 H 0.66561 0.09699 0.31705 0.0
H712 H 0.55755 0.09969 0.24161 0.0
H713 H 0.66441 0.1632 0.21795 0.0
H714 H 0.54773 0.13611 0.32111 0.0
H715 H 0.56004 0.08993 0.32523 0.0
H716 H 0.52837 0.10095 0.29392 0.0
H717 H 0.67666 0.21005 0.29034 0.0
H718 H 0.70082 0.19348 0.25725 0.0
H719 H 0.69434 0.16694 0.29817 0.0
C720 C 0.43466 0.59096 0.34442 0.0
C721 C 0.43672 0.62502 0.32323 0.0
C722 C 0.44639 0.59105 0.37756 0.0
C723 C 0.45918 0.62616 0.39052 0.0
C724 C 0.45992 0.66076 0.36994 0.0
C725 C 0.44932 0.65978 0.33641 0.0
C726 C 0.44584 0.55344 0.39846 0.0
C727 C 0.47238 0.6988 0.3832 0.0
C728 C 0.46182 0.61884 0.48581 0.0
C729 C 0.49846 0.61809 0.49112 0.0
C730 C 0.44894 0.62367 0.45313 0.0
C731 C 0.47308 0.62629 0.42521 0.0
C732 C 0.51026 0.62624 0.43054 0.0
C733 C 0.52259 0.62279 0.46347 0.0
C734 C 0.40937 0.62497 0.44848 0.0
C735 C 0.5367 0.62779 0.40152 0.0
H736 H 0.42399 0.56394 0.33512 0.0
H737 H 0.45162 0.68635 0.32043 0.0
H738 H 0.47347 0.55139 0.40705 0.0
H739 H 0.42827 0.55158 0.42122 0.0
H740 H 0.43591 0.52862 0.38436 0.0
H741 H 0.46795 0.72304 0.36513 0.0
H742 H 0.45783 0.70012 0.40722 0.0
H743 H 0.50161 0.70234 0.38848 0.0
H744 H 0.44319 0.61542 0.50724 0.0
H745 H 0.55089 0.62181 0.46757 0.0
H746 H 0.39597 0.59878 0.43786 0.0
H747 H 0.40616 0.64961 0.43039 0.0
H748 H 0.39518 0.62716 0.47253 0.0
H749 H 0.52895 0.60226 0.38776 0.0
H750 H 0.56489 0.62877 0.40991 0.0
H751 H 0.53589 0.65317 0.3835 0.0
C752 C 0.19647 0.41986 0.8414 0.0
C753 C 0.16522 0.40643 0.82431 0.0
C754 C 0.19608 0.44707 0.86436 0.0
C755 C 0.16361 0.46058 0.87027 0.0
C756 C 0.13164 0.44556 0.85417 0.0
C757 C 0.13292 0.41878 0.83125 0.0
C758 C 0.2306 0.46252 0.88107 0.0
C759 C 0.09629 0.45877 0.86018 0.0
C760 C 0.14025 0.51189 0.94286 0.0
C761 C 0.14014 0.5484 0.92655 0.0
C762 C 0.15144 0.48351 0.92572 0.0
C763 C 0.16276 0.492 0.89158 0.0
C764 C 0.16639 0.52983 0.87618 0.0
C765 C 0.15489 0.55761 0.89388 0.0
C766 C 0.14744 0.4436 0.94315 0.0
C767 C 0.17903 0.54017 0.83997 0.0
H768 H 0.22146 0.41029 0.83576 0.0
H769 H 0.10876 0.40797 0.81814 0.0
H770 H 0.24056 0.49237 0.87044 0.0
H771 H 0.22572 0.4629 0.90842 0.0
H772 H 0.25211 0.44555 0.8773 0.0
H773 H 0.07357 0.44262 0.84707 0.0
H774 H 0.08936 0.45552 0.88746 0.0
H775 H 0.09892 0.48946 0.85118 0.0
H776 H 0.12884 0.50446 0.96811 0.0
H777 H 0.1555 0.58603 0.88154 0.0
H778 H 0.17004 0.42957 0.936 0.0
H779 H 0.12196 0.42631 0.93542 0.0
H780 H 0.14634 0.44347 0.97093 0.0
H781 H 0.2029 0.52724 0.83452 0.0
H782 H 0.1861 0.57153 0.83359 0.0
H783 H 0.15716 0.52879 0.82332 0.0
C784 C 0.75939 0.99956 0.94668 0.0
C785 C 0.76005 0.96025 0.95133 0.0
C786 C 0.73499 0.0163 0.96535 0.0
C787 C 0.71005 0.99339 0.98935 0.0
C788 C 0.71183 0.95397 0.99514 0.0
C789 C 0.73637 0.93804 0.97609 0.0
C790 C 0.73455 0.0583 0.95796 0.0
C791 C 0.6863 0.92799 1.02022 0.0
C792 C 0.65807 0.0393 0.05405 0.0
C793 C 0.62406 0.03912 0.03953 0.0
C794 C 0.68616 0.02502 0.03808 0.0
C795 C 0.68062 0.00982 1.00661 0.0
C796 C 0.64632 0.00959 0.99189 0.0
C797 C 0.61882 0.02414 1.00831 0.0
C798 C 0.72188 0.02606 0.05507 0.0
C799 C 0.63847 0.99369 0.95865 0.0
H800 H 0.77649 0.01692 0.92695 0.0
H801 H 0.73569 0.90751 0.9793 0.0
H802 H 0.70905 0.06227 0.94554 0.0
H803 H 0.73533 0.0721 0.98165 0.0
H804 H 0.75767 0.07303 0.94131 0.0
H805 H 0.69312 0.89897 0.02424 0.0
H806 H 0.68676 0.94011 0.04473 0.0
H807 H 0.65827 0.92548 1.01116 0.0
H808 H 0.66285 0.05069 0.07804 0.0
H809 H 0.5929 0.02356 0.99657 0.0
H810 H 0.74404 0.04237 0.03816 0.0
H811 H 0.72747 0.99668 0.06024 0.0
H812 H 0.72243 0.03926 0.0791 0.0
H813 H 0.65812 0.0094 0.93906 0.0
H814 H 0.61069 0.99556 0.95031 0.0
H815 H 0.6417 0.96337 0.9606 0.0
C816 C 0.7731 0.19045 0.48761 0.0
C817 C 0.74359 0.16541 0.47666 0.0
C818 C 0.8059 0.17812 0.49495 0.0
C819 C 0.8089 0.13975 0.49173 0.0
C820 C 0.77861 0.11404 0.48202 0.0
C821 C 0.74643 0.12727 0.47436 0.0
C822 C 0.83773 0.20648 0.50477 0.0
C823 C 0.7805 0.07278 0.47875 0.0
C824 C 0.89846 0.11206 0.47022 0.0
C825 C 0.90783 0.09523 0.50121 0.0
C826 C 0.86717 0.12819 0.46718 0.0
C827 C 0.84432 0.12693 0.49578 0.0
C828 C 0.8542 0.11099 0.52741 0.0
C829 C 0.88611 0.09559 0.5298 0.0
C830 C 0.85801 0.14552 0.43311 0.0
C831 C 0.83031 0.10873 0.55838 0.0
H832 H 0.77089 0.21999 0.4893 0.0
H833 H 0.72341 0.10779 0.46633 0.0
H834 H 0.84944 0.19523 0.52817 0.0
H835 H 0.8592 0.2111 0.48477 0.0
H836 H 0.83023 0.23442 0.50864 0.0
H837 H 0.75375 0.05584 0.47366 0.0
H838 H 0.79963 0.07097 0.45789 0.0
H839 H 0.79085 0.05964 0.50208 0.0
H840 H 0.91564 0.11237 0.44823 0.0
H841 H 0.89336 0.08244 0.55372 0.0
H842 H 0.85248 0.1747 0.43483 0.0
H843 H 0.83312 0.12825 0.42421 0.0
H844 H 0.88007 0.14704 0.41405 0.0
H845 H 0.82367 0.13711 0.56173 0.0
H846 H 0.84316 0.09823 0.58147 0.0
H847 H 0.80444 0.08915 0.55533 0.0
C848 C 0.28568 0.72633 0.15714 0.0
C849 C 0.30803 0.69875 0.16181 0.0
C850 C 0.25404 0.71987 0.13872 0.0
C851 C 0.24367 0.68444 0.12559 0.0
C852 C 0.26593 0.65643 0.13012 0.0
C853 C 0.29807 0.66414 0.1477 0.0
C854 C 0.23131 0.7507 0.13392 0.0
C855 C 0.25534 0.61792 0.11714 0.0
C856 C 0.14383 0.64997 0.11424 0.0
C857 C 0.14122 0.65417 0.07916 0.0
C858 C 0.17697 0.65993 0.12957 0.0
C859 C 0.20819 0.6755 0.1094 0.0
C860 C 0.20553 0.68133 0.07402 0.0
C861 C 0.17209 0.67002 0.05923 0.0
C862 C 0.17877 0.6524 0.1673 0.0
C863 C 0.2381 0.69888 0.05183 0.0
H864 H 0.29253 0.75291 0.16835 0.0
H865 H 0.31538 0.64291 0.15034 0.0
H866 H 0.2249 0.7558 0.10703 0.0
H867 H 0.20529 0.74146 0.1482 0.0
H868 H 0.24505 0.77801 0.14253 0.0
H869 H 0.27587 0.59944 0.12235 0.0
H870 H 0.22916 0.60311 0.12903 0.0
H871 H 0.25149 0.62141 0.08964 0.0
H872 H 0.12018 0.63726 0.12982 0.0
H873 H 0.17016 0.6733 0.03211 0.0
H874 H 0.18965 0.67917 0.17832 0.0
H875 H 0.19745 0.63214 0.17364 0.0
H876 H 0.15191 0.64028 0.17935 0.0
H877 H 0.25123 0.72624 0.06071 0.0
H878 H 0.23094 0.70424 0.02513 0.0
H879 H 0.25828 0.67968 0.05327 0.0
C880 C 0.20133 0.45191 0.60839 0.0
C881 C 0.18406 0.46043 0.63725 0.0
C882 C 0.23585 0.47157 0.59816 0.0
C883 C 0.25327 0.50024 0.61732 0.0
C884 C 0.2335 0.51329 0.6427 0.0
C885 C 0.19895 0.49304 0.65253 0.0
C886 C 0.25561 0.45758 0.57019 0.0
C887 C 0.25056 0.5452 0.66248 0.0
C888 C 0.34869 0.48764 0.63654 0.0
C889 C 0.36915 0.51476 0.61307 0.0
C890 C 0.31108 0.48375 0.6388 0.0
C891 C 0.29335 0.508 0.61731 0.0
C892 C 0.31389 0.53681 0.59469 0.0
C893 C 0.35163 0.53965 0.59263 0.0
C894 C 0.29029 0.45269 0.66356 0.0
C895 C 0.29623 0.56365 0.57171 0.0
H896 H 0.19001 0.42698 0.59613 0.0
H897 H 0.1852 0.50044 0.67425 0.0
H898 H 0.27188 0.48181 0.55428 0.0
H899 H 0.27441 0.43937 0.58121 0.0
H900 H 0.23668 0.44046 0.55402 0.0
H901 H 0.22976 0.55801 0.67496 0.0
H902 H 0.26743 0.53381 0.68222 0.0
H903 H 0.26836 0.56781 0.64603 0.0
H904 H 0.36208 0.46909 0.65307 0.0
H905 H 0.36721 0.56066 0.57433 0.0
H906 H 0.2718 0.43209 0.64992 0.0
H907 H 0.27349 0.46512 0.68092 0.0
H908 H 0.30834 0.43677 0.67878 0.0
H909 H 0.2884 0.55025 0.5484 0.0
H910 H 0.31512 0.59086 0.56443 0.0
H911 H 0.27147 0.57008 0.58355 0.0
C912 C 0.96816 0.85282 0.92223 0.0
C913 C 0.93092 0.84773 0.91594 0.0
C914 C 0.98395 0.82378 0.93984 0.0
C915 C 0.96246 0.78783 0.95097 0.0
C916 C 0.92483 0.78252 0.94466 0.0
C917 C 0.90959 0.81242 0.92774 0.0
C918 C 0.02386 0.83162 0.94646 0.0
C919 C 0.90067 0.74475 0.95506 0.0
C920 C 1.01048 0.70082 0.9652 0.0
C921 C 1.01141 0.69441 1.00046 0.0
C922 C 0.99449 0.73053 0.94902 0.0
C923 C 0.97946 0.7556 0.96822 0.0
C924 C 0.98077 0.74962 1.00385 0.0
C925 C 0.99619 0.71907 1.01942 0.0
C926 C 0.99321 0.73469 0.91117 0.0
C927 C 0.96598 0.7757 0.02567 0.0
H928 H 0.98505 0.87988 0.91356 0.0
H929 H 0.88094 0.80769 0.92281 0.0
H930 H 0.02832 0.8258 0.97371 0.0
H931 H 0.03779 0.81229 0.93317 0.0
H932 H 0.03656 0.86153 0.93808 0.0
H933 H 0.87205 0.74494 0.94854 0.0
H934 H 0.9103 0.72191 0.94255 0.0
H935 H 0.9019 0.73737 0.98255 0.0
H936 H 0.02167 0.68199 0.95004 0.0
H937 H 0.99655 0.71469 0.0466 0.0
H938 H 1.00813 0.76311 0.90095 0.0
H939 H 0.96479 0.73284 0.90331 0.0
H940 H 1.0051 0.71247 0.89975 0.0
H941 H 0.9795 0.80562 1.01865 0.0
H942 H 0.96984 0.76817 0.05283 0.0
H943 H 0.93669 0.77438 0.02151 0.0
C944 C 0.45302 0.79546 0.18404 0.0
C945 C 0.41624 0.78985 0.19322 0.0
C946 C 0.47261 0.83226 0.17498 0.0
C947 C 0.45493 0.86401 0.17532 0.0
C948 C 0.41844 0.8586 0.18676 0.0
C949 C 0.39948 0.82152 0.19545 0.0
C950 C 0.51144 0.83688 0.16284 0.0
C951 C 0.39875 0.89176 0.18783 0.0
C952 C 0.50841 0.96518 0.1642 0.0
C953 C 0.50345 0.9756 0.13008 0.0
C954 C 0.49322 0.92869 0.17935 0.0
C955 C 0.47292 0.90212 0.15979 0.0
C956 C 0.46854 0.91227 0.12518 0.0
C957 C 0.48374 0.94889 0.11081 0.0
C958 C 0.49823 0.91884 0.21635 0.0
C959 C 0.44731 0.88464 0.10337 0.0
H960 H 0.46595 0.77095 0.18212 0.0
H961 H 0.37113 0.81717 0.20296 0.0
H962 H 0.51324 0.84492 0.13529 0.0
H963 H 0.52864 0.8601 0.17473 0.0
H964 H 0.52254 0.81023 0.16823 0.0
H965 H 0.372 0.88326 0.20112 0.0
H966 H 0.41512 0.91488 0.20049 0.0
H967 H 0.39444 0.90363 0.16182 0.0
H968 H 0.5236 0.98573 0.17922 0.0
H969 H 0.48002 0.95662 0.08435 0.0
H970 H 0.5099 0.89244 0.22037 0.0
H971 H 0.4716 0.91316 0.22986 0.0
H972 H 0.51615 0.94207 0.22768 0.0
H973 H 0.45851 0.85789 0.10471 0.0
H974 H 0.44764 0.89654 0.07664 0.0
H975 H 0.41879 0.87704 0.1127 0.0
C976 C 0.1112 0.33674 0.6015 0.0
C977 C 0.09514 0.34186 0.63217 0.0
C978 C 0.10084 0.30312 0.58627 0.0
C979 C 0.07426 0.27385 0.60242 0.0
C980 C 0.05519 0.28054 0.63128 0.0
C981 C 0.06567 0.31476 0.64568 0.0
C982 C 0.12119 0.29737 0.55497 0.0
C983 C 0.02649 0.25007 0.64911 0.0
C984 C 0.04418 0.18346 0.56063 0.0
C985 C 0.06755 0.16008 0.5748 0.0
C986 C 0.04593 0.22072 0.56927 0.0
C987 C 0.07134 0.23455 0.59289 0.0
C988 C 0.09484 0.21099 0.60741 0.0
C989 C 0.09281 0.17409 0.59799 0.0
C990 C 0.02091 0.24532 0.55298 0.0
C991 C 0.12215 0.22473 0.63297 0.0
H992 H 0.1341 0.35737 0.59084 0.0
H993 H 0.05265 0.319 0.66898 0.0
H994 H 0.14156 0.27921 0.56192 0.0
H995 H 0.10267 0.2826 0.53712 0.0
H996 H 0.13552 0.32486 0.54203 0.0
H997 H 1.00994 0.26192 0.6672 0.0
H998 H 1.00833 0.2355 0.63089 0.0
H999 H 0.03967 0.22823 0.6632 0.0
H1000 H 0.02466 0.17276 0.54255 0.0
H1001 H 0.11076 0.15605 0.60912 0.0
H1002 H 0.03698 0.27095 0.53863 0.0
H1003 H 1.00477 0.25545 0.57246 0.0
H1004 H 1.00211 0.2299 0.53563 0.0
H1005 H 0.14152 0.24988 0.62158 0.0
H1006 H 0.13765 0.20241 0.64254 0.0
H1007 H 0.10827 0.23381 0.6546 0.0
C1008 C 0.61025 0.34179 0.49608 0.0
C1009 C 0.61795 0.32092 0.52582 0.0
C1010 C 0.60469 0.37963 0.49613 0.0
C1011 C 0.60677 0.39679 0.52666 0.0
C1012 C 0.61681 0.37661 0.55624 0.0
C1013 C 0.62239 0.33905 0.55542 0.0
C1014 C 0.59451 0.40036 0.46398 0.0
C1015 C 0.61945 0.3938 0.58934 0.0
C1016 C 0.60626 0.50195 0.53388 0.0
C1017 C 0.57017 0.50081 0.54392 0.0
C1018 C 0.61838 0.46864 0.52628 0.0
C1019 C 0.59386 0.43348 0.52907 0.0
C1020 C 0.55707 0.43264 0.53757 0.0
C1021 C 0.5457 0.46625 0.54476 0.0
C1022 C 0.65769 0.47078 0.5168 0.0
C1023 C 0.52996 0.39582 0.54088 0.0
H1024 H 0.60682 0.32799 0.4731 0.0
H1025 H 0.62922 0.32338 0.57831 0.0
H1026 H 0.5653 0.40186 0.46522 0.0
H1027 H 0.60968 0.43006 0.46062 0.0
H1028 H 0.59977 0.38579 0.44164 0.0
H1029 H 0.63072 0.37578 0.60925 0.0
H1030 H 0.63671 0.42248 0.58634 0.0
H1031 H 0.59216 0.39733 0.59787 0.0
H1032 H 0.62531 0.52857 0.53297 0.0
H1033 H 0.51768 0.46505 0.5522 0.0
H1034 H 0.66039 0.45474 0.49482 0.0
H1035 H 0.6714 0.45743 0.53799 0.0
H1036 H 0.67188 0.50068 0.51079 0.0
H1037 H 0.53055 0.38112 0.51779 0.0
H1038 H 0.50194 0.40045 0.54546 0.0
H1039 H 0.53716 0.37645 0.56211 0.0
loop_
_geom_bond_atom_site_label_1
_geom_bond_atom_site_label_2
_geom_bond_distance
_geom_bond_site_symmetry_2
_ccdc_geom_bond_type
H0 C1 0.949 . S
C1 H0 0.949 . S
C1 C2 1.395 . S
C1 C3 1.391 . S
C2 C1 1.395 . S
C2 C5 1.390 . S
C3 C1 1.391 . S
C3 C7 1.387 . S
C3 C8 1.491 . S
H4 C5 0.950 . S
C5 C2 1.390 . S
C5 H4 0.950 . S
C5 C6 1.378 . S
C6 C5 1.378 . S
C6 C7 1.409 . S
C7 C3 1.387 . S
C7 C6 1.409 . S
C7 H9 0.951 . S
C8 C3 1.491 . S
C8 C10 1.382 . S
C8 C12 1.404 . S
H9 C7 0.951 . S
C10 C8 1.382 . S
C10 C11 1.390 . S
C10 H15 0.949 . S
C11 C10 1.390 . S
C11 C16 1.399 . S
C12 C8 1.404 . S
C12 H13 0.950 . S
C12 C14 1.375 . S
H13 C12 0.950 . S
C14 C12 1.375 . S
C14 C16 1.382 . S
C14 H18 0.950 . S
H15 C10 0.949 . S
C16 C11 1.399 . S
C16 C14 1.382 . S
C16 H17 0.952 . S
H17 C16 0.952 . S
H18 C14 0.950 . S
H19 C20 0.949 . S
C20 H19 0.949 . S
C20 C21 1.395 . S
C20 C22 1.391 . S
C21 C20 1.395 . S
C21 C24 1.390 . S
C22 C20 1.391 . S
C22 C26 1.387 . S
C22 C27 1.491 . S
H23 C24 0.950 . S
C24 C21 1.390 . S
C24 H23 0.950 . S
C24 C25 1.378 . S
C25 C24 1.378 . S
C25 C26 1.409 . S
C26 C22 1.387 . S
C26 C25 1.409 . S
C26 H28 0.951 . S
C27 C22 1.491 . S
C27 C29 1.382 . S
C27 C31 1.404 . S
H28 C26 0.951 . S
C29 C27 1.382 . S
C29 C30 1.390 . S
C29 H34 0.949 . S
C30 C29 1.390 . S
C30 C35 1.399 . S
C31 C27 1.404 . S
C31 H32 0.950 . S
C31 C33 1.375 . S
H32 C31 0.950 . S
C33 C31 1.375 . S
C33 C35 1.382 . S
C33 H37 0.950 . S
H34 C29 0.949 . S
C35 C30 1.399 . S
C35 C33 1.382 . S
C35 H36 0.952 . S
H36 C35 0.952 . S
H37 C33 0.950 . S
H38 C39 0.949 . S
C39 H38 0.949 . S
C39 C40 1.395 . S
C39 C41 1.391 . S
C40 C39 1.395 . S
C40 C43 1.390 . S
C41 C39 1.391 . S
C41 C45 1.387 . S
C41 C46 1.491 . S
H42 C43 0.950 . S
C43 C40 1.390 . S
C43 H42 0.950 . S
C43 C44 1.378 . S
C44 C43 1.378 . S
C44 C45 1.409 . S
C45 C41 1.387 . S
C45 C44 1.409 . S
C45 H47 0.951 . S
C46 C41 1.491 . S
C46 C48 1.382 . S
C46 C50 1.404 . S
H47 C45 0.951 . S
C48 C46 1.382 . S
C48 C49 1.390 . S
C48 H53 0.949 . S
C49 C48 1.390 . S
C49 C54 1.399 . S
C50 C46 1.404 . S
C50 H51 0.950 . S
C50 C52 1.375 . S
H51 C50 0.950 . S
C52 C50 1.375 . S
C52 C54 1.382 . S
C52 H56 0.950 . S
H53 C48 0.949 . S
C54 C49 1.399 . S
C54 C52 1.382 . S
C54 H55 0.952 . S
H55 C54 0.952 . S
H56 C52 0.950 . S
H57 C58 0.949 . S
C58 H57 0.949 . S
C58 C59 1.395 . S
C58 C60 1.391 . S
C59 C58 1.395 . S
C59 C62 1.390 . S
C60 C58 1.391 . S
C60 C64 1.387 . S
C60 C65 1.491 . S
H61 C62 0.950 . S
C62 C59 1.390 . S
C62 H61 0.950 . S
C62 C63 1.378 . S
C63 C62 1.378 . S
C63 C64 1.409 . S
C64 C60 1.387 . S
C64 C63 1.409 . S
C64 H66 0.951 . S
C65 C60 1.491 . S
C65 C67 1.382 . S
C65 C69 1.404 . S
H66 C64 0.951 . S
C67 C65 1.382 . S
C67 C68 1.390 . S
C67 H72 0.949 . S
C68 C67 1.390 . S
C68 C73 1.399 . S
C69 C65 1.404 . S
C69 H70 0.950 . S
C69 C71 1.375 . S
H70 C69 0.950 . S
C71 C69 1.375 . S
C71 C73 1.382 . S
C71 H75 0.950 . S
H72 C67 0.949 . S
C73 C68 1.399 . S
C73 C71 1.382 . S
C73 H74 0.952 . S
H74 C73 0.952 . S
H75 C71 0.950 . S
H76 C77 0.949 . S
C77 H76 0.949 . S
C77 C78 1.395 . S
C77 C79 1.391 . S
C78 C77 1.395 . S
C78 C81 1.390 . S
C79 C77 1.391 . S
C79 C83 1.387 . S
C79 C84 1.491 . S
H80 C81 0.950 . S
C81 C78 1.390 . S
C81 H80 0.950 . S
C81 C82 1.378 . S
C82 C81 1.378 . S
C82 C83 1.409 . S
C83 C79 1.387 . S
C83 C82 1.409 . S
C83 H85 0.951 . S
C84 C79 1.491 . S
C84 C86 1.382 . S
C84 C88 1.404 . S
H85 C83 0.951 . S
C86 C84 1.382 . S
C86 C87 1.390 . S
C86 H91 0.949 . S
C87 C86 1.390 . S
C87 C92 1.399 . S
C88 C84 1.404 . S
C88 H89 0.950 . S
C88 C90 1.375 . S
H89 C88 0.950 . S
C90 C88 1.375 . S
C90 C92 1.382 . S
C90 H94 0.950 . S
H91 C86 0.949 . S
C92 C87 1.399 . S
C92 C90 1.382 . S
C92 H93 0.952 . S
H93 C92 0.952 . S
H94 C90 0.950 . S
H95 C96 0.949 . S
C96 H95 0.949 . S
C96 C97 1.395 . S
C96 C98 1.391 . S
C97 C96 1.395 . S
C97 C100 1.390 . S
C98 C96 1.391 . S
C98 C102 1.387 . S
C98 C103 1.491 . S
H99 C100 0.950 . S
C100 C97 1.390 . S
C100 H99 0.950 . S
C100 C101 1.378 . S
C101 C100 1.378 . S
C101 C102 1.409 . S
C102 C98 1.387 . S
C102 C101 1.409 . S
C102 H104 0.951 . S
C103 C98 1.491 . S
C103 C105 1.382 . S
C103 C107 1.404 . S
H104 C102 0.951 . S
C105 C103 1.382 . S
C105 C106 1.390 . S
C105 H110 0.949 . S
C106 C105 1.390 . S
C106 C111 1.399 . S
C107 C103 1.404 . S
C107 H108 0.950 . S
C107 C109 1.375 . S
H108 C107 0.950 . S
C109 C107 1.375 . S
C109 C111 1.382 . S
C109 H113 0.950 . S
H110 C105 0.949 . S
C111 C106 1.399 . S
C111 C109 1.382 . S
C111 H112 0.952 . S
H112 C111 0.952 . S
H113 C109 0.950 . S
H114 C115 0.949 . S
C115 H114 0.949 . S
C115 C116 1.395 . S
C115 C117 1.391 . S
C116 C115 1.395 . S
C116 C119 1.390 . S
C117 C115 1.391 . S
C117 C121 1.387 . S
C117 C122 1.491 . S
H118 C119 0.950 . S
C119 C116 1.390 . S
C119 H118 0.950 . S
C119 C120 1.378 . S
C120 C119 1.378 . S
C120 C121 1.409 . S
C121 C117 1.387 . S
C121 C120 1.409 . S
C121 H123 0.951 . S
C122 C117 1.491 . S
C122 C124 1.382 . S
C122 C126 1.404 . S
H123 C121 0.951 . S
C124 C122 1.382 . S
C124 C125 1.390 . S
C124 H129 0.949 . S
C125 C124 1.390 . S
C125 C130 1.399 . S
C126 C122 1.404 . S
C126 H127 0.950 . S
C126 C128 1.375 . S
H127 C126 0.950 . S
C128 C126 1.375 . S
C128 C130 1.382 . S
C128 H132 0.950 . S
H129 C124 0.949 . S
C130 C125 1.399 . S
C130 C128 1.382 . S
C130 H131 0.952 . S
H131 C130 0.952 . S
H132 C128 0.950 . S
H133 C134 0.949 . S
C134 H133 0.949 . S
C134 C135 1.395 . S
C134 C136 1.391 . S
C135 C134 1.395 . S
C135 C138 1.390 . S
C136 C134 1.391 . S
C136 C140 1.387 . S
C136 C141 1.491 . S
H137 C138 0.950 . S
C138 C135 1.390 . S
C138 H137 0.950 . S
C138 C139 1.378 . S
C139 C138 1.378 . S
C139 C140 1.409 . S
C140 C136 1.387 . S
C140 C139 1.409 . S
C140 H142 0.951 . S
C141 C136 1.491 . S
C141 C143 1.382 . S
C141 C145 1.404 . S
H142 C140 0.951 . S
C143 C141 1.382 . S
C143 C144 1.390 . S
C143 H148 0.949 . S
C144 C143 1.390 . S
C144 C149 1.399 . S
C145 C141 1.404 . S
C145 H146 0.950 . S
C145 C147 1.375 . S
H146 C145 0.950 . S
C147 C145 1.375 . S
C147 C149 1.382 . S
C147 H151 0.950 . S
H148 C143 0.949 . S
C149 C144 1.399 . S
C149 C147 1.382 . S
C149 H150 0.952 . S
H150 C149 0.952 . S
H151 C147 0.950 . S
Co152 N157 2.057 . S
Co152 O169 2.017 1_655 S
Co152 O172 2.062 1_655 S
Co152 O176 2.117 . S
Co152 O177 2.020 . S
C153 O173 1.259 1_655 S
C153 O176 1.258 1_565 S
Co154 N163 2.057 . S
Co154 O170 2.117 . S
Co154 O171 2.020 . S
Co154 O173 2.021 1_545 S
Co154 O178 2.062 . S
C155 N157 1.316 . S
C155 N158 1.347 . S
C155 H160 0.931 . S
C156 N157 1.375 . S
C156 C159 1.350 . S
C156 H161 0.930 . S
N157 Co152 2.057 . S
N157 C155 1.316 . S
N157 C156 1.375 . S
N158 C155 1.347 . S
N158 C159 1.373 . S
C159 C156 1.350 . S
C159 N158 1.373 . S
C159 H180 0.931 . S
H160 C155 0.931 . S
H161 C156 0.930 . S
C162 O169 1.281 . S
C162 O170 1.258 . S
N163 Co154 2.057 . S
N163 C164 1.316 . S
N163 C165 1.375 . S
C164 N163 1.316 . S
C164 N166 1.347 . S
C164 H175 0.931 1_545 S
C165 N163 1.375 . S
C165 C167 1.350 . S
C165 H174 0.930 . S
N166 C164 1.347 . S
N166 C167 1.373 . S
C167 C165 1.350 . S
C167 N166 1.373 . S
C167 H181 0.931 . S
C168 O171 1.256 . S
C168 O172 1.255 . S
O169 Co152 2.017 1_455 S
O169 C162 1.281 . S
O170 Co154 2.117 . S
O170 C162 1.258 . S
O171 Co154 2.020 . S
O171 C168 1.256 . S
O172 Co152 2.062 1_455 S
O172 C168 1.255 . S
O173 C153 1.259 1_455 S
O173 Co154 2.021 1_565 S
H174 C165 0.930 . S
H175 C164 0.931 1_565 S
O176 Co152 2.117 . S
O176 C153 1.258 1_545 S
O177 Co152 2.020 . S
O177 C179 1.256 . S
O178 Co154 2.062 . S
O178 C179 1.255 1_455 S
C179 O177 1.256 . S
C179 O178 1.255 1_655 S
H180 C159 0.931 . S
H181 C167 0.931 . S
Co182 N187 2.057 1_554 S
Co182 O199 2.021 . S
Co182 O202 2.062 . S
Co182 O206 2.117 1_545 S
Co182 O207 2.020 . S
C183 O203 1.269 . S
C183 O206 1.258 . S
Co184 N193 2.057 . S
Co184 O200 2.117 . S
Co184 O201 2.020 . S
Co184 O203 2.005 1_545 S
Co184 O208 2.062 . S
C185 N187 1.316 . S
C185 N188 1.347 1_545 S
C185 H190 0.931 . S
C186 N187 1.375 1_565 S
C186 C189 1.350 . S
C186 H191 0.930 1_556 S
N187 Co182 2.057 1_556 S
N187 C185 1.316 . S
N187 C186 1.375 1_545 S
N188 C185 1.347 1_565 S
N188 C189 1.373 . S
C189 C186 1.350 . S
C189 N188 1.373 . S
C189 H210 0.931 . S
H190 C185 0.931 . S
H191 C186 0.930 1_554 S
C192 O199 1.259 . S
C192 O200 1.258 . S
N193 Co184 2.057 . S
N193 C194 1.316 . S
N193 C195 1.375 . S
C194 N193 1.316 . S
C194 N196 1.347 . S
C194 H205 0.931 . S
C195 N193 1.375 . S
C195 C197 1.350 . S
C195 H204 0.930 . S
N196 C194 1.347 . S
N196 C197 1.373 . S
C197 C195 1.350 . S
C197 N196 1.373 . S
C197 H211 0.931 . S
C198 O201 1.256 . S
C198 O202 1.255 . S
O199 Co182 2.021 . S
O199 C192 1.259 . S
O200 Co184 2.117 . S
O200 C192 1.258 . S
O201 Co184 2.020 . S
O201 C198 1.256 . S
O202 Co182 2.062 . S
O202 C198 1.255 . S
O203 C183 1.269 . S
O203 Co184 2.005 1_565 S
H204 C195 0.930 . S
H205 C194 0.931 . S
O206 Co182 2.117 1_565 S
O206 C183 1.258 . S
O207 Co182 2.020 . S
O207 C209 1.256 . S
O208 Co184 2.062 . S
O208 C209 1.255 . S
C209 O207 1.256 . S
C209 O208 1.255 . S
H210 C189 0.931 . S
H211 C197 0.931 . S
Co212 N217 2.057 . S
Co212 O229 2.021 . S
Co212 O232 2.062 . S
Co212 O236 2.117 . S
Co212 O237 2.020 . S
C213 O233 1.259 . S
C213 O236 1.258 . S
Co214 N223 2.057 . S
Co214 O230 2.117 . S
Co214 O231 2.020 . S
Co214 O233 2.021 . S
Co214 O238 2.062 . S
C215 N217 1.316 . S
C215 N218 1.347 . S
C215 H220 0.931 . S
C216 N217 1.375 . S
C216 C219 1.350 . S
C216 H221 0.930 . S
N217 Co212 2.057 . S
N217 C215 1.316 . S
N217 C216 1.375 . S
N218 C215 1.347 . S
N218 C219 1.373 . S
C219 C216 1.350 . S
C219 N218 1.373 . S
C219 H240 0.931 . S
H220 C215 0.931 . S
H221 C216 0.930 . S
C222 O229 1.259 . S
C222 O230 1.258 . S
N223 Co214 2.057 . S
N223 C224 1.316 . S
N223 C225 1.375 . S
C224 N223 1.316 . S
C224 N226 1.347 . S
C224 H235 0.931 . S
C225 N223 1.375 . S
C225 C227 1.350 . S
C225 H234 0.930 . S
N226 C224 1.347 . S
N226 C227 1.373 . S
C227 C225 1.350 . S
C227 N226 1.373 . S
C227 H241 0.931 . S
C228 O231 1.256 . S
C228 O232 1.255 . S
O229 Co212 2.021 . S
O229 C222 1.259 . S
O230 Co214 2.117 . S
O230 C222 1.258 . S
O231 Co214 2.020 . S
O231 C228 1.256 . S
O232 Co212 2.062 . S
O232 C228 1.255 . S
O233 C213 1.259 . S
O233 Co214 2.021 . S
H234 C225 0.930 . S
H235 C224 0.931 . S
O236 Co212 2.117 . S
O236 C213 1.258 . S
O237 Co212 2.020 . S
O237 C239 1.256 . S
O238 Co214 2.062 . S
O238 C239 1.255 . S
C239 O237 1.256 . S
C239 O238 1.255 . S
H240 C219 0.931 . S
H241 C227 0.931 . S
Co242 N247 2.057 . S
Co242 O259 2.021 1_556 S
Co242 O262 2.062 1_556 S
Co242 O266 2.117 1_455 S
Co242 O267 2.020 . S
C243 O263 1.259 . S
C243 O266 1.258 1_554 S
Co244 N253 2.057 . S
Co244 O260 2.117 . S
Co244 O261 2.020 . S
Co244 O263 2.021 1_455 S
Co244 O268 2.062 . S
C245 N247 1.316 . S
C245 N248 1.347 . S
C245 H250 0.931 . S
C246 N247 1.375 . S
C246 C249 1.350 . S
C246 H251 0.930 1_455 S
N247 Co242 2.057 . S
N247 C245 1.316 . S
N247 C246 1.375 . S
N248 C245 1.347 . S
N248 C249 1.373 . S
C249 C246 1.350 . S
C249 N248 1.373 . S
C249 H270 0.931 . S
H250 C245 0.931 . S
H251 C246 0.930 1_655 S
C252 O259 1.259 . S
C252 O260 1.258 . S
N253 Co244 2.057 . S
N253 C254 1.316 1_455 S
N253 C255 1.375 . S
C254 N253 1.316 1_655 S
C254 N256 1.347 . S
C254 H265 0.931 . S
C255 N253 1.375 . S
C255 C257 1.350 . S
C255 H264 0.930 . S
N256 C254 1.347 . S
N256 C257 1.373 1_655 S
C257 C255 1.350 . S
C257 N256 1.373 1_455 S
C257 H271 0.931 . S
C258 O261 1.256 . S
C258 O262 1.255 . S
O259 Co242 2.021 1_554 S
O259 C252 1.259 . S
O260 Co244 2.117 . S
O260 C252 1.258 . S
O261 Co244 2.020 . S
O261 C258 1.256 . S
O262 Co242 2.062 1_554 S
O262 C258 1.255 . S
O263 C243 1.259 . S
O263 Co244 2.021 1_655 S
H264 C255 0.930 . S
H265 C254 0.931 . S
O266 Co242 2.117 1_655 S
O266 C243 1.258 1_556 S
O267 Co242 2.020 . S
O267 C269 1.256 1_556 S
O268 Co244 2.062 . S
O268 C269 1.255 . S
C269 O267 1.256 1_554 S
C269 O268 1.255 . S
H270 C249 0.931 . S
H271 C257 0.931 . S
C272 C273 1.391 . S
C272 C274 1.394 . S
C272 H288 0.931 . S
C273 C272 1.391 . S
C273 C277 1.376 . S
C274 C272 1.394 . S
C274 C275 1.369 . S
C274 C278 1.531 . S
C275 C274 1.369 . S
C275 C276 1.410 . S
C275 C283 1.503 . S
C276 C275 1.410 . S
C276 C277 1.392 . S
C276 C279 1.511 . S
C277 C273 1.376 . S
C277 C276 1.392 . S
C277 H289 0.929 . S
C278 C274 1.531 . S
C278 H290 0.960 . S
C278 H291 0.962 . S
C278 H292 0.960 . S
C279 C276 1.511 . S
C279 H293 0.961 . S
C279 H294 0.961 . S
C279 H295 0.961 . S
C280 C281 1.370 . S
C280 C282 1.363 . S
C280 H296 0.931 . S
C281 C280 1.370 . S
C281 C285 1.408 . S
C282 C280 1.363 . S
C282 C283 1.370 . S
C282 C286 1.524 . S
C283 C275 1.503 . S
C283 C282 1.370 . S
C283 C284 1.403 . S
C284 C283 1.403 . S
C284 C285 1.404 . S
C284 C287 1.539 . S
C285 C281 1.408 . S
C285 C284 1.404 . S
C285 H297 0.930 . S
C286 C282 1.524 . S
C286 H298 0.956 . S
C286 H299 0.961 . S
C286 H300 0.961 . S
C287 C284 1.539 . S
C287 H301 0.958 . S
C287 H302 0.961 . S
C287 H303 0.960 . S
H288 C272 0.931 . S
H289 C277 0.929 . S
H290 C278 0.960 . S
H291 C278 0.962 . S
H292 C278 0.960 . S
H293 C279 0.961 . S
H294 C279 0.961 . S
H295 C279 0.961 . S
H296 C280 0.931 . S
H297 C285 0.930 . S
H298 C286 0.956 . S
H299 C286 0.961 . S
H300 C286 0.961 . S
H301 C287 0.958 . S
H302 C287 0.961 . S
H303 C287 0.960 . S
C304 C305 1.391 . S
C304 C306 1.394 . S
C304 H320 0.931 . S
C305 C304 1.391 . S
C305 C309 1.376 . S
C306 C304 1.394 . S
C306 C307 1.369 . S
C306 C310 1.531 . S
C307 C306 1.369 . S
C307 C308 1.410 . S
C307 C315 1.503 . S
C308 C307 1.410 . S
C308 C309 1.392 . S
C308 C311 1.511 1_565 S
C309 C305 1.376 . S
C309 C308 1.392 . S
C309 H321 0.929 . S
C310 C306 1.531 . S
C310 H322 0.960 . S
C310 H323 0.962 . S
C310 H324 0.960 . S
C311 C308 1.511 1_545 S
C311 H325 0.961 . S
C311 H326 0.961 . S
C311 H327 0.961 . S
C312 C313 1.370 . S
C312 C314 1.363 . S
C312 H328 0.931 . S
C313 C312 1.370 . S
C313 C317 1.408 1_565 S
C314 C312 1.363 . S
C314 C315 1.370 . S
C314 C318 1.524 . S
C315 C307 1.503 . S
C315 C314 1.370 . S
C315 C316 1.403 1_565 S
C316 C315 1.403 1_545 S
C316 C317 1.404 . S
C316 C319 1.539 . S
C317 C313 1.408 1_545 S
C317 C316 1.404 . S
C317 H329 0.930 . S
C318 C314 1.524 . S
C318 H330 0.956 . S
C318 H331 0.961 . S
C318 H332 0.961 . S
C319 C316 1.539 . S
C319 H333 0.958 . S
C319 H334 0.961 . S
C319 H335 0.960 . S
H320 C304 0.931 . S
H321 C309 0.929 . S
H322 C310 0.960 . S
H323 C310 0.962 . S
H324 C310 0.960 . S
H325 C311 0.961 . S
H326 C311 0.961 . S
H327 C311 0.961 . S
H328 C312 0.931 . S
H329 C317 0.930 . S
H330 C318 0.956 . S
H331 C318 0.961 . S
H332 C318 0.961 . S
H333 C319 0.958 . S
H334 C319 0.961 . S
H335 C319 0.960 . S
C336 C337 1.391 . S
C336 C338 1.394 . S
C336 H352 0.931 . S
C337 C336 1.391 . S
C337 C341 1.376 . S
C338 C336 1.394 . S
C338 C339 1.369 . S
C338 C342 1.531 . S
C339 C338 1.369 . S
C339 C340 1.410 . S
C339 C347 1.503 . S
C340 C339 1.410 . S
C340 C341 1.392 . S
C340 C343 1.511 . S
C341 C337 1.376 . S
C341 C340 1.392 . S
C341 H353 0.929 . S
C342 C338 1.531 . S
C342 H354 0.960 . S
C342 H355 0.962 . S
C342 H356 0.960 . S
C343 C340 1.511 . S
C343 H357 0.961 . S
C343 H358 0.961 . S
C343 H359 0.961 . S
C344 C345 1.370 . S
C344 C346 1.363 . S
C344 H360 0.931 . S
C345 C344 1.370 . S
C345 C349 1.408 . S
C346 C344 1.363 . S
C346 C347 1.370 . S
C346 C350 1.524 . S
C347 C339 1.503 . S
C347 C346 1.370 . S
C347 C348 1.403 . S
C348 C347 1.403 . S
C348 C349 1.404 . S
C348 C351 1.539 . S
C349 C345 1.408 . S
C349 C348 1.404 . S
C349 H361 0.930 . S
C350 C346 1.524 . S
C350 H362 0.956 . S
C350 H363 0.961 . S
C350 H364 0.961 . S
C351 C348 1.539 . S
C351 H365 0.958 . S
C351 H366 0.961 . S
C351 H367 0.960 . S
H352 C336 0.931 . S
H353 C341 0.929 . S
H354 C342 0.960 . S
H355 C342 0.962 . S
H356 C342 0.960 . S
H357 C343 0.961 . S
H358 C343 0.961 . S
H359 C343 0.961 . S
H360 C344 0.931 . S
H361 C349 0.930 . S
H362 C350 0.956 . S
H363 C350 0.961 . S
H364 C350 0.961 . S
H365 C351 0.958 . S
H366 C351 0.961 . S
H367 C351 0.960 . S
C368 C369 1.391 . S
C368 C370 1.394 . S
C368 H384 0.931 . S
C369 C368 1.391 . S
C369 C373 1.376 . S
C370 C368 1.394 . S
C370 C371 1.369 . S
C370 C374 1.531 . S
C371 C370 1.369 . S
C371 C372 1.412 . S
C371 C379 1.503 . S
C372 C371 1.412 . S
C372 C373 1.393 . S
C372 C375 1.508 1_655 S
C373 C369 1.376 . S
C373 C372 1.393 . S
C373 H385 0.929 1_655 S
C374 C370 1.531 . S
C374 H386 0.960 . S
C374 H387 0.962 . S
C374 H388 0.960 . S
C375 C372 1.508 1_455 S
C375 H389 0.961 . S
C375 H390 0.961 . S
C375 H391 0.961 . S
C376 C377 1.370 . S
C376 C378 1.363 . S
C376 H392 0.931 . S
C377 C376 1.370 . S
C377 C381 1.408 1_655 S
C378 C376 1.363 . S
C378 C379 1.370 . S
C378 C382 1.524 . S
C379 C371 1.503 . S
C379 C378 1.370 . S
C379 C380 1.403 1_655 S
C380 C379 1.403 1_455 S
C380 C381 1.404 . S
C380 C383 1.539 . S
C381 C377 1.408 1_455 S
C381 C380 1.404 . S
C381 H393 0.930 . S
C382 C378 1.524 . S
C382 H394 0.956 . S
C382 H395 0.961 . S
C382 H396 0.961 . S
C383 C380 1.539 . S
C383 H397 0.958 . S
C383 H398 0.961 . S
C383 H399 0.960 . S
H384 C368 0.931 . S
H385 C373 0.929 1_455 S
H386 C374 0.960 . S
H387 C374 0.962 . S
H388 C374 0.960 . S
H389 C375 0.961 . S
H390 C375 0.961 . S
H391 C375 0.961 . S
H392 C376 0.931 . S
H393 C381 0.930 . S
H394 C382 0.956 . S
H395 C382 0.961 . S
H396 C382 0.961 . S
H397 C383 0.958 . S
H398 C383 0.961 . S
H399 C383 0.960 . S
C400 C401 1.391 . S
C400 C402 1.394 . S
C400 H416 0.931 . S
C401 C400 1.391 . S
C401 C405 1.376 . S
C402 C400 1.394 . S
C402 C403 1.369 . S
C402 C406 1.531 . S
C403 C402 1.369 . S
C403 C404 1.410 . S
C403 C411 1.503 . S
C404 C403 1.410 . S
C404 C405 1.392 . S
C404 C407 1.511 . S
C405 C401 1.376 . S
C405 C404 1.392 . S
C405 H417 0.929 . S
C406 C402 1.531 . S
C406 H418 0.960 . S
C406 H419 0.962 . S
C406 H420 0.960 . S
C407 C404 1.511 . S
C407 H421 0.961 . S
C407 H422 0.961 . S
C407 H423 0.961 . S
C408 C409 1.370 . S
C408 C410 1.363 . S
C408 H424 0.931 . S
C409 C408 1.370 . S
C409 C413 1.408 . S
C410 C408 1.363 . S
C410 C411 1.370 . S
C410 C414 1.524 . S
C411 C403 1.503 . S
C411 C410 1.370 . S
C411 C412 1.403 . S
C412 C411 1.403 . S
C412 C413 1.404 . S
C412 C415 1.539 . S
C413 C409 1.408 . S
C413 C412 1.404 . S
C413 H425 0.930 . S
C414 C410 1.524 . S
C414 H426 0.956 . S
C414 H427 0.961 . S
C414 H428 0.961 . S
C415 C412 1.539 . S
C415 H429 0.958 . S
C415 H430 0.961 . S
C415 H431 0.960 . S
H416 C400 0.931 . S
H417 C405 0.929 . S
H418 C406 0.960 . S
H419 C406 0.962 . S
H420 C406 0.960 . S
H421 C407 0.961 . S
H422 C407 0.961 . S
H423 C407 0.961 . S
H424 C408 0.931 . S
H425 C413 0.930 . S
H426 C414 0.956 . S
H427 C414 0.961 . S
H428 C414 0.961 . S
H429 C415 0.958 . S
H430 C415 0.961 . S
H431 C415 0.960 . S
C432 C433 1.391 . S
C432 C434 1.394 . S
C432 H448 0.931 . S
C433 C432 1.391 . S
C433 C437 1.376 . S
C434 C432 1.394 . S
C434 C435 1.369 . S
C434 C438 1.531 . S
C435 C434 1.369 . S
C435 C436 1.410 . S
C435 C443 1.503 . S
C436 C435 1.410 . S
C436 C437 1.392 . S
C436 C439 1.511 . S
C437 C433 1.376 . S
C437 C436 1.392 . S
C437 H449 0.929 . S
C438 C434 1.531 . S
C438 H450 0.960 . S
C438 H451 0.962 1_565 S
C438 H452 0.960 . S
C439 C436 1.511 . S
C439 H453 0.961 . S
C439 H454 0.961 . S
C439 H455 0.961 . S
C440 C441 1.370 . S
C440 C442 1.363 . S
C440 H456 0.931 . S
C441 C440 1.370 . S
C441 C445 1.408 1_545 S
C442 C440 1.363 . S
C442 C443 1.370 1_545 S
C442 C446 1.524 . S
C443 C435 1.503 . S
C443 C442 1.370 1_565 S
C443 C444 1.403 . S
C444 C443 1.403 . S
C444 C445 1.404 . S
C444 C447 1.539 . S
C445 C441 1.408 1_565 S
C445 C444 1.404 . S
C445 H457 0.930 . S
C446 C442 1.524 . S
C446 H458 0.956 . S
C446 H459 0.961 . S
C446 H460 0.961 . S
C447 C444 1.539 . S
C447 H461 0.958 . S
C447 H462 0.961 . S
C447 H463 0.960 . S
H448 C432 0.931 . S
H449 C437 0.929 . S
H450 C438 0.960 . S
H451 C438 0.962 1_545 S
H452 C438 0.960 . S
H453 C439 0.961 . S
H454 C439 0.961 . S
H455 C439 0.961 . S
H456 C440 0.931 . S
H457 C445 0.930 . S
H458 C446 0.956 . S
H459 C446 0.961 . S
H460 C446 0.961 . S
H461 C447 0.958 . S
H462 C447 0.961 . S
H463 C447 0.960 . S
C464 C465 1.391 . S
C464 C466 1.394 . S
C464 H480 0.931 . S
C465 C464 1.391 . S
C465 C469 1.376 . S
C466 C464 1.394 . S
C466 C467 1.369 . S
C466 C470 1.531 . S
C467 C466 1.369 . S
C467 C468 1.410 1_556 S
C467 C475 1.503 . S
C468 C467 1.410 1_554 S
C468 C469 1.392 1_554 S
C468 C471 1.511 . S
C469 C465 1.376 . S
C469 C468 1.392 1_556 S
C469 H481 0.929 1_556 S
C470 C466 1.531 . S
C470 H482 0.960 . S
C470 H483 0.962 . S
C470 H484 0.960 . S
C471 C468 1.511 . S
C471 H485 0.961 . S
C471 H486 0.961 . S
C471 H487 0.961 . S
C472 C473 1.370 1_556 S
C472 C474 1.363 . S
C472 H488 0.931 . S
C473 C472 1.370 1_554 S
C473 C477 1.409 . S
C474 C472 1.363 . S
C474 C475 1.370 . S
C474 C478 1.524 . S
C475 C467 1.503 . S
C475 C474 1.370 . S
C475 C476 1.403 1_556 S
C476 C475 1.403 1_554 S
C476 C477 1.404 . S
C476 C479 1.539 . S
C477 C473 1.409 . S
C477 C476 1.404 . S
C477 H489 0.930 . S
C478 C474 1.524 . S
C478 H490 0.956 . S
C478 H491 0.961 . S
C478 H492 0.961 . S
C479 C476 1.539 . S
C479 H493 0.970 . S
C479 H494 0.961 . S
C479 H495 0.960 . S
H480 C464 0.931 . S
H481 C469 0.929 1_554 S
H482 C470 0.960 . S
H483 C470 0.962 . S
H484 C470 0.960 . S
H485 C471 0.961 . S
H486 C471 0.961 . S
H487 C471 0.961 . S
H488 C472 0.931 . S
H489 C477 0.930 . S
H490 C478 0.956 . S
H491 C478 0.961 . S
H492 C478 0.961 . S
H493 C479 0.970 . S
H494 C479 0.961 . S
H495 C479 0.960 . S
C496 C497 1.391 . S
C496 C498 1.394 . S
C496 H512 0.931 . S
C497 C496 1.391 . S
C497 C501 1.376 . S
C498 C496 1.394 . S
C498 C499 1.369 . S
C498 C502 1.531 . S
C499 C498 1.369 . S
C499 C500 1.410 . S
C499 C507 1.503 . S
C500 C499 1.410 . S
C500 C501 1.392 . S
C500 C503 1.511 . S
C501 C497 1.376 . S
C501 C500 1.392 . S
C501 H513 0.929 . S
C502 C498 1.531 . S
C502 H514 0.960 . S
C502 H515 0.962 . S
C502 H516 0.960 . S
C503 C500 1.511 . S
C503 H517 0.961 . S
C503 H518 0.961 . S
C503 H519 0.961 . S
C504 C505 1.370 . S
C504 C506 1.363 . S
C504 H520 0.931 . S
C505 C504 1.370 . S
C505 C509 1.408 . S
C506 C504 1.363 . S
C506 C507 1.370 . S
C506 C510 1.524 . S
C507 C499 1.503 . S
C507 C506 1.370 . S
C507 C508 1.403 . S
C508 C507 1.403 . S
C508 C509 1.404 . S
C508 C511 1.539 . S
C509 C505 1.408 . S
C509 C508 1.404 . S
C509 H521 0.930 . S
C510 C506 1.524 . S
C510 H522 0.956 . S
C510 H523 0.961 . S
C510 H524 0.961 . S
C511 C508 1.539 . S
C511 H525 0.958 . S
C511 H526 0.961 . S
C511 H527 0.960 . S
H512 C496 0.931 . S
H513 C501 0.929 . S
H514 C502 0.960 . S
H515 C502 0.962 . S
H516 C502 0.960 . S
H517 C503 0.961 . S
H518 C503 0.961 . S
H519 C503 0.961 . S
H520 C504 0.931 . S
H521 C509 0.930 . S
H522 C510 0.956 . S
H523 C510 0.961 . S
H524 C510 0.961 . S
H525 C511 0.958 . S
H526 C511 0.961 . S
H527 C511 0.960 . S
C528 C529 1.391 . S
C528 C530 1.394 . S
C528 H544 0.931 . S
C529 C528 1.391 . S
C529 C533 1.376 . S
C530 C528 1.394 . S
C530 C531 1.369 . S
C530 C534 1.531 . S
C531 C530 1.369 . S
C531 C532 1.410 . S
C531 C539 1.503 . S
C532 C531 1.410 . S
C532 C533 1.392 . S
C532 C535 1.511 . S
C533 C529 1.376 . S
C533 C532 1.392 . S
C533 H545 0.929 . S
C534 C530 1.531 . S
C534 H546 0.960 . S
C534 H547 0.962 . S
C534 H548 0.960 . S
C535 C532 1.511 . S
C535 H549 0.961 . S
C535 H550 0.961 . S
C535 H551 0.961 . S
C536 C537 1.370 . S
C536 C538 1.363 . S
C536 H552 0.931 . S
C537 C536 1.370 . S
C537 C541 1.408 . S
C538 C536 1.363 . S
C538 C539 1.370 . S
C538 C542 1.524 . S
C539 C531 1.503 . S
C539 C538 1.370 . S
C539 C540 1.403 . S
C540 C539 1.403 . S
C540 C541 1.404 . S
C540 C543 1.539 . S
C541 C537 1.408 . S
C541 C540 1.404 . S
C541 H553 0.930 . S
C542 C538 1.524 . S
C542 H554 0.956 . S
C542 H555 0.961 . S
C542 H556 0.961 . S
C543 C540 1.539 . S
C543 H557 0.958 1_554 S
C543 H558 0.961 . S
C543 H559 0.960 . S
H544 C528 0.931 . S
H545 C533 0.929 . S
H546 C534 0.960 . S
H547 C534 0.962 . S
H548 C534 0.960 . S
H549 C535 0.961 . S
H550 C535 0.961 . S
H551 C535 0.961 . S
H552 C536 0.931 . S
H553 C541 0.930 . S
H554 C542 0.956 . S
H555 C542 0.961 . S
H556 C542 0.961 . S
H557 C543 0.958 1_556 S
H558 C543 0.961 . S
H559 C543 0.960 . S
C560 C561 1.391 1_554 S
C560 C562 1.394 . S
C560 H576 0.931 . S
C561 C560 1.391 1_556 S
C561 C565 1.376 . S
C562 C560 1.394 . S
C562 C563 1.369 . S
C562 C566 1.531 . S
C563 C562 1.369 . S
C563 C564 1.410 1_554 S
C563 C571 1.503 . S
C564 C563 1.410 1_556 S
C564 C565 1.392 . S
C564 C567 1.511 . S
C565 C561 1.376 . S
C565 C564 1.392 . S
C565 H577 0.929 . S
C566 C562 1.531 . S
C566 H578 0.960 . S
C566 H579 0.962 . S
C566 H580 0.960 . S
C567 C564 1.511 . S
C567 H581 0.961 . S
C567 H582 0.961 . S
C567 H583 0.961 . S
C568 C569 1.370 . S
C568 C570 1.363 . S
C568 H584 0.931 . S
C569 C568 1.370 . S
C569 C573 1.408 . S
C570 C568 1.363 . S
C570 C571 1.370 . S
C570 C574 1.524 . S
C571 C563 1.503 . S
C571 C570 1.370 . S
C571 C572 1.403 . S
C572 C571 1.403 . S
C572 C573 1.404 . S
C572 C575 1.539 . S
C573 C569 1.408 . S
C573 C572 1.404 . S
C573 H585 0.930 . S
C574 C570 1.524 . S
C574 H586 0.956 . S
C574 H587 0.961 1_554 S
C574 H588 0.961 . S
C575 C572 1.539 . S
C575 H589 0.958 . S
C575 H590 0.961 . S
C575 H591 0.960 . S
H576 C560 0.931 . S
H577 C565 0.929 . S
H578 C566 0.960 . S
H579 C566 0.962 . S
H580 C566 0.960 . S
H581 C567 0.961 . S
H582 C567 0.961 . S
H583 C567 0.961 . S
H584 C568 0.931 . S
H585 C573 0.930 . S
H586 C574 0.956 . S
H587 C574 0.961 1_556 S
H588 C574 0.961 . S
H589 C575 0.958 . S
H590 C575 0.961 . S
H591 C575 0.960 . S
C592 C593 1.391 . S
C592 C594 1.394 . S
C592 H608 0.931 . S
C593 C592 1.391 . S
C593 C597 1.376 . S
C594 C592 1.394 . S
C594 C595 1.369 . S
C594 C598 1.531 . S
C595 C594 1.369 . S
C595 C596 1.410 . S
C595 C603 1.503 . S
C596 C595 1.410 . S
C596 C597 1.392 . S
C596 C599 1.511 . S
C597 C593 1.376 . S
C597 C596 1.392 . S
C597 H609 0.929 . S
C598 C594 1.531 . S
C598 H610 0.960 . S
C598 H611 0.962 . S
C598 H612 0.960 . S
C599 C596 1.511 . S
C599 H613 0.961 . S
C599 H614 0.961 . S
C599 H615 0.961 . S
C600 C601 1.370 1_455 S
C600 C602 1.363 1_455 S
C600 H616 0.931 . S
C601 C600 1.370 1_655 S
C601 C605 1.408 . S
C602 C600 1.363 1_655 S
C602 C603 1.370 . S
C602 C606 1.524 1_655 S
C603 C595 1.503 . S
C603 C602 1.370 . S
C603 C604 1.403 . S
C604 C603 1.403 . S
C604 C605 1.404 . S
C604 C607 1.539 . S
C605 C601 1.408 . S
C605 C604 1.404 . S
C605 H617 0.930 . S
C606 C602 1.524 1_455 S
C606 H618 0.956 . S
C606 H619 0.961 . S
C606 H620 0.961 . S
C607 C604 1.539 . S
C607 H621 0.958 . S
C607 H622 0.961 . S
C607 H623 0.960 . S
H608 C592 0.931 . S
H609 C597 0.929 . S
H610 C598 0.960 . S
H611 C598 0.962 . S
H612 C598 0.960 . S
H613 C599 0.961 . S
H614 C599 0.961 . S
H615 C599 0.961 . S
H616 C600 0.931 . S
H617 C605 0.930 . S
H618 C606 0.956 . S
H619 C606 0.961 . S
H620 C606 0.961 . S
H621 C607 0.958 . S
H622 C607 0.961 . S
H623 C607 0.960 . S
C624 C625 1.391 . S
C624 C626 1.394 . S
C624 H640 0.931 . S
C625 C624 1.391 . S
C625 C629 1.376 . S
C626 C624 1.394 . S
C626 C627 1.369 . S
C626 C630 1.531 . S
C627 C626 1.369 . S
C627 C628 1.410 . S
C627 C635 1.503 . S
C628 C627 1.410 . S
C628 C629 1.392 . S
C628 C631 1.511 . S
C629 C625 1.376 . S
C629 C628 1.392 . S
C629 H641 0.929 . S
C630 C626 1.531 . S
C630 H642 0.960 . S
C630 H643 0.962 . S
C630 H644 0.960 . S
C631 C628 1.511 . S
C631 H645 0.961 . S
C631 H646 0.961 . S
C631 H647 0.961 . S
C632 C633 1.370 . S
C632 C634 1.363 . S
C632 H648 0.931 . S
C633 C632 1.370 . S
C633 C637 1.408 . S
C634 C632 1.363 . S
C634 C635 1.370 . S
C634 C638 1.524 . S
C635 C627 1.503 . S
C635 C634 1.370 . S
C635 C636 1.403 . S
C636 C635 1.403 . S
C636 C637 1.404 . S
C636 C639 1.539 . S
C637 C633 1.408 . S
C637 C636 1.404 . S
C637 H649 0.930 . S
C638 C634 1.524 . S
C638 H650 0.956 . S
C638 H651 0.961 . S
C638 H652 0.961 . S
C639 C636 1.539 . S
C639 H653 0.958 . S
C639 H654 0.961 . S
C639 H655 0.960 . S
H640 C624 0.931 . S
H641 C629 0.929 . S
H642 C630 0.960 . S
H643 C630 0.962 . S
H644 C630 0.960 . S
H645 C631 0.961 . S
H646 C631 0.961 . S
H647 C631 0.961 . S
H648 C632 0.931 . S
H649 C637 0.930 . S
H650 C638 0.956 . S
H651 C638 0.961 . S
H652 C638 0.961 . S
H653 C639 0.958 . S
H654 C639 0.961 . S
H655 C639 0.960 . S
C656 C657 1.391 . S
C656 C658 1.394 . S
C656 H672 0.931 . S
C657 C656 1.391 . S
C657 C661 1.376 . S
C658 C656 1.394 . S
C658 C659 1.369 . S
C658 C662 1.531 1_655 S
C659 C658 1.369 . S
C659 C660 1.410 . S
C659 C667 1.503 . S
C660 C659 1.410 . S
C660 C661 1.392 . S
C660 C663 1.511 1_565 S
C661 C657 1.376 . S
C661 C660 1.392 . S
C661 H673 0.929 . S
C662 C658 1.531 1_455 S
C662 H674 0.960 . S
C662 H675 0.962 . S
C662 H676 0.960 . S
C663 C660 1.511 1_545 S
C663 H677 0.961 . S
C663 H678 0.961 . S
C663 H679 0.961 1_545 S
C664 C665 1.370 . S
C664 C666 1.363 . S
C664 H680 0.931 1_655 S
C665 C664 1.370 . S
C665 C669 1.408 1_545 S
C666 C664 1.363 . S
C666 C667 1.370 1_545 S
C666 C670 1.524 1_655 S
C667 C659 1.503 . S
C667 C666 1.370 1_565 S
C667 C668 1.403 . S
C668 C667 1.403 . S
C668 C669 1.404 . S
C668 C671 1.539 . S
C669 C665 1.408 1_565 S
C669 C668 1.404 . S
C669 H681 0.930 . S
C670 C666 1.524 1_455 S
C670 H682 0.956 . S
C670 H683 0.961 1_455 S
C670 H684 0.961 . S
C671 C668 1.539 . S
C671 H685 0.958 . S
C671 H686 0.961 . S
C671 H687 0.960 . S
H672 C656 0.931 . S
H673 C661 0.929 . S
H674 C662 0.960 . S
H675 C662 0.962 . S
H676 C662 0.960 . S
H677 C663 0.961 . S
H678 C663 0.961 . S
H679 C663 0.961 1_565 S
H680 C664 0.931 1_455 S
H681 C669 0.930 . S
H682 C670 0.956 . S
H683 C670 0.961 1_655 S
H684 C670 0.961 . S
H685 C671 0.958 . S
H686 C671 0.961 . S
H687 C671 0.960 . S
C688 C689 1.391 . S
C688 C690 1.394 . S
C688 H704 0.931 . S
C689 C688 1.391 . S
C689 C693 1.376 . S
C690 C688 1.394 . S
C690 C691 1.369 . S
C690 C694 1.531 . S
C691 C690 1.369 . S
C691 C692 1.410 . S
C691 C699 1.503 . S
C692 C691 1.410 . S
C692 C693 1.392 . S
C692 C695 1.511 . S
C693 C689 1.376 . S
C693 C692 1.392 . S
C693 H705 0.929 . S
C694 C690 1.531 . S
C694 H706 0.960 . S
C694 H707 0.962 . S
C694 H708 0.960 . S
C695 C692 1.511 . S
C695 H709 0.961 . S
C695 H710 0.961 . S
C695 H711 0.961 . S
C696 C697 1.370 . S
C696 C698 1.363 . S
C696 H712 0.931 . S
C697 C696 1.370 . S
C697 C701 1.408 . S
C698 C696 1.363 . S
C698 C699 1.370 . S
C698 C702 1.524 . S
C699 C691 1.503 . S
C699 C698 1.370 . S
C699 C700 1.403 . S
C700 C699 1.403 . S
C700 C701 1.404 . S
C700 C703 1.539 . S
C701 C697 1.408 . S
C701 C700 1.404 . S
C701 H713 0.930 . S
C702 C698 1.524 . S
C702 H714 0.956 . S
C702 H715 0.961 . S
C702 H716 0.961 . S
C703 C700 1.539 . S
C703 H717 0.958 . S
C703 H718 0.961 . S
C703 H719 0.960 . S
H704 C688 0.931 . S
H705 C693 0.929 . S
H706 C694 0.960 . S
H707 C694 0.962 . S
H708 C694 0.960 . S
H709 C695 0.961 . S
H710 C695 0.961 . S
H711 C695 0.961 . S
H712 C696 0.931 . S
H713 C701 0.930 . S
H714 C702 0.956 . S
H715 C702 0.961 . S
H716 C702 0.961 . S
H717 C703 0.958 . S
H718 C703 0.961 . S
H719 C703 0.960 . S
C720 C721 1.391 . S
C720 C722 1.394 . S
C720 H736 0.931 . S
C721 C720 1.391 . S
C721 C725 1.376 . S
C722 C720 1.394 . S
C722 C723 1.369 . S
C722 C726 1.531 . S
C723 C722 1.369 . S
C723 C724 1.410 . S
C723 C731 1.503 . S
C724 C723 1.410 . S
C724 C725 1.392 . S
C724 C727 1.511 . S
C725 C721 1.376 . S
C725 C724 1.392 . S
C725 H737 0.929 . S
C726 C722 1.531 . S
C726 H738 0.960 . S
C726 H739 0.962 . S
C726 H740 0.960 . S
C727 C724 1.511 . S
C727 H741 0.961 . S
C727 H742 0.961 . S
C727 H743 0.961 . S
C728 C729 1.370 . S
C728 C730 1.363 . S
C728 H744 0.931 . S
C729 C728 1.370 . S
C729 C733 1.408 . S
C730 C728 1.363 . S
C730 C731 1.370 . S
C730 C734 1.524 . S
C731 C723 1.503 . S
C731 C730 1.370 . S
C731 C732 1.403 . S
C732 C731 1.403 . S
C732 C733 1.404 . S
C732 C735 1.539 . S
C733 C729 1.408 . S
C733 C732 1.404 . S
C733 H745 0.930 . S
C734 C730 1.524 . S
C734 H746 0.956 . S
C734 H747 0.961 . S
C734 H748 0.961 . S
C735 C732 1.539 . S
C735 H749 0.958 . S
C735 H750 0.961 . S
C735 H751 0.960 . S
H736 C720 0.931 . S
H737 C725 0.929 . S
H738 C726 0.960 . S
H739 C726 0.962 . S
H740 C726 0.960 . S
H741 C727 0.961 . S
H742 C727 0.961 . S
H743 C727 0.961 . S
H744 C728 0.931 . S
H745 C733 0.930 . S
H746 C734 0.956 . S
H747 C734 0.961 . S
H748 C734 0.961 . S
H749 C735 0.958 . S
H750 C735 0.961 . S
H751 C735 0.960 . S
C752 C753 1.391 . S
C752 C754 1.394 . S
C752 H768 0.931 . S
C753 C752 1.391 . S
C753 C757 1.376 . S
C754 C752 1.394 . S
C754 C755 1.369 . S
C754 C758 1.531 . S
C755 C754 1.369 . S
C755 C756 1.410 . S
C755 C763 1.503 . S
C756 C755 1.410 . S
C756 C757 1.392 . S
C756 C759 1.511 . S
C757 C753 1.376 . S
C757 C756 1.392 . S
C757 H769 0.929 . S
C758 C754 1.531 . S
C758 H770 0.960 . S
C758 H771 0.962 . S
C758 H772 0.960 . S
C759 C756 1.511 . S
C759 H773 0.961 . S
C759 H774 0.961 . S
C759 H775 0.950 1_455 S
C760 C761 1.370 . S
C760 C762 1.363 . S
C760 H776 0.931 . S
C761 C760 1.370 . S
C761 C765 1.408 . S
C762 C760 1.363 . S
C762 C763 1.370 . S
C762 C766 1.524 . S
C763 C755 1.503 . S
C763 C762 1.370 . S
C763 C764 1.403 . S
C764 C763 1.403 . S
C764 C765 1.404 . S
C764 C767 1.539 . S
C765 C761 1.408 . S
C765 C764 1.404 . S
C765 H777 0.930 . S
C766 C762 1.524 . S
C766 H778 0.956 . S
C766 H779 0.961 . S
C766 H780 0.961 . S
C767 C764 1.539 . S
C767 H781 0.958 . S
C767 H782 0.961 . S
C767 H783 0.960 . S
H768 C752 0.931 . S
H769 C757 0.929 . S
H770 C758 0.960 . S
H771 C758 0.962 . S
H772 C758 0.960 . S
H773 C759 0.961 . S
H774 C759 0.961 . S
H775 C759 0.950 1_655 S
H776 C760 0.931 . S
H777 C765 0.930 . S
H778 C766 0.956 . S
H779 C766 0.961 . S
H780 C766 0.961 . S
H781 C767 0.958 . S
H782 C767 0.961 . S
H783 C767 0.960 . S
C784 C785 1.391 1_544 S
C784 C786 1.394 . S
C784 H800 0.931 . S
C785 C784 1.391 1_566 S
C785 C789 1.376 . S
C786 C784 1.394 . S
C786 C787 1.369 . S
C786 C790 1.531 . S
C787 C786 1.369 . S
C787 C788 1.403 1_544 S
C787 C795 1.503 . S
C788 C787 1.403 1_566 S
C788 C789 1.399 . S
C788 C791 1.511 . S
C789 C785 1.376 . S
C789 C788 1.399 . S
C789 H801 0.929 . S
C790 C786 1.531 . S
C790 H802 0.960 . S
C790 H803 0.962 . S
C790 H804 0.960 . S
C791 C788 1.511 . S
C791 H805 0.961 . S
C791 H806 0.961 . S
C791 H807 0.961 1_565 S
C792 C793 1.370 1_565 S
C792 C794 1.363 . S
C792 H808 0.931 . S
C793 C792 1.370 1_545 S
C793 C797 1.408 . S
C794 C792 1.363 . S
C794 C795 1.370 1_565 S
C794 C798 1.524 . S
C795 C787 1.503 . S
C795 C794 1.370 1_545 S
C795 C796 1.403 . S
C796 C795 1.403 . S
C796 C797 1.404 . S
C796 C799 1.539 1_554 S
C797 C793 1.408 . S
C797 C796 1.404 . S
C797 H809 0.930 . S
C798 C794 1.524 . S
C798 H810 0.956 . S
C798 H811 0.961 . S
C798 H812 0.961 . S
C799 C796 1.539 1_556 S
C799 H813 0.958 1_556 S
C799 H814 0.961 . S
C799 H815 0.960 . S
H800 C784 0.931 . S
H801 C789 0.929 . S
H802 C790 0.960 . S
H803 C790 0.962 . S
H804 C790 0.960 . S
H805 C791 0.961 . S
H806 C791 0.961 . S
H807 C791 0.961 1_545 S
H808 C792 0.931 . S
H809 C797 0.930 . S
H810 C798 0.956 . S
H811 C798 0.961 . S
H812 C798 0.961 . S
H813 C799 0.958 1_554 S
H814 C799 0.961 . S
H815 C799 0.960 . S
C816 C817 1.391 . S
C816 C818 1.394 . S
C816 H832 0.931 . S
C817 C816 1.391 . S
C817 C821 1.376 . S
C818 C816 1.394 . S
C818 C819 1.369 . S
C818 C822 1.531 . S
C819 C818 1.369 . S
C819 C820 1.410 . S
C819 C827 1.503 . S
C820 C819 1.410 . S
C820 C821 1.392 . S
C820 C823 1.511 . S
C821 C817 1.376 . S
C821 C820 1.392 . S
C821 H833 0.929 . S
C822 C818 1.531 . S
C822 H834 0.960 . S
C822 H835 0.962 . S
C822 H836 0.960 . S
C823 C820 1.511 . S
C823 H837 0.961 . S
C823 H838 0.961 . S
C823 H839 0.961 . S
C824 C825 1.370 . S
C824 C826 1.363 . S
C824 H840 0.931 . S
C825 C824 1.370 . S
C825 C829 1.408 . S
C826 C824 1.363 . S
C826 C827 1.370 . S
C826 C830 1.524 . S
C827 C819 1.503 . S
C827 C826 1.370 . S
C827 C828 1.403 . S
C828 C827 1.403 . S
C828 C829 1.404 . S
C828 C831 1.539 . S
C829 C825 1.408 . S
C829 C828 1.404 . S
C829 H841 0.930 . S
C830 C826 1.524 . S
C830 H842 0.956 . S
C830 H843 0.961 . S
C830 H844 0.961 . S
C831 C828 1.539 . S
C831 H845 0.958 . S
C831 H846 0.961 . S
C831 H847 0.960 . S
H832 C816 0.931 . S
H833 C821 0.929 . S
H834 C822 0.960 . S
H835 C822 0.962 . S
H836 C822 0.960 . S
H837 C823 0.961 . S
H838 C823 0.961 . S
H839 C823 0.961 . S
H840 C824 0.931 . S
H841 C829 0.930 . S
H842 C830 0.956 . S
H843 C830 0.961 . S
H844 C830 0.961 . S
H845 C831 0.958 . S
H846 C831 0.961 . S
H847 C831 0.960 . S
C848 C849 1.391 . S
C848 C850 1.394 . S
C848 H864 0.931 . S
C849 C848 1.391 . S
C849 C853 1.376 . S
C850 C848 1.394 . S
C850 C851 1.369 . S
C850 C854 1.531 . S
C851 C850 1.369 . S
C851 C852 1.410 . S
C851 C859 1.503 . S
C852 C851 1.410 . S
C852 C853 1.392 . S
C852 C855 1.511 . S
C853 C849 1.376 . S
C853 C852 1.392 . S
C853 H865 0.929 . S
C854 C850 1.531 . S
C854 H866 0.960 . S
C854 H867 0.962 . S
C854 H868 0.960 . S
C855 C852 1.511 . S
C855 H869 0.961 . S
C855 H870 0.961 . S
C855 H871 0.961 . S
C856 C857 1.370 . S
C856 C858 1.363 . S
C856 H872 0.931 . S
C857 C856 1.370 . S
C857 C861 1.408 . S
C858 C856 1.363 . S
C858 C859 1.370 . S
C858 C862 1.524 . S
C859 C851 1.503 . S
C859 C858 1.370 . S
C859 C860 1.403 . S
C860 C859 1.403 . S
C860 C861 1.404 . S
C860 C863 1.539 . S
C861 C857 1.408 . S
C861 C860 1.404 . S
C861 H873 0.930 . S
C862 C858 1.524 . S
C862 H874 0.956 . S
C862 H875 0.961 . S
C862 H876 0.961 . S
C863 C860 1.539 . S
C863 H877 0.958 . S
C863 H878 0.961 . S
C863 H879 0.960 . S
H864 C848 0.931 . S
H865 C853 0.929 . S
H866 C854 0.960 . S
H867 C854 0.962 . S
H868 C854 0.960 . S
H869 C855 0.961 . S
H870 C855 0.961 . S
H871 C855 0.961 . S
H872 C856 0.931 . S
H873 C861 0.930 . S
H874 C862 0.956 . S
H875 C862 0.961 . S
H876 C862 0.961 . S
H877 C863 0.958 . S
H878 C863 0.961 . S
H879 C863 0.960 . S
C880 C881 1.391 . S
C880 C882 1.394 . S
C880 H896 0.931 . S
C881 C880 1.391 . S
C881 C885 1.376 . S
C882 C880 1.394 . S
C882 C883 1.369 . S
C882 C886 1.531 . S
C883 C882 1.369 . S
C883 C884 1.410 . S
C883 C891 1.503 . S
C884 C883 1.410 . S
C884 C885 1.392 . S
C884 C887 1.511 . S
C885 C881 1.376 . S
C885 C884 1.392 . S
C885 H897 0.929 . S
C886 C882 1.531 . S
C886 H898 0.960 . S
C886 H899 0.962 . S
C886 H900 0.960 . S
C887 C884 1.511 . S
C887 H901 0.961 . S
C887 H902 0.961 . S
C887 H903 0.961 . S
C888 C889 1.370 . S
C888 C890 1.363 . S
C888 H904 0.931 . S
C889 C888 1.370 . S
C889 C893 1.408 . S
C890 C888 1.363 . S
C890 C891 1.370 . S
C890 C894 1.524 . S
C891 C883 1.503 . S
C891 C890 1.370 . S
C891 C892 1.403 . S
C892 C891 1.403 . S
C892 C893 1.404 . S
C892 C895 1.539 . S
C893 C889 1.408 . S
C893 C892 1.404 . S
C893 H905 0.930 . S
C894 C890 1.524 . S
C894 H906 0.956 . S
C894 H907 0.961 . S
C894 H908 0.961 . S
C895 C892 1.539 . S
C895 H909 0.958 . S
C895 H910 0.961 . S
C895 H911 0.960 . S
H896 C880 0.931 . S
H897 C885 0.929 . S
H898 C886 0.960 . S
H899 C886 0.962 . S
H900 C886 0.960 . S
H901 C887 0.961 . S
H902 C887 0.961 . S
H903 C887 0.961 . S
H904 C888 0.931 . S
H905 C893 0.930 . S
H906 C894 0.956 . S
H907 C894 0.961 . S
H908 C894 0.961 . S
H909 C895 0.958 . S
H910 C895 0.961 . S
H911 C895 0.960 . S
C912 C913 1.391 . S
C912 C914 1.394 . S
C912 H928 0.931 . S
C913 C912 1.391 . S
C913 C917 1.376 . S
C914 C912 1.394 . S
C914 C915 1.369 . S
C914 C918 1.531 1_655 S
C915 C914 1.369 . S
C915 C916 1.410 . S
C915 C923 1.503 . S
C916 C915 1.410 . S
C916 C917 1.392 . S
C916 C919 1.511 . S
C917 C913 1.376 . S
C917 C916 1.392 . S
C917 H929 0.929 . S
C918 C914 1.531 1_455 S
C918 H930 0.960 1_556 S
C918 H931 0.962 . S
C918 H932 0.960 1_556 S
C919 C916 1.511 . S
C919 H933 0.961 . S
C919 H934 0.961 . S
C919 H935 0.961 . S
C920 C921 1.370 . S
C920 C922 1.363 . S
C920 H936 0.931 . S
C921 C920 1.370 . S
C921 C925 1.408 1_456 S
C922 C920 1.363 . S
C922 C923 1.370 1_455 S
C922 C926 1.524 . S
C923 C915 1.503 . S
C923 C922 1.370 1_655 S
C923 C924 1.403 1_556 S
C924 C923 1.403 1_554 S
C924 C925 1.404 . S
C924 C927 1.539 . S
C925 C921 1.408 1_654 S
C925 C924 1.404 . S
C925 H937 0.930 . S
C926 C922 1.524 . S
C926 H938 0.956 . S
C926 H939 0.961 1_455 S
C926 H940 0.961 . S
C927 C924 1.539 . S
C927 H941 0.958 . S
C927 H942 0.961 . S
C927 H943 0.960 . S
H928 C912 0.931 . S
H929 C917 0.929 . S
H930 C918 0.960 1_554 S
H931 C918 0.962 . S
H932 C918 0.960 1_554 S
H933 C919 0.961 . S
H934 C919 0.961 . S
H935 C919 0.961 . S
H936 C920 0.931 . S
H937 C925 0.930 . S
H938 C926 0.956 . S
H939 C926 0.961 1_655 S
H940 C926 0.961 . S
H941 C927 0.958 . S
H942 C927 0.961 . S
H943 C927 0.960 . S
C944 C945 1.391 . S
C944 C946 1.394 . S
C944 H960 0.931 . S
C945 C944 1.391 . S
C945 C949 1.376 . S
C946 C944 1.394 . S
C946 C947 1.369 . S
C946 C950 1.531 . S
C947 C946 1.369 . S
C947 C948 1.410 . S
C947 C955 1.503 . S
C948 C947 1.410 . S
C948 C949 1.392 . S
C948 C951 1.511 . S
C949 C945 1.376 . S
C949 C948 1.392 . S
C949 H961 0.929 . S
C950 C946 1.531 . S
C950 H962 0.960 . S
C950 H963 0.962 . S
C950 H964 0.960 . S
C951 C948 1.511 . S
C951 H965 0.961 . S
C951 H966 0.961 . S
C951 H967 0.961 . S
C952 C953 1.370 . S
C952 C954 1.363 . S
C952 H968 0.931 . S
C953 C952 1.370 . S
C953 C957 1.408 . S
C954 C952 1.363 . S
C954 C955 1.370 . S
C954 C958 1.524 . S
C955 C947 1.503 . S
C955 C954 1.370 . S
C955 C956 1.403 . S
C956 C955 1.403 . S
C956 C957 1.404 . S
C956 C959 1.539 . S
C957 C953 1.408 . S
C957 C956 1.404 . S
C957 H969 0.930 . S
C958 C954 1.524 . S
C958 H970 0.956 . S
C958 H971 0.961 . S
C958 H972 0.961 . S
C959 C956 1.539 . S
C959 H973 0.958 . S
C959 H974 0.961 . S
C959 H975 0.960 . S
H960 C944 0.931 . S
H961 C949 0.929 . S
H962 C950 0.960 . S
H963 C950 0.962 . S
H964 C950 0.960 . S
H965 C951 0.961 . S
H966 C951 0.961 . S
H967 C951 0.961 . S
H968 C952 0.931 . S
H969 C957 0.930 . S
H970 C958 0.956 . S
H971 C958 0.961 . S
H972 C958 0.961 . S
H973 C959 0.958 . S
H974 C959 0.961 . S
H975 C959 0.960 . S
C976 C977 1.391 . S
C976 C978 1.394 . S
C976 H992 0.931 . S
C977 C976 1.391 . S
C977 C981 1.376 . S
C978 C976 1.394 . S
C978 C979 1.369 . S
C978 C982 1.531 . S
C979 C978 1.369 . S
C979 C980 1.410 . S
C979 C987 1.503 . S
C980 C979 1.410 . S
C980 C981 1.392 . S
C980 C983 1.511 . S
C981 C977 1.376 . S
C981 C980 1.392 . S
C981 H993 0.929 . S
C982 C978 1.531 . S
C982 H994 0.960 . S
C982 H995 0.962 . S
C982 H996 0.960 . S
C983 C980 1.511 . S
C983 H997 0.961 . S
C983 H998 0.961 . S
C983 H999 0.964 . S
C984 C985 1.370 . S
C984 C986 1.363 . S
C984 H1000 0.931 . S
C985 C984 1.370 . S
C985 C989 1.408 . S
C986 C984 1.363 . S
C986 C987 1.370 . S
C986 C990 1.524 . S
C987 C979 1.503 . S
C987 C986 1.370 . S
C987 C988 1.403 . S
C988 C987 1.403 . S
C988 C989 1.404 . S
C988 C991 1.539 . S
C989 C985 1.408 . S
C989 C988 1.404 . S
C989 H1001 0.930 . S
C990 C986 1.524 . S
C990 H1002 0.956 . S
C990 H1003 0.961 . S
C990 H1004 0.961 . S
C991 C988 1.539 . S
C991 H1005 0.958 . S
C991 H1006 0.961 . S
C991 H1007 0.960 . S
H992 C976 0.931 . S
H993 C981 0.929 . S
H994 C982 0.960 . S
H995 C982 0.962 . S
H996 C982 0.960 . S
H997 C983 0.961 . S
H998 C983 0.961 . S
H999 C983 0.964 . S
H1000 C984 0.931 . S
H1001 C989 0.930 . S
H1002 C990 0.956 . S
H1003 C990 0.961 . S
H1004 C990 0.961 . S
H1005 C991 0.958 . S
H1006 C991 0.961 . S
H1007 C991 0.960 . S
C1008 C1009 1.391 . S
C1008 C1010 1.394 . S
C1008 H1024 0.931 . S
C1009 C1008 1.391 . S
C1009 C1013 1.376 . S
C1010 C1008 1.394 . S
C1010 C1011 1.369 . S
C1010 C1014 1.531 . S
C1011 C1010 1.369 . S
C1011 C1012 1.410 . S
C1011 C1019 1.503 . S
C1012 C1011 1.410 . S
C1012 C1013 1.392 . S
C1012 C1015 1.511 . S
C1013 C1009 1.376 . S
C1013 C1012 1.392 . S
C1013 H1025 0.929 . S
C1014 C1010 1.531 . S
C1014 H1026 0.960 . S
C1014 H1027 0.962 . S
C1014 H1028 0.960 . S
C1015 C1012 1.511 . S
C1015 H1029 0.961 . S
C1015 H1030 0.961 . S
C1015 H1031 0.961 . S
C1016 C1017 1.370 . S
C1016 C1018 1.363 . S
C1016 H1032 0.931 . S
C1017 C1016 1.370 . S
C1017 C1021 1.408 . S
C1018 C1016 1.363 . S
C1018 C1019 1.370 . S
C1018 C1022 1.524 . S
C1019 C1011 1.503 . S
C1019 C1018 1.370 . S
C1019 C1020 1.403 . S
C1020 C1019 1.403 . S
C1020 C1021 1.404 . S
C1020 C1023 1.539 . S
C1021 C1017 1.408 . S
C1021 C1020 1.404 . S
C1021 H1033 0.930 . S
C1022 C1018 1.524 . S
C1022 H1034 0.956 . S
C1022 H1035 0.961 . S
C1022 H1036 0.961 . S
C1023 C1020 1.539 . S
C1023 H1037 0.958 . S
C1023 H1038 0.961 . S
C1023 H1039 0.960 . S
H1024 C1008 0.931 . S
H1025 C1013 0.929 . S
H1026 C1014 0.960 . S
H1027 C1014 0.962 . S
H1028 C1014 0.960 . S
H1029 C1015 0.961 . S
H1030 C1015 0.961 . S
H1031 C1015 0.961 . S
H1032 C1016 0.931 . S
H1033 C1021 0.930 . S
H1034 C1022 0.956 . S
H1035 C1022 0.961 . S
H1036 C1022 0.961 . S
H1037 C1023 0.958 . S
H1038 C1023 0.961 . S
H1039 C1023 0.960 . S
C273 C6 2.404 . S
C281 C168 2.454 . S
C305 C21 1.623 . S
C313 N188 1.620 . S
C345 C222 1.392 . S
C337 C49 1.309 . S
C369 C68 1.030 . S
C377 N256 1.051 . S
C409 C209 3.057 . S
C401 C2 3.032 . S
C441 N166 0.934 . S
C433 C30 0.774 . S
C473 C243 1.728 . S
C465 C40 1.732 . S
C505 N218 0.915 . S
C497 C63 0.934 . S
C529 C11 1.633 . S
C537 C258 1.856 . S
C569 C192 1.824 . S
C561 C44 1.808 . S
C593 C59 0.955 . S
C601 C153 1.020 . S
C625 C25 1.709 . S
C633 C239 1.751 . S
C665 C179 2.636 . S
C657 C82 2.601 . S
C689 C101 1.312 . S
C697 N196 1.297 . S
C721 C125 1.726 . S
C729 C213 1.801 . S
C753 C144 0.927 . S
C761 N248 0.845 . S
C785 C87 1.840 . S
C793 C198 2.063 . S
C825 N158 1.747 . S
C817 C97 1.770 . S
C857 C252 1.750 . S
C849 C120 1.733 . S
C889 N226 0.978 . S
C881 C135 0.997 . S
C913 C78 2.158 . S
C921 C269 2.167 1_556 S
C953 C183 1.314 . S
C945 C116 1.277 . S
C985 C162 1.573 . S
C977 C139 1.535 . S
C1009 C106 1.338 . S
C1017 C228 1.455 . S
