# Generated by pormake.
# Topology eea, (3,6)-cn, num edge types: 1
# Building blocks:
#     Node 0, Type 0, BuildingBlock: PAMTOO_clean_linker_0, # of connection points: 3
#     Node 1, Type 0, BuildingBlock: PAMTOO_clean_linker_0, # of connection points: 3
#     Node 2, Type 0, BuildingBlock: PAMTOO_clean_linker_0, # of connection points: 3
#     Node 3, Type 0, BuildingBlock: PAMTOO_clean_linker_0, # of connection points: 3
#     Node 4, Type 0, BuildingBlock: PAMTOO_clean_linker_0, # of connection points: 3
#     Node 5, Type 0, BuildingBlock: PAMTOO_clean_linker_0, # of connection points: 3
#     Node 6, Type 0, BuildingBlock: PAMTOO_clean_linker_0, # of connection points: 3
#     Node 7, Type 0, BuildingBlock: PAMTOO_clean_linker_0, # of connection points: 3
#     Node 8, Type 0, BuildingBlock: PAMTOO_clean_linker_0, # of connection points: 3
#     Node 9, Type 0, BuildingBlock: PAMTOO_clean_linker_0, # of connection points: 3
#     Node 10, Type 0, BuildingBlock: PAMTOO_clean_linker_0, # of connection points: 3
#     Node 11, Type 0, BuildingBlock: PAMTOO_clean_linker_0, # of connection points: 3
#     Node 12, Type 0, BuildingBlock: PAMTOO_clean_linker_0, # of connection points: 3
#     Node 13, Type 0, BuildingBlock: PAMTOO_clean_linker_0, # of connection points: 3
#     Node 14, Type 0, BuildingBlock: PAMTOO_clean_linker_0, # of connection points: 3
#     Node 15, Type 0, BuildingBlock: PAMTOO_clean_linker_0, # of connection points: 3
#     Node 16, Type 0, BuildingBlock: PAMTOO_clean_linker_0, # of connection points: 3
#     Node 17, Type 0, BuildingBlock: PAMTOO_clean_linker_0, # of connection points: 3
#     Node 18, Type 1, BuildingBlock: HISSIN_clean_sbu_0, # of connection points: 6
#     Node 19, Type 1, BuildingBlock: HISSIN_clean_sbu_0, # of connection points: 6
#     Node 20, Type 1, BuildingBlock: HISSIN_clean_sbu_0, # of connection points: 6
#     Node 21, Type 1, BuildingBlock: HISSIN_clean_sbu_0, # of connection points: 6
#     Node 22, Type 1, BuildingBlock: HISSIN_clean_sbu_0, # of connection points: 6
#     Node 23, Type 1, BuildingBlock: HISSIN_clean_sbu_0, # of connection points: 6
#     Node 24, Type 1, BuildingBlock: HISSIN_clean_sbu_0, # of connection points: 6
#     Node 25, Type 1, BuildingBlock: HISSIN_clean_sbu_0, # of connection points: 6
#     Node 26, Type 1, BuildingBlock: HISSIN_clean_sbu_0, # of connection points: 6
#     Edge 27, Type (0, 1), BuildingBlock: KIFKEQ_clean_linker_1, # of connection points: 2
#     Edge 28, Type (0, 1), BuildingBlock: KIFKEQ_clean_linker_1, # of connection points: 2
#     Edge 29, Type (0, 1), BuildingBlock: KIFKEQ_clean_linker_1, # of connection points: 2
#     Edge 30, Type (0, 1), BuildingBlock: KIFKEQ_clean_linker_1, # of connection points: 2
#     Edge 31, Type (0, 1), BuildingBlock: KIFKEQ_clean_linker_1, # of connection points: 2
#     Edge 32, Type (0, 1), BuildingBlock: KIFKEQ_clean_linker_1, # of connection points: 2
#     Edge 33, Type (0, 1), BuildingBlock: KIFKEQ_clean_linker_1, # of connection points: 2
#     Edge 34, Type (0, 1), BuildingBlock: KIFKEQ_clean_linker_1, # of connection points: 2
#     Edge 35, Type (0, 1), BuildingBlock: KIFKEQ_clean_linker_1, # of connection points: 2
#     Edge 36, Type (0, 1), BuildingBlock: KIFKEQ_clean_linker_1, # of connection points: 2
#     Edge 37, Type (0, 1), BuildingBlock: KIFKEQ_clean_linker_1, # of connection points: 2
#     Edge 38, Type (0, 1), BuildingBlock: KIFKEQ_clean_linker_1, # of connection points: 2
#     Edge 39, Type (0, 1), BuildingBlock: KIFKEQ_clean_linker_1, # of connection points: 2
#     Edge 40, Type (0, 1), BuildingBlock: KIFKEQ_clean_linker_1, # of connection points: 2
#     Edge 41, Type (0, 1), BuildingBlock: KIFKEQ_clean_linker_1, # of connection points: 2
#     Edge 42, Type (0, 1), BuildingBlock: KIFKEQ_clean_linker_1, # of connection points: 2
#     Edge 43, Type (0, 1), BuildingBlock: KIFKEQ_clean_linker_1, # of connection points: 2
#     Edge 44, Type (0, 1), BuildingBlock: KIFKEQ_clean_linker_1, # of connection points: 2
#     Edge 45, Type (0, 1), BuildingBlock: KIFKEQ_clean_linker_1, # of connection points: 2
#     Edge 46, Type (0, 1), BuildingBlock: KIFKEQ_clean_linker_1, # of connection points: 2
#     Edge 47, Type (0, 1), BuildingBlock: KIFKEQ_clean_linker_1, # of connection points: 2
#     Edge 48, Type (0, 1), BuildingBlock: KIFKEQ_clean_linker_1, # of connection points: 2
#     Edge 49, Type (0, 1), BuildingBlock: KIFKEQ_clean_linker_1, # of connection points: 2
#     Edge 50, Type (0, 1), BuildingBlock: KIFKEQ_clean_linker_1, # of connection points: 2
#     Edge 51, Type (0, 1), BuildingBlock: KIFKEQ_clean_linker_1, # of connection points: 2
#     Edge 52, Type (0, 1), BuildingBlock: KIFKEQ_clean_linker_1, # of connection points: 2
#     Edge 53, Type (0, 1), BuildingBlock: KIFKEQ_clean_linker_1, # of connection points: 2
#     Edge 54, Type (0, 1), BuildingBlock: KIFKEQ_clean_linker_1, # of connection points: 2
#     Edge 55, Type (0, 1), BuildingBlock: KIFKEQ_clean_linker_1, # of connection points: 2
#     Edge 56, Type (0, 1), BuildingBlock: KIFKEQ_clean_linker_1, # of connection points: 2
#     Edge 57, Type (0, 1), BuildingBlock: KIFKEQ_clean_linker_1, # of connection points: 2
#     Edge 58, Type (0, 1), BuildingBlock: KIFKEQ_clean_linker_1, # of connection points: 2
#     Edge 59, Type (0, 1), BuildingBlock: KIFKEQ_clean_linker_1, # of connection points: 2
#     Edge 60, Type (0, 1), BuildingBlock: KIFKEQ_clean_linker_1, # of connection points: 2
#     Edge 61, Type (0, 1), BuildingBlock: KIFKEQ_clean_linker_1, # of connection points: 2
#     Edge 62, Type (0, 1), BuildingBlock: KIFKEQ_clean_linker_1, # of connection points: 2
#     Edge 63, Type (0, 1), BuildingBlock: KIFKEQ_clean_linker_1, # of connection points: 2
#     Edge 64, Type (0, 1), BuildingBlock: KIFKEQ_clean_linker_1, # of connection points: 2
#     Edge 65, Type (0, 1), BuildingBlock: KIFKEQ_clean_linker_1, # of connection points: 2
#     Edge 66, Type (0, 1), BuildingBlock: KIFKEQ_clean_linker_1, # of connection points: 2
#     Edge 67, Type (0, 1), BuildingBlock: KIFKEQ_clean_linker_1, # of connection points: 2
#     Edge 68, Type (0, 1), BuildingBlock: KIFKEQ_clean_linker_1, # of connection points: 2
#     Edge 69, Type (0, 1), BuildingBlock: KIFKEQ_clean_linker_1, # of connection points: 2
#     Edge 70, Type (0, 1), BuildingBlock: KIFKEQ_clean_linker_1, # of connection points: 2
#     Edge 71, Type (0, 1), BuildingBlock: KIFKEQ_clean_linker_1, # of connection points: 2
#     Edge 72, Type (0, 1), BuildingBlock: KIFKEQ_clean_linker_1, # of connection points: 2
#     Edge 73, Type (0, 1), BuildingBlock: KIFKEQ_clean_linker_1, # of connection points: 2
#     Edge 74, Type (0, 1), BuildingBlock: KIFKEQ_clean_linker_1, # of connection points: 2
#     Edge 75, Type (0, 1), BuildingBlock: KIFKEQ_clean_linker_1, # of connection points: 2
#     Edge 76, Type (0, 1), BuildingBlock: KIFKEQ_clean_linker_1, # of connection points: 2
#     Edge 77, Type (0, 1), BuildingBlock: KIFKEQ_clean_linker_1, # of connection points: 2
#     Edge 78, Type (0, 1), BuildingBlock: KIFKEQ_clean_linker_1, # of connection points: 2
#     Edge 79, Type (0, 1), BuildingBlock: KIFKEQ_clean_linker_1, # of connection points: 2
#     Edge 80, Type (0, 1), BuildingBlock: KIFKEQ_clean_linker_1, # of connection points: 2
# Relax obj value: 0.057
# Max RMSD: 0.206
# Mean RMSD: 0.145
data_MOF--net-eea--node1-HISSIN_clean_sbu_0--node2-PAMTOO_clean_linker_0--edge1-KIFKEQ_clean_linker_1
_symmetry_space_group_name_H-M    P1
_symmetry_Int_Tables_number       1
_symmetry_cell_setting            triclinic
loop_
_symmetry_equiv_pos_as_xyz
'x, y, z'
_cell_length_a     55.535976
_cell_length_b     56.438382
_cell_length_c     69.804913
_cell_angle_alpha  93.259201
_cell_angle_beta   93.452816
_cell_angle_gamma 119.77261
loop_
_atom_site_label
_atom_site_type_symbol
_atom_site_fract_x
_atom_site_fract_y
_atom_site_fract_z
_atom_type_partial_charge
H0 H 0.26216 0.08905 0.42867 0.0
H1 H 0.25495 0.16106 0.4245 0.0
H2 H 0.22265 0.09862 0.37692 0.0
H3 H 0.24815 0.15495 0.36382 0.0
C4 C 0.24843 0.16565 0.37779 0.0
O5 O 0.23076 0.1467 0.38926 0.0
H6 H 0.27028 0.17667 0.38478 0.0
C7 C 0.25538 0.1008 0.42048 0.0
C8 C 0.2417 0.09041 0.40177 0.0
C9 C 0.26002 0.1261 0.42891 0.0
C10 C 0.25136 0.14139 0.41831 0.0
C11 C 0.23847 0.1316 0.3995 0.0
C12 C 0.2334 0.10614 0.39131 0.0
H13 H 0.94904 0.17763 0.43812 0.0
H14 H 0.87784 0.09607 0.43389 0.0
H15 H 0.93 0.12072 0.38784 0.0
H16 H 0.86956 0.0847 0.37337 0.0
C17 C 0.86242 0.07713 0.38748 0.0
O18 O 0.88498 0.08141 0.39969 0.0
H19 H 0.85273 0.08878 0.39344 0.0
C20 C 0.93617 0.15756 0.43023 0.0
C21 C 0.94276 0.15182 0.41198 0.0
C22 C 0.91298 0.1375 0.43839 0.0
C23 C 0.89613 0.11165 0.42805 0.0
C24 C 0.90212 0.10595 0.40979 0.0
C25 C 0.92545 0.12579 0.40186 0.0
H26 H 0.84247 0.76327 0.44248 0.0
H27 H 0.92244 0.76786 0.44577 0.0
H28 H 0.89617 0.79614 0.39743 0.0
H29 H 0.92348 0.7627 0.38931 0.0
C30 C 0.93955 0.77098 0.40197 0.0
O31 O 0.93633 0.78985 0.41337 0.0
H32 H 0.93655 0.75371 0.41037 0.0
C33 C 0.86168 0.76824 0.4363 0.0
C34 C 0.86657 0.77984 0.41865 0.0
C35 C 0.88152 0.76367 0.44631 0.0
C36 C 0.90689 0.77141 0.43851 0.0
C37 C 0.91207 0.78303 0.42091 0.0
C38 C 0.89202 0.78735 0.41108 0.0
H39 H 0.06766 0.23563 0.58529 0.0
H40 H 0.14026 0.2263 0.58711 0.0
H41 H 0.08564 0.19761 0.6316 0.0
H42 H 0.14572 0.22428 0.64632 0.0
C43 C 0.15392 0.22163 0.63269 0.0
O44 O 0.13192 0.20388 0.61934 0.0
H45 H 0.16567 0.24222 0.62734 0.0
C46 C 0.08052 0.22835 0.59203 0.0
C47 C 0.07323 0.21569 0.60924 0.0
C48 C 0.10478 0.23257 0.58386 0.0
C49 C 0.12172 0.22378 0.59318 0.0
C50 C 0.11497 0.21159 0.61042 0.0
C51 C 0.09078 0.20746 0.61839 0.0
H52 H 0.75803 0.82828 0.60735 0.0
H53 H 0.76636 0.90858 0.61195 0.0
H54 H 0.78711 0.87868 0.66164 0.0
H55 H 0.76066 0.91482 0.67124 0.0
C56 C 0.76368 0.92328 0.65701 0.0
O57 O 0.78344 0.91932 0.64861 0.0
H58 H 0.74334 0.91251 0.64786 0.0
C59 C 0.76332 0.84721 0.61584 0.0
C60 C 0.77313 0.85102 0.63544 0.0
C61 C 0.76071 0.86777 0.60709 0.0
C62 C 0.76774 0.89219 0.61834 0.0
C63 C 0.77685 0.89582 0.63797 0.0
C64 C 0.77973 0.87543 0.64647 0.0
H65 H 0.17045 0.91517 0.59269 0.0
H66 H 0.0912 0.84107 0.59151 0.0
H67 H 0.11784 0.9043 0.63823 0.0
H68 H 0.09222 0.84688 0.64928 0.0
C69 C 0.07678 0.83611 0.6364 0.0
O70 O 0.07858 0.85518 0.62415 0.0
H71 H 0.08165 0.82131 0.6289 0.0
C72 C 0.15133 0.90291 0.59917 0.0
C73 C 0.14665 0.91327 0.61648 0.0
C74 C 0.13151 0.87699 0.58999 0.0
C75 C 0.10671 0.86115 0.59835 0.0
C76 C 0.10216 0.87086 0.61591 0.0
C77 C 0.12198 0.89686 0.62489 0.0
H78 H 0.91989 0.41382 0.75936 0.0
H79 H 0.91945 0.48973 0.75895 0.0
H80 H 0.90412 0.44059 0.70572 0.0
H81 H 0.93539 0.50385 0.70294 0.0
C82 C 0.92812 0.50867 0.71634 0.0
O83 O 0.90677 0.4847 0.7218 0.0
H84 H 0.94597 0.51849 0.72781 0.0
C85 C 0.91767 0.42867 0.7514 0.0
C86 C 0.91157 0.42395 0.73122 0.0
C87 C 0.92108 0.45253 0.76152 0.0
C88 C 0.91747 0.47145 0.75136 0.0
C89 C 0.91126 0.46692 0.73132 0.0
C90 C 0.90862 0.44348 0.72126 0.0
H91 H 0.61645 0.51 0.77071 0.0
H92 H 0.54445 0.42903 0.76751 0.0
H93 H 0.59273 0.4538 0.71939 0.0
H94 H 0.53034 0.41979 0.70836 0.0
C95 C 0.52476 0.41027 0.72213 0.0
O96 O 0.54877 0.41442 0.73247 0.0
H97 H 0.51492 0.42009 0.73039 0.0
C98 C 0.60254 0.4902 0.76275 0.0
C99 C 0.60771 0.4844 0.74404 0.0
C100 C 0.57991 0.4703 0.77147 0.0
C101 C 0.56235 0.44448 0.76124 0.0
C102 C 0.56687 0.43877 0.74249 0.0
C103 C 0.5896 0.45852 0.73398 0.0
H104 H 0.51265 0.10399 0.77908 0.0
H105 H 0.59114 0.10592 0.78006 0.0
H106 H 0.56381 0.13431 0.7323 0.0
H107 H 0.58942 0.09896 0.72297 0.0
C108 C 0.60565 0.10684 0.73552 0.0
O109 O 0.60346 0.12635 0.74696 0.0
H110 H 0.6021 0.08944 0.74395 0.0
C111 C 0.53166 0.10916 0.77255 0.0
C112 C 0.53574 0.12014 0.75465 0.0
C113 C 0.55138 0.10385 0.78186 0.0
C114 C 0.57555 0.10963 0.77305 0.0
C115 C 0.57988 0.12044 0.75516 0.0
C116 C 0.56001 0.12562 0.74599 0.0
H117 H 0.72819 0.56104 0.91762 0.0
H118 H 0.80415 0.55811 0.91993 0.0
H119 H 0.75475 0.53425 0.96736 0.0
H120 H 0.81495 0.56329 0.97893 0.0
C121 C 0.822 0.55844 0.96542 0.0
O122 O 0.79917 0.53898 0.9534 0.0
H123 H 0.83315 0.57778 0.9584 0.0
C124 C 0.74299 0.557 0.92543 0.0
C125 C 0.73789 0.54701 0.94374 0.0
C126 C 0.76692 0.56137 0.91677 0.0
C127 C 0.78552 0.5548 0.92627 0.0
C128 C 0.78084 0.54488 0.94436 0.0
C129 C 0.75734 0.54121 0.95311 0.0
H130 H 0.4341 0.16571 0.93399 0.0
H131 H 0.43612 0.24288 0.94178 0.0
H132 H 0.45397 0.20978 0.99057 0.0
H133 H 0.42591 0.24379 1.00092 0.0
C134 C 0.42876 0.25229 0.98671 0.0
O135 O 0.45007 0.25068 0.97873 0.0
H136 H 0.40866 0.24003 0.97738 0.0
C137 C 0.43728 0.18317 0.94337 0.0
C138 C 0.44497 0.18507 0.96326 0.0
C139 C 0.4334 0.20356 0.93545 0.0
C140 C 0.43825 0.22653 0.94755 0.0
C141 C 0.44567 0.22856 0.96729 0.0
C142 C 0.44876 0.20789 0.97515 0.0
H143 H 0.83895 0.24956 0.92751 0.0
H144 H 0.75893 0.17564 0.92345 0.0
H145 H 0.78585 0.23432 0.97323 0.0
H146 H 0.7594 0.17566 0.9807 0.0
C147 C 0.74351 0.16633 0.96794 0.0
O148 O 0.7459 0.18681 0.95689 0.0
H149 H 0.74735 0.15159 0.95929 0.0
C150 C 0.81982 0.23641 0.93371 0.0
C151 C 0.81507 0.24503 0.95166 0.0
C152 C 0.79978 0.21148 0.92334 0.0
C153 C 0.77458 0.19504 0.93113 0.0
C154 C 0.76978 0.20319 0.94918 0.0
C155 C 0.78984 0.22824 0.95931 0.0
H156 H 0.59595 0.74875 0.09331 0.0
H157 H 0.59156 0.8229 0.09404 0.0
H158 H 0.56298 0.76724 0.04258 0.0
H159 H 0.59261 0.82815 0.03605 0.0
C160 C 0.5883 0.83563 0.0498 0.0
O161 O 0.5694 0.81336 0.05849 0.0
H162 H 0.6082 0.84757 0.05933 0.0
C163 C 0.59119 0.76257 0.08597 0.0
C164 C 0.57936 0.75521 0.06671 0.0
C165 C 0.59571 0.7869 0.09608 0.0
C166 C 0.58816 0.80393 0.08663 0.0
C167 C 0.57664 0.79688 0.06737 0.0
C168 C 0.57211 0.77255 0.05745 0.0
H169 H 0.28285 0.84235 0.10611 0.0
H170 H 0.20935 0.76233 0.10042 0.0
H171 H 0.25831 0.78892 0.05306 0.0
H172 H 0.19556 0.75403 0.0414 0.0
C173 C 0.19029 0.74478 0.05528 0.0
O174 O 0.21448 0.74907 0.06541 0.0
H175 H 0.18062 0.75475 0.06356 0.0
C176 C 0.26888 0.82315 0.09753 0.0
C177 C 0.27446 0.81828 0.07865 0.0
C178 C 0.245 0.80348 0.10538 0.0
C179 C 0.22741 0.77817 0.09454 0.0
C180 C 0.23238 0.77316 0.07582 0.0
C181 C 0.25552 0.79315 0.06782 0.0
H182 H 0.17608 0.4336 0.10984 0.0
H183 H 0.25616 0.43866 0.11195 0.0
H184 H 0.22699 0.46341 0.06292 0.0
H185 H 0.25439 0.43034 0.05472 0.0
C186 C 0.27071 0.43881 0.06723 0.0
O187 O 0.26795 0.45811 0.07847 0.0
H188 H 0.26777 0.42175 0.07585 0.0
C189 C 0.19508 0.43869 0.10333 0.0
C190 C 0.19885 0.44893 0.08518 0.0
C191 C 0.21552 0.43481 0.11314 0.0
C192 C 0.24009 0.44139 0.10459 0.0
C193 C 0.24417 0.45172 0.08654 0.0
C194 C 0.22367 0.4556 0.07693 0.0
H195 H 0.40279 0.90451 0.25386 0.0
H196 H 0.4751 0.89477 0.25492 0.0
H197 H 0.42332 0.8696 0.30115 0.0
H198 H 0.48473 0.8994 0.31303 0.0
C199 C 0.49167 0.89326 0.29997 0.0
O200 O 0.46843 0.87438 0.28793 0.0
H201 H 0.50425 0.91185 0.2925 0.0
C202 C 0.41617 0.89796 0.2608 0.0
C203 C 0.40966 0.88618 0.2784 0.0
C204 C 0.43988 0.90148 0.25217 0.0
C205 C 0.45696 0.89274 0.26133 0.0
C206 C 0.45104 0.88152 0.27896 0.0
C207 C 0.42744 0.87811 0.28741 0.0
H208 H 0.09349 0.49736 0.2692 0.0
H209 H 0.09914 0.57629 0.27569 0.0
H210 H 0.12761 0.54859 0.32317 0.0
H211 H 0.0997 0.5832 0.33536 0.0
C212 C 0.1012 0.59145 0.32111 0.0
O213 O 0.12048 0.58799 0.3116 0.0
H214 H 0.08024 0.5802 0.31275 0.0
C215 C 0.09924 0.51618 0.27802 0.0
C216 C 0.11135 0.52043 0.2971 0.0
C217 C 0.09484 0.5362 0.2701 0.0
C218 C 0.10244 0.5606 0.2815 0.0
C219 C 0.1136 0.56461 0.30069 0.0
C220 C 0.11814 0.5447 0.30846 0.0
H221 H 0.50066 0.58977 0.25926 0.0
H222 H 0.42129 0.51531 0.25618 0.0
H223 H 0.45281 0.57031 0.30819 0.0
H224 H 0.42517 0.51039 0.31343 0.0
C225 C 0.4091 0.50234 0.30078 0.0
O226 O 0.41135 0.52407 0.29131 0.0
H227 H 0.41272 0.48848 0.29092 0.0
C228 C 0.48222 0.57612 0.26596 0.0
C229 C 0.47947 0.58303 0.28503 0.0
C230 C 0.46142 0.5518 0.2554 0.0
C231 C 0.43761 0.53414 0.26413 0.0
C232 C 0.43457 0.5409 0.28313 0.0
C233 C 0.45537 0.56534 0.29351 0.0
Eu234 Eu 0.49036 0.98918 0.99381 0.0
Eu235 Eu 0.50772 0.01484 0.03965 0.0
C236 C 0.48495 0.04051 0.00945 0.0
C237 C 0.48405 0.98506 0.93897 0.0
C238 C 0.48495 0.0102 0.93746 0.0
C239 C 0.49819 0.98645 0.90658 0.0
C240 C 0.4923 0.02329 0.92057 0.0
C241 C 0.49059 0.97325 0.92338 0.0
C242 C 0.49925 0.01167 0.90501 0.0
C243 C 0.4783 0.97185 0.95706 0.0
O244 O 0.46106 0.98635 0.03502 0.0
O245 O 0.45914 0.95655 0.01055 0.0
C246 C 0.44835 0.96209 0.02515 0.0
O247 O 0.51609 0.97238 1.00678 0.0
O248 O 0.49787 0.03118 0.0653 0.0
O249 O 0.53443 0.02662 0.0667 0.0
O250 O 0.50822 0.9752 0.03847 0.0
C251 C 0.51637 0.96539 0.02437 0.0
O252 O 0.52971 0.02989 0.99409 0.0
O253 O 0.54787 0.03532 0.02556 0.0
O254 O 0.5046 0.04657 0.02338 0.0
O255 O 0.50004 0.97461 0.96737 0.0
O256 O 0.46129 0.975 0.96765 0.0
O257 O 0.4719 0.01635 0.99944 0.0
C258 C 0.50951 0.01782 0.09424 0.0
C259 C 0.50685 0.99193 0.09582 0.0
C260 C 0.49522 0.01742 0.12653 0.0
C261 C 0.49877 0.97906 0.1127 0.0
C262 C 0.50355 0.03041 0.10969 0.0
C263 C 0.49287 0.99166 0.12826 0.0
C264 C 0.51777 0.03153 0.07646 0.0
C265 C 0.55082 0.0414 1.0076 0.0
H266 H 0.48042 0.01994 0.94943 0.0
H267 H 0.50317 0.97686 0.89477 0.0
H268 H 0.49323 0.04285 0.91987 0.0
H269 H 0.49021 0.95397 0.92432 0.0
H270 H 0.51095 0.9816 0.08398 0.0
H271 H 0.49102 0.02773 0.13832 0.0
H272 H 0.4968 0.95906 0.1135 0.0
H273 H 0.50533 0.0503 0.10872 0.0
Eu274 Eu 0.0147 0.49324 0.99435 0.0
Eu275 Eu 0.99356 0.48721 0.03788 0.0
C276 C 0.96372 0.43662 1.00489 0.0
C277 C 0.01926 0.49308 0.93972 0.0
C278 C 0.99387 0.46908 0.93361 0.0
C279 C 0.02119 0.50742 0.9075 0.0
C280 C 0.9823 0.46421 0.91445 0.0
C281 C 0.0328 0.51214 0.92657 0.0
C282 C 0.99581 0.48339 0.90118 0.0
C283 C 0.03148 0.4994 0.95986 0.0
O284 O 0.02321 0.47084 0.03778 0.0
O285 O 0.04896 0.49357 0.0136 0.0
C286 C 0.04573 0.47979 0.0287 0.0
O287 O 0.03322 0.5357 0.00937 0.0
O288 O 0.97781 0.46291 0.06218 0.0
O289 O 0.9829 0.50362 0.06287 0.0
O290 O 0.03487 0.52676 0.04082 0.0
C291 C 0.04361 0.54377 0.02744 0.0
O292 O 0.97298 0.49105 0.99057 0.0
O293 O 0.97325 0.50705 0.02154 0.0
O294 O 0.95987 0.4502 0.01914 0.0
O295 O 0.0285 0.51767 0.97003 0.0
O296 O 0.02768 0.47885 0.96948 0.0
O297 O 0.98636 0.44805 0.99593 0.0
C298 C 0.99034 0.48878 0.0925 0.0
C299 C 0.01598 0.51272 0.09827 0.0
C300 C 0.98863 0.47569 0.12513 0.0
C301 C 0.02768 0.51825 0.11742 0.0
C302 C 0.97682 0.4703 0.10603 0.0
C303 C 0.0141 0.49978 0.13103 0.0
C304 C 0.9774 0.48267 0.07252 0.0
C305 C 0.96361 0.50179 1.00323 0.0
H306 H 0.98296 0.4542 0.94362 0.0
H307 H 0.03189 0.52288 0.89781 0.0
H308 H 0.96289 0.44537 0.91002 0.0
H309 H 0.05226 0.53092 0.93112 0.0
H310 H 0.02695 0.52715 0.08801 0.0
H311 H 0.97761 0.46122 0.13536 0.0
H312 H 0.04749 0.53681 0.12154 0.0
H313 H 0.95705 0.45172 0.10183 0.0
Eu314 Eu 0.52176 0.50641 0.03381 0.0
Eu315 Eu 0.50267 0.51072 0.98913 0.0
C316 C 0.52817 0.56259 0.02033 0.0
C317 C 0.52843 0.50832 0.08854 0.0
C318 C 0.52568 0.53145 0.09271 0.0
C319 C 0.5145 0.49391 0.12011 0.0
C320 C 0.51759 0.53586 0.11054 0.0
C321 C 0.52287 0.48966 0.10237 0.0
C322 C 0.51175 0.51704 0.12437 0.0
C323 C 0.53548 0.50246 0.06951 0.0
O324 O 0.54926 0.5282 0.99213 0.0
O325 O 0.55189 0.50243 0.01537 0.0
C326 C 0.56235 0.51743 1.00111 0.0
O327 O 0.49068 0.46411 0.02042 0.0
O328 O 0.50946 0.53466 0.96448 0.0
O329 O 0.47598 0.49233 0.96205 0.0
O330 O 0.50157 0.47021 0.98951 0.0
C331 C 0.49113 0.45405 1.00318 0.0
O332 O 0.48344 0.51004 0.03604 0.0
O333 O 0.46371 0.49557 1.00458 0.0
O334 O 0.50856 0.54851 1.00613 0.0
O335 O 0.51503 0.48236 0.05838 0.0
O336 O 0.55061 0.52338 0.06009 0.0
O337 O 0.54004 0.55136 0.03022 0.0
C338 C 0.49969 0.50906 0.93441 0.0
C339 C 0.50505 0.48744 0.93092 0.0
C340 C 0.51401 0.52379 0.90297 0.0
C341 C 0.51463 0.48392 0.91351 0.0
C342 C 0.50422 0.52715 0.92032 0.0
C343 C 0.51934 0.50211 0.89932 0.0
C344 C 0.49062 0.51379 0.95293 0.0
C345 C 0.46188 0.50058 0.02296 0.0
H346 H 0.52944 0.54593 0.08214 0.0
H347 H 0.51038 0.47921 0.13056 0.0
H348 H 0.51534 0.55371 0.11335 0.0
H349 H 0.5247 0.4716 0.09935 0.0
H350 H 0.50196 0.47333 0.94167 0.0
H351 H 0.51784 0.53848 0.89257 0.0
H352 H 0.51813 0.46679 0.91112 0.0
H353 H 0.5005 0.54414 0.92284 0.0
Eu354 Eu 0.1564 0.3244 0.3268 0.0
Eu355 Eu 0.17434 0.34992 0.37281 0.0
C356 C 0.15075 0.37576 0.34269 0.0
C357 C 0.15057 0.31998 0.2719 0.0
C358 C 0.1504 0.34453 0.26989 0.0
C359 C 0.1657 0.32148 0.23981 0.0
C360 C 0.15769 0.35736 0.2529 0.0
C361 C 0.15816 0.30853 0.25671 0.0
C362 C 0.16564 0.34609 0.23773 0.0
C363 C 0.1446 0.30692 0.29007 0.0
O364 O 0.12792 0.32148 0.36887 0.0
O365 O 0.12418 0.29213 0.34334 0.0
C366 C 0.11435 0.29751 0.35863 0.0
O367 O 0.18323 0.30886 0.33971 0.0
O368 O 0.16571 0.36647 0.39893 0.0
O369 O 0.2016 0.36086 0.39952 0.0
O370 O 0.17342 0.30951 0.37099 0.0
C371 C 0.18242 0.30058 0.35694 0.0
O372 O 0.19531 0.36546 0.32707 0.0
O373 O 0.21404 0.37028 0.35828 0.0
O374 O 0.16942 0.3814 0.35731 0.0
O375 O 0.16617 0.30952 0.30051 0.0
O376 O 0.12759 0.31027 0.3005 0.0
O377 O 0.13876 0.35214 0.332 0.0
C378 C 0.1774 0.35228 0.42744 0.0
C379 C 0.17485 0.32641 0.4289 0.0
C380 C 0.16293 0.35149 0.4597 0.0
C381 C 0.16672 0.31335 0.44571 0.0
C382 C 0.17132 0.36467 0.44294 0.0
C383 C 0.16063 0.32573 0.4613 0.0
C384 C 0.18555 0.36615 0.40969 0.0
C385 C 0.21663 0.37673 0.34041 0.0
H386 H 0.14502 0.354 0.28154 0.0
H387 H 0.17146 0.31216 0.22831 0.0
H388 H 0.15772 0.37645 0.25181 0.0
H389 H 0.1586 0.2897 0.25802 0.0
H390 H 0.17903 0.31621 0.41702 0.0
H391 H 0.15858 0.36163 0.47152 0.0
H392 H 0.16479 0.29336 0.44641 0.0
H393 H 0.17301 0.38454 0.44207 0.0
Eu394 Eu 0.68401 0.82828 0.33015 0.0
Eu395 Eu 0.66299 0.82106 0.37376 0.0
C396 C 0.63263 0.77115 0.34019 0.0
C397 C 0.69108 0.83051 0.27571 0.0
C398 C 0.66544 0.8072 0.26895 0.0
C399 C 0.69595 0.84541 0.24356 0.0
C400 C 0.65522 0.80294 0.24951 0.0
C401 C 0.7062 0.84955 0.26292 0.0
C402 C 0.67038 0.82202 0.23659 0.0
C403 C 0.70216 0.83596 0.29607 0.0
O404 O 0.69199 0.80399 0.37275 0.0
O405 O 0.71829 0.82868 0.34948 0.0
C406 C 0.7148 0.81378 0.36396 0.0
O407 O 0.6996 0.8701 0.34542 0.0
O408 O 0.64788 0.79667 0.3981 0.0
O409 O 0.65322 0.83752 0.39918 0.0
O410 O 0.7042 0.86069 0.37627 0.0
C411 C 0.71126 0.87815 0.36319 0.0
O412 O 0.64218 0.82568 0.32613 0.0
O413 O 0.64031 0.83884 0.35753 0.0
O414 O 0.62936 0.78404 0.35517 0.0
O415 O 0.6986 0.85373 0.30638 0.0
O416 O 0.69785 0.81493 0.30528 0.0
O417 O 0.65474 0.78298 0.33069 0.0
C418 C 0.66119 0.82236 0.42854 0.0
C419 C 0.68696 0.8462 0.4342 0.0
C420 C 0.65993 0.80911 0.4611 0.0
C421 C 0.69894 0.85161 0.45327 0.0
C422 C 0.64785 0.80383 0.44209 0.0
C423 C 0.68551 0.83312 0.46691 0.0
C424 C 0.64784 0.81646 0.40868 0.0
C425 C 0.63151 0.83459 0.33906 0.0
H426 H 0.65335 0.79236 0.27867 0.0
H427 H 0.70791 0.86076 0.23412 0.0
H428 H 0.6356 0.78457 0.24458 0.0
H429 H 0.7259 0.86779 0.26797 0.0
H430 H 0.69779 0.86066 0.42392 0.0
H431 H 0.64902 0.79463 0.47135 0.0
H432 H 0.71882 0.87011 0.45732 0.0
H433 H 0.62798 0.78533 0.43796 0.0
Eu434 Eu 0.19491 0.84834 0.36802 0.0
Eu435 Eu 0.17136 0.84806 0.32321 0.0
C436 C 0.19996 0.90166 0.35208 0.0
C437 C 0.20233 0.84609 0.42268 0.0
C438 C 0.17494 0.84018 0.42459 0.0
C439 C 0.21073 0.84865 0.45743 0.0
C440 C 0.16563 0.839 0.44289 0.0
C441 C 0.21998 0.84982 0.43915 0.0
C442 C 0.18366 0.84383 0.45955 0.0
C443 C 0.21349 0.85071 0.40386 0.0
O444 O 0.21751 0.86429 0.32317 0.0
O445 O 0.22608 0.84629 0.34966 0.0
C446 C 0.23323 0.85727 0.33335 0.0
O447 O 0.16465 0.80448 0.35716 0.0
O448 O 0.17482 0.87073 0.29824 0.0
O449 O 0.14372 0.82755 0.29676 0.0
O450 O 0.17107 0.80825 0.32518 0.0
C451 C 0.16317 0.79339 0.3398 0.0
O452 O 0.15354 0.84615 0.37085 0.0
O453 O 0.13326 0.83262 0.33939 0.0
O454 O 0.17763 0.88604 0.34018 0.0
O455 O 0.20463 0.82925 0.39142 0.0
O456 O 0.21445 0.87148 0.39594 0.0
O457 O 0.21449 0.89153 0.35988 0.0
C458 C 0.16575 0.84446 0.26861 0.0
C459 C 0.17445 0.82513 0.26583 0.0
C460 C 0.17705 0.85771 0.23642 0.0
C461 C 0.18413 0.82194 0.24838 0.0
C462 C 0.16716 0.86073 0.25381 0.0
C463 C 0.18561 0.83823 0.23344 0.0
C464 C 0.15659 0.8489 0.28715 0.0
C465 C 0.13171 0.83661 0.35794 0.0
H466 H 0.1611 0.83736 0.41197 0.0
H467 H 0.22497 0.85202 0.46994 0.0
H468 H 0.14476 0.83546 0.44403 0.0
H469 H 0.24119 0.8544 0.43791 0.0
H470 H 0.17386 0.81256 0.27715 0.0
H471 H 0.17835 0.87096 0.22542 0.0
H472 H 0.19017 0.80649 0.24654 0.0
H473 H 0.16091 0.87602 0.2558 0.0
Eu474 Eu 0.82435 0.65753 0.66169 0.0
Eu475 Eu 0.84163 0.68309 0.70782 0.0
C476 C 0.81724 0.70817 0.67762 0.0
C477 C 0.81907 0.65266 0.60666 0.0
C478 C 0.81704 0.6761 0.60385 0.0
C479 C 0.83554 0.65442 0.57499 0.0
C480 C 0.82406 0.68848 0.58666 0.0
C481 C 0.82828 0.64191 0.59208 0.0
C482 C 0.83357 0.67787 0.5721 0.0
C483 C 0.81316 0.63996 0.62497 0.0
O484 O 0.79538 0.65372 0.70382 0.0
O485 O 0.79208 0.62496 0.678 0.0
C486 C 0.78202 0.62995 0.69331 0.0
O487 O 0.85127 0.64209 0.67474 0.0
O488 O 0.83224 0.69921 0.73378 0.0
O489 O 0.86865 0.69444 0.7347 0.0
O490 O 0.84226 0.64354 0.70622 0.0
C491 C 0.85134 0.63467 0.69219 0.0
O492 O 0.86289 0.69891 0.66209 0.0
O493 O 0.88142 0.70439 0.69347 0.0
O494 O 0.83585 0.71401 0.69231 0.0
O495 O 0.83476 0.64294 0.63559 0.0
O496 O 0.79586 0.64313 0.63522 0.0
O497 O 0.80608 0.68486 0.66659 0.0
C498 C 0.84364 0.68479 0.76224 0.0
C499 C 0.84138 0.659 0.76345 0.0
C500 C 0.82758 0.68257 0.79409 0.0
C501 C 0.83255 0.64524 0.77991 0.0
C502 C 0.83667 0.69645 0.77768 0.0
C503 C 0.82545 0.65683 0.79539 0.0
C504 C 0.85209 0.69914 0.74472 0.0
C505 C 0.88405 0.71067 0.67556 0.0
H506 H 0.81036 0.68503 0.615 0.0
H507 H 0.84251 0.6456 0.56397 0.0
H508 H 0.82258 0.70668 0.58492 0.0
H509 H 0.83013 0.62394 0.594 0.0
H510 H 0.84623 0.64935 0.7516 0.0
H511 H 0.82246 0.69211 0.80584 0.0
H512 H 0.83078 0.62529 0.78039 0.0
H513 H 0.83811 0.71623 0.77699 0.0
Eu514 Eu 0.34945 0.15885 0.66069 0.0
Eu515 Eu 0.32795 0.15329 0.70404 0.0
C516 C 0.29851 0.10266 0.67152 0.0
C517 C 0.35566 0.16223 0.60646 0.0
C518 C 0.33201 0.16477 0.60252 0.0
C519 C 0.35917 0.15754 0.57219 0.0
C520 C 0.32212 0.16391 0.58346 0.0
C521 C 0.36909 0.15851 0.59123 0.0
C522 C 0.33567 0.16038 0.56807 0.0
C523 C 0.36688 0.16394 0.62635 0.0
O524 O 0.3577 0.13698 0.70446 0.0
O525 O 0.38351 0.15914 0.68014 0.0
C526 C 0.3803 0.14582 0.69547 0.0
O527 O 0.36622 0.20139 0.67515 0.0
O528 O 0.31191 0.12918 0.72837 0.0
O529 O 0.31779 0.17022 0.72901 0.0
O530 O 0.3691 0.19285 0.70652 0.0
C531 C 0.37709 0.2098 0.6931 0.0
O532 O 0.30839 0.15796 0.65624 0.0
O533 O 0.30697 0.1723 0.68741 0.0
O534 O 0.29423 0.11656 0.68525 0.0
O535 O 0.3699 0.18433 0.63794 0.0
O536 O 0.35649 0.1411 0.63443 0.0
O537 O 0.3218 0.11375 0.66328 0.0
C538 C 0.32568 0.15552 0.7585 0.0
C539 C 0.35269 0.17792 0.76335 0.0
C540 C 0.32409 0.1443 0.79158 0.0
C541 C 0.36519 0.18369 0.78229 0.0
C542 C 0.31155 0.13868 0.77268 0.0
C543 C 0.35099 0.16699 0.79665 0.0
C544 C 0.31209 0.14927 0.73872 0.0
C545 C 0.29819 0.16779 0.66894 0.0
H546 H 0.32139 0.16764 0.61417 0.0
H547 H 0.36976 0.15425 0.56069 0.0
H548 H 0.30412 0.16639 0.58079 0.0
H549 H 0.3873 0.1564 0.59408 0.0
H550 H 0.36407 0.19107 0.75254 0.0
H551 H 0.31278 0.1307 0.80218 0.0
H552 H 0.38577 0.20148 0.78571 0.0
H553 H 0.29079 0.12115 0.76912 0.0
Eu554 Eu 0.86034 0.18282 0.69918 0.0
Eu555 Eu 0.8348 0.17914 0.65439 0.0
C556 C 0.86438 0.23418 0.68113 0.0
C557 C 0.86947 0.18449 0.75417 0.0
C558 C 0.84199 0.17815 0.75624 0.0
C559 C 0.87859 0.18822 0.78895 0.0
C560 C 0.83298 0.17732 0.77463 0.0
C561 C 0.88755 0.18906 0.77059 0.0
C562 C 0.85138 0.18289 0.79122 0.0
C563 C 0.88019 0.18851 0.73518 0.0
O564 O 0.88083 0.19489 0.65343 0.0
O565 O 0.89106 0.17974 0.68094 0.0
C566 C 0.89722 0.18903 0.66401 0.0
O567 O 0.83097 0.13814 0.68979 0.0
O568 O 0.83691 0.20067 0.629 0.0
O569 O 0.80647 0.15739 0.6284 0.0
O570 O 0.83509 0.13983 0.65738 0.0
C571 C 0.82847 0.12604 0.67258 0.0
O572 O 0.8186 0.1799 0.70205 0.0
O573 O 0.79721 0.16359 0.67103 0.0
O574 O 0.84082 0.21735 0.67081 0.0
O575 O 0.87231 0.16656 0.72342 0.0
O576 O 0.87952 0.20802 0.72647 0.0
O577 O 0.87975 0.22486 0.68876 0.0
C578 C 0.82739 0.17352 0.59969 0.0
C579 C 0.83386 0.15262 0.59639 0.0
C580 C 0.84083 0.18794 0.56803 0.0
C581 C 0.8436 0.14934 0.57901 0.0
C582 C 0.83085 0.19105 0.58536 0.0
C583 C 0.84743 0.16709 0.56464 0.0
C584 C 0.81868 0.17835 0.61834 0.0
C585 C 0.79624 0.16887 0.68949 0.0
H586 H 0.8278 0.17466 0.74367 0.0
H587 H 0.89314 0.19215 0.80141 0.0
H588 H 0.81198 0.17336 0.77585 0.0
H589 H 0.90883 0.19396 0.76924 0.0
H590 H 0.83163 0.13896 0.60731 0.0
H591 H 0.84392 0.20227 0.55747 0.0
H592 H 0.84804 0.1328 0.57682 0.0
H593 H 0.82628 0.2075 0.58772 0.0
H594 H 0.30165 0.87481 0.0858 0.0
H595 H 0.30497 0.81003 0.05197 0.0
H596 H 0.34326 0.90844 0.07311 0.0
H597 H 0.34429 0.84386 0.0373 0.0
H598 H 0.43191 0.90829 0.02723 0.0
H599 H 0.39045 0.87381 0.04025 0.0
H600 H 0.36282 0.9329 0.04845 0.0
H601 H 0.40564 0.96772 0.03707 0.0
C602 C 0.31105 0.86757 0.07562 0.0
C603 C 0.29963 0.83935 0.07015 0.0
C604 C 0.3348 0.88712 0.06788 0.0
C605 C 0.34748 0.87924 0.05393 0.0
C606 C 0.33575 0.85105 0.04822 0.0
C607 C 0.31254 0.83145 0.0564 0.0
C608 C 0.41679 0.9137 0.03177 0.0
C609 C 0.42189 0.94057 0.0312 0.0
C610 C 0.39282 0.89389 0.03916 0.0
C611 C 0.37288 0.90026 0.0456 0.0
C612 C 0.37779 0.92712 0.04428 0.0
C613 C 0.40222 0.94712 0.03751 0.0
H614 H 0.14273 0.41312 0.08089 0.0
H615 H 0.20486 0.49275 0.06653 0.0
H616 H 0.10598 0.41991 0.06624 0.0
H617 H 0.16801 0.49978 0.05201 0.0
H618 H 0.09468 0.49304 0.01323 0.0
H619 H 0.13165 0.48475 0.02551 0.0
H620 H 0.08501 0.44735 0.07322 0.0
H621 H 0.0479 0.45502 0.06078 0.0
C622 C 0.14852 0.43215 0.07465 0.0
C623 C 0.1767 0.45251 0.07504 0.0
C624 C 0.12745 0.43608 0.06628 0.0
C625 C 0.13397 0.46052 0.05812 0.0
C626 C 0.16222 0.4806 0.058 0.0
C627 C 0.18336 0.4766 0.06634 0.0
C628 C 0.09227 0.48297 0.02631 0.0
C629 C 0.06823 0.47464 0.03597 0.0
C630 C 0.11356 0.47835 0.0334 0.0
C631 C 0.11132 0.4653 0.05033 0.0
C632 C 0.08726 0.45701 0.05996 0.0
C633 C 0.066 0.46157 0.05287 0.0
H634 H 0.61455 0.73474 0.06529 0.0
H635 H 0.53109 0.71604 0.04603 0.0
H636 H 0.60354 0.68911 0.05214 0.0
H637 H 0.51974 0.67012 0.03325 0.0
H638 H 0.51378 0.59506 1.00062 0.0
H639 H 0.52791 0.64295 0.00949 0.0
H640 H 0.57577 0.64346 0.06085 0.0
H641 H 0.56235 0.59601 0.05175 0.0
C642 C 0.59387 0.72084 0.05815 0.0
C643 C 0.5736 0.72879 0.05678 0.0
C644 C 0.58751 0.69469 0.05071 0.0
C645 C 0.56064 0.67582 0.04187 0.0
C646 C 0.54071 0.68421 0.0398 0.0
C647 C 0.54717 0.71049 0.04713 0.0
C648 C 0.52741 0.60545 0.01377 0.0
C649 C 0.53694 0.59172 0.02548 0.0
C650 C 0.53542 0.63287 0.01888 0.0
C651 C 0.55302 0.64708 0.03585 0.0
C652 C 0.56263 0.63332 0.04748 0.0
C653 C 0.55476 0.60601 0.04233 0.0
H654 H 0.8073 0.28508 0.96918 0.0
H655 H 0.87121 0.26548 0.95746 0.0
H656 H 0.84313 0.33089 0.98326 0.0
H657 H 0.90696 0.31097 0.97173 0.0
H658 H 0.96274 0.40373 0.97423 0.0
H659 H 0.92669 0.35706 0.96304 0.0
H660 H 0.87908 0.35733 0.0097 0.0
H661 H 0.91501 0.40449 0.02071 0.0
C662 C 0.82898 0.29041 0.96993 0.0
C663 C 0.83647 0.2718 0.96203 0.0
C664 C 0.84952 0.31665 0.978 0.0
C665 C 0.87797 0.32476 0.97842 0.0
C666 C 0.8853 0.30567 0.97123 0.0
C667 C 0.86482 0.27956 0.96311 0.0
C668 C 0.94466 0.39388 0.98218 0.0
C669 C 0.94184 0.40792 0.9984 0.0
C670 C 0.92402 0.36699 0.97582 0.0
C671 C 0.90001 0.35332 0.98553 0.0
C672 C 0.89717 0.36732 1.00177 0.0
C673 C 0.91785 0.39432 1.00814 0.0
H674 H 0.70957 0.57546 0.9399 0.0
H675 H 0.70821 0.50918 0.96897 0.0
H676 H 0.66767 0.56744 0.95352 0.0
H677 H 0.6684 0.50364 0.98468 0.0
H678 H 0.57994 0.48039 0.99623 0.0
H679 H 0.62197 0.4872 0.9825 0.0
H680 H 0.64784 0.57289 0.97917 0.0
H681 H 0.60459 0.56502 0.9912 0.0
C682 C 0.70052 0.55919 0.94924 0.0
C683 C 0.71258 0.54288 0.95304 0.0
C684 C 0.67659 0.55499 0.95755 0.0
C685 C 0.6643 0.53495 0.9705 0.0
C686 C 0.67665 0.51898 0.97459 0.0
C687 C 0.70011 0.5226 0.9658 0.0
C688 C 0.59479 0.50064 0.99257 0.0
C689 C 0.58906 0.52215 0.99466 0.0
C690 C 0.61909 0.5047 0.98478 0.0
C691 C 0.63867 0.53065 0.97945 0.0
C692 C 0.63316 0.55237 0.98238 0.0
C693 C 0.60846 0.54802 0.98954 0.0
H694 H 0.48248 0.19124 0.99344 0.0
H695 H 0.41716 0.12958 0.95193 0.0
H696 H 0.48985 0.15633 1.00655 0.0
H697 H 0.42688 0.09534 0.96347 0.0
H698 H 0.43431 0.03278 0.996 0.0
H699 H 0.42311 0.06745 0.98686 0.0
H700 H 0.50979 0.13005 1.00086 0.0
H701 H 0.52017 0.09548 0.01137 0.0
C702 C 0.46963 0.17027 0.98705 0.0
C703 C 0.44927 0.16346 0.97149 0.0
C704 C 0.47429 0.15021 0.99436 0.0
C705 C 0.45926 0.12285 0.986 0.0
C706 C 0.43871 0.116 0.97055 0.0
C707 C 0.43352 0.13592 0.9636 0.0
C708 C 0.45081 0.05404 0.99725 0.0
C709 C 0.47805 0.06155 1.0044 0.0
C710 C 0.44451 0.07396 0.99186 0.0
C711 C 0.46552 0.10176 0.99294 0.0
C712 C 0.49282 0.10909 1.00018 0.0
C713 C 0.49891 0.08925 1.00609 0.0
H714 H 0.69311 0.15813 0.95094 0.0
H715 H 0.72896 0.13761 0.99927 0.0
H716 H 0.64679 0.1303 0.96125 0.0
H717 H 0.68257 0.10872 0.00918 0.0
H718 H 0.59811 0.0759 0.03165 0.0
H719 H 0.64413 0.10814 0.02262 0.0
H720 H 0.61278 0.08391 0.96237 0.0
H721 H 0.56672 0.05256 0.97139 0.0
C722 C 0.69111 0.14789 0.9639 0.0
C723 C 0.71477 0.15065 0.97463 0.0
C724 C 0.66449 0.13163 0.9697 0.0
C725 C 0.6608 0.11723 0.98612 0.0
C726 C 0.68454 0.11993 0.99674 0.0
C727 C 0.71115 0.13639 0.99103 0.0
C728 C 0.60103 0.07758 0.01648 0.0
C729 C 0.5787 0.0616 1.00226 0.0
C730 C 0.62748 0.09598 0.01128 0.0
C731 C 0.63233 0.09867 0.99174 0.0
C732 C 0.60985 0.08283 0.97756 0.0
C733 C 0.58338 0.06465 0.98275 0.0
H734 H 0.86504 0.56319 0.94559 0.0
H735 H 0.82212 0.529 0.9952 0.0
H736 H 0.89822 0.54785 0.95395 0.0
H737 H 0.85482 0.51312 1.00347 0.0
H738 H 0.93859 0.52255 0.02576 0.0
H739 H 0.90353 0.53431 0.0158 0.0
H740 H 0.90348 0.50754 0.95658 0.0
H741 H 0.93917 0.49611 0.96652 0.0
C742 C 0.86271 0.55227 0.95824 0.0
C743 C 0.84154 0.54782 0.97004 0.0
C744 C 0.88152 0.54329 0.96296 0.0
C745 C 0.87938 0.52952 0.97951 0.0
C746 C 0.85744 0.52417 0.99086 0.0
C747 C 0.83866 0.53314 0.98613 0.0
C748 C 0.93115 0.51908 0.01059 0.0
C749 C 0.9418 0.5084 0.99694 0.0
C750 C 0.91083 0.52566 1.0049 0.0
C751 C 0.90056 0.52176 0.9854 0.0
C752 C 0.91112 0.51101 0.9717 0.0
C753 C 0.93148 0.50434 0.97741 0.0
H754 H 0.42073 0.28149 0.95966 0.0
H755 H 0.45498 0.28949 0.01834 0.0
H756 H 0.43482 0.33027 0.96276 0.0
H757 H 0.46956 0.33822 0.02145 0.0
H758 H 0.46433 0.41543 0.02764 0.0
H759 H 0.44816 0.36674 0.02306 0.0
H760 H 0.47727 0.37601 0.96645 0.0
H761 H 0.49317 0.42511 0.97089 0.0
C762 C 0.43107 0.29374 0.97326 0.0
C763 C 0.43616 0.28179 0.98895 0.0
C764 C 0.43938 0.32163 0.97497 0.0
C765 C 0.4531 0.33803 0.99239 0.0
C766 C 0.45852 0.32601 1.00797 0.0
C767 C 0.45023 0.29819 1.00623 0.0
C768 C 0.46727 0.40718 0.01416 0.0
C769 C 0.48023 0.42422 0.99967 0.0
C770 C 0.4581 0.37924 0.01159 0.0
C771 C 0.46171 0.36757 0.99449 0.0
C772 C 0.47406 0.38441 0.97975 0.0
C773 C 0.48326 0.41252 0.98232 0.0
H774 H 0.18138 0.70328 0.07817 0.0
H775 H 0.15055 0.71873 0.02489 0.0
H776 H 0.14653 0.65458 0.07202 0.0
H777 H 0.11489 0.67043 0.01908 0.0
H778 H 0.07492 0.5798 1.00278 0.0
H779 H 0.1106 0.62752 0.01007 0.0
H780 H 0.09784 0.62174 0.0705 0.0
H781 H 0.06252 0.57323 0.06319 0.0
C782 C 0.16725 0.69618 0.06507 0.0
C783 C 0.16931 0.71456 0.0516 0.0
C784 C 0.14703 0.66834 0.06166 0.0
C785 C 0.12806 0.65841 0.04492 0.0
C786 C 0.12961 0.67711 0.03185 0.0
C787 C 0.14997 0.70482 0.03517 0.0
C788 C 0.07965 0.58863 0.01765 0.0
C789 C 0.0657 0.57275 0.0324 0.0
C790 C 0.10007 0.61614 0.02183 0.0
C791 C 0.10692 0.6287 0.04085 0.0
C792 C 0.09326 0.61271 0.0557 0.0
C793 C 0.07293 0.58495 0.05152 0.0
H794 H 0.32129 0.48083 0.08497 0.0
H795 H 0.28468 0.42306 0.03409 0.0
H796 H 0.36744 0.49821 0.07389 0.0
H797 H 0.3308 0.43945 0.02333 0.0
H798 H 0.41423 0.48832 1.00041 0.0
H799 H 0.36872 0.47615 0.01077 0.0
H800 H 0.40169 0.48561 0.07016 0.0
H801 H 0.44734 0.49875 0.05984 0.0
C802 C 0.32309 0.47206 0.07129 0.0
C803 C 0.29926 0.45111 0.0601 0.0
C804 C 0.3496 0.48178 0.06503 0.0
C805 C 0.35299 0.47038 0.04762 0.0
C806 C 0.32908 0.44925 0.03656 0.0
C807 C 0.3026 0.43973 0.04274 0.0
C808 C 0.41181 0.48799 0.01569 0.0
C809 C 0.43447 0.49446 0.02926 0.0
C810 C 0.38563 0.48083 0.02165 0.0
C811 C 0.38133 0.47969 0.04133 0.0
C812 C 0.40418 0.48663 0.05491 0.0
C813 C 0.43041 0.49404 0.04896 0.0
H814 H 0.59757 0.86771 0.02019 0.0
H815 H 0.5549 0.84703 0.07162 0.0
H816 H 0.58071 0.89946 0.01438 0.0
H817 H 0.53678 0.87759 0.06539 0.0
H818 H 0.53199 0.95507 0.05938 0.0
H819 H 0.54979 0.92426 0.06565 0.0
H820 H 0.53972 0.90031 1.00443 0.0
H821 H 0.52307 0.93192 0.99818 0.0
C822 C 0.58417 0.86965 0.03004 0.0
C823 C 0.57685 0.85433 0.04599 0.0
C824 C 0.57438 0.88771 0.02671 0.0
C825 C 0.55707 0.89088 0.03929 0.0
C826 C 0.5502 0.87586 0.05546 0.0
C827 C 0.56027 0.85805 0.05891 0.0
C828 C 0.53355 0.94318 0.04728 0.0
C829 C 0.52622 0.946 0.02829 0.0
C830 C 0.54363 0.92539 0.05087 0.0
C831 C 0.54627 0.90978 0.03555 0.0
C832 C 0.53853 0.91239 0.01657 0.0
C833 C 0.52879 0.9304 0.01298 0.0
H834 H 0.99449 0.1875 0.43049 0.0
H835 H 0.94753 0.16373 0.3743 0.0
H836 H 0.03516 0.22226 0.41684 0.0
H837 H 0.98849 0.19835 0.36061 0.0
H838 H 0.07854 0.24516 0.34158 0.0
H839 H 0.03669 0.20949 0.35398 0.0
H840 H 0.04908 0.26592 0.40304 0.0
H841 H 0.09069 0.30127 0.39091 0.0
C842 C 0.99275 0.18982 0.41526 0.0
C843 C 0.96765 0.17289 0.40354 0.0
C844 C 0.0161 0.2097 0.40743 0.0
C845 C 0.015 0.21311 0.38766 0.0
C846 C 0.99006 0.196 0.37585 0.0
C847 C 0.96662 0.17617 0.38372 0.0
C848 C 0.07223 0.24997 0.35495 0.0
C849 C 0.08806 0.27607 0.36525 0.0
C850 C 0.04822 0.22957 0.36201 0.0
C851 C 0.03973 0.23484 0.37957 0.0
C852 C 0.05532 0.26107 0.38964 0.0
C853 C 0.07911 0.28141 0.38257 0.0
H854 H 0.81065 0.74374 0.41247 0.0
H855 H 0.87337 0.82516 0.40165 0.0
H856 H 0.77435 0.75139 0.39811 0.0
H857 H 0.83692 0.83305 0.38743 0.0
H858 H 0.76448 0.82899 0.34897 0.0
H859 H 0.80131 0.82006 0.36059 0.0
H860 H 0.75304 0.77808 0.40651 0.0
H861 H 0.71611 0.7864 0.39471 0.0
C862 C 0.81666 0.76333 0.40704 0.0
C863 C 0.84486 0.78395 0.40838 0.0
C864 C 0.79584 0.76776 0.39885 0.0
C865 C 0.80263 0.79298 0.39183 0.0
C866 C 0.83094 0.81331 0.39256 0.0
C867 C 0.85184 0.80882 0.40071 0.0
C868 C 0.76169 0.81777 0.36151 0.0
C869 C 0.73725 0.80835 0.37086 0.0
C870 C 0.7829 0.81279 0.36823 0.0
C871 C 0.78014 0.79825 0.38445 0.0
C872 C 0.75569 0.7889 0.39377 0.0
C873 C 0.73453 0.79384 0.38706 0.0
H874 H 0.2442 0.07428 0.36438 0.0
H875 H 0.22523 0.04418 0.42031 0.0
H876 H 0.23476 0.02907 0.35112 0.0
H877 H 0.21695 -0.00038 0.40717 0.0
H878 H 0.23708 0.93574 0.38206 0.0
H879 H 0.24773 0.98198 0.3931 0.0
H880 H 0.19179 0.97904 0.34613 0.0
H881 H 0.18084 0.9325 0.33503 0.0
C882 C 0.23791 0.05808 0.37382 0.0
C883 C 0.23571 0.06297 0.39346 0.0
C884 C 0.23264 0.03228 0.36623 0.0
C885 C 0.22542 0.01106 0.3782 0.0
C886 C 0.22298 0.01583 0.39774 0.0
C887 C 0.22786 0.04141 0.40525 0.0
C888 C 0.22722 0.94499 0.37395 0.0
C889 C 0.208 0.93043 0.35773 0.0
C890 C 0.23323 0.97139 0.38034 0.0
C891 C 0.22043 0.9839 0.37051 0.0
C892 C 0.20198 0.96981 0.35389 0.0
C893 C 0.19566 0.94319 0.34762 0.0
H894 H 0.47393 0.62207 0.30616 0.0
H895 H 0.53544 0.60248 0.2879 0.0
H896 H 0.51116 0.66695 0.32071 0.0
H897 H 0.57262 0.64697 0.3027 0.0
H898 H 0.62906 0.73993 0.30757 0.0
H899 H 0.5921 0.69381 0.29595 0.0
H900 H 0.54909 0.69139 0.34602 0.0
H901 H 0.58584 0.73796 0.35746 0.0
C902 C 0.49541 0.62719 0.30558 0.0
C903 C 0.50182 0.60895 0.29573 0.0
C904 C 0.51675 0.65287 0.31392 0.0
C905 C 0.54491 0.66072 0.31267 0.0
C906 C 0.5512 0.64188 0.30353 0.0
C907 C 0.52991 0.61635 0.29511 0.0
C908 C 0.61181 0.72958 0.31618 0.0
C909 C 0.61046 0.7427 0.33346 0.0
C910 C 0.59065 0.70301 0.30956 0.0
C911 C 0.56764 0.68879 0.32009 0.0
C912 C 0.56636 0.70185 0.33744 0.0
C913 C 0.58751 0.72851 0.34405 0.0
H914 H 0.38961 0.9218 0.28101 0.0
H915 H 0.37265 0.8422 0.29624 0.0
H916 H 0.34776 0.91524 0.29491 0.0
H917 H 0.33081 0.8357 0.31024 0.0
H918 H 0.27172 0.8451 0.34948 0.0
H919 H 0.31492 0.85266 0.337 0.0
H920 H 0.29743 0.88703 0.28796 0.0
H921 H 0.25467 0.87992 0.30046 0.0
C922 C 0.37686 0.90281 0.2872 0.0
C923 C 0.38446 0.88247 0.28738 0.0
C924 C 0.35286 0.89906 0.29521 0.0
C925 C 0.33583 0.87489 0.30364 0.0
C926 C 0.34363 0.85471 0.30408 0.0
C927 C 0.36763 0.85844 0.29604 0.0
C928 C 0.27713 0.85435 0.33607 0.0
C929 C 0.25969 0.86196 0.32603 0.0
C930 C 0.30183 0.85854 0.32886 0.0
C931 C 0.30971 0.87053 0.3115 0.0
C932 C 0.29226 0.87815 0.30152 0.0
C933 C 0.2676 0.87391 0.30867 0.0
H934 H 0.13216 0.4918 0.27843 0.0
H935 H 0.10503 0.50279 0.33333 0.0
H936 H 0.14095 0.4569 0.29044 0.0
H937 H 0.11456 0.46812 0.34549 0.0
H938 H 0.16578 0.42504 0.36297 0.0
H939 H 0.15614 0.46059 0.35281 0.0
H940 H 0.11059 0.40944 0.30021 0.0
H941 H 0.12012 0.37411 0.31016 0.0
C942 C 0.12787 0.48664 0.29302 0.0
C943 C 0.11754 0.49984 0.30483 0.0
C944 C 0.13302 0.46672 0.29991 0.0
C945 C 0.12821 0.45969 0.31883 0.0
C946 C 0.11857 0.4733 0.33087 0.0
C947 C 0.11317 0.49314 0.32391 0.0
C948 C 0.15358 0.42135 0.3493 0.0
C949 C 0.14382 0.3968 0.33735 0.0
C950 C 0.14798 0.44163 0.34354 0.0
C951 C 0.13281 0.43779 0.32567 0.0
C952 C 0.12264 0.41306 0.31394 0.0
C953 C 0.12799 0.39276 0.31973 0.0
H954 H 0.39476 0.4726 0.33177 0.0
H955 H 0.35867 0.49359 0.28383 0.0
H956 H 0.34836 0.44321 0.34153 0.0
H957 H 0.31237 0.4653 0.29401 0.0
H958 H 0.23224 0.38783 0.30412 0.0
H959 H 0.27835 0.41888 0.29499 0.0
H960 H 0.3101 0.44285 0.35519 0.0
H961 H 0.26408 0.41093 0.36432 0.0
C962 C 0.37689 0.47134 0.32357 0.0
C963 C 0.38042 0.48594 0.30736 0.0
C964 C 0.35029 0.45461 0.32919 0.0
C965 C 0.32651 0.45198 0.31867 0.0
C966 C 0.33011 0.46659 0.30238 0.0
C967 C 0.35671 0.48311 0.29666 0.0
C968 C 0.24901 0.39981 0.31544 0.0
C969 C 0.24445 0.39681 0.33497 0.0
C970 C 0.2755 0.41779 0.31019 0.0
C971 C 0.29808 0.43346 0.32433 0.0
C972 C 0.29336 0.4308 0.34389 0.0
C973 C 0.2669 0.4126 0.34914 0.0
H974 H 0.50102 0.85593 0.27901 0.0
H975 H 0.52537 0.9062 0.33333 0.0
H976 H 0.53302 0.83963 0.28823 0.0
H977 H 0.55821 0.89101 0.34229 0.0
H978 H 0.59658 0.84158 0.36153 0.0
H979 H 0.56125 0.85317 0.35189 0.0
H980 H 0.58125 0.85384 0.29295 0.0
H981 H 0.616 0.84115 0.30255 0.0
C982 C 0.513 0.86324 0.29302 0.0
C983 C 0.51004 0.88164 0.30575 0.0
C984 C 0.53163 0.8542 0.29822 0.0
C985 C 0.54812 0.86378 0.31611 0.0
C986 C 0.54539 0.88256 0.32863 0.0
C987 C 0.52664 0.89138 0.3235 0.0
C988 C 0.59341 0.8441 0.34649 0.0
C989 C 0.60927 0.84061 0.33284 0.0
C990 C 0.5732 0.85091 0.34096 0.0
C991 C 0.5685 0.85478 0.32165 0.0
C992 C 0.58402 0.85076 0.3079 0.0
C993 C 0.60408 0.84362 0.31342 0.0
H994 H 0.12933 0.63135 0.29702 0.0
H995 H 0.09085 0.61841 0.35026 0.0
H996 H 0.1437 0.67977 0.30155 0.0
H997 H 0.10379 0.66667 0.35436 0.0
H998 H 0.15859 0.75925 0.36718 0.0
H999 H 0.14311 0.71061 0.3624 0.0
H1000 H 0.12798 0.71144 0.30099 0.0
H1001 H 0.14475 0.76047 0.30576 0.0
C1002 C 0.12402 0.63894 0.30974 0.0
C1003 C 0.10988 0.62139 0.32369 0.0
C1004 C 0.13189 0.66665 0.31221 0.0
C1005 C 0.12513 0.67729 0.32841 0.0
C1006 C 0.11001 0.6594 0.34197 0.0
C1007 C 0.10247 0.63174 0.33962 0.0
C1008 C 0.1519 0.74902 0.35266 0.0
C1009 C 0.15296 0.76368 0.33683 0.0
C1010 C 0.14283 0.72105 0.34992 0.0
C1011 C 0.13422 0.70698 0.3313 0.0
C1012 C 0.13492 0.72165 0.3155 0.0
C1013 C 0.14439 0.74975 0.31822 0.0
H1014 H 0.82366 0.04778 0.41177 0.0
H1015 H 0.85402 0.03906 0.35791 0.0
H1016 H 0.7874 -0.00082 0.40705 0.0
H1017 H 0.81822 0.99053 0.35323 0.0
H1018 H 0.73038 0.91841 0.33901 0.0
H1019 H 0.76742 0.96568 0.34593 0.0
H1020 H 0.77962 0.95154 0.40496 0.0
H1021 H 0.74192 0.90376 0.3981 0.0
C1022 C 0.82253 0.03533 0.39897 0.0
C1023 C 0.84104 0.04711 0.38496 0.0
C1024 C 0.802 0.00757 0.39633 0.0
C1025 C 0.79975 0.99113 0.37965 0.0
C1026 C 0.81907 0.00281 0.36603 0.0
C1027 C 0.83957 0.0305 0.3687 0.0
C1028 C 0.74082 0.92524 0.35352 0.0
C1029 C 0.7332 0.90721 0.368 0.0
C1030 C 0.76225 0.95237 0.35742 0.0
C1031 C 0.77668 0.96227 0.37592 0.0
C1032 C 0.7688 0.94448 0.39057 0.0
C1033 C 0.74729 0.91714 0.38663 0.0
H1034 H 0.98991 0.81188 0.42079 0.0
H1035 H 0.95419 0.75716 0.36841 0.0
H1036 H 0.03642 0.82988 0.41011 0.0
H1037 H 1.00056 0.77414 0.358 0.0
H1038 H 0.08402 0.82512 0.33591 0.0
H1039 H 0.03846 0.8119 0.34646 0.0
H1040 H 0.07105 0.81782 0.40543 0.0
H1041 H 0.1169 0.83205 0.39493 0.0
C1042 C 0.992 0.80393 0.40688 0.0
C1043 C 0.96832 0.7837 0.39515 0.0
C1044 C 0.0187 0.81399 0.40084 0.0
C1045 C 0.02239 0.80365 0.38309 0.0
C1046 C 0.99862 0.78316 0.37151 0.0
C1047 C 0.97199 0.77331 0.37749 0.0
C1048 C 0.08154 0.82374 0.35115 0.0
C1049 C 0.10418 0.82955 0.36454 0.0
C1050 C 0.05529 0.81597 0.35721 0.0
C1051 C 0.05085 0.81352 0.37682 0.0
C1052 C 0.07365 0.8198 0.39025 0.0
C1053 C 0.09999 0.82782 0.3842 0.0
H1054 H 0.26004 0.21088 0.40155 0.0
H1055 H 0.21449 0.16493 0.34746 0.0
H1056 H 0.24371 0.24347 0.39693 0.0
H1057 H 0.1977 0.1971 0.34288 0.0
H1058 H 0.20115 0.27732 0.33088 0.0
H1059 H 0.21701 0.24491 0.33622 0.0
H1060 H 0.20059 0.24594 0.39589 0.0
H1061 H 0.18507 0.2789 0.39066 0.0
C1062 C 0.24664 0.20795 0.38863 0.0
C1063 C 0.23902 0.18595 0.37461 0.0
C1064 C 0.23708 0.22635 0.38607 0.0
C1065 C 0.21956 0.22292 0.36948 0.0
C1066 C 0.21158 0.20056 0.35563 0.0
C1067 C 0.22112 0.18216 0.35823 0.0
C1068 C 0.20088 0.27069 0.34516 0.0
C1069 C 0.19183 0.28071 0.36036 0.0
C1070 C 0.20983 0.25196 0.34817 0.0
C1071 C 0.20995 0.2428 0.36644 0.0
C1072 C 0.20097 0.25284 0.38168 0.0
C1073 C 0.19195 0.2716 0.37866 0.0
H1074 H 0.62539 0.53902 0.74382 0.0
H1075 H 0.64468 0.47711 0.72384 0.0
H1076 H 0.66604 0.57377 0.7301 0.0
H1077 H 0.68567 0.51195 0.71035 0.0
H1078 H 0.74551 0.57869 0.67482 0.0
H1079 H 0.70209 0.54333 0.68568 0.0
H1080 H 0.71557 0.59702 0.7368 0.0
H1081 H 0.75818 0.63232 0.72583 0.0
C1082 C 0.63843 0.53288 0.73658 0.0
C1083 C 0.63194 0.50536 0.73504 0.0
C1084 C 0.66175 0.55279 0.72872 0.0
C1085 C 0.67931 0.54573 0.71923 0.0
C1086 C 0.67246 0.51808 0.71734 0.0
C1087 C 0.64901 0.49812 0.72513 0.0
C1088 C 0.73907 0.58296 0.68831 0.0
C1089 C 0.75532 0.60841 0.69938 0.0
C1090 C 0.71427 0.56264 0.6946 0.0
C1091 C 0.70523 0.56734 0.7121 0.0
C1092 C 0.72152 0.59283 0.72308 0.0
C1093 C 0.74615 0.61308 0.7168 0.0
H1094 H 0.51601 0.1105 0.71627 0.0
H1095 H 0.50714 0.14212 0.7716 0.0
H1096 H 0.47881 0.11676 0.70136 0.0
H1097 H 0.46995 0.14808 0.75678 0.0
H1098 H 0.38359 0.12403 0.72889 0.0
H1099 H 0.42168 0.11844 0.74242 0.0
H1100 H 0.46723 0.15259 0.69365 0.0
H1101 H 0.42891 0.15797 0.67992 0.0
C1102 C 0.50638 0.11908 0.72521 0.0
C1103 C 0.51441 0.12555 0.74517 0.0
C1104 C 0.48502 0.12261 0.71667 0.0
C1105 C 0.47119 0.13262 0.72792 0.0
C1106 C 0.47974 0.13975 0.74777 0.0
C1107 C 0.50109 0.13633 0.75627 0.0
C1108 C 0.40163 0.13026 0.72096 0.0
C1109 C 0.40315 0.14151 0.70331 0.0
C1110 C 0.42358 0.12722 0.72881 0.0
C1111 C 0.4476 0.13524 0.71918 0.0
C1112 C 0.44895 0.14605 0.70136 0.0
C1113 C 0.42702 0.14924 0.69354 0.0
H1114 H 0.87416 0.39292 0.69998 0.0
H1115 H 0.93998 0.39676 0.73877 0.0
H1116 H 0.86541 0.34932 0.68459 0.0
H1117 H 0.92944 0.35207 0.72471 0.0
H1118 H 0.91698 0.27734 0.69043 0.0
H1119 H 0.93073 0.32511 0.69912 0.0
H1120 H 0.84416 0.30379 0.6909 0.0
H1121 H 0.83089 0.25655 0.68105 0.0
C1122 C 0.88691 0.3846 0.70518 0.0
C1123 C 0.90756 0.3983 0.72081 0.0
C1124 C 0.88156 0.35929 0.69654 0.0
C1125 C 0.89638 0.3468 0.70354 0.0
C1126 C 0.9177 0.361 0.71873 0.0
C1127 C 0.92341 0.38652 0.72709 0.0
C1128 C 0.90101 0.28305 0.69029 0.0
C1129 C 0.87289 0.26331 0.68518 0.0
C1130 C 0.90882 0.31039 0.69539 0.0
C1131 C 0.88857 0.31843 0.69595 0.0
C1132 C 0.86046 0.29863 0.69034 0.0
C1133 C 0.85276 0.27143 0.68483 0.0
H1134 H 0.17546 0.95955 0.59834 0.0
H1135 H 0.16508 0.9305 0.65489 0.0
H1136 H 0.21195 0.00472 0.61242 0.0
H1137 H 0.2015 0.97611 0.66905 0.0
H1138 H 0.24918 0.0709 0.68669 0.0
H1139 H 0.21172 0.025 0.6741 0.0
H1140 H 0.2602 0.02446 0.62816 0.0
H1141 H 0.29747 0.0702 0.64056 0.0
C1142 C 0.18105 0.96275 0.61378 0.0
C1143 C 0.16758 0.94127 0.62545 0.0
C1144 C 0.20196 0.98867 0.62185 0.0
C1145 C 0.20982 0.99388 0.64181 0.0
C1146 C 0.19579 0.97272 0.65362 0.0
C1147 C 0.17491 0.94664 0.64551 0.0
C1148 C 0.2519 0.06094 0.67395 0.0
C1149 C 0.2763 0.0743 0.66459 0.0
C1150 C 0.23048 0.03461 0.66681 0.0
C1151 C 0.23294 0.02123 0.65007 0.0
C1152 C 0.25752 0.03442 0.64093 0.0
C1153 C 0.27897 0.06059 0.64812 0.0
H1154 H 0.02164 0.19748 0.59025 0.0
H1155 H 0.06626 0.2237 0.64721 0.0
H1156 H 0.97949 0.19076 0.60371 0.0
H1157 H 0.02412 0.21726 0.66072 0.0
H1158 H 0.93587 0.17721 0.6803 0.0
H1159 H 0.97808 0.183 0.66729 0.0
H1160 H 0.96029 0.21648 0.61781 0.0
H1161 H 0.91789 0.21008 0.6305 0.0
C1162 C 0.02251 0.20203 0.60564 0.0
C1163 C 0.04739 0.21122 0.61762 0.0
C1164 C 0.99832 0.19822 0.61338 0.0
C1165 C 0.99834 0.20359 0.63332 0.0
C1166 C 0.02318 0.21256 0.64534 0.0
C1167 C 0.04738 0.21629 0.63759 0.0
C1168 C 0.94097 0.18583 0.66665 0.0
C1169 C 0.92337 0.19312 0.65647 0.0
C1170 C 0.96529 0.18928 0.65923 0.0
C1171 C 0.97263 0.20013 0.64144 0.0
C1172 C 0.95511 0.20762 0.63137 0.0
C1173 C 0.93082 0.20411 0.63875 0.0
H1174 H 0.81897 0.85884 0.6577 0.0
H1175 H 0.73735 0.79573 0.63241 0.0
H1176 H 0.82819 0.82389 0.66931 0.0
H1177 H 0.7462 0.76069 0.64437 0.0
H1178 H 0.78666 0.70714 0.64519 0.0
H1179 H 0.77464 0.74138 0.63674 0.0
H1180 H 0.81644 0.78933 0.69119 0.0
H1181 H 0.82924 0.75533 0.69944 0.0
C1182 C 0.8028 0.83748 0.65497 0.0
C1183 C 0.77753 0.82994 0.64406 0.0
C1184 C 0.80803 0.81745 0.66165 0.0
C1185 C 0.78801 0.78945 0.65765 0.0
C1186 C 0.7623 0.78203 0.64736 0.0
C1187 C 0.75717 0.80205 0.64056 0.0
C1188 C 0.79317 0.72489 0.65544 0.0
C1189 C 0.80898 0.72854 0.67298 0.0
C1190 C 0.7861 0.74447 0.65064 0.0
C1191 C 0.79449 0.76809 0.66331 0.0
C1192 C 0.80995 0.77154 0.681 0.0
C1193 C 0.81719 0.752 0.68576 0.0
H1194 H 0.0263 0.82736 0.61889 0.0
H1195 H 0.06201 0.80747 0.66769 0.0
H1196 H 0.97993 0.79946 0.62904 0.0
H1197 H 0.01553 0.77846 0.67742 0.0
H1198 H 0.93104 0.74582 0.69958 0.0
H1199 H 0.97702 0.7781 0.69057 0.0
H1200 H 0.94599 0.75306 0.63032 0.0
H1201 H 0.89992 0.72165 0.63932 0.0
C1202 C 0.02428 0.81722 0.6319 0.0
C1203 C 0.0479 0.82016 0.64281 0.0
C1204 C 0.99761 0.80092 0.63761 0.0
C1205 C 0.99386 0.78669 0.65412 0.0
C1206 C 0.01756 0.78955 0.6649 0.0
C1207 C 0.04421 0.80605 0.65929 0.0
C1208 C 0.93401 0.74735 0.68441 0.0
C1209 C 0.91178 0.73111 0.67019 0.0
C1210 C 0.96044 0.76576 0.67923 0.0
C1211 C 0.96537 0.76819 0.65969 0.0
C1212 C 0.94298 0.75215 0.64549 0.0
C1213 C 0.91651 0.73396 0.65068 0.0
H1214 H 0.15298 0.18895 0.66049 0.0
H1215 H 0.198 0.229 0.61301 0.0
H1216 H 0.18633 0.17362 0.66806 0.0
H1217 H 0.23181 0.21417 0.62069 0.0
H1218 H 0.27558 0.16432 0.63194 0.0
H1219 H 0.23905 0.17466 0.62197 0.0
H1220 H 0.23469 0.19597 0.68157 0.0
H1221 H 0.27058 0.18535 0.69153 0.0
C1222 C 0.17005 0.1944 0.65168 0.0
C1223 C 0.17336 0.21062 0.63646 0.0
C1224 C 0.18921 0.18576 0.65603 0.0
C1225 C 0.21201 0.19301 0.64516 0.0
C1226 C 0.21449 0.20816 0.62932 0.0
C1227 C 0.19529 0.21681 0.62499 0.0
C1228 C 0.26675 0.17114 0.64291 0.0
C1229 C 0.27607 0.17398 0.66254 0.0
C1230 C 0.24589 0.17717 0.63718 0.0
C1231 C 0.2338 0.186 0.65098 0.0
C1232 C 0.24315 0.18876 0.67057 0.0
C1233 C 0.26397 0.18286 0.67627 0.0
H1234 H 0.75506 0.9517 0.68625 0.0
H1235 H 0.79184 0.96212 0.63242 0.0
H1236 H 0.76917 0.0003 0.68981 0.0
H1237 H 0.80729 0.01086 0.63635 0.0
H1238 H 0.80864 0.09166 0.63924 0.0
H1239 H 0.79161 0.04259 0.63545 0.0
H1240 H 0.80916 0.04434 0.69689 0.0
H1241 H 0.82503 0.09318 0.70074 0.0
C1242 C 0.76655 0.96455 0.67535 0.0
C1243 C 0.77309 0.95339 0.65938 0.0
C1244 C 0.77476 0.99239 0.6774 0.0
C1245 C 0.78965 0.00964 0.66347 0.0
C1246 C 0.79565 -0.00178 0.64728 0.0
C1247 C 0.78714 0.97035 0.64514 0.0
C1248 C 0.80881 0.08154 0.65194 0.0
C1249 C 0.81819 0.09628 0.67028 0.0
C1250 C 0.79918 0.0534 0.64976 0.0
C1251 C 0.79908 0.03944 0.66585 0.0
C1252 C 0.80847 0.05427 0.68421 0.0
C1253 C 0.81775 0.08234 0.68641 0.0
H1254 H 0.51678 0.3676 0.74364 0.0
H1255 H 0.48404 0.38549 0.6923 0.0
H1256 H 0.48158 0.31914 0.73693 0.0
H1257 H 0.44799 0.33738 0.686 0.0
H1258 H 0.40628 0.24666 0.66816 0.0
H1259 H 0.4423 0.29431 0.67554 0.0
H1260 H 0.43307 0.28695 0.73634 0.0
H1261 H 0.39754 0.23862 0.7289 0.0
C1262 C 0.50217 0.3611 0.73082 0.0
C1263 C 0.50375 0.38012 0.71806 0.0
C1264 C 0.48173 0.33338 0.72712 0.0
C1265 C 0.46205 0.3242 0.7108 0.0
C1266 C 0.46322 0.34349 0.69841 0.0
C1267 C 0.4838 0.37109 0.70202 0.0
C1268 C 0.41186 0.25516 0.68312 0.0
C1269 C 0.39892 0.23887 0.69794 0.0
C1270 C 0.43247 0.28261 0.68736 0.0
C1271 C 0.44049 0.29466 0.70653 0.0
C1272 C 0.42765 0.2783 0.72141 0.0
C1273 C 0.40717 0.25064 0.71717 0.0
H1274 H 0.65666 0.1484 0.7532 0.0
H1275 H 0.61922 0.0902 0.7026 0.0
H1276 H 0.70267 0.16509 0.742 0.0
H1277 H 0.66516 0.10589 0.69172 0.0
H1278 H 0.74764 0.15514 0.66775 0.0
H1279 H 0.70245 0.14239 0.67877 0.0
H1280 H 0.73723 0.15289 0.7378 0.0
H1281 H 0.78272 0.16668 0.72677 0.0
C1282 C 0.65825 0.13936 0.73957 0.0
C1283 C 0.63422 0.11856 0.72845 0.0
C1284 C 0.68468 0.14868 0.73324 0.0
C1285 C 0.68778 0.13703 0.71584 0.0
C1286 C 0.66367 0.11591 0.70493 0.0
C1287 C 0.63729 0.10679 0.71118 0.0
C1288 C 0.74571 0.15484 0.6831 0.0
C1289 C 0.76887 0.16186 0.69635 0.0
C1290 C 0.71967 0.14735 0.68943 0.0
C1291 C 0.71595 0.14636 0.70921 0.0
C1292 C 0.73925 0.15374 0.72249 0.0
C1293 C 0.76539 0.16151 0.71615 0.0
H1294 H 0.93801 0.54206 0.68725 0.0
H1295 H 0.89599 0.52035 0.73888 0.0
H1296 H 0.92064 0.57356 0.68199 0.0
H1297 H 0.87733 0.55062 0.73322 0.0
H1298 H 0.86828 0.62552 0.72718 0.0
H1299 H 0.88848 0.59668 0.73341 0.0
H1300 H 0.87878 0.5728 0.67221 0.0
H1301 H 0.85975 0.60253 0.66599 0.0
C1302 C 0.9248 0.54387 0.69734 0.0
C1303 C 0.91772 0.52832 0.71317 0.0
C1304 C 0.91469 0.56175 0.6943 0.0
C1305 C 0.89723 0.5644 0.70703 0.0
C1306 C 0.89085 0.54932 0.72318 0.0
C1307 C 0.90126 0.53173 0.72633 0.0
C1308 C 0.87043 0.61406 0.71508 0.0
C1309 C 0.86248 0.61632 0.6961 0.0
C1310 C 0.88193 0.59743 0.71864 0.0
C1311 C 0.88536 0.58242 0.70331 0.0
C1312 C 0.87703 0.58449 0.68435 0.0
C1313 C 0.86589 0.60137 0.68078 0.0
H1314 H 0.49181 0.93766 0.24229 0.0
H1315 H 0.4046 0.89547 0.22048 0.0
H1316 H 0.50404 0.95877 0.21225 0.0
H1317 H 0.41695 0.91726 0.19058 0.0
H1318 H 0.45064 0.98622 0.14928 0.0
H1319 H 0.43744 0.96434 0.17915 0.0
H1320 H 0.50288 0.94421 0.17759 0.0
H1321 H 0.51629 0.96636 0.14791 0.0
C1322 C 0.47522 0.93267 0.23105 0.0
C1323 C 0.44719 0.91468 0.23384 0.0
C1324 C 0.48227 0.94487 0.21385 0.0
C1325 C 0.46147 0.93963 0.19903 0.0
C1326 C 0.43342 0.92192 0.20183 0.0
C1327 C 0.42636 0.90949 0.21899 0.0
C1328 C 0.46226 0.97722 0.15538 0.0
C1329 C 0.48453 0.97805 0.14626 0.0
C1330 C 0.45455 0.96449 0.17238 0.0
C1331 C 0.46914 0.95258 0.18073 0.0
C1332 C 0.49139 0.95341 0.17159 0.0
C1333 C 0.49891 0.96588 0.15451 0.0
H1334 H 0.11303 0.57154 0.24225 0.0
H1335 H 0.04893 0.49038 0.25239 0.0
H1336 H 0.09391 0.56308 0.20855 0.0
H1337 H 0.02931 0.48205 0.21889 0.0
H1338 H 0.01983 0.46477 0.15372 0.0
H1339 H 0.03944 0.47408 0.18729 0.0
H1340 H 0.05501 0.55719 0.1879 0.0
H1341 H 0.03599 0.54794 0.15414 0.0
C1342 C 0.09463 0.55202 0.23729 0.0
C1343 C 0.08253 0.53156 0.24987 0.0
C1344 C 0.08363 0.54717 0.21801 0.0
C1345 C 0.06013 0.52182 0.21096 0.0
C1346 C 0.04776 0.50158 0.2237 0.0
C1347 C 0.05891 0.50636 0.24292 0.0
C1348 C 0.02738 0.48499 0.16108 0.0
C1349 C 0.02637 0.50562 0.15136 0.0
C1350 C 0.03853 0.49032 0.18034 0.0
C1351 C 0.04869 0.51635 0.19036 0.0
C1352 C 0.04775 0.53703 0.18056 0.0
C1353 C 0.03681 0.53175 0.16124 0.0
H1354 H 0.47509 0.58479 0.22626 0.0
H1355 H 0.45624 0.50395 0.23946 0.0
H1356 H 0.48513 0.57566 0.19405 0.0
H1357 H 0.46723 0.49495 0.20743 0.0
H1358 H 0.46866 0.47974 0.14272 0.0
H1359 H 0.45384 0.48717 0.17363 0.0
H1360 H 0.52047 0.57175 0.1795 0.0
H1361 H 0.53462 0.56439 0.14842 0.0
C1362 C 0.47312 0.56504 0.22221 0.0
C1363 C 0.46506 0.54512 0.23534 0.0
C1364 C 0.47905 0.55984 0.20381 0.0
C1365 C 0.47739 0.53469 0.19817 0.0
C1366 C 0.46847 0.51444 0.21117 0.0
C1367 C 0.46223 0.51957 0.22953 0.0
C1368 C 0.48012 0.49988 0.15069 0.0
C1369 C 0.50276 0.5215 0.14317 0.0
C1370 C 0.47169 0.50414 0.16842 0.0
C1371 C 0.48588 0.53009 0.1791 0.0
C1372 C 0.50863 0.55165 0.17153 0.0
C1373 C 0.51686 0.54744 0.15374 0.0
H1374 H 0.96235 0.49992 0.78119 0.0
H1375 H 0.89895 0.41736 0.78915 0.0
H1376 H 0.97919 0.50778 0.81539 0.0
H1377 H 0.91602 0.42513 0.82335 0.0
H1378 H 0.94071 0.46109 0.88759 0.0
H1379 H 0.92099 0.45413 0.85412 0.0
H1380 H 1.00349 0.4885 0.83544 0.0
H1381 H 0.02319 0.49481 0.86869 0.0
C1382 C 0.9518 0.48361 0.79032 0.0
C1383 C 0.92945 0.458 0.78255 0.0
C1384 C 0.96158 0.48801 0.80982 0.0
C1385 C 0.94903 0.46698 0.82195 0.0
C1386 C 0.926 0.44171 0.81433 0.0
C1387 C 0.91638 0.43722 0.79478 0.0
C1388 C 0.95462 0.46684 0.87633 0.0
C1389 C 0.98356 0.4786 0.88085 0.0
C1390 C 0.94332 0.46298 0.8572 0.0
C1391 C 0.96076 0.47102 0.84225 0.0
C1392 C 0.98962 0.48261 0.84673 0.0
C1393 C 1.00089 0.48623 0.86579 0.0
H1394 H 0.56708 0.43855 0.80152 0.0
H1395 H 0.57884 0.51601 0.78525 0.0
H1396 H 0.55383 0.44731 0.83276 0.0
H1397 H 0.56586 0.52491 0.81659 0.0
H1398 H 0.50455 0.51006 0.86306 0.0
H1399 H 0.52156 0.50411 0.83281 0.0
H1400 H 0.57428 0.47948 0.86319 0.0
H1401 H 0.5579 0.4861 0.8936 0.0
C1402 C 0.56698 0.45751 0.80469 0.0
C1403 C 0.57392 0.47657 0.79094 0.0
C1404 C 0.5596 0.46261 0.8226 0.0
C1405 C 0.55872 0.48675 0.82708 0.0
C1406 C 0.56612 0.50602 0.81346 0.0
C1407 C 0.57379 0.50105 0.79561 0.0
C1408 C 0.52009 0.50378 0.86339 0.0
C1409 C 0.5298 0.49855 0.88083 0.0
C1410 C 0.52979 0.50034 0.84603 0.0
C1411 C 0.54925 0.49134 0.84565 0.0
C1412 C 0.55904 0.48614 0.86303 0.0
C1413 C 0.54953 0.48983 0.88043 0.0
H1414 H 0.55666 0.06065 0.7926 0.0
H1415 H 0.53424 0.11987 0.81338 0.0
H1416 H 0.54473 0.03883 0.82249 0.0
H1417 H 0.52306 0.09869 0.84349 0.0
H1418 H 0.47492 0.03586 0.88494 0.0
H1419 H 0.48871 0.05869 0.85563 0.0
H1420 H 0.55759 0.04325 0.85608 0.0
H1421 H 0.54323 0.01978 0.88511 0.0
C1422 C 0.54961 0.06926 0.80372 0.0
C1423 C 0.54623 0.09186 0.80062 0.0
C1424 C 0.5428 0.0568 0.82088 0.0
C1425 C 0.53271 0.06683 0.83544 0.0
C1426 C 0.53013 0.08996 0.83248 0.0
C1427 C 0.53668 0.10222 0.81526 0.0
C1428 C 0.49309 0.03749 0.87881 0.0
C1429 C 0.50793 0.02595 0.8873 0.0
C1430 C 0.5011 0.05068 0.86203 0.0
C1431 C 0.52435 0.05293 0.85343 0.0
C1432 C 0.53931 0.04154 0.86206 0.0
C1433 C 0.53113 0.02812 0.87874 0.0
H1434 H 0.15712 0.26938 0.57486 0.0
H1435 H 0.07038 0.22729 0.55189 0.0
H1436 H 0.17018 0.29132 0.54519 0.0
H1437 H 0.08355 0.24991 0.52238 0.0
H1438 H 0.11795 0.31977 0.48199 0.0
H1439 H 0.10421 0.29733 0.51159 0.0
H1440 H 0.16999 0.27763 0.51042 0.0
H1441 H 0.18392 0.30033 0.48098 0.0
C1442 C 0.14082 0.2646 0.56346 0.0
C1443 C 0.11266 0.24639 0.56581 0.0
C1444 C 0.14834 0.27728 0.54646 0.0
C1445 C 0.12791 0.2723 0.53143 0.0
C1446 C 0.09975 0.25437 0.5338 0.0
C1447 C 0.09221 0.24148 0.55075 0.0
C1448 C 0.12954 0.31076 0.48812 0.0
C1449 C 0.15205 0.31185 0.47918 0.0
C1450 C 0.12152 0.2977 0.50496 0.0
C1451 C 0.13604 0.28574 0.51334 0.0
C1452 C 0.15855 0.28687 0.5044 0.0
C1453 C 0.16638 0.29966 0.48746 0.0
H1454 H 0.72531 0.88264 0.58967 0.0
H1455 H 0.77379 0.84388 0.57728 0.0
H1456 H 0.7085 0.87527 0.55555 0.0
H1457 H 0.75639 0.83599 0.54327 0.0
H1458 H 0.69118 0.79805 0.48962 0.0
H1459 H 0.7102 0.80723 0.52342 0.0
H1460 H 0.72703 0.89064 0.52374 0.0
H1461 H 0.70767 0.88135 0.48998 0.0
C1462 C 0.73259 0.87278 0.57968 0.0
C1463 C 0.75082 0.86376 0.58625 0.0
C1464 C 0.7229 0.86852 0.56014 0.0
C1465 C 0.73108 0.85498 0.54679 0.0
C1466 C 0.74944 0.84614 0.5533 0.0
C1467 C 0.75931 0.85059 0.57279 0.0
C1468 C 0.6989 0.81831 0.49694 0.0
C1469 C 0.69792 0.83898 0.48721 0.0
C1470 C 0.70998 0.82363 0.51621 0.0
C1471 C 0.72007 0.84964 0.52619 0.0
C1472 C 0.7192 0.87035 0.51644 0.0
C1473 C 0.70836 0.86511 0.4971 0.0
H1474 H 0.09693 0.85535 0.55637 0.0
H1475 H 0.17857 0.87638 0.58206 0.0
H1476 H 0.10854 0.84461 0.52499 0.0
H1477 H 0.19003 0.86508 0.55097 0.0
H1478 H 0.21437 0.88178 0.48994 0.0
H1479 H 0.20042 0.88631 0.52159 0.0
H1480 H 0.11927 0.81491 0.5052 0.0
H1481 H 0.1333 0.81054 0.47321 0.0
C1482 C 0.11713 0.85712 0.55536 0.0
C1483 C 0.13699 0.86702 0.57156 0.0
C1484 C 0.12379 0.85093 0.53741 0.0
C1485 C 0.15038 0.85437 0.53538 0.0
C1486 C 0.16962 0.86287 0.55188 0.0
C1487 C 0.16305 0.86924 0.56972 0.0
C1488 C 0.19369 0.86676 0.49314 0.0
C1489 C 0.17503 0.84567 0.47908 0.0
C1490 C 0.18567 0.86933 0.51134 0.0
C1491 C 0.15878 0.85083 0.51605 0.0
C1492 C 0.14006 0.82965 0.502 0.0
C1493 C 0.14809 0.82712 0.4837 0.0
H1494 H 0.58037 0.80851 0.12595 0.0
H1495 H 0.63825 0.78127 0.11255 0.0
H1496 H 0.59916 0.81853 0.15976 0.0
H1497 H 0.65596 0.78987 0.14642 0.0
H1498 H 0.7001 0.83219 0.20522 0.0
H1499 H 0.68291 0.82605 0.17141 0.0
H1500 H 0.59903 0.79442 0.18717 0.0
H1501 H 0.61648 0.80204 0.22113 0.0
C1502 C 0.59719 0.80479 0.13019 0.0
C1503 C 0.60776 0.79401 0.11656 0.0
C1504 C 0.6077 0.81018 0.14962 0.0
C1505 C 0.62896 0.80486 0.15583 0.0
C1506 C 0.63979 0.79448 0.14213 0.0
C1507 C 0.62938 0.78922 0.12273 0.0
C1508 C 0.67804 0.82428 0.20152 0.0
C1509 C 0.65968 0.81765 0.21591 0.0
C1510 C 0.66812 0.82044 0.18209 0.0
C1511 C 0.63957 0.80968 0.17655 0.0
C1512 C 0.6212 0.80306 0.19094 0.0
C1513 C 0.63114 0.80705 0.2104 0.0
H1514 H 0.19319 0.79007 0.11509 0.0
H1515 H 0.27956 0.83099 0.13873 0.0
H1516 H 0.17998 0.7988 0.14602 0.0
H1517 H 0.26646 0.84127 0.16957 0.0
H1518 H 0.22807 0.82776 0.22746 0.0
H1519 H 0.24298 0.81991 0.19679 0.0
H1520 H 0.1822 0.83468 0.16657 0.0
H1521 H 0.16612 0.84076 0.19706 0.0
C1522 C 0.20942 0.80092 0.12691 0.0
C1523 C 0.23744 0.8096 0.12441 0.0
C1524 C 0.20186 0.80634 0.14462 0.0
C1525 C 0.22214 0.82091 0.16032 0.0
C1526 C 0.25024 0.82977 0.15785 0.0
C1527 C 0.25781 0.82416 0.14009 0.0
C1528 C 0.21766 0.82902 0.21426 0.0
C1529 C 0.19572 0.83471 0.21479 0.0
C1530 C 0.22651 0.82491 0.19666 0.0
C1531 C 0.21374 0.82653 0.17915 0.0
C1532 C 0.19223 0.8328 0.17973 0.0
C1533 C 0.18325 0.83669 0.19728 0.0
H1534 H 0.22297 0.39337 0.12507 0.0
H1535 H 0.19704 0.4506 0.14402 0.0
H1536 H 0.21165 0.37248 0.15535 0.0
H1537 H 0.18645 0.43037 0.17451 0.0
H1538 H 0.13983 0.36809 0.2167 0.0
H1539 H 0.15312 0.3902 0.18709 0.0
H1540 H 0.22437 0.37836 0.18907 0.0
H1541 H 0.21052 0.35559 0.21842 0.0
C1542 C 0.21528 0.40176 0.13587 0.0
C1543 C 0.21073 0.4235 0.13214 0.0
C1544 C 0.20882 0.38984 0.15326 0.0
C1545 C 0.19791 0.39957 0.16741 0.0
C1546 C 0.19417 0.42188 0.16382 0.0
C1547 C 0.20037 0.4336 0.14638 0.0
C1548 C 0.15841 0.37037 0.21085 0.0
C1549 C 0.17407 0.36003 0.21986 0.0
C1550 C 0.16614 0.38315 0.19389 0.0
C1551 C 0.1899 0.38617 0.18562 0.0
C1552 C 0.20569 0.37601 0.19478 0.0
C1553 C 0.1978 0.363 0.21165 0.0
H1554 H 0.78428 0.54514 0.88532 0.0
H1555 H 0.764 0.60585 0.90638 0.0
H1556 H 0.79699 0.5671 0.85556 0.0
H1557 H 0.77739 0.62833 0.87691 0.0
H1558 H 0.78124 0.64939 0.81481 0.0
H1559 H 0.76533 0.62498 0.84331 0.0
H1560 H 0.83257 0.6071 0.84406 0.0
H1561 H 0.84791 0.63088 0.81529 0.0
C1562 C 0.78262 0.56325 0.88358 0.0
C1563 C 0.77315 0.57377 0.89818 0.0
C1564 C 0.79004 0.57594 0.86657 0.0
C1565 C 0.78842 0.59966 0.8638 0.0
C1566 C 0.77852 0.6099 0.87834 0.0
C1567 C 0.77087 0.59704 0.89528 0.0
C1568 C 0.79264 0.6403 0.82114 0.0
C1569 C 0.81583 0.64206 0.81281 0.0
C1570 C 0.78357 0.62634 0.83751 0.0
C1571 C 0.79762 0.614 0.84607 0.0
C1572 C 0.82086 0.61584 0.8377 0.0
C1573 C 0.82976 0.62958 0.82123 0.0
H1574 H 0.39538 0.21615 0.91973 0.0
H1575 H 0.44819 0.18348 0.90429 0.0
H1576 H 0.37719 0.20932 0.88612 0.0
H1577 H 0.42862 0.17499 0.87078 0.0
H1578 H 0.4057 0.18554 0.80942 0.0
H1579 H 0.42697 0.1966 0.84263 0.0
H1580 H 0.34663 0.17232 0.86286 0.0
H1581 H 0.32576 0.16292 0.82974 0.0
C1582 C 0.40326 0.20766 0.90915 0.0
C1583 C 0.42324 0.20032 0.91475 0.0
C1584 C 0.39249 0.20334 0.88989 0.0
C1585 C 0.40121 0.19134 0.87575 0.0
C1586 C 0.42158 0.18447 0.88126 0.0
C1587 C 0.43253 0.189 0.90053 0.0
C1588 C 0.39265 0.18294 0.82095 0.0
C1589 C 0.364 0.17335 0.81689 0.0
C1590 C 0.4048 0.18895 0.84001 0.0
C1591 C 0.38854 0.18537 0.85544 0.0
C1592 C 0.35989 0.17572 0.85135 0.0
C1593 C 0.34781 0.16991 0.83233 0.0
H1594 H 0.84735 0.21263 0.91427 0.0
H1595 H 0.76517 0.19148 0.88958 0.0
H1596 H 0.85876 0.20317 0.88265 0.0
H1597 H 0.7767 0.1824 0.85772 0.0
H1598 H 0.80134 0.14919 0.80515 0.0
H1599 H 0.78761 0.15318 0.8373 0.0
H1600 H 0.86836 0.2252 0.85342 0.0
H1601 H 0.88201 0.22113 0.82155 0.0
C1602 C 0.83172 0.20594 0.90204 0.0
C1603 C 0.80548 0.20309 0.90436 0.0
C1604 C 0.83826 0.20059 0.8839 0.0
C1605 C 0.81881 0.19241 0.86756 0.0
C1606 C 0.79213 0.18849 0.87001 0.0
C1607 C 0.78551 0.19371 0.88824 0.0
C1608 C 0.8161 0.16587 0.81559 0.0
C1609 C 0.84286 0.1847 0.81082 0.0
C1610 C 0.80823 0.16818 0.83399 0.0
C1611 C 0.82694 0.18938 0.84802 0.0
C1612 C 0.85362 0.20822 0.84317 0.0
C1613 C 0.86148 0.20589 0.82485 0.0
H1614 H 0.24247 0.14598 0.45817 0.0
H1615 H 0.30697 0.12793 0.44487 0.0
H1616 H 0.26178 0.15805 0.49205 0.0
H1617 H 0.32599 0.13955 0.47869 0.0
H1618 H 0.36626 0.18338 0.53812 0.0
H1619 H 0.34921 0.17882 0.50432 0.0
H1620 H 0.26446 0.13076 0.51834 0.0
H1621 H 0.28143 0.1349 0.55209 0.0
C1622 C 0.261 0.14498 0.46247 0.0
C1623 C 0.27318 0.1359 0.44898 0.0
C1624 C 0.27188 0.15165 0.48184 0.0
C1625 C 0.29529 0.14962 0.48799 0.0
C1626 C 0.30806 0.14152 0.47434 0.0
C1627 C 0.29706 0.13465 0.45503 0.0
C1628 C 0.34399 0.17176 0.53399 0.0
C1629 C 0.32521 0.15928 0.54778 0.0
C1630 C 0.33425 0.16926 0.51466 0.0
C1631 C 0.30554 0.15438 0.50871 0.0
C1632 C 0.2867 0.14265 0.52256 0.0
C1633 C 0.29644 0.14502 0.54189 0.0
H1634 H 0.90964 0.18232 0.45128 0.0
H1635 H 0.89985 0.10599 0.46848 0.0
H1636 H 0.89519 0.19078 0.48218 0.0
H1637 H 0.88525 0.11432 0.49927 0.0
H1638 H 0.88783 0.15345 0.55957 0.0
H1639 H 0.90513 0.14741 0.52945 0.0
H1640 H 0.85022 0.16859 0.49811 0.0
H1641 H 0.83223 0.17388 0.5281 0.0
C1642 C 0.90467 0.16752 0.46175 0.0
C1643 C 0.90582 0.14349 0.4575 0.0
C1644 C 0.89618 0.17223 0.47933 0.0
C1645 C 0.88904 0.15317 0.49309 0.0
C1646 C 0.89082 0.12946 0.489 0.0
C1647 C 0.89898 0.1246 0.47135 0.0
C1648 C 0.87916 0.15652 0.54626 0.0
C1649 C 0.85848 0.16402 0.54631 0.0
C1650 C 0.8892 0.15318 0.52902 0.0
C1651 C 0.87904 0.15756 0.51146 0.0
C1652 C 0.8587 0.16544 0.51148 0.0
C1653 C 0.84844 0.16851 0.52869 0.0
H1654 H 0.91724 0.77598 0.47916 0.0
H1655 H 0.83186 0.72168 0.4553 0.0
H1656 H 0.90633 0.75551 0.50967 0.0
H1657 H 0.82096 0.70185 0.48586 0.0
H1658 H 0.80523 0.69606 0.54967 0.0
H1659 H 0.81764 0.71705 0.51947 0.0
H1660 H 0.89193 0.71042 0.52317 0.0
H1661 H 0.87968 0.68971 0.55352 0.0
C1662 C 0.89623 0.75957 0.48033 0.0
C1663 C 0.8754 0.75068 0.46477 0.0
C1664 C 0.88998 0.74791 0.49784 0.0
C1665 C 0.86272 0.72725 0.50022 0.0
C1666 C 0.84203 0.7181 0.4846 0.0
C1667 C 0.8483 0.72955 0.46709 0.0
C1668 C 0.82431 0.69929 0.54411 0.0
C1669 C 0.84143 0.69117 0.55394 0.0
C1670 C 0.8313 0.71108 0.52674 0.0
C1671 C 0.85571 0.71528 0.51891 0.0
C1672 C 0.87308 0.70758 0.5289 0.0
C1673 C 0.86594 0.69552 0.54617 0.0
loop_
_geom_bond_atom_site_label_1
_geom_bond_atom_site_label_2
_geom_bond_distance
_geom_bond_site_symmetry_2
_ccdc_geom_bond_type
H0 C7 0.929 . S
H1 C10 0.930 . S
H2 C12 0.929 . S
H3 C4 0.969 . S
C4 H3 0.969 . S
C4 O5 1.550 . S
C4 H6 0.973 . S
O5 C4 1.550 . S
O5 C11 1.412 . S
H6 C4 0.973 . S
C7 H0 0.929 . S
C7 C8 1.400 . S
C7 C9 1.364 . S
C8 C7 1.400 . S
C8 C12 1.377 . S
C9 C7 1.364 . S
C9 C10 1.374 . S
C10 H1 0.930 . S
C10 C9 1.374 . S
C10 C11 1.383 . S
C11 O5 1.412 . S
C11 C10 1.383 . S
C11 C12 1.394 . S
C12 H2 0.929 . S
C12 C8 1.377 . S
C12 C11 1.394 . S
H13 C20 0.929 . S
H14 C23 0.930 . S
H15 C25 0.929 . S
H16 C17 0.969 . S
C17 H16 0.969 . S
C17 O18 1.550 . S
C17 H19 0.973 . S
O18 C17 1.550 . S
O18 C24 1.412 . S
H19 C17 0.973 . S
C20 H13 0.929 . S
C20 C21 1.400 . S
C20 C22 1.364 . S
C21 C20 1.400 . S
C21 C25 1.377 . S
C22 C20 1.364 . S
C22 C23 1.374 . S
C23 H14 0.930 . S
C23 C22 1.374 . S
C23 C24 1.383 . S
C24 O18 1.412 . S
C24 C23 1.383 . S
C24 C25 1.394 . S
C25 H15 0.929 . S
C25 C21 1.377 . S
C25 C24 1.394 . S
H26 C33 0.929 . S
H27 C36 0.930 . S
H28 C38 0.929 . S
H29 C30 0.969 . S
C30 H29 0.969 . S
C30 O31 1.550 . S
C30 H32 0.973 . S
O31 C30 1.550 . S
O31 C37 1.412 . S
H32 C30 0.973 . S
C33 H26 0.929 . S
C33 C34 1.400 . S
C33 C35 1.364 . S
C34 C33 1.400 . S
C34 C38 1.377 . S
C35 C33 1.364 . S
C35 C36 1.374 . S
C36 H27 0.930 . S
C36 C35 1.374 . S
C36 C37 1.383 . S
C37 O31 1.412 . S
C37 C36 1.383 . S
C37 C38 1.394 . S
C38 H28 0.929 . S
C38 C34 1.377 . S
C38 C37 1.394 . S
H39 C46 0.929 . S
H40 C49 0.930 . S
H41 C51 0.929 . S
H42 C43 0.969 . S
C43 H42 0.969 . S
C43 O44 1.550 . S
C43 H45 0.973 . S
O44 C43 1.550 . S
O44 C50 1.412 . S
H45 C43 0.973 . S
C46 H39 0.929 . S
C46 C47 1.400 . S
C46 C48 1.364 . S
C47 C46 1.400 . S
C47 C51 1.377 . S
C48 C46 1.364 . S
C48 C49 1.374 . S
C49 H40 0.930 . S
C49 C48 1.374 . S
C49 C50 1.383 . S
C50 O44 1.412 . S
C50 C49 1.383 . S
C50 C51 1.394 . S
C51 H41 0.929 . S
C51 C47 1.377 . S
C51 C50 1.394 . S
H52 C59 0.929 . S
H53 C62 0.930 . S
H54 C64 0.929 . S
H55 C56 0.969 . S
C56 H55 0.969 . S
C56 O57 1.550 . S
C56 H58 0.973 . S
O57 C56 1.550 . S
O57 C63 1.412 . S
H58 C56 0.973 . S
C59 H52 0.929 . S
C59 C60 1.400 . S
C59 C61 1.364 . S
C60 C59 1.400 . S
C60 C64 1.377 . S
C61 C59 1.364 . S
C61 C62 1.374 . S
C62 H53 0.930 . S
C62 C61 1.374 . S
C62 C63 1.383 . S
C63 O57 1.412 . S
C63 C62 1.383 . S
C63 C64 1.394 . S
C64 H54 0.929 . S
C64 C60 1.377 . S
C64 C63 1.394 . S
H65 C72 0.929 . S
H66 C75 0.930 . S
H67 C77 0.929 . S
H68 C69 0.969 . S
C69 H68 0.969 . S
C69 O70 1.550 . S
C69 H71 0.973 . S
O70 C69 1.550 . S
O70 C76 1.412 . S
H71 C69 0.973 . S
C72 H65 0.929 . S
C72 C73 1.400 . S
C72 C74 1.364 . S
C73 C72 1.400 . S
C73 C77 1.377 . S
C74 C72 1.364 . S
C74 C75 1.374 . S
C75 H66 0.930 . S
C75 C74 1.374 . S
C75 C76 1.383 . S
C76 O70 1.412 . S
C76 C75 1.383 . S
C76 C77 1.394 . S
C77 H67 0.929 . S
C77 C73 1.377 . S
C77 C76 1.394 . S
H78 C85 0.929 . S
H79 C88 0.930 . S
H80 C90 0.929 . S
H81 C82 0.969 . S
C82 H81 0.969 . S
C82 O83 1.550 . S
C82 H84 0.973 . S
O83 C82 1.550 . S
O83 C89 1.412 . S
H84 C82 0.973 . S
C85 H78 0.929 . S
C85 C86 1.400 . S
C85 C87 1.364 . S
C86 C85 1.400 . S
C86 C90 1.377 . S
C87 C85 1.364 . S
C87 C88 1.374 . S
C88 H79 0.930 . S
C88 C87 1.374 . S
C88 C89 1.383 . S
C89 O83 1.412 . S
C89 C88 1.383 . S
C89 C90 1.394 . S
C90 H80 0.929 . S
C90 C86 1.377 . S
C90 C89 1.394 . S
H91 C98 0.929 . S
H92 C101 0.930 . S
H93 C103 0.929 . S
H94 C95 0.969 . S
C95 H94 0.969 . S
C95 O96 1.550 . S
C95 H97 0.973 . S
O96 C95 1.550 . S
O96 C102 1.412 . S
H97 C95 0.973 . S
C98 H91 0.929 . S
C98 C99 1.400 . S
C98 C100 1.364 . S
C99 C98 1.400 . S
C99 C103 1.377 . S
C100 C98 1.364 . S
C100 C101 1.374 . S
C101 H92 0.930 . S
C101 C100 1.374 . S
C101 C102 1.383 . S
C102 O96 1.412 . S
C102 C101 1.383 . S
C102 C103 1.394 . S
C103 H93 0.929 . S
C103 C99 1.377 . S
C103 C102 1.394 . S
H104 C111 0.929 . S
H105 C114 0.930 . S
H106 C116 0.929 . S
H107 C108 0.969 . S
C108 H107 0.969 . S
C108 O109 1.550 . S
C108 H110 0.973 . S
O109 C108 1.550 . S
O109 C115 1.412 . S
H110 C108 0.973 . S
C111 H104 0.929 . S
C111 C112 1.400 . S
C111 C113 1.364 . S
C112 C111 1.400 . S
C112 C116 1.377 . S
C113 C111 1.364 . S
C113 C114 1.374 . S
C114 H105 0.930 . S
C114 C113 1.374 . S
C114 C115 1.383 . S
C115 O109 1.412 . S
C115 C114 1.383 . S
C115 C116 1.394 . S
C116 H106 0.929 . S
C116 C112 1.377 . S
C116 C115 1.394 . S
H117 C124 0.929 . S
H118 C127 0.930 . S
H119 C129 0.929 . S
H120 C121 0.969 . S
C121 H120 0.969 . S
C121 O122 1.550 . S
C121 H123 0.973 . S
O122 C121 1.550 . S
O122 C128 1.412 . S
H123 C121 0.973 . S
C124 H117 0.929 . S
C124 C125 1.400 . S
C124 C126 1.364 . S
C125 C124 1.400 . S
C125 C129 1.377 . S
C126 C124 1.364 . S
C126 C127 1.374 . S
C127 H118 0.930 . S
C127 C126 1.374 . S
C127 C128 1.383 . S
C128 O122 1.412 . S
C128 C127 1.383 . S
C128 C129 1.394 . S
C129 H119 0.929 . S
C129 C125 1.377 . S
C129 C128 1.394 . S
H130 C137 0.929 . S
H131 C140 0.930 . S
H132 C142 0.929 . S
H133 C134 0.969 . S
C134 H133 0.969 . S
C134 O135 1.550 . S
C134 H136 0.973 . S
O135 C134 1.550 . S
O135 C141 1.412 . S
H136 C134 0.973 . S
C137 H130 0.929 . S
C137 C138 1.400 . S
C137 C139 1.364 . S
C138 C137 1.400 . S
C138 C142 1.377 . S
C139 C137 1.364 . S
C139 C140 1.374 . S
C140 H131 0.930 . S
C140 C139 1.374 . S
C140 C141 1.383 . S
C141 O135 1.412 . S
C141 C140 1.383 . S
C141 C142 1.394 . S
C142 H132 0.929 . S
C142 C138 1.377 . S
C142 C141 1.394 . S
H143 C150 0.929 . S
H144 C153 0.930 . S
H145 C155 0.929 . S
H146 C147 0.969 . S
C147 H146 0.969 . S
C147 O148 1.550 . S
C147 H149 0.973 . S
O148 C147 1.550 . S
O148 C154 1.412 . S
H149 C147 0.973 . S
C150 H143 0.929 . S
C150 C151 1.400 . S
C150 C152 1.364 . S
C151 C150 1.400 . S
C151 C155 1.377 . S
C152 C150 1.364 . S
C152 C153 1.374 . S
C153 H144 0.930 . S
C153 C152 1.374 . S
C153 C154 1.383 . S
C154 O148 1.412 . S
C154 C153 1.383 . S
C154 C155 1.394 . S
C155 H145 0.929 . S
C155 C151 1.377 . S
C155 C154 1.394 . S
H156 C163 0.929 . S
H157 C166 0.930 . S
H158 C168 0.929 . S
H159 C160 0.969 . S
C160 H159 0.969 . S
C160 O161 1.550 . S
C160 H162 0.973 . S
O161 C160 1.550 . S
O161 C167 1.412 . S
H162 C160 0.973 . S
C163 H156 0.929 . S
C163 C164 1.400 . S
C163 C165 1.364 . S
C164 C163 1.400 . S
C164 C168 1.377 . S
C165 C163 1.364 . S
C165 C166 1.374 . S
C166 H157 0.930 . S
C166 C165 1.374 . S
C166 C167 1.383 . S
C167 O161 1.412 . S
C167 C166 1.383 . S
C167 C168 1.394 . S
C168 H158 0.929 . S
C168 C164 1.377 . S
C168 C167 1.394 . S
H169 C176 0.929 . S
H170 C179 0.930 . S
H171 C181 0.929 . S
H172 C173 0.969 . S
C173 H172 0.969 . S
C173 O174 1.550 . S
C173 H175 0.973 . S
O174 C173 1.550 . S
O174 C180 1.412 . S
H175 C173 0.973 . S
C176 H169 0.929 . S
C176 C177 1.400 . S
C176 C178 1.364 . S
C177 C176 1.400 . S
C177 C181 1.377 . S
C178 C176 1.364 . S
C178 C179 1.374 . S
C179 H170 0.930 . S
C179 C178 1.374 . S
C179 C180 1.383 . S
C180 O174 1.412 . S
C180 C179 1.383 . S
C180 C181 1.394 . S
C181 H171 0.929 . S
C181 C177 1.377 . S
C181 C180 1.394 . S
H182 C189 0.929 . S
H183 C192 0.930 . S
H184 C194 0.929 . S
H185 C186 0.969 . S
C186 H185 0.969 . S
C186 O187 1.550 . S
C186 H188 0.973 . S
O187 C186 1.550 . S
O187 C193 1.412 . S
H188 C186 0.973 . S
C189 H182 0.929 . S
C189 C190 1.400 . S
C189 C191 1.364 . S
C190 C189 1.400 . S
C190 C194 1.377 . S
C191 C189 1.364 . S
C191 C192 1.374 . S
C192 H183 0.930 . S
C192 C191 1.374 . S
C192 C193 1.383 . S
C193 O187 1.412 . S
C193 C192 1.383 . S
C193 C194 1.394 . S
C194 H184 0.929 . S
C194 C190 1.377 . S
C194 C193 1.394 . S
H195 C202 0.929 . S
H196 C205 0.930 . S
H197 C207 0.929 . S
H198 C199 0.969 . S
C199 H198 0.969 . S
C199 O200 1.550 . S
C199 H201 0.973 . S
O200 C199 1.550 . S
O200 C206 1.412 . S
H201 C199 0.973 . S
C202 H195 0.929 . S
C202 C203 1.400 . S
C202 C204 1.364 . S
C203 C202 1.400 . S
C203 C207 1.377 . S
C204 C202 1.364 . S
C204 C205 1.374 . S
C205 H196 0.930 . S
C205 C204 1.374 . S
C205 C206 1.383 . S
C206 O200 1.412 . S
C206 C205 1.383 . S
C206 C207 1.394 . S
C207 H197 0.929 . S
C207 C203 1.377 . S
C207 C206 1.394 . S
H208 C215 0.929 . S
H209 C218 0.930 . S
H210 C220 0.929 . S
H211 C212 0.969 . S
C212 H211 0.969 . S
C212 O213 1.550 . S
C212 H214 0.973 . S
O213 C212 1.550 . S
O213 C219 1.412 . S
H214 C212 0.973 . S
C215 H208 0.929 . S
C215 C216 1.400 . S
C215 C217 1.364 . S
C216 C215 1.400 . S
C216 C220 1.377 . S
C217 C215 1.364 . S
C217 C218 1.374 . S
C218 H209 0.930 . S
C218 C217 1.374 . S
C218 C219 1.383 . S
C219 O213 1.412 . S
C219 C218 1.383 . S
C219 C220 1.394 . S
C220 H210 0.929 . S
C220 C216 1.377 . S
C220 C219 1.394 . S
H221 C228 0.929 . S
H222 C231 0.930 . S
H223 C233 0.929 . S
H224 C225 0.969 . S
C225 H224 0.969 . S
C225 O226 1.550 . S
C225 H227 0.973 . S
O226 C225 1.550 . S
O226 C232 1.412 . S
H227 C225 0.973 . S
C228 H221 0.929 . S
C228 C229 1.400 . S
C228 C230 1.364 . S
C229 C228 1.400 . S
C229 C233 1.377 . S
C230 C228 1.364 . S
C230 C231 1.374 . S
C231 H222 0.930 . S
C231 C230 1.374 . S
C231 C232 1.383 . S
C232 O226 1.412 . S
C232 C231 1.383 . S
C232 C233 1.394 . S
C233 H223 0.929 . S
C233 C229 1.377 . S
C233 C232 1.394 . S
Eu234 C243 2.828 1_565 S
Eu234 O245 2.392 . S
Eu234 O247 2.418 . S
Eu234 O252 2.373 1_565 S
Eu234 O255 2.488 . S
Eu234 O256 2.471 1_565 S
Eu234 O257 2.349 1_565 S
Eu235 O244 2.373 1_545 S
Eu235 O248 2.488 . S
Eu235 O249 2.471 1_545 S
Eu235 O250 2.349 1_545 S
Eu235 O253 2.392 . S
Eu235 O254 2.418 . S
Eu235 C264 2.828 . S
C236 O254 1.244 . S
C236 O257 1.265 1_554 S
C237 C238 1.379 . S
C237 C241 1.373 1_545 S
C237 C243 1.505 . S
C238 C237 1.379 . S
C238 C240 1.369 . S
C238 H266 0.930 . S
C239 C241 1.383 1_545 S
C239 C242 1.382 . S
C239 H267 0.930 1_545 S
C240 C238 1.369 . S
C240 C242 1.392 . S
C240 H268 0.930 . S
C241 C237 1.373 1_565 S
C241 C239 1.383 1_565 S
C241 H269 0.931 . S
C242 C239 1.382 . S
C242 C240 1.392 . S
C243 Eu234 2.828 1_545 S
C243 C237 1.505 . S
C243 O255 1.249 1_545 S
C243 O256 1.244 . S
O244 Eu235 2.373 1_565 S
O244 C246 1.258 . S
O245 Eu234 2.392 . S
O245 C246 1.242 1_556 S
C246 O244 1.258 . S
C246 O245 1.242 1_554 S
O247 Eu234 2.418 . S
O247 C251 1.244 1_556 S
O248 Eu235 2.488 . S
O248 C264 1.249 . S
O249 Eu235 2.471 1_565 S
O249 C264 1.244 1_565 S
O250 Eu235 2.349 1_565 S
O250 C251 1.265 . S
C251 O247 1.244 1_554 S
C251 O250 1.265 . S
O252 Eu234 2.373 1_545 S
O252 C265 1.258 . S
O253 Eu235 2.392 . S
O253 C265 1.242 1_554 S
O254 Eu235 2.418 . S
O254 C236 1.244 . S
O255 Eu234 2.488 . S
O255 C243 1.249 1_565 S
O256 Eu234 2.471 1_545 S
O256 C243 1.244 . S
O257 Eu234 2.349 1_545 S
O257 C236 1.265 1_556 S
C258 C259 1.379 . S
C258 C262 1.373 1_565 S
C258 C264 1.505 1_565 S
C259 C258 1.379 . S
C259 C261 1.369 . S
C259 H270 0.930 . S
C260 C262 1.383 . S
C260 C263 1.382 1_545 S
C260 H271 0.930 . S
C261 C259 1.369 . S
C261 C263 1.392 . S
C261 H272 0.930 . S
C262 C258 1.373 1_545 S
C262 C260 1.383 . S
C262 H273 0.931 . S
C263 C260 1.382 1_565 S
C263 C261 1.392 . S
C264 Eu235 2.828 . S
C264 O248 1.249 . S
C264 O249 1.244 1_545 S
C264 C258 1.505 1_545 S
C265 O252 1.258 . S
C265 O253 1.242 1_556 S
H266 C238 0.930 . S
H267 C239 0.930 1_565 S
H268 C240 0.930 . S
H269 C241 0.931 . S
H270 C259 0.930 . S
H271 C260 0.930 . S
H272 C261 0.930 . S
H273 C262 0.931 . S
Eu274 C283 2.821 1_455 S
Eu274 O285 2.392 1_556 S
Eu274 O287 2.418 . S
Eu274 O292 2.373 1_455 S
Eu274 O295 2.488 . S
Eu274 O296 2.471 1_455 S
Eu274 O297 2.349 1_455 S
Eu275 O284 2.373 1_655 S
Eu275 O288 2.488 . S
Eu275 O289 2.471 1_655 S
Eu275 O290 2.349 1_655 S
Eu275 O293 2.392 . S
Eu275 O294 2.418 . S
Eu275 C304 2.828 1_655 S
C276 O294 1.244 . S
C276 O297 1.265 1_554 S
C277 C278 1.379 . S
C277 C281 1.373 1_655 S
C277 C283 1.514 . S
C278 C277 1.379 . S
C278 C280 1.369 . S
C278 H306 0.930 . S
C279 C281 1.383 1_655 S
C279 C282 1.382 . S
C279 H307 0.930 1_655 S
C280 C278 1.369 . S
C280 C282 1.392 . S
C280 H308 0.930 . S
C281 C277 1.373 1_455 S
C281 C279 1.383 1_455 S
C281 H309 0.931 . S
C282 C279 1.382 . S
C282 C280 1.392 . S
C283 Eu274 2.821 1_655 S
C283 C277 1.514 . S
C283 O295 1.239 1_655 S
C283 O296 1.247 . S
O284 Eu275 2.373 1_455 S
O284 C286 1.258 . S
O285 Eu274 2.392 1_554 S
O285 C286 1.242 . S
C286 O284 1.258 . S
C286 O285 1.242 . S
O287 Eu274 2.418 . S
O287 C291 1.244 1_556 S
O288 Eu275 2.488 . S
O288 C304 1.249 1_655 S
O289 Eu275 2.471 1_455 S
O289 C304 1.244 . S
O290 Eu275 2.349 1_455 S
O290 C291 1.265 . S
C291 O287 1.244 1_554 S
C291 O290 1.265 . S
O292 Eu274 2.373 1_655 S
O292 C305 1.258 . S
O293 Eu275 2.392 . S
O293 C305 1.242 1_554 S
O294 Eu275 2.418 . S
O294 C276 1.244 . S
O295 Eu274 2.488 . S
O295 C283 1.239 1_455 S
O296 Eu274 2.471 1_655 S
O296 C283 1.247 . S
O297 Eu274 2.349 1_655 S
O297 C276 1.265 1_556 S
C298 C299 1.379 . S
C298 C302 1.372 . S
C298 C304 1.505 . S
C299 C298 1.379 . S
C299 C301 1.369 . S
C299 H310 0.930 . S
C300 C302 1.382 . S
C300 C303 1.382 . S
C300 H311 0.920 1_455 S
C301 C299 1.369 . S
C301 C303 1.392 . S
C301 H312 0.930 . S
C302 C298 1.372 . S
C302 C300 1.382 . S
C302 H313 0.934 1_455 S
C303 C300 1.382 . S
C303 C301 1.392 . S
C304 Eu275 2.828 1_455 S
C304 O288 1.249 1_455 S
C304 O289 1.244 . S
C304 C298 1.505 . S
C305 O292 1.258 . S
C305 O293 1.242 1_556 S
H306 C278 0.930 . S
H307 C279 0.930 1_455 S
H308 C280 0.930 . S
H309 C281 0.931 . S
H310 C299 0.930 . S
H311 C300 0.920 1_655 S
H312 C301 0.930 . S
H313 C302 0.934 1_655 S
Eu314 C323 2.828 . S
Eu314 O325 2.392 . S
Eu314 O327 2.418 . S
Eu314 O332 2.373 . S
Eu314 O335 2.488 . S
Eu314 O336 2.471 . S
Eu314 O337 2.349 . S
Eu315 O324 2.373 . S
Eu315 O328 2.488 . S
Eu315 O329 2.471 . S
Eu315 O330 2.351 1_556 S
Eu315 O333 2.392 1_556 S
Eu315 O334 2.418 . S
Eu315 C344 2.828 . S
C316 O334 1.244 1_554 S
C316 O337 1.265 . S
C317 C318 1.379 . S
C317 C321 1.373 . S
C317 C323 1.505 . S
C318 C317 1.379 . S
C318 C320 1.369 . S
C318 H346 0.930 . S
C319 C321 1.383 . S
C319 C322 1.382 . S
C319 H347 0.930 . S
C320 C318 1.369 . S
C320 C322 1.392 . S
C320 H348 0.930 . S
C321 C317 1.373 . S
C321 C319 1.383 . S
C321 H349 0.931 . S
C322 C319 1.382 . S
C322 C320 1.392 . S
C323 Eu314 2.828 . S
C323 C317 1.505 . S
C323 O335 1.249 . S
C323 O336 1.244 . S
O324 Eu315 2.373 . S
O324 C326 1.258 . S
O325 Eu314 2.392 . S
O325 C326 1.242 1_554 S
C326 O324 1.258 . S
C326 O325 1.242 1_556 S
O327 Eu314 2.418 . S
O327 C331 1.244 . S
O328 Eu315 2.488 . S
O328 C344 1.249 . S
O329 Eu315 2.471 . S
O329 C344 1.244 . S
O330 Eu315 2.351 1_554 S
O330 C331 1.263 . S
C331 O327 1.244 . S
C331 O330 1.263 . S
O332 Eu314 2.373 . S
O332 C345 1.258 . S
O333 Eu315 2.392 1_554 S
O333 C345 1.242 . S
O334 Eu315 2.418 . S
O334 C316 1.244 1_556 S
O335 Eu314 2.488 . S
O335 C323 1.249 . S
O336 Eu314 2.471 . S
O336 C323 1.244 . S
O337 Eu314 2.349 . S
O337 C316 1.265 . S
C338 C339 1.379 . S
C338 C342 1.373 . S
C338 C344 1.505 . S
C339 C338 1.379 . S
C339 C341 1.369 . S
C339 H350 0.930 . S
C340 C342 1.383 . S
C340 C343 1.382 . S
C340 H351 0.930 . S
C341 C339 1.369 . S
C341 C343 1.392 . S
C341 H352 0.930 . S
C342 C338 1.373 . S
C342 C340 1.383 . S
C342 H353 0.931 . S
C343 C340 1.382 . S
C343 C341 1.392 . S
C344 Eu315 2.828 . S
C344 O328 1.249 . S
C344 O329 1.244 . S
C344 C338 1.505 . S
C345 O332 1.258 . S
C345 O333 1.242 . S
H346 C318 0.930 . S
H347 C319 0.930 . S
H348 C320 0.930 . S
H349 C321 0.931 . S
H350 C339 0.930 . S
H351 C340 0.930 . S
H352 C341 0.930 . S
H353 C342 0.931 . S
Eu354 C363 2.828 . S
Eu354 O365 2.392 . S
Eu354 O367 2.418 . S
Eu354 O372 2.373 . S
Eu354 O375 2.488 . S
Eu354 O376 2.471 . S
Eu354 O377 2.349 . S
Eu355 O364 2.373 . S
Eu355 O368 2.488 . S
Eu355 O369 2.471 . S
Eu355 O370 2.349 . S
Eu355 O373 2.392 . S
Eu355 O374 2.418 . S
Eu355 C384 2.828 . S
C356 O374 1.244 . S
C356 O377 1.265 . S
C357 C358 1.379 . S
C357 C361 1.373 . S
C357 C363 1.505 . S
C358 C357 1.379 . S
C358 C360 1.369 . S
C358 H386 0.930 . S
C359 C361 1.383 . S
C359 C362 1.382 . S
C359 H387 0.930 . S
C360 C358 1.369 . S
C360 C362 1.392 . S
C360 H388 0.930 . S
C361 C357 1.373 . S
C361 C359 1.383 . S
C361 H389 0.931 . S
C362 C359 1.382 . S
C362 C360 1.392 . S
C363 Eu354 2.828 . S
C363 C357 1.505 . S
C363 O375 1.249 . S
C363 O376 1.244 . S
O364 Eu355 2.373 . S
O364 C366 1.258 . S
O365 Eu354 2.392 . S
O365 C366 1.242 . S
C366 O364 1.258 . S
C366 O365 1.242 . S
O367 Eu354 2.418 . S
O367 C371 1.244 . S
O368 Eu355 2.488 . S
O368 C384 1.249 . S
O369 Eu355 2.471 . S
O369 C384 1.244 . S
O370 Eu355 2.349 . S
O370 C371 1.265 . S
C371 O367 1.244 . S
C371 O370 1.265 . S
O372 Eu354 2.373 . S
O372 C385 1.258 . S
O373 Eu355 2.392 . S
O373 C385 1.242 . S
O374 Eu355 2.418 . S
O374 C356 1.244 . S
O375 Eu354 2.488 . S
O375 C363 1.249 . S
O376 Eu354 2.471 . S
O376 C363 1.244 . S
O377 Eu354 2.349 . S
O377 C356 1.265 . S
C378 C379 1.379 . S
C378 C382 1.373 . S
C378 C384 1.505 . S
C379 C378 1.379 . S
C379 C381 1.369 . S
C379 H390 0.930 . S
C380 C382 1.383 . S
C380 C383 1.382 . S
C380 H391 0.930 . S
C381 C379 1.369 . S
C381 C383 1.392 . S
C381 H392 0.930 . S
C382 C378 1.373 . S
C382 C380 1.383 . S
C382 H393 0.931 . S
C383 C380 1.382 . S
C383 C381 1.392 . S
C384 Eu355 2.828 . S
C384 O368 1.249 . S
C384 O369 1.244 . S
C384 C378 1.505 . S
C385 O372 1.258 . S
C385 O373 1.242 . S
H386 C358 0.930 . S
H387 C359 0.930 . S
H388 C360 0.930 . S
H389 C361 0.931 . S
H390 C379 0.930 . S
H391 C380 0.930 . S
H392 C381 0.930 . S
H393 C382 0.931 . S
Eu394 C403 2.828 . S
Eu394 O405 2.392 . S
Eu394 O407 2.418 . S
Eu394 O412 2.373 . S
Eu394 O415 2.488 . S
Eu394 O416 2.471 . S
Eu394 O417 2.349 . S
Eu395 O404 2.373 . S
Eu395 O408 2.488 . S
Eu395 O409 2.471 . S
Eu395 O410 2.349 . S
Eu395 O413 2.392 . S
Eu395 O414 2.418 . S
Eu395 C424 2.828 . S
C396 O414 1.244 . S
C396 O417 1.265 . S
C397 C398 1.379 . S
C397 C401 1.373 . S
C397 C403 1.505 . S
C398 C397 1.379 . S
C398 C400 1.369 . S
C398 H426 0.930 . S
C399 C401 1.383 . S
C399 C402 1.382 . S
C399 H427 0.930 . S
C400 C398 1.369 . S
C400 C402 1.392 . S
C400 H428 0.930 . S
C401 C397 1.373 . S
C401 C399 1.383 . S
C401 H429 0.931 . S
C402 C399 1.382 . S
C402 C400 1.392 . S
C403 Eu394 2.828 . S
C403 C397 1.505 . S
C403 O415 1.249 . S
C403 O416 1.244 . S
O404 Eu395 2.373 . S
O404 C406 1.258 . S
O405 Eu394 2.392 . S
O405 C406 1.242 . S
C406 O404 1.258 . S
C406 O405 1.242 . S
O407 Eu394 2.418 . S
O407 C411 1.244 . S
O408 Eu395 2.488 . S
O408 C424 1.249 . S
O409 Eu395 2.471 . S
O409 C424 1.244 . S
O410 Eu395 2.349 . S
O410 C411 1.265 . S
C411 O407 1.244 . S
C411 O410 1.265 . S
O412 Eu394 2.373 . S
O412 C425 1.258 . S
O413 Eu395 2.392 . S
O413 C425 1.242 . S
O414 Eu395 2.418 . S
O414 C396 1.244 . S
O415 Eu394 2.488 . S
O415 C403 1.249 . S
O416 Eu394 2.471 . S
O416 C403 1.244 . S
O417 Eu394 2.349 . S
O417 C396 1.265 . S
C418 C419 1.379 . S
C418 C422 1.373 . S
C418 C424 1.505 . S
C419 C418 1.379 . S
C419 C421 1.369 . S
C419 H430 0.930 . S
C420 C422 1.383 . S
C420 C423 1.382 . S
C420 H431 0.930 . S
C421 C419 1.369 . S
C421 C423 1.392 . S
C421 H432 0.930 . S
C422 C418 1.373 . S
C422 C420 1.383 . S
C422 H433 0.931 . S
C423 C420 1.382 . S
C423 C421 1.392 . S
C424 Eu395 2.828 . S
C424 O408 1.249 . S
C424 O409 1.244 . S
C424 C418 1.505 . S
C425 O412 1.258 . S
C425 O413 1.242 . S
H426 C398 0.930 . S
H427 C399 0.930 . S
H428 C400 0.930 . S
H429 C401 0.931 . S
H430 C419 0.930 . S
H431 C420 0.930 . S
H432 C421 0.930 . S
H433 C422 0.931 . S
Eu434 C443 2.828 . S
Eu434 O445 2.392 . S
Eu434 O447 2.418 . S
Eu434 O452 2.373 . S
Eu434 O455 2.488 . S
Eu434 O456 2.471 . S
Eu434 O457 2.349 . S
Eu435 O444 2.373 . S
Eu435 O448 2.488 . S
Eu435 O449 2.471 . S
Eu435 O450 2.349 . S
Eu435 O453 2.392 . S
Eu435 O454 2.418 . S
Eu435 C464 2.828 . S
C436 O454 1.244 . S
C436 O457 1.265 . S
C437 C438 1.379 . S
C437 C441 1.373 . S
C437 C443 1.505 . S
C438 C437 1.379 . S
C438 C440 1.369 . S
C438 H466 0.930 . S
C439 C441 1.383 . S
C439 C442 1.382 . S
C439 H467 0.930 . S
C440 C438 1.369 . S
C440 C442 1.392 . S
C440 H468 0.930 . S
C441 C437 1.373 . S
C441 C439 1.383 . S
C441 H469 0.931 . S
C442 C439 1.382 . S
C442 C440 1.392 . S
C443 Eu434 2.828 . S
C443 C437 1.505 . S
C443 O455 1.249 . S
C443 O456 1.244 . S
O444 Eu435 2.373 . S
O444 C446 1.258 . S
O445 Eu434 2.392 . S
O445 C446 1.242 . S
C446 O444 1.258 . S
C446 O445 1.242 . S
O447 Eu434 2.418 . S
O447 C451 1.244 . S
O448 Eu435 2.488 . S
O448 C464 1.249 . S
O449 Eu435 2.471 . S
O449 C464 1.244 . S
O450 Eu435 2.349 . S
O450 C451 1.265 . S
C451 O447 1.244 . S
C451 O450 1.265 . S
O452 Eu434 2.373 . S
O452 C465 1.258 . S
O453 Eu435 2.392 . S
O453 C465 1.242 . S
O454 Eu435 2.418 . S
O454 C436 1.244 . S
O455 Eu434 2.488 . S
O455 C443 1.249 . S
O456 Eu434 2.471 . S
O456 C443 1.244 . S
O457 Eu434 2.349 . S
O457 C436 1.265 . S
C458 C459 1.379 . S
C458 C462 1.373 . S
C458 C464 1.505 . S
C459 C458 1.379 . S
C459 C461 1.369 . S
C459 H470 0.930 . S
C460 C462 1.383 . S
C460 C463 1.382 . S
C460 H471 0.930 . S
C461 C459 1.369 . S
C461 C463 1.392 . S
C461 H472 0.930 . S
C462 C458 1.373 . S
C462 C460 1.383 . S
C462 H473 0.931 . S
C463 C460 1.382 . S
C463 C461 1.392 . S
C464 Eu435 2.828 . S
C464 O448 1.249 . S
C464 O449 1.244 . S
C464 C458 1.505 . S
C465 O452 1.258 . S
C465 O453 1.242 . S
H466 C438 0.930 . S
H467 C439 0.930 . S
H468 C440 0.930 . S
H469 C441 0.931 . S
H470 C459 0.930 . S
H471 C460 0.930 . S
H472 C461 0.930 . S
H473 C462 0.931 . S
Eu474 C483 2.828 . S
Eu474 O485 2.392 . S
Eu474 O487 2.418 . S
Eu474 O492 2.373 . S
Eu474 O495 2.488 . S
Eu474 O496 2.471 . S
Eu474 O497 2.349 . S
Eu475 O484 2.373 . S
Eu475 O488 2.488 . S
Eu475 O489 2.471 . S
Eu475 O490 2.349 . S
Eu475 O493 2.392 . S
Eu475 O494 2.418 . S
Eu475 C504 2.828 . S
C476 O494 1.244 . S
C476 O497 1.265 . S
C477 C478 1.379 . S
C477 C481 1.373 . S
C477 C483 1.505 . S
C478 C477 1.379 . S
C478 C480 1.369 . S
C478 H506 0.930 . S
C479 C481 1.383 . S
C479 C482 1.382 . S
C479 H507 0.930 . S
C480 C478 1.369 . S
C480 C482 1.392 . S
C480 H508 0.930 . S
C481 C477 1.373 . S
C481 C479 1.383 . S
C481 H509 0.931 . S
C482 C479 1.382 . S
C482 C480 1.392 . S
C483 Eu474 2.828 . S
C483 C477 1.505 . S
C483 O495 1.249 . S
C483 O496 1.244 . S
O484 Eu475 2.373 . S
O484 C486 1.258 . S
O485 Eu474 2.392 . S
O485 C486 1.242 . S
C486 O484 1.258 . S
C486 O485 1.242 . S
O487 Eu474 2.418 . S
O487 C491 1.244 . S
O488 Eu475 2.488 . S
O488 C504 1.249 . S
O489 Eu475 2.471 . S
O489 C504 1.244 . S
O490 Eu475 2.349 . S
O490 C491 1.265 . S
C491 O487 1.244 . S
C491 O490 1.265 . S
O492 Eu474 2.373 . S
O492 C505 1.258 . S
O493 Eu475 2.392 . S
O493 C505 1.242 . S
O494 Eu475 2.418 . S
O494 C476 1.244 . S
O495 Eu474 2.488 . S
O495 C483 1.249 . S
O496 Eu474 2.471 . S
O496 C483 1.244 . S
O497 Eu474 2.349 . S
O497 C476 1.265 . S
C498 C499 1.379 . S
C498 C502 1.373 . S
C498 C504 1.505 . S
C499 C498 1.379 . S
C499 C501 1.369 . S
C499 H510 0.930 . S
C500 C502 1.383 . S
C500 C503 1.382 . S
C500 H511 0.930 . S
C501 C499 1.369 . S
C501 C503 1.392 . S
C501 H512 0.930 . S
C502 C498 1.373 . S
C502 C500 1.383 . S
C502 H513 0.931 . S
C503 C500 1.382 . S
C503 C501 1.392 . S
C504 Eu475 2.828 . S
C504 O488 1.249 . S
C504 O489 1.244 . S
C504 C498 1.505 . S
C505 O492 1.258 . S
C505 O493 1.242 . S
H506 C478 0.930 . S
H507 C479 0.930 . S
H508 C480 0.930 . S
H509 C481 0.931 . S
H510 C499 0.930 . S
H511 C500 0.930 . S
H512 C501 0.930 . S
H513 C502 0.931 . S
Eu514 C523 2.828 . S
Eu514 O525 2.392 . S
Eu514 O527 2.418 . S
Eu514 O532 2.373 . S
Eu514 O535 2.488 . S
Eu514 O536 2.471 . S
Eu514 O537 2.349 . S
Eu515 O524 2.373 . S
Eu515 O528 2.488 . S
Eu515 O529 2.471 . S
Eu515 O530 2.349 . S
Eu515 O533 2.392 . S
Eu515 O534 2.418 . S
Eu515 C544 2.828 . S
C516 O534 1.244 . S
C516 O537 1.265 . S
C517 C518 1.379 . S
C517 C521 1.373 . S
C517 C523 1.505 . S
C518 C517 1.379 . S
C518 C520 1.369 . S
C518 H546 0.930 . S
C519 C521 1.383 . S
C519 C522 1.382 . S
C519 H547 0.930 . S
C520 C518 1.369 . S
C520 C522 1.392 . S
C520 H548 0.930 . S
C521 C517 1.373 . S
C521 C519 1.383 . S
C521 H549 0.931 . S
C522 C519 1.382 . S
C522 C520 1.392 . S
C523 Eu514 2.828 . S
C523 C517 1.505 . S
C523 O535 1.249 . S
C523 O536 1.244 . S
O524 Eu515 2.373 . S
O524 C526 1.258 . S
O525 Eu514 2.392 . S
O525 C526 1.242 . S
C526 O524 1.258 . S
C526 O525 1.242 . S
O527 Eu514 2.418 . S
O527 C531 1.244 . S
O528 Eu515 2.488 . S
O528 C544 1.249 . S
O529 Eu515 2.471 . S
O529 C544 1.244 . S
O530 Eu515 2.349 . S
O530 C531 1.265 . S
C531 O527 1.244 . S
C531 O530 1.265 . S
O532 Eu514 2.373 . S
O532 C545 1.258 . S
O533 Eu515 2.392 . S
O533 C545 1.242 . S
O534 Eu515 2.418 . S
O534 C516 1.244 . S
O535 Eu514 2.488 . S
O535 C523 1.249 . S
O536 Eu514 2.471 . S
O536 C523 1.244 . S
O537 Eu514 2.349 . S
O537 C516 1.265 . S
C538 C539 1.379 . S
C538 C542 1.373 . S
C538 C544 1.505 . S
C539 C538 1.379 . S
C539 C541 1.369 . S
C539 H550 0.930 . S
C540 C542 1.383 . S
C540 C543 1.382 . S
C540 H551 0.930 . S
C541 C539 1.369 . S
C541 C543 1.392 . S
C541 H552 0.930 . S
C542 C538 1.373 . S
C542 C540 1.383 . S
C542 H553 0.931 . S
C543 C540 1.382 . S
C543 C541 1.392 . S
C544 Eu515 2.828 . S
C544 O528 1.249 . S
C544 O529 1.244 . S
C544 C538 1.505 . S
C545 O532 1.258 . S
C545 O533 1.242 . S
H546 C518 0.930 . S
H547 C519 0.930 . S
H548 C520 0.930 . S
H549 C521 0.931 . S
H550 C539 0.930 . S
H551 C540 0.930 . S
H552 C541 0.930 . S
H553 C542 0.931 . S
Eu554 C563 2.828 . S
Eu554 O565 2.392 . S
Eu554 O567 2.418 . S
Eu554 O572 2.373 . S
Eu554 O575 2.488 . S
Eu554 O576 2.471 . S
Eu554 O577 2.349 . S
Eu555 O564 2.373 . S
Eu555 O568 2.488 . S
Eu555 O569 2.471 . S
Eu555 O570 2.349 . S
Eu555 O573 2.392 . S
Eu555 O574 2.418 . S
Eu555 C584 2.828 . S
C556 O574 1.244 . S
C556 O577 1.265 . S
C557 C558 1.379 . S
C557 C561 1.373 . S
C557 C563 1.505 . S
C558 C557 1.379 . S
C558 C560 1.369 . S
C558 H586 0.930 . S
C559 C561 1.383 . S
C559 C562 1.382 . S
C559 H587 0.930 . S
C560 C558 1.369 . S
C560 C562 1.392 . S
C560 H588 0.930 . S
C561 C557 1.373 . S
C561 C559 1.383 . S
C561 H589 0.931 . S
C562 C559 1.382 . S
C562 C560 1.392 . S
C563 Eu554 2.828 . S
C563 C557 1.505 . S
C563 O575 1.249 . S
C563 O576 1.244 . S
O564 Eu555 2.373 . S
O564 C566 1.258 . S
O565 Eu554 2.392 . S
O565 C566 1.242 . S
C566 O564 1.258 . S
C566 O565 1.242 . S
O567 Eu554 2.418 . S
O567 C571 1.244 . S
O568 Eu555 2.488 . S
O568 C584 1.249 . S
O569 Eu555 2.471 . S
O569 C584 1.244 . S
O570 Eu555 2.349 . S
O570 C571 1.265 . S
C571 O567 1.244 . S
C571 O570 1.265 . S
O572 Eu554 2.373 . S
O572 C585 1.258 . S
O573 Eu555 2.392 . S
O573 C585 1.242 . S
O574 Eu555 2.418 . S
O574 C556 1.244 . S
O575 Eu554 2.488 . S
O575 C563 1.249 . S
O576 Eu554 2.471 . S
O576 C563 1.244 . S
O577 Eu554 2.349 . S
O577 C556 1.265 . S
C578 C579 1.379 . S
C578 C582 1.373 . S
C578 C584 1.505 . S
C579 C578 1.379 . S
C579 C581 1.369 . S
C579 H590 0.930 . S
C580 C582 1.383 . S
C580 C583 1.382 . S
C580 H591 0.930 . S
C581 C579 1.369 . S
C581 C583 1.392 . S
C581 H592 0.930 . S
C582 C578 1.373 . S
C582 C580 1.383 . S
C582 H593 0.931 . S
C583 C580 1.382 . S
C583 C581 1.392 . S
C584 Eu555 2.828 . S
C584 O568 1.249 . S
C584 O569 1.244 . S
C584 C578 1.505 . S
C585 O572 1.258 . S
C585 O573 1.242 . S
H586 C558 0.930 . S
H587 C559 0.930 . S
H588 C560 0.930 . S
H589 C561 0.931 . S
H590 C579 0.930 . S
H591 C580 0.930 . S
H592 C581 0.930 . S
H593 C582 0.931 . S
H594 C602 0.950 . S
H595 C607 0.950 . S
H596 C604 0.950 . S
H597 C606 0.950 . S
H598 C608 0.950 . S
H599 C610 0.950 . S
H600 C612 0.950 . S
H601 C613 0.950 . S
C602 H594 0.950 . S
C602 C603 1.386 . S
C602 C604 1.391 . S
C603 C602 1.386 . S
C603 C607 1.393 . S
C604 H596 0.950 . S
C604 C602 1.391 . S
C604 C605 1.400 . S
C605 C604 1.400 . S
C605 C606 1.398 . S
C605 C611 1.491 . S
C606 H597 0.950 . S
C606 C605 1.398 . S
C606 C607 1.391 . S
C607 H595 0.950 . S
C607 C603 1.393 . S
C607 C606 1.391 . S
C608 H598 0.950 . S
C608 C609 1.386 . S
C608 C610 1.391 . S
C609 C608 1.386 . S
C609 C613 1.393 . S
C610 H599 0.950 . S
C610 C608 1.391 . S
C610 C611 1.400 . S
C611 C605 1.491 . S
C611 C610 1.400 . S
C611 C612 1.398 . S
C612 H600 0.950 . S
C612 C611 1.398 . S
C612 C613 1.391 . S
C613 H601 0.950 . S
C613 C609 1.393 . S
C613 C612 1.391 . S
H614 C622 0.950 . S
H615 C627 0.950 . S
H616 C624 0.950 . S
H617 C626 0.950 . S
H618 C628 0.950 . S
H619 C630 0.950 . S
H620 C632 0.950 . S
H621 C633 0.950 . S
C622 H614 0.950 . S
C622 C623 1.386 . S
C622 C624 1.391 . S
C623 C622 1.386 . S
C623 C627 1.393 . S
C624 H616 0.950 . S
C624 C622 1.391 . S
C624 C625 1.400 . S
C625 C624 1.400 . S
C625 C626 1.398 . S
C625 C631 1.491 . S
C626 H617 0.950 . S
C626 C625 1.398 . S
C626 C627 1.391 . S
C627 H615 0.950 . S
C627 C623 1.393 . S
C627 C626 1.391 . S
C628 H618 0.950 . S
C628 C629 1.386 . S
C628 C630 1.391 . S
C629 C628 1.386 . S
C629 C633 1.393 . S
C630 H619 0.950 . S
C630 C628 1.391 . S
C630 C631 1.400 . S
C631 C625 1.491 . S
C631 C630 1.400 . S
C631 C632 1.398 . S
C632 H620 0.950 . S
C632 C631 1.398 . S
C632 C633 1.391 . S
C633 H621 0.950 . S
C633 C629 1.393 . S
C633 C632 1.391 . S
H634 C642 0.950 . S
H635 C647 0.950 . S
H636 C644 0.950 . S
H637 C646 0.950 . S
H638 C648 0.950 . S
H639 C650 0.950 . S
H640 C652 0.950 . S
H641 C653 0.950 . S
C642 H634 0.950 . S
C642 C643 1.386 . S
C642 C644 1.391 . S
C643 C642 1.386 . S
C643 C647 1.393 . S
C644 H636 0.950 . S
C644 C642 1.391 . S
C644 C645 1.400 . S
C645 C644 1.400 . S
C645 C646 1.398 . S
C645 C651 1.491 . S
C646 H637 0.950 . S
C646 C645 1.398 . S
C646 C647 1.391 . S
C647 H635 0.950 . S
C647 C643 1.393 . S
C647 C646 1.391 . S
C648 H638 0.950 . S
C648 C649 1.386 . S
C648 C650 1.391 . S
C649 C648 1.386 . S
C649 C653 1.393 . S
C650 H639 0.950 . S
C650 C648 1.391 . S
C650 C651 1.400 . S
C651 C645 1.491 . S
C651 C650 1.400 . S
C651 C652 1.398 . S
C652 H640 0.950 . S
C652 C651 1.398 . S
C652 C653 1.391 . S
C653 H641 0.950 . S
C653 C649 1.393 . S
C653 C652 1.391 . S
H654 C662 0.950 . S
H655 C667 0.950 . S
H656 C664 0.950 . S
H657 C666 0.950 . S
H658 C668 0.950 . S
H659 C670 0.950 . S
H660 C672 0.950 . S
H661 C673 0.950 1_554 S
C662 H654 0.950 . S
C662 C663 1.386 . S
C662 C664 1.391 . S
C663 C662 1.386 . S
C663 C667 1.393 . S
C664 H656 0.950 . S
C664 C662 1.391 . S
C664 C665 1.400 . S
C665 C664 1.400 . S
C665 C666 1.398 . S
C665 C671 1.491 . S
C666 H657 0.950 . S
C666 C665 1.398 . S
C666 C667 1.391 . S
C667 H655 0.950 . S
C667 C663 1.393 . S
C667 C666 1.391 . S
C668 H658 0.950 . S
C668 C669 1.386 . S
C668 C670 1.391 . S
C669 C668 1.386 . S
C669 C673 1.393 . S
C670 H659 0.950 . S
C670 C668 1.391 . S
C670 C671 1.400 . S
C671 C665 1.491 . S
C671 C670 1.400 . S
C671 C672 1.398 . S
C672 H660 0.950 . S
C672 C671 1.398 . S
C672 C673 1.391 . S
C673 H661 0.950 1_556 S
C673 C669 1.393 . S
C673 C672 1.391 . S
H674 C682 0.950 . S
H675 C687 0.950 . S
H676 C684 0.950 . S
H677 C686 0.950 . S
H678 C688 0.950 . S
H679 C690 0.950 . S
H680 C692 0.950 . S
H681 C693 0.950 . S
C682 H674 0.950 . S
C682 C683 1.386 . S
C682 C684 1.391 . S
C683 C682 1.386 . S
C683 C687 1.393 . S
C684 H676 0.950 . S
C684 C682 1.391 . S
C684 C685 1.400 . S
C685 C684 1.400 . S
C685 C686 1.398 . S
C685 C691 1.491 . S
C686 H677 0.950 . S
C686 C685 1.398 . S
C686 C687 1.391 . S
C687 H675 0.950 . S
C687 C683 1.393 . S
C687 C686 1.391 . S
C688 H678 0.950 . S
C688 C689 1.386 . S
C688 C690 1.391 . S
C689 C688 1.386 . S
C689 C693 1.393 . S
C690 H679 0.950 . S
C690 C688 1.391 . S
C690 C691 1.400 . S
C691 C685 1.491 . S
C691 C690 1.400 . S
C691 C692 1.398 . S
C692 H680 0.950 . S
C692 C691 1.398 . S
C692 C693 1.391 . S
C693 H681 0.950 . S
C693 C689 1.393 . S
C693 C692 1.391 . S
H694 C702 0.950 . S
H695 C707 0.950 . S
H696 C704 0.950 . S
H697 C706 0.950 . S
H698 C708 0.950 . S
H699 C710 0.950 . S
H700 C712 0.950 . S
H701 C713 0.950 . S
C702 H694 0.950 . S
C702 C703 1.386 . S
C702 C704 1.391 . S
C703 C702 1.386 . S
C703 C707 1.393 . S
C704 H696 0.950 . S
C704 C702 1.391 . S
C704 C705 1.400 . S
C705 C704 1.400 . S
C705 C706 1.398 . S
C705 C711 1.491 . S
C706 H697 0.950 . S
C706 C705 1.398 . S
C706 C707 1.391 . S
C707 H695 0.950 . S
C707 C703 1.393 . S
C707 C706 1.391 . S
C708 H698 0.950 . S
C708 C709 1.386 . S
C708 C710 1.391 . S
C709 C708 1.386 . S
C709 C713 1.393 . S
C710 H699 0.950 . S
C710 C708 1.391 . S
C710 C711 1.400 . S
C711 C705 1.491 . S
C711 C710 1.400 . S
C711 C712 1.398 . S
C712 H700 0.950 . S
C712 C711 1.398 . S
C712 C713 1.391 . S
C713 H701 0.950 . S
C713 C709 1.393 . S
C713 C712 1.391 . S
H714 C722 0.950 . S
H715 C727 0.950 . S
H716 C724 0.950 . S
H717 C726 0.950 . S
H718 C728 0.950 . S
H719 C730 0.950 1_554 S
H720 C732 0.950 . S
H721 C733 0.950 . S
C722 H714 0.950 . S
C722 C723 1.386 . S
C722 C724 1.391 . S
C723 C722 1.386 . S
C723 C727 1.393 . S
C724 H716 0.950 . S
C724 C722 1.391 . S
C724 C725 1.400 . S
C725 C724 1.400 . S
C725 C726 1.398 . S
C725 C731 1.491 . S
C726 H717 0.950 . S
C726 C725 1.398 . S
C726 C727 1.391 . S
C727 H715 0.950 . S
C727 C723 1.393 . S
C727 C726 1.391 . S
C728 H718 0.950 . S
C728 C729 1.386 1_554 S
C728 C730 1.391 1_554 S
C729 C728 1.386 1_556 S
C729 C733 1.393 . S
C730 H719 0.950 1_556 S
C730 C728 1.391 1_556 S
C730 C731 1.400 . S
C731 C725 1.491 . S
C731 C730 1.400 . S
C731 C732 1.398 . S
C732 H720 0.950 . S
C732 C731 1.398 . S
C732 C733 1.391 . S
C733 H721 0.950 . S
C733 C729 1.393 . S
C733 C732 1.391 . S
H734 C742 0.950 . S
H735 C747 0.950 . S
H736 C744 0.950 . S
H737 C746 0.950 . S
H738 C748 0.950 . S
H739 C750 0.950 . S
H740 C752 0.950 . S
H741 C753 0.950 . S
C742 H734 0.950 . S
C742 C743 1.386 . S
C742 C744 1.391 . S
C743 C742 1.386 . S
C743 C747 1.393 . S
C744 H736 0.950 . S
C744 C742 1.391 . S
C744 C745 1.400 . S
C745 C744 1.400 . S
C745 C746 1.398 . S
C745 C751 1.491 . S
C746 H737 0.950 . S
C746 C745 1.398 . S
C746 C747 1.391 . S
C747 H735 0.950 . S
C747 C743 1.393 . S
C747 C746 1.391 . S
C748 H738 0.950 . S
C748 C749 1.386 . S
C748 C750 1.391 . S
C749 C748 1.386 . S
C749 C753 1.393 . S
C750 H739 0.950 . S
C750 C748 1.391 . S
C750 C751 1.400 . S
C751 C745 1.491 . S
C751 C750 1.400 . S
C751 C752 1.398 . S
C752 H740 0.950 . S
C752 C751 1.398 . S
C752 C753 1.391 . S
C753 H741 0.950 . S
C753 C749 1.393 . S
C753 C752 1.391 . S
H754 C762 0.950 . S
H755 C767 0.950 . S
H756 C764 0.950 . S
H757 C766 0.950 . S
H758 C768 0.950 . S
H759 C770 0.951 . S
H760 C772 0.950 . S
H761 C773 0.950 . S
C762 H754 0.950 . S
C762 C763 1.386 . S
C762 C764 1.391 . S
C763 C762 1.386 . S
C763 C767 1.393 . S
C764 H756 0.950 . S
C764 C762 1.391 . S
C764 C765 1.400 . S
C765 C764 1.400 . S
C765 C766 1.398 . S
C765 C771 1.491 . S
C766 H757 0.950 . S
C766 C765 1.398 . S
C766 C767 1.391 . S
C767 H755 0.950 . S
C767 C763 1.393 . S
C767 C766 1.391 . S
C768 H758 0.950 . S
C768 C769 1.386 . S
C768 C770 1.391 . S
C769 C768 1.386 . S
C769 C773 1.393 1_554 S
C770 H759 0.951 . S
C770 C768 1.391 . S
C770 C771 1.399 1_554 S
C771 C765 1.491 . S
C771 C770 1.399 1_556 S
C771 C772 1.398 . S
C772 H760 0.950 . S
C772 C771 1.398 . S
C772 C773 1.391 . S
C773 H761 0.950 . S
C773 C769 1.393 1_556 S
C773 C772 1.391 . S
H774 C782 0.950 . S
H775 C787 0.950 . S
H776 C784 0.950 . S
H777 C786 0.980 . S
H778 C788 0.950 1_556 S
H779 C790 0.950 1_556 S
H780 C792 0.950 . S
H781 C793 0.950 . S
C782 H774 0.950 . S
C782 C783 1.386 . S
C782 C784 1.391 . S
C783 C782 1.386 . S
C783 C787 1.393 . S
C784 H776 0.950 . S
C784 C782 1.391 . S
C784 C785 1.400 . S
C785 C784 1.400 . S
C785 C786 1.398 . S
C785 C791 1.491 . S
C786 H777 0.980 . S
C786 C785 1.398 . S
C786 C787 1.391 . S
C787 H775 0.950 . S
C787 C783 1.393 . S
C787 C786 1.391 . S
C788 H778 0.950 1_554 S
C788 C789 1.386 . S
C788 C790 1.391 . S
C789 C788 1.386 . S
C789 C793 1.393 . S
C790 H779 0.950 1_554 S
C790 C788 1.391 . S
C790 C791 1.400 . S
C791 C785 1.491 . S
C791 C790 1.400 . S
C791 C792 1.398 . S
C792 H780 0.950 . S
C792 C791 1.398 . S
C792 C793 1.391 . S
C793 H781 0.950 . S
C793 C789 1.393 . S
C793 C792 1.391 . S
H794 C802 0.950 . S
H795 C807 0.950 . S
H796 C804 0.950 . S
H797 C806 0.950 . S
H798 C808 0.950 . S
H799 C810 0.950 . S
H800 C812 0.950 . S
H801 C813 0.950 . S
C802 H794 0.950 . S
C802 C803 1.386 . S
C802 C804 1.391 . S
C803 C802 1.386 . S
C803 C807 1.393 . S
C804 H796 0.950 . S
C804 C802 1.391 . S
C804 C805 1.400 . S
C805 C804 1.400 . S
C805 C806 1.398 . S
C805 C811 1.491 . S
C806 H797 0.950 . S
C806 C805 1.398 . S
C806 C807 1.391 . S
C807 H795 0.950 . S
C807 C803 1.393 . S
C807 C806 1.391 . S
C808 H798 0.950 . S
C808 C809 1.386 . S
C808 C810 1.391 . S
C809 C808 1.386 . S
C809 C813 1.393 . S
C810 H799 0.950 . S
C810 C808 1.391 . S
C810 C811 1.400 . S
C811 C805 1.491 . S
C811 C810 1.400 . S
C811 C812 1.398 . S
C812 H800 0.950 . S
C812 C811 1.398 . S
C812 C813 1.391 . S
C813 H801 0.950 . S
C813 C809 1.393 . S
C813 C812 1.391 . S
H814 C822 0.950 . S
H815 C827 0.950 . S
H816 C824 0.950 . S
H817 C826 0.950 . S
H818 C828 0.950 . S
H819 C830 0.950 . S
H820 C832 0.947 1_556 S
H821 C833 0.950 1_556 S
C822 H814 0.950 . S
C822 C823 1.386 . S
C822 C824 1.391 . S
C823 C822 1.386 . S
C823 C827 1.393 . S
C824 H816 0.950 . S
C824 C822 1.391 . S
C824 C825 1.400 . S
C825 C824 1.400 . S
C825 C826 1.398 . S
C825 C831 1.491 . S
C826 H817 0.950 . S
C826 C825 1.398 . S
C826 C827 1.391 . S
C827 H815 0.950 . S
C827 C823 1.393 . S
C827 C826 1.391 . S
C828 H818 0.950 . S
C828 C829 1.386 . S
C828 C830 1.391 . S
C829 C828 1.386 . S
C829 C833 1.393 . S
C830 H819 0.950 . S
C830 C828 1.391 . S
C830 C831 1.400 . S
C831 C825 1.491 . S
C831 C830 1.400 . S
C831 C832 1.398 . S
C832 H820 0.947 1_554 S
C832 C831 1.398 . S
C832 C833 1.391 . S
C833 H821 0.950 1_554 S
C833 C829 1.393 . S
C833 C832 1.391 . S
H834 C842 0.950 . S
H835 C847 0.950 . S
H836 C844 0.950 . S
H837 C846 0.950 . S
H838 C848 0.950 . S
H839 C850 0.950 1_655 S
H840 C852 0.950 . S
H841 C853 0.950 . S
C842 H834 0.950 . S
C842 C843 1.386 . S
C842 C844 1.391 . S
C843 C842 1.386 . S
C843 C847 1.393 . S
C844 H836 0.950 . S
C844 C842 1.391 . S
C844 C845 1.400 . S
C845 C844 1.400 . S
C845 C846 1.398 . S
C845 C851 1.491 1_655 S
C846 H837 0.950 . S
C846 C845 1.398 . S
C846 C847 1.391 . S
C847 H835 0.950 . S
C847 C843 1.393 . S
C847 C846 1.391 . S
C848 H838 0.950 . S
C848 C849 1.386 . S
C848 C850 1.391 . S
C849 C848 1.386 . S
C849 C853 1.393 . S
C850 H839 0.950 1_455 S
C850 C848 1.391 . S
C850 C851 1.400 . S
C851 C845 1.491 1_455 S
C851 C850 1.400 . S
C851 C852 1.398 . S
C852 H840 0.950 . S
C852 C851 1.398 . S
C852 C853 1.391 . S
C853 H841 0.950 . S
C853 C849 1.393 . S
C853 C852 1.391 . S
H854 C862 0.950 . S
H855 C867 0.950 . S
H856 C864 0.950 . S
H857 C866 0.950 . S
H858 C868 0.950 . S
H859 C870 0.950 . S
H860 C872 0.950 . S
H861 C873 0.950 . S
C862 H854 0.950 . S
C862 C863 1.386 . S
C862 C864 1.391 . S
C863 C862 1.386 . S
C863 C867 1.393 . S
C864 H856 0.950 . S
C864 C862 1.391 . S
C864 C865 1.400 . S
C865 C864 1.400 . S
C865 C866 1.398 . S
C865 C871 1.491 . S
C866 H857 0.950 . S
C866 C865 1.398 . S
C866 C867 1.391 . S
C867 H855 0.950 . S
C867 C863 1.393 . S
C867 C866 1.391 . S
C868 H858 0.950 . S
C868 C869 1.386 . S
C868 C870 1.391 . S
C869 C868 1.386 . S
C869 C873 1.393 . S
C870 H859 0.950 . S
C870 C868 1.391 . S
C870 C871 1.400 . S
C871 C865 1.491 . S
C871 C870 1.400 . S
C871 C872 1.398 . S
C872 H860 0.950 . S
C872 C871 1.398 . S
C872 C873 1.391 . S
C873 H861 0.950 . S
C873 C869 1.393 . S
C873 C872 1.391 . S
H874 C882 0.950 . S
H875 C887 0.950 . S
H876 C884 0.950 . S
H877 C886 0.950 . S
H878 C888 0.950 . S
H879 C890 0.950 . S
H880 C892 0.950 1_545 S
H881 C893 0.950 . S
C882 H874 0.950 . S
C882 C883 1.386 . S
C882 C884 1.391 . S
C883 C882 1.386 . S
C883 C887 1.393 . S
C884 H876 0.950 . S
C884 C882 1.391 . S
C884 C885 1.400 . S
C885 C884 1.400 . S
C885 C886 1.398 . S
C885 C891 1.491 . S
C886 H877 0.950 . S
C886 C885 1.398 . S
C886 C887 1.391 . S
C887 H875 0.950 . S
C887 C883 1.393 . S
C887 C886 1.391 . S
C888 H878 0.950 . S
C888 C889 1.386 . S
C888 C890 1.391 . S
C889 C888 1.386 . S
C889 C893 1.393 . S
C890 H879 0.950 . S
C890 C888 1.391 . S
C890 C891 1.400 1_565 S
C891 C885 1.491 . S
C891 C890 1.400 1_545 S
C891 C892 1.398 1_545 S
C892 H880 0.950 1_565 S
C892 C891 1.398 1_565 S
C892 C893 1.391 . S
C893 H881 0.950 . S
C893 C889 1.393 . S
C893 C892 1.391 . S
H894 C902 0.950 . S
H895 C907 0.950 . S
H896 C904 0.950 . S
H897 C906 0.950 . S
H898 C908 0.950 . S
H899 C910 0.950 . S
H900 C912 0.950 . S
H901 C913 0.950 . S
C902 H894 0.950 . S
C902 C903 1.386 . S
C902 C904 1.391 . S
C903 C902 1.386 . S
C903 C907 1.393 . S
C904 H896 0.950 . S
C904 C902 1.391 . S
C904 C905 1.400 . S
C905 C904 1.400 . S
C905 C906 1.398 . S
C905 C911 1.491 . S
C906 H897 0.950 . S
C906 C905 1.398 . S
C906 C907 1.391 . S
C907 H895 0.950 . S
C907 C903 1.393 . S
C907 C906 1.391 . S
C908 H898 0.950 . S
C908 C909 1.386 . S
C908 C910 1.391 . S
C909 C908 1.386 . S
C909 C913 1.393 . S
C910 H899 0.950 . S
C910 C908 1.391 . S
C910 C911 1.400 . S
C911 C905 1.491 . S
C911 C910 1.400 . S
C911 C912 1.398 . S
C912 H900 0.950 . S
C912 C911 1.398 . S
C912 C913 1.391 . S
C913 H901 0.950 . S
C913 C909 1.393 . S
C913 C912 1.391 . S
H914 C922 0.950 . S
H915 C927 0.950 . S
H916 C924 0.950 . S
H917 C926 0.950 . S
H918 C928 0.950 . S
H919 C930 0.950 . S
H920 C932 0.950 . S
H921 C933 0.950 . S
C922 H914 0.950 . S
C922 C923 1.386 . S
C922 C924 1.391 . S
C923 C922 1.386 . S
C923 C927 1.393 . S
C924 H916 0.950 . S
C924 C922 1.391 . S
C924 C925 1.400 . S
C925 C924 1.400 . S
C925 C926 1.398 . S
C925 C931 1.491 . S
C926 H917 0.950 . S
C926 C925 1.398 . S
C926 C927 1.391 . S
C927 H915 0.950 . S
C927 C923 1.393 . S
C927 C926 1.391 . S
C928 H918 0.950 . S
C928 C929 1.386 . S
C928 C930 1.391 . S
C929 C928 1.386 . S
C929 C933 1.393 . S
C930 H919 0.950 . S
C930 C928 1.391 . S
C930 C931 1.400 . S
C931 C925 1.491 . S
C931 C930 1.400 . S
C931 C932 1.398 . S
C932 H920 0.950 . S
C932 C931 1.398 . S
C932 C933 1.391 . S
C933 H921 0.950 . S
C933 C929 1.393 . S
C933 C932 1.391 . S
H934 C942 0.950 . S
H935 C947 0.950 . S
H936 C944 0.950 . S
H937 C946 0.950 . S
H938 C948 0.950 . S
H939 C950 0.950 . S
H940 C952 0.950 . S
H941 C953 0.950 . S
C942 H934 0.950 . S
C942 C943 1.386 . S
C942 C944 1.391 . S
C943 C942 1.386 . S
C943 C947 1.393 . S
C944 H936 0.950 . S
C944 C942 1.391 . S
C944 C945 1.400 . S
C945 C944 1.400 . S
C945 C946 1.398 . S
C945 C951 1.491 . S
C946 H937 0.950 . S
C946 C945 1.398 . S
C946 C947 1.391 . S
C947 H935 0.950 . S
C947 C943 1.393 . S
C947 C946 1.391 . S
C948 H938 0.950 . S
C948 C949 1.386 . S
C948 C950 1.391 . S
C949 C948 1.386 . S
C949 C953 1.393 . S
C950 H939 0.950 . S
C950 C948 1.391 . S
C950 C951 1.400 . S
C951 C945 1.491 . S
C951 C950 1.400 . S
C951 C952 1.398 . S
C952 H940 0.950 . S
C952 C951 1.398 . S
C952 C953 1.391 . S
C953 H941 0.950 . S
C953 C949 1.393 . S
C953 C952 1.391 . S
H954 C962 0.950 . S
H955 C967 0.950 . S
H956 C964 0.950 . S
H957 C966 0.950 . S
H958 C968 0.950 . S
H959 C970 0.950 . S
H960 C972 0.950 . S
H961 C973 0.950 . S
C962 H954 0.950 . S
C962 C963 1.386 . S
C962 C964 1.391 . S
C963 C962 1.386 . S
C963 C967 1.393 . S
C964 H956 0.950 . S
C964 C962 1.391 . S
C964 C965 1.400 . S
C965 C964 1.400 . S
C965 C966 1.398 . S
C965 C971 1.491 . S
C966 H957 0.950 . S
C966 C965 1.398 . S
C966 C967 1.391 . S
C967 H955 0.950 . S
C967 C963 1.393 . S
C967 C966 1.391 . S
C968 H958 0.950 . S
C968 C969 1.386 . S
C968 C970 1.391 . S
C969 C968 1.386 . S
C969 C973 1.393 . S
C970 H959 0.950 . S
C970 C968 1.391 . S
C970 C971 1.400 . S
C971 C965 1.491 . S
C971 C970 1.400 . S
C971 C972 1.398 . S
C972 H960 0.950 . S
C972 C971 1.398 . S
C972 C973 1.391 . S
C973 H961 0.950 . S
C973 C969 1.393 . S
C973 C972 1.391 . S
H974 C982 0.950 . S
H975 C987 0.950 . S
H976 C984 0.950 . S
H977 C986 0.950 . S
H978 C988 0.950 . S
H979 C990 0.950 . S
H980 C992 0.950 . S
H981 C993 0.950 . S
C982 H974 0.950 . S
C982 C983 1.386 . S
C982 C984 1.391 . S
C983 C982 1.386 . S
C983 C987 1.393 . S
C984 H976 0.950 . S
C984 C982 1.391 . S
C984 C985 1.400 . S
C985 C984 1.400 . S
C985 C986 1.398 . S
C985 C991 1.491 . S
C986 H977 0.950 . S
C986 C985 1.398 . S
C986 C987 1.391 . S
C987 H975 0.950 . S
C987 C983 1.393 . S
C987 C986 1.391 . S
C988 H978 0.950 . S
C988 C989 1.386 . S
C988 C990 1.391 . S
C989 C988 1.386 . S
C989 C993 1.393 . S
C990 H979 0.950 . S
C990 C988 1.391 . S
C990 C991 1.400 . S
C991 C985 1.491 . S
C991 C990 1.400 . S
C991 C992 1.398 . S
C992 H980 0.950 . S
C992 C991 1.398 . S
C992 C993 1.391 . S
C993 H981 0.950 . S
C993 C989 1.393 . S
C993 C992 1.391 . S
H994 C1002 0.950 . S
H995 C1007 0.950 . S
H996 C1004 0.950 . S
H997 C1006 0.950 . S
H998 C1008 0.950 . S
H999 C1010 0.950 . S
H1000 C1012 0.950 . S
H1001 C1013 0.950 . S
C1002 H994 0.950 . S
C1002 C1003 1.386 . S
C1002 C1004 1.391 . S
C1003 C1002 1.386 . S
C1003 C1007 1.393 . S
C1004 H996 0.950 . S
C1004 C1002 1.391 . S
C1004 C1005 1.400 . S
C1005 C1004 1.400 . S
C1005 C1006 1.398 . S
C1005 C1011 1.491 . S
C1006 H997 0.950 . S
C1006 C1005 1.398 . S
C1006 C1007 1.391 . S
C1007 H995 0.950 . S
C1007 C1003 1.393 . S
C1007 C1006 1.391 . S
C1008 H998 0.950 . S
C1008 C1009 1.386 . S
C1008 C1010 1.391 . S
C1009 C1008 1.386 . S
C1009 C1013 1.393 . S
C1010 H999 0.950 . S
C1010 C1008 1.391 . S
C1010 C1011 1.400 . S
C1011 C1005 1.491 . S
C1011 C1010 1.400 . S
C1011 C1012 1.398 . S
C1012 H1000 0.950 . S
C1012 C1011 1.398 . S
C1012 C1013 1.391 . S
C1013 H1001 0.950 . S
C1013 C1009 1.393 . S
C1013 C1012 1.391 . S
H1014 C1022 0.950 . S
H1015 C1027 0.950 . S
H1016 C1024 0.950 . S
H1017 C1026 0.950 . S
H1018 C1028 0.950 . S
H1019 C1030 0.950 . S
H1020 C1032 0.950 . S
H1021 C1033 0.950 . S
C1022 H1014 0.950 . S
C1022 C1023 1.386 . S
C1022 C1024 1.391 1_545 S
C1023 C1022 1.386 . S
C1023 C1027 1.393 . S
C1024 H1016 0.950 . S
C1024 C1022 1.391 1_565 S
C1024 C1025 1.400 . S
C1025 C1024 1.400 . S
C1025 C1026 1.398 . S
C1025 C1031 1.491 . S
C1026 H1017 0.950 . S
C1026 C1025 1.398 . S
C1026 C1027 1.391 1_565 S
C1027 H1015 0.950 . S
C1027 C1023 1.393 . S
C1027 C1026 1.391 1_545 S
C1028 H1018 0.950 . S
C1028 C1029 1.386 . S
C1028 C1030 1.391 . S
C1029 C1028 1.386 . S
C1029 C1033 1.393 . S
C1030 H1019 0.950 . S
C1030 C1028 1.391 . S
C1030 C1031 1.400 . S
C1031 C1025 1.491 . S
C1031 C1030 1.400 . S
C1031 C1032 1.398 . S
C1032 H1020 0.950 . S
C1032 C1031 1.398 . S
C1032 C1033 1.391 . S
C1033 H1021 0.950 . S
C1033 C1029 1.393 . S
C1033 C1032 1.391 . S
H1034 C1042 0.950 . S
H1035 C1047 0.950 . S
H1036 C1044 0.950 . S
H1037 C1046 0.950 . S
H1038 C1048 0.950 . S
H1039 C1050 0.950 . S
H1040 C1052 0.950 . S
H1041 C1053 0.950 . S
C1042 H1034 0.950 . S
C1042 C1043 1.386 1_455 S
C1042 C1044 1.391 . S
C1043 C1042 1.386 1_655 S
C1043 C1047 1.393 . S
C1044 H1036 0.950 . S
C1044 C1042 1.391 . S
C1044 C1045 1.400 . S
C1045 C1044 1.400 . S
C1045 C1046 1.398 . S
C1045 C1051 1.491 . S
C1046 H1037 0.950 . S
C1046 C1045 1.398 . S
C1046 C1047 1.391 1_455 S
C1047 H1035 0.950 . S
C1047 C1043 1.393 . S
C1047 C1046 1.391 1_655 S
C1048 H1038 0.950 . S
C1048 C1049 1.386 . S
C1048 C1050 1.391 . S
C1049 C1048 1.386 . S
C1049 C1053 1.393 . S
C1050 H1039 0.950 . S
C1050 C1048 1.391 . S
C1050 C1051 1.400 . S
C1051 C1045 1.491 . S
C1051 C1050 1.400 . S
C1051 C1052 1.398 . S
C1052 H1040 0.950 . S
C1052 C1051 1.398 . S
C1052 C1053 1.391 . S
C1053 H1041 0.950 . S
C1053 C1049 1.393 . S
C1053 C1052 1.391 . S
H1054 C1062 0.950 . S
H1055 C1067 0.950 . S
H1056 C1064 0.950 . S
H1057 C1066 0.950 . S
H1058 C1068 0.950 . S
H1059 C1070 0.950 . S
H1060 C1072 0.950 . S
H1061 C1073 0.950 . S
C1062 H1054 0.950 . S
C1062 C1063 1.386 . S
C1062 C1064 1.391 . S
C1063 C1062 1.386 . S
C1063 C1067 1.393 . S
C1064 H1056 0.950 . S
C1064 C1062 1.391 . S
C1064 C1065 1.400 . S
C1065 C1064 1.400 . S
C1065 C1066 1.398 . S
C1065 C1071 1.491 . S
C1066 H1057 0.950 . S
C1066 C1065 1.398 . S
C1066 C1067 1.391 . S
C1067 H1055 0.950 . S
C1067 C1063 1.393 . S
C1067 C1066 1.391 . S
C1068 H1058 0.950 . S
C1068 C1069 1.386 . S
C1068 C1070 1.391 . S
C1069 C1068 1.386 . S
C1069 C1073 1.393 . S
C1070 H1059 0.950 . S
C1070 C1068 1.391 . S
C1070 C1071 1.400 . S
C1071 C1065 1.491 . S
C1071 C1070 1.400 . S
C1071 C1072 1.398 . S
C1072 H1060 0.950 . S
C1072 C1071 1.398 . S
C1072 C1073 1.391 . S
C1073 H1061 0.950 . S
C1073 C1069 1.393 . S
C1073 C1072 1.391 . S
H1074 C1082 0.950 . S
H1075 C1087 0.950 . S
H1076 C1084 0.950 . S
H1077 C1086 0.950 . S
H1078 C1088 0.950 . S
H1079 C1090 0.950 . S
H1080 C1092 0.950 . S
H1081 C1093 0.950 . S
C1082 H1074 0.950 . S
C1082 C1083 1.386 . S
C1082 C1084 1.391 . S
C1083 C1082 1.386 . S
C1083 C1087 1.393 . S
C1084 H1076 0.950 . S
C1084 C1082 1.391 . S
C1084 C1085 1.400 . S
C1085 C1084 1.400 . S
C1085 C1086 1.398 . S
C1085 C1091 1.491 . S
C1086 H1077 0.950 . S
C1086 C1085 1.398 . S
C1086 C1087 1.391 . S
C1087 H1075 0.950 . S
C1087 C1083 1.393 . S
C1087 C1086 1.391 . S
C1088 H1078 0.950 . S
C1088 C1089 1.386 . S
C1088 C1090 1.391 . S
C1089 C1088 1.386 . S
C1089 C1093 1.393 . S
C1090 H1079 0.950 . S
C1090 C1088 1.391 . S
C1090 C1091 1.400 . S
C1091 C1085 1.491 . S
C1091 C1090 1.400 . S
C1091 C1092 1.398 . S
C1092 H1080 0.950 . S
C1092 C1091 1.398 . S
C1092 C1093 1.391 . S
C1093 H1081 0.950 . S
C1093 C1089 1.393 . S
C1093 C1092 1.391 . S
H1094 C1102 0.950 . S
H1095 C1107 0.950 . S
H1096 C1104 0.950 . S
H1097 C1106 0.950 . S
H1098 C1108 0.950 . S
H1099 C1110 0.950 . S
H1100 C1112 0.950 . S
H1101 C1113 0.950 . S
C1102 H1094 0.950 . S
C1102 C1103 1.386 . S
C1102 C1104 1.391 . S
C1103 C1102 1.386 . S
C1103 C1107 1.393 . S
C1104 H1096 0.950 . S
C1104 C1102 1.391 . S
C1104 C1105 1.400 . S
C1105 C1104 1.400 . S
C1105 C1106 1.398 . S
C1105 C1111 1.491 . S
C1106 H1097 0.950 . S
C1106 C1105 1.398 . S
C1106 C1107 1.391 . S
C1107 H1095 0.950 . S
C1107 C1103 1.393 . S
C1107 C1106 1.391 . S
C1108 H1098 0.950 . S
C1108 C1109 1.386 . S
C1108 C1110 1.391 . S
C1109 C1108 1.386 . S
C1109 C1113 1.393 . S
C1110 H1099 0.950 . S
C1110 C1108 1.391 . S
C1110 C1111 1.400 . S
C1111 C1105 1.491 . S
C1111 C1110 1.400 . S
C1111 C1112 1.398 . S
C1112 H1100 0.950 . S
C1112 C1111 1.398 . S
C1112 C1113 1.391 . S
C1113 H1101 0.950 . S
C1113 C1109 1.393 . S
C1113 C1112 1.391 . S
H1114 C1122 0.950 . S
H1115 C1127 0.950 . S
H1116 C1124 0.950 . S
H1117 C1126 0.950 . S
H1118 C1128 0.950 . S
H1119 C1130 0.950 . S
H1120 C1132 0.950 . S
H1121 C1133 0.950 . S
C1122 H1114 0.950 . S
C1122 C1123 1.386 . S
C1122 C1124 1.391 . S
C1123 C1122 1.386 . S
C1123 C1127 1.393 . S
C1124 H1116 0.950 . S
C1124 C1122 1.391 . S
C1124 C1125 1.400 . S
C1125 C1124 1.400 . S
C1125 C1126 1.398 . S
C1125 C1131 1.491 . S
C1126 H1117 0.950 . S
C1126 C1125 1.398 . S
C1126 C1127 1.391 . S
C1127 H1115 0.950 . S
C1127 C1123 1.393 . S
C1127 C1126 1.391 . S
C1128 H1118 0.950 . S
C1128 C1129 1.386 . S
C1128 C1130 1.391 . S
C1129 C1128 1.386 . S
C1129 C1133 1.393 . S
C1130 H1119 0.950 . S
C1130 C1128 1.391 . S
C1130 C1131 1.400 . S
C1131 C1125 1.491 . S
C1131 C1130 1.400 . S
C1131 C1132 1.398 . S
C1132 H1120 0.950 . S
C1132 C1131 1.398 . S
C1132 C1133 1.391 . S
C1133 H1121 0.950 . S
C1133 C1129 1.393 . S
C1133 C1132 1.391 . S
H1134 C1142 0.950 . S
H1135 C1147 0.950 . S
H1136 C1144 0.950 . S
H1137 C1146 0.950 . S
H1138 C1148 0.950 . S
H1139 C1150 0.950 . S
H1140 C1152 0.950 . S
H1141 C1153 0.950 . S
C1142 H1134 0.950 . S
C1142 C1143 1.386 . S
C1142 C1144 1.391 . S
C1143 C1142 1.386 . S
C1143 C1147 1.393 . S
C1144 H1136 0.950 . S
C1144 C1142 1.391 . S
C1144 C1145 1.400 . S
C1145 C1144 1.400 . S
C1145 C1146 1.398 . S
C1145 C1151 1.491 1_565 S
C1146 H1137 0.950 . S
C1146 C1145 1.398 . S
C1146 C1147 1.391 . S
C1147 H1135 0.950 . S
C1147 C1143 1.393 . S
C1147 C1146 1.391 . S
C1148 H1138 0.950 . S
C1148 C1149 1.386 . S
C1148 C1150 1.391 . S
C1149 C1148 1.386 . S
C1149 C1153 1.393 . S
C1150 H1139 0.950 . S
C1150 C1148 1.391 . S
C1150 C1151 1.400 . S
C1151 C1145 1.491 1_545 S
C1151 C1150 1.400 . S
C1151 C1152 1.398 . S
C1152 H1140 0.950 . S
C1152 C1151 1.398 . S
C1152 C1153 1.391 . S
C1153 H1141 0.950 . S
C1153 C1149 1.393 . S
C1153 C1152 1.391 . S
H1154 C1162 0.950 . S
H1155 C1167 0.950 . S
H1156 C1164 0.950 . S
H1157 C1166 0.950 . S
H1158 C1168 0.950 . S
H1159 C1170 0.950 1_455 S
H1160 C1172 0.950 . S
H1161 C1173 0.950 . S
C1162 H1154 0.950 . S
C1162 C1163 1.386 . S
C1162 C1164 1.391 . S
C1163 C1162 1.386 . S
C1163 C1167 1.393 . S
C1164 H1156 0.950 . S
C1164 C1162 1.391 . S
C1164 C1165 1.400 . S
C1165 C1164 1.400 . S
C1165 C1166 1.398 . S
C1165 C1171 1.491 1_455 S
C1166 H1157 0.950 . S
C1166 C1165 1.398 . S
C1166 C1167 1.391 . S
C1167 H1155 0.950 . S
C1167 C1163 1.393 . S
C1167 C1166 1.391 . S
C1168 H1158 0.950 . S
C1168 C1169 1.386 . S
C1168 C1170 1.391 . S
C1169 C1168 1.386 . S
C1169 C1173 1.393 . S
C1170 H1159 0.950 1_655 S
C1170 C1168 1.391 . S
C1170 C1171 1.400 . S
C1171 C1165 1.491 1_655 S
C1171 C1170 1.400 . S
C1171 C1172 1.398 . S
C1172 H1160 0.950 . S
C1172 C1171 1.398 . S
C1172 C1173 1.391 . S
C1173 H1161 0.950 . S
C1173 C1169 1.393 . S
C1173 C1172 1.391 . S
H1174 C1182 0.950 . S
H1175 C1187 0.950 . S
H1176 C1184 0.950 . S
H1177 C1186 0.950 . S
H1178 C1188 0.950 . S
H1179 C1190 0.950 . S
H1180 C1192 0.950 . S
H1181 C1193 0.950 . S
C1182 H1174 0.950 . S
C1182 C1183 1.386 . S
C1182 C1184 1.391 . S
C1183 C1182 1.386 . S
C1183 C1187 1.393 . S
C1184 H1176 0.950 . S
C1184 C1182 1.391 . S
C1184 C1185 1.400 . S
C1185 C1184 1.400 . S
C1185 C1186 1.398 . S
C1185 C1191 1.491 . S
C1186 H1177 0.950 . S
C1186 C1185 1.398 . S
C1186 C1187 1.391 . S
C1187 H1175 0.950 . S
C1187 C1183 1.393 . S
C1187 C1186 1.391 . S
C1188 H1178 0.950 . S
C1188 C1189 1.386 . S
C1188 C1190 1.391 . S
C1189 C1188 1.386 . S
C1189 C1193 1.393 . S
C1190 H1179 0.950 . S
C1190 C1188 1.391 . S
C1190 C1191 1.400 . S
C1191 C1185 1.491 . S
C1191 C1190 1.400 . S
C1191 C1192 1.398 . S
C1192 H1180 0.950 . S
C1192 C1191 1.398 . S
C1192 C1193 1.391 . S
C1193 H1181 0.950 . S
C1193 C1189 1.393 . S
C1193 C1192 1.391 . S
H1194 C1202 0.950 . S
H1195 C1207 0.950 . S
H1196 C1204 0.950 . S
H1197 C1206 0.950 . S
H1198 C1208 0.950 . S
H1199 C1210 0.950 . S
H1200 C1212 0.950 . S
H1201 C1213 0.950 . S
C1202 H1194 0.950 . S
C1202 C1203 1.386 . S
C1202 C1204 1.391 1_455 S
C1203 C1202 1.386 . S
C1203 C1207 1.393 . S
C1204 H1196 0.950 . S
C1204 C1202 1.391 1_655 S
C1204 C1205 1.400 . S
C1205 C1204 1.400 . S
C1205 C1206 1.398 . S
C1205 C1211 1.491 . S
C1206 H1197 0.950 . S
C1206 C1205 1.398 . S
C1206 C1207 1.391 1_655 S
C1207 H1195 0.950 . S
C1207 C1203 1.393 . S
C1207 C1206 1.391 1_455 S
C1208 H1198 0.950 . S
C1208 C1209 1.386 . S
C1208 C1210 1.391 . S
C1209 C1208 1.386 . S
C1209 C1213 1.393 . S
C1210 H1199 0.950 . S
C1210 C1208 1.391 . S
C1210 C1211 1.400 . S
C1211 C1205 1.491 . S
C1211 C1210 1.400 . S
C1211 C1212 1.398 . S
C1212 H1200 0.950 . S
C1212 C1211 1.398 . S
C1212 C1213 1.391 . S
C1213 H1201 0.950 . S
C1213 C1209 1.393 . S
C1213 C1212 1.391 . S
H1214 C1222 0.950 . S
H1215 C1227 0.950 . S
H1216 C1224 0.950 . S
H1217 C1226 0.950 . S
H1218 C1228 0.950 . S
H1219 C1230 0.950 . S
H1220 C1232 0.950 . S
H1221 C1233 0.950 . S
C1222 H1214 0.950 . S
C1222 C1223 1.386 . S
C1222 C1224 1.391 . S
C1223 C1222 1.386 . S
C1223 C1227 1.393 . S
C1224 H1216 0.950 . S
C1224 C1222 1.391 . S
C1224 C1225 1.400 . S
C1225 C1224 1.400 . S
C1225 C1226 1.398 . S
C1225 C1231 1.491 . S
C1226 H1217 0.950 . S
C1226 C1225 1.398 . S
C1226 C1227 1.391 . S
C1227 H1215 0.950 . S
C1227 C1223 1.393 . S
C1227 C1226 1.391 . S
C1228 H1218 0.950 . S
C1228 C1229 1.386 . S
C1228 C1230 1.391 . S
C1229 C1228 1.386 . S
C1229 C1233 1.393 . S
C1230 H1219 0.950 . S
C1230 C1228 1.391 . S
C1230 C1231 1.400 . S
C1231 C1225 1.491 . S
C1231 C1230 1.400 . S
C1231 C1232 1.398 . S
C1232 H1220 0.950 . S
C1232 C1231 1.398 . S
C1232 C1233 1.391 . S
C1233 H1221 0.950 . S
C1233 C1229 1.393 . S
C1233 C1232 1.391 . S
H1234 C1242 0.950 . S
H1235 C1247 0.950 . S
H1236 C1244 0.950 . S
H1237 C1246 0.950 . S
H1238 C1248 0.950 . S
H1239 C1250 0.950 . S
H1240 C1252 0.950 . S
H1241 C1253 0.950 . S
C1242 H1234 0.950 . S
C1242 C1243 1.386 . S
C1242 C1244 1.391 1_565 S
C1243 C1242 1.386 . S
C1243 C1247 1.393 . S
C1244 H1236 0.950 . S
C1244 C1242 1.391 1_545 S
C1244 C1245 1.400 . S
C1245 C1244 1.400 . S
C1245 C1246 1.398 . S
C1245 C1251 1.491 . S
C1246 H1237 0.950 . S
C1246 C1245 1.398 . S
C1246 C1247 1.391 1_545 S
C1247 H1235 0.950 . S
C1247 C1243 1.393 . S
C1247 C1246 1.391 1_565 S
C1248 H1238 0.950 . S
C1248 C1249 1.386 . S
C1248 C1250 1.391 . S
C1249 C1248 1.386 . S
C1249 C1253 1.393 . S
C1250 H1239 0.950 . S
C1250 C1248 1.391 . S
C1250 C1251 1.400 . S
C1251 C1245 1.491 . S
C1251 C1250 1.400 . S
C1251 C1252 1.398 . S
C1252 H1240 0.950 . S
C1252 C1251 1.398 . S
C1252 C1253 1.391 . S
C1253 H1241 0.950 . S
C1253 C1249 1.393 . S
C1253 C1252 1.391 . S
H1254 C1262 0.950 . S
H1255 C1267 0.950 . S
H1256 C1264 0.950 . S
H1257 C1266 0.950 . S
H1258 C1268 0.950 . S
H1259 C1270 0.950 . S
H1260 C1272 0.950 . S
H1261 C1273 0.950 . S
C1262 H1254 0.950 . S
C1262 C1263 1.386 . S
C1262 C1264 1.391 . S
C1263 C1262 1.386 . S
C1263 C1267 1.393 . S
C1264 H1256 0.950 . S
C1264 C1262 1.391 . S
C1264 C1265 1.400 . S
C1265 C1264 1.400 . S
C1265 C1266 1.398 . S
C1265 C1271 1.491 . S
C1266 H1257 0.950 . S
C1266 C1265 1.398 . S
C1266 C1267 1.391 . S
C1267 H1255 0.950 . S
C1267 C1263 1.393 . S
C1267 C1266 1.391 . S
C1268 H1258 0.950 . S
C1268 C1269 1.386 . S
C1268 C1270 1.391 . S
C1269 C1268 1.386 . S
C1269 C1273 1.393 . S
C1270 H1259 0.950 . S
C1270 C1268 1.391 . S
C1270 C1271 1.400 . S
C1271 C1265 1.491 . S
C1271 C1270 1.400 . S
C1271 C1272 1.398 . S
C1272 H1260 0.950 . S
C1272 C1271 1.398 . S
C1272 C1273 1.391 . S
C1273 H1261 0.950 . S
C1273 C1269 1.393 . S
C1273 C1272 1.391 . S
H1274 C1282 0.950 . S
H1275 C1287 0.950 . S
H1276 C1284 0.950 . S
H1277 C1286 0.950 . S
H1278 C1288 0.950 . S
H1279 C1290 0.950 . S
H1280 C1292 0.950 . S
H1281 C1293 0.950 . S
C1282 H1274 0.950 . S
C1282 C1283 1.386 . S
C1282 C1284 1.391 . S
C1283 C1282 1.386 . S
C1283 C1287 1.393 . S
C1284 H1276 0.950 . S
C1284 C1282 1.391 . S
C1284 C1285 1.400 . S
C1285 C1284 1.400 . S
C1285 C1286 1.398 . S
C1285 C1291 1.491 . S
C1286 H1277 0.950 . S
C1286 C1285 1.398 . S
C1286 C1287 1.391 . S
C1287 H1275 0.950 . S
C1287 C1283 1.393 . S
C1287 C1286 1.391 . S
C1288 H1278 0.950 . S
C1288 C1289 1.386 . S
C1288 C1290 1.391 . S
C1289 C1288 1.386 . S
C1289 C1293 1.393 . S
C1290 H1279 0.950 . S
C1290 C1288 1.391 . S
C1290 C1291 1.400 . S
C1291 C1285 1.491 . S
C1291 C1290 1.400 . S
C1291 C1292 1.398 . S
C1292 H1280 0.950 . S
C1292 C1291 1.398 . S
C1292 C1293 1.391 . S
C1293 H1281 0.950 . S
C1293 C1289 1.393 . S
C1293 C1292 1.391 . S
H1294 C1302 0.950 . S
H1295 C1307 0.950 . S
H1296 C1304 0.950 . S
H1297 C1306 0.950 . S
H1298 C1308 0.950 . S
H1299 C1310 0.950 . S
H1300 C1312 0.950 . S
H1301 C1313 0.950 . S
C1302 H1294 0.950 . S
C1302 C1303 1.386 . S
C1302 C1304 1.391 . S
C1303 C1302 1.386 . S
C1303 C1307 1.393 . S
C1304 H1296 0.950 . S
C1304 C1302 1.391 . S
C1304 C1305 1.400 . S
C1305 C1304 1.400 . S
C1305 C1306 1.398 . S
C1305 C1311 1.491 . S
C1306 H1297 0.950 . S
C1306 C1305 1.398 . S
C1306 C1307 1.391 . S
C1307 H1295 0.950 . S
C1307 C1303 1.393 . S
C1307 C1306 1.391 . S
C1308 H1298 0.950 . S
C1308 C1309 1.386 . S
C1308 C1310 1.391 . S
C1309 C1308 1.386 . S
C1309 C1313 1.393 . S
C1310 H1299 0.950 . S
C1310 C1308 1.391 . S
C1310 C1311 1.400 . S
C1311 C1305 1.491 . S
C1311 C1310 1.400 . S
C1311 C1312 1.398 . S
C1312 H1300 0.950 . S
C1312 C1311 1.398 . S
C1312 C1313 1.391 . S
C1313 H1301 0.950 . S
C1313 C1309 1.393 . S
C1313 C1312 1.391 . S
H1314 C1322 0.950 . S
H1315 C1327 0.950 . S
H1316 C1324 0.950 . S
H1317 C1326 0.950 . S
H1318 C1328 0.950 . S
H1319 C1330 0.950 . S
H1320 C1332 0.950 . S
H1321 C1333 0.950 . S
C1322 H1314 0.950 . S
C1322 C1323 1.386 . S
C1322 C1324 1.391 . S
C1323 C1322 1.386 . S
C1323 C1327 1.393 . S
C1324 H1316 0.950 . S
C1324 C1322 1.391 . S
C1324 C1325 1.400 . S
C1325 C1324 1.400 . S
C1325 C1326 1.398 . S
C1325 C1331 1.491 . S
C1326 H1317 0.950 . S
C1326 C1325 1.398 . S
C1326 C1327 1.391 . S
C1327 H1315 0.950 . S
C1327 C1323 1.393 . S
C1327 C1326 1.391 . S
C1328 H1318 0.950 . S
C1328 C1329 1.386 . S
C1328 C1330 1.391 . S
C1329 C1328 1.386 . S
C1329 C1333 1.393 . S
C1330 H1319 0.950 . S
C1330 C1328 1.391 . S
C1330 C1331 1.400 . S
C1331 C1325 1.491 . S
C1331 C1330 1.400 . S
C1331 C1332 1.398 . S
C1332 H1320 0.950 . S
C1332 C1331 1.398 . S
C1332 C1333 1.391 . S
C1333 H1321 0.950 . S
C1333 C1329 1.393 . S
C1333 C1332 1.391 . S
H1334 C1342 0.950 . S
H1335 C1347 0.950 . S
H1336 C1344 0.950 . S
H1337 C1346 0.950 . S
H1338 C1348 0.950 . S
H1339 C1350 0.950 . S
H1340 C1352 0.950 . S
H1341 C1353 0.950 . S
C1342 H1334 0.950 . S
C1342 C1343 1.386 . S
C1342 C1344 1.391 . S
C1343 C1342 1.386 . S
C1343 C1347 1.393 . S
C1344 H1336 0.950 . S
C1344 C1342 1.391 . S
C1344 C1345 1.400 . S
C1345 C1344 1.400 . S
C1345 C1346 1.398 . S
C1345 C1351 1.491 . S
C1346 H1337 0.950 . S
C1346 C1345 1.398 . S
C1346 C1347 1.391 . S
C1347 H1335 0.950 . S
C1347 C1343 1.393 . S
C1347 C1346 1.391 . S
C1348 H1338 0.950 . S
C1348 C1349 1.386 . S
C1348 C1350 1.391 . S
C1349 C1348 1.386 . S
C1349 C1353 1.393 . S
C1350 H1339 0.950 . S
C1350 C1348 1.391 . S
C1350 C1351 1.400 . S
C1351 C1345 1.491 . S
C1351 C1350 1.400 . S
C1351 C1352 1.398 . S
C1352 H1340 0.950 . S
C1352 C1351 1.398 . S
C1352 C1353 1.391 . S
C1353 H1341 0.950 . S
C1353 C1349 1.393 . S
C1353 C1352 1.391 . S
H1354 C1362 0.950 . S
H1355 C1367 0.950 . S
H1356 C1364 0.950 . S
H1357 C1366 0.950 . S
H1358 C1368 0.950 . S
H1359 C1370 0.950 . S
H1360 C1372 0.950 . S
H1361 C1373 0.950 . S
C1362 H1354 0.950 . S
C1362 C1363 1.386 . S
C1362 C1364 1.391 . S
C1363 C1362 1.386 . S
C1363 C1367 1.393 . S
C1364 H1356 0.950 . S
C1364 C1362 1.391 . S
C1364 C1365 1.400 . S
C1365 C1364 1.400 . S
C1365 C1366 1.398 . S
C1365 C1371 1.491 . S
C1366 H1357 0.950 . S
C1366 C1365 1.398 . S
C1366 C1367 1.391 . S
C1367 H1355 0.950 . S
C1367 C1363 1.393 . S
C1367 C1366 1.391 . S
C1368 H1358 0.950 . S
C1368 C1369 1.386 . S
C1368 C1370 1.391 . S
C1369 C1368 1.386 . S
C1369 C1373 1.393 . S
C1370 H1359 0.950 . S
C1370 C1368 1.391 . S
C1370 C1371 1.400 . S
C1371 C1365 1.491 . S
C1371 C1370 1.400 . S
C1371 C1372 1.398 . S
C1372 H1360 0.950 . S
C1372 C1371 1.398 . S
C1372 C1373 1.391 . S
C1373 H1361 0.950 . S
C1373 C1369 1.393 . S
C1373 C1372 1.391 . S
H1374 C1382 0.950 . S
H1375 C1387 0.950 . S
H1376 C1384 0.950 . S
H1377 C1386 0.950 . S
H1378 C1388 0.950 . S
H1379 C1390 0.950 . S
H1380 C1392 0.950 . S
H1381 C1393 0.950 1_455 S
C1382 H1374 0.950 . S
C1382 C1383 1.386 . S
C1382 C1384 1.391 . S
C1383 C1382 1.386 . S
C1383 C1387 1.393 . S
C1384 H1376 0.950 . S
C1384 C1382 1.391 . S
C1384 C1385 1.400 . S
C1385 C1384 1.400 . S
C1385 C1386 1.398 . S
C1385 C1391 1.491 . S
C1386 H1377 0.950 . S
C1386 C1385 1.398 . S
C1386 C1387 1.391 . S
C1387 H1375 0.950 . S
C1387 C1383 1.393 . S
C1387 C1386 1.391 . S
C1388 H1378 0.950 . S
C1388 C1389 1.386 . S
C1388 C1390 1.391 . S
C1389 C1388 1.386 . S
C1389 C1393 1.393 . S
C1390 H1379 0.950 . S
C1390 C1388 1.391 . S
C1390 C1391 1.400 . S
C1391 C1385 1.491 . S
C1391 C1390 1.400 . S
C1391 C1392 1.398 . S
C1392 H1380 0.950 . S
C1392 C1391 1.398 . S
C1392 C1393 1.391 . S
C1393 H1381 0.950 1_655 S
C1393 C1389 1.393 . S
C1393 C1392 1.391 . S
H1394 C1402 0.950 . S
H1395 C1407 0.950 . S
H1396 C1404 0.950 . S
H1397 C1406 0.950 . S
H1398 C1408 0.950 . S
H1399 C1410 0.950 . S
H1400 C1412 0.950 . S
H1401 C1413 0.950 . S
C1402 H1394 0.950 . S
C1402 C1403 1.386 . S
C1402 C1404 1.391 . S
C1403 C1402 1.386 . S
C1403 C1407 1.393 . S
C1404 H1396 0.950 . S
C1404 C1402 1.391 . S
C1404 C1405 1.400 . S
C1405 C1404 1.400 . S
C1405 C1406 1.398 . S
C1405 C1411 1.491 . S
C1406 H1397 0.950 . S
C1406 C1405 1.398 . S
C1406 C1407 1.391 . S
C1407 H1395 0.950 . S
C1407 C1403 1.393 . S
C1407 C1406 1.391 . S
C1408 H1398 0.950 . S
C1408 C1409 1.386 . S
C1408 C1410 1.391 . S
C1409 C1408 1.386 . S
C1409 C1413 1.393 . S
C1410 H1399 0.950 . S
C1410 C1408 1.391 . S
C1410 C1411 1.400 . S
C1411 C1405 1.491 . S
C1411 C1410 1.400 . S
C1411 C1412 1.398 . S
C1412 H1400 0.950 . S
C1412 C1411 1.398 . S
C1412 C1413 1.391 . S
C1413 H1401 0.950 . S
C1413 C1409 1.393 . S
C1413 C1412 1.391 . S
H1414 C1422 0.950 . S
H1415 C1427 0.950 . S
H1416 C1424 0.950 . S
H1417 C1426 0.950 . S
H1418 C1428 0.950 . S
H1419 C1430 0.950 . S
H1420 C1432 0.950 . S
H1421 C1433 0.950 . S
C1422 H1414 0.950 . S
C1422 C1423 1.386 . S
C1422 C1424 1.391 . S
C1423 C1422 1.386 . S
C1423 C1427 1.393 . S
C1424 H1416 0.950 . S
C1424 C1422 1.391 . S
C1424 C1425 1.400 . S
C1425 C1424 1.400 . S
C1425 C1426 1.398 . S
C1425 C1431 1.491 . S
C1426 H1417 0.950 . S
C1426 C1425 1.398 . S
C1426 C1427 1.391 . S
C1427 H1415 0.950 . S
C1427 C1423 1.393 . S
C1427 C1426 1.391 . S
C1428 H1418 0.950 . S
C1428 C1429 1.386 . S
C1428 C1430 1.391 . S
C1429 C1428 1.386 . S
C1429 C1433 1.393 . S
C1430 H1419 0.950 . S
C1430 C1428 1.391 . S
C1430 C1431 1.400 . S
C1431 C1425 1.491 . S
C1431 C1430 1.400 . S
C1431 C1432 1.398 . S
C1432 H1420 0.950 . S
C1432 C1431 1.398 . S
C1432 C1433 1.391 . S
C1433 H1421 0.950 . S
C1433 C1429 1.393 . S
C1433 C1432 1.391 . S
H1434 C1442 0.950 . S
H1435 C1447 0.950 . S
H1436 C1444 0.950 . S
H1437 C1446 0.950 . S
H1438 C1448 0.950 . S
H1439 C1450 0.950 . S
H1440 C1452 0.950 . S
H1441 C1453 0.950 . S
C1442 H1434 0.950 . S
C1442 C1443 1.386 . S
C1442 C1444 1.391 . S
C1443 C1442 1.386 . S
C1443 C1447 1.393 . S
C1444 H1436 0.950 . S
C1444 C1442 1.391 . S
C1444 C1445 1.400 . S
C1445 C1444 1.400 . S
C1445 C1446 1.398 . S
C1445 C1451 1.491 . S
C1446 H1437 0.950 . S
C1446 C1445 1.398 . S
C1446 C1447 1.391 . S
C1447 H1435 0.950 . S
C1447 C1443 1.393 . S
C1447 C1446 1.391 . S
C1448 H1438 0.950 . S
C1448 C1449 1.386 . S
C1448 C1450 1.391 . S
C1449 C1448 1.386 . S
C1449 C1453 1.393 . S
C1450 H1439 0.950 . S
C1450 C1448 1.391 . S
C1450 C1451 1.400 . S
C1451 C1445 1.491 . S
C1451 C1450 1.400 . S
C1451 C1452 1.398 . S
C1452 H1440 0.950 . S
C1452 C1451 1.398 . S
C1452 C1453 1.391 . S
C1453 H1441 0.950 . S
C1453 C1449 1.393 . S
C1453 C1452 1.391 . S
H1454 C1462 0.950 . S
H1455 C1467 0.950 . S
H1456 C1464 0.950 . S
H1457 C1466 0.950 . S
H1458 C1468 0.950 . S
H1459 C1470 0.950 . S
H1460 C1472 0.950 . S
H1461 C1473 0.950 . S
C1462 H1454 0.950 . S
C1462 C1463 1.386 . S
C1462 C1464 1.391 . S
C1463 C1462 1.386 . S
C1463 C1467 1.393 . S
C1464 H1456 0.950 . S
C1464 C1462 1.391 . S
C1464 C1465 1.400 . S
C1465 C1464 1.400 . S
C1465 C1466 1.398 . S
C1465 C1471 1.491 . S
C1466 H1457 0.950 . S
C1466 C1465 1.398 . S
C1466 C1467 1.391 . S
C1467 H1455 0.950 . S
C1467 C1463 1.393 . S
C1467 C1466 1.391 . S
C1468 H1458 0.950 . S
C1468 C1469 1.386 . S
C1468 C1470 1.391 . S
C1469 C1468 1.386 . S
C1469 C1473 1.393 . S
C1470 H1459 0.950 . S
C1470 C1468 1.391 . S
C1470 C1471 1.400 . S
C1471 C1465 1.491 . S
C1471 C1470 1.400 . S
C1471 C1472 1.398 . S
C1472 H1460 0.950 . S
C1472 C1471 1.398 . S
C1472 C1473 1.391 . S
C1473 H1461 0.950 . S
C1473 C1469 1.393 . S
C1473 C1472 1.391 . S
H1474 C1482 0.950 . S
H1475 C1487 0.950 . S
H1476 C1484 0.950 . S
H1477 C1486 0.950 . S
H1478 C1488 0.950 . S
H1479 C1490 0.950 . S
H1480 C1492 0.950 . S
H1481 C1493 0.950 . S
C1482 H1474 0.950 . S
C1482 C1483 1.386 . S
C1482 C1484 1.391 . S
C1483 C1482 1.386 . S
C1483 C1487 1.393 . S
C1484 H1476 0.950 . S
C1484 C1482 1.391 . S
C1484 C1485 1.400 . S
C1485 C1484 1.400 . S
C1485 C1486 1.398 . S
C1485 C1491 1.491 . S
C1486 H1477 0.950 . S
C1486 C1485 1.398 . S
C1486 C1487 1.391 . S
C1487 H1475 0.950 . S
C1487 C1483 1.393 . S
C1487 C1486 1.391 . S
C1488 H1478 0.950 . S
C1488 C1489 1.386 . S
C1488 C1490 1.391 . S
C1489 C1488 1.386 . S
C1489 C1493 1.393 . S
C1490 H1479 0.950 . S
C1490 C1488 1.391 . S
C1490 C1491 1.400 . S
C1491 C1485 1.491 . S
C1491 C1490 1.400 . S
C1491 C1492 1.398 . S
C1492 H1480 0.950 . S
C1492 C1491 1.398 . S
C1492 C1493 1.391 . S
C1493 H1481 0.950 . S
C1493 C1489 1.393 . S
C1493 C1492 1.391 . S
H1494 C1502 0.950 . S
H1495 C1507 0.950 . S
H1496 C1504 0.950 . S
H1497 C1506 0.950 . S
H1498 C1508 0.950 . S
H1499 C1510 0.950 . S
H1500 C1512 0.950 . S
H1501 C1513 0.950 . S
C1502 H1494 0.950 . S
C1502 C1503 1.386 . S
C1502 C1504 1.391 . S
C1503 C1502 1.386 . S
C1503 C1507 1.393 . S
C1504 H1496 0.950 . S
C1504 C1502 1.391 . S
C1504 C1505 1.400 . S
C1505 C1504 1.400 . S
C1505 C1506 1.398 . S
C1505 C1511 1.491 . S
C1506 H1497 0.950 . S
C1506 C1505 1.398 . S
C1506 C1507 1.391 . S
C1507 H1495 0.950 . S
C1507 C1503 1.393 . S
C1507 C1506 1.391 . S
C1508 H1498 0.950 . S
C1508 C1509 1.386 . S
C1508 C1510 1.391 . S
C1509 C1508 1.386 . S
C1509 C1513 1.393 . S
C1510 H1499 0.950 . S
C1510 C1508 1.391 . S
C1510 C1511 1.400 . S
C1511 C1505 1.491 . S
C1511 C1510 1.400 . S
C1511 C1512 1.398 . S
C1512 H1500 0.950 . S
C1512 C1511 1.398 . S
C1512 C1513 1.391 . S
C1513 H1501 0.950 . S
C1513 C1509 1.393 . S
C1513 C1512 1.391 . S
H1514 C1522 0.950 . S
H1515 C1527 0.950 . S
H1516 C1524 0.950 . S
H1517 C1526 0.950 . S
H1518 C1528 0.950 . S
H1519 C1530 0.950 . S
H1520 C1532 0.950 . S
H1521 C1533 0.950 . S
C1522 H1514 0.950 . S
C1522 C1523 1.386 . S
C1522 C1524 1.391 . S
C1523 C1522 1.386 . S
C1523 C1527 1.393 . S
C1524 H1516 0.950 . S
C1524 C1522 1.391 . S
C1524 C1525 1.400 . S
C1525 C1524 1.400 . S
C1525 C1526 1.398 . S
C1525 C1531 1.491 . S
C1526 H1517 0.950 . S
C1526 C1525 1.398 . S
C1526 C1527 1.391 . S
C1527 H1515 0.950 . S
C1527 C1523 1.393 . S
C1527 C1526 1.391 . S
C1528 H1518 0.950 . S
C1528 C1529 1.386 . S
C1528 C1530 1.391 . S
C1529 C1528 1.386 . S
C1529 C1533 1.393 . S
C1530 H1519 0.950 . S
C1530 C1528 1.391 . S
C1530 C1531 1.400 . S
C1531 C1525 1.491 . S
C1531 C1530 1.400 . S
C1531 C1532 1.398 . S
C1532 H1520 0.950 . S
C1532 C1531 1.398 . S
C1532 C1533 1.391 . S
C1533 H1521 0.950 . S
C1533 C1529 1.393 . S
C1533 C1532 1.391 . S
H1534 C1542 0.950 . S
H1535 C1547 0.950 . S
H1536 C1544 0.950 . S
H1537 C1546 0.950 . S
H1538 C1548 0.950 . S
H1539 C1550 0.950 . S
H1540 C1552 0.950 . S
H1541 C1553 0.950 . S
C1542 H1534 0.950 . S
C1542 C1543 1.386 . S
C1542 C1544 1.391 . S
C1543 C1542 1.386 . S
C1543 C1547 1.393 . S
C1544 H1536 0.950 . S
C1544 C1542 1.391 . S
C1544 C1545 1.400 . S
C1545 C1544 1.400 . S
C1545 C1546 1.398 . S
C1545 C1551 1.491 . S
C1546 H1537 0.950 . S
C1546 C1545 1.398 . S
C1546 C1547 1.391 . S
C1547 H1535 0.950 . S
C1547 C1543 1.393 . S
C1547 C1546 1.391 . S
C1548 H1538 0.950 . S
C1548 C1549 1.386 . S
C1548 C1550 1.391 . S
C1549 C1548 1.386 . S
C1549 C1553 1.393 . S
C1550 H1539 0.950 . S
C1550 C1548 1.391 . S
C1550 C1551 1.400 . S
C1551 C1545 1.491 . S
C1551 C1550 1.400 . S
C1551 C1552 1.398 . S
C1552 H1540 0.950 . S
C1552 C1551 1.398 . S
C1552 C1553 1.391 . S
C1553 H1541 0.950 . S
C1553 C1549 1.393 . S
C1553 C1552 1.391 . S
H1554 C1562 0.950 . S
H1555 C1567 0.950 . S
H1556 C1564 0.950 . S
H1557 C1566 0.950 . S
H1558 C1568 0.950 . S
H1559 C1570 0.950 . S
H1560 C1572 0.950 . S
H1561 C1573 0.950 . S
C1562 H1554 0.950 . S
C1562 C1563 1.386 . S
C1562 C1564 1.391 . S
C1563 C1562 1.386 . S
C1563 C1567 1.393 . S
C1564 H1556 0.950 . S
C1564 C1562 1.391 . S
C1564 C1565 1.400 . S
C1565 C1564 1.400 . S
C1565 C1566 1.398 . S
C1565 C1571 1.491 . S
C1566 H1557 0.950 . S
C1566 C1565 1.398 . S
C1566 C1567 1.391 . S
C1567 H1555 0.950 . S
C1567 C1563 1.393 . S
C1567 C1566 1.391 . S
C1568 H1558 0.950 . S
C1568 C1569 1.386 . S
C1568 C1570 1.391 . S
C1569 C1568 1.386 . S
C1569 C1573 1.393 . S
C1570 H1559 0.950 . S
C1570 C1568 1.391 . S
C1570 C1571 1.400 . S
C1571 C1565 1.491 . S
C1571 C1570 1.400 . S
C1571 C1572 1.398 . S
C1572 H1560 0.950 . S
C1572 C1571 1.398 . S
C1572 C1573 1.391 . S
C1573 H1561 0.950 . S
C1573 C1569 1.393 . S
C1573 C1572 1.391 . S
H1574 C1582 0.950 . S
H1575 C1587 0.950 . S
H1576 C1584 0.950 . S
H1577 C1586 0.950 . S
H1578 C1588 0.950 . S
H1579 C1590 0.950 . S
H1580 C1592 0.950 . S
H1581 C1593 0.950 . S
C1582 H1574 0.950 . S
C1582 C1583 1.386 . S
C1582 C1584 1.391 . S
C1583 C1582 1.386 . S
C1583 C1587 1.393 . S
C1584 H1576 0.950 . S
C1584 C1582 1.391 . S
C1584 C1585 1.400 . S
C1585 C1584 1.400 . S
C1585 C1586 1.398 . S
C1585 C1591 1.491 . S
C1586 H1577 0.950 . S
C1586 C1585 1.398 . S
C1586 C1587 1.391 . S
C1587 H1575 0.950 . S
C1587 C1583 1.393 . S
C1587 C1586 1.391 . S
C1588 H1578 0.950 . S
C1588 C1589 1.386 . S
C1588 C1590 1.391 . S
C1589 C1588 1.386 . S
C1589 C1593 1.393 . S
C1590 H1579 0.950 . S
C1590 C1588 1.391 . S
C1590 C1591 1.400 . S
C1591 C1585 1.491 . S
C1591 C1590 1.400 . S
C1591 C1592 1.398 . S
C1592 H1580 0.950 . S
C1592 C1591 1.398 . S
C1592 C1593 1.391 . S
C1593 H1581 0.950 . S
C1593 C1589 1.393 . S
C1593 C1592 1.391 . S
H1594 C1602 0.950 . S
H1595 C1607 0.950 . S
H1596 C1604 0.950 . S
H1597 C1606 0.950 . S
H1598 C1608 0.950 . S
H1599 C1610 0.950 . S
H1600 C1612 0.950 . S
H1601 C1613 0.950 . S
C1602 H1594 0.950 . S
C1602 C1603 1.386 . S
C1602 C1604 1.391 . S
C1603 C1602 1.386 . S
C1603 C1607 1.393 . S
C1604 H1596 0.950 . S
C1604 C1602 1.391 . S
C1604 C1605 1.400 . S
C1605 C1604 1.400 . S
C1605 C1606 1.398 . S
C1605 C1611 1.491 . S
C1606 H1597 0.950 . S
C1606 C1605 1.398 . S
C1606 C1607 1.391 . S
C1607 H1595 0.950 . S
C1607 C1603 1.393 . S
C1607 C1606 1.391 . S
C1608 H1598 0.950 . S
C1608 C1609 1.386 . S
C1608 C1610 1.391 . S
C1609 C1608 1.386 . S
C1609 C1613 1.393 . S
C1610 H1599 0.950 . S
C1610 C1608 1.391 . S
C1610 C1611 1.400 . S
C1611 C1605 1.491 . S
C1611 C1610 1.400 . S
C1611 C1612 1.398 . S
C1612 H1600 0.950 . S
C1612 C1611 1.398 . S
C1612 C1613 1.391 . S
C1613 H1601 0.950 . S
C1613 C1609 1.393 . S
C1613 C1612 1.391 . S
H1614 C1622 0.950 . S
H1615 C1627 0.950 . S
H1616 C1624 0.950 . S
H1617 C1626 0.950 . S
H1618 C1628 0.950 . S
H1619 C1630 0.950 . S
H1620 C1632 0.950 . S
H1621 C1633 0.950 . S
C1622 H1614 0.950 . S
C1622 C1623 1.386 . S
C1622 C1624 1.391 . S
C1623 C1622 1.386 . S
C1623 C1627 1.393 . S
C1624 H1616 0.950 . S
C1624 C1622 1.391 . S
C1624 C1625 1.400 . S
C1625 C1624 1.400 . S
C1625 C1626 1.398 . S
C1625 C1631 1.491 . S
C1626 H1617 0.950 . S
C1626 C1625 1.398 . S
C1626 C1627 1.391 . S
C1627 H1615 0.950 . S
C1627 C1623 1.393 . S
C1627 C1626 1.391 . S
C1628 H1618 0.950 . S
C1628 C1629 1.386 . S
C1628 C1630 1.391 . S
C1629 C1628 1.386 . S
C1629 C1633 1.393 . S
C1630 H1619 0.950 . S
C1630 C1628 1.391 . S
C1630 C1631 1.400 . S
C1631 C1625 1.491 . S
C1631 C1630 1.400 . S
C1631 C1632 1.398 . S
C1632 H1620 0.950 . S
C1632 C1631 1.398 . S
C1632 C1633 1.391 . S
C1633 H1621 0.950 . S
C1633 C1629 1.393 . S
C1633 C1632 1.391 . S
H1634 C1642 0.950 . S
H1635 C1647 0.950 . S
H1636 C1644 0.950 . S
H1637 C1646 0.950 . S
H1638 C1648 0.950 . S
H1639 C1650 0.950 . S
H1640 C1652 0.950 . S
H1641 C1653 0.950 . S
C1642 H1634 0.950 . S
C1642 C1643 1.386 . S
C1642 C1644 1.391 . S
C1643 C1642 1.386 . S
C1643 C1647 1.393 . S
C1644 H1636 0.950 . S
C1644 C1642 1.391 . S
C1644 C1645 1.400 . S
C1645 C1644 1.400 . S
C1645 C1646 1.398 . S
C1645 C1651 1.491 . S
C1646 H1637 0.950 . S
C1646 C1645 1.398 . S
C1646 C1647 1.391 . S
C1647 H1635 0.950 . S
C1647 C1643 1.393 . S
C1647 C1646 1.391 . S
C1648 H1638 0.950 . S
C1648 C1649 1.386 . S
C1648 C1650 1.391 . S
C1649 C1648 1.386 . S
C1649 C1653 1.393 . S
C1650 H1639 0.950 . S
C1650 C1648 1.391 . S
C1650 C1651 1.400 . S
C1651 C1645 1.491 . S
C1651 C1650 1.400 . S
C1651 C1652 1.398 . S
C1652 H1640 0.950 . S
C1652 C1651 1.398 . S
C1652 C1653 1.391 . S
C1653 H1641 0.950 . S
C1653 C1649 1.393 . S
C1653 C1652 1.391 . S
H1654 C1662 0.950 . S
H1655 C1667 0.950 . S
H1656 C1664 0.950 . S
H1657 C1666 0.950 . S
H1658 C1668 0.950 . S
H1659 C1670 0.950 . S
H1660 C1672 0.950 . S
H1661 C1673 0.950 . S
C1662 H1654 0.950 . S
C1662 C1663 1.386 . S
C1662 C1664 1.391 . S
C1663 C1662 1.386 . S
C1663 C1667 1.393 . S
C1664 H1656 0.950 . S
C1664 C1662 1.391 . S
C1664 C1665 1.400 . S
C1665 C1664 1.400 . S
C1665 C1666 1.398 . S
C1665 C1671 1.491 . S
C1666 H1657 0.950 . S
C1666 C1665 1.398 . S
C1666 C1667 1.391 . S
C1667 H1655 0.950 . S
C1667 C1663 1.393 . S
C1667 C1666 1.391 . S
C1668 H1658 0.950 . S
C1668 C1669 1.386 . S
C1668 C1670 1.391 . S
C1669 C1668 1.386 . S
C1669 C1673 1.393 . S
C1670 H1659 0.950 . S
C1670 C1668 1.391 . S
C1670 C1671 1.400 . S
C1671 C1665 1.491 . S
C1671 C1670 1.400 . S
C1671 C1672 1.398 . S
C1672 H1660 0.950 . S
C1672 C1671 1.398 . S
C1672 C1673 1.391 . S
C1673 H1661 0.950 . S
C1673 C1669 1.393 . S
C1673 C1672 1.391 . S
C603 C177 1.665 . S
C609 C246 1.677 . S
C623 C190 1.793 . S
C629 C286 1.794 . S
C643 C164 1.589 . S
C649 C316 1.578 . S
C663 C151 1.485 . S
C669 C276 1.461 1_556 S
C689 C326 1.502 . S
C683 C125 1.504 . S
C703 C138 1.365 . S
C709 C236 1.361 1_556 S
C729 C265 1.675 . S
C723 C147 1.627 . S
C749 C305 1.682 . S
C743 C121 1.630 . S
C763 C134 1.603 . S
C769 C331 1.666 . S
C783 C173 1.460 . S
C789 C291 1.506 . S
C803 C186 1.425 . S
C809 C345 1.465 . S
C829 C251 1.474 . S
C823 C160 1.445 . S
C849 C366 1.680 . S
C843 C21 1.668 . S
C863 C34 1.792 . S
C869 C406 1.791 . S
C883 C8 1.596 . S
C889 C436 1.576 . S
C903 C229 1.484 . S
C909 C396 1.458 . S
C923 C203 1.503 . S
C929 C446 1.505 . S
C943 C216 1.356 . S
C949 C356 1.360 . S
C963 C225 1.641 . S
C969 C385 1.667 . S
C983 C199 1.607 . S
C989 C425 1.675 . S
C1009 C451 1.669 . S
C1003 C212 1.605 . S
C1023 C17 1.465 . S
C1029 C411 1.509 . S
C1049 C465 1.464 . S
C1043 C30 1.424 . S
C1063 C4 1.443 . S
C1069 C371 1.479 . S
C1089 C486 1.678 . S
C1083 C99 1.665 . S
C1103 C112 1.794 . S
C1109 C526 1.790 . S
C1129 C556 1.595 . S
C1123 C86 1.605 . S
C1149 C516 1.459 . S
C1143 C73 1.474 . S
C1169 C566 1.506 . S
C1163 C47 1.503 . S
C1183 C60 1.365 . S
C1189 C476 1.359 . S
C1203 C69 1.630 . S
C1209 C505 1.676 . S
C1223 C43 1.632 . S
C1229 C545 1.679 . S
C1249 C571 1.679 . S
C1243 C56 1.628 . S
C1263 C95 1.458 . S
C1269 C531 1.504 . S
C1283 C108 1.424 . S
C1289 C585 1.464 . S
C1303 C82 1.446 . S
C1309 C491 1.475 . S
C1323 C204 1.493 . S
C1329 C263 1.466 . S
C1349 C303 1.898 . S
C1343 C217 1.935 . S
C1363 C230 1.556 . S
C1369 C322 1.575 . S
C1383 C87 1.782 . S
C1389 C282 1.777 . S
C1403 C100 1.675 . S
C1409 C343 1.653 . S
C1429 C242 1.306 . S
C1423 C113 1.301 . S
C1443 C48 1.488 . S
C1449 C383 1.458 . S
C1463 C61 1.938 . S
C1469 C423 1.902 . S
C1483 C74 1.551 . S
C1489 C442 1.572 . S
C1503 C165 1.773 . S
C1509 C402 1.778 . S
C1529 C463 1.663 . S
C1523 C178 1.681 . S
C1543 C191 1.306 . S
C1549 C362 1.306 . S
C1563 C126 1.484 . S
C1569 C503 1.452 . S
C1583 C139 1.944 . S
C1589 C543 1.911 . S
C1609 C562 1.574 . S
C1603 C152 1.565 . S
C1623 C9 1.778 . S
C1629 C522 1.784 . S
C1643 C22 1.685 . S
C1649 C583 1.668 . S
C1663 C35 1.299 . S
C1669 C482 1.307 . S
