# Generated by pormake.
# Topology hwx, (6,3)-cn, num edge types: 1
# Building blocks:
#     Node 0, Type 0, BuildingBlock: IZENUY_clean_sbu_0, # of connection points: 6
#     Node 1, Type 0, BuildingBlock: IZENUY_clean_sbu_0, # of connection points: 6
#     Node 2, Type 0, BuildingBlock: IZENUY_clean_sbu_0, # of connection points: 6
#     Node 3, Type 0, BuildingBlock: IZENUY_clean_sbu_0, # of connection points: 6
#     Node 4, Type 1, BuildingBlock: VETTIZ_charged_linker_0, # of connection points: 3
#     Node 5, Type 1, BuildingBlock: VETTIZ_charged_linker_0, # of connection points: 3
#     Node 6, Type 1, BuildingBlock: VETTIZ_charged_linker_0, # of connection points: 3
#     Node 7, Type 1, BuildingBlock: VETTIZ_charged_linker_0, # of connection points: 3
#     Node 8, Type 1, BuildingBlock: VETTIZ_charged_linker_0, # of connection points: 3
#     Node 9, Type 1, BuildingBlock: VETTIZ_charged_linker_0, # of connection points: 3
#     Node 10, Type 1, BuildingBlock: VETTIZ_charged_linker_0, # of connection points: 3
#     Node 11, Type 1, BuildingBlock: VETTIZ_charged_linker_0, # of connection points: 3
#     Edge 12, Type (0, 1), BuildingBlock: KIFKEQ_clean_linker_1, # of connection points: 2
#     Edge 13, Type (0, 1), BuildingBlock: KIFKEQ_clean_linker_1, # of connection points: 2
#     Edge 14, Type (0, 1), BuildingBlock: KIFKEQ_clean_linker_1, # of connection points: 2
#     Edge 15, Type (0, 1), BuildingBlock: KIFKEQ_clean_linker_1, # of connection points: 2
#     Edge 16, Type (0, 1), BuildingBlock: KIFKEQ_clean_linker_1, # of connection points: 2
#     Edge 17, Type (0, 1), BuildingBlock: KIFKEQ_clean_linker_1, # of connection points: 2
#     Edge 18, Type (0, 1), BuildingBlock: KIFKEQ_clean_linker_1, # of connection points: 2
#     Edge 19, Type (0, 1), BuildingBlock: KIFKEQ_clean_linker_1, # of connection points: 2
#     Edge 20, Type (0, 1), BuildingBlock: KIFKEQ_clean_linker_1, # of connection points: 2
#     Edge 21, Type (0, 1), BuildingBlock: KIFKEQ_clean_linker_1, # of connection points: 2
#     Edge 22, Type (0, 1), BuildingBlock: KIFKEQ_clean_linker_1, # of connection points: 2
#     Edge 23, Type (0, 1), BuildingBlock: KIFKEQ_clean_linker_1, # of connection points: 2
#     Edge 24, Type (0, 1), BuildingBlock: KIFKEQ_clean_linker_1, # of connection points: 2
#     Edge 25, Type (0, 1), BuildingBlock: KIFKEQ_clean_linker_1, # of connection points: 2
#     Edge 26, Type (0, 1), BuildingBlock: KIFKEQ_clean_linker_1, # of connection points: 2
#     Edge 27, Type (0, 1), BuildingBlock: KIFKEQ_clean_linker_1, # of connection points: 2
#     Edge 28, Type (0, 1), BuildingBlock: KIFKEQ_clean_linker_1, # of connection points: 2
#     Edge 29, Type (0, 1), BuildingBlock: KIFKEQ_clean_linker_1, # of connection points: 2
#     Edge 30, Type (0, 1), BuildingBlock: KIFKEQ_clean_linker_1, # of connection points: 2
#     Edge 31, Type (0, 1), BuildingBlock: KIFKEQ_clean_linker_1, # of connection points: 2
#     Edge 32, Type (0, 1), BuildingBlock: KIFKEQ_clean_linker_1, # of connection points: 2
#     Edge 33, Type (0, 1), BuildingBlock: KIFKEQ_clean_linker_1, # of connection points: 2
#     Edge 34, Type (0, 1), BuildingBlock: KIFKEQ_clean_linker_1, # of connection points: 2
#     Edge 35, Type (0, 1), BuildingBlock: KIFKEQ_clean_linker_1, # of connection points: 2
# Relax obj value: 0.054
# Max RMSD: 0.077
# Mean RMSD: 0.070
data_MOF--net-hwx--node1-IZENUY_clean_sbu_0--node2-VETTIZ_charged_linker_0--edge1-KIFKEQ_clean_linker_1
_symmetry_space_group_name_H-M    P1
_symmetry_Int_Tables_number       1
_symmetry_cell_setting            triclinic
loop_
_symmetry_equiv_pos_as_xyz
'x, y, z'
_cell_length_a     58.191774
_cell_length_b     58.217605
_cell_length_c     28.457344
_cell_angle_alpha  89.982219
_cell_angle_beta   89.964255
_cell_angle_gamma 89.999925
loop_
_atom_site_label
_atom_site_type_symbol
_atom_site_fract_x
_atom_site_fract_y
_atom_site_fract_z
_atom_type_partial_charge
Fe0 Fe 0.23824 0.21348 0.05489 0.0
Fe1 Fe 0.23977 0.2131 0.94726 0.0
O2 O 0.23238 0.19949 0.00088 0.0
Fe3 Fe 0.21916 0.17199 0.00021 0.0
O4 O 0.19418 0.18242 0.03169 0.0
O5 O 0.21306 0.2019 0.08547 0.0
O6 O 0.22058 0.238 0.03916 0.0
C7 C 0.22349 0.25001 0.00278 0.0
C8 C 0.25028 0.16927 0.07691 0.0
O9 O 0.23523 0.24245 0.96873 0.0
C10 C 0.25047 0.16637 0.92966 0.0
O11 O 0.26459 0.22753 0.03398 0.0
O12 O 0.26994 0.21377 0.96285 0.0
O13 O 0.2329 0.16201 0.05459 0.0
O14 O 0.25626 0.19006 0.07465 0.0
C15 C 0.19757 0.19574 0.92508 0.0
O16 O 0.24564 0.18638 0.91539 0.0
O17 O 0.24314 0.15933 0.96875 0.0
C18 C 0.27771 0.22299 0.99966 0.0
O19 O 0.2101 0.21333 0.9285 0.0
O20 O 0.20298 0.17717 0.94563 0.0
C21 C 0.19469 0.19286 0.07047 0.0
Fe22 Fe 0.2599 0.7133 0.55344 0.0
Fe23 Fe 0.28026 0.67157 0.5014 0.0
O24 O 0.26657 0.6988 0.50036 0.0
Fe25 Fe 0.25941 0.71157 0.44586 0.0
O26 O 0.26306 0.74127 0.46611 0.0
O27 O 0.27723 0.73795 0.53719 0.0
O28 O 0.28503 0.70251 0.58542 0.0
C29 C 0.30368 0.69359 0.57146 0.0
C30 C 0.22081 0.72127 0.49627 0.0
O31 O 0.30475 0.68284 0.53308 0.0
C32 C 0.24952 0.66462 0.43039 0.0
O33 O 0.24215 0.68974 0.57379 0.0
O34 O 0.2663 0.66199 0.55589 0.0
O35 O 0.22912 0.71154 0.46052 0.0
O36 O 0.23348 0.72671 0.53074 0.0
C37 C 0.30215 0.69491 0.42598 0.0
O38 O 0.25668 0.65817 0.47001 0.0
O39 O 0.25444 0.68439 0.41497 0.0
C40 C 0.24865 0.66914 0.57749 0.0
O41 O 0.2968 0.67643 0.44701 0.0
O42 O 0.28925 0.71229 0.42819 0.0
C43 C 0.27433 0.7495 0.50021 0.0
Fe44 Fe 0.76107 0.79557 0.94438 0.0
Fe45 Fe 0.75981 0.79766 0.05203 0.0
O46 O 0.76702 0.8104 0.99735 0.0
Fe47 Fe 0.78012 0.83796 0.99532 0.0
O48 O 0.75673 0.84977 0.96067 0.0
O49 O 0.75574 0.82153 0.90967 0.0
O50 O 0.73058 0.79501 0.95698 0.0
C51 C 0.72177 0.78678 0.99382 0.0
C52 C 0.80352 0.81292 0.92428 0.0
O53 O 0.7339 0.78317 0.03006 0.0
C54 C 0.80304 0.81862 0.06943 0.0
O55 O 0.76519 0.76675 0.96896 0.0
O56 O 0.77772 0.77273 0.04057 0.0
O57 O 0.7974 0.83179 0.94269 0.0
O58 O 0.79121 0.7952 0.92843 0.0
C59 C 0.74741 0.84234 0.0688 0.0
O60 O 0.78436 0.8099 0.08366 0.0
O61 O 0.80441 0.82832 0.0299 0.0
C62 C 0.77576 0.75989 0.00516 0.0
O63 O 0.74139 0.82154 0.06779 0.0
O64 O 0.76529 0.84906 0.04751 0.0
C65 C 0.75018 0.84169 0.92184 0.0
Fe66 Fe 0.71839 0.33788 0.49958 0.0
Fe67 Fe 0.73909 0.29736 0.5539 0.0
O68 O 0.73237 0.31081 0.49981 0.0
Fe69 Fe 0.73975 0.29721 0.44627 0.0
O70 O 0.75753 0.3213 0.42858 0.0
O71 O 0.73252 0.34828 0.4459 0.0
O72 O 0.74161 0.35115 0.53257 0.0
C73 C 0.74778 0.34436 0.57265 0.0
C74 C 0.69584 0.31651 0.42765 0.0
O75 O 0.74311 0.32425 0.5865 0.0
C76 C 0.72528 0.26003 0.49676 0.0
O77 O 0.7015 0.33218 0.55311 0.0
O78 O 0.70903 0.29608 0.56992 0.0
O79 O 0.71477 0.30813 0.41381 0.0
O80 O 0.6943 0.32669 0.4666 0.0
C81 C 0.77838 0.28895 0.50443 0.0
O82 O 0.7361 0.26795 0.53174 0.0
O83 O 0.7226 0.27201 0.46024 0.0
C84 C 0.69605 0.31338 0.57276 0.0
O85 O 0.76966 0.29777 0.54086 0.0
O86 O 0.766 0.28397 0.46928 0.0
C87 C 0.75074 0.3418 0.42552 0.0
C88 C 0.19448 0.54829 0.85093 0.0
C89 C 0.19378 0.5724 0.84773 0.0
C90 C 0.18945 0.58538 0.88855 0.0
C91 C 0.18829 0.5506 0.93521 0.0
C92 C 0.19144 0.53778 0.89485 0.0
C93 C 0.1914 0.51236 0.90474 0.0
H94 H 0.18806 0.42586 0.06412 0.0
C95 C 0.18702 0.53461 0.97545 0.0
C96 C 0.18845 0.51214 0.95783 0.0
H97 H 0.19315 0.42062 0.91278 0.0
H98 H 0.19103 0.46182 0.90602 0.0
H99 H 0.22366 0.46574 0.07309 0.0
H100 H 0.14981 0.46674 0.06711 0.0
H101 H 0.15845 0.48589 0.11159 0.0
H102 H 0.1656 0.45585 0.11652 0.0
H103 H 0.2063 0.45854 0.12306 0.0
H104 H 0.21477 0.48776 0.11089 0.0
C105 C 0.21498 0.50247 0.8896 0.0
C106 C 0.17053 0.50153 0.87922 0.0
C107 C 0.18851 0.56632 0.14156 0.0
C108 C 0.19004 0.55586 0.18599 0.0
C109 C 0.18874 0.53172 0.1891 0.0
C110 C 0.18663 0.51823 0.14852 0.0
C111 C 0.18606 0.52893 0.10423 0.0
C112 C 0.18665 0.55261 0.10137 0.0
C113 C 0.18644 0.56103 0.0514 0.0
C114 C 0.1861 0.53847 0.02468 0.0
C115 C 0.18588 0.51975 0.05578 0.0
C116 C 0.20895 0.57465 0.04279 0.0
C117 C 0.16414 0.57511 0.04357 0.0
C118 C 0.1888 0.43353 0.02948 0.0
C119 C 0.19073 0.4198 0.98897 0.0
C120 C 0.19132 0.43065 0.9446 0.0
C121 C 0.19026 0.45464 0.94072 0.0
C122 C 0.18873 0.46808 0.98161 0.0
C123 C 0.18792 0.45746 0.02501 0.0
C124 C 0.18686 0.47443 0.06475 0.0
C125 C 0.18672 0.49698 0.03801 0.0
C126 C 0.18792 0.49319 0.98932 0.0
C127 C 0.20888 0.47151 0.09492 0.0
C128 C 0.1641 0.47057 0.09186 0.0
H129 H 0.1839 0.58549 0.96207 0.0
H130 H 0.19742 0.53788 0.81996 0.0
H131 H 0.15587 0.51379 0.87758 0.0
H132 H 0.16359 0.48636 0.89774 0.0
H133 H 0.17497 0.49668 0.84258 0.0
H134 H 0.22911 0.51439 0.89951 0.0
H135 H 0.21572 0.49997 0.85093 0.0
H136 H 0.21918 0.48607 0.907 0.0
H137 H 0.18976 0.5848 0.13787 0.0
H138 H 0.18962 0.52327 0.22297 0.0
H139 H 0.18598 0.49995 0.15318 0.0
H140 H 0.22381 0.56576 0.05935 0.0
H141 H 0.20785 0.59216 0.05817 0.0
H142 H 0.21351 0.57625 0.00535 0.0
H143 H 0.1501 0.56922 0.06725 0.0
H144 H 0.1571 0.57298 0.00772 0.0
H145 H 0.16699 0.59366 0.05055 0.0
H146 H 0.18892 0.60397 0.88693 0.0
C147 C 0.18671 0.57463 0.9322 0.0
C148 C 0.04412 0.77977 0.51763 0.0
C149 C 0.05811 0.77848 0.4775 0.0
C150 C 0.04937 0.78571 0.43384 0.0
C151 C 0.01285 0.79483 0.4703 0.0
C152 C 0.02172 0.78829 0.51334 0.0
C153 C 0.00489 0.79197 0.55277 0.0
H154 H 0.89868 0.82442 0.62353 0.0
C155 C 0.98909 0.80291 0.47787 0.0
C156 C 0.98445 0.80168 0.52625 0.0
H157 H 0.95456 0.79926 0.70938 0.0
H158 H 0.97882 0.79642 0.6407 0.0
H159 H 0.92838 0.85837 0.56056 0.0
H160 H 0.90639 0.78857 0.53962 0.0
H161 H 0.90209 0.80334 0.48656 0.0
H162 H 0.88702 0.81257 0.53846 0.0
H163 H 0.89952 0.85144 0.54357 0.0
H164 H 0.92197 0.85566 0.50054 0.0
C165 C 0.0153 0.80972 0.58733 0.0
C166 C 0.99946 0.76829 0.575 0.0
C167 C 0.93786 0.82049 0.33778 0.0
C168 C 0.91498 0.82802 0.33419 0.0
C169 C 0.90295 0.83411 0.3753 0.0
C170 C 0.91316 0.83172 0.41956 0.0
C171 C 0.93568 0.82316 0.42282 0.0
C172 C 0.94791 0.81841 0.38233 0.0
C173 C 0.97206 0.81065 0.39273 0.0
C174 C 0.97179 0.81032 0.44615 0.0
C175 C 0.95036 0.81743 0.46347 0.0
C176 C 0.98898 0.82888 0.37306 0.0
C177 C 0.97531 0.7863 0.37189 0.0
C178 C 0.91625 0.81862 0.62769 0.0
C179 C 0.92473 0.81211 0.67199 0.0
C180 C 0.94756 0.80418 0.67559 0.0
C181 C 0.96163 0.80263 0.63568 0.0
C182 C 0.95278 0.80893 0.59154 0.0
C183 C 0.93046 0.81686 0.58819 0.0
C184 C 0.9237 0.82227 0.53844 0.0
C185 C 0.94571 0.81648 0.51242 0.0
C186 C 0.96266 0.80861 0.54364 0.0
C187 C 0.91789 0.84822 0.53531 0.0
C188 C 0.90367 0.80604 0.52475 0.0
H189 H 0.02097 0.79882 0.39574 0.0
H190 H 0.05065 0.77468 0.55172 0.0
H191 H 0.99838 0.75476 0.54748 0.0
H192 H 0.98266 0.7678 0.59297 0.0
H193 H 0.01307 0.76313 0.60023 0.0
H194 H 0.02573 0.82275 0.56823 0.0
H195 H 0.02669 0.80125 0.61339 0.0
H196 H 0.0021 0.8198 0.60613 0.0
H197 H 0.9476 0.81609 0.3066 0.0
H198 H 0.88527 0.83989 0.37332 0.0
H199 H 0.90293 0.83615 0.44957 0.0
H200 H 0.98067 0.84601 0.36951 0.0
H201 H 0.99548 0.82391 0.33779 0.0
H202 H 0.00374 0.83188 0.39681 0.0
H203 H 0.96032 0.77522 0.38063 0.0
H204 H 0.99051 0.77731 0.38587 0.0
H205 H 0.97684 0.78703 0.333 0.0
H206 H 0.05999 0.78485 0.4026 0.0
C207 C 0.02676 0.79378 0.42997 0.0
C208 C 0.8175 0.4619 0.16148 0.0
C209 C 0.81618 0.43775 0.16462 0.0
C210 C 0.81776 0.42475 0.12284 0.0
C211 C 0.81933 0.45953 0.07639 0.0
C212 C 0.81884 0.47239 0.11714 0.0
C213 C 0.81833 0.49781 0.1071 0.0
H214 H 0.80463 0.58368 0.9488 0.0
C215 C 0.81804 0.47543 0.03606 0.0
C216 C 0.81743 0.49792 0.05367 0.0
H217 H 0.81563 0.58949 0.09864 0.0
H218 H 0.81969 0.54834 0.10456 0.0
H219 H 0.84423 0.54336 0.93087 0.0
H220 H 0.77099 0.54207 0.95333 0.0
H221 H 0.77733 0.5201 0.9132 0.0
H222 H 0.78313 0.54959 0.89744 0.0
H223 H 0.82384 0.55502 0.88993 0.0
H224 H 0.83147 0.52508 0.8889 0.0
C225 C 0.84087 0.50857 0.12591 0.0
C226 C 0.79616 0.50788 0.12913 0.0
C227 C 0.8088 0.44249 0.87239 0.0
C228 C 0.80171 0.45196 0.82921 0.0
C229 C 0.79957 0.47609 0.82583 0.0
C230 C 0.80362 0.49027 0.86494 0.0
C231 C 0.80944 0.48028 0.90832 0.0
C232 C 0.81188 0.45674 0.91138 0.0
C233 C 0.81561 0.4487 0.96094 0.0
C234 C 0.81562 0.47137 0.98715 0.0
C235 C 0.8123 0.48985 0.95619 0.0
C236 C 0.83936 0.43678 0.96348 0.0
C237 C 0.79501 0.43312 0.97513 0.0
C238 C 0.80783 0.57608 0.98293 0.0
C239 C 0.80968 0.5899 0.02334 0.0
C240 C 0.81429 0.5793 0.06691 0.0
C241 C 0.81649 0.55537 0.07035 0.0
C242 C 0.81399 0.54179 0.02985 0.0
C243 C 0.81012 0.55221 0.98694 0.0
C244 C 0.80825 0.53507 0.94754 0.0
C245 C 0.81188 0.51268 0.97383 0.0
C246 C 0.81488 0.5167 0.02217 0.0
C247 C 0.82785 0.53982 0.91208 0.0
C248 C 0.78377 0.53677 0.92632 0.0
H249 H 0.82031 0.42456 0.04876 0.0
H250 H 0.81684 0.4725 0.19269 0.0
H251 H 0.78128 0.49632 0.12255 0.0
H252 H 0.7912 0.52462 0.11414 0.0
H253 H 0.79803 0.50985 0.16777 0.0
H254 H 0.85529 0.49603 0.1247 0.0
H255 H 0.83891 0.51424 0.16297 0.0
H256 H 0.84681 0.52321 0.10432 0.0
H257 H 0.81115 0.42418 0.87668 0.0
H258 H 0.79388 0.48408 0.79353 0.0
H259 H 0.80134 0.50841 0.86024 0.0
H260 H 0.85238 0.44664 0.94313 0.0
H261 H 0.83856 0.41918 0.94851 0.0
H262 H 0.84619 0.43577 0.99964 0.0
H263 H 0.77967 0.43626 0.9527 0.0
H264 H 0.78885 0.43652 0.01124 0.0
H265 H 0.79943 0.41463 0.97185 0.0
H266 H 0.81651 0.40621 0.12352 0.0
C267 C 0.81957 0.43548 0.07904 0.0
C268 C 0.05942 0.19017 0.33822 0.0
C269 C 0.08205 0.18216 0.33276 0.0
C270 C 0.09441 0.17494 0.37266 0.0
C271 C 0.06252 0.18555 0.42279 0.0
C272 C 0.04993 0.19147 0.38345 0.0
C273 C 0.02606 0.19939 0.39588 0.0
H274 H 0.94856 0.22883 0.56297 0.0
C275 C 0.04835 0.19037 0.46467 0.0
C276 C 0.02682 0.1981 0.44922 0.0
H277 H 0.93928 0.2273 0.41224 0.0
H278 H 0.9779 0.21316 0.40221 0.0
H279 H 0.97447 0.18058 0.57055 0.0
H280 H 0.00026 0.24976 0.56018 0.0
H281 H 0.01688 0.23529 0.60229 0.0
H282 H 0.98651 0.23899 0.61219 0.0
H283 H 0.973 0.20042 0.61874 0.0
H284 H 0.99807 0.18281 0.60879 0.0
C285 C 0.0086 0.18212 0.37473 0.0
C286 C 0.0232 0.22439 0.37823 0.0
C287 C 0.08504 0.18725 0.62607 0.0
C288 C 0.07713 0.19289 0.67127 0.0
C289 C 0.05384 0.19879 0.67748 0.0
C290 C 0.03891 0.2 0.63885 0.0
C291 C 0.04736 0.19528 0.59355 0.0
C292 C 0.06998 0.1886 0.58794 0.0
C293 C 0.07608 0.18423 0.53742 0.0
C294 C 0.05353 0.18991 0.51339 0.0
C295 C 0.03681 0.19649 0.54635 0.0
C296 C 0.08253 0.15851 0.53196 0.0
C297 C 0.09546 0.20122 0.52356 0.0
C298 C 0.95494 0.22559 0.52782 0.0
C299 C 0.94088 0.22919 0.48835 0.0
C300 C 0.9497 0.22444 0.44323 0.0
C301 C 0.97217 0.21631 0.43744 0.0
C302 C 0.98605 0.21288 0.47716 0.0
C303 C 0.97734 0.21734 0.52144 0.0
C304 C 0.9945 0.21231 0.55957 0.0
C305 C 0.01483 0.20388 0.53087 0.0
C306 C 0.00984 0.20451 0.4826 0.0
C307 C 0.98459 0.19315 0.5915 0.0
C308 C -0.00017 0.23513 0.58536 0.0
H309 H 0.09524 0.17127 0.44662 0.0
H310 H 0.04942 0.19548 0.30801 0.0
H311 H 0.03886 0.23465 0.38611 0.0
H312 H 0.00893 0.23361 0.39541 0.0
H313 H 0.02046 0.22483 0.33961 0.0
H314 H 0.01628 0.16471 0.37085 0.0
H315 H 0.00274 0.18771 0.33939 0.0
H316 H 0.99346 0.17946 0.39762 0.0
H317 H 0.10274 0.18221 0.62034 0.0
H318 H 0.04736 0.20323 0.71199 0.0
H319 H 0.02147 0.205 0.64566 0.0
H320 H 0.07393 0.14773 0.55907 0.0
H321 H 0.10134 0.15586 0.53557 0.0
H322 H 0.07671 0.15125 0.49805 0.0
H323 H 0.09192 0.21861 0.53805 0.0
H324 H 0.09716 0.2037 0.48535 0.0
H325 H 0.11231 0.19545 0.53763 0.0
H326 H 0.11191 0.16878 0.36925 0.0
C327 C 0.08477 0.17657 0.41758 0.0
C328 C 0.69259 0.96121 0.64997 0.0
C329 C 0.69117 0.93709 0.65276 0.0
C330 C 0.68397 0.92465 0.6129 0.0
C331 C 0.68357 0.95948 0.56672 0.0
C332 C 0.68864 0.97204 0.60657 0.0
C333 C 0.69033 0.99739 0.5961 0.0
H334 H 0.69585 0.08284 0.43435 0.0
C335 C 0.68349 0.97523 0.52613 0.0
C336 C 0.68705 0.99756 0.543 0.0
H337 H 0.69593 0.08877 0.58583 0.0
H338 H 0.69169 0.04772 0.59321 0.0
H339 H 0.72837 0.04072 0.42993 0.0
H340 H 0.65441 0.04312 0.42732 0.0
H341 H 0.66436 0.025 0.38184 0.0
H342 H 0.67244 0.05482 0.38196 0.0
H343 H 0.71294 0.04706 0.37697 0.0
H344 H 0.71936 0.01789 0.39425 0.0
C345 C 0.71462 0.00573 0.61028 0.0
C346 C 0.67045 0.00982 0.62202 0.0
C347 C 0.68469 0.94122 0.36251 0.0
C348 C 0.69032 0.9503 0.31817 0.0
C349 C 0.69233 0.97437 0.31343 0.0
C350 C 0.68992 0.9889 0.35258 0.0
C351 C 0.68582 0.97928 0.39716 0.0
C352 C 0.6831 0.95581 0.40133 0.0
C353 C 0.681 0.94817 0.45153 0.0
C354 C 0.68295 0.97095 0.47705 0.0
C355 C 0.68549 0.98916 0.44512 0.0
C356 C 0.70155 0.93194 0.46223 0.0
C357 C 0.65698 0.93715 0.45833 0.0
C358 C 0.69465 0.0753 0.46906 0.0
C359 C 0.69627 0.08907 0.50955 0.0
C360 C 0.69501 0.07852 0.55411 0.0
C361 C 0.69241 0.0547 0.55836 0.0
C362 C 0.69121 0.04114 0.51766 0.0
C363 C 0.69214 0.05146 0.47393 0.0
C364 C 0.69094 0.03418 0.43464 0.0
C365 C 0.68818 0.01196 0.46207 0.0
C366 C 0.68867 0.01613 0.51071 0.0
C367 C 0.71395 0.03498 0.40712 0.0
C368 C 0.6695 0.0395 0.40446 0.0
H369 H 0.67536 0.92514 0.54079 0.0
H370 H 0.69774 0.97129 0.68016 0.0
H371 H 0.65565 0.99811 0.62826 0.0
H372 H 0.6632 0.02415 0.6012 0.0
H373 H 0.67611 0.01641 0.65676 0.0
H374 H 0.72791 0.99339 0.59795 0.0
H375 H 0.71616 0.00721 0.64907 0.0
H376 H 0.71925 0.02241 0.59454 0.0
H377 H 0.68252 0.92292 0.3676 0.0
H378 H 0.69676 0.98198 0.27991 0.0
H379 H 0.69211 0.00699 0.34693 0.0
H380 H 0.71721 0.93741 0.44276 0.0
H381 H 0.69764 0.914 0.45161 0.0
H382 H 0.70687 0.93201 0.49937 0.0
H383 H 0.64398 0.94543 0.43518 0.0
H384 H 0.65021 0.93948 0.49434 0.0
H385 H 0.65727 0.91855 0.44971 0.0
H386 H 0.68196 0.90617 0.6145 0.0
C387 C 0.6801 0.9357 0.57008 0.0
C388 C 0.56113 0.31999 0.15893 0.0
C389 C 0.58401 0.32743 0.16317 0.0
C390 C 0.59606 0.33443 0.1227 0.0
C391 C 0.56333 0.32461 0.07426 0.0
C392 C 0.55106 0.319 0.11425 0.0
C393 C 0.52684 0.31176 0.10311 0.0
H394 H 0.44709 0.28296 0.94049 0.0
C395 C 0.54857 0.32011 0.03315 0.0
C396 C 0.52702 0.31298 0.04974 0.0
H397 H 0.43924 0.28608 0.09147 0.0
H398 H 0.47817 0.29973 0.0993 0.0
H399 H 0.47372 0.33089 0.9302 0.0
H400 H 0.49849 0.26136 0.94157 0.0
H401 H 0.51467 0.27525 0.89788 0.0
H402 H 0.48413 0.27191 0.89009 0.0
H403 H 0.47144 0.31076 0.88267 0.0
H404 H 0.49691 0.32797 0.89108 0.0
C405 C 0.51012 0.32953 0.12507 0.0
C406 C 0.52347 0.28687 0.12102 0.0
C407 C 0.58372 0.3214 0.87021 0.0
C408 C 0.57526 0.31571 0.82549 0.0
C409 C 0.55177 0.31039 0.82036 0.0
C410 C 0.53717 0.30978 0.85962 0.0
C411 C 0.54617 0.31452 0.90447 0.0
C412 C 0.56899 0.32065 0.90897 0.0
C413 C 0.57571 0.32513 0.95909 0.0
C414 C 0.55325 0.32019 0.98421 0.0
C415 C 0.53604 0.31386 0.95214 0.0
C416 C 0.58288 0.3507 0.96367 0.0
C417 C 0.59476 0.30771 0.9725 0.0
C418 C 0.45385 0.28647 0.97522 0.0
C419 C 0.44014 0.28338 0.01543 0.0
C420 C 0.44941 0.2885 0.05996 0.0
C421 C 0.47205 0.29633 0.06446 0.0
C422 C 0.48563 0.2991 0.02404 0.0
C423 C 0.47641 0.29445 0.98031 0.0
C424 C 0.49328 0.29888 0.94126 0.0
C425 C 0.51404 0.30711 0.96879 0.0
C426 C 0.50953 0.30689 0.01728 0.0
C427 C 0.48341 0.31799 0.90921 0.0
C428 C 0.4979 0.27578 0.91592 0.0
H429 H 0.59606 0.33817 0.04873 0.0
H430 H 0.55139 0.31491 0.18968 0.0
H431 H 0.53863 0.2761 0.11191 0.0
H432 H 0.50858 0.27815 0.10509 0.0
H433 H 0.52144 0.28652 0.15984 0.0
H434 H 0.51844 0.34663 0.12927 0.0
H435 H 0.50419 0.32393 0.16036 0.0
H436 H 0.495 0.33289 0.10252 0.0
H437 H 0.60159 0.32602 0.8751 0.0
H438 H 0.54487 0.30596 0.7862 0.0
H439 H 0.51955 0.3052 0.85366 0.0
H440 H 0.57437 0.36155 0.93659 0.0
H441 H 0.60174 0.35282 0.95936 0.0
H442 H 0.57753 0.35832 0.99759 0.0
H443 H 0.59058 0.29032 0.9587 0.0
H444 H 0.59683 0.30543 0.01068 0.0
H445 H 0.6116 0.31291 0.95745 0.0
H446 H 0.61372 0.34019 0.12525 0.0
C447 C 0.58584 0.33307 0.0783 0.0
C448 C 0.30877 0.04713 0.34361 0.0
C449 C 0.30997 0.07119 0.33982 0.0
C450 C 0.31471 0.08431 0.38025 0.0
C451 C 0.3145 0.04984 0.42791 0.0
C452 C 0.31132 0.03683 0.38785 0.0
C453 C 0.31039 0.01151 0.39851 0.0
H454 H 0.30507 0.92603 0.55959 0.0
C455 C 0.31441 0.03417 0.46873 0.0
C456 C 0.31245 0.01164 0.45179 0.0
H457 H 0.30647 0.92034 0.40811 0.0
H458 H 0.31021 0.96143 0.40113 0.0
H459 H 0.34555 0.96601 0.56802 0.0
H460 H 0.27158 0.96831 0.56245 0.0
H461 H 0.28039 0.98959 0.60211 0.0
H462 H 0.28664 0.95986 0.61467 0.0
H463 H 0.32751 0.95535 0.6144 0.0
H464 H 0.33565 0.98518 0.61148 0.0
C465 C 0.33132 0.9998 0.37472 0.0
C466 C 0.28675 0.00228 0.38212 0.0
C467 C 0.30856 0.0678 0.63235 0.0
C468 C 0.30433 0.05815 0.6768 0.0
C469 C 0.30472 0.03403 0.6816 0.0
C470 C 0.30809 0.01983 0.64226 0.0
C471 C 0.31092 0.02984 0.59759 0.0
C472 C 0.3115 0.05347 0.59346 0.0
C473 C 0.31372 0.06129 0.54337 0.0
C474 C 0.314 0.03845 0.51782 0.0
C475 C 0.31239 0.02006 0.54965 0.0
C476 C 0.33681 0.07433 0.53799 0.0
C477 C 0.29211 0.07573 0.53125 0.0
C478 C 0.3065 0.93365 0.52498 0.0
C479 C 0.3054 0.91995 0.48433 0.0
C480 C 0.30699 0.93056 0.43991 0.0
C481 C 0.30925 0.95442 0.43592 0.0
C482 C 0.30977 0.96794 0.47675 0.0
C483 C 0.30862 0.95754 0.52037 0.0
C484 C 0.30898 0.97479 0.55978 0.0
C485 C 0.31113 0.99715 0.53258 0.0
C486 C 0.31135 0.993 0.48394 0.0
C487 C 0.33043 0.97014 0.59045 0.0
C488 C 0.28584 0.97309 0.58659 0.0
H489 H 0.32005 0.08474 0.45381 0.0
H490 H 0.30557 0.03661 0.31291 0.0
H491 H 0.27281 0.01448 0.39181 0.0
H492 H 0.28199 0.98584 0.39872 0.0
H493 H 0.28636 1.00006 0.34336 0.0
H494 H 0.34593 0.01197 0.37063 0.0
H495 H 0.32685 0.99332 0.33918 0.0
H496 H 0.33838 0.98554 0.39596 0.0
H497 H 0.30886 0.08626 0.62754 0.0
H498 H 0.30149 0.02612 0.71541 0.0
H499 H 0.30771 0.00161 0.64792 0.0
H500 H 0.34984 0.06801 0.56353 0.0
H501 H 0.33458 0.09303 0.54413 0.0
H502 H 0.34482 0.07163 0.50314 0.0
H503 H 0.27642 0.06782 0.54671 0.0
H504 H 0.28858 0.07684 0.4933 0.0
H505 H 0.2936 0.09344 0.54545 0.0
H506 H 0.31568 0.10287 0.37819 0.0
C507 C 0.31703 0.07377 0.4242 0.0
C508 C 0.54486 0.72506 0.02475 0.0
C509 C 0.55785 0.73008 0.9843 0.0
C510 C 0.54808 0.72625 0.9397 0.0
C511 C 0.51281 0.7131 0.97595 0.0
C512 C 0.5224 0.71669 0.01975 0.0
C513 C 0.50581 0.71129 0.05888 0.0
H514 H 0.39783 0.68162 0.12429 0.0
C515 C 0.48915 0.70461 0.98271 0.0
C516 C 0.48493 0.70336 0.03126 0.0
H517 H 0.45406 0.70205 0.21411 0.0
H518 H 0.47949 0.70367 0.14674 0.0
H519 H 0.40783 0.7181 0.0428 0.0
H520 H 0.4261 0.64712 0.06114 0.0
H521 H 0.42268 0.65099 0.00035 0.0
H522 H 0.39844 0.65536 0.03912 0.0
H523 H 0.38746 0.69491 0.04263 0.0
H524 H 0.40207 0.70353 0.98994 0.0
C525 C 0.5011 0.73378 0.08636 0.0
C526 C 0.51608 0.69168 0.089 0.0
C527 C 0.43786 0.69118 0.84081 0.0
C528 C 0.41522 0.68308 0.83626 0.0
C529 C 0.40337 0.67546 0.87653 0.0
C530 C 0.41353 0.67681 0.921 0.0
C531 C 0.43579 0.68589 0.92533 0.0
C532 C 0.44786 0.69219 0.88553 0.0
C533 C 0.47177 0.70028 0.89688 0.0
C534 C 0.47172 0.69851 0.95016 0.0
C535 C 0.45047 0.69049 0.96656 0.0
C536 C 0.47407 0.72548 0.87999 0.0
C537 C 0.4891 0.68336 0.8741 0.0
C538 C 0.41562 0.68648 0.12944 0.0
C539 C 0.42388 0.69208 0.17436 0.0
C540 C 0.44729 0.69771 0.17979 0.0
C541 C 0.46195 0.69884 0.14059 0.0
C542 C 0.45308 0.69434 0.09552 0.0
C543 C 0.43037 0.6878 0.09077 0.0
C544 C 0.4237 0.68374 0.0405 0.0
C545 C 0.44597 0.68958 0.01553 0.0
C546 C 0.46312 0.69586 0.0478 0.0
C547 C 0.40416 0.70079 0.02799 0.0
C548 C 0.41722 0.65805 0.03471 0.0
H549 H 0.51929 0.71524 0.90038 0.0
H550 H 0.55185 0.72804 0.0595 0.0
H551 H 0.5247 0.67871 0.0663 0.0
H552 H 0.5029 0.68201 0.10871 0.0
H553 H 0.52907 0.69839 0.11407 0.0
H554 H 0.5009 0.74884 0.06227 0.0
H555 H 0.5146 0.73688 0.1132 0.0
H556 H 0.48412 0.73401 0.10358 0.0
H557 H 0.44747 0.6968 0.81028 0.0
H558 H 0.38588 0.66921 0.87379 0.0
H559 H 0.40345 0.67122 0.9504 0.0
H560 H 0.45804 0.73526 0.88739 0.0
H561 H 0.47724 0.72628 0.84152 0.0
H562 H 0.48779 0.73505 0.8982 0.0
H563 H 0.48172 0.66578 0.87122 0.0
H564 H 0.50484 0.68109 0.89534 0.0
H565 H 0.49394 0.68898 0.83813 0.0
H566 H 0.55786 0.72972 0.90807 0.0
C567 C 0.52571 0.71772 0.93532 0.0
H568 H 0.15963 0.16148 0.07149 0.0
H569 H 0.18412 0.22297 0.14014 0.0
H570 H 0.1284 0.15866 0.12904 0.0
H571 H 0.15281 0.22029 0.19696 0.0
H572 H 0.08432 0.21814 0.27194 0.0
H573 H 0.10832 0.22128 0.20151 0.0
H574 H 0.1301 0.15094 0.21946 0.0
H575 H 0.10623 0.14785 0.29003 0.0
C576 C 0.1581 0.17459 0.09832 0.0
C577 C 0.17439 0.19236 0.10161 0.0
C578 C 0.14031 0.17291 0.13125 0.0
C579 C 0.13824 0.18926 0.16731 0.0
C580 C 0.1539 0.20758 0.16923 0.0
C581 C 0.1719 0.20902 0.13694 0.0
C582 C 0.09383 0.20322 0.26014 0.0
C583 C 0.09356 0.18279 0.28641 0.0
C584 C 0.10763 0.20506 0.22011 0.0
C585 C 0.12108 0.18638 0.20527 0.0
C586 C 0.11975 0.16553 0.22998 0.0
C587 C 0.10624 0.16381 0.27043 0.0
H588 H 0.25037 0.62232 0.58164 0.0
H589 H 0.22145 0.68145 0.65169 0.0
H590 H 0.23421 0.59734 0.64187 0.0
H591 H 0.20626 0.65672 0.71311 0.0
H592 H 0.16932 0.60685 0.80597 0.0
H593 H 0.17968 0.62876 0.73597 0.0
H594 H 0.2409 0.58728 0.7202 0.0
H595 H 0.22985 0.56489 0.78884 0.0
C596 C 0.24055 0.62998 0.60996 0.0
C597 C 0.23731 0.65387 0.61204 0.0
C598 C 0.2314 0.61567 0.64472 0.0
C599 C 0.21907 0.62493 0.68284 0.0
C600 C 0.21532 0.64883 0.68408 0.0
C601 C 0.22417 0.66309 0.64892 0.0
C602 C 0.18483 0.60232 0.78704 0.0
C603 C 0.19881 0.58423 0.80278 0.0
C604 C 0.19089 0.61495 0.74711 0.0
C605 C 0.21128 0.61002 0.72244 0.0
C606 C 0.22488 0.59143 0.73762 0.0
C607 C 0.21862 0.57859 0.77712 0.0
H608 H 0.81281 0.78857 0.13959 0.0
H609 H 0.83755 0.85055 0.07312 0.0
H610 H 0.84347 0.79125 0.19788 0.0
H611 H 0.86807 0.85343 0.1323 0.0
H612 H 0.88944 0.8624 0.29499 0.0
H613 H 0.86532 0.86002 0.2246 0.0
H614 H 0.88859 0.79057 0.2011 0.0
H615 H 0.91289 0.79302 0.27113 0.0
C616 C 0.82492 0.80267 0.13728 0.0
C617 C 0.82276 0.8194 0.102 0.0
C618 C 0.84252 0.80411 0.17041 0.0
C619 C 0.85807 0.82254 0.16945 0.0
C620 C 0.85623 0.83908 0.13371 0.0
C621 C 0.83887 0.83738 0.09987 0.0
C622 C 0.88967 0.84681 0.27423 0.0
C623 C 0.90294 0.82788 0.28842 0.0
C624 C 0.87601 0.84549 0.23393 0.0
C625 C 0.8751 0.82509 0.20767 0.0
C626 C 0.88899 0.80646 0.2209 0.0
C627 C 0.90295 0.80791 0.26071 0.0
H628 H 0.73106 0.35044 0.65985 0.0
H629 H 0.78198 0.37637 0.56338 0.0
H630 H 0.74359 0.3776 0.719 0.0
H631 H 0.79615 0.40263 0.62413 0.0
H632 H 0.80466 0.45985 0.73328 0.0
H633 H 0.79102 0.43531 0.66993 0.0
H634 H 0.77194 0.38357 0.77183 0.0
H635 H 0.7827 0.40886 0.83451 0.0
C636 C 0.74527 0.36182 0.65173 0.0
C637 C 0.75577 0.36122 0.60746 0.0
C638 C 0.75267 0.37731 0.68581 0.0
C639 C 0.77135 0.39211 0.67714 0.0
C640 C 0.78164 0.3917 0.63223 0.0
C641 C 0.77369 0.37657 0.59747 0.0
C642 C 0.79715 0.44341 0.74224 0.0
C643 C 0.79492 0.43654 0.78951 0.0
C644 C 0.78965 0.42911 0.70568 0.0
C645 C 0.78009 0.40739 0.71538 0.0
C646 C 0.77855 0.40034 0.76254 0.0
C647 C 0.78539 0.4148 0.7989 0.0
H648 H 0.66001 0.34688 0.42598 0.0
H649 H 0.68737 0.28713 0.35532 0.0
H650 H 0.62954 0.34956 0.36692 0.0
H651 H 0.65669 0.28966 0.29694 0.0
H652 H 0.58716 0.29096 0.22244 0.0
H653 H 0.61155 0.28755 0.29228 0.0
H654 H 0.63255 0.35822 0.27594 0.0
H655 H 0.60841 0.36153 0.20578 0.0
C656 C 0.65929 0.33412 0.39832 0.0
C657 C 0.67613 0.31687 0.39502 0.0
C658 C 0.64193 0.33572 0.36454 0.0
C659 C 0.64083 0.31981 0.32756 0.0
C660 C 0.65708 0.30201 0.32539 0.0
C661 C 0.67469 0.30067 0.35857 0.0
C662 C 0.59664 0.30586 0.23443 0.0
C663 C 0.59602 0.32649 0.20886 0.0
C664 C 0.61065 0.30387 0.27408 0.0
C665 C 0.62391 0.3226 0.28926 0.0
C666 C 0.62235 0.34359 0.26509 0.0
C667 C 0.60867 0.34545 0.22495 0.0
H668 H 0.27015 0.17644 0.84531 0.0
H669 H 0.25683 0.11979 0.93976 0.0
H670 H 0.28515 0.14981 0.78717 0.0
H671 H 0.27169 0.093 0.88083 0.0
H672 H 0.31746 0.05503 0.76971 0.0
H673 H 0.30674 0.08087 0.83423 0.0
H674 H 0.26566 0.12093 0.73805 0.0
H675 H 0.27598 0.09526 0.67437 0.0
C676 C 0.27054 0.15831 0.85384 0.0
C677 C 0.26194 0.15023 0.89695 0.0
C678 C 0.27908 0.14304 0.8204 0.0
C679 C 0.27924 0.11929 0.82914 0.0
C680 C 0.2718 0.11123 0.87316 0.0
C681 C 0.26321 0.12656 0.9068 0.0
C682 C 0.30605 0.0693 0.76254 0.0
C683 C 0.29789 0.0733 0.71673 0.0
C684 C 0.29995 0.08408 0.79941 0.0
C685 C 0.28566 0.10312 0.791 0.0
C686 C 0.27719 0.10677 0.74543 0.0
C687 C 0.28316 0.09205 0.70887 0.0
H688 H 0.31766 0.73101 0.37339 0.0
H689 H 0.33222 0.65994 0.40599 0.0
H690 H 0.34883 0.73114 0.31639 0.0
H691 H 0.36331 0.66008 0.34829 0.0
H692 H 0.42949 0.67529 0.26391 0.0
H693 H 0.40178 0.67688 0.32886 0.0
H694 H 0.35396 0.71301 0.23933 0.0
H695 H 0.38162 0.71186 0.17533 0.0
C696 C 0.32754 0.71542 0.36857 0.0
C697 C 0.32222 0.69537 0.39389 0.0
C698 C 0.34538 0.7155 0.33577 0.0
C699 C 0.35837 0.69556 0.3275 0.0
C700 C 0.35369 0.67575 0.35408 0.0
C701 C 0.33577 0.67564 0.38692 0.0
C702 C 0.41312 0.68373 0.25843 0.0
C703 C 0.40764 0.6933 0.2145 0.0
C704 C 0.39722 0.68449 0.29541 0.0
C705 C 0.37571 0.69511 0.28921 0.0
C706 C 0.37047 0.70495 0.24544 0.0
C707 C 0.38622 0.70405 0.20858 0.0
H708 H 0.72784 0.82822 0.84278 0.0
H709 H 0.74575 0.88879 0.92255 0.0
H710 H 0.7119 0.85224 0.78116 0.0
H711 H 0.73005 0.91301 0.85986 0.0
H712 H 0.68236 0.94682 0.74598 0.0
H713 H 0.69466 0.92452 0.81486 0.0
H714 H 0.73019 0.87713 0.72341 0.0
H715 H 0.71806 0.89911 0.6555 0.0
C716 C 0.72833 0.84669 0.84725 0.0
C717 C 0.73842 0.85659 0.88722 0.0
C718 C 0.71923 0.86047 0.81182 0.0
C719 C 0.72011 0.88453 0.81522 0.0
C720 C 0.72912 0.89451 0.85627 0.0
C721 C 0.73818 0.88065 0.89205 0.0
C722 C 0.69286 0.93167 0.74084 0.0
C723 C 0.69885 0.92446 0.69528 0.0
C724 C 0.6999 0.91894 0.78018 0.0
C725 C 0.71303 0.89883 0.77448 0.0
C726 C 0.71953 0.89213 0.72897 0.0
C727 C 0.71255 0.90475 0.68998 0.0
H728 H 0.82018 0.77648 0.87372 0.0
H729 H 0.83266 0.84828 0.90295 0.0
H730 H 0.85141 0.77667 0.81665 0.0
H731 H 0.86414 0.84829 0.84649 0.0
H732 H 0.8947 0.8461 0.69664 0.0
H733 H 0.86721 0.84604 0.76122 0.0
H734 H 0.89309 0.78021 0.80722 0.0
H735 H 0.92014 0.77994 0.74153 0.0
C736 C 0.82973 0.79224 0.8684 0.0
C737 C 0.82373 0.81243 0.89257 0.0
C738 C 0.84774 0.7923 0.83588 0.0
C739 C 0.86017 0.81254 0.82682 0.0
C740 C 0.85466 0.83252 0.85213 0.0
C741 C 0.83667 0.83247 0.88466 0.0
C742 C 0.89453 0.83162 0.72055 0.0
C743 C 0.90948 0.81296 0.7138 0.0
C744 C 0.87895 0.8317 0.75787 0.0
C745 C 0.87793 0.8131 0.78932 0.0
C746 C 0.8933 0.79469 0.7833 0.0
C747 C 0.90895 0.79465 0.74599 0.0
H748 H 0.79557 0.3404 0.3969 0.0
H749 H 0.73276 0.37909 0.38109 0.0
H750 H 0.81467 0.36586 0.34111 0.0
H751 H 0.75118 0.40361 0.3234 0.0
H752 H 0.78943 0.45341 0.23755 0.0
H753 H 0.77696 0.43247 0.30655 0.0
H754 H 0.81671 0.37364 0.2617 0.0
H755 H 0.83102 0.39541 0.19535 0.0
C756 C 0.78584 0.35432 0.38131 0.0
C757 C 0.76267 0.35773 0.39323 0.0
C758 C 0.79673 0.36887 0.34908 0.0
C759 C 0.78454 0.38687 0.32728 0.0
C760 C 0.7614 0.39036 0.33998 0.0
C761 C 0.7507 0.37614 0.37287 0.0
C762 C 0.79617 0.43629 0.24308 0.0
C763 C 0.81103 0.42607 0.21014 0.0
C764 C 0.78861 0.42404 0.2824 0.0
C765 C 0.79529 0.40106 0.28944 0.0
C766 C 0.81114 0.39128 0.25788 0.0
C767 C 0.81909 0.4037 0.21911 0.0
H768 H 0.18271 0.23164 0.87114 0.0
H769 H 0.16773 0.16072 0.90449 0.0
H770 H 0.15211 0.23153 0.8129 0.0
H771 H 0.13722 0.16064 0.84564 0.0
H772 H 0.07137 0.1762 0.76072 0.0
H773 H 0.09895 0.17773 0.82572 0.0
H774 H 0.1474 0.21286 0.73584 0.0
H775 H 0.11983 0.21178 0.67165 0.0
C776 C 0.17286 0.21604 0.86623 0.0
C777 C 0.17788 0.19609 0.89214 0.0
C778 C 0.15537 0.21598 0.83271 0.0
C779 C 0.14243 0.19602 0.82441 0.0
C780 C 0.14683 0.17632 0.85148 0.0
C781 C 0.1644 0.17634 0.88497 0.0
C782 C 0.08786 0.18438 0.75512 0.0
C783 C 0.09351 0.19376 0.71109 0.0
C784 C 0.10368 0.18511 0.79213 0.0
C785 C 0.1253 0.19546 0.78586 0.0
C786 C 0.13079 0.20501 0.74194 0.0
C787 C 0.1151 0.20415 0.705 0.0
H788 H 0.23949 0.61921 0.44698 0.0
H789 H 0.23228 0.67286 0.34294 0.0
H790 H 0.22162 0.59192 0.39294 0.0
H791 H 0.21499 0.64563 0.289 0.0
H792 H 0.17013 0.59669 0.21066 0.0
H793 H 0.1814 0.62231 0.27448 0.0
H794 H 0.23221 0.57292 0.31974 0.0
H795 H 0.22079 0.54728 0.25627 0.0
C796 C 0.23402 0.62521 0.41273 0.0
C797 C 0.2375 0.64819 0.39917 0.0
C798 C 0.22387 0.60956 0.38172 0.0
C799 C 0.2169 0.61658 0.33663 0.0
C800 C 0.21983 0.63969 0.32368 0.0
C801 C 0.22996 0.65529 0.35455 0.0
C802 C 0.18356 0.59125 0.23455 0.0
C803 C 0.19469 0.57006 0.22823 0.0
C804 C 0.19004 0.60592 0.27104 0.0
C805 C 0.20788 0.59977 0.30192 0.0
C806 C 0.21824 0.57809 0.29694 0.0
C807 C 0.2117 0.56339 0.26052 0.0
H808 H 0.31293 0.72363 0.64215 0.0
H809 H 0.33917 0.66278 0.57371 0.0
H810 H 0.3436 0.72115 0.70044 0.0
H811 H 0.36971 0.66017 0.63264 0.0
H812 H 0.39089 0.64891 0.79354 0.0
H813 H 0.36702 0.65211 0.72302 0.0
H814 H 0.38819 0.72272 0.70634 0.0
H815 H 0.4122 0.71947 0.77666 0.0
C816 C 0.32539 0.70987 0.63931 0.0
C817 C 0.32359 0.69333 0.60358 0.0
C818 C 0.34301 0.70855 0.67246 0.0
C819 C 0.35894 0.69045 0.67096 0.0
C820 C 0.35755 0.67424 0.63455 0.0
C821 C 0.34016 0.6758 0.60081 0.0
C822 C 0.39069 0.66497 0.77428 0.0
C823 C 0.40328 0.68396 0.79047 0.0
C824 C 0.37719 0.66676 0.73388 0.0
C825 C 0.37576 0.68768 0.70947 0.0
C826 C 0.38898 0.70643 0.72471 0.0
C827 C 0.40278 0.70453 0.76467 0.0
H828 H 0.71727 0.83209 0.13957 0.0
H829 H 0.74996 0.88923 0.06918 0.0
H830 H 0.70063 0.85853 0.19681 0.0
H831 H 0.73306 0.91564 0.1264 0.0
H832 H 0.6821 0.95613 0.2232 0.0
H833 H 0.69321 0.93038 0.15896 0.0
H834 H 0.72197 0.88289 0.25934 0.0
H835 H 0.71213 0.90873 0.32294 0.0
C836 C 0.72062 0.8503 0.13584 0.0
C837 C 0.73517 0.85853 0.10016 0.0
C838 C 0.71113 0.8654 0.16867 0.0
C839 C 0.71569 0.88907 0.16607 0.0
C840 C 0.7292 0.89748 0.129 0.0
C841 C 0.73898 0.88233 0.09651 0.0
C842 C 0.69091 0.94028 0.23158 0.0
C843 C 0.69594 0.9345 0.27853 0.0
C844 C 0.69713 0.92551 0.19481 0.0
C845 C 0.70816 0.90456 0.20436 0.0
C846 C 0.71302 0.89871 0.25109 0.0
C847 C 0.70721 0.91355 0.2876 0.0
H848 H 0.66585 0.34804 0.59344 0.0
H849 H 0.68062 0.27681 0.62419 0.0
H850 H 0.63491 0.34753 0.65132 0.0
H851 H 0.64955 0.27631 0.6815 0.0
H852 H 0.61736 0.29556 0.82375 0.0
H853 H 0.64468 0.29421 0.75909 0.0
H854 H 0.5966 0.33063 0.67063 0.0
H855 H 0.56928 0.33243 0.73615 0.0
C856 C 0.66235 0.33221 0.61211 0.0
C857 C 0.67593 0.31256 0.60461 0.0
C858 C 0.64452 0.33189 0.64506 0.0
C859 C 0.63994 0.31194 0.67122 0.0
C860 C 0.65292 0.29205 0.66239 0.0
C861 C 0.67069 0.29234 0.62942 0.0
C862 C 0.61264 0.30337 0.79057 0.0
C863 C 0.59128 0.31428 0.78509 0.0
C864 C 0.62818 0.30235 0.75335 0.0
C865 C 0.62276 0.31225 0.70973 0.0
C866 C 0.60128 0.32297 0.70397 0.0
C867 C 0.58561 0.32386 0.74127 0.0
H868 H 0.24899 0.12238 0.07907 0.0
H869 H 0.27833 0.18103 0.15002 0.0
H870 H 0.26649 0.0969 0.13679 0.0
H871 H 0.29492 0.15578 0.2089 0.0
H872 H 0.33398 0.10557 0.29652 0.0
H873 H 0.32239 0.12777 0.2277 0.0
H874 H 0.26112 0.08613 0.21543 0.0
H875 H 0.2733 0.06352 0.28285 0.0
C876 C 0.25917 0.12983 0.10705 0.0
C877 C 0.26213 0.15373 0.11016 0.0
C878 C 0.26912 0.11523 0.14033 0.0
C879 C 0.28201 0.12421 0.1779 0.0
C880 C 0.28544 0.14813 0.18017 0.0
C881 C 0.27577 0.16268 0.14652 0.0
C882 C 0.31822 0.10103 0.27853 0.0
C883 C 0.30451 0.08288 0.29497 0.0
C884 C 0.31147 0.11383 0.23931 0.0
C885 C 0.29066 0.10897 0.21612 0.0
C886 C 0.27741 0.09023 0.23176 0.0
C887 C 0.28434 0.07725 0.27054 0.0
H888 H 0.22083 0.27822 0.92659 0.0
H889 H 0.20814 0.27648 0.07623 0.0
H890 H 0.21058 0.31876 0.92482 0.0
H891 H 0.19776 0.31719 0.07427 0.0
H892 H 0.17194 0.38674 0.93194 0.0
H893 H 0.17734 0.34522 0.93636 0.0
H894 H 0.21951 0.35376 0.05988 0.0
H895 H 0.21459 0.39523 0.05504 0.0
C896 C 0.21569 0.28645 0.95908 0.0
C897 C 0.21549 0.27416 0.00163 0.0
C898 C 0.20965 0.30965 0.95797 0.0
C899 C 0.20343 0.32117 0.99942 0.0
C900 C 0.2027 0.30879 0.04184 0.0
C901 C 0.20853 0.28547 0.0429 0.0
C902 C 0.18246 0.3798 0.95992 0.0
C903 C 0.1929 0.3944 0.993 0.0
C904 C 0.18547 0.356 0.96253 0.0
C905 C 0.19884 0.34624 0.99847 0.0
C906 C 0.20882 0.36075 0.03219 0.0
C907 C 0.20597 0.38454 0.0294 0.0
H908 H 0.20214 0.75803 0.54166 0.0
H909 H 0.18507 0.70196 0.44853 0.0
H910 H 0.16243 0.77178 0.53738 0.0
H911 H 0.14516 0.71546 0.44547 0.0
H912 H 0.07204 0.73682 0.51 0.0
H913 H 0.11159 0.72223 0.51512 0.0
H914 H 0.13697 0.78639 0.45965 0.0
H915 H 0.09742 0.80071 0.45324 0.0
C916 C 0.18985 0.74853 0.5207 0.0
C917 C 0.19665 0.72895 0.49536 0.0
C918 C 0.16723 0.75645 0.51813 0.0
C919 C 0.15092 0.74462 0.49112 0.0
C920 C 0.15752 0.72477 0.46662 0.0
C921 C 0.18028 0.71714 0.46827 0.0
C922 C 0.08613 0.74771 0.49891 0.0
C923 C 0.08186 0.76981 0.48118 0.0
C924 C 0.10862 0.73938 0.50168 0.0
C925 C 0.12714 0.75326 0.48782 0.0
C926 C 0.12289 0.77546 0.47066 0.0
C927 C 0.10037 0.78359 0.46685 0.0
H928 H 0.77756 0.7289 0.93345 0.0
H929 H 0.7912 0.73583 0.08206 0.0
H930 H 0.78736 0.68838 0.93747 0.0
H931 H 0.80051 0.69497 0.08627 0.0
H932 H 0.83418 0.62408 0.06697 0.0
H933 H 0.82777 0.66551 0.06236 0.0
H934 H 0.77043 0.65401 0.96889 0.0
H935 H 0.77692 0.6128 0.97327 0.0
C936 C 0.78265 0.72179 0.96705 0.0
C937 C 0.78337 0.7356 0.00753 0.0
C938 C 0.78816 0.69848 0.96938 0.0
C939 C 0.79444 0.68832 0.0123 0.0
C940 C 0.79588 0.70227 0.05257 0.0
C941 C 0.79044 0.72568 0.0502 0.0
C942 C 0.82016 0.63044 0.04559 0.0
C943 C 0.80612 0.61515 0.0203 0.0
C944 C 0.81648 0.65417 0.04298 0.0
C945 C 0.79866 0.66313 0.01508 0.0
C946 C 0.78461 0.64778 0.98995 0.0
C947 C 0.78832 0.62412 0.99246 0.0
H948 H 0.80836 0.28574 0.57889 0.0
H949 H 0.8037 0.27626 0.42856 0.0
H950 H 0.8478 0.27118 0.5773 0.0
H951 H 0.84298 0.26237 0.42685 0.0
H952 H 0.90227 0.21349 0.44488 0.0
H953 H 0.86336 0.22852 0.45099 0.0
H954 H 0.88673 0.27963 0.55017 0.0
H955 H 0.92575 0.26427 0.54446 0.0
C956 C 0.81581 0.28079 0.54551 0.0
C957 C 0.8028 0.28189 0.50395 0.0
C958 C 0.83841 0.27251 0.54457 0.0
C959 C 0.84843 0.26531 0.50203 0.0
C960 C 0.83561 0.2672 0.46039 0.0
C961 C 0.8131 0.27531 0.46135 0.0
C962 C 0.89911 0.22798 0.46787 0.0
C963 C 0.91707 0.23783 0.49387 0.0
C964 C 0.87683 0.23663 0.47133 0.0
C965 C 0.87198 0.25547 0.50065 0.0
C966 C 0.88985 0.26501 0.52754 0.0
C967 C 0.91218 0.25624 0.52424 0.0
H968 H 0.72083 0.23232 0.57308 0.0
H969 H 0.71406 0.23232 0.4219 0.0
H970 H 0.71252 0.19146 0.57491 0.0
H971 H 0.70638 0.19102 0.42357 0.0
H972 H 0.67446 0.11949 0.45095 0.0
H973 H 0.67973 0.16114 0.44681 0.0
H974 H 0.73186 0.15684 0.55459 0.0
H975 H 0.72627 0.11552 0.55918 0.0
C976 C 0.7176 0.22357 0.54015 0.0
C977 C 0.71836 0.23554 0.4973 0.0
C978 C 0.71297 0.20007 0.54117 0.0
C979 C 0.70917 0.18781 0.49933 0.0
C980 C 0.70913 0.19992 0.45649 0.0
C981 C 0.71359 0.22358 0.4555 0.0
C982 C 0.68711 0.12751 0.47354 0.0
C983 C 0.6998 0.11427 0.50572 0.0
C984 C 0.69016 0.15135 0.47114 0.0
C985 C 0.70605 0.16242 0.50071 0.0
C986 C 0.71904 0.14902 0.53213 0.0
C987 C 0.71589 0.1253 0.53471 0.0
H988 H 0.30154 0.23825 0.07591 0.0
H989 H 0.3086 0.22547 0.92698 0.0
H990 H 0.3408 0.25239 0.07865 0.0
H991 H 0.34776 0.24034 0.92945 0.0
H992 H 0.42478 0.24745 0.96232 0.0
H993 H 0.38576 0.2322 0.95793 0.0
H994 H 0.3627 0.28489 0.05404 0.0
H995 H 0.40176 0.29973 0.05907 0.0
C996 C 0.31144 0.23856 0.04366 0.0
C997 C 0.30188 0.23084 0.00118 0.0
C998 C 0.33393 0.24682 0.04519 0.0
C999 C 0.3474 0.24773 0.00419 0.0
C1000 C 0.33796 0.23968 0.96178 0.0
C1001 C 0.31546 0.23124 0.96031 0.0
C1002 C 0.4113 0.25583 0.9822 0.0
C1003 C 0.4163 0.27469 0.01123 0.0
C1004 C 0.38894 0.24713 0.97964 0.0
C1005 C 0.3711 0.25722 0.00585 0.0
C1006 C 0.37611 0.27638 0.03418 0.0
C1007 C 0.39846 0.28494 0.03698 0.0
H1008 H 0.27835 0.77661 0.42275 0.0
H1009 H 0.28654 0.77753 0.57362 0.0
H1010 H 0.28744 0.81733 0.41946 0.0
H1011 H 0.29486 0.81861 0.57057 0.0
H1012 H 0.32715 0.88937 0.54253 0.0
H1013 H 0.32157 0.84777 0.5466 0.0
H1014 H 0.26939 0.85252 0.43895 0.0
H1015 H 0.27541 0.89378 0.43428 0.0
C1016 C 0.28205 0.78554 0.45528 0.0
C1017 C 0.28151 0.77388 0.49848 0.0
C1018 C 0.28713 0.80895 0.45344 0.0
C1019 C 0.29155 0.82139 0.49482 0.0
C1020 C 0.29171 0.80956 0.53796 0.0
C1021 C 0.28684 0.78602 0.53975 0.0
C1022 C 0.31447 0.88144 0.51989 0.0
C1023 C 0.30185 0.89477 0.48781 0.0
C1024 C 0.31122 0.85763 0.52226 0.0
C1025 C 0.29516 0.8467 0.49281 0.0
C1026 C 0.28232 0.8602 0.46132 0.0
C1027 C 0.2857 0.88389 0.45871 0.0
H1028 H 0.6929 0.7835 0.91827 0.0
H1029 H 0.69555 0.77331 0.06863 0.0
H1030 H 0.65329 0.77017 0.91747 0.0
H1031 H 0.65564 0.76071 0.06807 0.0
H1032 H 0.59266 0.71506 0.04091 0.0
H1033 H 0.63211 0.72924 0.04399 0.0
H1034 H 0.61541 0.78079 0.94006 0.0
H1035 H 0.57623 0.76617 0.93629 0.0
C1036 C 0.68497 0.77861 0.95124 0.0
C1037 C 0.69744 0.77938 0.99348 0.0
C1038 C 0.66217 0.77109 0.95084 0.0
C1039 C 0.65121 0.76436 0.99273 0.0
C1040 C 0.66363 0.76539 0.03505 0.0
C1041 C 0.68649 0.77274 0.0354 0.0
C1042 C 0.59744 0.72953 0.01906 0.0
C1043 C 0.58146 0.73942 0.98815 0.0
C1044 C 0.62002 0.73771 0.02086 0.0
C1045 C 0.62701 0.7561 0.99207 0.0
C1046 C 0.61079 0.76629 0.96197 0.0
C1047 C 0.58831 0.75798 0.9599 0.0
loop_
_geom_bond_atom_site_label_1
_geom_bond_atom_site_label_2
_geom_bond_distance
_geom_bond_site_symmetry_2
_ccdc_geom_bond_type
Fe0 O2 1.918 . S
Fe0 O5 1.997 . S
Fe0 O6 2.002 . S
Fe0 O11 1.976 . S
Fe0 O14 1.996 . S
Fe1 O2 1.918 1_556 S
Fe1 O9 1.997 . S
Fe1 O12 1.996 . S
Fe1 O16 1.976 . S
Fe1 O19 2.002 . S
O2 Fe0 1.918 . S
O2 Fe1 1.918 1_554 S
O2 Fe3 1.918 1_554 S
Fe3 O2 1.918 1_556 S
Fe3 O4 1.997 1_556 S
Fe3 O13 1.971 1_556 S
Fe3 O17 2.001 . S
Fe3 O20 2.002 . S
O4 Fe3 1.997 1_554 S
O4 C21 1.295 . S
O5 Fe0 1.997 . S
O5 C21 1.235 . S
O6 Fe0 2.002 . S
O6 C7 1.295 . S
C7 O6 1.295 . S
C7 O9 1.235 1_554 S
C8 O13 1.287 . S
C8 O14 1.255 . S
O9 Fe1 1.997 . S
O9 C7 1.235 1_556 S
C10 O16 1.287 . S
C10 O17 1.255 . S
O11 Fe0 1.976 . S
O11 C18 1.287 1_554 S
O12 Fe1 1.996 . S
O12 C18 1.255 . S
O13 Fe3 1.971 1_554 S
O13 C8 1.287 . S
O14 Fe0 1.996 . S
O14 C8 1.255 . S
C15 O19 1.295 . S
C15 O20 1.235 . S
O16 Fe1 1.976 . S
O16 C10 1.287 . S
O17 Fe3 2.001 . S
O17 C10 1.255 . S
C18 O11 1.287 1_556 S
C18 O12 1.255 . S
O19 Fe1 2.002 . S
O19 C15 1.295 . S
O20 Fe3 2.002 . S
O20 C15 1.235 . S
C21 O4 1.295 . S
C21 O5 1.235 . S
Fe22 O24 1.918 . S
Fe22 O27 1.997 . S
Fe22 O28 2.002 . S
Fe22 O33 1.976 . S
Fe22 O36 1.996 . S
Fe23 O24 1.918 . S
Fe23 O31 1.997 . S
Fe23 O34 1.996 . S
Fe23 O38 1.976 . S
Fe23 O41 2.002 . S
O24 Fe22 1.918 . S
O24 Fe23 1.918 . S
O24 Fe25 1.918 . S
Fe25 O24 1.918 . S
Fe25 O26 2.002 . S
Fe25 O35 1.976 . S
Fe25 O39 1.996 . S
Fe25 O42 1.997 . S
O26 Fe25 2.002 . S
O26 C43 1.295 . S
O27 Fe22 1.997 . S
O27 C43 1.235 . S
O28 Fe22 2.002 . S
O28 C29 1.295 . S
C29 O28 1.295 . S
C29 O31 1.235 . S
C30 O35 1.287 . S
C30 O36 1.255 . S
O31 Fe23 1.997 . S
O31 C29 1.235 . S
C32 O38 1.287 . S
C32 O39 1.255 . S
O33 Fe22 1.976 . S
O33 C40 1.287 . S
O34 Fe23 1.996 . S
O34 C40 1.255 . S
O35 Fe25 1.976 . S
O35 C30 1.287 . S
O36 Fe22 1.996 . S
O36 C30 1.255 . S
C37 O41 1.295 . S
C37 O42 1.235 . S
O38 Fe23 1.976 . S
O38 C32 1.287 . S
O39 Fe25 1.996 . S
O39 C32 1.255 . S
C40 O33 1.287 . S
C40 O34 1.255 . S
O41 Fe23 2.002 . S
O41 C37 1.295 . S
O42 Fe25 1.997 . S
O42 C37 1.235 . S
C43 O26 1.295 . S
C43 O27 1.235 . S
Fe44 O46 1.918 1_556 S
Fe44 O49 1.997 . S
Fe44 O50 2.002 . S
Fe44 O55 1.976 . S
Fe44 O58 1.996 . S
Fe45 O46 1.918 . S
Fe45 O53 1.997 . S
Fe45 O56 1.996 . S
Fe45 O60 1.976 . S
Fe45 O63 2.002 . S
O46 Fe44 1.918 1_554 S
O46 Fe45 1.918 . S
O46 Fe47 1.918 . S
Fe47 O46 1.918 . S
Fe47 O48 1.994 1_554 S
Fe47 O57 1.967 1_554 S
Fe47 O61 2.005 . S
Fe47 O64 2.006 . S
O48 Fe47 1.994 1_556 S
O48 C65 1.295 . S
O49 Fe44 1.997 . S
O49 C65 1.235 . S
O50 Fe44 2.002 . S
O50 C51 1.295 . S
C51 O50 1.295 . S
C51 O53 1.235 1_556 S
C52 O57 1.287 . S
C52 O58 1.255 . S
O53 Fe45 1.997 . S
O53 C51 1.235 1_554 S
C54 O60 1.287 . S
C54 O61 1.255 . S
O55 Fe44 1.976 . S
O55 C62 1.287 1_556 S
O56 Fe45 1.996 . S
O56 C62 1.255 . S
O57 Fe47 1.967 1_556 S
O57 C52 1.287 . S
O58 Fe44 1.996 . S
O58 C52 1.255 . S
C59 O63 1.295 . S
C59 O64 1.235 . S
O60 Fe45 1.976 . S
O60 C54 1.287 . S
O61 Fe47 2.005 . S
O61 C54 1.255 . S
C62 O55 1.287 1_554 S
C62 O56 1.255 . S
O63 Fe45 2.002 . S
O63 C59 1.295 . S
O64 Fe47 2.006 . S
O64 C59 1.235 . S
C65 O48 1.295 . S
C65 O49 1.235 . S
Fe66 O68 1.918 . S
Fe66 O71 1.997 . S
Fe66 O72 2.002 . S
Fe66 O77 1.976 . S
Fe66 O80 1.996 . S
Fe67 O68 1.918 . S
Fe67 O75 1.997 . S
Fe67 O78 1.996 . S
Fe67 O82 1.976 . S
Fe67 O85 2.002 . S
O68 Fe66 1.918 . S
O68 Fe67 1.918 . S
O68 Fe69 1.918 . S
Fe69 O68 1.918 . S
Fe69 O70 2.002 . S
Fe69 O79 1.976 . S
Fe69 O83 1.996 . S
Fe69 O86 1.997 . S
O70 Fe69 2.002 . S
O70 C87 1.295 . S
O71 Fe66 1.997 . S
O71 C87 1.235 . S
O72 Fe66 2.002 . S
O72 C73 1.295 . S
C73 O72 1.295 . S
C73 O75 1.235 . S
C74 O79 1.287 . S
C74 O80 1.255 . S
O75 Fe67 1.997 . S
O75 C73 1.235 . S
C76 O82 1.287 . S
C76 O83 1.255 . S
O77 Fe66 1.976 . S
O77 C84 1.287 . S
O78 Fe67 1.996 . S
O78 C84 1.255 . S
O79 Fe69 1.976 . S
O79 C74 1.287 . S
O80 Fe66 1.996 . S
O80 C74 1.255 . S
C81 O85 1.295 . S
C81 O86 1.235 . S
O82 Fe67 1.976 . S
O82 C76 1.287 . S
O83 Fe69 1.996 . S
O83 C76 1.255 . S
C84 O77 1.287 . S
C84 O78 1.255 . S
O85 Fe67 2.002 . S
O85 C81 1.295 . S
O86 Fe69 1.997 . S
O86 C81 1.235 . S
C87 O70 1.295 . S
C87 O71 1.235 . S
C88 C89 1.391 . S
C88 C92 1.391 . S
C88 H130 0.948 . S
C89 C88 1.391 . S
C89 C90 1.391 . S
C90 C89 1.391 . S
C90 H146 0.947 . S
C90 C147 1.392 . S
C91 C92 1.391 . S
C91 C95 1.397 . S
C91 C147 1.419 . S
C92 C88 1.391 . S
C92 C91 1.391 . S
C92 C93 1.399 . S
C93 C92 1.399 . S
C93 C96 1.396 . S
C93 C105 1.453 . S
C93 C106 1.684 . S
H94 C118 0.948 . S
C95 C91 1.397 . S
C95 C96 1.394 . S
C95 C114 1.723 1_556 S
C96 C93 1.396 . S
C96 C95 1.394 . S
C96 C126 1.723 . S
H97 C120 0.947 . S
H98 C121 0.948 . S
H99 C127 0.982 . S
H100 C128 0.979 . S
H101 C128 0.980 . S
H102 C128 0.983 . S
H103 C127 0.979 . S
H104 C127 0.977 . S
C105 C93 1.453 . S
C105 H134 0.982 . S
C105 H135 0.979 . S
C105 H136 0.977 . S
C106 C93 1.684 . S
C106 H131 0.979 . S
C106 H132 0.980 . S
C106 H133 0.983 . S
C107 C108 1.391 . S
C107 C112 1.391 . S
C107 H137 0.948 . S
C108 C107 1.391 . S
C108 C109 1.391 . S
C109 C108 1.391 . S
C109 C110 1.392 . S
C109 H138 0.947 . S
C110 C109 1.392 . S
C110 C111 1.419 . S
C110 H139 0.948 . S
C111 C110 1.419 . S
C111 C112 1.391 . S
C111 C115 1.397 . S
C112 C107 1.391 . S
C112 C111 1.391 . S
C112 C113 1.399 . S
C113 C112 1.399 . S
C113 C114 1.396 . S
C113 C116 1.453 . S
C113 C117 1.684 . S
C114 C95 1.723 1_554 S
C114 C113 1.396 . S
C114 C115 1.394 . S
C115 C111 1.397 . S
C115 C114 1.394 . S
C115 C125 1.723 . S
C116 C113 1.453 . S
C116 H140 0.982 . S
C116 H141 0.979 . S
C116 H142 0.977 1_554 S
C117 C113 1.684 . S
C117 H143 0.979 . S
C117 H144 0.980 1_554 S
C117 H145 0.983 . S
C118 H94 0.948 . S
C118 C119 1.391 1_554 S
C118 C123 1.391 . S
C119 C118 1.391 1_556 S
C119 C120 1.391 . S
C120 H97 0.947 . S
C120 C119 1.391 . S
C120 C121 1.392 . S
C121 H98 0.948 . S
C121 C120 1.392 . S
C121 C122 1.419 . S
C122 C121 1.419 . S
C122 C123 1.391 1_556 S
C122 C126 1.397 . S
C123 C118 1.391 . S
C123 C122 1.391 1_554 S
C123 C124 1.399 . S
C124 C123 1.399 . S
C124 C125 1.396 . S
C124 C127 1.453 . S
C124 C128 1.684 . S
C125 C115 1.723 . S
C125 C124 1.396 . S
C125 C126 1.394 1_554 S
C126 C96 1.723 . S
C126 C122 1.397 . S
C126 C125 1.394 1_556 S
C127 H99 0.982 . S
C127 H103 0.979 . S
C127 H104 0.977 . S
C127 C124 1.453 . S
C128 H100 0.979 . S
C128 H101 0.980 . S
C128 H102 0.983 . S
C128 C124 1.684 . S
H129 C147 0.948 . S
H130 C88 0.948 . S
H131 C106 0.979 . S
H132 C106 0.980 . S
H133 C106 0.983 . S
H134 C105 0.982 . S
H135 C105 0.979 . S
H136 C105 0.977 . S
H137 C107 0.948 . S
H138 C109 0.947 . S
H139 C110 0.948 . S
H140 C116 0.982 . S
H141 C116 0.979 . S
H142 C116 0.977 1_556 S
H143 C117 0.979 . S
H144 C117 0.980 1_556 S
H145 C117 0.983 . S
H146 C90 0.947 . S
C147 C90 1.392 . S
C147 C91 1.419 . S
C147 H129 0.948 . S
C148 C149 1.391 . S
C148 C152 1.391 . S
C148 H190 0.948 . S
C149 C148 1.391 . S
C149 C150 1.391 . S
C150 C149 1.391 . S
C150 H206 0.947 . S
C150 C207 1.392 . S
C151 C152 1.391 . S
C151 C155 1.397 . S
C151 C207 1.419 . S
C152 C148 1.391 . S
C152 C151 1.391 . S
C152 C153 1.399 . S
C153 C152 1.399 . S
C153 C156 1.419 . S
C153 C165 1.453 . S
C153 C166 1.684 . S
H154 C178 0.948 . S
C155 C151 1.397 . S
C155 C156 1.399 . S
C155 C174 1.723 1_455 S
C156 C153 1.419 . S
C156 C155 1.399 . S
C156 C186 1.696 1_455 S
H157 C180 0.947 . S
H158 C181 0.948 . S
H159 C187 0.982 . S
H160 C188 0.979 . S
H161 C188 0.980 . S
H162 C188 0.983 . S
H163 C187 0.979 . S
H164 C187 0.977 . S
C165 C153 1.453 . S
C165 H194 0.982 . S
C165 H195 0.979 . S
C165 H196 0.977 . S
C166 C153 1.684 . S
C166 H191 0.979 . S
C166 H192 0.980 . S
C166 H193 0.983 . S
C167 C168 1.391 . S
C167 C172 1.391 . S
C167 H197 0.948 . S
C168 C167 1.391 . S
C168 C169 1.391 . S
C169 C168 1.391 . S
C169 C170 1.392 . S
C169 H198 0.947 . S
C170 C169 1.392 . S
C170 C171 1.419 . S
C170 H199 0.948 . S
C171 C170 1.419 . S
C171 C172 1.391 . S
C171 C175 1.397 . S
C172 C167 1.391 . S
C172 C171 1.391 . S
C172 C173 1.399 . S
C173 C172 1.399 . S
C173 C174 1.396 . S
C173 C176 1.453 1_655 S
C173 C177 1.684 . S
C174 C155 1.723 1_655 S
C174 C173 1.396 . S
C174 C175 1.394 . S
C175 C171 1.397 . S
C175 C174 1.394 . S
C175 C185 1.723 . S
C176 C173 1.453 1_455 S
C176 H200 0.982 . S
C176 H201 0.979 . S
C176 H202 0.977 . S
C177 C173 1.684 . S
C177 H203 0.979 . S
C177 H204 0.980 1_655 S
C177 H205 0.983 . S
C178 H154 0.948 . S
C178 C179 1.391 . S
C178 C183 1.391 . S
C179 C178 1.391 . S
C179 C180 1.391 . S
C180 H157 0.947 . S
C180 C179 1.391 . S
C180 C181 1.392 . S
C181 H158 0.948 . S
C181 C180 1.392 . S
C181 C182 1.419 . S
C182 C181 1.419 . S
C182 C183 1.391 . S
C182 C186 1.397 . S
C183 C178 1.391 . S
C183 C182 1.391 . S
C183 C184 1.399 . S
C184 C183 1.399 . S
C184 C185 1.396 . S
C184 C187 1.453 . S
C184 C188 1.684 . S
C185 C175 1.723 . S
C185 C184 1.396 . S
C185 C186 1.394 . S
C186 C156 1.696 1_655 S
C186 C182 1.397 . S
C186 C185 1.394 . S
C187 H159 0.982 . S
C187 H163 0.979 . S
C187 H164 0.977 . S
C187 C184 1.453 . S
C188 H160 0.979 . S
C188 H161 0.980 . S
C188 H162 0.983 . S
C188 C184 1.684 . S
H189 C207 0.948 . S
H190 C148 0.948 . S
H191 C166 0.979 . S
H192 C166 0.980 . S
H193 C166 0.983 . S
H194 C165 0.982 . S
H195 C165 0.979 . S
H196 C165 0.977 . S
H197 C167 0.948 . S
H198 C169 0.947 . S
H199 C170 0.948 . S
H200 C176 0.982 . S
H201 C176 0.979 . S
H202 C176 0.977 . S
H203 C177 0.979 . S
H204 C177 0.980 1_455 S
H205 C177 0.983 . S
H206 C150 0.947 . S
C207 C150 1.392 . S
C207 C151 1.419 . S
C207 H189 0.948 . S
C208 C209 1.391 . S
C208 C212 1.391 . S
C208 H250 0.948 . S
C209 C208 1.391 . S
C209 C210 1.391 . S
C210 C209 1.391 . S
C210 H266 0.947 . S
C210 C267 1.392 . S
C211 C212 1.391 . S
C211 C215 1.397 . S
C211 C267 1.419 . S
C212 C208 1.391 . S
C212 C211 1.391 . S
C212 C213 1.399 . S
C213 C212 1.399 . S
C213 C216 1.396 . S
C213 C225 1.453 . S
C213 C226 1.684 . S
H214 C238 0.948 . S
C215 C211 1.397 . S
C215 C216 1.394 . S
C215 C234 1.723 1_554 S
C216 C213 1.396 . S
C216 C215 1.394 . S
C216 C246 1.723 . S
H217 C240 0.947 . S
H218 C241 0.948 . S
H219 C247 0.982 . S
H220 C248 0.979 . S
H221 C248 0.980 . S
H222 C248 0.983 . S
H223 C247 0.979 . S
H224 C247 0.977 . S
C225 C213 1.453 . S
C225 H254 0.982 . S
C225 H255 0.979 . S
C225 H256 0.977 . S
C226 C213 1.684 . S
C226 H251 0.979 . S
C226 H252 0.980 . S
C226 H253 0.983 . S
C227 C228 1.391 . S
C227 C232 1.391 . S
C227 H257 0.948 . S
C228 C227 1.391 . S
C228 C229 1.391 . S
C229 C228 1.391 . S
C229 C230 1.392 . S
C229 H258 0.947 . S
C230 C229 1.392 . S
C230 C231 1.419 . S
C230 H259 0.948 . S
C231 C230 1.419 . S
C231 C232 1.391 . S
C231 C235 1.397 . S
C232 C227 1.391 . S
C232 C231 1.391 . S
C232 C233 1.399 . S
C233 C232 1.399 . S
C233 C234 1.396 . S
C233 C236 1.453 . S
C233 C237 1.684 . S
C234 C215 1.723 1_556 S
C234 C233 1.396 . S
C234 C235 1.394 . S
C235 C231 1.397 . S
C235 C234 1.394 . S
C235 C245 1.723 . S
C236 C233 1.453 . S
C236 H260 0.982 . S
C236 H261 0.979 . S
C236 H262 0.977 1_556 S
C237 C233 1.684 . S
C237 H263 0.979 . S
C237 H264 0.980 1_556 S
C237 H265 0.983 . S
C238 H214 0.948 . S
C238 C239 1.391 1_556 S
C238 C243 1.391 . S
C239 C238 1.391 1_554 S
C239 C240 1.391 . S
C240 H217 0.947 . S
C240 C239 1.391 . S
C240 C241 1.392 . S
C241 H218 0.948 . S
C241 C240 1.392 . S
C241 C242 1.419 . S
C242 C241 1.419 . S
C242 C243 1.391 1_554 S
C242 C246 1.397 . S
C243 C238 1.391 . S
C243 C242 1.391 1_556 S
C243 C244 1.399 . S
C244 C243 1.399 . S
C244 C245 1.396 . S
C244 C247 1.453 . S
C244 C248 1.684 . S
C245 C235 1.723 . S
C245 C244 1.396 . S
C245 C246 1.394 1_556 S
C246 C216 1.723 . S
C246 C242 1.397 . S
C246 C245 1.394 1_554 S
C247 H219 0.982 . S
C247 H223 0.979 . S
C247 H224 0.977 . S
C247 C244 1.453 . S
C248 H220 0.979 . S
C248 H221 0.980 . S
C248 H222 0.983 . S
C248 C244 1.684 . S
H249 C267 0.948 . S
H250 C208 0.948 . S
H251 C226 0.979 . S
H252 C226 0.980 . S
H253 C226 0.983 . S
H254 C225 0.982 . S
H255 C225 0.979 . S
H256 C225 0.977 . S
H257 C227 0.948 . S
H258 C229 0.947 . S
H259 C230 0.948 . S
H260 C236 0.982 . S
H261 C236 0.979 . S
H262 C236 0.977 1_554 S
H263 C237 0.979 . S
H264 C237 0.980 1_554 S
H265 C237 0.983 . S
H266 C210 0.947 . S
C267 C210 1.392 . S
C267 C211 1.419 . S
C267 H249 0.948 . S
C268 C269 1.391 . S
C268 C272 1.391 . S
C268 H310 0.948 . S
C269 C268 1.391 . S
C269 C270 1.391 . S
C270 C269 1.391 . S
C270 H326 0.947 . S
C270 C327 1.392 . S
C271 C272 1.391 . S
C271 C275 1.397 . S
C271 C327 1.419 . S
C272 C268 1.391 . S
C272 C271 1.391 . S
C272 C273 1.399 . S
C273 C272 1.399 . S
C273 C276 1.396 . S
C273 C285 1.453 1_455 S
C273 C286 1.684 . S
H274 C298 0.948 . S
C275 C271 1.397 . S
C275 C276 1.394 . S
C275 C294 1.723 . S
C276 C273 1.396 . S
C276 C275 1.394 . S
C276 C306 1.723 1_455 S
H277 C300 0.947 . S
H278 C301 0.948 . S
H279 C307 0.982 . S
H280 C308 0.979 . S
H281 C308 0.980 . S
H282 C308 0.983 . S
H283 C307 0.979 . S
H284 C307 0.977 . S
C285 C273 1.453 1_655 S
C285 H314 0.976 1_655 S
C285 H315 0.979 . S
C285 H316 0.977 . S
C286 C273 1.684 . S
C286 H311 0.979 . S
C286 H312 0.980 1_455 S
C286 H313 0.983 . S
C287 C288 1.391 . S
C287 C292 1.391 . S
C287 H317 0.948 . S
C288 C287 1.391 . S
C288 C289 1.391 . S
C289 C288 1.391 . S
C289 C290 1.392 . S
C289 H318 0.947 . S
C290 C289 1.392 . S
C290 C291 1.419 . S
C290 H319 0.948 . S
C291 C290 1.419 . S
C291 C292 1.391 . S
C291 C295 1.397 . S
C292 C287 1.391 . S
C292 C291 1.391 . S
C292 C293 1.399 . S
C293 C292 1.399 . S
C293 C294 1.396 . S
C293 C296 1.453 . S
C293 C297 1.684 . S
C294 C275 1.723 . S
C294 C293 1.396 . S
C294 C295 1.394 . S
C295 C291 1.397 . S
C295 C294 1.394 . S
C295 C305 1.732 . S
C296 C293 1.453 . S
C296 H320 0.982 . S
C296 H321 0.979 . S
C296 H322 0.977 . S
C297 C293 1.684 . S
C297 H323 0.979 . S
C297 H324 0.980 . S
C297 H325 0.983 . S
C298 H274 0.948 . S
C298 C299 1.391 . S
C298 C303 1.391 . S
C299 C298 1.391 . S
C299 C300 1.391 . S
C300 H277 0.947 . S
C300 C299 1.391 . S
C300 C301 1.392 . S
C301 H278 0.948 . S
C301 C300 1.392 . S
C301 C302 1.419 . S
C302 C301 1.419 . S
C302 C303 1.391 . S
C302 C306 1.397 . S
C303 C298 1.391 . S
C303 C302 1.391 . S
C303 C304 1.399 . S
C304 C303 1.399 . S
C304 C305 1.389 1_655 S
C304 C307 1.453 . S
C304 C308 1.684 . S
C305 C295 1.732 . S
C305 C304 1.389 1_455 S
C305 C306 1.393 1_455 S
C306 C276 1.723 1_655 S
C306 C302 1.397 . S
C306 C305 1.393 1_655 S
C307 H279 0.982 . S
C307 H283 0.979 . S
C307 H284 0.977 . S
C307 C304 1.453 . S
C308 H280 0.979 . S
C308 H281 0.980 . S
C308 H282 0.983 . S
C308 C304 1.684 . S
H309 C327 0.948 . S
H310 C268 0.948 . S
H311 C286 0.979 . S
H312 C286 0.980 1_655 S
H313 C286 0.983 . S
H314 C285 0.976 1_455 S
H315 C285 0.979 . S
H316 C285 0.977 . S
H317 C287 0.948 . S
H318 C289 0.947 . S
H319 C290 0.948 . S
H320 C296 0.982 . S
H321 C296 0.979 . S
H322 C296 0.977 . S
H323 C297 0.979 . S
H324 C297 0.980 . S
H325 C297 0.983 . S
H326 C270 0.947 . S
C327 C270 1.392 . S
C327 C271 1.419 . S
C327 H309 0.948 . S
C328 C329 1.391 . S
C328 C332 1.391 . S
C328 H370 0.948 . S
C329 C328 1.391 . S
C329 C330 1.391 . S
C330 C329 1.391 . S
C330 H386 0.947 . S
C330 C387 1.392 . S
C331 C332 1.391 . S
C331 C335 1.397 . S
C331 C387 1.419 . S
C332 C328 1.391 . S
C332 C331 1.391 . S
C332 C333 1.399 . S
C333 C332 1.399 . S
C333 C336 1.396 . S
C333 C345 1.453 1_565 S
C333 C346 1.684 1_565 S
H334 C358 0.948 . S
C335 C331 1.397 . S
C335 C336 1.394 . S
C335 C354 1.723 . S
C336 C333 1.396 . S
C336 C335 1.394 . S
C336 C366 1.723 1_565 S
H337 C360 0.947 . S
H338 C361 0.948 . S
H339 C367 0.982 . S
H340 C368 0.979 . S
H341 C368 0.980 . S
H342 C368 0.983 . S
H343 C367 0.979 . S
H344 C367 0.977 . S
C345 C333 1.453 1_545 S
C345 H374 0.982 . S
C345 H375 0.979 . S
C345 H376 0.977 . S
C346 C333 1.684 1_545 S
C346 H371 0.979 . S
C346 H372 0.980 . S
C346 H373 0.983 . S
C347 C348 1.391 . S
C347 C352 1.391 . S
C347 H377 0.948 . S
C348 C347 1.391 . S
C348 C349 1.391 . S
C349 C348 1.391 . S
C349 C350 1.392 . S
C349 H378 0.947 . S
C350 C349 1.392 . S
C350 C351 1.419 . S
C350 H379 0.906 1_565 S
C351 C350 1.419 . S
C351 C352 1.391 . S
C351 C355 1.397 . S
C352 C347 1.391 . S
C352 C351 1.391 . S
C352 C353 1.399 . S
C353 C352 1.399 . S
C353 C354 1.396 . S
C353 C356 1.453 . S
C353 C357 1.684 . S
C354 C335 1.723 . S
C354 C353 1.396 . S
C354 C355 1.394 . S
C355 C351 1.397 . S
C355 C354 1.394 . S
C355 C365 1.723 1_565 S
C356 C353 1.453 . S
C356 H380 0.982 . S
C356 H381 0.979 . S
C356 H382 0.977 . S
C357 C353 1.684 . S
C357 H383 0.979 . S
C357 H384 0.980 . S
C357 H385 0.983 . S
C358 H334 0.948 . S
C358 C359 1.391 . S
C358 C363 1.391 . S
C359 C358 1.391 . S
C359 C360 1.391 . S
C360 H337 0.947 . S
C360 C359 1.391 . S
C360 C361 1.392 . S
C361 H338 0.948 . S
C361 C360 1.392 . S
C361 C362 1.419 . S
C362 C361 1.419 . S
C362 C363 1.391 . S
C362 C366 1.397 . S
C363 C358 1.391 . S
C363 C362 1.391 . S
C363 C364 1.399 . S
C364 C363 1.399 . S
C364 C365 1.396 . S
C364 C367 1.453 . S
C364 C368 1.684 . S
C365 C355 1.723 1_545 S
C365 C364 1.396 . S
C365 C366 1.394 . S
C366 C336 1.723 1_545 S
C366 C362 1.397 . S
C366 C365 1.394 . S
C367 H339 0.982 . S
C367 H343 0.979 . S
C367 H344 0.977 . S
C367 C364 1.453 . S
C368 H340 0.979 . S
C368 H341 0.980 . S
C368 H342 0.983 . S
C368 C364 1.684 . S
H369 C387 0.948 . S
H370 C328 0.948 . S
H371 C346 0.979 . S
H372 C346 0.980 . S
H373 C346 0.983 . S
H374 C345 0.982 . S
H375 C345 0.979 . S
H376 C345 0.977 . S
H377 C347 0.948 . S
H378 C349 0.947 . S
H379 C350 0.906 1_545 S
H380 C356 0.982 . S
H381 C356 0.979 . S
H382 C356 0.977 . S
H383 C357 0.979 . S
H384 C357 0.980 . S
H385 C357 0.983 . S
H386 C330 0.947 . S
C387 C330 1.392 . S
C387 C331 1.419 . S
C387 H369 0.948 . S
C388 C389 1.391 . S
C388 C392 1.391 . S
C388 H430 0.948 . S
C389 C388 1.391 . S
C389 C390 1.391 . S
C390 C389 1.391 . S
C390 H446 0.947 . S
C390 C447 1.392 . S
C391 C392 1.391 . S
C391 C395 1.397 . S
C391 C447 1.419 . S
C392 C388 1.391 . S
C392 C391 1.391 . S
C392 C393 1.399 . S
C393 C392 1.399 . S
C393 C396 1.396 . S
C393 C405 1.453 . S
C393 C406 1.684 . S
H394 C418 0.948 . S
C395 C391 1.397 . S
C395 C396 1.394 . S
C395 C414 1.723 1_554 S
C396 C393 1.396 . S
C396 C395 1.394 . S
C396 C426 1.723 . S
H397 C420 0.947 . S
H398 C421 0.948 . S
H399 C427 0.982 . S
H400 C428 0.979 . S
H401 C428 0.980 . S
H402 C428 0.983 . S
H403 C427 0.979 . S
H404 C427 0.977 . S
C405 C393 1.453 . S
C405 H434 0.982 . S
C405 H435 0.979 . S
C405 H436 0.977 . S
C406 C393 1.684 . S
C406 H431 0.979 . S
C406 H432 0.980 . S
C406 H433 0.983 . S
C407 C408 1.391 . S
C407 C412 1.391 . S
C407 H437 0.948 . S
C408 C407 1.391 . S
C408 C409 1.391 . S
C409 C408 1.391 . S
C409 C410 1.392 . S
C409 H438 0.947 . S
C410 C409 1.392 . S
C410 C411 1.419 . S
C410 H439 0.948 . S
C411 C410 1.419 . S
C411 C412 1.391 . S
C411 C415 1.397 . S
C412 C407 1.391 . S
C412 C411 1.391 . S
C412 C413 1.399 . S
C413 C412 1.399 . S
C413 C414 1.396 . S
C413 C416 1.453 . S
C413 C417 1.684 . S
C414 C395 1.723 1_556 S
C414 C413 1.396 . S
C414 C415 1.394 . S
C415 C411 1.397 . S
C415 C414 1.394 . S
C415 C425 1.723 . S
C416 C413 1.453 . S
C416 H440 0.982 . S
C416 H441 0.979 . S
C416 H442 0.977 1_556 S
C417 C413 1.684 . S
C417 H443 0.979 . S
C417 H444 0.980 1_556 S
C417 H445 0.983 . S
C418 H394 0.948 . S
C418 C419 1.391 1_556 S
C418 C423 1.391 . S
C419 C418 1.391 1_554 S
C419 C420 1.391 . S
C420 H397 0.947 . S
C420 C419 1.391 . S
C420 C421 1.392 . S
C421 H398 0.948 . S
C421 C420 1.392 . S
C421 C422 1.419 . S
C422 C421 1.419 . S
C422 C423 1.391 1_554 S
C422 C426 1.397 . S
C423 C418 1.391 . S
C423 C422 1.391 1_556 S
C423 C424 1.399 . S
C424 C423 1.399 . S
C424 C425 1.396 . S
C424 C427 1.453 . S
C424 C428 1.684 . S
C425 C415 1.723 . S
C425 C424 1.396 . S
C425 C426 1.394 1_556 S
C426 C396 1.723 . S
C426 C422 1.397 . S
C426 C425 1.394 1_554 S
C427 H399 0.982 . S
C427 H403 0.979 . S
C427 H404 0.977 . S
C427 C424 1.453 . S
C428 H400 0.979 . S
C428 H401 0.980 . S
C428 H402 0.983 . S
C428 C424 1.684 . S
H429 C447 0.948 . S
H430 C388 0.948 . S
H431 C406 0.979 . S
H432 C406 0.980 . S
H433 C406 0.983 . S
H434 C405 0.982 . S
H435 C405 0.979 . S
H436 C405 0.977 . S
H437 C407 0.948 . S
H438 C409 0.947 . S
H439 C410 0.948 . S
H440 C416 0.982 . S
H441 C416 0.979 . S
H442 C416 0.977 1_554 S
H443 C417 0.979 . S
H444 C417 0.980 1_554 S
H445 C417 0.983 . S
H446 C390 0.947 . S
C447 C390 1.392 . S
C447 C391 1.419 . S
C447 H429 0.948 . S
C448 C449 1.391 . S
C448 C452 1.391 . S
C448 H490 0.948 . S
C449 C448 1.391 . S
C449 C450 1.391 . S
C450 C449 1.391 . S
C450 H506 0.947 . S
C450 C507 1.392 . S
C451 C452 1.391 . S
C451 C455 1.397 . S
C451 C507 1.419 . S
C452 C448 1.391 . S
C452 C451 1.391 . S
C452 C453 1.399 . S
C453 C452 1.399 . S
C453 C456 1.396 . S
C453 C465 1.453 1_545 S
C453 C466 1.684 1_545 S
H454 C478 0.948 . S
C455 C451 1.397 . S
C455 C456 1.394 . S
C455 C474 1.723 . S
C456 C453 1.396 . S
C456 C455 1.394 . S
C456 C486 1.723 1_545 S
H457 C480 0.947 . S
H458 C481 0.948 . S
H459 C487 0.982 . S
H460 C488 0.979 . S
H461 C488 0.980 . S
H462 C488 0.983 . S
H463 C487 0.979 . S
H464 C487 0.977 . S
C465 C453 1.453 1_565 S
C465 H494 0.982 1_565 S
C465 H495 0.979 . S
C465 H496 0.977 . S
C466 C453 1.684 1_565 S
C466 H491 0.979 . S
C466 H492 0.980 . S
C466 H493 0.983 . S
C467 C468 1.391 . S
C467 C472 1.391 . S
C467 H497 0.948 . S
C468 C467 1.391 . S
C468 C469 1.391 . S
C469 C468 1.391 . S
C469 C470 1.392 . S
C469 H498 0.947 . S
C470 C469 1.392 . S
C470 C471 1.419 . S
C470 H499 0.948 . S
C471 C470 1.419 . S
C471 C472 1.391 . S
C471 C475 1.397 . S
C472 C467 1.391 . S
C472 C471 1.391 . S
C472 C473 1.399 . S
C473 C472 1.399 . S
C473 C474 1.396 . S
C473 C476 1.453 . S
C473 C477 1.684 . S
C474 C455 1.723 . S
C474 C473 1.396 . S
C474 C475 1.394 . S
C475 C471 1.397 . S
C475 C474 1.394 . S
C475 C485 1.723 1_545 S
C476 C473 1.453 . S
C476 H500 0.982 . S
C476 H501 0.979 . S
C476 H502 0.977 . S
C477 C473 1.684 . S
C477 H503 0.979 . S
C477 H504 0.980 . S
C477 H505 0.983 . S
C478 H454 0.948 . S
C478 C479 1.391 . S
C478 C483 1.391 . S
C479 C478 1.391 . S
C479 C480 1.391 . S
C480 H457 0.947 . S
C480 C479 1.391 . S
C480 C481 1.392 . S
C481 H458 0.948 . S
C481 C480 1.392 . S
C481 C482 1.419 . S
C482 C481 1.419 . S
C482 C483 1.391 . S
C482 C486 1.397 . S
C483 C478 1.391 . S
C483 C482 1.391 . S
C483 C484 1.399 . S
C484 C483 1.399 . S
C484 C485 1.396 . S
C484 C487 1.453 . S
C484 C488 1.684 . S
C485 C475 1.723 1_565 S
C485 C484 1.396 . S
C485 C486 1.394 . S
C486 C456 1.723 1_565 S
C486 C482 1.397 . S
C486 C485 1.394 . S
C487 H459 0.982 . S
C487 H463 0.979 . S
C487 H464 0.977 . S
C487 C484 1.453 . S
C488 H460 0.979 . S
C488 H461 0.980 . S
C488 H462 0.983 . S
C488 C484 1.684 . S
H489 C507 0.948 . S
H490 C448 0.948 . S
H491 C466 0.979 . S
H492 C466 0.980 . S
H493 C466 0.983 . S
H494 C465 0.982 1_545 S
H495 C465 0.979 . S
H496 C465 0.977 . S
H497 C467 0.948 . S
H498 C469 0.947 . S
H499 C470 0.948 . S
H500 C476 0.982 . S
H501 C476 0.979 . S
H502 C476 0.977 . S
H503 C477 0.979 . S
H504 C477 0.980 . S
H505 C477 0.983 . S
H506 C450 0.947 . S
C507 C450 1.392 . S
C507 C451 1.419 . S
C507 H489 0.948 . S
C508 C509 1.391 1_554 S
C508 C512 1.391 . S
C508 H550 0.948 . S
C509 C508 1.391 1_556 S
C509 C510 1.391 . S
C510 C509 1.391 . S
C510 H566 0.947 . S
C510 C567 1.392 . S
C511 C512 1.391 1_556 S
C511 C515 1.397 . S
C511 C567 1.419 . S
C512 C508 1.391 . S
C512 C511 1.391 1_554 S
C512 C513 1.399 . S
C513 C512 1.399 . S
C513 C516 1.396 . S
C513 C525 1.453 . S
C513 C526 1.684 . S
H514 C538 0.948 . S
C515 C511 1.397 . S
C515 C516 1.394 1_556 S
C515 C534 1.723 . S
C516 C513 1.396 . S
C516 C515 1.394 1_554 S
C516 C546 1.723 . S
H517 C540 0.947 . S
H518 C541 0.948 . S
H519 C547 0.982 . S
H520 C548 0.979 . S
H521 C548 0.980 1_556 S
H522 C548 0.983 . S
H523 C547 0.979 . S
H524 C547 0.977 1_556 S
C525 C513 1.453 . S
C525 H554 0.982 . S
C525 H555 0.979 . S
C525 H556 0.977 . S
C526 C513 1.684 . S
C526 H551 0.979 . S
C526 H552 0.980 . S
C526 H553 0.983 . S
C527 C528 1.391 . S
C527 C532 1.391 . S
C527 H557 0.948 . S
C528 C527 1.391 . S
C528 C529 1.391 . S
C529 C528 1.391 . S
C529 C530 1.392 . S
C529 H558 0.947 . S
C530 C529 1.392 . S
C530 C531 1.419 . S
C530 H559 0.948 . S
C531 C530 1.419 . S
C531 C532 1.391 . S
C531 C535 1.397 . S
C532 C527 1.391 . S
C532 C531 1.391 . S
C532 C533 1.399 . S
C533 C532 1.399 . S
C533 C534 1.396 . S
C533 C536 1.453 . S
C533 C537 1.684 . S
C534 C515 1.723 . S
C534 C533 1.396 . S
C534 C535 1.394 . S
C535 C531 1.397 . S
C535 C534 1.394 . S
C535 C545 1.723 1_556 S
C536 C533 1.453 . S
C536 H560 0.982 . S
C536 H561 0.979 . S
C536 H562 0.977 . S
C537 C533 1.684 . S
C537 H563 0.979 . S
C537 H564 0.980 . S
C537 H565 0.983 . S
C538 H514 0.948 . S
C538 C539 1.391 . S
C538 C543 1.391 . S
C539 C538 1.391 . S
C539 C540 1.391 . S
C540 H517 0.947 . S
C540 C539 1.391 . S
C540 C541 1.392 . S
C541 H518 0.948 . S
C541 C540 1.392 . S
C541 C542 1.419 . S
C542 C541 1.419 . S
C542 C543 1.391 . S
C542 C546 1.397 . S
C543 C538 1.391 . S
C543 C542 1.391 . S
C543 C544 1.399 . S
C544 C543 1.399 . S
C544 C545 1.396 . S
C544 C547 1.453 . S
C544 C548 1.684 . S
C545 C535 1.723 1_554 S
C545 C544 1.396 . S
C545 C546 1.394 . S
C546 C516 1.723 . S
C546 C542 1.397 . S
C546 C545 1.394 . S
C547 H519 0.982 . S
C547 H523 0.979 . S
C547 H524 0.977 1_554 S
C547 C544 1.453 . S
C548 H520 0.979 . S
C548 H521 0.980 1_554 S
C548 H522 0.983 . S
C548 C544 1.684 . S
H549 C567 0.948 . S
H550 C508 0.948 . S
H551 C526 0.979 . S
H552 C526 0.980 . S
H553 C526 0.983 . S
H554 C525 0.982 . S
H555 C525 0.979 . S
H556 C525 0.977 . S
H557 C527 0.948 . S
H558 C529 0.947 . S
H559 C530 0.948 . S
H560 C536 0.982 . S
H561 C536 0.979 . S
H562 C536 0.977 . S
H563 C537 0.979 . S
H564 C537 0.980 . S
H565 C537 0.983 . S
H566 C510 0.947 . S
C567 C510 1.392 . S
C567 C511 1.419 . S
C567 H549 0.948 . S
H568 C576 0.950 . S
H569 C581 0.950 . S
H570 C578 0.950 . S
H571 C580 0.950 . S
H572 C582 0.950 . S
H573 C584 0.950 . S
H574 C586 0.950 . S
H575 C587 0.950 . S
C576 H568 0.950 . S
C576 C577 1.386 . S
C576 C578 1.391 . S
C577 C576 1.386 . S
C577 C581 1.393 . S
C578 H570 0.950 . S
C578 C576 1.391 . S
C578 C579 1.400 . S
C579 C578 1.400 . S
C579 C580 1.398 . S
C579 C585 1.491 . S
C580 H571 0.950 . S
C580 C579 1.398 . S
C580 C581 1.391 . S
C581 H569 0.950 . S
C581 C577 1.393 . S
C581 C580 1.391 . S
C582 H572 0.950 . S
C582 C583 1.386 . S
C582 C584 1.391 . S
C583 C582 1.386 . S
C583 C587 1.393 . S
C584 H573 0.950 . S
C584 C582 1.391 . S
C584 C585 1.400 . S
C585 C579 1.491 . S
C585 C584 1.400 . S
C585 C586 1.398 . S
C586 H574 0.950 . S
C586 C585 1.398 . S
C586 C587 1.391 . S
C587 H575 0.950 . S
C587 C583 1.393 . S
C587 C586 1.391 . S
H588 C596 0.950 . S
H589 C601 0.950 . S
H590 C598 0.950 . S
H591 C600 0.950 . S
H592 C602 0.950 . S
H593 C604 0.950 . S
H594 C606 0.950 . S
H595 C607 0.950 . S
C596 H588 0.950 . S
C596 C597 1.386 . S
C596 C598 1.391 . S
C597 C596 1.386 . S
C597 C601 1.393 . S
C598 H590 0.950 . S
C598 C596 1.391 . S
C598 C599 1.400 . S
C599 C598 1.400 . S
C599 C600 1.398 . S
C599 C605 1.491 . S
C600 H591 0.950 . S
C600 C599 1.398 . S
C600 C601 1.391 . S
C601 H589 0.950 . S
C601 C597 1.393 . S
C601 C600 1.391 . S
C602 H592 0.950 . S
C602 C603 1.386 . S
C602 C604 1.391 . S
C603 C602 1.386 . S
C603 C607 1.393 . S
C604 H593 0.950 . S
C604 C602 1.391 . S
C604 C605 1.400 . S
C605 C599 1.491 . S
C605 C604 1.400 . S
C605 C606 1.398 . S
C606 H594 0.950 . S
C606 C605 1.398 . S
C606 C607 1.391 . S
C607 H595 0.950 . S
C607 C603 1.393 . S
C607 C606 1.391 . S
H608 C616 0.950 . S
H609 C621 0.950 . S
H610 C618 0.950 . S
H611 C620 0.950 . S
H612 C622 0.950 . S
H613 C624 0.950 . S
H614 C626 0.950 . S
H615 C627 0.950 . S
C616 H608 0.950 . S
C616 C617 1.386 . S
C616 C618 1.391 . S
C617 C616 1.386 . S
C617 C621 1.393 . S
C618 H610 0.950 . S
C618 C616 1.391 . S
C618 C619 1.400 . S
C619 C618 1.400 . S
C619 C620 1.398 . S
C619 C625 1.491 . S
C620 H611 0.950 . S
C620 C619 1.398 . S
C620 C621 1.391 . S
C621 H609 0.950 . S
C621 C617 1.393 . S
C621 C620 1.391 . S
C622 H612 0.950 . S
C622 C623 1.386 . S
C622 C624 1.391 . S
C623 C622 1.386 . S
C623 C627 1.393 . S
C624 H613 0.950 . S
C624 C622 1.391 . S
C624 C625 1.400 . S
C625 C619 1.491 . S
C625 C624 1.400 . S
C625 C626 1.398 . S
C626 H614 0.950 . S
C626 C625 1.398 . S
C626 C627 1.391 . S
C627 H615 0.950 . S
C627 C623 1.393 . S
C627 C626 1.391 . S
H628 C636 0.950 . S
H629 C641 0.950 . S
H630 C638 0.950 . S
H631 C640 0.950 . S
H632 C642 0.950 . S
H633 C644 0.950 . S
H634 C646 0.950 . S
H635 C647 0.950 . S
C636 H628 0.950 . S
C636 C637 1.386 . S
C636 C638 1.391 . S
C637 C636 1.386 . S
C637 C641 1.393 . S
C638 H630 0.950 . S
C638 C636 1.391 . S
C638 C639 1.400 . S
C639 C638 1.400 . S
C639 C640 1.398 . S
C639 C645 1.491 . S
C640 H631 0.950 . S
C640 C639 1.398 . S
C640 C641 1.391 . S
C641 H629 0.950 . S
C641 C637 1.393 . S
C641 C640 1.391 . S
C642 H632 0.950 . S
C642 C643 1.386 . S
C642 C644 1.391 . S
C643 C642 1.386 . S
C643 C647 1.393 . S
C644 H633 0.950 . S
C644 C642 1.391 . S
C644 C645 1.400 . S
C645 C639 1.491 . S
C645 C644 1.400 . S
C645 C646 1.398 . S
C646 H634 0.950 . S
C646 C645 1.398 . S
C646 C647 1.391 . S
C647 H635 0.950 . S
C647 C643 1.393 . S
C647 C646 1.391 . S
H648 C656 0.950 . S
H649 C661 0.950 . S
H650 C658 0.950 . S
H651 C660 0.950 . S
H652 C662 0.950 . S
H653 C664 0.950 . S
H654 C666 0.950 . S
H655 C667 0.950 . S
C656 H648 0.950 . S
C656 C657 1.386 . S
C656 C658 1.391 . S
C657 C656 1.386 . S
C657 C661 1.393 . S
C658 H650 0.950 . S
C658 C656 1.391 . S
C658 C659 1.400 . S
C659 C658 1.400 . S
C659 C660 1.398 . S
C659 C665 1.491 . S
C660 H651 0.950 . S
C660 C659 1.398 . S
C660 C661 1.391 . S
C661 H649 0.950 . S
C661 C657 1.393 . S
C661 C660 1.391 . S
C662 H652 0.950 . S
C662 C663 1.386 . S
C662 C664 1.391 . S
C663 C662 1.386 . S
C663 C667 1.393 . S
C664 H653 0.950 . S
C664 C662 1.391 . S
C664 C665 1.400 . S
C665 C659 1.491 . S
C665 C664 1.400 . S
C665 C666 1.398 . S
C666 H654 0.950 . S
C666 C665 1.398 . S
C666 C667 1.391 . S
C667 H655 0.950 . S
C667 C663 1.393 . S
C667 C666 1.391 . S
H668 C676 0.950 . S
H669 C681 0.950 . S
H670 C678 0.950 . S
H671 C680 0.950 . S
H672 C682 0.950 . S
H673 C684 0.950 . S
H674 C686 0.950 . S
H675 C687 0.950 . S
C676 H668 0.950 . S
C676 C677 1.386 . S
C676 C678 1.391 . S
C677 C676 1.386 . S
C677 C681 1.393 . S
C678 H670 0.950 . S
C678 C676 1.391 . S
C678 C679 1.400 . S
C679 C678 1.400 . S
C679 C680 1.398 . S
C679 C685 1.491 . S
C680 H671 0.950 . S
C680 C679 1.398 . S
C680 C681 1.391 . S
C681 H669 0.950 . S
C681 C677 1.393 . S
C681 C680 1.391 . S
C682 H672 0.950 . S
C682 C683 1.386 . S
C682 C684 1.391 . S
C683 C682 1.386 . S
C683 C687 1.393 . S
C684 H673 0.950 . S
C684 C682 1.391 . S
C684 C685 1.400 . S
C685 C679 1.491 . S
C685 C684 1.400 . S
C685 C686 1.398 . S
C686 H674 0.950 . S
C686 C685 1.398 . S
C686 C687 1.391 . S
C687 H675 0.950 . S
C687 C683 1.393 . S
C687 C686 1.391 . S
H688 C696 0.950 . S
H689 C701 0.950 . S
H690 C698 0.950 . S
H691 C700 0.950 . S
H692 C702 0.950 . S
H693 C704 0.950 . S
H694 C706 0.950 . S
H695 C707 0.950 . S
C696 H688 0.950 . S
C696 C697 1.386 . S
C696 C698 1.391 . S
C697 C696 1.386 . S
C697 C701 1.393 . S
C698 H690 0.950 . S
C698 C696 1.391 . S
C698 C699 1.400 . S
C699 C698 1.400 . S
C699 C700 1.398 . S
C699 C705 1.491 . S
C700 H691 0.950 . S
C700 C699 1.398 . S
C700 C701 1.391 . S
C701 H689 0.950 . S
C701 C697 1.393 . S
C701 C700 1.391 . S
C702 H692 0.950 . S
C702 C703 1.386 . S
C702 C704 1.391 . S
C703 C702 1.386 . S
C703 C707 1.393 . S
C704 H693 0.950 . S
C704 C702 1.391 . S
C704 C705 1.400 . S
C705 C699 1.491 . S
C705 C704 1.400 . S
C705 C706 1.398 . S
C706 H694 0.950 . S
C706 C705 1.398 . S
C706 C707 1.391 . S
C707 H695 0.950 . S
C707 C703 1.393 . S
C707 C706 1.391 . S
H708 C716 0.950 . S
H709 C721 0.950 . S
H710 C718 0.950 . S
H711 C720 0.950 . S
H712 C722 0.950 . S
H713 C724 0.950 . S
H714 C726 0.950 . S
H715 C727 0.950 . S
C716 H708 0.950 . S
C716 C717 1.386 . S
C716 C718 1.391 . S
C717 C716 1.386 . S
C717 C721 1.393 . S
C718 H710 0.950 . S
C718 C716 1.391 . S
C718 C719 1.400 . S
C719 C718 1.400 . S
C719 C720 1.398 . S
C719 C725 1.491 . S
C720 H711 0.950 . S
C720 C719 1.398 . S
C720 C721 1.391 . S
C721 H709 0.950 . S
C721 C717 1.393 . S
C721 C720 1.391 . S
C722 H712 0.950 . S
C722 C723 1.386 . S
C722 C724 1.391 . S
C723 C722 1.386 . S
C723 C727 1.393 . S
C724 H713 0.950 . S
C724 C722 1.391 . S
C724 C725 1.400 . S
C725 C719 1.491 . S
C725 C724 1.400 . S
C725 C726 1.398 . S
C726 H714 0.950 . S
C726 C725 1.398 . S
C726 C727 1.391 . S
C727 H715 0.950 . S
C727 C723 1.393 . S
C727 C726 1.391 . S
H728 C736 0.950 . S
H729 C741 0.950 . S
H730 C738 0.950 . S
H731 C740 0.950 . S
H732 C742 0.950 . S
H733 C744 0.950 . S
H734 C746 0.950 . S
H735 C747 0.950 . S
C736 H728 0.950 . S
C736 C737 1.386 . S
C736 C738 1.391 . S
C737 C736 1.386 . S
C737 C741 1.393 . S
C738 H730 0.950 . S
C738 C736 1.391 . S
C738 C739 1.400 . S
C739 C738 1.400 . S
C739 C740 1.398 . S
C739 C745 1.491 . S
C740 H731 0.950 . S
C740 C739 1.398 . S
C740 C741 1.391 . S
C741 H729 0.950 . S
C741 C737 1.393 . S
C741 C740 1.391 . S
C742 H732 0.950 . S
C742 C743 1.386 . S
C742 C744 1.391 . S
C743 C742 1.386 . S
C743 C747 1.393 . S
C744 H733 0.950 . S
C744 C742 1.391 . S
C744 C745 1.400 . S
C745 C739 1.491 . S
C745 C744 1.400 . S
C745 C746 1.398 . S
C746 H734 0.950 . S
C746 C745 1.398 . S
C746 C747 1.391 . S
C747 H735 0.950 . S
C747 C743 1.393 . S
C747 C746 1.391 . S
H748 C756 0.950 . S
H749 C761 0.950 . S
H750 C758 0.950 . S
H751 C760 0.950 . S
H752 C762 0.950 . S
H753 C764 0.950 . S
H754 C766 0.950 . S
H755 C767 0.950 . S
C756 H748 0.950 . S
C756 C757 1.386 . S
C756 C758 1.391 . S
C757 C756 1.386 . S
C757 C761 1.393 . S
C758 H750 0.950 . S
C758 C756 1.391 . S
C758 C759 1.400 . S
C759 C758 1.400 . S
C759 C760 1.398 . S
C759 C765 1.491 . S
C760 H751 0.950 . S
C760 C759 1.398 . S
C760 C761 1.391 . S
C761 H749 0.950 . S
C761 C757 1.393 . S
C761 C760 1.391 . S
C762 H752 0.950 . S
C762 C763 1.386 . S
C762 C764 1.391 . S
C763 C762 1.386 . S
C763 C767 1.393 . S
C764 H753 0.950 . S
C764 C762 1.391 . S
C764 C765 1.400 . S
C765 C759 1.491 . S
C765 C764 1.400 . S
C765 C766 1.398 . S
C766 H754 0.950 . S
C766 C765 1.398 . S
C766 C767 1.391 . S
C767 H755 0.950 . S
C767 C763 1.393 . S
C767 C766 1.391 . S
H768 C776 0.950 . S
H769 C781 0.950 . S
H770 C778 0.950 . S
H771 C780 0.950 . S
H772 C782 0.950 . S
H773 C784 0.950 . S
H774 C786 0.950 . S
H775 C787 0.950 . S
C776 H768 0.950 . S
C776 C777 1.386 . S
C776 C778 1.391 . S
C777 C776 1.386 . S
C777 C781 1.393 . S
C778 H770 0.950 . S
C778 C776 1.391 . S
C778 C779 1.400 . S
C779 C778 1.400 . S
C779 C780 1.398 . S
C779 C785 1.491 . S
C780 H771 0.950 . S
C780 C779 1.398 . S
C780 C781 1.391 . S
C781 H769 0.950 . S
C781 C777 1.393 . S
C781 C780 1.391 . S
C782 H772 0.950 . S
C782 C783 1.386 . S
C782 C784 1.391 . S
C783 C782 1.386 . S
C783 C787 1.393 . S
C784 H773 0.950 . S
C784 C782 1.391 . S
C784 C785 1.400 . S
C785 C779 1.491 . S
C785 C784 1.400 . S
C785 C786 1.398 . S
C786 H774 0.950 . S
C786 C785 1.398 . S
C786 C787 1.391 . S
C787 H775 0.950 . S
C787 C783 1.393 . S
C787 C786 1.391 . S
H788 C796 0.950 . S
H789 C801 0.950 . S
H790 C798 0.950 . S
H791 C800 0.950 . S
H792 C802 0.950 . S
H793 C804 0.950 . S
H794 C806 0.950 . S
H795 C807 0.950 . S
C796 H788 0.950 . S
C796 C797 1.386 . S
C796 C798 1.391 . S
C797 C796 1.386 . S
C797 C801 1.393 . S
C798 H790 0.950 . S
C798 C796 1.391 . S
C798 C799 1.400 . S
C799 C798 1.400 . S
C799 C800 1.398 . S
C799 C805 1.491 . S
C800 H791 0.950 . S
C800 C799 1.398 . S
C800 C801 1.391 . S
C801 H789 0.950 . S
C801 C797 1.393 . S
C801 C800 1.391 . S
C802 H792 0.950 . S
C802 C803 1.386 . S
C802 C804 1.391 . S
C803 C802 1.386 . S
C803 C807 1.393 . S
C804 H793 0.950 . S
C804 C802 1.391 . S
C804 C805 1.400 . S
C805 C799 1.491 . S
C805 C804 1.400 . S
C805 C806 1.398 . S
C806 H794 0.950 . S
C806 C805 1.398 . S
C806 C807 1.391 . S
C807 H795 0.950 . S
C807 C803 1.393 . S
C807 C806 1.391 . S
H808 C816 0.950 . S
H809 C821 0.950 . S
H810 C818 0.950 . S
H811 C820 0.950 . S
H812 C822 0.950 . S
H813 C824 0.950 . S
H814 C826 0.950 . S
H815 C827 0.950 . S
C816 H808 0.950 . S
C816 C817 1.386 . S
C816 C818 1.391 . S
C817 C816 1.386 . S
C817 C821 1.393 . S
C818 H810 0.950 . S
C818 C816 1.391 . S
C818 C819 1.400 . S
C819 C818 1.400 . S
C819 C820 1.398 . S
C819 C825 1.491 . S
C820 H811 0.950 . S
C820 C819 1.398 . S
C820 C821 1.391 . S
C821 H809 0.950 . S
C821 C817 1.393 . S
C821 C820 1.391 . S
C822 H812 0.950 . S
C822 C823 1.386 . S
C822 C824 1.391 . S
C823 C822 1.386 . S
C823 C827 1.393 . S
C824 H813 0.950 . S
C824 C822 1.391 . S
C824 C825 1.400 . S
C825 C819 1.491 . S
C825 C824 1.400 . S
C825 C826 1.398 . S
C826 H814 0.950 . S
C826 C825 1.398 . S
C826 C827 1.391 . S
C827 H815 0.950 . S
C827 C823 1.393 . S
C827 C826 1.391 . S
H828 C836 0.950 . S
H829 C841 0.950 . S
H830 C838 0.950 . S
H831 C840 0.950 . S
H832 C842 0.950 . S
H833 C844 0.950 . S
H834 C846 0.950 . S
H835 C847 0.950 . S
C836 H828 0.950 . S
C836 C837 1.386 . S
C836 C838 1.391 . S
C837 C836 1.386 . S
C837 C841 1.393 . S
C838 H830 0.950 . S
C838 C836 1.391 . S
C838 C839 1.400 . S
C839 C838 1.400 . S
C839 C840 1.398 . S
C839 C845 1.491 . S
C840 H831 0.950 . S
C840 C839 1.398 . S
C840 C841 1.391 . S
C841 H829 0.950 . S
C841 C837 1.393 . S
C841 C840 1.391 . S
C842 H832 0.950 . S
C842 C843 1.386 . S
C842 C844 1.391 . S
C843 C842 1.386 . S
C843 C847 1.393 . S
C844 H833 0.950 . S
C844 C842 1.391 . S
C844 C845 1.400 . S
C845 C839 1.491 . S
C845 C844 1.400 . S
C845 C846 1.398 . S
C846 H834 0.950 . S
C846 C845 1.398 . S
C846 C847 1.391 . S
C847 H835 0.950 . S
C847 C843 1.393 . S
C847 C846 1.391 . S
H848 C856 0.950 . S
H849 C861 0.950 . S
H850 C858 0.950 . S
H851 C860 0.950 . S
H852 C862 0.950 . S
H853 C864 0.950 . S
H854 C866 0.950 . S
H855 C867 0.950 . S
C856 H848 0.950 . S
C856 C857 1.386 . S
C856 C858 1.391 . S
C857 C856 1.386 . S
C857 C861 1.393 . S
C858 H850 0.950 . S
C858 C856 1.391 . S
C858 C859 1.400 . S
C859 C858 1.400 . S
C859 C860 1.398 . S
C859 C865 1.491 . S
C860 H851 0.950 . S
C860 C859 1.398 . S
C860 C861 1.391 . S
C861 H849 0.950 . S
C861 C857 1.393 . S
C861 C860 1.391 . S
C862 H852 0.950 . S
C862 C863 1.386 . S
C862 C864 1.391 . S
C863 C862 1.386 . S
C863 C867 1.393 . S
C864 H853 0.950 . S
C864 C862 1.391 . S
C864 C865 1.400 . S
C865 C859 1.491 . S
C865 C864 1.400 . S
C865 C866 1.398 . S
C866 H854 0.950 . S
C866 C865 1.398 . S
C866 C867 1.391 . S
C867 H855 0.950 . S
C867 C863 1.393 . S
C867 C866 1.391 . S
H868 C876 0.950 . S
H869 C881 0.950 . S
H870 C878 0.950 . S
H871 C880 0.950 . S
H872 C882 0.950 . S
H873 C884 0.950 . S
H874 C886 0.950 . S
H875 C887 0.950 . S
C876 H868 0.950 . S
C876 C877 1.386 . S
C876 C878 1.391 . S
C877 C876 1.386 . S
C877 C881 1.393 . S
C878 H870 0.950 . S
C878 C876 1.391 . S
C878 C879 1.400 . S
C879 C878 1.400 . S
C879 C880 1.398 . S
C879 C885 1.491 . S
C880 H871 0.950 . S
C880 C879 1.398 . S
C880 C881 1.391 . S
C881 H869 0.950 . S
C881 C877 1.393 . S
C881 C880 1.391 . S
C882 H872 0.950 . S
C882 C883 1.386 . S
C882 C884 1.391 . S
C883 C882 1.386 . S
C883 C887 1.393 . S
C884 H873 0.950 . S
C884 C882 1.391 . S
C884 C885 1.400 . S
C885 C879 1.491 . S
C885 C884 1.400 . S
C885 C886 1.398 . S
C886 H874 0.950 . S
C886 C885 1.398 . S
C886 C887 1.391 . S
C887 H875 0.950 . S
C887 C883 1.393 . S
C887 C886 1.391 . S
H888 C896 0.950 . S
H889 C901 0.950 . S
H890 C898 0.950 . S
H891 C900 0.950 . S
H892 C902 0.950 . S
H893 C904 0.950 . S
H894 C906 0.950 . S
H895 C907 0.950 . S
C896 H888 0.950 . S
C896 C897 1.386 . S
C896 C898 1.391 . S
C897 C896 1.386 . S
C897 C901 1.393 . S
C898 H890 0.950 . S
C898 C896 1.391 . S
C898 C899 1.400 . S
C899 C898 1.400 . S
C899 C900 1.399 . S
C899 C905 1.490 1_556 S
C900 H891 0.950 . S
C900 C899 1.399 . S
C900 C901 1.391 . S
C901 H889 0.950 . S
C901 C897 1.393 . S
C901 C900 1.391 . S
C902 H892 0.950 . S
C902 C903 1.386 . S
C902 C904 1.391 . S
C903 C902 1.386 . S
C903 C907 1.393 . S
C904 H893 0.950 . S
C904 C902 1.391 . S
C904 C905 1.400 . S
C905 C899 1.490 1_554 S
C905 C904 1.400 . S
C905 C906 1.398 . S
C906 H894 0.950 . S
C906 C905 1.398 . S
C906 C907 1.391 . S
C907 H895 0.950 . S
C907 C903 1.393 . S
C907 C906 1.391 . S
H908 C916 0.950 . S
H909 C921 0.950 . S
H910 C918 0.950 . S
H911 C920 0.950 . S
H912 C922 0.950 . S
H913 C924 0.950 . S
H914 C926 0.950 . S
H915 C927 0.950 . S
C916 H908 0.950 . S
C916 C917 1.386 . S
C916 C918 1.391 . S
C917 C916 1.386 . S
C917 C921 1.393 . S
C918 H910 0.950 . S
C918 C916 1.391 . S
C918 C919 1.400 . S
C919 C918 1.400 . S
C919 C920 1.398 . S
C919 C925 1.491 . S
C920 H911 0.950 . S
C920 C919 1.398 . S
C920 C921 1.391 . S
C921 H909 0.950 . S
C921 C917 1.393 . S
C921 C920 1.391 . S
C922 H912 0.950 . S
C922 C923 1.386 . S
C922 C924 1.391 . S
C923 C922 1.386 . S
C923 C927 1.393 . S
C924 H913 0.950 . S
C924 C922 1.391 . S
C924 C925 1.400 . S
C925 C919 1.491 . S
C925 C924 1.400 . S
C925 C926 1.398 . S
C926 H914 0.950 . S
C926 C925 1.398 . S
C926 C927 1.391 . S
C927 H915 0.950 . S
C927 C923 1.393 . S
C927 C926 1.391 . S
H928 C936 0.950 . S
H929 C941 0.950 . S
H930 C938 0.950 . S
H931 C940 0.950 . S
H932 C942 0.950 . S
H933 C944 0.950 . S
H934 C946 0.950 . S
H935 C947 0.950 . S
C936 H928 0.950 . S
C936 C937 1.391 . S
C936 C938 1.391 . S
C937 C936 1.391 . S
C937 C941 1.388 1_556 S
C938 H930 0.950 . S
C938 C936 1.391 . S
C938 C939 1.400 . S
C939 C938 1.400 . S
C939 C940 1.398 1_556 S
C939 C945 1.490 1_556 S
C940 H931 0.950 . S
C940 C939 1.398 1_554 S
C940 C941 1.391 . S
C941 H929 0.950 . S
C941 C937 1.388 1_554 S
C941 C940 1.391 . S
C942 H932 0.950 . S
C942 C943 1.386 . S
C942 C944 1.391 . S
C943 C942 1.386 . S
C943 C947 1.393 1_554 S
C944 H933 0.950 . S
C944 C942 1.391 . S
C944 C945 1.413 . S
C945 C939 1.490 1_554 S
C945 C944 1.413 . S
C945 C946 1.386 1_554 S
C946 H934 0.950 . S
C946 C945 1.386 1_556 S
C946 C947 1.391 . S
C947 H935 0.950 . S
C947 C943 1.393 1_556 S
C947 C946 1.391 . S
H948 C956 0.950 . S
H949 C961 0.950 . S
H950 C958 0.950 . S
H951 C960 0.950 . S
H952 C962 0.950 . S
H953 C964 0.950 . S
H954 C966 0.950 . S
H955 C967 0.950 . S
C956 H948 0.950 . S
C956 C957 1.386 . S
C956 C958 1.391 . S
C957 C956 1.386 . S
C957 C961 1.393 . S
C958 H950 0.950 . S
C958 C956 1.391 . S
C958 C959 1.400 . S
C959 C958 1.400 . S
C959 C960 1.398 . S
C959 C965 1.491 . S
C960 H951 0.950 . S
C960 C959 1.398 . S
C960 C961 1.391 . S
C961 H949 0.950 . S
C961 C957 1.393 . S
C961 C960 1.391 . S
C962 H952 0.950 . S
C962 C963 1.386 . S
C962 C964 1.391 . S
C963 C962 1.386 . S
C963 C967 1.393 . S
C964 H953 0.950 . S
C964 C962 1.391 . S
C964 C965 1.400 . S
C965 C959 1.491 . S
C965 C964 1.400 . S
C965 C966 1.398 . S
C966 H954 0.950 . S
C966 C965 1.398 . S
C966 C967 1.391 . S
C967 H955 0.950 . S
C967 C963 1.393 . S
C967 C966 1.391 . S
H968 C976 0.950 . S
H969 C981 0.950 . S
H970 C978 0.950 . S
H971 C980 0.950 . S
H972 C982 0.950 . S
H973 C984 0.950 . S
H974 C986 0.950 . S
H975 C987 0.950 . S
C976 H968 0.950 . S
C976 C977 1.386 . S
C976 C978 1.391 . S
C977 C976 1.386 . S
C977 C981 1.393 . S
C978 H970 0.950 . S
C978 C976 1.391 . S
C978 C979 1.400 . S
C979 C978 1.400 . S
C979 C980 1.398 . S
C979 C985 1.491 . S
C980 H971 0.950 . S
C980 C979 1.398 . S
C980 C981 1.391 . S
C981 H969 0.950 . S
C981 C977 1.393 . S
C981 C980 1.391 . S
C982 H972 0.950 . S
C982 C983 1.386 . S
C982 C984 1.391 . S
C983 C982 1.386 . S
C983 C987 1.393 . S
C984 H973 0.950 . S
C984 C982 1.391 . S
C984 C985 1.400 . S
C985 C979 1.491 . S
C985 C984 1.400 . S
C985 C986 1.398 . S
C986 H974 0.950 . S
C986 C985 1.398 . S
C986 C987 1.391 . S
C987 H975 0.950 . S
C987 C983 1.393 . S
C987 C986 1.391 . S
H988 C996 0.950 . S
H989 C1001 0.950 . S
H990 C998 0.950 . S
H991 C1000 0.950 . S
H992 C1002 0.950 . S
H993 C1004 0.950 . S
H994 C1006 0.950 . S
H995 C1007 0.950 . S
C996 H988 0.950 . S
C996 C997 1.398 . S
C996 C998 1.391 . S
C997 C996 1.398 . S
C997 C1001 1.381 1_554 S
C998 H990 0.950 . S
C998 C996 1.391 . S
C998 C999 1.406 . S
C999 C998 1.406 . S
C999 C1000 1.393 1_554 S
C999 C1005 1.490 1_554 S
C1000 H991 0.950 . S
C1000 C999 1.393 1_556 S
C1000 C1001 1.391 . S
C1001 H989 0.950 . S
C1001 C997 1.381 1_556 S
C1001 C1000 1.391 . S
C1002 H992 0.950 . S
C1002 C1003 1.386 . S
C1002 C1004 1.391 . S
C1003 C1002 1.386 . S
C1003 C1007 1.393 1_556 S
C1004 H993 0.950 . S
C1004 C1002 1.391 . S
C1004 C1005 1.410 . S
C1005 C999 1.490 1_556 S
C1005 C1004 1.410 . S
C1005 C1006 1.389 1_556 S
C1006 H994 0.950 . S
C1006 C1005 1.389 1_554 S
C1006 C1007 1.391 . S
C1007 H995 0.950 . S
C1007 C1003 1.393 1_554 S
C1007 C1006 1.391 . S
H1008 C1016 0.950 . S
H1009 C1021 0.950 . S
H1010 C1018 0.950 . S
H1011 C1020 0.950 . S
H1012 C1022 0.950 . S
H1013 C1024 0.950 . S
H1014 C1026 0.950 . S
H1015 C1027 0.950 . S
C1016 H1008 0.950 . S
C1016 C1017 1.386 . S
C1016 C1018 1.391 . S
C1017 C1016 1.386 . S
C1017 C1021 1.393 . S
C1018 H1010 0.950 . S
C1018 C1016 1.391 . S
C1018 C1019 1.400 . S
C1019 C1018 1.400 . S
C1019 C1020 1.398 . S
C1019 C1025 1.491 . S
C1020 H1011 0.950 . S
C1020 C1019 1.398 . S
C1020 C1021 1.391 . S
C1021 H1009 0.950 . S
C1021 C1017 1.393 . S
C1021 C1020 1.391 . S
C1022 H1012 0.950 . S
C1022 C1023 1.386 . S
C1022 C1024 1.391 . S
C1023 C1022 1.386 . S
C1023 C1027 1.393 . S
C1024 H1013 0.950 . S
C1024 C1022 1.391 . S
C1024 C1025 1.400 . S
C1025 C1019 1.491 . S
C1025 C1024 1.400 . S
C1025 C1026 1.398 . S
C1026 H1014 0.950 . S
C1026 C1025 1.398 . S
C1026 C1027 1.391 . S
C1027 H1015 0.950 . S
C1027 C1023 1.393 . S
C1027 C1026 1.391 . S
H1028 C1036 0.950 . S
H1029 C1041 0.950 . S
H1030 C1038 0.950 . S
H1031 C1040 0.950 . S
H1032 C1042 0.950 . S
H1033 C1044 0.950 . S
H1034 C1046 0.950 . S
H1035 C1047 0.950 . S
C1036 H1028 0.950 . S
C1036 C1037 1.386 . S
C1036 C1038 1.391 . S
C1037 C1036 1.386 . S
C1037 C1041 1.393 1_556 S
C1038 H1030 0.950 . S
C1038 C1036 1.391 . S
C1038 C1039 1.411 . S
C1039 C1038 1.411 . S
C1039 C1040 1.388 1_556 S
C1039 C1045 1.490 1_556 S
C1040 H1031 0.950 . S
C1040 C1039 1.388 1_554 S
C1040 C1041 1.391 . S
C1041 H1029 0.950 . S
C1041 C1037 1.393 1_554 S
C1041 C1040 1.391 . S
C1042 H1032 0.950 . S
C1042 C1043 1.402 . S
C1042 C1044 1.391 . S
C1043 C1042 1.402 . S
C1043 C1047 1.377 1_554 S
C1044 H1033 0.950 . S
C1044 C1042 1.391 . S
C1044 C1045 1.406 . S
C1045 C1039 1.490 1_554 S
C1045 C1044 1.406 . S
C1045 C1046 1.393 1_554 S
C1046 H1034 0.950 . S
C1046 C1045 1.393 1_556 S
C1046 C1047 1.391 . S
C1047 H1035 0.950 . S
C1047 C1043 1.377 1_556 S
C1047 C1046 1.391 . S
C577 C21 1.614 . S
C583 C269 1.528 . S
C597 C40 1.737 . S
C603 C89 1.683 . S
C623 C168 1.476 . S
C617 C54 1.596 . S
C637 C73 1.777 . S
C643 C228 1.671 . S
C663 C389 1.489 . S
C657 C74 1.588 . S
C683 C468 1.624 . S
C677 C10 1.737 . S
C703 C539 1.642 . S
C697 C37 1.628 . S
C723 C329 1.718 . S
C717 C65 1.779 . S
C737 C52 1.596 . S
C743 C179 1.542 . S
C757 C87 1.771 . S
C763 C209 1.638 . S
C777 C15 1.618 . S
C783 C288 1.577 . S
C803 C108 1.712 . S
C797 C32 1.732 . S
C817 C29 1.621 . S
C823 C528 1.585 . S
C843 C348 1.763 . S
C837 C59 1.774 . S
C863 C408 1.550 . S
C857 C84 1.603 . S
C877 C8 1.735 . S
C883 C449 1.573 . S
C903 C119 1.815 1_554 S
C897 C7 1.851 1_556 S
C923 C149 1.621 . S
C917 C30 1.688 . S
C937 C62 1.865 1_556 S
C943 C239 1.728 . S
C957 C81 1.659 . S
C963 C299 1.600 . S
C983 C359 1.829 . S
C977 C76 1.866 . S
C997 C18 1.689 1_554 S
C1003 C419 1.623 1_556 S
C1017 C43 1.850 . S
C1023 C479 1.731 . S
C1037 C51 1.658 . S
C1043 C509 1.667 1_554 S
