# Generated by pormake.
# Topology tsx, (6,3)-cn, num edge types: 1
# Building blocks:
#     Node 0, Type 0, BuildingBlock: LEVNOQ01_clean_sbu_1, # of connection points: 6
#     Node 1, Type 0, BuildingBlock: LEVNOQ01_clean_sbu_1, # of connection points: 6
#     Node 2, Type 1, BuildingBlock: BELTOD_clean_linker_0, # of connection points: 3
#     Node 3, Type 1, BuildingBlock: BELTOD_clean_linker_0, # of connection points: 3
#     Node 4, Type 1, BuildingBlock: BELTOD_clean_linker_0, # of connection points: 3
#     Node 5, Type 1, BuildingBlock: BELTOD_clean_linker_0, # of connection points: 3
#     Edge 6, Type (0, 1), BuildingBlock: AJUNOK_clean_linker_0, # of connection points: 2
#     Edge 7, Type (0, 1), BuildingBlock: AJUNOK_clean_linker_0, # of connection points: 2
#     Edge 8, Type (0, 1), BuildingBlock: AJUNOK_clean_linker_0, # of connection points: 2
#     Edge 9, Type (0, 1), BuildingBlock: AJUNOK_clean_linker_0, # of connection points: 2
#     Edge 10, Type (0, 1), BuildingBlock: AJUNOK_clean_linker_0, # of connection points: 2
#     Edge 11, Type (0, 1), BuildingBlock: AJUNOK_clean_linker_0, # of connection points: 2
#     Edge 12, Type (0, 1), BuildingBlock: AJUNOK_clean_linker_0, # of connection points: 2
#     Edge 13, Type (0, 1), BuildingBlock: AJUNOK_clean_linker_0, # of connection points: 2
#     Edge 14, Type (0, 1), BuildingBlock: AJUNOK_clean_linker_0, # of connection points: 2
#     Edge 15, Type (0, 1), BuildingBlock: AJUNOK_clean_linker_0, # of connection points: 2
#     Edge 16, Type (0, 1), BuildingBlock: AJUNOK_clean_linker_0, # of connection points: 2
#     Edge 17, Type (0, 1), BuildingBlock: AJUNOK_clean_linker_0, # of connection points: 2
# Relax obj value: 0.118
# Max RMSD: 0.151
# Mean RMSD: 0.111
data_MOF--net-tsx--node1-LEVNOQ01_clean_sbu_1--node2-BELTOD_clean_linker_0--edge1-AJUNOK_clean_linker_0
_symmetry_space_group_name_H-M    P1
_symmetry_Int_Tables_number       1
_symmetry_cell_setting            triclinic
loop_
_symmetry_equiv_pos_as_xyz
'x, y, z'
_cell_length_a     15.951949
_cell_length_b     19.564301
_cell_length_c     32.184415
_cell_angle_alpha  98.475363
_cell_angle_beta   90.951409
_cell_angle_gamma 91.836778
loop_
_atom_site_label
_atom_site_type_symbol
_atom_site_fract_x
_atom_site_fract_y
_atom_site_fract_z
_atom_type_partial_charge
O0 O 0.16631 0.02977 0.08283 0.0
Mg1 Mg 0.21894 0.03836 0.02373 0.0
O2 O 0.0334 0.0158 0.05993 0.0
Mg3 Mg 0.03258 0.02134 -0.0112 0.0
O4 O 0.14423 0.10046 -0.00475 0.0
O5 O 0.27729 0.12911 0.01406 0.0
O6 O 0.03283 0.0252 0.91694 0.0
O7 O 0.95201 0.11932 0.0005 0.0
Mg8 Mg 0.84364 -0.00691 0.94584 0.0
O9 O 0.91916 0.94793 0.98356 0.0
O10 O 0.9065 -0.00843 0.88914 0.0
O11 O 0.82044 0.09044 0.97927 0.0
O12 O 0.79247 0.9039 0.96351 0.0
C13 C 0.18707 0.90366 0.97274 0.0
C14 C 0.08885 0.01984 0.08925 0.0
C15 C 0.2066 0.14527 -0.00122 0.0
C16 C 0.98253 0.01019 0.88539 0.0
C17 C 0.87508 0.13424 -0.00306 0.0
C18 C 0.86113 0.90093 0.98475 0.0
O19 O 0.24576 0.94749 0.98449 0.0
O20 O 0.11026 0.91979 0.97587 0.0
O21 O 0.67918 0.55339 0.5929 0.0
Mg22 Mg 0.73696 0.55387 0.53415 0.0
O23 O 0.54857 0.53085 0.56778 0.0
Mg24 Mg 0.54862 0.52837 0.49552 0.0
O25 O 0.65968 0.60502 0.49958 0.0
O26 O 0.78887 0.64419 0.51806 0.0
O27 O 0.54634 0.52526 0.42334 0.0
O28 O 0.47384 0.6303 0.50217 0.0
Mg29 Mg 0.36766 0.51908 0.4682 0.0
O30 O 0.43663 0.45031 0.4931 0.0
O31 O 0.41069 0.53152 0.40818 0.0
O32 O 0.3428 0.6035 0.51288 0.0
O33 O 0.30133 0.43117 0.47262 0.0
C34 C 0.70564 0.41265 0.48658 0.0
C35 C 0.60175 0.54125 0.59828 0.0
C36 C 0.71773 0.65276 0.50028 0.0
C37 C 0.4865 0.5287 0.39698 0.0
C38 C 0.40011 0.649 0.51187 0.0
C39 C 0.3687 0.41155 0.48946 0.0
O40 O 0.76249 0.45751 0.50005 0.0
O41 O 0.62827 0.42778 0.48618 0.0
P42 P 0.08298 0.04229 0.40518 0.0
H43 H 0.06752 0.13211 0.4835 0.0
H44 H 0.95204 0.20382 0.50905 0.0
H45 H 0.78567 0.08381 0.41723 0.0
H46 H 0.90071 0.00793 0.39425 0.0
H47 H 0.25323 0.04493 0.43929 0.0
H48 H 0.33686 0.95904 0.46645 0.0
H49 H 0.13224 0.80853 0.43776 0.0
H50 H 0.04683 0.89672 0.41239 0.0
H51 H 0.9771 0.11115 0.35201 0.0
H52 H 0.12693 0.92959 0.33817 0.0
O53 O 0.14419 0.11366 0.40751 0.0
H54 H 0.95485 0.09725 0.27611 0.0
H55 H 0.10608 0.91657 0.26194 0.0
C56 C 0.99325 0.06623 0.43645 0.0
C57 C 0.00505 0.11763 0.47124 0.0
C58 C 0.9389 0.15891 0.48556 0.0
C59 C 0.86085 0.15006 0.46432 0.0
C60 C 0.84551 0.09159 0.43395 0.0
C61 C 0.91157 0.04876 0.42056 0.0
C62 C 0.14348 0.97744 0.42446 0.0
C63 C 0.22599 -0.00628 0.43902 0.0
C64 C 0.27436 0.94418 0.45398 0.0
C65 C 0.24104 0.87717 0.45439 0.0
C66 C 0.15906 0.86026 0.43841 0.0
C67 C 0.11022 0.91035 0.42397 0.0
C68 C 0.05224 0.02066 0.35085 0.0
C69 C 0.00264 0.0668 0.33281 0.0
C70 C 0.99009 0.05902 0.28948 0.0
C71 C 0.02829 0.00564 0.26341 0.0
C72 C 0.07448 0.95724 0.28154 0.0
C73 C 0.08678 0.96493 0.32511 0.0
P74 P 0.10915 0.97014 0.56981 0.0
H75 H 0.06594 0.85137 0.5084 0.0
H76 H 0.93892 0.80554 0.47344 0.0
H77 H 0.80919 0.98598 0.52894 0.0
H78 H 0.94171 0.03413 0.56318 0.0
H79 H 0.28183 -0.00965 0.54502 0.0
H80 H 0.36186 0.09127 0.52918 0.0
H81 H 0.14491 0.21571 0.55449 0.0
H82 H 0.0631 0.11387 0.568 0.0
H83 H 0.16739 0.89608 0.63622 0.0
H84 H 0.01515 0.07215 0.62646 0.0
O85 O 0.17331 0.90429 0.56049 0.0
H86 H 0.14908 0.91277 0.71177 0.0
H87 H 0.99727 0.08869 0.70259 0.0
C88 C 0.01463 0.94618 0.53861 0.0
C89 C 0.01208 0.88317 0.51181 0.0
C90 C 0.93831 0.857 0.49127 0.0
C91 C 0.86335 0.89238 0.49775 0.0
C92 C 0.86614 0.95784 0.5229 0.0
C93 C 0.94176 0.98498 0.54288 0.0
C94 C 0.16577 0.04424 0.55691 0.0
C95 C 0.2507 0.03894 0.54662 0.0
C96 C 0.29686 0.09657 0.53799 0.0
C97 C 0.25923 0.1606 0.54089 0.0
C98 C 0.17511 0.16654 0.55255 0.0
C99 C 0.12836 0.10842 0.56015 0.0
C100 C 0.09206 0.9825 0.62532 0.0
C101 C 0.13018 0.93847 0.65006 0.0
C102 C 0.1204 0.9482 0.69333 0.0
C103 C 0.07279 0.00238 0.71262 0.0
C104 C 0.03556 0.04731 0.68818 0.0
C105 C 0.04502 0.03729 0.64465 0.0
P106 P 0.61786 0.56534 0.91514 0.0
H107 H 0.59199 0.69143 0.97256 0.0
H108 H 0.46406 0.7531 -0.01098 0.0
H109 H 0.3161 0.57319 0.9339 0.0
H110 H 0.44552 0.50943 0.91955 0.0
H111 H 0.7584 0.56149 0.97322 0.0
H112 H 0.82467 0.46692 0.00204 0.0
H113 H 0.64732 0.3212 0.93163 0.0
H114 H 0.57977 0.41619 0.90375 0.0
H115 H 0.49008 0.62037 0.86441 0.0
H116 H 0.68128 0.4682 0.84506 0.0
O117 O 0.68992 0.62966 0.91745 0.0
H118 H 0.46136 0.60595 0.78919 0.0
H119 H 0.65418 0.45554 0.76913 0.0
C120 C 0.52815 0.59642 0.94422 0.0
C121 C 0.53236 0.6636 0.96626 0.0
C122 C 0.45912 0.69895 0.97551 0.0
C123 C 0.38097 0.66799 0.96193 0.0
C124 C 0.37594 0.59783 0.94462 0.0
C125 C 0.44973 0.5616 0.93646 0.0
C126 C 0.66445 0.49554 0.93636 0.0
C127 C 0.73347 0.50921 0.9642 0.0
C128 C 0.77135 0.45538 0.98059 0.0
C129 C 0.73973 0.38732 0.96982 0.0
C130 C 0.67158 0.37361 0.94118 0.0
C131 C 0.63322 0.4276 0.92511 0.0
C132 C 0.58639 0.54389 0.86069 0.0
C133 C 0.52402 0.58201 0.84428 0.0
C134 C 0.50792 0.57427 0.80116 0.0
C135 C 0.55584 0.52995 0.77354 0.0
C136 C 0.61569 0.48942 0.78995 0.0
C137 C 0.63137 0.4968 0.83329 0.0
P138 P 0.59599 0.48275 0.07792 0.0
H139 H 0.55915 0.39324 0.00029 0.0
H140 H 0.43096 0.33852 0.96996 0.0
H141 H 0.28951 0.48075 0.05537 0.0
H142 H 0.42191 0.53211 0.08759 0.0
H143 H 0.77546 0.51039 0.07986 0.0
H144 H 0.86188 0.61097 0.0677 0.0
H145 H 0.63772 0.71993 0.04681 0.0
H146 H 0.55117 0.61752 0.05641 0.0
H147 H 0.57869 0.38305 0.13563 0.0
H148 H 0.56614 0.60428 0.14077 0.0
O149 O 0.65623 0.41444 0.06782 0.0
H150 H 0.55715 0.39528 0.21134 0.0
H151 H 0.54415 0.61647 0.21664 0.0
C152 C 0.50044 0.4644 0.04706 0.0
C153 C 0.50092 0.41377 0.01177 0.0
C154 C 0.42634 0.38285 -0.00582 0.0
C155 C 0.34862 0.40268 0.01136 0.0
C156 C 0.34802 0.46129 0.04276 0.0
C157 C 0.4237 0.49137 0.06095 0.0
C158 C 0.65727 0.55604 0.06747 0.0
C159 C 0.74486 0.55555 0.07201 0.0
C160 C 0.79416 0.613 0.06567 0.0
C161 C 0.75596 0.67256 0.05659 0.0
C162 C 0.66806 0.6741 0.05385 0.0
C163 C 0.61884 0.61578 0.05888 0.0
C164 C 0.57517 0.49278 0.13284 0.0
C165 C 0.57133 0.43419 0.15304 0.0
C166 C 0.55906 0.44116 0.19614 0.0
C167 C 0.54951 0.50682 0.21945 0.0
C168 C 0.55248 0.5655 0.19916 0.0
C169 C 0.56459 0.55845 0.1559 0.0
C170 C 0.23036 0.24317 0.95949 0.0
C171 C 0.19664 0.21827 -0.00545 0.0
C172 C 0.26703 0.3101 0.96325 0.0
C173 C 0.27499 0.35265 0.00273 0.0
H174 H 0.23737 0.20827 0.93042 0.0
H175 H 0.29879 0.32492 0.93629 0.0
S176 S 0.17487 0.31589 0.10102 0.0
N177 N 0.15419 0.24578 0.06671 0.0
N178 N 0.2277 0.36944 0.07517 0.0
C179 C 0.22914 0.33184 0.03617 0.0
C180 C 0.1892 0.26474 0.03171 0.0
C181 C 0.19915 0.78409 -0.01135 0.0
C182 C 0.21112 0.83189 0.96039 0.0
C183 C 0.24933 0.72592 0.98699 0.0
C184 C 0.31152 0.71407 0.95665 0.0
H185 H 0.15706 0.79539 0.01467 0.0
H186 H 0.24417 0.6935 0.01143 0.0
S187 S 0.35854 0.8184 0.87222 0.0
N188 N 0.28319 0.85967 0.89895 0.0
N189 N 0.37538 0.74957 0.89494 0.0
C190 C 0.31779 0.75768 0.9258 0.0
C191 C 0.26797 0.81695 0.92788 0.0
C192 C 0.8821 0.77942 -0.00883 0.0
C193 C 0.86759 0.84669 0.01091 0.0
C194 C 0.85271 0.72209 0.00866 0.0
C195 C 0.80694 0.73102 0.04587 0.0
H196 H 0.90887 0.77115 0.96017 0.0
H197 H 0.85887 0.67094 -0.00899 0.0
S198 S 0.76392 0.8967 0.11227 0.0
N199 N 0.81468 0.91932 0.07179 0.0
N200 N 0.75793 0.81126 0.10455 0.0
C201 C 0.79912 0.79785 0.06778 0.0
C202 C 0.83011 0.856 0.05027 0.0
C203 C 0.90034 0.25858 -0.00801 0.0
C204 C 0.84948 0.2063 0.00534 0.0
C205 C 0.86534 0.31991 0.98327 0.0
C206 C 0.77874 0.33007 -0.01257 0.0
H207 H 0.9653 0.24942 0.98429 0.0
H208 H 0.90486 0.35691 0.97002 0.0
S209 S 0.62443 0.21568 0.03135 0.0
N210 N 0.71317 0.17442 0.03054 0.0
N211 N 0.64659 0.28796 0.01249 0.0
C212 C 0.72973 0.28134 0.00513 0.0
C213 C 0.7656 0.21998 0.0148 0.0
C214 C 0.69274 0.77508 0.52146 0.0
C215 C 0.70292 0.72087 0.48826 0.0
C216 C 0.73258 0.83992 0.52103 0.0
C217 C 0.78346 0.85164 0.48729 0.0
H218 H 0.66599 0.76419 0.55063 0.0
H219 H 0.73485 0.87612 0.54998 0.0
S220 S 0.79876 0.73551 0.38609 0.0
N221 N 0.74474 0.68936 0.41618 0.0
N222 N 0.81684 0.81229 0.41446 0.0
C223 C 0.77677 0.80326 0.45028 0.0
C224 C 0.73754 0.73694 0.45108 0.0
C225 C 0.69586 0.28529 0.48979 0.0
C226 C 0.73217 0.34156 0.47294 0.0
C227 C 0.73494 0.22106 0.48542 0.0
C228 C 0.8105 0.21189 0.46379 0.0
H229 H 0.64048 0.29231 0.50878 0.0
H230 H 0.70845 0.1798 0.50068 0.0
S231 S 0.92335 0.33981 0.40897 0.0
N232 N 0.84267 0.38144 0.4304 0.0
N233 N 0.91469 0.26114 0.42156 0.0
C234 C 0.84333 0.26613 0.44422 0.0
C235 C 0.80447 0.33098 0.44895 0.0
C236 C 0.34379 0.34342 0.54645 0.0
C237 C 0.36562 0.34538 0.50464 0.0
C238 C 0.31371 0.2818 0.55883 0.0
C239 C 0.30567 0.22091 0.52969 0.0
H240 H 0.34398 0.39063 0.56881 0.0
H241 H 0.29266 0.28246 0.59072 0.0
S242 S 0.36069 0.19959 0.41725 0.0
N243 N 0.38178 0.28214 0.43473 0.0
N244 N 0.32719 0.16543 0.45818 0.0
C245 C 0.33288 0.22158 0.48852 0.0
C246 C 0.3624 0.28436 0.47587 0.0
C247 C 0.29171 0.73667 0.51885 0.0
C248 C 0.37314 0.71869 0.50662 0.0
C249 C 0.25023 0.78786 0.50178 0.0
C250 C 0.28957 0.82596 0.47346 0.0
H251 H 0.25689 0.70702 0.53915 0.0
H252 H 0.18559 0.7955 0.50982 0.0
S253 S 0.50619 0.80452 0.43448 0.0
N254 N 0.49449 0.74616 0.46633 0.0
N255 N 0.41707 0.84543 0.43579 0.0
C256 C 0.37355 0.81254 0.46342 0.0
C257 C 0.41551 0.75872 0.48001 0.0
C258 C 0.08122 0.07345 0.16313 0.0
C259 C 0.06323 0.01637 0.13225 0.0
C260 C 0.06586 0.06998 0.20531 0.0
C261 C 0.03344 0.00882 0.21803 0.0
H262 H 0.10889 0.1207 0.15467 0.0
H263 H 0.08279 0.11467 0.22835 0.0
S264 S 0.97581 0.84503 0.14865 0.0
N265 N 0.01004 0.89749 0.1163 0.0
N266 N 0.98253 0.89021 0.1963 0.0
C267 C 0.01396 0.95154 0.18726 0.0
C268 C 0.02835 0.95557 0.14407 0.0
C269 C 0.99306 0.95073 0.81301 0.0
C270 C 0.0131 0.00907 0.84278 0.0
C271 C 0.01408 0.94911 0.77108 0.0
C272 C 0.05445 0.00629 0.75743 0.0
H273 H 0.96024 0.90611 0.82219 0.0
H274 H 0.99702 0.90329 0.74894 0.0
S275 S 0.12026 0.17158 0.82318 0.0
N276 N 0.07631 0.12509 0.85641 0.0
N277 N 0.1145 0.12273 0.77662 0.0
C278 C 0.07528 0.06504 0.78685 0.0
C279 C 0.05516 0.06617 0.82992 0.0
C280 C 0.55394 0.47719 0.65526 0.0
C281 C 0.57407 0.5403 0.64128 0.0
C282 C 0.54435 0.47413 0.69824 0.0
C283 C 0.55336 0.53429 0.72809 0.0
H284 H 0.55013 0.42965 0.63317 0.0
H285 H 0.53249 0.42433 0.70832 0.0
S286 S 0.60127 0.71225 0.70621 0.0
N287 N 0.59925 0.66394 0.65956 0.0
N288 N 0.58017 0.6589 0.7402 0.0
C289 C 0.56944 0.59801 0.71393 0.0
C290 C 0.58017 0.60082 0.67046 0.0
C291 C 0.57211 0.55871 0.3374 0.0
C292 C 0.50323 0.52314 0.35194 0.0
C293 C 0.5862 0.55444 0.29419 0.0
C294 C 0.53285 0.51329 0.26465 0.0
H295 H 0.61434 0.59066 0.35944 0.0
H296 H 0.63963 0.58255 0.28382 0.0
S297 S 0.34564 0.40891 0.287 0.0
N298 N 0.38218 0.44497 0.33366 0.0
N299 N 0.40928 0.43668 0.25269 0.0
C300 C 0.46438 0.47729 0.27892 0.0
C301 C 0.44943 0.48227 0.32258 0.0
loop_
_geom_bond_atom_site_label_1
_geom_bond_atom_site_label_2
_geom_bond_distance
_geom_bond_site_symmetry_2
_ccdc_geom_bond_type
O0 Mg1 1.990 . S
O0 C14 1.253 . S
Mg1 O0 1.990 . S
Mg1 O4 2.180 . S
Mg1 O5 2.117 . S
Mg1 O19 2.030 1_545 S
O2 Mg3 2.072 1_554 S
O2 C14 1.260 . S
Mg3 O2 2.072 1_556 S
Mg3 O4 2.099 1_556 S
Mg3 O6 2.079 . S
Mg3 O7 2.072 1_456 S
Mg3 O9 2.099 1_445 S
Mg3 O20 2.079 1_545 S
O4 Mg1 2.180 . S
O4 Mg3 2.099 1_554 S
O4 C15 1.279 . S
O5 Mg1 2.117 . S
O5 C15 1.250 . S
O6 Mg3 2.079 . S
O6 C16 1.264 . S
O7 Mg3 2.072 1_654 S
O7 C17 1.260 1_554 S
Mg8 O9 2.180 1_545 S
Mg8 O10 2.030 . S
Mg8 O11 1.990 . S
Mg8 O12 2.117 1_545 S
O9 Mg3 2.099 1_665 S
O9 Mg8 2.180 1_565 S
O9 C18 1.286 . S
O10 Mg8 2.030 . S
O10 C16 1.248 1_655 S
O11 Mg8 1.990 . S
O11 C17 1.253 . S
O12 Mg8 2.117 1_565 S
O12 C18 1.254 . S
C13 O19 1.248 . S
C13 O20 1.264 1_554 S
C14 O0 1.253 . S
C14 O2 1.260 . S
C15 O4 1.279 . S
C15 O5 1.250 . S
C16 O6 1.264 . S
C16 O10 1.248 1_455 S
C17 O7 1.260 1_556 S
C17 O11 1.253 . S
C18 O9 1.286 . S
C18 O12 1.254 . S
O19 Mg1 2.030 1_565 S
O19 C13 1.248 . S
O20 Mg3 2.079 1_565 S
O20 C13 1.264 1_556 S
O21 Mg22 1.990 . S
O21 C35 1.253 . S
Mg22 O21 1.990 . S
Mg22 O25 2.180 . S
Mg22 O26 2.117 . S
Mg22 O40 2.030 . S
O23 Mg24 2.072 . S
O23 C35 1.260 . S
Mg24 O23 2.072 . S
Mg24 O25 2.099 . S
Mg24 O27 2.079 . S
Mg24 O28 2.072 . S
Mg24 O30 2.099 . S
Mg24 O41 2.079 . S
O25 Mg22 2.180 . S
O25 Mg24 2.099 . S
O25 C36 1.279 . S
O26 Mg22 2.117 . S
O26 C36 1.250 . S
O27 Mg24 2.079 . S
O27 C37 1.264 . S
O28 Mg24 2.072 . S
O28 C38 1.260 . S
Mg29 O30 2.180 . S
Mg29 O31 2.030 . S
Mg29 O32 1.990 . S
Mg29 O33 2.117 . S
O30 Mg24 2.099 . S
O30 Mg29 2.180 . S
O30 C39 1.279 . S
O31 Mg29 2.030 . S
O31 C37 1.248 . S
O32 Mg29 1.990 . S
O32 C38 1.253 . S
O33 Mg29 2.117 . S
O33 C39 1.250 . S
C34 O40 1.248 . S
C34 O41 1.264 . S
C35 O21 1.253 . S
C35 O23 1.260 . S
C36 O25 1.279 . S
C36 O26 1.250 . S
C37 O27 1.264 . S
C37 O31 1.248 . S
C38 O28 1.260 . S
C38 O32 1.253 . S
C39 O30 1.279 . S
C39 O33 1.250 . S
O40 Mg22 2.030 . S
O40 C34 1.248 . S
O41 Mg24 2.079 . S
O41 C34 1.264 . S
P42 O53 1.490 . S
P42 C56 1.812 . S
P42 C62 1.803 1_545 S
P42 C68 1.819 . S
H43 C57 0.941 . S
H44 C58 0.939 . S
H45 C60 0.940 . S
H46 C61 0.940 . S
H47 C63 0.939 . S
H48 C64 0.942 . S
H49 C66 0.940 . S
H50 C67 0.939 . S
H51 C69 0.941 . S
H52 C73 0.939 . S
O53 P42 1.490 . S
H54 C70 0.939 . S
H55 C72 0.940 . S
C56 P42 1.812 . S
C56 C57 1.389 . S
C56 C61 1.391 1_455 S
C57 H43 0.941 . S
C57 C56 1.389 . S
C57 C58 1.397 1_455 S
C58 H44 0.939 . S
C58 C57 1.397 1_655 S
C58 C59 1.378 . S
C59 C58 1.378 . S
C59 C60 1.378 . S
C60 H45 0.940 . S
C60 C59 1.378 . S
C60 C61 1.396 . S
C61 H46 0.940 . S
C61 C56 1.391 1_655 S
C61 C60 1.396 . S
C62 P42 1.803 1_565 S
C62 C63 1.378 . S
C62 C67 1.400 . S
C63 H47 0.939 . S
C63 C62 1.378 . S
C63 C64 1.361 . S
C64 H48 0.942 . S
C64 C63 1.361 . S
C64 C65 1.369 . S
C65 C64 1.369 . S
C65 C66 1.404 . S
C66 H49 0.940 . S
C66 C65 1.404 . S
C66 C67 1.389 . S
C67 H50 0.939 . S
C67 C62 1.400 . S
C67 C66 1.389 . S
C68 P42 1.819 . S
C68 C69 1.391 . S
C68 C73 1.391 1_545 S
C69 H51 0.941 . S
C69 C68 1.391 . S
C69 C70 1.396 . S
C70 H54 0.939 . S
C70 C69 1.396 . S
C70 C71 1.397 . S
C71 C70 1.397 . S
C71 C72 1.385 1_545 S
C72 H55 0.940 . S
C72 C71 1.385 1_565 S
C72 C73 1.388 . S
C73 H52 0.939 . S
C73 C68 1.391 1_565 S
C73 C72 1.388 . S
P74 O85 1.490 1_545 S
P74 C88 1.799 1_445 S
P74 C94 1.803 . S
P74 C100 1.819 . S
H75 C89 0.941 . S
H76 C90 0.939 . S
H77 C92 0.940 . S
H78 C93 0.940 1_545 S
H79 C95 0.939 . S
H80 C96 0.942 . S
H81 C98 0.940 . S
H82 C99 0.939 . S
H83 C101 0.941 . S
H84 C105 0.939 . S
O85 P74 1.490 1_565 S
H86 C102 0.939 1_565 S
H87 C104 0.940 . S
C88 P74 1.799 1_665 S
C88 C89 1.388 1_655 S
C88 C93 1.405 . S
C89 H75 0.941 . S
C89 C88 1.388 1_455 S
C89 C90 1.397 1_455 S
C90 H76 0.939 . S
C90 C89 1.397 1_655 S
C90 C91 1.378 . S
C91 C90 1.378 . S
C91 C92 1.378 . S
C92 H77 0.940 . S
C92 C91 1.378 . S
C92 C93 1.396 . S
C93 H78 0.940 1_565 S
C93 C88 1.405 . S
C93 C92 1.396 . S
C94 P74 1.803 . S
C94 C95 1.378 . S
C94 C99 1.400 . S
C95 H79 0.939 . S
C95 C94 1.378 . S
C95 C96 1.361 . S
C96 H80 0.942 . S
C96 C95 1.361 . S
C96 C97 1.369 . S
C97 C96 1.369 . S
C97 C98 1.404 . S
C98 H81 0.940 . S
C98 C97 1.404 . S
C98 C99 1.389 . S
C99 H82 0.939 . S
C99 C94 1.400 . S
C99 C98 1.389 . S
C100 P74 1.819 . S
C100 C101 1.391 1_545 S
C100 C105 1.391 . S
C101 H83 0.941 . S
C101 C100 1.391 1_565 S
C101 C102 1.396 1_565 S
C102 H86 0.939 1_545 S
C102 C101 1.396 1_545 S
C102 C103 1.397 . S
C103 C102 1.397 . S
C103 C104 1.385 . S
C104 H87 0.940 . S
C104 C103 1.385 . S
C104 C105 1.388 . S
C105 H84 0.939 . S
C105 C100 1.391 . S
C105 C104 1.388 . S
P106 O117 1.490 . S
P106 C120 1.812 . S
P106 C126 1.803 . S
P106 C132 1.819 . S
H107 C121 0.941 . S
H108 C122 0.939 . S
H109 C124 0.940 . S
H110 C125 0.940 . S
H111 C127 0.939 . S
H112 C128 0.942 . S
H113 C130 0.940 . S
H114 C131 0.939 . S
H115 C133 0.941 . S
H116 C137 0.939 . S
O117 P106 1.490 . S
H118 C134 0.939 . S
H119 C136 0.940 . S
C120 P106 1.812 . S
C120 C121 1.389 . S
C120 C125 1.391 . S
C121 H107 0.941 . S
C121 C120 1.389 . S
C121 C122 1.397 1_556 S
C122 H108 0.939 . S
C122 C121 1.397 1_554 S
C122 C123 1.378 1_554 S
C123 C122 1.378 1_556 S
C123 C124 1.378 . S
C124 H109 0.940 . S
C124 C123 1.378 . S
C124 C125 1.396 . S
C125 H110 0.940 . S
C125 C120 1.391 . S
C125 C124 1.396 . S
C126 P106 1.803 . S
C126 C127 1.378 . S
C126 C131 1.400 . S
C127 H111 0.939 . S
C127 C126 1.378 . S
C127 C128 1.361 . S
C128 H112 0.942 . S
C128 C127 1.361 . S
C128 C129 1.369 . S
C129 C128 1.369 . S
C129 C130 1.404 . S
C130 H113 0.940 . S
C130 C129 1.404 . S
C130 C131 1.389 . S
C131 H114 0.939 . S
C131 C126 1.400 . S
C131 C130 1.389 . S
C132 P106 1.819 . S
C132 C133 1.391 . S
C132 C137 1.391 . S
C133 H115 0.941 . S
C133 C132 1.391 . S
C133 C134 1.396 . S
C134 H118 0.939 . S
C134 C133 1.396 . S
C134 C135 1.397 . S
C135 C134 1.397 . S
C135 C136 1.385 . S
C136 H119 0.940 . S
C136 C135 1.385 . S
C136 C137 1.388 . S
C137 H116 0.939 . S
C137 C132 1.391 . S
C137 C136 1.388 . S
P138 O149 1.490 . S
P138 C152 1.812 . S
P138 C158 1.803 . S
P138 C164 1.819 . S
H139 C153 0.941 . S
H140 C154 0.939 1_556 S
H141 C156 0.940 . S
H142 C157 0.940 . S
H143 C159 0.939 . S
H144 C160 0.942 . S
H145 C162 0.940 . S
H146 C163 0.939 . S
H147 C165 0.941 . S
H148 C169 0.939 . S
O149 P138 1.490 . S
H150 C166 0.939 . S
H151 C168 0.940 . S
C152 P138 1.812 . S
C152 C153 1.389 . S
C152 C157 1.391 . S
C153 H139 0.941 . S
C153 C152 1.389 . S
C153 C154 1.397 . S
C154 H140 0.939 1_554 S
C154 C153 1.397 . S
C154 C155 1.378 . S
C155 C154 1.378 . S
C155 C156 1.378 . S
C156 H141 0.940 . S
C156 C155 1.378 . S
C156 C157 1.396 . S
C157 H142 0.940 . S
C157 C152 1.391 . S
C157 C156 1.396 . S
C158 P138 1.803 . S
C158 C159 1.378 . S
C158 C163 1.400 . S
C159 H143 0.939 . S
C159 C158 1.378 . S
C159 C160 1.361 . S
C160 H144 0.942 . S
C160 C159 1.361 . S
C160 C161 1.369 . S
C161 C160 1.369 . S
C161 C162 1.404 . S
C162 H145 0.940 . S
C162 C161 1.404 . S
C162 C163 1.389 . S
C163 H146 0.939 . S
C163 C158 1.400 . S
C163 C162 1.389 . S
C164 P138 1.819 . S
C164 C165 1.391 . S
C164 C169 1.391 . S
C165 H147 0.941 . S
C165 C164 1.391 . S
C165 C166 1.396 . S
C166 H150 0.939 . S
C166 C165 1.396 . S
C166 C167 1.397 . S
C167 C166 1.397 . S
C167 C168 1.385 . S
C168 H151 0.940 . S
C168 C167 1.385 . S
C168 C169 1.388 . S
C169 H148 0.939 . S
C169 C164 1.391 . S
C169 C168 1.388 . S
C170 C171 1.369 1_556 S
C170 C172 1.419 . S
C170 H174 0.930 . S
C171 C170 1.369 1_554 S
C171 C180 1.429 . S
C172 C170 1.419 . S
C172 C173 1.363 1_556 S
C172 H175 0.929 . S
C173 C172 1.363 1_554 S
C173 C179 1.428 . S
H174 C170 0.930 . S
H175 C172 0.929 . S
S176 N177 1.613 . S
S176 N178 1.610 . S
N177 S176 1.613 . S
N177 C180 1.350 . S
N178 S176 1.610 . S
N178 C179 1.351 . S
C179 C173 1.428 . S
C179 N178 1.351 . S
C179 C180 1.434 . S
C180 C171 1.429 . S
C180 N177 1.350 . S
C180 C179 1.434 . S
C181 C182 1.369 . S
C181 C183 1.419 . S
C181 H185 0.930 . S
C182 C181 1.369 . S
C182 C191 1.429 1_554 S
C183 C181 1.419 . S
C183 C184 1.363 1_554 S
C183 H186 0.929 . S
C184 C183 1.363 1_556 S
C184 C190 1.428 . S
H185 C181 0.930 . S
H186 C183 0.929 . S
S187 N188 1.613 . S
S187 N189 1.610 . S
N188 S187 1.613 . S
N188 C191 1.350 . S
N189 S187 1.610 . S
N189 C190 1.351 . S
C190 C184 1.428 . S
C190 N189 1.351 . S
C190 C191 1.434 . S
C191 C182 1.429 1_556 S
C191 N188 1.350 . S
C191 C190 1.434 . S
C192 C193 1.369 1_556 S
C192 C194 1.419 . S
C192 H196 0.930 . S
C193 C192 1.369 1_554 S
C193 C202 1.429 . S
C194 C192 1.419 . S
C194 C195 1.363 1_556 S
C194 H197 0.929 . S
C195 C194 1.363 1_554 S
C195 C201 1.428 . S
H196 C192 0.930 . S
H197 C194 0.929 . S
S198 N199 1.613 . S
S198 N200 1.610 . S
N199 S198 1.613 . S
N199 C202 1.350 . S
N200 S198 1.610 . S
N200 C201 1.351 . S
C201 C195 1.428 . S
C201 N200 1.351 . S
C201 C202 1.434 . S
C202 C193 1.429 . S
C202 N199 1.350 . S
C202 C201 1.434 . S
C203 C204 1.369 . S
C203 C205 1.419 . S
C203 H207 0.930 . S
C204 C203 1.369 . S
C204 C213 1.429 1_556 S
C205 C203 1.419 . S
C205 C206 1.363 . S
C205 H208 0.929 . S
C206 C205 1.363 . S
C206 C212 1.428 1_556 S
H207 C203 0.930 . S
H208 C205 0.929 . S
S209 N210 1.613 . S
S209 N211 1.610 . S
N210 S209 1.613 . S
N210 C213 1.350 . S
N211 S209 1.610 . S
N211 C212 1.351 . S
C212 C206 1.428 1_554 S
C212 N211 1.351 . S
C212 C213 1.434 . S
C213 C204 1.429 1_554 S
C213 N210 1.350 . S
C213 C212 1.434 . S
C214 C215 1.369 . S
C214 C216 1.419 . S
C214 H218 0.930 . S
C215 C214 1.369 . S
C215 C224 1.429 . S
C216 C214 1.419 . S
C216 C217 1.363 . S
C216 H219 0.929 . S
C217 C216 1.363 . S
C217 C223 1.428 . S
H218 C214 0.930 . S
H219 C216 0.929 . S
S220 N221 1.613 . S
S220 N222 1.610 . S
N221 S220 1.613 . S
N221 C224 1.350 . S
N222 S220 1.610 . S
N222 C223 1.351 . S
C223 C217 1.428 . S
C223 N222 1.351 . S
C223 C224 1.434 . S
C224 C215 1.429 . S
C224 N221 1.350 . S
C224 C223 1.434 . S
C225 C226 1.369 . S
C225 C227 1.419 . S
C225 H229 0.930 . S
C226 C225 1.369 . S
C226 C235 1.429 . S
C227 C225 1.419 . S
C227 C228 1.363 . S
C227 H230 0.929 . S
C228 C227 1.363 . S
C228 C234 1.428 . S
H229 C225 0.930 . S
H230 C227 0.929 . S
S231 N232 1.613 . S
S231 N233 1.610 . S
N232 S231 1.613 . S
N232 C235 1.350 . S
N233 S231 1.610 . S
N233 C234 1.351 . S
C234 C228 1.428 . S
C234 N233 1.351 . S
C234 C235 1.434 . S
C235 C226 1.429 . S
C235 N232 1.350 . S
C235 C234 1.434 . S
C236 C237 1.369 . S
C236 C238 1.419 . S
C236 H240 0.930 . S
C237 C236 1.369 . S
C237 C246 1.429 . S
C238 C236 1.419 . S
C238 C239 1.363 . S
C238 H241 0.929 . S
C239 C238 1.363 . S
C239 C245 1.428 . S
H240 C236 0.930 . S
H241 C238 0.929 . S
S242 N243 1.613 . S
S242 N244 1.610 . S
N243 S242 1.613 . S
N243 C246 1.350 . S
N244 S242 1.610 . S
N244 C245 1.351 . S
C245 C239 1.428 . S
C245 N244 1.351 . S
C245 C246 1.434 . S
C246 C237 1.429 . S
C246 N243 1.350 . S
C246 C245 1.434 . S
C247 C248 1.369 . S
C247 C249 1.419 . S
C247 H251 0.930 . S
C248 C247 1.369 . S
C248 C257 1.429 . S
C249 C247 1.419 . S
C249 C250 1.363 . S
C249 H252 0.929 . S
C250 C249 1.363 . S
C250 C256 1.428 . S
H251 C247 0.930 . S
H252 C249 0.929 . S
S253 N254 1.613 . S
S253 N255 1.610 . S
N254 S253 1.613 . S
N254 C257 1.350 . S
N255 S253 1.610 . S
N255 C256 1.351 . S
C256 C250 1.428 . S
C256 N255 1.351 . S
C256 C257 1.434 . S
C257 C248 1.429 . S
C257 N254 1.350 . S
C257 C256 1.434 . S
C258 C259 1.369 . S
C258 C260 1.419 . S
C258 H262 0.930 . S
C259 C258 1.369 . S
C259 C268 1.429 1_545 S
C260 C258 1.419 . S
C260 C261 1.363 1_545 S
C260 H263 0.929 . S
C261 C260 1.363 1_565 S
C261 C267 1.428 . S
H262 C258 0.930 . S
H263 C260 0.929 . S
S264 N265 1.613 . S
S264 N266 1.610 . S
N265 S264 1.613 . S
N265 C268 1.350 1_655 S
N266 S264 1.610 . S
N266 C267 1.351 1_655 S
C267 C261 1.428 . S
C267 N266 1.351 1_455 S
C267 C268 1.434 . S
C268 C259 1.429 1_565 S
C268 N265 1.350 1_455 S
C268 C267 1.434 . S
C269 C270 1.369 1_565 S
C269 C271 1.419 1_565 S
C269 H273 0.930 . S
C270 C269 1.369 1_545 S
C270 C279 1.429 . S
C271 C269 1.419 1_545 S
C271 C272 1.363 . S
C271 H274 0.928 1_445 S
C272 C271 1.363 . S
C272 C278 1.428 . S
H273 C269 0.930 . S
H274 C271 0.928 1_665 S
S275 N276 1.613 . S
S275 N277 1.610 . S
N276 S275 1.613 . S
N276 C279 1.350 . S
N277 S275 1.610 . S
N277 C278 1.351 . S
C278 C272 1.428 . S
C278 N277 1.351 . S
C278 C279 1.434 . S
C279 C270 1.429 . S
C279 N276 1.350 . S
C279 C278 1.434 . S
C280 C281 1.369 . S
C280 C282 1.419 . S
C280 H284 0.930 . S
C281 C280 1.369 . S
C281 C290 1.429 . S
C282 C280 1.419 . S
C282 C283 1.363 . S
C282 H285 0.929 . S
C283 C282 1.363 . S
C283 C289 1.428 . S
H284 C280 0.930 . S
H285 C282 0.929 . S
S286 N287 1.613 . S
S286 N288 1.610 . S
N287 S286 1.613 . S
N287 C290 1.350 . S
N288 S286 1.610 . S
N288 C289 1.351 . S
C289 C283 1.428 . S
C289 N288 1.351 . S
C289 C290 1.434 . S
C290 C281 1.429 . S
C290 N287 1.350 . S
C290 C289 1.434 . S
C291 C292 1.369 . S
C291 C293 1.419 . S
C291 H295 0.930 . S
C292 C291 1.369 . S
C292 C301 1.429 . S
C293 C291 1.419 . S
C293 C294 1.363 . S
C293 H296 0.929 . S
C294 C293 1.363 . S
C294 C300 1.428 . S
H295 C291 0.930 . S
H296 C293 0.929 . S
S297 N298 1.613 . S
S297 N299 1.610 . S
N298 S297 1.613 . S
N298 C301 1.350 . S
N299 S297 1.610 . S
N299 C300 1.351 . S
C300 C294 1.428 . S
C300 N299 1.351 . S
C300 C301 1.434 . S
C301 C292 1.429 . S
C301 N298 1.350 . S
C301 C300 1.434 . S
C173 C155 1.455 . S
C171 C15 1.396 . S
C182 C13 1.539 . S
C184 C123 1.495 . S
C193 C18 1.291 1_554 S
C195 C161 1.454 . S
C204 C17 1.387 . S
C206 C129 1.410 . S
C215 C36 1.397 . S
C217 C91 1.454 . S
C226 C34 1.537 . S
C228 C59 1.495 . S
C239 C97 1.457 . S
C237 C39 1.287 . S
C250 C65 1.402 . S
C248 C38 1.393 . S
C259 C14 1.511 . S
C261 C71 1.520 1_565 S
C270 C16 1.390 . S
C272 C103 1.390 . S
C283 C135 1.514 . S
C281 C35 1.503 . S
C292 C37 1.391 . S
C294 C167 1.384 . S
