# Generated by pormake.
# Topology tsx, (6,3)-cn, num edge types: 1
# Building blocks:
#     Node 0, Type 0, BuildingBlock: FUNLAD_clean_sbu_0, # of connection points: 6
#     Node 1, Type 0, BuildingBlock: FUNLAD_clean_sbu_0, # of connection points: 6
#     Node 2, Type 1, BuildingBlock: MIDCAF_clean_linker_0, # of connection points: 3
#     Node 3, Type 1, BuildingBlock: MIDCAF_clean_linker_0, # of connection points: 3
#     Node 4, Type 1, BuildingBlock: MIDCAF_clean_linker_0, # of connection points: 3
#     Node 5, Type 1, BuildingBlock: MIDCAF_clean_linker_0, # of connection points: 3
#     Edge 6, Type (0, 1), BuildingBlock: XIVTED_clean_linker_0, # of connection points: 2
#     Edge 7, Type (0, 1), BuildingBlock: XIVTED_clean_linker_0, # of connection points: 2
#     Edge 8, Type (0, 1), BuildingBlock: XIVTED_clean_linker_0, # of connection points: 2
#     Edge 9, Type (0, 1), BuildingBlock: XIVTED_clean_linker_0, # of connection points: 2
#     Edge 10, Type (0, 1), BuildingBlock: XIVTED_clean_linker_0, # of connection points: 2
#     Edge 11, Type (0, 1), BuildingBlock: XIVTED_clean_linker_0, # of connection points: 2
#     Edge 12, Type (0, 1), BuildingBlock: XIVTED_clean_linker_0, # of connection points: 2
#     Edge 13, Type (0, 1), BuildingBlock: XIVTED_clean_linker_0, # of connection points: 2
#     Edge 14, Type (0, 1), BuildingBlock: XIVTED_clean_linker_0, # of connection points: 2
#     Edge 15, Type (0, 1), BuildingBlock: XIVTED_clean_linker_0, # of connection points: 2
#     Edge 16, Type (0, 1), BuildingBlock: XIVTED_clean_linker_0, # of connection points: 2
#     Edge 17, Type (0, 1), BuildingBlock: XIVTED_clean_linker_0, # of connection points: 2
# Relax obj value: 0.165
# Max RMSD: 0.155
# Mean RMSD: 0.090
data_MOF--net-tsx--node1-FUNLAD_clean_sbu_0--node2-MIDCAF_clean_linker_0--edge1-XIVTED_clean_linker_0
_symmetry_space_group_name_H-M    P1
_symmetry_Int_Tables_number       1
_symmetry_cell_setting            triclinic
loop_
_symmetry_equiv_pos_as_xyz
'x, y, z'
_cell_length_a     23.202018
_cell_length_b     25.83202
_cell_length_c     50.203374
_cell_angle_alpha  91.069318
_cell_angle_beta   92.151748
_cell_angle_gamma 90.145096
loop_
_atom_site_label
_atom_site_type_symbol
_atom_site_fract_x
_atom_site_fract_y
_atom_site_fract_z
_atom_type_partial_charge
C0 C 0.92029 0.93259 0.00316 0.0
N1 N 0.01432 0.01308 0.06383 0.0
C2 C 0.96565 0.01895 0.07786 0.0
C3 C 0.96917 0.02316 0.10564 0.0
C4 C 0.02326 0.02102 0.1191 0.0
C5 C 0.07272 0.01476 0.1041 0.0
C6 C 0.06725 0.01097 0.07637 0.0
Zn7 Zn 0.00855 0.00821 0.02319 0.0
C8 C 0.0892 0.93086 0.00202 0.0
N9 N -0.00211 -0.00061 0.93851 0.0
C10 C 0.94564 -0.00232 0.92528 0.0
C11 C 0.04778 -0.00032 0.92513 0.0
C12 C 0.04637 -0.00116 0.89735 0.0
C13 C 0.99308 -0.00212 0.88311 0.0
C14 C 0.94222 -0.0031 0.89744 0.0
Zn15 Zn 0.00265 0.00359 0.97913 0.0
O16 O 0.93934 0.95502 0.02449 0.0
C17 C 0.9218 0.08072 0.00078 0.0
O18 O 0.94178 0.9435 0.98106 0.0
H19 H 0.08888 0.00097 0.93603 0.0
H20 H 0.92399 0.0204 0.06749 0.0
H21 H 0.90651 -0.00245 0.93633 0.0
O22 O 0.94869 0.06976 0.02242 0.0
O23 O 0.93493 0.05785 0.97923 0.0
H24 H 0.10542 0.00656 0.06483 0.0
O25 O 0.06345 0.06382 0.97739 0.0
O26 O 0.07777 0.06118 0.02081 0.0
O27 O 0.07056 0.94924 0.98005 0.0
O28 O 0.06809 0.94655 0.02367 0.0
C29 C 0.0909 0.07906 -0.00158 0.0
H30 H 0.92991 0.02734 0.11648 0.0
H31 H 0.1153 0.01352 0.11368 0.0
H32 H 0.08666 -0.00125 0.88714 0.0
H33 H 0.90021 -0.00333 0.88729 0.0
C34 C 0.40911 0.42386 0.49702 0.0
N35 N 0.50832 0.49014 0.56058 0.0
C36 C 0.45947 0.5043 0.57297 0.0
C37 C 0.45874 0.50663 0.60076 0.0
C38 C 0.50851 0.49357 0.61588 0.0
C39 C 0.55828 0.47909 0.6026 0.0
C40 C 0.55736 0.47796 0.57479 0.0
Zn41 Zn 0.50803 0.48628 0.51994 0.0
C42 C 0.57219 0.39458 0.50034 0.0
N43 N 0.50724 0.47755 0.43506 0.0
C44 C 0.45637 0.48024 0.42075 0.0
C45 C 0.55837 0.47341 0.42278 0.0
C46 C 0.55974 0.47294 0.39502 0.0
C47 C 0.50792 0.47574 0.37984 0.0
C48 C 0.45569 0.47888 0.39293 0.0
Zn49 Zn 0.50727 0.48128 0.47567 0.0
O50 O 0.43041 0.44187 0.51901 0.0
C51 C 0.44234 0.57266 0.49522 0.0
O52 O 0.43325 0.43401 0.47545 0.0
H53 H 0.59826 0.47087 0.43451 0.0
H54 H 0.42086 0.5135 0.56129 0.0
H55 H 0.41627 0.48394 0.4309 0.0
O56 O 0.45927 0.55542 0.51771 0.0
O57 O 0.45569 0.5485 0.47405 0.0
H58 H 0.59584 0.46718 0.56455 0.0
O59 O 0.5817 0.52879 0.47637 0.0
O60 O 0.58552 0.53037 0.52013 0.0
O61 O 0.5583 0.41379 0.47788 0.0
O62 O 0.55678 0.41713 0.52159 0.0
C63 C 0.60646 0.5435 0.4982 0.0
H64 H 0.41938 0.51755 0.61032 0.0
H65 H 0.59765 0.46924 0.61361 0.0
H66 H 0.60078 0.4701 0.3855 0.0
H67 H 0.41495 0.48152 0.38178 0.0
C68 C 0.82698 0.08455 0.45197 0.0
C69 C 0.8268 0.0942 0.47959 0.0
C70 C 0.87348 0.07666 0.49568 0.0
C71 C 0.92058 0.05233 0.48411 0.0
H72 H 0.05782 0.92279 0.48539 0.0
H73 H 0.13053 0.8601 0.50012 0.0
H74 H 0.25445 0.93187 0.45018 0.0
H75 H 0.18148 0.99304 0.4349 0.0
H76 H 0.12248 0.00831 0.37336 0.0
H77 H 0.12699 0.01592 0.32522 0.0
H78 H 0.948 0.06198 0.32092 0.0
H79 H 0.94379 0.05582 0.36901 0.0
H80 H 0.87307 0.05581 0.419 0.0
H81 H 0.7923 0.09807 0.43885 0.0
H82 H 0.87433 0.08305 0.51708 0.0
H83 H 0.95666 0.04066 0.49685 0.0
N84 N 0.01841 0.00457 0.45705 0.0
N85 N 0.07213 0.00057 0.41828 0.0
N86 N 0.98026 0.03717 0.41679 0.0
C87 C 0.06741 0.99094 0.44463 0.0
C88 C 0.02866 0.02352 0.40418 0.0
C89 C 0.97476 0.0282 0.44314 0.0
C90 C 0.11372 0.96186 0.45854 0.0
C91 C 0.10102 0.92584 0.47812 0.0
C92 C 0.14273 0.89002 0.48658 0.0
C93 C 0.19781 0.89019 0.47574 0.0
C94 C 0.21189 0.92973 0.45826 0.0
C95 C 0.17019 0.96492 0.4496 0.0
C96 C 0.03268 0.03116 0.37512 0.0
C97 C 0.08416 0.02043 0.3622 0.0
C98 C 0.08669 0.02452 0.33455 0.0
C99 C 0.03777 0.03924 0.31916 0.0
C100 C 0.98673 0.05118 0.33216 0.0
C101 C 0.98425 0.04733 0.3598 0.0
C102 C 0.92209 0.04594 0.45627 0.0
C103 C 0.87389 0.06076 0.44048 0.0
C104 C 0.93531 0.80817 0.54579 0.0
C105 C 0.91462 0.80828 0.51912 0.0
C106 C 0.92404 0.85265 0.50392 0.0
C107 C 0.95076 0.89671 0.51562 0.0
H108 H 0.06692 0.03484 0.50656 0.0
H109 H 0.11391 0.10849 0.48641 0.0
H110 H 0.08723 0.20002 0.55795 0.0
H111 H 0.03767 0.12843 0.57696 0.0
H112 H 0.02093 0.07562 0.63079 0.0
H113 H 0.01596 0.0794 0.67911 0.0
H114 H 0.97072 0.91704 0.67923 0.0
H115 H 0.97426 0.91338 0.6309 0.0
H116 H 0.97562 0.85036 0.5782 0.0
H117 H 0.92822 0.77539 0.5584 0.0
H118 H 0.90934 0.85389 0.48321 0.0
H119 H 0.9552 0.93105 0.50379 0.0
N120 N 0.00849 0.98641 0.54338 0.0
N121 N 0.02113 0.03256 0.58399 0.0
N122 N 0.98559 0.94805 0.58372 0.0
C123 C 0.0249 0.03044 0.55705 0.0
C124 C 0.00158 0.99159 0.59749 0.0
C125 C 0.9887 0.94498 0.55678 0.0
C126 C 0.04864 0.07562 0.54337 0.0
C127 C 0.06983 0.07122 0.51757 0.0
C128 C 0.09735 0.11332 0.50618 0.0
C129 C 0.10473 0.16046 0.52052 0.0
C130 C 0.08161 0.165 0.54594 0.0
C131 C 0.05372 0.12339 0.5571 0.0
C132 C -0.00191 -0.00583 0.62689 0.0
C133 C 0.00982 0.04069 0.64107 0.0
C134 C 0.00724 0.04284 0.66882 0.0
C135 C 0.99306 -0.0015 0.68305 0.0
C136 C 0.98097 0.95209 0.66886 0.0
C137 C 0.98337 0.94995 0.64112 0.0
C138 C 0.96841 0.89709 0.54271 0.0
C139 C 0.96198 0.85176 0.55735 0.0
C140 C 0.41938 0.67841 0.95431 0.0
C141 C 0.40047 0.67503 0.9805 0.0
C142 C 0.41211 0.62968 0.9948 0.0
C143 C 0.43974 0.58784 0.98268 0.0
H144 H 0.56479 0.46006 0.99439 0.0
H145 H 0.61489 0.38847 0.01626 0.0
H146 H 0.58985 0.29495 0.94435 0.0
H147 H 0.53787 0.36494 0.92329 0.0
H148 H 0.56443 0.4405 0.86914 0.0
H149 H 0.56628 0.44061 0.82078 0.0
H150 H 0.43945 0.563 0.81881 0.0
H151 H 0.43951 0.56435 0.86726 0.0
H152 H 0.45984 0.64072 0.92191 0.0
H153 H 0.41035 0.71224 0.94246 0.0
H154 H 0.39868 0.62605 0.01511 0.0
H155 H 0.44636 0.5528 0.99386 0.0
N156 N 0.50209 0.50444 0.95582 0.0
N157 N 0.52284 0.46237 0.91546 0.0
N158 N 0.4806 0.54436 0.91502 0.0
C159 C 0.52312 0.46268 0.94252 0.0
C160 C 0.50165 0.50303 0.90156 0.0
C161 C 0.48071 0.54547 0.94209 0.0
C162 C 0.54791 0.41832 0.95704 0.0
C163 C 0.56894 0.42374 0.98356 0.0
C164 C 0.59795 0.38284 0.99601 0.0
C165 C 0.60684 0.33598 0.98205 0.0
C166 C 0.58321 0.33002 0.95597 0.0
C167 C 0.55403 0.37059 0.94367 0.0
C168 C 0.50189 0.50246 0.87209 0.0
C169 C 0.53689 0.46742 0.85839 0.0
C170 C 0.53769 0.46729 0.83059 0.0
C171 C 0.50293 0.50174 0.81577 0.0
C172 C 0.46759 0.53654 0.82952 0.0
C173 C 0.46735 0.53711 0.85735 0.0
C174 C 0.45649 0.59075 0.95612 0.0
C175 C 0.44714 0.63692 0.94233 0.0
C176 C 0.4351 0.32443 0.03487 0.0
C177 C 0.40924 0.3312 0.0094 0.0
C178 C 0.41538 0.3792 -0.00301 0.0
C179 C 0.44338 0.42043 0.01057 0.0
H180 H 0.55796 0.55484 0.00374 0.0
H181 H 0.6049 0.62957 0.98484 0.0
H182 H 0.60206 0.70862 0.0615 0.0
H183 H 0.55282 0.6358 0.07976 0.0
H184 H 0.58057 0.54965 0.13069 0.0
H185 H 0.58238 0.54492 0.17903 0.0
H186 H 0.44041 0.43579 0.17367 0.0
H187 H 0.44108 0.43848 0.1253 0.0
H188 H 0.48092 0.35904 0.06823 0.0
H189 H 0.43068 0.28845 0.04533 0.0
H190 H 0.39672 0.38549 0.97723 0.0
H191 H 0.44522 0.4576 0.00105 0.0
N192 N 0.50853 0.50176 0.04074 0.0
N193 N 0.52982 0.53965 0.08284 0.0
N194 N 0.48982 0.45656 0.07964 0.0
C195 C 0.52898 0.54251 0.05583 0.0
C196 C 0.51013 0.49692 0.09486 0.0
C197 C 0.48911 0.45855 0.05262 0.0
C198 C 0.55212 0.58911 0.04333 0.0
C199 C 0.5662 0.58869 0.01634 0.0
C200 C 0.59348 0.63139 0.00555 0.0
C201 C 0.6077 0.67506 0.02166 0.0
C202 C 0.59111 0.67616 0.0483 0.0
C203 C 0.56349 0.63387 0.05895 0.0
C204 C 0.51075 0.49439 0.12422 0.0
C205 C 0.54984 0.52461 0.13989 0.0
C206 C 0.55056 0.52211 0.16765 0.0
C207 C 0.5114 0.49009 0.18045 0.0
C208 C 0.47204 0.46011 0.16465 0.0
C209 C 0.4721 0.46187 0.13686 0.0
C210 C 0.46605 0.41416 0.03665 0.0
C211 C 0.46322 0.36533 0.04827 0.0
H212 H 0.18584 0.08574 0.03167 0.0
H213 H 0.30567 0.34435 0.98213 0.0
H214 H 0.10841 0.15148 0.96053 0.0
H215 H 0.4211 0.22543 0.01133 0.0
H216 H 0.23064 0.2788 0.97439 0.0
H217 H 0.26945 0.14249 0.02743 0.0
C218 C 0.18638 0.11239 0.01526 0.0
C219 C 0.1402 0.11442 -0.00347 0.0
C220 C 0.27285 0.26708 0.98197 0.0
C221 C 0.23525 0.17905 0.9916 0.0
C222 C 0.31598 0.30436 0.98621 0.0
C223 C 0.36953 0.29067 -0.00196 0.0
C224 C 0.28311 0.21625 0.99014 0.0
C225 C 0.37986 0.23811 0.00307 0.0
C226 C 0.23427 0.14417 0.01267 0.0
C227 C 0.14326 0.14904 0.97541 0.0
N228 N 0.33652 0.20298 -0.00024 0.0
N229 N 0.18977 0.18072 0.9737 0.0
H230 H 0.115 0.85733 0.03915 0.0
H231 H 0.41126 0.77996 0.97458 0.0
H232 H 0.17386 0.92215 0.96633 0.0
H233 H 0.305 0.66527 0.01081 0.0
H234 H 0.33793 0.84515 0.98335 0.0
H235 H 0.19748 0.79756 0.03942 0.0
C236 C 0.14535 0.85901 0.02331 0.0
C237 C 0.13751 0.89413 0.00251 0.0
C238 C 0.3313 0.8058 0.9897 0.0
C239 C 0.23195 0.82772 0.00324 0.0
C240 C 0.37294 0.76856 0.98469 0.0
C241 C 0.36363 0.71671 0.99132 0.0
C242 C 0.28049 0.79133 0.00186 0.0
C243 C 0.31401 0.70466 0.00524 0.0
C244 C 0.19218 0.82513 0.02353 0.0
C245 C 0.17801 0.8951 0.98251 0.0
N246 N 0.27385 0.74167 0.00982 0.0
N247 N 0.22374 0.86253 0.98345 0.0
H248 H 0.83971 0.92614 0.04105 0.0
H249 H 0.69944 0.66591 0.98893 0.0
H250 H 0.88936 0.85737 0.96634 0.0
H251 H 0.60286 0.77941 0.03298 0.0
H252 H 0.77203 0.7319 0.98107 0.0
H253 H 0.7568 0.86748 0.04095 0.0
C254 C 0.83329 0.89848 0.02472 0.0
C255 C 0.87147 0.89625 0.00376 0.0
C256 C 0.73442 0.7424 0.9921 0.0
C257 C 0.77704 0.82938 0.00351 0.0
C258 C 0.69263 0.7049 0.99643 0.0
C259 C 0.64532 0.71681 0.01208 0.0
C260 C 0.72931 0.79171 0.0039 0.0
C261 C 0.63945 0.76801 0.0215 0.0
C262 C 0.78572 0.86549 0.02452 0.0
C263 C 0.86086 0.86016 0.98289 0.0
N264 N 0.68158 0.80333 0.01773 0.0
N265 N 0.81486 0.82761 0.98343 0.0
H266 H 0.8305 0.08415 0.96534 0.0
H267 H 0.70761 0.34961 0.01188 0.0
H268 H 0.90175 0.15879 0.03689 0.0
H269 H 0.59683 0.23028 0.97655 0.0
H270 H 0.78158 0.28437 0.0207 0.0
H271 H 0.748 0.14264 0.96646 0.0
C272 C 0.82888 0.11308 0.9812 0.0
C273 C 0.87306 0.11703 0.00095 0.0
C274 C 0.74061 0.2725 0.01145 0.0
C275 C 0.77904 0.1838 0.00233 0.0
C276 C 0.69809 0.3096 0.00657 0.0
C277 C 0.64619 0.29566 0.99292 0.0
C278 C 0.73148 0.22152 0.00216 0.0
C279 C 0.63684 0.24314 0.98633 0.0
C280 C 0.78155 0.14598 0.98199 0.0
C281 C 0.86852 0.15472 0.02126 0.0
N282 N 0.67959 0.20816 0.99048 0.0
N283 N 0.82256 0.18727 0.02126 0.0
H284 H 0.69228 0.55402 0.53667 0.0
H285 H 0.8185 0.81141 0.48532 0.0
H286 H 0.63727 0.60944 0.45928 0.0
H287 H 0.92656 0.70444 0.52943 0.0
H288 H 0.74883 0.74163 0.47619 0.0
H289 H 0.7749 0.61338 0.53674 0.0
C290 C 0.69778 0.57855 0.51967 0.0
C291 C 0.65794 0.57705 0.49799 0.0
C292 C 0.7883 0.73343 0.48751 0.0
C293 C 0.75151 0.64521 0.49809 0.0
C294 C 0.82842 0.77314 0.49259 0.0
C295 C 0.87819 0.76429 0.50868 0.0
C296 C 0.79747 0.68493 0.49903 0.0
C297 C 0.88799 0.71371 0.51772 0.0
C298 C 0.74502 0.61206 0.51963 0.0
C299 C 0.66715 0.60942 0.47637 0.0
N300 N 0.84741 0.67627 0.51328 0.0
N301 N 0.71254 0.64288 0.47714 0.0
H302 H 0.64342 0.36054 0.54102 0.0
H303 H 0.71103 0.09356 0.46633 0.0
H304 H 0.57408 0.3175 0.46274 0.0
H305 H 0.83861 0.17226 0.51729 0.0
H306 H 0.64277 0.16297 0.47543 0.0
H307 H 0.69933 0.27972 0.54174 0.0
C308 C 0.63966 0.33389 0.52412 0.0
C309 C 0.60474 0.34578 0.50164 0.0
C310 C 0.68543 0.16444 0.48496 0.0
C311 C 0.66684 0.25346 0.5027 0.0
C312 C 0.7244 0.12493 0.47981 0.0
C313 C 0.78115 0.12777 0.49051 0.0
C314 C 0.70301 0.2067 0.50121 0.0
C315 C 0.79546 0.16856 0.50849 0.0
C316 C 0.67141 0.288 0.52457 0.0
C317 C 0.60114 0.31006 0.48028 0.0
N318 N 0.75682 0.20694 0.51301 0.0
N319 N 0.63174 0.26541 0.48136 0.0
H320 H 0.37938 0.34946 0.45975 0.0
H321 H 0.09024 0.26563 0.52753 0.0
H322 H 0.32401 0.41947 0.53317 0.0
H323 H 0.20202 0.15365 0.49084 0.0
H324 H 0.16031 0.33348 0.51894 0.0
H325 H 0.29863 0.2881 0.46082 0.0
C326 C 0.3498 0.35231 0.4759 0.0
C327 C 0.35845 0.38927 0.49653 0.0
C328 C 0.16887 0.29406 0.51253 0.0
C329 C 0.26598 0.32018 0.49749 0.0
C330 C 0.12914 0.25518 0.51749 0.0
C331 C 0.1407 0.20332 0.51054 0.0
C332 C 0.21987 0.28134 0.49992 0.0
C333 C 0.19095 0.19283 0.4966 0.0
C334 C 0.30402 0.31729 0.47649 0.0
C335 C 0.31906 0.39123 0.51703 0.0
N336 N 0.22891 0.23148 0.4919 0.0
N337 N 0.27431 0.35717 0.51696 0.0
H338 H 0.39713 0.62954 0.53618 0.0
H339 H 0.2615 0.84151 0.4384 0.0
H340 H 0.40906 0.62502 0.45053 0.0
H341 H 0.22403 0.83714 0.52192 0.0
H342 H 0.32312 0.76644 0.4439 0.0
H343 H 0.33988 0.70889 0.53256 0.0
C344 C 0.38779 0.64523 0.51663 0.0
C345 C 0.40782 0.62055 0.4936 0.0
C346 C 0.30172 0.78189 0.46111 0.0
C347 C 0.34273 0.71121 0.48939 0.0
C348 C 0.26691 0.82524 0.45805 0.0
C349 C 0.23788 0.84608 0.47981 0.0
C350 C 0.30772 0.75874 0.4861 0.0
C351 C 0.24542 0.82222 0.5046 0.0
C352 C 0.35509 0.69045 0.5146 0.0
C353 C 0.39442 0.64257 0.46881 0.0
N354 N 0.27969 0.77973 0.5071 0.0
N355 N 0.36282 0.6866 0.4674 0.0
H356 H 0.09146 0.964 0.15314 0.0
H357 H 0.98687 0.10908 0.28502 0.0
H358 H 0.96621 0.08725 0.15224 0.0
H359 H 0.09123 0.97089 0.28577 0.0
H360 H 0.98492 0.10624 0.23632 0.0
H361 H 0.09845 0.97086 0.20175 0.0
C362 C 0.06569 0.99274 0.16317 0.0
C363 C 0.02812 0.02505 0.14861 0.0
C364 C 0.00839 0.07665 0.24716 0.0
C365 C 0.03562 0.03291 0.20428 0.0
C366 C 0.00935 0.07811 0.27498 0.0
C367 C 0.03908 0.04004 0.28959 0.0
C368 C 0.03748 0.0369 0.2338 0.0
C369 C 0.06834 0.00144 0.27543 0.0
C370 C 0.06946 -0.00355 0.19093 0.0
C371 C 0.99518 0.06113 0.16269 0.0
N372 N 0.06666 0.0008 0.24836 0.0
N373 N -0.00026 0.06412 0.18974 0.0
H374 H 0.92005 0.94393 0.84826 0.0
H375 H 0.06775 0.04915 0.71826 0.0
H376 H 0.06079 0.0538 0.85051 0.0
H377 H 0.91594 0.95189 0.71526 0.0
H378 H 0.06613 0.05062 0.7668 0.0
H379 H 0.91805 0.94555 0.79956 0.0
C380 C 0.9503 0.96863 0.83854 0.0
C381 C 0.9908 -0.00137 0.85353 0.0
C382 C 0.03306 0.02905 0.75554 0.0
C383 C 0.98915 0.00023 0.79779 0.0
C384 C 0.03375 0.02845 0.72779 0.0
C385 C 0.99189 0.00038 0.71261 0.0
C386 C 0.9903 0.00125 0.76831 0.0
C387 C 0.94954 0.97348 0.72613 0.0
C388 C 0.94932 0.96934 0.81073 0.0
C389 C 0.02946 0.02935 0.83981 0.0
N390 N 0.94988 0.97452 0.75321 0.0
N391 N 0.02772 0.02928 0.81275 0.0
H392 H 0.5483 0.41931 0.64988 0.0
H393 H 0.49446 0.58458 0.78218 0.0
H394 H 0.46838 0.56989 0.64876 0.0
H395 H 0.51309 0.41817 0.78153 0.0
H396 H 0.49511 0.58281 0.73355 0.0
H397 H 0.54727 0.42134 0.69865 0.0
C398 C 0.53079 0.45288 0.65995 0.0
C399 C 0.50836 0.4945 0.64535 0.0
C400 C 0.49896 0.54673 0.74411 0.0
C401 C 0.50712 0.49713 0.70097 0.0
C402 C 0.49828 0.54761 0.77189 0.0
C403 C 0.50361 0.50141 0.78613 0.0
C404 C 0.50572 0.49945 0.73041 0.0
C405 C 0.50981 0.45488 0.77156 0.0
C406 C 0.52989 0.45389 0.68771 0.0
C407 C 0.48565 0.53686 0.65932 0.0
N408 N 0.51089 0.45512 0.74453 0.0
N409 N 0.48588 0.53723 0.68639 0.0
H410 H 0.44637 0.41439 0.34412 0.0
H411 H 0.53432 0.56912 0.2169 0.0
H412 H 0.57038 0.53915 0.34906 0.0
H413 H 0.48816 0.40687 0.21196 0.0
H414 H 0.53502 0.5648 0.2654 0.0
H415 H 0.44749 0.41722 0.29526 0.0
C416 C 0.4737 0.44238 0.33485 0.0
C417 C 0.50846 0.47651 0.35046 0.0
C418 C 0.52487 0.53021 0.2536 0.0
C419 C 0.50943 0.48037 0.295 0.0
C420 C 0.52478 0.53246 0.22588 0.0
C421 C 0.5114 0.48821 0.21009 0.0
C422 C 0.51044 0.48372 0.2657 0.0
C423 C 0.49778 0.44226 0.22312 0.0
C424 C 0.47453 0.44382 0.3071 0.0
C425 C 0.54334 0.51196 0.33763 0.0
N426 N 0.49735 0.44129 0.25016 0.0
N427 N 0.54262 0.51328 0.31059 0.0
loop_
_geom_bond_atom_site_label_1
_geom_bond_atom_site_label_2
_geom_bond_distance
_geom_bond_site_symmetry_2
_ccdc_geom_bond_type
C0 O16 1.251 . S
C0 O18 1.254 1_554 S
N1 C2 1.333 1_445 S
N1 C6 1.307 . S
N1 Zn7 2.020 . S
C2 N1 1.333 1_665 S
C2 C3 1.379 . S
C2 H20 0.952 . S
C3 C2 1.379 . S
C3 C4 1.390 1_665 S
C3 H30 0.949 . S
C4 C3 1.390 1_445 S
C4 C5 1.357 . S
C5 C4 1.357 . S
C5 C6 1.370 . S
C5 H31 0.950 . S
C6 N1 1.307 . S
C6 C5 1.370 . S
C6 H24 0.948 . S
Zn7 N1 2.020 . S
Zn7 O16 2.039 1_445 S
Zn7 O22 2.034 1_455 S
Zn7 O26 2.025 . S
Zn7 O28 2.024 1_545 S
C8 O27 1.246 1_554 S
C8 O28 1.249 . S
N9 C10 1.307 1_445 S
N9 C11 1.333 . S
N9 Zn15 2.020 . S
C10 N9 1.307 1_665 S
C10 C14 1.370 . S
C10 H21 0.948 . S
C11 N9 1.333 . S
C11 C12 1.379 . S
C11 H19 0.952 . S
C12 C11 1.379 . S
C12 C13 1.390 . S
C12 H32 0.949 . S
C13 C12 1.390 . S
C13 C14 1.357 1_445 S
C14 C10 1.370 . S
C14 C13 1.357 1_665 S
C14 H33 0.950 . S
Zn15 N9 2.020 . S
Zn15 O18 2.025 1_445 S
Zn15 O23 2.024 1_455 S
Zn15 O25 2.039 . S
Zn15 O27 2.034 1_545 S
O16 C0 1.251 . S
O16 Zn7 2.039 1_665 S
C17 O22 1.246 . S
C17 O23 1.249 1_554 S
O18 C0 1.254 1_556 S
O18 Zn15 2.025 1_665 S
H19 C11 0.952 . S
H20 C2 0.952 . S
H21 C10 0.948 . S
O22 Zn7 2.034 1_655 S
O22 C17 1.246 . S
O23 Zn15 2.024 1_655 S
O23 C17 1.249 1_556 S
H24 C6 0.948 . S
O25 Zn15 2.039 . S
O25 C29 1.251 1_556 S
O26 Zn7 2.025 . S
O26 C29 1.254 . S
O27 C8 1.246 1_556 S
O27 Zn15 2.034 1_565 S
O28 Zn7 2.024 1_565 S
O28 C8 1.249 . S
C29 O25 1.251 1_554 S
C29 O26 1.254 . S
H30 C3 0.949 . S
H31 C5 0.950 . S
H32 C12 0.949 . S
H33 C14 0.950 . S
C34 O50 1.251 . S
C34 O52 1.254 . S
N35 C36 1.333 . S
N35 C40 1.307 . S
N35 Zn41 2.020 . S
C36 N35 1.333 . S
C36 C37 1.379 . S
C36 H54 0.952 . S
C37 C36 1.379 . S
C37 C38 1.390 . S
C37 H64 0.949 . S
C38 C37 1.390 . S
C38 C39 1.357 . S
C39 C38 1.357 . S
C39 C40 1.370 . S
C39 H65 0.950 . S
C40 N35 1.307 . S
C40 C39 1.370 . S
C40 H58 0.948 . S
Zn41 N35 2.020 . S
Zn41 O50 2.039 . S
Zn41 O56 2.034 . S
Zn41 O60 2.025 . S
Zn41 O62 2.024 . S
C42 O61 1.246 . S
C42 O62 1.249 . S
N43 C44 1.307 . S
N43 C45 1.333 . S
N43 Zn49 2.020 . S
C44 N43 1.307 . S
C44 C48 1.370 . S
C44 H55 0.948 . S
C45 N43 1.333 . S
C45 C46 1.379 . S
C45 H53 0.952 . S
C46 C45 1.379 . S
C46 C47 1.390 . S
C46 H66 0.949 . S
C47 C46 1.390 . S
C47 C48 1.357 . S
C48 C44 1.370 . S
C48 C47 1.357 . S
C48 H67 0.950 . S
Zn49 N43 2.020 . S
Zn49 O52 2.025 . S
Zn49 O57 2.024 . S
Zn49 O59 2.039 . S
Zn49 O61 2.034 . S
O50 C34 1.251 . S
O50 Zn41 2.039 . S
C51 O56 1.246 . S
C51 O57 1.249 . S
O52 C34 1.254 . S
O52 Zn49 2.025 . S
H53 C45 0.952 . S
H54 C36 0.952 . S
H55 C44 0.948 . S
O56 Zn41 2.034 . S
O56 C51 1.246 . S
O57 Zn49 2.024 . S
O57 C51 1.249 . S
H58 C40 0.948 . S
O59 Zn49 2.039 . S
O59 C63 1.251 . S
O60 Zn41 2.025 . S
O60 C63 1.254 . S
O61 C42 1.246 . S
O61 Zn49 2.034 . S
O62 Zn41 2.024 . S
O62 C42 1.249 . S
C63 O59 1.251 . S
C63 O60 1.254 . S
H64 C37 0.949 . S
H65 C39 0.950 . S
H66 C46 0.949 . S
H67 C48 0.950 . S
C68 C69 1.384 . S
C68 H81 0.947 . S
C68 C103 1.382 . S
C69 C68 1.384 . S
C69 C70 1.378 . S
C70 C69 1.378 . S
C70 C71 1.378 . S
C70 H82 0.952 . S
C71 C70 1.378 . S
C71 H83 0.950 . S
C71 C102 1.383 . S
H72 C91 0.947 . S
H73 C92 0.946 . S
H74 C94 0.953 . S
H75 C95 0.945 . S
H76 C97 0.952 . S
H77 C98 0.949 . S
H78 C100 0.950 . S
H79 C101 0.948 . S
H80 C103 0.951 . S
H81 C68 0.947 . S
H82 C70 0.952 . S
H83 C71 0.950 . S
N84 C87 1.382 1_545 S
N84 C89 1.363 1_455 S
N85 C87 1.371 . S
N85 C88 1.372 1_565 S
N86 C88 1.361 1_655 S
N86 C89 1.377 . S
C87 N84 1.382 1_565 S
C87 N85 1.371 . S
C87 C90 1.480 . S
C88 N85 1.372 1_545 S
C88 N86 1.361 1_455 S
C88 C96 1.457 . S
C89 N84 1.363 1_655 S
C89 N86 1.377 . S
C89 C102 1.479 . S
C90 C87 1.480 . S
C90 C91 1.383 . S
C90 C95 1.385 . S
C91 H72 0.947 . S
C91 C90 1.383 . S
C91 C92 1.388 . S
C92 H73 0.946 . S
C92 C91 1.388 . S
C92 C93 1.384 . S
C93 C92 1.384 . S
C93 C94 1.377 . S
C94 H74 0.953 . S
C94 C93 1.377 . S
C94 C95 1.369 . S
C95 H75 0.945 . S
C95 C90 1.385 . S
C95 C94 1.369 . S
C96 C88 1.457 . S
C96 C97 1.372 1_545 S
C96 C101 1.364 1_455 S
C97 H76 0.952 . S
C97 C96 1.372 1_565 S
C97 C98 1.389 . S
C98 H77 0.949 . S
C98 C97 1.389 . S
C98 C99 1.387 1_565 S
C99 C98 1.387 1_545 S
C99 C100 1.372 1_455 S
C100 H78 0.950 . S
C100 C99 1.372 1_655 S
C100 C101 1.379 . S
C101 H79 0.948 . S
C101 C96 1.364 1_655 S
C101 C100 1.379 . S
C102 C71 1.383 . S
C102 C89 1.479 . S
C102 C103 1.398 . S
C103 C68 1.382 . S
C103 H80 0.951 . S
C103 C102 1.398 . S
C104 C105 1.384 . S
C104 H117 0.947 . S
C104 C139 1.382 . S
C105 C104 1.384 . S
C105 C106 1.378 . S
C106 C105 1.378 . S
C106 C107 1.378 . S
C106 H118 0.952 . S
C107 C106 1.378 . S
C107 H119 0.950 . S
C107 C138 1.383 . S
H108 C127 0.947 . S
H109 C128 0.946 . S
H110 C130 0.953 . S
H111 C131 0.945 . S
H112 C133 0.952 . S
H113 C134 0.949 . S
H114 C136 0.950 . S
H115 C137 0.956 . S
H116 C139 0.951 . S
H117 C104 0.947 . S
H118 C106 0.952 . S
H119 C107 0.950 . S
N120 C123 1.371 1_565 S
N120 C125 1.375 1_455 S
N121 C123 1.371 . S
N121 C124 1.376 . S
N122 C124 1.357 1_665 S
N122 C125 1.377 . S
C123 N120 1.371 1_545 S
C123 N121 1.371 . S
C123 C126 1.480 . S
C124 N121 1.376 . S
C124 N122 1.357 1_445 S
C124 C132 1.457 . S
C125 N120 1.375 1_655 S
C125 N122 1.377 . S
C125 C138 1.479 . S
C126 C123 1.480 . S
C126 C127 1.383 . S
C126 C131 1.385 . S
C127 H108 0.947 . S
C127 C126 1.383 . S
C127 C128 1.388 . S
C128 H109 0.946 . S
C128 C127 1.388 . S
C128 C129 1.384 . S
C129 C128 1.384 . S
C129 C130 1.377 . S
C130 H110 0.953 . S
C130 C129 1.377 . S
C130 C131 1.369 . S
C131 H111 0.945 . S
C131 C126 1.385 . S
C131 C130 1.369 . S
C132 C124 1.457 . S
C132 C133 1.373 . S
C132 C137 1.354 1_445 S
C133 H112 0.952 . S
C133 C132 1.373 . S
C133 C134 1.389 . S
C134 H113 0.949 . S
C134 C133 1.389 . S
C134 C135 1.387 . S
C135 C134 1.387 . S
C135 C136 1.372 1_445 S
C136 H114 0.950 . S
C136 C135 1.372 1_665 S
C136 C137 1.380 . S
C137 H115 0.956 . S
C137 C132 1.354 1_665 S
C137 C136 1.380 . S
C138 C107 1.383 . S
C138 C125 1.479 . S
C138 C139 1.398 . S
C139 C104 1.382 . S
C139 H116 0.951 . S
C139 C138 1.398 . S
C140 C141 1.384 . S
C140 H153 0.947 . S
C140 C175 1.382 . S
C141 C140 1.384 . S
C141 C142 1.378 1_556 S
C142 C141 1.378 1_554 S
C142 C143 1.378 1_554 S
C142 H154 0.952 . S
C143 C142 1.378 1_556 S
C143 H155 0.950 1_556 S
C143 C174 1.383 . S
H144 C163 0.927 1_554 S
H145 C164 0.946 . S
H146 C166 0.953 . S
H147 C167 0.945 . S
H148 C169 0.952 . S
H149 C170 0.949 . S
H150 C172 0.950 . S
H151 C173 0.948 . S
H152 C175 0.951 . S
H153 C140 0.947 . S
H154 C142 0.952 . S
H155 C143 0.950 1_554 S
N156 C159 1.382 . S
N156 C161 1.363 . S
N157 C159 1.371 . S
N157 C160 1.372 . S
N158 C160 1.361 . S
N158 C161 1.377 . S
C159 N156 1.382 . S
C159 N157 1.371 . S
C159 C162 1.480 . S
C160 N157 1.372 . S
C160 N158 1.361 . S
C160 C168 1.457 . S
C161 N156 1.363 . S
C161 N158 1.377 . S
C161 C174 1.479 . S
C162 C159 1.480 . S
C162 C163 1.383 . S
C162 C167 1.385 . S
C163 H144 0.927 1_556 S
C163 C162 1.383 . S
C163 C164 1.388 1_556 S
C164 H145 0.946 . S
C164 C163 1.388 1_554 S
C164 C165 1.384 1_554 S
C165 C164 1.384 1_556 S
C165 C166 1.377 . S
C166 H146 0.953 . S
C166 C165 1.377 . S
C166 C167 1.369 . S
C167 H147 0.945 . S
C167 C162 1.385 . S
C167 C166 1.369 . S
C168 C160 1.457 . S
C168 C169 1.372 . S
C168 C173 1.364 . S
C169 H148 0.952 . S
C169 C168 1.372 . S
C169 C170 1.389 . S
C170 H149 0.949 . S
C170 C169 1.389 . S
C170 C171 1.387 . S
C171 C170 1.387 . S
C171 C172 1.372 . S
C172 H150 0.950 . S
C172 C171 1.372 . S
C172 C173 1.379 . S
C173 H151 0.948 . S
C173 C168 1.364 . S
C173 C172 1.379 . S
C174 C143 1.383 . S
C174 C161 1.479 . S
C174 C175 1.398 . S
C175 C140 1.382 . S
C175 H152 0.951 . S
C175 C174 1.398 . S
C176 C177 1.384 . S
C176 H189 0.947 . S
C176 C211 1.382 . S
C177 C176 1.384 . S
C177 C178 1.378 1_554 S
C178 C177 1.378 1_556 S
C178 C179 1.378 1_556 S
C178 H190 0.952 . S
C179 C178 1.378 1_554 S
C179 H191 0.950 . S
C179 C210 1.383 . S
H180 C199 0.947 . S
H181 C200 0.946 1_556 S
H182 C202 0.953 . S
H183 C203 0.945 . S
H184 C205 0.952 . S
H185 C206 0.949 . S
H186 C208 0.950 . S
H187 C209 0.948 . S
H188 C211 0.951 . S
H189 C176 0.947 . S
H190 C178 0.952 . S
H191 C179 0.950 . S
N192 C195 1.382 . S
N192 C197 1.363 . S
N193 C195 1.371 . S
N193 C196 1.372 . S
N194 C196 1.361 . S
N194 C197 1.377 . S
C195 N192 1.382 . S
C195 N193 1.371 . S
C195 C198 1.480 . S
C196 N193 1.372 . S
C196 N194 1.361 . S
C196 C204 1.457 . S
C197 N192 1.363 . S
C197 N194 1.377 . S
C197 C210 1.479 . S
C198 C195 1.480 . S
C198 C199 1.383 . S
C198 C203 1.385 . S
C199 H180 0.947 . S
C199 C198 1.383 . S
C199 C200 1.388 . S
C200 H181 0.946 1_554 S
C200 C199 1.388 . S
C200 C201 1.384 . S
C201 C200 1.384 . S
C201 C202 1.377 . S
C202 H182 0.953 . S
C202 C201 1.377 . S
C202 C203 1.369 . S
C203 H183 0.945 . S
C203 C198 1.385 . S
C203 C202 1.369 . S
C204 C196 1.457 . S
C204 C205 1.372 . S
C204 C209 1.364 . S
C205 H184 0.952 . S
C205 C204 1.372 . S
C205 C206 1.389 . S
C206 H185 0.949 . S
C206 C205 1.389 . S
C206 C207 1.387 . S
C207 C206 1.387 . S
C207 C208 1.372 . S
C208 H186 0.950 . S
C208 C207 1.372 . S
C208 C209 1.379 . S
C209 H187 0.948 . S
C209 C204 1.364 . S
C209 C208 1.379 . S
C210 C179 1.383 . S
C210 C197 1.479 . S
C210 C211 1.398 . S
C211 C176 1.382 . S
C211 H188 0.951 . S
C211 C210 1.398 . S
H212 C218 0.930 . S
H213 C222 0.930 . S
H214 C227 0.929 . S
H215 C225 0.929 . S
H216 C220 0.929 . S
H217 C226 0.929 . S
C218 H212 0.930 . S
C218 C219 1.367 . S
C218 C226 1.378 . S
C219 C218 1.367 . S
C219 C227 1.433 1_554 S
C220 H216 0.929 . S
C220 C222 1.378 . S
C220 C224 1.350 1_556 S
C221 C224 1.463 . S
C221 C226 1.350 . S
C221 N229 1.427 1_554 S
C222 H213 0.930 . S
C222 C220 1.378 . S
C222 C223 1.367 1_556 S
C223 C222 1.367 1_554 S
C223 C225 1.433 . S
C224 C220 1.350 1_554 S
C224 C221 1.463 . S
C224 N228 1.427 . S
C225 H215 0.929 . S
C225 C223 1.433 . S
C225 N228 1.384 . S
C226 H217 0.929 . S
C226 C218 1.378 . S
C226 C221 1.350 . S
C227 H214 0.929 . S
C227 C219 1.433 1_556 S
C227 N229 1.384 . S
N228 C224 1.427 . S
N228 C225 1.384 . S
N229 C221 1.427 1_556 S
N229 C227 1.384 . S
H230 C236 0.930 . S
H231 C240 0.930 . S
H232 C245 0.929 . S
H233 C243 0.929 . S
H234 C238 0.929 . S
H235 C244 0.929 . S
C236 H230 0.930 . S
C236 C237 1.367 . S
C236 C244 1.378 . S
C237 C236 1.367 . S
C237 C245 1.433 1_554 S
C238 H234 0.929 . S
C238 C240 1.378 . S
C238 C242 1.378 . S
C239 C242 1.460 1_554 S
C239 C244 1.350 . S
C239 N247 1.427 1_554 S
C240 H231 0.930 . S
C240 C238 1.378 . S
C240 C241 1.367 . S
C241 C240 1.367 . S
C241 C243 1.433 1_556 S
C242 C238 1.378 . S
C242 C239 1.460 1_556 S
C242 N246 1.400 1_556 S
C243 H233 0.929 . S
C243 C241 1.433 1_554 S
C243 N246 1.384 . S
C244 H235 0.929 . S
C244 C236 1.378 . S
C244 C239 1.350 . S
C245 H232 0.929 . S
C245 C237 1.433 1_556 S
C245 N247 1.384 . S
N246 C242 1.400 1_554 S
N246 C243 1.384 . S
N247 C239 1.427 1_556 S
N247 C245 1.384 . S
H248 C254 0.930 . S
H249 C258 0.930 . S
H250 C263 0.929 . S
H251 C261 0.929 . S
H252 C256 0.929 . S
H253 C262 0.929 . S
C254 H248 0.930 . S
C254 C255 1.367 . S
C254 C262 1.378 . S
C255 C254 1.367 . S
C255 C263 1.433 1_554 S
C256 H252 0.929 . S
C256 C258 1.378 . S
C256 C260 1.350 1_556 S
C257 C260 1.463 . S
C257 C262 1.350 . S
C257 N265 1.427 1_554 S
C258 H249 0.930 . S
C258 C256 1.378 . S
C258 C259 1.367 1_556 S
C259 C258 1.367 1_554 S
C259 C261 1.433 . S
C260 C256 1.350 1_554 S
C260 C257 1.463 . S
C260 N264 1.427 . S
C261 H251 0.929 . S
C261 C259 1.433 . S
C261 N264 1.384 . S
C262 H253 0.929 . S
C262 C254 1.378 . S
C262 C257 1.350 . S
C263 H250 0.929 . S
C263 C255 1.433 1_556 S
C263 N265 1.384 . S
N264 C260 1.427 . S
N264 C261 1.384 . S
N265 C257 1.427 1_556 S
N265 C263 1.384 . S
H266 C272 0.930 . S
H267 C276 0.930 . S
H268 C281 0.929 . S
H269 C279 0.929 . S
H270 C274 0.929 . S
H271 C280 0.929 . S
C272 H266 0.930 . S
C272 C273 1.367 1_556 S
C272 C280 1.378 . S
C273 C272 1.367 1_554 S
C273 C281 1.433 . S
C274 H270 0.929 . S
C274 C276 1.378 . S
C274 C278 1.350 . S
C275 C278 1.463 . S
C275 C280 1.350 1_554 S
C275 N283 1.427 . S
C276 H267 0.930 . S
C276 C274 1.378 . S
C276 C277 1.377 . S
C277 C276 1.377 . S
C277 C279 1.424 1_554 S
C278 C274 1.350 . S
C278 C275 1.463 . S
C278 N282 1.427 1_554 S
C279 H269 0.929 . S
C279 C277 1.424 1_556 S
C279 N282 1.384 . S
C280 H271 0.929 . S
C280 C272 1.378 . S
C280 C275 1.350 1_556 S
C281 H268 0.929 . S
C281 C273 1.433 . S
C281 N283 1.384 . S
N282 C278 1.427 1_556 S
N282 C279 1.384 . S
N283 C275 1.427 . S
N283 C281 1.384 . S
H284 C290 0.930 . S
H285 C294 0.930 . S
H286 C299 0.929 . S
H287 C297 0.929 . S
H288 C292 0.929 . S
H289 C298 0.929 . S
C290 H284 0.930 . S
C290 C291 1.367 . S
C290 C298 1.378 . S
C291 C290 1.367 . S
C291 C299 1.433 . S
C292 H288 0.929 . S
C292 C294 1.378 . S
C292 C296 1.350 . S
C293 C296 1.463 . S
C293 C298 1.350 . S
C293 N301 1.427 . S
C294 H285 0.930 . S
C294 C292 1.378 . S
C294 C295 1.367 . S
C295 C294 1.367 . S
C295 C297 1.433 . S
C296 C292 1.350 . S
C296 C293 1.463 . S
C296 N300 1.427 . S
C297 H287 0.929 . S
C297 C295 1.433 . S
C297 N300 1.384 . S
C298 H289 0.929 . S
C298 C290 1.378 . S
C298 C293 1.350 . S
C299 H286 0.929 . S
C299 C291 1.433 . S
C299 N301 1.384 . S
N300 C296 1.427 . S
N300 C297 1.384 . S
N301 C293 1.427 . S
N301 C299 1.384 . S
H302 C308 0.930 . S
H303 C312 0.930 . S
H304 C317 0.929 . S
H305 C315 0.929 . S
H306 C310 0.929 . S
H307 C316 0.929 . S
C308 H302 0.930 . S
C308 C309 1.367 . S
C308 C316 1.378 . S
C309 C308 1.367 . S
C309 C317 1.433 . S
C310 H306 0.929 . S
C310 C312 1.378 . S
C310 C314 1.350 . S
C311 C314 1.463 . S
C311 C316 1.350 . S
C311 N319 1.427 . S
C312 H303 0.930 . S
C312 C310 1.378 . S
C312 C313 1.367 . S
C313 C312 1.367 . S
C313 C315 1.433 . S
C314 C310 1.350 . S
C314 C311 1.463 . S
C314 N318 1.427 . S
C315 H305 0.929 . S
C315 C313 1.433 . S
C315 N318 1.384 . S
C316 H307 0.929 . S
C316 C308 1.378 . S
C316 C311 1.350 . S
C317 H304 0.929 . S
C317 C309 1.433 . S
C317 N319 1.384 . S
N318 C314 1.427 . S
N318 C315 1.384 . S
N319 C311 1.427 . S
N319 C317 1.384 . S
H320 C326 0.930 . S
H321 C330 0.930 . S
H322 C335 0.929 . S
H323 C333 0.929 . S
H324 C328 0.929 . S
H325 C334 0.929 . S
C326 H320 0.930 . S
C326 C327 1.367 . S
C326 C334 1.378 . S
C327 C326 1.367 . S
C327 C335 1.433 . S
C328 H324 0.929 . S
C328 C330 1.378 . S
C328 C332 1.350 . S
C329 C332 1.463 . S
C329 C334 1.350 . S
C329 N337 1.427 . S
C330 H321 0.930 . S
C330 C328 1.378 . S
C330 C331 1.367 . S
C331 C330 1.367 . S
C331 C333 1.433 . S
C332 C328 1.350 . S
C332 C329 1.463 . S
C332 N336 1.427 . S
C333 H323 0.929 . S
C333 C331 1.433 . S
C333 N336 1.384 . S
C334 H325 0.929 . S
C334 C326 1.378 . S
C334 C329 1.350 . S
C335 H322 0.929 . S
C335 C327 1.433 . S
C335 N337 1.384 . S
N336 C332 1.427 . S
N336 C333 1.384 . S
N337 C329 1.427 . S
N337 C335 1.384 . S
H338 C344 0.930 . S
H339 C348 0.930 . S
H340 C353 0.929 . S
H341 C351 0.929 . S
H342 C346 0.929 . S
H343 C352 0.929 . S
C344 H338 0.930 . S
C344 C345 1.367 . S
C344 C352 1.378 . S
C345 C344 1.367 . S
C345 C353 1.433 . S
C346 H342 0.929 . S
C346 C348 1.378 . S
C346 C350 1.350 . S
C347 C350 1.463 . S
C347 C352 1.350 . S
C347 N355 1.427 . S
C348 H339 0.930 . S
C348 C346 1.378 . S
C348 C349 1.367 . S
C349 C348 1.367 . S
C349 C351 1.433 . S
C350 C346 1.350 . S
C350 C347 1.463 . S
C350 N354 1.427 . S
C351 H341 0.929 . S
C351 C349 1.433 . S
C351 N354 1.384 . S
C352 H343 0.929 . S
C352 C344 1.378 . S
C352 C347 1.350 . S
C353 H340 0.929 . S
C353 C345 1.433 . S
C353 N355 1.384 . S
N354 C350 1.427 . S
N354 C351 1.384 . S
N355 C347 1.427 . S
N355 C353 1.384 . S
H356 C362 0.930 . S
H357 C366 0.930 . S
H358 C371 0.929 . S
H359 C369 0.929 . S
H360 C364 0.929 . S
H361 C370 0.929 . S
C362 H356 0.930 . S
C362 C363 1.367 1_565 S
C362 C370 1.378 . S
C363 C362 1.367 1_545 S
C363 C371 1.433 1_455 S
C364 H360 0.929 . S
C364 C366 1.378 . S
C364 C368 1.350 1_655 S
C365 C368 1.463 . S
C365 C370 1.350 1_545 S
C365 N373 1.427 1_455 S
C366 H357 0.930 . S
C366 C364 1.378 . S
C366 C367 1.367 . S
C367 C366 1.367 . S
C367 C369 1.433 1_645 S
C368 C364 1.350 1_455 S
C368 C365 1.463 . S
C368 N372 1.427 1_545 S
C369 H359 0.929 . S
C369 C367 1.433 1_465 S
C369 N372 1.384 . S
C370 H361 0.929 . S
C370 C362 1.378 . S
C370 C365 1.350 1_565 S
C371 H358 0.929 . S
C371 C363 1.433 1_655 S
C371 N373 1.384 . S
N372 C368 1.427 1_565 S
N372 C369 1.384 . S
N373 C365 1.427 1_655 S
N373 C371 1.384 . S
H374 C380 0.930 . S
H375 C384 0.930 . S
H376 C389 0.929 . S
H377 C387 0.929 . S
H378 C382 0.929 . S
H379 C388 0.929 . S
C380 H374 0.930 . S
C380 C381 1.367 1_665 S
C380 C388 1.378 . S
C381 C380 1.367 1_445 S
C381 C389 1.433 . S
C382 H378 0.929 . S
C382 C384 1.378 . S
C382 C386 1.350 . S
C383 C386 1.463 . S
C383 C388 1.350 1_445 S
C383 N391 1.427 . S
C384 H375 0.930 . S
C384 C382 1.378 . S
C384 C385 1.367 . S
C385 C384 1.367 . S
C385 C387 1.433 1_445 S
C386 C382 1.350 . S
C386 C383 1.463 . S
C386 N390 1.427 1_445 S
C387 H377 0.929 . S
C387 C385 1.433 1_665 S
C387 N390 1.384 . S
C388 H379 0.929 . S
C388 C380 1.378 . S
C388 C383 1.350 1_665 S
C389 H376 0.929 . S
C389 C381 1.433 . S
C389 N391 1.384 . S
N390 C386 1.427 1_665 S
N390 C387 1.384 . S
N391 C383 1.427 . S
N391 C389 1.384 . S
H392 C398 0.930 . S
H393 C402 0.930 . S
H394 C407 0.929 . S
H395 C405 0.929 . S
H396 C400 0.929 . S
H397 C406 0.929 . S
C398 H392 0.930 . S
C398 C399 1.367 . S
C398 C406 1.378 . S
C399 C398 1.367 . S
C399 C407 1.433 . S
C400 H396 0.929 . S
C400 C402 1.378 . S
C400 C404 1.350 . S
C401 C404 1.463 . S
C401 C406 1.350 . S
C401 N409 1.427 . S
C402 H393 0.930 . S
C402 C400 1.378 . S
C402 C403 1.367 . S
C403 C402 1.367 . S
C403 C405 1.433 . S
C404 C400 1.350 . S
C404 C401 1.463 . S
C404 N408 1.427 . S
C405 H395 0.929 . S
C405 C403 1.433 . S
C405 N408 1.384 . S
C406 H397 0.929 . S
C406 C398 1.378 . S
C406 C401 1.350 . S
C407 H394 0.929 . S
C407 C399 1.433 . S
C407 N409 1.384 . S
N408 C404 1.427 . S
N408 C405 1.384 . S
N409 C401 1.427 . S
N409 C407 1.384 . S
H410 C416 0.930 . S
H411 C420 0.930 . S
H412 C425 0.929 . S
H413 C423 0.929 . S
H414 C418 0.929 . S
H415 C424 0.929 . S
C416 H410 0.930 . S
C416 C417 1.367 . S
C416 C424 1.378 . S
C417 C416 1.367 . S
C417 C425 1.433 . S
C418 H414 0.929 . S
C418 C420 1.378 . S
C418 C422 1.350 . S
C419 C422 1.463 . S
C419 C424 1.350 . S
C419 N427 1.427 . S
C420 H411 0.930 . S
C420 C418 1.378 . S
C420 C421 1.367 . S
C421 C420 1.367 . S
C421 C423 1.433 . S
C422 C418 1.350 . S
C422 C419 1.463 . S
C422 N426 1.427 . S
C423 H413 0.929 . S
C423 C421 1.433 . S
C423 N426 1.384 . S
C424 H415 0.929 . S
C424 C416 1.378 . S
C424 C419 1.350 . S
C425 H412 0.929 . S
C425 C417 1.433 . S
C425 N427 1.384 . S
N426 C422 1.427 . S
N426 C423 1.384 . S
N427 C419 1.427 . S
N427 C425 1.384 . S
C223 C177 1.465 . S
C219 C29 1.500 . S
C237 C8 1.483 . S
C241 C141 1.442 . S
C255 C0 1.473 . S
C259 C201 1.420 . S
C273 C17 1.488 . S
C277 C165 1.424 1_554 S
C291 C63 1.500 . S
C295 C105 1.468 . S
C309 C42 1.482 . S
C313 C69 1.445 . S
C331 C129 1.412 . S
C327 C34 1.473 . S
C349 C93 1.421 . S
C345 C51 1.493 . S
C363 C4 1.485 . S
C367 C99 1.481 1_655 S
C381 C13 1.482 . S
C385 C135 1.483 . S
C403 C171 1.481 . S
C399 C38 1.485 . S
C417 C47 1.483 . S
C421 C207 1.484 . S
