# Generated by pormake.
# Topology eea, (3,6)-cn, num edge types: 1
# Building blocks:
#     Node 0, Type 0, BuildingBlock: QEWDON_clean_linker_0, # of connection points: 3
#     Node 1, Type 0, BuildingBlock: QEWDON_clean_linker_0, # of connection points: 3
#     Node 2, Type 0, BuildingBlock: QEWDON_clean_linker_0, # of connection points: 3
#     Node 3, Type 0, BuildingBlock: QEWDON_clean_linker_0, # of connection points: 3
#     Node 4, Type 0, BuildingBlock: QEWDON_clean_linker_0, # of connection points: 3
#     Node 5, Type 0, BuildingBlock: QEWDON_clean_linker_0, # of connection points: 3
#     Node 6, Type 0, BuildingBlock: QEWDON_clean_linker_0, # of connection points: 3
#     Node 7, Type 0, BuildingBlock: QEWDON_clean_linker_0, # of connection points: 3
#     Node 8, Type 0, BuildingBlock: QEWDON_clean_linker_0, # of connection points: 3
#     Node 9, Type 0, BuildingBlock: QEWDON_clean_linker_0, # of connection points: 3
#     Node 10, Type 0, BuildingBlock: QEWDON_clean_linker_0, # of connection points: 3
#     Node 11, Type 0, BuildingBlock: QEWDON_clean_linker_0, # of connection points: 3
#     Node 12, Type 0, BuildingBlock: QEWDON_clean_linker_0, # of connection points: 3
#     Node 13, Type 0, BuildingBlock: QEWDON_clean_linker_0, # of connection points: 3
#     Node 14, Type 0, BuildingBlock: QEWDON_clean_linker_0, # of connection points: 3
#     Node 15, Type 0, BuildingBlock: QEWDON_clean_linker_0, # of connection points: 3
#     Node 16, Type 0, BuildingBlock: QEWDON_clean_linker_0, # of connection points: 3
#     Node 17, Type 0, BuildingBlock: QEWDON_clean_linker_0, # of connection points: 3
#     Node 18, Type 1, BuildingBlock: KUMBOL_clean_sbu_0, # of connection points: 6
#     Node 19, Type 1, BuildingBlock: KUMBOL_clean_sbu_0, # of connection points: 6
#     Node 20, Type 1, BuildingBlock: KUMBOL_clean_sbu_0, # of connection points: 6
#     Node 21, Type 1, BuildingBlock: KUMBOL_clean_sbu_0, # of connection points: 6
#     Node 22, Type 1, BuildingBlock: KUMBOL_clean_sbu_0, # of connection points: 6
#     Node 23, Type 1, BuildingBlock: KUMBOL_clean_sbu_0, # of connection points: 6
#     Node 24, Type 1, BuildingBlock: KUMBOL_clean_sbu_0, # of connection points: 6
#     Node 25, Type 1, BuildingBlock: KUMBOL_clean_sbu_0, # of connection points: 6
#     Node 26, Type 1, BuildingBlock: KUMBOL_clean_sbu_0, # of connection points: 6
#     Edge 27, Type (0, 1), BuildingBlock: ZUJKAS_clean_linker_0, # of connection points: 2
#     Edge 28, Type (0, 1), BuildingBlock: ZUJKAS_clean_linker_0, # of connection points: 2
#     Edge 29, Type (0, 1), BuildingBlock: ZUJKAS_clean_linker_0, # of connection points: 2
#     Edge 30, Type (0, 1), BuildingBlock: ZUJKAS_clean_linker_0, # of connection points: 2
#     Edge 31, Type (0, 1), BuildingBlock: ZUJKAS_clean_linker_0, # of connection points: 2
#     Edge 32, Type (0, 1), BuildingBlock: ZUJKAS_clean_linker_0, # of connection points: 2
#     Edge 33, Type (0, 1), BuildingBlock: ZUJKAS_clean_linker_0, # of connection points: 2
#     Edge 34, Type (0, 1), BuildingBlock: ZUJKAS_clean_linker_0, # of connection points: 2
#     Edge 35, Type (0, 1), BuildingBlock: ZUJKAS_clean_linker_0, # of connection points: 2
#     Edge 36, Type (0, 1), BuildingBlock: ZUJKAS_clean_linker_0, # of connection points: 2
#     Edge 37, Type (0, 1), BuildingBlock: ZUJKAS_clean_linker_0, # of connection points: 2
#     Edge 38, Type (0, 1), BuildingBlock: ZUJKAS_clean_linker_0, # of connection points: 2
#     Edge 39, Type (0, 1), BuildingBlock: ZUJKAS_clean_linker_0, # of connection points: 2
#     Edge 40, Type (0, 1), BuildingBlock: ZUJKAS_clean_linker_0, # of connection points: 2
#     Edge 41, Type (0, 1), BuildingBlock: ZUJKAS_clean_linker_0, # of connection points: 2
#     Edge 42, Type (0, 1), BuildingBlock: ZUJKAS_clean_linker_0, # of connection points: 2
#     Edge 43, Type (0, 1), BuildingBlock: ZUJKAS_clean_linker_0, # of connection points: 2
#     Edge 44, Type (0, 1), BuildingBlock: ZUJKAS_clean_linker_0, # of connection points: 2
#     Edge 45, Type (0, 1), BuildingBlock: ZUJKAS_clean_linker_0, # of connection points: 2
#     Edge 46, Type (0, 1), BuildingBlock: ZUJKAS_clean_linker_0, # of connection points: 2
#     Edge 47, Type (0, 1), BuildingBlock: ZUJKAS_clean_linker_0, # of connection points: 2
#     Edge 48, Type (0, 1), BuildingBlock: ZUJKAS_clean_linker_0, # of connection points: 2
#     Edge 49, Type (0, 1), BuildingBlock: ZUJKAS_clean_linker_0, # of connection points: 2
#     Edge 50, Type (0, 1), BuildingBlock: ZUJKAS_clean_linker_0, # of connection points: 2
#     Edge 51, Type (0, 1), BuildingBlock: ZUJKAS_clean_linker_0, # of connection points: 2
#     Edge 52, Type (0, 1), BuildingBlock: ZUJKAS_clean_linker_0, # of connection points: 2
#     Edge 53, Type (0, 1), BuildingBlock: ZUJKAS_clean_linker_0, # of connection points: 2
#     Edge 54, Type (0, 1), BuildingBlock: ZUJKAS_clean_linker_0, # of connection points: 2
#     Edge 55, Type (0, 1), BuildingBlock: ZUJKAS_clean_linker_0, # of connection points: 2
#     Edge 56, Type (0, 1), BuildingBlock: ZUJKAS_clean_linker_0, # of connection points: 2
#     Edge 57, Type (0, 1), BuildingBlock: ZUJKAS_clean_linker_0, # of connection points: 2
#     Edge 58, Type (0, 1), BuildingBlock: ZUJKAS_clean_linker_0, # of connection points: 2
#     Edge 59, Type (0, 1), BuildingBlock: ZUJKAS_clean_linker_0, # of connection points: 2
#     Edge 60, Type (0, 1), BuildingBlock: ZUJKAS_clean_linker_0, # of connection points: 2
#     Edge 61, Type (0, 1), BuildingBlock: ZUJKAS_clean_linker_0, # of connection points: 2
#     Edge 62, Type (0, 1), BuildingBlock: ZUJKAS_clean_linker_0, # of connection points: 2
#     Edge 63, Type (0, 1), BuildingBlock: ZUJKAS_clean_linker_0, # of connection points: 2
#     Edge 64, Type (0, 1), BuildingBlock: ZUJKAS_clean_linker_0, # of connection points: 2
#     Edge 65, Type (0, 1), BuildingBlock: ZUJKAS_clean_linker_0, # of connection points: 2
#     Edge 66, Type (0, 1), BuildingBlock: ZUJKAS_clean_linker_0, # of connection points: 2
#     Edge 67, Type (0, 1), BuildingBlock: ZUJKAS_clean_linker_0, # of connection points: 2
#     Edge 68, Type (0, 1), BuildingBlock: ZUJKAS_clean_linker_0, # of connection points: 2
#     Edge 69, Type (0, 1), BuildingBlock: ZUJKAS_clean_linker_0, # of connection points: 2
#     Edge 70, Type (0, 1), BuildingBlock: ZUJKAS_clean_linker_0, # of connection points: 2
#     Edge 71, Type (0, 1), BuildingBlock: ZUJKAS_clean_linker_0, # of connection points: 2
#     Edge 72, Type (0, 1), BuildingBlock: ZUJKAS_clean_linker_0, # of connection points: 2
#     Edge 73, Type (0, 1), BuildingBlock: ZUJKAS_clean_linker_0, # of connection points: 2
#     Edge 74, Type (0, 1), BuildingBlock: ZUJKAS_clean_linker_0, # of connection points: 2
#     Edge 75, Type (0, 1), BuildingBlock: ZUJKAS_clean_linker_0, # of connection points: 2
#     Edge 76, Type (0, 1), BuildingBlock: ZUJKAS_clean_linker_0, # of connection points: 2
#     Edge 77, Type (0, 1), BuildingBlock: ZUJKAS_clean_linker_0, # of connection points: 2
#     Edge 78, Type (0, 1), BuildingBlock: ZUJKAS_clean_linker_0, # of connection points: 2
#     Edge 79, Type (0, 1), BuildingBlock: ZUJKAS_clean_linker_0, # of connection points: 2
#     Edge 80, Type (0, 1), BuildingBlock: ZUJKAS_clean_linker_0, # of connection points: 2
# Relax obj value: 0.043
# Max RMSD: 0.200
# Mean RMSD: 0.144
data_MOF--net-eea--node1-KUMBOL_clean_sbu_0--node2-QEWDON_clean_linker_0--edge1-ZUJKAS_clean_linker_0
_symmetry_space_group_name_H-M    P1
_symmetry_Int_Tables_number       1
_symmetry_cell_setting            triclinic
loop_
_symmetry_equiv_pos_as_xyz
'x, y, z'
_cell_length_a     74.991221
_cell_length_b     76.540393
_cell_length_c     78.505187
_cell_angle_alpha  90.158269
_cell_angle_beta   90.21331
_cell_angle_gamma 119.927
loop_
_atom_site_label
_atom_site_type_symbol
_atom_site_fract_x
_atom_site_fract_y
_atom_site_fract_z
_atom_type_partial_charge
H0 H 0.20904 0.11652 0.42755 0.0
C1 C 0.21008 0.10434 0.42146 0.0
C2 C 0.22449 0.09912 0.42745 0.0
C3 C 0.19657 0.09346 0.40802 0.0
H4 H 0.23635 0.0788 0.42449 0.0
C5 C 0.22542 0.083 0.41975 0.0
C6 C 0.21188 0.07175 0.40648 0.0
C7 C 0.19767 0.07728 0.40058 0.0
C8 C 0.18041 0.09808 0.40239 0.0
H9 H 0.18701 0.0686 0.39047 0.0
C10 C 0.18491 0.11811 0.39987 0.0
C11 C 0.16946 0.12224 0.39437 0.0
C12 C 0.16022 0.08224 0.39952 0.0
H13 H 0.15618 0.06672 0.40164 0.0
C14 C 0.14492 0.08623 0.39406 0.0
H15 H 0.2004 0.13042 0.40214 0.0
C16 C 0.14946 0.10603 0.39143 0.0
H17 H 0.13732 0.1086 0.38687 0.0
H18 H 0.12945 0.07391 0.39181 0.0
H19 H 0.90451 0.09877 0.42458 0.0
C20 C 0.91663 0.11207 0.41847 0.0
C21 C 0.92385 0.13111 0.42612 0.0
C22 C 0.92586 0.10994 0.40364 0.0
H23 H 0.94611 0.16283 0.42452 0.0
C24 C 0.94032 0.14817 0.41858 0.0
C25 C 0.94972 0.14643 0.40372 0.0
C26 C 0.9422 0.12729 0.39625 0.0
C27 C 0.9197 0.08956 0.39658 0.0
H28 H 0.94917 0.12588 0.38465 0.0
C29 C 0.89886 0.07407 0.39572 0.0
C30 C 0.89355 0.05474 0.38945 0.0
C31 C 0.93502 0.08538 0.39105 0.0
H32 H 0.95116 0.09672 0.39188 0.0
C33 C 0.92981 0.06642 0.38469 0.0
H34 H 0.88687 0.077 0.39998 0.0
C35 C 0.90929 0.05122 0.38386 0.0
H36 H 0.90573 0.03669 0.37868 0.0
H37 H 0.94176 0.06345 0.38043 0.0
H38 H 0.91717 0.80257 0.42239 0.0
C39 C 0.90401 0.80215 0.41623 0.0
C40 C 0.88466 0.79205 0.42419 0.0
C41 C 0.90672 0.81305 0.4011 0.0
H42 H 0.85303 0.78489 0.42291 0.0
C43 C 0.86781 0.79239 0.4166 0.0
C44 C 0.86995 0.80277 0.40132 0.0
C45 C 0.88946 0.81293 0.39363 0.0
C46 C 0.92781 0.82658 0.39419 0.0
H47 H 0.8913 0.821 0.38186 0.0
C48 C 0.94302 0.82075 0.39322 0.0
C49 C 0.96308 0.83451 0.3874 0.0
C50 C 0.93304 0.8462 0.38914 0.0
H51 H 0.92202 0.85138 0.39004 0.0
C52 C 0.95269 0.85964 0.38327 0.0
H53 H 0.93937 0.80575 0.39709 0.0
C54 C 0.96759 0.85391 0.38243 0.0
H55 H 0.98273 0.86468 0.37776 0.0
H56 H 0.95644 0.87467 0.37945 0.0
H57 H 0.12073 0.20455 0.60173 0.0
C58 C 0.10808 0.20522 0.6077 0.0
C59 C 0.09963 0.21593 0.59968 0.0
C60 C 0.09933 0.19419 0.62267 0.0
H61 H 0.07584 0.22391 0.60086 0.0
C62 C 0.08251 0.21587 0.60706 0.0
C63 C 0.07353 0.20508 0.62204 0.0
C64 C 0.0822 0.19447 0.62982 0.0
C65 C 0.10654 0.18065 0.62985 0.0
H66 H 0.07547 0.18626 0.64145 0.0
C67 C 0.12767 0.18635 0.63071 0.0
C68 C 0.1337 0.17264 0.63672 0.0
C69 C 0.0918 0.16121 0.63526 0.0
H70 H 0.0755 0.15609 0.63443 0.0
C71 C 0.09776 0.14782 0.64137 0.0
H72 H 0.1393 0.20121 0.62659 0.0
C73 C 0.11848 0.15342 0.64206 0.0
H74 H 0.12265 0.14269 0.64689 0.0
H75 H 0.08621 0.13292 0.64546 0.0
H76 H 0.81535 0.9188 0.59709 0.0
C77 C 0.81417 0.90569 0.60338 0.0
C78 C 0.80084 0.88633 0.59675 0.0
C79 C 0.82689 0.90826 0.61749 0.0
H80 H 0.78994 0.85452 0.59948 0.0
C81 C 0.80005 0.86947 0.6046 0.0
C82 C 0.8126 0.87176 0.61871 0.0
C83 C 0.82583 0.89118 0.62513 0.0
C84 C 0.84215 0.92876 0.62372 0.0
H85 H 0.83535 0.89301 0.63617 0.0
C86 C 0.83689 0.94396 0.62559 0.0
C87 C 0.8515 0.96329 0.63163 0.0
C88 C 0.86226 0.93319 0.62782 0.0
H89 H 0.86688 0.92194 0.62624 0.0
C90 C 0.87674 0.95224 0.63381 0.0
H91 H 0.82146 0.94072 0.6224 0.0
C92 C 0.87144 0.96718 0.63577 0.0
H93 H 0.88292 0.98172 0.64076 0.0
H94 H 0.89214 0.95545 0.637 0.0
H95 H 0.09137 0.88768 0.60268 0.0
C96 C 0.10481 0.90035 0.60837 0.0
C97 C 0.12381 0.90863 0.59995 0.0
C98 C 0.10283 0.90935 0.62339 0.0
H99 H 0.15569 0.93188 0.60049 0.0
C100 C 0.141 0.92565 0.60691 0.0
C101 C 0.13947 0.93476 0.62194 0.0
C102 C 0.12037 0.92633 0.63021 0.0
C103 C 0.08217 0.90254 0.63094 0.0
H104 H 0.11897 0.93347 0.64167 0.0
C105 C 0.06732 0.88188 0.63251 0.0
C106 C 0.04758 0.87598 0.639 0.0
C107 C 0.07696 0.91706 0.63609 0.0
H108 H 0.08777 0.93301 0.63472 0.0
C109 C 0.05759 0.91125 0.64267 0.0
H110 H 0.071 0.87048 0.62856 0.0
C111 C 0.04298 0.89091 0.6441 0.0
H112 H 0.02805 0.88681 0.64932 0.0
H113 H 0.05381 0.9226 0.64657 0.0
H114 H 0.87447 0.44864 0.76133 0.0
C115 C 0.875 0.4363 0.75498 0.0
C116 C 0.88941 0.43073 0.76026 0.0
C117 C 0.86069 0.42548 0.74202 0.0
H118 H 0.90015 0.40955 0.7566 0.0
C119 C 0.88964 0.41443 0.75214 0.0
C120 C 0.87542 0.40345 0.73918 0.0
C121 C 0.86111 0.40918 0.73414 0.0
C122 C 0.84428 0.4301 0.73748 0.0
H123 H 0.85011 0.40084 0.72411 0.0
C124 C 0.84893 0.4499 0.73366 0.0
C125 C 0.83317 0.45389 0.72886 0.0
C126 C 0.82371 0.41441 0.7368 0.0
H127 H 0.81972 0.39909 0.73987 0.0
C128 C 0.80805 0.41834 0.73238 0.0
H129 H 0.8648 0.462 0.7339 0.0
C130 C 0.81269 0.43789 0.72842 0.0
H131 H 0.80019 0.44052 0.72513 0.0
H132 H 0.79224 0.40617 0.73202 0.0
H133 H 0.56884 0.42981 0.75276 0.0
C134 C 0.58129 0.44342 0.74734 0.0
C135 C 0.58866 0.46194 0.75597 0.0
C136 C 0.59024 0.44234 0.73194 0.0
H137 H 0.61151 0.49356 0.75596 0.0
C138 C 0.60518 0.47945 0.749 0.0
C139 C 0.61429 0.47873 0.73359 0.0
C140 C 0.60649 0.46014 0.72508 0.0
C141 C 0.58351 0.4226 0.72333 0.0
H142 H 0.61311 0.45955 0.713 0.0
C143 C 0.56252 0.40765 0.72203 0.0
C144 C 0.55659 0.38939 0.71331 0.0
C145 C 0.59839 0.41868 0.71622 0.0
H146 H 0.61464 0.42955 0.71735 0.0
C147 C 0.59255 0.4006 0.70772 0.0
H148 H 0.55082 0.4104 0.72733 0.0
C149 C 0.57183 0.38609 0.70619 0.0
H150 H 0.56772 0.3721 0.69963 0.0
H151 H 0.60416 0.3978 0.70233 0.0
H152 H 0.5853 0.13398 0.7524 0.0
C153 C 0.57186 0.13359 0.74684 0.0
C154 C 0.55266 0.12262 0.75494 0.0
C155 C 0.57387 0.14456 0.73189 0.0
H156 H 0.52087 0.11505 0.75462 0.0
C157 C 0.5354 0.12272 0.74795 0.0
C158 C 0.53694 0.13355 0.73307 0.0
C159 C 0.55621 0.14418 0.72504 0.0
C160 C 0.59451 0.15776 0.72408 0.0
H161 H 0.55749 0.15229 0.7134 0.0
C162 C 0.60938 0.15158 0.72219 0.0
C163 C 0.62843 0.16437 0.71419 0.0
C164 C 0.5994 0.17708 0.71843 0.0
H165 H 0.58871 0.18257 0.72009 0.0
C166 C 0.61823 0.18975 0.71079 0.0
H167 H 0.60594 0.13677 0.72642 0.0
C168 C 0.63257 0.18346 0.7086 0.0
H169 H 0.64713 0.19372 0.7027 0.0
H170 H 0.62174 0.20458 0.70656 0.0
H171 H 0.78919 0.54177 0.93726 0.0
C172 C 0.77683 0.54283 0.94337 0.0
C173 C 0.76855 0.55369 0.93538 0.0
C174 C 0.76829 0.53216 0.95853 0.0
H175 H 0.74515 0.56218 0.93669 0.0
C176 C 0.75173 0.55408 0.94292 0.0
C177 C 0.74297 0.54369 0.95813 0.0
C178 C 0.75156 0.533 0.96591 0.0
C179 C 0.77522 0.51837 0.96567 0.0
H180 H 0.74507 0.52513 0.97772 0.0
C181 C 0.79622 0.5235 0.96605 0.0
C182 C 0.80191 0.50949 0.97197 0.0
C183 C 0.7603 0.4992 0.9715 0.0
H184 H 0.74408 0.49449 0.97105 0.0
C185 C 0.76594 0.48555 0.97754 0.0
H186 H 0.808 0.53813 0.9616 0.0
C187 C 0.78651 0.49058 0.97774 0.0
H188 H 0.79043 0.47964 0.9825 0.0
H189 H 0.75424 0.47087 0.98195 0.0
H190 H 0.47961 0.2524 0.93131 0.0
C191 C 0.47858 0.23902 0.93696 0.0
C192 C 0.46441 0.21989 0.9304 0.0
C193 C 0.49184 0.24102 0.95046 0.0
H194 H 0.45282 0.18788 0.9325 0.0
C195 C 0.46347 0.20267 0.93765 0.0
C196 C 0.47654 0.20439 0.9512 0.0
C197 C 0.49057 0.22362 0.95759 0.0
C198 C 0.5079 0.26128 0.95645 0.0
H199 H 0.50092 0.22509 0.96787 0.0
C200 C 0.50318 0.27662 0.95975 0.0
C201 C 0.51855 0.29576 0.96553 0.0
C202 C 0.52821 0.26534 0.95879 0.0
H203 H 0.53234 0.25392 0.95611 0.0
C204 C 0.54351 0.28429 0.96432 0.0
H205 H 0.48748 0.27348 0.95826 0.0
C206 C 0.53877 0.29941 0.96766 0.0
H207 H 0.55105 0.31406 0.97173 0.0
H208 H 0.55914 0.28731 0.96595 0.0
H209 H 0.76036 0.22123 0.93556 0.0
C210 C 0.77355 0.23397 0.94144 0.0
C211 C 0.79333 0.24093 0.93467 0.0
C212 C 0.77068 0.24382 0.95544 0.0
H213 H 0.8255 0.26354 0.93682 0.0
C214 C 0.81031 0.25767 0.94226 0.0
C215 C 0.80768 0.26778 0.9561 0.0
C216 C 0.78789 0.26071 0.96265 0.0
C217 C 0.74973 0.23736 0.96207 0.0
H218 H 0.7859 0.26843 0.97345 0.0
C219 C 0.73529 0.21685 0.96495 0.0
C220 C 0.71595 0.21126 0.97214 0.0
C221 C 0.74425 0.25203 0.9659 0.0
H222 H 0.75481 0.26785 0.96352 0.0
C223 C 0.72505 0.24651 0.97275 0.0
H224 H 0.73932 0.20537 0.96219 0.0
C225 C 0.71104 0.22632 0.97595 0.0
H226 H 0.6962 0.22242 0.98125 0.0
H227 H 0.72103 0.25795 0.97563 0.0
H228 H 0.54461 0.78512 0.09068 0.0
C229 C 0.54521 0.77244 0.08514 0.0
C230 C 0.55884 0.7666 0.09191 0.0
C231 C 0.53186 0.76153 0.07163 0.0
H232 H 0.56922 0.74492 0.09026 0.0
C233 C 0.55909 0.7498 0.08489 0.0
C234 C 0.54592 0.7388 0.07138 0.0
C235 C 0.5325 0.74489 0.06472 0.0
C236 C 0.51617 0.7665 0.06549 0.0
H237 H 0.52208 0.73627 0.05444 0.0
C238 C 0.52139 0.78652 0.06187 0.0
C239 C 0.50635 0.79094 0.05581 0.0
C240 C 0.49569 0.75099 0.06324 0.0
H241 H 0.49117 0.73551 0.06617 0.0
C242 C 0.48073 0.75531 0.05746 0.0
H243 H 0.5372 0.79851 0.06331 0.0
C244 C 0.48596 0.77509 0.05376 0.0
H245 H 0.47395 0.77801 0.04948 0.0
H246 H 0.46498 0.74327 0.05589 0.0
H247 H 0.23503 0.76332 0.0852 0.0
C248 C 0.24768 0.77696 0.07999 0.0
C249 C 0.2544 0.79548 0.08842 0.0
C250 C 0.25752 0.77588 0.06513 0.0
H251 H 0.27654 0.82729 0.08833 0.0
C252 C 0.27112 0.81304 0.08176 0.0
C253 C 0.28127 0.81233 0.06698 0.0
C254 C 0.27415 0.79371 0.05866 0.0
C255 C 0.25129 0.75611 0.05677 0.0
H256 H 0.28193 0.79301 0.04731 0.0
C257 C 0.23038 0.74113 0.05496 0.0
C258 C 0.22484 0.72278 0.04659 0.0
C259 C 0.26649 0.75215 0.05049 0.0
H260 H 0.28268 0.76302 0.05206 0.0
C261 C 0.26104 0.73398 0.04228 0.0
H262 H 0.21843 0.74392 0.05962 0.0
C263 C 0.24039 0.71943 0.04026 0.0
H264 H 0.23658 0.70536 0.03397 0.0
H265 H 0.27289 0.73114 0.03752 0.0
H266 H 0.25256 0.46734 0.08532 0.0
C267 C 0.23915 0.46697 0.07971 0.0
C268 C 0.2199 0.45598 0.08775 0.0
C269 C 0.24124 0.47799 0.06479 0.0
H270 H 0.1881 0.44837 0.08731 0.0
C271 C 0.20267 0.45609 0.0807 0.0
C272 C 0.20431 0.467 0.06584 0.0
C273 C 0.22362 0.47765 0.05789 0.0
C274 C 0.26192 0.49124 0.05707 0.0
H275 H 0.22498 0.48582 0.04627 0.0
C276 C 0.27677 0.48504 0.05511 0.0
C277 C 0.29586 0.49788 0.04718 0.0
C278 C 0.26687 0.51063 0.05156 0.0
H279 H 0.25619 0.51612 0.05327 0.0
C280 C 0.28574 0.52335 0.044 0.0
H281 H 0.27328 0.47018 0.05923 0.0
C282 C 0.30006 0.51704 0.04174 0.0
H283 H 0.31464 0.52735 0.0359 0.0
H284 H 0.28929 0.53822 0.03988 0.0
H285 H 0.45379 0.87441 0.26998 0.0
C286 C 0.4413 0.87531 0.276 0.0
C287 C 0.43298 0.88613 0.26797 0.0
C288 C 0.4326 0.86446 0.29105 0.0
H289 H 0.40947 0.89449 0.26921 0.0
C290 C 0.41604 0.88636 0.27542 0.0
C291 C 0.40711 0.87577 0.2905 0.0
C292 C 0.41566 0.86504 0.29828 0.0
C293 C 0.4396 0.85075 0.29824 0.0
H294 H 0.40898 0.85697 0.30998 0.0
C295 C 0.46066 0.85616 0.29898 0.0
C296 C 0.46647 0.84227 0.305 0.0
C297 C 0.42471 0.83143 0.30377 0.0
H298 H 0.40846 0.82653 0.30304 0.0
C299 C 0.43045 0.81788 0.30989 0.0
H300 H 0.47241 0.87092 0.29476 0.0
C301 C 0.4511 0.82319 0.31047 0.0
H302 H 0.45509 0.81233 0.31531 0.0
H303 H 0.41878 0.80308 0.31407 0.0
H304 H 0.15008 0.58628 0.262 0.0
C305 C 0.14885 0.57305 0.26812 0.0
C306 C 0.13591 0.55387 0.26101 0.0
C307 C 0.1611 0.57534 0.28249 0.0
H308 H 0.125 0.52202 0.26333 0.0
C309 C 0.13514 0.53688 0.26858 0.0
C310 C 0.14718 0.53886 0.28297 0.0
C311 C 0.15994 0.55811 0.28994 0.0
C312 C 0.17604 0.59574 0.28917 0.0
H313 H 0.16939 0.55972 0.30096 0.0
C314 C 0.17069 0.61092 0.2907 0.0
C315 C 0.18504 0.63022 0.29696 0.0
C316 C 0.19599 0.60018 0.2939 0.0
H317 H 0.20073 0.589 0.29257 0.0
C318 C 0.21018 0.61919 0.30019 0.0
H319 H 0.15541 0.6077 0.28701 0.0
C320 C 0.20479 0.63409 0.30176 0.0
H321 H 0.21605 0.64862 0.30695 0.0
H322 H 0.22546 0.62239 0.30386 0.0
H323 H 0.42909 0.55422 0.26976 0.0
C324 C 0.44216 0.56715 0.27557 0.0
C325 C 0.46193 0.57452 0.26865 0.0
C326 C 0.43912 0.57681 0.28962 0.0
H327 H 0.49392 0.59768 0.27053 0.0
C328 C 0.47876 0.59153 0.2761 0.0
C329 C 0.47598 0.60151 0.28997 0.0
C330 C 0.45618 0.59398 0.2967 0.0
C331 C 0.41809 0.56991 0.29639 0.0
H332 H 0.45409 0.60157 0.30754 0.0
C333 C 0.40385 0.54927 0.29906 0.0
C334 C 0.38445 0.54331 0.30634 0.0
C335 C 0.41233 0.5843 0.30053 0.0
H336 H 0.42268 0.60019 0.29829 0.0
C337 C 0.39309 0.57841 0.30748 0.0
H338 H 0.40806 0.53798 0.29604 0.0
C339 C 0.3793 0.55812 0.31047 0.0
H340 H 0.36442 0.55395 0.31584 0.0
H341 H 0.38886 0.58965 0.31059 0.0
Gd342 Gd 0.51095 0.0145 0.0345 0.0
Gd343 Gd 0.49486 0.99663 0.98999 0.0
C344 C 0.43237 0.94192 0.97708 0.0
C345 C 0.44206 0.91798 0.96646 0.0
C346 C 0.46833 0.95147 0.97563 0.0
C347 C 0.45331 0.95611 0.97987 0.0
C348 C 0.46293 0.93252 0.96853 0.0
C349 C 0.4268 0.92267 0.97073 0.0
C350 C 0.4177 0.94769 0.9803 0.0
C351 C 0.42412 0.96735 0.98568 0.0
N352 N 0.45928 0.97491 0.98582 0.0
C353 C 0.44509 0.98093 0.98815 0.0
H354 H 0.44975 0.99604 0.99232 0.0
C355 C 0.50371 0.96296 0.97173 0.0
N356 N 0.48829 0.96595 0.97761 0.0
C357 C 0.49915 0.94436 0.96471 0.0
C358 C 0.47867 0.92897 0.96329 0.0
H359 H 0.51957 0.97478 0.97289 0.0
H360 H 0.41077 0.9115 0.96868 0.0
H361 H 0.55618 0.01554 0.03266 0.0
H362 H 0.40146 0.93724 0.97829 0.0
H363 H 0.41291 0.97208 0.98794 0.0
H364 H 0.43759 0.90325 0.96118 0.0
H365 H 0.48559 0.03621 0.0508 0.0
H366 H 0.60392 0.07452 0.04705 0.0
H367 H 0.59293 0.03973 0.03752 0.0
H368 H 0.5671 0.1083 0.06261 0.0
H369 H 0.51143 0.94189 0.96043 0.0
H370 H 0.47517 0.91459 0.95779 0.0
H371 H 0.59422 0.10022 0.05585 0.0
H372 H 0.49329 0.06921 0.06268 0.0
N373 N 0.54638 0.03655 0.03875 0.0
C374 C 0.58776 0.064 0.04475 0.0
C375 C 0.5816 0.04435 0.03947 0.0
C376 C 0.57294 0.06968 0.04751 0.0
C377 C 0.55208 0.05536 0.04452 0.0
C378 C 0.56071 0.03067 0.03672 0.0
N379 N 0.51699 0.04523 0.04642 0.0
C380 C 0.53689 0.05987 0.04845 0.0
C381 C 0.5057 0.06681 0.05867 0.0
C382 C 0.52611 0.08233 0.06015 0.0
C383 C 0.50139 0.04814 0.05199 0.0
C384 C 0.54203 0.07887 0.05529 0.0
H385 H 0.52942 0.09675 0.06543 0.0
O386 O 0.49485 0.00438 0.05862 0.0
O387 O 0.48658 0.99223 0.01736 0.0
O388 O 0.4855 0.01942 0.99849 0.0
O389 O 0.50837 0.03858 0.02017 0.0
O390 O 0.47674 0.00248 0.03744 0.0
O391 O 0.52077 1.00019 0.05326 0.0
O392 O 0.51079 0.00654 0.96575 0.0
O393 O 0.51929 0.01866 0.00716 0.0
O394 O 0.52017 0.99149 0.02624 0.0
O395 O 0.49783 0.97264 0.00409 0.0
O396 O 0.52909 0.00848 0.98706 0.0
O397 O 0.48577 0.01193 0.97164 0.0
C398 C 0.47074 0.99027 0.02464 0.0
C399 C 0.56282 0.09355 0.05751 0.0
C400 C 0.57826 0.08894 0.05365 0.0
C401 C 0.50729 0.99854 0.06454 0.0
C402 C 0.51507 0.00509 0.08203 0.0
C403 C 0.53119 0.02473 0.08515 0.0
C404 C 0.50642 0.99161 0.09573 0.0
C405 C 0.514 0.9977 0.11248 0.0
C406 C 0.53865 0.0309 0.10166 0.0
C407 C 0.53017 0.01754 0.11523 0.0
C408 C 0.49521 0.0361 0.00784 0.0
C409 C 0.53514 0.02058 0.99994 0.0
C410 C 0.49882 0.01309 0.96013 0.0
C411 C 0.49061 0.00686 0.94271 0.0
C412 C 0.47318 0.98794 0.93977 0.0
C413 C 0.50002 0.01999 0.92891 0.0
C414 C 0.4918 0.01435 0.91229 0.0
C415 C 0.46513 0.98219 0.92336 0.0
C416 C 0.47429 0.99528 0.90972 0.0
C417 C 0.51072 0.97496 0.01664 0.0
H418 H 0.53806 0.03527 0.07485 0.0
H419 H 0.49407 0.97637 0.0933 0.0
H420 H 0.55105 0.04613 0.10395 0.0
H421 H 0.53611 0.02286 0.12794 0.0
H422 H 0.46572 0.97766 0.95014 0.0
H423 H 0.51341 0.03469 0.93116 0.0
H424 H 0.45168 0.96754 0.92121 0.0
H425 H 0.46777 0.99039 0.89709 0.0
Gd426 Gd 0.99874 0.49758 0.03323 0.0
Gd427 Gd 0.02047 0.49934 0.9905 0.0
C428 C 0.07618 0.49084 0.9843 0.0
C429 C 0.10269 0.52425 0.97558 0.0
C430 C 0.06786 0.5174 0.98082 0.0
C431 C 0.06193 0.49774 0.98512 0.0
C432 C 0.08817 0.53075 0.97561 0.0
C433 C 0.09671 0.50433 0.97993 0.0
C434 C 0.06925 0.47047 0.98746 0.0
C435 C 0.04844 0.45743 0.99075 0.0
N436 N 0.04195 0.48509 0.9892 0.0
C437 C 0.03488 0.46499 0.99139 0.0
H438 H 0.01889 0.45473 0.99407 0.0
C439 C 0.05782 0.5415 0.9746 0.0
N440 N 0.05342 0.52313 0.98086 0.0
C441 C 0.0778 0.55534 0.96942 0.0
C442 C 0.09312 0.55005 0.97014 0.0
H443 H 0.046 0.54566 0.97417 0.0
H444 H 0.10794 0.49936 0.97945 0.0
H445 H 0.99931 0.54166 0.02828 0.0
H446 H 0.07972 0.46458 0.98701 0.0
H447 H 0.04284 0.44158 0.99291 0.0
H448 H 0.11844 0.53435 0.9718 0.0
H449 H 0.97504 0.45343 0.05313 0.0
H450 H 0.93861 0.53153 0.03637 0.0
H451 H 0.97513 0.55445 0.02927 0.0
H452 H 0.90149 0.46288 0.05492 0.0
H453 H 0.08137 0.57008 0.96489 0.0
H454 H 0.10857 0.56076 0.96605 0.0
H455 H 0.91102 0.49709 0.04547 0.0
H456 H 0.94044 0.42942 0.06413 0.0
N457 N 0.97675 0.51141 0.03425 0.0
C458 C 0.94917 0.52575 0.03591 0.0
C459 C 0.96978 0.53875 0.03197 0.0
C460 C 0.94261 0.50563 0.03982 0.0
C461 C 0.95702 0.49891 0.03903 0.0
C462 C 0.98349 0.53137 0.03142 0.0
N463 N 0.96642 0.47451 0.04457 0.0
C464 C 0.95165 0.47976 0.04431 0.0
C465 C 0.94333 0.44347 0.05848 0.0
C466 C 0.92757 0.44812 0.05735 0.0
C467 C 0.96289 0.45709 0.05228 0.0
C468 C 0.93174 0.46666 0.05054 0.0
H469 H 0.91247 0.43763 0.06227 0.0
O470 O 0.00744 0.49253 0.0584 0.0
O471 O 0.02268 0.49562 0.01824 0.0
O472 O 0.99532 0.46747 0.99693 0.0
O473 O 0.97589 0.46892 0.01974 0.0
O474 O 0.01075 0.4761 0.03836 0.0
O475 O 0.01275 0.52212 0.05155 0.0
O476 O 0.01374 0.50643 0.96534 0.0
O477 O 0.99594 0.50049 0.00534 0.0
O478 O 0.02287 0.52947 0.02532 0.0
O479 O 0.04403 0.52571 0.0058 0.0
O480 O 0.00844 0.52087 0.98577 0.0
O481 O 0.00795 0.47626 0.97086 0.0
C482 C 0.02407 0.48211 0.02628 0.0
C483 C 0.91695 0.47281 0.05039 0.0
C484 C 0.92238 0.49229 0.04503 0.0
C485 C 0.01333 0.51078 0.06364 0.0
C486 C 1.00564 0.51261 0.08035 0.0
C487 C 0.98597 0.5103 0.08202 0.0
C488 C 0.01819 0.51676 0.09482 0.0
C489 C 0.0112 0.51864 0.11098 0.0
C490 C 0.97891 0.5121 0.09799 0.0
C491 C 0.9914 0.51625 0.11239 0.0
C492 C 0.97883 0.45941 0.00686 0.0
C493 C 0.9945 0.51403 0.99738 0.0
C494 C 0.0082 0.48856 0.95925 0.0
C495 C 0.01686 0.48793 0.94265 0.0
C496 C 0.03645 0.48995 0.94146 0.0
C497 C 1.00526 0.4851 0.92777 0.0
C498 C 0.01307 0.4841 0.91174 0.0
C499 C 0.04437 0.48914 0.92561 0.0
C500 C 0.03277 0.48619 0.91083 0.0
C501 C 0.04065 0.5364 0.01726 0.0
H502 H 0.97612 0.50717 0.07103 0.0
H503 H 0.03348 0.51878 0.09342 0.0
H504 H 0.96368 0.51023 0.0992 0.0
H505 H 0.98545 0.51731 0.12466 0.0
H506 H 0.04557 0.49205 0.95275 0.0
H507 H 0.99 0.48328 0.92874 0.0
H508 H 0.05952 0.49074 0.92479 0.0
H509 H 0.03928 0.4857 0.89866 0.0
Gd510 Gd 0.50947 0.51269 0.99122 0.0
Gd511 Gd 0.52459 0.50918 0.03518 0.0
C512 C 0.58785 0.51628 0.04556 0.0
C513 C 0.57904 0.48239 0.05402 0.0
C514 C 0.5521 0.49007 0.04697 0.0
C515 C 0.56675 0.50976 0.04346 0.0
C516 C 0.55803 0.47626 0.05268 0.0
C517 C 0.59393 0.50237 0.05043 0.0
C518 C 0.60214 0.5367 0.04319 0.0
C519 C 0.59519 0.55014 0.03952 0.0
N520 N 0.56029 0.52282 0.03897 0.0
C521 C 0.57408 0.54296 0.03771 0.0
H522 H 0.56899 0.55352 0.03477 0.0
C523 C 0.51693 0.46615 0.05087 0.0
N524 N 0.53198 0.48471 0.04562 0.0
C525 C 0.52203 0.45188 0.05658 0.0
C526 C 0.54266 0.45687 0.05728 0.0
H527 H 0.50096 0.4622 0.05018 0.0
H528 H 0.61007 0.50704 0.05191 0.0
H529 H 0.46513 0.46636 0.99197 0.0
H530 H 0.61849 0.5423 0.04459 0.0
H531 H 0.60609 0.56604 0.03801 0.0
H532 H 0.58392 0.47194 0.05821 0.0
H533 H 0.53144 0.55921 0.97426 0.0
H534 H 0.41487 0.4761 0.98235 0.0
H535 H 0.42822 0.45323 0.98904 0.0
H536 H 0.44704 0.5458 0.96769 0.0
H537 H 0.51005 0.43704 0.06037 0.0
H538 H 0.54658 0.4458 0.06173 0.0
H539 H 0.42203 0.51066 0.97468 0.0
H540 H 0.52057 0.58276 0.96358 0.0
N541 N 0.47344 0.4971 0.98764 0.0
C542 C 0.43131 0.48213 0.98361 0.0
C543 C 0.43879 0.46917 0.98737 0.0
C544 C 0.44515 0.50258 0.98092 0.0
C545 C 0.46644 0.50973 0.98283 0.0
C546 C 0.45998 0.47685 0.98908 0.0
N547 N 0.50101 0.53605 0.98003 0.0
C548 C 0.48058 0.5297 0.97896 0.0
C549 C 0.50919 0.56794 0.96794 0.0
C550 C 0.48835 0.56217 0.96778 0.0
C551 C 0.51528 0.55451 0.97388 0.0
C552 C 0.47373 0.54276 0.97303 0.0
H553 H 0.48368 0.57261 0.96315 0.0
O554 O 0.52485 0.50128 0.97478 0.0
O555 O 0.53438 0.51533 0.00812 0.0
O556 O 0.53269 0.54142 0.02948 0.0
O557 O 0.51403 0.54038 0.00519 0.0
O558 O 0.54285 0.53746 0.99004 0.0
O559 O 0.50378 0.50945 0.96386 0.0
O560 O 0.50894 0.50121 0.05959 0.0
O561 O 0.50008 0.50794 0.01834 0.0
O562 O 0.49955 0.48037 0.99843 0.0
O563 O 0.52302 0.48379 0.01951 0.0
O564 O 0.49031 0.48706 0.03746 0.0
O565 O 0.5333 0.53184 0.055 0.0
C566 C 0.5497 0.53055 1.00182 0.0
C567 C 0.45256 0.53589 0.972 0.0
C568 C 0.43832 0.51587 0.97597 0.0
C569 C 0.51719 0.50386 0.96078 0.0
C570 C 0.53182 0.5145 0.94689 0.0
C571 C 0.54631 0.5351 0.94843 0.0
C572 C 0.53104 0.50421 0.93175 0.0
C573 C 0.54453 0.51455 0.91821 0.0
C574 C 0.55993 0.54527 0.93525 0.0
C575 C 0.55907 0.53513 0.92024 0.0
C576 C 0.52499 0.54955 0.01896 0.0
C577 C 0.48422 0.49392 0.02514 0.0
C578 C 0.52052 0.51913 0.06609 0.0
C579 C 0.52886 0.52002 0.08327 0.0
C580 C 0.54618 0.51783 0.08561 0.0
C581 C 0.51966 0.52351 0.09746 0.0
C582 C 0.52792 0.52512 0.11393 0.0
C583 C 0.55432 0.51923 0.10189 0.0
C584 C 0.54534 0.52292 0.11597 0.0
C585 C 0.50997 0.47348 0.00708 0.0
H586 H 0.5471 0.54346 0.95972 0.0
H587 H 0.51968 0.48837 0.93037 0.0
H588 H 0.57113 0.56113 0.93663 0.0
H589 H 0.56989 0.54339 0.91021 0.0
H590 H 0.55349 0.51518 0.07488 0.0
H591 H 0.50638 0.52539 0.09564 0.0
H592 H 0.5677 0.51752 0.1036 0.0
H593 H 0.55191 0.52387 0.12848 0.0
Gd594 Gd 0.17811 0.34712 0.3673 0.0
Gd595 Gd 0.16232 0.32953 0.32277 0.0
C596 C 0.09846 0.27701 0.30974 0.0
C597 C 0.10629 0.25142 0.30001 0.0
C598 C 0.1338 0.28438 0.30908 0.0
C599 C 0.11958 0.29024 0.31287 0.0
C600 C 0.12738 0.26503 0.30232 0.0
C601 C 0.09185 0.25743 0.30365 0.0
C602 C 0.0847 0.2841 0.31226 0.0
C603 C 0.09214 0.30397 0.31753 0.0
N604 N 0.12653 0.30934 0.31854 0.0
C605 C 0.11322 0.31652 0.32043 0.0
H606 H 0.11862 0.33182 0.32444 0.0
C607 C 0.16878 0.29382 0.3056 0.0
N608 N 0.15404 0.29804 0.31108 0.0
C609 C 0.16319 0.27475 0.29905 0.0
C610 C 0.14239 0.2602 0.29757 0.0
H611 H 0.18488 0.30504 0.30678 0.0
H612 H 0.07567 0.24699 0.30134 0.0
H613 H 0.22308 0.34761 0.36557 0.0
H614 H 0.06839 0.27451 0.30981 0.0
H615 H 0.08165 0.30967 0.31931 0.0
H616 H 0.10103 0.23643 0.29496 0.0
H617 H 0.15313 0.36915 0.38377 0.0
H618 H 0.27124 0.4063 0.38016 0.0
H619 H 0.2599 0.37148 0.37051 0.0
H620 H 0.23502 0.4406 0.39597 0.0
H621 H 0.17491 0.27129 0.29511 0.0
H622 H 0.13808 0.24548 0.29237 0.0
H623 H 0.26188 0.4322 0.38913 0.0
H624 H 0.16117 0.40215 0.39586 0.0
N625 N 0.2136 0.36884 0.37173 0.0
C626 C 0.25505 0.39593 0.37783 0.0
C627 C 0.24869 0.37626 0.37248 0.0
C628 C 0.24038 0.4018 0.38064 0.0
C629 C 0.21948 0.38766 0.37759 0.0
C630 C 0.22777 0.36276 0.36969 0.0
N631 N 0.18447 0.37787 0.37944 0.0
C632 C 0.20443 0.39234 0.38155 0.0
C633 C 0.17348 0.39962 0.39183 0.0
C634 C 0.19396 0.41498 0.3934 0.0
C635 C 0.16899 0.38094 0.38502 0.0
C636 C 0.20975 0.41135 0.3885 0.0
H637 H 0.1974 0.4294 0.39876 0.0
O638 O 0.16177 0.33689 0.39131 0.0
O639 O 0.15366 0.32522 0.35 0.0
O640 O 0.15414 0.35333 0.3308 0.0
O641 O 0.17633 0.3717 0.35314 0.0
O642 O 0.14393 0.33575 0.36987 0.0
O643 O 0.1875 0.33239 0.38601 0.0
O644 O 0.17808 0.33771 0.29838 0.0
O645 O 0.18684 0.35131 0.34001 0.0
O646 O 0.18703 0.32389 0.35908 0.0
O647 O 0.16412 0.30512 0.33729 0.0
O648 O 0.19645 0.34055 0.32021 0.0
O649 O 0.15491 0.34583 0.30409 0.0
C650 C 0.13785 0.32362 0.35701 0.0
C651 C 0.23059 0.42585 0.39078 0.0
C652 C 0.24589 0.42107 0.38688 0.0
C653 C 0.174 0.33081 0.39725 0.0
C654 C 0.18171 0.33717 0.41477 0.0
C655 C 0.19774 0.35681 0.41804 0.0
C656 C 0.17313 0.32351 0.42835 0.0
C657 C 0.18066 0.32942 0.44513 0.0
C658 C 0.20515 0.36282 0.43458 0.0
C659 C 0.19672 0.34928 0.44804 0.0
C660 C 0.1637 0.36973 0.34051 0.0
C661 C 0.20262 0.35286 0.33296 0.0
C662 C 0.16735 0.3456 0.29262 0.0
C663 C 0.15885 0.33964 0.27526 0.0
C664 C 0.14112 0.32095 0.27233 0.0
C665 C 0.16821 0.35289 0.26151 0.0
C666 C 0.15964 0.34759 0.24498 0.0
C667 C 0.1327 0.31555 0.256 0.0
C668 C 0.1418 0.32877 0.24242 0.0
C669 C 0.17703 0.30724 0.34973 0.0
H670 H 0.20456 0.3675 0.40783 0.0
H671 H 0.16086 0.30825 0.42581 0.0
H672 H 0.21748 0.37805 0.43699 0.0
H673 H 0.20262 0.35446 0.46078 0.0
H674 H 0.13371 0.31059 0.28267 0.0
H675 H 0.18184 0.36741 0.26375 0.0
H676 H 0.119 0.30109 0.25387 0.0
H677 H 0.13499 0.32417 0.22985 0.0
Gd678 Gd 0.66473 0.8327 0.36815 0.0
Gd679 Gd 0.68615 0.83544 0.32514 0.0
C680 C 0.74211 0.82763 0.31764 0.0
C681 C 0.76822 0.86121 0.30891 0.0
C682 C 0.73339 0.85399 0.31479 0.0
C683 C 0.72772 0.83433 0.31885 0.0
C684 C 0.75356 0.86753 0.30936 0.0
C685 C 0.76251 0.8413 0.31307 0.0
C686 C 0.73543 0.80728 0.32062 0.0
C687 C 0.71471 0.79406 0.3241 0.0
N688 N 0.70785 0.8215 0.32312 0.0
C689 C 0.701 0.80141 0.32511 0.0
H690 H 0.68509 0.79101 0.32795 0.0
C691 C 0.72292 0.8779 0.30919 0.0
N692 N 0.71883 0.85954 0.31525 0.0
C693 C 0.74274 0.89191 0.30378 0.0
C694 C 0.75821 0.8868 0.30408 0.0
H695 H 0.71099 0.88191 0.30907 0.0
H696 H 0.77385 0.83649 0.31229 0.0
H697 H 0.66547 0.87696 0.36402 0.0
H698 H 0.74601 0.80154 0.31988 0.0
H699 H 0.70931 0.77821 0.32613 0.0
H700 H 0.78387 0.87146 0.30496 0.0
H701 H 0.64091 0.78825 0.38758 0.0
H702 H 0.60468 0.86671 0.37193 0.0
H703 H 0.64129 0.88976 0.36518 0.0
H704 H 0.56739 0.79775 0.38968 0.0
H705 H 0.74607 0.90662 0.2994 0.0
H706 H 0.77353 0.89765 0.29982 0.0
H707 H 0.57702 0.83212 0.38065 0.0
H708 H 0.60624 0.76408 0.39837 0.0
N709 N 0.64283 0.84661 0.36958 0.0
C710 C 0.61525 0.86094 0.37143 0.0
C711 C 0.63591 0.874 0.36768 0.0
C712 C 0.60865 0.84076 0.37509 0.0
C713 C 0.62305 0.83403 0.37421 0.0
C714 C 0.64962 0.86662 0.36704 0.0
N715 N 0.63237 0.8095 0.37935 0.0
C716 C 0.61762 0.81478 0.37921 0.0
C717 C 0.60918 0.77823 0.39291 0.0
C718 C 0.59344 0.78293 0.39188 0.0
C719 C 0.62878 0.79194 0.38684 0.0
C720 C 0.59767 0.80158 0.38531 0.0
H721 H 0.57831 0.77235 0.39668 0.0
O722 O 0.6732 0.82696 0.39317 0.0
O723 O 0.68861 0.83118 0.35275 0.0
O724 O 0.66119 0.80335 0.33122 0.0
O725 O 0.64194 0.80412 0.35445 0.0
O726 O 0.67685 0.81119 0.37258 0.0
O727 O 0.67888 0.85681 0.38684 0.0
O728 O 0.67828 0.84273 0.30054 0.0
O729 O 0.66161 0.83608 0.34039 0.0
O730 O 0.68907 0.8648 0.36081 0.0
O731 O 0.70987 0.86167 0.34048 0.0
O732 O 0.67415 0.85711 0.32128 0.0
O733 O 0.67412 0.81294 0.305 0.0
C734 C 0.69011 0.81753 0.36044 0.0
C735 C 0.58289 0.80775 0.38526 0.0
C736 C 0.58837 0.82733 0.38014 0.0
C737 C 0.67929 0.84514 0.39871 0.0
C738 C 0.67166 0.84676 0.4155 0.0
C739 C 0.65193 0.84426 0.41732 0.0
C740 C 0.68434 0.851 0.4299 0.0
C741 C 0.67745 0.85283 0.44612 0.0
C742 C 0.64495 0.84598 0.43335 0.0
C743 C 0.65759 0.85025 0.44767 0.0
C744 C 0.64483 0.79494 0.34127 0.0
C745 C 0.66016 0.84986 0.33284 0.0
C746 C 0.67339 0.82526 0.29391 0.0
C747 C 0.68186 0.82568 0.27698 0.0
C748 C 0.70193 0.82911 0.27509 0.0
C749 C 0.66971 0.82286 0.26247 0.0
C750 C 0.67751 0.82347 0.24606 0.0
C751 C 0.70983 0.82982 0.25888 0.0
C752 C 0.69775 0.82704 0.24443 0.0
C753 C 0.7067 0.87199 0.35244 0.0
H754 H 0.64197 0.84107 0.40639 0.0
H755 H 0.69968 0.85316 0.4284 0.0
H756 H 0.62967 0.84398 0.43468 0.0
H757 H 0.65171 0.85128 0.45999 0.0
H758 H 0.71147 0.83118 0.2861 0.0
H759 H 0.65426 0.8204 0.26398 0.0
H760 H 0.72533 0.83244 0.25751 0.0
H761 H 0.70412 0.82733 0.23201 0.0
Gd762 Gd 0.17546 0.84651 0.32299 0.0
Gd763 Gd 0.18634 0.84011 0.36734 0.0
C764 C 0.2494 0.8489 0.38144 0.0
C765 C 0.24125 0.81472 0.38815 0.0
C766 C 0.21414 0.82156 0.3796 0.0
C767 C 0.22847 0.84176 0.37768 0.0
C768 C 0.22029 0.80789 0.38526 0.0
C769 C 0.25578 0.83521 0.38628 0.0
C770 C 0.26316 0.86966 0.38077 0.0
C771 C 0.2559 0.88274 0.37668 0.0
N772 N 0.22175 0.8546 0.37315 0.0
C773 C 0.235 0.87494 0.37308 0.0
H774 H 0.22966 0.88527 0.36996 0.0
C775 C 0.17902 0.79644 0.38116 0.0
N776 N 0.19399 0.81555 0.37708 0.0
C777 C 0.18436 0.78225 0.3866 0.0
C778 C 0.2051 0.78793 0.38844 0.0
H779 H 0.16298 0.79202 0.37966 0.0
H780 H 0.27183 0.84038 0.38902 0.0
H781 H 0.13011 0.80127 0.3222 0.0
H782 H 0.27931 0.87579 0.3838 0.0
H783 H 0.26638 0.89884 0.37634 0.0
H784 H 0.24632 0.80442 0.39234 0.0
H785 H 0.20055 0.89321 0.30648 0.0
H786 H 0.08279 0.81283 0.30608 0.0
H787 H 0.094 0.78915 0.31566 0.0
H788 H 0.1184 0.88293 0.29279 0.0
H789 H 0.1725 0.76698 0.38938 0.0
H790 H 0.2092 0.77695 0.39278 0.0
H791 H 0.09182 0.84794 0.2985 0.0
H792 H 0.19208 0.91772 0.29399 0.0
N793 N 0.13995 0.83227 0.31733 0.0
C794 C 0.09881 0.81848 0.3093 0.0
C795 C 0.10511 0.80504 0.31456 0.0
C796 C 0.11335 0.8389 0.30752 0.0
C797 C 0.13416 0.84544 0.31141 0.0
C798 C 0.12584 0.81213 0.31829 0.0
N799 N 0.1693 0.87089 0.31068 0.0
C800 C 0.14921 0.86527 0.30808 0.0
C801 C 0.17989 0.90309 0.29799 0.0
C802 C 0.15935 0.89806 0.29622 0.0
C803 C 0.18463 0.88913 0.30503 0.0
C804 C 0.14371 0.87885 0.30094 0.0
H805 H 0.15572 0.90889 0.2907 0.0
O806 O 0.19241 0.83586 0.3077 0.0
O807 O 0.19875 0.84788 0.34114 0.0
O808 O 0.19379 0.87245 0.36306 0.0
O809 O 0.17977 0.87416 0.33686 0.0
O810 O 0.20894 0.87114 0.32404 0.0
O811 O 0.17134 0.84314 0.29545 0.0
O812 O 0.16784 0.82965 0.39024 0.0
O813 O 0.16339 0.84046 0.34945 0.0
O814 O 0.16418 0.81367 0.32927 0.0
O815 O 0.18621 0.81581 0.35108 0.0
O816 O 0.15213 0.81766 0.36704 0.0
O817 O 0.19336 0.86029 0.389 0.0
C818 C 0.21468 0.86344 0.33601 0.0
C819 C 0.1229 0.87263 0.29808 0.0
C820 C 0.10777 0.8527 0.30132 0.0
C821 C 0.18529 0.83805 0.29327 0.0
C822 C 0.20049 0.84881 0.2798 0.0
C823 C 0.21609 0.86889 0.28221 0.0
C824 C 0.19928 0.83906 0.26426 0.0
C825 C 0.21349 0.84938 0.25116 0.0
C826 C 0.2303 0.8791 0.26938 0.0
C827 C 0.22904 0.86947 0.25396 0.0
C828 C 0.18841 0.8819 0.35179 0.0
C829 C 0.14701 0.82579 0.35505 0.0
C830 C 0.17899 0.84653 0.39848 0.0
C831 C 0.18487 0.84475 0.41602 0.0
C832 C 0.19939 0.83869 0.41915 0.0
C833 C 0.1756 0.84884 0.42982 0.0
C834 C 0.18065 0.84669 0.4467 0.0
C835 C 0.20446 0.83651 0.43581 0.0
C836 C 0.19515 0.84042 0.44952 0.0
C837 C 0.17381 0.80613 0.33814 0.0
H838 H 0.21736 0.87678 0.29393 0.0
H839 H 0.18712 0.82361 0.26229 0.0
H840 H 0.24233 0.89456 0.2714 0.0
H841 H 0.24041 0.8777 0.24428 0.0
H842 H 0.2068 0.83565 0.40876 0.0
H843 H 0.16431 0.85346 0.42741 0.0
H844 H 0.21571 0.83184 0.43811 0.0
H845 H 0.19956 0.83888 0.46234 0.0
Gd846 Gd 0.84438 0.68047 0.70133 0.0
Gd847 Gd 0.82692 0.66122 0.65727 0.0
C848 C 0.76358 0.60656 0.64677 0.0
C849 C 0.77236 0.5816 0.63712 0.0
C850 C 0.79933 0.61548 0.64462 0.0
C851 C 0.7847 0.62069 0.64873 0.0
C852 C 0.79337 0.59603 0.63836 0.0
C853 C 0.75749 0.58685 0.64135 0.0
C854 C 0.74927 0.61283 0.64988 0.0
C855 C 0.7562 0.63293 0.65418 0.0
N856 N 0.79116 0.63991 0.65379 0.0
C857 C 0.77732 0.6464 0.65587 0.0
H858 H 0.7824 0.66183 0.65932 0.0
C859 C 0.83443 0.6262 0.63997 0.0
N860 N 0.81945 0.62982 0.64589 0.0
C861 C 0.82931 0.60712 0.63372 0.0
C862 C 0.8087 0.59187 0.63312 0.0
H863 H 0.8504 0.63791 0.64053 0.0
H864 H 0.74133 0.57571 0.63997 0.0
H865 H 0.88832 0.6788 0.69904 0.0
H866 H 0.7329 0.60242 0.64861 0.0
H867 H 0.74528 0.63803 0.6563 0.0
H868 H 0.76746 0.5665 0.63252 0.0
H869 H 0.82198 0.70474 0.7182 0.0
H870 H 0.93877 0.73782 0.70931 0.0
H871 H 0.92559 0.702 0.70182 0.0
H872 H 0.9057 0.77522 0.72519 0.0
H873 H 0.84125 0.60417 0.62941 0.0
H874 H 0.80476 0.57712 0.62823 0.0
H875 H 0.93121 0.76518 0.71773 0.0
H876 H 0.83193 0.73883 0.72901 0.0
N877 N 0.88026 0.70125 0.70451 0.0
C878 C 0.92234 0.72767 0.70814 0.0
C879 C 0.91495 0.70746 0.70395 0.0
C880 C 0.9084 0.7344 0.71126 0.0
C881 C 0.88717 0.72059 0.70947 0.0
C882 C 0.89374 0.69432 0.7024 0.0
N883 N 0.85268 0.71219 0.71255 0.0
C884 C 0.8729 0.72626 0.7136 0.0
C885 C 0.84361 0.73552 0.72465 0.0
C886 C 0.86434 0.75049 0.72498 0.0
C887 C 0.83803 0.71624 0.71859 0.0
C888 C 0.87933 0.74587 0.71969 0.0
H889 H 0.86864 0.7654 0.72973 0.0
O890 O 0.8287 0.67182 0.72571 0.0
O891 O 0.8193 0.65823 0.68477 0.0
O892 O 0.81853 0.6849 0.66512 0.0
O893 O 0.84152 0.70426 0.68673 0.0
O894 O 0.81044 0.66963 0.70468 0.0
O895 O 0.85352 0.66592 0.72042 0.0
O896 O 0.84357 0.67135 0.63342 0.0
O897 O 0.85187 0.68359 0.67385 0.0
O898 O 0.85209 0.65618 0.69362 0.0
O899 O 0.82904 0.63715 0.67193 0.0
O900 O 0.86095 0.67218 0.65413 0.0
O901 O 0.81688 0.67459 0.63775 0.0
C902 C 0.80384 0.65705 0.69212 0.0
C903 C 0.90044 0.76 0.72073 0.0
C904 C 0.91497 0.75427 0.7165 0.0
C905 C 0.84055 0.66534 0.73175 0.0
C906 C 0.84881 0.67221 0.74906 0.0
C907 C 0.86518 0.69181 0.75179 0.0
C908 C 0.84028 0.65909 0.76298 0.0
C909 C 0.84817 0.66549 0.77961 0.0
C910 C 0.87298 0.6983 0.76818 0.0
C911 C 0.86458 0.6853 0.78199 0.0
C912 C 0.82834 0.70166 0.67437 0.0
C913 C 0.86743 0.68488 0.6666 0.0
C914 C 0.83091 0.67656 0.62691 0.0
C915 C 0.82396 0.66964 0.60933 0.0
C916 C 0.80875 0.64962 0.6061 0.0
C917 C 0.83301 0.68296 0.5956 0.0
C918 C 0.82708 0.67624 0.57867 0.0
C919 C 0.80275 0.6429 0.58941 0.0
C920 C 0.81185 0.65605 0.57578 0.0
C921 C 0.8419 0.63938 0.68445 0.0
H922 H 0.87195 0.70209 0.74129 0.0
H923 H 0.82775 0.64387 0.76082 0.0
H924 H 0.88557 0.7135 0.77019 0.0
H925 H 0.87078 0.69087 0.79459 0.0
H926 H 0.80155 0.63919 0.61645 0.0
H927 H 0.84488 0.69841 0.59808 0.0
H928 H 0.79098 0.62742 0.58702 0.0
H929 H 0.80675 0.65047 0.56296 0.0
Gd930 Gd 0.33068 0.16371 0.70149 0.0
Gd931 Gd 0.35252 0.16481 0.65901 0.0
C932 C 0.40877 0.15715 0.65262 0.0
C933 C 0.43477 0.19051 0.64331 0.0
C934 C 0.39985 0.18325 0.64883 0.0
C935 C 0.3943 0.1638 0.65344 0.0
C936 C 0.42002 0.19672 0.64335 0.0
C937 C 0.42915 0.17075 0.64795 0.0
C938 C 0.40217 0.13691 0.65608 0.0
C939 C 0.38148 0.12374 0.65967 0.0
N940 N 0.37445 0.15104 0.65781 0.0
C941 C 0.3677 0.13104 0.66029 0.0
H942 H 0.35181 0.12067 0.66318 0.0
C943 C 0.38922 0.20686 0.64243 0.0
N944 N 0.38519 0.18868 0.64888 0.0
C945 C 0.40904 0.22081 0.63697 0.0
C946 C 0.42459 0.21581 0.63763 0.0
H947 H 0.37725 0.21081 0.64203 0.0
H948 H 0.44054 0.166 0.64747 0.0
H949 H 0.33039 0.20726 0.69682 0.0
H950 H 0.4128 0.13122 0.65563 0.0
H951 H 0.37613 0.10798 0.66206 0.0
H952 H 0.45041 0.2007 0.63931 0.0
H953 H 0.30692 0.11801 0.71911 0.0
H954 H 0.26922 0.19587 0.70508 0.0
H955 H 0.30562 0.21941 0.69803 0.0
H956 H 0.23293 0.12668 0.72235 0.0
H957 H 0.41231 0.23539 0.63228 0.0
H958 H 0.43991 0.22661 0.63334 0.0
H959 H 0.24204 0.16106 0.71376 0.0
H960 H 0.27225 0.09324 0.72944 0.0
N961 N 0.30824 0.17688 0.70268 0.0
C962 C 0.28003 0.1904 0.70454 0.0
C963 C 0.30058 0.20375 0.70061 0.0
C964 C 0.27383 0.1703 0.70823 0.0
C965 C 0.28854 0.16397 0.70733 0.0
C966 C 0.31461 0.19676 0.69995 0.0
N967 N 0.29834 0.13963 0.71208 0.0
C968 C 0.28342 0.1447 0.71218 0.0
C969 C 0.27516 0.10763 0.72455 0.0
C970 C 0.25934 0.11225 0.72397 0.0
C971 C 0.29476 0.12169 0.71875 0.0
C972 C 0.26344 0.13111 0.71799 0.0
H973 H 0.24419 0.10137 0.72853 0.0
O974 O 0.33909 0.15867 0.72675 0.0
O975 O 0.35478 0.16166 0.68683 0.0
O976 O 0.32797 0.13296 0.66667 0.0
O977 O 0.30717 0.13662 0.68678 0.0
O978 O 0.34268 0.14226 0.70698 0.0
O979 O 0.34361 0.18807 0.72003 0.0
O980 O 0.34493 0.17074 0.63375 0.0
O981 O 0.32837 0.16676 0.67364 0.0
O982 O 0.35483 0.19557 0.69352 0.0
O983 O 0.37596 0.19163 0.67402 0.0
O984 O 0.34054 0.1863 0.65359 0.0
O985 O 0.33953 0.1409 0.64007 0.0
C986 C 0.35616 0.14827 0.69503 0.0
C987 C 0.24844 0.13698 0.7181 0.0
C988 C 0.25362 0.15655 0.71322 0.0
C989 C 0.34435 0.17675 0.7321 0.0
C990 C 0.33622 0.17806 0.74875 0.0
C991 C 0.31622 0.17496 0.75029 0.0
C992 C 0.34855 0.18221 0.76336 0.0
C993 C 0.341 0.18321 0.77951 0.0
C994 C 0.30861 0.17592 0.76625 0.0
C995 C 0.32086 0.17998 0.78079 0.0
C996 C 0.3104 0.12597 0.67512 0.0
C997 C 0.32692 0.18013 0.66543 0.0
C998 C 0.33941 0.15269 0.62814 0.0
C999 C 0.3478 0.15157 0.61154 0.0
C1000 C 0.36701 0.15273 0.61035 0.0
C1001 C 0.33639 0.14933 0.59666 0.0
C1002 C 0.344 0.14807 0.58061 0.0
C1003 C 0.37473 0.15163 0.59448 0.0
C1004 C 0.36332 0.14928 0.57969 0.0
C1005 C 0.37257 0.20244 0.68537 0.0
H1006 H 0.30653 0.17184 0.73921 0.0
H1007 H 0.36393 0.18437 0.76215 0.0
H1008 H 0.29317 0.17354 0.76734 0.0
H1009 H 0.31469 0.18087 0.79301 0.0
H1010 H 0.37601 0.15441 0.62163 0.0
H1011 H 0.32143 0.1482 0.59764 0.0
H1012 H 0.38959 0.15258 0.59364 0.0
H1013 H 0.3697 0.14859 0.56751 0.0
Gd1014 Gd 0.84091 0.17884 0.65781 0.0
Gd1015 Gd 0.85771 0.17637 0.70167 0.0
C1016 C 0.92123 0.18492 0.71362 0.0
C1017 C 0.91285 0.15153 0.72324 0.0
C1018 C 0.88567 0.15821 0.71454 0.0
C1019 C 0.90015 0.17786 0.71066 0.0
C1020 C 0.89181 0.14489 0.72113 0.0
C1021 C 0.92753 0.17154 0.71957 0.0
C1022 C 0.93527 0.20537 0.7111 0.0
C1023 C 0.92817 0.21824 0.70591 0.0
N1024 N 0.89351 0.19045 0.70517 0.0
C1025 C 0.90712 0.21054 0.70318 0.0
H1026 H 0.90197 0.22078 0.69928 0.0
C1027 C 0.85058 0.13399 0.71837 0.0
N1028 N 0.86549 0.15246 0.7128 0.0
C1029 C 0.85589 0.12013 0.72473 0.0
C1030 C 0.8766 0.12553 0.72595 0.0
H1031 H 0.83454 0.12979 0.71741 0.0
H1032 H 0.94368 0.17665 0.72176 0.0
H1033 H 0.79573 0.13542 0.66 0.0
H1034 H 0.95156 0.21147 0.71346 0.0
H1035 H 0.93888 0.23412 0.7041 0.0
H1036 H 0.91789 0.1415 0.72818 0.0
H1037 H 0.86546 0.22485 0.6408 0.0
H1038 H 0.74733 0.1479 0.64893 0.0
H1039 H 0.7588 0.12378 0.65684 0.0
H1040 H 0.78352 0.21737 0.63244 0.0
H1041 H 0.84402 0.10534 0.72873 0.0
H1042 H 0.88069 0.11484 0.73103 0.0
H1043 H 0.75671 0.18298 0.64004 0.0
H1044 H 0.85723 0.25011 0.62939 0.0
N1045 N 0.80528 0.16605 0.65441 0.0
C1046 C 0.76362 0.15312 0.65029 0.0
C1047 C 0.77003 0.13946 0.65471 0.0
C1048 C 0.77833 0.17323 0.64713 0.0
C1049 C 0.79932 0.17927 0.64921 0.0
C1050 C 0.79105 0.14615 0.65649 0.0
N1051 N 0.8343 0.20337 0.64622 0.0
C1052 C 0.81433 0.19855 0.64493 0.0
C1053 C 0.84502 0.2357 0.63378 0.0
C1054 C 0.82458 0.23132 0.63313 0.0
C1055 C 0.84962 0.22136 0.64019 0.0
C1056 C 0.80889 0.21244 0.6385 0.0
H1057 H 0.82104 0.24243 0.62812 0.0
O1058 O 0.85641 0.18448 0.63341 0.0
O1059 O 0.86571 0.18022 0.67429 0.0
O1060 O 0.86635 0.20835 0.69405 0.0
O1061 O 0.84386 0.20561 0.67224 0.0
O1062 O 0.87519 0.20036 0.65461 0.0
O1063 O 0.83056 0.15495 0.6389 0.0
O1064 O 0.84244 0.1695 0.72624 0.0
O1065 O 0.83289 0.17491 0.68525 0.0
O1066 O 0.83174 0.14673 0.66565 0.0
O1067 O 0.85514 0.15006 0.68682 0.0
O1068 O 0.82352 0.15456 0.70483 0.0
O1069 O 0.86669 0.19991 0.72073 0.0
C1070 C 0.88148 0.19387 0.66706 0.0
C1071 C 0.78802 0.20685 0.63719 0.0
C1072 C 0.77276 0.18727 0.64152 0.0
C1073 C 0.84374 0.16652 0.62749 0.0
C1074 C 0.83553 0.16556 0.61024 0.0
C1075 C 0.81873 0.16853 0.60766 0.0
C1076 C 0.84456 0.1616 0.59619 0.0
C1077 C 0.83681 0.16051 0.57958 0.0
C1078 C 0.81102 0.16759 0.59128 0.0
C1079 C 0.81996 0.16361 0.57732 0.0
C1080 C 0.85689 0.21577 0.68472 0.0
C1081 C 0.81719 0.16118 0.69249 0.0
C1082 C 0.85414 0.18768 0.73219 0.0
C1083 C 0.86282 0.18924 0.74935 0.0
C1084 C 0.88074 0.18806 0.75167 0.0
C1085 C 0.85326 0.19221 0.76355 0.0
C1086 C 0.86169 0.19425 0.78 0.0
C1087 C 0.88906 0.18986 0.76793 0.0
C1088 C 0.87967 0.19298 0.78201 0.0
C1089 C 0.84178 0.13963 0.67461 0.0
H1090 H 0.81153 0.17153 0.61827 0.0
H1091 H 0.85742 0.1591 0.59824 0.0
H1092 H 0.7981 0.16998 0.58939 0.0
H1093 H 0.81382 0.16322 0.56473 0.0
H1094 H 0.88836 0.18586 0.74096 0.0
H1095 H 0.83953 0.19334 0.76174 0.0
H1096 H 0.90287 0.1889 0.76961 0.0
H1097 H 0.88637 0.19423 0.79452 0.0
H1098 H 0.29249 0.82458 0.03388 0.0
H1099 H 0.32426 0.85375 0.02388 0.0
H1100 H 0.34368 0.87153 0.07589 0.0
H1101 H 0.3126 0.84196 0.08597 0.0
H1102 H 0.34021 0.89395 0.02835 0.0
H1103 H 0.39305 0.87091 0.05643 0.0
H1104 H 0.36562 0.85407 0.05508 0.0
H1105 H 0.37645 0.87232 0.07209 0.0
C1106 C 0.30362 0.83456 0.0432 0.0
C1107 C 0.29997 0.83077 0.06076 0.0
C1108 C 0.32172 0.85133 0.03745 0.0
C1109 C 0.33657 0.86463 0.04912 0.0
C1110 C 0.3327 0.86123 0.06662 0.0
H1111 H 0.43472 0.98694 0.03463 0.0
H1112 H 0.40173 0.95606 0.03863 0.0
C1113 C 0.31471 0.84444 0.07238 0.0
C1114 C 0.35608 0.88213 0.04306 0.0
H1115 H 0.4083 0.90513 0.0473 0.0
C1116 C 0.35512 0.89631 0.03235 0.0
C1117 C 0.37556 0.88503 0.04796 0.0
C1118 C 0.37778 0.86966 0.05837 0.0
C1119 C 0.37306 0.91367 0.02695 0.0
C1120 C 0.39251 0.91719 0.03274 0.0
C1121 C 0.39345 0.90262 0.04295 0.0
C1122 C 0.41206 0.9361 0.02895 0.0
C1123 C 0.37089 0.92792 0.01502 0.0
C1124 C 0.42912 0.93527 0.02257 0.0
C1125 C 0.44813 0.9529 0.02067 0.0
C1126 C 0.45034 0.97177 0.02474 0.0
C1127 C 0.43328 0.97262 0.031 0.0
C1128 C 0.41436 0.95498 0.03314 0.0
H1129 H 0.3568 0.91982 0.00702 0.0
H1130 H 0.36948 0.93942 0.02261 0.0
H1131 H 0.38438 0.93575 0.00652 0.0
H1132 H 0.42786 0.92091 0.01941 0.0
H1133 H 0.46114 0.95167 0.01638 0.0
H1134 H 0.16378 0.4368 0.06431 0.0
H1135 H 0.13379 0.43935 0.05565 0.0
H1136 H 0.17325 0.50218 0.04395 0.0
H1137 H 0.20331 0.49986 0.05279 0.0
H1138 H 0.1206 0.4641 0.07004 0.0
H1139 H 0.13683 0.48145 1.00136 0.0
H1140 H 0.14989 0.47158 0.01407 0.0
H1141 H 0.1575 0.49784 0.01537 0.0
C1142 C 0.16614 0.45118 0.05987 0.0
C1143 C 0.18608 0.46811 0.05927 0.0
C1144 C 0.14894 0.45258 0.05483 0.0
C1145 C 0.1512 0.47089 0.04892 0.0
C1146 C 0.17108 0.48776 0.04808 0.0
H1147 H 0.06449 0.51155 0.02224 0.0
H1148 H 0.09521 0.50867 0.02726 0.0
C1149 C 0.18831 0.48639 0.05314 0.0
C1150 C 0.13267 0.47257 0.0447 0.0
H1151 H 0.10914 0.48431 0.01287 0.0
C1152 C 0.11805 0.4684 0.0575 0.0
C1153 C 0.12937 0.47835 0.02838 0.0
C1154 C 0.14411 0.4824 0.01394 0.0
C1155 C 0.10046 0.47009 0.05454 0.0
C1156 C 0.09703 0.47569 0.03818 0.0
C1157 C 0.11169 0.47997 0.02538 0.0
C1158 C 0.07833 0.47715 0.03419 0.0
C1159 C 0.08596 0.46637 0.06914 0.0
C1160 C 0.05855 0.46033 0.03607 0.0
C1161 C 0.04099 0.46196 0.03316 0.0
C1162 C 0.0428 0.48029 0.02787 0.0
C1163 C 0.06257 0.49708 0.02583 0.0
C1164 C 0.08016 0.49547 0.0288 0.0
H1165 H 0.09357 0.46788 0.08166 0.0
H1166 H 0.07996 0.47702 0.06882 0.0
H1167 H 0.07271 0.4508 0.06815 0.0
H1168 H 0.05667 0.44593 0.03991 0.0
H1169 H 0.02595 0.44885 0.03502 0.0
H1170 H 0.54498 0.72701 0.03823 0.0
H1171 H 0.54234 0.69547 0.02795 0.0
H1172 H 0.54267 0.67716 0.07977 0.0
H1173 H 0.54507 0.70843 0.09015 0.0
H1174 H 0.5701 0.67887 0.03618 0.0
H1175 H 0.4889 0.6307 0.05655 0.0
H1176 H 0.50047 0.65759 0.05363 0.0
H1177 H 0.50624 0.6479 0.07236 0.0
C1178 C 0.54446 0.71623 0.04741 0.0
C1179 C 0.54522 0.72018 0.06499 0.0
C1180 C 0.54307 0.69831 0.04153 0.0
C1181 C 0.54216 0.68399 0.05313 0.0
C1182 C 0.54321 0.688 0.07065 0.0
H1183 H 0.5537 0.57762 0.04074 0.0
H1184 H 0.55857 0.61086 0.048 0.0
C1185 C 0.54474 0.70593 0.07653 0.0
C1186 C 0.53975 0.66463 0.047 0.0
H1187 H 0.50626 0.61391 0.04678 0.0
C1188 C 0.55614 0.66465 0.03841 0.0
C1189 C 0.52143 0.64619 0.04982 0.0
C1190 C 0.50315 0.64546 0.05847 0.0
C1191 C 0.55483 0.64657 0.03289 0.0
C1192 C 0.53672 0.62807 0.03615 0.0
C1193 C 0.52018 0.62812 0.0444 0.0
C1194 C 0.53453 0.60843 0.03114 0.0
C1195 C 0.57273 0.64736 0.0235 0.0
C1196 C 0.51923 0.59597 0.01944 0.0
C1197 C 0.51636 0.57697 0.0153 0.0
C1198 C 0.52867 0.57001 0.02288 0.0
C1199 C 0.54401 0.58255 0.03462 0.0
C1200 C 0.54692 0.6016 0.0387 0.0
H1201 H 0.58339 0.66271 0.01861 0.0
H1202 H 0.58149 0.64307 0.03231 0.0
H1203 H 0.56725 0.63656 0.01264 0.0
H1204 H 0.50938 0.6009 0.0136 0.0
H1205 H 0.50414 0.56758 0.00648 0.0
H1206 H 0.84526 0.27365 0.96616 0.0
H1207 H 0.87476 0.30488 0.97692 0.0
H1208 H 0.83998 0.33554 0.97111 0.0
H1209 H 0.81029 0.3042 0.96112 0.0
H1210 H 0.89771 0.33931 0.96272 0.0
H1211 H 0.86118 0.35339 0.01794 0.0
H1212 H 0.8488 0.3299 0.00629 0.0
H1213 H 0.84726 0.35135 0.99875 0.0
C1214 C 0.84391 0.28705 0.96738 0.0
C1215 C 0.82544 0.28648 0.96301 0.0
C1216 C 0.86075 0.30488 0.97351 0.0
C1217 C 0.85953 0.32255 0.97521 0.0
C1218 C 0.84115 0.32202 0.97054 0.0
H1219 H 0.96383 0.44425 0.97545 0.0
H1220 H 0.93542 0.4107 0.96819 0.0
C1221 C 0.82421 0.30412 0.96472 0.0
C1222 C 0.87774 0.34174 0.98106 0.0
H1223 H 0.89268 0.38167 0.00823 0.0
C1224 C 0.89664 0.34845 0.97281 0.0
C1225 C 0.87659 0.35357 0.99447 0.0
C1226 C 0.85741 0.34656 0.00499 0.0
C1227 C 0.91417 0.36683 0.97722 0.0
C1228 C 0.91261 0.37932 0.98979 0.0
C1229 C 0.89388 0.37233 0.9984 0.0
C1230 C 0.93008 0.39972 0.99414 0.0
C1231 C 0.93422 0.37241 0.96852 0.0
C1232 C 0.93616 0.40513 0.01121 0.0
C1233 C 0.95206 0.42451 0.01539 0.0
C1234 C 0.96229 0.4388 1.0026 0.0
C1235 C 0.95635 0.43341 0.98554 0.0
C1236 C 0.9402 0.41417 0.98138 0.0
H1237 H 0.93458 0.35878 0.96412 0.0
H1238 H 0.93588 0.38163 0.95712 0.0
H1239 H 0.94759 0.38122 0.9771 0.0
H1240 H 0.92864 0.39432 0.02131 0.0
H1241 H 0.95659 0.42814 0.02858 0.0
H1242 H 0.73413 0.57452 0.95997 0.0
H1243 H 0.7023 0.57286 0.96952 0.0
H1244 H 0.67717 0.5101 0.98188 0.0
H1245 H 0.70882 0.51154 0.97217 0.0
H1246 H 0.6631 0.54857 0.95629 0.0
H1247 H 0.66466 0.53215 0.02489 0.0
H1248 H 0.68707 0.54131 0.0115 0.0
H1249 H 0.66745 0.51518 0.01077 0.0
C1250 C 0.72187 0.56034 0.96474 0.0
C1251 C 0.72417 0.54317 0.96526 0.0
C1252 C 0.70368 0.55945 0.97029 0.0
C1253 C 0.68735 0.54143 0.97664 0.0
C1254 C 0.68967 0.52432 0.97742 0.0
H1255 H 0.5607 0.50153 0.00564 0.0
H1256 H 0.59437 0.50475 1.00029 0.0
C1257 C 0.70785 0.52518 0.97185 0.0
C1258 C 0.66752 0.54026 0.98146 0.0
H1259 H 0.63362 0.52939 0.01424 0.0
C1260 C 0.65675 0.54452 0.969 0.0
C1261 C 0.65909 0.53483 0.99801 0.0
C1262 C 0.67022 0.53077 0.01213 0.0
C1263 C 0.6377 0.54315 0.97251 0.0
C1264 C 0.6293 0.53781 0.98908 0.0
C1265 C 0.64005 0.53354 1.00156 0.0
C1266 C 0.60925 0.53631 0.99355 0.0
C1267 C 0.62645 0.54687 0.95826 0.0
C1268 C 0.60643 0.55308 0.99198 0.0
C1269 C 0.58719 0.55127 0.99511 0.0
C1270 C 0.57046 0.53277 1.0002 0.0
C1271 C 0.57338 0.5161 1.0021 0.0
C1272 C 0.59262 0.5179 0.99896 0.0
H1273 H 0.6321 0.54548 0.94555 0.0
H1274 H 0.60964 0.53615 0.95885 0.0
H1275 H 0.62897 0.5624 0.95946 0.0
H1276 H 0.61907 0.56754 0.98812 0.0
H1277 H 0.58532 0.56431 0.99342 0.0
H1278 H 0.47746 0.19466 0.98462 0.0
H1279 H 0.4795 0.16578 0.99574 0.0
H1280 H 0.47739 0.1444 0.9445 0.0
H1281 H 0.47562 0.17331 0.93327 0.0
H1282 H 0.45135 0.12218 0.98949 0.0
H1283 H 0.53126 0.15048 0.96684 0.0
H1284 H 0.52021 0.1666 0.96911 0.0
H1285 H 0.51338 0.14983 0.95116 0.0
C1286 C 0.47743 0.18379 0.97574 0.0
C1287 C 0.47644 0.18628 0.95807 0.0
C1288 C 0.4785 0.16728 0.9821 0.0
C1289 C 0.4788 0.15312 0.97091 0.0
C1290 C 0.47736 0.1553 0.95331 0.0
H1291 H 0.46533 0.03555 0.98729 0.0
H1292 H 0.46073 0.064 0.97963 0.0
C1293 C 0.47618 0.17172 0.94694 0.0
C1294 C 0.48109 0.13628 0.97758 0.0
H1295 H 0.51385 0.11744 0.97809 0.0
C1296 C 0.46501 0.12113 0.98707 0.0
C1297 C 0.49906 0.13514 0.97455 0.0
C1298 C 0.51708 0.15143 0.96498 0.0
C1299 C 0.46626 0.10457 0.99328 0.0
C1300 C 0.48398 0.10314 0.9898 0.0
C1301 C 0.50023 0.11853 0.98065 0.0
C1302 C 0.48593 0.08567 0.99531 0.0
C1303 C 0.4487 0.0888 0.00361 0.0
C1304 C 0.50174 0.08848 0.00654 0.0
C1305 C 0.50447 0.07228 0.01091 0.0
C1306 C 0.49151 0.05297 0.00402 0.0
C1307 C 0.47556 0.05019 0.99287 0.0
C1308 C 0.47281 0.0664 0.98856 0.0
H1309 H 0.43864 0.09445 0.00857 0.0
H1310 H 0.43918 0.07545 0.99543 0.0
H1311 H 0.45455 0.08384 0.0145 0.0
H1312 H 0.51213 0.10328 0.01178 0.0
H1313 H 0.51707 0.07504 0.01937 0.0
H1314 H 0.70212 0.17852 0.95086 0.0
H1315 H 0.67349 0.14419 0.95599 0.0
H1316 H 0.66658 0.16171 0.00668 0.0
H1317 H 0.695 0.1959 1.00164 0.0
H1318 H 0.66456 0.12062 1.00146 0.0
H1319 H 0.61225 0.13561 0.96132 0.0
H1320 H 0.63704 0.14188 0.95287 0.0
H1321 H 0.63552 0.15575 0.9707 0.0
C1322 C 0.69472 0.1749 0.96319 0.0
C1323 C 0.70065 0.18989 0.9758 0.0
C1324 C 0.67835 0.15537 0.96607 0.0
C1325 C 0.66787 0.15052 0.98167 0.0
C1326 C 0.67445 0.16518 0.99456 0.0
H1327 H 0.54444 0.05925 0.00732 0.0
H1328 H 0.57758 0.09005 0.00402 0.0
C1329 C 0.69062 0.1847 0.99163 0.0
C1330 C 0.64916 0.13066 0.98429 0.0
H1331 H 0.59795 0.10401 0.97453 0.0
C1332 C 0.64999 0.11686 0.99552 0.0
C1333 C 0.6302 0.12598 0.97663 0.0
C1334 C 0.62848 0.14054 0.96475 0.0
C1335 C 0.63226 0.09845 0.99936 0.0
C1336 C 0.61321 0.09378 0.99175 0.0
C1337 C 0.6125 0.10761 0.98043 0.0
C1338 C 0.5937 0.07481 0.9954 0.0
C1339 C 0.63412 0.08443 0.01177 0.0
C1340 C 0.59169 0.05591 0.99184 0.0
C1341 C 0.57277 0.03823 0.99402 0.0
C1342 C 0.55553 0.0391 0.99983 0.0
C1343 C 0.55756 0.058 0.00338 0.0
C1344 C 0.57648 0.07566 1.00131 0.0
H1345 H 0.64758 0.09269 0.02041 0.0
H1346 H 0.62008 0.07622 0.01957 0.0
H1347 H 0.63631 0.07316 0.00454 0.0
H1348 H 0.60456 0.05485 0.98686 0.0
H1349 H 0.57148 0.02386 0.99083 0.0
H1350 H 0.81699 0.48685 0.95825 0.0
H1351 H 0.85114 0.49072 0.96236 0.0
H1352 H 0.87011 0.54545 0.99094 0.0
H1353 H 0.83573 0.54161 0.9868 0.0
H1354 H 0.89188 0.52357 0.95439 0.0
H1355 H 0.87963 0.5075 0.02377 0.0
H1356 H 0.85866 0.50157 0.00918 0.0
H1357 H 0.87543 0.52717 0.01575 0.0
C1358 C 0.82853 0.49988 0.96521 0.0
C1359 C 0.82366 0.51391 0.97224 0.0
C1360 C 0.84804 0.50206 0.96757 0.0
C1361 C 0.86312 0.51819 0.97718 0.0
C1362 C 0.85863 0.53273 0.98365 0.0
H1363 H 0.99145 0.54611 0.98662 0.0
H1364 H 0.96011 0.54804 0.98189 0.0
C1365 C 0.83908 0.53065 0.98114 0.0
C1366 C 0.88316 0.51919 0.98078 0.0
H1367 H 0.9112 0.51343 0.01251 0.0
C1368 C 0.89622 0.52157 0.96712 0.0
C1369 C 0.88864 0.51619 0.99735 0.0
C1370 C 0.87486 0.51281 0.0124 0.0
C1371 C 0.91458 0.52109 0.96958 0.0
C1372 C 0.92015 0.51825 0.98618 0.0
C1373 C 0.90706 0.5158 0.99983 0.0
C1374 C 0.93925 0.51731 0.98951 0.0
C1375 C 0.9276 0.52303 0.95431 0.0
C1376 C 0.93804 0.49951 0.99564 0.0
C1377 C 0.95595 0.49841 0.99838 0.0
C1378 C 0.97545 0.51524 0.99539 0.0
C1379 C 0.97663 0.533 0.98921 0.0
C1380 C 0.95874 0.53409 0.98644 0.0
H1381 H 0.91899 0.52056 0.94216 0.0
H1382 H 0.94121 0.53843 0.95409 0.0
H1383 H 0.9332 0.51208 0.95502 0.0
H1384 H 0.9232 0.48636 0.99808 0.0
H1385 H 0.95453 0.48436 1.00273 0.0
H1386 H 0.53268 0.32235 0.99223 0.0
H1387 H 0.52738 0.35092 0.9973 0.0
H1388 H 0.48803 0.33455 0.95302 0.0
H1389 H 0.49363 0.30605 0.94755 0.0
H1390 H 0.53679 0.3824 0.96994 0.0
H1391 H 0.45649 0.34413 0.99453 0.0
H1392 H 0.47263 0.33288 0.99642 0.0
H1393 H 0.46233 0.33389 0.97605 0.0
C1394 C 0.52292 0.32479 0.98352 0.0
C1395 C 0.51375 0.31202 0.96937 0.0
C1396 C 0.5198 0.34104 0.98652 0.0
C1397 C 0.50729 0.34475 0.97556 0.0
C1398 C 0.49758 0.33177 0.9617 0.0
H1399 H 0.48289 0.44562 0.98404 0.0
H1400 H 0.48114 0.41409 0.97498 0.0
C1401 C 0.50076 0.31549 0.95863 0.0
C1402 C 0.50565 0.36304 0.97816 0.0
H1403 H 0.47423 0.37964 0.99374 0.0
C1404 C 0.52307 0.38182 0.97501 0.0
C1405 C 0.48765 0.36215 0.98459 0.0
C1406 C 0.46864 0.34223 0.98819 0.0
C1407 C 0.52315 0.39983 0.9785 0.0
C1408 C 0.50549 0.39901 0.98574 0.0
C1409 C 0.48777 0.3802 0.98829 0.0
C1410 C 0.50572 0.41752 0.99166 0.0
C1411 C 0.5422 0.41959 0.97447 0.0
C1412 C 0.51979 0.42961 0.00429 0.0
C1413 C 0.52092 0.44759 0.0094 0.0
C1414 C 0.50776 0.45377 1.0022 0.0
C1415 C 0.49324 0.44133 0.98986 0.0
C1416 C 0.49219 0.4233 0.98468 0.0
H1417 H 0.55155 0.4177 0.96445 0.0
H1418 H 0.5382 0.43101 0.97015 0.0
H1419 H 0.5519 0.42543 0.98611 0.0
H1420 H 0.53012 0.42526 0.01007 0.0
H1421 H 0.53245 0.45682 0.01876 0.0
H1422 H 0.20575 0.70221 0.0176 0.0
H1423 H 0.17123 0.67291 0.01475 0.0
H1424 H 0.16013 0.67749 0.06799 0.0
H1425 H 0.19485 0.70693 0.07092 0.0
H1426 H 0.15306 0.63873 0.05698 0.0
H1427 H 0.11312 0.66687 0.01524 0.0
H1428 H 0.13809 0.67267 0.00776 0.0
H1429 H 0.1359 0.68349 0.02744 0.0
C1430 C 0.19584 0.69715 0.02864 0.0
C1431 C 0.20299 0.7068 0.0445 0.0
C1432 C 0.17607 0.68051 0.02697 0.0
C1433 C 0.16305 0.67314 0.04112 0.0
C1434 C 0.1699 0.68306 0.05689 0.0
H1435 H 0.03875 0.56672 0.03449 0.0
H1436 H 0.06742 0.60036 0.04163 0.0
C1437 C 0.18966 0.69989 0.05853 0.0
C1438 C 0.14316 0.654 0.03964 0.0
H1439 H 0.09794 0.63097 0.01721 0.0
C1440 C 0.14086 0.6371 0.0485 0.0
C1441 C 0.12723 0.65191 0.02862 0.0
C1442 C 0.12856 0.66973 0.01933 0.0
C1443 C 0.12349 0.61798 0.046 0.0
C1444 C 0.10809 0.61571 0.03431 0.0
C1445 C 0.10988 0.63275 0.02606 0.0
C1446 C 0.09063 0.59556 0.02981 0.0
C1447 C 0.12189 0.60022 0.05563 0.0
C1448 C 0.09421 0.58188 0.02063 0.0
C1449 C 0.07794 0.56277 0.01646 0.0
C1450 C 0.05771 0.55692 0.02139 0.0
C1451 C 0.05414 0.57072 0.03051 0.0
C1452 C 0.07047 0.58995 0.03459 0.0
H1453 H 0.13247 0.60508 0.0668 0.0
H1454 H 0.1059 0.59025 0.06008 0.0
H1455 H 0.12601 0.59126 0.04702 0.0
H1456 H 0.10966 0.586 0.01671 0.0
H1457 H 0.08132 0.55249 0.00957 0.0
H1458 H 0.31644 0.50082 0.01783 0.0
H1459 H 0.34652 0.49682 0.01406 0.0
H1460 H 0.34217 0.47812 0.06637 0.0
H1461 H 0.31201 0.48242 0.07027 0.0
H1462 H 0.3814 0.50874 0.05766 0.0
H1463 H 0.35336 0.44751 0.00955 0.0
H1464 H 0.34911 0.46772 0.00344 0.0
H1465 H 0.33617 0.45272 0.02176 0.0
C1466 C 0.32166 0.49552 0.02847 0.0
C1467 C 0.31183 0.49195 0.04437 0.0
C1468 C 0.33882 0.49312 0.02626 0.0
C1469 C 0.34659 0.48699 0.03986 0.0
C1470 C 0.33642 0.48277 0.05564 0.0
H1471 H 0.44761 0.4611 0.03292 0.0
H1472 H 0.41414 0.45913 0.03646 0.0
C1473 C 0.31909 0.48507 0.05784 0.0
C1474 C 0.3662 0.48659 0.03786 0.0
H1475 H 0.38986 0.46698 0.0135 0.0
C1476 C 0.38317 0.49946 0.04811 0.0
C1477 C 0.36859 0.47446 0.02543 0.0
C1478 C 0.35079 0.45968 0.01452 0.0
C1479 C 0.4025 0.50087 0.04601 0.0
C1480 C 0.40507 0.48929 0.03317 0.0
C1481 C 0.38799 0.47605 0.0232 0.0
C1482 C 0.42526 0.49039 0.0302 0.0
C1483 C 0.41997 0.51465 0.05769 0.0
C1484 C 0.44263 0.50852 0.02522 0.0
C1485 C 0.46174 0.50963 0.02314 0.0
C1486 C 0.46379 0.49255 0.02575 0.0
C1487 C 0.44639 0.47441 0.03061 0.0
C1488 C 0.42728 0.47328 0.03262 0.0
H1489 H 0.41435 0.51862 0.06933 0.0
H1490 H 0.42916 0.50756 0.06157 0.0
H1491 H 0.4303 0.52883 0.05087 0.0
H1492 H 0.44143 0.52187 0.02304 0.0
H1493 H 0.47495 0.52392 0.01973 0.0
H1494 H 0.53169 0.82588 0.0734 0.0
H1495 H 0.53821 0.85995 0.0672 0.0
H1496 H 0.49897 0.83729 0.02283 0.0
H1497 H 0.49306 0.8035 0.02851 0.0
H1498 H 0.53411 0.87332 0.01677 0.0
H1499 H 0.49609 0.87762 0.0761 0.0
H1500 H 0.51719 0.87311 0.07919 0.0
H1501 H 0.49416 0.85442 0.06867 0.0
C1502 C 0.5247 0.82822 0.06219 0.0
C1503 C 0.51162 0.81191 0.05158 0.0
C1504 C 0.52826 0.84766 0.05877 0.0
C1505 C 0.51872 0.85108 0.04476 0.0
C1506 C 0.50634 0.83498 0.0338 0.0
H1507 H 0.49149 0.93723 1.00239 0.0
H1508 H 0.49659 0.90898 0.00917 0.0
C1509 C 0.50284 0.81563 0.03716 0.0
C1510 C 0.52101 0.8712 0.04158 0.0
H1511 H 0.50916 0.90561 0.05783 0.0
C1512 C 0.52881 0.88046 0.02581 0.0
C1513 C 0.51406 0.8805 0.05338 0.0
C1514 C 0.50474 0.87088 0.07023 0.0
C1515 C 0.52946 0.89853 0.0214 0.0
C1516 C 0.52201 0.90749 0.03301 0.0
C1517 C 0.5149 0.89867 0.049 0.0
C1518 C 0.52003 0.92516 0.02831 0.0
C1519 C 0.53788 0.90781 0.00427 0.0
C1520 C 0.5314 0.94359 0.03695 0.0
C1521 C 0.5287 0.95994 0.03296 0.0
C1522 C 0.51439 0.95803 0.02038 0.0
C1523 C 0.50297 0.93945 0.01184 0.0
C1524 C 0.50583 0.92322 0.01573 0.0
H1525 H 0.54748 0.90199 0.99864 0.0
H1526 H 0.52488 0.9041 0.99541 0.0
H1527 H 0.54725 0.92449 0.00533 0.0
H1528 H 0.5423 0.94528 0.04681 0.0
H1529 H 0.53767 0.97396 0.03986 0.0
H1530 H 0.98507 0.14895 0.39133 0.0
H1531 H 0.01588 0.17886 0.38097 0.0
H1532 H 0.98697 0.21464 0.3896 0.0
H1533 H 0.95603 0.18478 0.39989 0.0
H1534 H 0.02164 0.20534 0.35418 0.0
H1535 H 0.04086 0.24504 0.41658 0.0
H1536 H 0.02223 0.21858 0.41438 0.0
H1537 H 0.01534 0.23727 0.409 0.0
C1538 C 0.98514 0.16312 0.39083 0.0
C1539 C 0.96807 0.16445 0.39654 0.0
C1540 C 1.00282 0.18023 0.38498 0.0
C1541 C 1.00388 0.19906 0.38478 0.0
C1542 C 0.98668 0.20036 0.39 0.0
H1543 H 0.10152 0.32124 0.36444 0.0
H1544 H 0.06824 0.29075 0.36907 0.0
C1545 C 0.969 0.18326 0.39588 0.0
C1546 C 0.02306 0.21735 0.37928 0.0
H1547 H 0.06095 0.2635 0.39307 0.0
C1548 C 0.03028 0.21806 0.36267 0.0
C1549 C 0.03435 0.23392 0.39039 0.0
C1550 C 0.02796 0.23368 0.40863 0.0
C1551 C 0.04825 0.23505 0.35676 0.0
C1552 C 0.0595 0.25169 0.36785 0.0
C1553 C 0.05228 0.25088 0.38448 0.0
C1554 C 0.07898 0.27002 0.36272 0.0
C1555 C 0.05464 0.23521 0.33856 0.0
C1556 C 0.09609 0.26863 0.35734 0.0
C1557 C 0.11505 0.28607 0.3545 0.0
C1558 C 0.11729 0.30525 0.35707 0.0
C1559 C 0.10012 0.30664 0.36215 0.0
C1560 C 0.08113 0.28923 0.36484 0.0
H1561 H 0.04163 0.22413 0.33055 0.0
H1562 H 0.06069 0.25038 0.33298 0.0
H1563 H 0.06696 0.23121 0.33816 0.0
H1564 H 0.09509 0.25408 0.35608 0.0
H1565 H 0.12813 0.28449 0.3511 0.0
H1566 H 0.82949 0.77269 0.39927 0.0
H1567 H 0.79977 0.77535 0.38998 0.0
H1568 H 0.83973 0.83798 0.3779 0.0
H1569 H 0.86955 0.83553 0.38733 0.0
H1570 H 0.78691 0.80039 0.40405 0.0
H1571 H 0.80331 0.81715 0.3353 0.0
H1572 H 0.81623 0.80725 0.34816 0.0
H1573 H 0.82396 0.83355 0.34932 0.0
C1574 C 0.83202 0.78704 0.39457 0.0
C1575 C 0.85201 0.8039 0.3941 0.0
C1576 C 0.81498 0.7885 0.38919 0.0
C1577 C 0.81745 0.8068 0.38305 0.0
C1578 C 0.8374 0.82357 0.38221 0.0
H1579 H 0.73045 0.84715 0.35621 0.0
H1580 H 0.76132 0.84446 0.36102 0.0
C1581 C 0.85449 0.82213 0.38762 0.0
C1582 C 0.79901 0.8086 0.3787 0.0
H1583 H 0.77551 0.81999 0.34659 0.0
C1584 C 0.78438 0.80457 0.39145 0.0
C1585 C 0.79575 0.81422 0.3623 0.0
C1586 C 0.81053 0.81814 0.34791 0.0
C1587 C 0.76679 0.8062 0.38836 0.0
C1588 C 0.76337 0.8116 0.37192 0.0
C1589 C 0.77806 0.81579 0.35917 0.0
C1590 C 0.74461 0.8129 0.36783 0.0
C1591 C 0.75225 0.80259 0.4029 0.0
C1592 C 0.7249 0.79598 0.36966 0.0
C1593 C 0.70726 0.79749 0.36686 0.0
C1594 C 0.70892 0.81582 0.36176 0.0
C1595 C 0.72864 0.83269 0.35968 0.0
C1596 C 0.74631 0.83119 0.36253 0.0
H1597 H 0.7598 0.80417 0.41546 0.0
H1598 H 0.74627 0.81326 0.40246 0.0
H1599 H 0.73898 0.78703 0.40195 0.0
H1600 H 0.72314 0.78161 0.37345 0.0
H1601 H 0.69227 0.78432 0.36873 0.0
H1602 H 0.21645 0.04339 0.42417 0.0
H1603 H 0.21461 0.01265 0.41318 0.0
H1604 H 0.20366 0.02697 0.36257 0.0
H1605 H 0.20627 0.05829 0.37328 0.0
H1606 H 0.17364 0.98443 0.38019 0.0
H1607 H 0.25702 0.00877 0.37675 0.0
H1608 H 0.24791 0.01644 0.39493 0.0
H1609 H 0.24769 0.02632 0.37431 0.0
C1610 C 0.21413 0.04033 0.41062 0.0
C1611 C 0.21162 0.05345 0.3996 0.0
C1612 C 0.21295 0.02266 0.40441 0.0
C1613 C 0.2091 0.01768 0.38709 0.0
C1614 C 0.20669 0.03066 0.37599 0.0
H1615 H 0.1752 0.9046 0.33474 0.0
H1616 H 0.18099 0.93793 0.34229 0.0
C1617 C 0.20805 0.04847 0.38216 0.0
C1618 C 0.20662 0.99835 0.38084 0.0
H1619 H 0.23343 0.97441 0.37133 0.0
C1620 C 0.18667 0.9822 0.37811 0.0
C1621 C 0.22368 0.99558 0.37839 0.0
C1622 C 0.24536 0.01266 0.38115 0.0
C1623 C 0.18327 0.9631 0.37328 0.0
C1624 C 0.20037 0.96029 0.37065 0.0
C1625 C 0.22035 0.97658 0.37329 0.0
C1626 C 0.19782 0.94048 0.3655 0.0
C1627 C 0.16139 0.94597 0.37164 0.0
C1628 C 0.20606 0.93112 0.37564 0.0
C1629 C 0.20324 0.91222 0.3711 0.0
C1630 C 0.19211 0.90229 0.3563 0.0
C1631 C 0.1841 0.91186 0.34606 0.0
C1632 C 0.18713 0.93084 0.35052 0.0
H1633 H 0.15052 0.94913 0.37876 0.0
H1634 H 0.15672 0.94387 0.35803 0.0
H1635 H 0.15987 0.93165 0.37642 0.0
H1636 H 0.21444 0.93832 0.38723 0.0
H1637 H 0.20965 0.90536 0.3793 0.0
H1638 H 0.51415 0.60856 0.29962 0.0
H1639 H 0.54318 0.64021 0.31027 0.0
H1640 H 0.50674 0.66923 0.30498 0.0
H1641 H 0.47753 0.63746 0.29511 0.0
H1642 H 0.56534 0.67486 0.29628 0.0
H1643 H 0.52795 0.68741 0.35169 0.0
H1644 H 0.51607 0.66397 0.33997 0.0
H1645 H 0.51386 0.6851 0.33254 0.0
C1646 C 0.51233 0.62169 0.30092 0.0
C1647 C 0.49352 0.62051 0.29674 0.0
C1648 C 0.52891 0.63977 0.30699 0.0
C1649 C 0.5271 0.65711 0.30882 0.0
C1650 C 0.50839 0.65598 0.30431 0.0
H1651 H 0.63001 0.77997 0.30974 0.0
H1652 H 0.60194 0.74633 0.30223 0.0
C1653 C 0.49171 0.63783 0.29856 0.0
C1654 C 0.54502 0.67657 0.31469 0.0
H1655 H 0.55907 0.71618 0.34207 0.0
C1656 C 0.56399 0.68377 0.30643 0.0
C1657 C 0.54353 0.68814 0.32817 0.0
C1658 C 0.52431 0.68063 0.33871 0.0
C1659 C 0.58125 0.70234 0.31091 0.0
C1660 C 0.57935 0.71454 0.32357 0.0
C1661 C 0.56055 0.70708 0.33217 0.0
C1662 C 0.59655 0.73507 0.32809 0.0
C1663 C 0.60142 0.70841 0.3022 0.0
C1664 C 0.60249 0.74038 0.3452 0.0
C1665 C 0.61819 0.75982 0.34953 0.0
C1666 C 0.62839 0.7743 0.33686 0.0
C1667 C 0.62256 0.769 0.31976 0.0
C1668 C 0.60661 0.74971 0.31545 0.0
H1669 H 0.60213 0.695 0.2977 0.0
H1670 H 0.60289 0.71766 0.29087 0.0
H1671 H 0.61472 0.71734 0.31083 0.0
H1672 H 0.59503 0.72945 0.35523 0.0
H1673 H 0.6226 0.76335 0.36275 0.0
H1674 H 0.37248 0.84315 0.30336 0.0
H1675 H 0.34063 0.84155 0.31288 0.0
H1676 H 0.36685 0.90502 0.30295 0.0
H1677 H 0.3987 0.90674 0.29339 0.0
H1678 H 0.33209 0.86092 0.33844 0.0
H1679 H 0.31373 0.88133 0.27572 0.0
H1680 H 0.33344 0.87459 0.27839 0.0
H1681 H 0.33862 0.89956 0.28378 0.0
C1682 C 0.37158 0.85684 0.30338 0.0
C1683 C 0.38818 0.87506 0.29747 0.0
C1684 C 0.35328 0.85587 0.30875 0.0
C1685 C 0.35109 0.87306 0.30831 0.0
C1686 C 0.36788 0.89141 0.30298 0.0
H1687 H 0.25109 0.89707 0.32904 0.0
H1688 H 0.28452 0.89956 0.32382 0.0
C1689 C 0.38614 0.89238 0.29755 0.0
C1690 C 0.33126 0.87178 0.31336 0.0
H1691 H 0.29299 0.88005 0.29894 0.0
C1692 C 0.3235 0.86502 0.32978 0.0
C1693 C 0.31994 0.87707 0.30207 0.0
C1694 C 0.32672 0.88336 0.28396 0.0
C1695 C 0.30507 0.86385 0.33532 0.0
C1696 C 0.29387 0.86934 0.32408 0.0
C1697 C 0.3016 0.876 0.30764 0.0
C1698 C 0.274 0.86813 0.32893 0.0
C1699 C 0.29811 0.85733 0.35333 0.0
C1700 C 0.25687 0.84969 0.33367 0.0
C1701 C 0.23778 0.84829 0.33673 0.0
C1702 C 0.23538 0.86532 0.33517 0.0
C1703 C 0.25255 0.88378 0.33061 0.0
C1704 C 0.27164 0.88519 0.32757 0.0
H1705 H 0.31083 0.85869 0.36156 0.0
H1706 H 0.29197 0.86654 0.35896 0.0
H1707 H 0.28569 0.84132 0.35333 0.0
H1708 H 0.25801 0.83616 0.33436 0.0
H1709 H 0.22475 0.83371 0.3397 0.0
H1710 H 0.14588 0.52861 0.31657 0.0
H1711 H 0.14799 0.49999 0.32828 0.0
H1712 H 0.15071 0.48015 0.27739 0.0
H1713 H 0.14892 0.5088 0.26561 0.0
H1714 H 0.12135 0.45677 0.3213 0.0
H1715 H 0.20279 0.4863 0.30261 0.0
H1716 H 0.1912 0.50205 0.30378 0.0
H1717 H 0.18606 0.48558 0.28582 0.0
C1718 C 0.14697 0.51816 0.30789 0.0
C1719 C 0.1473 0.52099 0.29017 0.0
C1720 C 0.14807 0.5018 0.31459 0.0
C1721 C 0.14973 0.48814 0.30368 0.0
C1722 C 0.14965 0.49068 0.28601 0.0
H1723 H 0.13498 0.37026 0.31919 0.0
H1724 H 0.13105 0.39914 0.31178 0.0
C1725 C 0.14845 0.50694 0.2793 0.0
C1726 C 0.15183 0.47133 0.31072 0.0
H1727 H 0.18467 0.45264 0.31266 0.0
C1728 C 0.13521 0.45588 0.31952 0.0
C1729 C 0.17004 0.4704 0.30854 0.0
C1730 C 0.18864 0.48703 0.29981 0.0
C1731 C 0.13613 0.43916 0.32577 0.0
C1732 C 0.15406 0.43786 0.32301 0.0
C1733 C 0.17088 0.45362 0.31465 0.0
C1734 C 0.15561 0.42012 0.32835 0.0
C1735 C 0.11796 0.42306 0.33533 0.0
C1736 C 0.1709 0.4224 0.33996 0.0
C1737 C 0.17326 0.40594 0.34418 0.0
C1738 C 0.16045 0.38689 0.33676 0.0
C1739 C 0.14506 0.38466 0.3252 0.0
C1740 C 0.14268 0.40112 0.32103 0.0
H1741 H 0.1078 0.42867 0.34014 0.0
H1742 H 0.10873 0.41015 0.32664 0.0
H1743 H 0.12311 0.41747 0.34627 0.0
H1744 H 0.18115 0.43698 0.34563 0.0
H1745 H 0.18545 0.4083 0.35295 0.0
H1746 H 0.37044 0.51103 0.28447 0.0
H1747 H 0.34168 0.47665 0.28919 0.0
H1748 H 0.33535 0.49297 0.34048 0.0
H1749 H 0.36389 0.52721 0.33585 0.0
H1750 H 0.33246 0.45215 0.33484 0.0
H1751 H 0.28092 0.46808 0.2946 0.0
H1752 H 0.30551 0.4739 0.28601 0.0
H1753 H 0.30442 0.48798 0.30387 0.0
C1754 C 0.36315 0.50713 0.29684 0.0
C1755 C 0.36928 0.52181 0.30975 0.0
C1756 C 0.34669 0.48756 0.29949 0.0
C1757 C 0.3363 0.48236 0.31514 0.0
C1758 C 0.34313 0.49669 0.32831 0.0
H1759 H 0.21237 0.39169 0.34025 0.0
H1760 H 0.24567 0.4223 0.33692 0.0
C1761 C 0.35938 0.51624 0.32563 0.0
C1762 C 0.31744 0.46251 0.31756 0.0
H1763 H 0.2663 0.43624 0.30743 0.0
C1764 C 0.31799 0.44855 0.32878 0.0
C1765 C 0.29859 0.45802 0.30977 0.0
C1766 C 0.29711 0.47275 0.29794 0.0
C1767 C 0.30012 0.43018 0.33248 0.0
C1768 C 0.28119 0.42569 0.32473 0.0
C1769 C 0.28075 0.43968 0.31342 0.0
C1770 C 0.26152 0.40681 0.32828 0.0
C1771 C 0.30168 0.416 0.3449 0.0
C1772 C 0.25929 0.38781 0.32472 0.0
C1773 C 0.24027 0.37023 0.3269 0.0
C1774 C 0.22313 0.37129 0.33272 0.0
C1775 C 0.22538 0.39029 0.33628 0.0
C1776 C 0.2444 0.40784 0.3342 0.0
H1777 H 0.31516 0.42409 0.35355 0.0
H1778 H 0.2876 0.40799 0.35269 0.0
H1779 H 0.30362 0.40457 0.33769 0.0
H1780 H 0.27208 0.3866 0.31975 0.0
H1781 H 0.23883 0.3558 0.32372 0.0
H1782 H 0.48239 0.8201 0.29181 0.0
H1783 H 0.51667 0.82452 0.29655 0.0
H1784 H 0.5342 0.87904 0.32499 0.0
H1785 H 0.49968 0.87464 0.32024 0.0
H1786 H 0.55712 0.85755 0.28895 0.0
H1787 H 0.5442 0.84201 0.35835 0.0
H1788 H 0.52336 0.83575 0.34354 0.0
H1789 H 0.53981 0.86144 0.35005 0.0
C1790 C 0.49364 0.83319 0.29889 0.0
C1791 C 0.48832 0.847 0.3057 0.0
C1792 C 0.51322 0.83568 0.3016 0.0
C1793 C 0.52793 0.85192 0.31136 0.0
C1794 C 0.523 0.86624 0.31761 0.0
H1795 H 0.65671 0.88183 0.32243 0.0
H1796 H 0.62515 0.88331 0.3175 0.0
C1797 C 0.50337 0.86384 0.31475 0.0
C1798 C 0.54809 0.8533 0.31526 0.0
H1799 H 0.57614 0.84841 0.3475 0.0
C1800 C 0.56138 0.85576 0.30177 0.0
C1801 C 0.55348 0.85059 0.33196 0.0
C1802 C 0.53947 0.84715 0.34685 0.0
C1803 C 0.57987 0.85561 0.30451 0.0
C1804 C 0.58533 0.85304 0.32122 0.0
C1805 C 0.57204 0.85054 0.33472 0.0
C1806 C 0.60455 0.8524 0.32482 0.0
C1807 C 0.59316 0.85763 0.28942 0.0
C1808 C 0.60352 0.83465 0.33084 0.0
C1809 C 0.62155 0.83379 0.33366 0.0
C1810 C 0.64097 0.85082 0.33088 0.0
C1811 C 0.64196 0.86856 0.32486 0.0
C1812 C 0.62394 0.8694 0.32199 0.0
H1813 H 0.58476 0.85515 0.27716 0.0
H1814 H 0.60674 0.87305 0.28931 0.0
H1815 H 0.59881 0.84673 0.29029 0.0
H1816 H 0.58874 0.82133 0.33308 0.0
H1817 H 0.62028 0.81976 0.33788 0.0
H1818 H 0.20891 0.67021 0.28951 0.0
H1819 H 0.2016 0.69734 0.29527 0.0
H1820 H 0.1413 0.65406 0.3135 0.0
H1821 H 0.14885 0.6268 0.30846 0.0
H1822 H 0.17191 0.7054 0.2839 0.0
H1823 H 0.16571 0.6924 0.35384 0.0
H1824 H 0.17544 0.6805 0.33973 0.0
H1825 H 0.14823 0.67115 0.34105 0.0
C1826 C 0.19412 0.66643 0.29484 0.0
C1827 C 0.1796 0.64635 0.2988 0.0
C1828 C 0.18989 0.68196 0.29798 0.0
C1829 C 0.17105 0.67778 0.3051 0.0
C1830 C 0.1561 0.65767 0.30831 0.0
H1831 H 0.14477 0.7776 0.3167 0.0
H1832 H 0.14129 0.74515 0.30837 0.0
C1833 C 0.16036 0.64208 0.30525 0.0
C1834 C 0.16767 0.69471 0.30972 0.0
H1835 H 0.16164 0.7191 0.34379 0.0
C1836 C 0.16945 0.70832 0.29697 0.0
C1837 C 0.16468 0.69857 0.32681 0.0
C1838 C 0.16356 0.68502 0.3412 0.0
C1839 C 0.16889 0.72596 0.30089 0.0
C1840 C 0.16605 0.72987 0.318 0.0
C1841 C 0.16368 0.71598 0.33067 0.0
C1842 C 0.1674 0.74911 0.32329 0.0
C1843 C 0.17234 0.74071 0.28682 0.0
C1844 C 0.18288 0.76186 0.33475 0.0
C1845 C 0.1848 0.78025 0.33963 0.0
C1846 C 0.17119 0.7863 0.3332 0.0
C1847 C 0.15553 0.77343 0.32183 0.0
C1848 C 0.15358 0.75492 0.317 0.0
H1849 H 0.1786 0.73751 0.27516 0.0
H1850 H 0.15748 0.73969 0.28343 0.0
H1851 H 0.18314 0.7564 0.29103 0.0
H1852 H 0.19374 0.75771 0.33974 0.0
H1853 H 0.19722 0.78988 0.34821 0.0
H1854 H 0.87836 0.01546 0.39851 0.0
H1855 H 0.84385 0.98706 0.39346 0.0
H1856 H 0.82461 0.02755 0.37359 0.0
H1857 H 0.85949 0.05615 0.37816 0.0
H1858 H 0.80516 0.97763 0.40453 0.0
H1859 H 0.81166 0.98774 0.33425 0.0
H1860 H 0.83349 1.00081 0.34836 0.0
H1861 H 0.81501 0.00912 0.34638 0.0
C1862 C 0.8668 0.01837 0.39307 0.0
C1863 C 0.87178 0.03804 0.38847 0.0
C1864 C 0.84702 0.00211 0.3903 0.0
C1865 C 0.83172 0.00509 0.38285 0.0
C1866 C 0.83628 0.02484 0.37905 0.0
H1867 H 0.70562 0.90116 0.37224 0.0
H1868 H 0.73445 0.93448 0.3798 0.0
C1869 C 0.85616 0.04119 0.38183 0.0
C1870 C 0.81145 0.98728 0.37845 0.0
H1871 H 0.78128 0.96028 0.34466 0.0
C1872 C 0.79979 0.97393 0.39147 0.0
C1873 C 0.8046 0.98235 0.36135 0.0
C1874 C 0.81686 0.99562 0.34672 0.0
C1875 C 0.78177 0.9556 0.38784 0.0
C1876 C 0.77502 0.95062 0.37074 0.0
C1877 C 0.7864 0.96419 0.35776 0.0
C1878 C 0.75719 0.93073 0.36587 0.0
C1879 C 0.77065 0.94132 0.40227 0.0
C1880 C 0.76025 0.91773 0.35521 0.0
C1881 C 0.74384 0.89878 0.3508 0.0
C1882 C 0.72389 0.8924 0.35685 0.0
C1883 C 0.72077 0.90554 0.36739 0.0
C1884 C 0.73726 0.92457 0.37179 0.0
H1885 H 0.78017 0.94547 0.41405 0.0
H1886 H 0.75639 0.94172 0.40517 0.0
H1887 H 0.7662 0.92561 0.39868 0.0
H1888 H 0.77548 0.92212 0.35051 0.0
H1889 H 0.74694 0.88901 0.34288 0.0
H1890 H 0.96245 0.80258 0.37071 0.0
H1891 H 0.99204 0.79782 0.36495 0.0
H1892 H 0.03105 0.85067 0.39502 0.0
H1893 H 1.00171 0.8554 0.40078 0.0
H1894 H 0.02902 0.82678 0.34828 0.0
H1895 H 0.04572 0.80869 0.41264 0.0
H1896 H 0.02125 0.8064 0.40705 0.0
H1897 H 0.04298 0.83069 0.41199 0.0
C1898 C 0.97724 0.81283 0.37643 0.0
C1899 C 0.97974 0.82931 0.38626 0.0
C1900 C 0.99416 0.81022 0.37302 0.0
C1901 C 0.01379 0.82382 0.37963 0.0
C1902 C 0.01607 0.83981 0.38996 0.0
H1903 H 0.13779 0.85578 0.3486 0.0
H1904 H 0.1047 0.85437 0.35305 0.0
C1905 C 0.99928 0.84252 0.39322 0.0
C1906 C 0.03222 0.82226 0.37491 0.0
H1907 H 0.07188 0.81779 0.39178 0.0
C1908 C 0.03833 0.8247 0.35777 0.0
C1909 C 0.04433 0.81941 0.38726 0.0
C1910 C 0.03819 0.81596 0.40575 0.0
C1911 C 0.05646 0.82489 0.35276 0.0
C1912 C 0.06888 0.82265 0.36518 0.0
C1913 C 0.06249 0.8197 0.38225 0.0
C1914 C 0.08847 0.82309 0.36078 0.0
C1915 C 0.06195 0.82693 0.33416 0.0
C1916 C 0.09044 0.80602 0.36357 0.0
C1917 C 0.10928 0.80677 0.36091 0.0
C1918 C 0.12661 0.82462 0.35543 0.0
C1919 C 0.1246 0.84166 0.35241 0.0
C1920 C 0.10568 0.84088 0.35499 0.0
H1921 H 0.04953 0.82619 0.3259 0.0
H1922 H 0.07617 0.84154 0.33194 0.0
H1923 H 0.06497 0.81468 0.33038 0.0
H1924 H 0.07747 0.79218 0.36813 0.0
H1925 H 0.11043 0.79348 0.36353 0.0
H1926 H 0.14543 0.13865 0.40234 0.0
H1927 H 0.151 0.17191 0.3949 0.0
H1928 H 0.20967 0.18727 0.37299 0.0
H1929 H 0.20374 0.15354 0.37967 0.0
H1930 H 0.18033 0.20967 0.40364 0.0
H1931 H 0.18155 0.19843 0.33379 0.0
H1932 H 0.17369 0.17808 0.34876 0.0
H1933 H 0.20055 0.19575 0.34567 0.0
C1934 C 0.15946 0.14901 0.39581 0.0
C1935 C 0.17398 0.14327 0.39135 0.0
C1936 C 0.16271 0.16811 0.39169 0.0
C1937 C 0.18056 0.18196 0.38309 0.0
C1938 C 0.19556 0.17666 0.37929 0.0
H1939 H 0.20663 0.30671 0.37 0.0
H1940 H 0.20977 0.27744 0.37787 0.0
C1941 C 0.19226 0.15746 0.38332 0.0
C1942 C 0.18303 0.20168 0.37785 0.0
H1943 H 0.18687 0.23001 0.34303 0.0
C1944 C 0.1819 0.2142 0.3904 0.0
C1945 C 0.18481 0.20743 0.36054 0.0
C1946 C 0.18504 0.19418 0.34637 0.0
C1947 C 0.18212 0.23212 0.38611 0.0
C1948 C 0.18406 0.23794 0.3688 0.0
C1949 C 0.18555 0.2256 0.35629 0.0
C1950 C 0.18314 0.25603 0.36331 0.0
C1951 C 0.17939 0.24416 0.40008 0.0
C1952 C 0.16763 0.25387 0.35198 0.0
C1953 C 0.16595 0.27057 0.34729 0.0
C1954 C 0.17977 0.28984 0.35383 0.0
C1955 C 0.19562 0.29207 0.36484 0.0
C1956 C 0.19738 0.27533 0.36943 0.0
H1957 H 0.17306 0.23514 0.41185 0.0
H1958 H 0.19455 0.25739 0.40331 0.0
H1959 H 0.16894 0.24972 0.39592 0.0
H1960 H 0.1565 0.23913 0.34706 0.0
H1961 H 0.15346 0.26825 0.33889 0.0
H1962 H 0.62124 0.51755 0.73299 0.0
H1963 H 0.65205 0.54792 0.7232 0.0
H1964 H 0.67951 0.51213 0.7092 0.0
H1965 H 0.64896 0.48178 0.71912 0.0
H1966 H 0.69191 0.56291 0.73577 0.0
H1967 H 0.68888 0.54645 0.66661 0.0
H1968 H 0.66694 0.53302 0.68038 0.0
H1969 H 0.68703 0.5267 0.68009 0.0
C1970 C 0.63382 0.51611 0.7278 0.0
C1971 C 0.63254 0.49716 0.72682 0.0
C1972 C 0.65137 0.53348 0.72212 0.0
C1973 C 0.66797 0.53227 0.7152 0.0
C1974 C 0.66671 0.51338 0.71408 0.0
H1975 H 0.79331 0.61765 0.68663 0.0
H1976 H 0.75963 0.58767 0.69109 0.0
C1977 C 0.64919 0.49602 0.71978 0.0
C1978 C 0.68715 0.5509 0.71029 0.0
H1979 H 0.72004 0.57416 0.67718 0.0
C1980 C 0.69795 0.56546 0.72292 0.0
C1981 C 0.6951 0.55413 0.69355 0.0
C1982 C 0.68382 0.53935 0.67932 0.0
C1983 C 0.71672 0.58293 0.71939 0.0
C1984 C 0.7247 0.58618 0.70266 0.0
C1985 C 0.71386 0.57168 0.68998 0.0
C1986 C 0.74452 0.60438 0.69827 0.0
C1987 C 0.72814 0.59745 0.73378 0.0
C1988 C 0.74707 0.62373 0.70033 0.0
C1989 C 0.76629 0.64086 0.69775 0.0
C1990 C 0.78318 0.63896 0.69267 0.0
C1991 C 0.78048 0.6196 0.69013 0.0
C1992 C 0.76125 0.60245 0.69277 0.0
H1993 H 0.72271 0.59033 0.74644 0.0
H1994 H 0.74495 0.6032 0.73293 0.0
H1995 H 0.72556 0.61049 0.73299 0.0
H1996 H 0.7343 0.62558 0.7043 0.0
H1997 H 0.76806 0.65562 0.69993 0.0
H1998 H 0.49646 0.10327 0.73168 0.0
H1999 H 0.46635 0.10574 0.72331 0.0
H2000 H 0.50558 0.16857 0.7115 0.0
H2001 H 0.53577 0.16633 0.72004 0.0
H2002 H 0.4534 0.13059 0.73806 0.0
H2003 H 0.46849 0.14764 0.66923 0.0
H2004 H 0.48172 0.13777 0.68173 0.0
H2005 H 0.48938 0.16404 0.68306 0.0
C2006 C 0.49875 0.11763 0.72726 0.0
C2007 C 0.51866 0.1346 0.72657 0.0
C2008 C 0.48148 0.11899 0.7224 0.0
C2009 C 0.48363 0.13728 0.71657 0.0
C2010 C 0.50349 0.15417 0.71558 0.0
H2011 H 0.39651 0.17759 0.69059 0.0
H2012 H 0.42728 0.17477 0.69544 0.0
C2013 C 0.52079 0.15284 0.72047 0.0
C2014 C 0.46503 0.13893 0.7126 0.0
H2015 H 0.44096 0.15046 0.6811 0.0
C2016 C 0.45063 0.13481 0.72557 0.0
C2017 C 0.46145 0.14461 0.69634 0.0
C2018 C 0.47596 0.14861 0.68172 0.0
C2019 C 0.43298 0.13646 0.72285 0.0
C2020 C 0.42926 0.14195 0.70655 0.0
C2021 C 0.44371 0.14618 0.69357 0.0
C2022 C 0.41049 0.14338 0.70279 0.0
C2023 C 0.41876 0.13284 0.73764 0.0
C2024 C 0.39074 0.12662 0.70499 0.0
C2025 C 0.37315 0.12822 0.7022 0.0
C2026 C 0.37489 0.14646 0.69671 0.0
C2027 C 0.39463 0.16319 0.69437 0.0
C2028 C 0.41225 0.16162 0.69723 0.0
H2029 H 0.42662 0.13453 0.75006 0.0
H2030 H 0.41268 0.14343 0.73738 0.0
H2031 H 0.40555 0.11723 0.73685 0.0
H2032 H 0.38891 0.11228 0.70895 0.0
H2033 H 0.35812 0.11516 0.70427 0.0
H2034 H 0.90758 0.39845 0.72906 0.0
H2035 H 0.90593 0.36751 0.71842 0.0
H2036 H 0.83979 0.33621 0.72215 0.0
H2037 H 0.84129 0.36688 0.73304 0.0
H2038 H 0.85949 0.31638 0.73777 0.0
H2039 H 0.88499 0.3395 0.67108 0.0
H2040 H 0.90104 0.35665 0.6875 0.0
H2041 H 0.87542 0.35231 0.68435 0.0
C2042 C 0.89269 0.38498 0.72755 0.0
C2043 C 0.87456 0.38513 0.73181 0.0
C2044 C 0.89177 0.36739 0.72135 0.0
C2045 C 0.87272 0.34966 0.71933 0.0
C2046 C 0.85462 0.34979 0.7235 0.0
H2047 H 0.83694 0.23473 0.67195 0.0
H2048 H 0.84205 0.26779 0.67993 0.0
C2049 C 0.85551 0.36736 0.72962 0.0
C2050 C 0.8716 0.33067 0.71367 0.0
H2051 H 0.88005 0.30777 0.67972 0.0
C2052 C 0.86402 0.31449 0.72509 0.0
C2053 C 0.87739 0.32826 0.69709 0.0
C2054 C 0.88504 0.34501 0.68419 0.0
C2055 C 0.86214 0.29594 0.7204 0.0
C2056 C 0.86815 0.2936 0.70389 0.0
C2057 C 0.87562 0.30972 0.69241 0.0
C2058 C 0.8662 0.27426 0.69825 0.0
C2059 C 0.85337 0.27885 0.73301 0.0
C2060 C 0.87838 0.26714 0.70569 0.0
C2061 C 0.87565 0.24831 0.70105 0.0
C2062 C 0.86067 0.23625 0.68887 0.0
C2063 C 0.84879 0.24367 0.6812 0.0
C2064 C 0.85162 0.26255 0.68578 0.0
H2065 H 0.84587 0.28187 0.7439 0.0
H2066 H 0.84194 0.26456 0.72671 0.0
H2067 H 0.86597 0.2767 0.7381 0.0
H2068 H 0.88985 0.27608 0.71522 0.0
H2069 H 0.88512 0.24314 0.7072 0.0
H2070 H 0.16683 0.96714 0.60323 0.0
H2071 H 0.19627 0.99846 0.61341 0.0
H2072 H 0.18193 0.97755 0.66518 0.0
H2073 H 0.15271 0.94575 0.65503 0.0
H2074 H 0.19614 0.02675 0.63506 0.0
H2075 H 0.24336 0.99601 0.66202 0.0
H2076 H 0.22181 0.9816 0.64789 0.0
H2077 H 0.21753 0.98451 0.66997 0.0
C2078 C 0.17011 0.969 0.61677 0.0
C2079 C 0.15749 0.95379 0.6283 0.0
C2080 C 0.18688 0.98701 0.62258 0.0
C2081 C 0.1915 0.99027 0.64003 0.0
C2082 C 0.1789 0.97522 0.65162 0.0
H2083 H 0.27036 0.10841 0.68562 0.0
H2084 H 0.24182 0.07527 0.67793 0.0
C2085 C 0.16207 0.95714 0.64582 0.0
C2086 C 0.20909 0.00974 0.64599 0.0
H2087 H 0.25532 0.03073 0.66693 0.0
C2088 C 0.20907 0.02761 0.64204 0.0
C2089 C 0.22607 0.01087 0.65491 0.0
C2090 C 0.22739 0.99226 0.65884 0.0
C2091 C 0.22548 0.04656 0.64684 0.0
C2092 C 0.24224 0.04768 0.65611 0.0
C2093 C 0.24237 0.02983 0.65995 0.0
C2094 C 0.25992 0.0673 0.66166 0.0
C2095 C 0.22492 0.06525 0.64161 0.0
C2096 C 0.27978 0.07361 0.65553 0.0
C2097 C 0.29627 0.09253 0.66008 0.0
C2098 C 0.29324 0.10546 0.67095 0.0
C2099 C 0.27337 0.09885 0.67736 0.0
C2100 C 0.25694 0.07994 0.67283 0.0
H2101 H 0.21382 0.06211 0.63104 0.0
H2102 H 0.22008 0.07097 0.65263 0.0
H2103 H 0.24037 0.07731 0.63755 0.0
H2104 H 0.28243 0.06405 0.64694 0.0
H2105 H 0.31134 0.09708 0.65493 0.0
H2106 H 0.03894 0.17208 0.63449 0.0
H2107 H 0.00681 0.17 0.64383 0.0
H2108 H 0.03258 0.23355 0.63451 0.0
H2109 H 0.0647 0.23575 0.62513 0.0
H2110 H 0.99774 0.18878 0.66946 0.0
H2111 H 0.97972 0.20978 0.60691 0.0
H2112 H 0.99957 0.20322 0.60959 0.0
H2113 H 1.0045 0.22809 0.61511 0.0
C2114 C 0.03788 0.18568 0.6346 0.0
C2115 C 0.05443 0.20407 0.62892 0.0
C2116 C 0.01942 0.18444 0.63987 0.0
C2117 C 0.01703 0.20151 0.63954 0.0
C2118 C 0.03377 0.22002 0.63443 0.0
H2119 H 0.91793 0.22653 0.65888 0.0
H2120 H 0.95095 0.22816 0.65386 0.0
C2121 C 0.05219 0.22127 0.62911 0.0
C2122 C 0.99708 0.19999 0.64451 0.0
H2123 H 0.95899 0.20852 0.63016 0.0
C2124 C 0.9892 0.19301 0.66084 0.0
C2125 C 0.98583 0.20538 0.63326 0.0
C2126 C 0.9927 0.21185 0.61518 0.0
C2127 C 0.9708 0.19187 0.66641 0.0
C2128 C 0.95971 0.19762 0.65527 0.0
C2129 C 0.9675 0.20432 0.63884 0.0
C2130 C 0.94009 0.19695 0.66022 0.0
C2131 C 0.96385 0.18516 0.68438 0.0
C2132 C 0.92288 0.17896 0.6657 0.0
C2133 C 0.90403 0.17811 0.66879 0.0
C2134 C 0.90193 0.19521 0.66638 0.0
C2135 C 0.91916 0.2132 0.66107 0.0
C2136 C 0.93803 0.21411 0.65814 0.0
H2137 H 0.97667 0.18681 0.69264 0.0
H2138 H 0.95736 0.19403 0.69001 0.0
H2139 H 0.95174 0.16903 0.68431 0.0
H2140 H 0.92373 0.16531 0.66694 0.0
H2141 H 0.89092 0.16386 0.67237 0.0
H2142 H 0.84595 0.86855 0.6281 0.0
H2143 H 0.8463 0.83883 0.63913 0.0
H2144 H 0.78006 0.80494 0.63687 0.0
H2145 H 0.7795 0.8347 0.62598 0.0
H2146 H 0.80815 0.80581 0.67059 0.0
H2147 H 0.82095 0.78283 0.6064 0.0
H2148 H 0.8342 0.80922 0.61208 0.0
H2149 H 0.80684 0.79608 0.60916 0.0
C2150 C 0.83143 0.85488 0.63019 0.0
C2151 C 0.81268 0.85397 0.62618 0.0
C2152 C 0.83168 0.83792 0.63641 0.0
C2153 C 0.81322 0.8198 0.63877 0.0
C2154 C 0.79445 0.81886 0.63511 0.0
H2155 H 0.79846 0.70085 0.65368 0.0
H2156 H 0.79339 0.72901 0.64608 0.0
C2157 C 0.79417 0.83581 0.62881 0.0
C2158 C 0.81368 0.80165 0.64443 0.0
H2159 H 0.82155 0.76403 0.62986 0.0
C2160 C 0.81098 0.79658 0.66174 0.0
C2161 C 0.81723 0.78968 0.63276 0.0
C2162 C 0.81993 0.79455 0.61401 0.0
C2163 C 0.81207 0.77985 0.66775 0.0
C2164 C 0.81618 0.76814 0.65612 0.0
C2165 C 0.81846 0.77306 0.63875 0.0
C2166 C 0.81853 0.7509 0.66167 0.0
C2167 C 0.80863 0.77474 0.68643 0.0
C2168 C 0.8344 0.75389 0.67293 0.0
C2169 C 0.83738 0.73782 0.6773 0.0
C2170 C 0.82456 0.71847 0.67043 0.0
C2171 C 0.8086 0.71552 0.65923 0.0
C2172 C 0.80565 0.7316 0.65488 0.0
H2173 H 0.80029 0.78162 0.69264 0.0
H2174 H 0.79977 0.75817 0.68832 0.0
H2175 H 0.82374 0.78068 0.69292 0.0
H2176 H 0.84484 0.76876 0.678 0.0
H2177 H 0.85006 0.74074 0.6857 0.0
H2178 H 0.00783 0.85838 0.62815 0.0
H2179 H 0.97999 0.82406 0.63354 0.0
H2180 H 0.02271 0.81049 0.65889 0.0
H2181 H 0.05079 0.84506 0.65355 0.0
H2182 H 0.97667 0.78547 0.62459 0.0
H2183 H 0.97573 0.79802 0.69443 0.0
H2184 H 0.98783 0.81862 0.67956 0.0
H2185 H 1.00006 0.80434 0.68498 0.0
C2186 C 0.01133 0.84805 0.63477 0.0
C2187 C 0.03145 0.85443 0.64054 0.0
C2188 C 0.99543 0.82844 0.63781 0.0
C2189 C 0.99923 0.81482 0.64681 0.0
C2190 C 0.01942 0.82086 0.65209 0.0
H2191 H 0.90364 0.68752 0.65784 0.0
H2192 H 0.93705 0.71826 0.65383 0.0
C2193 C 0.03546 0.84052 0.64891 0.0
C2194 C 0.98176 0.79456 0.65093 0.0
H2195 H 0.95067 0.76649 0.68357 0.0
C2196 C 0.97113 0.78118 0.6375 0.0
C2197 C 0.97442 0.78916 0.66777 0.0
C2198 C 0.98495 0.80326 0.68257 0.0
C2199 C 0.95319 0.76265 0.64042 0.0
C2200 C 0.94576 0.75731 0.65724 0.0
C2201 C 0.95652 0.77057 0.67071 0.0
C2202 C 0.92611 0.73862 0.66088 0.0
C2203 C 0.94184 0.74925 0.62542 0.0
C2204 C 0.90905 0.73988 0.66649 0.0
C2205 C 0.89003 0.7224 0.66876 0.0
C2206 C 0.88785 0.70331 0.66584 0.0
C2207 C 0.90501 0.70206 0.66041 0.0
C2208 C 0.92403 0.71956 0.65807 0.0
H2209 H 0.94754 0.75714 0.61308 0.0
H2210 H 0.94396 0.7359 0.62547 0.0
H2211 H 0.92509 0.74377 0.62632 0.0
H2212 H 0.91029 0.75444 0.66865 0.0
H2213 H 0.87698 0.7239 0.67246 0.0
H2214 H 0.15027 0.15102 0.62359 0.0
H2215 H 0.18474 0.15599 0.6285 0.0
H2216 H 0.20119 0.2102 0.65706 0.0
H2217 H 0.16647 0.20523 0.65214 0.0
H2218 H 0.22513 0.18962 0.62122 0.0
H2219 H 0.21131 0.17319 0.69045 0.0
H2220 H 0.19061 0.16674 0.67544 0.0
H2221 H 0.20665 0.19244 0.68211 0.0
C2222 C 0.16131 0.16415 0.63073 0.0
C2223 C 0.15564 0.1777 0.63753 0.0
C2224 C 0.18101 0.16697 0.63353 0.0
C2225 C 0.19547 0.18328 0.64336 0.0
C2226 C 0.19019 0.19735 0.64961 0.0
H2227 H 0.32428 0.21255 0.65501 0.0
H2228 H 0.29308 0.21471 0.65002 0.0
C2229 C 0.17045 0.19463 0.64666 0.0
C2230 C 0.2157 0.18493 0.64743 0.0
H2231 H 0.24335 0.17973 0.67982 0.0
C2232 C 0.22924 0.1877 0.63406 0.0
C2233 C 0.22089 0.18205 0.66415 0.0
C2234 C 0.20661 0.17829 0.67891 0.0
C2235 C 0.24775 0.18763 0.63693 0.0
C2236 C 0.25298 0.18483 0.65366 0.0
C2237 C 0.23945 0.18208 0.66704 0.0
C2238 C 0.27202 0.18392 0.65737 0.0
C2239 C 0.26125 0.18987 0.62193 0.0
C2240 C 0.27062 0.16604 0.66346 0.0
C2241 C 0.28842 0.16482 0.66634 0.0
C2242 C 0.30802 0.1816 0.66355 0.0
C2243 C 0.30939 0.19948 0.65747 0.0
C2244 C 0.29158 0.20069 0.65455 0.0
H2245 H 0.253 0.18752 0.6096 0.0
H2246 H 0.2748 0.20531 0.62198 0.0
H2247 H 0.26693 0.17899 0.62276 0.0
H2248 H 0.25572 0.15287 0.66568 0.0
H2249 H 0.2868 0.15065 0.67054 0.0
H2250 H 0.87505 0.0033 0.62408 0.0
H2251 H 0.868 0.03042 0.6307 0.0
H2252 H 0.80848 0.9871 0.6503 0.0
H2253 H 0.8158 0.95985 0.64442 0.0
H2254 H 0.83805 0.03848 0.62054 0.0
H2255 H 0.83419 0.02545 0.69042 0.0
H2256 H 0.84338 0.01351 0.67582 0.0
H2257 H 0.81624 0.00419 0.67787 0.0
C2258 C 0.86049 0.99951 0.6299 0.0
C2259 C 0.84614 0.97942 0.63398 0.0
C2260 C 0.85641 0.01502 0.63354 0.0
C2261 C 0.83788 0.01084 0.64129 0.0
C2262 C 0.82306 0.99072 0.64465 0.0
H2263 H 0.81179 0.11049 0.65424 0.0
H2264 H 0.80798 0.07784 0.64618 0.0
C2265 C 0.82718 0.97514 0.64109 0.0
C2266 C 0.83465 0.02776 0.64631 0.0
H2267 H 0.82958 0.05204 0.68092 0.0
C2268 C 0.83599 0.04137 0.63372 0.0
C2269 C 0.83219 0.03159 0.66354 0.0
C2270 C 0.83158 0.01805 0.67775 0.0
C2271 C 0.83551 0.05897 0.63793 0.0
C2272 C 0.83314 0.06283 0.65518 0.0
C2273 C 0.83124 0.04896 0.6677 0.0
C2274 C 0.83443 0.08199 0.66069 0.0
C2275 C 0.83852 0.07373 0.62399 0.0
C2276 C 0.85013 0.09484 0.67196 0.0
C2277 C 0.85223 0.11336 0.67671 0.0
C2278 C 0.83863 0.11943 0.67031 0.0
C2279 C 0.82261 0.10633 0.65931 0.0
C2280 C 0.82046 0.08771 0.65462 0.0
H2281 H 0.84465 0.07068 0.61218 0.0
H2282 H 0.82351 0.07251 0.62084 0.0
H2283 H 0.84925 0.08945 0.62818 0.0
H2284 H 0.86108 0.09074 0.6768 0.0
H2285 H 0.86486 0.1231 0.68507 0.0
H2286 H 0.53639 0.36955 0.68441 0.0
H2287 H 0.50191 0.34014 0.68199 0.0
H2288 H 0.49283 0.34334 0.73587 0.0
H2289 H 0.52755 0.3729 0.73837 0.0
H2290 H 0.4856 0.30509 0.72392 0.0
H2291 H 0.44368 0.33316 0.68462 0.0
H2292 H 0.46834 0.33926 0.67619 0.0
H2293 H 0.46692 0.34979 0.69629 0.0
C2294 C 0.52691 0.36418 0.6957 0.0
C2295 C 0.53465 0.37346 0.71159 0.0
C2296 C 0.50716 0.34747 0.69427 0.0
C2297 C 0.49472 0.33965 0.70871 0.0
C2298 C 0.50214 0.34924 0.72454 0.0
H2299 H 0.37073 0.23271 0.70274 0.0
H2300 H 0.39937 0.26639 0.70979 0.0
C2301 C 0.5219 0.36614 0.72595 0.0
C2302 C 0.4749 0.32039 0.70738 0.0
H2303 H 0.42905 0.29724 0.68585 0.0
C2304 C 0.47309 0.30344 0.71581 0.0
C2305 C 0.45856 0.31827 0.69687 0.0
C2306 C 0.45933 0.33612 0.68809 0.0
C2307 C 0.45581 0.28424 0.71335 0.0
C2308 C 0.43999 0.28194 0.70212 0.0
C2309 C 0.4413 0.29903 0.69433 0.0
C2310 C 0.42253 0.26176 0.69765 0.0
C2311 C 0.45473 0.26647 0.72256 0.0
C2312 C 0.42607 0.24815 0.68829 0.0
C2313 C 0.4098 0.229 0.68419 0.0
C2314 C 0.38961 0.22303 0.68935 0.0
C2315 C 0.38608 0.23679 0.6986 0.0
C2316 C 0.4024 0.25605 0.70262 0.0
H2317 H 0.46545 0.27129 0.73363 0.0
H2318 H 0.43886 0.25614 0.72709 0.0
H2319 H 0.45902 0.2579 0.71365 0.0
H2320 H 0.44147 0.25235 0.68419 0.0
H2321 H 0.41316 0.21878 0.67718 0.0
H2322 H 0.64902 0.1671 0.68489 0.0
H2323 H 0.67913 0.16311 0.68128 0.0
H2324 H 0.67481 0.14487 0.73371 0.0
H2325 H 0.64462 0.14914 0.73747 0.0
H2326 H 0.714 0.17549 0.72492 0.0
H2327 H 0.68615 0.11386 0.67722 0.0
H2328 H 0.68182 0.13397 0.67091 0.0
H2329 H 0.6689 0.11911 0.68931 0.0
C2330 C 0.65426 0.1619 0.6956 0.0
C2331 C 0.64442 0.15845 0.71149 0.0
C2332 C 0.67143 0.1595 0.69348 0.0
C2333 C 0.67922 0.15352 0.70716 0.0
C2334 C 0.66905 0.14941 0.72293 0.0
H2335 H 0.78082 0.12835 0.70073 0.0
H2336 H 0.74724 0.12613 0.70432 0.0
C2337 C 0.6517 0.1517 0.72504 0.0
C2338 C 0.69886 0.15316 0.70524 0.0
H2339 H 0.72265 0.1335 0.68112 0.0
C2340 C 0.71581 0.16616 0.71545 0.0
C2341 C 0.7013 0.14096 0.69292 0.0
C2342 C 0.68353 0.12604 0.68207 0.0
C2343 C 0.73517 0.16765 0.71341 0.0
C2344 C 0.7378 0.156 0.70067 0.0
C2345 C 0.72073 0.14261 0.69075 0.0
C2346 C 0.75804 0.15723 0.69771 0.0
C2347 C 0.75264 0.18159 0.72502 0.0
C2348 C 0.77526 0.17536 0.69254 0.0
C2349 C 0.79444 0.17662 0.69043 0.0
C2350 C 0.7967 0.15969 0.69321 0.0
C2351 C 0.77944 0.14155 0.69829 0.0
C2352 C 0.76027 0.14027 0.70033 0.0
H2353 H 0.74701 0.18563 0.73661 0.0
H2354 H 0.76189 0.17461 0.72898 0.0
H2355 H 0.76291 0.19571 0.71811 0.0
H2356 H 0.77391 0.1886 0.69022 0.0
H2357 H 0.80751 0.19093 0.68689 0.0
H2358 H 0.85983 0.48988 0.74452 0.0
H2359 H 0.86493 0.52341 0.7378 0.0
H2360 H 0.82198 0.49792 0.69597 0.0
H2361 H 0.81703 0.46459 0.70237 0.0
H2362 H 0.8764 0.54633 0.70483 0.0
H2363 H 0.79856 0.5254 0.72847 0.0
H2364 H 0.81143 0.5116 0.73414 0.0
H2365 H 0.79924 0.5078 0.71365 0.0
C2366 C 0.85172 0.49149 0.73374 0.0
C2367 C 0.83779 0.47453 0.72413 0.0
C2368 C 0.8546 0.51062 0.72996 0.0
C2369 C 0.84357 0.51301 0.71657 0.0
C2370 C 0.83036 0.49629 0.70654 0.0
H2371 H 0.81975 0.6009 0.67211 0.0
H2372 H 0.82243 0.57164 0.68021 0.0
C2373 C 0.82749 0.47725 0.71027 0.0
C2374 C 0.84505 0.53274 0.71333 0.0
H2375 H 0.81614 0.5558 0.71281 0.0
C2376 C 0.86335 0.54856 0.70673 0.0
C2377 C 0.82798 0.53552 0.71589 0.0
C2378 C 0.80823 0.51926 0.72357 0.0
C2379 C 0.8647 0.56687 0.70189 0.0
C2380 C 0.8474 0.56942 0.70401 0.0
C2381 C 0.82934 0.55377 0.7111 0.0
C2382 C 0.84721 0.58778 0.69832 0.0
C2383 C 0.88431 0.58301 0.69395 0.0
C2384 C 0.86035 0.60667 0.70575 0.0
C2385 C 0.859 0.6236 0.701 0.0
C2386 C 0.8444 0.62188 0.68879 0.0
C2387 C 0.83141 0.60293 0.68132 0.0
C2388 C 0.83282 0.5861 0.68602 0.0
H2389 H 0.89447 0.57709 0.68987 0.0
H2390 H 0.88088 0.5897 0.68275 0.0
H2391 H 0.89286 0.59522 0.70341 0.0
H2392 H 0.8713 0.60823 0.71551 0.0
H2393 H 0.86917 0.63792 0.7071 0.0
H2394 H 0.47336 0.90904 0.25818 0.0
H2395 H 0.48654 0.9264 0.23098 0.0
H2396 H 0.4244 0.9034 0.21288 0.0
H2397 H 0.41115 0.88602 0.23989 0.0
H2398 H 0.48024 0.91134 0.19756 0.0
H2399 H 0.45001 0.96392 0.2053 0.0
H2400 H 0.45136 0.94929 0.22273 0.0
H2401 H 0.43086 0.93781 0.20731 0.0
C2402 C 0.46251 0.90762 0.24838 0.0
C2403 C 0.4412 0.89636 0.25133 0.0
C2404 C 0.47006 0.91759 0.23286 0.0
C2405 C 0.45646 0.91654 0.22 0.0
C2406 C 0.4352 0.90488 0.22275 0.0
H2407 H 0.47331 0.9713 0.11943 0.0
H2408 H 0.45902 0.95012 0.14473 0.0
C2409 C 0.42765 0.89497 0.23824 0.0
C2410 C 0.46445 0.92754 0.20369 0.0
H2411 H 0.46416 0.96371 0.17842 0.0
C2412 C 0.47679 0.92284 0.1934 0.0
C2413 C 0.45988 0.94249 0.19822 0.0
C2414 C 0.44747 0.94885 0.20902 0.0
C2415 C 0.48445 0.9325 0.17771 0.0
C2416 C 0.47994 0.94751 0.17228 0.0
C2417 C 0.46752 0.95212 0.18253 0.0
C2418 C 0.4886 0.95922 0.15637 0.0
C2419 C 0.49702 0.92631 0.16695 0.0
C2420 C 0.50997 0.97133 0.15447 0.0
C2421 C 0.51815 0.98336 0.14003 0.0
C2422 C 0.50517 0.98368 0.12718 0.0
C2423 C 0.48376 0.97126 0.12897 0.0
C2424 C 0.47556 0.95925 0.14348 0.0
H2425 H 0.49413 0.91104 0.17037 0.0
H2426 H 0.49359 0.92641 0.15319 0.0
H2427 H 0.51361 0.93713 0.16908 0.0
H2428 H 0.52034 0.97186 0.16435 0.0
H2429 H 0.53471 0.99258 0.13901 0.0
H2430 H 0.13066 0.53009 0.23327 0.0
H2431 H 0.10985 0.52541 0.20783 0.0
H2432 H 0.09279 0.56758 0.22771 0.0
H2433 H 0.11356 0.57231 0.25331 0.0
H2434 H 0.06767 0.51135 0.20631 0.0
H2435 H 0.11225 0.58839 0.17938 0.0
H2436 H 0.12245 0.57932 0.19581 0.0
H2437 H 0.10444 0.58746 0.20112 0.0
C2438 C 0.12242 0.53833 0.23228 0.0
C2439 C 0.1237 0.55153 0.24535 0.0
C2440 C 0.11063 0.53571 0.21769 0.0
C2441 C 0.09996 0.54631 0.21579 0.0
C2442 C 0.10123 0.55956 0.22876 0.0
H2443 H 0.01686 0.54451 0.13731 0.0
H2444 H 0.03801 0.55096 0.16293 0.0
C2445 C 0.11308 0.56222 0.24338 0.0
C2446 C 0.08692 0.54282 0.20051 0.0
H2447 H 0.08072 0.56594 0.16567 0.0
C2448 C 0.07055 0.52327 0.19739 0.0
C2449 C 0.09069 0.55843 0.18895 0.0
C2450 C 0.10851 0.57955 0.19134 0.0
C2451 C 0.0577 0.5189 0.18309 0.0
C2452 C 0.06157 0.53445 0.17145 0.0
C2453 C 0.07783 0.55406 0.17463 0.0
C2454 C 0.04894 0.53062 0.15584 0.0
C2455 C 0.03989 0.49775 0.18073 0.0
C2456 C 0.04832 0.51725 0.14327 0.0
C2457 C 0.03615 0.51343 0.12868 0.0
C2458 C 0.02446 0.52299 0.12634 0.0
C2459 C 0.02541 0.53665 0.13885 0.0
C2460 C 0.03759 0.54047 0.15343 0.0
H2461 H 0.03588 0.48911 0.19281 0.0
H2462 H 0.02606 0.49794 0.17588 0.0
H2463 H 0.04416 0.48968 0.17128 0.0
H2464 H 0.05724 0.50976 0.14475 0.0
H2465 H 0.03567 0.50274 0.11936 0.0
H2466 H 0.43932 0.56445 0.23917 0.0
H2467 H 0.44664 0.55303 0.21222 0.0
H2468 H 0.49915 0.55361 0.23537 0.0
H2469 H 0.49189 0.56493 0.26235 0.0
H2470 H 0.48558 0.57561 0.19426 0.0
H2471 H 0.4672 0.49777 0.21039 0.0
H2472 H 0.45709 0.51117 0.22222 0.0
H2473 H 0.48314 0.51687 0.22563 0.0
C2474 C 0.45216 0.56172 0.23861 0.0
C2475 C 0.46501 0.56554 0.25289 0.0
C2476 C 0.45639 0.55532 0.22319 0.0
C2477 C 0.47333 0.55233 0.22185 0.0
C2478 C 0.48585 0.55559 0.2362 0.0
H2479 H 0.54781 0.55247 0.13942 0.0
H2480 H 0.53286 0.55862 0.16483 0.0
C2481 C 0.48176 0.56217 0.25156 0.0
C2482 C 0.47886 0.5472 0.20518 0.0
H2483 H 0.48569 0.51155 0.18469 0.0
C2484 C 0.48541 0.56152 0.19209 0.0
C2485 C 0.47851 0.52878 0.20237 0.0
C2486 C 0.47095 0.51264 0.21582 0.0
C2487 C 0.49233 0.55819 0.17648 0.0
C2488 C 0.4927 0.54009 0.17391 0.0
C2489 C 0.48547 0.52545 0.18675 0.0
C2490 C 0.50148 0.53655 0.15827 0.0
C2491 C 0.49945 0.5741 0.16286 0.0
C2492 C 0.48876 0.52206 0.14621 0.0
C2493 C 0.49725 0.51858 0.13161 0.0
C2494 C 0.51865 0.52932 0.129 0.0
C2495 C 0.5313 0.54384 0.14114 0.0
C2496 C 0.52279 0.54745 0.15561 0.0
H2497 H 0.49457 0.58537 0.1655 0.0
H2498 H 0.5165 0.58214 0.16223 0.0
H2499 H 0.49335 0.5671 0.1502 0.0
H2500 H 0.47227 0.51345 0.1481 0.0
H2501 H 0.48715 0.50719 0.12255 0.0
H2502 H 0.93038 0.44314 0.76355 0.0
H2503 H 0.95147 0.45511 0.7895 0.0
H2504 H 0.90026 0.4522 0.81674 0.0
H2505 H 0.87899 0.44 0.79093 0.0
H2506 H 0.96056 0.4896 0.81296 0.0
H2507 H 0.91661 0.41339 0.84195 0.0
H2508 H 0.91614 0.41749 0.81935 0.0
H2509 H 0.90182 0.42413 0.83364 0.0
C2510 C 0.92368 0.44524 0.77503 0.0
C2511 C 0.903 0.44053 0.77523 0.0
C2512 C 0.93576 0.45215 0.7898 0.0
C2513 C 0.92732 0.45432 0.80502 0.0
C2514 C 0.90698 0.45048 0.80511 0.0
H2515 H 0.99033 0.50165 0.90254 0.0
H2516 H 0.96948 0.49529 0.87667 0.0
C2517 C 0.89491 0.44367 0.79033 0.0
C2518 C 0.93942 0.45934 0.82102 0.0
H2519 H 0.94297 0.43893 0.85861 0.0
C2520 C 0.9567 0.47861 0.82301 0.0
C2521 C 0.93439 0.44483 0.83397 0.0
C2522 C 0.91633 0.42373 0.83218 0.0
C2523 C 0.9691 0.48376 0.83771 0.0
C2524 C 0.964 0.46927 0.85068 0.0
C2525 C 0.94673 0.45001 0.84866 0.0
C2526 C 0.97683 0.47349 0.86619 0.0
C2527 C 0.98783 0.50447 0.83913 0.0
C2528 C 0.98759 0.46312 0.86892 0.0
C2529 C 0.99944 0.46667 0.88365 0.0
C2530 C 1.00059 0.48053 0.89602 0.0
C2531 C 0.98965 0.4908 0.89329 0.0
C2532 C 0.97789 0.48732 0.87847 0.0
H2533 H 0.9916 0.51267 0.82682 0.0
H2534 H 0.98496 0.51346 0.84871 0.0
H2535 H 1.00137 0.50342 0.84349 0.0
H2536 H 0.98683 0.45227 0.85962 0.0
H2537 H 0.00746 0.45833 0.88549 0.0
H2538 H 0.57976 0.49072 0.76686 0.0
H2539 H 0.5679 0.49409 0.795 0.0
H2540 H 0.5651 0.43889 0.81085 0.0
H2541 H 0.5776 0.43572 0.78287 0.0
H2542 H 0.53195 0.46815 0.81319 0.0
H2543 H 0.6025 0.47984 0.84696 0.0
H2544 H 0.60123 0.48128 0.82408 0.0
H2545 H 0.58923 0.45719 0.83441 0.0
C2546 C 0.5767 0.47932 0.77635 0.0
C2547 C 0.57983 0.46305 0.77265 0.0
C2548 C 0.56979 0.4812 0.79239 0.0
C2549 C 0.56591 0.46691 0.80511 0.0
C2550 C 0.56833 0.45028 0.80131 0.0
H2551 H 0.54201 0.47782 0.91334 0.0
H2552 H 0.54405 0.46287 0.88617 0.0
C2553 C 0.57526 0.44837 0.78525 0.0
C2554 C 0.55987 0.46987 0.82241 0.0
H2555 H 0.57697 0.48073 0.86359 0.0
C2556 C 0.54171 0.47073 0.82424 0.0
C2557 C 0.57255 0.47314 0.83684 0.0
C2558 C 0.59256 0.47299 0.83556 0.0
C2559 C 0.5361 0.47518 0.84004 0.0
C2560 C 0.54918 0.47921 0.85432 0.0
C2561 C 0.56694 0.47759 0.85264 0.0
C2562 C 0.54584 0.487 0.87064 0.0
C2563 C 0.51629 0.47567 0.84126 0.0
C2564 C 0.54608 0.50544 0.87091 0.0
C2565 C 0.54492 0.51395 0.88632 0.0
C2566 C 0.54363 0.50428 0.90186 0.0
C2567 C 0.54282 0.48553 0.90157 0.0
C2568 C 0.54409 0.47703 0.88608 0.0
H2569 H 0.50512 0.46611 0.83125 0.0
H2570 H 0.50905 0.47049 0.85393 0.0
H2571 H 0.51958 0.49137 0.83938 0.0
H2572 H 0.54782 0.51362 0.85922 0.0
H2573 H 0.5454 0.52833 0.88611 0.0
H2574 H 0.52288 0.08457 0.76358 0.0
H2575 H 0.51702 0.06832 0.79143 0.0
H2576 H 0.57141 0.12017 0.81125 0.0
H2577 H 0.57734 0.13662 0.78338 0.0
H2578 H 0.54479 0.06012 0.81285 0.0
H2579 H 0.52203 0.11233 0.84234 0.0
H2580 H 0.52223 0.10916 0.81955 0.0
H2581 H 0.546 0.12342 0.83099 0.0
C2582 C 0.53368 0.09246 0.77383 0.0
C2583 C 0.55052 0.11193 0.7713 0.0
C2584 C 0.53035 0.08313 0.78972 0.0
C2585 C 0.54365 0.09312 0.80345 0.0
C2586 C 0.56087 0.11227 0.80085 0.0
H2587 H 0.53264 0.03635 0.90362 0.0
H2588 H 0.54739 0.05691 0.87798 0.0
C2589 C 0.56432 0.12158 0.78489 0.0
C2590 C 0.53886 0.08372 0.82058 0.0
H2591 H 0.52042 0.08654 0.85965 0.0
C2592 C 0.53971 0.06601 0.82317 0.0
C2593 C 0.53203 0.09135 0.83394 0.0
C2594 C 0.53034 0.11004 0.83167 0.0
C2595 C 0.53367 0.05558 0.83871 0.0
C2596 C 0.52661 0.06308 0.852 0.0
C2597 C 0.52601 0.08093 0.84949 0.0
C2598 C 0.51817 0.05169 0.86803 0.0
C2599 C 0.53413 0.03621 0.84065 0.0
C2600 C 0.49698 0.04236 0.87111 0.0
C2601 C 0.48855 0.03063 0.88566 0.0
C2602 C 0.50118 0.02812 0.89755 0.0
C2603 C 0.52253 0.03806 0.89474 0.0
C2604 C 0.53095 0.04968 0.88006 0.0
H2605 H 0.53751 0.0311 0.82845 0.0
H2606 H 0.54618 0.03848 0.85007 0.0
H2607 H 0.51915 0.02411 0.84553 0.0
H2608 H 0.48686 0.0438 0.86205 0.0
H2609 H 0.47208 0.02339 0.88755 0.0
H2610 H 0.14005 0.23931 0.59015 0.0
H2611 H 0.15329 0.257 0.56309 0.0
H2612 H 0.0912 0.23349 0.54467 0.0
H2613 H 0.07789 0.21577 0.57153 0.0
H2614 H 0.14728 0.24219 0.52948 0.0
H2615 H 0.11633 0.29413 0.53768 0.0
H2616 H 0.11782 0.27943 0.55499 0.0
H2617 H 0.09737 0.26793 0.53953 0.0
C2618 C 0.12922 0.23784 0.5803 0.0
C2619 C 0.1079 0.22634 0.58312 0.0
C2620 C 0.13681 0.248 0.56486 0.0
C2621 C 0.12323 0.2469 0.55197 0.0
C2622 C 0.10197 0.235 0.55458 0.0
H2623 H 0.14002 0.3027 0.45192 0.0
H2624 H 0.12578 0.2812 0.47705 0.0
C2625 C 0.09439 0.22489 0.56998 0.0
C2626 C 0.13125 0.2581 0.53575 0.0
H2627 H 0.13071 0.29438 0.5108 0.0
C2628 C 0.14372 0.25365 0.52542 0.0
C2629 C 0.12653 0.27301 0.53042 0.0
C2630 C 0.11394 0.27908 0.54128 0.0
C2631 C 0.15139 0.26351 0.5098 0.0
C2632 C 0.14674 0.27847 0.50451 0.0
C2633 C 0.13418 0.28284 0.51481 0.0
C2634 C 0.15538 0.29036 0.48869 0.0
C2635 C 0.16411 0.25757 0.49897 0.0
C2636 C 0.17673 0.30262 0.48684 0.0
C2637 C 0.18489 0.31483 0.47251 0.0
C2638 C 0.17188 0.3152 0.45971 0.0
C2639 C 0.15048 0.30263 0.46143 0.0
C2640 C 0.14232 0.29043 0.47584 0.0
H2641 H 0.16133 0.24231 0.50226 0.0
H2642 H 0.16073 0.2578 0.48522 0.0
H2643 H 0.18067 0.26846 0.50118 0.0
H2644 H 0.18712 0.30311 0.4967 0.0
H2645 H 0.20144 0.32416 0.47152 0.0
H2646 H 0.7787 0.90492 0.58876 0.0
H2647 H 0.7578 0.89992 0.56315 0.0
H2648 H 0.77432 0.85712 0.54387 0.0
H2649 H 0.7952 0.86204 0.56931 0.0
H2650 H 0.76928 0.9055 0.52866 0.0
H2651 H 0.71143 0.82568 0.54156 0.0
H2652 H 0.72924 0.84215 0.55761 0.0
H2653 H 0.73751 0.8307 0.5418 0.0
C2654 C 0.77792 0.8945 0.57903 0.0
C2655 C 0.78839 0.88369 0.58116 0.0
C2656 C 0.76594 0.89162 0.56444 0.0
C2657 C 0.7642 0.87786 0.55178 0.0
C2658 C 0.77502 0.86742 0.55369 0.0
H2659 H 0.7019 0.83692 0.4545 0.0
H2660 H 0.72356 0.84403 0.47989 0.0
C2661 C 0.78694 0.87024 0.56825 0.0
C2662 C 0.75127 0.87453 0.53644 0.0
H2663 H 0.71032 0.83813 0.51411 0.0
C2664 C 0.75629 0.89082 0.52552 0.0
C2665 C 0.73436 0.85534 0.53239 0.0
C2666 C 0.72765 0.8375 0.54402 0.0
C2667 C 0.74514 0.88831 0.51041 0.0
C2668 C 0.72836 0.86907 0.50629 0.0
C2669 C 0.72326 0.85284 0.51727 0.0
C2670 C 0.71582 0.86543 0.49066 0.0
C2671 C 0.75171 0.90612 0.49878 0.0
C2672 C 0.70421 0.87503 0.48837 0.0
C2673 C 0.69189 0.87106 0.47386 0.0
C2674 C 0.69087 0.85734 0.46139 0.0
C2675 C 0.70255 0.84776 0.46374 0.0
C2676 C 0.71483 0.85171 0.47828 0.0
H2677 H 0.76765 0.91835 0.50162 0.0
H2678 H 0.75081 0.90155 0.48523 0.0
H2679 H 0.74124 0.91232 0.50052 0.0
H2680 H 0.70449 0.88542 0.4979 0.0
H2681 H 0.68322 0.87881 0.47236 0.0
H2682 H 0.14048 0.9296 0.5709 0.0
H2683 H 0.14636 0.91712 0.54405 0.0
H2684 H 0.11817 0.85702 0.5647 0.0
H2685 H 0.11176 0.86946 0.59155 0.0
H2686 H 0.17023 0.90101 0.53955 0.0
H2687 H 0.09093 0.84575 0.51852 0.0
H2688 H 0.09612 0.86376 0.5354 0.0
H2689 H 0.09702 0.8411 0.53955 0.0
C2690 C 0.13535 0.91368 0.56965 0.0
C2691 C 0.12576 0.90049 0.58332 0.0
C2692 C 0.13869 0.90656 0.55429 0.0
C2693 C 0.13257 0.8861 0.55225 0.0
C2694 C 0.12261 0.87278 0.5658 0.0
H2695 H 0.16514 0.82474 0.4758 0.0
H2696 H 0.15232 0.83382 0.50105 0.0
C2697 C 0.11905 0.87989 0.58116 0.0
C2698 C 0.13805 0.87922 0.53639 0.0
H2699 H 0.11833 0.84586 0.5031 0.0
C2700 C 0.15883 0.88903 0.53155 0.0
C2701 C 0.12319 0.86355 0.52595 0.0
C2702 C 0.10055 0.85305 0.53 0.0
C2703 C 0.16517 0.88355 0.51667 0.0
C2704 C 0.15036 0.86788 0.5063 0.0
C2705 C 0.12961 0.85791 0.51112 0.0
C2706 C 0.15639 0.86162 0.49049 0.0
C2707 C 0.18771 0.89439 0.51218 0.0
C2708 C 0.16255 0.8741 0.47612 0.0
C2709 C 0.16985 0.86896 0.46167 0.0
C2710 C 0.17125 0.8513 0.46142 0.0
C2711 C 0.16448 0.83856 0.47569 0.0
C2712 C 0.15704 0.84364 0.49007 0.0
H2713 H 0.19755 0.9041 0.52278 0.0
H2714 H 0.19269 0.88337 0.50881 0.0
H2715 H 0.19025 0.90405 0.50089 0.0
H2716 H 0.16211 0.88804 0.47623 0.0
H2717 H 0.17507 0.87915 0.45093 0.0
H2718 H 0.59915 0.77756 0.09725 0.0
H2719 H 0.6189 0.78989 0.12375 0.0
H2720 H 0.56781 0.79121 0.14743 0.0
H2721 H 0.54779 0.77861 0.121 0.0
H2722 H 0.60915 0.82586 0.15488 0.0
H2723 H 0.60225 0.75098 0.1656 0.0
H2724 H 0.61202 0.76193 0.1451 0.0
H2725 H 0.58605 0.75471 0.15072 0.0
C2726 C 0.59216 0.7806 0.10806 0.0
C2727 C 0.57182 0.77689 0.10709 0.0
C2728 C 0.60347 0.78767 0.12316 0.0
C2729 C 0.59467 0.79114 0.13758 0.0
C2730 C 0.57482 0.78855 0.13642 0.0
H2731 H 0.63693 0.79521 0.24153 0.0
H2732 H 0.61593 0.78858 0.21581 0.0
C2733 C 0.56346 0.78145 0.12129 0.0
C2734 C 0.60573 0.79623 0.1541 0.0
H2735 H 0.62415 0.77732 0.18439 0.0
C2736 C 0.6124 0.81527 0.1614 0.0
C2737 C 0.60963 0.78223 0.16265 0.0
C2738 C 0.60199 0.76124 0.15574 0.0
C2739 C 0.62339 0.82087 0.17688 0.0
C2740 C 0.6279 0.8071 0.18512 0.0
C2741 C 0.62078 0.7879 0.17799 0.0
C2742 C 0.64022 0.81227 0.20104 0.0
C2743 C 0.62989 0.84137 0.18437 0.0
C2744 C 0.66083 0.8278 0.20126 0.0
C2745 C 0.67285 0.83166 0.21595 0.0
C2746 C 0.6645 0.82001 0.23069 0.0
C2747 C 0.64375 0.80463 0.23047 0.0
C2748 C 0.63176 0.80075 0.21577 0.0
H2749 H 0.62079 0.84791 0.179 0.0
H2750 H 0.6282 0.84057 0.19844 0.0
H2751 H 0.64633 0.85175 0.1814 0.0
H2752 H 0.66776 0.83663 0.18994 0.0
H2753 H 0.68872 0.84372 0.21575 0.0
H2754 H 0.24313 0.7697 0.11556 0.0
H2755 H 0.23016 0.77316 0.14321 0.0
H2756 H 0.23214 0.82758 0.12606 0.0
H2757 H 0.2444 0.82385 0.09826 0.0
H2758 H 0.25063 0.80444 0.16541 0.0
H2759 H 0.17611 0.79829 0.14824 0.0
H2760 H 0.18975 0.79056 0.13396 0.0
H2761 H 0.19688 0.81671 0.13566 0.0
C2762 C 0.2403 0.78212 0.11753 0.0
C2763 C 0.2448 0.79651 0.10469 0.0
C2764 C 0.23301 0.78414 0.13338 0.0
C2765 C 0.22991 0.80047 0.13666 0.0
C2766 C 0.23398 0.81461 0.12374 0.0
H2767 H 0.21741 0.86513 0.21935 0.0
H2768 H 0.21922 0.85042 0.1922 0.0
C2769 C 0.24124 0.8126 0.10791 0.0
C2770 C 0.22417 0.80379 0.15397 0.0
H2771 H 0.19063 0.8138 0.17532 0.0
C2772 C 0.2373 0.80613 0.16766 0.0
C2773 C 0.20677 0.80598 0.15688 0.0
C2774 C 0.19146 0.80255 0.14293 0.0
C2775 C 0.23412 0.81162 0.18397 0.0
C2776 C 0.21718 0.81458 0.18671 0.0
C2777 C 0.20363 0.81155 0.17318 0.0
C2778 C 0.2143 0.82246 0.20314 0.0
C2779 C 0.2495 0.8152 0.19793 0.0
C2780 C 0.21042 0.8114 0.21827 0.0
C2781 C 0.20946 0.81983 0.23387 0.0
C2782 C 0.21241 0.83947 0.23456 0.0
C2783 C 0.21544 0.85012 0.21927 0.0
C2784 C 0.21634 0.84168 0.20374 0.0
H2785 H 0.26364 0.81581 0.19294 0.0
H2786 H 0.25394 0.82953 0.20477 0.0
H2787 H 0.24241 0.80275 0.20728 0.0
H2788 H 0.20852 0.79641 0.21804 0.0
H2789 H 0.20714 0.81127 0.24542 0.0
H2790 H 0.24424 0.47006 0.11633 0.0
H2791 H 0.23849 0.45338 0.14408 0.0
H2792 H 0.18457 0.40127 0.12394 0.0
H2793 H 0.19025 0.4178 0.09623 0.0
H2794 H 0.20082 0.43895 0.16391 0.0
H2795 H 0.21802 0.37811 0.1483 0.0
H2796 H 0.22727 0.40065 0.13563 0.0
H2797 H 0.20107 0.38064 0.13354 0.0
C2798 C 0.2314 0.4549 0.11774 0.0
C2799 C 0.21772 0.44522 0.10408 0.0
C2800 C 0.22806 0.44544 0.13362 0.0
C2801 C 0.2112 0.42602 0.13604 0.0
C2802 C 0.19783 0.41615 0.12231 0.0
H2803 H 0.14004 0.35797 0.22114 0.0
H2804 H 0.15471 0.37874 0.19579 0.0
C2805 C 0.20102 0.42566 0.10651 0.0
C2806 C 0.20675 0.41647 0.15312 0.0
H2807 H 0.20059 0.37495 0.17446 0.0
C2808 C 0.201 0.42509 0.16628 0.0
C2809 C 0.20712 0.39846 0.15624 0.0
C2810 C 0.21387 0.38895 0.14275 0.0
C2811 C 0.19481 0.41572 0.18225 0.0
C2812 C 0.19433 0.39726 0.18512 0.0
C2813 C 0.20088 0.38907 0.17221 0.0
C2814 C 0.18588 0.38563 0.20106 0.0
C2815 C 0.18856 0.42548 0.1959 0.0
C2816 C 0.19855 0.38259 0.21246 0.0
C2817 C 0.19021 0.37078 0.22706 0.0
C2818 C 0.16898 0.36151 0.23032 0.0
C2819 C 0.15642 0.36479 0.21893 0.0
C2820 C 0.16479 0.37674 0.20449 0.0
H2821 H 0.19418 0.44164 0.19316 0.0
H2822 H 0.17151 0.41758 0.19661 0.0
H2823 H 0.19455 0.42428 0.20854 0.0
H2824 H 0.21486 0.38923 0.20999 0.0
H2825 H 0.20023 0.36839 0.23552 0.0
H2826 H 0.74667 0.5539 0.90741 0.0
H2827 H 0.75991 0.57119 0.88035 0.0
H2828 H 0.82204 0.59368 0.8983 0.0
H2829 H 0.80888 0.57644 0.9255 0.0
H2830 H 0.78473 0.61182 0.87465 0.0
H2831 H 0.82292 0.57002 0.85195 0.0
H2832 H 0.80488 0.56125 0.86934 0.0
H2833 H 0.83104 0.58088 0.87281 0.0
C2834 C 0.76317 0.5626 0.90567 0.0
C2835 C 0.77671 0.56384 0.9187 0.0
C2836 C 0.77071 0.57238 0.89013 0.0
C2837 C 0.79196 0.58354 0.88717 0.0
C2838 C 0.80556 0.5848 0.90012 0.0
H2839 H 0.86894 0.66094 0.80645 0.0
H2840 H 0.85461 0.64058 0.832 0.0
C2841 C 0.79802 0.57497 0.91569 0.0
C2842 C 0.79981 0.59447 0.8708 0.0
H2843 H 0.82947 0.59913 0.83625 0.0
C2844 C 0.7944 0.60895 0.8662 0.0
C2845 C 0.81244 0.59073 0.85976 0.0
C2846 C 0.81803 0.57475 0.8636 0.0
C2847 C 0.80165 0.62012 0.8511 0.0
C2848 C 0.81437 0.61646 0.84011 0.0
C2849 C 0.8197 0.60191 0.84466 0.0
C2850 C 0.82286 0.62809 0.82413 0.0
C2851 C 0.7961 0.63615 0.84732 0.0
C2852 C 0.80982 0.62752 0.81098 0.0
C2853 C 0.81798 0.63929 0.79635 0.0
C2854 C 0.83938 0.65182 0.79455 0.0
C2855 C 0.85239 0.65178 0.80753 0.0
C2856 C 0.84422 0.64003 0.82211 0.0
H2857 H 0.79055 0.6404 0.85884 0.0
H2858 H 0.80951 0.6499 0.84214 0.0
H2859 H 0.78361 0.63033 0.83762 0.0
H2860 H 0.79329 0.61811 0.8121 0.0
H2861 H 0.8075 0.63897 0.78666 0.0
H2862 H 0.4759 0.24208 0.90115 0.0
H2863 H 0.45484 0.23737 0.87577 0.0
H2864 H 0.40269 0.18788 0.90007 0.0
H2865 H 0.42352 0.19275 0.92562 0.0
H2866 H 0.4345 0.20137 0.85595 0.0
H2867 H 0.3796 0.22328 0.88189 0.0
H2868 H 0.40376 0.23002 0.89223 0.0
H2869 H 0.3822 0.20497 0.89429 0.0
C2870 C 0.45984 0.23045 0.90121 0.0
C2871 C 0.45134 0.21783 0.91541 0.0
C2872 C 0.44788 0.22769 0.88667 0.0
C2873 C 0.42717 0.21242 0.88612 0.0
C2874 C 0.41856 0.19996 0.90034 0.0
H2875 H 0.32973 0.16491 0.8106 0.0
H2876 H 0.35115 0.17233 0.83616 0.0
C2877 C 0.43053 0.20264 0.91486 0.0
C2878 C 0.41485 0.20885 0.87038 0.0
H2879 H 0.37194 0.2079 0.85451 0.0
C2880 C 0.4209 0.20293 0.85557 0.0
C2881 C 0.39709 0.21081 0.86999 0.0
C2882 C 0.39031 0.21778 0.88539 0.0
C2883 C 0.40936 0.19845 0.84044 0.0
C2884 C 0.39155 0.20037 0.84005 0.0
C2885 C 0.38559 0.20642 0.85485 0.0
C2886 C 0.37873 0.19595 0.82446 0.0
C2887 C 0.41602 0.19114 0.82517 0.0
C2888 C 0.38708 0.20691 0.80946 0.0
C2889 C 0.37488 0.2027 0.79483 0.0
C2890 C 0.35404 0.18758 0.795 0.0
C2891 C 0.34568 0.17677 0.81011 0.0
C2892 C 0.35791 0.18094 0.8247 0.0
H2893 H 0.42651 0.18543 0.82885 0.0
H2894 H 0.40253 0.17895 0.81833 0.0
H2895 H 0.4244 0.20385 0.81623 0.0
H2896 H 0.40299 0.21888 0.80911 0.0
H2897 H 0.38168 0.21152 0.78348 0.0
H2898 H 0.823 0.23095 0.92842 0.0
H2899 H 0.83062 0.22026 0.90127 0.0
H2900 H 0.77832 0.22007 0.8781 0.0
H2901 H 0.77071 0.23097 0.90517 0.0
H2902 H 0.80448 0.18556 0.87862 0.0
H2903 H 0.83023 0.26086 0.84991 0.0
H2904 H 0.82787 0.25683 0.87264 0.0
H2905 H 0.80526 0.24848 0.85969 0.0
C2906 C 0.81302 0.22846 0.91758 0.0
C2907 C 0.79633 0.23191 0.91891 0.0
C2908 C 0.81734 0.22228 0.90211 0.0
C2909 C 0.80516 0.21961 0.88766 0.0
C2910 C 0.78799 0.22222 0.88909 0.0
H2911 H 0.82078 0.17529 0.78839 0.0
H2912 H 0.80531 0.18066 0.81397 0.0
C2913 C 0.78357 0.22828 0.9046 0.0
C2914 C 0.81121 0.21519 0.87095 0.0
H2915 H 0.83216 0.23664 0.83269 0.0
C2916 C 0.81034 0.19661 0.86849 0.0
C2917 C 0.81904 0.22977 0.85787 0.0
C2918 C 0.82085 0.25019 0.86008 0.0
C2919 C 0.81727 0.19229 0.8533 0.0
C2920 C 0.82522 0.20693 0.84027 0.0
C2921 C 0.82591 0.22542 0.84267 0.0
C2922 C 0.83422 0.20387 0.82454 0.0
C2923 C 0.8167 0.1724 0.85145 0.0
C2924 C 0.85549 0.21542 0.8219 0.0
C2925 C 0.86433 0.2124 0.80736 0.0
C2926 C 0.85203 0.19788 0.79509 0.0
C2927 C 0.83063 0.18664 0.79758 0.0
C2928 C 0.8218 0.18958 0.81222 0.0
H2929 H 0.81286 0.16393 0.86362 0.0
H2930 H 0.8049 0.16298 0.84181 0.0
H2931 H 0.83178 0.17482 0.84693 0.0
H2932 H 0.86531 0.22661 0.83121 0.0
H2933 H 0.88082 0.22149 0.8057 0.0
H2934 H 0.26556 0.11268 0.43172 0.0
H2935 H 0.28556 0.12439 0.45821 0.0
H2936 H 0.23279 0.11982 0.48407 0.0
H2937 H 0.21258 0.10781 0.45768 0.0
H2938 H 0.29375 0.15759 0.48198 0.0
H2939 H 0.24802 0.08078 0.50952 0.0
H2940 H 0.24813 0.0855 0.48699 0.0
H2941 H 0.23371 0.09204 0.50126 0.0
C2942 C 0.25829 0.11438 0.44301 0.0
C2943 C 0.23746 0.10917 0.44267 0.0
C2944 C 0.26975 0.12115 0.45809 0.0
C2945 C 0.26055 0.12271 0.4731 0.0
C2946 C 0.24009 0.11853 0.47262 0.0
H2947 H 0.32257 0.16708 0.5717 0.0
H2948 H 0.30205 0.16187 0.54581 0.0
C2949 C 0.22863 0.11184 0.45752 0.0
C2950 C 0.27196 0.12727 0.48944 0.0
H2951 H 0.27413 0.10563 0.52679 0.0
C2952 C 0.28941 0.14633 0.49186 0.0
C2953 C 0.26635 0.1124 0.50216 0.0
C2954 C 0.24813 0.09146 0.49991 0.0
C2955 C 0.30146 0.1509 0.50673 0.0
C2956 C 0.29581 0.13602 0.51945 0.0
C2957 C 0.27831 0.11701 0.51704 0.0
C2958 C 0.30838 0.13951 0.53501 0.0
C2959 C 0.32046 0.17137 0.50856 0.0
C2960 C 0.31845 0.12844 0.53759 0.0
C2961 C 0.33009 0.13132 0.55234 0.0
C2962 C 0.33173 0.1452 0.56488 0.0
C2963 C 0.32149 0.15618 0.56232 0.0
C2964 C 0.30993 0.15337 0.54749 0.0
H2965 H 0.32465 0.17985 0.49639 0.0
H2966 H 0.31765 0.18032 0.51822 0.0
H2967 H 0.3337 0.16987 0.51302 0.0
H2968 H 0.31731 0.11757 0.52815 0.0
H2969 H 0.33755 0.12243 0.55404 0.0
H2970 H 0.9443 0.15375 0.45413 0.0
H2971 H 0.92963 0.15755 0.48069 0.0
H2972 H 0.86857 0.11688 0.46166 0.0
H2973 H 0.88314 0.11302 0.43498 0.0
H2974 H 0.90286 0.17204 0.48526 0.0
H2975 H 0.86799 0.09334 0.50835 0.0
H2976 H 0.88655 0.10291 0.49134 0.0
H2977 H 0.8601 0.09551 0.48721 0.0
C2978 C 0.92773 0.14567 0.45555 0.0
C2979 C 0.91488 0.13312 0.4424 0.0
C2980 C 0.91939 0.14778 0.47078 0.0
C2981 C 0.89803 0.1373 0.47327 0.0
C2982 C 0.88512 0.12476 0.46018 0.0
H2983 H 0.8171 0.13587 0.55231 0.0
H2984 H 0.83251 0.13048 0.52687 0.0
C2985 C 0.89346 0.12261 0.44492 0.0
C2986 C 0.8893 0.14012 0.48932 0.0
H2987 H 0.85947 0.11508 0.52352 0.0
C2988 C 0.89348 0.15961 0.49368 0.0
C2989 C 0.87705 0.12387 0.50029 0.0
C2990 C 0.87278 0.10275 0.49668 0.0
C2991 C 0.88539 0.16325 0.50851 0.0
C2992 C 0.87307 0.147 0.51944 0.0
C2993 C 0.86894 0.12751 0.51512 0.0
C2994 C 0.86393 0.14988 0.53521 0.0
C2995 C 0.88967 0.18438 0.51212 0.0
C2996 C 0.87649 0.16228 0.5485 0.0
C2997 C 0.86773 0.1655 0.56304 0.0
C2998 C 0.84622 0.15631 0.56458 0.0
C2999 C 0.83371 0.14346 0.55142 0.0
C3000 C 0.84248 0.14025 0.53691 0.0
H3001 H 0.89511 0.19402 0.50061 0.0
H3002 H 0.87569 0.18422 0.51694 0.0
H3003 H 0.90184 0.19137 0.52204 0.0
H3004 H 0.89308 0.16959 0.54758 0.0
H3005 H 0.87781 0.17554 0.57289 0.0
H3006 H 0.86654 0.7966 0.45258 0.0
H3007 H 0.86016 0.77895 0.4797 0.0
H3008 H 0.88973 0.7468 0.46082 0.0
H3009 H 0.89664 0.76494 0.43373 0.0
H3010 H 0.837 0.74011 0.48557 0.0
H3011 H 0.91639 0.76354 0.50683 0.0
H3012 H 0.9111 0.77559 0.48937 0.0
H3013 H 0.91051 0.75202 0.48611 0.0
C3014 C 0.87182 0.78587 0.45426 0.0
C3015 C 0.88203 0.78209 0.441 0.0
C3016 C 0.8682 0.7758 0.46979 0.0
C3017 C 0.87463 0.76165 0.47247 0.0
C3018 C 0.88505 0.75799 0.4593 0.0
H3019 H 0.84089 0.66884 0.54881 0.0
H3020 H 0.85351 0.69042 0.52362 0.0
C3021 C 0.8889 0.76828 0.44377 0.0
C3022 C 0.86923 0.74995 0.48866 0.0
H3023 H 0.88915 0.73667 0.52226 0.0
C3024 C 0.84848 0.73953 0.49362 0.0
C3025 C 0.88415 0.74914 0.49926 0.0
C3026 C 0.9068 0.76083 0.49523 0.0
C3027 C 0.84223 0.72819 0.50867 0.0
C3028 C 0.85708 0.72716 0.51908 0.0
C3029 C 0.87781 0.73751 0.51421 0.0
C3030 C 0.85107 0.71494 0.53486 0.0
C3031 C 0.81974 0.71707 0.51329 0.0
C3032 C 0.84587 0.72176 0.54963 0.0
C3033 C 0.83871 0.70949 0.56409 0.0
C3034 C 0.83645 0.6901 0.56395 0.0
C3035 C 0.84222 0.68359 0.54926 0.0
C3036 C 0.84954 0.69593 0.53489 0.0
H3037 H 0.80987 0.71772 0.50301 0.0
H3038 H 0.81463 0.70103 0.51604 0.0
H3039 H 0.81743 0.72382 0.52502 0.0
H3040 H 0.84696 0.73641 0.54984 0.0
H3041 H 0.83428 0.71489 0.57515 0.0
loop_
_geom_bond_atom_site_label_1
_geom_bond_atom_site_label_2
_geom_bond_distance
_geom_bond_site_symmetry_2
_ccdc_geom_bond_type
H0 C1 0.949 . S
C1 H0 0.949 . S
C1 C2 1.395 . S
C1 C3 1.391 . S
C2 C1 1.395 . S
C2 C5 1.390 . S
C3 C1 1.391 . S
C3 C7 1.387 . S
C3 C8 1.491 . S
H4 C5 0.950 . S
C5 C2 1.390 . S
C5 H4 0.950 . S
C5 C6 1.378 . S
C6 C5 1.378 . S
C6 C7 1.409 . S
C7 C3 1.387 . S
C7 C6 1.409 . S
C7 H9 0.951 . S
C8 C3 1.491 . S
C8 C10 1.382 . S
C8 C12 1.404 . S
H9 C7 0.951 . S
C10 C8 1.382 . S
C10 C11 1.390 . S
C10 H15 0.949 . S
C11 C10 1.390 . S
C11 C16 1.399 . S
C12 C8 1.404 . S
C12 H13 0.950 . S
C12 C14 1.375 . S
H13 C12 0.950 . S
C14 C12 1.375 . S
C14 C16 1.382 . S
C14 H18 0.950 . S
H15 C10 0.949 . S
C16 C11 1.399 . S
C16 C14 1.382 . S
C16 H17 0.952 . S
H17 C16 0.952 . S
H18 C14 0.950 . S
H19 C20 0.949 . S
C20 H19 0.949 . S
C20 C21 1.395 . S
C20 C22 1.391 . S
C21 C20 1.395 . S
C21 C24 1.390 . S
C22 C20 1.391 . S
C22 C26 1.387 . S
C22 C27 1.491 . S
H23 C24 0.950 . S
C24 C21 1.390 . S
C24 H23 0.950 . S
C24 C25 1.378 . S
C25 C24 1.378 . S
C25 C26 1.409 . S
C26 C22 1.387 . S
C26 C25 1.409 . S
C26 H28 0.951 . S
C27 C22 1.491 . S
C27 C29 1.382 . S
C27 C31 1.404 . S
H28 C26 0.951 . S
C29 C27 1.382 . S
C29 C30 1.390 . S
C29 H34 0.949 . S
C30 C29 1.390 . S
C30 C35 1.399 . S
C31 C27 1.404 . S
C31 H32 0.950 . S
C31 C33 1.375 . S
H32 C31 0.950 . S
C33 C31 1.375 . S
C33 C35 1.382 . S
C33 H37 0.950 . S
H34 C29 0.949 . S
C35 C30 1.399 . S
C35 C33 1.382 . S
C35 H36 0.952 . S
H36 C35 0.952 . S
H37 C33 0.950 . S
H38 C39 0.949 . S
C39 H38 0.949 . S
C39 C40 1.395 . S
C39 C41 1.391 . S
C40 C39 1.395 . S
C40 C43 1.390 . S
C41 C39 1.391 . S
C41 C45 1.387 . S
C41 C46 1.491 . S
H42 C43 0.950 . S
C43 C40 1.390 . S
C43 H42 0.950 . S
C43 C44 1.378 . S
C44 C43 1.378 . S
C44 C45 1.409 . S
C45 C41 1.387 . S
C45 C44 1.409 . S
C45 H47 0.951 . S
C46 C41 1.491 . S
C46 C48 1.382 . S
C46 C50 1.404 . S
H47 C45 0.951 . S
C48 C46 1.382 . S
C48 C49 1.390 . S
C48 H53 0.949 . S
C49 C48 1.390 . S
C49 C54 1.399 . S
C50 C46 1.404 . S
C50 H51 0.950 . S
C50 C52 1.375 . S
H51 C50 0.950 . S
C52 C50 1.375 . S
C52 C54 1.382 . S
C52 H56 0.950 . S
H53 C48 0.949 . S
C54 C49 1.399 . S
C54 C52 1.382 . S
C54 H55 0.952 . S
H55 C54 0.952 . S
H56 C52 0.950 . S
H57 C58 0.949 . S
C58 H57 0.949 . S
C58 C59 1.395 . S
C58 C60 1.391 . S
C59 C58 1.395 . S
C59 C62 1.390 . S
C60 C58 1.391 . S
C60 C64 1.387 . S
C60 C65 1.491 . S
H61 C62 0.950 . S
C62 C59 1.390 . S
C62 H61 0.950 . S
C62 C63 1.378 . S
C63 C62 1.378 . S
C63 C64 1.409 . S
C64 C60 1.387 . S
C64 C63 1.409 . S
C64 H66 0.951 . S
C65 C60 1.491 . S
C65 C67 1.382 . S
C65 C69 1.404 . S
H66 C64 0.951 . S
C67 C65 1.382 . S
C67 C68 1.390 . S
C67 H72 0.949 . S
C68 C67 1.390 . S
C68 C73 1.399 . S
C69 C65 1.404 . S
C69 H70 0.950 . S
C69 C71 1.375 . S
H70 C69 0.950 . S
C71 C69 1.375 . S
C71 C73 1.382 . S
C71 H75 0.950 . S
H72 C67 0.949 . S
C73 C68 1.399 . S
C73 C71 1.382 . S
C73 H74 0.952 . S
H74 C73 0.952 . S
H75 C71 0.950 . S
H76 C77 0.949 . S
C77 H76 0.949 . S
C77 C78 1.395 . S
C77 C79 1.391 . S
C78 C77 1.395 . S
C78 C81 1.390 . S
C79 C77 1.391 . S
C79 C83 1.387 . S
C79 C84 1.491 . S
H80 C81 0.950 . S
C81 C78 1.390 . S
C81 H80 0.950 . S
C81 C82 1.378 . S
C82 C81 1.378 . S
C82 C83 1.409 . S
C83 C79 1.387 . S
C83 C82 1.409 . S
C83 H85 0.951 . S
C84 C79 1.491 . S
C84 C86 1.382 . S
C84 C88 1.404 . S
H85 C83 0.951 . S
C86 C84 1.382 . S
C86 C87 1.390 . S
C86 H91 0.949 . S
C87 C86 1.390 . S
C87 C92 1.399 . S
C88 C84 1.404 . S
C88 H89 0.950 . S
C88 C90 1.375 . S
H89 C88 0.950 . S
C90 C88 1.375 . S
C90 C92 1.382 . S
C90 H94 0.950 . S
H91 C86 0.949 . S
C92 C87 1.399 . S
C92 C90 1.382 . S
C92 H93 0.952 . S
H93 C92 0.952 . S
H94 C90 0.950 . S
H95 C96 0.949 . S
C96 H95 0.949 . S
C96 C97 1.395 . S
C96 C98 1.391 . S
C97 C96 1.395 . S
C97 C100 1.390 . S
C98 C96 1.391 . S
C98 C102 1.387 . S
C98 C103 1.491 . S
H99 C100 0.950 . S
C100 C97 1.390 . S
C100 H99 0.950 . S
C100 C101 1.378 . S
C101 C100 1.378 . S
C101 C102 1.409 . S
C102 C98 1.387 . S
C102 C101 1.409 . S
C102 H104 0.951 . S
C103 C98 1.491 . S
C103 C105 1.382 . S
C103 C107 1.404 . S
H104 C102 0.951 . S
C105 C103 1.382 . S
C105 C106 1.390 . S
C105 H110 0.949 . S
C106 C105 1.390 . S
C106 C111 1.399 . S
C107 C103 1.404 . S
C107 H108 0.950 . S
C107 C109 1.375 . S
H108 C107 0.950 . S
C109 C107 1.375 . S
C109 C111 1.382 . S
C109 H113 0.950 . S
H110 C105 0.949 . S
C111 C106 1.399 . S
C111 C109 1.382 . S
C111 H112 0.952 . S
H112 C111 0.952 . S
H113 C109 0.950 . S
H114 C115 0.949 . S
C115 H114 0.949 . S
C115 C116 1.395 . S
C115 C117 1.391 . S
C116 C115 1.395 . S
C116 C119 1.390 . S
C117 C115 1.391 . S
C117 C121 1.387 . S
C117 C122 1.491 . S
H118 C119 0.950 . S
C119 C116 1.390 . S
C119 H118 0.950 . S
C119 C120 1.378 . S
C120 C119 1.378 . S
C120 C121 1.409 . S
C121 C117 1.387 . S
C121 C120 1.409 . S
C121 H123 0.951 . S
C122 C117 1.491 . S
C122 C124 1.382 . S
C122 C126 1.404 . S
H123 C121 0.951 . S
C124 C122 1.382 . S
C124 C125 1.390 . S
C124 H129 0.949 . S
C125 C124 1.390 . S
C125 C130 1.399 . S
C126 C122 1.404 . S
C126 H127 0.950 . S
C126 C128 1.375 . S
H127 C126 0.950 . S
C128 C126 1.375 . S
C128 C130 1.382 . S
C128 H132 0.950 . S
H129 C124 0.949 . S
C130 C125 1.399 . S
C130 C128 1.382 . S
C130 H131 0.952 . S
H131 C130 0.952 . S
H132 C128 0.950 . S
H133 C134 0.949 . S
C134 H133 0.949 . S
C134 C135 1.395 . S
C134 C136 1.391 . S
C135 C134 1.395 . S
C135 C138 1.390 . S
C136 C134 1.391 . S
C136 C140 1.387 . S
C136 C141 1.491 . S
H137 C138 0.950 . S
C138 C135 1.390 . S
C138 H137 0.950 . S
C138 C139 1.378 . S
C139 C138 1.378 . S
C139 C140 1.409 . S
C140 C136 1.387 . S
C140 C139 1.409 . S
C140 H142 0.951 . S
C141 C136 1.491 . S
C141 C143 1.382 . S
C141 C145 1.404 . S
H142 C140 0.951 . S
C143 C141 1.382 . S
C143 C144 1.390 . S
C143 H148 0.949 . S
C144 C143 1.390 . S
C144 C149 1.399 . S
C145 C141 1.404 . S
C145 H146 0.950 . S
C145 C147 1.375 . S
H146 C145 0.950 . S
C147 C145 1.375 . S
C147 C149 1.382 . S
C147 H151 0.950 . S
H148 C143 0.949 . S
C149 C144 1.399 . S
C149 C147 1.382 . S
C149 H150 0.952 . S
H150 C149 0.952 . S
H151 C147 0.950 . S
H152 C153 0.949 . S
C153 H152 0.949 . S
C153 C154 1.395 . S
C153 C155 1.391 . S
C154 C153 1.395 . S
C154 C157 1.390 . S
C155 C153 1.391 . S
C155 C159 1.387 . S
C155 C160 1.491 . S
H156 C157 0.950 . S
C157 C154 1.390 . S
C157 H156 0.950 . S
C157 C158 1.378 . S
C158 C157 1.378 . S
C158 C159 1.409 . S
C159 C155 1.387 . S
C159 C158 1.409 . S
C159 H161 0.951 . S
C160 C155 1.491 . S
C160 C162 1.382 . S
C160 C164 1.404 . S
H161 C159 0.951 . S
C162 C160 1.382 . S
C162 C163 1.390 . S
C162 H167 0.949 . S
C163 C162 1.390 . S
C163 C168 1.399 . S
C164 C160 1.404 . S
C164 H165 0.950 . S
C164 C166 1.375 . S
H165 C164 0.950 . S
C166 C164 1.375 . S
C166 C168 1.382 . S
C166 H170 0.950 . S
H167 C162 0.949 . S
C168 C163 1.399 . S
C168 C166 1.382 . S
C168 H169 0.952 . S
H169 C168 0.952 . S
H170 C166 0.950 . S
H171 C172 0.949 . S
C172 H171 0.949 . S
C172 C173 1.395 . S
C172 C174 1.391 . S
C173 C172 1.395 . S
C173 C176 1.390 . S
C174 C172 1.391 . S
C174 C178 1.387 . S
C174 C179 1.491 . S
H175 C176 0.950 . S
C176 C173 1.390 . S
C176 H175 0.950 . S
C176 C177 1.378 . S
C177 C176 1.378 . S
C177 C178 1.409 . S
C178 C174 1.387 . S
C178 C177 1.409 . S
C178 H180 0.951 . S
C179 C174 1.491 . S
C179 C181 1.382 . S
C179 C183 1.404 . S
H180 C178 0.951 . S
C181 C179 1.382 . S
C181 C182 1.390 . S
C181 H186 0.949 . S
C182 C181 1.390 . S
C182 C187 1.399 . S
C183 C179 1.404 . S
C183 H184 0.950 . S
C183 C185 1.375 . S
H184 C183 0.950 . S
C185 C183 1.375 . S
C185 C187 1.382 . S
C185 H189 0.950 . S
H186 C181 0.949 . S
C187 C182 1.399 . S
C187 C185 1.382 . S
C187 H188 0.952 . S
H188 C187 0.952 . S
H189 C185 0.950 . S
H190 C191 0.949 . S
C191 H190 0.949 . S
C191 C192 1.395 . S
C191 C193 1.391 . S
C192 C191 1.395 . S
C192 C195 1.390 . S
C193 C191 1.391 . S
C193 C197 1.387 . S
C193 C198 1.491 . S
H194 C195 0.950 . S
C195 C192 1.390 . S
C195 H194 0.950 . S
C195 C196 1.378 . S
C196 C195 1.378 . S
C196 C197 1.409 . S
C197 C193 1.387 . S
C197 C196 1.409 . S
C197 H199 0.951 . S
C198 C193 1.491 . S
C198 C200 1.382 . S
C198 C202 1.404 . S
H199 C197 0.951 . S
C200 C198 1.382 . S
C200 C201 1.390 . S
C200 H205 0.949 . S
C201 C200 1.390 . S
C201 C206 1.399 . S
C202 C198 1.404 . S
C202 H203 0.950 . S
C202 C204 1.375 . S
H203 C202 0.950 . S
C204 C202 1.375 . S
C204 C206 1.382 . S
C204 H208 0.950 . S
H205 C200 0.949 . S
C206 C201 1.399 . S
C206 C204 1.382 . S
C206 H207 0.952 . S
H207 C206 0.952 . S
H208 C204 0.950 . S
H209 C210 0.949 . S
C210 H209 0.949 . S
C210 C211 1.395 . S
C210 C212 1.391 . S
C211 C210 1.395 . S
C211 C214 1.390 . S
C212 C210 1.391 . S
C212 C216 1.387 . S
C212 C217 1.491 . S
H213 C214 0.950 . S
C214 C211 1.390 . S
C214 H213 0.950 . S
C214 C215 1.378 . S
C215 C214 1.378 . S
C215 C216 1.409 . S
C216 C212 1.387 . S
C216 C215 1.409 . S
C216 H218 0.951 . S
C217 C212 1.491 . S
C217 C219 1.382 . S
C217 C221 1.404 . S
H218 C216 0.951 . S
C219 C217 1.382 . S
C219 C220 1.390 . S
C219 H224 0.949 . S
C220 C219 1.390 . S
C220 C225 1.399 . S
C221 C217 1.404 . S
C221 H222 0.950 . S
C221 C223 1.375 . S
H222 C221 0.950 . S
C223 C221 1.375 . S
C223 C225 1.382 . S
C223 H227 0.950 . S
H224 C219 0.949 . S
C225 C220 1.399 . S
C225 C223 1.382 . S
C225 H226 0.952 . S
H226 C225 0.952 . S
H227 C223 0.950 . S
H228 C229 0.949 . S
C229 H228 0.949 . S
C229 C230 1.395 . S
C229 C231 1.391 . S
C230 C229 1.395 . S
C230 C233 1.390 . S
C231 C229 1.391 . S
C231 C235 1.387 . S
C231 C236 1.491 . S
H232 C233 0.950 . S
C233 C230 1.390 . S
C233 H232 0.950 . S
C233 C234 1.378 . S
C234 C233 1.378 . S
C234 C235 1.409 . S
C235 C231 1.387 . S
C235 C234 1.409 . S
C235 H237 0.951 . S
C236 C231 1.491 . S
C236 C238 1.382 . S
C236 C240 1.404 . S
H237 C235 0.951 . S
C238 C236 1.382 . S
C238 C239 1.390 . S
C238 H243 0.949 . S
C239 C238 1.390 . S
C239 C244 1.399 . S
C240 C236 1.404 . S
C240 H241 0.950 . S
C240 C242 1.375 . S
H241 C240 0.950 . S
C242 C240 1.375 . S
C242 C244 1.382 . S
C242 H246 0.950 . S
H243 C238 0.949 . S
C244 C239 1.399 . S
C244 C242 1.382 . S
C244 H245 0.952 . S
H245 C244 0.952 . S
H246 C242 0.950 . S
H247 C248 0.949 . S
C248 H247 0.949 . S
C248 C249 1.395 . S
C248 C250 1.391 . S
C249 C248 1.395 . S
C249 C252 1.390 . S
C250 C248 1.391 . S
C250 C254 1.387 . S
C250 C255 1.491 . S
H251 C252 0.950 . S
C252 C249 1.390 . S
C252 H251 0.950 . S
C252 C253 1.378 . S
C253 C252 1.378 . S
C253 C254 1.409 . S
C254 C250 1.387 . S
C254 C253 1.409 . S
C254 H256 0.951 . S
C255 C250 1.491 . S
C255 C257 1.382 . S
C255 C259 1.404 . S
H256 C254 0.951 . S
C257 C255 1.382 . S
C257 C258 1.390 . S
C257 H262 0.949 . S
C258 C257 1.390 . S
C258 C263 1.399 . S
C259 C255 1.404 . S
C259 H260 0.950 . S
C259 C261 1.375 . S
H260 C259 0.950 . S
C261 C259 1.375 . S
C261 C263 1.382 . S
C261 H265 0.950 . S
H262 C257 0.949 . S
C263 C258 1.399 . S
C263 C261 1.382 . S
C263 H264 0.952 . S
H264 C263 0.952 . S
H265 C261 0.950 . S
H266 C267 0.949 . S
C267 H266 0.949 . S
C267 C268 1.395 . S
C267 C269 1.391 . S
C268 C267 1.395 . S
C268 C271 1.390 . S
C269 C267 1.391 . S
C269 C273 1.387 . S
C269 C274 1.491 . S
H270 C271 0.950 . S
C271 C268 1.390 . S
C271 H270 0.950 . S
C271 C272 1.378 . S
C272 C271 1.378 . S
C272 C273 1.409 . S
C273 C269 1.387 . S
C273 C272 1.409 . S
C273 H275 0.951 . S
C274 C269 1.491 . S
C274 C276 1.382 . S
C274 C278 1.404 . S
H275 C273 0.951 . S
C276 C274 1.382 . S
C276 C277 1.390 . S
C276 H281 0.949 . S
C277 C276 1.390 . S
C277 C282 1.399 . S
C278 C274 1.404 . S
C278 H279 0.950 . S
C278 C280 1.375 . S
H279 C278 0.950 . S
C280 C278 1.375 . S
C280 C282 1.382 . S
C280 H284 0.950 . S
H281 C276 0.949 . S
C282 C277 1.399 . S
C282 C280 1.382 . S
C282 H283 0.952 . S
H283 C282 0.952 . S
H284 C280 0.950 . S
H285 C286 0.949 . S
C286 H285 0.949 . S
C286 C287 1.395 . S
C286 C288 1.391 . S
C287 C286 1.395 . S
C287 C290 1.390 . S
C288 C286 1.391 . S
C288 C292 1.387 . S
C288 C293 1.491 . S
H289 C290 0.950 . S
C290 C287 1.390 . S
C290 H289 0.950 . S
C290 C291 1.378 . S
C291 C290 1.378 . S
C291 C292 1.409 . S
C292 C288 1.387 . S
C292 C291 1.409 . S
C292 H294 0.951 . S
C293 C288 1.491 . S
C293 C295 1.382 . S
C293 C297 1.404 . S
H294 C292 0.951 . S
C295 C293 1.382 . S
C295 C296 1.390 . S
C295 H300 0.949 . S
C296 C295 1.390 . S
C296 C301 1.399 . S
C297 C293 1.404 . S
C297 H298 0.950 . S
C297 C299 1.375 . S
H298 C297 0.950 . S
C299 C297 1.375 . S
C299 C301 1.382 . S
C299 H303 0.950 . S
H300 C295 0.949 . S
C301 C296 1.399 . S
C301 C299 1.382 . S
C301 H302 0.952 . S
H302 C301 0.952 . S
H303 C299 0.950 . S
H304 C305 0.949 . S
C305 H304 0.949 . S
C305 C306 1.395 . S
C305 C307 1.391 . S
C306 C305 1.395 . S
C306 C309 1.390 . S
C307 C305 1.391 . S
C307 C311 1.387 . S
C307 C312 1.491 . S
H308 C309 0.950 . S
C309 C306 1.390 . S
C309 H308 0.950 . S
C309 C310 1.378 . S
C310 C309 1.378 . S
C310 C311 1.409 . S
C311 C307 1.387 . S
C311 C310 1.409 . S
C311 H313 0.951 . S
C312 C307 1.491 . S
C312 C314 1.382 . S
C312 C316 1.404 . S
H313 C311 0.951 . S
C314 C312 1.382 . S
C314 C315 1.390 . S
C314 H319 0.949 . S
C315 C314 1.390 . S
C315 C320 1.399 . S
C316 C312 1.404 . S
C316 H317 0.950 . S
C316 C318 1.375 . S
H317 C316 0.950 . S
C318 C316 1.375 . S
C318 C320 1.382 . S
C318 H322 0.950 . S
H319 C314 0.949 . S
C320 C315 1.399 . S
C320 C318 1.382 . S
C320 H321 0.952 . S
H321 C320 0.952 . S
H322 C318 0.950 . S
H323 C324 0.949 . S
C324 H323 0.949 . S
C324 C325 1.395 . S
C324 C326 1.391 . S
C325 C324 1.395 . S
C325 C328 1.390 . S
C326 C324 1.391 . S
C326 C330 1.387 . S
C326 C331 1.491 . S
H327 C328 0.950 . S
C328 C325 1.390 . S
C328 H327 0.950 . S
C328 C329 1.378 . S
C329 C328 1.378 . S
C329 C330 1.409 . S
C330 C326 1.387 . S
C330 C329 1.409 . S
C330 H332 0.951 . S
C331 C326 1.491 . S
C331 C333 1.382 . S
C331 C335 1.404 . S
H332 C330 0.951 . S
C333 C331 1.382 . S
C333 C334 1.390 . S
C333 H338 0.949 . S
C334 C333 1.390 . S
C334 C339 1.399 . S
C335 C331 1.404 . S
C335 H336 0.950 . S
C335 C337 1.375 . S
H336 C335 0.950 . S
C337 C335 1.375 . S
C337 C339 1.382 . S
C337 H341 0.950 . S
H338 C333 0.949 . S
C339 C334 1.399 . S
C339 C337 1.382 . S
C339 H340 0.952 . S
H340 C339 0.952 . S
H341 C337 0.950 . S
Gd342 N373 2.661 . S
Gd342 N379 2.601 . S
Gd342 O386 2.545 . S
Gd342 O387 2.606 1_545 S
Gd342 O389 2.429 . S
Gd342 O390 2.545 1_545 S
Gd342 O391 2.412 1_545 S
Gd342 O393 2.362 . S
Gd342 O394 2.324 1_545 S
Gd342 C401 2.831 . S
Gd343 N352 2.661 . S
Gd343 N356 2.601 . S
Gd343 O387 2.362 1_556 S
Gd343 O388 2.324 1_565 S
Gd343 O392 2.545 . S
Gd343 O393 2.606 1_566 S
Gd343 O395 2.429 . S
Gd343 O396 2.545 1_565 S
Gd343 O397 2.412 1_565 S
Gd343 C410 2.828 1_565 S
C344 C347 1.417 . S
C344 C349 1.431 . S
C344 C350 1.412 . S
C345 C348 1.437 . S
C345 C349 1.317 . S
C345 H364 0.929 . S
C346 C347 1.426 . S
C346 C348 1.413 . S
C346 N356 1.359 . S
C347 C344 1.417 . S
C347 C346 1.426 . S
C347 N352 1.350 . S
C348 C345 1.437 . S
C348 C346 1.413 . S
C348 C358 1.391 . S
C349 C344 1.431 . S
C349 C345 1.317 . S
C349 H360 0.930 . S
C350 C344 1.412 . S
C350 C351 1.355 . S
C350 H362 0.930 . S
C351 C350 1.355 . S
C351 C353 1.402 . S
C351 H363 0.930 . S
N352 Gd343 2.661 . S
N352 C347 1.350 . S
N352 C353 1.307 . S
C353 C351 1.402 . S
C353 N352 1.307 . S
C353 H354 0.930 1_565 S
H354 C353 0.930 1_545 S
C355 N356 1.334 . S
C355 C357 1.394 . S
C355 H359 0.930 . S
N356 Gd343 2.601 . S
N356 C346 1.359 . S
N356 C355 1.334 . S
C357 C355 1.394 . S
C357 C358 1.359 . S
C357 H369 0.930 . S
C358 C348 1.391 . S
C358 C357 1.359 . S
C358 H370 0.929 . S
H359 C355 0.930 . S
H360 C349 0.930 . S
H361 C378 0.930 . S
H362 C350 0.930 . S
H363 C351 0.930 . S
H364 C345 0.929 . S
H365 C383 0.930 . S
H366 C374 0.930 . S
H367 C375 0.930 . S
H368 C399 0.929 . S
H369 C357 0.930 . S
H370 C358 0.929 . S
H371 C400 0.930 . S
H372 C381 0.930 . S
N373 Gd342 2.661 . S
N373 C377 1.350 . S
N373 C378 1.307 . S
C374 H366 0.930 . S
C374 C375 1.355 . S
C374 C376 1.412 . S
C375 H367 0.930 . S
C375 C374 1.355 . S
C375 C378 1.402 . S
C376 C374 1.412 . S
C376 C377 1.417 . S
C376 C400 1.431 . S
C377 N373 1.350 . S
C377 C376 1.417 . S
C377 C380 1.426 . S
C378 H361 0.930 . S
C378 N373 1.307 . S
C378 C375 1.402 . S
N379 Gd342 2.601 . S
N379 C380 1.359 . S
N379 C383 1.334 . S
C380 C377 1.426 . S
C380 N379 1.359 . S
C380 C384 1.413 . S
C381 H372 0.930 . S
C381 C382 1.359 . S
C381 C383 1.394 . S
C382 C381 1.359 . S
C382 C384 1.391 . S
C382 H385 0.929 . S
C383 H365 0.930 . S
C383 N379 1.334 . S
C383 C381 1.394 . S
C384 C380 1.413 . S
C384 C382 1.391 . S
C384 C399 1.437 . S
H385 C382 0.929 . S
O386 Gd342 2.545 . S
O386 C401 1.275 . S
O387 Gd342 2.606 1_565 S
O387 Gd343 2.362 1_554 S
O387 C398 1.284 . S
O388 Gd343 2.324 1_545 S
O388 C408 1.254 1_556 S
O389 Gd342 2.429 . S
O389 C408 1.268 . S
O390 Gd342 2.545 1_565 S
O390 C398 1.250 . S
O391 Gd342 2.412 1_565 S
O391 C401 1.238 1_565 S
O392 Gd343 2.545 . S
O392 C410 1.258 1_565 S
O393 Gd342 2.362 . S
O393 Gd343 2.606 1_544 S
O393 C409 1.284 1_554 S
O394 Gd342 2.324 1_565 S
O394 C417 1.254 . S
O395 Gd343 2.429 . S
O395 C417 1.268 1_556 S
O396 Gd343 2.545 1_545 S
O396 C409 1.250 . S
O397 Gd343 2.412 1_545 S
O397 C410 1.252 . S
C398 O387 1.284 . S
C398 O390 1.250 . S
C399 H368 0.929 . S
C399 C384 1.437 . S
C399 C400 1.317 . S
C400 H371 0.930 . S
C400 C376 1.431 . S
C400 C399 1.317 . S
C401 Gd342 2.831 . S
C401 O386 1.275 . S
C401 O391 1.238 1_545 S
C401 C402 1.493 1_545 S
C402 C401 1.493 1_565 S
C402 C403 1.395 1_565 S
C402 C404 1.380 . S
C403 C402 1.395 1_545 S
C403 C406 1.398 1_545 S
C403 H418 0.930 . S
C404 C402 1.380 . S
C404 C405 1.391 . S
C404 H419 0.930 . S
C405 C404 1.391 . S
C405 C407 1.387 . S
C406 C403 1.398 1_565 S
C406 C407 1.380 . S
C406 H420 0.930 1_565 S
C407 C405 1.387 . S
C407 C406 1.380 . S
C407 H421 0.930 . S
C408 O388 1.254 1_554 S
C408 O389 1.268 . S
C409 O393 1.284 1_556 S
C409 O396 1.250 . S
C410 Gd343 2.828 1_545 S
C410 O392 1.258 1_545 S
C410 O397 1.252 . S
C410 C411 1.497 . S
C411 C410 1.497 . S
C411 C412 1.439 . S
C411 C413 1.380 . S
C412 C411 1.439 . S
C412 C415 1.413 . S
C412 H422 0.872 1_545 S
C413 C411 1.380 . S
C413 C414 1.391 . S
C413 H423 0.930 . S
C414 C413 1.391 . S
C414 C416 1.387 . S
C415 C412 1.413 . S
C415 C416 1.380 . S
C415 H424 0.921 1_545 S
C416 C414 1.387 . S
C416 C415 1.380 . S
C416 H425 0.930 . S
C417 O394 1.254 . S
C417 O395 1.268 1_554 S
H418 C403 0.930 . S
H419 C404 0.930 . S
H420 C406 0.930 1_545 S
H421 C407 0.930 . S
H422 C412 0.872 1_565 S
H423 C413 0.930 . S
H424 C415 0.921 1_565 S
H425 C416 0.930 . S
Gd426 N457 2.661 . S
Gd426 N463 2.601 . S
Gd426 O470 2.545 . S
Gd426 O471 2.606 1_655 S
Gd426 O473 2.429 . S
Gd426 O474 2.545 1_655 S
Gd426 O475 2.412 1_655 S
Gd426 O477 2.362 . S
Gd426 O478 2.324 1_655 S
Gd426 C485 2.828 1_655 S
Gd427 N436 2.661 . S
Gd427 N440 2.601 . S
Gd427 O471 2.362 1_556 S
Gd427 O472 2.324 1_455 S
Gd427 O476 2.545 . S
Gd427 O477 2.606 1_456 S
Gd427 O479 2.429 . S
Gd427 O480 2.545 1_455 S
Gd427 O481 2.412 1_455 S
Gd427 C494 2.828 . S
C428 C431 1.417 . S
C428 C433 1.431 . S
C428 C434 1.412 . S
C429 C432 1.437 . S
C429 C433 1.317 . S
C429 H448 0.929 . S
C430 C431 1.426 . S
C430 C432 1.413 . S
C430 N440 1.359 . S
C431 C428 1.417 . S
C431 C430 1.426 . S
C431 N436 1.350 . S
C432 C429 1.437 . S
C432 C430 1.413 . S
C432 C442 1.391 . S
C433 C428 1.431 . S
C433 C429 1.317 . S
C433 H444 0.930 . S
C434 C428 1.412 . S
C434 C435 1.355 . S
C434 H446 0.930 . S
C435 C434 1.355 . S
C435 C437 1.402 . S
C435 H447 0.930 . S
N436 Gd427 2.661 . S
N436 C431 1.350 . S
N436 C437 1.307 . S
C437 C435 1.402 . S
C437 N436 1.307 . S
C437 H438 0.930 . S
H438 C437 0.930 . S
C439 N440 1.334 . S
C439 C441 1.394 . S
C439 H443 0.930 . S
N440 Gd427 2.601 . S
N440 C430 1.359 . S
N440 C439 1.334 . S
C441 C439 1.394 . S
C441 C442 1.359 . S
C441 H453 0.930 . S
C442 C432 1.391 . S
C442 C441 1.359 . S
C442 H454 0.929 . S
H443 C439 0.930 . S
H444 C433 0.930 . S
H445 C462 0.930 1_455 S
H446 C434 0.930 . S
H447 C435 0.930 . S
H448 C429 0.929 . S
H449 C467 0.930 . S
H450 C458 0.930 . S
H451 C459 0.930 . S
H452 C483 0.929 . S
H453 C441 0.930 . S
H454 C442 0.929 . S
H455 C484 0.930 . S
H456 C465 0.930 . S
N457 Gd426 2.661 . S
N457 C461 1.350 . S
N457 C462 1.307 . S
C458 H450 0.930 . S
C458 C459 1.355 . S
C458 C460 1.412 . S
C459 H451 0.930 . S
C459 C458 1.355 . S
C459 C462 1.402 . S
C460 C458 1.412 . S
C460 C461 1.417 . S
C460 C484 1.431 . S
C461 N457 1.350 . S
C461 C460 1.417 . S
C461 C464 1.426 . S
C462 H445 0.930 1_655 S
C462 N457 1.307 . S
C462 C459 1.402 . S
N463 Gd426 2.601 . S
N463 C464 1.359 . S
N463 C467 1.334 . S
C464 C461 1.426 . S
C464 N463 1.359 . S
C464 C468 1.413 . S
C465 H456 0.930 . S
C465 C466 1.359 . S
C465 C467 1.394 . S
C466 C465 1.359 . S
C466 C468 1.391 . S
C466 H469 0.929 . S
C467 H449 0.930 . S
C467 N463 1.334 . S
C467 C465 1.394 . S
C468 C464 1.413 . S
C468 C466 1.391 . S
C468 C483 1.437 . S
H469 C466 0.929 . S
O470 Gd426 2.545 . S
O470 C485 1.258 1_655 S
O471 Gd426 2.606 1_455 S
O471 Gd427 2.362 1_554 S
O471 C482 1.284 . S
O472 Gd427 2.324 1_655 S
O472 C492 1.254 1_556 S
O473 Gd426 2.429 . S
O473 C492 1.268 . S
O474 Gd426 2.545 1_455 S
O474 C482 1.250 . S
O475 Gd426 2.412 1_455 S
O475 C485 1.252 . S
O476 Gd427 2.545 . S
O476 C494 1.258 . S
O477 Gd426 2.362 . S
O477 Gd427 2.606 1_654 S
O477 C493 1.284 1_554 S
O478 Gd426 2.324 1_455 S
O478 C501 1.254 . S
O479 Gd427 2.429 . S
O479 C501 1.268 1_556 S
O480 Gd427 2.545 1_655 S
O480 C493 1.250 . S
O481 Gd427 2.412 1_655 S
O481 C494 1.252 1_655 S
C482 O471 1.284 . S
C482 O474 1.250 . S
C483 H452 0.929 . S
C483 C468 1.437 . S
C483 C484 1.317 . S
C484 H455 0.930 . S
C484 C460 1.431 . S
C484 C483 1.317 . S
C485 Gd426 2.828 1_455 S
C485 O470 1.258 1_455 S
C485 O475 1.252 . S
C485 C486 1.497 . S
C486 C485 1.497 . S
C486 C487 1.391 1_455 S
C486 C488 1.380 . S
C487 C486 1.391 1_655 S
C487 C490 1.393 1_655 S
C487 H502 0.939 . S
C488 C486 1.380 . S
C488 C489 1.391 . S
C488 H503 0.930 . S
C489 C488 1.391 . S
C489 C491 1.387 . S
C490 C487 1.393 1_455 S
C490 C491 1.380 . S
C490 H504 0.930 1_455 S
C491 C489 1.387 . S
C491 C490 1.380 . S
C491 H505 0.930 . S
C492 O472 1.254 1_554 S
C492 O473 1.268 . S
C493 O477 1.284 1_556 S
C493 O480 1.250 . S
C494 Gd427 2.828 . S
C494 O476 1.258 . S
C494 O481 1.252 1_455 S
C494 C495 1.497 1_455 S
C495 C494 1.497 1_655 S
C495 C496 1.395 1_655 S
C495 C497 1.380 . S
C496 C495 1.395 1_455 S
C496 C499 1.398 . S
C496 H506 0.930 . S
C497 C495 1.380 . S
C497 C498 1.391 . S
C497 H507 0.930 . S
C498 C497 1.391 . S
C498 C500 1.387 . S
C499 C496 1.398 . S
C499 C500 1.380 1_455 S
C499 H508 0.930 . S
C500 C498 1.387 . S
C500 C499 1.380 1_655 S
C500 H509 0.930 . S
C501 O478 1.254 . S
C501 O479 1.268 1_554 S
H502 C487 0.939 . S
H503 C488 0.930 . S
H504 C490 0.930 1_655 S
H505 C491 0.930 . S
H506 C496 0.930 . S
H507 C497 0.930 . S
H508 C499 0.930 . S
H509 C500 0.930 . S
Gd510 N541 2.661 . S
Gd510 N547 2.601 . S
Gd510 O554 2.545 . S
Gd510 O555 2.606 1_556 S
Gd510 O557 2.426 . S
Gd510 O558 2.545 . S
Gd510 O559 2.412 . S
Gd510 O561 2.362 1_556 S
Gd510 O562 2.324 . S
Gd510 C569 2.828 . S
Gd511 N520 2.661 . S
Gd511 N524 2.601 . S
Gd511 O555 2.362 . S
Gd511 O556 2.324 . S
Gd511 O560 2.545 . S
Gd511 O561 2.606 . S
Gd511 O563 2.429 . S
Gd511 O564 2.545 . S
Gd511 O565 2.412 . S
Gd511 C578 2.828 . S
C512 C515 1.417 . S
C512 C517 1.431 . S
C512 C518 1.412 . S
C513 C516 1.437 . S
C513 C517 1.317 . S
C513 H532 0.929 . S
C514 C515 1.426 . S
C514 C516 1.413 . S
C514 N524 1.359 . S
C515 C512 1.417 . S
C515 C514 1.426 . S
C515 N520 1.350 . S
C516 C513 1.437 . S
C516 C514 1.413 . S
C516 C526 1.391 . S
C517 C512 1.431 . S
C517 C513 1.317 . S
C517 H528 0.930 . S
C518 C512 1.412 . S
C518 C519 1.355 . S
C518 H530 0.930 . S
C519 C518 1.355 . S
C519 C521 1.402 . S
C519 H531 0.930 . S
N520 Gd511 2.661 . S
N520 C515 1.350 . S
N520 C521 1.307 . S
C521 C519 1.402 . S
C521 N520 1.307 . S
C521 H522 0.930 . S
H522 C521 0.930 . S
C523 N524 1.334 . S
C523 C525 1.394 . S
C523 H527 0.930 . S
N524 Gd511 2.601 . S
N524 C514 1.359 . S
N524 C523 1.334 . S
C525 C523 1.394 . S
C525 C526 1.359 . S
C525 H537 0.930 . S
C526 C516 1.391 . S
C526 C525 1.359 . S
C526 H538 0.929 . S
H527 C523 0.930 . S
H528 C517 0.930 . S
H529 C546 0.930 . S
H530 C518 0.930 . S
H531 C519 0.930 . S
H532 C513 0.929 . S
H533 C551 0.930 . S
H534 C542 0.930 . S
H535 C543 0.930 . S
H536 C567 0.929 . S
H537 C525 0.930 . S
H538 C526 0.929 . S
H539 C568 0.930 . S
H540 C549 0.930 . S
N541 Gd510 2.661 . S
N541 C545 1.350 . S
N541 C546 1.307 . S
C542 H534 0.930 . S
C542 C543 1.355 . S
C542 C544 1.412 . S
C543 H535 0.930 . S
C543 C542 1.355 . S
C543 C546 1.402 . S
C544 C542 1.412 . S
C544 C545 1.417 . S
C544 C568 1.431 . S
C545 N541 1.350 . S
C545 C544 1.417 . S
C545 C548 1.426 . S
C546 H529 0.930 . S
C546 N541 1.307 . S
C546 C543 1.402 . S
N547 Gd510 2.601 . S
N547 C548 1.359 . S
N547 C551 1.334 . S
C548 C545 1.426 . S
C548 N547 1.359 . S
C548 C552 1.413 . S
C549 H540 0.930 . S
C549 C550 1.359 . S
C549 C551 1.394 . S
C550 C549 1.359 . S
C550 C552 1.391 . S
C550 H553 0.929 . S
C551 H533 0.930 . S
C551 N547 1.334 . S
C551 C549 1.394 . S
C552 C548 1.413 . S
C552 C550 1.391 . S
C552 C567 1.437 . S
H553 C550 0.929 . S
O554 Gd510 2.545 . S
O554 C569 1.258 . S
O555 Gd510 2.606 1_554 S
O555 Gd511 2.362 . S
O555 C566 1.284 1_554 S
O556 Gd511 2.324 . S
O556 C576 1.254 . S
O557 Gd510 2.426 . S
O557 C576 1.274 1_556 S
O558 Gd510 2.545 . S
O558 C566 1.250 . S
O559 Gd510 2.412 . S
O559 C569 1.252 . S
O560 Gd511 2.545 . S
O560 C578 1.258 . S
O561 Gd510 2.362 1_554 S
O561 Gd511 2.606 . S
O561 C577 1.284 . S
O562 Gd510 2.324 . S
O562 C585 1.254 1_556 S
O563 Gd511 2.429 . S
O563 C585 1.268 . S
O564 Gd511 2.545 . S
O564 C577 1.250 . S
O565 Gd511 2.412 . S
O565 C578 1.252 . S
C566 O555 1.284 1_556 S
C566 O558 1.250 . S
C567 H536 0.929 . S
C567 C552 1.437 . S
C567 C568 1.317 . S
C568 H539 0.930 . S
C568 C544 1.431 . S
C568 C567 1.317 . S
C569 Gd510 2.828 . S
C569 O554 1.258 . S
C569 O559 1.252 . S
C569 C570 1.497 . S
C570 C569 1.497 . S
C570 C571 1.395 . S
C570 C572 1.380 . S
C571 C570 1.395 . S
C571 C574 1.398 . S
C571 H586 0.930 . S
C572 C570 1.380 . S
C572 C573 1.391 . S
C572 H587 0.930 . S
C573 C572 1.391 . S
C573 C575 1.387 . S
C574 C571 1.398 . S
C574 C575 1.380 . S
C574 H588 0.930 . S
C575 C573 1.387 . S
C575 C574 1.380 . S
C575 H589 0.930 . S
C576 O556 1.254 . S
C576 O557 1.274 1_554 S
C577 O561 1.284 . S
C577 O564 1.250 . S
C578 Gd511 2.828 . S
C578 O560 1.258 . S
C578 O565 1.252 . S
C578 C579 1.497 . S
C579 C578 1.497 . S
C579 C580 1.395 . S
C579 C581 1.380 . S
C580 C579 1.395 . S
C580 C583 1.398 . S
C580 H590 0.930 . S
C581 C579 1.380 . S
C581 C582 1.391 . S
C581 H591 0.930 . S
C582 C581 1.391 . S
C582 C584 1.387 . S
C583 C580 1.398 . S
C583 C584 1.380 . S
C583 H592 0.930 . S
C584 C582 1.387 . S
C584 C583 1.380 . S
C584 H593 0.930 . S
C585 O562 1.254 1_554 S
C585 O563 1.268 . S
H586 C571 0.930 . S
H587 C572 0.930 . S
H588 C574 0.930 . S
H589 C575 0.930 . S
H590 C580 0.930 . S
H591 C581 0.930 . S
H592 C583 0.930 . S
H593 C584 0.930 . S
Gd594 N625 2.661 . S
Gd594 N631 2.601 . S
Gd594 O638 2.545 . S
Gd594 O639 2.606 . S
Gd594 O641 2.429 . S
Gd594 O642 2.545 . S
Gd594 O643 2.412 . S
Gd594 O645 2.362 . S
Gd594 O646 2.324 . S
Gd594 C653 2.828 . S
Gd595 N604 2.661 . S
Gd595 N608 2.601 . S
Gd595 O639 2.362 . S
Gd595 O640 2.324 . S
Gd595 O644 2.545 . S
Gd595 O645 2.606 . S
Gd595 O647 2.429 . S
Gd595 O648 2.545 . S
Gd595 O649 2.412 . S
Gd595 C662 2.828 . S
C596 C599 1.417 . S
C596 C601 1.431 . S
C596 C602 1.412 . S
C597 C600 1.437 . S
C597 C601 1.317 . S
C597 H616 0.929 . S
C598 C599 1.426 . S
C598 C600 1.413 . S
C598 N608 1.359 . S
C599 C596 1.417 . S
C599 C598 1.426 . S
C599 N604 1.350 . S
C600 C597 1.437 . S
C600 C598 1.413 . S
C600 C610 1.391 . S
C601 C596 1.431 . S
C601 C597 1.317 . S
C601 H612 0.930 . S
C602 C596 1.412 . S
C602 C603 1.355 . S
C602 H614 0.930 . S
C603 C602 1.355 . S
C603 C605 1.402 . S
C603 H615 0.930 . S
N604 Gd595 2.661 . S
N604 C599 1.350 . S
N604 C605 1.307 . S
C605 C603 1.402 . S
C605 N604 1.307 . S
C605 H606 0.930 . S
H606 C605 0.930 . S
C607 N608 1.334 . S
C607 C609 1.394 . S
C607 H611 0.930 . S
N608 Gd595 2.601 . S
N608 C598 1.359 . S
N608 C607 1.334 . S
C609 C607 1.394 . S
C609 C610 1.359 . S
C609 H621 0.930 . S
C610 C600 1.391 . S
C610 C609 1.359 . S
C610 H622 0.929 . S
H611 C607 0.930 . S
H612 C601 0.930 . S
H613 C630 0.930 . S
H614 C602 0.930 . S
H615 C603 0.930 . S
H616 C597 0.929 . S
H617 C635 0.930 . S
H618 C626 0.930 . S
H619 C627 0.930 . S
H620 C651 0.929 . S
H621 C609 0.930 . S
H622 C610 0.929 . S
H623 C652 0.930 . S
H624 C633 0.930 . S
N625 Gd594 2.661 . S
N625 C629 1.350 . S
N625 C630 1.307 . S
C626 H618 0.930 . S
C626 C627 1.355 . S
C626 C628 1.412 . S
C627 H619 0.930 . S
C627 C626 1.355 . S
C627 C630 1.402 . S
C628 C626 1.412 . S
C628 C629 1.417 . S
C628 C652 1.431 . S
C629 N625 1.350 . S
C629 C628 1.417 . S
C629 C632 1.426 . S
C630 H613 0.930 . S
C630 N625 1.307 . S
C630 C627 1.402 . S
N631 Gd594 2.601 . S
N631 C632 1.359 . S
N631 C635 1.334 . S
C632 C629 1.426 . S
C632 N631 1.359 . S
C632 C636 1.413 . S
C633 H624 0.930 . S
C633 C634 1.359 . S
C633 C635 1.394 . S
C634 C633 1.359 . S
C634 C636 1.391 . S
C634 H637 0.929 . S
C635 H617 0.930 . S
C635 N631 1.334 . S
C635 C633 1.394 . S
C636 C632 1.413 . S
C636 C634 1.391 . S
C636 C651 1.437 . S
H637 C634 0.929 . S
O638 Gd594 2.545 . S
O638 C653 1.258 . S
O639 Gd594 2.606 . S
O639 Gd595 2.362 . S
O639 C650 1.284 . S
O640 Gd595 2.324 . S
O640 C660 1.254 . S
O641 Gd594 2.429 . S
O641 C660 1.268 . S
O642 Gd594 2.545 . S
O642 C650 1.250 . S
O643 Gd594 2.412 . S
O643 C653 1.252 . S
O644 Gd595 2.545 . S
O644 C662 1.258 . S
O645 Gd594 2.362 . S
O645 Gd595 2.606 . S
O645 C661 1.284 . S
O646 Gd594 2.324 . S
O646 C669 1.254 . S
O647 Gd595 2.429 . S
O647 C669 1.268 . S
O648 Gd595 2.545 . S
O648 C661 1.250 . S
O649 Gd595 2.412 . S
O649 C662 1.252 . S
C650 O639 1.284 . S
C650 O642 1.250 . S
C651 H620 0.929 . S
C651 C636 1.437 . S
C651 C652 1.317 . S
C652 H623 0.930 . S
C652 C628 1.431 . S
C652 C651 1.317 . S
C653 Gd594 2.828 . S
C653 O638 1.258 . S
C653 O643 1.252 . S
C653 C654 1.497 . S
C654 C653 1.497 . S
C654 C655 1.395 . S
C654 C656 1.380 . S
C655 C654 1.395 . S
C655 C658 1.398 . S
C655 H670 0.930 . S
C656 C654 1.380 . S
C656 C657 1.391 . S
C656 H671 0.930 . S
C657 C656 1.391 . S
C657 C659 1.387 . S
C658 C655 1.398 . S
C658 C659 1.380 . S
C658 H672 0.930 . S
C659 C657 1.387 . S
C659 C658 1.380 . S
C659 H673 0.930 . S
C660 O640 1.254 . S
C660 O641 1.268 . S
C661 O645 1.284 . S
C661 O648 1.250 . S
C662 Gd595 2.828 . S
C662 O644 1.258 . S
C662 O649 1.252 . S
C662 C663 1.497 . S
C663 C662 1.497 . S
C663 C664 1.395 . S
C663 C665 1.380 . S
C664 C663 1.395 . S
C664 C667 1.398 . S
C664 H674 0.930 . S
C665 C663 1.380 . S
C665 C666 1.391 . S
C665 H675 0.930 . S
C666 C665 1.391 . S
C666 C668 1.387 . S
C667 C664 1.398 . S
C667 C668 1.380 . S
C667 H676 0.930 . S
C668 C666 1.387 . S
C668 C667 1.380 . S
C668 H677 0.930 . S
C669 O646 1.254 . S
C669 O647 1.268 . S
H670 C655 0.930 . S
H671 C656 0.930 . S
H672 C658 0.930 . S
H673 C659 0.930 . S
H674 C664 0.930 . S
H675 C665 0.930 . S
H676 C667 0.930 . S
H677 C668 0.930 . S
Gd678 N709 2.661 . S
Gd678 N715 2.601 . S
Gd678 O722 2.545 . S
Gd678 O723 2.606 . S
Gd678 O725 2.429 . S
Gd678 O726 2.545 . S
Gd678 O727 2.412 . S
Gd678 O729 2.362 . S
Gd678 O730 2.324 . S
Gd678 C737 2.828 . S
Gd679 N688 2.661 . S
Gd679 N692 2.601 . S
Gd679 O723 2.362 . S
Gd679 O724 2.324 . S
Gd679 O728 2.545 . S
Gd679 O729 2.606 . S
Gd679 O731 2.429 . S
Gd679 O732 2.545 . S
Gd679 O733 2.412 . S
Gd679 C746 2.828 . S
C680 C683 1.417 . S
C680 C685 1.431 . S
C680 C686 1.412 . S
C681 C684 1.437 . S
C681 C685 1.317 . S
C681 H700 0.929 . S
C682 C683 1.426 . S
C682 C684 1.413 . S
C682 N692 1.359 . S
C683 C680 1.417 . S
C683 C682 1.426 . S
C683 N688 1.350 . S
C684 C681 1.437 . S
C684 C682 1.413 . S
C684 C694 1.391 . S
C685 C680 1.431 . S
C685 C681 1.317 . S
C685 H696 0.930 . S
C686 C680 1.412 . S
C686 C687 1.355 . S
C686 H698 0.930 . S
C687 C686 1.355 . S
C687 C689 1.402 . S
C687 H699 0.930 . S
N688 Gd679 2.661 . S
N688 C683 1.350 . S
N688 C689 1.307 . S
C689 C687 1.402 . S
C689 N688 1.307 . S
C689 H690 0.930 . S
H690 C689 0.930 . S
C691 N692 1.334 . S
C691 C693 1.394 . S
C691 H695 0.930 . S
N692 Gd679 2.601 . S
N692 C682 1.359 . S
N692 C691 1.334 . S
C693 C691 1.394 . S
C693 C694 1.359 . S
C693 H705 0.930 . S
C694 C684 1.391 . S
C694 C693 1.359 . S
C694 H706 0.929 . S
H695 C691 0.930 . S
H696 C685 0.930 . S
H697 C714 0.930 . S
H698 C686 0.930 . S
H699 C687 0.930 . S
H700 C681 0.929 . S
H701 C719 0.930 . S
H702 C710 0.930 . S
H703 C711 0.930 . S
H704 C735 0.929 . S
H705 C693 0.930 . S
H706 C694 0.929 . S
H707 C736 0.930 . S
H708 C717 0.930 . S
N709 Gd678 2.661 . S
N709 C713 1.350 . S
N709 C714 1.307 . S
C710 H702 0.930 . S
C710 C711 1.355 . S
C710 C712 1.412 . S
C711 H703 0.930 . S
C711 C710 1.355 . S
C711 C714 1.402 . S
C712 C710 1.412 . S
C712 C713 1.417 . S
C712 C736 1.431 . S
C713 N709 1.350 . S
C713 C712 1.417 . S
C713 C716 1.426 . S
C714 H697 0.930 . S
C714 N709 1.307 . S
C714 C711 1.402 . S
N715 Gd678 2.601 . S
N715 C716 1.359 . S
N715 C719 1.334 . S
C716 C713 1.426 . S
C716 N715 1.359 . S
C716 C720 1.413 . S
C717 H708 0.930 . S
C717 C718 1.359 . S
C717 C719 1.394 . S
C718 C717 1.359 . S
C718 C720 1.391 . S
C718 H721 0.929 . S
C719 H701 0.930 . S
C719 N715 1.334 . S
C719 C717 1.394 . S
C720 C716 1.413 . S
C720 C718 1.391 . S
C720 C735 1.437 . S
H721 C718 0.929 . S
O722 Gd678 2.545 . S
O722 C737 1.258 . S
O723 Gd678 2.606 . S
O723 Gd679 2.362 . S
O723 C734 1.284 . S
O724 Gd679 2.324 . S
O724 C744 1.254 . S
O725 Gd678 2.429 . S
O725 C744 1.268 . S
O726 Gd678 2.545 . S
O726 C734 1.250 . S
O727 Gd678 2.412 . S
O727 C737 1.252 . S
O728 Gd679 2.545 . S
O728 C746 1.258 . S
O729 Gd678 2.362 . S
O729 Gd679 2.606 . S
O729 C745 1.284 . S
O730 Gd678 2.324 . S
O730 C753 1.254 . S
O731 Gd679 2.429 . S
O731 C753 1.268 . S
O732 Gd679 2.545 . S
O732 C745 1.250 . S
O733 Gd679 2.412 . S
O733 C746 1.252 . S
C734 O723 1.284 . S
C734 O726 1.250 . S
C735 H704 0.929 . S
C735 C720 1.437 . S
C735 C736 1.317 . S
C736 H707 0.930 . S
C736 C712 1.431 . S
C736 C735 1.317 . S
C737 Gd678 2.828 . S
C737 O722 1.258 . S
C737 O727 1.252 . S
C737 C738 1.497 . S
C738 C737 1.497 . S
C738 C739 1.395 . S
C738 C740 1.380 . S
C739 C738 1.395 . S
C739 C742 1.398 . S
C739 H754 0.930 . S
C740 C738 1.380 . S
C740 C741 1.391 . S
C740 H755 0.930 . S
C741 C740 1.391 . S
C741 C743 1.387 . S
C742 C739 1.398 . S
C742 C743 1.380 . S
C742 H756 0.930 . S
C743 C741 1.387 . S
C743 C742 1.380 . S
C743 H757 0.930 . S
C744 O724 1.254 . S
C744 O725 1.268 . S
C745 O729 1.284 . S
C745 O732 1.250 . S
C746 Gd679 2.828 . S
C746 O728 1.258 . S
C746 O733 1.252 . S
C746 C747 1.497 . S
C747 C746 1.497 . S
C747 C748 1.395 . S
C747 C749 1.380 . S
C748 C747 1.395 . S
C748 C751 1.398 . S
C748 H758 0.930 . S
C749 C747 1.380 . S
C749 C750 1.391 . S
C749 H759 0.930 . S
C750 C749 1.391 . S
C750 C752 1.387 . S
C751 C748 1.398 . S
C751 C752 1.380 . S
C751 H760 0.930 . S
C752 C750 1.387 . S
C752 C751 1.380 . S
C752 H761 0.930 . S
C753 O730 1.254 . S
C753 O731 1.268 . S
H754 C739 0.930 . S
H755 C740 0.930 . S
H756 C742 0.930 . S
H757 C743 0.930 . S
H758 C748 0.930 . S
H759 C749 0.930 . S
H760 C751 0.930 . S
H761 C752 0.930 . S
Gd762 N793 2.661 . S
Gd762 N799 2.601 . S
Gd762 O806 2.545 . S
Gd762 O807 2.606 . S
Gd762 O809 2.429 . S
Gd762 O810 2.545 . S
Gd762 O811 2.412 . S
Gd762 O813 2.362 . S
Gd762 O814 2.324 . S
Gd762 C821 2.828 . S
Gd763 N772 2.661 . S
Gd763 N776 2.601 . S
Gd763 O807 2.362 . S
Gd763 O808 2.324 . S
Gd763 O812 2.545 . S
Gd763 O813 2.606 . S
Gd763 O815 2.429 . S
Gd763 O816 2.545 . S
Gd763 O817 2.412 . S
Gd763 C830 2.828 . S
C764 C767 1.417 . S
C764 C769 1.431 . S
C764 C770 1.412 . S
C765 C768 1.437 . S
C765 C769 1.317 . S
C765 H784 0.929 . S
C766 C767 1.426 . S
C766 C768 1.413 . S
C766 N776 1.359 . S
C767 C764 1.417 . S
C767 C766 1.426 . S
C767 N772 1.350 . S
C768 C765 1.437 . S
C768 C766 1.413 . S
C768 C778 1.391 . S
C769 C764 1.431 . S
C769 C765 1.317 . S
C769 H780 0.930 . S
C770 C764 1.412 . S
C770 C771 1.355 . S
C770 H782 0.930 . S
C771 C770 1.355 . S
C771 C773 1.402 . S
C771 H783 0.930 . S
N772 Gd763 2.661 . S
N772 C767 1.350 . S
N772 C773 1.307 . S
C773 C771 1.402 . S
C773 N772 1.307 . S
C773 H774 0.930 . S
H774 C773 0.930 . S
C775 N776 1.334 . S
C775 C777 1.394 . S
C775 H779 0.930 . S
N776 Gd763 2.601 . S
N776 C766 1.359 . S
N776 C775 1.334 . S
C777 C775 1.394 . S
C777 C778 1.359 . S
C777 H789 0.930 . S
C778 C768 1.391 . S
C778 C777 1.359 . S
C778 H790 0.929 . S
H779 C775 0.930 . S
H780 C769 0.930 . S
H781 C798 0.930 . S
H782 C770 0.930 . S
H783 C771 0.930 . S
H784 C765 0.929 . S
H785 C803 0.930 . S
H786 C794 0.930 . S
H787 C795 0.930 . S
H788 C819 0.929 . S
H789 C777 0.930 . S
H790 C778 0.929 . S
H791 C820 0.930 . S
H792 C801 0.930 . S
N793 Gd762 2.661 . S
N793 C797 1.350 . S
N793 C798 1.307 . S
C794 H786 0.930 . S
C794 C795 1.355 . S
C794 C796 1.412 . S
C795 H787 0.930 . S
C795 C794 1.355 . S
C795 C798 1.402 . S
C796 C794 1.412 . S
C796 C797 1.417 . S
C796 C820 1.431 . S
C797 N793 1.350 . S
C797 C796 1.417 . S
C797 C800 1.426 . S
C798 H781 0.930 . S
C798 N793 1.307 . S
C798 C795 1.402 . S
N799 Gd762 2.601 . S
N799 C800 1.359 . S
N799 C803 1.334 . S
C800 C797 1.426 . S
C800 N799 1.359 . S
C800 C804 1.413 . S
C801 H792 0.930 . S
C801 C802 1.359 . S
C801 C803 1.394 . S
C802 C801 1.359 . S
C802 C804 1.391 . S
C802 H805 0.929 . S
C803 H785 0.930 . S
C803 N799 1.334 . S
C803 C801 1.394 . S
C804 C800 1.413 . S
C804 C802 1.391 . S
C804 C819 1.437 . S
H805 C802 0.929 . S
O806 Gd762 2.545 . S
O806 C821 1.258 . S
O807 Gd762 2.606 . S
O807 Gd763 2.362 . S
O807 C818 1.284 . S
O808 Gd763 2.324 . S
O808 C828 1.254 . S
O809 Gd762 2.429 . S
O809 C828 1.268 . S
O810 Gd762 2.545 . S
O810 C818 1.250 . S
O811 Gd762 2.412 . S
O811 C821 1.252 . S
O812 Gd763 2.545 . S
O812 C830 1.258 . S
O813 Gd762 2.362 . S
O813 Gd763 2.606 . S
O813 C829 1.284 . S
O814 Gd762 2.324 . S
O814 C837 1.254 . S
O815 Gd763 2.429 . S
O815 C837 1.268 . S
O816 Gd763 2.545 . S
O816 C829 1.250 . S
O817 Gd763 2.412 . S
O817 C830 1.252 . S
C818 O807 1.284 . S
C818 O810 1.250 . S
C819 H788 0.929 . S
C819 C804 1.437 . S
C819 C820 1.317 . S
C820 H791 0.930 . S
C820 C796 1.431 . S
C820 C819 1.317 . S
C821 Gd762 2.828 . S
C821 O806 1.258 . S
C821 O811 1.252 . S
C821 C822 1.497 . S
C822 C821 1.497 . S
C822 C823 1.395 . S
C822 C824 1.380 . S
C823 C822 1.395 . S
C823 C826 1.398 . S
C823 H838 0.930 . S
C824 C822 1.380 . S
C824 C825 1.391 . S
C824 H839 0.930 . S
C825 C824 1.391 . S
C825 C827 1.387 . S
C826 C823 1.398 . S
C826 C827 1.380 . S
C826 H840 0.930 . S
C827 C825 1.387 . S
C827 C826 1.380 . S
C827 H841 0.930 . S
C828 O808 1.254 . S
C828 O809 1.268 . S
C829 O813 1.284 . S
C829 O816 1.250 . S
C830 Gd763 2.828 . S
C830 O812 1.258 . S
C830 O817 1.252 . S
C830 C831 1.497 . S
C831 C830 1.497 . S
C831 C832 1.395 . S
C831 C833 1.380 . S
C832 C831 1.395 . S
C832 C835 1.398 . S
C832 H842 0.930 . S
C833 C831 1.380 . S
C833 C834 1.391 . S
C833 H843 0.930 . S
C834 C833 1.391 . S
C834 C836 1.387 . S
C835 C832 1.398 . S
C835 C836 1.380 . S
C835 H844 0.930 . S
C836 C834 1.387 . S
C836 C835 1.380 . S
C836 H845 0.930 . S
C837 O814 1.254 . S
C837 O815 1.268 . S
H838 C823 0.930 . S
H839 C824 0.930 . S
H840 C826 0.930 . S
H841 C827 0.930 . S
H842 C832 0.930 . S
H843 C833 0.930 . S
H844 C835 0.930 . S
H845 C836 0.930 . S
Gd846 N877 2.661 . S
Gd846 N883 2.601 . S
Gd846 O890 2.545 . S
Gd846 O891 2.606 . S
Gd846 O893 2.429 . S
Gd846 O894 2.545 . S
Gd846 O895 2.412 . S
Gd846 O897 2.362 . S
Gd846 O898 2.324 . S
Gd846 C905 2.828 . S
Gd847 N856 2.661 . S
Gd847 N860 2.601 . S
Gd847 O891 2.362 . S
Gd847 O892 2.324 . S
Gd847 O896 2.545 . S
Gd847 O897 2.606 . S
Gd847 O899 2.429 . S
Gd847 O900 2.545 . S
Gd847 O901 2.412 . S
Gd847 C914 2.828 . S
C848 C851 1.417 . S
C848 C853 1.431 . S
C848 C854 1.412 . S
C849 C852 1.437 . S
C849 C853 1.317 . S
C849 H868 0.929 . S
C850 C851 1.426 . S
C850 C852 1.413 . S
C850 N860 1.359 . S
C851 C848 1.417 . S
C851 C850 1.426 . S
C851 N856 1.350 . S
C852 C849 1.437 . S
C852 C850 1.413 . S
C852 C862 1.391 . S
C853 C848 1.431 . S
C853 C849 1.317 . S
C853 H864 0.930 . S
C854 C848 1.412 . S
C854 C855 1.355 . S
C854 H866 0.930 . S
C855 C854 1.355 . S
C855 C857 1.402 . S
C855 H867 0.930 . S
N856 Gd847 2.661 . S
N856 C851 1.350 . S
N856 C857 1.307 . S
C857 C855 1.402 . S
C857 N856 1.307 . S
C857 H858 0.930 . S
H858 C857 0.930 . S
C859 N860 1.334 . S
C859 C861 1.394 . S
C859 H863 0.930 . S
N860 Gd847 2.601 . S
N860 C850 1.359 . S
N860 C859 1.334 . S
C861 C859 1.394 . S
C861 C862 1.359 . S
C861 H873 0.930 . S
C862 C852 1.391 . S
C862 C861 1.359 . S
C862 H874 0.929 . S
H863 C859 0.930 . S
H864 C853 0.930 . S
H865 C882 0.930 . S
H866 C854 0.930 . S
H867 C855 0.930 . S
H868 C849 0.929 . S
H869 C887 0.930 . S
H870 C878 0.930 . S
H871 C879 0.930 . S
H872 C903 0.929 . S
H873 C861 0.930 . S
H874 C862 0.929 . S
H875 C904 0.930 . S
H876 C885 0.930 . S
N877 Gd846 2.661 . S
N877 C881 1.350 . S
N877 C882 1.307 . S
C878 H870 0.930 . S
C878 C879 1.355 . S
C878 C880 1.412 . S
C879 H871 0.930 . S
C879 C878 1.355 . S
C879 C882 1.402 . S
C880 C878 1.412 . S
C880 C881 1.417 . S
C880 C904 1.431 . S
C881 N877 1.350 . S
C881 C880 1.417 . S
C881 C884 1.426 . S
C882 H865 0.930 . S
C882 N877 1.307 . S
C882 C879 1.402 . S
N883 Gd846 2.601 . S
N883 C884 1.359 . S
N883 C887 1.334 . S
C884 C881 1.426 . S
C884 N883 1.359 . S
C884 C888 1.413 . S
C885 H876 0.930 . S
C885 C886 1.359 . S
C885 C887 1.394 . S
C886 C885 1.359 . S
C886 C888 1.391 . S
C886 H889 0.929 . S
C887 H869 0.930 . S
C887 N883 1.334 . S
C887 C885 1.394 . S
C888 C884 1.413 . S
C888 C886 1.391 . S
C888 C903 1.437 . S
H889 C886 0.929 . S
O890 Gd846 2.545 . S
O890 C905 1.258 . S
O891 Gd846 2.606 . S
O891 Gd847 2.362 . S
O891 C902 1.284 . S
O892 Gd847 2.324 . S
O892 C912 1.254 . S
O893 Gd846 2.429 . S
O893 C912 1.268 . S
O894 Gd846 2.545 . S
O894 C902 1.250 . S
O895 Gd846 2.412 . S
O895 C905 1.252 . S
O896 Gd847 2.545 . S
O896 C914 1.258 . S
O897 Gd846 2.362 . S
O897 Gd847 2.606 . S
O897 C913 1.284 . S
O898 Gd846 2.324 . S
O898 C921 1.254 . S
O899 Gd847 2.429 . S
O899 C921 1.268 . S
O900 Gd847 2.545 . S
O900 C913 1.250 . S
O901 Gd847 2.412 . S
O901 C914 1.252 . S
C902 O891 1.284 . S
C902 O894 1.250 . S
C903 H872 0.929 . S
C903 C888 1.437 . S
C903 C904 1.317 . S
C904 H875 0.930 . S
C904 C880 1.431 . S
C904 C903 1.317 . S
C905 Gd846 2.828 . S
C905 O890 1.258 . S
C905 O895 1.252 . S
C905 C906 1.497 . S
C906 C905 1.497 . S
C906 C907 1.395 . S
C906 C908 1.380 . S
C907 C906 1.395 . S
C907 C910 1.398 . S
C907 H922 0.930 . S
C908 C906 1.380 . S
C908 C909 1.391 . S
C908 H923 0.930 . S
C909 C908 1.391 . S
C909 C911 1.387 . S
C910 C907 1.398 . S
C910 C911 1.380 . S
C910 H924 0.930 . S
C911 C909 1.387 . S
C911 C910 1.380 . S
C911 H925 0.930 . S
C912 O892 1.254 . S
C912 O893 1.268 . S
C913 O897 1.284 . S
C913 O900 1.250 . S
C914 Gd847 2.828 . S
C914 O896 1.258 . S
C914 O901 1.252 . S
C914 C915 1.497 . S
C915 C914 1.497 . S
C915 C916 1.395 . S
C915 C917 1.380 . S
C916 C915 1.395 . S
C916 C919 1.398 . S
C916 H926 0.930 . S
C917 C915 1.380 . S
C917 C918 1.391 . S
C917 H927 0.930 . S
C918 C917 1.391 . S
C918 C920 1.387 . S
C919 C916 1.398 . S
C919 C920 1.380 . S
C919 H928 0.930 . S
C920 C918 1.387 . S
C920 C919 1.380 . S
C920 H929 0.930 . S
C921 O898 1.254 . S
C921 O899 1.268 . S
H922 C907 0.930 . S
H923 C908 0.930 . S
H924 C910 0.930 . S
H925 C911 0.930 . S
H926 C916 0.930 . S
H927 C917 0.930 . S
H928 C919 0.930 . S
H929 C920 0.930 . S
Gd930 N961 2.661 . S
Gd930 N967 2.601 . S
Gd930 O974 2.545 . S
Gd930 O975 2.606 . S
Gd930 O977 2.429 . S
Gd930 O978 2.545 . S
Gd930 O979 2.412 . S
Gd930 O981 2.362 . S
Gd930 O982 2.324 . S
Gd930 C989 2.828 . S
Gd931 N940 2.661 . S
Gd931 N944 2.601 . S
Gd931 O975 2.362 . S
Gd931 O976 2.324 . S
Gd931 O980 2.545 . S
Gd931 O981 2.606 . S
Gd931 O983 2.429 . S
Gd931 O984 2.545 . S
Gd931 O985 2.412 . S
Gd931 C998 2.828 . S
C932 C935 1.417 . S
C932 C937 1.431 . S
C932 C938 1.412 . S
C933 C936 1.437 . S
C933 C937 1.317 . S
C933 H952 0.929 . S
C934 C935 1.426 . S
C934 C936 1.413 . S
C934 N944 1.359 . S
C935 C932 1.417 . S
C935 C934 1.426 . S
C935 N940 1.350 . S
C936 C933 1.437 . S
C936 C934 1.413 . S
C936 C946 1.391 . S
C937 C932 1.431 . S
C937 C933 1.317 . S
C937 H948 0.930 . S
C938 C932 1.412 . S
C938 C939 1.355 . S
C938 H950 0.930 . S
C939 C938 1.355 . S
C939 C941 1.402 . S
C939 H951 0.930 . S
N940 Gd931 2.661 . S
N940 C935 1.350 . S
N940 C941 1.307 . S
C941 C939 1.402 . S
C941 N940 1.307 . S
C941 H942 0.930 . S
H942 C941 0.930 . S
C943 N944 1.334 . S
C943 C945 1.394 . S
C943 H947 0.930 . S
N944 Gd931 2.601 . S
N944 C934 1.359 . S
N944 C943 1.334 . S
C945 C943 1.394 . S
C945 C946 1.359 . S
C945 H957 0.930 . S
C946 C936 1.391 . S
C946 C945 1.359 . S
C946 H958 0.929 . S
H947 C943 0.930 . S
H948 C937 0.930 . S
H949 C966 0.930 . S
H950 C938 0.930 . S
H951 C939 0.930 . S
H952 C933 0.929 . S
H953 C971 0.930 . S
H954 C962 0.930 . S
H955 C963 0.930 . S
H956 C987 0.929 . S
H957 C945 0.930 . S
H958 C946 0.929 . S
H959 C988 0.930 . S
H960 C969 0.930 . S
N961 Gd930 2.661 . S
N961 C965 1.350 . S
N961 C966 1.307 . S
C962 H954 0.930 . S
C962 C963 1.355 . S
C962 C964 1.412 . S
C963 H955 0.930 . S
C963 C962 1.355 . S
C963 C966 1.402 . S
C964 C962 1.412 . S
C964 C965 1.417 . S
C964 C988 1.431 . S
C965 N961 1.350 . S
C965 C964 1.417 . S
C965 C968 1.426 . S
C966 H949 0.930 . S
C966 N961 1.307 . S
C966 C963 1.402 . S
N967 Gd930 2.601 . S
N967 C968 1.359 . S
N967 C971 1.334 . S
C968 C965 1.426 . S
C968 N967 1.359 . S
C968 C972 1.413 . S
C969 H960 0.930 . S
C969 C970 1.359 . S
C969 C971 1.394 . S
C970 C969 1.359 . S
C970 C972 1.391 . S
C970 H973 0.929 . S
C971 H953 0.930 . S
C971 N967 1.334 . S
C971 C969 1.394 . S
C972 C968 1.413 . S
C972 C970 1.391 . S
C972 C987 1.437 . S
H973 C970 0.929 . S
O974 Gd930 2.545 . S
O974 C989 1.258 . S
O975 Gd930 2.606 . S
O975 Gd931 2.362 . S
O975 C986 1.284 . S
O976 Gd931 2.324 . S
O976 C996 1.254 . S
O977 Gd930 2.429 . S
O977 C996 1.268 . S
O978 Gd930 2.545 . S
O978 C986 1.250 . S
O979 Gd930 2.412 . S
O979 C989 1.252 . S
O980 Gd931 2.545 . S
O980 C998 1.258 . S
O981 Gd930 2.362 . S
O981 Gd931 2.606 . S
O981 C997 1.284 . S
O982 Gd930 2.324 . S
O982 C1005 1.254 . S
O983 Gd931 2.429 . S
O983 C1005 1.268 . S
O984 Gd931 2.545 . S
O984 C997 1.250 . S
O985 Gd931 2.412 . S
O985 C998 1.252 . S
C986 O975 1.284 . S
C986 O978 1.250 . S
C987 H956 0.929 . S
C987 C972 1.437 . S
C987 C988 1.317 . S
C988 H959 0.930 . S
C988 C964 1.431 . S
C988 C987 1.317 . S
C989 Gd930 2.828 . S
C989 O974 1.258 . S
C989 O979 1.252 . S
C989 C990 1.497 . S
C990 C989 1.497 . S
C990 C991 1.395 . S
C990 C992 1.380 . S
C991 C990 1.395 . S
C991 C994 1.398 . S
C991 H1006 0.930 . S
C992 C990 1.380 . S
C992 C993 1.391 . S
C992 H1007 0.930 . S
C993 C992 1.391 . S
C993 C995 1.387 . S
C994 C991 1.398 . S
C994 C995 1.380 . S
C994 H1008 0.930 . S
C995 C993 1.387 . S
C995 C994 1.380 . S
C995 H1009 0.930 . S
C996 O976 1.254 . S
C996 O977 1.268 . S
C997 O981 1.284 . S
C997 O984 1.250 . S
C998 Gd931 2.828 . S
C998 O980 1.258 . S
C998 O985 1.252 . S
C998 C999 1.497 . S
C999 C998 1.497 . S
C999 C1000 1.395 . S
C999 C1001 1.380 . S
C1000 C999 1.395 . S
C1000 C1003 1.398 . S
C1000 H1010 0.930 . S
C1001 C999 1.380 . S
C1001 C1002 1.391 . S
C1001 H1011 0.930 . S
C1002 C1001 1.391 . S
C1002 C1004 1.387 . S
C1003 C1000 1.398 . S
C1003 C1004 1.380 . S
C1003 H1012 0.930 . S
C1004 C1002 1.387 . S
C1004 C1003 1.380 . S
C1004 H1013 0.930 . S
C1005 O982 1.254 . S
C1005 O983 1.268 . S
H1006 C991 0.930 . S
H1007 C992 0.930 . S
H1008 C994 0.930 . S
H1009 C995 0.930 . S
H1010 C1000 0.930 . S
H1011 C1001 0.930 . S
H1012 C1003 0.930 . S
H1013 C1004 0.930 . S
Gd1014 N1045 2.661 . S
Gd1014 N1051 2.601 . S
Gd1014 O1058 2.545 . S
Gd1014 O1059 2.606 . S
Gd1014 O1061 2.429 . S
Gd1014 O1062 2.545 . S
Gd1014 O1063 2.412 . S
Gd1014 O1065 2.362 . S
Gd1014 O1066 2.324 . S
Gd1014 C1073 2.828 . S
Gd1015 N1024 2.661 . S
Gd1015 N1028 2.601 . S
Gd1015 O1059 2.362 . S
Gd1015 O1060 2.324 . S
Gd1015 O1064 2.545 . S
Gd1015 O1065 2.606 . S
Gd1015 O1067 2.429 . S
Gd1015 O1068 2.545 . S
Gd1015 O1069 2.412 . S
Gd1015 C1082 2.828 . S
C1016 C1019 1.417 . S
C1016 C1021 1.431 . S
C1016 C1022 1.412 . S
C1017 C1020 1.437 . S
C1017 C1021 1.317 . S
C1017 H1036 0.929 . S
C1018 C1019 1.426 . S
C1018 C1020 1.413 . S
C1018 N1028 1.359 . S
C1019 C1016 1.417 . S
C1019 C1018 1.426 . S
C1019 N1024 1.350 . S
C1020 C1017 1.437 . S
C1020 C1018 1.413 . S
C1020 C1030 1.391 . S
C1021 C1016 1.431 . S
C1021 C1017 1.317 . S
C1021 H1032 0.930 . S
C1022 C1016 1.412 . S
C1022 C1023 1.355 . S
C1022 H1034 0.930 . S
C1023 C1022 1.355 . S
C1023 C1025 1.402 . S
C1023 H1035 0.930 . S
N1024 Gd1015 2.661 . S
N1024 C1019 1.350 . S
N1024 C1025 1.307 . S
C1025 C1023 1.402 . S
C1025 N1024 1.307 . S
C1025 H1026 0.930 . S
H1026 C1025 0.930 . S
C1027 N1028 1.334 . S
C1027 C1029 1.394 . S
C1027 H1031 0.930 . S
N1028 Gd1015 2.601 . S
N1028 C1018 1.359 . S
N1028 C1027 1.334 . S
C1029 C1027 1.394 . S
C1029 C1030 1.359 . S
C1029 H1041 0.930 . S
C1030 C1020 1.391 . S
C1030 C1029 1.359 . S
C1030 H1042 0.929 . S
H1031 C1027 0.930 . S
H1032 C1021 0.930 . S
H1033 C1050 0.930 . S
H1034 C1022 0.930 . S
H1035 C1023 0.930 . S
H1036 C1017 0.929 . S
H1037 C1055 0.930 . S
H1038 C1046 0.930 . S
H1039 C1047 0.930 . S
H1040 C1071 0.929 . S
H1041 C1029 0.930 . S
H1042 C1030 0.929 . S
H1043 C1072 0.930 . S
H1044 C1053 0.930 . S
N1045 Gd1014 2.661 . S
N1045 C1049 1.350 . S
N1045 C1050 1.307 . S
C1046 H1038 0.930 . S
C1046 C1047 1.355 . S
C1046 C1048 1.412 . S
C1047 H1039 0.930 . S
C1047 C1046 1.355 . S
C1047 C1050 1.402 . S
C1048 C1046 1.412 . S
C1048 C1049 1.417 . S
C1048 C1072 1.431 . S
C1049 N1045 1.350 . S
C1049 C1048 1.417 . S
C1049 C1052 1.426 . S
C1050 H1033 0.930 . S
C1050 N1045 1.307 . S
C1050 C1047 1.402 . S
N1051 Gd1014 2.601 . S
N1051 C1052 1.359 . S
N1051 C1055 1.334 . S
C1052 C1049 1.426 . S
C1052 N1051 1.359 . S
C1052 C1056 1.413 . S
C1053 H1044 0.930 . S
C1053 C1054 1.359 . S
C1053 C1055 1.394 . S
C1054 C1053 1.359 . S
C1054 C1056 1.391 . S
C1054 H1057 0.929 . S
C1055 H1037 0.930 . S
C1055 N1051 1.334 . S
C1055 C1053 1.394 . S
C1056 C1052 1.413 . S
C1056 C1054 1.391 . S
C1056 C1071 1.437 . S
H1057 C1054 0.929 . S
O1058 Gd1014 2.545 . S
O1058 C1073 1.258 . S
O1059 Gd1014 2.606 . S
O1059 Gd1015 2.362 . S
O1059 C1070 1.284 . S
O1060 Gd1015 2.324 . S
O1060 C1080 1.254 . S
O1061 Gd1014 2.429 . S
O1061 C1080 1.268 . S
O1062 Gd1014 2.545 . S
O1062 C1070 1.250 . S
O1063 Gd1014 2.412 . S
O1063 C1073 1.252 . S
O1064 Gd1015 2.545 . S
O1064 C1082 1.258 . S
O1065 Gd1014 2.362 . S
O1065 Gd1015 2.606 . S
O1065 C1081 1.284 . S
O1066 Gd1014 2.324 . S
O1066 C1089 1.254 . S
O1067 Gd1015 2.429 . S
O1067 C1089 1.268 . S
O1068 Gd1015 2.545 . S
O1068 C1081 1.250 . S
O1069 Gd1015 2.412 . S
O1069 C1082 1.252 . S
C1070 O1059 1.284 . S
C1070 O1062 1.250 . S
C1071 H1040 0.929 . S
C1071 C1056 1.437 . S
C1071 C1072 1.317 . S
C1072 H1043 0.930 . S
C1072 C1048 1.431 . S
C1072 C1071 1.317 . S
C1073 Gd1014 2.828 . S
C1073 O1058 1.258 . S
C1073 O1063 1.252 . S
C1073 C1074 1.497 . S
C1074 C1073 1.497 . S
C1074 C1075 1.395 . S
C1074 C1076 1.380 . S
C1075 C1074 1.395 . S
C1075 C1078 1.398 . S
C1075 H1090 0.930 . S
C1076 C1074 1.380 . S
C1076 C1077 1.391 . S
C1076 H1091 0.930 . S
C1077 C1076 1.391 . S
C1077 C1079 1.387 . S
C1078 C1075 1.398 . S
C1078 C1079 1.380 . S
C1078 H1092 0.930 . S
C1079 C1077 1.387 . S
C1079 C1078 1.380 . S
C1079 H1093 0.930 . S
C1080 O1060 1.254 . S
C1080 O1061 1.268 . S
C1081 O1065 1.284 . S
C1081 O1068 1.250 . S
C1082 Gd1015 2.828 . S
C1082 O1064 1.258 . S
C1082 O1069 1.252 . S
C1082 C1083 1.497 . S
C1083 C1082 1.497 . S
C1083 C1084 1.395 . S
C1083 C1085 1.380 . S
C1084 C1083 1.395 . S
C1084 C1087 1.398 . S
C1084 H1094 0.930 . S
C1085 C1083 1.380 . S
C1085 C1086 1.391 . S
C1085 H1095 0.930 . S
C1086 C1085 1.391 . S
C1086 C1088 1.387 . S
C1087 C1084 1.398 . S
C1087 C1088 1.380 . S
C1087 H1096 0.930 . S
C1088 C1086 1.387 . S
C1088 C1087 1.380 . S
C1088 H1097 0.930 . S
C1089 O1066 1.254 . S
C1089 O1067 1.268 . S
H1090 C1075 0.930 . S
H1091 C1076 0.930 . S
H1092 C1078 0.930 . S
H1093 C1079 0.930 . S
H1094 C1084 0.930 . S
H1095 C1085 0.930 . S
H1096 C1087 0.930 . S
H1097 C1088 0.930 . S
H1098 C1106 0.929 . S
H1099 C1108 0.930 . S
H1100 C1110 0.930 . S
H1101 C1113 0.929 . S
H1102 C1116 0.930 . S
H1103 C1118 0.960 . S
H1104 C1118 0.960 . S
H1105 C1118 0.960 . S
C1106 H1098 0.929 . S
C1106 C1107 1.377 . S
C1106 C1108 1.384 . S
C1107 C1106 1.377 . S
C1107 C1113 1.390 . S
C1108 H1099 0.930 . S
C1108 C1106 1.384 . S
C1108 C1109 1.372 . S
C1109 C1108 1.372 . S
C1109 C1110 1.400 . S
C1109 C1114 1.490 . S
C1110 H1100 0.930 . S
C1110 C1109 1.400 . S
C1110 C1113 1.386 . S
H1111 C1127 0.930 . S
H1112 C1128 0.931 . S
C1113 H1101 0.929 . S
C1113 C1107 1.390 . S
C1113 C1110 1.386 . S
C1114 C1109 1.490 . S
C1114 C1116 1.395 . S
C1114 C1117 1.403 . S
H1115 C1121 0.930 . S
C1116 H1102 0.930 . S
C1116 C1114 1.395 . S
C1116 C1119 1.403 . S
C1117 C1114 1.403 . S
C1117 C1118 1.524 . S
C1117 C1121 1.400 . S
C1118 H1103 0.960 . S
C1118 H1104 0.960 . S
C1118 H1105 0.960 . S
C1118 C1117 1.524 . S
C1119 C1116 1.403 . S
C1119 C1120 1.392 . S
C1119 C1123 1.495 . S
C1120 C1119 1.392 . S
C1120 C1121 1.385 . S
C1120 C1122 1.478 . S
C1121 H1115 0.930 . S
C1121 C1117 1.400 . S
C1121 C1120 1.385 . S
C1122 C1120 1.478 . S
C1122 C1124 1.381 . S
C1122 C1128 1.383 . S
C1123 C1119 1.495 . S
C1123 H1129 0.959 . S
C1123 H1130 0.961 . S
C1123 H1131 0.960 . S
C1124 C1122 1.381 . S
C1124 C1125 1.394 . S
C1124 H1132 0.930 . S
C1125 C1124 1.394 . S
C1125 C1126 1.383 . S
C1125 H1133 0.929 1_554 S
C1126 C1125 1.383 . S
C1126 C1127 1.377 . S
C1127 H1111 0.930 . S
C1127 C1126 1.377 . S
C1127 C1128 1.379 . S
C1128 H1112 0.931 . S
C1128 C1122 1.383 . S
C1128 C1127 1.379 . S
H1129 C1123 0.959 . S
H1130 C1123 0.961 . S
H1131 C1123 0.960 . S
H1132 C1124 0.930 . S
H1133 C1125 0.929 1_556 S
H1134 C1142 0.929 . S
H1135 C1144 0.930 . S
H1136 C1146 0.930 . S
H1137 C1149 0.929 . S
H1138 C1152 0.930 . S
H1139 C1154 0.960 . S
H1140 C1154 0.960 . S
H1141 C1154 0.960 . S
C1142 H1134 0.929 . S
C1142 C1143 1.377 . S
C1142 C1144 1.384 . S
C1143 C1142 1.377 . S
C1143 C1149 1.390 . S
C1144 H1135 0.930 . S
C1144 C1142 1.384 . S
C1144 C1145 1.372 . S
C1145 C1144 1.372 . S
C1145 C1146 1.400 . S
C1145 C1150 1.490 . S
C1146 H1136 0.930 . S
C1146 C1145 1.400 . S
C1146 C1149 1.386 . S
H1147 C1163 0.930 . S
H1148 C1164 0.931 . S
C1149 H1137 0.929 . S
C1149 C1143 1.390 . S
C1149 C1146 1.386 . S
C1150 C1145 1.490 . S
C1150 C1152 1.395 . S
C1150 C1153 1.403 . S
H1151 C1157 0.930 . S
C1152 H1138 0.930 . S
C1152 C1150 1.395 . S
C1152 C1155 1.403 . S
C1153 C1150 1.403 . S
C1153 C1154 1.524 . S
C1153 C1157 1.400 . S
C1154 H1139 0.960 . S
C1154 H1140 0.960 . S
C1154 H1141 0.960 . S
C1154 C1153 1.524 . S
C1155 C1152 1.403 . S
C1155 C1156 1.392 . S
C1155 C1159 1.495 . S
C1156 C1155 1.392 . S
C1156 C1157 1.385 . S
C1156 C1158 1.478 . S
C1157 H1151 0.930 . S
C1157 C1153 1.400 . S
C1157 C1156 1.385 . S
C1158 C1156 1.478 . S
C1158 C1160 1.381 . S
C1158 C1164 1.383 . S
C1159 C1155 1.495 . S
C1159 H1165 0.959 . S
C1159 H1166 0.961 . S
C1159 H1167 0.960 . S
C1160 C1158 1.381 . S
C1160 C1161 1.394 . S
C1160 H1168 0.930 . S
C1161 C1160 1.394 . S
C1161 C1162 1.383 . S
C1161 H1169 0.929 . S
C1162 C1161 1.383 . S
C1162 C1163 1.377 . S
C1163 H1147 0.930 . S
C1163 C1162 1.377 . S
C1163 C1164 1.379 . S
C1164 H1148 0.931 . S
C1164 C1158 1.383 . S
C1164 C1163 1.379 . S
H1165 C1159 0.959 . S
H1166 C1159 0.961 . S
H1167 C1159 0.960 . S
H1168 C1160 0.930 . S
H1169 C1161 0.929 . S
H1170 C1178 0.929 . S
H1171 C1180 0.930 . S
H1172 C1182 0.930 . S
H1173 C1185 0.929 . S
H1174 C1188 0.930 . S
H1175 C1190 0.960 . S
H1176 C1190 0.960 . S
H1177 C1190 0.960 . S
C1178 H1170 0.929 . S
C1178 C1179 1.377 . S
C1178 C1180 1.384 . S
C1179 C1178 1.377 . S
C1179 C1185 1.390 . S
C1180 H1171 0.930 . S
C1180 C1178 1.384 . S
C1180 C1181 1.372 . S
C1181 C1180 1.372 . S
C1181 C1182 1.400 . S
C1181 C1186 1.490 . S
C1182 H1172 0.930 . S
C1182 C1181 1.400 . S
C1182 C1185 1.386 . S
H1183 C1199 0.930 . S
H1184 C1200 0.931 . S
C1185 H1173 0.929 . S
C1185 C1179 1.390 . S
C1185 C1182 1.386 . S
C1186 C1181 1.490 . S
C1186 C1188 1.395 . S
C1186 C1189 1.403 . S
H1187 C1193 0.930 . S
C1188 H1174 0.930 . S
C1188 C1186 1.395 . S
C1188 C1191 1.403 . S
C1189 C1186 1.403 . S
C1189 C1190 1.524 . S
C1189 C1193 1.400 . S
C1190 H1175 0.960 . S
C1190 H1176 0.960 . S
C1190 H1177 0.960 . S
C1190 C1189 1.524 . S
C1191 C1188 1.403 . S
C1191 C1192 1.392 . S
C1191 C1195 1.495 . S
C1192 C1191 1.392 . S
C1192 C1193 1.385 . S
C1192 C1194 1.478 . S
C1193 H1187 0.930 . S
C1193 C1189 1.400 . S
C1193 C1192 1.385 . S
C1194 C1192 1.478 . S
C1194 C1196 1.381 . S
C1194 C1200 1.383 . S
C1195 C1191 1.495 . S
C1195 H1201 0.959 . S
C1195 H1202 0.961 . S
C1195 H1203 0.960 . S
C1196 C1194 1.381 . S
C1196 C1197 1.394 . S
C1196 H1204 0.930 . S
C1197 C1196 1.394 . S
C1197 C1198 1.383 . S
C1197 H1205 0.894 1_554 S
C1198 C1197 1.383 . S
C1198 C1199 1.377 . S
C1199 H1183 0.930 . S
C1199 C1198 1.377 . S
C1199 C1200 1.379 . S
C1200 H1184 0.931 . S
C1200 C1194 1.383 . S
C1200 C1199 1.379 . S
H1201 C1195 0.959 . S
H1202 C1195 0.961 . S
H1203 C1195 0.960 . S
H1204 C1196 0.930 . S
H1205 C1197 0.894 1_556 S
H1206 C1214 0.929 . S
H1207 C1216 0.930 . S
H1208 C1218 0.930 . S
H1209 C1221 0.929 . S
H1210 C1224 0.930 . S
H1211 C1226 0.960 1_554 S
H1212 C1226 0.960 1_554 S
H1213 C1226 0.960 . S
C1214 H1206 0.929 . S
C1214 C1215 1.377 . S
C1214 C1216 1.384 . S
C1215 C1214 1.377 . S
C1215 C1221 1.390 . S
C1216 H1207 0.930 . S
C1216 C1214 1.384 . S
C1216 C1217 1.372 . S
C1217 C1216 1.372 . S
C1217 C1218 1.400 . S
C1217 C1222 1.490 . S
C1218 H1208 0.930 . S
C1218 C1217 1.400 . S
C1218 C1221 1.386 . S
H1219 C1235 0.930 . S
H1220 C1236 0.931 . S
C1221 H1209 0.929 . S
C1221 C1215 1.390 . S
C1221 C1218 1.386 . S
C1222 C1217 1.490 . S
C1222 C1224 1.395 . S
C1222 C1225 1.403 . S
H1223 C1229 0.930 . S
C1224 H1210 0.930 . S
C1224 C1222 1.395 . S
C1224 C1227 1.403 . S
C1225 C1222 1.403 . S
C1225 C1226 1.524 . S
C1225 C1229 1.400 . S
C1226 H1211 0.960 1_556 S
C1226 H1212 0.960 1_556 S
C1226 H1213 0.960 . S
C1226 C1225 1.524 . S
C1227 C1224 1.403 . S
C1227 C1228 1.392 . S
C1227 C1231 1.495 . S
C1228 C1227 1.392 . S
C1228 C1229 1.385 . S
C1228 C1230 1.478 . S
C1229 H1223 0.930 . S
C1229 C1225 1.400 . S
C1229 C1228 1.385 . S
C1230 C1228 1.478 . S
C1230 C1232 1.381 . S
C1230 C1236 1.383 . S
C1231 C1227 1.495 . S
C1231 H1237 0.959 . S
C1231 H1238 0.961 . S
C1231 H1239 0.960 . S
C1232 C1230 1.381 . S
C1232 C1233 1.394 1_556 S
C1232 H1240 0.930 1_556 S
C1233 C1232 1.394 1_554 S
C1233 C1234 1.383 1_554 S
C1233 H1241 0.929 . S
C1234 C1233 1.383 1_556 S
C1234 C1235 1.377 . S
C1235 H1219 0.930 . S
C1235 C1234 1.377 . S
C1235 C1236 1.379 . S
C1236 H1220 0.931 . S
C1236 C1230 1.383 . S
C1236 C1235 1.379 . S
H1237 C1231 0.959 . S
H1238 C1231 0.961 . S
H1239 C1231 0.960 . S
H1240 C1232 0.930 1_554 S
H1241 C1233 0.929 . S
H1242 C1250 0.929 . S
H1243 C1252 0.930 . S
H1244 C1254 0.930 . S
H1245 C1257 0.929 . S
H1246 C1260 0.930 . S
H1247 C1262 0.960 . S
H1248 C1262 0.960 . S
H1249 C1262 0.974 . S
C1250 H1242 0.929 . S
C1250 C1251 1.377 . S
C1250 C1252 1.384 . S
C1251 C1250 1.377 . S
C1251 C1257 1.390 . S
C1252 H1243 0.930 . S
C1252 C1250 1.384 . S
C1252 C1253 1.372 . S
C1253 C1252 1.372 . S
C1253 C1254 1.400 . S
C1253 C1258 1.490 . S
C1254 H1244 0.930 . S
C1254 C1253 1.400 . S
C1254 C1257 1.386 . S
H1255 C1271 0.930 . S
H1256 C1272 0.931 . S
C1257 H1245 0.929 . S
C1257 C1251 1.390 . S
C1257 C1254 1.386 . S
C1258 C1253 1.490 . S
C1258 C1260 1.395 . S
C1258 C1261 1.403 . S
H1259 C1265 0.930 1_554 S
C1260 H1246 0.930 . S
C1260 C1258 1.395 . S
C1260 C1263 1.403 . S
C1261 C1258 1.403 . S
C1261 C1262 1.524 1_556 S
C1261 C1265 1.400 . S
C1262 H1247 0.960 . S
C1262 H1248 0.960 . S
C1262 H1249 0.974 . S
C1262 C1261 1.524 1_554 S
C1263 C1260 1.403 . S
C1263 C1264 1.392 . S
C1263 C1267 1.495 . S
C1264 C1263 1.392 . S
C1264 C1265 1.385 . S
C1264 C1266 1.478 . S
C1265 H1259 0.930 1_556 S
C1265 C1261 1.400 . S
C1265 C1264 1.385 . S
C1266 C1264 1.478 . S
C1266 C1268 1.381 . S
C1266 C1272 1.383 . S
C1267 C1263 1.495 . S
C1267 H1273 0.959 . S
C1267 H1274 0.961 . S
C1267 H1275 0.960 . S
C1268 C1266 1.381 . S
C1268 C1269 1.394 . S
C1268 H1276 0.930 . S
C1269 C1268 1.394 . S
C1269 C1270 1.383 . S
C1269 H1277 0.929 . S
C1270 C1269 1.383 . S
C1270 C1271 1.377 . S
C1271 H1255 0.930 . S
C1271 C1270 1.377 . S
C1271 C1272 1.379 . S
C1272 H1256 0.931 . S
C1272 C1266 1.383 . S
C1272 C1271 1.379 . S
H1273 C1267 0.959 . S
H1274 C1267 0.961 . S
H1275 C1267 0.960 . S
H1276 C1268 0.930 . S
H1277 C1269 0.929 . S
H1278 C1286 0.929 . S
H1279 C1288 0.930 1_554 S
H1280 C1290 0.930 . S
H1281 C1293 0.929 . S
H1282 C1296 0.930 . S
H1283 C1298 0.960 . S
H1284 C1298 0.960 . S
H1285 C1298 0.960 . S
C1286 H1278 0.929 . S
C1286 C1287 1.377 . S
C1286 C1288 1.384 . S
C1287 C1286 1.377 . S
C1287 C1293 1.390 . S
C1288 H1279 0.930 1_556 S
C1288 C1286 1.384 . S
C1288 C1289 1.372 . S
C1289 C1288 1.372 . S
C1289 C1290 1.400 . S
C1289 C1294 1.490 . S
C1290 H1280 0.930 . S
C1290 C1289 1.400 . S
C1290 C1293 1.386 . S
H1291 C1307 0.930 . S
H1292 C1308 0.931 . S
C1293 H1281 0.929 . S
C1293 C1287 1.390 . S
C1293 C1290 1.386 . S
C1294 C1289 1.490 . S
C1294 C1296 1.395 . S
C1294 C1297 1.403 . S
H1295 C1301 0.930 . S
C1296 H1282 0.930 . S
C1296 C1294 1.395 . S
C1296 C1299 1.403 . S
C1297 C1294 1.403 . S
C1297 C1298 1.524 . S
C1297 C1301 1.400 . S
C1298 H1283 0.960 . S
C1298 H1284 0.960 . S
C1298 H1285 0.960 . S
C1298 C1297 1.524 . S
C1299 C1296 1.403 . S
C1299 C1300 1.392 . S
C1299 C1303 1.495 1_556 S
C1300 C1299 1.392 . S
C1300 C1301 1.385 . S
C1300 C1302 1.478 . S
C1301 H1295 0.930 . S
C1301 C1297 1.400 . S
C1301 C1300 1.385 . S
C1302 C1300 1.478 . S
C1302 C1304 1.381 1_556 S
C1302 C1308 1.383 . S
C1303 C1299 1.495 1_554 S
C1303 H1309 0.959 . S
C1303 H1310 0.961 1_554 S
C1303 H1311 0.960 . S
C1304 C1302 1.381 1_554 S
C1304 C1305 1.394 . S
C1304 H1312 0.930 . S
C1305 C1304 1.394 . S
C1305 C1306 1.378 . S
C1305 H1313 0.929 . S
C1306 C1305 1.378 . S
C1306 C1307 1.384 1_554 S
C1307 H1291 0.930 . S
C1307 C1306 1.384 1_556 S
C1307 C1308 1.379 . S
C1308 H1292 0.931 . S
C1308 C1302 1.383 . S
C1308 C1307 1.379 . S
H1309 C1303 0.959 . S
H1310 C1303 0.961 1_556 S
H1311 C1303 0.960 . S
H1312 C1304 0.930 . S
H1313 C1305 0.929 . S
H1314 C1322 0.929 . S
H1315 C1324 0.930 . S
H1316 C1326 0.930 1_554 S
H1317 C1329 0.967 . S
H1318 C1332 0.930 . S
H1319 C1334 0.974 . S
H1320 C1334 0.960 . S
H1321 C1334 0.960 1_554 S
C1322 H1314 0.929 . S
C1322 C1323 1.377 . S
C1322 C1324 1.384 . S
C1323 C1322 1.377 . S
C1323 C1329 1.390 . S
C1324 H1315 0.930 . S
C1324 C1322 1.384 . S
C1324 C1325 1.372 . S
C1325 C1324 1.372 . S
C1325 C1326 1.400 . S
C1325 C1330 1.490 . S
C1326 H1316 0.930 1_556 S
C1326 C1325 1.400 . S
C1326 C1329 1.386 . S
H1327 C1343 0.930 . S
H1328 C1344 0.931 . S
C1329 H1317 0.967 . S
C1329 C1323 1.390 . S
C1329 C1326 1.386 . S
C1330 C1325 1.490 . S
C1330 C1332 1.395 . S
C1330 C1333 1.403 . S
H1331 C1337 0.930 . S
C1332 H1318 0.930 . S
C1332 C1330 1.395 . S
C1332 C1335 1.403 . S
C1333 C1330 1.403 . S
C1333 C1334 1.524 . S
C1333 C1337 1.400 . S
C1334 H1319 0.974 . S
C1334 H1320 0.960 . S
C1334 H1321 0.960 1_556 S
C1334 C1333 1.524 . S
C1335 C1332 1.403 . S
C1335 C1336 1.392 . S
C1335 C1339 1.495 . S
C1336 C1335 1.392 . S
C1336 C1337 1.385 . S
C1336 C1338 1.478 . S
C1337 H1331 0.930 . S
C1337 C1333 1.400 . S
C1337 C1336 1.385 . S
C1338 C1336 1.478 . S
C1338 C1340 1.381 . S
C1338 C1344 1.383 1_556 S
C1339 C1335 1.495 . S
C1339 H1345 0.959 . S
C1339 H1346 0.961 . S
C1339 H1347 0.960 . S
C1340 C1338 1.381 . S
C1340 C1341 1.394 . S
C1340 H1348 0.930 . S
C1341 C1340 1.394 . S
C1341 C1342 1.383 . S
C1341 H1349 0.929 . S
C1342 C1341 1.383 . S
C1342 C1343 1.377 1_556 S
C1343 H1327 0.930 . S
C1343 C1342 1.377 1_554 S
C1343 C1344 1.379 . S
C1344 H1328 0.931 . S
C1344 C1338 1.383 1_554 S
C1344 C1343 1.379 . S
H1345 C1339 0.959 . S
H1346 C1339 0.961 . S
H1347 C1339 0.960 . S
H1348 C1340 0.930 . S
H1349 C1341 0.929 . S
H1350 C1358 0.929 . S
H1351 C1360 0.930 . S
H1352 C1362 0.930 . S
H1353 C1365 0.929 . S
H1354 C1368 0.930 . S
H1355 C1370 0.960 . S
H1356 C1370 0.960 . S
H1357 C1370 0.960 . S
C1358 H1350 0.929 . S
C1358 C1359 1.377 . S
C1358 C1360 1.384 . S
C1359 C1358 1.377 . S
C1359 C1365 1.390 . S
C1360 H1351 0.930 . S
C1360 C1358 1.384 . S
C1360 C1361 1.372 . S
C1361 C1360 1.372 . S
C1361 C1362 1.400 . S
C1361 C1366 1.490 . S
C1362 H1352 0.930 . S
C1362 C1361 1.400 . S
C1362 C1365 1.386 . S
H1363 C1379 0.930 1_554 S
H1364 C1380 0.931 . S
C1365 H1353 0.929 . S
C1365 C1359 1.390 . S
C1365 C1362 1.386 . S
C1366 C1361 1.490 . S
C1366 C1368 1.395 . S
C1366 C1369 1.403 . S
H1367 C1373 0.930 1_554 S
C1368 H1354 0.930 . S
C1368 C1366 1.395 . S
C1368 C1371 1.403 . S
C1369 C1366 1.403 . S
C1369 C1370 1.524 1_556 S
C1369 C1373 1.400 . S
C1370 H1355 0.960 . S
C1370 H1356 0.960 . S
C1370 H1357 0.960 . S
C1370 C1369 1.524 1_554 S
C1371 C1368 1.403 . S
C1371 C1372 1.392 . S
C1371 C1375 1.495 . S
C1372 C1371 1.392 . S
C1372 C1373 1.385 . S
C1372 C1374 1.478 . S
C1373 H1367 0.930 1_556 S
C1373 C1369 1.400 . S
C1373 C1372 1.385 . S
C1374 C1372 1.478 . S
C1374 C1376 1.381 . S
C1374 C1380 1.383 . S
C1375 C1371 1.495 . S
C1375 H1381 0.959 . S
C1375 H1382 0.961 . S
C1375 H1383 0.960 . S
C1376 C1374 1.381 . S
C1376 C1377 1.394 . S
C1376 H1384 0.930 . S
C1377 C1376 1.394 . S
C1377 C1378 1.383 . S
C1377 H1385 0.929 . S
C1378 C1377 1.383 . S
C1378 C1379 1.377 . S
C1379 H1363 0.930 1_556 S
C1379 C1378 1.377 . S
C1379 C1380 1.379 . S
C1380 H1364 0.931 . S
C1380 C1374 1.383 . S
C1380 C1379 1.379 . S
H1381 C1375 0.959 . S
H1382 C1375 0.961 . S
H1383 C1375 0.960 . S
H1384 C1376 0.930 . S
H1385 C1377 0.929 . S
H1386 C1394 0.900 1_554 S
H1387 C1396 0.930 1_554 S
H1388 C1398 0.930 . S
H1389 C1401 0.929 . S
H1390 C1404 0.930 . S
H1391 C1406 0.960 . S
H1392 C1406 0.960 . S
H1393 C1406 0.960 . S
C1394 H1386 0.900 1_556 S
C1394 C1395 1.377 . S
C1394 C1396 1.384 . S
C1395 C1394 1.377 . S
C1395 C1401 1.390 . S
C1396 H1387 0.930 1_556 S
C1396 C1394 1.384 . S
C1396 C1397 1.372 . S
C1397 C1396 1.372 . S
C1397 C1398 1.400 . S
C1397 C1402 1.490 . S
C1398 H1388 0.930 . S
C1398 C1397 1.400 . S
C1398 C1401 1.386 . S
H1399 C1415 0.930 . S
H1400 C1416 0.931 . S
C1401 H1389 0.929 . S
C1401 C1395 1.390 . S
C1401 C1398 1.386 . S
C1402 C1397 1.490 . S
C1402 C1404 1.395 1_556 S
C1402 C1405 1.403 . S
H1403 C1409 0.930 . S
C1404 H1390 0.930 . S
C1404 C1402 1.395 1_554 S
C1404 C1407 1.403 . S
C1405 C1402 1.403 . S
C1405 C1406 1.524 . S
C1405 C1409 1.400 . S
C1406 H1391 0.960 . S
C1406 H1392 0.960 . S
C1406 H1393 0.960 . S
C1406 C1405 1.524 . S
C1407 C1404 1.403 . S
C1407 C1408 1.392 1_554 S
C1407 C1411 1.495 . S
C1408 C1407 1.392 1_556 S
C1408 C1409 1.385 . S
C1408 C1410 1.478 . S
C1409 H1403 0.930 . S
C1409 C1405 1.400 . S
C1409 C1408 1.385 . S
C1410 C1408 1.478 . S
C1410 C1412 1.381 1_556 S
C1410 C1416 1.383 . S
C1411 C1407 1.495 . S
C1411 H1417 0.959 . S
C1411 H1418 0.961 . S
C1411 H1419 0.960 . S
C1412 C1410 1.381 1_554 S
C1412 C1413 1.394 . S
C1412 H1420 0.930 . S
C1413 C1412 1.394 . S
C1413 C1414 1.383 . S
C1413 H1421 0.929 . S
C1414 C1413 1.383 . S
C1414 C1415 1.377 1_554 S
C1415 H1399 0.930 . S
C1415 C1414 1.377 1_556 S
C1415 C1416 1.379 . S
C1416 H1400 0.931 . S
C1416 C1410 1.383 . S
C1416 C1415 1.379 . S
H1417 C1411 0.959 . S
H1418 C1411 0.961 . S
H1419 C1411 0.960 . S
H1420 C1412 0.930 . S
H1421 C1413 0.929 . S
H1422 C1430 0.929 . S
H1423 C1432 0.930 . S
H1424 C1434 0.930 . S
H1425 C1437 0.929 . S
H1426 C1440 0.930 . S
H1427 C1442 0.960 . S
H1428 C1442 0.960 . S
H1429 C1442 0.960 . S
C1430 H1422 0.929 . S
C1430 C1431 1.377 . S
C1430 C1432 1.384 . S
C1431 C1430 1.377 . S
C1431 C1437 1.390 . S
C1432 H1423 0.930 . S
C1432 C1430 1.384 . S
C1432 C1433 1.372 . S
C1433 C1432 1.372 . S
C1433 C1434 1.400 . S
C1433 C1438 1.490 . S
C1434 H1424 0.930 . S
C1434 C1433 1.400 . S
C1434 C1437 1.386 . S
H1435 C1451 0.930 . S
H1436 C1452 0.931 . S
C1437 H1425 0.929 . S
C1437 C1431 1.390 . S
C1437 C1434 1.386 . S
C1438 C1433 1.490 . S
C1438 C1440 1.395 . S
C1438 C1441 1.403 . S
H1439 C1445 0.930 . S
C1440 H1426 0.930 . S
C1440 C1438 1.395 . S
C1440 C1443 1.403 . S
C1441 C1438 1.403 . S
C1441 C1442 1.524 . S
C1441 C1445 1.400 . S
C1442 H1427 0.960 . S
C1442 H1428 0.960 . S
C1442 H1429 0.960 . S
C1442 C1441 1.524 . S
C1443 C1440 1.403 . S
C1443 C1444 1.392 . S
C1443 C1447 1.495 . S
C1444 C1443 1.392 . S
C1444 C1445 1.385 . S
C1444 C1446 1.478 . S
C1445 H1439 0.930 . S
C1445 C1441 1.400 . S
C1445 C1444 1.385 . S
C1446 C1444 1.478 . S
C1446 C1448 1.381 . S
C1446 C1452 1.383 . S
C1447 C1443 1.495 . S
C1447 H1453 0.959 . S
C1447 H1454 0.961 . S
C1447 H1455 0.960 . S
C1448 C1446 1.381 . S
C1448 C1449 1.394 . S
C1448 H1456 0.930 1_554 S
C1449 C1448 1.394 . S
C1449 C1450 1.383 . S
C1449 H1457 0.929 1_554 S
C1450 C1449 1.383 . S
C1450 C1451 1.377 . S
C1451 H1435 0.930 . S
C1451 C1450 1.377 . S
C1451 C1452 1.379 . S
C1452 H1436 0.931 . S
C1452 C1446 1.383 . S
C1452 C1451 1.379 . S
H1453 C1447 0.959 . S
H1454 C1447 0.961 . S
H1455 C1447 0.960 . S
H1456 C1448 0.930 1_556 S
H1457 C1449 0.929 1_556 S
H1458 C1466 0.929 . S
H1459 C1468 0.930 . S
H1460 C1470 0.930 . S
H1461 C1473 0.929 . S
H1462 C1476 0.930 . S
H1463 C1478 0.960 . S
H1464 C1478 0.960 . S
H1465 C1478 0.960 . S
C1466 H1458 0.929 . S
C1466 C1467 1.377 . S
C1466 C1468 1.384 . S
C1467 C1466 1.377 . S
C1467 C1473 1.390 . S
C1468 H1459 0.930 . S
C1468 C1466 1.384 . S
C1468 C1469 1.372 . S
C1469 C1468 1.372 . S
C1469 C1470 1.400 . S
C1469 C1474 1.490 . S
C1470 H1460 0.930 . S
C1470 C1469 1.400 . S
C1470 C1473 1.386 . S
H1471 C1487 0.930 . S
H1472 C1488 0.931 . S
C1473 H1461 0.929 . S
C1473 C1467 1.390 . S
C1473 C1470 1.386 . S
C1474 C1469 1.490 . S
C1474 C1476 1.395 . S
C1474 C1477 1.403 . S
H1475 C1481 0.930 . S
C1476 H1462 0.930 . S
C1476 C1474 1.395 . S
C1476 C1479 1.403 . S
C1477 C1474 1.403 . S
C1477 C1478 1.524 . S
C1477 C1481 1.400 . S
C1478 H1463 0.960 . S
C1478 H1464 0.960 . S
C1478 H1465 0.960 . S
C1478 C1477 1.524 . S
C1479 C1476 1.403 . S
C1479 C1480 1.392 . S
C1479 C1483 1.495 . S
C1480 C1479 1.392 . S
C1480 C1481 1.385 . S
C1480 C1482 1.478 . S
C1481 H1475 0.930 . S
C1481 C1477 1.400 . S
C1481 C1480 1.385 . S
C1482 C1480 1.478 . S
C1482 C1484 1.381 . S
C1482 C1488 1.383 . S
C1483 C1479 1.495 . S
C1483 H1489 0.959 . S
C1483 H1490 0.961 . S
C1483 H1491 0.960 . S
C1484 C1482 1.381 . S
C1484 C1485 1.394 . S
C1484 H1492 0.930 . S
C1485 C1484 1.394 . S
C1485 C1486 1.383 . S
C1485 H1493 0.929 1_554 S
C1486 C1485 1.383 . S
C1486 C1487 1.377 . S
C1487 H1471 0.930 . S
C1487 C1486 1.377 . S
C1487 C1488 1.379 . S
C1488 H1472 0.931 . S
C1488 C1482 1.383 . S
C1488 C1487 1.379 . S
H1489 C1483 0.959 . S
H1490 C1483 0.961 . S
H1491 C1483 0.960 . S
H1492 C1484 0.930 . S
H1493 C1485 0.929 1_556 S
H1494 C1502 0.929 . S
H1495 C1504 0.930 . S
H1496 C1506 0.930 . S
H1497 C1509 0.929 . S
H1498 C1512 0.930 . S
H1499 C1514 0.960 . S
H1500 C1514 0.960 . S
H1501 C1514 0.960 . S
C1502 H1494 0.929 . S
C1502 C1503 1.377 . S
C1502 C1504 1.384 . S
C1503 C1502 1.377 . S
C1503 C1509 1.390 . S
C1504 H1495 0.930 . S
C1504 C1502 1.384 . S
C1504 C1505 1.372 . S
C1505 C1504 1.372 . S
C1505 C1506 1.400 . S
C1505 C1510 1.490 . S
C1506 H1496 0.930 . S
C1506 C1505 1.400 . S
C1506 C1509 1.386 . S
H1507 C1523 0.930 . S
H1508 C1524 0.931 . S
C1509 H1497 0.929 . S
C1509 C1503 1.390 . S
C1509 C1506 1.386 . S
C1510 C1505 1.490 . S
C1510 C1512 1.395 . S
C1510 C1513 1.403 . S
H1511 C1517 0.930 . S
C1512 H1498 0.930 . S
C1512 C1510 1.395 . S
C1512 C1515 1.403 . S
C1513 C1510 1.403 . S
C1513 C1514 1.524 . S
C1513 C1517 1.400 . S
C1514 H1499 0.960 . S
C1514 H1500 0.960 . S
C1514 H1501 0.960 . S
C1514 C1513 1.524 . S
C1515 C1512 1.403 . S
C1515 C1516 1.392 . S
C1515 C1519 1.495 . S
C1516 C1515 1.392 . S
C1516 C1517 1.385 . S
C1516 C1518 1.478 . S
C1517 H1511 0.930 . S
C1517 C1513 1.400 . S
C1517 C1516 1.385 . S
C1518 C1516 1.478 . S
C1518 C1520 1.381 . S
C1518 C1524 1.383 . S
C1519 C1515 1.495 . S
C1519 H1525 0.959 . S
C1519 H1526 0.961 . S
C1519 H1527 0.960 . S
C1520 C1518 1.381 . S
C1520 C1521 1.394 . S
C1520 H1528 0.930 . S
C1521 C1520 1.394 . S
C1521 C1522 1.383 . S
C1521 H1529 0.929 . S
C1522 C1521 1.383 . S
C1522 C1523 1.377 . S
C1523 H1507 0.930 . S
C1523 C1522 1.377 . S
C1523 C1524 1.379 . S
C1524 H1508 0.931 . S
C1524 C1518 1.383 . S
C1524 C1523 1.379 . S
H1525 C1519 0.959 . S
H1526 C1519 0.961 . S
H1527 C1519 0.960 . S
H1528 C1520 0.930 . S
H1529 C1521 0.929 . S
H1530 C1538 0.929 . S
H1531 C1540 0.930 . S
H1532 C1542 0.930 . S
H1533 C1545 0.929 . S
H1534 C1548 0.930 . S
H1535 C1550 0.960 . S
H1536 C1550 0.960 . S
H1537 C1550 0.960 1_655 S
C1538 H1530 0.929 . S
C1538 C1539 1.377 . S
C1538 C1540 1.384 . S
C1539 C1538 1.377 . S
C1539 C1545 1.390 . S
C1540 H1531 0.930 . S
C1540 C1538 1.384 . S
C1540 C1541 1.372 . S
C1541 C1540 1.372 . S
C1541 C1542 1.400 . S
C1541 C1546 1.490 . S
C1542 H1532 0.930 . S
C1542 C1541 1.400 . S
C1542 C1545 1.386 . S
H1543 C1559 0.930 . S
H1544 C1560 0.931 . S
C1545 H1533 0.929 . S
C1545 C1539 1.390 . S
C1545 C1542 1.386 . S
C1546 C1541 1.490 . S
C1546 C1548 1.395 . S
C1546 C1549 1.403 1_655 S
H1547 C1553 0.930 . S
C1548 H1534 0.930 . S
C1548 C1546 1.395 . S
C1548 C1551 1.403 1_655 S
C1549 C1546 1.403 1_455 S
C1549 C1550 1.524 . S
C1549 C1553 1.400 . S
C1550 H1535 0.960 . S
C1550 H1536 0.960 . S
C1550 H1537 0.960 1_455 S
C1550 C1549 1.524 . S
C1551 C1548 1.403 1_455 S
C1551 C1552 1.392 . S
C1551 C1555 1.495 . S
C1552 C1551 1.392 . S
C1552 C1553 1.385 . S
C1552 C1554 1.478 . S
C1553 H1547 0.930 . S
C1553 C1549 1.400 . S
C1553 C1552 1.385 . S
C1554 C1552 1.478 . S
C1554 C1556 1.381 . S
C1554 C1560 1.383 . S
C1555 C1551 1.495 . S
C1555 H1561 0.959 1_455 S
C1555 H1562 0.961 . S
C1555 H1563 0.960 . S
C1556 C1554 1.381 . S
C1556 C1557 1.394 . S
C1556 H1564 0.930 . S
C1557 C1556 1.394 . S
C1557 C1558 1.383 . S
C1557 H1565 0.929 . S
C1558 C1557 1.383 . S
C1558 C1559 1.377 . S
C1559 H1543 0.930 . S
C1559 C1558 1.377 . S
C1559 C1560 1.379 . S
C1560 H1544 0.931 . S
C1560 C1554 1.383 . S
C1560 C1559 1.379 . S
H1561 C1555 0.959 1_655 S
H1562 C1555 0.961 . S
H1563 C1555 0.960 . S
H1564 C1556 0.930 . S
H1565 C1557 0.929 . S
H1566 C1574 0.929 . S
H1567 C1576 0.930 . S
H1568 C1578 0.930 . S
H1569 C1581 0.929 . S
H1570 C1584 0.930 . S
H1571 C1586 0.960 . S
H1572 C1586 0.960 . S
H1573 C1586 0.960 . S
C1574 H1566 0.929 . S
C1574 C1575 1.377 . S
C1574 C1576 1.384 . S
C1575 C1574 1.377 . S
C1575 C1581 1.390 . S
C1576 H1567 0.930 . S
C1576 C1574 1.384 . S
C1576 C1577 1.372 . S
C1577 C1576 1.372 . S
C1577 C1578 1.400 . S
C1577 C1582 1.490 . S
C1578 H1568 0.930 . S
C1578 C1577 1.400 . S
C1578 C1581 1.386 . S
H1579 C1595 0.930 . S
H1580 C1596 0.931 . S
C1581 H1569 0.929 . S
C1581 C1575 1.390 . S
C1581 C1578 1.386 . S
C1582 C1577 1.490 . S
C1582 C1584 1.395 . S
C1582 C1585 1.403 . S
H1583 C1589 0.930 . S
C1584 H1570 0.930 . S
C1584 C1582 1.395 . S
C1584 C1587 1.403 . S
C1585 C1582 1.403 . S
C1585 C1586 1.524 . S
C1585 C1589 1.400 . S
C1586 H1571 0.960 . S
C1586 H1572 0.960 . S
C1586 H1573 0.960 . S
C1586 C1585 1.524 . S
C1587 C1584 1.403 . S
C1587 C1588 1.392 . S
C1587 C1591 1.495 . S
C1588 C1587 1.392 . S
C1588 C1589 1.385 . S
C1588 C1590 1.478 . S
C1589 H1583 0.930 . S
C1589 C1585 1.400 . S
C1589 C1588 1.385 . S
C1590 C1588 1.478 . S
C1590 C1592 1.381 . S
C1590 C1596 1.383 . S
C1591 C1587 1.495 . S
C1591 H1597 0.959 . S
C1591 H1598 0.961 . S
C1591 H1599 0.960 . S
C1592 C1590 1.381 . S
C1592 C1593 1.394 . S
C1592 H1600 0.930 . S
C1593 C1592 1.394 . S
C1593 C1594 1.383 . S
C1593 H1601 0.929 . S
C1594 C1593 1.383 . S
C1594 C1595 1.377 . S
C1595 H1579 0.930 . S
C1595 C1594 1.377 . S
C1595 C1596 1.379 . S
C1596 H1580 0.931 . S
C1596 C1590 1.383 . S
C1596 C1595 1.379 . S
H1597 C1591 0.959 . S
H1598 C1591 0.961 . S
H1599 C1591 0.960 . S
H1600 C1592 0.930 . S
H1601 C1593 0.929 . S
H1602 C1610 0.929 . S
H1603 C1612 0.930 . S
H1604 C1614 0.930 . S
H1605 C1617 0.929 . S
H1606 C1620 0.930 . S
H1607 C1622 0.960 . S
H1608 C1622 0.960 . S
H1609 C1622 0.960 . S
C1610 H1602 0.929 . S
C1610 C1611 1.377 . S
C1610 C1612 1.384 . S
C1611 C1610 1.377 . S
C1611 C1617 1.390 . S
C1612 H1603 0.930 . S
C1612 C1610 1.384 . S
C1612 C1613 1.372 . S
C1613 C1612 1.372 . S
C1613 C1614 1.400 . S
C1613 C1618 1.490 . S
C1614 H1604 0.930 . S
C1614 C1613 1.400 . S
C1614 C1617 1.386 . S
H1615 C1631 0.930 . S
H1616 C1632 0.931 . S
C1617 H1605 0.929 . S
C1617 C1611 1.390 . S
C1617 C1614 1.386 . S
C1618 C1613 1.490 . S
C1618 C1620 1.395 . S
C1618 C1621 1.403 . S
H1619 C1625 0.955 . S
C1620 H1606 0.930 . S
C1620 C1618 1.395 . S
C1620 C1623 1.403 1_545 S
C1621 C1618 1.403 . S
C1621 C1622 1.524 . S
C1621 C1625 1.400 . S
C1622 H1607 0.960 . S
C1622 H1608 0.960 . S
C1622 H1609 0.960 . S
C1622 C1621 1.524 . S
C1623 C1620 1.403 1_565 S
C1623 C1624 1.392 . S
C1623 C1627 1.495 . S
C1624 C1623 1.392 . S
C1624 C1625 1.385 1_565 S
C1624 C1626 1.478 . S
C1625 H1619 0.955 . S
C1625 C1621 1.400 . S
C1625 C1624 1.385 1_545 S
C1626 C1624 1.478 . S
C1626 C1628 1.381 . S
C1626 C1632 1.383 . S
C1627 C1623 1.495 . S
C1627 H1633 0.959 . S
C1627 H1634 0.961 . S
C1627 H1635 0.960 . S
C1628 C1626 1.381 . S
C1628 C1629 1.394 . S
C1628 H1636 0.930 . S
C1629 C1628 1.394 . S
C1629 C1630 1.383 . S
C1629 H1637 0.929 . S
C1630 C1629 1.383 . S
C1630 C1631 1.377 . S
C1631 H1615 0.930 . S
C1631 C1630 1.377 . S
C1631 C1632 1.379 . S
C1632 H1616 0.931 . S
C1632 C1626 1.383 . S
C1632 C1631 1.379 . S
H1633 C1627 0.959 . S
H1634 C1627 0.961 . S
H1635 C1627 0.960 . S
H1636 C1628 0.930 . S
H1637 C1629 0.929 . S
H1638 C1646 0.929 . S
H1639 C1648 0.930 . S
H1640 C1650 0.930 . S
H1641 C1653 0.929 . S
H1642 C1656 0.930 . S
H1643 C1658 0.960 . S
H1644 C1658 0.960 . S
H1645 C1658 0.960 . S
C1646 H1638 0.929 . S
C1646 C1647 1.377 . S
C1646 C1648 1.384 . S
C1647 C1646 1.377 . S
C1647 C1653 1.390 . S
C1648 H1639 0.930 . S
C1648 C1646 1.384 . S
C1648 C1649 1.372 . S
C1649 C1648 1.372 . S
C1649 C1650 1.400 . S
C1649 C1654 1.490 . S
C1650 H1640 0.930 . S
C1650 C1649 1.400 . S
C1650 C1653 1.386 . S
H1651 C1667 0.930 . S
H1652 C1668 0.931 . S
C1653 H1641 0.929 . S
C1653 C1647 1.390 . S
C1653 C1650 1.386 . S
C1654 C1649 1.490 . S
C1654 C1656 1.395 . S
C1654 C1657 1.403 . S
H1655 C1661 0.930 . S
C1656 H1642 0.930 . S
C1656 C1654 1.395 . S
C1656 C1659 1.403 . S
C1657 C1654 1.403 . S
C1657 C1658 1.524 . S
C1657 C1661 1.400 . S
C1658 H1643 0.960 . S
C1658 H1644 0.960 . S
C1658 H1645 0.960 . S
C1658 C1657 1.524 . S
C1659 C1656 1.403 . S
C1659 C1660 1.392 . S
C1659 C1663 1.495 . S
C1660 C1659 1.392 . S
C1660 C1661 1.385 . S
C1660 C1662 1.478 . S
C1661 H1655 0.930 . S
C1661 C1657 1.400 . S
C1661 C1660 1.385 . S
C1662 C1660 1.478 . S
C1662 C1664 1.381 . S
C1662 C1668 1.383 . S
C1663 C1659 1.495 . S
C1663 H1669 0.959 . S
C1663 H1670 0.961 . S
C1663 H1671 0.960 . S
C1664 C1662 1.381 . S
C1664 C1665 1.394 . S
C1664 H1672 0.930 . S
C1665 C1664 1.394 . S
C1665 C1666 1.383 . S
C1665 H1673 0.929 . S
C1666 C1665 1.383 . S
C1666 C1667 1.377 . S
C1667 H1651 0.930 . S
C1667 C1666 1.377 . S
C1667 C1668 1.379 . S
C1668 H1652 0.931 . S
C1668 C1662 1.383 . S
C1668 C1667 1.379 . S
H1669 C1663 0.959 . S
H1670 C1663 0.961 . S
H1671 C1663 0.960 . S
H1672 C1664 0.930 . S
H1673 C1665 0.929 . S
H1674 C1682 0.929 . S
H1675 C1684 0.930 . S
H1676 C1686 0.930 . S
H1677 C1689 0.929 . S
H1678 C1692 0.930 . S
H1679 C1694 0.960 . S
H1680 C1694 0.960 . S
H1681 C1694 0.960 . S
C1682 H1674 0.929 . S
C1682 C1683 1.377 . S
C1682 C1684 1.384 . S
C1683 C1682 1.377 . S
C1683 C1689 1.390 . S
C1684 H1675 0.930 . S
C1684 C1682 1.384 . S
C1684 C1685 1.372 . S
C1685 C1684 1.372 . S
C1685 C1686 1.400 . S
C1685 C1690 1.490 . S
C1686 H1676 0.930 . S
C1686 C1685 1.400 . S
C1686 C1689 1.386 . S
H1687 C1703 0.930 . S
H1688 C1704 0.931 . S
C1689 H1677 0.929 . S
C1689 C1683 1.390 . S
C1689 C1686 1.386 . S
C1690 C1685 1.490 . S
C1690 C1692 1.395 . S
C1690 C1693 1.403 . S
H1691 C1697 0.930 . S
C1692 H1678 0.930 . S
C1692 C1690 1.395 . S
C1692 C1695 1.403 . S
C1693 C1690 1.403 . S
C1693 C1694 1.524 . S
C1693 C1697 1.400 . S
C1694 H1679 0.960 . S
C1694 H1680 0.960 . S
C1694 H1681 0.960 . S
C1694 C1693 1.524 . S
C1695 C1692 1.403 . S
C1695 C1696 1.392 . S
C1695 C1699 1.495 . S
C1696 C1695 1.392 . S
C1696 C1697 1.385 . S
C1696 C1698 1.478 . S
C1697 H1691 0.930 . S
C1697 C1693 1.400 . S
C1697 C1696 1.385 . S
C1698 C1696 1.478 . S
C1698 C1700 1.381 . S
C1698 C1704 1.383 . S
C1699 C1695 1.495 . S
C1699 H1705 0.959 . S
C1699 H1706 0.961 . S
C1699 H1707 0.960 . S
C1700 C1698 1.381 . S
C1700 C1701 1.394 . S
C1700 H1708 0.930 . S
C1701 C1700 1.394 . S
C1701 C1702 1.383 . S
C1701 H1709 0.929 . S
C1702 C1701 1.383 . S
C1702 C1703 1.377 . S
C1703 H1687 0.930 . S
C1703 C1702 1.377 . S
C1703 C1704 1.379 . S
C1704 H1688 0.931 . S
C1704 C1698 1.383 . S
C1704 C1703 1.379 . S
H1705 C1699 0.959 . S
H1706 C1699 0.961 . S
H1707 C1699 0.960 . S
H1708 C1700 0.930 . S
H1709 C1701 0.929 . S
H1710 C1718 0.929 . S
H1711 C1720 0.930 . S
H1712 C1722 0.930 . S
H1713 C1725 0.929 . S
H1714 C1728 0.930 . S
H1715 C1730 0.960 . S
H1716 C1730 0.960 . S
H1717 C1730 0.960 . S
C1718 H1710 0.929 . S
C1718 C1719 1.377 . S
C1718 C1720 1.384 . S
C1719 C1718 1.377 . S
C1719 C1725 1.390 . S
C1720 H1711 0.930 . S
C1720 C1718 1.384 . S
C1720 C1721 1.372 . S
C1721 C1720 1.372 . S
C1721 C1722 1.400 . S
C1721 C1726 1.490 . S
C1722 H1712 0.930 . S
C1722 C1721 1.400 . S
C1722 C1725 1.386 . S
H1723 C1739 0.930 . S
H1724 C1740 0.931 . S
C1725 H1713 0.929 . S
C1725 C1719 1.390 . S
C1725 C1722 1.386 . S
C1726 C1721 1.490 . S
C1726 C1728 1.395 . S
C1726 C1729 1.403 . S
H1727 C1733 0.930 . S
C1728 H1714 0.930 . S
C1728 C1726 1.395 . S
C1728 C1731 1.403 . S
C1729 C1726 1.403 . S
C1729 C1730 1.524 . S
C1729 C1733 1.400 . S
C1730 H1715 0.960 . S
C1730 H1716 0.960 . S
C1730 H1717 0.960 . S
C1730 C1729 1.524 . S
C1731 C1728 1.403 . S
C1731 C1732 1.392 . S
C1731 C1735 1.495 . S
C1732 C1731 1.392 . S
C1732 C1733 1.385 . S
C1732 C1734 1.478 . S
C1733 H1727 0.930 . S
C1733 C1729 1.400 . S
C1733 C1732 1.385 . S
C1734 C1732 1.478 . S
C1734 C1736 1.381 . S
C1734 C1740 1.383 . S
C1735 C1731 1.495 . S
C1735 H1741 0.959 . S
C1735 H1742 0.961 . S
C1735 H1743 0.960 . S
C1736 C1734 1.381 . S
C1736 C1737 1.394 . S
C1736 H1744 0.930 . S
C1737 C1736 1.394 . S
C1737 C1738 1.383 . S
C1737 H1745 0.929 . S
C1738 C1737 1.383 . S
C1738 C1739 1.377 . S
C1739 H1723 0.930 . S
C1739 C1738 1.377 . S
C1739 C1740 1.379 . S
C1740 H1724 0.931 . S
C1740 C1734 1.383 . S
C1740 C1739 1.379 . S
H1741 C1735 0.959 . S
H1742 C1735 0.961 . S
H1743 C1735 0.960 . S
H1744 C1736 0.930 . S
H1745 C1737 0.929 . S
H1746 C1754 0.929 . S
H1747 C1756 0.930 . S
H1748 C1758 0.930 . S
H1749 C1761 0.929 . S
H1750 C1764 0.930 . S
H1751 C1766 0.960 . S
H1752 C1766 0.960 . S
H1753 C1766 0.960 . S
C1754 H1746 0.929 . S
C1754 C1755 1.377 . S
C1754 C1756 1.384 . S
C1755 C1754 1.377 . S
C1755 C1761 1.390 . S
C1756 H1747 0.930 . S
C1756 C1754 1.384 . S
C1756 C1757 1.372 . S
C1757 C1756 1.372 . S
C1757 C1758 1.400 . S
C1757 C1762 1.490 . S
C1758 H1748 0.930 . S
C1758 C1757 1.400 . S
C1758 C1761 1.386 . S
H1759 C1775 0.930 . S
H1760 C1776 0.931 . S
C1761 H1749 0.929 . S
C1761 C1755 1.390 . S
C1761 C1758 1.386 . S
C1762 C1757 1.490 . S
C1762 C1764 1.395 . S
C1762 C1765 1.403 . S
H1763 C1769 0.930 . S
C1764 H1750 0.930 . S
C1764 C1762 1.395 . S
C1764 C1767 1.403 . S
C1765 C1762 1.403 . S
C1765 C1766 1.524 . S
C1765 C1769 1.400 . S
C1766 H1751 0.960 . S
C1766 H1752 0.960 . S
C1766 H1753 0.960 . S
C1766 C1765 1.524 . S
C1767 C1764 1.403 . S
C1767 C1768 1.392 . S
C1767 C1771 1.495 . S
C1768 C1767 1.392 . S
C1768 C1769 1.385 . S
C1768 C1770 1.478 . S
C1769 H1763 0.930 . S
C1769 C1765 1.400 . S
C1769 C1768 1.385 . S
C1770 C1768 1.478 . S
C1770 C1772 1.381 . S
C1770 C1776 1.383 . S
C1771 C1767 1.495 . S
C1771 H1777 0.959 . S
C1771 H1778 0.961 . S
C1771 H1779 0.960 . S
C1772 C1770 1.381 . S
C1772 C1773 1.394 . S
C1772 H1780 0.930 . S
C1773 C1772 1.394 . S
C1773 C1774 1.383 . S
C1773 H1781 0.929 . S
C1774 C1773 1.383 . S
C1774 C1775 1.377 . S
C1775 H1759 0.930 . S
C1775 C1774 1.377 . S
C1775 C1776 1.379 . S
C1776 H1760 0.931 . S
C1776 C1770 1.383 . S
C1776 C1775 1.379 . S
H1777 C1771 0.959 . S
H1778 C1771 0.961 . S
H1779 C1771 0.960 . S
H1780 C1772 0.930 . S
H1781 C1773 0.929 . S
H1782 C1790 0.929 . S
H1783 C1792 0.930 . S
H1784 C1794 0.930 . S
H1785 C1797 0.929 . S
H1786 C1800 0.930 . S
H1787 C1802 0.960 . S
H1788 C1802 0.960 . S
H1789 C1802 0.960 . S
C1790 H1782 0.929 . S
C1790 C1791 1.377 . S
C1790 C1792 1.384 . S
C1791 C1790 1.377 . S
C1791 C1797 1.390 . S
C1792 H1783 0.930 . S
C1792 C1790 1.384 . S
C1792 C1793 1.372 . S
C1793 C1792 1.372 . S
C1793 C1794 1.400 . S
C1793 C1798 1.490 . S
C1794 H1784 0.930 . S
C1794 C1793 1.400 . S
C1794 C1797 1.386 . S
H1795 C1811 0.930 . S
H1796 C1812 0.931 . S
C1797 H1785 0.929 . S
C1797 C1791 1.390 . S
C1797 C1794 1.386 . S
C1798 C1793 1.490 . S
C1798 C1800 1.395 . S
C1798 C1801 1.403 . S
H1799 C1805 0.930 . S
C1800 H1786 0.930 . S
C1800 C1798 1.395 . S
C1800 C1803 1.403 . S
C1801 C1798 1.403 . S
C1801 C1802 1.524 . S
C1801 C1805 1.400 . S
C1802 H1787 0.960 . S
C1802 H1788 0.960 . S
C1802 H1789 0.960 . S
C1802 C1801 1.524 . S
C1803 C1800 1.403 . S
C1803 C1804 1.392 . S
C1803 C1807 1.495 . S
C1804 C1803 1.392 . S
C1804 C1805 1.385 . S
C1804 C1806 1.478 . S
C1805 H1799 0.930 . S
C1805 C1801 1.400 . S
C1805 C1804 1.385 . S
C1806 C1804 1.478 . S
C1806 C1808 1.381 . S
C1806 C1812 1.383 . S
C1807 C1803 1.495 . S
C1807 H1813 0.959 . S
C1807 H1814 0.961 . S
C1807 H1815 0.960 . S
C1808 C1806 1.381 . S
C1808 C1809 1.394 . S
C1808 H1816 0.930 . S
C1809 C1808 1.394 . S
C1809 C1810 1.383 . S
C1809 H1817 0.929 . S
C1810 C1809 1.383 . S
C1810 C1811 1.377 . S
C1811 H1795 0.930 . S
C1811 C1810 1.377 . S
C1811 C1812 1.379 . S
C1812 H1796 0.931 . S
C1812 C1806 1.383 . S
C1812 C1811 1.379 . S
H1813 C1807 0.959 . S
H1814 C1807 0.961 . S
H1815 C1807 0.960 . S
H1816 C1808 0.930 . S
H1817 C1809 0.929 . S
H1818 C1826 0.929 . S
H1819 C1828 0.930 . S
H1820 C1830 0.930 . S
H1821 C1833 0.929 . S
H1822 C1836 0.930 . S
H1823 C1838 0.960 . S
H1824 C1838 0.960 . S
H1825 C1838 0.960 . S
C1826 H1818 0.929 . S
C1826 C1827 1.377 . S
C1826 C1828 1.384 . S
C1827 C1826 1.377 . S
C1827 C1833 1.390 . S
C1828 H1819 0.930 . S
C1828 C1826 1.384 . S
C1828 C1829 1.372 . S
C1829 C1828 1.372 . S
C1829 C1830 1.400 . S
C1829 C1834 1.490 . S
C1830 H1820 0.930 . S
C1830 C1829 1.400 . S
C1830 C1833 1.386 . S
H1831 C1847 0.930 . S
H1832 C1848 0.931 . S
C1833 H1821 0.929 . S
C1833 C1827 1.390 . S
C1833 C1830 1.386 . S
C1834 C1829 1.490 . S
C1834 C1836 1.395 . S
C1834 C1837 1.403 . S
H1835 C1841 0.930 . S
C1836 H1822 0.930 . S
C1836 C1834 1.395 . S
C1836 C1839 1.403 . S
C1837 C1834 1.403 . S
C1837 C1838 1.524 . S
C1837 C1841 1.400 . S
C1838 H1823 0.960 . S
C1838 H1824 0.960 . S
C1838 H1825 0.960 . S
C1838 C1837 1.524 . S
C1839 C1836 1.403 . S
C1839 C1840 1.392 . S
C1839 C1843 1.495 . S
C1840 C1839 1.392 . S
C1840 C1841 1.385 . S
C1840 C1842 1.478 . S
C1841 H1835 0.930 . S
C1841 C1837 1.400 . S
C1841 C1840 1.385 . S
C1842 C1840 1.478 . S
C1842 C1844 1.381 . S
C1842 C1848 1.383 . S
C1843 C1839 1.495 . S
C1843 H1849 0.959 . S
C1843 H1850 0.961 . S
C1843 H1851 0.960 . S
C1844 C1842 1.381 . S
C1844 C1845 1.394 . S
C1844 H1852 0.930 . S
C1845 C1844 1.394 . S
C1845 C1846 1.383 . S
C1845 H1853 0.929 . S
C1846 C1845 1.383 . S
C1846 C1847 1.377 . S
C1847 H1831 0.930 . S
C1847 C1846 1.377 . S
C1847 C1848 1.379 . S
C1848 H1832 0.931 . S
C1848 C1842 1.383 . S
C1848 C1847 1.379 . S
H1849 C1843 0.959 . S
H1850 C1843 0.961 . S
H1851 C1843 0.960 . S
H1852 C1844 0.930 . S
H1853 C1845 0.929 . S
H1854 C1862 0.929 . S
H1855 C1864 0.930 . S
H1856 C1866 0.930 . S
H1857 C1869 0.929 . S
H1858 C1872 0.930 . S
H1859 C1874 0.960 . S
H1860 C1874 0.960 . S
H1861 C1874 0.960 . S
C1862 H1854 0.929 . S
C1862 C1863 1.377 . S
C1862 C1864 1.384 1_545 S
C1863 C1862 1.377 . S
C1863 C1869 1.390 . S
C1864 H1855 0.930 . S
C1864 C1862 1.384 1_565 S
C1864 C1865 1.372 . S
C1865 C1864 1.372 . S
C1865 C1866 1.400 . S
C1865 C1870 1.490 . S
C1866 H1856 0.930 . S
C1866 C1865 1.400 . S
C1866 C1869 1.386 1_565 S
H1867 C1883 0.930 . S
H1868 C1884 0.931 . S
C1869 H1857 0.929 . S
C1869 C1863 1.390 . S
C1869 C1866 1.386 1_545 S
C1870 C1865 1.490 . S
C1870 C1872 1.395 . S
C1870 C1873 1.403 . S
H1871 C1877 0.930 . S
C1872 H1858 0.930 . S
C1872 C1870 1.395 . S
C1872 C1875 1.403 . S
C1873 C1870 1.403 . S
C1873 C1874 1.524 . S
C1873 C1877 1.400 . S
C1874 H1859 0.960 . S
C1874 H1860 0.960 . S
C1874 H1861 0.960 . S
C1874 C1873 1.524 . S
C1875 C1872 1.403 . S
C1875 C1876 1.392 . S
C1875 C1879 1.495 . S
C1876 C1875 1.392 . S
C1876 C1877 1.385 . S
C1876 C1878 1.478 . S
C1877 H1871 0.930 . S
C1877 C1873 1.400 . S
C1877 C1876 1.385 . S
C1878 C1876 1.478 . S
C1878 C1880 1.381 . S
C1878 C1884 1.383 . S
C1879 C1875 1.495 . S
C1879 H1885 0.959 . S
C1879 H1886 0.961 . S
C1879 H1887 0.960 . S
C1880 C1878 1.381 . S
C1880 C1881 1.394 . S
C1880 H1888 0.930 . S
C1881 C1880 1.394 . S
C1881 C1882 1.383 . S
C1881 H1889 0.929 . S
C1882 C1881 1.383 . S
C1882 C1883 1.377 . S
C1883 H1867 0.930 . S
C1883 C1882 1.377 . S
C1883 C1884 1.379 . S
C1884 H1868 0.931 . S
C1884 C1878 1.383 . S
C1884 C1883 1.379 . S
H1885 C1879 0.959 . S
H1886 C1879 0.961 . S
H1887 C1879 0.960 . S
H1888 C1880 0.930 . S
H1889 C1881 0.929 . S
H1890 C1898 0.898 1_655 S
H1891 C1900 0.930 . S
H1892 C1902 0.930 . S
H1893 C1905 0.929 . S
H1894 C1908 0.930 . S
H1895 C1910 0.960 . S
H1896 C1910 0.960 . S
H1897 C1910 0.960 . S
C1898 H1890 0.898 1_455 S
C1898 C1899 1.350 1_455 S
C1898 C1900 1.445 . S
C1899 C1898 1.350 1_655 S
C1899 C1905 1.390 1_655 S
C1900 H1891 0.930 . S
C1900 C1898 1.445 . S
C1900 C1901 1.372 . S
C1901 C1900 1.372 . S
C1901 C1902 1.400 . S
C1901 C1906 1.490 . S
C1902 H1892 0.930 . S
C1902 C1901 1.400 . S
C1902 C1905 1.386 . S
H1903 C1919 0.930 . S
H1904 C1920 0.931 . S
C1905 H1893 0.929 . S
C1905 C1899 1.390 1_455 S
C1905 C1902 1.386 . S
C1906 C1901 1.490 . S
C1906 C1908 1.395 . S
C1906 C1909 1.403 . S
H1907 C1913 0.930 . S
C1908 H1894 0.930 . S
C1908 C1906 1.395 . S
C1908 C1911 1.403 . S
C1909 C1906 1.403 . S
C1909 C1910 1.524 . S
C1909 C1913 1.400 . S
C1910 H1895 0.960 . S
C1910 H1896 0.960 . S
C1910 H1897 0.960 . S
C1910 C1909 1.524 . S
C1911 C1908 1.403 . S
C1911 C1912 1.392 . S
C1911 C1915 1.495 . S
C1912 C1911 1.392 . S
C1912 C1913 1.385 . S
C1912 C1914 1.478 . S
C1913 H1907 0.930 . S
C1913 C1909 1.400 . S
C1913 C1912 1.385 . S
C1914 C1912 1.478 . S
C1914 C1916 1.381 . S
C1914 C1920 1.383 . S
C1915 C1911 1.495 . S
C1915 H1921 0.959 . S
C1915 H1922 0.961 . S
C1915 H1923 0.960 . S
C1916 C1914 1.381 . S
C1916 C1917 1.394 . S
C1916 H1924 0.930 . S
C1917 C1916 1.394 . S
C1917 C1918 1.383 . S
C1917 H1925 0.929 . S
C1918 C1917 1.383 . S
C1918 C1919 1.377 . S
C1919 H1903 0.930 . S
C1919 C1918 1.377 . S
C1919 C1920 1.379 . S
C1920 H1904 0.931 . S
C1920 C1914 1.383 . S
C1920 C1919 1.379 . S
H1921 C1915 0.959 . S
H1922 C1915 0.961 . S
H1923 C1915 0.960 . S
H1924 C1916 0.930 . S
H1925 C1917 0.929 . S
H1926 C1934 0.929 . S
H1927 C1936 0.930 . S
H1928 C1938 0.930 . S
H1929 C1941 0.929 . S
H1930 C1944 0.930 . S
H1931 C1946 0.960 . S
H1932 C1946 0.960 . S
H1933 C1946 0.960 . S
C1934 H1926 0.929 . S
C1934 C1935 1.377 . S
C1934 C1936 1.384 . S
C1935 C1934 1.377 . S
C1935 C1941 1.390 . S
C1936 H1927 0.930 . S
C1936 C1934 1.384 . S
C1936 C1937 1.372 . S
C1937 C1936 1.372 . S
C1937 C1938 1.400 . S
C1937 C1942 1.490 . S
C1938 H1928 0.930 . S
C1938 C1937 1.400 . S
C1938 C1941 1.386 . S
H1939 C1955 0.930 . S
H1940 C1956 0.931 . S
C1941 H1929 0.929 . S
C1941 C1935 1.390 . S
C1941 C1938 1.386 . S
C1942 C1937 1.490 . S
C1942 C1944 1.395 . S
C1942 C1945 1.403 . S
H1943 C1949 0.930 . S
C1944 H1930 0.930 . S
C1944 C1942 1.395 . S
C1944 C1947 1.403 . S
C1945 C1942 1.403 . S
C1945 C1946 1.524 . S
C1945 C1949 1.400 . S
C1946 H1931 0.960 . S
C1946 H1932 0.960 . S
C1946 H1933 0.960 . S
C1946 C1945 1.524 . S
C1947 C1944 1.403 . S
C1947 C1948 1.392 . S
C1947 C1951 1.495 . S
C1948 C1947 1.392 . S
C1948 C1949 1.385 . S
C1948 C1950 1.478 . S
C1949 H1943 0.930 . S
C1949 C1945 1.400 . S
C1949 C1948 1.385 . S
C1950 C1948 1.478 . S
C1950 C1952 1.381 . S
C1950 C1956 1.383 . S
C1951 C1947 1.495 . S
C1951 H1957 0.959 . S
C1951 H1958 0.961 . S
C1951 H1959 0.960 . S
C1952 C1950 1.381 . S
C1952 C1953 1.394 . S
C1952 H1960 0.930 . S
C1953 C1952 1.394 . S
C1953 C1954 1.383 . S
C1953 H1961 0.929 . S
C1954 C1953 1.383 . S
C1954 C1955 1.377 . S
C1955 H1939 0.930 . S
C1955 C1954 1.377 . S
C1955 C1956 1.379 . S
C1956 H1940 0.931 . S
C1956 C1950 1.383 . S
C1956 C1955 1.379 . S
H1957 C1951 0.959 . S
H1958 C1951 0.961 . S
H1959 C1951 0.960 . S
H1960 C1952 0.930 . S
H1961 C1953 0.929 . S
H1962 C1970 0.929 . S
H1963 C1972 0.930 . S
H1964 C1974 0.930 . S
H1965 C1977 0.929 . S
H1966 C1980 0.930 . S
H1967 C1982 0.960 . S
H1968 C1982 0.960 . S
H1969 C1982 0.960 . S
C1970 H1962 0.929 . S
C1970 C1971 1.377 . S
C1970 C1972 1.384 . S
C1971 C1970 1.377 . S
C1971 C1977 1.390 . S
C1972 H1963 0.930 . S
C1972 C1970 1.384 . S
C1972 C1973 1.372 . S
C1973 C1972 1.372 . S
C1973 C1974 1.400 . S
C1973 C1978 1.490 . S
C1974 H1964 0.930 . S
C1974 C1973 1.400 . S
C1974 C1977 1.386 . S
H1975 C1991 0.930 . S
H1976 C1992 0.931 . S
C1977 H1965 0.929 . S
C1977 C1971 1.390 . S
C1977 C1974 1.386 . S
C1978 C1973 1.490 . S
C1978 C1980 1.395 . S
C1978 C1981 1.403 . S
H1979 C1985 0.930 . S
C1980 H1966 0.930 . S
C1980 C1978 1.395 . S
C1980 C1983 1.403 . S
C1981 C1978 1.403 . S
C1981 C1982 1.524 . S
C1981 C1985 1.400 . S
C1982 H1967 0.960 . S
C1982 H1968 0.960 . S
C1982 H1969 0.960 . S
C1982 C1981 1.524 . S
C1983 C1980 1.403 . S
C1983 C1984 1.392 . S
C1983 C1987 1.495 . S
C1984 C1983 1.392 . S
C1984 C1985 1.385 . S
C1984 C1986 1.478 . S
C1985 H1979 0.930 . S
C1985 C1981 1.400 . S
C1985 C1984 1.385 . S
C1986 C1984 1.478 . S
C1986 C1988 1.381 . S
C1986 C1992 1.383 . S
C1987 C1983 1.495 . S
C1987 H1993 0.959 . S
C1987 H1994 0.961 . S
C1987 H1995 0.960 . S
C1988 C1986 1.381 . S
C1988 C1989 1.394 . S
C1988 H1996 0.930 . S
C1989 C1988 1.394 . S
C1989 C1990 1.383 . S
C1989 H1997 0.929 . S
C1990 C1989 1.383 . S
C1990 C1991 1.377 . S
C1991 H1975 0.930 . S
C1991 C1990 1.377 . S
C1991 C1992 1.379 . S
C1992 H1976 0.931 . S
C1992 C1986 1.383 . S
C1992 C1991 1.379 . S
H1993 C1987 0.959 . S
H1994 C1987 0.961 . S
H1995 C1987 0.960 . S
H1996 C1988 0.930 . S
H1997 C1989 0.929 . S
H1998 C2006 0.929 . S
H1999 C2008 0.930 . S
H2000 C2010 0.930 . S
H2001 C2013 0.929 . S
H2002 C2016 0.930 . S
H2003 C2018 0.960 . S
H2004 C2018 0.960 . S
H2005 C2018 0.960 . S
C2006 H1998 0.929 . S
C2006 C2007 1.377 . S
C2006 C2008 1.384 . S
C2007 C2006 1.377 . S
C2007 C2013 1.390 . S
C2008 H1999 0.930 . S
C2008 C2006 1.384 . S
C2008 C2009 1.372 . S
C2009 C2008 1.372 . S
C2009 C2010 1.400 . S
C2009 C2014 1.490 . S
C2010 H2000 0.930 . S
C2010 C2009 1.400 . S
C2010 C2013 1.386 . S
H2011 C2027 0.930 . S
H2012 C2028 0.931 . S
C2013 H2001 0.929 . S
C2013 C2007 1.390 . S
C2013 C2010 1.386 . S
C2014 C2009 1.490 . S
C2014 C2016 1.395 . S
C2014 C2017 1.403 . S
H2015 C2021 0.930 . S
C2016 H2002 0.930 . S
C2016 C2014 1.395 . S
C2016 C2019 1.403 . S
C2017 C2014 1.403 . S
C2017 C2018 1.524 . S
C2017 C2021 1.400 . S
C2018 H2003 0.960 . S
C2018 H2004 0.960 . S
C2018 H2005 0.960 . S
C2018 C2017 1.524 . S
C2019 C2016 1.403 . S
C2019 C2020 1.392 . S
C2019 C2023 1.495 . S
C2020 C2019 1.392 . S
C2020 C2021 1.385 . S
C2020 C2022 1.478 . S
C2021 H2015 0.930 . S
C2021 C2017 1.400 . S
C2021 C2020 1.385 . S
C2022 C2020 1.478 . S
C2022 C2024 1.381 . S
C2022 C2028 1.383 . S
C2023 C2019 1.495 . S
C2023 H2029 0.959 . S
C2023 H2030 0.961 . S
C2023 H2031 0.960 . S
C2024 C2022 1.381 . S
C2024 C2025 1.394 . S
C2024 H2032 0.930 . S
C2025 C2024 1.394 . S
C2025 C2026 1.383 . S
C2025 H2033 0.929 . S
C2026 C2025 1.383 . S
C2026 C2027 1.377 . S
C2027 H2011 0.930 . S
C2027 C2026 1.377 . S
C2027 C2028 1.379 . S
C2028 H2012 0.931 . S
C2028 C2022 1.383 . S
C2028 C2027 1.379 . S
H2029 C2023 0.959 . S
H2030 C2023 0.961 . S
H2031 C2023 0.960 . S
H2032 C2024 0.930 . S
H2033 C2025 0.929 . S
H2034 C2042 0.929 . S
H2035 C2044 0.930 . S
H2036 C2046 0.930 . S
H2037 C2049 0.929 . S
H2038 C2052 0.930 . S
H2039 C2054 0.960 . S
H2040 C2054 0.960 . S
H2041 C2054 0.960 . S
C2042 H2034 0.929 . S
C2042 C2043 1.377 . S
C2042 C2044 1.384 . S
C2043 C2042 1.377 . S
C2043 C2049 1.390 . S
C2044 H2035 0.930 . S
C2044 C2042 1.384 . S
C2044 C2045 1.372 . S
C2045 C2044 1.372 . S
C2045 C2046 1.400 . S
C2045 C2050 1.490 . S
C2046 H2036 0.930 . S
C2046 C2045 1.400 . S
C2046 C2049 1.386 . S
H2047 C2063 0.930 . S
H2048 C2064 0.931 . S
C2049 H2037 0.929 . S
C2049 C2043 1.390 . S
C2049 C2046 1.386 . S
C2050 C2045 1.490 . S
C2050 C2052 1.395 . S
C2050 C2053 1.403 . S
H2051 C2057 0.930 . S
C2052 H2038 0.930 . S
C2052 C2050 1.395 . S
C2052 C2055 1.403 . S
C2053 C2050 1.403 . S
C2053 C2054 1.524 . S
C2053 C2057 1.400 . S
C2054 H2039 0.960 . S
C2054 H2040 0.960 . S
C2054 H2041 0.960 . S
C2054 C2053 1.524 . S
C2055 C2052 1.403 . S
C2055 C2056 1.392 . S
C2055 C2059 1.495 . S
C2056 C2055 1.392 . S
C2056 C2057 1.385 . S
C2056 C2058 1.478 . S
C2057 H2051 0.930 . S
C2057 C2053 1.400 . S
C2057 C2056 1.385 . S
C2058 C2056 1.478 . S
C2058 C2060 1.381 . S
C2058 C2064 1.383 . S
C2059 C2055 1.495 . S
C2059 H2065 0.959 . S
C2059 H2066 0.961 . S
C2059 H2067 0.960 . S
C2060 C2058 1.381 . S
C2060 C2061 1.394 . S
C2060 H2068 0.930 . S
C2061 C2060 1.394 . S
C2061 C2062 1.383 . S
C2061 H2069 0.929 . S
C2062 C2061 1.383 . S
C2062 C2063 1.377 . S
C2063 H2047 0.930 . S
C2063 C2062 1.377 . S
C2063 C2064 1.379 . S
C2064 H2048 0.931 . S
C2064 C2058 1.383 . S
C2064 C2063 1.379 . S
H2065 C2059 0.959 . S
H2066 C2059 0.961 . S
H2067 C2059 0.960 . S
H2068 C2060 0.930 . S
H2069 C2061 0.929 . S
H2070 C2078 0.929 . S
H2071 C2080 0.930 . S
H2072 C2082 0.930 . S
H2073 C2085 0.929 . S
H2074 C2088 0.930 . S
H2075 C2090 0.960 . S
H2076 C2090 0.960 . S
H2077 C2090 0.960 . S
C2078 H2070 0.929 . S
C2078 C2079 1.377 . S
C2078 C2080 1.384 . S
C2079 C2078 1.377 . S
C2079 C2085 1.390 . S
C2080 H2071 0.930 . S
C2080 C2078 1.384 . S
C2080 C2081 1.372 . S
C2081 C2080 1.372 . S
C2081 C2082 1.400 . S
C2081 C2086 1.490 . S
C2082 H2072 0.930 . S
C2082 C2081 1.400 . S
C2082 C2085 1.386 . S
H2083 C2099 0.930 . S
H2084 C2100 0.931 . S
C2085 H2073 0.929 . S
C2085 C2079 1.390 . S
C2085 C2082 1.386 . S
C2086 C2081 1.490 . S
C2086 C2088 1.395 1_565 S
C2086 C2089 1.403 . S
H2087 C2093 0.930 . S
C2088 H2074 0.930 . S
C2088 C2086 1.395 1_545 S
C2088 C2091 1.403 . S
C2089 C2086 1.403 . S
C2089 C2090 1.524 . S
C2089 C2093 1.400 1_565 S
C2090 H2075 0.960 . S
C2090 H2076 0.960 . S
C2090 H2077 0.960 . S
C2090 C2089 1.524 . S
C2091 C2088 1.403 . S
C2091 C2092 1.392 . S
C2091 C2095 1.495 . S
C2092 C2091 1.392 . S
C2092 C2093 1.385 . S
C2092 C2094 1.478 . S
C2093 H2087 0.930 . S
C2093 C2089 1.400 1_545 S
C2093 C2092 1.385 . S
C2094 C2092 1.478 . S
C2094 C2096 1.381 . S
C2094 C2100 1.383 . S
C2095 C2091 1.495 . S
C2095 H2101 0.959 . S
C2095 H2102 0.961 . S
C2095 H2103 0.960 . S
C2096 C2094 1.381 . S
C2096 C2097 1.394 . S
C2096 H2104 0.930 . S
C2097 C2096 1.394 . S
C2097 C2098 1.383 . S
C2097 H2105 0.929 . S
C2098 C2097 1.383 . S
C2098 C2099 1.377 . S
C2099 H2083 0.930 . S
C2099 C2098 1.377 . S
C2099 C2100 1.379 . S
C2100 H2084 0.931 . S
C2100 C2094 1.383 . S
C2100 C2099 1.379 . S
H2101 C2095 0.959 . S
H2102 C2095 0.961 . S
H2103 C2095 0.960 . S
H2104 C2096 0.930 . S
H2105 C2097 0.929 . S
H2106 C2114 0.929 . S
H2107 C2116 0.930 . S
H2108 C2118 0.930 . S
H2109 C2121 0.929 . S
H2110 C2124 0.930 . S
H2111 C2126 0.960 1_655 S
H2112 C2126 0.960 . S
H2113 C2126 0.960 . S
C2114 H2106 0.929 . S
C2114 C2115 1.377 . S
C2114 C2116 1.384 . S
C2115 C2114 1.377 . S
C2115 C2121 1.390 . S
C2116 H2107 0.930 . S
C2116 C2114 1.384 . S
C2116 C2117 1.372 . S
C2117 C2116 1.372 . S
C2117 C2118 1.400 . S
C2117 C2122 1.490 . S
C2118 H2108 0.930 . S
C2118 C2117 1.400 . S
C2118 C2121 1.386 . S
H2119 C2135 0.930 . S
H2120 C2136 0.931 . S
C2121 H2109 0.929 . S
C2121 C2115 1.390 . S
C2121 C2118 1.386 . S
C2122 C2117 1.490 . S
C2122 C2124 1.395 . S
C2122 C2125 1.403 . S
H2123 C2129 0.930 . S
C2124 H2110 0.930 . S
C2124 C2122 1.395 . S
C2124 C2127 1.403 1_455 S
C2125 C2122 1.403 . S
C2125 C2126 1.524 . S
C2125 C2129 1.400 1_455 S
C2126 H2111 0.960 1_455 S
C2126 H2112 0.960 . S
C2126 H2113 0.960 . S
C2126 C2125 1.524 . S
C2127 C2124 1.403 1_655 S
C2127 C2128 1.392 . S
C2127 C2131 1.495 . S
C2128 C2127 1.392 . S
C2128 C2129 1.385 . S
C2128 C2130 1.478 . S
C2129 H2123 0.930 . S
C2129 C2125 1.400 1_655 S
C2129 C2128 1.385 . S
C2130 C2128 1.478 . S
C2130 C2132 1.381 . S
C2130 C2136 1.383 . S
C2131 C2127 1.495 . S
C2131 H2137 0.959 1_655 S
C2131 H2138 0.961 . S
C2131 H2139 0.960 . S
C2132 C2130 1.381 . S
C2132 C2133 1.394 . S
C2132 H2140 0.930 . S
C2133 C2132 1.394 . S
C2133 C2134 1.383 . S
C2133 H2141 0.929 . S
C2134 C2133 1.383 . S
C2134 C2135 1.377 . S
C2135 H2119 0.930 . S
C2135 C2134 1.377 . S
C2135 C2136 1.379 . S
C2136 H2120 0.931 . S
C2136 C2130 1.383 . S
C2136 C2135 1.379 . S
H2137 C2131 0.959 1_455 S
H2138 C2131 0.961 . S
H2139 C2131 0.960 . S
H2140 C2132 0.930 . S
H2141 C2133 0.929 . S
H2142 C2150 0.929 . S
H2143 C2152 0.930 . S
H2144 C2154 0.930 . S
H2145 C2157 0.929 . S
H2146 C2160 0.930 . S
H2147 C2162 0.960 . S
H2148 C2162 0.960 . S
H2149 C2162 0.960 . S
C2150 H2142 0.929 . S
C2150 C2151 1.377 . S
C2150 C2152 1.384 . S
C2151 C2150 1.377 . S
C2151 C2157 1.390 . S
C2152 H2143 0.930 . S
C2152 C2150 1.384 . S
C2152 C2153 1.372 . S
C2153 C2152 1.372 . S
C2153 C2154 1.400 . S
C2153 C2158 1.490 . S
C2154 H2144 0.930 . S
C2154 C2153 1.400 . S
C2154 C2157 1.386 . S
H2155 C2171 0.930 . S
H2156 C2172 0.931 . S
C2157 H2145 0.929 . S
C2157 C2151 1.390 . S
C2157 C2154 1.386 . S
C2158 C2153 1.490 . S
C2158 C2160 1.395 . S
C2158 C2161 1.403 . S
H2159 C2165 0.930 . S
C2160 H2146 0.930 . S
C2160 C2158 1.395 . S
C2160 C2163 1.403 . S
C2161 C2158 1.403 . S
C2161 C2162 1.524 . S
C2161 C2165 1.400 . S
C2162 H2147 0.960 . S
C2162 H2148 0.960 . S
C2162 H2149 0.960 . S
C2162 C2161 1.524 . S
C2163 C2160 1.403 . S
C2163 C2164 1.392 . S
C2163 C2167 1.495 . S
C2164 C2163 1.392 . S
C2164 C2165 1.385 . S
C2164 C2166 1.478 . S
C2165 H2159 0.930 . S
C2165 C2161 1.400 . S
C2165 C2164 1.385 . S
C2166 C2164 1.478 . S
C2166 C2168 1.381 . S
C2166 C2172 1.383 . S
C2167 C2163 1.495 . S
C2167 H2173 0.959 . S
C2167 H2174 0.961 . S
C2167 H2175 0.960 . S
C2168 C2166 1.381 . S
C2168 C2169 1.394 . S
C2168 H2176 0.930 . S
C2169 C2168 1.394 . S
C2169 C2170 1.383 . S
C2169 H2177 0.929 . S
C2170 C2169 1.383 . S
C2170 C2171 1.377 . S
C2171 H2155 0.930 . S
C2171 C2170 1.377 . S
C2171 C2172 1.379 . S
C2172 H2156 0.931 . S
C2172 C2166 1.383 . S
C2172 C2171 1.379 . S
H2173 C2167 0.959 . S
H2174 C2167 0.961 . S
H2175 C2167 0.960 . S
H2176 C2168 0.930 . S
H2177 C2169 0.929 . S
H2178 C2186 0.929 1_455 S
H2179 C2188 0.930 . S
H2180 C2190 0.930 . S
H2181 C2193 0.929 . S
H2182 C2196 0.930 . S
H2183 C2198 0.960 . S
H2184 C2198 0.960 . S
H2185 C2198 0.960 . S
C2186 H2178 0.929 1_655 S
C2186 C2187 1.377 1_655 S
C2186 C2188 1.384 . S
C2187 C2186 1.377 1_455 S
C2187 C2193 1.390 . S
C2188 H2179 0.930 . S
C2188 C2186 1.384 . S
C2188 C2189 1.372 . S
C2189 C2188 1.372 . S
C2189 C2190 1.400 . S
C2189 C2194 1.490 . S
C2190 H2180 0.930 . S
C2190 C2189 1.400 . S
C2190 C2193 1.386 1_655 S
H2191 C2207 0.930 . S
H2192 C2208 0.931 . S
C2193 H2181 0.929 . S
C2193 C2187 1.390 . S
C2193 C2190 1.386 1_455 S
C2194 C2189 1.490 . S
C2194 C2196 1.395 . S
C2194 C2197 1.403 . S
H2195 C2201 0.930 . S
C2196 H2182 0.930 . S
C2196 C2194 1.395 . S
C2196 C2199 1.403 . S
C2197 C2194 1.403 . S
C2197 C2198 1.524 . S
C2197 C2201 1.400 . S
C2198 H2183 0.960 . S
C2198 H2184 0.960 . S
C2198 H2185 0.960 . S
C2198 C2197 1.524 . S
C2199 C2196 1.403 . S
C2199 C2200 1.392 . S
C2199 C2203 1.495 . S
C2200 C2199 1.392 . S
C2200 C2201 1.385 . S
C2200 C2202 1.478 . S
C2201 H2195 0.930 . S
C2201 C2197 1.400 . S
C2201 C2200 1.385 . S
C2202 C2200 1.478 . S
C2202 C2204 1.381 . S
C2202 C2208 1.383 . S
C2203 C2199 1.495 . S
C2203 H2209 0.959 . S
C2203 H2210 0.961 . S
C2203 H2211 0.960 . S
C2204 C2202 1.381 . S
C2204 C2205 1.394 . S
C2204 H2212 0.930 . S
C2205 C2204 1.394 . S
C2205 C2206 1.383 . S
C2205 H2213 0.929 . S
C2206 C2205 1.383 . S
C2206 C2207 1.377 . S
C2207 H2191 0.930 . S
C2207 C2206 1.377 . S
C2207 C2208 1.379 . S
C2208 H2192 0.931 . S
C2208 C2202 1.383 . S
C2208 C2207 1.379 . S
H2209 C2203 0.959 . S
H2210 C2203 0.961 . S
H2211 C2203 0.960 . S
H2212 C2204 0.930 . S
H2213 C2205 0.929 . S
H2214 C2222 0.929 . S
H2215 C2224 0.930 . S
H2216 C2226 0.930 . S
H2217 C2229 0.929 . S
H2218 C2232 0.930 . S
H2219 C2234 0.960 . S
H2220 C2234 0.960 . S
H2221 C2234 0.960 . S
C2222 H2214 0.929 . S
C2222 C2223 1.377 . S
C2222 C2224 1.384 . S
C2223 C2222 1.377 . S
C2223 C2229 1.390 . S
C2224 H2215 0.930 . S
C2224 C2222 1.384 . S
C2224 C2225 1.372 . S
C2225 C2224 1.372 . S
C2225 C2226 1.400 . S
C2225 C2230 1.490 . S
C2226 H2216 0.930 . S
C2226 C2225 1.400 . S
C2226 C2229 1.386 . S
H2227 C2243 0.930 . S
H2228 C2244 0.931 . S
C2229 H2217 0.929 . S
C2229 C2223 1.390 . S
C2229 C2226 1.386 . S
C2230 C2225 1.490 . S
C2230 C2232 1.395 . S
C2230 C2233 1.403 . S
H2231 C2237 0.930 . S
C2232 H2218 0.930 . S
C2232 C2230 1.395 . S
C2232 C2235 1.403 . S
C2233 C2230 1.403 . S
C2233 C2234 1.524 . S
C2233 C2237 1.400 . S
C2234 H2219 0.960 . S
C2234 H2220 0.960 . S
C2234 H2221 0.960 . S
C2234 C2233 1.524 . S
C2235 C2232 1.403 . S
C2235 C2236 1.392 . S
C2235 C2239 1.495 . S
C2236 C2235 1.392 . S
C2236 C2237 1.385 . S
C2236 C2238 1.478 . S
C2237 H2231 0.930 . S
C2237 C2233 1.400 . S
C2237 C2236 1.385 . S
C2238 C2236 1.478 . S
C2238 C2240 1.381 . S
C2238 C2244 1.383 . S
C2239 C2235 1.495 . S
C2239 H2245 0.959 . S
C2239 H2246 0.961 . S
C2239 H2247 0.960 . S
C2240 C2238 1.381 . S
C2240 C2241 1.394 . S
C2240 H2248 0.930 . S
C2241 C2240 1.394 . S
C2241 C2242 1.383 . S
C2241 H2249 0.929 . S
C2242 C2241 1.383 . S
C2242 C2243 1.377 . S
C2243 H2227 0.930 . S
C2243 C2242 1.377 . S
C2243 C2244 1.379 . S
C2244 H2228 0.931 . S
C2244 C2238 1.383 . S
C2244 C2243 1.379 . S
H2245 C2239 0.959 . S
H2246 C2239 0.961 . S
H2247 C2239 0.960 . S
H2248 C2240 0.930 . S
H2249 C2241 0.929 . S
H2250 C2258 0.929 1_565 S
H2251 C2260 0.930 . S
H2252 C2262 0.930 . S
H2253 C2265 0.929 . S
H2254 C2268 0.930 . S
H2255 C2270 0.960 . S
H2256 C2270 0.960 . S
H2257 C2270 0.960 . S
C2258 H2250 0.929 1_545 S
C2258 C2259 1.377 1_545 S
C2258 C2260 1.384 . S
C2259 C2258 1.377 1_565 S
C2259 C2265 1.390 . S
C2260 H2251 0.930 . S
C2260 C2258 1.384 . S
C2260 C2261 1.372 . S
C2261 C2260 1.372 . S
C2261 C2262 1.400 . S
C2261 C2266 1.490 . S
C2262 H2252 0.930 . S
C2262 C2261 1.400 . S
C2262 C2265 1.386 1_545 S
H2263 C2279 0.930 . S
H2264 C2280 0.931 . S
C2265 H2253 0.929 . S
C2265 C2259 1.390 . S
C2265 C2262 1.386 1_565 S
C2266 C2261 1.490 . S
C2266 C2268 1.395 . S
C2266 C2269 1.403 . S
H2267 C2273 0.930 . S
C2268 H2254 0.930 . S
C2268 C2266 1.395 . S
C2268 C2271 1.403 . S
C2269 C2266 1.403 . S
C2269 C2270 1.524 . S
C2269 C2273 1.400 . S
C2270 H2255 0.960 . S
C2270 H2256 0.960 . S
C2270 H2257 0.960 . S
C2270 C2269 1.524 . S
C2271 C2268 1.403 . S
C2271 C2272 1.392 . S
C2271 C2275 1.495 . S
C2272 C2271 1.392 . S
C2272 C2273 1.385 . S
C2272 C2274 1.478 . S
C2273 H2267 0.930 . S
C2273 C2269 1.400 . S
C2273 C2272 1.385 . S
C2274 C2272 1.478 . S
C2274 C2276 1.381 . S
C2274 C2280 1.383 . S
C2275 C2271 1.495 . S
C2275 H2281 0.959 . S
C2275 H2282 0.961 . S
C2275 H2283 0.960 . S
C2276 C2274 1.381 . S
C2276 C2277 1.394 . S
C2276 H2284 0.930 . S
C2277 C2276 1.394 . S
C2277 C2278 1.383 . S
C2277 H2285 0.929 . S
C2278 C2277 1.383 . S
C2278 C2279 1.377 . S
C2279 H2263 0.930 . S
C2279 C2278 1.377 . S
C2279 C2280 1.379 . S
C2280 H2264 0.931 . S
C2280 C2274 1.383 . S
C2280 C2279 1.379 . S
H2281 C2275 0.959 . S
H2282 C2275 0.961 . S
H2283 C2275 0.960 . S
H2284 C2276 0.930 . S
H2285 C2277 0.929 . S
H2286 C2294 0.929 . S
H2287 C2296 0.930 . S
H2288 C2298 0.930 . S
H2289 C2301 0.929 . S
H2290 C2304 0.930 . S
H2291 C2306 0.960 . S
H2292 C2306 0.960 . S
H2293 C2306 0.960 . S
C2294 H2286 0.929 . S
C2294 C2295 1.377 . S
C2294 C2296 1.384 . S
C2295 C2294 1.377 . S
C2295 C2301 1.390 . S
C2296 H2287 0.930 . S
C2296 C2294 1.384 . S
C2296 C2297 1.372 . S
C2297 C2296 1.372 . S
C2297 C2298 1.400 . S
C2297 C2302 1.490 . S
C2298 H2288 0.930 . S
C2298 C2297 1.400 . S
C2298 C2301 1.386 . S
H2299 C2315 0.930 . S
H2300 C2316 0.931 . S
C2301 H2289 0.929 . S
C2301 C2295 1.390 . S
C2301 C2298 1.386 . S
C2302 C2297 1.490 . S
C2302 C2304 1.395 . S
C2302 C2305 1.403 . S
H2303 C2309 0.930 . S
C2304 H2290 0.930 . S
C2304 C2302 1.395 . S
C2304 C2307 1.403 . S
C2305 C2302 1.403 . S
C2305 C2306 1.524 . S
C2305 C2309 1.400 . S
C2306 H2291 0.960 . S
C2306 H2292 0.960 . S
C2306 H2293 0.960 . S
C2306 C2305 1.524 . S
C2307 C2304 1.403 . S
C2307 C2308 1.392 . S
C2307 C2311 1.495 . S
C2308 C2307 1.392 . S
C2308 C2309 1.385 . S
C2308 C2310 1.478 . S
C2309 H2303 0.930 . S
C2309 C2305 1.400 . S
C2309 C2308 1.385 . S
C2310 C2308 1.478 . S
C2310 C2312 1.381 . S
C2310 C2316 1.383 . S
C2311 C2307 1.495 . S
C2311 H2317 0.959 . S
C2311 H2318 0.961 . S
C2311 H2319 0.960 . S
C2312 C2310 1.381 . S
C2312 C2313 1.394 . S
C2312 H2320 0.930 . S
C2313 C2312 1.394 . S
C2313 C2314 1.383 . S
C2313 H2321 0.929 . S
C2314 C2313 1.383 . S
C2314 C2315 1.377 . S
C2315 H2299 0.930 . S
C2315 C2314 1.377 . S
C2315 C2316 1.379 . S
C2316 H2300 0.931 . S
C2316 C2310 1.383 . S
C2316 C2315 1.379 . S
H2317 C2311 0.959 . S
H2318 C2311 0.961 . S
H2319 C2311 0.960 . S
H2320 C2312 0.930 . S
H2321 C2313 0.929 . S
H2322 C2330 0.929 . S
H2323 C2332 0.930 . S
H2324 C2334 0.930 . S
H2325 C2337 0.929 . S
H2326 C2340 0.930 . S
H2327 C2342 0.960 . S
H2328 C2342 0.960 . S
H2329 C2342 0.960 . S
C2330 H2322 0.929 . S
C2330 C2331 1.377 . S
C2330 C2332 1.384 . S
C2331 C2330 1.377 . S
C2331 C2337 1.390 . S
C2332 H2323 0.930 . S
C2332 C2330 1.384 . S
C2332 C2333 1.372 . S
C2333 C2332 1.372 . S
C2333 C2334 1.400 . S
C2333 C2338 1.490 . S
C2334 H2324 0.930 . S
C2334 C2333 1.400 . S
C2334 C2337 1.386 . S
H2335 C2351 0.930 . S
H2336 C2352 0.931 . S
C2337 H2325 0.929 . S
C2337 C2331 1.390 . S
C2337 C2334 1.386 . S
C2338 C2333 1.490 . S
C2338 C2340 1.395 . S
C2338 C2341 1.403 . S
H2339 C2345 0.930 . S
C2340 H2326 0.930 . S
C2340 C2338 1.395 . S
C2340 C2343 1.403 . S
C2341 C2338 1.403 . S
C2341 C2342 1.524 . S
C2341 C2345 1.400 . S
C2342 H2327 0.960 . S
C2342 H2328 0.960 . S
C2342 H2329 0.960 . S
C2342 C2341 1.524 . S
C2343 C2340 1.403 . S
C2343 C2344 1.392 . S
C2343 C2347 1.495 . S
C2344 C2343 1.392 . S
C2344 C2345 1.385 . S
C2344 C2346 1.478 . S
C2345 H2339 0.930 . S
C2345 C2341 1.400 . S
C2345 C2344 1.385 . S
C2346 C2344 1.478 . S
C2346 C2348 1.381 . S
C2346 C2352 1.383 . S
C2347 C2343 1.495 . S
C2347 H2353 0.959 . S
C2347 H2354 0.961 . S
C2347 H2355 0.960 . S
C2348 C2346 1.381 . S
C2348 C2349 1.394 . S
C2348 H2356 0.930 . S
C2349 C2348 1.394 . S
C2349 C2350 1.383 . S
C2349 H2357 0.929 . S
C2350 C2349 1.383 . S
C2350 C2351 1.377 . S
C2351 H2335 0.930 . S
C2351 C2350 1.377 . S
C2351 C2352 1.379 . S
C2352 H2336 0.931 . S
C2352 C2346 1.383 . S
C2352 C2351 1.379 . S
H2353 C2347 0.959 . S
H2354 C2347 0.961 . S
H2355 C2347 0.960 . S
H2356 C2348 0.930 . S
H2357 C2349 0.929 . S
H2358 C2366 0.929 . S
H2359 C2368 0.930 . S
H2360 C2370 0.930 . S
H2361 C2373 0.929 . S
H2362 C2376 0.930 . S
H2363 C2378 0.960 . S
H2364 C2378 0.960 . S
H2365 C2378 0.960 . S
C2366 H2358 0.929 . S
C2366 C2367 1.377 . S
C2366 C2368 1.384 . S
C2367 C2366 1.377 . S
C2367 C2373 1.390 . S
C2368 H2359 0.930 . S
C2368 C2366 1.384 . S
C2368 C2369 1.372 . S
C2369 C2368 1.372 . S
C2369 C2370 1.400 . S
C2369 C2374 1.490 . S
C2370 H2360 0.930 . S
C2370 C2369 1.400 . S
C2370 C2373 1.386 . S
H2371 C2387 0.930 . S
H2372 C2388 0.931 . S
C2373 H2361 0.929 . S
C2373 C2367 1.390 . S
C2373 C2370 1.386 . S
C2374 C2369 1.490 . S
C2374 C2376 1.395 . S
C2374 C2377 1.403 . S
H2375 C2381 0.930 . S
C2376 H2362 0.930 . S
C2376 C2374 1.395 . S
C2376 C2379 1.403 . S
C2377 C2374 1.403 . S
C2377 C2378 1.524 . S
C2377 C2381 1.400 . S
C2378 H2363 0.960 . S
C2378 H2364 0.960 . S
C2378 H2365 0.960 . S
C2378 C2377 1.524 . S
C2379 C2376 1.403 . S
C2379 C2380 1.392 . S
C2379 C2383 1.495 . S
C2380 C2379 1.392 . S
C2380 C2381 1.385 . S
C2380 C2382 1.478 . S
C2381 H2375 0.930 . S
C2381 C2377 1.400 . S
C2381 C2380 1.385 . S
C2382 C2380 1.478 . S
C2382 C2384 1.381 . S
C2382 C2388 1.383 . S
C2383 C2379 1.495 . S
C2383 H2389 0.959 . S
C2383 H2390 0.961 . S
C2383 H2391 0.960 . S
C2384 C2382 1.381 . S
C2384 C2385 1.394 . S
C2384 H2392 0.930 . S
C2385 C2384 1.394 . S
C2385 C2386 1.383 . S
C2385 H2393 0.929 . S
C2386 C2385 1.383 . S
C2386 C2387 1.377 . S
C2387 H2371 0.930 . S
C2387 C2386 1.377 . S
C2387 C2388 1.379 . S
C2388 H2372 0.931 . S
C2388 C2382 1.383 . S
C2388 C2387 1.379 . S
H2389 C2383 0.959 . S
H2390 C2383 0.961 . S
H2391 C2383 0.960 . S
H2392 C2384 0.930 . S
H2393 C2385 0.929 . S
H2394 C2402 0.929 . S
H2395 C2404 0.930 . S
H2396 C2406 0.930 . S
H2397 C2409 0.929 . S
H2398 C2412 0.930 . S
H2399 C2414 0.960 . S
H2400 C2414 0.960 . S
H2401 C2414 0.960 . S
C2402 H2394 0.929 . S
C2402 C2403 1.377 . S
C2402 C2404 1.384 . S
C2403 C2402 1.377 . S
C2403 C2409 1.390 . S
C2404 H2395 0.930 . S
C2404 C2402 1.384 . S
C2404 C2405 1.372 . S
C2405 C2404 1.372 . S
C2405 C2406 1.400 . S
C2405 C2410 1.490 . S
C2406 H2396 0.930 . S
C2406 C2405 1.400 . S
C2406 C2409 1.386 . S
H2407 C2423 0.930 . S
H2408 C2424 0.931 . S
C2409 H2397 0.929 . S
C2409 C2403 1.390 . S
C2409 C2406 1.386 . S
C2410 C2405 1.490 . S
C2410 C2412 1.395 . S
C2410 C2413 1.403 . S
H2411 C2417 0.930 . S
C2412 H2398 0.930 . S
C2412 C2410 1.395 . S
C2412 C2415 1.403 . S
C2413 C2410 1.403 . S
C2413 C2414 1.524 . S
C2413 C2417 1.400 . S
C2414 H2399 0.960 . S
C2414 H2400 0.960 . S
C2414 H2401 0.960 . S
C2414 C2413 1.524 . S
C2415 C2412 1.403 . S
C2415 C2416 1.392 . S
C2415 C2419 1.495 . S
C2416 C2415 1.392 . S
C2416 C2417 1.385 . S
C2416 C2418 1.478 . S
C2417 H2411 0.930 . S
C2417 C2413 1.400 . S
C2417 C2416 1.385 . S
C2418 C2416 1.478 . S
C2418 C2420 1.381 . S
C2418 C2424 1.383 . S
C2419 C2415 1.495 . S
C2419 H2425 0.959 . S
C2419 H2426 0.961 . S
C2419 H2427 0.960 . S
C2420 C2418 1.381 . S
C2420 C2421 1.394 . S
C2420 H2428 0.930 . S
C2421 C2420 1.394 . S
C2421 C2422 1.383 . S
C2421 H2429 0.929 . S
C2422 C2421 1.383 . S
C2422 C2423 1.377 . S
C2423 H2407 0.930 . S
C2423 C2422 1.377 . S
C2423 C2424 1.379 . S
C2424 H2408 0.931 . S
C2424 C2418 1.383 . S
C2424 C2423 1.379 . S
H2425 C2419 0.959 . S
H2426 C2419 0.961 . S
H2427 C2419 0.960 . S
H2428 C2420 0.930 . S
H2429 C2421 0.929 . S
H2430 C2438 0.929 . S
H2431 C2440 0.930 . S
H2432 C2442 0.930 . S
H2433 C2445 0.929 . S
H2434 C2448 0.930 . S
H2435 C2450 0.960 . S
H2436 C2450 0.960 . S
H2437 C2450 0.960 . S
C2438 H2430 0.929 . S
C2438 C2439 1.377 . S
C2438 C2440 1.384 . S
C2439 C2438 1.377 . S
C2439 C2445 1.390 . S
C2440 H2431 0.930 . S
C2440 C2438 1.384 . S
C2440 C2441 1.372 . S
C2441 C2440 1.372 . S
C2441 C2442 1.400 . S
C2441 C2446 1.490 . S
C2442 H2432 0.930 . S
C2442 C2441 1.400 . S
C2442 C2445 1.386 . S
H2443 C2459 0.930 . S
H2444 C2460 0.931 . S
C2445 H2433 0.929 . S
C2445 C2439 1.390 . S
C2445 C2442 1.386 . S
C2446 C2441 1.490 . S
C2446 C2448 1.395 . S
C2446 C2449 1.403 . S
H2447 C2453 0.930 . S
C2448 H2434 0.930 . S
C2448 C2446 1.395 . S
C2448 C2451 1.403 . S
C2449 C2446 1.403 . S
C2449 C2450 1.524 . S
C2449 C2453 1.400 . S
C2450 H2435 0.960 . S
C2450 H2436 0.960 . S
C2450 H2437 0.960 . S
C2450 C2449 1.524 . S
C2451 C2448 1.403 . S
C2451 C2452 1.392 . S
C2451 C2455 1.495 . S
C2452 C2451 1.392 . S
C2452 C2453 1.385 . S
C2452 C2454 1.478 . S
C2453 H2447 0.930 . S
C2453 C2449 1.400 . S
C2453 C2452 1.385 . S
C2454 C2452 1.478 . S
C2454 C2456 1.381 . S
C2454 C2460 1.383 . S
C2455 C2451 1.495 . S
C2455 H2461 0.959 . S
C2455 H2462 0.961 . S
C2455 H2463 0.960 . S
C2456 C2454 1.381 . S
C2456 C2457 1.394 . S
C2456 H2464 0.930 . S
C2457 C2456 1.394 . S
C2457 C2458 1.383 . S
C2457 H2465 0.929 . S
C2458 C2457 1.383 . S
C2458 C2459 1.377 . S
C2459 H2443 0.930 . S
C2459 C2458 1.377 . S
C2459 C2460 1.379 . S
C2460 H2444 0.931 . S
C2460 C2454 1.383 . S
C2460 C2459 1.379 . S
H2461 C2455 0.959 . S
H2462 C2455 0.961 . S
H2463 C2455 0.960 . S
H2464 C2456 0.930 . S
H2465 C2457 0.929 . S
H2466 C2474 0.929 . S
H2467 C2476 0.930 . S
H2468 C2478 0.930 . S
H2469 C2481 0.929 . S
H2470 C2484 0.930 . S
H2471 C2486 0.960 . S
H2472 C2486 0.960 . S
H2473 C2486 0.960 . S
C2474 H2466 0.929 . S
C2474 C2475 1.377 . S
C2474 C2476 1.384 . S
C2475 C2474 1.377 . S
C2475 C2481 1.390 . S
C2476 H2467 0.930 . S
C2476 C2474 1.384 . S
C2476 C2477 1.372 . S
C2477 C2476 1.372 . S
C2477 C2478 1.400 . S
C2477 C2482 1.490 . S
C2478 H2468 0.930 . S
C2478 C2477 1.400 . S
C2478 C2481 1.386 . S
H2479 C2495 0.930 . S
H2480 C2496 0.931 . S
C2481 H2469 0.929 . S
C2481 C2475 1.390 . S
C2481 C2478 1.386 . S
C2482 C2477 1.490 . S
C2482 C2484 1.395 . S
C2482 C2485 1.403 . S
H2483 C2489 0.930 . S
C2484 H2470 0.930 . S
C2484 C2482 1.395 . S
C2484 C2487 1.403 . S
C2485 C2482 1.403 . S
C2485 C2486 1.524 . S
C2485 C2489 1.400 . S
C2486 H2471 0.960 . S
C2486 H2472 0.960 . S
C2486 H2473 0.960 . S
C2486 C2485 1.524 . S
C2487 C2484 1.403 . S
C2487 C2488 1.392 . S
C2487 C2491 1.495 . S
C2488 C2487 1.392 . S
C2488 C2489 1.385 . S
C2488 C2490 1.478 . S
C2489 H2483 0.930 . S
C2489 C2485 1.400 . S
C2489 C2488 1.385 . S
C2490 C2488 1.478 . S
C2490 C2492 1.381 . S
C2490 C2496 1.383 . S
C2491 C2487 1.495 . S
C2491 H2497 0.959 . S
C2491 H2498 0.961 . S
C2491 H2499 0.960 . S
C2492 C2490 1.381 . S
C2492 C2493 1.394 . S
C2492 H2500 0.930 . S
C2493 C2492 1.394 . S
C2493 C2494 1.383 . S
C2493 H2501 0.929 . S
C2494 C2493 1.383 . S
C2494 C2495 1.377 . S
C2495 H2479 0.930 . S
C2495 C2494 1.377 . S
C2495 C2496 1.379 . S
C2496 H2480 0.931 . S
C2496 C2490 1.383 . S
C2496 C2495 1.379 . S
H2497 C2491 0.959 . S
H2498 C2491 0.961 . S
H2499 C2491 0.960 . S
H2500 C2492 0.930 . S
H2501 C2493 0.929 . S
H2502 C2510 0.929 . S
H2503 C2512 0.930 . S
H2504 C2514 0.930 . S
H2505 C2517 0.929 . S
H2506 C2520 0.930 . S
H2507 C2522 0.960 . S
H2508 C2522 0.960 . S
H2509 C2522 0.960 . S
C2510 H2502 0.929 . S
C2510 C2511 1.377 . S
C2510 C2512 1.384 . S
C2511 C2510 1.377 . S
C2511 C2517 1.390 . S
C2512 H2503 0.930 . S
C2512 C2510 1.384 . S
C2512 C2513 1.372 . S
C2513 C2512 1.372 . S
C2513 C2514 1.400 . S
C2513 C2518 1.490 . S
C2514 H2504 0.930 . S
C2514 C2513 1.400 . S
C2514 C2517 1.386 . S
H2515 C2531 0.930 . S
H2516 C2532 0.931 . S
C2517 H2505 0.929 . S
C2517 C2511 1.390 . S
C2517 C2514 1.386 . S
C2518 C2513 1.490 . S
C2518 C2520 1.395 . S
C2518 C2521 1.403 . S
H2519 C2525 0.930 . S
C2520 H2506 0.930 . S
C2520 C2518 1.395 . S
C2520 C2523 1.403 . S
C2521 C2518 1.403 . S
C2521 C2522 1.524 . S
C2521 C2525 1.400 . S
C2522 H2507 0.960 . S
C2522 H2508 0.960 . S
C2522 H2509 0.960 . S
C2522 C2521 1.524 . S
C2523 C2520 1.403 . S
C2523 C2524 1.392 . S
C2523 C2527 1.495 . S
C2524 C2523 1.392 . S
C2524 C2525 1.385 . S
C2524 C2526 1.478 . S
C2525 H2519 0.930 . S
C2525 C2521 1.400 . S
C2525 C2524 1.385 . S
C2526 C2524 1.478 . S
C2526 C2528 1.381 . S
C2526 C2532 1.383 . S
C2527 C2523 1.495 . S
C2527 H2533 0.959 . S
C2527 H2534 0.961 . S
C2527 H2535 0.960 . S
C2528 C2526 1.381 . S
C2528 C2529 1.394 . S
C2528 H2536 0.930 . S
C2529 C2528 1.394 . S
C2529 C2530 1.383 . S
C2529 H2537 0.929 . S
C2530 C2529 1.383 . S
C2530 C2531 1.377 . S
C2531 H2515 0.930 . S
C2531 C2530 1.377 . S
C2531 C2532 1.379 . S
C2532 H2516 0.931 . S
C2532 C2526 1.383 . S
C2532 C2531 1.379 . S
H2533 C2527 0.959 . S
H2534 C2527 0.961 . S
H2535 C2527 0.960 . S
H2536 C2528 0.930 . S
H2537 C2529 0.929 . S
H2538 C2546 0.929 . S
H2539 C2548 0.930 . S
H2540 C2550 0.930 . S
H2541 C2553 0.929 . S
H2542 C2556 0.930 . S
H2543 C2558 0.960 . S
H2544 C2558 0.960 . S
H2545 C2558 0.960 . S
C2546 H2538 0.929 . S
C2546 C2547 1.377 . S
C2546 C2548 1.384 . S
C2547 C2546 1.377 . S
C2547 C2553 1.390 . S
C2548 H2539 0.930 . S
C2548 C2546 1.384 . S
C2548 C2549 1.372 . S
C2549 C2548 1.372 . S
C2549 C2550 1.400 . S
C2549 C2554 1.490 . S
C2550 H2540 0.930 . S
C2550 C2549 1.400 . S
C2550 C2553 1.386 . S
H2551 C2567 0.930 . S
H2552 C2568 0.931 . S
C2553 H2541 0.929 . S
C2553 C2547 1.390 . S
C2553 C2550 1.386 . S
C2554 C2549 1.490 . S
C2554 C2556 1.395 . S
C2554 C2557 1.403 . S
H2555 C2561 0.930 . S
C2556 H2542 0.930 . S
C2556 C2554 1.395 . S
C2556 C2559 1.403 . S
C2557 C2554 1.403 . S
C2557 C2558 1.524 . S
C2557 C2561 1.400 . S
C2558 H2543 0.960 . S
C2558 H2544 0.960 . S
C2558 H2545 0.960 . S
C2558 C2557 1.524 . S
C2559 C2556 1.403 . S
C2559 C2560 1.392 . S
C2559 C2563 1.495 . S
C2560 C2559 1.392 . S
C2560 C2561 1.385 . S
C2560 C2562 1.478 . S
C2561 H2555 0.930 . S
C2561 C2557 1.400 . S
C2561 C2560 1.385 . S
C2562 C2560 1.478 . S
C2562 C2564 1.381 . S
C2562 C2568 1.383 . S
C2563 C2559 1.495 . S
C2563 H2569 0.959 . S
C2563 H2570 0.961 . S
C2563 H2571 0.960 . S
C2564 C2562 1.381 . S
C2564 C2565 1.394 . S
C2564 H2572 0.930 . S
C2565 C2564 1.394 . S
C2565 C2566 1.383 . S
C2565 H2573 0.929 . S
C2566 C2565 1.383 . S
C2566 C2567 1.377 . S
C2567 H2551 0.930 . S
C2567 C2566 1.377 . S
C2567 C2568 1.379 . S
C2568 H2552 0.931 . S
C2568 C2562 1.383 . S
C2568 C2567 1.379 . S
H2569 C2563 0.959 . S
H2570 C2563 0.961 . S
H2571 C2563 0.960 . S
H2572 C2564 0.930 . S
H2573 C2565 0.929 . S
H2574 C2582 0.929 . S
H2575 C2584 0.930 . S
H2576 C2586 0.930 . S
H2577 C2589 0.929 . S
H2578 C2592 0.930 . S
H2579 C2594 0.960 . S
H2580 C2594 0.960 . S
H2581 C2594 0.960 . S
C2582 H2574 0.929 . S
C2582 C2583 1.377 . S
C2582 C2584 1.384 . S
C2583 C2582 1.377 . S
C2583 C2589 1.390 . S
C2584 H2575 0.930 . S
C2584 C2582 1.384 . S
C2584 C2585 1.372 . S
C2585 C2584 1.372 . S
C2585 C2586 1.400 . S
C2585 C2590 1.490 . S
C2586 H2576 0.930 . S
C2586 C2585 1.400 . S
C2586 C2589 1.386 . S
H2587 C2603 0.930 . S
H2588 C2604 0.931 . S
C2589 H2577 0.929 . S
C2589 C2583 1.390 . S
C2589 C2586 1.386 . S
C2590 C2585 1.490 . S
C2590 C2592 1.395 . S
C2590 C2593 1.403 . S
H2591 C2597 0.930 . S
C2592 H2578 0.930 . S
C2592 C2590 1.395 . S
C2592 C2595 1.403 . S
C2593 C2590 1.403 . S
C2593 C2594 1.524 . S
C2593 C2597 1.400 . S
C2594 H2579 0.960 . S
C2594 H2580 0.960 . S
C2594 H2581 0.960 . S
C2594 C2593 1.524 . S
C2595 C2592 1.403 . S
C2595 C2596 1.392 . S
C2595 C2599 1.495 . S
C2596 C2595 1.392 . S
C2596 C2597 1.385 . S
C2596 C2598 1.478 . S
C2597 H2591 0.930 . S
C2597 C2593 1.400 . S
C2597 C2596 1.385 . S
C2598 C2596 1.478 . S
C2598 C2600 1.381 . S
C2598 C2604 1.383 . S
C2599 C2595 1.495 . S
C2599 H2605 0.959 . S
C2599 H2606 0.961 . S
C2599 H2607 0.960 . S
C2600 C2598 1.381 . S
C2600 C2601 1.394 . S
C2600 H2608 0.930 . S
C2601 C2600 1.394 . S
C2601 C2602 1.383 . S
C2601 H2609 0.929 . S
C2602 C2601 1.383 . S
C2602 C2603 1.377 . S
C2603 H2587 0.930 . S
C2603 C2602 1.377 . S
C2603 C2604 1.379 . S
C2604 H2588 0.931 . S
C2604 C2598 1.383 . S
C2604 C2603 1.379 . S
H2605 C2599 0.959 . S
H2606 C2599 0.961 . S
H2607 C2599 0.960 . S
H2608 C2600 0.930 . S
H2609 C2601 0.929 . S
H2610 C2618 0.929 . S
H2611 C2620 0.930 . S
H2612 C2622 0.930 . S
H2613 C2625 0.929 . S
H2614 C2628 0.930 . S
H2615 C2630 0.960 . S
H2616 C2630 0.960 . S
H2617 C2630 0.960 . S
C2618 H2610 0.929 . S
C2618 C2619 1.377 . S
C2618 C2620 1.384 . S
C2619 C2618 1.377 . S
C2619 C2625 1.390 . S
C2620 H2611 0.930 . S
C2620 C2618 1.384 . S
C2620 C2621 1.372 . S
C2621 C2620 1.372 . S
C2621 C2622 1.400 . S
C2621 C2626 1.490 . S
C2622 H2612 0.930 . S
C2622 C2621 1.400 . S
C2622 C2625 1.386 . S
H2623 C2639 0.930 . S
H2624 C2640 0.931 . S
C2625 H2613 0.929 . S
C2625 C2619 1.390 . S
C2625 C2622 1.386 . S
C2626 C2621 1.490 . S
C2626 C2628 1.395 . S
C2626 C2629 1.403 . S
H2627 C2633 0.930 . S
C2628 H2614 0.930 . S
C2628 C2626 1.395 . S
C2628 C2631 1.403 . S
C2629 C2626 1.403 . S
C2629 C2630 1.524 . S
C2629 C2633 1.400 . S
C2630 H2615 0.960 . S
C2630 H2616 0.960 . S
C2630 H2617 0.960 . S
C2630 C2629 1.524 . S
C2631 C2628 1.403 . S
C2631 C2632 1.392 . S
C2631 C2635 1.495 . S
C2632 C2631 1.392 . S
C2632 C2633 1.385 . S
C2632 C2634 1.478 . S
C2633 H2627 0.930 . S
C2633 C2629 1.400 . S
C2633 C2632 1.385 . S
C2634 C2632 1.478 . S
C2634 C2636 1.381 . S
C2634 C2640 1.383 . S
C2635 C2631 1.495 . S
C2635 H2641 0.959 . S
C2635 H2642 0.961 . S
C2635 H2643 0.960 . S
C2636 C2634 1.381 . S
C2636 C2637 1.394 . S
C2636 H2644 0.930 . S
C2637 C2636 1.394 . S
C2637 C2638 1.383 . S
C2637 H2645 0.929 . S
C2638 C2637 1.383 . S
C2638 C2639 1.377 . S
C2639 H2623 0.930 . S
C2639 C2638 1.377 . S
C2639 C2640 1.379 . S
C2640 H2624 0.931 . S
C2640 C2634 1.383 . S
C2640 C2639 1.379 . S
H2641 C2635 0.959 . S
H2642 C2635 0.961 . S
H2643 C2635 0.960 . S
H2644 C2636 0.930 . S
H2645 C2637 0.929 . S
H2646 C2654 0.929 . S
H2647 C2656 0.930 . S
H2648 C2658 0.930 . S
H2649 C2661 0.929 . S
H2650 C2664 0.930 . S
H2651 C2666 0.960 . S
H2652 C2666 0.960 . S
H2653 C2666 0.960 . S
C2654 H2646 0.929 . S
C2654 C2655 1.377 . S
C2654 C2656 1.384 . S
C2655 C2654 1.377 . S
C2655 C2661 1.390 . S
C2656 H2647 0.930 . S
C2656 C2654 1.384 . S
C2656 C2657 1.372 . S
C2657 C2656 1.372 . S
C2657 C2658 1.400 . S
C2657 C2662 1.490 . S
C2658 H2648 0.930 . S
C2658 C2657 1.400 . S
C2658 C2661 1.386 . S
H2659 C2675 0.930 . S
H2660 C2676 0.931 . S
C2661 H2649 0.929 . S
C2661 C2655 1.390 . S
C2661 C2658 1.386 . S
C2662 C2657 1.490 . S
C2662 C2664 1.395 . S
C2662 C2665 1.403 . S
H2663 C2669 0.930 . S
C2664 H2650 0.930 . S
C2664 C2662 1.395 . S
C2664 C2667 1.403 . S
C2665 C2662 1.403 . S
C2665 C2666 1.524 . S
C2665 C2669 1.400 . S
C2666 H2651 0.960 . S
C2666 H2652 0.960 . S
C2666 H2653 0.960 . S
C2666 C2665 1.524 . S
C2667 C2664 1.403 . S
C2667 C2668 1.392 . S
C2667 C2671 1.495 . S
C2668 C2667 1.392 . S
C2668 C2669 1.385 . S
C2668 C2670 1.478 . S
C2669 H2663 0.930 . S
C2669 C2665 1.400 . S
C2669 C2668 1.385 . S
C2670 C2668 1.478 . S
C2670 C2672 1.381 . S
C2670 C2676 1.383 . S
C2671 C2667 1.495 . S
C2671 H2677 0.959 . S
C2671 H2678 0.961 . S
C2671 H2679 0.960 . S
C2672 C2670 1.381 . S
C2672 C2673 1.394 . S
C2672 H2680 0.930 . S
C2673 C2672 1.394 . S
C2673 C2674 1.383 . S
C2673 H2681 0.929 . S
C2674 C2673 1.383 . S
C2674 C2675 1.377 . S
C2675 H2659 0.930 . S
C2675 C2674 1.377 . S
C2675 C2676 1.379 . S
C2676 H2660 0.931 . S
C2676 C2670 1.383 . S
C2676 C2675 1.379 . S
H2677 C2671 0.959 . S
H2678 C2671 0.961 . S
H2679 C2671 0.960 . S
H2680 C2672 0.930 . S
H2681 C2673 0.929 . S
H2682 C2690 0.929 . S
H2683 C2692 0.930 . S
H2684 C2694 0.930 . S
H2685 C2697 0.929 . S
H2686 C2700 0.930 . S
H2687 C2702 0.960 . S
H2688 C2702 0.960 . S
H2689 C2702 0.960 . S
C2690 H2682 0.929 . S
C2690 C2691 1.377 . S
C2690 C2692 1.384 . S
C2691 C2690 1.377 . S
C2691 C2697 1.390 . S
C2692 H2683 0.930 . S
C2692 C2690 1.384 . S
C2692 C2693 1.372 . S
C2693 C2692 1.372 . S
C2693 C2694 1.400 . S
C2693 C2698 1.490 . S
C2694 H2684 0.930 . S
C2694 C2693 1.400 . S
C2694 C2697 1.386 . S
H2695 C2711 0.930 . S
H2696 C2712 0.931 . S
C2697 H2685 0.929 . S
C2697 C2691 1.390 . S
C2697 C2694 1.386 . S
C2698 C2693 1.490 . S
C2698 C2700 1.395 . S
C2698 C2701 1.403 . S
H2699 C2705 0.930 . S
C2700 H2686 0.930 . S
C2700 C2698 1.395 . S
C2700 C2703 1.403 . S
C2701 C2698 1.403 . S
C2701 C2702 1.524 . S
C2701 C2705 1.400 . S
C2702 H2687 0.960 . S
C2702 H2688 0.960 . S
C2702 H2689 0.960 . S
C2702 C2701 1.524 . S
C2703 C2700 1.403 . S
C2703 C2704 1.392 . S
C2703 C2707 1.495 . S
C2704 C2703 1.392 . S
C2704 C2705 1.385 . S
C2704 C2706 1.478 . S
C2705 H2699 0.930 . S
C2705 C2701 1.400 . S
C2705 C2704 1.385 . S
C2706 C2704 1.478 . S
C2706 C2708 1.381 . S
C2706 C2712 1.383 . S
C2707 C2703 1.495 . S
C2707 H2713 0.959 . S
C2707 H2714 0.961 . S
C2707 H2715 0.960 . S
C2708 C2706 1.381 . S
C2708 C2709 1.394 . S
C2708 H2716 0.930 . S
C2709 C2708 1.394 . S
C2709 C2710 1.383 . S
C2709 H2717 0.929 . S
C2710 C2709 1.383 . S
C2710 C2711 1.377 . S
C2711 H2695 0.930 . S
C2711 C2710 1.377 . S
C2711 C2712 1.379 . S
C2712 H2696 0.931 . S
C2712 C2706 1.383 . S
C2712 C2711 1.379 . S
H2713 C2707 0.959 . S
H2714 C2707 0.961 . S
H2715 C2707 0.960 . S
H2716 C2708 0.930 . S
H2717 C2709 0.929 . S
H2718 C2726 0.929 . S
H2719 C2728 0.930 . S
H2720 C2730 0.930 . S
H2721 C2733 0.929 . S
H2722 C2736 0.930 . S
H2723 C2738 0.960 . S
H2724 C2738 0.960 . S
H2725 C2738 0.960 . S
C2726 H2718 0.929 . S
C2726 C2727 1.377 . S
C2726 C2728 1.384 . S
C2727 C2726 1.377 . S
C2727 C2733 1.390 . S
C2728 H2719 0.930 . S
C2728 C2726 1.384 . S
C2728 C2729 1.372 . S
C2729 C2728 1.372 . S
C2729 C2730 1.400 . S
C2729 C2734 1.490 . S
C2730 H2720 0.930 . S
C2730 C2729 1.400 . S
C2730 C2733 1.386 . S
H2731 C2747 0.930 . S
H2732 C2748 0.931 . S
C2733 H2721 0.929 . S
C2733 C2727 1.390 . S
C2733 C2730 1.386 . S
C2734 C2729 1.490 . S
C2734 C2736 1.395 . S
C2734 C2737 1.403 . S
H2735 C2741 0.930 . S
C2736 H2722 0.930 . S
C2736 C2734 1.395 . S
C2736 C2739 1.403 . S
C2737 C2734 1.403 . S
C2737 C2738 1.524 . S
C2737 C2741 1.400 . S
C2738 H2723 0.960 . S
C2738 H2724 0.960 . S
C2738 H2725 0.960 . S
C2738 C2737 1.524 . S
C2739 C2736 1.403 . S
C2739 C2740 1.392 . S
C2739 C2743 1.495 . S
C2740 C2739 1.392 . S
C2740 C2741 1.385 . S
C2740 C2742 1.478 . S
C2741 H2735 0.930 . S
C2741 C2737 1.400 . S
C2741 C2740 1.385 . S
C2742 C2740 1.478 . S
C2742 C2744 1.381 . S
C2742 C2748 1.383 . S
C2743 C2739 1.495 . S
C2743 H2749 0.959 . S
C2743 H2750 0.961 . S
C2743 H2751 0.960 . S
C2744 C2742 1.381 . S
C2744 C2745 1.394 . S
C2744 H2752 0.930 . S
C2745 C2744 1.394 . S
C2745 C2746 1.383 . S
C2745 H2753 0.929 . S
C2746 C2745 1.383 . S
C2746 C2747 1.377 . S
C2747 H2731 0.930 . S
C2747 C2746 1.377 . S
C2747 C2748 1.379 . S
C2748 H2732 0.931 . S
C2748 C2742 1.383 . S
C2748 C2747 1.379 . S
H2749 C2743 0.959 . S
H2750 C2743 0.961 . S
H2751 C2743 0.960 . S
H2752 C2744 0.930 . S
H2753 C2745 0.929 . S
H2754 C2762 0.929 . S
H2755 C2764 0.930 . S
H2756 C2766 0.930 . S
H2757 C2769 0.929 . S
H2758 C2772 0.930 . S
H2759 C2774 0.960 . S
H2760 C2774 0.960 . S
H2761 C2774 0.960 . S
C2762 H2754 0.929 . S
C2762 C2763 1.377 . S
C2762 C2764 1.384 . S
C2763 C2762 1.377 . S
C2763 C2769 1.390 . S
C2764 H2755 0.930 . S
C2764 C2762 1.384 . S
C2764 C2765 1.372 . S
C2765 C2764 1.372 . S
C2765 C2766 1.400 . S
C2765 C2770 1.490 . S
C2766 H2756 0.930 . S
C2766 C2765 1.400 . S
C2766 C2769 1.386 . S
H2767 C2783 0.930 . S
H2768 C2784 0.931 . S
C2769 H2757 0.929 . S
C2769 C2763 1.390 . S
C2769 C2766 1.386 . S
C2770 C2765 1.490 . S
C2770 C2772 1.395 . S
C2770 C2773 1.403 . S
H2771 C2777 0.930 . S
C2772 H2758 0.930 . S
C2772 C2770 1.395 . S
C2772 C2775 1.403 . S
C2773 C2770 1.403 . S
C2773 C2774 1.524 . S
C2773 C2777 1.400 . S
C2774 H2759 0.960 . S
C2774 H2760 0.960 . S
C2774 H2761 0.960 . S
C2774 C2773 1.524 . S
C2775 C2772 1.403 . S
C2775 C2776 1.392 . S
C2775 C2779 1.495 . S
C2776 C2775 1.392 . S
C2776 C2777 1.385 . S
C2776 C2778 1.478 . S
C2777 H2771 0.930 . S
C2777 C2773 1.400 . S
C2777 C2776 1.385 . S
C2778 C2776 1.478 . S
C2778 C2780 1.381 . S
C2778 C2784 1.383 . S
C2779 C2775 1.495 . S
C2779 H2785 0.959 . S
C2779 H2786 0.961 . S
C2779 H2787 0.960 . S
C2780 C2778 1.381 . S
C2780 C2781 1.394 . S
C2780 H2788 0.930 . S
C2781 C2780 1.394 . S
C2781 C2782 1.383 . S
C2781 H2789 0.929 . S
C2782 C2781 1.383 . S
C2782 C2783 1.377 . S
C2783 H2767 0.930 . S
C2783 C2782 1.377 . S
C2783 C2784 1.379 . S
C2784 H2768 0.931 . S
C2784 C2778 1.383 . S
C2784 C2783 1.379 . S
H2785 C2779 0.959 . S
H2786 C2779 0.961 . S
H2787 C2779 0.960 . S
H2788 C2780 0.930 . S
H2789 C2781 0.929 . S
H2790 C2798 0.929 . S
H2791 C2800 0.930 . S
H2792 C2802 0.930 . S
H2793 C2805 0.929 . S
H2794 C2808 0.930 . S
H2795 C2810 0.960 . S
H2796 C2810 0.960 . S
H2797 C2810 0.960 . S
C2798 H2790 0.929 . S
C2798 C2799 1.377 . S
C2798 C2800 1.384 . S
C2799 C2798 1.377 . S
C2799 C2805 1.390 . S
C2800 H2791 0.930 . S
C2800 C2798 1.384 . S
C2800 C2801 1.372 . S
C2801 C2800 1.372 . S
C2801 C2802 1.400 . S
C2801 C2806 1.490 . S
C2802 H2792 0.930 . S
C2802 C2801 1.400 . S
C2802 C2805 1.386 . S
H2803 C2819 0.930 . S
H2804 C2820 0.931 . S
C2805 H2793 0.929 . S
C2805 C2799 1.390 . S
C2805 C2802 1.386 . S
C2806 C2801 1.490 . S
C2806 C2808 1.395 . S
C2806 C2809 1.403 . S
H2807 C2813 0.930 . S
C2808 H2794 0.930 . S
C2808 C2806 1.395 . S
C2808 C2811 1.403 . S
C2809 C2806 1.403 . S
C2809 C2810 1.524 . S
C2809 C2813 1.400 . S
C2810 H2795 0.960 . S
C2810 H2796 0.960 . S
C2810 H2797 0.960 . S
C2810 C2809 1.524 . S
C2811 C2808 1.403 . S
C2811 C2812 1.392 . S
C2811 C2815 1.495 . S
C2812 C2811 1.392 . S
C2812 C2813 1.385 . S
C2812 C2814 1.478 . S
C2813 H2807 0.930 . S
C2813 C2809 1.400 . S
C2813 C2812 1.385 . S
C2814 C2812 1.478 . S
C2814 C2816 1.381 . S
C2814 C2820 1.383 . S
C2815 C2811 1.495 . S
C2815 H2821 0.959 . S
C2815 H2822 0.961 . S
C2815 H2823 0.960 . S
C2816 C2814 1.381 . S
C2816 C2817 1.394 . S
C2816 H2824 0.930 . S
C2817 C2816 1.394 . S
C2817 C2818 1.383 . S
C2817 H2825 0.929 . S
C2818 C2817 1.383 . S
C2818 C2819 1.377 . S
C2819 H2803 0.930 . S
C2819 C2818 1.377 . S
C2819 C2820 1.379 . S
C2820 H2804 0.931 . S
C2820 C2814 1.383 . S
C2820 C2819 1.379 . S
H2821 C2815 0.959 . S
H2822 C2815 0.961 . S
H2823 C2815 0.960 . S
H2824 C2816 0.930 . S
H2825 C2817 0.929 . S
H2826 C2834 0.929 . S
H2827 C2836 0.930 . S
H2828 C2838 0.930 . S
H2829 C2841 0.929 . S
H2830 C2844 0.930 . S
H2831 C2846 0.960 . S
H2832 C2846 0.960 . S
H2833 C2846 0.960 . S
C2834 H2826 0.929 . S
C2834 C2835 1.377 . S
C2834 C2836 1.384 . S
C2835 C2834 1.377 . S
C2835 C2841 1.390 . S
C2836 H2827 0.930 . S
C2836 C2834 1.384 . S
C2836 C2837 1.372 . S
C2837 C2836 1.372 . S
C2837 C2838 1.400 . S
C2837 C2842 1.490 . S
C2838 H2828 0.930 . S
C2838 C2837 1.400 . S
C2838 C2841 1.386 . S
H2839 C2855 0.930 . S
H2840 C2856 0.931 . S
C2841 H2829 0.929 . S
C2841 C2835 1.390 . S
C2841 C2838 1.386 . S
C2842 C2837 1.490 . S
C2842 C2844 1.395 . S
C2842 C2845 1.403 . S
H2843 C2849 0.930 . S
C2844 H2830 0.930 . S
C2844 C2842 1.395 . S
C2844 C2847 1.403 . S
C2845 C2842 1.403 . S
C2845 C2846 1.524 . S
C2845 C2849 1.400 . S
C2846 H2831 0.960 . S
C2846 H2832 0.960 . S
C2846 H2833 0.960 . S
C2846 C2845 1.524 . S
C2847 C2844 1.403 . S
C2847 C2848 1.392 . S
C2847 C2851 1.495 . S
C2848 C2847 1.392 . S
C2848 C2849 1.385 . S
C2848 C2850 1.478 . S
C2849 H2843 0.930 . S
C2849 C2845 1.400 . S
C2849 C2848 1.385 . S
C2850 C2848 1.478 . S
C2850 C2852 1.381 . S
C2850 C2856 1.383 . S
C2851 C2847 1.495 . S
C2851 H2857 0.959 . S
C2851 H2858 0.961 . S
C2851 H2859 0.960 . S
C2852 C2850 1.381 . S
C2852 C2853 1.394 . S
C2852 H2860 0.930 . S
C2853 C2852 1.394 . S
C2853 C2854 1.383 . S
C2853 H2861 0.929 . S
C2854 C2853 1.383 . S
C2854 C2855 1.377 . S
C2855 H2839 0.930 . S
C2855 C2854 1.377 . S
C2855 C2856 1.379 . S
C2856 H2840 0.931 . S
C2856 C2850 1.383 . S
C2856 C2855 1.379 . S
H2857 C2851 0.959 . S
H2858 C2851 0.961 . S
H2859 C2851 0.960 . S
H2860 C2852 0.930 . S
H2861 C2853 0.929 . S
H2862 C2870 0.929 . S
H2863 C2872 0.930 . S
H2864 C2874 0.930 . S
H2865 C2877 0.929 . S
H2866 C2880 0.930 . S
H2867 C2882 0.960 . S
H2868 C2882 0.960 . S
H2869 C2882 0.960 . S
C2870 H2862 0.929 . S
C2870 C2871 1.377 . S
C2870 C2872 1.384 . S
C2871 C2870 1.377 . S
C2871 C2877 1.390 . S
C2872 H2863 0.930 . S
C2872 C2870 1.384 . S
C2872 C2873 1.372 . S
C2873 C2872 1.372 . S
C2873 C2874 1.400 . S
C2873 C2878 1.490 . S
C2874 H2864 0.930 . S
C2874 C2873 1.400 . S
C2874 C2877 1.386 . S
H2875 C2891 0.930 . S
H2876 C2892 0.931 . S
C2877 H2865 0.929 . S
C2877 C2871 1.390 . S
C2877 C2874 1.386 . S
C2878 C2873 1.490 . S
C2878 C2880 1.395 . S
C2878 C2881 1.403 . S
H2879 C2885 0.930 . S
C2880 H2866 0.930 . S
C2880 C2878 1.395 . S
C2880 C2883 1.403 . S
C2881 C2878 1.403 . S
C2881 C2882 1.524 . S
C2881 C2885 1.400 . S
C2882 H2867 0.960 . S
C2882 H2868 0.960 . S
C2882 H2869 0.960 . S
C2882 C2881 1.524 . S
C2883 C2880 1.403 . S
C2883 C2884 1.392 . S
C2883 C2887 1.495 . S
C2884 C2883 1.392 . S
C2884 C2885 1.385 . S
C2884 C2886 1.478 . S
C2885 H2879 0.930 . S
C2885 C2881 1.400 . S
C2885 C2884 1.385 . S
C2886 C2884 1.478 . S
C2886 C2888 1.381 . S
C2886 C2892 1.383 . S
C2887 C2883 1.495 . S
C2887 H2893 0.959 . S
C2887 H2894 0.961 . S
C2887 H2895 0.960 . S
C2888 C2886 1.381 . S
C2888 C2889 1.394 . S
C2888 H2896 0.930 . S
C2889 C2888 1.394 . S
C2889 C2890 1.383 . S
C2889 H2897 0.929 . S
C2890 C2889 1.383 . S
C2890 C2891 1.377 . S
C2891 H2875 0.930 . S
C2891 C2890 1.377 . S
C2891 C2892 1.379 . S
C2892 H2876 0.931 . S
C2892 C2886 1.383 . S
C2892 C2891 1.379 . S
H2893 C2887 0.959 . S
H2894 C2887 0.961 . S
H2895 C2887 0.960 . S
H2896 C2888 0.930 . S
H2897 C2889 0.929 . S
H2898 C2906 0.929 . S
H2899 C2908 0.930 . S
H2900 C2910 0.930 . S
H2901 C2913 0.929 . S
H2902 C2916 0.930 . S
H2903 C2918 0.960 . S
H2904 C2918 0.960 . S
H2905 C2918 0.960 . S
C2906 H2898 0.929 . S
C2906 C2907 1.377 . S
C2906 C2908 1.384 . S
C2907 C2906 1.377 . S
C2907 C2913 1.390 . S
C2908 H2899 0.930 . S
C2908 C2906 1.384 . S
C2908 C2909 1.372 . S
C2909 C2908 1.372 . S
C2909 C2910 1.400 . S
C2909 C2914 1.490 . S
C2910 H2900 0.930 . S
C2910 C2909 1.400 . S
C2910 C2913 1.386 . S
H2911 C2927 0.930 . S
H2912 C2928 0.931 . S
C2913 H2901 0.929 . S
C2913 C2907 1.390 . S
C2913 C2910 1.386 . S
C2914 C2909 1.490 . S
C2914 C2916 1.395 . S
C2914 C2917 1.403 . S
H2915 C2921 0.930 . S
C2916 H2902 0.930 . S
C2916 C2914 1.395 . S
C2916 C2919 1.403 . S
C2917 C2914 1.403 . S
C2917 C2918 1.524 . S
C2917 C2921 1.400 . S
C2918 H2903 0.960 . S
C2918 H2904 0.960 . S
C2918 H2905 0.960 . S
C2918 C2917 1.524 . S
C2919 C2916 1.403 . S
C2919 C2920 1.392 . S
C2919 C2923 1.495 . S
C2920 C2919 1.392 . S
C2920 C2921 1.385 . S
C2920 C2922 1.478 . S
C2921 H2915 0.930 . S
C2921 C2917 1.400 . S
C2921 C2920 1.385 . S
C2922 C2920 1.478 . S
C2922 C2924 1.381 . S
C2922 C2928 1.383 . S
C2923 C2919 1.495 . S
C2923 H2929 0.959 . S
C2923 H2930 0.961 . S
C2923 H2931 0.960 . S
C2924 C2922 1.381 . S
C2924 C2925 1.394 . S
C2924 H2932 0.930 . S
C2925 C2924 1.394 . S
C2925 C2926 1.383 . S
C2925 H2933 0.929 . S
C2926 C2925 1.383 . S
C2926 C2927 1.377 . S
C2927 H2911 0.930 . S
C2927 C2926 1.377 . S
C2927 C2928 1.379 . S
C2928 H2912 0.931 . S
C2928 C2922 1.383 . S
C2928 C2927 1.379 . S
H2929 C2923 0.959 . S
H2930 C2923 0.961 . S
H2931 C2923 0.960 . S
H2932 C2924 0.930 . S
H2933 C2925 0.929 . S
H2934 C2942 0.929 . S
H2935 C2944 0.930 . S
H2936 C2946 0.930 . S
H2937 C2949 0.929 . S
H2938 C2952 0.930 . S
H2939 C2954 0.960 . S
H2940 C2954 0.960 . S
H2941 C2954 0.960 . S
C2942 H2934 0.929 . S
C2942 C2943 1.377 . S
C2942 C2944 1.384 . S
C2943 C2942 1.377 . S
C2943 C2949 1.390 . S
C2944 H2935 0.930 . S
C2944 C2942 1.384 . S
C2944 C2945 1.372 . S
C2945 C2944 1.372 . S
C2945 C2946 1.400 . S
C2945 C2950 1.490 . S
C2946 H2936 0.930 . S
C2946 C2945 1.400 . S
C2946 C2949 1.386 . S
H2947 C2963 0.930 . S
H2948 C2964 0.931 . S
C2949 H2937 0.929 . S
C2949 C2943 1.390 . S
C2949 C2946 1.386 . S
C2950 C2945 1.490 . S
C2950 C2952 1.395 . S
C2950 C2953 1.403 . S
H2951 C2957 0.930 . S
C2952 H2938 0.930 . S
C2952 C2950 1.395 . S
C2952 C2955 1.403 . S
C2953 C2950 1.403 . S
C2953 C2954 1.524 . S
C2953 C2957 1.400 . S
C2954 H2939 0.960 . S
C2954 H2940 0.960 . S
C2954 H2941 0.960 . S
C2954 C2953 1.524 . S
C2955 C2952 1.403 . S
C2955 C2956 1.392 . S
C2955 C2959 1.495 . S
C2956 C2955 1.392 . S
C2956 C2957 1.385 . S
C2956 C2958 1.478 . S
C2957 H2951 0.930 . S
C2957 C2953 1.400 . S
C2957 C2956 1.385 . S
C2958 C2956 1.478 . S
C2958 C2960 1.381 . S
C2958 C2964 1.383 . S
C2959 C2955 1.495 . S
C2959 H2965 0.959 . S
C2959 H2966 0.961 . S
C2959 H2967 0.960 . S
C2960 C2958 1.381 . S
C2960 C2961 1.394 . S
C2960 H2968 0.930 . S
C2961 C2960 1.394 . S
C2961 C2962 1.383 . S
C2961 H2969 0.929 . S
C2962 C2961 1.383 . S
C2962 C2963 1.377 . S
C2963 H2947 0.930 . S
C2963 C2962 1.377 . S
C2963 C2964 1.379 . S
C2964 H2948 0.931 . S
C2964 C2958 1.383 . S
C2964 C2963 1.379 . S
H2965 C2959 0.959 . S
H2966 C2959 0.961 . S
H2967 C2959 0.960 . S
H2968 C2960 0.930 . S
H2969 C2961 0.929 . S
H2970 C2978 0.929 . S
H2971 C2980 0.930 . S
H2972 C2982 0.930 . S
H2973 C2985 0.929 . S
H2974 C2988 0.930 . S
H2975 C2990 0.960 . S
H2976 C2990 0.960 . S
H2977 C2990 0.960 . S
C2978 H2970 0.929 . S
C2978 C2979 1.377 . S
C2978 C2980 1.384 . S
C2979 C2978 1.377 . S
C2979 C2985 1.390 . S
C2980 H2971 0.930 . S
C2980 C2978 1.384 . S
C2980 C2981 1.372 . S
C2981 C2980 1.372 . S
C2981 C2982 1.400 . S
C2981 C2986 1.490 . S
C2982 H2972 0.930 . S
C2982 C2981 1.400 . S
C2982 C2985 1.386 . S
H2983 C2999 0.930 . S
H2984 C3000 0.931 . S
C2985 H2973 0.929 . S
C2985 C2979 1.390 . S
C2985 C2982 1.386 . S
C2986 C2981 1.490 . S
C2986 C2988 1.395 . S
C2986 C2989 1.403 . S
H2987 C2993 0.930 . S
C2988 H2974 0.930 . S
C2988 C2986 1.395 . S
C2988 C2991 1.403 . S
C2989 C2986 1.403 . S
C2989 C2990 1.524 . S
C2989 C2993 1.400 . S
C2990 H2975 0.960 . S
C2990 H2976 0.960 . S
C2990 H2977 0.960 . S
C2990 C2989 1.524 . S
C2991 C2988 1.403 . S
C2991 C2992 1.392 . S
C2991 C2995 1.495 . S
C2992 C2991 1.392 . S
C2992 C2993 1.385 . S
C2992 C2994 1.478 . S
C2993 H2987 0.930 . S
C2993 C2989 1.400 . S
C2993 C2992 1.385 . S
C2994 C2992 1.478 . S
C2994 C2996 1.381 . S
C2994 C3000 1.383 . S
C2995 C2991 1.495 . S
C2995 H3001 0.959 . S
C2995 H3002 0.961 . S
C2995 H3003 0.960 . S
C2996 C2994 1.381 . S
C2996 C2997 1.394 . S
C2996 H3004 0.930 . S
C2997 C2996 1.394 . S
C2997 C2998 1.383 . S
C2997 H3005 0.929 . S
C2998 C2997 1.383 . S
C2998 C2999 1.377 . S
C2999 H2983 0.930 . S
C2999 C2998 1.377 . S
C2999 C3000 1.379 . S
C3000 H2984 0.931 . S
C3000 C2994 1.383 . S
C3000 C2999 1.379 . S
H3001 C2995 0.959 . S
H3002 C2995 0.961 . S
H3003 C2995 0.960 . S
H3004 C2996 0.930 . S
H3005 C2997 0.929 . S
H3006 C3014 0.929 . S
H3007 C3016 0.930 . S
H3008 C3018 0.930 . S
H3009 C3021 0.929 . S
H3010 C3024 0.930 . S
H3011 C3026 0.960 . S
H3012 C3026 0.960 . S
H3013 C3026 0.960 . S
C3014 H3006 0.929 . S
C3014 C3015 1.377 . S
C3014 C3016 1.384 . S
C3015 C3014 1.377 . S
C3015 C3021 1.390 . S
C3016 H3007 0.930 . S
C3016 C3014 1.384 . S
C3016 C3017 1.372 . S
C3017 C3016 1.372 . S
C3017 C3018 1.400 . S
C3017 C3022 1.490 . S
C3018 H3008 0.930 . S
C3018 C3017 1.400 . S
C3018 C3021 1.386 . S
H3019 C3035 0.930 . S
H3020 C3036 0.931 . S
C3021 H3009 0.929 . S
C3021 C3015 1.390 . S
C3021 C3018 1.386 . S
C3022 C3017 1.490 . S
C3022 C3024 1.395 . S
C3022 C3025 1.403 . S
H3023 C3029 0.930 . S
C3024 H3010 0.930 . S
C3024 C3022 1.395 . S
C3024 C3027 1.403 . S
C3025 C3022 1.403 . S
C3025 C3026 1.524 . S
C3025 C3029 1.400 . S
C3026 H3011 0.960 . S
C3026 H3012 0.960 . S
C3026 H3013 0.960 . S
C3026 C3025 1.524 . S
C3027 C3024 1.403 . S
C3027 C3028 1.392 . S
C3027 C3031 1.495 . S
C3028 C3027 1.392 . S
C3028 C3029 1.385 . S
C3028 C3030 1.478 . S
C3029 H3023 0.930 . S
C3029 C3025 1.400 . S
C3029 C3028 1.385 . S
C3030 C3028 1.478 . S
C3030 C3032 1.381 . S
C3030 C3036 1.383 . S
C3031 C3027 1.495 . S
C3031 H3037 0.959 . S
C3031 H3038 0.961 . S
C3031 H3039 0.960 . S
C3032 C3030 1.381 . S
C3032 C3033 1.394 . S
C3032 H3040 0.930 . S
C3033 C3032 1.394 . S
C3033 C3034 1.383 . S
C3033 H3041 0.929 . S
C3034 C3033 1.383 . S
C3034 C3035 1.377 . S
C3035 H3019 0.930 . S
C3035 C3034 1.377 . S
C3035 C3036 1.379 . S
C3036 H3020 0.931 . S
C3036 C3030 1.383 . S
C3036 C3035 1.379 . S
H3037 C3031 0.959 . S
H3038 C3031 0.961 . S
H3039 C3031 0.960 . S
H3040 C3032 0.930 . S
H3041 C3033 0.929 . S
C1107 C253 1.440 . S
C1126 C398 1.398 . S
C1143 C272 1.470 . S
C1162 C482 1.385 . S
C1179 C234 1.428 . S
C1198 C576 1.419 . S
C1215 C215 1.412 . S
C1234 C492 1.407 1_556 S
C1270 C566 1.336 . S
C1251 C177 1.427 . S
C1287 C196 1.384 . S
C1306 C408 1.369 . S
C1342 C409 1.457 . S
C1323 C220 1.458 . S
C1378 C493 1.479 . S
C1359 C182 1.479 . S
C1395 C201 1.484 . S
C1414 C585 1.523 . S
C1431 C258 1.448 . S
C1450 C501 1.504 . S
C1467 C277 1.436 . S
C1486 C577 1.469 . S
C1522 C417 1.437 . S
C1503 C239 1.425 . S
C1558 C650 1.409 . S
C1539 C25 1.439 . S
C1575 C44 1.471 . S
C1594 C734 1.385 . S
C1611 C6 1.423 . S
C1630 C828 1.432 . S
C1647 C329 1.411 . S
C1666 C744 1.408 . S
C1683 C291 1.424 . S
C1702 C818 1.390 . S
C1719 C310 1.384 . S
C1738 C660 1.371 . S
C1755 C334 1.459 . S
C1774 C661 1.459 . S
C1791 C296 1.480 . S
C1810 C745 1.486 . S
C1846 C837 1.535 . S
C1827 C315 1.472 . S
C1863 C30 1.441 . S
C1882 C753 1.505 . S
C1918 C829 1.477 . S
C1899 C49 1.439 . S
C1935 C11 1.419 . S
C1954 C669 1.486 . S
C1990 C902 1.352 . S
C1971 C139 1.440 . S
C2007 C158 1.471 . S
C2026 C986 1.386 . S
C2062 C1080 1.435 . S
C2043 C120 1.425 . S
C2098 C996 1.415 . S
C2079 C101 1.407 . S
C2134 C1070 1.397 . S
C2115 C63 1.426 . S
C2151 C82 1.380 . S
C2170 C912 1.380 . S
C2187 C106 1.457 . S
C2206 C913 1.453 . S
C2223 C68 1.480 . S
C2242 C997 1.480 . S
C2278 C1089 1.538 . S
C2259 C87 1.472 . S
C2295 C144 1.445 . S
C2314 C1005 1.507 . S
C2331 C163 1.435 . S
C2350 C1081 1.467 . S
C2367 C125 1.418 . S
C2386 C921 1.445 . S
C2403 C287 1.652 . S
C2422 C405 1.549 . S
C2458 C489 1.568 . S
C2439 C306 1.738 . S
C2475 C325 1.669 . S
C2494 C582 1.509 . S
C2511 C116 1.697 . S
C2530 C498 1.464 . S
C2547 C135 1.683 . S
C2566 C573 1.527 . S
C2602 C414 1.385 . S
C2583 C154 1.610 . S
C2619 C59 1.651 . S
C2638 C657 1.534 . S
C2655 C78 1.739 . S
C2674 C741 1.620 . S
C2691 C97 1.665 . S
C2710 C834 1.465 . S
C2727 C230 1.698 . S
C2746 C750 1.483 . S
C2782 C825 1.567 . S
C2763 C249 1.689 . S
C2799 C268 1.616 . S
C2818 C666 1.454 . S
C2835 C173 1.655 . S
C2854 C909 1.516 . S
C2871 C192 1.741 . S
C2890 C993 1.627 . S
C2926 C1086 1.433 . S
C2907 C211 1.662 . S
C2943 C2 1.696 . S
C2962 C1002 1.445 . S
C2979 C21 1.688 . S
C2998 C1077 1.539 . S
C3015 C40 1.615 . S
C3034 C918 1.438 . S
