# Generated by pormake.
# Topology ctn, (3,4)-cn, num edge types: 1
# Building blocks:
#     Node 0, Type 0, BuildingBlock: VETTIZ_charged_linker_0, # of connection points: 3
#     Node 1, Type 0, BuildingBlock: VETTIZ_charged_linker_0, # of connection points: 3
#     Node 2, Type 0, BuildingBlock: VETTIZ_charged_linker_0, # of connection points: 3
#     Node 3, Type 0, BuildingBlock: VETTIZ_charged_linker_0, # of connection points: 3
#     Node 4, Type 0, BuildingBlock: VETTIZ_charged_linker_0, # of connection points: 3
#     Node 5, Type 0, BuildingBlock: VETTIZ_charged_linker_0, # of connection points: 3
#     Node 6, Type 0, BuildingBlock: VETTIZ_charged_linker_0, # of connection points: 3
#     Node 7, Type 0, BuildingBlock: VETTIZ_charged_linker_0, # of connection points: 3
#     Node 8, Type 0, BuildingBlock: VETTIZ_charged_linker_0, # of connection points: 3
#     Node 9, Type 0, BuildingBlock: VETTIZ_charged_linker_0, # of connection points: 3
#     Node 10, Type 0, BuildingBlock: VETTIZ_charged_linker_0, # of connection points: 3
#     Node 11, Type 0, BuildingBlock: VETTIZ_charged_linker_0, # of connection points: 3
#     Node 12, Type 0, BuildingBlock: VETTIZ_charged_linker_0, # of connection points: 3
#     Node 13, Type 0, BuildingBlock: VETTIZ_charged_linker_0, # of connection points: 3
#     Node 14, Type 0, BuildingBlock: VETTIZ_charged_linker_0, # of connection points: 3
#     Node 15, Type 0, BuildingBlock: VETTIZ_charged_linker_0, # of connection points: 3
#     Node 16, Type 1, BuildingBlock: NAHDIM_clean_sbu_0, # of connection points: 4
#     Node 17, Type 1, BuildingBlock: NAHDIM_clean_sbu_0, # of connection points: 4
#     Node 18, Type 1, BuildingBlock: NAHDIM_clean_sbu_0, # of connection points: 4
#     Node 19, Type 1, BuildingBlock: NAHDIM_clean_sbu_0, # of connection points: 4
#     Node 20, Type 1, BuildingBlock: NAHDIM_clean_sbu_0, # of connection points: 4
#     Node 21, Type 1, BuildingBlock: NAHDIM_clean_sbu_0, # of connection points: 4
#     Node 22, Type 1, BuildingBlock: NAHDIM_clean_sbu_0, # of connection points: 4
#     Node 23, Type 1, BuildingBlock: NAHDIM_clean_sbu_0, # of connection points: 4
#     Node 24, Type 1, BuildingBlock: NAHDIM_clean_sbu_0, # of connection points: 4
#     Node 25, Type 1, BuildingBlock: NAHDIM_clean_sbu_0, # of connection points: 4
#     Node 26, Type 1, BuildingBlock: NAHDIM_clean_sbu_0, # of connection points: 4
#     Node 27, Type 1, BuildingBlock: NAHDIM_clean_sbu_0, # of connection points: 4
#     Edge 28, Type (0, 1), None
#     Edge 29, Type (0, 1), None
#     Edge 30, Type (0, 1), None
#     Edge 31, Type (0, 1), None
#     Edge 32, Type (0, 1), None
#     Edge 33, Type (0, 1), None
#     Edge 34, Type (0, 1), None
#     Edge 35, Type (0, 1), None
#     Edge 36, Type (0, 1), None
#     Edge 37, Type (0, 1), None
#     Edge 38, Type (0, 1), None
#     Edge 39, Type (0, 1), None
#     Edge 40, Type (0, 1), None
#     Edge 41, Type (0, 1), None
#     Edge 42, Type (0, 1), None
#     Edge 43, Type (0, 1), None
#     Edge 44, Type (0, 1), None
#     Edge 45, Type (0, 1), None
#     Edge 46, Type (0, 1), None
#     Edge 47, Type (0, 1), None
#     Edge 48, Type (0, 1), None
#     Edge 49, Type (0, 1), None
#     Edge 50, Type (0, 1), None
#     Edge 51, Type (0, 1), None
#     Edge 52, Type (0, 1), None
#     Edge 53, Type (0, 1), None
#     Edge 54, Type (0, 1), None
#     Edge 55, Type (0, 1), None
#     Edge 56, Type (0, 1), None
#     Edge 57, Type (0, 1), None
#     Edge 58, Type (0, 1), None
#     Edge 59, Type (0, 1), None
#     Edge 60, Type (0, 1), None
#     Edge 61, Type (0, 1), None
#     Edge 62, Type (0, 1), None
#     Edge 63, Type (0, 1), None
#     Edge 64, Type (0, 1), None
#     Edge 65, Type (0, 1), None
#     Edge 66, Type (0, 1), None
#     Edge 67, Type (0, 1), None
#     Edge 68, Type (0, 1), None
#     Edge 69, Type (0, 1), None
#     Edge 70, Type (0, 1), None
#     Edge 71, Type (0, 1), None
#     Edge 72, Type (0, 1), None
#     Edge 73, Type (0, 1), None
#     Edge 74, Type (0, 1), None
#     Edge 75, Type (0, 1), None
# Relax obj value: 0.002
# Max RMSD: 0.031
# Mean RMSD: 0.018
data_MOF--net-ctn--node1-NAHDIM_clean_sbu_0--node2-VETTIZ_charged_linker_0--edge1-none
_symmetry_space_group_name_H-M    P1
_symmetry_Int_Tables_number       1
_symmetry_cell_setting            triclinic
loop_
_symmetry_equiv_pos_as_xyz
'x, y, z'
_cell_length_a     35.702653
_cell_length_b     36.498366
_cell_length_c     35.963634
_cell_angle_alpha  91.412222
_cell_angle_beta   89.591723
_cell_angle_gamma 92.891596
loop_
_atom_site_label
_atom_site_type_symbol
_atom_site_fract_x
_atom_site_fract_y
_atom_site_fract_z
_atom_type_partial_charge
C0 C 0.04446 0.14301 0.96397 0.0
C1 C 0.01305 0.16466 0.96588 0.0
C2 C 0.9855 0.15753 0.99341 0.0
C3 C 0.02097 0.10806 0.01657 0.0
C4 C 0.04777 0.11501 0.98943 0.0
C5 C 0.07943 0.08959 0.99109 0.0
H6 H 0.16219 0.94867 0.06968 0.0
C7 C 0.03317 0.07719 0.03867 0.0
C8 C 0.06731 0.06625 0.02383 0.0
H9 H 0.19944 0.01432 0.97646 0.0
H10 H 0.14514 0.04951 0.98226 0.0
H11 H 0.13288 0.01933 0.12065 0.0
H12 H 0.07104 0.94289 0.04708 0.0
H13 H 0.04709 0.948 0.08988 0.0
H14 H 0.09238 0.92845 0.08904 0.0
H15 H 0.12599 0.97155 0.13105 0.0
H16 H 0.09065 0.0037 0.14199 0.0
C17 C 0.11602 0.11312 0.99932 0.0
C18 C 0.07981 0.0668 0.95408 0.0
C19 C 0.95313 0.03463 0.14777 0.0
C20 C 0.95674 0.00786 0.1747 0.0
C21 C 0.98795 0.98551 0.17245 0.0
C22 C 0.01517 0.9901 0.14416 0.0
C23 C 0.01137 0.01746 0.11778 0.0
C24 C 0.98055 0.03899 0.11993 0.0
C25 C 0.98089 0.06703 0.09015 0.0
C26 C 0.017 0.05911 0.0698 0.0
C27 C 0.03504 0.02995 0.08584 0.0
C28 C 0.98275 0.10567 0.10923 0.0
C29 C 0.94601 0.05878 0.06528 0.0
C30 C 0.15842 0.97062 0.05054 0.0
C31 C 0.18538 0.97858 0.02246 0.0
C32 C 0.17945 0.0075 0.99833 0.0
C33 C 0.14765 0.02803 0.00171 0.0
C34 C 0.12109 0.01999 0.02966 0.0
C35 C 0.12651 0.99183 0.0537 0.0
C36 C 0.09499 0.98827 0.08206 0.0
C37 C 0.06984 0.01864 0.07054 0.0
C38 C 0.08564 0.03689 0.03977 0.0
C39 C 0.11178 0.99585 0.12116 0.0
C40 C 0.07527 0.94983 0.07711 0.0
H41 H 0.9674 0.12543 0.03904 0.0
H42 H 0.06612 0.14766 0.94313 0.0
H43 H 0.05093 0.06165 0.94304 0.0
H44 H 0.09038 0.03913 0.95733 0.0
H45 H 0.09666 0.08135 0.9324 0.0
H46 H 0.11021 0.13794 0.0166 0.0
H47 H 0.12976 0.12259 0.97322 0.0
H48 H 0.13637 0.09858 0.01581 0.0
H49 H 0.92968 0.05236 0.14855 0.0
H50 H 0.99153 0.96456 0.19276 0.0
H51 H 0.03824 0.97236 0.14402 0.0
H52 H 0.99985 0.10593 0.13501 0.0
H53 H 0.95433 0.11428 0.11716 0.0
H54 H 0.99664 0.12695 0.09188 0.0
H55 H 0.93923 0.02873 0.06273 0.0
H56 H 0.95037 0.06765 0.03636 0.0
H57 H 0.92095 0.07177 0.07711 0.0
H58 H 0.96098 0.17377 0.9955 0.0
C59 C 0.98929 0.12938 0.01872 0.0
C60 C 0.2318 0.60675 0.24549 0.0
C61 C 0.19683 0.60092 0.22763 0.0
C62 C 0.18349 0.62873 0.20561 0.0
C63 C 0.23994 0.66657 0.2176 0.0
C64 C 0.25268 0.64004 0.24044 0.0
C65 C 0.28958 0.65225 0.25843 0.0
H66 H 0.43622 0.7795 0.26801 0.0
C67 C 0.26834 0.69729 0.21683 0.0
C68 C 0.29757 0.68948 0.24091 0.0
H69 H 0.41976 0.68274 0.33422 0.0
H70 H 0.36062 0.66754 0.30312 0.0
H71 H 0.35391 0.80486 0.27783 0.0
H72 H 0.40734 0.74312 0.19094 0.0
H73 H 0.3781 0.77308 0.169 0.0
H74 H 0.41604 0.79166 0.19772 0.0
H75 H 0.38608 0.82591 0.24524 0.0
H76 H 0.33657 0.82 0.23564 0.0
C77 C 0.28313 0.65589 0.30092 0.0
C78 C 0.31919 0.62456 0.24709 0.0
C79 C 0.25156 0.79969 0.12661 0.0
C80 C 0.27449 0.83021 0.11636 0.0
C81 C 0.30858 0.83789 0.13521 0.0
C82 C 0.32003 0.81497 0.16323 0.0
C83 C 0.29725 0.78391 0.17242 0.0
C84 C 0.26353 0.77694 0.15439 0.0
C85 C 0.24337 0.74231 0.16697 0.0
C86 C 0.27065 0.72947 0.19547 0.0
C87 C 0.30207 0.75388 0.19855 0.0
C88 C 0.20558 0.75257 0.18506 0.0
C89 C 0.23962 0.71553 0.13284 0.0
C90 C 0.42007 0.7549 0.27575 0.0
C91 C 0.43282 0.7322 0.3034 0.0
C92 C 0.41051 0.70074 0.31299 0.0
C93 C 0.37621 0.69197 0.29494 0.0
C94 C 0.36381 0.71518 0.26739 0.0
C95 C 0.38564 0.74621 0.25859 0.0
C96 C 0.36781 0.76878 0.22998 0.0
C97 C 0.33152 0.74648 0.22305 0.0
C98 C 0.32929 0.7147 0.24454 0.0
C99 C 0.36084 0.80703 0.24772 0.0
C100 C 0.39356 0.7696 0.19505 0.0
H101 H 0.19313 0.6811 0.18293 0.0
H102 H 0.24233 0.58618 0.26333 0.0
H103 H 0.31812 0.61858 0.21663 0.0
H104 H 0.34811 0.63494 0.25304 0.0
H105 H 0.31398 0.59825 0.2616 0.0
H106 H 0.25476 0.66581 0.30726 0.0
H107 H 0.2853 0.62905 0.31445 0.0
H108 H 0.30278 0.67634 0.3144 0.0
H109 H 0.22523 0.79292 0.11265 0.0
H110 H 0.32675 0.86132 0.1279 0.0
H111 H 0.34645 0.82206 0.17622 0.0
H112 H 0.20727 0.78102 0.19701 0.0
H113 H 0.18254 0.75094 0.16439 0.0
H114 H 0.19755 0.73517 0.20889 0.0
H115 H 0.26522 0.71763 0.11504 0.0
H116 H 0.23686 0.68641 0.14037 0.0
H117 H 0.21536 0.72188 0.11537 0.0
H118 H 0.15667 0.62504 0.19175 0.0
C119 C 0.20482 0.66133 0.20043 0.0
C120 C 0.02759 0.35806 0.95501 0.0
C121 C 0.01076 0.35209 0.91993 0.0
C122 C 0.9868 0.37803 0.90644 0.0
C123 C 0.99328 0.41323 0.96407 0.0
C124 C 0.01899 0.38929 0.97633 0.0
C125 C 0.03551 0.40165 0.01338 0.0
H126 H 0.03079 0.51783 0.16381 0.0
C127 C 0.9878 0.44099 0.9937 0.0
C128 C 0.01286 0.43503 0.0225 0.0
H129 H 0.11195 0.4366 0.13849 0.0
H130 H 0.07985 0.4202 0.08102 0.0
H131 H 0.9583 0.46876 0.13613 0.0
H132 H 0.02843 0.55025 0.0804 0.0
H133 H 0.98099 0.5588 0.07261 0.0
H134 H 0.99877 0.56098 0.11933 0.0
H135 H 0.95503 0.5169 0.14615 0.0
H136 H 0.92907 0.49408 0.1086 0.0
C137 C 0.02778 0.37082 0.04156 0.0
C138 C 0.07775 0.4122 0.0076 0.0
C139 C 0.87868 0.5229 0.98255 0.0
C140 C 0.86175 0.54733 0.0073 0.0
C141 C 0.87812 0.55479 0.04248 0.0
C142 C 0.91076 0.53779 0.05284 0.0
C143 C 0.92696 0.51279 0.02791 0.0
C144 C 0.91074 0.50575 0.99351 0.0
C145 C 0.93001 0.47691 0.97134 0.0
C146 C 0.96068 0.46776 0.99798 0.0
C147 C 0.9591 0.48897 0.03096 0.0
C148 C 0.90115 0.44418 0.9647 0.0
C149 C 0.94618 0.49449 0.93536 0.0
C150 C 0.04164 0.49647 0.14595 0.0
C151 C 0.07399 0.47852 0.15578 0.0
C152 C 0.08724 0.45101 0.13154 0.0
C153 C 0.06863 0.44152 0.09815 0.0
C154 C 0.03659 0.45994 0.08859 0.0
C155 C 0.02371 0.48707 0.11222 0.0
C156 C 0.98989 0.50446 0.0969 0.0
C157 C 0.98547 0.48422 0.05967 0.0
C158 C 0.0125 0.45768 0.05526 0.0
C159 C 0.95621 0.49599 0.12326 0.0
C160 C 0.99968 0.54589 0.09216 0.0
H161 H 0.9587 0.42672 0.91685 0.0
H162 H 0.04714 0.33904 0.96538 0.0
H163 H 0.08422 0.41894 0.97816 0.0
H164 H 0.08688 0.43726 0.02375 0.0
H165 H 0.09553 0.38942 0.01509 0.0
H166 H 0.99782 0.3609 0.04052 0.0
H167 H 0.04524 0.34711 0.03512 0.0
H168 H 0.03325 0.38001 0.07055 0.0
H169 H 0.86664 0.51632 0.95548 0.0
H170 H 0.86563 0.57371 0.06204 0.0
H171 H 0.92189 0.54446 0.07994 0.0
H172 H 0.88357 0.43939 0.98996 0.0
H173 H 0.88204 0.44962 0.94145 0.0
H174 H 0.91405 0.41785 0.95893 0.0
H175 H 0.95163 0.52464 0.93912 0.0
H176 H 0.97378 0.48406 0.92738 0.0
H177 H 0.9265 0.48998 0.91172 0.0
H178 H 0.9739 0.37411 0.87935 0.0
C179 C 0.97789 0.40848 0.92835 0.0
C180 C 0.62864 0.76993 0.29571 0.0
C181 C 0.60636 0.73683 0.29388 0.0
C182 C 0.61334 0.7109 0.26538 0.0
C183 C 0.66358 0.75066 0.24113 0.0
C184 C 0.65709 0.77624 0.26906 0.0
C185 C 0.68368 0.80969 0.26649 0.0
H186 H 0.82656 0.89796 0.17214 0.0
C187 C 0.69472 0.76519 0.21778 0.0
C188 C 0.70686 0.79985 0.23228 0.0
H189 H 0.7715 0.93621 0.27218 0.0
H190 H 0.7314 0.88054 0.2724 0.0
H191 H 0.7522 0.86498 0.13055 0.0
H192 H 0.83561 0.81911 0.19851 0.0
H193 H 0.82316 0.78494 0.16513 0.0
H194 H 0.84392 0.82836 0.15033 0.0
H195 H 0.79945 0.85883 0.11516 0.0
H196 H 0.76326 0.82292 0.10948 0.0
C197 C 0.66031 0.84349 0.26019 0.0
C198 C 0.70771 0.81257 0.30214 0.0
C199 C 0.73735 0.68862 0.1073 0.0
C200 C 0.76589 0.69406 0.08064 0.0
C201 C 0.78856 0.72679 0.08202 0.0
C202 C 0.78281 0.75374 0.10956 0.0
C203 C 0.7542 0.74787 0.13611 0.0
C204 C 0.73215 0.71569 0.13472 0.0
C205 C 0.70356 0.71384 0.1655 0.0
C206 C 0.71212 0.75025 0.18569 0.0
C207 C 0.74159 0.77006 0.16826 0.0
C208 C 0.66406 0.71197 0.14761 0.0
C209 C 0.7118 0.68073 0.18993 0.0
C210 C 0.80575 0.89461 0.19402 0.0
C211 C 0.8021 0.92167 0.22199 0.0
C212 C 0.77488 0.91578 0.25022 0.0
C213 C 0.75162 0.88345 0.25031 0.0
C214 C 0.75578 0.8566 0.22204 0.0
C215 C 0.78271 0.86254 0.1947 0.0
C216 C 0.78444 0.83098 0.16743 0.0
C217 C 0.75387 0.80511 0.18248 0.0
C218 C 0.73682 0.82007 0.21441 0.0
C219 C 0.77461 0.84491 0.12846 0.0
C220 C 0.82379 0.81498 0.17007 0.0
H221 H 0.64535 0.69668 0.21818 0.0
H222 H 0.62403 0.79045 0.3173 0.0
H223 H 0.71563 0.78492 0.31067 0.0
H224 H 0.73451 0.82845 0.29827 0.0
H225 H 0.69201 0.82508 0.3256 0.0
H226 H 0.63782 0.83679 0.23951 0.0
H227 H 0.64672 0.8526 0.28649 0.0
H228 H 0.67705 0.86687 0.2488 0.0
H229 H 0.71953 0.66369 0.10712 0.0
H230 H 0.81069 0.73169 0.06172 0.0
H231 H 0.80092 0.77808 0.10905 0.0
H232 H 0.66399 0.72821 0.12182 0.0
H233 H 0.65488 0.68326 0.13994 0.0
H234 H 0.6425 0.72406 0.16562 0.0
H235 H 0.74232 0.67589 0.19025 0.0
H236 H 0.70432 0.68517 0.21951 0.0
H237 H 0.69702 0.65512 0.1793 0.0
H238 H 0.59674 0.68527 0.26321 0.0
C239 C 0.64169 0.71761 0.23911 0.0
C240 C 0.02081 0.85853 0.55031 0.0
C241 C 0.98887 0.83431 0.5506 0.0
C242 C 0.95961 0.83974 0.52547 0.0
C243 C 0.99422 0.89252 0.50042 0.0
C244 C 0.02287 0.8873 0.5251 0.0
C245 C 0.05485 0.91542 0.52104 0.0
H246 H 0.13165 0.06248 0.43172 0.0
C247 C 1.00511 0.92477 0.47792 0.0
C248 C 0.04064 0.93834 0.48991 0.0
H249 H 0.17827 0.00516 0.52308 0.0
H250 H 0.12324 0.96391 0.52455 0.0
H251 H 0.05131 0.06585 0.46536 0.0
H252 H 0.09784 0.98985 0.38656 0.0
H253 H 0.05359 0.00072 0.37012 0.0
H254 H 0.08971 0.03661 0.37606 0.0
H255 H 0.05825 0.07691 0.4174 0.0
H256 H 0.01549 0.05377 0.43356 0.0
C257 C 0.05884 0.93778 0.55812 0.0
C258 C 0.09027 0.8951 0.50926 0.0
C259 C 0.91887 0.96462 0.37586 0.0
C260 C 0.92179 0.99319 0.35022 0.0
C261 C 0.95327 0.0181 0.35183 0.0
C262 C 0.98174 0.01412 0.37783 0.0
C263 C 0.97887 0.98493 0.40263 0.0
C264 C 0.94757 0.96108 0.40174 0.0
C265 C 0.94917 0.93198 0.43059 0.0
C266 C 0.98675 0.94212 0.44865 0.0
C267 C 1.00407 0.97299 0.43195 0.0
C268 C 0.91603 0.93661 0.45808 0.0
C269 C 0.94906 0.89407 0.4102 0.0
C270 C 0.13022 0.04087 0.45187 0.0
C271 C 0.15952 0.03696 0.47715 0.0
C272 C 0.15614 0.00874 0.50324 0.0
C273 C 0.12413 0.98481 0.50406 0.0
C274 C 0.09503 0.98918 0.47864 0.0
C275 C 0.09836 0.01698 0.45325 0.0
C276 C 0.06435 0.0183 0.42902 0.0
C277 C 0.04013 0.98649 0.44379 0.0
C278 C 0.05827 0.96938 0.4727 0.0
C279 C 0.04635 0.05564 0.4363 0.0
C280 C 0.07674 0.01127 0.38819 0.0
H281 H 0.93891 0.8712 0.48208 0.0
H282 H 0.04381 0.85521 0.56921 0.0
H283 H 0.08291 0.8721 0.48933 0.0
H284 H 0.11121 0.9127 0.49448 0.0
H285 H 0.10377 0.88336 0.53369 0.0
H286 H 0.03095 0.94137 0.57134 0.0
H287 H 0.07633 0.92371 0.57823 0.0
H288 H 0.07073 0.96598 0.55433 0.0
H289 H 0.89503 0.94505 0.37553 0.0
H290 H 0.9563 0.04036 0.33249 0.0
H291 H 1.00514 0.03373 0.37727 0.0
H292 H 0.9101 0.96607 0.46223 0.0
H293 H 0.89001 0.92208 0.4475 0.0
H294 H 0.92191 0.92701 0.48622 0.0
H295 H 0.96586 0.89573 0.38406 0.0
H296 H 0.96211 0.87294 0.42649 0.0
H297 H 0.92011 0.88418 0.40267 0.0
H298 H 0.93467 0.82157 0.52502 0.0
C299 C 0.9621 0.86865 0.50048 0.0
C300 C 0.30242 0.6453 0.80917 0.0
C301 C 0.30209 0.61924 0.77968 0.0
C302 C 0.27586 0.62217 0.75082 0.0
C303 C 0.25093 0.67603 0.78138 0.0
C304 C 0.27695 0.67331 0.80938 0.0
C305 C 0.27427 0.70322 0.83863 0.0
H306 H 0.1936 0.85728 0.90084 0.0
C307 C 0.22859 0.70843 0.79013 0.0
C308 C 0.2425 0.7245 0.82364 0.0
H309 H 0.28261 0.80111 0.9526 0.0
H310 H 0.27997 0.75488 0.90325 0.0
H311 H 0.14365 0.7857 0.88229 0.0
H312 H 0.22329 0.85134 0.82003 0.0
H313 H 0.18858 0.83702 0.78787 0.0
H314 H 0.17615 0.86447 0.82815 0.0
H315 H 0.13265 0.82865 0.86297 0.0
H316 H 0.1254 0.78582 0.83724 0.0
C317 C 0.26373 0.68523 0.87611 0.0
C318 C 0.31189 0.72631 0.83909 0.0
C319 C 0.11899 0.74209 0.70826 0.0
C320 C 0.09445 0.77128 0.71076 0.0
C321 C 0.09989 0.79814 0.7392 0.0
C322 C 0.12835 0.79578 0.76521 0.0
C323 C 0.15204 0.76626 0.76305 0.0
C324 C 0.14774 0.74025 0.73467 0.0
C325 C 0.17686 0.71161 0.73673 0.0
C326 C 0.19819 0.72424 0.77176 0.0
C327 C 0.18314 0.75619 0.78683 0.0
C328 C 0.15635 0.67367 0.74135 0.0
C329 C 0.2019 0.71435 0.70152 0.0
C330 C 0.21255 0.83505 0.90165 0.0
C331 C 0.2384 0.83298 0.93058 0.0
C332 C 0.26233 0.80334 0.93062 0.0
C333 C 0.26086 0.77657 0.90185 0.0
C334 C 0.23509 0.77936 0.87278 0.0
C335 C 0.21133 0.8081 0.87336 0.0
C336 C 0.18519 0.80658 0.84092 0.0
C337 C 0.1974 0.77241 0.82034 0.0
C338 C 0.2267 0.75657 0.83888 0.0
C339 C 0.14453 0.8017 0.85632 0.0
C340 C 0.19329 0.84166 0.81802 0.0
H341 H 0.23083 0.65088 0.729 0.0
H342 H 0.32218 0.64406 0.83177 0.0
H343 H 0.32306 0.72977 0.81035 0.0
H344 H 0.30914 0.75448 0.85025 0.0
H345 H 0.33337 0.7128 0.8554 0.0
H346 H 0.24452 0.66057 0.87168 0.0
H347 H 0.28903 0.67638 0.89053 0.0
H348 H 0.24823 0.70341 0.89504 0.0
H349 H 0.11578 0.72116 0.68648 0.0
H350 H 0.08169 0.82094 0.74183 0.0
H351 H 0.13045 0.81704 0.78625 0.0
H352 H 0.13333 0.67548 0.76223 0.0
H353 H 0.14379 0.66346 0.71464 0.0
H354 H 0.1748 0.65285 0.75161 0.0
H355 H 0.20676 0.74344 0.69343 0.0
H356 H 0.23015 0.70431 0.70578 0.0
H357 H 0.18852 0.69905 0.67761 0.0
H358 H 0.27483 0.60245 0.7278 0.0
C359 C 0.25027 0.6503 0.75157 0.0
C360 C 0.87962 0.47821 0.4891 0.0
C361 C 0.87023 0.44547 0.4693 0.0
C362 C 0.89368 0.43463 0.43962 0.0
C363 C 0.93561 0.48813 0.45093 0.0
C364 C 0.91224 0.49882 0.47963 0.0
C365 C 0.92652 0.53348 0.49908 0.0
H366 H 0.05873 0.67085 0.51911 0.0
C367 C 0.96794 0.51523 0.44942 0.0
C368 C 0.96259 0.54169 0.47777 0.0
H369 H 0.95557 0.653 0.58152 0.0
H370 H 0.94037 0.59844 0.54497 0.0
H371 H 0.02237 0.6495 0.43809 0.0
H372 H 0.0819 0.58959 0.51816 0.0
H373 H 0.09553 0.57237 0.47444 0.0
H374 H 0.10588 0.62012 0.48659 0.0
H375 H 0.07143 0.65767 0.44752 0.0
H376 H 0.05503 0.6236 0.41354 0.0
C377 C 0.89757 0.56314 0.49341 0.0
C378 C 0.93396 0.52467 0.5403 0.0
C379 C 0.07254 0.50291 0.35264 0.0
C380 C 0.10651 0.52343 0.34672 0.0
C381 C 0.11589 0.55353 0.37074 0.0
C382 C 0.09182 0.56355 0.39965 0.0
C383 C 0.0579 0.5432 0.40504 0.0
C384 C 0.04885 0.51309 0.38217 0.0
C385 C 0.0123 0.49385 0.39368 0.0
C386 C 1.0006 0.51805 0.42643 0.0
C387 C 0.02745 0.54702 0.43264 0.0
C388 C 0.98454 0.49478 0.36095 0.0
C389 C 0.02066 0.45471 0.40583 0.0
C390 C 0.03285 0.65518 0.52486 0.0
C391 C 0.00834 0.66633 0.55329 0.0
C392 C 0.97499 0.64509 0.55983 0.0
C393 C 0.96616 0.61332 0.5385 0.0
C394 C 0.99089 0.60247 0.51023 0.0
C395 C 0.02356 0.62328 0.50375 0.0
C396 C 0.04636 0.60744 0.47247 0.0
C397 C 0.02183 0.57378 0.46122 0.0
C398 C 0.98951 0.57111 0.48349 0.0
C399 C 0.04935 0.63592 0.44119 0.0
C400 C 0.08456 0.59698 0.48839 0.0
H401 H 0.94297 0.4461 0.40755 0.0
H402 H 0.86237 0.4874 0.51205 0.0
H403 H 0.94386 0.49641 0.54278 0.0
H404 H 0.95645 0.5426 0.55301 0.0
H405 H 0.90806 0.52649 0.55741 0.0
H406 H 0.88338 0.55922 0.46604 0.0
H407 H 0.87548 0.56197 0.51531 0.0
H408 H 0.91056 0.59124 0.49277 0.0
H409 H 0.06474 0.47935 0.33495 0.0
H410 H 0.14176 0.56985 0.3669 0.0
H411 H 0.1006 0.58691 0.41664 0.0
H412 H 0.9861 0.52226 0.34814 0.0
H413 H 0.99117 0.47413 0.33898 0.0
H414 H 0.95504 0.49001 0.36964 0.0
H415 H 0.04802 0.45474 0.42046 0.0
H416 H 0.99991 0.44342 0.42593 0.0
H417 H 0.02207 0.43557 0.38141 0.0
H418 H 0.88706 0.40956 0.42375 0.0
C419 C 0.92622 0.45581 0.43028 0.0
C420 C 0.78199 0.67865 0.89877 0.0
C421 C 0.75115 0.68147 0.92315 0.0
C422 C 0.72607 0.70947 0.91799 0.0
C423 C 0.76305 0.73198 0.86594 0.0
C424 C 0.78738 0.7042 0.87044 0.0
C425 C 0.81894 0.70591 0.84235 0.0
H426 H 0.90434 0.79116 0.69648 0.0
C427 C 0.77695 0.75462 0.83486 0.0
C428 C 0.80968 0.73959 0.82074 0.0
H429 H 0.93652 0.69336 0.75121 0.0
H430 H 0.88422 0.6975 0.79344 0.0
H431 H 0.884 0.8363 0.77213 0.0
H432 H 0.81489 0.77 0.69599 0.0
H433 H 0.79172 0.81027 0.7072 0.0
H434 H 0.83641 0.81358 0.68362 0.0
H435 H 0.87314 0.85139 0.72649 0.0
H436 H 0.84222 0.85869 0.76557 0.0
C437 C 0.85638 0.71185 0.86369 0.0
C438 C 0.81594 0.6704 0.81782 0.0
C439 C 0.70587 0.86568 0.80117 0.0
C440 C 0.71171 0.89299 0.77465 0.0
C441 C 0.7432 0.89159 0.75076 0.0
C442 C 0.76829 0.86333 0.75321 0.0
C443 C 0.76197 0.83617 0.7799 0.0
C444 C 0.73121 0.83783 0.80334 0.0
C445 C 0.72903 0.80723 0.83045 0.0
C446 C 0.76339 0.7867 0.81936 0.0
C447 C 0.78265 0.8036 0.7897 0.0
C448 C 0.73245 0.82444 0.87027 0.0
C449 C 0.69218 0.78387 0.82306 0.0
C450 C 0.90015 0.77066 0.71758 0.0
C451 C 0.9247 0.74184 0.72036 0.0
C452 C 0.91812 0.71581 0.74832 0.0
C453 C 0.88764 0.71822 0.77288 0.0
C454 C 0.86325 0.74697 0.76962 0.0
C455 C 0.86972 0.77266 0.74238 0.0
C456 C 0.84074 0.80129 0.74314 0.0
C457 C 0.8157 0.78832 0.77504 0.0
C458 C 0.8291 0.75649 0.79049 0.0
C459 C 0.86082 0.83906 0.75202 0.0
C460 C 0.81983 0.79906 0.70552 0.0
H461 H 0.71177 0.75535 0.88748 0.0
H462 H 0.8018 0.65744 0.90196 0.0
H463 H 0.78609 0.66123 0.81326 0.0
H464 H 0.82768 0.67419 0.78961 0.0
H465 H 0.82996 0.64767 0.83116 0.0
H466 H 0.85308 0.73079 0.88809 0.0
H467 H 0.86594 0.68553 0.87415 0.0
H468 H 0.87902 0.72495 0.84682 0.0
H469 H 0.68213 0.86594 0.82008 0.0
H470 H 0.74839 0.91229 0.73002 0.0
H471 H 0.79163 0.86372 0.73422 0.0
H472 H 0.7509 0.84995 0.87046 0.0
H473 H 0.70464 0.83175 0.8814 0.0
H474 H 0.74573 0.80649 0.89007 0.0
H475 H 0.68494 0.78328 0.79299 0.0
H476 H 0.6943 0.75471 0.82996 0.0
H477 H 0.66824 0.79521 0.83865 0.0
H478 H 0.70203 0.71227 0.9362 0.0
C479 C 0.73181 0.73461 0.88961 0.0
C480 C 0.28199 0.17865 0.39877 0.0
C481 C 0.25114 0.18147 0.42314 0.0
C482 C 0.22606 0.20946 0.41799 0.0
C483 C 0.26304 0.23198 0.36594 0.0
C484 C 0.28738 0.2042 0.37043 0.0
C485 C 0.31894 0.20591 0.34235 0.0
H486 H 0.40434 0.29116 0.19648 0.0
C487 C 0.27695 0.25462 0.33485 0.0
C488 C 0.30968 0.23959 0.32074 0.0
H489 H 0.43652 0.19336 0.25121 0.0
H490 H 0.38422 0.1975 0.29344 0.0
H491 H 0.384 0.3363 0.27213 0.0
H492 H 0.31489 0.26999 0.19598 0.0
H493 H 0.29172 0.31027 0.2072 0.0
H494 H 0.33641 0.31358 0.18362 0.0
H495 H 0.37314 0.35139 0.22649 0.0
H496 H 0.34221 0.35869 0.26557 0.0
C497 C 0.35638 0.21185 0.36369 0.0
C498 C 0.31594 0.1704 0.31782 0.0
C499 C 0.20586 0.36568 0.30116 0.0
C500 C 0.2117 0.39298 0.27465 0.0
C501 C 0.24319 0.39159 0.25076 0.0
C502 C 0.26829 0.36333 0.2532 0.0
C503 C 0.26197 0.33617 0.2799 0.0
C504 C 0.23121 0.33783 0.30334 0.0
C505 C 0.22902 0.30722 0.33045 0.0
C506 C 0.26339 0.28669 0.31936 0.0
C507 C 0.28264 0.3036 0.2897 0.0
C508 C 0.23244 0.32443 0.37026 0.0
C509 C 0.19218 0.28386 0.32305 0.0
C510 C 0.40015 0.27066 0.21758 0.0
C511 C 0.4247 0.24184 0.22036 0.0
C512 C 0.41812 0.21581 0.24832 0.0
C513 C 0.38764 0.21822 0.27288 0.0
C514 C 0.36325 0.24697 0.26962 0.0
C515 C 0.36972 0.27265 0.24238 0.0
C516 C 0.34074 0.30128 0.24314 0.0
C517 C 0.3157 0.28832 0.27504 0.0
C518 C 0.3291 0.25649 0.29049 0.0
C519 C 0.36082 0.33906 0.25202 0.0
C520 C 0.31983 0.29906 0.20552 0.0
H521 H 0.21177 0.25534 0.38747 0.0
H522 H 0.3018 0.15744 0.40195 0.0
H523 H 0.28609 0.16123 0.31325 0.0
H524 H 0.32768 0.17419 0.28961 0.0
H525 H 0.32996 0.14767 0.33116 0.0
H526 H 0.35308 0.23079 0.38809 0.0
H527 H 0.36593 0.18553 0.37415 0.0
H528 H 0.37902 0.22495 0.34682 0.0
H529 H 0.18212 0.36594 0.32008 0.0
H530 H 0.24839 0.41229 0.23001 0.0
H531 H 0.29163 0.36372 0.23422 0.0
H532 H 0.25089 0.34995 0.37046 0.0
H533 H 0.20463 0.33175 0.3814 0.0
H534 H 0.24572 0.30649 0.39007 0.0
H535 H 0.18494 0.28328 0.29299 0.0
H536 H 0.19429 0.25471 0.32995 0.0
H537 H 0.16824 0.2952 0.33864 0.0
H538 H 0.20202 0.21226 0.4362 0.0
C539 C 0.23181 0.23461 0.3896 0.0
C540 C 0.52759 0.85806 0.45501 0.0
C541 C 0.51076 0.85209 0.41993 0.0
C542 C 0.4868 0.87803 0.40644 0.0
C543 C 0.49327 0.91323 0.46407 0.0
C544 C 0.51898 0.88929 0.47633 0.0
C545 C 0.5355 0.90165 0.51338 0.0
H546 H 0.53079 0.01783 0.66381 0.0
C547 C 0.4878 0.94098 0.4937 0.0
C548 C 0.51286 0.93503 0.5225 0.0
H549 H 0.61195 0.9366 0.63849 0.0
H550 H 0.57985 0.9202 0.58102 0.0
H551 H 0.4583 0.96876 0.63613 0.0
H552 H 0.52843 0.05025 0.5804 0.0
H553 H 0.48099 0.0588 0.57261 0.0
H554 H 0.49877 0.06098 0.61933 0.0
H555 H 0.45503 0.0169 0.64615 0.0
H556 H 0.42907 0.99408 0.6086 0.0
C557 C 0.52778 0.87082 0.54156 0.0
C558 C 0.57775 0.9122 0.5076 0.0
C559 C 0.37868 0.0229 0.48255 0.0
C560 C 0.36174 0.04733 0.5073 0.0
C561 C 0.37812 0.05479 0.54248 0.0
C562 C 0.41076 0.03779 0.55284 0.0
C563 C 0.42696 0.01279 0.52791 0.0
C564 C 0.41074 0.00575 0.49351 0.0
C565 C 0.43001 0.97691 0.47134 0.0
C566 C 0.46068 0.96776 0.49798 0.0
C567 C 0.4591 0.98897 0.53096 0.0
C568 C 0.40115 0.94418 0.4647 0.0
C569 C 0.44618 0.99449 0.43536 0.0
C570 C 0.54164 0.99647 0.64595 0.0
C571 C 0.57399 0.97853 0.65578 0.0
C572 C 0.58724 0.95101 0.63154 0.0
C573 C 0.56863 0.94152 0.59815 0.0
C574 C 0.53659 0.95994 0.58859 0.0
C575 C 0.52371 0.98707 0.61222 0.0
C576 C 0.48989 0.00446 0.5969 0.0
C577 C 0.48547 0.98422 0.55967 0.0
C578 C 0.51249 0.95768 0.55526 0.0
C579 C 0.45621 0.99599 0.62326 0.0
C580 C 0.49968 0.04589 0.59216 0.0
H581 H 0.4587 0.92672 0.41685 0.0
H582 H 0.54714 0.83904 0.46538 0.0
H583 H 0.58421 0.91894 0.47816 0.0
H584 H 0.58688 0.93726 0.52375 0.0
H585 H 0.59553 0.88942 0.51509 0.0
H586 H 0.49782 0.86089 0.54052 0.0
H587 H 0.54524 0.84711 0.53512 0.0
H588 H 0.53325 0.88001 0.57055 0.0
H589 H 0.36664 0.01632 0.45548 0.0
H590 H 0.36563 0.07372 0.56204 0.0
H591 H 0.42189 0.04446 0.57995 0.0
H592 H 0.38356 0.93938 0.48996 0.0
H593 H 0.38204 0.94962 0.44145 0.0
H594 H 0.41405 0.91785 0.45893 0.0
H595 H 0.45162 0.02464 0.43912 0.0
H596 H 0.47378 0.98406 0.42738 0.0
H597 H 0.42649 0.98998 0.41172 0.0
H598 H 0.4739 0.87411 0.37935 0.0
C599 C 0.47788 0.90848 0.42835 0.0
C600 C 0.12864 0.26993 0.79571 0.0
C601 C 0.10636 0.23683 0.79387 0.0
C602 C 0.11334 0.2109 0.76538 0.0
C603 C 0.16357 0.25066 0.74113 0.0
C604 C 0.15708 0.27624 0.76906 0.0
C605 C 0.18368 0.30969 0.76648 0.0
H606 H 0.32656 0.39796 0.67214 0.0
C607 C 0.19472 0.26519 0.71778 0.0
C608 C 0.20686 0.29986 0.73228 0.0
H609 H 0.2715 0.43621 0.77218 0.0
H610 H 0.2314 0.38054 0.7724 0.0
H611 H 0.25219 0.36499 0.63055 0.0
H612 H 0.3356 0.31912 0.69851 0.0
H613 H 0.32316 0.28495 0.66513 0.0
H614 H 0.34391 0.32837 0.65033 0.0
H615 H 0.29944 0.35883 0.61516 0.0
H616 H 0.26326 0.32293 0.60947 0.0
C617 C 0.16031 0.34349 0.76019 0.0
C618 C 0.20771 0.31257 0.80214 0.0
C619 C 0.23735 0.18862 0.6073 0.0
C620 C 0.26589 0.19406 0.58063 0.0
C621 C 0.28855 0.2268 0.58202 0.0
C622 C 0.28281 0.25375 0.60956 0.0
C623 C 0.2542 0.24787 0.63611 0.0
C624 C 0.23215 0.2157 0.63472 0.0
C625 C 0.20355 0.21384 0.6655 0.0
C626 C 0.21212 0.25025 0.68569 0.0
C627 C 0.24158 0.27007 0.66826 0.0
C628 C 0.16406 0.21197 0.64761 0.0
C629 C 0.2118 0.18073 0.68992 0.0
C630 C 0.30574 0.39462 0.69402 0.0
C631 C 0.30209 0.42167 0.72199 0.0
C632 C 0.27488 0.41578 0.75022 0.0
C633 C 0.25162 0.38346 0.75031 0.0
C634 C 0.25578 0.3566 0.72204 0.0
C635 C 0.28271 0.36254 0.6947 0.0
C636 C 0.28443 0.33099 0.66742 0.0
C637 C 0.25386 0.30512 0.68248 0.0
C638 C 0.23682 0.32008 0.71441 0.0
C639 C 0.27461 0.34491 0.62846 0.0
C640 C 0.32378 0.31499 0.67007 0.0
H641 H 0.14534 0.19668 0.71817 0.0
H642 H 0.12403 0.29045 0.8173 0.0
H643 H 0.21563 0.28492 0.81067 0.0
H644 H 0.23451 0.32845 0.79826 0.0
H645 H 0.19201 0.32508 0.8256 0.0
H646 H 0.13781 0.33679 0.73951 0.0
H647 H 0.14672 0.3526 0.78649 0.0
H648 H 0.17705 0.36688 0.7488 0.0
H649 H 0.21953 0.16369 0.60712 0.0
H650 H 0.31069 0.23169 0.56172 0.0
H651 H 0.30092 0.27809 0.60905 0.0
H652 H 0.16399 0.22821 0.62182 0.0
H653 H 0.15487 0.18326 0.63994 0.0
H654 H 0.14249 0.22406 0.66562 0.0
H655 H 0.24232 0.17589 0.69025 0.0
H656 H 0.20432 0.18518 0.71951 0.0
H657 H 0.19702 0.15512 0.6793 0.0
H658 H 0.09674 0.18527 0.76321 0.0
C659 C 0.14169 0.21761 0.73911 0.0
C660 C 0.73179 0.10675 0.74549 0.0
C661 C 0.69683 0.10092 0.72763 0.0
C662 C 0.68349 0.12873 0.70561 0.0
C663 C 0.73994 0.16657 0.7176 0.0
C664 C 0.75268 0.14004 0.74044 0.0
C665 C 0.78958 0.15225 0.75843 0.0
H666 H 0.93622 0.2795 0.76801 0.0
C667 C 0.76834 0.19729 0.71683 0.0
C668 C 0.79757 0.18948 0.74091 0.0
H669 H 0.91976 0.18274 0.83422 0.0
H670 H 0.86062 0.16754 0.80312 0.0
H671 H 0.8539 0.30486 0.77783 0.0
H672 H 0.90734 0.24312 0.69094 0.0
H673 H 0.8781 0.27309 0.669 0.0
H674 H 0.91604 0.29166 0.69772 0.0
H675 H 0.88608 0.32591 0.74524 0.0
H676 H 0.83657 0.32 0.73564 0.0
C677 C 0.78312 0.15589 0.80092 0.0
C678 C 0.81919 0.12456 0.74709 0.0
C679 C 0.75156 0.29969 0.62661 0.0
C680 C 0.77449 0.33021 0.61636 0.0
C681 C 0.80858 0.33789 0.63521 0.0
C682 C 0.82003 0.31497 0.66323 0.0
C683 C 0.79725 0.28391 0.67242 0.0
C684 C 0.76353 0.27694 0.65439 0.0
C685 C 0.74337 0.24231 0.66697 0.0
C686 C 0.77065 0.22947 0.69547 0.0
C687 C 0.80207 0.25388 0.69855 0.0
C688 C 0.70558 0.25257 0.68506 0.0
C689 C 0.73962 0.21553 0.63284 0.0
C690 C 0.92007 0.2549 0.77575 0.0
C691 C 0.93282 0.2322 0.8034 0.0
C692 C 0.91051 0.20074 0.81299 0.0
C693 C 0.87621 0.19197 0.79494 0.0
C694 C 0.86381 0.21518 0.76739 0.0
C695 C 0.88563 0.24621 0.75859 0.0
C696 C 0.86781 0.26878 0.72998 0.0
C697 C 0.83152 0.24648 0.72306 0.0
C698 C 0.82929 0.2147 0.74454 0.0
C699 C 0.86084 0.30703 0.74772 0.0
C700 C 0.89356 0.26961 0.69506 0.0
H701 H 0.69312 0.1811 0.68293 0.0
H702 H 0.74233 0.08618 0.76333 0.0
H703 H 0.81812 0.11858 0.71663 0.0
H704 H 0.84811 0.13494 0.75304 0.0
H705 H 0.81398 0.09825 0.7616 0.0
H706 H 0.75476 0.16581 0.80726 0.0
H707 H 0.7853 0.12905 0.81445 0.0
H708 H 0.80278 0.17634 0.8144 0.0
H709 H 0.72523 0.29292 0.61265 0.0
H710 H 0.82675 0.36132 0.6279 0.0
H711 H 0.84645 0.32206 0.67622 0.0
H712 H 0.70727 0.28102 0.69701 0.0
H713 H 0.68254 0.25094 0.66439 0.0
H714 H 0.69755 0.23517 0.70889 0.0
H715 H 0.76522 0.21763 0.61504 0.0
H716 H 0.73686 0.18641 0.64037 0.0
H717 H 0.71536 0.22188 0.61537 0.0
H718 H 0.65667 0.12504 0.69175 0.0
C719 C 0.70482 0.16133 0.70043 0.0
C720 C 0.54446 0.64301 0.46397 0.0
C721 C 0.51305 0.66466 0.46588 0.0
C722 C 0.4855 0.65753 0.49341 0.0
C723 C 0.52097 0.60806 0.51657 0.0
C724 C 0.54777 0.61501 0.48943 0.0
C725 C 0.57943 0.58959 0.49109 0.0
H726 H 0.66219 0.44867 0.56968 0.0
C727 C 0.53317 0.57719 0.53867 0.0
C728 C 0.56731 0.56625 0.52383 0.0
H729 H 0.69943 0.51432 0.47646 0.0
H730 H 0.64514 0.54951 0.48226 0.0
H731 H 0.63288 0.51933 0.62065 0.0
H732 H 0.57104 0.44289 0.54708 0.0
H733 H 0.54709 0.448 0.58988 0.0
H734 H 0.59238 0.42845 0.58904 0.0
H735 H 0.62599 0.47155 0.63105 0.0
H736 H 0.59065 0.5037 0.64199 0.0
C737 C 0.61602 0.61312 0.49932 0.0
C738 C 0.57981 0.5668 0.45408 0.0
C739 C 0.45313 0.53463 0.64777 0.0
C740 C 0.45674 0.50786 0.6747 0.0
C741 C 0.48795 0.4855 0.67245 0.0
C742 C 0.51517 0.4901 0.64416 0.0
C743 C 0.51137 0.51746 0.61778 0.0
C744 C 0.48054 0.53899 0.61993 0.0
C745 C 0.48089 0.56703 0.59015 0.0
C746 C 0.517 0.55911 0.5698 0.0
C747 C 0.53504 0.52995 0.58584 0.0
C748 C 0.48275 0.60567 0.60923 0.0
C749 C 0.44601 0.55878 0.56528 0.0
C750 C 0.65842 0.47062 0.55054 0.0
C751 C 0.68538 0.47858 0.52246 0.0
C752 C 0.67945 0.5075 0.49833 0.0
C753 C 0.64765 0.52803 0.50171 0.0
C754 C 0.62109 0.51999 0.52966 0.0
C755 C 0.62651 0.49183 0.5537 0.0
C756 C 0.59499 0.48827 0.58206 0.0
C757 C 0.56984 0.51864 0.57054 0.0
C758 C 0.58564 0.53689 0.53977 0.0
C759 C 0.61178 0.49585 0.62115 0.0
C760 C 0.57527 0.44983 0.57711 0.0
H761 H 0.4674 0.62543 0.53904 0.0
H762 H 0.56612 0.64766 0.44313 0.0
H763 H 0.55093 0.56165 0.44304 0.0
H764 H 0.59038 0.53912 0.45733 0.0
H765 H 0.59666 0.58135 0.4324 0.0
H766 H 0.61021 0.63794 0.5166 0.0
H767 H 0.62976 0.62259 0.47322 0.0
H768 H 0.63637 0.59858 0.51581 0.0
H769 H 0.42968 0.55236 0.64855 0.0
H770 H 0.49152 0.46456 0.69276 0.0
H771 H 0.53824 0.47236 0.64402 0.0
H772 H 0.49985 0.60593 0.63501 0.0
H773 H 0.45433 0.61428 0.61716 0.0
H774 H 0.49664 0.62695 0.59188 0.0
H775 H 0.43923 0.52873 0.56273 0.0
H776 H 0.45037 0.56765 0.53635 0.0
H777 H 0.42095 0.57177 0.57711 0.0
H778 H 0.46098 0.67377 0.4955 0.0
C779 C 0.48929 0.62938 0.51872 0.0
C780 C 0.52081 0.35853 0.05031 0.0
C781 C 0.48887 0.33431 0.0506 0.0
C782 C 0.45961 0.33974 0.02547 0.0
C783 C 0.49422 0.39252 0.00042 0.0
C784 C 0.52287 0.3873 0.0251 0.0
C785 C 0.55485 0.41542 0.02104 0.0
H786 H 0.63165 0.56248 0.93172 0.0
C787 C 0.50511 0.42477 0.97791 0.0
C788 C 0.54065 0.43834 0.98991 0.0
H789 H 0.67827 0.50516 0.02308 0.0
H790 H 0.62324 0.46391 0.02455 0.0
H791 H 0.55131 0.56584 0.96536 0.0
H792 H 0.59784 0.48985 0.88656 0.0
H793 H 0.55359 0.50072 0.87012 0.0
H794 H 0.58971 0.53661 0.87606 0.0
H795 H 0.55825 0.57691 0.9174 0.0
H796 H 0.51549 0.55377 0.93356 0.0
C797 C 0.55884 0.43778 0.05812 0.0
C798 C 0.59027 0.3951 0.00926 0.0
C799 C 0.41887 0.46462 0.87586 0.0
C800 C 0.42179 0.49319 0.85022 0.0
C801 C 0.45327 0.5181 0.85183 0.0
C802 C 0.48175 0.51412 0.87783 0.0
C803 C 0.47887 0.48493 0.90263 0.0
C804 C 0.44758 0.46108 0.90174 0.0
C805 C 0.44917 0.43197 0.93059 0.0
C806 C 0.48676 0.44211 0.94865 0.0
C807 C 0.50407 0.47299 0.93194 0.0
C808 C 0.41603 0.43661 0.95808 0.0
C809 C 0.44906 0.39407 0.9102 0.0
C810 C 0.63022 0.54087 0.95187 0.0
C811 C 0.65952 0.53696 0.97715 0.0
C812 C 0.65614 0.50874 0.00324 0.0
C813 C 0.62413 0.48481 0.00406 0.0
C814 C 0.59503 0.48918 0.97864 0.0
C815 C 0.59836 0.51698 0.95325 0.0
C816 C 0.56435 0.5183 0.92902 0.0
C817 C 0.54013 0.48649 0.94379 0.0
C818 C 0.55827 0.46938 0.9727 0.0
C819 C 0.54636 0.55564 0.9363 0.0
C820 C 0.57674 0.51127 0.88819 0.0
H821 H 0.43891 0.3712 0.98208 0.0
H822 H 0.54381 0.35521 0.06921 0.0
H823 H 0.58292 0.3721 0.98933 0.0
H824 H 0.61121 0.4127 0.99447 0.0
H825 H 0.60377 0.38336 0.03369 0.0
H826 H 0.53095 0.44137 0.07134 0.0
H827 H 0.57633 0.42371 0.07823 0.0
H828 H 0.57073 0.46597 0.05433 0.0
H829 H 0.39503 0.44505 0.87552 0.0
H830 H 0.45631 0.54036 0.83249 0.0
H831 H 0.50514 0.53373 0.87727 0.0
H832 H 0.4101 0.46607 0.96223 0.0
H833 H 0.39002 0.42208 0.9475 0.0
H834 H 0.42192 0.42701 0.98622 0.0
H835 H 0.46586 0.39573 0.88405 0.0
H836 H 0.46211 0.37294 0.92649 0.0
H837 H 0.42011 0.38418 0.90266 0.0
H838 H 0.43467 0.32157 0.02502 0.0
C839 C 0.4621 0.36865 0.00048 0.0
C840 C 0.80242 0.1453 0.30917 0.0
C841 C 0.80209 0.11924 0.27968 0.0
C842 C 0.77586 0.12217 0.25082 0.0
C843 C 0.75093 0.17603 0.28138 0.0
C844 C 0.77695 0.17331 0.30938 0.0
C845 C 0.77427 0.20322 0.33863 0.0
H846 H 0.6936 0.35728 0.40084 0.0
C847 C 0.72859 0.20843 0.29013 0.0
C848 C 0.7425 0.2245 0.32364 0.0
H849 H 0.78261 0.30111 0.4526 0.0
H850 H 0.77997 0.25488 0.40325 0.0
H851 H 0.64365 0.2857 0.38229 0.0
H852 H 0.72329 0.35134 0.32003 0.0
H853 H 0.68858 0.33702 0.28787 0.0
H854 H 0.67615 0.36447 0.32815 0.0
H855 H 0.63265 0.32865 0.36297 0.0
H856 H 0.6254 0.28582 0.33724 0.0
C857 C 0.76373 0.18523 0.37611 0.0
C858 C 0.81189 0.22631 0.33909 0.0
C859 C 0.61899 0.24209 0.20826 0.0
C860 C 0.59445 0.27128 0.21076 0.0
C861 C 0.59989 0.29814 0.2392 0.0
C862 C 0.62835 0.29578 0.26521 0.0
C863 C 0.65204 0.26626 0.26305 0.0
C864 C 0.64774 0.24025 0.23467 0.0
C865 C 0.67686 0.21161 0.23673 0.0
C866 C 0.69819 0.22424 0.27176 0.0
C867 C 0.68314 0.25619 0.28683 0.0
C868 C 0.65635 0.17367 0.24135 0.0
C869 C 0.7019 0.21435 0.20152 0.0
C870 C 0.71255 0.33505 0.40165 0.0
C871 C 0.7384 0.33298 0.43058 0.0
C872 C 0.76233 0.30334 0.43062 0.0
C873 C 0.76086 0.27657 0.40185 0.0
C874 C 0.73509 0.27936 0.37278 0.0
C875 C 0.71133 0.3081 0.37336 0.0
C876 C 0.68519 0.30658 0.34092 0.0
C877 C 0.6974 0.27241 0.32034 0.0
C878 C 0.7267 0.25657 0.33888 0.0
C879 C 0.64453 0.3017 0.35632 0.0
C880 C 0.69329 0.34167 0.31802 0.0
H881 H 0.73083 0.15087 0.229 0.0
H882 H 0.82218 0.14406 0.33177 0.0
H883 H 0.82306 0.22977 0.31035 0.0
H884 H 0.80914 0.25448 0.35025 0.0
H885 H 0.83337 0.2128 0.3554 0.0
H886 H 0.74452 0.16057 0.37168 0.0
H887 H 0.78903 0.17638 0.39053 0.0
H888 H 0.74823 0.20341 0.39504 0.0
H889 H 0.61578 0.22116 0.18648 0.0
H890 H 0.58169 0.32094 0.24183 0.0
H891 H 0.63045 0.31704 0.28625 0.0
H892 H 0.63333 0.17548 0.26223 0.0
H893 H 0.64379 0.16346 0.21464 0.0
H894 H 0.6748 0.15285 0.25161 0.0
H895 H 0.70676 0.24344 0.19343 0.0
H896 H 0.73015 0.20431 0.20578 0.0
H897 H 0.68852 0.19905 0.17761 0.0
H898 H 0.77483 0.10245 0.2278 0.0
C899 C 0.75027 0.1503 0.25157 0.0
C900 C 0.37962 0.97821 0.9891 0.0
C901 C 0.37023 0.94547 0.9693 0.0
C902 C 0.39368 0.93463 0.93962 0.0
C903 C 0.43561 0.98813 0.95093 0.0
C904 C 0.41224 -0.00118 0.97963 0.0
C905 C 0.42652 0.03348 0.99908 0.0
H906 H 0.55873 0.17085 0.01911 0.0
C907 C 0.46794 0.01523 0.94942 0.0
C908 C 0.46259 0.04169 0.97777 0.0
H909 H 0.45557 0.153 0.08152 0.0
H910 H 0.44037 0.09844 0.04497 0.0
H911 H 0.52237 0.1495 0.93809 0.0
H912 H 0.5819 0.08959 0.01816 0.0
H913 H 0.59553 0.07237 0.97444 0.0
H914 H 0.60588 0.12012 0.98659 0.0
H915 H 0.57143 0.15767 0.94752 0.0
H916 H 0.55503 0.1236 0.91353 0.0
C917 C 0.39757 0.06314 0.99341 0.0
C918 C 0.43396 0.02467 0.0403 0.0
C919 C 0.57254 0.00291 0.85264 0.0
C920 C 0.60651 0.02343 0.84671 0.0
C921 C 0.61589 0.05353 0.87074 0.0
C922 C 0.59182 0.06355 0.89965 0.0
C923 C 0.5579 0.0432 0.90504 0.0
C924 C 0.54885 0.01309 0.88217 0.0
C925 C 0.5123 0.99385 0.89368 0.0
C926 C 0.5006 0.01805 0.92642 0.0
C927 C 0.52745 0.04702 0.93264 0.0
C928 C 0.48454 0.99478 0.86095 0.0
C929 C 0.52066 0.95471 0.90583 0.0
C930 C 0.53285 0.15518 0.02486 0.0
C931 C 0.50834 0.16634 0.05329 0.0
C932 C 0.47499 0.14509 0.05983 0.0
C933 C 0.46616 0.11332 0.0385 0.0
C934 C 0.49089 0.10247 0.01023 0.0
C935 C 0.52356 0.12328 0.00375 0.0
C936 C 0.54636 0.10744 0.97247 0.0
C937 C 0.52183 0.07378 0.96122 0.0
C938 C 0.48951 0.07111 0.98349 0.0
C939 C 0.54935 0.13592 0.94119 0.0
C940 C 0.58456 0.09699 0.98839 0.0
H941 H 0.44296 0.9461 0.90755 0.0
H942 H 0.36237 0.9874 0.01205 0.0
H943 H 0.44386 0.99641 0.04278 0.0
H944 H 0.45645 0.0426 0.05301 0.0
H945 H 0.40807 0.02649 0.05741 0.0
H946 H 0.38338 0.05922 0.96604 0.0
H947 H 0.37548 0.06197 0.01531 0.0
H948 H 0.41056 0.09124 0.99277 0.0
H949 H 0.56474 0.97935 0.83495 0.0
H950 H 0.64176 0.06985 0.86689 0.0
H951 H 0.6006 0.08691 0.91664 0.0
H952 H 0.4861 0.02226 0.84814 0.0
H953 H 0.49117 0.97413 0.83898 0.0
H954 H 0.45504 0.99001 0.86964 0.0
H955 H 0.54802 0.95474 0.92046 0.0
H956 H 0.49991 0.94342 0.92593 0.0
H957 H 0.52207 0.93557 0.88141 0.0
H958 H 0.38706 0.90956 0.92375 0.0
C959 C 0.42622 0.95581 0.93028 0.0
C960 C 0.2197 0.95754 0.01748 0.0
O961 O 0.24564 0.96837 0.99348 0.0
O962 O 0.26192 0.85904 0.98775 0.0
Zn963 Zn 0.27152 0.9003 0.02522 0.0
O964 O 0.31537 0.93269 0.00657 0.0
C965 C 0.26382 0.85254 0.08482 0.0
O966 O 0.23198 0.84513 0.06742 0.0
O967 O 0.22432 0.92846 0.0352 0.0
C968 C 0.33694 0.92225 0.98038 0.0
O969 O 0.33042 0.88986 0.96437 0.0
C970 C 0.24111 0.86227 0.95971 0.0
O971 O 0.22378 0.89283 0.9558 0.0
O972 O 0.28648 0.87719 0.07224 0.0
C973 C 0.18502 0.42256 0.27195 0.0
O974 O 0.15405 0.42179 0.29193 0.0
O975 O 0.12099 0.49467 0.28791 0.0
Zn976 Zn 0.15647 0.48963 0.24369 0.0
O977 O 0.18876 0.53673 0.23927 0.0
C978 C 0.09382 0.4885 0.19099 0.0
O979 O 0.07742 0.50798 0.21701 0.0
O980 O 0.19169 0.44885 0.25003 0.0
C981 C 0.17378 0.5664 0.23159 0.0
O982 O 0.13748 0.56583 0.22575 0.0
C983 C 0.13219 0.51455 0.31557 0.0
O984 O 0.16651 0.52934 0.31507 0.0
O985 O 0.12689 0.47831 0.19632 0.0
C986 C 0.82672 0.56406 0.99668 0.0
O987 O 0.81533 0.56245 0.96199 0.0
O988 O 0.76711 0.63059 0.95978 0.0
Zn989 Zn 0.7593 0.60216 0.00704 0.0
O990 O 0.71604 0.56408 0.00344 0.0
C991 C 0.77194 0.66578 0.05158 0.0
O992 O 0.80096 0.6689 0.02898 0.0
O993 O 0.80673 0.57933 0.0212 0.0
C994 C 0.69276 0.56287 0.97678 0.0
O995 O 0.69752 0.58609 0.94965 0.0
C996 C 0.74544 0.65657 0.95472 0.0
O997 O 0.71844 0.66198 0.97896 0.0
O998 O 0.74891 0.63829 0.04779 0.0
C999 C 0.8284 0.08888 0.27978 0.0
O1000 O 0.84821 0.08332 0.30957 0.0
O1001 O 0.89617 0.02165 0.29753 0.0
Zn1002 Zn 0.86398 0.02277 0.25135 0.0
O1003 O 0.82881 0.97728 0.24955 0.0
C1004 C 0.92883 0.00411 0.20551 0.0
O1005 O 0.93387 0.98102 0.23226 0.0
O1006 O 0.83133 0.06731 0.25166 0.0
C1007 C 0.82705 0.95536 0.22158 0.0
O1008 O 0.84844 0.96242 0.1925 0.0
C1009 C 0.89336 0.99583 0.32071 0.0
O1010 O 0.86691 0.96979 0.31625 0.0
O1011 O 0.90049 0.02409 0.20714 0.0
C1012 C 0.32672 0.06406 0.49668 0.0
O1013 O 0.31532 0.06245 0.46199 0.0
O1014 O 0.26711 0.13059 0.45978 0.0
Zn1015 Zn 0.2593 0.10217 0.50704 0.0
O1016 O 0.21604 0.06408 0.50344 0.0
C1017 C 0.27194 0.16579 0.55157 0.0
O1018 O 0.30095 0.1689 0.52898 0.0
O1019 O 0.30673 0.07933 0.5212 0.0
C1020 C 0.19276 0.06287 0.47678 0.0
O1021 O 0.19752 0.08608 0.44965 0.0
C1022 C 0.24544 0.15657 0.45472 0.0
O1023 O 0.21843 0.16198 0.47896 0.0
O1024 O 0.24891 0.13829 0.54779 0.0
C1025 C 0.3284 0.58888 0.77978 0.0
O1026 O 0.34821 0.58332 0.80957 0.0
O1027 O 0.39617 0.52165 0.79753 0.0
Zn1028 Zn 0.36398 0.52277 0.75135 0.0
O1029 O 0.32881 0.47728 0.74955 0.0
C1030 C 0.42883 0.50411 0.70551 0.0
O1031 O 0.43387 0.48102 0.73226 0.0
O1032 O 0.33133 0.56731 0.75166 0.0
C1033 C 0.32705 0.45536 0.72158 0.0
O1034 O 0.34843 0.46243 0.6925 0.0
C1035 C 0.39336 0.49583 0.82071 0.0
O1036 O 0.36692 0.46979 0.81625 0.0
O1037 O 0.40049 0.52409 0.70714 0.0
C1038 C 0.7197 0.45754 0.51748 0.0
O1039 O 0.74564 0.46837 0.49348 0.0
O1040 O 0.76192 0.35904 0.48774 0.0
Zn1041 Zn 0.77152 0.4003 0.52522 0.0
O1042 O 0.81537 0.43269 0.50657 0.0
C1043 C 0.76382 0.35254 0.58482 0.0
O1044 O 0.73198 0.34513 0.56742 0.0
O1045 O 0.72432 0.42846 0.5352 0.0
C1046 C 0.83694 0.42225 0.48038 0.0
O1047 O 0.83042 0.38986 0.46437 0.0
C1048 C 0.74111 0.36227 0.45971 0.0
O1049 O 0.72378 0.39283 0.4558 0.0
O1050 O 0.78648 0.37719 0.57224 0.0
C1051 C 0.68502 0.92256 0.77195 0.0
O1052 O 0.65406 0.9218 0.79194 0.0
O1053 O 0.62099 0.99467 0.78791 0.0
Zn1054 Zn 0.65647 0.98963 0.74369 0.0
O1055 O 0.68876 0.03673 0.73927 0.0
C1056 C 0.59382 0.9885 0.69099 0.0
O1057 O 0.57742 0.00799 0.71701 0.0
O1058 O 0.69169 0.94885 0.75003 0.0
C1059 C 0.67378 0.0664 0.73158 0.0
O1060 O 0.63748 0.06583 0.72575 0.0
C1061 C 0.63219 0.01455 0.81557 0.0
O1062 O 0.66651 0.02934 0.81507 0.0
O1063 O 0.62689 0.97831 0.69632 0.0
C1064 C 0.00901 0.19451 0.93941 0.0
O1065 O 0.97919 0.2142 0.94069 0.0
O1066 O 0.97624 0.22913 0.85361 0.0
Zn1067 Zn 0.02473 0.2428 0.88132 0.0
O1068 O 0.01977 0.28823 0.91317 0.0
C1069 C 0.07567 0.22914 0.82094 0.0
O1070 O 0.05518 0.19824 0.81866 0.0
O1071 O 0.03424 0.20162 0.91516 0.0
C1072 C 0.01702 0.31873 0.89752 0.0
O1073 O 0.01651 0.31968 0.86106 0.0
C1074 C 0.969 0.24189 0.82204 0.0
O1075 O 0.99358 0.26482 0.80649 0.0
O1076 O 0.0681 0.2526 0.84611 0.0
C1077 C 0.50901 0.69451 0.43941 0.0
O1078 O 0.47919 0.7142 0.44069 0.0
O1079 O 0.47624 0.72913 0.35361 0.0
Zn1080 Zn 0.52473 0.7428 0.38132 0.0
O1081 O 0.51977 0.78823 0.41317 0.0
C1082 C 0.57567 0.72914 0.32094 0.0
O1083 O 0.55518 0.69824 0.31866 0.0
O1084 O 0.53424 0.70162 0.41516 0.0
C1085 C 0.51702 0.81873 0.39752 0.0
O1086 O 0.5165 0.81968 0.36106 0.0
C1087 C 0.469 0.74189 0.32204 0.0
O1088 O 0.49358 0.76482 0.30649 0.0
O1089 O 0.5681 0.7526 0.34611 0.0
C1090 C 0.98593 0.80339 0.57661 0.0
O1091 O 0.95615 0.78071 0.57629 0.0
O1092 O 0.96298 0.7616 0.66878 0.0
Zn1093 Zn 1.00628 0.75462 0.63298 0.0
O1094 O 0.99501 0.70929 0.60193 0.0
C1095 C 0.06253 0.77394 0.68504 0.0
O1096 O 0.04127 0.80228 0.68744 0.0
O1097 O 0.01216 0.79808 0.59931 0.0
C1098 C 0.01721 0.69983 0.57608 0.0
O1099 O 0.04794 0.72018 0.56992 0.0
C1100 C 0.95673 0.73842 0.6942 0.0
O1101 O 0.97884 0.71088 0.6966 0.0
O1102 O 0.05372 0.74827 0.66185 0.0
C1103 C 0.48593 0.30339 0.07661 0.0
O1104 O 0.45615 0.28071 0.07629 0.0
O1105 O 0.46298 0.2616 0.16878 0.0
Zn1106 Zn 0.50628 0.25462 0.13298 0.0
O1107 O 0.49501 0.20929 0.10193 0.0
C1108 C 0.56253 0.27394 0.18504 0.0
O1109 O 0.54127 0.30228 0.18744 0.0
O1110 O 0.51216 0.29809 0.09931 0.0
C1111 C 0.51721 0.19984 0.07608 0.0
O1112 O 0.54794 0.22018 0.06992 0.0
C1113 C 0.45673 0.23842 0.1942 0.0
O1114 O 0.47884 0.21088 0.1966 0.0
O1115 O 0.55372 0.24827 0.16185 0.0
loop_
_geom_bond_atom_site_label_1
_geom_bond_atom_site_label_2
_geom_bond_distance
_geom_bond_site_symmetry_2
_ccdc_geom_bond_type
C0 C1 1.391 . S
C0 C4 1.391 . S
C0 H42 0.948 . S
C1 C0 1.391 . S
C1 C2 1.391 1_455 S
C2 C1 1.391 1_655 S
C2 H58 0.947 . S
C2 C59 1.392 1_556 S
C3 C4 1.391 1_554 S
C3 C7 1.397 . S
C3 C59 1.419 1_455 S
C4 C0 1.391 . S
C4 C3 1.391 1_556 S
C4 C5 1.399 . S
C5 C4 1.399 . S
C5 C8 1.396 1_556 S
C5 C17 1.453 . S
C5 C18 1.684 . S
H6 C30 0.948 . S
C7 C3 1.397 . S
C7 C8 1.394 . S
C7 C26 1.723 . S
C8 C5 1.396 1_554 S
C8 C7 1.394 . S
C8 C38 1.723 . S
H9 C32 0.947 . S
H10 C33 0.948 . S
H11 C39 0.982 1_545 S
H12 C40 0.979 . S
H13 C40 0.980 . S
H14 C40 0.983 . S
H15 C39 0.979 . S
H16 C39 0.977 . S
C17 C5 1.453 . S
C17 H46 1.002 . S
C17 H47 0.979 . S
C17 H48 0.977 . S
C18 C5 1.684 . S
C18 H43 0.979 . S
C18 H44 0.980 . S
C18 H45 0.983 . S
C19 C20 1.391 . S
C19 C24 1.391 . S
C19 H49 0.948 . S
C20 C19 1.391 . S
C20 C21 1.391 1_545 S
C21 C20 1.391 1_565 S
C21 C22 1.392 . S
C21 H50 0.947 . S
C22 C21 1.392 . S
C22 C23 1.419 1_565 S
C22 H51 0.948 1_655 S
C23 C22 1.419 1_545 S
C23 C24 1.391 . S
C23 C27 1.397 1_655 S
C24 C19 1.391 . S
C24 C23 1.391 . S
C24 C25 1.399 . S
C25 C24 1.399 . S
C25 C26 1.396 1_655 S
C25 C28 1.453 . S
C25 C29 1.684 . S
C26 C7 1.723 . S
C26 C25 1.396 1_455 S
C26 C27 1.394 . S
C27 C23 1.397 1_455 S
C27 C26 1.394 . S
C27 C37 1.723 . S
C28 C25 1.453 . S
C28 H52 0.982 . S
C28 H53 0.979 . S
C28 H54 0.977 . S
C29 C25 1.684 . S
C29 H55 0.979 . S
C29 H56 0.980 . S
C29 H57 0.983 . S
C30 H6 0.948 . S
C30 C31 1.391 . S
C30 C35 1.391 . S
C31 C30 1.391 . S
C31 C32 1.391 1_554 S
C32 H9 0.947 . S
C32 C31 1.391 1_556 S
C32 C33 1.392 1_565 S
C33 H10 0.948 . S
C33 C32 1.392 1_545 S
C33 C34 1.419 1_556 S
C34 C33 1.419 1_554 S
C34 C35 1.391 1_545 S
C34 C38 1.397 . S
C35 C30 1.391 . S
C35 C34 1.391 1_565 S
C35 C36 1.399 . S
C36 C35 1.399 . S
C36 C37 1.396 1_565 S
C36 C39 1.453 . S
C36 C40 1.684 . S
C37 C27 1.723 . S
C37 C36 1.396 1_545 S
C37 C38 1.394 . S
C38 C8 1.723 . S
C38 C34 1.397 . S
C38 C37 1.394 . S
C39 H11 0.982 1_565 S
C39 H15 0.979 . S
C39 H16 0.977 . S
C39 C36 1.453 . S
C40 H12 0.979 . S
C40 H13 0.980 . S
C40 H14 0.983 . S
C40 C36 1.684 . S
H41 C59 0.948 . S
H42 C0 0.948 . S
H43 C18 0.979 . S
H44 C18 0.980 . S
H45 C18 0.983 . S
H46 C17 1.002 . S
H47 C17 0.979 . S
H48 C17 0.977 . S
H49 C19 0.948 . S
H50 C21 0.947 . S
H51 C22 0.948 1_455 S
H52 C28 0.982 . S
H53 C28 0.979 . S
H54 C28 0.977 . S
H55 C29 0.979 . S
H56 C29 0.980 . S
H57 C29 0.983 . S
H58 C2 0.947 . S
C59 C2 1.392 1_554 S
C59 C3 1.419 1_655 S
C59 H41 0.948 . S
C60 C61 1.391 . S
C60 C64 1.391 . S
C60 H102 0.948 . S
C61 C60 1.391 . S
C61 C62 1.391 . S
C62 C61 1.391 . S
C62 H118 0.947 . S
C62 C119 1.392 . S
C63 C64 1.391 . S
C63 C67 1.397 . S
C63 C119 1.419 . S
C64 C60 1.391 . S
C64 C63 1.391 . S
C64 C65 1.399 . S
C65 C64 1.399 . S
C65 C68 1.396 . S
C65 C77 1.453 . S
C65 C78 1.684 . S
H66 C90 0.948 . S
C67 C63 1.397 . S
C67 C68 1.394 . S
C67 C86 1.723 . S
C68 C65 1.396 . S
C68 C67 1.394 . S
C68 C98 1.723 . S
H69 C92 0.947 . S
H70 C93 0.948 . S
H71 C99 0.982 . S
H72 C100 0.979 . S
H73 C100 0.980 . S
H74 C100 0.983 . S
H75 C99 0.979 . S
H76 C99 0.977 . S
C77 C65 1.453 . S
C77 H106 0.982 . S
C77 H107 0.979 . S
C77 H108 0.977 . S
C78 C65 1.684 . S
C78 H103 0.979 . S
C78 H104 0.980 . S
C78 H105 0.983 . S
C79 C80 1.391 . S
C79 C84 1.391 . S
C79 H109 0.948 . S
C80 C79 1.391 . S
C80 C81 1.391 . S
C81 C80 1.391 . S
C81 C82 1.392 . S
C81 H110 0.947 . S
C82 C81 1.392 . S
C82 C83 1.419 . S
C82 H111 0.948 . S
C83 C82 1.419 . S
C83 C84 1.391 . S
C83 C87 1.397 . S
C84 C79 1.391 . S
C84 C83 1.391 . S
C84 C85 1.399 . S
C85 C84 1.399 . S
C85 C86 1.396 . S
C85 C88 1.453 . S
C85 C89 1.684 . S
C86 C67 1.723 . S
C86 C85 1.396 . S
C86 C87 1.394 . S
C87 C83 1.397 . S
C87 C86 1.394 . S
C87 C97 1.723 . S
C88 C85 1.453 . S
C88 H112 0.982 . S
C88 H113 0.979 . S
C88 H114 0.977 . S
C89 C85 1.684 . S
C89 H115 0.979 . S
C89 H116 0.980 . S
C89 H117 0.983 . S
C90 H66 0.948 . S
C90 C91 1.391 . S
C90 C95 1.391 . S
C91 C90 1.391 . S
C91 C92 1.391 . S
C92 H69 0.947 . S
C92 C91 1.391 . S
C92 C93 1.392 . S
C93 H70 0.948 . S
C93 C92 1.392 . S
C93 C94 1.419 . S
C94 C93 1.419 . S
C94 C95 1.391 . S
C94 C98 1.397 . S
C95 C90 1.391 . S
C95 C94 1.391 . S
C95 C96 1.399 . S
C96 C95 1.399 . S
C96 C97 1.396 . S
C96 C99 1.453 . S
C96 C100 1.684 . S
C97 C87 1.723 . S
C97 C96 1.396 . S
C97 C98 1.394 . S
C98 C68 1.723 . S
C98 C94 1.397 . S
C98 C97 1.394 . S
C99 H71 0.982 . S
C99 H75 0.979 . S
C99 H76 0.977 . S
C99 C96 1.453 . S
C100 H72 0.979 . S
C100 H73 0.980 . S
C100 H74 0.983 . S
C100 C96 1.684 . S
H101 C119 0.948 . S
H102 C60 0.948 . S
H103 C78 0.979 . S
H104 C78 0.980 . S
H105 C78 0.983 . S
H106 C77 0.982 . S
H107 C77 0.979 . S
H108 C77 0.977 . S
H109 C79 0.948 . S
H110 C81 0.947 . S
H111 C82 0.948 . S
H112 C88 0.982 . S
H113 C88 0.979 . S
H114 C88 0.977 . S
H115 C89 0.979 . S
H116 C89 0.980 . S
H117 C89 0.983 . S
H118 C62 0.947 . S
C119 C62 1.392 . S
C119 C63 1.419 . S
C119 H101 0.948 . S
C120 C121 1.391 1_455 S
C120 C124 1.391 . S
C120 H162 0.948 . S
C121 C120 1.391 1_655 S
C121 C122 1.391 . S
C122 C121 1.391 . S
C122 H178 0.947 . S
C122 C179 1.392 . S
C123 C124 1.391 1_655 S
C123 C127 1.397 1_556 S
C123 C179 1.419 . S
C124 C120 1.391 . S
C124 C123 1.391 1_455 S
C124 C125 1.399 1_556 S
C125 C124 1.399 1_554 S
C125 C128 1.396 1_455 S
C125 C137 1.453 . S
C125 C138 1.684 . S
H126 C150 0.948 . S
C127 C123 1.397 1_554 S
C127 C128 1.394 . S
C127 C146 1.723 . S
C128 C125 1.396 1_655 S
C128 C127 1.394 . S
C128 C158 1.723 . S
H129 C152 0.947 . S
H130 C153 0.948 . S
H131 C159 0.982 . S
H132 C160 0.979 1_455 S
H133 C160 0.980 . S
H134 C160 0.983 . S
H135 C159 0.979 . S
H136 C159 0.977 . S
C137 C125 1.453 . S
C137 H166 0.982 1_455 S
C137 H167 0.979 . S
C137 H168 0.977 . S
C138 C125 1.684 . S
C138 H163 0.979 . S
C138 H164 0.980 . S
C138 H165 0.983 . S
C139 C140 1.391 1_556 S
C139 C144 1.389 1_556 S
C139 H169 0.948 . S
C140 C139 1.391 1_554 S
C140 C141 1.391 . S
C141 C140 1.391 . S
C141 C142 1.392 . S
C141 H170 0.947 . S
C142 C141 1.392 . S
C142 C143 1.419 . S
C142 H171 0.948 . S
C143 C142 1.419 . S
C143 C144 1.400 . S
C143 C147 1.397 . S
C144 C139 1.389 1_554 S
C144 C143 1.400 . S
C144 C145 1.395 1_554 S
C145 C144 1.395 1_556 S
C145 C146 1.396 1_556 S
C145 C148 1.453 . S
C145 C149 1.684 . S
C146 C127 1.723 . S
C146 C145 1.396 1_554 S
C146 C147 1.394 . S
C147 C143 1.397 . S
C147 C146 1.394 . S
C147 C157 1.723 . S
C148 C145 1.453 . S
C148 H172 0.982 1_556 S
C148 H173 0.979 . S
C148 H174 0.977 . S
C149 C145 1.684 . S
C149 H175 0.979 . S
C149 H176 0.980 . S
C149 H177 0.983 . S
C150 H126 0.948 . S
C150 C151 1.391 . S
C150 C155 1.391 . S
C151 C150 1.391 . S
C151 C152 1.391 . S
C152 H129 0.947 . S
C152 C151 1.391 . S
C152 C153 1.392 . S
C153 H130 0.948 . S
C153 C152 1.392 . S
C153 C154 1.419 . S
C154 C153 1.419 . S
C154 C155 1.391 . S
C154 C158 1.397 1_455 S
C155 C150 1.391 . S
C155 C154 1.391 . S
C155 C156 1.399 1_455 S
C156 C155 1.399 1_655 S
C156 C157 1.396 . S
C156 C159 1.453 . S
C156 C160 1.684 . S
C157 C147 1.723 . S
C157 C156 1.396 . S
C157 C158 1.394 . S
C158 C128 1.723 . S
C158 C154 1.397 1_655 S
C158 C157 1.394 . S
C159 H131 0.982 . S
C159 H135 0.979 . S
C159 H136 0.977 . S
C159 C156 1.453 . S
C160 H132 0.979 1_655 S
C160 H133 0.980 . S
C160 H134 0.983 . S
C160 C156 1.684 . S
H161 C179 0.948 . S
H162 C120 0.948 . S
H163 C138 0.979 . S
H164 C138 0.980 . S
H165 C138 0.983 . S
H166 C137 0.982 1_655 S
H167 C137 0.979 . S
H168 C137 0.977 . S
H169 C139 0.948 . S
H170 C141 0.947 . S
H171 C142 0.948 . S
H172 C148 0.982 1_554 S
H173 C148 0.979 . S
H174 C148 0.977 . S
H175 C149 0.979 . S
H176 C149 0.980 . S
H177 C149 0.983 . S
H178 C122 0.947 . S
C179 C122 1.392 . S
C179 C123 1.419 . S
C179 H161 0.948 . S
C180 C181 1.391 . S
C180 C184 1.391 . S
C180 H222 0.948 . S
C181 C180 1.391 . S
C181 C182 1.391 . S
C182 C181 1.391 . S
C182 H238 0.947 . S
C182 C239 1.392 . S
C183 C184 1.391 . S
C183 C187 1.397 . S
C183 C239 1.419 . S
C184 C180 1.391 . S
C184 C183 1.391 . S
C184 C185 1.399 . S
C185 C184 1.399 . S
C185 C188 1.396 . S
C185 C197 1.453 . S
C185 C198 1.684 . S
H186 C210 0.948 . S
C187 C183 1.397 . S
C187 C188 1.394 . S
C187 C206 1.723 . S
C188 C185 1.396 . S
C188 C187 1.394 . S
C188 C218 1.723 . S
H189 C212 0.947 . S
H190 C213 0.948 . S
H191 C219 0.982 . S
H192 C220 0.979 . S
H193 C220 0.980 . S
H194 C220 0.983 . S
H195 C219 0.979 . S
H196 C219 0.977 . S
C197 C185 1.453 . S
C197 H226 0.982 . S
C197 H227 0.979 . S
C197 H228 0.977 . S
C198 C185 1.684 . S
C198 H223 0.979 . S
C198 H224 0.980 . S
C198 H225 0.983 . S
C199 C200 1.391 . S
C199 C204 1.391 . S
C199 H229 0.948 . S
C200 C199 1.391 . S
C200 C201 1.391 . S
C201 C200 1.391 . S
C201 C202 1.392 . S
C201 H230 0.947 . S
C202 C201 1.392 . S
C202 C203 1.419 . S
C202 H231 0.948 . S
C203 C202 1.419 . S
C203 C204 1.391 . S
C203 C207 1.397 . S
C204 C199 1.391 . S
C204 C203 1.391 . S
C204 C205 1.399 . S
C205 C204 1.399 . S
C205 C206 1.396 . S
C205 C208 1.453 . S
C205 C209 1.684 . S
C206 C187 1.723 . S
C206 C205 1.396 . S
C206 C207 1.394 . S
C207 C203 1.397 . S
C207 C206 1.394 . S
C207 C217 1.723 . S
C208 C205 1.453 . S
C208 H232 0.982 . S
C208 H233 0.979 . S
C208 H234 0.977 . S
C209 C205 1.684 . S
C209 H235 0.979 . S
C209 H236 0.980 . S
C209 H237 0.983 . S
C210 H186 0.948 . S
C210 C211 1.391 . S
C210 C215 1.391 . S
C211 C210 1.391 . S
C211 C212 1.391 . S
C212 H189 0.947 . S
C212 C211 1.391 . S
C212 C213 1.392 . S
C213 H190 0.948 . S
C213 C212 1.392 . S
C213 C214 1.419 . S
C214 C213 1.419 . S
C214 C215 1.391 . S
C214 C218 1.397 . S
C215 C210 1.391 . S
C215 C214 1.391 . S
C215 C216 1.399 . S
C216 C215 1.399 . S
C216 C217 1.396 . S
C216 C219 1.453 . S
C216 C220 1.684 . S
C217 C207 1.723 . S
C217 C216 1.396 . S
C217 C218 1.394 . S
C218 C188 1.723 . S
C218 C214 1.397 . S
C218 C217 1.394 . S
C219 H191 0.982 . S
C219 H195 0.979 . S
C219 H196 0.977 . S
C219 C216 1.453 . S
C220 H192 0.979 . S
C220 H193 0.980 . S
C220 H194 0.983 . S
C220 C216 1.684 . S
H221 C239 0.948 . S
H222 C180 0.948 . S
H223 C198 0.979 . S
H224 C198 0.980 . S
H225 C198 0.983 . S
H226 C197 0.982 . S
H227 C197 0.979 . S
H228 C197 0.977 . S
H229 C199 0.948 . S
H230 C201 0.947 . S
H231 C202 0.948 . S
H232 C208 0.982 . S
H233 C208 0.979 . S
H234 C208 0.977 . S
H235 C209 0.979 . S
H236 C209 0.980 . S
H237 C209 0.983 . S
H238 C182 0.947 . S
C239 C182 1.392 . S
C239 C183 1.419 . S
C239 H221 0.948 . S
C240 C241 1.391 . S
C240 C244 1.391 . S
C240 H282 0.948 . S
C241 C240 1.391 . S
C241 C242 1.391 1_455 S
C242 C241 1.391 1_655 S
C242 H298 0.947 . S
C242 C299 1.392 . S
C243 C244 1.391 . S
C243 C247 1.397 . S
C243 C299 1.419 1_455 S
C244 C240 1.391 . S
C244 C243 1.391 . S
C244 C245 1.399 . S
C245 C244 1.399 . S
C245 C248 1.396 . S
C245 C257 1.453 . S
C245 C258 1.684 . S
H246 C270 0.948 . S
C247 C243 1.397 . S
C247 C248 1.394 . S
C247 C266 1.723 . S
C248 C245 1.396 . S
C248 C247 1.394 . S
C248 C278 1.723 . S
H249 C272 0.947 . S
H250 C273 0.948 1_565 S
H251 C279 0.982 . S
H252 C280 0.979 . S
H253 C280 0.980 . S
H254 C280 0.983 . S
H255 C279 0.979 . S
H256 C279 0.977 . S
C257 C245 1.453 . S
C257 H286 0.982 . S
C257 H287 0.979 . S
C257 H288 0.977 . S
C258 C245 1.684 . S
C258 H283 0.979 . S
C258 H284 0.980 . S
C258 H285 0.983 . S
C259 C260 1.391 . S
C259 C264 1.391 . S
C259 H289 0.948 . S
C260 C259 1.391 . S
C260 C261 1.391 1_565 S
C261 C260 1.391 1_545 S
C261 C262 1.392 1_655 S
C261 H290 0.947 . S
C262 C261 1.392 1_455 S
C262 C263 1.418 1_445 S
C262 H291 0.948 . S
C263 C262 1.418 1_665 S
C263 C264 1.396 . S
C263 C267 1.393 1_655 S
C264 C259 1.391 . S
C264 C263 1.396 . S
C264 C265 1.399 . S
C265 C264 1.399 . S
C265 C266 1.396 1_655 S
C265 C268 1.453 . S
C265 C269 1.684 . S
C266 C247 1.723 . S
C266 C265 1.396 1_455 S
C266 C267 1.394 . S
C267 C263 1.393 1_455 S
C267 C266 1.394 . S
C267 C277 1.723 1_565 S
C268 C265 1.453 . S
C268 H292 0.982 . S
C268 H293 0.979 . S
C268 H294 0.977 . S
C269 C265 1.684 . S
C269 H295 0.979 . S
C269 H296 0.980 . S
C269 H297 0.983 . S
C270 H246 0.948 . S
C270 C271 1.391 . S
C270 C275 1.391 . S
C271 C270 1.391 . S
C271 C272 1.391 . S
C272 H249 0.947 . S
C272 C271 1.391 . S
C272 C273 1.392 . S
C273 H250 0.948 1_545 S
C273 C272 1.392 . S
C273 C274 1.419 . S
C274 C273 1.419 . S
C274 C275 1.391 . S
C274 C278 1.397 1_545 S
C275 C270 1.391 . S
C275 C274 1.391 . S
C275 C276 1.399 . S
C276 C275 1.399 . S
C276 C277 1.396 . S
C276 C279 1.453 . S
C276 C280 1.684 . S
C277 C267 1.723 1_545 S
C277 C276 1.396 . S
C277 C278 1.394 1_545 S
C278 C248 1.723 . S
C278 C274 1.397 1_565 S
C278 C277 1.394 1_565 S
C279 H251 0.982 . S
C279 H255 0.979 . S
C279 H256 0.977 . S
C279 C276 1.453 . S
C280 H252 0.979 . S
C280 H253 0.980 . S
C280 H254 0.983 . S
C280 C276 1.684 . S
H281 C299 0.948 . S
H282 C240 0.948 . S
H283 C258 0.979 . S
H284 C258 0.980 . S
H285 C258 0.983 . S
H286 C257 0.982 . S
H287 C257 0.979 . S
H288 C257 0.977 . S
H289 C259 0.948 . S
H290 C261 0.947 . S
H291 C262 0.948 . S
H292 C268 0.982 . S
H293 C268 0.979 . S
H294 C268 0.977 . S
H295 C269 0.979 . S
H296 C269 0.980 . S
H297 C269 0.983 . S
H298 C242 0.947 . S
C299 C242 1.392 . S
C299 C243 1.419 1_655 S
C299 H281 0.948 . S
C300 C301 1.391 . S
C300 C304 1.391 . S
C300 H342 0.948 . S
C301 C300 1.391 . S
C301 C302 1.391 . S
C302 C301 1.391 . S
C302 H358 0.947 . S
C302 C359 1.392 . S
C303 C304 1.391 . S
C303 C307 1.397 . S
C303 C359 1.419 . S
C304 C300 1.391 . S
C304 C303 1.391 . S
C304 C305 1.399 . S
C305 C304 1.399 . S
C305 C308 1.396 . S
C305 C317 1.453 . S
C305 C318 1.684 . S
H306 C330 0.948 . S
C307 C303 1.397 . S
C307 C308 1.394 . S
C307 C326 1.723 . S
C308 C305 1.396 . S
C308 C307 1.394 . S
C308 C338 1.723 . S
H309 C332 0.947 . S
H310 C333 0.948 . S
H311 C339 0.982 . S
H312 C340 0.979 . S
H313 C340 0.980 . S
H314 C340 0.983 . S
H315 C339 0.979 . S
H316 C339 0.977 . S
C317 C305 1.453 . S
C317 H346 0.982 . S
C317 H347 0.979 . S
C317 H348 0.977 . S
C318 C305 1.684 . S
C318 H343 0.979 . S
C318 H344 0.980 . S
C318 H345 0.983 . S
C319 C320 1.391 . S
C319 C324 1.391 . S
C319 H349 0.948 . S
C320 C319 1.391 . S
C320 C321 1.391 . S
C321 C320 1.391 . S
C321 C322 1.392 . S
C321 H350 0.947 . S
C322 C321 1.392 . S
C322 C323 1.419 . S
C322 H351 0.948 . S
C323 C322 1.419 . S
C323 C324 1.391 . S
C323 C327 1.397 . S
C324 C319 1.391 . S
C324 C323 1.391 . S
C324 C325 1.399 . S
C325 C324 1.399 . S
C325 C326 1.396 . S
C325 C328 1.453 . S
C325 C329 1.684 . S
C326 C307 1.723 . S
C326 C325 1.396 . S
C326 C327 1.394 . S
C327 C323 1.397 . S
C327 C326 1.394 . S
C327 C337 1.723 . S
C328 C325 1.453 . S
C328 H352 0.982 . S
C328 H353 0.979 . S
C328 H354 0.977 . S
C329 C325 1.684 . S
C329 H355 0.979 . S
C329 H356 0.980 . S
C329 H357 0.983 . S
C330 H306 0.948 . S
C330 C331 1.391 . S
C330 C335 1.391 . S
C331 C330 1.391 . S
C331 C332 1.391 . S
C332 H309 0.947 . S
C332 C331 1.391 . S
C332 C333 1.392 . S
C333 H310 0.948 . S
C333 C332 1.392 . S
C333 C334 1.419 . S
C334 C333 1.419 . S
C334 C335 1.391 . S
C334 C338 1.397 . S
C335 C330 1.391 . S
C335 C334 1.391 . S
C335 C336 1.399 . S
C336 C335 1.399 . S
C336 C337 1.396 . S
C336 C339 1.453 . S
C336 C340 1.684 . S
C337 C327 1.723 . S
C337 C336 1.396 . S
C337 C338 1.394 . S
C338 C308 1.723 . S
C338 C334 1.397 . S
C338 C337 1.394 . S
C339 H311 0.982 . S
C339 H315 0.979 . S
C339 H316 0.977 . S
C339 C336 1.453 . S
C340 H312 0.979 . S
C340 H313 0.980 . S
C340 H314 0.983 . S
C340 C336 1.684 . S
H341 C359 0.948 . S
H342 C300 0.948 . S
H343 C318 0.979 . S
H344 C318 0.980 . S
H345 C318 0.983 . S
H346 C317 0.982 . S
H347 C317 0.979 . S
H348 C317 0.977 . S
H349 C319 0.948 . S
H350 C321 0.947 . S
H351 C322 0.948 . S
H352 C328 0.982 . S
H353 C328 0.979 . S
H354 C328 0.977 . S
H355 C329 0.979 . S
H356 C329 0.980 . S
H357 C329 0.983 . S
H358 C302 0.947 . S
C359 C302 1.392 . S
C359 C303 1.419 . S
C359 H341 0.948 . S
C360 C361 1.391 . S
C360 C364 1.391 . S
C360 H402 0.948 . S
C361 C360 1.391 . S
C361 C362 1.391 . S
C362 C361 1.391 . S
C362 H418 0.947 . S
C362 C419 1.392 . S
C363 C364 1.391 . S
C363 C367 1.397 . S
C363 C419 1.419 . S
C364 C360 1.391 . S
C364 C363 1.391 . S
C364 C365 1.399 . S
C365 C364 1.399 . S
C365 C368 1.396 . S
C365 C377 1.453 . S
C365 C378 1.684 . S
H366 C390 0.948 . S
C367 C363 1.397 . S
C367 C368 1.394 . S
C367 C386 1.723 . S
C368 C365 1.396 . S
C368 C367 1.394 . S
C368 C398 1.723 . S
H369 C392 0.947 . S
H370 C393 0.948 . S
H371 C399 0.982 . S
H372 C400 0.979 . S
H373 C400 0.980 . S
H374 C400 0.983 . S
H375 C399 0.979 . S
H376 C399 0.977 . S
C377 C365 1.453 . S
C377 H406 0.982 . S
C377 H407 0.979 . S
C377 H408 0.977 . S
C378 C365 1.684 . S
C378 H403 0.979 . S
C378 H404 0.980 . S
C378 H405 0.983 . S
C379 C380 1.391 . S
C379 C384 1.391 . S
C379 H409 0.948 . S
C380 C379 1.391 . S
C380 C381 1.391 . S
C381 C380 1.391 . S
C381 C382 1.392 . S
C381 H410 0.947 . S
C382 C381 1.392 . S
C382 C383 1.419 . S
C382 H411 0.948 . S
C383 C382 1.419 . S
C383 C384 1.391 . S
C383 C387 1.397 1_455 S
C384 C379 1.391 . S
C384 C383 1.391 . S
C384 C385 1.399 1_455 S
C385 C384 1.399 1_655 S
C385 C386 1.396 . S
C385 C388 1.453 . S
C385 C389 1.684 . S
C386 C367 1.723 . S
C386 C385 1.396 . S
C386 C387 1.394 . S
C387 C383 1.397 1_655 S
C387 C386 1.394 . S
C387 C397 1.723 . S
C388 C385 1.453 . S
C388 H412 0.982 . S
C388 H413 0.979 . S
C388 H414 0.977 . S
C389 C385 1.684 . S
C389 H415 0.979 1_655 S
C389 H416 0.980 . S
C389 H417 0.983 . S
C390 H366 0.948 . S
C390 C391 1.391 1_455 S
C390 C395 1.391 . S
C391 C390 1.391 1_655 S
C391 C392 1.391 . S
C392 H369 0.947 . S
C392 C391 1.391 . S
C392 C393 1.392 . S
C393 H370 0.948 . S
C393 C392 1.392 . S
C393 C394 1.419 . S
C394 C393 1.419 . S
C394 C395 1.391 1_655 S
C394 C398 1.397 . S
C395 C390 1.391 . S
C395 C394 1.391 1_455 S
C395 C396 1.399 . S
C396 C395 1.399 . S
C396 C397 1.396 1_455 S
C396 C399 1.453 . S
C396 C400 1.684 . S
C397 C387 1.723 . S
C397 C396 1.396 1_655 S
C397 C398 1.394 . S
C398 C368 1.723 . S
C398 C394 1.397 . S
C398 C397 1.394 . S
C399 H371 0.982 . S
C399 H375 0.979 . S
C399 H376 0.977 . S
C399 C396 1.453 . S
C400 H372 0.979 . S
C400 H373 0.980 . S
C400 H374 0.983 . S
C400 C396 1.684 . S
H401 C419 0.948 . S
H402 C360 0.948 . S
H403 C378 0.979 . S
H404 C378 0.980 . S
H405 C378 0.983 . S
H406 C377 0.982 . S
H407 C377 0.979 . S
H408 C377 0.977 . S
H409 C379 0.948 . S
H410 C381 0.947 . S
H411 C382 0.948 . S
H412 C388 0.982 . S
H413 C388 0.979 . S
H414 C388 0.977 . S
H415 C389 0.979 1_455 S
H416 C389 0.980 . S
H417 C389 0.983 . S
H418 C362 0.947 . S
C419 C362 1.392 . S
C419 C363 1.419 . S
C419 H401 0.948 . S
C420 C421 1.391 . S
C420 C424 1.391 . S
C420 H462 0.948 . S
C421 C420 1.391 . S
C421 C422 1.391 . S
C422 C421 1.391 . S
C422 H478 0.947 . S
C422 C479 1.392 . S
C423 C424 1.391 . S
C423 C427 1.397 . S
C423 C479 1.419 . S
C424 C420 1.391 . S
C424 C423 1.391 . S
C424 C425 1.399 . S
C425 C424 1.399 . S
C425 C428 1.396 . S
C425 C437 1.453 . S
C425 C438 1.684 . S
H426 C450 0.948 . S
C427 C423 1.397 . S
C427 C428 1.394 . S
C427 C446 1.723 . S
C428 C425 1.396 . S
C428 C427 1.394 . S
C428 C458 1.723 . S
H429 C452 0.947 . S
H430 C453 0.948 . S
H431 C459 0.982 . S
H432 C460 0.979 . S
H433 C460 0.980 . S
H434 C460 0.983 . S
H435 C459 0.979 . S
H436 C459 0.977 . S
C437 C425 1.453 . S
C437 H466 0.982 . S
C437 H467 0.979 . S
C437 H468 0.977 . S
C438 C425 1.684 . S
C438 H463 0.979 . S
C438 H464 0.980 . S
C438 H465 0.983 . S
C439 C440 1.391 . S
C439 C444 1.391 . S
C439 H469 0.948 . S
C440 C439 1.391 . S
C440 C441 1.391 . S
C441 C440 1.391 . S
C441 C442 1.392 . S
C441 H470 0.947 . S
C442 C441 1.392 . S
C442 C443 1.419 . S
C442 H471 0.948 . S
C443 C442 1.419 . S
C443 C444 1.391 . S
C443 C447 1.397 . S
C444 C439 1.391 . S
C444 C443 1.391 . S
C444 C445 1.399 . S
C445 C444 1.399 . S
C445 C446 1.396 . S
C445 C448 1.453 . S
C445 C449 1.684 . S
C446 C427 1.723 . S
C446 C445 1.396 . S
C446 C447 1.394 . S
C447 C443 1.397 . S
C447 C446 1.394 . S
C447 C457 1.723 . S
C448 C445 1.453 . S
C448 H472 0.982 . S
C448 H473 0.979 . S
C448 H474 0.977 . S
C449 C445 1.684 . S
C449 H475 0.979 . S
C449 H476 0.980 . S
C449 H477 0.983 . S
C450 H426 0.948 . S
C450 C451 1.391 . S
C450 C455 1.391 . S
C451 C450 1.391 . S
C451 C452 1.391 . S
C452 H429 0.947 . S
C452 C451 1.391 . S
C452 C453 1.392 . S
C453 H430 0.948 . S
C453 C452 1.392 . S
C453 C454 1.419 . S
C454 C453 1.419 . S
C454 C455 1.391 . S
C454 C458 1.397 . S
C455 C450 1.391 . S
C455 C454 1.391 . S
C455 C456 1.399 . S
C456 C455 1.399 . S
C456 C457 1.396 . S
C456 C459 1.453 . S
C456 C460 1.684 . S
C457 C447 1.723 . S
C457 C456 1.396 . S
C457 C458 1.394 . S
C458 C428 1.723 . S
C458 C454 1.397 . S
C458 C457 1.394 . S
C459 H431 0.982 . S
C459 H435 0.979 . S
C459 H436 0.977 . S
C459 C456 1.453 . S
C460 H432 0.979 . S
C460 H433 0.980 . S
C460 H434 0.983 . S
C460 C456 1.684 . S
H461 C479 0.948 . S
H462 C420 0.948 . S
H463 C438 0.979 . S
H464 C438 0.980 . S
H465 C438 0.983 . S
H466 C437 0.982 . S
H467 C437 0.979 . S
H468 C437 0.977 . S
H469 C439 0.948 . S
H470 C441 0.947 . S
H471 C442 0.948 . S
H472 C448 0.982 . S
H473 C448 0.979 . S
H474 C448 0.977 . S
H475 C449 0.979 . S
H476 C449 0.980 . S
H477 C449 0.983 . S
H478 C422 0.947 . S
C479 C422 1.392 . S
C479 C423 1.419 . S
C479 H461 0.948 . S
C480 C481 1.391 . S
C480 C484 1.391 . S
C480 H522 0.948 . S
C481 C480 1.391 . S
C481 C482 1.391 . S
C482 C481 1.391 . S
C482 H538 0.947 . S
C482 C539 1.392 . S
C483 C484 1.391 . S
C483 C487 1.397 . S
C483 C539 1.419 . S
C484 C480 1.391 . S
C484 C483 1.391 . S
C484 C485 1.399 . S
C485 C484 1.399 . S
C485 C488 1.396 . S
C485 C497 1.453 . S
C485 C498 1.684 . S
H486 C510 0.948 . S
C487 C483 1.397 . S
C487 C488 1.394 . S
C487 C506 1.723 . S
C488 C485 1.396 . S
C488 C487 1.394 . S
C488 C518 1.723 . S
H489 C512 0.947 . S
H490 C513 0.948 . S
H491 C519 0.982 . S
H492 C520 0.979 . S
H493 C520 0.980 . S
H494 C520 0.983 . S
H495 C519 0.979 . S
H496 C519 0.977 . S
C497 C485 1.453 . S
C497 H526 0.982 . S
C497 H527 0.979 . S
C497 H528 0.977 . S
C498 C485 1.684 . S
C498 H523 0.979 . S
C498 H524 0.980 . S
C498 H525 0.983 . S
C499 C500 1.391 . S
C499 C504 1.391 . S
C499 H529 0.948 . S
C500 C499 1.391 . S
C500 C501 1.391 . S
C501 C500 1.391 . S
C501 C502 1.392 . S
C501 H530 0.947 . S
C502 C501 1.392 . S
C502 C503 1.419 . S
C502 H531 0.948 . S
C503 C502 1.419 . S
C503 C504 1.391 . S
C503 C507 1.397 . S
C504 C499 1.391 . S
C504 C503 1.391 . S
C504 C505 1.399 . S
C505 C504 1.399 . S
C505 C506 1.396 . S
C505 C508 1.453 . S
C505 C509 1.684 . S
C506 C487 1.723 . S
C506 C505 1.396 . S
C506 C507 1.394 . S
C507 C503 1.397 . S
C507 C506 1.394 . S
C507 C517 1.723 . S
C508 C505 1.453 . S
C508 H532 0.982 . S
C508 H533 0.979 . S
C508 H534 0.977 . S
C509 C505 1.684 . S
C509 H535 0.979 . S
C509 H536 0.980 . S
C509 H537 0.983 . S
C510 H486 0.948 . S
C510 C511 1.391 . S
C510 C515 1.391 . S
C511 C510 1.391 . S
C511 C512 1.391 . S
C512 H489 0.947 . S
C512 C511 1.391 . S
C512 C513 1.392 . S
C513 H490 0.948 . S
C513 C512 1.392 . S
C513 C514 1.419 . S
C514 C513 1.419 . S
C514 C515 1.391 . S
C514 C518 1.397 . S
C515 C510 1.391 . S
C515 C514 1.391 . S
C515 C516 1.399 . S
C516 C515 1.399 . S
C516 C517 1.396 . S
C516 C519 1.453 . S
C516 C520 1.684 . S
C517 C507 1.723 . S
C517 C516 1.396 . S
C517 C518 1.394 . S
C518 C488 1.723 . S
C518 C514 1.397 . S
C518 C517 1.394 . S
C519 H491 0.982 . S
C519 H495 0.979 . S
C519 H496 0.977 . S
C519 C516 1.453 . S
C520 H492 0.979 . S
C520 H493 0.980 . S
C520 H494 0.983 . S
C520 C516 1.684 . S
H521 C539 0.948 . S
H522 C480 0.948 . S
H523 C498 0.979 . S
H524 C498 0.980 . S
H525 C498 0.983 . S
H526 C497 0.982 . S
H527 C497 0.979 . S
H528 C497 0.977 . S
H529 C499 0.948 . S
H530 C501 0.947 . S
H531 C502 0.948 . S
H532 C508 0.982 . S
H533 C508 0.979 . S
H534 C508 0.977 . S
H535 C509 0.979 . S
H536 C509 0.980 . S
H537 C509 0.983 . S
H538 C482 0.947 . S
C539 C482 1.392 . S
C539 C483 1.419 . S
C539 H521 0.948 . S
C540 C541 1.391 . S
C540 C544 1.391 . S
C540 H582 0.948 . S
C541 C540 1.391 . S
C541 C542 1.391 . S
C542 C541 1.391 . S
C542 H598 0.947 . S
C542 C599 1.392 . S
C543 C544 1.391 . S
C543 C547 1.397 . S
C543 C599 1.419 . S
C544 C540 1.391 . S
C544 C543 1.391 . S
C544 C545 1.399 . S
C545 C544 1.399 . S
C545 C548 1.396 . S
C545 C557 1.453 . S
C545 C558 1.684 . S
H546 C570 0.948 . S
C547 C543 1.397 . S
C547 C548 1.394 . S
C547 C566 1.723 . S
C548 C545 1.396 . S
C548 C547 1.394 . S
C548 C578 1.723 . S
H549 C572 0.947 . S
H550 C573 0.948 . S
H551 C579 0.982 1_565 S
H552 C580 0.979 . S
H553 C580 0.980 . S
H554 C580 0.983 . S
H555 C579 0.979 . S
H556 C579 0.977 . S
C557 C545 1.453 . S
C557 H586 0.982 . S
C557 H587 0.979 . S
C557 H588 0.977 . S
C558 C545 1.684 . S
C558 H583 0.979 . S
C558 H584 0.980 . S
C558 H585 0.983 . S
C559 C560 1.391 . S
C559 C564 1.391 . S
C559 H589 0.948 . S
C560 C559 1.391 . S
C560 C561 1.391 . S
C561 C560 1.391 . S
C561 C562 1.392 . S
C561 H590 0.947 . S
C562 C561 1.392 . S
C562 C563 1.419 . S
C562 H591 0.948 . S
C563 C562 1.419 . S
C563 C564 1.391 . S
C563 C567 1.397 1_545 S
C564 C559 1.391 . S
C564 C563 1.391 . S
C564 C565 1.399 1_545 S
C565 C564 1.399 1_565 S
C565 C566 1.396 . S
C565 C568 1.453 . S
C565 C569 1.684 . S
C566 C547 1.723 . S
C566 C565 1.396 . S
C566 C567 1.394 . S
C567 C563 1.397 1_565 S
C567 C566 1.394 . S
C567 C577 1.723 . S
C568 C565 1.453 . S
C568 H592 0.982 . S
C568 H593 0.979 . S
C568 H594 0.977 . S
C569 C565 1.684 . S
C569 H595 0.979 1_565 S
C569 H596 0.980 . S
C569 H597 0.983 . S
C570 H546 0.948 . S
C570 C571 1.391 1_545 S
C570 C575 1.391 . S
C571 C570 1.391 1_565 S
C571 C572 1.391 . S
C572 H549 0.947 . S
C572 C571 1.391 . S
C572 C573 1.392 . S
C573 H550 0.948 . S
C573 C572 1.392 . S
C573 C574 1.419 . S
C574 C573 1.419 . S
C574 C575 1.391 1_565 S
C574 C578 1.397 . S
C575 C570 1.391 . S
C575 C574 1.391 1_545 S
C575 C576 1.399 . S
C576 C575 1.399 . S
C576 C577 1.396 1_545 S
C576 C579 1.453 . S
C576 C580 1.684 . S
C577 C567 1.723 . S
C577 C576 1.396 1_565 S
C577 C578 1.394 . S
C578 C548 1.723 . S
C578 C574 1.397 . S
C578 C577 1.394 . S
C579 H551 0.982 1_545 S
C579 H555 0.979 . S
C579 H556 0.977 . S
C579 C576 1.453 . S
C580 H552 0.979 . S
C580 H553 0.980 . S
C580 H554 0.983 . S
C580 C576 1.684 . S
H581 C599 0.948 . S
H582 C540 0.948 . S
H583 C558 0.979 . S
H584 C558 0.980 . S
H585 C558 0.983 . S
H586 C557 0.982 . S
H587 C557 0.979 . S
H588 C557 0.977 . S
H589 C559 0.948 . S
H590 C561 0.947 . S
H591 C562 0.948 . S
H592 C568 0.982 . S
H593 C568 0.979 . S
H594 C568 0.977 . S
H595 C569 0.979 1_545 S
H596 C569 0.980 . S
H597 C569 0.983 . S
H598 C542 0.947 . S
C599 C542 1.392 . S
C599 C543 1.419 . S
C599 H581 0.948 . S
C600 C601 1.391 . S
C600 C604 1.391 . S
C600 H642 0.948 . S
C601 C600 1.391 . S
C601 C602 1.391 . S
C602 C601 1.391 . S
C602 H658 0.947 . S
C602 C659 1.392 . S
C603 C604 1.391 . S
C603 C607 1.397 . S
C603 C659 1.419 . S
C604 C600 1.391 . S
C604 C603 1.391 . S
C604 C605 1.399 . S
C605 C604 1.399 . S
C605 C608 1.396 . S
C605 C617 1.453 . S
C605 C618 1.684 . S
H606 C630 0.948 . S
C607 C603 1.397 . S
C607 C608 1.394 . S
C607 C626 1.723 . S
C608 C605 1.396 . S
C608 C607 1.394 . S
C608 C638 1.723 . S
H609 C632 0.947 . S
H610 C633 0.948 . S
H611 C639 0.982 . S
H612 C640 0.979 . S
H613 C640 0.980 . S
H614 C640 0.983 . S
H615 C639 0.979 . S
H616 C639 0.977 . S
C617 C605 1.453 . S
C617 H646 0.982 . S
C617 H647 0.979 . S
C617 H648 0.977 . S
C618 C605 1.684 . S
C618 H643 0.979 . S
C618 H644 0.980 . S
C618 H645 0.983 . S
C619 C620 1.391 . S
C619 C624 1.391 . S
C619 H649 0.948 . S
C620 C619 1.391 . S
C620 C621 1.391 . S
C621 C620 1.391 . S
C621 C622 1.392 . S
C621 H650 0.947 . S
C622 C621 1.392 . S
C622 C623 1.419 . S
C622 H651 0.948 . S
C623 C622 1.419 . S
C623 C624 1.391 . S
C623 C627 1.397 . S
C624 C619 1.391 . S
C624 C623 1.391 . S
C624 C625 1.399 . S
C625 C624 1.399 . S
C625 C626 1.396 . S
C625 C628 1.453 . S
C625 C629 1.684 . S
C626 C607 1.723 . S
C626 C625 1.396 . S
C626 C627 1.394 . S
C627 C623 1.397 . S
C627 C626 1.394 . S
C627 C637 1.723 . S
C628 C625 1.453 . S
C628 H652 0.982 . S
C628 H653 0.979 . S
C628 H654 0.977 . S
C629 C625 1.684 . S
C629 H655 0.979 . S
C629 H656 0.980 . S
C629 H657 0.983 . S
C630 H606 0.948 . S
C630 C631 1.391 . S
C630 C635 1.391 . S
C631 C630 1.391 . S
C631 C632 1.391 . S
C632 H609 0.947 . S
C632 C631 1.391 . S
C632 C633 1.392 . S
C633 H610 0.948 . S
C633 C632 1.392 . S
C633 C634 1.419 . S
C634 C633 1.419 . S
C634 C635 1.391 . S
C634 C638 1.397 . S
C635 C630 1.391 . S
C635 C634 1.391 . S
C635 C636 1.399 . S
C636 C635 1.399 . S
C636 C637 1.396 . S
C636 C639 1.453 . S
C636 C640 1.684 . S
C637 C627 1.723 . S
C637 C636 1.396 . S
C637 C638 1.394 . S
C638 C608 1.723 . S
C638 C634 1.397 . S
C638 C637 1.394 . S
C639 H611 0.982 . S
C639 H615 0.979 . S
C639 H616 0.977 . S
C639 C636 1.453 . S
C640 H612 0.979 . S
C640 H613 0.980 . S
C640 H614 0.983 . S
C640 C636 1.684 . S
H641 C659 0.948 . S
H642 C600 0.948 . S
H643 C618 0.979 . S
H644 C618 0.980 . S
H645 C618 0.983 . S
H646 C617 0.982 . S
H647 C617 0.979 . S
H648 C617 0.977 . S
H649 C619 0.948 . S
H650 C621 0.947 . S
H651 C622 0.948 . S
H652 C628 0.982 . S
H653 C628 0.979 . S
H654 C628 0.977 . S
H655 C629 0.979 . S
H656 C629 0.980 . S
H657 C629 0.983 . S
H658 C602 0.947 . S
C659 C602 1.392 . S
C659 C603 1.419 . S
C659 H641 0.948 . S
C660 C661 1.391 . S
C660 C664 1.391 . S
C660 H702 0.948 . S
C661 C660 1.391 . S
C661 C662 1.391 . S
C662 C661 1.391 . S
C662 H718 0.947 . S
C662 C719 1.392 . S
C663 C664 1.391 . S
C663 C667 1.397 . S
C663 C719 1.419 . S
C664 C660 1.391 . S
C664 C663 1.391 . S
C664 C665 1.399 . S
C665 C664 1.399 . S
C665 C668 1.396 . S
C665 C677 1.453 . S
C665 C678 1.684 . S
H666 C690 0.948 . S
C667 C663 1.397 . S
C667 C668 1.394 . S
C667 C686 1.723 . S
C668 C665 1.396 . S
C668 C667 1.394 . S
C668 C698 1.723 . S
H669 C692 0.947 . S
H670 C693 0.948 . S
H671 C699 0.982 . S
H672 C700 0.979 . S
H673 C700 0.980 . S
H674 C700 0.983 . S
H675 C699 0.979 . S
H676 C699 0.977 . S
C677 C665 1.453 . S
C677 H706 0.982 . S
C677 H707 0.979 . S
C677 H708 0.977 . S
C678 C665 1.684 . S
C678 H703 0.979 . S
C678 H704 0.980 . S
C678 H705 0.983 . S
C679 C680 1.391 . S
C679 C684 1.391 . S
C679 H709 0.948 . S
C680 C679 1.391 . S
C680 C681 1.391 . S
C681 C680 1.391 . S
C681 C682 1.392 . S
C681 H710 0.947 . S
C682 C681 1.392 . S
C682 C683 1.419 . S
C682 H711 0.948 . S
C683 C682 1.419 . S
C683 C684 1.391 . S
C683 C687 1.397 . S
C684 C679 1.391 . S
C684 C683 1.391 . S
C684 C685 1.399 . S
C685 C684 1.399 . S
C685 C686 1.396 . S
C685 C688 1.453 . S
C685 C689 1.684 . S
C686 C667 1.723 . S
C686 C685 1.396 . S
C686 C687 1.394 . S
C687 C683 1.397 . S
C687 C686 1.394 . S
C687 C697 1.723 . S
C688 C685 1.453 . S
C688 H712 0.982 . S
C688 H713 0.979 . S
C688 H714 0.977 . S
C689 C685 1.684 . S
C689 H715 0.979 . S
C689 H716 0.980 . S
C689 H717 0.983 . S
C690 H666 0.948 . S
C690 C691 1.391 . S
C690 C695 1.391 . S
C691 C690 1.391 . S
C691 C692 1.391 . S
C692 H669 0.947 . S
C692 C691 1.391 . S
C692 C693 1.392 . S
C693 H670 0.948 . S
C693 C692 1.392 . S
C693 C694 1.419 . S
C694 C693 1.419 . S
C694 C695 1.391 . S
C694 C698 1.397 . S
C695 C690 1.391 . S
C695 C694 1.391 . S
C695 C696 1.399 . S
C696 C695 1.399 . S
C696 C697 1.396 . S
C696 C699 1.453 . S
C696 C700 1.684 . S
C697 C687 1.723 . S
C697 C696 1.396 . S
C697 C698 1.394 . S
C698 C668 1.723 . S
C698 C694 1.397 . S
C698 C697 1.394 . S
C699 H671 0.982 . S
C699 H675 0.979 . S
C699 H676 0.977 . S
C699 C696 1.453 . S
C700 H672 0.979 . S
C700 H673 0.980 . S
C700 H674 0.983 . S
C700 C696 1.684 . S
H701 C719 0.948 . S
H702 C660 0.948 . S
H703 C678 0.979 . S
H704 C678 0.980 . S
H705 C678 0.983 . S
H706 C677 0.982 . S
H707 C677 0.979 . S
H708 C677 0.977 . S
H709 C679 0.948 . S
H710 C681 0.947 . S
H711 C682 0.948 . S
H712 C688 0.982 . S
H713 C688 0.979 . S
H714 C688 0.977 . S
H715 C689 0.979 . S
H716 C689 0.980 . S
H717 C689 0.983 . S
H718 C662 0.947 . S
C719 C662 1.392 . S
C719 C663 1.419 . S
C719 H701 0.948 . S
C720 C721 1.391 . S
C720 C724 1.391 . S
C720 H762 0.948 . S
C721 C720 1.391 . S
C721 C722 1.391 . S
C722 C721 1.391 . S
C722 H778 0.947 . S
C722 C779 1.392 . S
C723 C724 1.391 . S
C723 C727 1.397 . S
C723 C779 1.419 . S
C724 C720 1.391 . S
C724 C723 1.391 . S
C724 C725 1.399 . S
C725 C724 1.399 . S
C725 C728 1.396 . S
C725 C737 1.453 . S
C725 C738 1.684 . S
H726 C750 0.948 . S
C727 C723 1.397 . S
C727 C728 1.394 . S
C727 C746 1.723 . S
C728 C725 1.396 . S
C728 C727 1.394 . S
C728 C758 1.723 . S
H729 C752 0.947 . S
H730 C753 0.948 . S
H731 C759 0.982 . S
H732 C760 0.979 . S
H733 C760 0.980 . S
H734 C760 0.983 . S
H735 C759 0.979 . S
H736 C759 0.977 . S
C737 C725 1.453 . S
C737 H766 0.982 . S
C737 H767 0.979 . S
C737 H768 0.977 . S
C738 C725 1.684 . S
C738 H763 0.979 . S
C738 H764 0.980 . S
C738 H765 0.983 . S
C739 C740 1.391 . S
C739 C744 1.391 . S
C739 H769 0.948 . S
C740 C739 1.391 . S
C740 C741 1.391 . S
C741 C740 1.391 . S
C741 C742 1.392 . S
C741 H770 0.947 . S
C742 C741 1.392 . S
C742 C743 1.419 . S
C742 H771 0.948 . S
C743 C742 1.419 . S
C743 C744 1.391 . S
C743 C747 1.397 . S
C744 C739 1.391 . S
C744 C743 1.391 . S
C744 C745 1.399 . S
C745 C744 1.399 . S
C745 C746 1.396 . S
C745 C748 1.453 . S
C745 C749 1.684 . S
C746 C727 1.723 . S
C746 C745 1.396 . S
C746 C747 1.394 . S
C747 C743 1.397 . S
C747 C746 1.394 . S
C747 C757 1.723 . S
C748 C745 1.453 . S
C748 H772 0.982 . S
C748 H773 0.979 . S
C748 H774 0.977 . S
C749 C745 1.684 . S
C749 H775 0.979 . S
C749 H776 0.980 . S
C749 H777 0.983 . S
C750 H726 0.948 . S
C750 C751 1.391 . S
C750 C755 1.391 . S
C751 C750 1.391 . S
C751 C752 1.391 . S
C752 H729 0.947 . S
C752 C751 1.391 . S
C752 C753 1.392 . S
C753 H730 0.948 . S
C753 C752 1.392 . S
C753 C754 1.419 . S
C754 C753 1.419 . S
C754 C755 1.391 . S
C754 C758 1.397 . S
C755 C750 1.391 . S
C755 C754 1.391 . S
C755 C756 1.399 . S
C756 C755 1.399 . S
C756 C757 1.396 . S
C756 C759 1.453 . S
C756 C760 1.684 . S
C757 C747 1.723 . S
C757 C756 1.396 . S
C757 C758 1.394 . S
C758 C728 1.723 . S
C758 C754 1.397 . S
C758 C757 1.394 . S
C759 H731 0.982 . S
C759 H735 0.979 . S
C759 H736 0.977 . S
C759 C756 1.453 . S
C760 H732 0.979 . S
C760 H733 0.980 . S
C760 H734 0.983 . S
C760 C756 1.684 . S
H761 C779 0.948 . S
H762 C720 0.948 . S
H763 C738 0.979 . S
H764 C738 0.980 . S
H765 C738 0.983 . S
H766 C737 0.982 . S
H767 C737 0.979 . S
H768 C737 0.977 . S
H769 C739 0.948 . S
H770 C741 0.947 . S
H771 C742 0.948 . S
H772 C748 0.982 . S
H773 C748 0.979 . S
H774 C748 0.977 . S
H775 C749 0.979 . S
H776 C749 0.980 . S
H777 C749 0.983 . S
H778 C722 0.947 . S
C779 C722 1.392 . S
C779 C723 1.419 . S
C779 H761 0.948 . S
C780 C781 1.391 . S
C780 C784 1.391 . S
C780 H822 0.948 . S
C781 C780 1.391 . S
C781 C782 1.391 . S
C782 C781 1.391 . S
C782 H838 0.947 . S
C782 C839 1.392 1_554 S
C783 C784 1.397 . S
C783 C787 1.393 1_554 S
C783 C839 1.418 1_554 S
C784 C780 1.391 . S
C784 C783 1.397 . S
C784 C785 1.399 . S
C785 C784 1.399 . S
C785 C788 1.396 1_554 S
C785 C797 1.453 . S
C785 C798 1.684 . S
H786 C810 0.948 . S
C787 C783 1.393 1_556 S
C787 C788 1.394 . S
C787 C806 1.723 . S
C788 C785 1.396 1_556 S
C788 C787 1.394 . S
C788 C818 1.723 . S
H789 C812 0.947 . S
H790 C813 0.948 . S
H791 C819 0.982 . S
H792 C820 0.979 . S
H793 C820 0.980 . S
H794 C820 0.983 . S
H795 C819 0.979 . S
H796 C819 0.977 . S
C797 C785 1.453 . S
C797 H826 0.982 . S
C797 H827 0.979 . S
C797 H828 0.977 . S
C798 C785 1.684 . S
C798 H823 0.979 . S
C798 H824 0.980 . S
C798 H825 0.983 . S
C799 C800 1.391 . S
C799 C804 1.391 . S
C799 H829 0.948 . S
C800 C799 1.391 . S
C800 C801 1.391 . S
C801 C800 1.391 . S
C801 C802 1.392 . S
C801 H830 0.947 . S
C802 C801 1.392 . S
C802 C803 1.419 . S
C802 H831 0.948 . S
C803 C802 1.419 . S
C803 C804 1.391 . S
C803 C807 1.397 . S
C804 C799 1.391 . S
C804 C803 1.391 . S
C804 C805 1.399 . S
C805 C804 1.399 . S
C805 C806 1.396 . S
C805 C808 1.453 . S
C805 C809 1.684 . S
C806 C787 1.723 . S
C806 C805 1.396 . S
C806 C807 1.394 . S
C807 C803 1.397 . S
C807 C806 1.394 . S
C807 C817 1.723 . S
C808 C805 1.453 . S
C808 H832 0.982 . S
C808 H833 0.979 . S
C808 H834 0.977 . S
C809 C805 1.684 . S
C809 H835 0.979 . S
C809 H836 0.980 . S
C809 H837 0.983 . S
C810 H786 0.948 . S
C810 C811 1.391 . S
C810 C815 1.391 . S
C811 C810 1.391 . S
C811 C812 1.391 1_556 S
C812 H789 0.947 . S
C812 C811 1.391 1_554 S
C812 C813 1.392 . S
C813 H790 0.948 . S
C813 C812 1.392 . S
C813 C814 1.419 1_554 S
C814 C813 1.419 1_556 S
C814 C815 1.391 . S
C814 C818 1.397 . S
C815 C810 1.391 . S
C815 C814 1.391 . S
C815 C816 1.399 . S
C816 C815 1.399 . S
C816 C817 1.396 . S
C816 C819 1.453 . S
C816 C820 1.684 . S
C817 C807 1.723 . S
C817 C816 1.396 . S
C817 C818 1.394 . S
C818 C788 1.723 . S
C818 C814 1.397 . S
C818 C817 1.394 . S
C819 H791 0.982 . S
C819 H795 0.979 . S
C819 H796 0.977 . S
C819 C816 1.453 . S
C820 H792 0.979 . S
C820 H793 0.980 . S
C820 H794 0.983 . S
C820 C816 1.684 . S
H821 C839 0.948 . S
H822 C780 0.948 . S
H823 C798 0.979 . S
H824 C798 0.980 . S
H825 C798 0.983 . S
H826 C797 0.982 . S
H827 C797 0.979 . S
H828 C797 0.977 . S
H829 C799 0.948 . S
H830 C801 0.947 . S
H831 C802 0.948 . S
H832 C808 0.982 . S
H833 C808 0.979 . S
H834 C808 0.977 . S
H835 C809 0.979 . S
H836 C809 0.980 . S
H837 C809 0.983 . S
H838 C782 0.947 . S
C839 C782 1.392 1_556 S
C839 C783 1.418 1_556 S
C839 H821 0.948 . S
C840 C841 1.391 . S
C840 C844 1.391 . S
C840 H882 0.948 . S
C841 C840 1.391 . S
C841 C842 1.391 . S
C842 C841 1.391 . S
C842 H898 0.947 . S
C842 C899 1.392 . S
C843 C844 1.391 . S
C843 C847 1.397 . S
C843 C899 1.419 . S
C844 C840 1.391 . S
C844 C843 1.391 . S
C844 C845 1.399 . S
C845 C844 1.399 . S
C845 C848 1.396 . S
C845 C857 1.453 . S
C845 C858 1.684 . S
H846 C870 0.948 . S
C847 C843 1.397 . S
C847 C848 1.394 . S
C847 C866 1.723 . S
C848 C845 1.396 . S
C848 C847 1.394 . S
C848 C878 1.723 . S
H849 C872 0.947 . S
H850 C873 0.948 . S
H851 C879 0.982 . S
H852 C880 0.979 . S
H853 C880 0.980 . S
H854 C880 0.983 . S
H855 C879 0.979 . S
H856 C879 0.977 . S
C857 C845 1.453 . S
C857 H886 0.982 . S
C857 H887 0.979 . S
C857 H888 0.977 . S
C858 C845 1.684 . S
C858 H883 0.979 . S
C858 H884 0.980 . S
C858 H885 0.983 . S
C859 C860 1.391 . S
C859 C864 1.391 . S
C859 H889 0.948 . S
C860 C859 1.391 . S
C860 C861 1.391 . S
C861 C860 1.391 . S
C861 C862 1.392 . S
C861 H890 0.947 . S
C862 C861 1.392 . S
C862 C863 1.419 . S
C862 H891 0.948 . S
C863 C862 1.419 . S
C863 C864 1.391 . S
C863 C867 1.397 . S
C864 C859 1.391 . S
C864 C863 1.391 . S
C864 C865 1.399 . S
C865 C864 1.399 . S
C865 C866 1.396 . S
C865 C868 1.453 . S
C865 C869 1.684 . S
C866 C847 1.723 . S
C866 C865 1.396 . S
C866 C867 1.394 . S
C867 C863 1.397 . S
C867 C866 1.394 . S
C867 C877 1.723 . S
C868 C865 1.453 . S
C868 H892 0.982 . S
C868 H893 0.979 . S
C868 H894 0.977 . S
C869 C865 1.684 . S
C869 H895 0.979 . S
C869 H896 0.980 . S
C869 H897 0.983 . S
C870 H846 0.948 . S
C870 C871 1.391 . S
C870 C875 1.391 . S
C871 C870 1.391 . S
C871 C872 1.391 . S
C872 H849 0.947 . S
C872 C871 1.391 . S
C872 C873 1.392 . S
C873 H850 0.948 . S
C873 C872 1.392 . S
C873 C874 1.419 . S
C874 C873 1.419 . S
C874 C875 1.391 . S
C874 C878 1.397 . S
C875 C870 1.391 . S
C875 C874 1.391 . S
C875 C876 1.399 . S
C876 C875 1.399 . S
C876 C877 1.396 . S
C876 C879 1.453 . S
C876 C880 1.684 . S
C877 C867 1.723 . S
C877 C876 1.396 . S
C877 C878 1.394 . S
C878 C848 1.723 . S
C878 C874 1.397 . S
C878 C877 1.394 . S
C879 H851 0.982 . S
C879 H855 0.979 . S
C879 H856 0.977 . S
C879 C876 1.453 . S
C880 H852 0.979 . S
C880 H853 0.980 . S
C880 H854 0.983 . S
C880 C876 1.684 . S
H881 C899 0.948 . S
H882 C840 0.948 . S
H883 C858 0.979 . S
H884 C858 0.980 . S
H885 C858 0.983 . S
H886 C857 0.982 . S
H887 C857 0.979 . S
H888 C857 0.977 . S
H889 C859 0.948 . S
H890 C861 0.947 . S
H891 C862 0.948 . S
H892 C868 0.982 . S
H893 C868 0.979 . S
H894 C868 0.977 . S
H895 C869 0.979 . S
H896 C869 0.980 . S
H897 C869 0.983 . S
H898 C842 0.947 . S
C899 C842 1.392 . S
C899 C843 1.419 . S
C899 H881 0.948 . S
C900 C901 1.391 1_554 S
C900 C904 1.391 . S
C900 H942 0.948 . S
C901 C900 1.391 1_556 S
C901 C902 1.391 . S
C902 C901 1.391 . S
C902 H958 0.947 . S
C902 C959 1.392 . S
C903 C904 1.391 1_556 S
C903 C907 1.397 1_565 S
C903 C959 1.419 . S
C904 C900 1.391 . S
C904 C903 1.391 1_554 S
C904 C905 1.399 1_565 S
C905 C904 1.399 1_545 S
C905 C908 1.396 1_554 S
C905 C917 1.453 . S
C905 C918 1.684 . S
H906 C930 0.948 . S
C907 C903 1.397 1_545 S
C907 C908 1.394 . S
C907 C926 1.723 . S
C908 C905 1.396 1_556 S
C908 C907 1.394 . S
C908 C938 1.723 . S
H909 C932 0.947 . S
H910 C933 0.948 . S
H911 C939 0.982 . S
H912 C940 0.979 1_554 S
H913 C940 0.980 . S
H914 C940 0.983 . S
H915 C939 0.979 . S
H916 C939 0.977 . S
C917 C905 1.453 . S
C917 H946 0.997 . S
C917 H947 0.979 . S
C917 H948 0.977 . S
C918 C905 1.684 . S
C918 H943 0.979 . S
C918 H944 0.980 . S
C918 H945 0.983 . S
C919 C920 1.391 1_565 S
C919 C924 1.391 1_565 S
C919 H949 0.948 . S
C920 C919 1.391 1_545 S
C920 C921 1.391 . S
C921 C920 1.391 . S
C921 C922 1.392 . S
C921 H950 0.947 . S
C922 C921 1.392 . S
C922 C923 1.419 . S
C922 H951 0.948 . S
C923 C922 1.419 . S
C923 C924 1.391 . S
C923 C927 1.397 . S
C924 C919 1.391 1_545 S
C924 C923 1.391 . S
C924 C925 1.399 1_545 S
C925 C924 1.399 1_565 S
C925 C926 1.396 1_565 S
C925 C928 1.453 . S
C925 C929 1.684 . S
C926 C907 1.723 . S
C926 C925 1.396 1_545 S
C926 C927 1.394 . S
C927 C923 1.397 . S
C927 C926 1.394 . S
C927 C937 1.723 . S
C928 C925 1.453 . S
C928 H952 0.982 1_565 S
C928 H953 0.979 . S
C928 H954 0.977 . S
C929 C925 1.684 . S
C929 H955 0.979 . S
C929 H956 0.980 . S
C929 H957 0.983 . S
C930 H906 0.948 . S
C930 C931 1.391 . S
C930 C935 1.391 . S
C931 C930 1.391 . S
C931 C932 1.391 . S
C932 H909 0.947 . S
C932 C931 1.391 . S
C932 C933 1.392 . S
C933 H910 0.948 . S
C933 C932 1.392 . S
C933 C934 1.419 . S
C934 C933 1.419 . S
C934 C935 1.391 . S
C934 C938 1.397 1_554 S
C935 C930 1.391 . S
C935 C934 1.391 . S
C935 C936 1.399 1_554 S
C936 C935 1.399 1_556 S
C936 C937 1.396 . S
C936 C939 1.453 . S
C936 C940 1.684 . S
C937 C927 1.723 . S
C937 C936 1.396 . S
C937 C938 1.394 . S
C938 C908 1.723 . S
C938 C934 1.397 1_556 S
C938 C937 1.394 . S
C939 H911 0.982 . S
C939 H915 0.979 . S
C939 H916 0.977 . S
C939 C936 1.453 . S
C940 H912 0.979 1_556 S
C940 H913 0.980 . S
C940 H914 0.983 . S
C940 C936 1.684 . S
H941 C959 0.948 . S
H942 C900 0.948 . S
H943 C918 0.979 . S
H944 C918 0.980 . S
H945 C918 0.983 . S
H946 C917 0.997 . S
H947 C917 0.979 . S
H948 C917 0.977 . S
H949 C919 0.948 . S
H950 C921 0.947 . S
H951 C922 0.948 . S
H952 C928 0.982 1_545 S
H953 C928 0.979 . S
H954 C928 0.977 . S
H955 C929 0.979 . S
H956 C929 0.980 . S
H957 C929 0.983 . S
H958 C902 0.947 . S
C959 C902 1.392 . S
C959 C903 1.419 . S
C959 H941 0.948 . S
C960 O961 1.160 1_554 S
C960 O967 1.185 . S
O961 C960 1.160 1_556 S
O962 Zn963 1.899 1_556 S
O962 C970 1.284 . S
Zn963 O962 1.899 1_554 S
Zn963 O964 2.032 . S
Zn963 O967 2.086 . S
Zn963 O972 1.977 . S
O964 Zn963 2.032 . S
O964 C968 1.278 . S
C965 O966 1.203 . S
C965 O972 1.267 . S
O966 C965 1.203 . S
O967 C960 1.185 . S
O967 Zn963 2.086 . S
C968 O964 1.278 . S
C968 O969 1.211 . S
O969 C968 1.211 . S
C970 O962 1.284 . S
C970 O971 1.273 . S
O971 C970 1.273 . S
O972 Zn963 1.977 . S
O972 C965 1.267 . S
C973 O974 1.160 . S
C973 O980 1.185 . S
O974 C973 1.160 . S
O975 Zn976 1.899 . S
O975 C983 1.284 . S
Zn976 O975 1.899 . S
Zn976 O977 2.032 . S
Zn976 O980 2.086 . S
Zn976 O985 1.977 . S
O977 Zn976 2.032 . S
O977 C981 1.278 . S
C978 O979 1.203 . S
C978 O985 1.267 . S
O979 C978 1.203 . S
O980 C973 1.185 . S
O980 Zn976 2.086 . S
C981 O977 1.278 . S
C981 O982 1.211 . S
O982 C981 1.211 . S
C983 O975 1.284 . S
C983 O984 1.273 . S
O984 C983 1.273 . S
O985 Zn976 1.977 . S
O985 C978 1.267 . S
C986 O987 1.160 1_554 S
C986 O993 1.185 . S
O987 C986 1.160 1_556 S
O988 Zn989 1.899 1_556 S
O988 C996 1.284 . S
Zn989 O988 1.899 1_554 S
Zn989 O990 2.032 1_554 S
Zn989 O993 2.086 . S
Zn989 O998 1.977 . S
O990 Zn989 2.032 1_556 S
O990 C994 1.278 . S
C991 O992 1.203 . S
C991 O998 1.267 . S
O992 C991 1.203 . S
O993 C986 1.185 . S
O993 Zn989 2.086 . S
C994 O990 1.278 . S
C994 O995 1.211 1_556 S
O995 C994 1.211 1_554 S
C996 O988 1.284 . S
C996 O997 1.273 . S
O997 C996 1.273 . S
O998 Zn989 1.977 . S
O998 C991 1.267 . S
C999 O1000 1.160 . S
C999 O1006 1.185 . S
O1000 C999 1.160 . S
O1001 Zn1002 1.899 . S
O1001 C1009 1.284 1_545 S
Zn1002 O1001 1.899 . S
Zn1002 O1003 2.032 1_545 S
Zn1002 O1006 2.086 . S
Zn1002 O1011 1.977 . S
O1003 Zn1002 2.032 1_565 S
O1003 C1007 1.278 . S
C1004 O1005 1.203 1_545 S
C1004 O1011 1.267 . S
O1005 C1004 1.203 1_565 S
O1006 C999 1.185 . S
O1006 Zn1002 2.086 . S
C1007 O1003 1.278 . S
C1007 O1008 1.211 . S
O1008 C1007 1.211 . S
C1009 O1001 1.284 1_565 S
C1009 O1010 1.273 . S
O1010 C1009 1.273 . S
O1011 Zn1002 1.977 . S
O1011 C1004 1.267 . S
C1012 O1013 1.160 . S
C1012 O1019 1.185 . S
O1013 C1012 1.160 . S
O1014 Zn1015 1.899 . S
O1014 C1022 1.284 . S
Zn1015 O1014 1.899 . S
Zn1015 O1016 2.032 . S
Zn1015 O1019 2.086 . S
Zn1015 O1024 1.977 . S
O1016 Zn1015 2.032 . S
O1016 C1020 1.278 . S
C1017 O1018 1.203 . S
C1017 O1024 1.267 . S
O1018 C1017 1.203 . S
O1019 C1012 1.185 . S
O1019 Zn1015 2.086 . S
C1020 O1016 1.278 . S
C1020 O1021 1.211 . S
O1021 C1020 1.211 . S
C1022 O1014 1.284 . S
C1022 O1023 1.273 . S
O1023 C1022 1.273 . S
O1024 Zn1015 1.977 . S
O1024 C1017 1.267 . S
C1025 O1026 1.160 . S
C1025 O1032 1.185 . S
O1026 C1025 1.160 . S
O1027 Zn1028 1.899 . S
O1027 C1035 1.284 . S
Zn1028 O1027 1.899 . S
Zn1028 O1029 2.032 . S
Zn1028 O1032 2.086 . S
Zn1028 O1037 1.977 . S
O1029 Zn1028 2.032 . S
O1029 C1033 1.278 . S
C1030 O1031 1.203 . S
C1030 O1037 1.267 . S
O1031 C1030 1.203 . S
O1032 C1025 1.185 . S
O1032 Zn1028 2.086 . S
C1033 O1029 1.278 . S
C1033 O1034 1.211 . S
O1034 C1033 1.211 . S
C1035 O1027 1.284 . S
C1035 O1036 1.273 . S
O1036 C1035 1.273 . S
O1037 Zn1028 1.977 . S
O1037 C1030 1.267 . S
C1038 O1039 1.160 . S
C1038 O1045 1.185 . S
O1039 C1038 1.160 . S
O1040 Zn1041 1.899 . S
O1040 C1048 1.284 . S
Zn1041 O1040 1.899 . S
Zn1041 O1042 2.032 . S
Zn1041 O1045 2.086 . S
Zn1041 O1050 1.977 . S
O1042 Zn1041 2.032 . S
O1042 C1046 1.278 . S
C1043 O1044 1.203 . S
C1043 O1050 1.267 . S
O1044 C1043 1.203 . S
O1045 C1038 1.185 . S
O1045 Zn1041 2.086 . S
C1046 O1042 1.278 . S
C1046 O1047 1.211 . S
O1047 C1046 1.211 . S
C1048 O1040 1.284 . S
C1048 O1049 1.273 . S
O1049 C1048 1.273 . S
O1050 Zn1041 1.977 . S
O1050 C1043 1.267 . S
C1051 O1052 1.160 . S
C1051 O1058 1.185 . S
O1052 C1051 1.160 . S
O1053 Zn1054 1.899 . S
O1053 C1061 1.284 1_565 S
Zn1054 O1053 1.899 . S
Zn1054 O1055 2.032 1_565 S
Zn1054 O1058 2.086 . S
Zn1054 O1063 1.977 . S
O1055 Zn1054 2.032 1_545 S
O1055 C1059 1.278 . S
C1056 O1057 1.203 1_565 S
C1056 O1063 1.267 . S
O1057 C1056 1.203 1_545 S
O1058 C1051 1.185 . S
O1058 Zn1054 2.086 . S
C1059 O1055 1.278 . S
C1059 O1060 1.211 . S
O1060 C1059 1.211 . S
C1061 O1053 1.284 1_545 S
C1061 O1062 1.273 . S
O1062 C1061 1.273 . S
O1063 Zn1054 1.977 . S
O1063 C1056 1.267 . S
C1064 O1065 1.160 1_455 S
C1064 O1071 1.185 . S
O1065 C1064 1.160 1_655 S
O1066 Zn1067 1.899 1_655 S
O1066 C1074 1.284 . S
Zn1067 O1066 1.899 1_455 S
Zn1067 O1068 2.032 1_455 S
Zn1067 O1071 2.086 . S
Zn1067 O1076 1.977 . S
O1068 Zn1067 2.032 1_655 S
O1068 C1072 1.276 1_655 S
C1069 O1070 1.203 . S
C1069 O1076 1.267 . S
O1070 C1069 1.203 . S
O1071 C1064 1.185 . S
O1071 Zn1067 2.086 . S
C1072 O1068 1.276 1_455 S
C1072 O1073 1.219 . S
O1073 C1072 1.219 . S
C1074 O1066 1.284 . S
C1074 O1075 1.273 . S
O1075 C1074 1.273 . S
O1076 Zn1067 1.977 . S
O1076 C1069 1.267 . S
C1077 O1078 1.160 . S
C1077 O1084 1.185 . S
O1078 C1077 1.160 . S
O1079 Zn1080 1.899 . S
O1079 C1087 1.284 . S
Zn1080 O1079 1.899 . S
Zn1080 O1081 2.032 . S
Zn1080 O1084 2.086 . S
Zn1080 O1089 1.977 . S
O1081 Zn1080 2.032 . S
O1081 C1085 1.278 . S
C1082 O1083 1.203 . S
C1082 O1089 1.267 . S
O1083 C1082 1.203 . S
O1084 C1077 1.185 . S
O1084 Zn1080 2.086 . S
C1085 O1081 1.278 . S
C1085 O1086 1.211 . S
O1086 C1085 1.211 . S
C1087 O1079 1.284 . S
C1087 O1088 1.273 . S
O1088 C1087 1.273 . S
O1089 Zn1080 1.977 . S
O1089 C1082 1.267 . S
C1090 O1091 1.160 1_455 S
C1090 O1097 1.185 . S
O1091 C1090 1.160 1_655 S
O1092 Zn1093 1.899 1_655 S
O1092 C1100 1.284 . S
Zn1093 O1092 1.899 1_455 S
Zn1093 O1094 2.032 1_455 S
Zn1093 O1097 2.086 . S
Zn1093 O1102 1.977 . S
O1094 Zn1093 2.032 1_655 S
O1094 C1098 1.281 . S
C1095 O1096 1.203 . S
C1095 O1102 1.267 . S
O1096 C1095 1.203 . S
O1097 C1090 1.185 . S
O1097 Zn1093 2.086 . S
C1098 O1094 1.281 . S
C1098 O1099 1.203 1_655 S
O1099 C1098 1.203 1_455 S
C1100 O1092 1.284 . S
C1100 O1101 1.273 . S
O1101 C1100 1.273 . S
O1102 Zn1093 1.977 . S
O1102 C1095 1.267 . S
C1103 O1104 1.160 . S
C1103 O1110 1.185 . S
O1104 C1103 1.160 . S
O1105 Zn1106 1.899 . S
O1105 C1113 1.284 . S
Zn1106 O1105 1.899 . S
Zn1106 O1107 2.032 . S
Zn1106 O1110 2.086 . S
Zn1106 O1115 1.977 . S
O1107 Zn1106 2.032 . S
O1107 C1111 1.278 . S
C1108 O1109 1.203 . S
C1108 O1115 1.267 . S
O1109 C1108 1.203 . S
O1110 C1103 1.185 . S
O1110 Zn1106 2.086 . S
C1111 O1107 1.278 . S
C1111 O1112 1.211 . S
O1112 C1111 1.211 . S
C1113 O1105 1.284 . S
C1113 O1114 1.273 . S
O1114 C1113 1.273 . S
O1115 Zn1106 1.977 . S
O1115 C1108 1.267 . S
C970 C331 1.356 . S
C983 C380 1.635 . S
C421 C996 1.394 . S
C1009 C260 1.515 . S
C1017 C620 1.419 . S
C1030 C740 1.350 . S
C680 C1043 1.458 . S
C1056 C571 1.594 . S
C691 C1074 1.431 . S
C1085 C541 1.513 . S
C601 C1069 1.389 . S
C1077 C721 1.371 . S
C451 C1100 1.461 . S
C241 C1090 1.457 . S
C320 C1095 1.454 . S
C391 C1098 1.511 . S
C211 C1007 1.420 . S
C841 C999 1.457 . S
C968 C901 1.553 1_554 S
C973 C500 1.592 . S
C271 C1020 1.480 . S
C1059 C661 1.477 . S
C1012 C560 1.449 . S
C1038 C751 1.371 . S
C1048 C871 1.356 . S
C920 C1061 1.635 . S
C481 C1022 1.392 . S
C1035 C800 1.515 . S
C200 C991 1.417 . S
C1004 C20 1.350 . S
C965 C80 1.458 . S
C978 C151 1.594 . S
C91 C1087 1.431 . S
C121 C1072 1.504 1_655 S
C181 C1082 1.389 . S
C1 C1064 1.371 . S
C1113 C511 1.461 . S
C1103 C781 1.457 . S
C1108 C860 1.454 . S
C931 C1111 1.507 . S
C631 C1033 1.420 . S
C1025 C301 1.457 . S
C1046 C361 1.553 . S
C1051 C440 1.594 . S
C811 C994 1.481 . S
C981 C61 1.479 . S
C140 C986 1.448 . S
C960 C31 1.371 . S
