# Generated by pormake.
# Topology anh, (6,3)-cn, num edge types: 1
# Building blocks:
#     Node 0, Type 0, BuildingBlock: BETDEL_clean_sbu_0, # of connection points: 6
#     Node 1, Type 0, BuildingBlock: BETDEL_clean_sbu_0, # of connection points: 6
#     Node 2, Type 0, BuildingBlock: BETDEL_clean_sbu_0, # of connection points: 6
#     Node 3, Type 1, BuildingBlock: QEWDON_clean_linker_0, # of connection points: 3
#     Node 4, Type 1, BuildingBlock: QEWDON_clean_linker_0, # of connection points: 3
#     Node 5, Type 1, BuildingBlock: QEWDON_clean_linker_0, # of connection points: 3
#     Node 6, Type 1, BuildingBlock: QEWDON_clean_linker_0, # of connection points: 3
#     Node 7, Type 1, BuildingBlock: QEWDON_clean_linker_0, # of connection points: 3
#     Node 8, Type 1, BuildingBlock: QEWDON_clean_linker_0, # of connection points: 3
#     Edge 9, Type (0, 1), BuildingBlock: KIFKEQ_clean_linker_1, # of connection points: 2
#     Edge 10, Type (0, 1), BuildingBlock: KIFKEQ_clean_linker_1, # of connection points: 2
#     Edge 11, Type (0, 1), BuildingBlock: KIFKEQ_clean_linker_1, # of connection points: 2
#     Edge 12, Type (0, 1), BuildingBlock: KIFKEQ_clean_linker_1, # of connection points: 2
#     Edge 13, Type (0, 1), BuildingBlock: KIFKEQ_clean_linker_1, # of connection points: 2
#     Edge 14, Type (0, 1), BuildingBlock: KIFKEQ_clean_linker_1, # of connection points: 2
#     Edge 15, Type (0, 1), BuildingBlock: KIFKEQ_clean_linker_1, # of connection points: 2
#     Edge 16, Type (0, 1), BuildingBlock: KIFKEQ_clean_linker_1, # of connection points: 2
#     Edge 17, Type (0, 1), BuildingBlock: KIFKEQ_clean_linker_1, # of connection points: 2
#     Edge 18, Type (0, 1), BuildingBlock: KIFKEQ_clean_linker_1, # of connection points: 2
#     Edge 19, Type (0, 1), BuildingBlock: KIFKEQ_clean_linker_1, # of connection points: 2
#     Edge 20, Type (0, 1), BuildingBlock: KIFKEQ_clean_linker_1, # of connection points: 2
#     Edge 21, Type (0, 1), BuildingBlock: KIFKEQ_clean_linker_1, # of connection points: 2
#     Edge 22, Type (0, 1), BuildingBlock: KIFKEQ_clean_linker_1, # of connection points: 2
#     Edge 23, Type (0, 1), BuildingBlock: KIFKEQ_clean_linker_1, # of connection points: 2
#     Edge 24, Type (0, 1), BuildingBlock: KIFKEQ_clean_linker_1, # of connection points: 2
#     Edge 25, Type (0, 1), BuildingBlock: KIFKEQ_clean_linker_1, # of connection points: 2
#     Edge 26, Type (0, 1), BuildingBlock: KIFKEQ_clean_linker_1, # of connection points: 2
# Relax obj value: 0.093
# Max RMSD: 0.136
# Mean RMSD: 0.126
data_MOF--net-anh--node1-BETDEL_clean_sbu_0--node2-QEWDON_clean_linker_0--edge1-KIFKEQ_clean_linker_1
_symmetry_space_group_name_H-M    P1
_symmetry_Int_Tables_number       1
_symmetry_cell_setting            triclinic
loop_
_symmetry_equiv_pos_as_xyz
'x, y, z'
_cell_length_a     31.750024
_cell_length_b     31.68194
_cell_length_c     47.428989
_cell_angle_alpha  90.689709
_cell_angle_beta   92.663549
_cell_angle_gamma 120.25557
loop_
_atom_site_label
_atom_site_type_symbol
_atom_site_fract_x
_atom_site_fract_y
_atom_site_fract_z
_atom_type_partial_charge
Dy0 Dy 0.06416 0.49398 0.16282 0.0
C1 C 0.94753 0.57958 0.18589 0.0
C2 C 0.1278 0.46807 0.14336 0.0
Dy3 Dy 1.00865 0.54864 0.16878 0.0
O4 O 0.11235 0.46131 0.16872 0.0
O5 O 0.10699 0.48739 0.12849 0.0
O6 O 0.04766 0.46758 0.20716 0.0
O7 O 0.05589 0.53545 0.19667 0.0
C8 C 0.04375 0.50464 0.21558 0.0
C9 C 1.0302 0.54012 0.11597 0.0
O10 O 0.08424 0.61102 0.18058 0.0
O11 O 0.12425 0.57358 0.16232 0.0
O12 O 0.97908 0.59984 0.1668 0.0
O13 O 0.94946 0.5425 0.19563 0.0
O14 O 1.02586 0.57633 0.12522 0.0
O15 O 1.01721 0.50783 0.13418 0.0
O16 O 0.98866 0.42907 0.15564 0.0
O17 O 0.94899 0.46939 0.17061 0.0
C18 C 0.12464 0.61323 0.17223 0.0
C19 C 0.94862 0.42858 0.16317 0.0
Dy20 Dy 0.5324 0.04736 0.49555 0.0
C21 C 0.73522 0.1697 0.5204 0.0
C22 C 0.43575 0.9842 0.48218 0.0
Dy23 Dy 0.64134 0.10179 0.50287 0.0
O24 O 0.45524 1.00018 0.50744 0.0
O25 O 0.46906 1.00304 0.4639 0.0
O26 O 0.53019 0.08011 0.53695 0.0
O27 O 0.58415 0.06111 0.53154 0.0
C28 C 0.56836 0.08051 0.54825 0.0
C29 C 0.60619 0.0709 0.44968 0.0
O30 O 0.62994 0.02766 0.51257 0.0
O31 O 0.55065 0.98699 0.49273 0.0
O32 O 0.72135 0.14778 0.4956 0.0
O33 O 0.69791 0.15283 0.53593 0.0
O34 O 0.64577 0.07323 0.46037 0.0
O35 O 0.58963 0.0885 0.46707 0.0
O36 O 0.54242 0.12087 0.48668 0.0
O37 O 0.62349 0.16287 0.50342 0.0
C38 C 0.59019 0.98675 0.50304 0.0
C39 C 0.58277 0.16228 0.4947 0.0
Dy40 Dy 0.63667 0.59469 0.82311 0.0
C41 C 0.55208 0.39951 0.85868 0.0
C42 C 0.66519 0.68172 0.79859 0.0
Dy43 Dy 0.58095 0.48842 0.83653 0.0
O44 O 0.67994 0.67666 0.82363 0.0
O45 O 0.63551 0.63897 0.78675 0.0
O46 O 0.67456 0.61485 0.8661 0.0
O47 O 0.6026 0.55551 0.86083 0.0
C48 C 0.6391 0.5785 0.87809 0.0
C49 C 0.58035 0.5064 0.78145 0.0
O50 O 0.52253 0.50587 0.84577 0.0
O51 O 0.55823 0.57859 0.82251 0.0
O52 O 0.53079 0.40713 0.83693 0.0
O53 O 0.58847 0.44079 0.86871 0.0
O54 O 0.54393 0.47018 0.79285 0.0
O55 O 0.61602 0.52785 0.79925 0.0
O56 O 0.69761 0.57937 0.81775 0.0
O57 O 0.65912 0.50418 0.83853 0.0
C58 C 0.52013 0.54286 0.83458 0.0
C59 C 0.69865 0.54141 0.82855 0.0
H60 H 0.55583 0.06247 0.22833 0.0
C61 C 0.52595 0.02659 0.22155 0.0
C62 C 0.50029 0.99288 0.24215 0.0
C63 C 0.51199 1.01521 0.19258 0.0
H64 H 0.43979 0.92114 0.24936 0.0
C65 C 0.4598 0.9472 0.23359 0.0
C66 C 0.44435 0.93488 0.20496 0.0
C67 C 0.47086 0.96883 0.18459 0.0
C68 C 0.53892 0.05238 0.17092 0.0
H69 H 0.45957 0.95851 0.16251 0.0
C70 C 0.58952 0.08777 0.17496 0.0
C71 C 0.61378 0.12277 0.15443 0.0
C72 C 0.51347 0.0535 0.14607 0.0
H73 H 0.4746 0.02868 0.14241 0.0
C74 C 0.5374 0.08756 0.12571 0.0
H75 H 0.61038 0.0878 0.19368 0.0
C76 C 0.587 0.12179 0.12976 0.0
H77 H 0.60421 0.14842 0.11378 0.0
H78 H 0.51715 0.08787 0.10678 0.0
H79 H 0.57173 0.587 0.56121 0.0
C80 C 0.57546 0.55735 0.55251 0.0
C81 C 0.5846 0.52812 0.57099 0.0
C82 C 0.56927 0.54729 0.52309 0.0
H83 H 0.59199 0.46434 0.57434 0.0
C84 C 0.58673 0.48796 0.56002 0.0
C85 C 0.58032 0.47664 0.53094 0.0
C86 C 0.57293 0.50716 0.5125 0.0
C87 C 0.55394 0.57519 0.50388 0.0
H88 H 0.56823 0.49839 0.49001 0.0
C89 C 0.5709 0.62591 0.50853 0.0
C90 C 0.55399 0.65043 0.49051 0.0
C91 C 0.5195 0.54981 0.48123 0.0
H92 H 0.50425 0.51089 0.47744 0.0
C93 C 0.50267 0.57366 0.46362 0.0
H94 H 0.59761 0.64636 0.52571 0.0
C95 C 0.51951 0.62324 0.46819 0.0
H96 H 0.50458 0.6401 0.45439 0.0
H97 H 0.47579 0.55336 0.44648 0.0
H98 H 0.13209 0.54623 0.90057 0.0
C99 C 0.09848 0.54195 0.89096 0.0
C100 C 0.05934 0.53033 0.90814 0.0
C101 C 0.09503 0.55001 0.86194 0.0
H102 H 0.98752 0.52149 0.90974 0.0
C103 C 1.0168 0.52796 0.89633 0.0
C104 C 1.01224 0.53603 0.86771 0.0
C105 C 0.05066 0.54544 0.85042 0.0
C106 C 0.1391 0.56827 0.84451 0.0
H107 H 0.04636 0.55099 0.82824 0.0
C108 C 0.17625 0.55614 0.84989 0.0
C109 C 0.21915 0.57774 0.83461 0.0
C110 C 0.14584 0.60138 0.82318 0.0
H111 H 0.11987 0.61339 0.81886 0.0
C112 C 0.18723 0.6213 0.80759 0.0
H113 H 0.17254 0.531 0.86614 0.0
C114 C 0.22358 0.60984 0.81328 0.0
H115 H 0.25565 0.62647 0.80102 0.0
H116 H 0.19161 0.64663 0.79131 0.0
H117 H 0.98231 0.56273 0.4319 0.0
C118 C 1.01679 0.59632 0.43628 0.0
C119 C 0.04867 0.61807 0.41446 0.0
C120 C 1.02862 0.61895 0.46354 0.0
H121 H 0.11874 0.67806 0.40417 0.0
C122 C 0.09289 0.66202 0.42043 0.0
C123 C 0.10488 0.68518 0.44729 0.0
C124 C 0.07273 0.66333 0.46877 0.0
C125 C 0.99532 0.59691 0.48679 0.0
H126 H 0.08212 0.68099 0.48966 0.0
C127 C 0.97379 0.5467 0.49165 0.0
C128 C 0.94471 0.52645 0.51483 0.0
C129 C 0.98659 0.62663 0.50503 0.0
H130 H 1.0021 0.66529 0.50159 0.0
C131 C 0.9578 0.60685 0.52795 0.0
H132 H 0.98001 0.52356 0.47749 0.0
C133 C 0.93725 0.55725 0.53299 0.0
H134 H 0.91584 0.54314 0.55128 0.0
H135 H 0.95162 0.63013 0.54199 0.0
H136 H 0.57189 1.01718 0.75621 0.0
C137 C 0.57382 0.04547 0.77022 0.0
C138 C 0.5847 0.09049 0.75924 0.0
C139 C 0.56224 0.03567 0.79855 0.0
H140 H 0.59199 0.16076 0.76826 0.0
C141 C 0.58471 0.12632 0.77687 0.0
C142 C 0.57359 0.1172 0.80525 0.0
C143 C 0.56253 0.07198 0.81597 0.0
C144 C 0.54767 0.9868 0.80948 0.0
H145 H 0.55421 0.06521 0.83794 0.0
C146 C 0.57127 0.96165 0.80112 0.0
C147 C 0.55598 0.91433 0.81014 0.0
C148 C 0.50902 0.96427 0.82756 0.0
H149 H 0.48953 0.9823 0.83402 0.0
C150 C 0.49422 0.91753 0.83695 0.0
H151 H 0.6012 0.97861 0.78728 0.0
C152 C 0.51735 0.89253 0.82823 0.0
H153 H 0.50528 0.85628 0.83579 0.0
H154 H 0.46442 0.90045 0.85082 0.0
H155 H 0.56938 0.60965 0.08477 0.0
C156 C 0.59376 0.60476 0.09934 0.0
C157 C 0.62365 0.58766 0.08927 0.0
C158 C 0.59673 0.61799 0.12805 0.0
H159 H 0.67817 0.56857 0.10145 0.0
C160 C 0.65532 0.58238 0.10867 0.0
C161 C 0.65931 0.59653 0.13726 0.0
C162 C 0.63032 0.61477 0.14683 0.0
C163 C 0.56434 0.63481 0.13839 0.0
H164 H 0.6332 0.62548 0.16896 0.0
C165 C 0.51374 0.60629 0.13238 0.0
C166 C 0.48229 0.6214 0.14227 0.0
C167 C 0.58353 0.67883 0.15444 0.0
H168 H 0.62252 0.70134 0.15928 0.0
C169 C 0.55245 0.69439 0.16401 0.0
H170 H 0.49883 0.57211 0.12014 0.0
C171 C 0.50207 0.66594 0.15796 0.0
H172 H 0.47852 0.67827 0.16599 0.0
H173 H 0.5674 0.72845 0.17628 0.0
H174 H 0.18463 0.44347 0.17573 0.0
H175 H 0.17443 0.49976 0.09479 0.0
H176 H 0.27073 0.47208 0.16998 0.0
H177 H 0.26055 0.52822 0.08898 0.0
H178 H 0.41798 0.64921 0.1233 0.0
H179 H 0.32925 0.59888 0.11739 0.0
H180 H 0.33724 0.47249 0.1428 0.0
H181 H 0.42627 0.52317 0.14902 0.0
C182 C 0.20034 0.46027 0.15624 0.0
C183 C 0.17328 0.47023 0.13594 0.0
C184 C 0.24964 0.47663 0.15293 0.0
C185 C 0.27247 0.50329 0.1293 0.0
C186 C 0.24396 0.50854 0.10763 0.0
C187 C 0.19464 0.49194 0.11087 0.0
C188 C 0.40076 0.61063 0.12743 0.0
C189 C 0.42884 0.59014 0.13679 0.0
C190 C 0.35008 0.58165 0.12368 0.0
C191 C 0.32642 0.53168 0.12946 0.0
C192 C 0.35459 0.51088 0.13817 0.0
C193 C 0.40542 0.53981 0.14164 0.0
H194 H 0.76007 0.22971 0.56721 0.0
H195 H 0.81061 0.21743 0.48621 0.0
H196 H 0.82 0.31705 0.57032 0.0
H197 H 0.87037 0.30483 0.48926 0.0
H198 H 0.98317 0.46635 0.50814 0.0
H199 H 0.94286 0.3782 0.51459 0.0
H200 H 0.81435 0.37875 0.54007 0.0
H201 H 0.85357 0.4659 0.5329 0.0
C202 C 0.78512 0.24535 0.55054 0.0
C203 C 0.78029 0.2171 0.52626 0.0
C204 C 0.81914 0.29537 0.55223 0.0
C205 C 0.84905 0.31783 0.52976 0.0
C206 C 0.84778 0.28851 0.50689 0.0
C207 C 0.81355 0.23847 0.50514 0.0
C208 C 0.94624 0.44761 0.51501 0.0
C209 C 0.9216 0.47331 0.51994 0.0
C210 C 0.9234 0.39726 0.51892 0.0
C211 C 0.87575 0.37178 0.52816 0.0
C212 C 0.85156 0.39761 0.53361 0.0
C213 C 0.87408 0.44765 0.52943 0.0
H214 H 0.61966 0.69403 0.75206 0.0
H215 H 0.71601 0.77136 0.82518 0.0
H216 H 0.60206 0.76019 0.7464 0.0
H217 H 0.69784 0.83689 0.81992 0.0
H218 H 0.65387 0.94853 0.8077 0.0
H219 H 0.69299 0.90193 0.79494 0.0
H220 H 0.55077 0.77305 0.77854 0.0
H221 H 0.51202 0.81976 0.79049 0.0
C222 C 0.63844 0.72599 0.76628 0.0
C223 C 0.6682 0.72724 0.78946 0.0
C224 C 0.62813 0.76368 0.76316 0.0
C225 C 0.6475 0.80299 0.78318 0.0
C226 C 0.68223 0.80707 0.80417 0.0
C227 C 0.69254 0.76941 0.80727 0.0
C228 C 0.63112 0.91048 0.80079 0.0
C229 C 0.57992 0.88748 0.80045 0.0
C230 C 0.65349 0.88386 0.79355 0.0
C231 C 0.62501 0.8339 0.78568 0.0
C232 C 0.57382 0.81167 0.78406 0.0
C233 C 0.55154 0.83816 0.79139 0.0
H234 H 0.86739 0.5267 0.21581 0.0
H235 H 0.9401 0.65652 0.1675 0.0
H236 H 0.79428 0.53406 0.21494 0.0
H237 H 0.86731 0.66398 0.16667 0.0
H238 H 0.73251 0.67161 0.16937 0.0
H239 H 0.80389 0.67307 0.19257 0.0
H240 H 0.74087 0.51944 0.17037 0.0
H241 H 0.67005 0.51825 0.14724 0.0
C242 C 0.86822 0.55763 0.20578 0.0
C243 C 0.90885 0.5906 0.19128 0.0
C244 C 0.82645 0.56178 0.20527 0.0
C245 C 0.82504 0.59926 0.19051 0.0
C246 C 0.86747 0.63491 0.17839 0.0
C247 C 0.90903 0.63048 0.17867 0.0
C248 C 0.73343 0.63793 0.17033 0.0
C249 C 0.69634 0.59491 0.15639 0.0
C250 C 0.77419 0.6388 0.18347 0.0
C251 C 0.77793 0.59646 0.18314 0.0
C252 C 0.73875 0.55251 0.17123 0.0
C253 C 0.69844 0.55183 0.15781 0.0
H254 H 0.39201 0.93714 0.43149 0.0
H255 H 0.36455 0.94476 0.51919 0.0
H256 H 0.30952 0.86681 0.423 0.0
H257 H 0.28203 0.87533 0.5107 0.0
H258 H 0.1703 0.71208 0.49282 0.0
H259 H 0.24816 0.78801 0.50075 0.0
H260 H 0.22209 0.84024 0.42183 0.0
H261 H 0.1441 0.76416 0.41391 0.0
C262 C 0.368 0.92425 0.44879 0.0
C263 C 0.38455 0.94596 0.476 0.0
C264 C 0.3208 0.88416 0.44395 0.0
C265 C 0.28951 0.86528 0.46628 0.0
C266 C 0.30561 0.88849 0.49322 0.0
C267 C 0.3527 0.92841 0.49803 0.0
C268 C 0.1809 0.74004 0.47737 0.0
C269 C 0.15123 0.73214 0.45272 0.0
C270 C 0.22546 0.78355 0.4819 0.0
C271 C 0.24122 0.82009 0.46189 0.0
C272 C 0.2112 0.81248 0.43743 0.0
C273 C 0.16662 0.76896 0.43291 0.0
H274 H 0.47743 0.31037 0.8401 0.0
H275 H 0.61507 0.38111 0.88942 0.0
H276 H 0.481 0.23538 0.83679 0.0
H277 H 0.61891 0.30613 0.88584 0.0
H278 H 0.64178 0.21347 0.81387 0.0
H279 H 0.63225 0.27628 0.83815 0.0
H280 H 0.48822 0.16644 0.86056 0.0
H281 H 0.49799 0.1034 0.83633 0.0
C282 C 0.50746 0.30922 0.85115 0.0
C283 C 0.54632 0.35154 0.86461 0.0
C284 C 0.50947 0.26629 0.84933 0.0
C285 C 0.55065 0.26538 0.86069 0.0
C286 C 0.58703 0.30619 0.87669 0.0
C287 C 0.58468 0.34894 0.87884 0.0
C288 C 0.60853 0.20274 0.82447 0.0
C289 C 0.57047 0.1539 0.8231 0.0
C290 C 0.60324 0.23848 0.83862 0.0
C291 C 0.55952 0.22605 0.85129 0.0
C292 C 0.52229 0.17682 0.85102 0.0
C293 C 0.5279 0.14091 0.83722 0.0
H294 H 0.64907 0.96152 0.53466 0.0
H295 H 0.52913 0.90376 0.47137 0.0
H296 H 0.64635 0.88244 0.53376 0.0
H297 H 0.52716 0.82592 0.47019 0.0
H298 H 0.57607 0.71762 0.44974 0.0
H299 H 0.58794 0.79952 0.45442 0.0
H300 H 0.58258 0.78816 0.54483 0.0
H301 H 0.56892 0.70465 0.54015 0.0
C302 C 0.62227 0.93214 0.52054 0.0
C303 C 0.58937 0.93917 0.50306 0.0
C304 C 0.62058 0.88681 0.52015 0.0
C305 C 0.58672 0.84796 0.50179 0.0
C306 C 0.55397 0.85517 0.48439 0.0
C307 C 0.555 0.89986 0.48518 0.0
C308 C 0.57743 0.73233 0.47071 0.0
C309 C 0.5704 0.70377 0.49451 0.0
C310 C 0.58438 0.77947 0.47336 0.0
C311 C 0.58542 0.80012 0.49993 0.0
C312 C 0.58188 0.77322 0.52404 0.0
C313 C 0.57425 0.72543 0.52136 0.0
H314 H 0.79181 0.61761 0.82266 0.0
H315 H 0.71161 0.46329 0.83823 0.0
H316 H 0.86856 0.61721 0.82859 0.0
H317 H 0.78835 0.46295 0.84392 0.0
H318 H 0.93684 0.47349 0.83018 0.0
H319 H 0.8613 0.47464 0.81758 0.0
H320 H 0.91467 0.60634 0.86973 0.0
H321 H 0.98931 0.6046 0.88242 0.0
C322 C 0.79042 0.58347 0.82703 0.0
C323 C 0.74533 0.54054 0.83005 0.0
C324 C 0.83451 0.5833 0.83056 0.0
C325 C 0.83475 0.54006 0.83678 0.0
C326 C 0.7896 0.49681 0.8389 0.0
C327 C 0.74554 0.49712 0.8358 0.0
C328 C 0.93251 0.50296 0.83854 0.0
C329 C 0.96895 0.5391 0.85713 0.0
C330 C 0.8892 0.50348 0.83154 0.0
C331 C 0.88183 0.54062 0.84263 0.0
C332 C 0.9192 0.57752 0.86053 0.0
C333 C 0.96194 0.57651 0.86786 0.0
H334 H 0.13981 0.70546 0.18305 0.0
H335 H 0.21713 0.62835 0.16816 0.0
H336 H 0.21767 0.78257 0.18854 0.0
H337 H 0.29478 0.70535 0.17379 0.0
H338 H 0.42104 0.84392 0.22234 0.0
H339 H 0.34447 0.76667 0.21297 0.0
H340 H 0.28878 0.84014 0.16044 0.0
H341 H 0.36566 0.91762 0.16985 0.0
C342 C 0.17333 0.70487 0.18092 0.0
C343 C 0.172 0.66049 0.17525 0.0
C344 C 0.218 0.74919 0.18388 0.0
C345 C 0.26257 0.75024 0.18162 0.0
C346 C 0.26122 0.70588 0.17589 0.0
C347 C 0.21658 0.66169 0.17255 0.0
C348 C 0.3926 0.84351 0.2086 0.0
C349 C 0.39949 0.88698 0.19686 0.0
C350 C 0.34877 0.79917 0.20312 0.0
C351 C 0.31028 0.79714 0.18605 0.0
C352 C 0.31746 0.84046 0.17389 0.0
C353 C 0.36168 0.88475 0.17905 0.0
H354 H 0.50322 0.17462 0.48919 0.0
H355 H 0.66048 0.25625 0.50198 0.0
H356 H 0.50131 0.25044 0.49416 0.0
H357 H 0.65842 0.33212 0.50682 0.0
H358 H 0.63698 0.46505 0.49282 0.0
H359 H 0.6374 0.38948 0.48064 0.0
H360 H 0.51858 0.30929 0.53461 0.0
H361 H 0.51863 0.3844 0.54681 0.0
C362 C 0.53747 0.20872 0.49272 0.0
C363 C 0.58199 0.20906 0.49527 0.0
C364 C 0.53633 0.25225 0.49571 0.0
C365 C 0.5797 0.29748 0.50099 0.0
C366 C 0.62436 0.29807 0.50254 0.0
C367 C 0.62548 0.25443 0.49992 0.0
C368 C 0.61061 0.43106 0.5017 0.0
C369 C 0.57779 0.4306 0.52076 0.0
C370 C 0.61105 0.38789 0.49493 0.0
C371 C 0.57802 0.34322 0.50666 0.0
C372 C 0.5442 0.34277 0.52496 0.0
C373 C 0.54433 0.38587 0.53205 0.0
H374 H 0.43503 0.47983 0.85974 0.0
H375 H 0.50169 0.61241 0.8134 0.0
H376 H 0.36166 0.48612 0.86312 0.0
H377 H 0.42852 0.61808 0.81624 0.0
H378 H 0.31407 0.64662 0.84685 0.0
H379 H 0.38527 0.63664 0.84891 0.0
H380 H 0.29111 0.48028 0.83666 0.0
H381 H 0.21933 0.49063 0.83526 0.0
C382 C 0.4341 0.51025 0.85019 0.0
C383 C 0.4747 0.54576 0.83643 0.0
C384 C 0.3918 0.51372 0.85202 0.0
C385 C 0.38894 0.55287 0.84022 0.0
C386 C 0.42943 0.58795 0.8262 0.0
C387 C 0.47155 0.58451 0.82437 0.0
C388 C 0.3085 0.61 0.84503 0.0
C389 C 0.26101 0.56945 0.84075 0.0
C390 C 0.34944 0.60425 0.84591 0.0
C391 C 0.3444 0.55772 0.84231 0.0
C392 C 0.29664 0.51672 0.83955 0.0
C393 C 0.2554 0.52254 0.83881 0.0
H394 H 0.9271 0.33746 0.14292 0.0
H395 H 0.86286 0.41187 0.18421 0.0
H396 H 0.84923 0.26046 0.14321 0.0
H397 H 0.78538 0.3353 0.18431 0.0
H398 H 0.68472 0.15174 0.11648 0.0
H399 H 0.76685 0.22315 0.1201 0.0
H400 H 0.74437 0.25446 0.20513 0.0
H401 H 0.66163 0.18306 0.20128 0.0
C402 C 0.89652 0.3375 0.15209 0.0
C403 C 0.90146 0.38116 0.1634 0.0
C404 C 0.85175 0.2933 0.15219 0.0
C405 C 0.81085 0.29145 0.16386 0.0
C406 C 0.8161 0.33502 0.1755 0.0
C407 C 0.86061 0.37918 0.17519 0.0
C408 C 0.69749 0.17355 0.13609 0.0
C409 C 0.6664 0.16178 0.15853 0.0
C410 C 0.74478 0.21441 0.13823 0.0
C411 C 0.76231 0.24501 0.16282 0.0
C412 C 0.73191 0.23214 0.18572 0.0
C413 C 0.68465 0.19089 0.18366 0.0
H414 H 0.07011 0.61211 0.07891 0.0
H415 H 1.01745 0.45817 0.08728 0.0
H416 H 0.08469 0.60551 0.02958 0.0
H417 H 1.03209 0.45136 0.03743 0.0
H418 H 0.99305 0.45876 0.94018 0.0
H419 H 0.99298 0.4579 0.99166 0.0
H420 H 0.13488 0.58919 -0.00247 0.0
H421 H 0.13456 0.5904 0.94597 0.0
C422 C 0.06211 0.57688 0.07021 0.0
C423 C 0.04226 0.53557 0.0868 0.0
C424 C 0.07089 0.57319 0.04199 0.0
C425 C 0.05964 0.52793 0.02958 0.0
C426 C 0.04091 0.48668 0.0464 0.0
C427 C 0.03264 0.49055 0.07487 0.0
C428 C 1.02459 0.48693 0.95251 0.0
C429 C 0.06361 0.5249 0.93906 0.0
C430 C 1.02473 0.48623 0.98199 0.0
C431 C 0.06372 0.52373 -0.00133 0.0
C432 C 0.10407 0.56008 0.98522 0.0
C433 C 0.1041 0.56056 0.95571 0.0
H434 H 0.64156 0.03672 0.40986 0.0
H435 H 0.53198 0.07667 0.42185 0.0
H436 H 0.61531 1.01802 0.35991 0.0
H437 H 0.5062 0.05895 0.37163 0.0
H438 H 0.44163 0.97448 0.28644 0.0
H439 H 0.46612 0.99208 0.33663 0.0
H440 H 0.61765 0.05945 0.31716 0.0
H441 H 0.59303 0.03994 0.26707 0.0
C442 C 0.61189 0.0416 0.40175 0.0
C443 C 0.58891 0.0583 0.41967 0.0
C444 C 0.59706 0.03122 0.37309 0.0
C445 C 0.55889 0.03734 0.36166 0.0
C446 C 0.53543 0.05343 0.37976 0.0
C447 C 0.55029 0.06378 0.40849 0.0
C448 C 0.48016 0.99264 0.29289 0.0
C449 C 0.51535 1.00548 0.27271 0.0
C450 C 0.49423 1.00327 0.32166 0.0
C451 C 0.54385 0.02705 0.33098 0.0
C452 C 0.57907 0.04047 0.31077 0.0
C453 C 0.565 0.02982 0.282 0.0
H454 H 0.65907 0.57129 0.75339 0.0
H455 H 0.50525 0.46507 0.74128 0.0
H456 H 0.66247 0.58535 0.70272 0.0
H457 H 0.5086 0.47892 0.69065 0.0
H458 H 0.52228 0.5402 0.60351 0.0
H459 H 0.52252 0.54198 0.65518 0.0
H460 H 0.65495 0.53483 0.65999 0.0
H461 H 0.65483 0.53347 0.60851 0.0
C462 C 0.62596 0.5512 0.7399 0.0
C463 C 0.58197 0.5168 0.75115 0.0
C464 C 0.62792 0.55917 0.71092 0.0
C465 C 0.58582 0.53321 0.6927 0.0
C466 C 0.54153 0.49989 0.70418 0.0
C467 C 0.53967 0.49165 0.73311 0.0
C468 C 0.55198 0.54015 0.61569 0.0
C469 C 0.58847 0.53656 0.60207 0.0
C470 C 0.55187 0.54068 0.64521 0.0
C471 C 0.58858 0.53822 0.66163 0.0
C472 C 0.62638 0.53713 0.64796 0.0
C473 C 0.62619 0.53608 0.61851 0.0
H474 H 0.56244 0.14672 0.58158 0.0
H475 H 0.60608 0.03802 0.5829 0.0
H476 H 0.57634 0.15833 0.63269 0.0
H477 H 0.61652 0.04645 0.63431 0.0
H478 H 0.64985 0.082 0.72751 0.0
H479 H 0.65605 0.08852 0.67638 0.0
H480 H 0.53673 0.1179 0.67138 0.0
H481 H 0.53319 0.1144 0.72236 0.0
C482 C 0.57515 0.12539 0.59296 0.0
C483 C 0.58283 0.09125 0.57853 0.0
C484 C 0.58265 0.13158 0.6223 0.0
C485 C 0.59648 0.10255 0.63796 0.0
C486 C 0.60632 0.06988 0.62316 0.0
C487 C 0.6001 0.06473 0.59367 0.0
C488 C 0.62566 0.09064 0.71531 0.0
C489 C 0.59125 0.09799 0.72871 0.0
C490 C 0.62884 0.09399 0.68601 0.0
C491 C 0.59685 0.10365 0.66946 0.0
C492 C 0.56292 0.11164 0.68322 0.0
C493 C 0.56053 0.10934 0.71249 0.0
H494 H 0.70673 0.64042 0.91802 0.0
H495 H 0.56704 0.50698 0.90757 0.0
H496 H 0.70171 0.63772 0.96889 0.0
H497 H 0.56273 0.50281 0.95893 0.0
H498 H 0.54675 0.5486 0.04908 0.0
H499 H 0.55049 0.54251 -0.00188 0.0
H500 H 0.70569 0.59719 0.00895 0.0
H501 H 0.70275 0.60711 0.05933 0.0
C502 C 0.67524 0.61003 0.9267 0.0
C503 C 0.63717 0.57406 0.90892 0.0
C504 C 0.67247 0.60821 0.95593 0.0
C505 C 0.63185 0.56992 0.96814 0.0
C506 C 0.59421 0.53318 0.95026 0.0
C507 C 0.59678 0.53533 0.92089 0.0
C508 C 0.58174 0.55966 0.04057 0.0
C509 C 0.62447 0.57873 0.05845 0.0
C510 C 0.58376 0.55545 0.01133 0.0
C511 C 0.62849 0.56976 -0.00067 0.0
C512 C 0.67075 0.58675 0.01734 0.0
C513 C 0.66887 0.59164 0.04643 0.0
H514 H 0.04493 0.45847 0.26389 0.0
H515 H 1.02176 0.57268 0.23223 0.0
H516 H 0.03786 0.48142 0.3121 0.0
H517 H 1.00929 0.59216 0.27942 0.0
H518 H 0.06461 0.66594 0.36539 0.0
H519 H 0.05767 0.63396 0.31808 0.0
H520 H 0.99416 0.48748 0.34883 0.0
H521 H 1.00559 0.52086 0.39716 0.0
C522 C 0.037 0.48758 0.26722 0.0
C523 C 0.03405 0.51394 0.2444 0.0
C524 C 0.03244 0.50051 0.29482 0.0
C525 C 1.0237 0.5393 0.29995 0.0
C526 C 1.01764 0.56326 0.27665 0.0
C527 C 1.02392 0.55152 0.24938 0.0
C528 C 0.04946 0.6269 0.36219 0.0
C529 C 0.03671 0.59617 0.38521 0.0
C530 C 0.04453 0.60821 0.33479 0.0
C531 C 1.02521 0.55784 0.3293 0.0
C532 C 1.00997 0.52655 0.35219 0.0
C533 C 1.01582 0.54556 0.37989 0.0
loop_
_geom_bond_atom_site_label_1
_geom_bond_atom_site_label_2
_geom_bond_distance
_geom_bond_site_symmetry_2
_ccdc_geom_bond_type
Dy0 O4 2.398 . S
Dy0 O5 2.491 . S
Dy0 O6 2.403 . S
Dy0 O7 2.664 . S
Dy0 O11 2.326 . S
Dy0 O15 2.310 . S
Dy0 O16 2.351 1_455 S
C1 O12 1.185 . S
C1 O13 1.355 . S
C2 O4 1.185 . S
C2 O5 1.355 . S
Dy3 O7 2.310 . S
Dy3 O10 2.351 . S
Dy3 O12 2.398 1_455 S
Dy3 O13 2.491 1_455 S
Dy3 O14 2.403 . S
Dy3 O15 2.664 . S
Dy3 O17 2.326 1_455 S
O4 Dy0 2.398 . S
O4 C2 1.185 . S
O5 Dy0 2.491 . S
O5 C2 1.355 . S
O6 Dy0 2.403 . S
O6 C8 1.254 . S
O7 Dy0 2.664 . S
O7 Dy3 2.310 . S
O7 C8 1.268 . S
C8 O6 1.254 . S
C8 O7 1.268 . S
C9 O14 1.254 . S
C9 O15 1.268 . S
O10 Dy3 2.351 . S
O10 C18 1.249 . S
O11 Dy0 2.326 . S
O11 C18 1.267 . S
O12 C1 1.185 . S
O12 Dy3 2.398 1_655 S
O13 C1 1.355 . S
O13 Dy3 2.491 1_655 S
O14 Dy3 2.403 . S
O14 C9 1.254 . S
O15 Dy0 2.310 . S
O15 Dy3 2.664 . S
O15 C9 1.268 . S
O16 Dy0 2.351 1_655 S
O16 C19 1.249 . S
O17 Dy3 2.326 1_655 S
O17 C19 1.267 . S
C18 O10 1.249 . S
C18 O11 1.267 . S
C19 O16 1.249 . S
C19 O17 1.267 . S
Dy20 O24 2.381 1_545 S
Dy20 O25 2.472 1_545 S
Dy20 O26 2.401 . S
Dy20 O27 2.667 . S
Dy20 O31 2.299 1_545 S
Dy20 O35 2.308 . S
Dy20 O36 2.379 . S
C21 O32 1.185 . S
C21 O33 1.355 . S
C22 O24 1.185 . S
C22 O25 1.355 . S
Dy23 O27 2.310 . S
Dy23 O30 2.351 1_545 S
Dy23 O32 2.398 . S
Dy23 O33 2.491 . S
Dy23 O34 2.403 . S
Dy23 O35 2.664 . S
Dy23 O37 2.326 . S
O24 Dy20 2.381 1_565 S
O24 C22 1.185 . S
O25 Dy20 2.472 1_565 S
O25 C22 1.355 . S
O26 Dy20 2.401 . S
O26 C28 1.254 . S
O27 Dy20 2.667 . S
O27 Dy23 2.310 . S
O27 C28 1.268 . S
C28 O26 1.254 . S
C28 O27 1.268 . S
C29 O34 1.254 . S
C29 O35 1.268 . S
O30 Dy23 2.351 1_565 S
O30 C38 1.249 . S
O31 Dy20 2.299 1_565 S
O31 C38 1.267 . S
O32 C21 1.185 . S
O32 Dy23 2.398 . S
O33 C21 1.355 . S
O33 Dy23 2.491 . S
O34 Dy23 2.403 . S
O34 C29 1.254 . S
O35 Dy20 2.308 . S
O35 Dy23 2.664 . S
O35 C29 1.268 . S
O36 Dy20 2.379 . S
O36 C39 1.249 . S
O37 Dy23 2.326 . S
O37 C39 1.267 . S
C38 O30 1.249 . S
C38 O31 1.267 . S
C39 O36 1.249 . S
C39 O37 1.267 . S
Dy40 O44 2.398 . S
Dy40 O45 2.491 . S
Dy40 O46 2.403 . S
Dy40 O47 2.664 . S
Dy40 O51 2.326 . S
Dy40 O55 2.310 . S
Dy40 O56 2.351 . S
C41 O52 1.185 . S
C41 O53 1.355 . S
C42 O44 1.185 . S
C42 O45 1.355 . S
Dy43 O47 2.310 . S
Dy43 O50 2.351 . S
Dy43 O52 2.398 . S
Dy43 O53 2.491 . S
Dy43 O54 2.403 . S
Dy43 O55 2.664 . S
Dy43 O57 2.326 . S
O44 Dy40 2.398 . S
O44 C42 1.185 . S
O45 Dy40 2.491 . S
O45 C42 1.355 . S
O46 Dy40 2.403 . S
O46 C48 1.254 . S
O47 Dy40 2.664 . S
O47 Dy43 2.310 . S
O47 C48 1.268 . S
C48 O46 1.254 . S
C48 O47 1.268 . S
C49 O54 1.254 . S
C49 O55 1.268 . S
O50 Dy43 2.351 . S
O50 C58 1.249 . S
O51 Dy40 2.326 . S
O51 C58 1.267 . S
O52 C41 1.185 . S
O52 Dy43 2.398 . S
O53 C41 1.355 . S
O53 Dy43 2.491 . S
O54 Dy43 2.403 . S
O54 C49 1.254 . S
O55 Dy40 2.310 . S
O55 Dy43 2.664 . S
O55 C49 1.268 . S
O56 Dy40 2.351 . S
O56 C59 1.249 . S
O57 Dy43 2.326 . S
O57 C59 1.267 . S
C58 O50 1.249 . S
C58 O51 1.267 . S
C59 O56 1.249 . S
C59 O57 1.267 . S
H60 C61 0.949 . S
C61 H60 0.949 . S
C61 C62 1.395 . S
C61 C63 1.391 . S
C62 C61 1.395 . S
C62 C65 1.390 1_545 S
C63 C61 1.391 . S
C63 C67 1.387 1_545 S
C63 C68 1.491 . S
H64 C65 0.950 . S
C65 C62 1.390 1_565 S
C65 H64 0.950 . S
C65 C66 1.378 . S
C66 C65 1.378 . S
C66 C67 1.409 . S
C67 C63 1.387 1_565 S
C67 C66 1.409 . S
C67 H69 0.951 . S
C68 C63 1.491 . S
C68 C70 1.382 . S
C68 C72 1.404 . S
H69 C67 0.951 . S
C70 C68 1.382 . S
C70 C71 1.390 . S
C70 H75 0.949 . S
C71 C70 1.390 . S
C71 C76 1.399 . S
C72 C68 1.404 . S
C72 H73 0.950 . S
C72 C74 1.375 . S
H73 C72 0.950 . S
C74 C72 1.375 . S
C74 C76 1.382 . S
C74 H78 0.950 . S
H75 C70 0.949 . S
C76 C71 1.399 . S
C76 C74 1.382 . S
C76 H77 0.952 . S
H77 C76 0.952 . S
H78 C74 0.950 . S
H79 C80 0.949 . S
C80 H79 0.949 . S
C80 C81 1.395 . S
C80 C82 1.391 . S
C81 C80 1.395 . S
C81 C84 1.390 . S
C82 C80 1.391 . S
C82 C86 1.387 . S
C82 C87 1.491 . S
H83 C84 0.950 . S
C84 C81 1.390 . S
C84 H83 0.950 . S
C84 C85 1.378 . S
C85 C84 1.378 . S
C85 C86 1.409 . S
C86 C82 1.387 . S
C86 C85 1.409 . S
C86 H88 0.951 . S
C87 C82 1.491 . S
C87 C89 1.382 . S
C87 C91 1.404 . S
H88 C86 0.951 . S
C89 C87 1.382 . S
C89 C90 1.390 . S
C89 H94 0.949 . S
C90 C89 1.390 . S
C90 C95 1.399 . S
C91 C87 1.404 . S
C91 H92 0.950 . S
C91 C93 1.375 . S
H92 C91 0.950 . S
C93 C91 1.375 . S
C93 C95 1.382 . S
C93 H97 0.950 . S
H94 C89 0.949 . S
C95 C90 1.399 . S
C95 C93 1.382 . S
C95 H96 0.952 . S
H96 C95 0.952 . S
H97 C93 0.950 . S
H98 C99 0.949 . S
C99 H98 0.949 . S
C99 C100 1.395 . S
C99 C101 1.391 . S
C100 C99 1.395 . S
C100 C103 1.390 . S
C101 C99 1.391 . S
C101 C105 1.387 . S
C101 C106 1.491 . S
H102 C103 0.950 1_655 S
C103 C100 1.390 . S
C103 H102 0.950 1_455 S
C103 C104 1.378 1_455 S
C104 C103 1.378 1_655 S
C104 C105 1.409 1_655 S
C105 C101 1.387 . S
C105 C104 1.409 1_455 S
C105 H107 0.951 . S
C106 C101 1.491 . S
C106 C108 1.382 . S
C106 C110 1.404 . S
H107 C105 0.951 . S
C108 C106 1.382 . S
C108 C109 1.390 . S
C108 H113 0.949 . S
C109 C108 1.390 . S
C109 C114 1.399 . S
C110 C106 1.404 . S
C110 H111 0.950 . S
C110 C112 1.375 . S
H111 C110 0.950 . S
C112 C110 1.375 . S
C112 C114 1.382 . S
C112 H116 0.950 . S
H113 C108 0.949 . S
C114 C109 1.399 . S
C114 C112 1.382 . S
C114 H115 0.952 . S
H115 C114 0.952 . S
H116 C112 0.950 . S
H117 C118 0.949 . S
C118 H117 0.949 . S
C118 C119 1.395 1_655 S
C118 C120 1.391 . S
C119 C118 1.395 1_455 S
C119 C122 1.390 . S
C120 C118 1.391 . S
C120 C124 1.385 1_655 S
C120 C125 1.493 . S
H121 C122 0.950 . S
C122 C119 1.390 . S
C122 H121 0.950 . S
C122 C123 1.378 . S
C123 C122 1.378 . S
C123 C124 1.409 . S
C124 C120 1.385 1_455 S
C124 C123 1.409 . S
C124 H126 0.951 . S
C125 C120 1.493 . S
C125 C127 1.382 . S
C125 C129 1.404 . S
H126 C124 0.951 . S
C127 C125 1.382 . S
C127 C128 1.390 . S
C127 H132 0.949 . S
C128 C127 1.390 . S
C128 C133 1.399 . S
C129 C125 1.404 . S
C129 H130 0.950 . S
C129 C131 1.375 . S
H130 C129 0.950 . S
C131 C129 1.375 . S
C131 C133 1.382 . S
C131 H135 0.950 . S
H132 C127 0.949 . S
C133 C128 1.399 . S
C133 C131 1.382 . S
C133 H134 0.952 . S
H134 C133 0.952 . S
H135 C131 0.950 . S
H136 C137 0.949 1_565 S
C137 H136 0.949 1_545 S
C137 C138 1.395 . S
C137 C139 1.391 . S
C138 C137 1.395 . S
C138 C141 1.390 . S
C139 C137 1.391 . S
C139 C143 1.387 . S
C139 C144 1.491 1_545 S
H140 C141 0.950 . S
C141 C138 1.390 . S
C141 H140 0.950 . S
C141 C142 1.378 . S
C142 C141 1.378 . S
C142 C143 1.409 . S
C143 C139 1.387 . S
C143 C142 1.409 . S
C143 H145 0.951 . S
C144 C139 1.491 1_565 S
C144 C146 1.382 . S
C144 C148 1.404 . S
H145 C143 0.951 . S
C146 C144 1.382 . S
C146 C147 1.390 . S
C146 H151 0.949 . S
C147 C146 1.390 . S
C147 C152 1.399 . S
C148 C144 1.404 . S
C148 H149 0.950 1_565 S
C148 C150 1.375 . S
H149 C148 0.950 1_545 S
C150 C148 1.375 . S
C150 C152 1.382 . S
C150 H154 0.950 . S
H151 C146 0.949 . S
C152 C147 1.399 . S
C152 C150 1.382 . S
C152 H153 0.952 . S
H153 C152 0.952 . S
H154 C150 0.950 . S
H155 C156 0.949 . S
C156 H155 0.949 . S
C156 C157 1.395 . S
C156 C158 1.391 . S
C157 C156 1.395 . S
C157 C160 1.390 . S
C158 C156 1.391 . S
C158 C162 1.387 . S
C158 C163 1.491 . S
H159 C160 0.950 . S
C160 C157 1.390 . S
C160 H159 0.950 . S
C160 C161 1.378 . S
C161 C160 1.378 . S
C161 C162 1.409 . S
C162 C158 1.387 . S
C162 C161 1.409 . S
C162 H164 0.951 . S
C163 C158 1.491 . S
C163 C165 1.382 . S
C163 C167 1.404 . S
H164 C162 0.951 . S
C165 C163 1.382 . S
C165 C166 1.390 . S
C165 H170 0.949 . S
C166 C165 1.390 . S
C166 C171 1.399 . S
C167 C163 1.404 . S
C167 H168 0.950 . S
C167 C169 1.375 . S
H168 C167 0.950 . S
C169 C167 1.375 . S
C169 C171 1.382 . S
C169 H173 0.950 . S
H170 C165 0.949 . S
C171 C166 1.399 . S
C171 C169 1.382 . S
C171 H172 0.952 . S
H172 C171 0.952 . S
H173 C169 0.950 . S
H174 C182 0.950 . S
H175 C187 0.950 . S
H176 C184 0.950 . S
H177 C186 0.950 . S
H178 C188 0.950 . S
H179 C190 0.950 . S
H180 C192 0.950 . S
H181 C193 0.950 . S
C182 H174 0.950 . S
C182 C183 1.386 . S
C182 C184 1.391 . S
C183 C182 1.386 . S
C183 C187 1.393 . S
C184 H176 0.950 . S
C184 C182 1.391 . S
C184 C185 1.400 . S
C185 C184 1.400 . S
C185 C186 1.398 . S
C185 C191 1.491 . S
C186 H177 0.950 . S
C186 C185 1.398 . S
C186 C187 1.391 . S
C187 H175 0.950 . S
C187 C183 1.393 . S
C187 C186 1.391 . S
C188 H178 0.950 . S
C188 C189 1.386 . S
C188 C190 1.391 . S
C189 C188 1.386 . S
C189 C193 1.393 . S
C190 H179 0.950 . S
C190 C188 1.391 . S
C190 C191 1.400 . S
C191 C185 1.491 . S
C191 C190 1.400 . S
C191 C192 1.398 . S
C192 H180 0.950 . S
C192 C191 1.398 . S
C192 C193 1.391 . S
C193 H181 0.950 . S
C193 C189 1.393 . S
C193 C192 1.391 . S
H194 C202 0.950 . S
H195 C207 0.950 . S
H196 C204 0.950 . S
H197 C206 0.950 . S
H198 C208 0.950 . S
H199 C210 0.950 . S
H200 C212 0.950 . S
H201 C213 0.950 . S
C202 H194 0.950 . S
C202 C203 1.386 . S
C202 C204 1.391 . S
C203 C202 1.386 . S
C203 C207 1.393 . S
C204 H196 0.950 . S
C204 C202 1.391 . S
C204 C205 1.400 . S
C205 C204 1.400 . S
C205 C206 1.398 . S
C205 C211 1.491 . S
C206 H197 0.950 . S
C206 C205 1.398 . S
C206 C207 1.391 . S
C207 H195 0.950 . S
C207 C203 1.393 . S
C207 C206 1.391 . S
C208 H198 0.950 . S
C208 C209 1.386 . S
C208 C210 1.391 . S
C209 C208 1.386 . S
C209 C213 1.393 . S
C210 H199 0.950 . S
C210 C208 1.391 . S
C210 C211 1.400 . S
C211 C205 1.491 . S
C211 C210 1.400 . S
C211 C212 1.398 . S
C212 H200 0.950 . S
C212 C211 1.398 . S
C212 C213 1.391 . S
C213 H201 0.950 . S
C213 C209 1.393 . S
C213 C212 1.391 . S
H214 C222 0.950 . S
H215 C227 0.950 . S
H216 C224 0.950 . S
H217 C226 0.950 . S
H218 C228 0.950 . S
H219 C230 0.950 . S
H220 C232 0.950 . S
H221 C233 0.950 . S
C222 H214 0.950 . S
C222 C223 1.386 . S
C222 C224 1.391 . S
C223 C222 1.386 . S
C223 C227 1.393 . S
C224 H216 0.950 . S
C224 C222 1.391 . S
C224 C225 1.400 . S
C225 C224 1.400 . S
C225 C226 1.398 . S
C225 C231 1.491 . S
C226 H217 0.950 . S
C226 C225 1.398 . S
C226 C227 1.391 . S
C227 H215 0.950 . S
C227 C223 1.393 . S
C227 C226 1.391 . S
C228 H218 0.950 . S
C228 C229 1.386 . S
C228 C230 1.391 . S
C229 C228 1.386 . S
C229 C233 1.393 . S
C230 H219 0.950 . S
C230 C228 1.391 . S
C230 C231 1.400 . S
C231 C225 1.491 . S
C231 C230 1.400 . S
C231 C232 1.398 . S
C232 H220 0.950 . S
C232 C231 1.398 . S
C232 C233 1.391 . S
C233 H221 0.950 . S
C233 C229 1.393 . S
C233 C232 1.391 . S
H234 C242 0.950 . S
H235 C247 0.950 . S
H236 C244 0.950 . S
H237 C246 0.950 . S
H238 C248 0.950 . S
H239 C250 0.950 . S
H240 C252 0.950 . S
H241 C253 0.950 . S
C242 H234 0.950 . S
C242 C243 1.386 . S
C242 C244 1.391 . S
C243 C242 1.386 . S
C243 C247 1.393 . S
C244 H236 0.950 . S
C244 C242 1.391 . S
C244 C245 1.400 . S
C245 C244 1.400 . S
C245 C246 1.398 . S
C245 C251 1.491 . S
C246 H237 0.950 . S
C246 C245 1.398 . S
C246 C247 1.391 . S
C247 H235 0.950 . S
C247 C243 1.393 . S
C247 C246 1.391 . S
C248 H238 0.950 . S
C248 C249 1.386 . S
C248 C250 1.391 . S
C249 C248 1.386 . S
C249 C253 1.393 . S
C250 H239 0.950 . S
C250 C248 1.391 . S
C250 C251 1.400 . S
C251 C245 1.491 . S
C251 C250 1.400 . S
C251 C252 1.398 . S
C252 H240 0.950 . S
C252 C251 1.398 . S
C252 C253 1.391 . S
C253 H241 0.950 . S
C253 C249 1.393 . S
C253 C252 1.391 . S
H254 C262 0.950 . S
H255 C267 0.950 . S
H256 C264 0.950 . S
H257 C266 0.950 . S
H258 C268 0.950 . S
H259 C270 0.950 . S
H260 C272 0.950 . S
H261 C273 0.950 . S
C262 H254 0.950 . S
C262 C263 1.386 . S
C262 C264 1.391 . S
C263 C262 1.386 . S
C263 C267 1.393 . S
C264 H256 0.950 . S
C264 C262 1.391 . S
C264 C265 1.400 . S
C265 C264 1.400 . S
C265 C266 1.398 . S
C265 C271 1.491 . S
C266 H257 0.950 . S
C266 C265 1.398 . S
C266 C267 1.391 . S
C267 H255 0.950 . S
C267 C263 1.393 . S
C267 C266 1.391 . S
C268 H258 0.950 . S
C268 C269 1.386 . S
C268 C270 1.391 . S
C269 C268 1.386 . S
C269 C273 1.393 . S
C270 H259 0.950 . S
C270 C268 1.391 . S
C270 C271 1.400 . S
C271 C265 1.491 . S
C271 C270 1.400 . S
C271 C272 1.398 . S
C272 H260 0.950 . S
C272 C271 1.398 . S
C272 C273 1.391 . S
C273 H261 0.950 . S
C273 C269 1.393 . S
C273 C272 1.391 . S
H274 C282 0.950 . S
H275 C287 0.950 . S
H276 C284 0.950 . S
H277 C286 0.950 . S
H278 C288 0.950 . S
H279 C290 0.950 . S
H280 C292 0.950 . S
H281 C293 0.950 . S
C282 H274 0.950 . S
C282 C283 1.386 . S
C282 C284 1.391 . S
C283 C282 1.386 . S
C283 C287 1.393 . S
C284 H276 0.950 . S
C284 C282 1.391 . S
C284 C285 1.400 . S
C285 C284 1.400 . S
C285 C286 1.398 . S
C285 C291 1.491 . S
C286 H277 0.950 . S
C286 C285 1.398 . S
C286 C287 1.391 . S
C287 H275 0.950 . S
C287 C283 1.393 . S
C287 C286 1.391 . S
C288 H278 0.950 . S
C288 C289 1.386 . S
C288 C290 1.391 . S
C289 C288 1.386 . S
C289 C293 1.393 . S
C290 H279 0.950 . S
C290 C288 1.391 . S
C290 C291 1.400 . S
C291 C285 1.491 . S
C291 C290 1.400 . S
C291 C292 1.398 . S
C292 H280 0.950 . S
C292 C291 1.398 . S
C292 C293 1.391 . S
C293 H281 0.950 . S
C293 C289 1.393 . S
C293 C292 1.391 . S
H294 C302 0.950 . S
H295 C307 0.950 . S
H296 C304 0.950 . S
H297 C306 0.950 . S
H298 C308 0.950 . S
H299 C310 0.950 . S
H300 C312 0.950 . S
H301 C313 0.950 . S
C302 H294 0.950 . S
C302 C303 1.386 . S
C302 C304 1.391 . S
C303 C302 1.386 . S
C303 C307 1.393 . S
C304 H296 0.950 . S
C304 C302 1.391 . S
C304 C305 1.400 . S
C305 C304 1.400 . S
C305 C306 1.398 . S
C305 C311 1.491 . S
C306 H297 0.950 . S
C306 C305 1.398 . S
C306 C307 1.391 . S
C307 H295 0.950 . S
C307 C303 1.393 . S
C307 C306 1.391 . S
C308 H298 0.950 . S
C308 C309 1.386 . S
C308 C310 1.391 . S
C309 C308 1.386 . S
C309 C313 1.393 . S
C310 H299 0.950 . S
C310 C308 1.391 . S
C310 C311 1.400 . S
C311 C305 1.491 . S
C311 C310 1.400 . S
C311 C312 1.398 . S
C312 H300 0.950 . S
C312 C311 1.398 . S
C312 C313 1.391 . S
C313 H301 0.950 . S
C313 C309 1.393 . S
C313 C312 1.391 . S
H314 C322 0.950 . S
H315 C327 0.950 . S
H316 C324 0.950 . S
H317 C326 0.950 . S
H318 C328 0.950 . S
H319 C330 0.950 . S
H320 C332 0.950 . S
H321 C333 0.950 . S
C322 H314 0.950 . S
C322 C323 1.386 . S
C322 C324 1.391 . S
C323 C322 1.386 . S
C323 C327 1.393 . S
C324 H316 0.950 . S
C324 C322 1.391 . S
C324 C325 1.400 . S
C325 C324 1.400 . S
C325 C326 1.398 . S
C325 C331 1.491 . S
C326 H317 0.950 . S
C326 C325 1.398 . S
C326 C327 1.391 . S
C327 H315 0.950 . S
C327 C323 1.393 . S
C327 C326 1.391 . S
C328 H318 0.950 . S
C328 C329 1.386 . S
C328 C330 1.391 . S
C329 C328 1.386 . S
C329 C333 1.393 . S
C330 H319 0.950 . S
C330 C328 1.391 . S
C330 C331 1.400 . S
C331 C325 1.491 . S
C331 C330 1.400 . S
C331 C332 1.398 . S
C332 H320 0.950 . S
C332 C331 1.398 . S
C332 C333 1.391 . S
C333 H321 0.950 . S
C333 C329 1.393 . S
C333 C332 1.391 . S
H334 C342 0.950 . S
H335 C347 0.950 . S
H336 C344 0.950 . S
H337 C346 0.950 . S
H338 C348 0.950 . S
H339 C350 0.950 . S
H340 C352 0.950 . S
H341 C353 0.950 . S
C342 H334 0.950 . S
C342 C343 1.386 . S
C342 C344 1.391 . S
C343 C342 1.386 . S
C343 C347 1.393 . S
C344 H336 0.950 . S
C344 C342 1.391 . S
C344 C345 1.400 . S
C345 C344 1.400 . S
C345 C346 1.398 . S
C345 C351 1.491 . S
C346 H337 0.950 . S
C346 C345 1.398 . S
C346 C347 1.391 . S
C347 H335 0.950 . S
C347 C343 1.393 . S
C347 C346 1.391 . S
C348 H338 0.950 . S
C348 C349 1.386 . S
C348 C350 1.391 . S
C349 C348 1.386 . S
C349 C353 1.393 . S
C350 H339 0.950 . S
C350 C348 1.391 . S
C350 C351 1.400 . S
C351 C345 1.491 . S
C351 C350 1.400 . S
C351 C352 1.398 . S
C352 H340 0.950 . S
C352 C351 1.398 . S
C352 C353 1.391 . S
C353 H341 0.950 . S
C353 C349 1.393 . S
C353 C352 1.391 . S
H354 C362 0.950 . S
H355 C367 0.950 . S
H356 C364 0.950 . S
H357 C366 0.950 . S
H358 C368 0.950 . S
H359 C370 0.950 . S
H360 C372 0.950 . S
H361 C373 0.950 . S
C362 H354 0.950 . S
C362 C363 1.386 . S
C362 C364 1.391 . S
C363 C362 1.386 . S
C363 C367 1.393 . S
C364 H356 0.950 . S
C364 C362 1.391 . S
C364 C365 1.400 . S
C365 C364 1.400 . S
C365 C366 1.398 . S
C365 C371 1.491 . S
C366 H357 0.950 . S
C366 C365 1.398 . S
C366 C367 1.391 . S
C367 H355 0.950 . S
C367 C363 1.393 . S
C367 C366 1.391 . S
C368 H358 0.950 . S
C368 C369 1.386 . S
C368 C370 1.391 . S
C369 C368 1.386 . S
C369 C373 1.393 . S
C370 H359 0.950 . S
C370 C368 1.391 . S
C370 C371 1.400 . S
C371 C365 1.491 . S
C371 C370 1.400 . S
C371 C372 1.398 . S
C372 H360 0.950 . S
C372 C371 1.398 . S
C372 C373 1.391 . S
C373 H361 0.950 . S
C373 C369 1.393 . S
C373 C372 1.391 . S
H374 C382 0.950 . S
H375 C387 0.950 . S
H376 C384 0.950 . S
H377 C386 0.950 . S
H378 C388 0.950 . S
H379 C390 0.950 . S
H380 C392 0.950 . S
H381 C393 0.950 . S
C382 H374 0.950 . S
C382 C383 1.386 . S
C382 C384 1.391 . S
C383 C382 1.386 . S
C383 C387 1.393 . S
C384 H376 0.950 . S
C384 C382 1.391 . S
C384 C385 1.400 . S
C385 C384 1.400 . S
C385 C386 1.398 . S
C385 C391 1.491 . S
C386 H377 0.950 . S
C386 C385 1.398 . S
C386 C387 1.391 . S
C387 H375 0.950 . S
C387 C383 1.393 . S
C387 C386 1.391 . S
C388 H378 0.950 . S
C388 C389 1.386 . S
C388 C390 1.391 . S
C389 C388 1.386 . S
C389 C393 1.393 . S
C390 H379 0.950 . S
C390 C388 1.391 . S
C390 C391 1.400 . S
C391 C385 1.491 . S
C391 C390 1.400 . S
C391 C392 1.398 . S
C392 H380 0.950 . S
C392 C391 1.398 . S
C392 C393 1.391 . S
C393 H381 0.950 . S
C393 C389 1.393 . S
C393 C392 1.391 . S
H394 C402 0.950 . S
H395 C407 0.950 . S
H396 C404 0.950 . S
H397 C406 0.950 . S
H398 C408 0.950 . S
H399 C410 0.950 . S
H400 C412 0.950 . S
H401 C413 0.950 . S
C402 H394 0.950 . S
C402 C403 1.386 . S
C402 C404 1.391 . S
C403 C402 1.386 . S
C403 C407 1.393 . S
C404 H396 0.950 . S
C404 C402 1.391 . S
C404 C405 1.400 . S
C405 C404 1.400 . S
C405 C406 1.398 . S
C405 C411 1.491 . S
C406 H397 0.950 . S
C406 C405 1.398 . S
C406 C407 1.391 . S
C407 H395 0.950 . S
C407 C403 1.393 . S
C407 C406 1.391 . S
C408 H398 0.950 . S
C408 C409 1.386 . S
C408 C410 1.391 . S
C409 C408 1.386 . S
C409 C413 1.393 . S
C410 H399 0.950 . S
C410 C408 1.391 . S
C410 C411 1.400 . S
C411 C405 1.491 . S
C411 C410 1.400 . S
C411 C412 1.398 . S
C412 H400 0.950 . S
C412 C411 1.398 . S
C412 C413 1.391 . S
C413 H401 0.950 . S
C413 C409 1.393 . S
C413 C412 1.391 . S
H414 C422 0.950 1_655 S
H415 C427 0.950 . S
H416 C424 0.950 1_655 S
H417 C426 0.950 . S
H418 C428 0.950 . S
H419 C430 0.950 . S
H420 C432 0.950 1_655 S
H421 C433 0.950 1_655 S
C422 H414 0.950 1_455 S
C422 C423 1.386 . S
C422 C424 1.391 . S
C423 C422 1.386 . S
C423 C427 1.393 . S
C424 H416 0.950 1_455 S
C424 C422 1.391 . S
C424 C425 1.400 . S
C425 C424 1.400 . S
C425 C426 1.398 . S
C425 C431 1.491 1_554 S
C426 H417 0.950 . S
C426 C425 1.398 . S
C426 C427 1.391 . S
C427 H415 0.950 . S
C427 C423 1.393 . S
C427 C426 1.391 . S
C428 H418 0.950 . S
C428 C429 1.386 . S
C428 C430 1.391 . S
C429 C428 1.386 . S
C429 C433 1.393 . S
C430 H419 0.950 . S
C430 C428 1.391 . S
C430 C431 1.400 . S
C431 C425 1.491 1_556 S
C431 C430 1.400 . S
C431 C432 1.398 . S
C432 H420 0.950 1_455 S
C432 C431 1.398 . S
C432 C433 1.391 . S
C433 H421 0.950 1_455 S
C433 C429 1.393 . S
C433 C432 1.391 . S
H434 C442 0.950 . S
H435 C447 0.950 1_565 S
H436 C444 0.950 . S
H437 C446 0.950 1_565 S
H438 C448 0.950 1_565 S
H439 C450 0.950 1_565 S
H440 C452 0.950 . S
H441 C453 0.950 . S
C442 H434 0.950 . S
C442 C443 1.386 . S
C442 C444 1.391 . S
C443 C442 1.386 . S
C443 C447 1.393 . S
C444 H436 0.950 . S
C444 C442 1.391 . S
C444 C445 1.400 . S
C445 C444 1.400 . S
C445 C446 1.398 . S
C445 C451 1.491 . S
C446 H437 0.950 1_545 S
C446 C445 1.398 . S
C446 C447 1.391 . S
C447 H435 0.950 1_545 S
C447 C443 1.393 . S
C447 C446 1.391 . S
C448 H438 0.950 1_545 S
C448 C449 1.386 . S
C448 C450 1.391 . S
C449 C448 1.386 . S
C449 C453 1.393 . S
C450 H439 0.950 1_545 S
C450 C448 1.391 . S
C450 C451 1.400 . S
C451 C445 1.491 . S
C451 C450 1.400 . S
C451 C452 1.398 . S
C452 H440 0.950 . S
C452 C451 1.398 . S
C452 C453 1.391 . S
C453 H441 0.950 . S
C453 C449 1.393 . S
C453 C452 1.391 . S
H454 C462 0.950 . S
H455 C467 0.950 . S
H456 C464 0.950 . S
H457 C466 0.950 . S
H458 C468 0.950 . S
H459 C470 0.950 . S
H460 C472 0.950 . S
H461 C473 0.950 . S
C462 H454 0.950 . S
C462 C463 1.386 . S
C462 C464 1.391 . S
C463 C462 1.386 . S
C463 C467 1.393 . S
C464 H456 0.950 . S
C464 C462 1.391 . S
C464 C465 1.400 . S
C465 C464 1.400 . S
C465 C466 1.398 . S
C465 C471 1.491 . S
C466 H457 0.950 . S
C466 C465 1.398 . S
C466 C467 1.391 . S
C467 H455 0.950 . S
C467 C463 1.393 . S
C467 C466 1.391 . S
C468 H458 0.950 . S
C468 C469 1.386 . S
C468 C470 1.391 . S
C469 C468 1.386 . S
C469 C473 1.393 . S
C470 H459 0.950 . S
C470 C468 1.391 . S
C470 C471 1.400 . S
C471 C465 1.491 . S
C471 C470 1.400 . S
C471 C472 1.398 . S
C472 H460 0.950 . S
C472 C471 1.398 . S
C472 C473 1.391 . S
C473 H461 0.950 . S
C473 C469 1.393 . S
C473 C472 1.391 . S
H474 C482 0.950 . S
H475 C487 0.950 . S
H476 C484 0.950 . S
H477 C486 0.950 . S
H478 C488 0.950 . S
H479 C490 0.950 . S
H480 C492 0.950 . S
H481 C493 0.950 . S
C482 H474 0.950 . S
C482 C483 1.386 . S
C482 C484 1.391 . S
C483 C482 1.386 . S
C483 C487 1.393 . S
C484 H476 0.950 . S
C484 C482 1.391 . S
C484 C485 1.400 . S
C485 C484 1.400 . S
C485 C486 1.398 . S
C485 C491 1.491 . S
C486 H477 0.950 . S
C486 C485 1.398 . S
C486 C487 1.391 . S
C487 H475 0.950 . S
C487 C483 1.393 . S
C487 C486 1.391 . S
C488 H478 0.950 . S
C488 C489 1.386 . S
C488 C490 1.391 . S
C489 C488 1.386 . S
C489 C493 1.393 . S
C490 H479 0.950 . S
C490 C488 1.391 . S
C490 C491 1.400 . S
C491 C485 1.491 . S
C491 C490 1.400 . S
C491 C492 1.398 . S
C492 H480 0.950 . S
C492 C491 1.398 . S
C492 C493 1.391 . S
C493 H481 0.950 . S
C493 C489 1.393 . S
C493 C492 1.391 . S
H494 C502 0.950 . S
H495 C507 0.950 . S
H496 C504 0.950 . S
H497 C506 0.950 . S
H498 C508 0.950 . S
H499 C510 0.950 . S
H500 C512 0.950 . S
H501 C513 0.950 . S
C502 H494 0.950 . S
C502 C503 1.386 . S
C502 C504 1.391 . S
C503 C502 1.386 . S
C503 C507 1.393 . S
C504 H496 0.950 . S
C504 C502 1.391 . S
C504 C505 1.400 . S
C505 C504 1.400 . S
C505 C506 1.398 . S
C505 C511 1.491 1_556 S
C506 H497 0.950 . S
C506 C505 1.398 . S
C506 C507 1.391 . S
C507 H495 0.950 . S
C507 C503 1.393 . S
C507 C506 1.391 . S
C508 H498 0.950 . S
C508 C509 1.386 . S
C508 C510 1.391 . S
C509 C508 1.386 . S
C509 C513 1.393 . S
C510 H499 0.950 . S
C510 C508 1.391 . S
C510 C511 1.400 . S
C511 C505 1.491 1_554 S
C511 C510 1.400 . S
C511 C512 1.398 . S
C512 H500 0.950 . S
C512 C511 1.398 . S
C512 C513 1.391 . S
C513 H501 0.950 . S
C513 C509 1.393 . S
C513 C512 1.391 . S
H514 C522 0.950 . S
H515 C527 0.950 1_655 S
H516 C524 0.950 . S
H517 C526 0.950 1_655 S
H518 C528 0.950 . S
H519 C530 0.936 1_655 S
H520 C532 0.950 . S
H521 C533 0.950 . S
C522 H514 0.950 . S
C522 C523 1.386 . S
C522 C524 1.391 . S
C523 C522 1.386 . S
C523 C527 1.393 . S
C524 H516 0.950 . S
C524 C522 1.391 . S
C524 C525 1.400 . S
C525 C524 1.400 . S
C525 C526 1.398 . S
C525 C531 1.491 . S
C526 H517 0.950 1_455 S
C526 C525 1.398 . S
C526 C527 1.391 . S
C527 H515 0.950 1_455 S
C527 C523 1.393 . S
C527 C526 1.391 . S
C528 H518 0.950 . S
C528 C529 1.386 1_655 S
C528 C530 1.390 1_655 S
C529 C528 1.386 1_455 S
C529 C533 1.393 . S
C530 H519 0.936 1_455 S
C530 C528 1.390 1_455 S
C530 C531 1.415 . S
C531 C525 1.491 . S
C531 C530 1.415 . S
C531 C532 1.398 . S
C532 H520 0.950 . S
C532 C531 1.398 . S
C532 C533 1.391 . S
C533 H521 0.950 . S
C533 C529 1.393 . S
C533 C532 1.391 . S
C183 C2 1.196 . S
C189 C166 1.155 . S
C203 C21 1.103 . S
C209 C128 1.077 . S
C223 C42 1.178 . S
C229 C147 1.154 . S
C243 C1 0.923 . S
C249 C161 0.903 . S
C269 C123 0.999 . S
C263 C22 1.008 . S
C289 C142 0.908 . S
C283 C41 0.913 . S
C303 C38 1.980 . S
C309 C90 1.927 . S
C323 C59 1.872 . S
C329 C104 1.843 . S
C343 C18 1.789 . S
C349 C66 1.775 . S
C369 C85 1.848 . S
C363 C39 1.873 . S
C389 C109 1.914 . S
C383 C58 1.965 . S
C403 C19 2.070 . S
C409 C71 2.002 . S
C429 C100 1.591 . S
C423 C9 1.575 . S
C443 C29 1.564 . S
C449 C62 1.662 . S
C463 C49 1.583 . S
C469 C81 1.624 . S
C489 C138 1.567 . S
C483 C28 1.553 . S
C509 C157 1.525 . S
C503 C48 1.502 . S
C523 C8 1.453 . S
C529 C119 1.498 . S
