# Generated by pormake.
# Topology ptr, (4,4)-cn, num edge types: 1
# Building blocks:
#     Node 0, Type 0, BuildingBlock: KUFVIS_clean_sbu_0, # of connection points: 4
#     Node 1, Type 0, BuildingBlock: KUFVIS_clean_sbu_0, # of connection points: 4
#     Node 2, Type 0, BuildingBlock: KUFVIS_clean_sbu_0, # of connection points: 4
#     Node 3, Type 0, BuildingBlock: KUFVIS_clean_sbu_0, # of connection points: 4
#     Node 4, Type 0, BuildingBlock: KUFVIS_clean_sbu_0, # of connection points: 4
#     Node 5, Type 0, BuildingBlock: KUFVIS_clean_sbu_0, # of connection points: 4
#     Node 6, Type 0, BuildingBlock: KUFVIS_clean_sbu_0, # of connection points: 4
#     Node 7, Type 0, BuildingBlock: KUFVIS_clean_sbu_0, # of connection points: 4
#     Node 8, Type 0, BuildingBlock: KUFVIS_clean_sbu_0, # of connection points: 4
#     Node 9, Type 0, BuildingBlock: KUFVIS_clean_sbu_0, # of connection points: 4
#     Node 10, Type 0, BuildingBlock: KUFVIS_clean_sbu_0, # of connection points: 4
#     Node 11, Type 0, BuildingBlock: KUFVIS_clean_sbu_0, # of connection points: 4
#     Node 12, Type 0, BuildingBlock: KUFVIS_clean_sbu_0, # of connection points: 4
#     Node 13, Type 0, BuildingBlock: KUFVIS_clean_sbu_0, # of connection points: 4
#     Node 14, Type 0, BuildingBlock: KUFVIS_clean_sbu_0, # of connection points: 4
#     Node 15, Type 0, BuildingBlock: KUFVIS_clean_sbu_0, # of connection points: 4
#     Node 16, Type 0, BuildingBlock: KUFVIS_clean_sbu_0, # of connection points: 4
#     Node 17, Type 0, BuildingBlock: KUFVIS_clean_sbu_0, # of connection points: 4
#     Node 18, Type 1, BuildingBlock: MUDLON_clean_linker_0, # of connection points: 4
#     Node 19, Type 1, BuildingBlock: MUDLON_clean_linker_0, # of connection points: 4
#     Node 20, Type 1, BuildingBlock: MUDLON_clean_linker_0, # of connection points: 4
#     Node 21, Type 1, BuildingBlock: MUDLON_clean_linker_0, # of connection points: 4
#     Node 22, Type 1, BuildingBlock: MUDLON_clean_linker_0, # of connection points: 4
#     Node 23, Type 1, BuildingBlock: MUDLON_clean_linker_0, # of connection points: 4
#     Node 24, Type 1, BuildingBlock: MUDLON_clean_linker_0, # of connection points: 4
#     Node 25, Type 1, BuildingBlock: MUDLON_clean_linker_0, # of connection points: 4
#     Node 26, Type 1, BuildingBlock: MUDLON_clean_linker_0, # of connection points: 4
#     Node 27, Type 1, BuildingBlock: MUDLON_clean_linker_0, # of connection points: 4
#     Node 28, Type 1, BuildingBlock: MUDLON_clean_linker_0, # of connection points: 4
#     Node 29, Type 1, BuildingBlock: MUDLON_clean_linker_0, # of connection points: 4
#     Node 30, Type 1, BuildingBlock: MUDLON_clean_linker_0, # of connection points: 4
#     Node 31, Type 1, BuildingBlock: MUDLON_clean_linker_0, # of connection points: 4
#     Node 32, Type 1, BuildingBlock: MUDLON_clean_linker_0, # of connection points: 4
#     Node 33, Type 1, BuildingBlock: MUDLON_clean_linker_0, # of connection points: 4
#     Node 34, Type 1, BuildingBlock: MUDLON_clean_linker_0, # of connection points: 4
#     Node 35, Type 1, BuildingBlock: MUDLON_clean_linker_0, # of connection points: 4
#     Edge 36, Type (0, 1), BuildingBlock: ZUJKAS_clean_linker_0, # of connection points: 2
#     Edge 37, Type (0, 1), BuildingBlock: ZUJKAS_clean_linker_0, # of connection points: 2
#     Edge 38, Type (0, 1), BuildingBlock: ZUJKAS_clean_linker_0, # of connection points: 2
#     Edge 39, Type (0, 1), BuildingBlock: ZUJKAS_clean_linker_0, # of connection points: 2
#     Edge 40, Type (0, 1), BuildingBlock: ZUJKAS_clean_linker_0, # of connection points: 2
#     Edge 41, Type (0, 1), BuildingBlock: ZUJKAS_clean_linker_0, # of connection points: 2
#     Edge 42, Type (0, 1), BuildingBlock: ZUJKAS_clean_linker_0, # of connection points: 2
#     Edge 43, Type (0, 1), BuildingBlock: ZUJKAS_clean_linker_0, # of connection points: 2
#     Edge 44, Type (0, 1), BuildingBlock: ZUJKAS_clean_linker_0, # of connection points: 2
#     Edge 45, Type (0, 1), BuildingBlock: ZUJKAS_clean_linker_0, # of connection points: 2
#     Edge 46, Type (0, 1), BuildingBlock: ZUJKAS_clean_linker_0, # of connection points: 2
#     Edge 47, Type (0, 1), BuildingBlock: ZUJKAS_clean_linker_0, # of connection points: 2
#     Edge 48, Type (0, 1), BuildingBlock: ZUJKAS_clean_linker_0, # of connection points: 2
#     Edge 49, Type (0, 1), BuildingBlock: ZUJKAS_clean_linker_0, # of connection points: 2
#     Edge 50, Type (0, 1), BuildingBlock: ZUJKAS_clean_linker_0, # of connection points: 2
#     Edge 51, Type (0, 1), BuildingBlock: ZUJKAS_clean_linker_0, # of connection points: 2
#     Edge 52, Type (0, 1), BuildingBlock: ZUJKAS_clean_linker_0, # of connection points: 2
#     Edge 53, Type (0, 1), BuildingBlock: ZUJKAS_clean_linker_0, # of connection points: 2
#     Edge 54, Type (0, 1), BuildingBlock: ZUJKAS_clean_linker_0, # of connection points: 2
#     Edge 55, Type (0, 1), BuildingBlock: ZUJKAS_clean_linker_0, # of connection points: 2
#     Edge 56, Type (0, 1), BuildingBlock: ZUJKAS_clean_linker_0, # of connection points: 2
#     Edge 57, Type (0, 1), BuildingBlock: ZUJKAS_clean_linker_0, # of connection points: 2
#     Edge 58, Type (0, 1), BuildingBlock: ZUJKAS_clean_linker_0, # of connection points: 2
#     Edge 59, Type (0, 1), BuildingBlock: ZUJKAS_clean_linker_0, # of connection points: 2
#     Edge 60, Type (0, 1), BuildingBlock: ZUJKAS_clean_linker_0, # of connection points: 2
#     Edge 61, Type (0, 1), BuildingBlock: ZUJKAS_clean_linker_0, # of connection points: 2
#     Edge 62, Type (0, 1), BuildingBlock: ZUJKAS_clean_linker_0, # of connection points: 2
#     Edge 63, Type (0, 1), BuildingBlock: ZUJKAS_clean_linker_0, # of connection points: 2
#     Edge 64, Type (0, 1), BuildingBlock: ZUJKAS_clean_linker_0, # of connection points: 2
#     Edge 65, Type (0, 1), BuildingBlock: ZUJKAS_clean_linker_0, # of connection points: 2
#     Edge 66, Type (0, 1), BuildingBlock: ZUJKAS_clean_linker_0, # of connection points: 2
#     Edge 67, Type (0, 1), BuildingBlock: ZUJKAS_clean_linker_0, # of connection points: 2
#     Edge 68, Type (0, 1), BuildingBlock: ZUJKAS_clean_linker_0, # of connection points: 2
#     Edge 69, Type (0, 1), BuildingBlock: ZUJKAS_clean_linker_0, # of connection points: 2
#     Edge 70, Type (0, 1), BuildingBlock: ZUJKAS_clean_linker_0, # of connection points: 2
#     Edge 71, Type (0, 1), BuildingBlock: ZUJKAS_clean_linker_0, # of connection points: 2
#     Edge 72, Type (0, 1), BuildingBlock: ZUJKAS_clean_linker_0, # of connection points: 2
#     Edge 73, Type (0, 1), BuildingBlock: ZUJKAS_clean_linker_0, # of connection points: 2
#     Edge 74, Type (0, 1), BuildingBlock: ZUJKAS_clean_linker_0, # of connection points: 2
#     Edge 75, Type (0, 1), BuildingBlock: ZUJKAS_clean_linker_0, # of connection points: 2
#     Edge 76, Type (0, 1), BuildingBlock: ZUJKAS_clean_linker_0, # of connection points: 2
#     Edge 77, Type (0, 1), BuildingBlock: ZUJKAS_clean_linker_0, # of connection points: 2
#     Edge 78, Type (0, 1), BuildingBlock: ZUJKAS_clean_linker_0, # of connection points: 2
#     Edge 79, Type (0, 1), BuildingBlock: ZUJKAS_clean_linker_0, # of connection points: 2
#     Edge 80, Type (0, 1), BuildingBlock: ZUJKAS_clean_linker_0, # of connection points: 2
#     Edge 81, Type (0, 1), BuildingBlock: ZUJKAS_clean_linker_0, # of connection points: 2
#     Edge 82, Type (0, 1), BuildingBlock: ZUJKAS_clean_linker_0, # of connection points: 2
#     Edge 83, Type (0, 1), BuildingBlock: ZUJKAS_clean_linker_0, # of connection points: 2
#     Edge 84, Type (0, 1), BuildingBlock: ZUJKAS_clean_linker_0, # of connection points: 2
#     Edge 85, Type (0, 1), BuildingBlock: ZUJKAS_clean_linker_0, # of connection points: 2
#     Edge 86, Type (0, 1), BuildingBlock: ZUJKAS_clean_linker_0, # of connection points: 2
#     Edge 87, Type (0, 1), BuildingBlock: ZUJKAS_clean_linker_0, # of connection points: 2
#     Edge 88, Type (0, 1), BuildingBlock: ZUJKAS_clean_linker_0, # of connection points: 2
#     Edge 89, Type (0, 1), BuildingBlock: ZUJKAS_clean_linker_0, # of connection points: 2
#     Edge 90, Type (0, 1), BuildingBlock: ZUJKAS_clean_linker_0, # of connection points: 2
#     Edge 91, Type (0, 1), BuildingBlock: ZUJKAS_clean_linker_0, # of connection points: 2
#     Edge 92, Type (0, 1), BuildingBlock: ZUJKAS_clean_linker_0, # of connection points: 2
#     Edge 93, Type (0, 1), BuildingBlock: ZUJKAS_clean_linker_0, # of connection points: 2
#     Edge 94, Type (0, 1), BuildingBlock: ZUJKAS_clean_linker_0, # of connection points: 2
#     Edge 95, Type (0, 1), BuildingBlock: ZUJKAS_clean_linker_0, # of connection points: 2
#     Edge 96, Type (0, 1), BuildingBlock: ZUJKAS_clean_linker_0, # of connection points: 2
#     Edge 97, Type (0, 1), BuildingBlock: ZUJKAS_clean_linker_0, # of connection points: 2
#     Edge 98, Type (0, 1), BuildingBlock: ZUJKAS_clean_linker_0, # of connection points: 2
#     Edge 99, Type (0, 1), BuildingBlock: ZUJKAS_clean_linker_0, # of connection points: 2
#     Edge 100, Type (0, 1), BuildingBlock: ZUJKAS_clean_linker_0, # of connection points: 2
#     Edge 101, Type (0, 1), BuildingBlock: ZUJKAS_clean_linker_0, # of connection points: 2
#     Edge 102, Type (0, 1), BuildingBlock: ZUJKAS_clean_linker_0, # of connection points: 2
#     Edge 103, Type (0, 1), BuildingBlock: ZUJKAS_clean_linker_0, # of connection points: 2
#     Edge 104, Type (0, 1), BuildingBlock: ZUJKAS_clean_linker_0, # of connection points: 2
#     Edge 105, Type (0, 1), BuildingBlock: ZUJKAS_clean_linker_0, # of connection points: 2
#     Edge 106, Type (0, 1), BuildingBlock: ZUJKAS_clean_linker_0, # of connection points: 2
#     Edge 107, Type (0, 1), BuildingBlock: ZUJKAS_clean_linker_0, # of connection points: 2
# Relax obj value: 0.037
# Max RMSD: 0.123
# Mean RMSD: 0.070
data_MOF--net-ptr--node1-KUFVIS_clean_sbu_0--node2-MUDLON_clean_linker_0--edge1-ZUJKAS_clean_linker_0
_symmetry_space_group_name_H-M    P1
_symmetry_Int_Tables_number       1
_symmetry_cell_setting            triclinic
loop_
_symmetry_equiv_pos_as_xyz
'x, y, z'
_cell_length_a     127.53991
_cell_length_b     127.06401
_cell_length_c     77.788163
_cell_angle_alpha  89.698302
_cell_angle_beta   90.625096
_cell_angle_gamma 119.54676
loop_
_atom_site_label
_atom_site_type_symbol
_atom_site_fract_x
_atom_site_fract_y
_atom_site_fract_z
_atom_type_partial_charge
Mn0 Mn 0.00264 0.36145 0.00258 0.0
Mn1 Mn 0.02828 0.38702 0.99239 0.0
C2 C 0.00202 0.3747 0.98269 0.0
C3 C 0.98938 0.34085 0.99845 0.0
C4 C 0.0142 0.38436 0.02484 0.0
O5 O 0.0157 0.35824 0.01214 0.0
O6 O 0.03217 0.37526 0.00368 0.0
C7 C 0.03691 0.37648 0.96596 0.0
N8 N 0.03374 0.38484 0.97061 0.0
C9 C 0.03861 0.39407 0.94262 0.0
C10 C 0.042 0.38561 0.93755 0.0
C11 C 0.0411 0.37674 0.94926 0.0
C12 C 0.03444 0.39332 0.9594 0.0
H13 H 0.03625 0.36967 0.97492 0.0
C14 C 0.0271 0.36485 0.01093 0.0
O15 O 0.98975 0.34616 0.01285 0.0
O16 O 0.99691 0.34745 0.98666 0.0
N17 N 0.02619 0.39933 0.98123 0.0
C18 C 0.0223 0.40666 0.98801 0.0
C19 C 0.02242 0.41589 0.97785 0.0
C20 C 0.02676 0.41764 0.96096 0.0
C21 C 0.03095 0.41016 0.95438 0.0
C22 C 0.03058 0.40109 0.96509 0.0
H23 H 0.01906 0.40542 0.00104 0.0
O24 O 0.99231 0.36684 0.9904 0.0
O25 O 0.01184 0.37435 0.98641 0.0
O26 O 0.00581 0.37353 0.02204 0.0
O27 O 0.02309 0.39014 0.01472 0.0
C28 C 0.03541 0.41127 0.93758 0.0
C29 C 0.03914 0.40318 0.93166 0.0
H30 H 0.04526 0.38579 0.92469 0.0
H31 H 0.04366 0.37015 0.94542 0.0
H32 H 0.01921 0.42165 0.98304 0.0
H33 H 0.0268 0.42475 0.95315 0.0
H34 H 0.03592 0.41827 0.92904 0.0
H35 H 0.0424 0.40403 0.91864 0.0
Mn36 Mn 0.64094 0.6408 0.01644 0.0
Mn37 Mn 0.64045 0.61422 0.02267 0.0
C38 C 0.6272 0.62668 0.03522 0.0
C39 C 0.64855 0.66117 0.02316 0.0
C40 C 0.62975 0.61969 0.99107 0.0
O41 O 0.65699 0.64395 0.00661 0.0
O42 O 0.65641 0.62643 0.01351 0.0
C43 C 0.65853 0.62171 0.05081 0.0
N44 N 0.64722 0.61416 0.04467 0.0
C45 C 0.64169 0.60264 0.07092 0.0
C46 C 0.65332 0.61022 0.07748 0.0
C47 C 0.66176 0.61982 0.06739 0.0
C48 C 0.639 0.60495 0.0543 0.0
H49 H 0.66503 0.62912 0.04312 0.0
C50 C 0.66176 0.63717 0.00733 0.0
O51 O 0.64373 0.65687 0.00823 0.0
O52 O 0.64923 0.65372 0.03399 0.0
N53 N 0.62564 0.60155 0.03164 0.0
C54 C 0.61465 0.59544 0.02376 0.0
C55 C 0.60513 0.58567 0.03223 0.0
C56 C 0.60703 0.58223 0.04864 0.0
C57 C 0.61843 0.58861 0.05647 0.0
C58 C 0.62761 0.59819 0.04733 0.0
H59 H 0.61314 0.59799 0.0111 0.0
O60 O 0.62539 0.63509 0.02878 0.0
O61 O 0.6371 0.62689 0.03071 0.0
O62 O 0.63194 0.63019 0.99575 0.0
O63 O 0.63295 0.61321 -0.00012 0.0
C64 C 0.62099 0.58597 0.07309 0.0
C65 C 0.6326 0.59301 0.08034 0.0
H66 H 0.65583 0.60883 0.09028 0.0
H67 H 0.67072 0.62576 0.0724 0.0
H68 H 0.59635 0.5808 0.02612 0.0
H69 H 0.59967 0.57468 0.05512 0.0
H70 H 0.61405 0.57867 0.08051 0.0
H71 H 0.63442 0.591 0.09322 0.0
Mn72 Mn 0.35844 0.99899 0.01142 0.0
Mn73 Mn 0.38443 0.02542 0.01662 0.0
C74 C 0.37315 0.99994 0.03008 0.0
C75 C 0.33831 0.98611 0.01864 0.0
C76 C 0.37952 0.00875 0.98617 0.0
O77 O 0.35438 0.01128 0.00094 0.0
O78 O 0.37184 0.02833 0.00605 0.0
C79 C 0.37575 0.03604 0.04287 0.0
N80 N 0.38386 0.03269 0.03778 0.0
C81 C 0.39537 0.04028 0.06394 0.0
C82 C 0.38718 0.04389 0.06944 0.0
C83 C 0.3773 0.04171 0.05888 0.0
C84 C 0.39332 0.03462 0.0479 0.0
H85 H 0.36816 0.0344 0.03479 0.0
C86 C 0.36098 0.02275 0.00039 0.0
O87 O 0.34251 0.98538 0.00383 0.0
O88 O 0.34576 0.99445 0.02908 0.0
N89 N 0.39761 0.0244 0.02682 0.0
C90 C 0.40446 0.02003 0.01986 0.0
C91 C 0.41478 0.02159 0.02873 0.0
C92 C 0.41799 0.0277 0.04457 0.0
C93 C 0.41078 0.03206 0.05151 0.0
C94 C 0.40071 0.03041 0.04197 0.0
H95 H 0.40214 0.01549 0.00757 0.0
O96 O 0.36483 0.98964 0.02407 0.0
O97 O 0.37244 0.00945 0.02543 0.0
O98 O 0.36899 1.00062 0.9907 0.0
O99 O 0.38593 0.01843 0.99478 0.0
C100 C 0.41315 0.03793 0.06756 0.0
C101 C 0.40541 0.04197 0.07382 0.0
H102 H 0.38835 0.04827 0.08177 0.0
H103 H 0.37092 0.04443 0.06306 0.0
H104 H 0.42029 0.01816 0.02332 0.0
H105 H 0.42599 0.02894 0.05134 0.0
H106 H 0.42084 0.03927 0.07527 0.0
H107 H 0.40724 0.04634 0.08627 0.0
Mn108 Mn 0.00436 0.64513 0.00562 0.0
Mn109 Mn 0.03192 0.64751 0.00459 0.0
C110 C 0.00743 0.63176 0.98911 0.0
C111 C 0.99038 0.65064 0.99582 0.0
C112 C 0.01452 0.63579 0.03398 0.0
O113 O 0.01526 0.66196 0.01557 0.0
O114 O 0.03319 0.66282 0.01297 0.0
C115 C 0.04246 0.66595 0.97712 0.0
N116 N 0.03965 0.65488 0.98353 0.0
C117 C 0.0497 0.65123 0.96024 0.0
C118 C 0.05274 0.66261 0.9534 0.0
C119 C 0.04903 0.66996 0.96182 0.0
C120 C 0.04295 0.64763 0.97534 0.0
H121 H 0.03976 0.67168 0.98369 0.0
C122 C 0.02672 0.66755 0.017 0.0
O123 O 0.98978 0.64631 0.01115 0.0
O124 O 0.99925 0.65199 0.98626 0.0
N125 N 0.0324 0.63354 0.9967 0.0
C126 C 0.02839 0.62268 0.0047 0.0
C127 C 0.03131 0.61424 0.99793 0.0
C128 C 0.03853 0.61716 0.98324 0.0
C129 C 0.04255 0.6284 0.97522 0.0
C130 C 0.03925 0.63639 0.98246 0.0
H131 H 0.02311 0.6205 0.01625 0.0
O132 O 0.99668 0.62912 0.99382 0.0
O133 O 0.01612 0.64236 0.99375 0.0
O134 O 0.00604 0.63724 0.02771 0.0
O135 O 0.02464 0.63955 0.02658 0.0
C136 C 0.04975 0.63203 0.96039 0.0
C137 C 0.05317 0.64336 0.95276 0.0
H138 H 0.05792 0.66579 0.94171 0.0
H139 H 0.05133 0.67875 0.95662 0.0
H140 H 0.02817 0.60558 0.00417 0.0
H141 H 0.04092 0.61069 0.97822 0.0
H142 H 0.05261 0.62613 0.95464 0.0
H143 H 0.05853 0.64594 0.94119 0.0
Mn144 Mn 0.36323 0.36198 0.01639 0.0
Mn145 Mn 0.38939 0.36183 0.02303 0.0
C146 C 0.37729 0.3754 0.03575 0.0
C147 C 0.34293 0.35453 0.0228 0.0
C148 C 0.3846 0.37336 0.99182 0.0
O149 O 0.35985 0.34593 0.00595 0.0
O150 O 0.37715 0.34614 0.01281 0.0
C151 C 0.38117 0.34301 0.05007 0.0
N152 N 0.38894 0.35446 0.04468 0.0
C153 C 0.39997 0.3592 0.07145 0.0
C154 C 0.39213 0.34744 0.07725 0.0
C155 C 0.38267 0.33932 0.06653 0.0
C156 C 0.39803 0.36236 0.05492 0.0
H157 H 0.37388 0.33675 0.04188 0.0
C158 C 0.36647 0.34099 0.00637 0.0
O159 O 0.34735 0.35965 0.00813 0.0
O160 O 0.35023 0.35347 0.03349 0.0
N161 N 0.40211 0.37633 0.03297 0.0
C162 C 0.40858 0.38748 0.0257 0.0
C163 C 0.41831 0.3967 0.03483 0.0
C164 C 0.42136 0.39433 0.05124 0.0
C165 C 0.41463 0.38276 0.05841 0.0
C166 C 0.4051 0.3739 0.04864 0.0
H167 H 0.40634 0.38935 0.01305 0.0
O168 O 0.36904 0.37743 0.02929 0.0
O169 O 0.37693 0.36542 0.03099 0.0
O170 O 0.37409 0.37121 0.99609 0.0
O171 O 0.39084 0.36991 0.00072 0.0
C172 C 0.41688 0.37973 0.07496 0.0
C173 C 0.40953 0.36797 0.0815 0.0
H174 H 0.39324 0.34456 0.08995 0.0
H175 H 0.37655 0.33024 0.07095 0.0
H176 H 0.42347 0.40561 0.02922 0.0
H177 H 0.42889 0.40145 0.05822 0.0
H178 H 0.42414 0.38642 0.08285 0.0
H179 H 0.41125 0.36579 0.09433 0.0
Mn180 Mn 0.64384 0.0052 0.00424 0.0
Mn181 Mn 0.61813 0.97913 0.9957 0.0
C182 C 0.63012 0.0051 0.98451 0.0
C183 C 0.66424 0.0183 0.99892 0.0
C184 C 0.62183 0.99419 0.02771 0.0
O185 O 0.64732 0.99233 0.01406 0.0
O186 O 0.63028 0.97551 0.00624 0.0
C187 C 0.6274 0.96969 0.9686 0.0
N188 N 0.6193 0.97301 0.97385 0.0
C189 C 0.60888 0.96739 0.9466 0.0
C190 C 0.61706 0.96384 0.94092 0.0
C191 C 0.62639 0.96503 0.95195 0.0
C192 C 0.61034 0.97198 0.96331 0.0
H193 H 0.63458 0.9706 0.97704 0.0
C194 C 0.64082 0.98085 0.01311 0.0
O195 O 0.65946 0.01842 0.01353 0.0
O196 O 0.65724 0.01041 0.98764 0.0
N197 N 0.60548 0.98105 0.9854 0.0
C198 C 0.59863 0.98534 0.99261 0.0
C199 C 0.58896 0.9849 0.9832 0.0
C200 C 0.58635 0.97993 0.96658 0.0
C201 C 0.59348 0.97553 0.95946 0.0
C202 C 0.60293 0.9761 0.96951 0.0
H203 H 0.60053 0.98907 0.00543 0.0
O204 O 0.63805 0.01513 0.99169 0.0
O205 O 0.63058 0.99543 0.98884 0.0
O206 O 0.63242 0.0027 0.02421 0.0
O207 O 0.61594 0.98491 0.01814 0.0
C208 C 0.5917 0.97074 0.94271 0.0
C209 C 0.59942 0.96672 0.93626 0.0
H210 H 0.61633 0.96027 0.92808 0.0
H211 H 0.63277 0.96236 0.94763 0.0
H212 H 0.5835 0.98833 0.98877 0.0
H213 H 0.57886 0.97956 0.95939 0.0
H214 H 0.58451 0.97026 0.9346 0.0
H215 H 0.59806 0.96321 0.92327 0.0
Mn216 Mn 0.66931 0.69434 0.33768 0.0
Mn217 Mn 0.69649 0.71947 0.33287 0.0
C218 C 0.67129 0.70926 0.31862 0.0
C219 C 0.65552 0.67429 0.3307 0.0
C220 C 0.67999 0.71565 0.36289 0.0
O221 O 0.68087 0.68948 0.34874 0.0
O222 O 0.69846 0.7063 0.34345 0.0
C223 C 0.70636 0.70986 0.30685 0.0
N224 N 0.7036 0.71844 0.31191 0.0
C225 C 0.71195 0.72997 0.2861 0.0
C226 C 0.71496 0.7213 0.28066 0.0
C227 C 0.71211 0.71118 0.29105 0.0
C228 C 0.7062 0.72816 0.30194 0.0
H229 H 0.7042 0.70208 0.31482 0.0
C230 C 0.69236 0.69551 0.34926 0.0
O231 O 0.65513 0.67896 0.34532 0.0
O232 O 0.66408 0.6812 0.32029 0.0
N233 N 0.69633 0.73312 0.32267 0.0
C234 C 0.69237 0.74038 0.32946 0.0
C235 C 0.69454 0.75093 0.32067 0.0
C236 C 0.70083 0.75395 0.30508 0.0
C237 C 0.70477 0.74632 0.29832 0.0
C238 C 0.70251 0.73602 0.30777 0.0
H239 H 0.68768 0.73819 0.34155 0.0
O240 O 0.66081 0.70142 0.32448 0.0
O241 O 0.68038 0.70797 0.3237 0.0
O242 O 0.67144 0.70535 0.35814 0.0
O243 O 0.6898 0.72153 0.35458 0.0
C244 C 0.71077 0.74848 0.28249 0.0
C245 C 0.71429 0.74027 0.27634 0.0
H246 H 0.71939 0.72228 0.26847 0.0
H247 H 0.71436 0.70442 0.28691 0.0
H248 H 0.69142 0.75676 0.32593 0.0
H249 H 0.70252 0.76212 0.29836 0.0
H250 H 0.71258 0.75634 0.27486 0.0
H251 H 0.71875 0.74193 0.26405 0.0
Mn252 Mn 0.30623 0.97395 0.35013 0.0
Mn253 Mn 0.3065 0.94763 0.35518 0.0
C254 C 0.29275 0.95937 0.36871 0.0
C255 C 0.31334 0.99421 0.35721 0.0
C256 C 0.29461 0.95266 0.32478 0.0
O257 O 0.32239 0.97785 0.33999 0.0
O258 O 0.32168 0.96002 0.34429 0.0
C259 C 0.32623 0.95632 0.38105 0.0
N260 N 0.31473 0.94826 0.37615 0.0
C261 C 0.3114 0.93689 0.4023 0.0
C262 C 0.32323 0.94502 0.40758 0.0
C263 C 0.33066 0.9548 0.39693 0.0
C264 C 0.30748 0.93888 0.38636 0.0
H265 H 0.33198 0.96384 0.37289 0.0
C266 C 0.327 0.97098 0.33896 0.0
O267 O 0.30837 0.98986 0.34237 0.0
O268 O 0.31437 0.98684 0.36781 0.0
N269 N 0.29262 0.93463 0.36562 0.0
C270 C 0.2813 0.92789 0.35895 0.0
C271 C 0.27274 0.91774 0.36801 0.0
C272 C 0.27594 0.91457 0.38376 0.0
C273 C 0.28763 0.92164 0.39037 0.0
C274 C 0.29582 0.93155 0.38065 0.0
H275 H 0.27883 0.93022 0.34678 0.0
O276 O 0.29071 0.9677 0.36253 0.0
O277 O 0.30283 0.95992 0.36417 0.0
O278 O 0.29733 0.96337 0.32923 0.0
O279 O 0.29761 0.94601 0.33352 0.0
C280 C 0.29143 0.91931 0.40632 0.0
C281 C 0.30329 0.92697 0.41232 0.0
H282 H 0.32668 0.94389 0.41983 0.0
H283 H 0.33979 0.96115 0.40094 0.0
H284 H 0.26372 0.91234 0.36285 0.0
H285 H 0.26931 0.90673 0.39073 0.0
H286 H 0.28527 0.91174 0.41416 0.0
H287 H 0.30607 0.92519 0.4247 0.0
Mn288 Mn 0.0224 0.3275 0.34539 0.0
Mn289 Mn 0.04836 0.35397 0.35052 0.0
C290 C 0.03664 0.32886 0.36522 0.0
C291 C 0.0021 0.31486 0.35185 0.0
C292 C 0.04406 0.3366 0.32126 0.0
O293 O 0.01865 0.3396 0.33346 0.0
O294 O 0.03614 0.35669 0.33832 0.0
C295 C 0.03913 0.36536 0.37465 0.0
N296 N 0.04725 0.36173 0.37084 0.0
C297 C 0.05804 0.36989 0.39738 0.0
C298 C 0.04983 0.37378 0.40156 0.0
C299 C 0.04029 0.37145 0.39018 0.0
C300 C 0.05634 0.36376 0.3818 0.0
H301 H 0.03182 0.36364 0.36589 0.0
C302 C 0.02539 0.35102 0.33224 0.0
O303 O 0.00666 0.31373 0.33759 0.0
O304 O 0.0093 0.32344 0.36219 0.0
N305 N 0.0612 0.3531 0.36218 0.0
C306 C 0.06824 0.34859 0.35635 0.0
C307 C 0.07809 0.35001 0.36636 0.0
C308 C 0.08078 0.35631 0.38203 0.0
C309 C 0.07358 0.36112 0.38756 0.0
C310 C 0.06383 0.35934 0.37711 0.0
H311 H 0.06632 0.3439 0.3442 0.0
O312 O 0.02843 0.31842 0.35948 0.0
O313 O 0.03608 0.33826 0.35964 0.0
O314 O 0.03341 0.32862 0.32554 0.0
O315 O 0.05036 0.34644 0.32959 0.0
C316 C 0.07567 0.36759 0.40305 0.0
C317 C 0.06784 0.37186 0.40804 0.0
H318 H 0.05074 0.37854 0.41348 0.0
H319 H 0.03389 0.37439 0.39333 0.0
H320 H 0.08363 0.34633 0.36196 0.0
H321 H 0.08839 0.35739 0.3897 0.0
H322 H 0.08324 0.36928 0.41129 0.0
H323 H 0.06945 0.37668 0.4201 0.0
Mn324 Mn 0.66881 0.9749 0.33917 0.0
Mn325 Mn 0.69688 0.97854 0.33887 0.0
C326 C 0.67304 0.96282 0.32152 0.0
C327 C 0.65475 0.98036 0.3297 0.0
C328 C 0.67879 0.96509 0.36701 0.0
O329 O 0.67888 0.99122 0.35102 0.0
O330 O 0.69733 0.99332 0.34794 0.0
C331 C 0.70754 0.99785 0.3126 0.0
N332 N 0.70501 0.98673 0.31842 0.0
C333 C 0.71608 0.98434 0.29539 0.0
C334 C 0.71889 0.99581 0.28918 0.0
C335 C 0.71452 0.00256 0.29775 0.0
C336 C 0.70892 0.98005 0.31005 0.0
H337 H 0.7043 0.00311 0.31927 0.0
C338 C 0.69032 0.99732 0.35251 0.0
O339 O 0.65368 0.97507 0.3444 0.0
O340 O 0.66409 0.98262 0.32055 0.0
N341 N 0.6981 0.96513 0.3303 0.0
C342 C 0.69414 0.95402 0.33753 0.0
C343 C 0.69756 0.94606 0.33037 0.0
C344 C 0.70524 0.9497 0.31612 0.0
C345 C 0.70922 0.96119 0.30892 0.0
C346 C 0.70539 0.96866 0.31647 0.0
H347 H 0.68849 0.95129 0.34875 0.0
O348 O 0.66203 0.95959 0.32563 0.0
O349 O 0.68129 0.97327 0.32734 0.0
O350 O 0.67013 0.96607 0.36041 0.0
O351 O 0.68924 0.96977 0.36031 0.0
C352 C 0.71689 0.96555 0.29461 0.0
C353 C 0.72017 0.97703 0.28768 0.0
H354 H 0.72437 0.99952 0.27783 0.0
H355 H 0.71661 0.0114 0.29301 0.0
H356 H 0.69444 0.93721 0.33598 0.0
H357 H 0.70799 0.94359 0.31078 0.0
H358 H 0.7202 0.96007 0.28868 0.0
H359 H 0.72586 0.98017 0.27645 0.0
Mn360 Mn 0.02913 0.69654 0.34775 0.0
Mn361 Mn 0.05558 0.69685 0.35366 0.0
C362 C 0.04325 0.71001 0.36703 0.0
C363 C 0.00882 0.68891 0.3543 0.0
C364 C 0.05022 0.70816 0.32273 0.0
O365 O 0.02589 0.68053 0.33725 0.0
O366 O 0.0434 0.68106 0.3437 0.0
C367 C 0.04804 0.67814 0.38078 0.0
N368 N 0.05557 0.68962 0.37526 0.0
C369 C 0.06699 0.69462 0.4017 0.0
C370 C 0.0594 0.68284 0.40764 0.0
C371 C 0.04986 0.67457 0.39715 0.0
C372 C 0.06473 0.69766 0.38528 0.0
H373 H 0.0407 0.67177 0.37276 0.0
C374 C 0.03265 0.67574 0.33752 0.0
O375 O 0.01318 0.69402 0.33961 0.0
O376 O 0.01619 0.68795 0.36498 0.0
N377 N 0.06824 0.7115 0.36334 0.0
C378 C 0.07442 0.72266 0.35599 0.0
C379 C 0.08417 0.73202 0.3649 0.0
C380 C 0.08753 0.72978 0.38118 0.0
C381 C 0.08108 0.71822 0.38844 0.0
C382 C 0.07153 0.70921 0.37888 0.0
H383 H 0.07194 0.72442 0.34344 0.0
O384 O 0.03489 0.71196 0.36077 0.0
O385 O 0.04299 0.70012 0.36206 0.0
O386 O 0.03974 0.70589 0.32738 0.0
O387 O 0.05666 0.7048 0.33132 0.0
C388 C 0.08366 0.71531 0.40488 0.0
C389 C 0.07658 0.70354 0.41154 0.0
H390 H 0.06075 0.68006 0.42028 0.0
H391 H 0.04394 0.66548 0.40168 0.0
H392 H 0.0891 0.74093 0.35922 0.0
H393 H 0.09507 0.73702 0.38799 0.0
H394 H 0.09095 0.72211 0.41261 0.0
H395 H 0.07854 0.70145 0.42429 0.0
Mn396 Mn 0.30912 0.33734 0.33901 0.0
Mn397 Mn 0.28345 0.31064 0.33411 0.0
C398 C 0.29427 0.33584 0.32006 0.0
C399 C 0.32922 0.3505 0.33201 0.0
C400 C 0.28814 0.32748 0.3643 0.0
O401 O 0.31341 0.32534 0.3501 0.0
O402 O 0.29628 0.30803 0.34446 0.0
C403 C 0.29209 0.30003 0.30778 0.0
N404 N 0.28394 0.3033 0.313 0.0
C405 C 0.27175 0.29469 0.28765 0.0
C406 C 0.27997 0.29116 0.28202 0.0
C407 C 0.29023 0.29392 0.29207 0.0
C408 C 0.2742 0.30095 0.30324 0.0
H409 H 0.29991 0.30203 0.31556 0.0
C410 C 0.30706 0.31383 0.35039 0.0
O411 O 0.32481 0.35123 0.34663 0.0
O412 O 0.32201 0.34198 0.3216 0.0
N413 N 0.2701 0.31142 0.32415 0.0
C414 C 0.26324 0.31576 0.3312 0.0
C415 C 0.25265 0.31379 0.32274 0.0
C416 C 0.24907 0.30714 0.30736 0.0
C417 C 0.25625 0.30274 0.30036 0.0
C418 C 0.26677 0.30509 0.30928 0.0
H419 H 0.26579 0.32061 0.34324 0.0
O420 O 0.30247 0.34628 0.32584 0.0
O421 O 0.29522 0.32654 0.32503 0.0
O422 O 0.29849 0.33579 0.35951 0.0
O423 O 0.28195 0.31762 0.35597 0.0
C424 C 0.25335 0.29604 0.28496 0.0
C425 C 0.26119 0.29218 0.27847 0.0
H426 H 0.2785 0.28634 0.27 0.0
H427 H 0.29663 0.29126 0.2878 0.0
H428 H 0.24716 0.31722 0.3282 0.0
H429 H 0.24079 0.30549 0.30102 0.0
H430 H 0.24517 0.2939 0.27791 0.0
H431 H 0.25896 0.28722 0.26647 0.0
Mn432 Mn 0.33377 0.02813 0.67028 0.0
Mn433 Mn 0.35913 0.05453 0.66213 0.0
C434 C 0.33324 0.04155 0.65057 0.0
C435 C 0.32124 0.00752 0.66501 0.0
C436 C 0.34399 0.05021 0.69399 0.0
O437 O 0.34702 0.02537 0.68037 0.0
O438 O 0.36337 0.04273 0.67244 0.0
C439 C 0.36906 0.04585 0.63489 0.0
N440 N 0.36538 0.05368 0.64028 0.0
C441 C 0.37068 0.06425 0.61324 0.0
C442 C 0.37462 0.05636 0.60744 0.0
C443 C 0.37376 0.0471 0.61829 0.0
C444 C 0.36607 0.06256 0.6299 0.0
H445 H 0.3684 0.03872 0.64319 0.0
C446 C 0.35841 0.0322 0.67932 0.0
O447 O 0.32101 0.01237 0.67955 0.0
O448 O 0.32897 0.01458 0.65374 0.0
N449 N 0.35661 0.06687 0.65199 0.0
C450 C 0.35193 0.07337 0.65925 0.0
C451 C 0.35203 0.08295 0.65004 0.0
C452 C 0.35703 0.08581 0.63353 0.0
C453 C 0.36179 0.079 0.62632 0.0
C454 C 0.36157 0.06965 0.63619 0.0
H455 H 0.34815 0.07128 0.67198 0.0
O456 O 0.32339 0.03332 0.65759 0.0
O457 O 0.34311 0.04155 0.655 0.0
O458 O 0.33582 0.03948 0.69021 0.0
O459 O 0.35321 0.05645 0.68464 0.0
C460 C 0.36661 0.08103 0.60964 0.0
C461 C 0.371 0.07362 0.60307 0.0
H462 H 0.37823 0.05728 0.59464 0.0
H463 H 0.37673 0.04094 0.61388 0.0
H464 H 0.3483 0.08815 0.65566 0.0
H465 H 0.35715 0.09325 0.6265 0.0
H466 H 0.36682 0.08814 0.60166 0.0
H467 H 0.37453 0.07515 0.59015 0.0
Mn468 Mn 0.97457 0.30847 0.68163 0.0
Mn469 Mn 0.97419 0.28198 0.68844 0.0
C470 C 0.96124 0.29469 0.70108 0.0
C471 C 0.9821 0.32895 0.68754 0.0
C472 C 0.9623 0.28651 0.65754 0.0
O473 O 0.99045 0.31161 0.67136 0.0
O474 O 0.98947 0.29376 0.677 0.0
C475 C 0.99401 0.29085 0.71416 0.0
N476 N 0.98237 0.28301 0.70963 0.0
C477 C 0.97859 0.2729 0.73697 0.0
C478 C 0.99056 0.28082 0.7419 0.0
C479 C 0.99829 0.28985 0.73046 0.0
C480 C 0.97483 0.27433 0.72057 0.0
H481 H 0.99997 0.29782 0.70542 0.0
C482 C 0.99487 0.30453 0.67093 0.0
O483 O 0.97694 0.32426 0.67293 0.0
O484 O 0.98317 0.32181 0.69853 0.0
N485 N 0.96011 0.26963 0.69947 0.0
C486 C 0.94873 0.26295 0.69295 0.0
C487 C 0.93987 0.25356 0.70282 0.0
C488 C 0.94281 0.25105 0.71921 0.0
C489 C 0.9546 0.25797 0.7256 0.0
C490 C 0.96309 0.26714 0.7151 0.0
H491 H 0.94642 0.26481 0.68034 0.0
O492 O 0.95927 0.30294 0.69441 0.0
O493 O 0.97111 0.29485 0.69645 0.0
O494 O 0.96523 0.29737 0.66141 0.0
O495 O 0.96528 0.27999 0.66667 0.0
C496 C 0.95822 0.25624 0.74206 0.0
C497 C 0.9702 0.26373 0.74777 0.0
H498 H 0.99389 0.28009 0.75447 0.0
H499 H 0.00753 0.29603 0.73419 0.0
H500 H 0.93078 0.24826 0.69781 0.0
H501 H 0.93596 0.24379 0.72679 0.0
H502 H 0.95184 0.24927 0.7505 0.0
H503 H 0.97284 0.2624 0.76052 0.0
Mn504 Mn 0.69249 0.66293 0.68015 0.0
Mn505 Mn 0.71861 0.68929 0.68512 0.0
C506 C 0.70698 0.66398 0.6994 0.0
C507 C 0.67227 0.65029 0.68706 0.0
C508 C 0.71367 0.67217 0.65521 0.0
O509 O 0.68867 0.6752 0.6689 0.0
O510 O 0.70613 0.6922 0.67423 0.0
C511 C 0.71013 0.70045 0.71081 0.0
N512 N 0.71816 0.69693 0.70596 0.0
C513 C 0.72986 0.70503 0.73186 0.0
C514 C 0.72176 0.70882 0.7371 0.0
C515 C 0.71182 0.70647 0.72656 0.0
C516 C 0.72768 0.69904 0.71606 0.0
H517 H 0.7025 0.69869 0.70272 0.0
C518 C 0.69533 0.68666 0.66832 0.0
O519 O 0.67662 0.64929 0.67253 0.0
O520 O 0.67963 0.65876 0.69742 0.0
N521 N 0.73171 0.68826 0.69557 0.0
C522 C 0.73843 0.68363 0.68892 0.0
C523 C 0.74875 0.68527 0.69783 0.0
C524 C 0.75211 0.6917 0.71341 0.0
C525 C 0.74505 0.69636 0.72001 0.0
C526 C 0.73497 0.69461 0.71042 0.0
H527 H 0.73599 0.67882 0.67683 0.0
O528 O 0.69863 0.65364 0.69355 0.0
O529 O 0.70644 0.67348 0.69424 0.0
O530 O 0.70314 0.66411 0.65981 0.0
O531 O 0.72005 0.68198 0.66356 0.0
C532 C 0.74757 0.70257 0.73579 0.0
C533 C 0.73994 0.70684 0.74176 0.0
H534 H 0.72304 0.71346 0.74923 0.0
H535 H 0.70551 0.70932 0.73054 0.0
H536 H 0.75415 0.68163 0.69268 0.0
H537 H 0.76008 0.69295 0.72026 0.0
H538 H 0.75527 0.704 0.74353 0.0
H539 H 0.74187 0.71147 0.75402 0.0
Mn540 Mn 0.33428 0.30947 0.6704 0.0
Mn541 Mn 0.36075 0.30987 0.66493 0.0
C542 C 0.33535 0.29598 0.65161 0.0
C543 C 0.32094 0.31648 0.66346 0.0
C544 C 0.34469 0.29837 0.69574 0.0
O545 O 0.3465 0.32575 0.68056 0.0
O546 O 0.36362 0.32539 0.6752 0.0
C547 C 0.37088 0.32894 0.63823 0.0
N548 N 0.36762 0.31751 0.64355 0.0
C549 C 0.37459 0.31327 0.61724 0.0
C550 C 0.37809 0.32503 0.61152 0.0
C551 C 0.37619 0.33287 0.62204 0.0
C552 C 0.36933 0.30986 0.63348 0.0
H553 H 0.36944 0.335 0.64628 0.0
C554 C 0.35796 0.33063 0.68087 0.0
O555 O 0.32063 0.3116 0.67829 0.0
O556 O 0.32916 0.31751 0.65282 0.0
N557 N 0.35961 0.29559 0.65498 0.0
C558 C 0.35526 0.28439 0.66207 0.0
C559 C 0.35641 0.27545 0.65316 0.0
C560 C 0.36212 0.27813 0.63713 0.0
C561 C 0.36653 0.28971 0.63007 0.0
C562 C 0.36524 0.2983 0.63964 0.0
H563 H 0.35091 0.28229 0.67442 0.0
O564 O 0.32507 0.29381 0.65782 0.0
O565 O 0.34472 0.3061 0.65632 0.0
O566 O 0.33642 0.30071 0.69118 0.0
O567 O 0.35422 0.30154 0.687 0.0
C568 C 0.372 0.29301 0.61383 0.0
C569 C 0.37598 0.30477 0.60738 0.0
H570 H 0.38218 0.32809 0.59904 0.0
H571 H 0.37883 0.34194 0.61769 0.0
H572 H 0.35294 0.26651 0.65865 0.0
H573 H 0.36305 0.27123 0.63032 0.0
H574 H 0.37305 0.28653 0.6061 0.0
H575 H 0.38003 0.30716 0.59478 0.0
Mn576 Mn 0.69578 0.02869 0.68482 0.0
Mn577 Mn 0.72102 0.02693 0.69241 0.0
C578 C 0.71037 0.04213 0.70365 0.0
C579 C 0.67571 0.02267 0.69105 0.0
C580 C 0.71717 0.03826 0.66023 0.0
O581 O 0.69131 0.012 0.67554 0.0
O582 O 0.70817 0.0114 0.68262 0.0
C583 C 0.71161 0.00868 0.72024 0.0
N584 N 0.71995 0.01981 0.71448 0.0
C585 C 0.73081 0.02448 0.74139 0.0
C586 C 0.72237 0.01303 0.74759 0.0
C587 C 0.71271 0.00511 0.73698 0.0
C588 C 0.72922 0.02754 0.72462 0.0
H589 H 0.70418 0.00257 0.71212 0.0
C590 C 0.69747 0.00657 0.67631 0.0
O591 O 0.68028 0.02714 0.67615 0.0
O592 O 0.68271 0.02144 0.70211 0.0
N593 N 0.73429 0.04118 0.70198 0.0
C594 C 0.74145 0.05203 0.69423 0.0
C595 C 0.75159 0.06095 0.70306 0.0
C596 C 0.7543 0.0586 0.7197 0.0
C597 C 0.7468 0.0474 0.72743 0.0
C598 C 0.73692 0.03879 0.71791 0.0
H599 H 0.73946 0.05387 0.68142 0.0
O600 O 0.70259 0.04466 0.69673 0.0
O601 O 0.70927 0.0317 0.69963 0.0
O602 O 0.70681 0.03671 0.66417 0.0
O603 O 0.72308 0.0347 0.66969 0.0
C604 C 0.74868 0.04445 0.74424 0.0
C605 C 0.74065 0.03302 0.75125 0.0
H606 H 0.72318 0.01025 0.76049 0.0
H607 H 0.70614 0.99628 0.74169 0.0
H608 H 0.75732 0.06959 0.69703 0.0
H609 H 0.7622 0.06546 0.72639 0.0
H610 H 0.7562 0.05096 0.75195 0.0
H611 H 0.74211 0.03091 0.76427 0.0
Mn612 Mn 0.97438 0.67269 0.6765 0.0
Mn613 Mn 0.94875 0.64566 0.6779 0.0
C614 C 0.9583 0.66894 0.65846 0.0
C615 C 0.99388 0.68549 0.66665 0.0
C616 C 0.95504 0.66541 0.70414 0.0
O617 O 0.97977 0.66201 0.68924 0.0
O618 O 0.96225 0.64444 0.68865 0.0
C619 C 0.95605 0.63223 0.65437 0.0
N620 N 0.94814 0.63603 0.65876 0.0
C621 C 0.93444 0.62431 0.63608 0.0
C622 C 0.9424 0.62024 0.63131 0.0
C623 C 0.9533 0.62429 0.64042 0.0
C624 C 0.93778 0.63241 0.64986 0.0
H625 H 0.96434 0.63519 0.66151 0.0
C626 C 0.97342 0.65075 0.69262 0.0
O627 O 0.99016 0.68736 0.68117 0.0
O628 O 0.98632 0.67601 0.65794 0.0
N629 N 0.93478 0.6452 0.66793 0.0
C630 C 0.92833 0.65036 0.67377 0.0
C631 C 0.91723 0.64737 0.66595 0.0
C632 C 0.91276 0.63889 0.6525 0.0
C633 C 0.91955 0.63367 0.64674 0.0
C634 C 0.93062 0.63714 0.65486 0.0
H635 H 0.93158 0.65664 0.68441 0.0
O636 O 0.96653 0.67994 0.66209 0.0
O637 O 0.95981 0.66038 0.6652 0.0
O638 O 0.96503 0.67309 0.69751 0.0
O639 O 0.94833 0.65485 0.69799 0.0
C640 C 0.91575 0.62511 0.63333 0.0
C641 C 0.92327 0.62058 0.62782 0.0
H642 H 0.94025 0.614 0.62069 0.0
H643 H 0.9595 0.6212 0.63681 0.0
H644 H 0.91205 0.65144 0.67044 0.0
H645 H 0.90412 0.63648 0.64666 0.0
H646 H 0.90712 0.62206 0.62701 0.0
H647 H 0.92035 0.6142 0.61726 0.0
H648 H 0.23163 0.36669 0.14317 0.0
N649 N 0.21295 0.3478 0.1286 0.0
H650 H 0.24168 0.36718 0.17046 0.0
H651 H 0.20538 0.32931 0.15211 0.0
H652 H 0.21534 0.32969 0.17911 0.0
H653 H 0.21323 0.3265 0.12463 0.0
H654 H 0.22603 0.32306 0.10504 0.0
H655 H 0.22566 0.36189 0.10282 0.0
H656 H 0.23877 0.35867 0.0834 0.0
H657 H 0.20305 0.36185 0.12762 0.0
H658 H 0.19407 0.32444 0.12642 0.0
H659 H 0.18164 0.35575 0.12723 0.0
H660 H 0.17273 0.31819 0.12717 0.0
H661 H 0.1254 0.34103 0.1474 0.0
H662 H 0.11556 0.34185 0.17345 0.0
H663 H 0.1028 0.30382 0.18213 0.0
H664 H 0.11325 0.30324 0.1562 0.0
H665 H 0.10465 0.30512 0.11709 0.0
H666 H 0.09283 0.30951 0.09623 0.0
H667 H 0.11994 0.34737 0.09753 0.0
H668 H 0.13187 0.34277 0.11783 0.0
H669 H 0.14384 0.34149 0.14732 0.0
H670 H 0.16497 0.3476 0.14506 0.0
H671 H 0.15592 0.31669 0.11262 0.0
N672 N 0.12465 0.32088 0.13337 0.0
H673 H 0.13453 0.31019 0.11584 0.0
C674 C 0.21771 0.34805 0.1456 0.0
C675 C 0.22793 0.35866 0.15115 0.0
C676 C 0.2337 0.35889 0.16664 0.0
C677 C 0.22932 0.34847 0.17693 0.0
C678 C 0.21886 0.33792 0.1716 0.0
C679 C 0.21314 0.33769 0.15606 0.0
C680 C 0.21846 0.34449 0.11515 0.0
C681 C 0.21845 0.33342 0.11532 0.0
C682 C 0.22591 0.33151 0.10422 0.0
C683 C 0.23355 0.34064 0.09277 0.0
C684 C 0.23294 0.35139 0.0919 0.0
C685 C 0.22547 0.35327 0.103 0.0
C686 C 0.20021 0.34368 0.12722 0.0
C687 C 0.19643 0.35231 0.12731 0.0
C688 C 0.18417 0.34878 0.12728 0.0
C689 C 0.17535 0.33644 0.12743 0.0
C690 C 0.17919 0.32777 0.1269 0.0
C691 C 0.19148 0.33134 0.12665 0.0
C692 C 0.1202 0.32205 0.14987 0.0
C693 C 0.12076 0.33291 0.15505 0.0
C694 C 0.11494 0.33333 0.16991 0.0
C695 C 0.10822 0.32286 0.17982 0.0
C696 C 0.10798 0.31209 0.17493 0.0
C697 C 0.11393 0.31172 0.16011 0.0
C698 C 0.11907 0.32358 0.11907 0.0
C699 C 0.10815 0.31431 0.11252 0.0
C700 C 0.10136 0.31687 0.10076 0.0
C701 C 0.10532 0.32883 0.0954 0.0
C702 C 0.11662 0.33804 0.10128 0.0
C703 C 0.12345 0.33544 0.11297 0.0
C704 C 0.13743 0.32517 0.13194 0.0
C705 C 0.14626 0.33591 0.13981 0.0
C706 C 0.15849 0.33952 0.13832 0.0
C707 C 0.16227 0.33267 0.12865 0.0
C708 C 0.15342 0.3221 0.12046 0.0
C709 C 0.14117 0.3184 0.12217 0.0
H710 H 0.70118 0.79865 0.14299 0.0
N711 N 0.68544 0.8038 0.128 0.0
H712 H 0.69881 0.78776 0.17002 0.0
H713 H 0.66694 0.79688 0.15085 0.0
H714 H 0.6646 0.78624 0.17792 0.0
H715 H 0.66347 0.78317 0.1253 0.0
H716 H 0.65825 0.76694 0.10494 0.0
H717 H 0.69677 0.80531 0.09882 0.0
H718 H 0.69111 0.78956 0.07714 0.0
H719 H 0.70399 0.82601 0.12742 0.0
H720 H 0.66523 0.80607 0.12536 0.0
H721 H 0.70365 0.84502 0.12712 0.0
H722 H 0.66465 0.82506 0.12633 0.0
H723 H 0.70161 0.90252 0.1477 0.0
H724 H 0.6985 0.91103 0.17398 0.0
H725 H 0.66246 0.88051 0.1777 0.0
H726 H 0.66586 0.87191 0.15151 0.0
H727 H 0.66275 0.87704 0.12232 0.0
H728 H 0.65704 0.88805 0.10197 0.0
H729 H 0.69452 0.91075 0.08875 0.0
H730 H 0.70003 0.89931 0.10869 0.0
H731 H 0.70038 0.87634 0.14637 0.0
H732 H 0.69966 0.85687 0.14543 0.0
H733 H 0.66821 0.84299 0.11225 0.0
N734 N 0.68577 0.88279 0.13116 0.0
H735 H 0.66856 0.86227 0.11419 0.0
C736 C 0.68432 0.79864 0.14489 0.0
C737 C 0.69327 0.79612 0.15073 0.0
C738 C 0.69191 0.78993 0.16618 0.0
C739 C 0.68148 0.7861 0.17609 0.0
C740 C 0.67266 0.78895 0.17048 0.0
C741 C 0.67406 0.79516 0.15504 0.0
C742 C 0.68074 0.79534 0.1139 0.0
C743 C 0.66953 0.78468 0.1148 0.0
C744 C 0.66648 0.77538 0.1029 0.0
C745 C 0.67438 0.77668 0.08946 0.0
C746 C 0.68499 0.78793 0.08764 0.0
C747 C 0.68819 0.79707 0.09986 0.0
C748 C 0.68468 0.8147 0.12672 0.0
C749 C 0.69539 0.82579 0.12701 0.0
C750 C 0.69514 0.83664 0.12705 0.0
C751 C 0.6841 0.83665 0.12712 0.0
C752 C 0.67332 0.82546 0.12626 0.0
C753 C 0.67361 0.81457 0.1259 0.0
C754 C 0.68399 0.88667 0.14769 0.0
C755 C 0.69312 0.89761 0.15436 0.0
C756 C 0.69126 0.90249 0.16925 0.0
C757 C 0.68015 0.89655 0.17777 0.0
C758 C 0.67112 0.8853 0.17144 0.0
C759 C 0.67302 0.88039 0.15648 0.0
C760 C 0.68185 0.88731 0.11689 0.0
C761 C 0.66969 0.88412 0.11464 0.0
C762 C 0.66646 0.89055 0.10314 0.0
C763 C 0.67533 0.90043 0.09387 0.0
C764 C 0.68741 0.90314 0.09549 0.0
C765 C 0.6906 0.89662 0.10688 0.0
C766 C 0.68464 0.87092 0.13034 0.0
C767 C 0.69328 0.86906 0.139 0.0
C768 C 0.69291 0.85792 0.13826 0.0
C769 C 0.68399 0.84833 0.12849 0.0
C770 C 0.67517 0.8501 0.12 0.0
C771 C 0.67543 0.86125 0.12101 0.0
H772 H 0.12523 0.7933 0.14645 0.0
N773 N 0.1189 0.8098 0.13473 0.0
H774 H 0.11827 0.78141 0.17267 0.0
H775 H 0.10638 0.81238 0.15982 0.0
H776 H 0.09891 0.80013 0.18591 0.0
H777 H 0.09722 0.80316 0.12184 0.0
H778 H 0.08565 0.78675 0.10153 0.0
H779 H 0.12789 0.79797 0.1159 0.0
H780 H 0.11642 0.78152 0.09543 0.0
H781 H 0.14138 0.81259 0.14182 0.0
H782 H 0.12291 0.83065 0.12138 0.0
H783 H 0.16058 0.83124 0.13952 0.0
H784 H 0.14217 0.84923 0.11805 0.0
H785 H 0.208 0.87668 0.14847 0.0
H786 H 0.21999 0.88451 0.17479 0.0
H787 H 0.21136 0.91343 0.17571 0.0
H788 H 0.19998 0.90585 0.14885 0.0
H789 H 0.1987 0.90397 0.10802 0.0
H790 H 0.21429 0.91484 0.08651 0.0
H791 H 0.23005 0.89237 0.09867 0.0
H792 H 0.21435 0.88147 0.11974 0.0
H793 H 0.19481 0.86507 0.12265 0.0
H794 H 0.17588 0.84585 0.12186 0.0
H795 H 0.15658 0.86458 0.13547 0.0
N796 N 0.19743 0.88737 0.13005 0.0
H797 H 0.17547 0.88373 0.13541 0.0
C798 C 0.11642 0.80387 0.15124 0.0
C799 C 0.11978 0.79512 0.15518 0.0
C800 C 0.11563 0.78817 0.17012 0.0
C801 C 0.1079 0.78969 0.18135 0.0
C802 C 0.10494 0.79878 0.17769 0.0
C803 C 0.10918 0.80579 0.16279 0.0
C804 C 0.11335 0.80174 0.1204 0.0
C805 C 0.10154 0.79866 0.11576 0.0
C806 C 0.09496 0.78929 0.10414 0.0
C807 C 0.10007 0.78274 0.09695 0.0
C808 C 0.11217 0.78627 0.10094 0.0
C809 C 0.11877 0.79572 0.11254 0.0
C810 C 0.1306 0.82028 0.13212 0.0
C811 C 0.14142 0.82051 0.13668 0.0
C812 C 0.15248 0.83123 0.13517 0.0
C813 C 0.15299 0.84187 0.12882 0.0
C814 C 0.14217 0.84136 0.12346 0.0
C815 C 0.13113 0.83072 0.12519 0.0
C816 C 0.20325 0.89082 0.14662 0.0
C817 C 0.20871 0.88469 0.15436 0.0
C818 C 0.21548 0.88914 0.16952 0.0
C819 C 0.21679 0.89972 0.17733 0.0
C820 C 0.21083 0.90546 0.16988 0.0
C821 C 0.2042 0.90108 0.15465 0.0
C822 C 0.2053 0.89191 0.11546 0.0
C823 C 0.20534 0.9012 0.10566 0.0
C824 C 0.21434 0.90747 0.09353 0.0
C825 C 0.22353 0.90458 0.09099 0.0
C826 C 0.22307 0.89478 0.10016 0.0
C827 C 0.21406 0.88851 0.11228 0.0
C828 C 0.18651 0.87588 0.12887 0.0
C829 C 0.18649 0.86506 0.12521 0.0
C830 C 0.17563 0.85402 0.12493 0.0
C831 C 0.16461 0.85359 0.12849 0.0
C832 C 0.16477 0.8645 0.13222 0.0
C833 C 0.17557 0.87548 0.13233 0.0
H834 H 0.33701 0.21633 0.87605 0.0
N835 N 0.3147 0.19872 0.88657 0.0
H836 H 0.34135 0.22864 0.85014 0.0
H837 H 0.29976 0.19528 0.86035 0.0
H838 H 0.30415 0.20748 0.83405 0.0
H839 H 0.30144 0.20726 0.90014 0.0
H840 H 0.30784 0.22357 0.92117 0.0
H841 H 0.33558 0.2083 0.90566 0.0
H842 H 0.34208 0.22459 0.92685 0.0
H843 H 0.33374 0.19544 0.87784 0.0
H844 H 0.29805 0.17775 0.89917 0.0
H845 H 0.33387 0.17629 0.8781 0.0
H846 H 0.2983 0.15866 0.90033 0.0
H847 H 0.33427 0.13038 0.86494 0.0
H848 H 0.33834 0.12247 0.83882 0.0
H849 H 0.30134 0.09345 0.83778 0.0
H850 H 0.29761 0.10112 0.86443 0.0
H851 H 0.29851 0.1027 0.90525 0.0
H852 H 0.3033 0.09094 0.92577 0.0
H853 H 0.341 0.11249 0.9131 0.0
H854 H 0.33616 0.12424 0.89305 0.0
H855 H 0.33351 0.14105 0.8919 0.0
H856 H 0.33442 0.16064 0.89449 0.0
H857 H 0.29663 0.14385 0.88073 0.0
N858 N 0.31346 0.1194 0.88349 0.0
H859 H 0.29576 0.12428 0.8789 0.0
C860 C 0.31796 0.20494 0.87026 0.0
C861 C 0.32978 0.21423 0.86695 0.0
C862 C 0.33226 0.22129 0.85213 0.0
C863 C 0.32305 0.21908 0.84021 0.0
C864 C 0.31141 0.20935 0.84302 0.0
C865 C 0.3089 0.20239 0.85799 0.0
C866 C 0.318 0.20659 0.90131 0.0
C867 C 0.3102 0.2108 0.90629 0.0
C868 C 0.31388 0.22011 0.91832 0.0
C869 C 0.32552 0.22546 0.9256 0.0
C870 C 0.33312 0.22077 0.9213 0.0
C871 C 0.32938 0.2114 0.90929 0.0
C872 C 0.31574 0.18796 0.8882 0.0
C873 C 0.32598 0.18747 0.88278 0.0
C874 C 0.32608 0.17649 0.88307 0.0
C875 C 0.31602 0.16582 0.88899 0.0
C876 C 0.30608 0.16656 0.89524 0.0
C877 C 0.30595 0.17749 0.89475 0.0
C878 C 0.31565 0.11621 0.86671 0.0
C879 C 0.32704 0.12236 0.85902 0.0
C880 C 0.32932 0.11786 0.84398 0.0
C881 C 0.32022 0.1072 0.83627 0.0
C882 C 0.30865 0.10149 0.84356 0.0
C883 C 0.30644 0.10593 0.85866 0.0
C884 C 0.31692 0.11437 0.89766 0.0
C885 C 0.30783 0.10508 0.90732 0.0
C886 C 0.31058 0.09829 0.91886 0.0
C887 C 0.32253 0.10068 0.92095 0.0
C888 C 0.33172 0.11047 0.91197 0.0
C889 C 0.32895 0.11724 0.90043 0.0
C890 C 0.31448 0.13113 0.88541 0.0
C891 C 0.3254 0.14155 0.88963 0.0
C892 C 0.32593 0.1528 0.89097 0.0
C893 C 0.31558 0.15388 0.88796 0.0
C894 C 0.30472 0.1434 0.88357 0.0
C895 C 0.3042 0.13219 0.88238 0.0
H896 H 0.78431 0.12393 0.88123 0.0
N897 N 0.80468 0.12388 0.89306 0.0
H898 H 0.77361 0.11528 0.8545 0.0
H899 H 0.81143 0.11463 0.86765 0.0
H900 H 0.80096 0.10633 0.84026 0.0
H901 H 0.79982 0.10329 0.90833 0.0
H902 H 0.78409 0.09193 0.92941 0.0
H903 H 0.79162 0.13235 0.91028 0.0
H904 H 0.77586 0.12106 0.9313 0.0
H905 H 0.80247 0.14357 0.88343 0.0
H906 H 0.82696 0.13286 0.90538 0.0
H907 H 0.81836 0.1646 0.88365 0.0
H908 H 0.84289 0.15407 0.90641 0.0
H909 H 0.86353 0.22207 0.86525 0.0
H910 H 0.87449 0.23109 0.83866 0.0
H911 H 0.89881 0.21748 0.85058 0.0
H912 H 0.88806 0.20884 0.87714 0.0
H913 H 0.88545 0.20651 0.90682 0.0
H914 H 0.90026 0.21983 0.92823 0.0
H915 H 0.88417 0.24281 0.9271 0.0
H916 H 0.86965 0.22966 0.90532 0.0
H917 H 0.84637 0.20265 0.89835 0.0
H918 H 0.83045 0.18157 0.90109 0.0
H919 H 0.85596 0.16989 0.88783 0.0
N920 N 0.86913 0.21095 0.88967 0.0
H921 H 0.87182 0.19092 0.88594 0.0
C922 C 0.79868 0.11983 0.87659 0.0
C923 C 0.78808 0.12016 0.87242 0.0
C924 C 0.78198 0.11527 0.85696 0.0
C925 C 0.78637 0.11005 0.84518 0.0
C926 C 0.79719 0.11009 0.84914 0.0
C927 C 0.80325 0.11491 0.8647 0.0
C928 C 0.79689 0.11861 0.90765 0.0
C929 C 0.79483 0.10733 0.91365 0.0
C930 C 0.78585 0.10088 0.9257 0.0
C931 C 0.77867 0.10556 0.93192 0.0
C932 C 0.78116 0.11716 0.92659 0.0
C933 C 0.79023 0.12366 0.91463 0.0
C934 C 0.81356 0.13656 0.89423 0.0
C935 C 0.81123 0.14573 0.88847 0.0
C936 C 0.82036 0.15784 0.88876 0.0
C937 C 0.83198 0.1611 0.89498 0.0
C938 C 0.83414 0.15191 0.90121 0.0
C939 C 0.82503 0.1398 0.90079 0.0
C940 C 0.87489 0.21476 0.8732 0.0
C941 C 0.87111 0.22089 0.86193 0.0
C942 C 0.87738 0.226 0.84674 0.0
C943 C 0.88759 0.22508 0.84254 0.0
C944 C 0.8911 0.21853 0.85356 0.0
C945 C 0.88484 0.21345 0.86874 0.0
C946 C 0.87655 0.21723 0.90431 0.0
C947 C 0.88504 0.21435 0.91127 0.0
C948 C 0.89349 0.22195 0.92352 0.0
C949 C 0.89339 0.23237 0.92926 0.0
C950 C 0.8844 0.23479 0.92303 0.0
C951 C 0.87612 0.22732 0.9106 0.0
C952 C 0.86023 0.1984 0.89178 0.0
C953 C 0.84849 0.1955 0.89618 0.0
C954 C 0.8394 0.18345 0.8976 0.0
C955 C 0.84184 0.17396 0.89452 0.0
C956 C 0.85373 0.17691 0.89048 0.0
C957 C 0.86285 0.189 0.88922 0.0
H958 H 0.79681 0.69989 0.87181 0.0
N959 N 0.80357 0.68628 0.8894 0.0
H960 H 0.78572 0.69506 0.8445 0.0
H961 H 0.79808 0.66669 0.86912 0.0
H962 H 0.78695 0.66172 0.84172 0.0
H963 H 0.78694 0.66262 0.89585 0.0
H964 H 0.76995 0.65559 0.91541 0.0
H965 H 0.80052 0.69917 0.91364 0.0
H966 H 0.78354 0.69216 0.93347 0.0
H967 H 0.82467 0.70401 0.87934 0.0
H968 H 0.80806 0.66876 0.90296 0.0
H969 H 0.8442 0.705 0.88079 0.0
H970 H 0.82771 0.66995 0.90556 0.0
H971 H 0.90767 0.70745 0.88523 0.0
H972 H 0.91785 0.70717 0.85879 0.0
H973 H 0.88404 0.67904 0.83832 0.0
H974 H 0.874 0.67907 0.86474 0.0
H975 H 0.88379 0.67042 0.8903 0.0
H976 H 0.89442 0.66288 0.90812 0.0
H977 H 0.90349 0.69195 0.94433 0.0
H978 H 0.89367 0.69998 0.92546 0.0
H979 H 0.87955 0.70973 0.89869 0.0
H980 H 0.85962 0.70793 0.89927 0.0
H981 H 0.8434 0.66934 0.89102 0.0
N982 N 0.88501 0.6924 0.89395 0.0
H983 H 0.86346 0.67125 0.89173 0.0
C984 C 0.79823 0.68367 0.87246 0.0
C985 C 0.79484 0.69165 0.86513 0.0
C986 C 0.78854 0.68887 0.84953 0.0
C987 C 0.78544 0.67799 0.84096 0.0
C988 C 0.78911 0.67012 0.84811 0.0
C989 C 0.7955 0.67296 0.86371 0.0
C990 C 0.795 0.68149 0.90321 0.0
C991 C 0.78644 0.66911 0.90423 0.0
C992 C 0.77667 0.6651 0.91536 0.0
C993 C 0.77534 0.67335 0.92581 0.0
C994 C 0.78435 0.68558 0.92563 0.0
C995 C 0.79406 0.6896 0.91436 0.0
C996 C 0.81492 0.68645 0.89122 0.0
C997 C 0.8253 0.69656 0.88511 0.0
C998 C 0.8365 0.69713 0.88611 0.0
C999 C 0.83768 0.68764 0.89357 0.0
C1000 C 0.82721 0.67741 0.89963 0.0
C1001 C 0.81592 0.67677 0.89832 0.0
C1002 C 0.89007 0.69339 0.87707 0.0
C1003 C 0.90242 0.70142 0.87488 0.0
C1004 C 0.90822 0.7012 0.85986 0.0
C1005 C 0.90171 0.69307 0.84658 0.0
C1006 C 0.88923 0.68547 0.84833 0.0
C1007 C 0.88347 0.68552 0.8635 0.0
C1008 C 0.88823 0.68598 0.90636 0.0
C1009 C 0.88792 0.67507 0.90219 0.0
C1010 C 0.89398 0.67071 0.91255 0.0
C1011 C 0.90018 0.67696 0.92756 0.0
C1012 C 0.89927 0.68713 0.93257 0.0
C1013 C 0.89348 0.69164 0.92197 0.0
C1014 C 0.87299 0.69071 0.89489 0.0
C1015 C 0.87166 0.70089 0.89715 0.0
C1016 C 0.86023 0.69982 0.89729 0.0
C1017 C 0.8498 0.68851 0.89482 0.0
C1018 C 0.85116 0.6782 0.89305 0.0
C1019 C 0.86264 0.67927 0.89327 0.0
H1020 H 0.774 0.63005 0.49012 0.0
N1021 N 0.78765 0.64684 0.46747 0.0
H1022 H 0.76547 0.63297 0.51653 0.0
H1023 H 0.79378 0.66863 0.48241 0.0
H1024 H 0.78575 0.67168 0.50895 0.0
H1025 H 0.7946 0.66866 0.45208 0.0
H1026 H 0.78209 0.67326 0.43288 0.0
H1027 H 0.76757 0.63098 0.45159 0.0
H1028 H 0.75524 0.6353 0.43163 0.0
H1029 H 0.79223 0.63004 0.45576 0.0
H1030 H 0.80977 0.66713 0.47267 0.0
H1031 H 0.81182 0.63132 0.4522 0.0
H1032 H 0.82938 0.66834 0.47013 0.0
H1033 H 0.87299 0.6356 0.47875 0.0
H1034 H 0.8849 0.63996 0.50524 0.0
H1035 H 0.88849 0.6756 0.50683 0.0
H1036 H 0.87621 0.67094 0.48054 0.0
H1037 H 0.88485 0.67311 0.452 0.0
H1038 H 0.9007 0.67799 0.43111 0.0
H1039 H 0.88361 0.64034 0.41619 0.0
H1040 H 0.86805 0.63552 0.43775 0.0
H1041 H 0.84627 0.63206 0.46921 0.0
H1042 H 0.82701 0.63173 0.46978 0.0
H1043 H 0.84452 0.6688 0.45198 0.0
N1044 N 0.86763 0.65032 0.46135 0.0
H1045 H 0.8639 0.66912 0.45225 0.0
C1046 C 0.78459 0.64906 0.48434 0.0
C1047 C 0.77678 0.63916 0.49442 0.0
C1048 C 0.77193 0.64086 0.5095 0.0
C1049 C 0.77484 0.65257 0.51481 0.0
C1050 C 0.78315 0.66253 0.5051 0.0
C1051 C 0.78792 0.6608 0.48998 0.0
C1052 C 0.78188 0.64948 0.45343 0.0
C1053 C 0.78608 0.66133 0.44751 0.0
C1054 C 0.77893 0.66393 0.43642 0.0
C1055 C 0.76752 0.65468 0.43093 0.0
C1056 C 0.76381 0.6427 0.43594 0.0
C1057 C 0.77089 0.64017 0.44715 0.0
C1058 C 0.79947 0.64835 0.46477 0.0
C1059 C 0.80033 0.63845 0.45877 0.0
C1060 C 0.81155 0.63919 0.45689 0.0
C1061 C 0.82225 0.64987 0.46119 0.0
C1062 C 0.82138 0.65998 0.46663 0.0
C1063 C 0.81011 0.65926 0.46829 0.0
C1064 C 0.87376 0.65292 0.47771 0.0
C1065 C 0.87625 0.64429 0.48497 0.0
C1066 C 0.88316 0.64686 0.49998 0.0
C1067 C 0.88782 0.65821 0.50802 0.0
C1068 C 0.88501 0.66676 0.50099 0.0
C1069 C 0.87803 0.66414 0.48594 0.0
C1070 C 0.87531 0.6539 0.44653 0.0
C1071 C 0.88435 0.66595 0.44398 0.0
C1072 C 0.89342 0.66873 0.43194 0.0
C1073 C 0.89358 0.65952 0.42213 0.0
C1074 C 0.88395 0.64762 0.4238 0.0
C1075 C 0.87496 0.64486 0.43593 0.0
C1076 C 0.85645 0.65052 0.46053 0.0
C1077 C 0.8459 0.64007 0.46534 0.0
C1078 C 0.83489 0.6399 0.46552 0.0
C1079 C 0.83411 0.6502 0.46073 0.0
C1080 C 0.84476 0.66072 0.45587 0.0
C1081 C 0.85585 0.66091 0.45586 0.0
H1082 H 0.36867 0.13111 0.47945 0.0
N1083 N 0.35548 0.13865 0.46244 0.0
H1084 H 0.36367 0.11954 0.5062 0.0
H1085 H 0.33586 0.13286 0.48241 0.0
H1086 H 0.33085 0.1215 0.50947 0.0
H1087 H 0.33203 0.12242 0.4542 0.0
H1088 H 0.32532 0.10556 0.43413 0.0
H1089 H 0.36885 0.1355 0.43935 0.0
H1090 H 0.36229 0.11848 0.4195 0.0
H1091 H 0.37168 0.15942 0.47618 0.0
H1092 H 0.33861 0.1433 0.44663 0.0
H1093 H 0.37171 0.17856 0.47657 0.0
H1094 H 0.33897 0.16262 0.4459 0.0
H1095 H 0.37188 0.23877 0.48265 0.0
H1096 H 0.36857 0.24638 0.50967 0.0
H1097 H 0.33564 0.21251 0.51696 0.0
H1098 H 0.3388 0.20519 0.48978 0.0
H1099 H 0.33357 0.2132 0.46312 0.0
H1100 H 0.3266 0.22427 0.44486 0.0
H1101 H 0.36213 0.24449 0.42309 0.0
H1102 H 0.36908 0.23342 0.44157 0.0
H1103 H 0.37546 0.21445 0.46385 0.0
H1104 H 0.37511 0.1952 0.46072 0.0
H1105 H 0.33612 0.17652 0.46157 0.0
N1106 N 0.35696 0.21825 0.4668 0.0
H1107 H 0.33667 0.19594 0.46325 0.0
C1108 C 0.35269 0.13285 0.47902 0.0
C1109 C 0.36048 0.12915 0.4861 0.0
C1110 C 0.35762 0.12259 0.50141 0.0
C1111 C 0.34686 0.1196 0.51003 0.0
C1112 C 0.33914 0.12353 0.50307 0.0
C1113 C 0.34202 0.13009 0.48768 0.0
C1114 C 0.35099 0.13028 0.44821 0.0
C1115 C 0.33865 0.12185 0.44629 0.0
C1116 C 0.33484 0.11212 0.43493 0.0
C1117 C 0.34328 0.11055 0.42536 0.0
C1118 C 0.35552 0.11944 0.42653 0.0
C1119 C 0.35931 0.12918 0.43785 0.0
C1120 C 0.35526 0.1499 0.46132 0.0
C1121 C 0.36453 0.16008 0.46951 0.0
C1122 C 0.36457 0.17108 0.46956 0.0
C1123 C 0.35541 0.1723 0.46108 0.0
C1124 C 0.34611 0.16206 0.45275 0.0
C1125 C 0.34596 0.15095 0.45301 0.0
C1126 C 0.35568 0.22143 0.48413 0.0
C1127 C 0.36409 0.23292 0.49029 0.0
C1128 C 0.36218 0.23723 0.50577 0.0
C1129 C 0.35178 0.23009 0.51547 0.0
C1130 C 0.34364 0.21833 0.50968 0.0
C1131 C 0.34552 0.21406 0.49414 0.0
C1132 C 0.35191 0.22255 0.45374 0.0
C1133 C 0.33979 0.21978 0.45413 0.0
C1134 C 0.33584 0.22619 0.44378 0.0
C1135 C 0.34387 0.23535 0.43272 0.0
C1136 C 0.35573 0.23746 0.43143 0.0
C1137 C 0.35971 0.23114 0.44193 0.0
C1138 C 0.35616 0.20665 0.46415 0.0
C1139 C 0.36686 0.20618 0.4632 0.0
C1140 C 0.3666 0.19511 0.4616 0.0
C1141 C 0.35558 0.18416 0.46127 0.0
C1142 C 0.3448 0.1847 0.4617 0.0
C1143 C 0.34509 0.19584 0.46292 0.0
H1144 H 0.79854 0.10965 0.48131 0.0
N1145 N 0.79803 0.12859 0.46785 0.0
H1146 H 0.78825 0.09839 0.50724 0.0
H1147 H 0.78705 0.13568 0.49174 0.0
H1148 H 0.77699 0.12463 0.51777 0.0
H1149 H 0.77775 0.13025 0.46181 0.0
H1150 H 0.76137 0.11762 0.44194 0.0
H1151 H 0.79846 0.11421 0.44374 0.0
H1152 H 0.78205 0.10122 0.4243 0.0
H1153 H 0.82127 0.13672 0.46278 0.0
H1154 H 0.7953 0.14869 0.46908 0.0
H1155 H 0.83737 0.1577 0.46039 0.0
H1156 H 0.81133 0.16967 0.46806 0.0
H1157 H 0.88385 0.2154 0.4749 0.0
H1158 H 0.89601 0.22415 0.50067 0.0
H1159 H 0.86993 0.23363 0.51904 0.0
H1160 H 0.85772 0.22489 0.4929 0.0
H1161 H 0.86758 0.2366 0.4523 0.0
H1162 H 0.88261 0.24838 0.43058 0.0
H1163 H 0.89039 0.21913 0.4246 0.0
H1164 H 0.87509 0.20732 0.44598 0.0
H1165 H 0.86505 0.19589 0.47624 0.0
H1166 H 0.84911 0.17497 0.47619 0.0
H1167 H 0.82516 0.18546 0.45128 0.0
N1168 N 0.86308 0.21564 0.4659 0.0
H1169 H 0.84106 0.20662 0.45255 0.0
C1170 C 0.79371 0.12356 0.48463 0.0
C1171 C 0.79407 0.1131 0.48943 0.0
C1172 C 0.78812 0.10665 0.50412 0.0
C1173 C 0.78179 0.11063 0.51442 0.0
C1174 C 0.78189 0.12143 0.5101 0.0
C1175 C 0.78769 0.12779 0.49522 0.0
C1176 C 0.78937 0.1232 0.45412 0.0
C1177 C 0.77891 0.12424 0.45323 0.0
C1178 C 0.76947 0.11687 0.44201 0.0
C1179 C 0.7703 0.10828 0.43158 0.0
C1180 C 0.7811 0.10782 0.43189 0.0
C1181 C 0.79052 0.11522 0.44301 0.0
C1182 C 0.80714 0.14111 0.46641 0.0
C1183 C 0.81909 0.14392 0.46385 0.0
C1184 C 0.82829 0.15595 0.46264 0.0
C1185 C 0.82577 0.16551 0.46424 0.0
C1186 C 0.81369 0.16263 0.46657 0.0
C1187 C 0.80446 0.15056 0.46746 0.0
C1188 C 0.86986 0.21959 0.48184 0.0
C1189 C 0.88066 0.2193 0.48441 0.0
C1190 C 0.88766 0.22435 0.49917 0.0
C1191 C 0.88399 0.22969 0.51177 0.0
C1192 C 0.87296 0.22954 0.50955 0.0
C1193 C 0.866 0.22458 0.49467 0.0
C1194 C 0.87024 0.22115 0.45083 0.0
C1195 C 0.87231 0.23263 0.44594 0.0
C1196 C 0.88099 0.23938 0.43367 0.0
C1197 C 0.88786 0.23479 0.42607 0.0
C1198 C 0.88523 0.22293 0.43014 0.0
C1199 C 0.87649 0.21615 0.44241 0.0
C1200 C 0.8542 0.20295 0.46468 0.0
C1201 C 0.85639 0.19377 0.47085 0.0
C1202 C 0.84722 0.18168 0.47062 0.0
C1203 C 0.83571 0.17839 0.46384 0.0
C1204 C 0.83375 0.18758 0.45702 0.0
C1205 C 0.84287 0.19969 0.45755 0.0
H1206 H 0.00988 0.55293 0.20993 0.0
N1207 N 0.98859 0.53387 0.22111 0.0
H1208 H 0.01272 0.56506 0.18441 0.0
H1209 H 0.97248 0.52992 0.19634 0.0
H1210 H 0.97513 0.54242 0.17087 0.0
H1211 H 0.97346 0.53975 0.23554 0.0
H1212 H 0.97839 0.55603 0.25612 0.0
H1213 H 0.00973 0.54578 0.23957 0.0
H1214 H 0.01474 0.56201 0.26032 0.0
H1215 H 0.00958 0.53458 0.21071 0.0
H1216 H 0.97513 0.51193 0.23425 0.0
H1217 H 0.01375 0.51796 0.21105 0.0
H1218 H 0.97956 0.49528 0.23564 0.0
H1219 H 0.02676 0.4693 0.201 0.0
H1220 H 0.027 0.4598 0.17382 0.0
H1221 H 0.98826 0.44362 0.17 0.0
H1222 H 0.98811 0.45288 0.19724 0.0
H1223 H 0.98586 0.44662 0.22638 0.0
H1224 H 0.98281 0.43005 0.24556 0.0
H1225 H 0.02061 0.4494 0.25939 0.0
H1226 H 0.02353 0.4659 0.24017 0.0
H1227 H 0.02302 0.48918 0.22499 0.0
H1228 H 0.01876 0.50586 0.22771 0.0
H1229 H 0.98091 0.4809 0.21854 0.0
N1230 N 0.00762 0.46618 0.21829 0.0
H1231 H 0.98523 0.46428 0.21705 0.0
C1232 C 0.99092 0.54036 0.20503 0.0
C1233 C 0.00228 0.55034 0.20134 0.0
C1234 C 0.00387 0.55742 0.18679 0.0
C1235 C 0.99412 0.55483 0.17567 0.0
C1236 C 0.98287 0.54462 0.17906 0.0
C1237 C 0.98131 0.53747 0.1936 0.0
C1238 C 0.99118 0.54155 0.23596 0.0
C1239 C 0.98238 0.54435 0.24131 0.0
C1240 C 0.98523 0.55366 0.25307 0.0
C1241 C 0.99701 0.56042 0.25973 0.0
C1242 C 0.00564 0.5571 0.25521 0.0
C1243 C 0.00276 0.54774 0.24345 0.0
C1244 C 0.99187 0.52449 0.22221 0.0
C1245 C 0.0029 0.52608 0.21611 0.0
C1246 C 0.00537 0.51651 0.2165 0.0
C1247 C 0.99699 0.50516 0.22332 0.0
C1248 C 0.98614 0.50375 0.22994 0.0
C1249 C 0.98362 0.5133 0.22932 0.0
C1250 C 0.00748 0.46188 0.20115 0.0
C1251 C 0.01836 0.46388 0.19408 0.0
C1252 C 0.01847 0.45846 0.17855 0.0
C1253 C 0.00763 0.45088 0.16976 0.0
C1254 C 0.99675 0.44925 0.17656 0.0
C1255 C 0.99667 0.45467 0.19212 0.0
C1256 C 0.00497 0.45749 0.23182 0.0
C1257 C 0.99342 0.44743 0.23381 0.0
C1258 C 0.9917 0.43791 0.24471 0.0
C1259 C 1.00148 0.43836 0.2539 0.0
C1260 C 0.01286 0.4488 0.25266 0.0
C1261 C 0.01456 0.45824 0.24169 0.0
C1262 C 0.00452 0.47555 0.22055 0.0
C1263 C 0.0138 0.48735 0.22374 0.0
C1264 C 0.01134 0.49688 0.22511 0.0
C1265 C 0.99949 0.49484 0.22309 0.0
C1266 C 0.99014 0.48288 0.22031 0.0
C1267 C 0.99261 0.47332 0.21921 0.0
H1268 H 0.56839 0.53611 0.20815 0.0
N1269 N 0.54872 0.53248 0.22441 0.0
H1270 H 0.5763 0.54692 0.18114 0.0
H1271 H 0.53716 0.54056 0.2026 0.0
H1272 H 0.54462 0.55081 0.17527 0.0
H1273 H 0.54223 0.54944 0.23197 0.0
H1274 H 0.55278 0.56638 0.25194 0.0
H1275 H 0.56558 0.53546 0.24715 0.0
H1276 H 0.57636 0.55244 0.26691 0.0
H1277 H 0.54611 0.51066 0.22878 0.0
H1278 H 0.5259 0.52952 0.22534 0.0
H1279 H 0.52742 0.49143 0.23104 0.0
H1280 H 0.50708 0.51031 0.22612 0.0
H1281 H 0.46571 0.43212 0.21056 0.0
H1282 H 0.45479 0.4247 0.18336 0.0
H1283 H 0.45484 0.45853 0.17653 0.0
H1284 H 0.46549 0.46569 0.20408 0.0
H1285 H 0.45442 0.45906 0.23195 0.0
H1286 H 0.43757 0.44892 0.25169 0.0
H1287 H 0.45226 0.42663 0.26998 0.0
H1288 H 0.46928 0.43714 0.25051 0.0
H1289 H 0.49323 0.45827 0.21421 0.0
H1290 H 0.51168 0.47773 0.21431 0.0
H1291 H 0.49335 0.49347 0.24154 0.0
N1292 N 0.47183 0.4529 0.22613 0.0
H1293 H 0.47475 0.47415 0.2403 0.0
C1294 C 0.55217 0.53741 0.20737 0.0
C1295 C 0.5631 0.53915 0.20085 0.0
C1296 C 0.56757 0.54529 0.18536 0.0
C1297 C 0.56113 0.54979 0.17596 0.0
C1298 C 0.54994 0.54766 0.18226 0.0
C1299 C 0.54555 0.54162 0.19787 0.0
C1300 C 0.55314 0.54118 0.23815 0.0
C1301 C 0.54944 0.54986 0.2399 0.0
C1302 C 0.55558 0.55961 0.2512 0.0
C1303 C 0.5655 0.56085 0.26093 0.0
C1304 C 0.56869 0.55174 0.2598 0.0
C1305 C 0.56256 0.54202 0.24851 0.0
C1306 C 0.53743 0.52148 0.22652 0.0
C1307 C 0.53759 0.51061 0.22835 0.0
C1308 C 0.52685 0.4996 0.22944 0.0
C1309 C 0.51561 0.49917 0.22838 0.0
C1310 C 0.5155 0.51019 0.22705 0.0
C1311 C 0.5263 0.52124 0.22633 0.0
C1312 C 0.46644 0.44941 0.20927 0.0
C1313 C 0.46347 0.43796 0.20305 0.0
C1314 C 0.45729 0.43378 0.18746 0.0
C1315 C 0.45394 0.44103 0.17769 0.0
C1316 C 0.45715 0.45266 0.18381 0.0
C1317 C 0.46332 0.45681 0.19948 0.0
C1318 C 0.46318 0.44889 0.23985 0.0
C1319 C 0.45421 0.45226 0.24057 0.0
C1320 C 0.44448 0.44632 0.25174 0.0
C1321 C 0.44345 0.43683 0.2623 0.0
C1322 C 0.4528 0.43397 0.2622 0.0
C1323 C 0.46254 0.43996 0.25109 0.0
C1324 C 0.48259 0.4646 0.22733 0.0
C1325 C 0.49322 0.46593 0.22022 0.0
C1326 C 0.50381 0.4771 0.22045 0.0
C1327 C 0.50416 0.48727 0.22814 0.0
C1328 C 0.49347 0.48593 0.23533 0.0
C1329 C 0.48277 0.47476 0.23478 0.0
H1330 H 0.53298 0.97049 0.19764 0.0
N1331 N 0.53114 0.98695 0.21612 0.0
H1332 H 0.54454 0.97368 0.17138 0.0
H1333 H 0.54211 0.00796 0.19742 0.0
H1334 H 0.5536 0.01125 0.17102 0.0
H1335 H 0.55261 0.00719 0.22399 0.0
H1336 H 0.56775 0.00811 0.24409 0.0
H1337 H 0.52796 0.97079 0.24024 0.0
H1338 H 0.54284 0.97183 0.26127 0.0
H1339 H 0.50792 0.97356 0.20876 0.0
H1340 H 0.53422 0.00868 0.22779 0.0
H1341 H 0.49218 0.97912 0.21097 0.0
H1342 H 0.51848 0.01421 0.2307 0.0
H1343 H 0.45557 0.98947 0.20044 0.0
H1344 H 0.44424 0.98706 0.17392 0.0
H1345 H 0.45494 0.02508 0.17525 0.0
H1346 H 0.46565 0.02717 0.20238 0.0
H1347 H 0.46618 0.02504 0.24355 0.0
H1348 H 0.44969 0.02147 0.2628 0.0
H1349 H 0.43054 0.98398 0.24706 0.0
H1350 H 0.44664 0.98775 0.22744 0.0
H1351 H 0.4644 0.98794 0.23027 0.0
H1352 H 0.48041 0.98286 0.23074 0.0
H1353 H 0.50571 0.01906 0.21385 0.0
N1354 N 0.46645 0.00983 0.22049 0.0
H1355 H 0.4896 0.02422 0.21406 0.0
C1356 C 0.53665 0.98892 0.19946 0.0
C1357 C 0.53728 0.97934 0.19168 0.0
C1358 C 0.54387 0.9812 0.17668 0.0
C1359 C 0.55003 0.99274 0.16913 0.0
C1360 C 0.54908 0.00229 0.17664 0.0
C1361 C 0.54243 1.00039 0.19165 0.0
C1362 C 0.53918 0.98879 0.2304 0.0
C1363 C 0.55031 0.99949 0.23223 0.0
C1364 C 0.55898 1.00003 0.2439 0.0
C1365 C 0.55665 0.98995 0.25415 0.0
C1366 C 0.54511 0.97964 0.25326 0.0
C1367 C 0.53652 0.97907 0.24142 0.0
C1368 C 0.52219 0.99062 0.21819 0.0
C1369 C 0.51024 0.98243 0.21361 0.0
C1370 C 0.50125 0.98561 0.21502 0.0
C1371 C 0.504 0.9971 0.22115 0.0
C1372 C 0.51604 0.00533 0.22578 0.0
C1373 C 0.52506 0.00215 0.22425 0.0
C1374 C 0.46131 0.0085 0.20351 0.0
C1375 C 0.45551 0.99729 0.195 0.0
C1376 C 0.44911 0.99595 0.1797 0.0
C1377 C 0.4485 0.00584 0.1725 0.0
C1378 C 0.45492 0.01719 0.18061 0.0
C1379 C 0.46117 0.01846 0.196 0.0
C1380 C 0.45782 0.00671 0.23413 0.0
C1381 C 0.45855 0.01599 0.24461 0.0
C1382 C 0.44909 0.01393 0.2556 0.0
C1383 C 0.43868 0.00246 0.25634 0.0
C1384 C 0.4383 0.99299 0.24657 0.0
C1385 C 0.44767 0.9951 0.23549 0.0
C1386 C 0.47578 0.00657 0.22222 0.0
C1387 C 0.47336 0.99488 0.2269 0.0
C1388 C 0.48258 0.99193 0.22701 0.0
C1389 C 0.49439 1.00051 0.22224 0.0
C1390 C 0.4968 0.01224 0.21785 0.0
C1391 C 0.48759 0.01521 0.21788 0.0
H1392 H 0.43258 0.9677 0.81158 0.0
N1393 N 0.45361 0.98359 0.79826 0.0
H1394 H 0.42332 0.96989 0.83772 0.0
H1395 H 0.46469 0.00156 0.82222 0.0
H1396 H 0.45542 0.00398 0.84828 0.0
H1397 H 0.45899 0.00716 0.79471 0.0
H1398 H 0.44886 0.01458 0.77534 0.0
H1399 H 0.43908 0.97171 0.77201 0.0
H1400 H 0.42892 0.97908 0.75244 0.0
H1401 H 0.46105 0.96987 0.81409 0.0
H1402 H 0.47372 0.00115 0.78111 0.0
H1403 H 0.48077 0.97133 0.81307 0.0
H1404 H 0.49318 0.00218 0.77913 0.0
H1405 H 0.53968 0.97205 0.81056 0.0
H1406 H 0.55124 0.97564 0.83725 0.0
H1407 H 0.55226 0.00996 0.84307 0.0
H1408 H 0.5412 0.0065 0.81608 0.0
H1409 H 0.55158 0.01002 0.78749 0.0
H1410 H 0.5681 0.01548 0.76746 0.0
H1411 H 0.55087 0.97852 0.74934 0.0
H1412 H 0.53467 0.9731 0.76999 0.0
H1413 H 0.51201 0.96789 0.79479 0.0
H1414 H 0.49271 0.96749 0.79488 0.0
H1415 H 0.51144 0.00661 0.79271 0.0
N1416 N 0.53385 0.98699 0.79465 0.0
H1417 H 0.53067 0.00674 0.79136 0.0
C1418 C 0.44926 0.98443 0.81497 0.0
C1419 C 0.43768 0.97551 0.81974 0.0
C1420 C 0.43238 0.97685 0.83457 0.0
C1421 C 0.43858 0.98719 0.84496 0.0
C1422 C 0.45044 0.99589 0.8406 0.0
C1423 C 0.45573 0.99454 0.8257 0.0
C1424 C 0.44972 0.98882 0.78484 0.0
C1425 C 0.4526 0.00103 0.78533 0.0
C1426 C 0.44676 0.00524 0.77431 0.0
C1427 C 0.43798 0.99737 0.76252 0.0
C1428 C 0.43568 0.98538 0.76131 0.0
C1429 C 0.44148 0.98115 0.77244 0.0
C1430 C 0.46572 0.98533 0.79778 0.0
C1431 C 0.46807 0.97705 0.8066 0.0
C1432 C 0.47935 0.97782 0.80579 0.0
C1433 C 0.48861 0.98676 0.79576 0.0
C1434 C 0.48635 0.99522 0.78711 0.0
C1435 C 0.47508 0.99457 0.78817 0.0
C1436 C 0.53947 0.9889 0.81137 0.0
C1437 C 0.54228 0.98026 0.81776 0.0
C1438 C 0.54885 0.98233 0.83306 0.0
C1439 C 0.55271 0.99311 0.84236 0.0
C1440 C 0.5496 0.00164 0.83614 0.0
C1441 C 0.54312 0.9996 0.82074 0.0
C1442 C 0.54196 0.99109 0.78032 0.0
C1443 C 0.55122 0.00317 0.77893 0.0
C1444 C 0.56067 0.00628 0.7674 0.0
C1445 C 0.56096 0.99739 0.75698 0.0
C1446 C 0.55111 0.98554 0.75745 0.0
C1447 C 0.54176 0.98244 0.76907 0.0
C1448 C 0.52273 0.98729 0.79334 0.0
C1449 C 0.5119 0.97635 0.79413 0.0
C1450 C 0.50088 0.97618 0.79441 0.0
C1451 C 0.50043 0.98704 0.79422 0.0
C1452 C 0.51136 0.99805 0.79285 0.0
C1453 C 0.52241 0.99817 0.79226 0.0
H1454 H 0.99161 0.54575 0.81183 0.0
N1455 N 0.01216 0.54586 0.80148 0.0
H1456 H 0.98873 0.55347 0.83893 0.0
H1457 H 0.02709 0.55358 0.82843 0.0
H1458 H 0.02439 0.56159 0.85558 0.0
H1459 H 0.02859 0.5678 0.79149 0.0
H1460 H 0.02569 0.58136 0.77218 0.0
H1461 H 0.99241 0.53937 0.78066 0.0
H1462 H 0.98953 0.55269 0.76073 0.0
H1463 H 0.9907 0.52614 0.81149 0.0
H1464 H 0.02374 0.53671 0.78437 0.0
H1465 H 0.98513 0.50509 0.8086 0.0
H1466 H 0.01777 0.51544 0.78015 0.0
H1467 H 0.96958 0.43965 0.81069 0.0
H1468 H 0.9699 0.42967 0.83759 0.0
H1469 H 0.00758 0.45589 0.84452 0.0
H1470 H 0.00715 0.46582 0.81796 0.0
H1471 H 0.00952 0.45862 0.79004 0.0
H1472 H 0.01295 0.44607 0.76977 0.0
H1473 H 0.97667 0.4319 0.75 0.0
H1474 H 0.97339 0.44466 0.77021 0.0
H1475 H 0.97324 0.46704 0.79281 0.0
H1476 H 0.97842 0.48827 0.79164 0.0
H1477 H 0.01626 0.4988 0.79431 0.0
N1478 N 0.98803 0.45807 0.79534 0.0
H1479 H 0.01093 0.47762 0.79395 0.0
C1480 C 0.00963 0.5491 0.81809 0.0
C1481 C 0.99876 0.54902 0.82137 0.0
C1482 C 0.99715 0.55352 0.83686 0.0
C1483 C 0.00636 0.55824 0.84938 0.0
C1484 C 0.01705 0.55791 0.84631 0.0
C1485 C 0.01864 0.55337 0.8308 0.0
C1486 C 0.01078 0.55261 0.78751 0.0
C1487 C 0.02014 0.56439 0.78448 0.0
C1488 C 0.01846 0.57212 0.77339 0.0
C1489 C 0.00733 0.56819 0.76496 0.0
C1490 C 0.99815 0.55611 0.76725 0.0
C1491 C 0.99982 0.54841 0.77849 0.0
C1492 C 0.00786 0.53314 0.79847 0.0
C1493 C 0.99675 0.52399 0.80471 0.0
C1494 C 0.99346 0.5118 0.80282 0.0
C1495 C 1.00101 0.50841 0.79423 0.0
C1496 C 0.01183 0.51761 0.78725 0.0
C1497 C 0.01523 0.5298 0.78948 0.0
C1498 C 0.98826 0.4535 0.81228 0.0
C1499 C 0.97783 0.44335 0.81823 0.0
C1500 C 0.97806 0.43762 0.83349 0.0
C1501 C 0.98879 0.44195 0.84314 0.0
C1502 C 0.99914 0.4524 0.8375 0.0
C1503 C 0.9989 0.4581 0.8222 0.0
C1504 C 0.99115 0.45257 0.78162 0.0
C1505 C 0.00241 0.45309 0.78106 0.0
C1506 C 0.00432 0.4458 0.76955 0.0
C1507 C 0.99505 0.43789 0.75837 0.0
C1508 C 0.98405 0.43796 0.75829 0.0
C1509 C 0.98214 0.44522 0.76983 0.0
C1510 C 0.99162 0.47071 0.79381 0.0
C1511 C 0.98264 0.47398 0.79294 0.0
C1512 C 0.98566 0.48615 0.79246 0.0
C1513 C 0.9978 0.49539 0.79318 0.0
C1514 C 0.00682 0.49204 0.79358 0.0
C1515 C 0.00377 0.47984 0.79366 0.0
H1516 H 0.47423 0.45143 0.82462 0.0
N1517 N 0.46764 0.46198 0.8006 0.0
H1518 H 0.46358 0.4418 0.85118 0.0
H1519 H 0.44833 0.46307 0.81367 0.0
H1520 H 0.43758 0.45339 0.83995 0.0
H1521 H 0.45154 0.46659 0.78327 0.0
H1522 H 0.43658 0.45325 0.76201 0.0
H1523 H 0.46645 0.44271 0.78587 0.0
H1524 H 0.45163 0.42935 0.7647 0.0
H1525 H 0.48999 0.47052 0.78973 0.0
H1526 H 0.46498 0.48183 0.80639 0.0
H1527 H 0.50575 0.49167 0.7871 0.0
H1528 H 0.48075 0.50295 0.80463 0.0
H1529 H 0.55183 0.54779 0.8098 0.0
H1530 H 0.56303 0.55594 0.83643 0.0
H1531 H 0.53758 0.56724 0.8515 0.0
H1532 H 0.52638 0.55908 0.8245 0.0
H1533 H 0.53651 0.57007 0.78529 0.0
H1534 H 0.55207 0.58229 0.76443 0.0
H1535 H 0.56076 0.55362 0.75929 0.0
H1536 H 0.54502 0.54139 0.77982 0.0
H1537 H 0.53433 0.52906 0.80567 0.0
H1538 H 0.5184 0.50811 0.80491 0.0
H1539 H 0.49333 0.51935 0.78646 0.0
N1540 N 0.53197 0.54908 0.79876 0.0
H1541 H 0.50937 0.5405 0.78804 0.0
C1542 C 0.46215 0.458 0.8172 0.0
C1543 C 0.46637 0.45208 0.82812 0.0
C1544 C 0.46021 0.4465 0.84317 0.0
C1545 C 0.44966 0.44673 0.84759 0.0
C1546 C 0.44573 0.45313 0.837 0.0
C1547 C 0.45189 0.45869 0.82192 0.0
C1548 C 0.46007 0.45557 0.78615 0.0
C1549 C 0.45171 0.45858 0.77906 0.0
C1550 C 0.44314 0.45092 0.76697 0.0
C1551 C 0.44288 0.44021 0.7617 0.0
C1552 C 0.45166 0.43759 0.76827 0.0
C1553 C 0.46013 0.44519 0.78038 0.0
C1554 C 0.47638 0.47457 0.79843 0.0
C1555 C 0.48793 0.4776 0.79284 0.0
C1556 C 0.49694 0.4897 0.79149 0.0
C1557 C 0.49462 0.49908 0.79586 0.0
C1558 C 0.48288 0.49601 0.80101 0.0
C1559 C 0.47383 0.48388 0.80219 0.0
C1560 C 0.53816 0.55277 0.81514 0.0
C1561 C 0.54849 0.55182 0.81887 0.0
C1562 C 0.55491 0.55649 0.83419 0.0
C1563 C 0.55121 0.56226 0.84609 0.0
C1564 C 0.54074 0.56296 0.84251 0.0
C1565 C 0.53428 0.55823 0.82719 0.0
C1566 C 0.53959 0.55486 0.78418 0.0
C1567 C 0.54158 0.56633 0.7793 0.0
C1568 C 0.55055 0.57333 0.76754 0.0
C1569 C 0.55779 0.56901 0.76039 0.0
C1570 C 0.55532 0.5572 0.76448 0.0
C1571 C 0.5463 0.55019 0.77628 0.0
C1572 C 0.52303 0.53645 0.79707 0.0
C1573 C 0.52546 0.5271 0.80144 0.0
C1574 C 0.51629 0.51502 0.80084 0.0
C1575 C 0.5045 0.51196 0.79567 0.0
C1576 C 0.50221 0.52133 0.79081 0.0
C1577 C 0.51139 0.53342 0.79155 0.0
H1578 H 0.67227 0.88442 0.54714 0.0
N1579 N 0.65088 0.86502 0.55734 0.0
H1580 H 0.67567 0.89632 0.52122 0.0
H1581 H 0.63537 0.86084 0.53161 0.0
H1582 H 0.63858 0.87312 0.50572 0.0
H1583 H 0.63584 0.87139 0.57082 0.0
H1584 H 0.64064 0.88753 0.5916 0.0
H1585 H 0.67162 0.87634 0.57696 0.0
H1586 H 0.67643 0.89232 0.59796 0.0
H1587 H 0.67263 0.86648 0.54964 0.0
H1588 H 0.63667 0.84234 0.56748 0.0
H1589 H 0.67705 0.85002 0.54975 0.0
H1590 H 0.64123 0.82572 0.56836 0.0
H1591 H 0.68814 0.80584 0.52759 0.0
H1592 H 0.68673 0.79517 0.50078 0.0
H1593 H 0.64988 0.76883 0.51252 0.0
H1594 H 0.65143 0.77949 0.53927 0.0
H1595 H 0.65191 0.78247 0.56984 0.0
H1596 H 0.65111 0.76715 0.59001 0.0
H1597 H 0.6897 0.78256 0.58586 0.0
H1598 H 0.69033 0.79768 0.56579 0.0
H1599 H 0.68582 0.82103 0.56401 0.0
H1600 H 0.68077 0.83711 0.56746 0.0
H1601 H 0.64444 0.81272 0.54978 0.0
N1602 N 0.67182 0.79883 0.55225 0.0
H1603 H 0.64949 0.79658 0.54722 0.0
C1604 C 0.65352 0.8716 0.54131 0.0
C1605 C 0.6649 0.88168 0.53807 0.0
C1606 C 0.66681 0.88862 0.52327 0.0
C1607 C 0.65737 0.88579 0.51144 0.0
C1608 C 0.64609 0.87551 0.51446 0.0
C1609 C 0.64421 0.8685 0.52925 0.0
C1610 C 0.65331 0.87262 0.57226 0.0
C1611 C 0.6446 0.8757 0.57708 0.0
C1612 C 0.64738 0.88494 0.58897 0.0
C1613 C 0.65898 0.89133 0.59632 0.0
C1614 C 0.66748 0.88772 0.59231 0.0
C1615 C 0.66469 0.87847 0.58039 0.0
C1616 C 0.6542 0.85566 0.55841 0.0
C1617 C 0.66567 0.85768 0.55375 0.0
C1618 C 0.66825 0.84819 0.55399 0.0
C1619 C 0.65951 0.83647 0.55907 0.0
C1620 C 0.64813 0.83456 0.56412 0.0
C1621 C 0.64553 0.84406 0.56376 0.0
C1622 C 0.66995 0.79349 0.53542 0.0
C1623 C 0.67969 0.79793 0.52413 0.0
C1624 C 0.67885 0.79182 0.50884 0.0
C1625 C 0.66821 0.78109 0.5046 0.0
C1626 C 0.65825 0.77698 0.51555 0.0
C1627 C 0.65909 0.78313 0.53081 0.0
C1628 C 0.67121 0.79116 0.56631 0.0
C1629 C 0.66019 0.78263 0.57354 0.0
C1630 C 0.65975 0.77387 0.58499 0.0
C1631 C 0.67034 0.7736 0.58951 0.0
C1632 C 0.6814 0.78258 0.58288 0.0
C1633 C 0.6818 0.79123 0.5714 0.0
C1634 C 0.66813 0.8077 0.55516 0.0
C1635 C 0.67674 0.81916 0.56108 0.0
C1636 C 0.67385 0.82836 0.56288 0.0
C1637 C 0.66223 0.82632 0.55864 0.0
C1638 C 0.65345 0.81464 0.55328 0.0
C1639 C 0.65635 0.80539 0.55165 0.0
H1640 H 0.23523 0.87052 0.54142 0.0
N1641 N 0.21563 0.86585 0.55873 0.0
H1642 H 0.24222 0.88156 0.51435 0.0
H1643 H 0.20327 0.87388 0.5387 0.0
H1644 H 0.21011 0.88489 0.51142 0.0
H1645 H 0.21008 0.88345 0.56691 0.0
H1646 H 0.2209 0.89984 0.58746 0.0
H1647 H 0.232 0.86772 0.58171 0.0
H1648 H 0.24319 0.88431 0.60197 0.0
H1649 H 0.2101 0.84424 0.54693 0.0
H1650 H 0.19472 0.86316 0.57312 0.0
H1651 H 0.19073 0.8257 0.54757 0.0
H1652 H 0.17549 0.84449 0.57491 0.0
H1653 H 0.13274 0.76854 0.5425 0.0
H1654 H 0.12219 0.76048 0.5152 0.0
H1655 H 0.1191 0.79263 0.50821 0.0
H1656 H 0.12914 0.80028 0.53576 0.0
H1657 H 0.11948 0.79511 0.5644 0.0
H1658 H 0.10209 0.78449 0.58321 0.0
H1659 H 0.11578 0.76109 0.60029 0.0
H1660 H 0.13322 0.77193 0.58166 0.0
H1661 H 0.15836 0.79135 0.56291 0.0
H1662 H 0.17749 0.8102 0.56489 0.0
H1663 H 0.15845 0.83038 0.55989 0.0
N1664 N 0.13656 0.78856 0.55836 0.0
H1665 H 0.13936 0.81143 0.55939 0.0
C1666 C 0.21879 0.8714 0.54201 0.0
C1667 C 0.22966 0.87351 0.53478 0.0
C1668 C 0.23359 0.87978 0.51929 0.0
C1669 C 0.22671 0.88411 0.5107 0.0
C1670 C 0.21567 0.88178 0.51781 0.0
C1671 C 0.21172 0.87545 0.53333 0.0
C1672 C 0.2202 0.87429 0.57286 0.0
C1673 C 0.21705 0.88337 0.57486 0.0
C1674 C 0.22336 0.89283 0.5865 0.0
C1675 C 0.23304 0.8935 0.59625 0.0
C1676 C 0.23573 0.88405 0.59485 0.0
C1677 C 0.22935 0.87455 0.58327 0.0
C1678 C 0.20399 0.85509 0.56009 0.0
C1679 C 0.20256 0.84433 0.55306 0.0
C1680 C 0.19147 0.83369 0.55362 0.0
C1681 C 0.18147 0.83344 0.56153 0.0
C1682 C 0.1829 0.84428 0.56857 0.0
C1683 C 0.194 0.85503 0.5677 0.0
C1684 C 0.13184 0.78502 0.54116 0.0
C1685 C 0.12995 0.7739 0.53489 0.0
C1686 C 0.12394 0.76934 0.51925 0.0
C1687 C 0.11973 0.77588 0.50947 0.0
C1688 C 0.12203 0.78726 0.51551 0.0
C1689 C 0.12794 0.79174 0.53125 0.0
C1690 C 0.12767 0.7843 0.5717 0.0
C1691 C 0.11892 0.78794 0.57257 0.0
C1692 C 0.1089 0.78176 0.5832 0.0
C1693 C 0.10745 0.77183 0.59313 0.0
C1694 C 0.11663 0.76874 0.59298 0.0
C1695 C 0.12661 0.77492 0.58235 0.0
C1696 C 0.14747 0.79994 0.56065 0.0
C1697 C 0.15835 0.79987 0.56245 0.0
C1698 C 0.1693 0.81069 0.56337 0.0
C1699 C 0.16965 0.82193 0.56214 0.0
C1700 C 0.15862 0.82197 0.56093 0.0
C1701 C 0.14764 0.81108 0.56038 0.0
H1702 H 0.21193 0.33165 0.54028 0.0
N1703 N 0.21556 0.35307 0.55385 0.0
H1704 H 0.22064 0.32914 0.51402 0.0
H1705 H 0.22775 0.36985 0.53027 0.0
H1706 H 0.23632 0.36737 0.50353 0.0
H1707 H 0.23612 0.36777 0.56973 0.0
H1708 H 0.24694 0.36235 0.59096 0.0
H1709 H 0.20657 0.33118 0.57001 0.0
H1710 H 0.21738 0.32558 0.59121 0.0
H1711 H 0.19449 0.33475 0.53977 0.0
H1712 H 0.20901 0.36634 0.57221 0.0
H1713 H 0.17473 0.33316 0.54075 0.0
H1714 H 0.18903 0.36432 0.57435 0.0
H1715 H 0.11869 0.32571 0.54122 0.0
H1716 H 0.107 0.32013 0.51436 0.0
H1717 H 0.1267 0.35735 0.49759 0.0
H1718 H 0.13832 0.36282 0.52451 0.0
H1719 H 0.12673 0.36296 0.56131 0.0
H1720 H 0.11046 0.35826 0.58144 0.0
H1721 H 0.10898 0.32429 0.59351 0.0
H1722 H 0.12493 0.32892 0.57286 0.0
H1723 H 0.13817 0.32874 0.55242 0.0
H1724 H 0.15729 0.32883 0.55557 0.0
H1725 H 0.17604 0.36795 0.55774 0.0
N1726 N 0.13511 0.34865 0.55139 0.0
H1727 H 0.15679 0.36761 0.55575 0.0
C1728 C 0.21921 0.351 0.53728 0.0
C1729 C 0.21711 0.33949 0.53228 0.0
C1730 C 0.22206 0.33804 0.51715 0.0
C1731 C 0.22924 0.34806 0.50668 0.0
C1732 C 0.23098 0.35949 0.51142 0.0
C1733 C 0.22601 0.36092 0.52658 0.0
C1734 C 0.22063 0.3499 0.56826 0.0
C1735 C 0.23188 0.35862 0.5747 0.0
C1736 C 0.23802 0.3555 0.58683 0.0
C1737 C 0.23304 0.34351 0.59269 0.0
C1738 C 0.22149 0.33486 0.58679 0.0
C1739 C 0.21529 0.33804 0.57474 0.0
C1740 C 0.20339 0.3509 0.55561 0.0
C1741 C 0.19345 0.34129 0.54731 0.0
C1742 C 0.18202 0.3403 0.54805 0.0
C1743 C 0.18021 0.34872 0.55743 0.0
C1744 C 0.19007 0.35787 0.56655 0.0
C1745 C 0.2015 0.35899 0.56551 0.0
C1746 C 0.12933 0.34473 0.53485 0.0
C1747 C 0.12063 0.33262 0.53165 0.0
C1748 C 0.11391 0.32945 0.51633 0.0
C1749 C 0.11588 0.33831 0.50391 0.0
C1750 C 0.12505 0.35029 0.50682 0.0
C1751 C 0.13167 0.35345 0.52217 0.0
C1752 C 0.12711 0.34638 0.56559 0.0
C1753 C 0.12305 0.35463 0.5686 0.0
C1754 C 0.11376 0.35191 0.58017 0.0
C1755 C 0.10831 0.34084 0.58909 0.0
C1756 C 0.1128 0.33281 0.58666 0.0
C1757 C 0.12206 0.33552 0.57496 0.0
C1758 C 0.14607 0.3482 0.55418 0.0
C1759 C 0.14637 0.3373 0.55404 0.0
C1760 C 0.15738 0.3374 0.55558 0.0
C1761 C 0.16832 0.34841 0.55696 0.0
C1762 C 0.16787 0.35926 0.55715 0.0
C1763 C 0.15688 0.35912 0.55589 0.0
H1764 H 0.02963 0.40775 0.0346 0.0
H1765 H 0.028 0.41858 0.05932 0.0
H1766 H 0.99537 0.38667 0.0746 0.0
H1767 H 0.99696 0.37566 0.04998 0.0
H1768 H 0.00884 0.42281 0.0668 0.0
H1769 H 0.01594 0.3968 0.11887 0.0
H1770 H 0.01969 0.39609 0.09675 0.0
H1771 H 0.00428 0.38781 0.10358 0.0
C1772 C 0.02215 0.40296 0.04327 0.0
C1773 C 0.01345 0.39078 0.04028 0.0
C1774 C 0.02122 0.40919 0.05738 0.0
C1775 C 0.01165 0.40339 0.06889 0.0
C1776 C 0.00296 0.39125 0.06603 0.0
H1777 H 0.99178 0.42736 0.16123 0.0
H1778 H 0.99226 0.41606 0.13621 0.0
C1779 C 0.00386 0.38499 0.05189 0.0
C1780 C 0.01059 0.41021 0.08355 0.0
H1781 H 0.01051 0.41131 0.12739 0.0
C1782 C 0.00923 0.42033 0.08006 0.0
C1783 C 0.01106 0.40691 0.10081 0.0
C1784 C 0.01292 0.39637 0.10531 0.0
C1785 C 0.00821 0.42717 0.09338 0.0
C1786 C 0.00878 0.42393 0.11064 0.0
C1787 C 0.01006 0.41377 0.11413 0.0
C1788 C 0.00821 0.43104 0.12532 0.0
C1789 C 0.00629 0.43767 0.08884 0.0
C1790 C 0.01703 0.44322 0.12751 0.0
C1791 C 0.01672 0.44975 0.14173 0.0
C1792 C 0.00763 0.44419 0.1541 0.0
C1793 C 0.99879 0.43199 0.15181 0.0
C1794 C 0.9991 0.42548 0.13758 0.0
H1795 H 0.00278 0.43691 0.0755 0.0
H1796 H 0.99991 0.43827 0.09783 0.0
H1797 H 0.01503 0.44621 0.08976 0.0
H1798 H 0.02427 0.44763 0.11836 0.0
H1799 H 0.02363 0.45913 0.14305 0.0
H1800 H 0.60276 0.61318 0.03553 0.0
H1801 H 0.59009 0.60067 0.05924 0.0
H1802 H 0.62201 0.61095 0.09018 0.0
H1803 H 0.63453 0.62382 0.06681 0.0
H1804 H 0.58881 0.58146 0.07377 0.0
H1805 H 0.60207 0.61652 0.12382 0.0
H1806 H 0.60617 0.62025 0.1016 0.0
H1807 H 0.61501 0.61625 0.11562 0.0
C1808 C 0.60699 0.61277 0.04748 0.0
C1809 C 0.61958 0.61907 0.04927 0.0
C1810 C 0.59979 0.60565 0.06099 0.0
C1811 C 0.60507 0.60493 0.07659 0.0
C1812 C 0.61767 0.61153 0.07846 0.0
H1813 H 0.57454 0.54684 0.15094 0.0
H1814 H 0.58451 0.56006 0.12654 0.0
C1815 C 0.62484 0.6187 0.06501 0.0
C1816 C 0.59749 0.59688 0.09062 0.0
H1817 H 0.59236 0.59596 0.13372 0.0
C1818 C 0.58955 0.58465 0.08686 0.0
C1819 C 0.59818 0.60108 0.10764 0.0
C1820 C 0.60572 0.61427 0.11237 0.0
C1821 C 0.58264 0.57642 0.09972 0.0
C1822 C 0.58389 0.58048 0.11693 0.0
C1823 C 0.59151 0.59279 0.12059 0.0
C1824 C 0.57745 0.57215 0.13138 0.0
C1825 C 0.57397 0.56351 0.09467 0.0
C1826 C 0.5704 0.57468 0.14252 0.0
C1827 C 0.56493 0.56731 0.15677 0.0
C1828 C 0.56637 0.5572 0.16019 0.0
C1829 C 0.57331 0.5546 0.14884 0.0
C1830 C 0.57888 0.56206 0.13469 0.0
H1831 H 0.57123 0.56284 0.08093 0.0
H1832 H 0.57845 0.55798 0.09645 0.0
H1833 H 0.56574 0.55958 0.10267 0.0
H1834 H 0.56924 0.58248 0.14031 0.0
H1835 H 0.55987 0.56977 0.16536 0.0
H1836 H 0.37817 0.01139 0.06091 0.0
H1837 H 0.39133 0.01108 0.08378 0.0
H1838 H 0.39778 0.98634 0.05386 0.0
H1839 H 0.38544 0.98756 0.03038 0.0
H1840 H 0.38906 0.99362 0.10302 0.0
H1841 H 0.41993 0.99461 0.05993 0.0
H1842 H 0.4313 0.00938 0.06672 0.0
H1843 H 0.41778 0.00737 0.05637 0.0
C1844 C 0.38282 0.0063 0.05899 0.0
C1845 C 0.38141 1.00009 0.04356 0.0
C1846 C 0.39017 0.00593 0.07216 0.0
C1847 C 0.39589 0.99895 0.07042 0.0
C1848 C 0.39392 0.99219 0.0553 0.0
H1849 H 0.44443 0.99132 0.1442 0.0
H1850 H 0.43091 0.98814 0.1198 0.0
C1851 C 0.38681 0.99282 0.04194 0.0
C1852 C 0.40336 0.99838 0.08486 0.0
H1853 H 0.43143 0.00321 0.09576 0.0
C1854 C 0.39834 0.99576 0.10138 0.0
C1855 C 0.41538 1.00077 0.08276 0.0
C1856 C 0.42142 0.00328 0.06549 0.0
C1857 C 0.40504 0.99584 0.11584 0.0
C1858 C 0.41725 0.99895 0.11386 0.0
C1859 C 0.42213 0.00102 0.0973 0.0
C1860 C 0.42525 1.00062 0.12883 0.0
C1861 C 0.3989 0.99245 0.13307 0.0
C1862 C 0.42671 0.00883 0.14189 0.0
C1863 C 0.43424 0.0105 0.15597 0.0
C1864 C 0.44073 0.00421 0.15718 0.0
C1865 C 0.43945 0.99618 0.14386 0.0
C1866 C 0.43178 0.99441 0.12984 0.0
H1867 H 0.38902 0.98637 0.13156 0.0
H1868 H 0.40258 0.98788 0.14136 0.0
H1869 H 0.40029 1.00076 0.13969 0.0
H1870 H 0.42203 0.01398 0.14119 0.0
H1871 H 0.43483 0.01663 0.16604 0.0
H1872 H 0.40089 0.02448 0.97091 0.0
H1873 H 0.41043 0.02064 0.94656 0.0
H1874 H 0.38026 0.98451 0.94193 0.0
H1875 H 0.37059 0.98821 0.96638 0.0
H1876 H 0.4037 0.98625 0.94224 0.0
H1877 H 0.40041 0.0175 0.89505 0.0
H1878 H 0.4067 0.02406 0.91564 0.0
H1879 H 0.39124 0.0123 0.91409 0.0
C1880 C 0.39619 0.01573 0.96466 0.0
C1881 C 0.38492 0.00666 0.97063 0.0
C1882 C 0.40166 0.01358 0.95068 0.0
C1883 C 0.396 0.00233 0.94236 0.0
C1884 C 0.38475 0.99327 0.94816 0.0
H1885 H 0.41556 0.98332 0.84584 0.0
H1886 H 0.40531 0.98666 0.8698 0.0
C1887 C 0.37922 0.99543 0.9621 0.0
C1888 C 0.40204 0.99992 0.92796 0.0
H1889 H 0.41246 0.00886 0.88723 0.0
C1890 C 0.40559 0.99115 0.93018 0.0
C1891 C 0.40442 0.0063 0.91224 0.0
C1892 C 0.40042 0.0155 0.90897 0.0
C1893 C 0.41163 0.9887 0.91714 0.0
C1894 C 0.41425 0.99527 0.90157 0.0
C1895 C 0.41054 0.00392 0.89926 0.0
C1896 C 0.42053 0.99308 0.88728 0.0
C1897 C 0.415 0.97899 0.92002 0.0
C1898 C 0.43253 0.99566 0.88914 0.0
C1899 C 0.43843 0.99373 0.87545 0.0
C1900 C 0.4324 0.98915 0.85969 0.0
C1901 C 0.42039 0.98664 0.8579 0.0
C1902 C 0.41454 0.98862 0.87153 0.0
H1903 H 0.41011 0.97306 0.93105 0.0
H1904 H 0.41305 0.97331 0.90834 0.0
H1905 H 0.42481 0.98331 0.92278 0.0
H1906 H 0.43737 0.99927 0.90112 0.0
H1907 H 0.44766 0.99573 0.87724 0.0
H1908 H 0.99191 0.38901 0.98467 0.0
H1909 H 0.9893 0.40065 0.96138 0.0
H1910 H 0.00655 0.38794 0.92621 0.0
H1911 H 0.00927 0.37641 0.94959 0.0
H1912 H 0.01496 0.41257 0.92354 0.0
H1913 H 0.965 0.38697 0.92186 0.0
H1914 H 0.97129 0.39297 0.94265 0.0
H1915 H 0.97387 0.38158 0.93317 0.0
C1916 C 0.99519 0.3888 0.97196 0.0
C1917 C 1.00112 0.38218 0.96893 0.0
C1918 C 0.99361 0.39534 0.95866 0.0
C1919 C 0.99762 0.39506 0.94203 0.0
C1920 C 0.00341 0.38829 0.93896 0.0
H1921 H 0.97906 0.41749 0.84665 0.0
H1922 H 0.98113 0.40641 0.87102 0.0
C1923 C 0.00504 0.3818 0.95229 0.0
C1924 C 0.99591 0.40193 0.92785 0.0
H1925 H 0.97447 0.40486 0.90498 0.0
C1926 C 0.00613 0.41089 0.91947 0.0
C1927 C 0.98433 0.39961 0.92243 0.0
C1928 C 0.97298 0.38969 0.93037 0.0
C1929 C 0.00512 0.41767 0.90591 0.0
C1930 C 0.99357 0.41558 0.90079 0.0
C1931 C 0.98333 0.40654 0.90906 0.0
C1932 C 0.99191 0.42237 0.88645 0.0
C1933 C 0.01643 0.42681 0.89693 0.0
C1934 C 0.99705 0.435 0.88719 0.0
C1935 C 0.99587 0.44137 0.87327 0.0
C1936 C 0.98941 0.4352 0.85842 0.0
C1937 C 0.98397 0.42251 0.85796 0.0
C1938 C 0.98519 0.41616 0.87184 0.0
H1939 H 0.02408 0.42514 0.89945 0.0
H1940 H 0.01494 0.42665 0.88282 0.0
H1941 H 0.01906 0.436 0.90172 0.0
H1942 H 0.00204 0.43994 0.8985 0.0
H1943 H 1.00002 0.45112 0.87413 0.0
H1944 H 0.62288 0.59751 0.97682 0.0
H1945 H 0.60979 0.58826 0.95186 0.0
H1946 H 0.60672 0.62031 0.94461 0.0
H1947 H 0.61996 0.62975 0.9694 0.0
H1948 H 0.58616 0.58339 0.94802 0.0
H1949 H 0.61486 0.61414 0.89642 0.0
H1950 H 0.62072 0.61376 0.91751 0.0
H1951 H 0.61246 0.62168 0.91413 0.0
C1952 C 0.61957 0.60269 0.96982 0.0
C1953 C 0.62254 0.61442 0.97515 0.0
C1954 C 0.61205 0.59736 0.95556 0.0
C1955 C 0.60738 0.60364 0.94627 0.0
C1956 C 0.61041 0.61538 0.95139 0.0
H1957 H 0.55735 0.58436 0.85987 0.0
H1958 H 0.5704 0.59419 0.8848 0.0
C1959 C 0.61795 0.62075 0.96564 0.0
C1960 C 0.59887 0.59765 0.93175 0.0
H1961 H 0.59472 0.59987 0.88872 0.0
C1962 C 0.58805 0.58696 0.93504 0.0
C1963 C 0.60134 0.60236 0.91485 0.0
C1964 C 0.61302 0.61356 0.91042 0.0
C1965 C 0.57955 0.58091 0.92191 0.0
C1966 C 0.58204 0.58559 0.905 0.0
C1967 C 0.59283 0.59632 0.90172 0.0
C1968 C 0.57368 0.57937 0.89044 0.0
C1969 C 0.5679 0.56968 0.92629 0.0
C1970 C 0.5712 0.56778 0.88538 0.0
C1971 C 0.5637 0.56211 0.87121 0.0
C1972 C 0.55858 0.56796 0.86179 0.0
C1973 C 0.561 0.57953 0.867 0.0
C1974 C 0.56853 0.58521 0.88115 0.0
H1975 H 0.56602 0.56907 0.94028 0.0
H1976 H 0.56019 0.56944 0.91917 0.0
H1977 H 0.56851 0.56158 0.92257 0.0
H1978 H 0.57523 0.56319 0.89221 0.0
H1979 H 0.56196 0.55317 0.86759 0.0
H1980 H 0.99772 0.60741 0.99082 0.0
H1981 H 0.99772 0.59389 0.96841 0.0
H1982 H 0.01938 0.62478 0.93634 0.0
H1983 H 0.01945 0.63827 0.95881 0.0
H1984 H 0.98835 0.59141 0.93587 0.0
H1985 H 0.03704 0.60573 0.93194 0.0
H1986 H 0.03036 0.60843 0.95047 0.0
H1987 H 0.03362 0.61786 0.93172 0.0
C1988 C 0.0027 0.61129 0.97912 0.0
C1989 C 0.0089 0.62387 0.9767 0.0
C1990 C 0.00266 0.60358 0.96632 0.0
C1991 C 0.0087 0.60831 0.95078 0.0
C1992 C 0.01495 0.62091 0.94839 0.0
H1993 H 0.99684 0.57331 0.85188 0.0
H1994 H 0.99623 0.58426 0.87719 0.0
C1995 C 0.01502 0.62862 0.96123 0.0
C1996 C 0.00773 0.60002 0.93665 0.0
H1997 H 0.02443 0.59289 0.91002 0.0
C1998 C 0.99623 0.59168 0.93029 0.0
C1999 C 0.01799 0.60029 0.92941 0.0
C2000 C 0.03048 0.60849 0.93626 0.0
C2001 C 0.99477 0.58378 0.91672 0.0
C2002 C 0.00508 0.58435 0.90922 0.0
C2003 C 0.01654 0.59252 0.91576 0.0
C2004 C 0.00432 0.57676 0.89434 0.0
C2005 C 0.98221 0.57485 0.91063 0.0
C2006 C 0.00915 0.56896 0.89555 0.0
C2007 C 0.00952 0.56268 0.88109 0.0
C2008 C 0.00513 0.56414 0.8651 0.0
C2009 C 1.00009 0.57179 0.86404 0.0
C2010 C 0.99972 0.57807 0.87851 0.0
H2011 H 0.97536 0.57333 0.92048 0.0
H2012 H 0.98005 0.57843 0.89889 0.0
H2013 H 0.98151 0.56602 0.90737 0.0
H2014 H 0.0128 0.56788 0.90765 0.0
H2015 H 0.01335 0.55676 0.88238 0.0
H2016 H 0.40728 0.38099 0.97965 0.0
H2017 H 0.41702 0.39408 0.95511 0.0
H2018 H 0.38472 0.39582 0.94405 0.0
H2019 H 0.37477 0.38261 0.96866 0.0
H2020 H 0.39558 0.39163 0.91474 0.0
H2021 H 0.42861 0.43074 0.9535 0.0
H2022 H 0.42823 0.41677 0.95873 0.0
H2023 H 0.4152 0.41835 0.96262 0.0
C2024 C 0.40218 0.38409 0.97202 0.0
C2025 C 0.39022 0.38076 0.97624 0.0
C2026 C 0.40781 0.39165 0.95804 0.0
C2027 C 0.40167 0.39609 0.94797 0.0
C2028 C 0.38965 0.39256 0.95178 0.0
H2029 H 0.43856 0.45356 0.87164 0.0
H2030 H 0.42599 0.4415 0.89566 0.0
C2031 C 0.38398 0.385 0.96584 0.0
C2032 C 0.40784 0.40431 0.93338 0.0
H2033 H 0.43249 0.43137 0.92344 0.0
C2034 C 0.40358 0.40037 0.91663 0.0
C2035 C 0.41817 0.41579 0.93591 0.0
C2036 C 0.42278 0.42074 0.95367 0.0
C2037 C 0.40969 0.40739 0.90227 0.0
C2038 C 0.42039 0.41857 0.90478 0.0
C2039 C 0.42435 0.42274 0.92156 0.0
C2040 C 0.42786 0.42583 0.89016 0.0
C2041 C 0.40467 0.40278 0.88454 0.0
C2042 C 0.43321 0.42108 0.87932 0.0
C2043 C 0.44038 0.42793 0.86564 0.0
C2044 C 0.44238 0.4397 0.86257 0.0
C2045 C 0.4371 0.44448 0.87358 0.0
C2046 C 0.42996 0.43763 0.88732 0.0
H2047 H 0.39492 0.39596 0.88492 0.0
H2048 H 0.40592 0.4103 0.87593 0.0
H2049 H 0.40951 0.39839 0.87891 0.0
H2050 H 0.43188 0.41208 0.88147 0.0
H2051 H 0.44419 0.42391 0.8573 0.0
H2052 H 0.62821 0.99596 0.95257 0.0
H2053 H 0.61551 0.99596 0.92877 0.0
H2054 H 0.60386 0.01631 0.95978 0.0
H2055 H 0.61615 0.01573 0.98391 0.0
H2056 H 0.5853 0.9988 0.94484 0.0
H2057 H 0.62002 0.02137 0.89531 0.0
H2058 H 0.62031 0.00828 0.90332 0.0
H2059 H 0.62384 0.02078 0.91755 0.0
C2060 C 0.62282 1.00031 0.95428 0.0
C2061 C 0.62271 0.00541 0.97016 0.0
C2062 C 0.61577 1.00054 0.94059 0.0
C2063 C 0.60882 0.00627 0.94237 0.0
C2064 C 0.60911 0.01181 0.9581 0.0
H2065 H 0.5719 0.01474 0.85258 0.0
H2066 H 0.58495 0.01871 0.87772 0.0
C2067 C 0.61611 0.01148 0.97185 0.0
C2068 C 0.6007 0.0058 0.9282 0.0
H2069 H 0.59954 0.00993 0.88497 0.0
C2070 C 0.58844 0.00128 0.93177 0.0
C2071 C 0.60481 0.00941 0.9112 0.0
C2072 C 0.61799 0.01536 0.90667 0.0
C2073 C 0.58011 0.99973 0.91873 0.0
C2074 C 0.5841 0.00256 0.90157 0.0
C2075 C 0.59643 0.00757 0.89809 0.0
C2076 C 0.57566 1.00025 0.88696 0.0
C2077 C 0.56714 0.99516 0.92355 0.0
C2078 C 0.56607 0.98856 0.88379 0.0
C2079 C 0.55844 0.98629 0.86958 0.0
C2080 C 0.56037 0.99564 0.85807 0.0
C2081 C 0.56999 0.00736 0.86131 0.0
C2082 C 0.57754 0.00963 0.87561 0.0
H2083 H 0.56636 0.9972 0.9372 0.0
H2084 H 0.56291 0.99921 0.91527 0.0
H2085 H 0.56201 0.98519 0.92195 0.0
H2086 H 0.56459 0.98111 0.89213 0.0
H2087 H 0.55107 0.97718 0.8676 0.0
H2088 H 0.59916 0.97822 0.03878 0.0
H2089 H 0.58836 0.98043 0.06281 0.0
H2090 H 0.6193 0.01474 0.07573 0.0
H2091 H 0.63035 0.01262 0.05158 0.0
H2092 H 0.60786 0.99858 0.10441 0.0
H2093 H 0.57512 0.00433 0.0636 0.0
H2094 H 0.57645 0.99133 0.05811 0.0
H2095 H 0.58916 0.00624 0.05544 0.0
C2096 C 0.60376 0.98625 0.0467 0.0
C2097 C 0.61564 0.99528 0.04312 0.0
C2098 C 0.59751 0.98752 0.0604 0.0
C2099 C 0.60294 0.99785 0.07082 0.0
C2100 C 0.61492 0.00674 0.06771 0.0
H2101 H 0.57254 0.01195 0.16321 0.0
H2102 H 0.58595 0.01465 0.13926 0.0
C2103 C 0.62121 0.0055 0.05392 0.0
C2104 C 0.59603 0.99919 0.085 0.0
H2105 H 0.57006 0.99976 0.09321 0.0
C2106 C 0.59969 0.99902 0.10202 0.0
C2107 C 0.58539 0.99978 0.08178 0.0
C2108 C 0.58134 1.00055 0.06374 0.0
C2109 C 0.59265 0.99882 0.11593 0.0
C2110 C 0.58179 0.99899 0.11268 0.0
C2111 C 0.57836 0.99957 0.09566 0.0
C2112 C 0.5735 0.99785 0.12669 0.0
C2113 C 0.5966 0.99786 0.13395 0.0
C2114 C 0.5619 0.98774 0.12721 0.0
C2115 C 0.55417 0.98623 0.14074 0.0
C2116 C 0.55787 0.99485 0.154 0.0
C2117 C 0.56937 0.00519 0.15314 0.0
C2118 C 0.57711 0.00667 0.13959 0.0
H2119 H 0.60378 0.9953 0.13403 0.0
H2120 H 0.60022 0.00674 0.14048 0.0
H2121 H 0.58886 0.99107 0.14153 0.0
H2122 H 0.5589 0.98087 0.1173 0.0
H2123 H 0.54531 0.97827 0.14088 0.0
H2124 H 0.99309 0.62251 0.05077 0.0
H2125 H 0.98908 0.60901 0.07529 0.0
H2126 H 0.02669 0.61914 0.07794 0.0
H2127 H 0.03076 0.63246 0.05321 0.0
H2128 H 0.01215 0.59483 0.07856 0.0
H2129 H 0.99642 0.61632 0.12599 0.0
H2130 H 0.98824 0.61267 0.10597 0.0
H2131 H 0.00399 0.62382 0.10646 0.0
C2132 C 1.00055 0.62203 0.05671 0.0
C2133 C 0.01226 0.62861 0.04999 0.0
C2134 C 0.99824 0.61432 0.07079 0.0
C2135 C 0.0076 0.61316 0.07857 0.0
C2136 C 0.01933 0.61991 0.07214 0.0
H2137 H 0.00707 0.57955 0.17542 0.0
H2138 H 0.01003 0.59319 0.1515 0.0
C2139 C 0.02164 0.62755 0.05801 0.0
C2140 C 0.00512 0.60444 0.0928 0.0
H2141 H 0.99385 0.59703 0.13339 0.0
C2142 C 0.00817 0.59532 0.09057 0.0
C2143 C 1.00001 0.60515 0.1085 0.0
C2144 C 0.99707 0.61508 0.11199 0.0
C2145 C 0.00627 0.5869 0.1036 0.0
C2146 C 1.00089 0.58743 0.11915 0.0
C2147 C 0.99785 0.59656 0.12139 0.0
C2148 C 0.99889 0.57898 0.13357 0.0
C2149 C 0.01034 0.57772 0.10076 0.0
C2150 C 0.99153 0.56643 0.1315 0.0
C2151 C 0.98996 0.55855 0.14512 0.0
C2152 C 0.99565 0.5631 0.1611 0.0
C2153 C 0.00278 0.5757 0.16319 0.0
C2154 C 0.00439 0.58354 0.14957 0.0
H2155 H 0.01698 0.58048 0.0902 0.0
H2156 H 0.01445 0.57639 0.11263 0.0
H2157 H 0.00243 0.56892 0.09718 0.0
H2158 H 0.987 0.56272 0.11936 0.0
H2159 H 0.98442 0.54891 0.14305 0.0
H2160 H 0.38018 0.36817 0.06742 0.0
H2161 H 0.39306 0.38089 0.09092 0.0
H2162 H 0.40354 0.41271 0.05978 0.0
H2163 H 0.391 0.39987 0.03601 0.0
H2164 H 0.42265 0.4138 0.07475 0.0
H2165 H 0.3876 0.40152 0.12397 0.0
H2166 H 0.38769 0.38837 0.11594 0.0
H2167 H 0.38395 0.39729 0.10169 0.0
C2168 C 0.38536 0.37788 0.0656 0.0
C2169 C 0.38503 0.38307 0.04981 0.0
C2170 C 0.39253 0.38516 0.07911 0.0
C2171 C 0.39918 0.39779 0.07722 0.0
C2172 C 0.39852 0.40299 0.06154 0.0
H2173 H 0.43509 0.44387 0.16615 0.0
H2174 H 0.42239 0.43479 0.14073 0.0
C2175 C 0.39139 0.39569 0.048 0.0
C2176 C 0.40721 0.4055 0.0913 0.0
H2177 H 0.40806 0.41122 0.13427 0.0
C2178 C 0.41944 0.41327 0.08774 0.0
C2179 C 0.40298 0.40509 0.10818 0.0
C2180 C 0.38981 0.39772 0.11263 0.0
C2181 C 0.42765 0.42024 0.10071 0.0
C2182 C 0.42355 0.41926 0.11779 0.0
C2183 C 0.41124 0.41186 0.12123 0.0
C2184 C 0.43189 0.42557 0.13238 0.0
C2185 C 0.4406 0.42865 0.09593 0.0
C2186 C 0.4415 0.42348 0.13609 0.0
C2187 C 0.44889 0.42881 0.15046 0.0
C2188 C 0.44671 0.4362 0.16161 0.0
C2189 C 0.43716 0.43839 0.15773 0.0
C2190 C 0.42982 0.43312 0.14327 0.0
H2191 H 0.4414 0.43128 0.08215 0.0
H2192 H 0.44464 0.43699 0.10388 0.0
H2193 H 0.44589 0.42396 0.09803 0.0
H2194 H 0.44313 0.41749 0.1281 0.0
H2195 H 0.45623 0.42701 0.15294 0.0
H2196 H 0.65944 0.70803 0.38185 0.0
H2197 H 0.65642 0.7184 0.40612 0.0
H2198 H 0.69345 0.74675 0.40308 0.0
H2199 H 0.69661 0.73651 0.37887 0.0
H2200 H 0.68485 0.73738 0.43735 0.0
H2201 H 0.65517 0.75068 0.40155 0.0
H2202 H 0.65106 0.73496 0.40053 0.0
H2203 H 0.66481 0.74614 0.39084 0.0
C2204 C 0.66698 0.71643 0.38638 0.0
C2205 C 0.67827 0.72144 0.37832 0.0
C2206 C 0.6652 0.72238 0.4002 0.0
C2207 C 0.67467 0.7334 0.40622 0.0
C2208 C 0.68602 0.73827 0.39854 0.0
H2209 H 0.67696 0.78904 0.47224 0.0
H2210 H 0.67796 0.77704 0.44836 0.0
C2211 C 0.68779 0.73239 0.38469 0.0
C2212 C 0.67281 0.73995 0.4205 0.0
H2213 H 0.65846 0.75567 0.43108 0.0
C2214 C 0.67905 0.74134 0.43603 0.0
C2215 C 0.66533 0.7452 0.41861 0.0
C2216 C 0.65875 0.74429 0.40196 0.0
C2217 C 0.67796 0.74782 0.44981 0.0
C2218 C 0.67038 0.75296 0.44799 0.0
C2219 C 0.66419 0.75163 0.43243 0.0
C2220 C 0.66905 0.76002 0.46203 0.0
C2221 C 0.68511 0.74934 0.46609 0.0
C2222 C 0.66346 0.75436 0.47744 0.0
C2223 C 0.66287 0.76116 0.49107 0.0
C2224 C 0.66787 0.77378 0.48953 0.0
C2225 C 0.67315 0.77936 0.47387 0.0
C2226 C 0.67368 0.77253 0.46021 0.0
H2227 H 0.69227 0.74689 0.46422 0.0
H2228 H 0.68936 0.75882 0.47077 0.0
H2229 H 0.67897 0.74339 0.47623 0.0
H2230 H 0.65974 0.74469 0.47901 0.0
H2231 H 0.65886 0.7566 0.50301 0.0
H2232 H 0.29948 0.95405 0.39931 0.0
H2233 H 0.28642 0.94079 0.42194 0.0
H2234 H 0.25518 0.93565 0.39292 0.0
H2235 H 0.2683 0.94785 0.36951 0.0
H2236 H 0.27246 0.94251 0.44235 0.0
H2237 H 0.24351 0.90175 0.40348 0.0
H2238 H 0.25549 0.91509 0.39386 0.0
H2239 H 0.24118 0.91411 0.39767 0.0
C2240 C 0.2898 0.94962 0.3975 0.0
C2241 C 0.28485 0.95128 0.38226 0.0
C2242 C 0.28232 0.94225 0.41057 0.0
C2243 C 0.2697 0.9368 0.409 0.0
C2244 C 0.2648 0.93919 0.39419 0.0
H2245 H 0.22619 0.90474 0.50165 0.0
H2246 H 0.23541 0.91763 0.47653 0.0
C2247 C 0.2723 0.94626 0.38087 0.0
C2248 C 0.26188 0.92909 0.42324 0.0
H2249 H 0.23787 0.90137 0.43271 0.0
C2250 C 0.26493 0.93349 0.44016 0.0
C2251 C 0.25189 0.91734 0.42052 0.0
C2252 C 0.2479 0.91178 0.40291 0.0
C2253 C 0.25862 0.92642 0.45436 0.0
C2254 C 0.24876 0.9147 0.4516 0.0
C2255 C 0.24546 0.91037 0.43475 0.0
C2256 C 0.24227 0.90648 0.46608 0.0
C2257 C 0.26285 0.9314 0.47222 0.0
C2258 C 0.24265 0.8957 0.46815 0.0
C2259 C 0.23728 0.88825 0.48235 0.0
C2260 C 0.23139 0.89143 0.49477 0.0
C2261 C 0.23061 0.902 0.49229 0.0
C2262 C 0.23599 0.90945 0.47805 0.0
H2263 H 0.27204 0.93942 0.47221 0.0
H2264 H 0.2566 0.93421 0.47766 0.0
H2265 H 0.26288 0.92441 0.48082 0.0
H2266 H 0.24737 0.89319 0.45898 0.0
H2267 H 0.23787 0.88007 0.48372 0.0
H2268 H 0.05096 0.31869 0.36521 0.0
H2269 H 0.06427 0.31901 0.38845 0.0
H2270 H 0.05319 0.33959 0.41996 0.0
H2271 H 0.04012 0.33951 0.39651 0.0
H2272 H 0.07704 0.34901 0.42082 0.0
H2273 H 0.05577 0.29972 0.43228 0.0
H2274 H 0.06034 0.30381 0.41041 0.0
H2275 H 0.04875 0.30632 0.41916 0.0
C2276 C 0.05143 0.32329 0.37712 0.0
C2277 C 0.04487 0.32939 0.379 0.0
C2278 C 0.05892 0.32336 0.39044 0.0
C2279 C 0.05961 0.32917 0.40606 0.0
C2280 C 0.0528 0.33504 0.40804 0.0
H2281 H 0.09134 0.32467 0.50286 0.0
H2282 H 0.0779 0.32189 0.47854 0.0
C2283 C 0.04542 0.33507 0.39464 0.0
C2284 C 0.06781 0.3296 0.42009 0.0
H2285 H 0.07475 0.31208 0.44608 0.0
C2286 C 0.07653 0.34095 0.42631 0.0
C2287 C 0.06702 0.31902 0.42748 0.0
C2288 C 0.05739 0.30653 0.42212 0.0
C2289 C 0.08458 0.34209 0.43954 0.0
C2290 C 0.08407 0.33155 0.44654 0.0
C2291 C 0.07525 0.32015 0.4405 0.0
C2292 C 0.09228 0.33222 0.46067 0.0
C2293 C 0.09333 0.35458 0.44617 0.0
C2294 C 0.10483 0.3386 0.45853 0.0
C2295 C 0.11253 0.34023 0.47242 0.0
C2296 C 0.10782 0.33537 0.48865 0.0
C2297 C 0.09525 0.32844 0.49049 0.0
C2298 C 0.08755 0.32688 0.47663 0.0
H2299 H 0.09047 0.36128 0.44262 0.0
H2300 H 0.09428 0.35456 0.46038 0.0
H2301 H 0.10231 0.35763 0.44046 0.0
H2302 H 0.10867 0.34254 0.44621 0.0
H2303 H 0.12218 0.34546 0.47055 0.0
H2304 H 0.06464 0.35268 0.30474 0.0
H2305 H 0.07445 0.34879 0.28083 0.0
H2306 H 0.04652 0.31136 0.28015 0.0
H2307 H 0.03642 0.31523 0.30387 0.0
H2308 H 0.08376 0.33387 0.27948 0.0
H2309 H 0.04766 0.32036 0.23005 0.0
H2310 H 0.04748 0.32734 0.25009 0.0
H2311 H 0.04291 0.31151 0.24937 0.0
C2312 C 0.06049 0.34362 0.29944 0.0
C2313 C 0.04969 0.33428 0.3062 0.0
C2314 C 0.06614 0.34141 0.28578 0.0
C2315 C 0.06117 0.32982 0.27855 0.0
C2316 C 0.05039 0.32044 0.28525 0.0
H2317 H 0.10445 0.31116 0.21097 0.0
H2318 H 0.09255 0.31168 0.2351 0.0
C2319 C 0.04465 0.32267 0.29887 0.0
C2320 C 0.06752 0.32758 0.26435 0.0
H2321 H 0.06458 0.31848 0.2225 0.0
C2322 C 0.07956 0.33048 0.26702 0.0
C2323 C 0.06206 0.32325 0.24807 0.0
C2324 C 0.04936 0.32054 0.24411 0.0
C2325 C 0.08635 0.32933 0.25382 0.0
C2326 C 0.08085 0.32485 0.2376 0.0
C2327 C 0.06876 0.32181 0.23499 0.0
C2328 C 0.08768 0.32402 0.22282 0.0
C2329 C 0.09947 0.33335 0.2572 0.0
C2330 C 0.08856 0.33043 0.20768 0.0
C2331 C 0.09515 0.32998 0.19378 0.0
C2332 C 0.10108 0.32313 0.19469 0.0
C2333 C 0.1 0.31652 0.20978 0.0
C2334 C 0.09331 0.31691 0.22368 0.0
H2335 H 0.10301 0.33933 0.26866 0.0
H2336 H 0.10049 0.32529 0.25962 0.0
H2337 H 0.10507 0.33827 0.24596 0.0
H2338 H 0.08422 0.3359 0.20666 0.0
H2339 H 0.0955 0.33494 0.18223 0.0
H2340 H 0.68321 0.71372 0.28844 0.0
H2341 H 0.68441 0.72753 0.26559 0.0
H2342 H 0.65982 0.73519 0.29343 0.0
H2343 H 0.65977 0.72238 0.31711 0.0
H2344 H 0.66929 0.72701 0.24464 0.0
H2345 H 0.66854 0.75714 0.28841 0.0
H2346 H 0.68352 0.76852 0.28297 0.0
H2347 H 0.681 0.7547 0.29295 0.0
C2348 C 0.67852 0.7188 0.28996 0.0
C2349 C 0.67207 0.71766 0.30495 0.0
C2350 C 0.67898 0.72651 0.27676 0.0
C2351 C 0.67252 0.73281 0.27794 0.0
C2352 C 0.66536 0.73096 0.29248 0.0
H2353 H 0.66073 0.76606 0.18622 0.0
H2354 H 0.65785 0.75318 0.21123 0.0
C2355 C 0.66524 0.72355 0.30595 0.0
C2356 C 0.67294 0.7408 0.26354 0.0
H2357 H 0.67807 0.76921 0.25356 0.0
C2358 C 0.67129 0.73626 0.24667 0.0
C2359 C 0.67538 0.75287 0.26604 0.0
C2360 C 0.67731 0.7586 0.28357 0.0
C2361 C 0.67229 0.74345 0.23236 0.0
C2362 C 0.67476 0.75545 0.23493 0.0
C2363 C 0.6762 0.75998 0.25169 0.0
C2364 C 0.67627 0.76359 0.22032 0.0
C2365 C 0.67099 0.73823 0.21457 0.0
C2366 C 0.68749 0.7739 0.21748 0.0
C2367 C 0.68915 0.78134 0.20329 0.0
C2368 C 0.67958 0.77864 0.19175 0.0
C2369 C 0.66826 0.76846 0.19493 0.0
C2370 C 0.66662 0.76102 0.2091 0.0
H2371 H 0.67172 0.72987 0.2147 0.0
H2372 H 0.66202 0.73593 0.20917 0.0
H2373 H 0.67797 0.74491 0.20587 0.0
H2374 H 0.69503 0.77607 0.22607 0.0
H2375 H 0.69792 0.78919 0.20132 0.0
H2376 H 0.2839 0.92917 0.31365 0.0
H2377 H 0.27096 0.92035 0.2884 0.0
H2378 H 0.27534 0.95523 0.27493 0.0
H2379 H 0.2883 0.9642 0.30023 0.0
H2380 H 0.24868 0.9217 0.28089 0.0
H2381 H 0.28374 0.94199 0.23039 0.0
H2382 H 0.28733 0.94051 0.25249 0.0
H2383 H 0.28377 0.95206 0.2466 0.0
C2384 C 0.28221 0.93503 0.30529 0.0
C2385 C 0.28718 0.94743 0.309 0.0
C2386 C 0.27478 0.92994 0.29089 0.0
C2387 C 0.27228 0.93716 0.27978 0.0
C2388 C 0.27728 0.94954 0.28329 0.0
H2389 H 0.23167 0.92369 0.18484 0.0
H2390 H 0.24451 0.93243 0.21011 0.0
C2391 C 0.28465 0.95464 0.29778 0.0
C2392 C 0.26414 0.93163 0.26481 0.0
H2393 H 0.26352 0.93064 0.22097 0.0
C2394 C 0.25189 0.92361 0.26776 0.0
C2395 C 0.2684 0.93422 0.24777 0.0
C2396 C 0.28154 0.9426 0.244 0.0
C2397 C 0.2437 0.91824 0.25407 0.0
C2398 C 0.24797 0.9207 0.23697 0.0
C2399 C 0.26025 0.92873 0.23406 0.0
C2400 C 0.23984 0.91522 0.22188 0.0
C2401 C 0.23052 0.91025 0.25807 0.0
C2402 C 0.23297 0.90261 0.21999 0.0
C2403 C 0.22539 0.89755 0.20566 0.0
C2404 C 0.22467 0.90501 0.1928 0.0
C2405 C 0.23174 0.91764 0.19464 0.0
C2406 C 0.23921 0.92268 0.20902 0.0
H2407 H 0.22831 0.91214 0.27107 0.0
H2408 H 0.22471 0.91149 0.24847 0.0
H2409 H 0.22831 0.90065 0.25778 0.0
H2410 H 0.23351 0.89666 0.22952 0.0
H2411 H 0.22005 0.8878 0.20476 0.0
H2412 H 0.66414 0.93855 0.32116 0.0
H2413 H 0.66537 0.92632 0.29777 0.0
H2414 H 0.68709 0.95883 0.26867 0.0
H2415 H 0.68594 0.97101 0.29211 0.0
H2416 H 0.65692 0.92478 0.26491 0.0
H2417 H 0.70612 0.94134 0.26318 0.0
H2418 H 0.69858 0.94272 0.28176 0.0
H2419 H 0.70216 0.95307 0.26401 0.0
C2420 C 0.66941 0.94306 0.30991 0.0
C2421 C 0.67528 0.95572 0.30861 0.0
C2422 C 0.67006 0.93608 0.29655 0.0
C2423 C 0.67648 0.94165 0.28155 0.0
C2424 C 0.68239 0.95433 0.28029 0.0
H2425 H 0.68647 0.92028 0.18141 0.0
H2426 H 0.68439 0.93031 0.20676 0.0
C2427 C 0.68177 0.9613 0.2937 0.0
C2428 C 0.67631 0.93416 0.26678 0.0
H2429 H 0.69459 0.92971 0.23956 0.0
C2430 C 0.66515 0.92578 0.25946 0.0
C2431 C 0.68702 0.93541 0.25966 0.0
C2432 C 0.69918 0.94355 0.26759 0.0
C2433 C 0.66448 0.91892 0.24493 0.0
C2434 C 0.67525 0.92045 0.23764 0.0
C2435 C 0.68636 0.92865 0.24511 0.0
C2436 C 0.67535 0.91398 0.22193 0.0
C2437 C 0.65234 0.91036 0.23714 0.0
C2438 C 0.67088 0.90143 0.22205 0.0
C2439 C 0.67215 0.89565 0.20757 0.0
C2440 C 0.67799 0.90236 0.19283 0.0
C2441 C 0.68214 0.91488 0.19267 0.0
C2442 C 0.68088 0.92062 0.20709 0.0
H2443 H 0.64507 0.91179 0.24242 0.0
H2444 H 0.65252 0.91147 0.22296 0.0
H2445 H 0.6501 0.90091 0.23992 0.0
H2446 H 0.66675 0.89617 0.23349 0.0
H2447 H 0.66893 0.88601 0.20813 0.0
H2448 H 0.04142 0.72033 0.30351 0.0
H2449 H 0.05105 0.73389 0.27925 0.0
H2450 H 0.08063 0.72657 0.2823 0.0
H2451 H 0.07124 0.71321 0.30679 0.0
H2452 H 0.08843 0.75056 0.27998 0.0
H2453 H 0.05372 0.72597 0.22973 0.0
H2454 H 0.04788 0.72942 0.24846 0.0
H2455 H 0.05382 0.71922 0.25016 0.0
C2456 C 0.0499 0.72147 0.29891 0.0
C2457 C 0.05552 0.71562 0.30712 0.0
C2458 C 0.05538 0.7292 0.28497 0.0
C2459 C 0.06649 0.73113 0.2788 0.0
C2460 C 0.07204 0.7252 0.28681 0.0
H2461 H 0.09955 0.7653 0.18252 0.0
H2462 H 0.09008 0.75148 0.20652 0.0
C2463 C 0.06662 0.71753 0.3008 0.0
C2464 C 0.07262 0.73972 0.26449 0.0
H2465 H 0.06922 0.74579 0.22263 0.0
C2466 C 0.08425 0.7495 0.26742 0.0
C2467 C 0.06721 0.73825 0.24806 0.0
C2468 C 0.05502 0.72759 0.24382 0.0
C2469 C 0.09057 0.7579 0.25441 0.0
C2470 C 0.08501 0.75665 0.23814 0.0
C2471 C 0.07343 0.74681 0.23517 0.0
C2472 C 0.09116 0.76525 0.22385 0.0
C2473 C 0.10325 0.76788 0.25813 0.0
C2474 C 0.09492 0.77761 0.22558 0.0
C2475 C 0.10053 0.7856 0.21193 0.0
C2476 C 0.10239 0.78136 0.19621 0.0
C2477 C 0.09853 0.76895 0.19453 0.0
C2478 C 0.09298 0.761 0.20819 0.0
H2479 H 0.10731 0.76566 0.26929 0.0
H2480 H 0.10913 0.76967 0.24681 0.0
H2481 H 0.10308 0.77631 0.26123 0.0
H2482 H 0.09339 0.78106 0.23743 0.0
H2483 H 0.10342 0.79509 0.21372 0.0
H2484 H 0.28034 0.3464 0.3208 0.0
H2485 H 0.26845 0.34814 0.2971 0.0
H2486 H 0.27848 0.32712 0.26473 0.0
H2487 H 0.29011 0.32514 0.28861 0.0
H2488 H 0.27686 0.35909 0.26672 0.0
H2489 H 0.24292 0.31101 0.2544 0.0
H2490 H 0.25109 0.31626 0.27438 0.0
H2491 H 0.25822 0.31405 0.25599 0.0
C2492 C 0.27972 0.34191 0.30873 0.0
C2493 C 0.2858 0.33534 0.30662 0.0
C2494 C 0.27299 0.34295 0.29518 0.0
C2495 C 0.27239 0.33762 0.27916 0.0
C2496 C 0.27847 0.331 0.27708 0.0
H2497 H 0.25364 0.35799 0.18124 0.0
H2498 H 0.26436 0.35631 0.20644 0.0
C2499 C 0.28511 0.32987 0.29071 0.0
C2500 C 0.26611 0.33971 0.2644 0.0
H2501 H 0.24393 0.32527 0.2342 0.0
C2502 C 0.26962 0.35169 0.25966 0.0
C2503 C 0.25663 0.33009 0.25519 0.0
C2504 C 0.25189 0.3171 0.26025 0.0
C2505 C 0.26395 0.35427 0.24598 0.0
C2506 C 0.25465 0.34461 0.2366 0.0
C2507 C 0.25111 0.33266 0.24136 0.0
C2508 C 0.24835 0.34657 0.22185 0.0
C2509 C 0.26781 0.36729 0.2419 0.0
C2510 C 0.23578 0.34157 0.22208 0.0
C2511 C 0.22962 0.34246 0.20767 0.0
C2512 C 0.23592 0.34835 0.19272 0.0
C2513 C 0.24855 0.35357 0.19265 0.0
C2514 C 0.2547 0.35264 0.20706 0.0
H2515 H 0.27262 0.37335 0.25292 0.0
H2516 H 0.27403 0.37026 0.23082 0.0
H2517 H 0.25993 0.36836 0.23837 0.0
H2518 H 0.2307 0.33683 0.23335 0.0
H2519 H 0.21991 0.33845 0.20818 0.0
H2520 H 0.26571 0.31271 0.3775 0.0
H2521 H 0.25618 0.31678 0.40163 0.0
H2522 H 0.28833 0.35103 0.4102 0.0
H2523 H 0.29806 0.34706 0.38609 0.0
H2524 H 0.2779 0.33707 0.44063 0.0
H2525 H 0.24418 0.34163 0.40026 0.0
H2526 H 0.24471 0.32793 0.39686 0.0
H2527 H 0.2575 0.34224 0.39142 0.0
C2528 C 0.27083 0.3211 0.38452 0.0
C2529 C 0.28267 0.32959 0.37973 0.0
C2530 C 0.26531 0.32343 0.39826 0.0
C2531 C 0.27147 0.3343 0.40748 0.0
C2532 C 0.2834 0.34263 0.40314 0.0
H2533 H 0.25226 0.36322 0.49578 0.0
H2534 H 0.26263 0.36037 0.47152 0.0
C2535 C 0.28894 0.34033 0.38935 0.0
C2536 C 0.26544 0.33693 0.42165 0.0
H2537 H 0.24154 0.34107 0.43047 0.0
C2538 C 0.27 0.33803 0.43843 0.0
C2539 C 0.25513 0.33816 0.4187 0.0
C2540 C 0.25013 0.33754 0.40083 0.0
C2541 C 0.26433 0.34001 0.45244 0.0
C2542 C 0.25396 0.34116 0.4495 0.0
C2543 C 0.24947 0.34016 0.43269 0.0
C2544 C 0.24753 0.3432 0.46374 0.0
C2545 C 0.26927 0.34049 0.47031 0.0
C2546 C 0.23544 0.33472 0.46702 0.0
C2547 C 0.22942 0.33641 0.48073 0.0
C2548 C 0.23536 0.34665 0.49139 0.0
C2549 C 0.24738 0.35529 0.48776 0.0
C2550 C 0.25338 0.3536 0.47403 0.0
H2551 H 0.27523 0.33641 0.4708 0.0
H2552 H 0.27467 0.35007 0.47443 0.0
H2553 H 0.26187 0.3357 0.47966 0.0
H2554 H 0.23072 0.32669 0.45912 0.0
H2555 H 0.22012 0.32967 0.48299 0.0
H2556 H 0.65718 0.95097 0.38293 0.0
H2557 H 0.65324 0.93762 0.4076 0.0
H2558 H 0.69108 0.94884 0.41144 0.0
H2559 H 0.6951 0.96202 0.38653 0.0
H2560 H 0.67704 0.92443 0.41301 0.0
H2561 H 0.66004 0.94612 0.45808 0.0
H2562 H 0.65204 0.94193 0.43793 0.0
H2563 H 0.6677 0.95332 0.43847 0.0
C2564 C 0.66471 0.95072 0.38911 0.0
C2565 C 0.67648 0.95763 0.38274 0.0
C2566 C 0.66243 0.94311 0.40328 0.0
C2567 C 0.67188 0.94236 0.41152 0.0
C2568 C 0.68365 0.94931 0.40531 0.0
H2569 H 0.67012 0.91051 0.51056 0.0
H2570 H 0.67357 0.92378 0.48598 0.0
C2571 C 0.68593 0.95687 0.39108 0.0
C2572 C 0.66947 0.93397 0.42617 0.0
H2573 H 0.65766 0.92706 0.46651 0.0
C2574 C 0.67283 0.92502 0.42473 0.0
C2575 C 0.66408 0.93483 0.44151 0.0
C2576 C 0.66086 0.94464 0.44421 0.0
C2577 C 0.6709 0.91686 0.43818 0.0
C2578 C 0.6652 0.9175 0.45333 0.0
C2579 C 0.66191 0.9265 0.45481 0.0
C2580 C 0.66304 0.90927 0.46811 0.0
C2581 C 0.67526 0.90784 0.43618 0.0
C2582 C 0.65587 0.89668 0.46629 0.0
C2583 C 0.65402 0.88902 0.4803 0.0
C2584 C 0.65923 0.89383 0.49644 0.0
C2585 C 0.6662 0.90647 0.49825 0.0
C2586 C 0.66809 0.91409 0.48424 0.0
H2587 H 0.68214 0.9106 0.42596 0.0
H2588 H 0.67919 0.90674 0.44841 0.0
H2589 H 0.66753 0.89893 0.43255 0.0
H2590 H 0.65168 0.89277 0.45404 0.0
H2591 H 0.64863 0.87934 0.47843 0.0
H2592 H 0.04619 0.70233 0.39829 0.0
H2593 H 0.05907 0.71468 0.42203 0.0
H2594 H 0.06929 0.74699 0.39216 0.0
H2595 H 0.05676 0.73451 0.3681 0.0
H2596 H 0.08848 0.748 0.40669 0.0
H2597 H 0.05344 0.73449 0.45623 0.0
H2598 H 0.05369 0.72158 0.44758 0.0
H2599 H 0.04978 0.73062 0.43386 0.0
C2600 C 0.05131 0.71207 0.3968 0.0
C2601 C 0.0509 0.7175 0.38127 0.0
C2602 C 0.05848 0.71913 0.41045 0.0
C2603 C 0.06506 0.73179 0.40899 0.0
C2604 C 0.06433 0.73724 0.39359 0.0
H2605 H 0.10002 0.7773 0.49825 0.0
H2606 H 0.08741 0.76777 0.47299 0.0
C2607 C 0.05719 0.73015 0.37989 0.0
C2608 C 0.07307 0.73928 0.42324 0.0
H2609 H 0.0739 0.74432 0.46641 0.0
C2610 C 0.08528 0.74722 0.41973 0.0
C2611 C 0.06885 0.73853 0.4402 0.0
C2612 C 0.0557 0.73094 0.44466 0.0
C2613 C 0.09345 0.7541 0.43279 0.0
C2614 C 0.08935 0.75283 0.44991 0.0
C2615 C 0.07708 0.74518 0.45333 0.0
C2616 C 0.0976 0.75931 0.46452 0.0
C2617 C 0.10635 0.76276 0.42804 0.0
C2618 C 0.10757 0.75778 0.46815 0.0
C2619 C 0.11496 0.76341 0.48244 0.0
C2620 C 0.11241 0.77055 0.49357 0.0
C2621 C 0.10242 0.77208 0.48982 0.0
C2622 C 0.09512 0.76653 0.47545 0.0
H2623 H 0.10711 0.76544 0.41429 0.0
H2624 H 0.11021 0.77106 0.43607 0.0
H2625 H 0.11184 0.75828 0.43009 0.0
H2626 H 0.10953 0.75203 0.46013 0.0
H2627 H 0.12261 0.7621 0.48482 0.0
H2628 H 0.35713 0.074 0.70367 0.0
H2629 H 0.35369 0.08382 0.72818 0.0
H2630 H 0.32393 0.04964 0.74402 0.0
H2631 H 0.32721 0.03967 0.71946 0.0
H2632 H 0.33013 0.08277 0.73505 0.0
H2633 H 0.34644 0.06465 0.7879 0.0
H2634 H 0.35109 0.06536 0.76587 0.0
H2635 H 0.33634 0.05393 0.7723 0.0
C2636 C 0.34991 0.06851 0.71241 0.0
C2637 C 0.34243 0.05601 0.70954 0.0
C2638 C 0.34796 0.07416 0.7264 0.0
C2639 C 0.33862 0.06743 0.73791 0.0
C2640 C 0.33127 0.05495 0.73533 0.0
H2641 H 0.31175 0.08314 0.82996 0.0
H2642 H 0.31612 0.07398 0.80563 0.0
C2643 C 0.33314 0.04929 0.72126 0.0
C2644 C 0.33625 0.07356 0.75224 0.0
H2645 H 0.33719 0.07603 0.79595 0.0
C2646 C 0.33171 0.08137 0.74838 0.0
C2647 C 0.33828 0.07163 0.76955 0.0
C2648 C 0.34338 0.0635 0.77427 0.0
C2649 C 0.32888 0.08711 0.76146 0.0
C2650 C 0.33097 0.08524 0.77883 0.0
C2651 C 0.3356 0.07748 0.78264 0.0
C2652 C 0.32815 0.09098 0.7933 0.0
C2653 C 0.32332 0.0948 0.75654 0.0
C2654 C 0.3335 0.10362 0.79454 0.0
C2655 C 0.33083 0.10891 0.80833 0.0
C2656 C 0.32288 0.10167 0.82127 0.0
C2657 C 0.31768 0.08902 0.82006 0.0
C2658 C 0.32028 0.08374 0.80623 0.0
H2659 H 0.31923 0.09256 0.74345 0.0
H2660 H 0.31628 0.09365 0.76582 0.0
H2661 H 0.33043 0.10446 0.75654 0.0
H2662 H 0.33982 0.1094 0.78493 0.0
H2663 H 0.33497 0.11867 0.80878 0.0
H2664 H 0.93686 0.28121 0.70129 0.0
H2665 H 0.92406 0.26934 0.72529 0.0
H2666 H 0.95578 0.27998 0.75679 0.0
H2667 H 0.96851 0.29209 0.73295 0.0
H2668 H 0.92336 0.25012 0.74239 0.0
H2669 H 0.93537 0.28809 0.78751 0.0
H2670 H 0.93916 0.29043 0.76501 0.0
H2671 H 0.94824 0.28738 0.77989 0.0
C2672 C 0.94104 0.28097 0.71337 0.0
C2673 C 0.95362 0.28718 0.71522 0.0
C2674 C 0.93375 0.27421 0.72704 0.0
C2675 C 0.93895 0.27384 0.74288 0.0
C2676 C 0.95155 0.28028 0.74479 0.0
H2677 H 0.91217 0.2377 0.84023 0.0
H2678 H 0.92432 0.24883 0.81555 0.0
C2679 C 0.95882 0.28702 0.73112 0.0
C2680 C 0.9312 0.26653 0.75728 0.0
H2681 H 0.92423 0.26824 0.79906 0.0
C2682 C 0.92355 0.25408 0.75478 0.0
C2683 C 0.93136 0.27174 0.77339 0.0
C2684 C 0.93888 0.28516 0.7766 0.0
C2685 C 0.91632 0.24661 0.7681 0.0
C2686 C 0.91655 0.2518 0.78424 0.0
C2687 C 0.92411 0.26427 0.78669 0.0
C2688 C 0.90906 0.24448 0.79882 0.0
C2689 C 0.90872 0.23319 0.7649 0.0
C2690 C 0.89643 0.23833 0.79761 0.0
C2691 C 0.88943 0.23186 0.81168 0.0
C2692 C 0.89495 0.23146 0.82725 0.0
C2693 C 0.90762 0.23762 0.82836 0.0
C2694 C 0.91459 0.24407 0.8143 0.0
H2695 H 0.91189 0.23028 0.75358 0.0
H2696 H 0.9088 0.22793 0.7763 0.0
H2697 H 0.89926 0.23096 0.76236 0.0
H2698 H 0.89197 0.2387 0.78587 0.0
H2699 H 0.87971 0.22718 0.81036 0.0
H2700 H 0.71246 0.67628 0.72956 0.0
H2701 H 0.72615 0.67683 0.7522 0.0
H2702 H 0.73127 0.65038 0.72445 0.0
H2703 H 0.71863 0.65096 0.70093 0.0
H2704 H 0.72524 0.66171 0.77337 0.0
H2705 H 0.76512 0.67273 0.73357 0.0
H2706 H 0.75141 0.67078 0.72402 0.0
H2707 H 0.75295 0.65783 0.72911 0.0
C2708 C 0.71696 0.67102 0.72801 0.0
C2709 C 0.7152 0.66424 0.71306 0.0
C2710 C 0.72458 0.67111 0.74111 0.0
C2711 C 0.73017 0.66396 0.73987 0.0
C2712 C 0.72762 0.65644 0.72543 0.0
H2713 H 0.76603 0.65606 0.83258 0.0
H2714 H 0.75252 0.65123 0.80763 0.0
C2715 C 0.72031 0.65669 0.71205 0.0
C2716 C 0.73827 0.66421 0.75405 0.0
H2717 H 0.76652 0.66876 0.76324 0.0
C2718 C 0.73427 0.66328 0.77107 0.0
C2719 C 0.75004 0.66603 0.7512 0.0
C2720 C 0.75515 0.667 0.73349 0.0
C2721 C 0.74177 0.66461 0.78518 0.0
C2722 C 0.75355 0.66668 0.78226 0.0
C2723 C 0.75747 0.66721 0.76537 0.0
C2724 C 0.7622 0.66916 0.79658 0.0
C2725 C 0.73719 0.66422 0.80311 0.0
C2726 C 0.77232 0.6807 0.79828 0.0
C2727 C 0.78008 0.68347 0.81243 0.0
C2728 C 0.77789 0.6747 0.8251 0.0
C2729 C 0.768 0.66299 0.82299 0.0
C2730 C 0.76021 0.66024 0.80885 0.0
H2731 H 0.72873 0.66471 0.80308 0.0
H2732 H 0.73536 0.65563 0.80941 0.0
H2733 H 0.74407 0.6718 0.81098 0.0
H2734 H 0.77404 0.68768 0.78888 0.0
H2735 H 0.78771 0.69252 0.81357 0.0
H2736 H 0.73507 0.68772 0.63995 0.0
H2737 H 0.74468 0.68367 0.61594 0.0
H2738 H 0.71468 0.64736 0.61206 0.0
H2739 H 0.70483 0.65138 0.63595 0.0
H2740 H 0.7519 0.66668 0.6142 0.0
H2741 H 0.71853 0.65912 0.56252 0.0
H2742 H 0.71857 0.66583 0.58293 0.0
H2743 H 0.71228 0.64973 0.58113 0.0
C2744 C 0.73041 0.6789 0.63392 0.0
C2745 C 0.71912 0.66989 0.63989 0.0
C2746 C 0.73596 0.67659 0.6202 0.0
C2747 C 0.73036 0.66526 0.6121 0.0
C2748 C 0.71906 0.65626 0.6179 0.0
H2749 H 0.76879 0.64035 0.54563 0.0
H2750 H 0.75777 0.64283 0.5694 0.0
C2751 C 0.71346 0.65856 0.63161 0.0
C2752 C 0.73662 0.66282 0.59799 0.0
H2753 H 0.73432 0.6552 0.55554 0.0
C2754 C 0.74806 0.66416 0.60137 0.0
C2755 C 0.73163 0.65963 0.58124 0.0
C2756 C 0.71963 0.65859 0.57663 0.0
C2757 C 0.75467 0.66246 0.58844 0.0
C2758 C 0.7496 0.65907 0.57175 0.0
C2759 C 0.73815 0.6577 0.56838 0.0
C2760 C 0.75623 0.65743 0.5574 0.0
C2761 C 0.76717 0.66464 0.59265 0.0
C2762 C 0.75878 0.6646 0.5426 0.0
C2763 C 0.76492 0.6631 0.52892 0.0
C2764 C 0.76865 0.65436 0.52972 0.0
C2765 C 0.76603 0.64713 0.54455 0.0
C2766 C 0.75983 0.64862 0.55823 0.0
H2767 H 0.77086 0.67007 0.60457 0.0
H2768 H 0.76681 0.65581 0.59466 0.0
H2769 H 0.77346 0.6694 0.58195 0.0
H2770 H 0.75602 0.6714 0.54163 0.0
H2771 H 0.76653 0.66864 0.51757 0.0
H2772 H 0.3218 0.05478 0.65025 0.0
H2773 H 0.32073 0.067 0.62645 0.0
H2774 H 0.34193 0.05663 0.59521 0.0
H2775 H 0.34245 0.044 0.61868 0.0
H2776 H 0.33782 0.08608 0.61228 0.0
H2777 H 0.31658 0.05178 0.56131 0.0
H2778 H 0.31713 0.04772 0.58343 0.0
H2779 H 0.32974 0.05173 0.56945 0.0
C2780 C 0.32612 0.05508 0.6382 0.0
C2781 C 0.33258 0.04888 0.63637 0.0
C2782 C 0.32551 0.06203 0.62464 0.0
C2783 C 0.33116 0.06268 0.60894 0.0
C2784 C 0.33726 0.05609 0.60699 0.0
H2785 H 0.36168 0.12079 0.5366 0.0
H2786 H 0.35667 0.10709 0.56106 0.0
C2787 C 0.33778 0.04908 0.62051 0.0
C2788 C 0.33143 0.07088 0.59504 0.0
H2789 H 0.32799 0.07253 0.5517 0.0
C2790 C 0.33561 0.08308 0.59906 0.0
C2791 C 0.32813 0.06694 0.57784 0.0
C2792 C 0.32251 0.05379 0.57281 0.0
C2793 C 0.33729 0.09157 0.58625 0.0
C2794 C 0.33487 0.08779 0.56889 0.0
C2795 C 0.33005 0.07548 0.56497 0.0
C2796 C 0.33771 0.09649 0.55454 0.0
C2797 C 0.34166 0.10451 0.59146 0.0
C2798 C 0.32877 0.09497 0.54254 0.0
C2799 C 0.33166 0.10267 0.52833 0.0
C2800 C 0.34357 0.11201 0.52581 0.0
C2801 C 0.35245 0.11362 0.53804 0.0
C2802 C 0.34956 0.10589 0.55218 0.0
H2803 H 0.33926 0.1051 0.60498 0.0
H2804 H 0.35163 0.10971 0.59054 0.0
H2805 H 0.33783 0.10885 0.58298 0.0
H2806 H 0.31958 0.0877 0.54403 0.0
H2807 H 0.32463 0.10105 0.51904 0.0
H2808 H 0.95656 0.29771 0.63179 0.0
H2809 H 0.94328 0.28827 0.60699 0.0
H2810 H 0.93705 0.25326 0.6238 0.0
H2811 H 0.95058 0.26262 0.64826 0.0
H2812 H 0.94082 0.25586 0.59019 0.0
H2813 H 0.90704 0.26943 0.60695 0.0
H2814 H 0.92197 0.28207 0.6049 0.0
H2815 H 0.91878 0.27112 0.62169 0.0
C2816 C 0.95237 0.288 0.63021 0.0
C2817 C 0.95461 0.28094 0.64211 0.0
C2818 C 0.9447 0.2826 0.61609 0.0
C2819 C 0.93895 0.27001 0.61373 0.0
C2820 C 0.94133 0.26298 0.6254 0.0
H2821 H 0.87765 0.22768 0.54567 0.0
H2822 H 0.89097 0.23733 0.57049 0.0
C2823 C 0.94909 0.26837 0.6394 0.0
C2824 C 0.93063 0.26414 0.59895 0.0
H2825 H 0.90505 0.26072 0.57925 0.0
C2826 C 0.93298 0.25689 0.58784 0.0
C2827 C 0.92027 0.26532 0.59604 0.0
C2828 C 0.91677 0.2723 0.60812 0.0
C2829 C 0.92537 0.25091 0.5738 0.0
C2830 C 0.9153 0.25251 0.57047 0.0
C2831 C 0.91284 0.25961 0.58171 0.0
C2832 C 0.9072 0.24684 0.55542 0.0
C2833 C 0.92806 0.24274 0.56294 0.0
C2834 C 0.91184 0.24916 0.5387 0.0
C2835 C 0.90429 0.24359 0.52458 0.0
C2836 C 0.89189 0.23573 0.52685 0.0
C2837 C 0.88717 0.2337 0.54355 0.0
C2838 C 0.89477 0.23919 0.55771 0.0
H2839 H 0.93362 0.23963 0.5701 0.0
H2840 H 0.91964 0.23467 0.55851 0.0
H2841 H 0.93321 0.2478 0.55147 0.0
H2842 H 0.92133 0.25532 0.53656 0.0
H2843 H 0.90813 0.24552 0.51183 0.0
H2844 H 0.34555 0.30316 0.6203 0.0
H2845 H 0.34664 0.29051 0.59755 0.0
H2846 H 0.32575 0.2587 0.62849 0.0
H2847 H 0.32516 0.27151 0.65158 0.0
H2848 H 0.3442 0.25793 0.61565 0.0
H2849 H 0.3223 0.26941 0.56292 0.0
H2850 H 0.3349 0.28279 0.57148 0.0
H2851 H 0.32209 0.27376 0.5849 0.0
C2852 C 0.3413 0.29347 0.62223 0.0
C2853 C 0.33568 0.28829 0.63783 0.0
C2854 C 0.34171 0.28622 0.60912 0.0
C2855 C 0.33616 0.27361 0.6112 0.0
C2856 C 0.33013 0.2684 0.6266 0.0
H2857 H 0.3299 0.22709 0.52517 0.0
H2858 H 0.32555 0.23645 0.54934 0.0
C2859 C 0.32979 0.27568 0.63976 0.0
C2860 C 0.33724 0.26598 0.59769 0.0
H2861 H 0.33404 0.26024 0.55457 0.0
C2862 C 0.34196 0.25844 0.60231 0.0
C2863 C 0.33396 0.26631 0.58033 0.0
C2864 C 0.32791 0.2734 0.57466 0.0
C2865 C 0.34401 0.25164 0.58997 0.0
C2866 C 0.34139 0.25254 0.57249 0.0
C2867 C 0.33623 0.2597 0.56795 0.0
C2868 C 0.34397 0.24617 0.55864 0.0
C2869 C 0.34886 0.24351 0.59583 0.0
C2870 C 0.35578 0.24847 0.55587 0.0
C2871 C 0.35828 0.24299 0.54218 0.0
C2872 C 0.34904 0.2352 0.53086 0.0
C2873 C 0.33721 0.23284 0.53379 0.0
C2874 C 0.33471 0.23828 0.54752 0.0
H2875 H 0.34695 0.24108 0.60963 0.0
H2876 H 0.34494 0.23506 0.58812 0.0
H2877 H 0.35878 0.24833 0.59423 0.0
H2878 H 0.36312 0.25472 0.56407 0.0
H2879 H 0.36748 0.24495 0.54038 0.0
H2880 H 0.70685 0.04424 0.63343 0.0
H2881 H 0.71674 0.05571 0.60749 0.0
H2882 H 0.75054 0.05945 0.6254 0.0
H2883 H 0.74071 0.04765 0.65086 0.0
H2884 H 0.73431 0.07826 0.60346 0.0
H2885 H 0.74966 0.04777 0.57767 0.0
H2886 H 0.73912 0.04339 0.5951 0.0
H2887 H 0.75509 0.05236 0.5992 0.0
C2888 C 0.71636 0.0474 0.63176 0.0
C2889 C 0.72294 0.04493 0.64422 0.0
C2890 C 0.72201 0.05398 0.61693 0.0
C2891 C 0.73435 0.05826 0.6143 0.0
C2892 C 0.74095 0.05594 0.62684 0.0
H2893 H 0.78172 0.11766 0.54759 0.0
H2894 H 0.76976 0.10496 0.57158 0.0
C2895 C 0.7353 0.04924 0.6415 0.0
C2896 C 0.74046 0.0655 0.5988 0.0
H2897 H 0.75921 0.06789 0.5662 0.0
C2898 C 0.73966 0.07593 0.5952 0.0
C2899 C 0.74727 0.06237 0.58782 0.0
C2900 C 0.74773 0.05079 0.59003 0.0
C2901 C 0.74573 0.08347 0.58123 0.0
C2902 C 0.75315 0.08073 0.57089 0.0
C2903 C 0.75368 0.07012 0.57424 0.0
C2904 C 0.76033 0.08858 0.55641 0.0
C2905 C 0.74395 0.09416 0.57755 0.0
C2906 C 0.75934 0.08356 0.54002 0.0
C2907 C 0.76638 0.09073 0.52647 0.0
C2908 C 0.77448 0.1031 0.52897 0.0
C2909 C 0.77545 0.10817 0.54531 0.0
C2910 C 0.76855 0.10093 0.55897 0.0
H2911 H 0.73527 0.09274 0.58278 0.0
H2912 H 0.7513 0.10233 0.58383 0.0
H2913 H 0.74408 0.0959 0.56353 0.0
H2914 H 0.7531 0.07407 0.5377 0.0
H2915 H 0.76537 0.08662 0.51395 0.0
H2916 H 0.94456 0.67971 0.65476 0.0
H2917 H 0.93176 0.67825 0.63004 0.0
H2918 H 0.94036 0.65302 0.60579 0.0
H2919 H 0.95297 0.65437 0.63056 0.0
H2920 H 0.93868 0.68448 0.59692 0.0
H2921 H 0.90431 0.63577 0.59908 0.0
H2922 H 0.9134 0.644 0.61736 0.0
H2923 H 0.91957 0.6387 0.60096 0.0
C2924 C 0.94345 0.67365 0.64429 0.0
C2925 C 0.9494 0.66684 0.64475 0.0
C2926 C 0.9362 0.67286 0.63017 0.0
C2927 C 0.9349 0.66536 0.61616 0.0
C2928 C 0.94088 0.65857 0.61664 0.0
H2929 H 0.9056 0.65252 0.51378 0.0
H2930 H 0.91744 0.65559 0.54004 0.0
C2931 C 0.94807 0.65931 0.63081 0.0
C2932 C 0.92792 0.66521 0.6006 0.0
H2933 H 0.90515 0.64626 0.57358 0.0
C2934 C 0.93127 0.67614 0.59192 0.0
C2935 C 0.91822 0.65436 0.59405 0.0
C2936 C 0.91356 0.64253 0.60338 0.0
C2937 C 0.92539 0.6764 0.57663 0.0
C2938 C 0.91597 0.66547 0.56993 0.0
C2939 C 0.91249 0.65461 0.57872 0.0
C2940 C 0.90969 0.6649 0.55358 0.0
C2941 C 0.92947 0.68825 0.56746 0.0
C2942 C 0.90146 0.66919 0.55251 0.0
C2943 C 0.89453 0.6673 0.53757 0.0
C2944 C 0.89571 0.66105 0.5235 0.0
C2945 C 0.90428 0.65714 0.5245 0.0
C2946 C 0.91114 0.65899 0.53942 0.0
H2947 H 0.93788 0.69569 0.57315 0.0
H2948 H 0.93099 0.68734 0.55365 0.0
H2949 H 0.9223 0.69077 0.56821 0.0
H2950 H 0.90011 0.67362 0.56344 0.0
H2951 H 0.88796 0.67035 0.53727 0.0
H2952 H 0.96008 0.68817 0.71337 0.0
H2953 H 0.95166 0.69386 0.73734 0.0
H2954 H 0.93205 0.65655 0.75351 0.0
H2955 H 0.93996 0.65075 0.72906 0.0
H2956 H 0.91793 0.66561 0.75424 0.0
H2957 H 0.96043 0.69818 0.78683 0.0
H2958 H 0.95984 0.70244 0.765 0.0
H2959 H 0.96006 0.68863 0.76951 0.0
C2960 C 0.95408 0.68121 0.72216 0.0
C2961 C 0.95072 0.66902 0.71938 0.0
C2962 C 0.94932 0.68448 0.73594 0.0
C2963 C 0.94139 0.67568 0.74749 0.0
C2964 C 0.93817 0.66352 0.74482 0.0
H2965 H 0.9209 0.68932 0.84712 0.0
H2966 H 0.93041 0.6854 0.82269 0.0
C2967 C 0.94271 0.66021 0.73086 0.0
C2968 C 0.93594 0.67897 0.76185 0.0
H2969 H 0.94256 0.69785 0.7963 0.0
C2970 C 0.92334 0.67262 0.76349 0.0
C2971 C 0.94297 0.68803 0.77406 0.0
C2972 C 0.95657 0.69462 0.77389 0.0
C2973 C 0.91758 0.675 0.77698 0.0
C2974 C 0.92458 0.68439 0.78878 0.0
C2975 C 0.93718 0.69076 0.78713 0.0
C2976 C 0.91907 0.68734 0.80343 0.0
C2977 C 0.90411 0.6671 0.77871 0.0
C2978 C 0.9097 0.68999 0.80078 0.0
C2979 C 0.9041 0.69199 0.81477 0.0
C2980 C 0.90804 0.69176 0.83162 0.0
C2981 C 0.91776 0.68964 0.83423 0.0
C2982 C 0.92318 0.68739 0.82028 0.0
H2983 H 0.90079 0.65827 0.7721 0.0
H2984 H 0.90144 0.66533 0.79241 0.0
H2985 H 0.89955 0.67172 0.77267 0.0
H2986 H 0.90662 0.6904 0.7879 0.0
H2987 H 0.8967 0.69373 0.81245 0.0
H2988 H 0.32845 0.29353 0.72157 0.0
H2989 H 0.32518 0.28093 0.74702 0.0
H2990 H 0.35319 0.27366 0.73061 0.0
H2991 H 0.35688 0.28662 0.70564 0.0
H2992 H 0.31782 0.25776 0.74968 0.0
H2993 H 0.36318 0.28265 0.77937 0.0
H2994 H 0.35859 0.28879 0.76176 0.0
H2995 H 0.3639 0.27826 0.75776 0.0
C2996 C 0.33401 0.28936 0.72348 0.0
C2997 C 0.34297 0.29115 0.71157 0.0
C2998 C 0.33212 0.28214 0.73803 0.0
C2999 C 0.33908 0.2765 0.74092 0.0
C3000 C 0.34795 0.2782 0.72898 0.0
H3001 H 0.31744 0.21325 0.80627 0.0
H3002 H 0.32125 0.22715 0.78216 0.0
C3003 C 0.34998 0.28556 0.71459 0.0
C3004 C 0.33671 0.26842 0.756 0.0
H3005 H 0.35041 0.26256 0.78973 0.0
C3006 C 0.32493 0.25888 0.75853 0.0
C3007 C 0.34593 0.26996 0.76772 0.0
C3008 C 0.35857 0.28055 0.76663 0.0
C3009 C 0.32216 0.25072 0.77225 0.0
C3010 C 0.33152 0.25187 0.7834 0.0
C3011 C 0.34325 0.26155 0.78105 0.0
C3012 C 0.32934 0.24335 0.79786 0.0
C3013 C 0.30918 0.24115 0.77482 0.0
C3014 C 0.33305 0.24782 0.8146 0.0
C3015 C 0.33116 0.23993 0.82826 0.0
C3016 C 0.32542 0.22738 0.8255 0.0
C3017 C 0.32177 0.22288 0.80875 0.0
C3018 C 0.32385 0.23081 0.79501 0.0
H3019 H 0.30289 0.24384 0.76889 0.0
H3020 H 0.30753 0.23263 0.76856 0.0
H3021 H 0.30703 0.23932 0.78868 0.0
H3022 H 0.33732 0.25744 0.81714 0.0
H3023 H 0.33396 0.24362 0.84108 0.0
H3024 H 0.71204 0.03513 0.73602 0.0
H3025 H 0.72508 0.0478 0.75949 0.0
H3026 H 0.73883 0.07911 0.72643 0.0
H3027 H 0.72588 0.06634 0.70284 0.0
H3028 H 0.75687 0.07718 0.74409 0.0
H3029 H 0.72106 0.07225 0.78851 0.0
H3030 H 0.71928 0.05804 0.78137 0.0
H3031 H 0.71817 0.06812 0.76608 0.0
C3032 C 0.71794 0.04471 0.7338 0.0
C3033 C 0.71831 0.04976 0.71759 0.0
C3034 C 0.72524 0.05196 0.74723 0.0
C3035 C 0.73285 0.06442 0.74475 0.0
C3036 C 0.73303 0.06951 0.72861 0.0
H3037 H 0.77376 0.11748 0.82427 0.0
H3038 H 0.76106 0.10691 0.79939 0.0
C3039 C 0.72567 0.06225 0.71519 0.0
C3040 C 0.74089 0.07203 0.75884 0.0
H3041 H 0.74097 0.08088 0.80026 0.0
C3042 C 0.7534 0.07795 0.75637 0.0
C3043 C 0.73632 0.0733 0.77473 0.0
C3044 C 0.72297 0.06769 0.77783 0.0
C3045 C 0.76148 0.08468 0.76959 0.0
C3046 C 0.75691 0.08559 0.78563 0.0
C3047 C 0.74442 0.08004 0.78796 0.0
C3048 C 0.76498 0.09219 0.80024 0.0
C3049 C 0.77485 0.09078 0.76639 0.0
C3050 C 0.77136 0.08738 0.80889 0.0
C3051 C 0.7785 0.09329 0.82326 0.0
C3052 C 0.7794 0.10416 0.82922 0.0
C3053 C 0.77314 0.10905 0.82024 0.0
C3054 C 0.76593 0.10307 0.80596 0.0
H3055 H 0.7769 0.0909 0.75252 0.0
H3056 H 0.77938 0.10022 0.77127 0.0
H3057 H 0.77872 0.08585 0.77343 0.0
H3058 H 0.77061 0.07891 0.80475 0.0
H3059 H 0.783 0.08914 0.83 0.0
H3060 H 0.05143 0.37462 0.00697 0.0
H3061 H 0.06455 0.36766 0.01953 0.0
H3062 H 0.034 0.33826 0.04433 0.0
H3063 H 0.02071 0.34501 0.03156 0.0
H3064 H 0.06886 0.36582 0.05339 0.0
H3065 H 0.04984 0.32085 0.02221 0.0
H3066 H 0.04628 0.33225 0.01493 0.0
H3067 H 0.03885 0.32309 0.03338 0.0
C3068 C 0.04745 0.36662 0.01502 0.0
C3069 C 0.03498 0.36038 0.01824 0.0
C3070 C 0.05498 0.36265 0.02217 0.0
C3071 C 0.05025 0.35235 0.03268 0.0
C3072 C 0.03782 0.34607 0.03594 0.0
H3073 H 0.08091 0.31922 0.09798 0.0
H3074 H 0.06788 0.32481 0.08181 0.0
C3075 C 0.03024 0.35 0.02871 0.0
C3076 C 0.05844 0.34857 0.04087 0.0
H3077 H 0.06392 0.32493 0.04507 0.0
C3078 C 0.06783 0.35691 0.05146 0.0
C3079 C 0.05709 0.33694 0.03834 0.0
C3080 C 0.04754 0.3278 0.02647 0.0
C3081 C 0.07575 0.35386 0.05988 0.0
C3082 C 0.07433 0.3422 0.05748 0.0
C3083 C 0.06498 0.33387 0.04685 0.0
C3084 C 0.08223 0.33838 0.0664 0.0
C3085 C 0.08539 0.36301 0.07165 0.0
C3086 C 0.09459 0.344 0.06282 0.0
C3087 C 0.10208 0.34074 0.07194 0.0
C3088 C 0.09733 0.33179 0.08478 0.0
C3089 C 0.08487 0.32601 0.088 0.0
C3090 C 0.0774 0.32924 0.07885 0.0
H3091 H 0.08374 0.37058 0.07483 0.0
H3092 H 0.08594 0.35866 0.0838 0.0
H3093 H 0.09426 0.36686 0.06523 0.0
H3094 H 0.09845 0.35095 0.05305 0.0
H3095 H 0.11159 0.34525 0.06896 0.0
H3096 H 0.65432 0.68046 0.0019 0.0
H3097 H 0.66023 0.70125 0.01026 0.0
H3098 H 0.65645 0.69081 0.0637 0.0
H3099 H 0.65124 0.6703 0.05544 0.0
H3100 H 0.64895 0.71049 0.02564 0.0
H3101 H 0.68834 0.72018 0.06639 0.0
H3102 H 0.68103 0.70689 0.05301 0.0
H3103 H 0.67529 0.70695 0.07409 0.0
C3104 C 0.65493 0.68268 0.01543 0.0
C3105 C 0.65248 0.67381 0.02803 0.0
C3106 C 0.65828 0.69455 0.0202 0.0
C3107 C 0.65907 0.69772 0.03765 0.0
C3108 C 0.65637 0.68877 0.0502 0.0
H3109 H 0.65256 0.75715 0.07941 0.0
H3110 H 0.64924 0.73863 0.0656 0.0
C3111 C 0.6533 0.677 0.04545 0.0
C3112 C 0.66221 0.71022 0.04278 0.0
H3113 H 0.67952 0.73285 0.07093 0.0
C3114 C 0.65576 0.71546 0.03538 0.0
C3115 C 0.67129 0.71689 0.05519 0.0
C3116 C 0.67946 0.71248 0.06245 0.0
C3117 C 0.65783 0.72694 0.04045 0.0
C3118 C 0.66623 0.73316 0.05385 0.0
C3119 C 0.67295 0.72808 0.06083 0.0
C3120 C 0.66814 0.74482 0.06114 0.0
C3121 C 0.65112 0.73229 0.03115 0.0
C3122 C 0.67987 0.75447 0.06369 0.0
C3123 C 0.68185 0.7649 0.07238 0.0
C3124 C 0.67213 0.76609 0.07851 0.0
C3125 C 0.66034 0.75659 0.07524 0.0
C3126 C 0.65839 0.74601 0.06695 0.0
H3127 H 0.64882 0.72883 0.01776 0.0
H3128 H 0.64252 0.7296 0.03786 0.0
H3129 H 0.65645 0.74232 0.0307 0.0
H3130 H 0.68758 0.75381 0.05941 0.0
H3131 H 0.69109 0.77177 0.07487 0.0
H3132 H 0.32814 0.98418 0.04999 0.0
H3133 H 0.30778 0.96943 0.05905 0.0
H3134 H 0.29964 0.95397 0.00819 0.0
H3135 H 0.3201 0.96868 0.99897 0.0
H3136 H 0.28131 0.95929 0.02565 0.0
H3137 H 0.29606 0.93168 0.06379 0.0
H3138 H 0.30459 0.94779 0.06705 0.0
H3139 H 0.30493 0.94156 0.04655 0.0
C3140 C 0.32203 0.97769 0.04068 0.0
C3141 C 0.32576 0.97757 0.02377 0.0
C3142 C 0.31041 0.96925 0.0459 0.0
C3143 C 0.30228 0.96057 0.03432 0.0
C3144 C 0.30583 0.96059 0.01731 0.0
H3145 H 0.23563 0.89758 0.06884 0.0
H3146 H 0.25409 0.91064 0.05298 0.0
C3147 C 0.31751 0.96898 0.01209 0.0
C3148 C 0.29014 0.95139 0.0402 0.0
H3149 H 0.27589 0.92734 0.06736 0.0
C3150 C 0.28007 0.95223 0.03465 0.0
C3151 C 0.28857 0.94212 0.05175 0.0
C3152 C 0.29907 0.94061 0.05759 0.0
C3153 C 0.26849 0.94426 0.04088 0.0
C3154 C 0.267 0.93532 0.05307 0.0
C3155 C 0.27703 0.93422 0.05809 0.0
C3156 C 0.25528 0.92739 0.06147 0.0
C3157 C 0.25797 0.9455 0.0344 0.0
C3158 C 0.24982 0.93246 0.0715 0.0
C3159 C 0.23932 0.92503 0.08062 0.0
C3160 C 0.23407 0.91236 0.08 0.0
C3161 C 0.23947 0.9073 0.06971 0.0
C3162 C 0.24999 0.91475 0.06058 0.0
H3163 H 0.25989 0.95011 0.02171 0.0
H3164 H 0.2497 0.93653 0.03321 0.0
H3165 H 0.25617 0.95104 0.04363 0.0
H3166 H 0.2539 0.94218 0.07276 0.0
H3167 H 0.23559 0.92927 0.0887 0.0
H3168 H 0.37153 0.0474 -5e-05 0.0
H3169 H 0.36365 0.05975 0.98752 0.0
H3170 H 0.33137 0.02757 0.97136 0.0
H3171 H 0.33912 0.01501 0.98402 0.0
H3172 H 0.35763 0.06049 0.95352 0.0
H3173 H 0.31805 0.04699 0.99557 0.0
H3174 H 0.32998 0.04375 0.00093 0.0
H3175 H 0.31869 0.03471 0.98525 0.0
C3176 C 0.36272 0.04288 0.99382 0.0
C3177 C 0.35597 0.03017 0.99299 0.0
C3178 C 0.35823 0.04999 0.98674 0.0
C3179 C 0.34688 0.0446 0.97869 0.0
C3180 C 0.34006 0.03192 0.97781 0.0
H3181 H 0.30961 0.07595 0.92237 0.0
H3182 H 0.31515 0.06228 0.93695 0.0
C3183 C 0.34454 0.02476 0.98496 0.0
C3184 C 0.34251 0.05236 0.97064 0.0
H3185 H 0.32036 0.06004 0.97228 0.0
C3186 C 0.34949 0.06041 0.95764 0.0
C3187 C 0.33187 0.0522 0.97601 0.0
C3188 C 0.32424 0.04403 0.9903 0.0
C3189 C 0.34611 0.06828 0.94982 0.0
C3190 C 0.33556 0.06824 0.95534 0.0
C3191 C 0.32847 0.06008 0.96816 0.0
C3192 C 0.33175 0.07657 0.94779 0.0
C3193 C 0.35377 0.07644 0.93553 0.0
C3194 C 0.33907 0.08915 0.94949 0.0
C3195 C 0.3359 0.097 0.94125 0.0
C3196 C 0.3253 0.09243 0.93123 0.0
C3197 C 0.31776 0.0798 0.93014 0.0
C3198 C 0.32094 0.07196 0.93839 0.0
H3199 H 0.35978 0.07332 0.93005 0.0
H3200 H 0.34805 0.07692 0.92503 0.0
H3201 H 0.35952 0.08571 0.94067 0.0
H3202 H 0.34735 0.09289 0.95698 0.0
H3203 H 0.34182 0.10666 0.94259 0.0
H3204 H 0.96924 0.32636 0.01713 0.0
H3205 H 0.95296 0.30608 0.00945 0.0
H3206 H 0.97251 0.30632 0.96446 0.0
H3207 H 0.98873 0.32661 0.97188 0.0
H3208 H 0.94094 0.30185 0.97394 0.0
H3209 H 0.96027 0.27209 0.98968 0.0
H3210 H 0.96508 0.28635 0.00046 0.0
H3211 H 0.96991 0.28617 0.97896 0.0
C3212 C 0.97017 0.32201 0.00576 0.0
C3213 C 0.98025 0.32809 0.99507 0.0
C3214 C 0.96087 0.31044 0.0014 0.0
C3215 C 0.96161 0.30471 0.98648 0.0
C3216 C 0.97185 0.31056 0.97614 0.0
H3217 H 0.91758 0.2419 0.92521 0.0
H3218 H 0.93377 0.25883 0.94099 0.0
C3219 C 0.98108 0.32217 0.98036 0.0
C3220 C 0.95121 0.29315 0.98071 0.0
H3221 H 0.94199 0.26334 0.97365 0.0
C3222 C 0.94107 0.29338 0.97405 0.0
C3223 C 0.95154 0.28221 0.98071 0.0
C3224 C 0.96223 0.28158 0.98792 0.0
C3225 C 0.93137 0.28301 0.96681 0.0
C3226 C 0.93165 0.27199 0.96678 0.0
C3227 C 0.94174 0.27174 0.97377 0.0
C3228 C 0.92188 0.26085 0.95863 0.0
C3229 C 0.9212 0.28414 0.95853 0.0
C3230 C 0.90983 0.25605 0.9637 0.0
C3231 C 0.90055 0.24648 0.95456 0.0
C3232 C 0.90319 0.24134 0.94045 0.0
C3233 C 0.9153 0.24563 0.9361 0.0
C3234 C 0.92455 0.25532 0.94508 0.0
H3235 H 0.92391 0.29371 0.95555 0.0
H3236 H 0.91809 0.27883 0.94643 0.0
H3237 H 0.9135 0.28066 0.96749 0.0
H3238 H 0.90757 0.25992 0.97443 0.0
H3239 H 0.8913 0.24323 0.9583 0.0
H3240 H 0.6777 0.62946 0.01564 0.0
H3241 H 0.69772 0.63644 0.00395 0.0
H3242 H 0.69363 0.66187 0.97155 0.0
H3243 H 0.67373 0.65527 0.98376 0.0
H3244 H 0.70383 0.63485 0.97286 0.0
H3245 H 0.7267 0.68339 0.99007 0.0
H3246 H 0.71225 0.67261 0.99871 0.0
H3247 H 0.71325 0.67901 0.97766 0.0
C3248 C 0.6811 0.63664 0.00615 0.0
C3249 C 0.67411 0.64183 0.00065 0.0
C3250 C 0.69257 0.64062 0.99947 0.0
C3251 C 0.69731 0.6498 0.98702 0.0
C3252 C 0.69035 0.65502 0.98149 0.0
H3253 H 0.75227 0.65949 0.91439 0.0
H3254 H 0.73365 0.65377 0.92983 0.0
C3255 C 0.67893 0.65117 0.98839 0.0
C3256 C 0.70918 0.65333 0.97914 0.0
H3257 H 0.73656 0.67752 0.96928 0.0
C3258 C 0.71102 0.64418 0.97223 0.0
C3259 C 0.71867 0.66548 0.97853 0.0
C3260 C 0.71768 0.67566 0.9868 0.0
C3261 C 0.72193 0.64683 0.96445 0.0
C3262 C 0.73115 0.65904 0.96296 0.0
C3263 C 0.72945 0.66818 0.97022 0.0
C3264 C 0.74254 0.66251 0.95366 0.0
C3265 C 0.72349 0.63646 0.95819 0.0
C3266 C 0.75379 0.66969 0.96169 0.0
C3267 C 0.76448 0.67314 0.95276 0.0
C3268 C 0.7641 0.66939 0.93568 0.0
C3269 C 0.75284 0.66226 0.92768 0.0
C3270 C 0.74218 0.65896 0.93651 0.0
H3271 H 0.71758 0.62798 0.96528 0.0
H3272 H 0.72092 0.63481 0.94438 0.0
H3273 H 0.73297 0.63848 0.95964 0.0
H3274 H 0.75429 0.67261 0.97488 0.0
H3275 H 0.77303 0.67867 0.95923 0.0
H3276 H 0.975 0.65506 0.01457 0.0
H3277 H 0.95935 0.65926 0.00379 0.0
H3278 H 0.96873 0.65611 0.95166 0.0
H3279 H 0.98482 0.65256 0.96242 0.0
H3280 H 0.96515 0.6742 0.95347 0.0
H3281 H 0.92684 0.63603 0.98598 0.0
H3282 H 0.93803 0.64584 0.00116 0.0
H3283 H 0.94168 0.63761 0.98574 0.0
C3284 C 0.97372 0.65528 0.00081 0.0
C3285 C 0.9811 0.65345 0.98933 0.0
C3286 C 0.96468 0.65755 0.99465 0.0
C3287 C 0.96259 0.65767 0.97689 0.0
C3288 C 0.97008 0.65598 0.96542 0.0
H3289 H 0.89798 0.65434 0.93203 0.0
H3290 H 0.91305 0.64966 0.94368 0.0
C3291 C 0.97929 0.65397 0.97157 0.0
C3292 C 0.9529 0.65995 0.9702 0.0
H3293 H 0.92298 0.65109 0.97372 0.0
C3294 C 0.95592 0.66907 0.95784 0.0
C3295 C 0.94077 0.65314 0.9756 0.0
C3296 C 0.93661 0.64252 0.9877 0.0
C3297 C 0.94724 0.67168 0.95091 0.0
C3298 C 0.93527 0.66535 0.95706 0.0
C3299 C 0.93219 0.65609 0.96921 0.0
C3300 C 0.9258 0.66811 0.95084 0.0
C3301 C 0.95099 0.68096 0.93672 0.0
C3302 C 0.92772 0.67996 0.95147 0.0
C3303 C 0.91929 0.68275 0.94434 0.0
C3304 C 0.90849 0.67367 0.93685 0.0
C3305 C 0.90627 0.66165 0.93724 0.0
C3306 C 0.91485 0.65892 0.94407 0.0
H3307 H 0.95897 0.68188 0.92977 0.0
H3308 H 0.94358 0.67857 0.92725 0.0
H3309 H 0.95353 0.68991 0.94237 0.0
H3310 H 0.9359 0.68716 0.95713 0.0
H3311 H 0.92151 0.69214 0.9442 0.0
H3312 H 0.37698 0.3267 0.00725 0.0
H3313 H 0.36945 0.30667 0.99469 0.0
H3314 H 0.33755 0.30703 0.97666 0.0
H3315 H 0.34504 0.32719 0.98906 0.0
H3316 H 0.34767 0.28489 0.00102 0.0
H3317 H 0.35126 0.29994 0.93304 0.0
H3318 H 0.35859 0.31039 0.95055 0.0
H3319 H 0.3427 0.30417 0.94677 0.0
C3320 C 0.36837 0.32258 0.0006 0.0
C3321 C 0.36168 0.32865 0.99906 0.0
C3322 C 0.36406 0.31109 0.99348 0.0
C3323 C 0.35302 0.30543 0.98458 0.0
C3324 C 0.34619 0.31133 0.98326 0.0
H3325 H 0.31351 0.23017 0.95085 0.0
H3326 H 0.32015 0.24932 0.96598 0.0
C3327 C 0.35047 0.32284 0.99042 0.0
C3328 C 0.34877 0.29341 0.97659 0.0
H3329 H 0.34263 0.27893 0.93787 0.0
C3330 C 0.34653 0.28356 0.98722 0.0
C3331 C 0.34745 0.29176 0.95857 0.0
C3332 C 0.35021 0.30212 0.9465 0.0
C3333 C 0.34294 0.27207 0.98029 0.0
C3334 C 0.34145 0.27038 0.96229 0.0
C3335 C 0.34374 0.28024 0.95167 0.0
C3336 C 0.3377 0.25851 0.9541 0.0
C3337 C 0.34101 0.26189 0.99223 0.0
C3338 C 0.34534 0.25734 0.94239 0.0
C3339 C 0.34156 0.24644 0.93366 0.0
C3340 C 0.33 0.23652 0.93637 0.0
C3341 C 0.32245 0.23765 0.94841 0.0
C3342 C 0.32626 0.24856 0.95717 0.0
H3343 H 0.34518 0.26528 0.00508 0.0
H3344 H 0.33119 0.25582 0.99401 0.0
H3345 H 0.34481 0.25645 0.98673 0.0
H3346 H 0.35418 0.26494 0.93977 0.0
H3347 H 0.34752 0.24596 0.92429 0.0
H3348 H 0.68166 0.03511 0.02029 0.0
H3349 H 0.70231 0.05029 0.01274 0.0
H3350 H 0.69595 0.0368 0.96072 0.0
H3351 H 0.67551 0.02145 0.96824 0.0
H3352 H 0.71771 0.04127 0.9725 0.0
H3353 H 0.71144 0.08077 0.98544 0.0
H3354 H 0.70858 0.07085 0.00346 0.0
H3355 H 0.699 0.06548 0.98472 0.0
C3356 C 0.68469 0.03535 0.00727 0.0
C3357 C 0.67693 0.02712 0.99484 0.0
C3358 C 0.69647 0.04409 0.00295 0.0
C3359 C 0.70061 0.04484 0.98607 0.0
C3360 C 0.69295 0.03643 0.9738 0.0
H3361 H 0.75597 0.10229 0.92817 0.0
H3362 H 0.73778 0.08796 0.94335 0.0
C3363 C 0.68124 0.02766 0.97813 0.0
C3364 C 0.71286 0.05439 0.98096 0.0
H3365 H 0.73075 0.08497 0.97659 0.0
C3366 C 0.7206 0.05083 0.9735 0.0
C3367 C 0.71656 0.06686 0.9821 0.0
C3368 C 0.70844 0.07126 0.98922 0.0
C3369 C 0.73182 0.05936 0.9668 0.0
C3370 C 0.73555 0.07184 0.96802 0.0
C3371 C 0.72792 0.07541 0.97581 0.0
C3372 C 0.74687 0.08124 0.96003 0.0
C3373 C 0.73929 0.05487 0.95779 0.0
C3374 C 0.75811 0.08251 0.96469 0.0
C3375 C 0.76854 0.09068 0.95594 0.0
C3376 C 0.76794 0.09787 0.94257 0.0
C3377 C 0.75676 0.09699 0.93852 0.0
C3378 C 0.74635 0.08875 0.94715 0.0
H3379 H 0.73388 0.04513 0.95434 0.0
H3380 H 0.7433 0.06012 0.94588 0.0
H3381 H 0.74673 0.05596 0.96644 0.0
H3382 H 0.75879 0.07704 0.97488 0.0
H3383 H 0.77705 0.09127 0.95949 0.0
H3384 H 0.66366 0.98792 0.0254 0.0
H3385 H 0.67127 0.97498 0.037 0.0
H3386 H 0.63635 0.94356 0.02901 0.0
H3387 H 0.62874 0.95628 0.0171 0.0
H3388 H 0.6642 0.96051 0.0648 0.0
H3389 H 0.6579 0.93272 0.0071 0.0
H3390 H 0.65702 0.94646 0.00629 0.0
H3391 H 0.64421 0.93245 0.0129 0.0
C3392 C 0.65761 0.97825 0.02601 0.0
C3393 C 0.64559 0.97316 0.02022 0.0
C3394 C 0.66199 0.97087 0.03262 0.0
C3395 C 0.65445 0.95827 0.03353 0.0
C3396 C 0.64244 0.95321 0.02797 0.0
H3397 H 0.65899 0.9076 0.10209 0.0
H3398 H 0.65466 0.92179 0.08673 0.0
C3399 C 0.63808 0.96054 0.02127 0.0
C3400 C 0.65889 0.95043 0.0411 0.0
H3401 H 0.66028 0.92464 0.03398 0.0
C3402 C 0.66348 0.95275 0.05798 0.0
C3403 C 0.65817 0.94042 0.03211 0.0
C3404 C 0.65418 0.93794 0.01354 0.0
C3405 C 0.66685 0.94505 0.06637 0.0
C3406 C 0.66531 0.93457 0.05779 0.0
C3407 C 0.66125 0.93255 0.04065 0.0
C3408 C 0.66757 0.92546 0.06655 0.0
C3409 C 0.67204 0.94825 0.08433 0.0
C3410 C 0.67584 0.92233 0.05986 0.0
C3411 C 0.67815 0.91396 0.06843 0.0
C3412 C 0.67219 0.90853 0.08383 0.0
C3413 C 0.66365 0.91145 0.09017 0.0
C3414 C 0.66131 0.91975 0.08156 0.0
H3415 H 0.67615 0.95811 0.08682 0.0
H3416 H 0.66472 0.94345 0.09377 0.0
H3417 H 0.679 0.94554 0.08658 0.0
H3418 H 0.68067 0.92652 0.04817 0.0
H3419 H 0.68465 0.9118 0.06303 0.0
H3420 H 0.0171 0.68039 0.03227 0.0
H3421 H 0.02813 0.70102 0.04394 0.0
H3422 H 0.06171 0.70371 0.02845 0.0
H3423 H 0.05092 0.68334 0.01672 0.0
H3424 H 0.04601 0.70937 0.06998 0.0
H3425 H 0.06416 0.73506 0.00965 0.0
H3426 H 0.05177 0.7197 0.00993 0.0
H3427 H 0.06705 0.72264 0.01195 0.0
C3428 C 0.02682 0.68542 0.0312 0.0
C3429 C 0.0331 0.68016 0.02357 0.0
C3430 C 0.0331 0.6972 0.03788 0.0
C3431 C 0.04572 0.70396 0.03682 0.0
C3432 C 0.05197 0.69876 0.0291 0.0
H3433 H 0.09943 0.76094 0.09867 0.0
H3434 H 0.08569 0.74224 0.08358 0.0
C3435 C 0.04575 0.68704 0.02253 0.0
C3436 C 0.05256 0.71616 0.04464 0.0
H3437 H 0.07396 0.7453 0.03582 0.0
C3438 C 0.052 0.71727 0.06249 0.0
C3439 C 0.06028 0.72648 0.03483 0.0
C3440 C 0.06078 0.72597 0.0155 0.0
C3441 C 0.05936 0.7283 0.0709 0.0
C3442 C 0.06761 0.73843 0.0612 0.0
C3443 C 0.06776 0.73747 0.04326 0.0
C3444 C 0.07636 0.74997 0.06956 0.0
C3445 C 0.05832 0.729 0.09011 0.0
C3446 C 0.076 0.76064 0.06615 0.0
C3447 C 0.08394 0.7714 0.07464 0.0
C3448 C 0.09246 0.7717 0.08657 0.0
C3449 C 0.09307 0.76107 0.08945 0.0
C3450 C 0.08511 0.75033 0.08101 0.0
H3451 H 0.04954 0.72167 0.09486 0.0
H3452 H 0.06559 0.728 0.09655 0.0
H3453 H 0.05931 0.73786 0.09392 0.0
H3454 H 0.06939 0.76058 0.05722 0.0
H3455 H 0.08332 0.77945 0.07199 0.0
H3456 H 0.32643 0.35847 0.00522 0.0
H3457 H 0.30662 0.35442 0.01525 0.0
H3458 H 0.31129 0.33816 0.06138 0.0
H3459 H 0.33112 0.34234 0.05164 0.0
H3460 H 0.28547 0.33309 0.02548 0.0
H3461 H 0.30615 0.36549 0.0795 0.0
H3462 H 0.31486 0.36482 0.06185 0.0
H3463 H 0.31038 0.35395 0.07902 0.0
C3464 C 0.32318 0.35392 0.01742 0.0
C3465 C 0.3304 0.35085 0.02773 0.0
C3466 C 0.31186 0.35161 0.02312 0.0
C3467 C 0.3076 0.34621 0.03921 0.0
C3468 C 0.31452 0.34258 0.04909 0.0
H3469 H 0.24765 0.33142 0.10439 0.0
H3470 H 0.2647 0.33169 0.09005 0.0
C3471 C 0.32584 0.34493 0.04346 0.0
C3472 C 0.29619 0.34487 0.04608 0.0
H3473 H 0.28488 0.35335 0.07953 0.0
C3474 C 0.28532 0.33755 0.03725 0.0
C3475 C 0.29604 0.35078 0.06137 0.0
C3476 C 0.30748 0.3593 0.07092 0.0
C3477 C 0.27425 0.33571 0.04362 0.0
C3478 C 0.27411 0.34145 0.05908 0.0
C3479 C 0.285 0.34887 0.06775 0.0
C3480 C 0.26282 0.33993 0.06667 0.0
C3481 C 0.26277 0.32742 0.03402 0.0
C3482 C 0.25599 0.34432 0.05818 0.0
C3483 C 0.24615 0.34411 0.06633 0.0
C3484 C 0.24299 0.33954 0.08314 0.0
C3485 C 0.24967 0.33481 0.09135 0.0
C3486 C 0.25949 0.33504 0.08322 0.0
H3487 H 0.2641 0.32163 0.02464 0.0
H3488 H 0.25555 0.32152 0.04307 0.0
H3489 H 0.25965 0.33295 0.02684 0.0
H3490 H 0.25852 0.3483 0.04551 0.0
H3491 H 0.24117 0.34776 0.05961 0.0
H3492 H 0.71649 0.70364 0.34693 0.0
H3493 H 0.72799 0.69492 0.35972 0.0
H3494 H 0.6955 0.666 0.38136 0.0
H3495 H 0.68378 0.67469 0.36855 0.0
H3496 H 0.71593 0.67858 0.40493 0.0
H3497 H 0.72824 0.66358 0.3453 0.0
H3498 H 0.73098 0.67887 0.34483 0.0
H3499 H 0.71579 0.66656 0.34619 0.0
C3500 C 0.71172 0.69539 0.35434 0.0
C3501 C 0.69917 0.68988 0.35673 0.0
C3502 C 0.71833 0.69038 0.36154 0.0
C3503 C 0.71258 0.67975 0.37128 0.0
C3504 C 0.70008 0.67418 0.37375 0.0
H3505 H 0.74308 0.64442 0.43456 0.0
H3506 H 0.7294 0.64967 0.41964 0.0
C3507 C 0.6934 0.67915 0.36642 0.0
C3508 C 0.71981 0.67488 0.37955 0.0
H3509 H 0.73888 0.66397 0.37083 0.0
C3510 C 0.72084 0.67525 0.39752 0.0
C3511 C 0.72629 0.67066 0.36979 0.0
C3512 C 0.72523 0.66978 0.35046 0.0
C3513 C 0.72849 0.67185 0.40602 0.0
C3514 C 0.73505 0.6677 0.39627 0.0
C3515 C 0.73387 0.66717 0.37828 0.0
C3516 C 0.74328 0.664 0.4045 0.0
C3517 C 0.72981 0.67319 0.42532 0.0
C3518 C 0.75558 0.66995 0.40042 0.0
C3519 C 0.76344 0.6668 0.40868 0.0
C3520 C 0.75914 0.65759 0.42117 0.0
C3521 C 0.74673 0.65145 0.42488 0.0
C3522 C 0.73889 0.65456 0.41654 0.0
H3523 H 0.72687 0.67951 0.43022 0.0
H3524 H 0.7241 0.66424 0.43139 0.0
H3525 H 0.7393 0.67652 0.42944 0.0
H3526 H 0.75914 0.6772 0.39104 0.0
H3527 H 0.77289 0.67159 0.40532 0.0
H3528 H 0.3236 0.00552 0.38755 0.0
H3529 H 0.32881 0.026 0.39634 0.0
H3530 H 0.31714 0.03206 0.34687 0.0
H3531 H 0.31176 0.01151 0.33802 0.0
H3532 H 0.34474 0.04856 0.38186 0.0
H3533 H 0.29753 0.03986 0.38102 0.0
H3534 H 0.30118 0.02783 0.3803 0.0
H3535 H 0.30252 0.03651 0.36132 0.0
C3536 C 0.32217 0.01121 0.37851 0.0
C3537 C 0.31719 0.00686 0.36212 0.0
C3538 C 0.32517 0.02292 0.38355 0.0
C3539 C 0.3232 0.03048 0.37236 0.0
C3540 C 0.31853 0.02629 0.35582 0.0
H3541 H 0.35126 0.10774 0.39389 0.0
H3542 H 0.3464 0.08872 0.37951 0.0
C3543 C 0.31552 0.01457 0.35076 0.0
C3544 C 0.3259 0.04268 0.37818 0.0
H3545 H 0.31277 0.05976 0.38756 0.0
C3546 C 0.33778 0.05105 0.38301 0.0
C3547 C 0.31676 0.04584 0.37982 0.0
C3548 C 0.30376 0.03703 0.37549 0.0
C3549 C 0.34075 0.06248 0.38959 0.0
C3550 C 0.33162 0.06567 0.39114 0.0
C3551 C 0.31976 0.05733 0.38618 0.0
C3552 C 0.33404 0.07726 0.39905 0.0
C3553 C 0.35355 0.07088 0.39539 0.0
C3554 C 0.32839 0.07714 0.41449 0.0
C3555 C 0.33113 0.08795 0.4227 0.0
C3556 C 0.33953 0.09916 0.41561 0.0
C3557 C 0.34488 0.09927 0.39982 0.0
C3558 C 0.34212 0.08842 0.3916 0.0
H3559 H 0.35885 0.06611 0.39667 0.0
H3560 H 0.35806 0.07822 0.38579 0.0
H3561 H 0.35372 0.0751 0.40793 0.0
H3562 H 0.32212 0.06863 0.42046 0.0
H3563 H 0.32698 0.08749 0.43496 0.0
H3564 H 0.98993 0.3163 0.37954 0.0
H3565 H 0.96931 0.30196 0.38814 0.0
H3566 H 0.9649 0.28016 0.34346 0.0
H3567 H 0.98557 0.2945 0.33472 0.0
H3568 H 0.94677 0.29357 0.36826 0.0
H3569 H 0.95677 0.25683 0.38578 0.0
H3570 H 0.96849 0.27241 0.3837 0.0
H3571 H 0.96135 0.26359 0.36486 0.0
C3572 C 0.98457 0.30849 0.37149 0.0
C3573 C 0.9894 0.3065 0.35649 0.0
C3574 C 0.97279 0.30032 0.37641 0.0
C3575 C 0.96564 0.28995 0.36653 0.0
C3576 C 0.97033 0.28805 0.35136 0.0
H3577 H 0.89542 0.229 0.39632 0.0
H3578 H 0.9135 0.24207 0.37962 0.0
C3579 C 0.98211 0.29627 0.34636 0.0
C3580 C 0.95338 0.2811 0.3724 0.0
H3581 H 0.93704 0.25308 0.39035 0.0
C3582 C 0.94459 0.28467 0.37296 0.0
C3583 C 0.95056 0.26948 0.37838 0.0
C3584 C 0.95977 0.2653 0.3783 0.0
C3585 C 0.9331 0.277 0.37966 0.0
C3586 C 0.93044 0.26558 0.38637 0.0
C3587 C 0.9391 0.26184 0.38523 0.0
C3588 C 0.91912 0.25779 0.3958 0.0
C3589 C 0.92393 0.28124 0.37951 0.0
C3590 C 0.91636 0.26224 0.41051 0.0
C3591 C 0.90609 0.25483 0.42004 0.0
C3592 C 0.89838 0.24273 0.41517 0.0
C3593 C 0.90118 0.23826 0.40043 0.0
C3594 C 0.91147 0.24572 0.39085 0.0
H3595 H 0.92577 0.28794 0.36911 0.0
H3596 H 0.91464 0.27355 0.37777 0.0
H3597 H 0.92441 0.28571 0.39194 0.0
H3598 H 0.92231 0.27139 0.41491 0.0
H3599 H 0.90441 0.2585 0.43156 0.0
H3600 H 0.00193 0.34411 0.32311 0.0
H3601 H 0.99445 0.35665 0.30942 0.0
H3602 H 0.03064 0.38684 0.30821 0.0
H3603 H 0.03819 0.37455 0.32185 0.0
H3604 H 0.9988 0.38108 0.32248 0.0
H3605 H 0.01662 0.38194 0.25734 0.0
H3606 H 0.01385 0.37025 0.2729 0.0
H3607 H 0.02708 0.38487 0.27479 0.0
C3608 C 0.0083 0.3534 0.31984 0.0
C3609 C 0.02067 0.3583 0.32356 0.0
C3610 C 0.004 0.36054 0.31209 0.0
C3611 C 0.01202 0.37262 0.30772 0.0
C3612 C 0.02433 0.3775 0.31136 0.0
H3613 H 0.01104 0.43771 0.28538 0.0
H3614 H 0.01139 0.42043 0.29881 0.0
C3615 C 0.02861 0.37044 0.31921 0.0
C3616 C 0.00769 0.38033 0.29953 0.0
H3617 H 0.01065 0.3966 0.26311 0.0
C3618 C 1.00121 0.38435 0.30942 0.0
C3619 C 0.01078 0.38448 0.28246 0.0
C3620 C 0.01738 0.38011 0.27115 0.0
C3621 C 0.99824 0.3929 0.3029 0.0
C3622 C 0.00193 0.39756 0.28614 0.0
C3623 C 0.00788 0.39307 0.276 0.0
C3624 C 1.00038 0.40761 0.27916 0.0
C3625 C 0.99131 0.39697 0.31405 0.0
C3626 C 0.99407 0.40615 0.26367 0.0
C3627 C 0.99391 0.41603 0.25592 0.0
C3628 C 1.00019 0.4276 0.26342 0.0
C3629 C 0.00617 0.42894 0.27924 0.0
C3630 C 0.00628 0.41904 0.28702 0.0
H3631 H 0.9862 0.39019 0.32415 0.0
H3632 H 0.99773 0.40555 0.32055 0.0
H3633 H 0.98492 0.39862 0.30625 0.0
H3634 H 0.98955 0.39743 0.25732 0.0
H3635 H 0.98937 0.41472 0.24362 0.0
H3636 H 0.63599 0.65814 0.3492 0.0
H3637 H 0.62018 0.63799 0.34026 0.0
H3638 H 0.63817 0.64228 0.29199 0.0
H3639 H 0.65405 0.66235 0.30087 0.0
H3640 H 0.60484 0.63224 0.31191 0.0
H3641 H 0.63187 0.60902 0.3083 0.0
H3642 H 0.63716 0.62326 0.31932 0.0
H3643 H 0.63817 0.62289 0.29631 0.0
C3644 C 0.63665 0.65474 0.33676 0.0
C3645 C 0.6463 0.66183 0.32577 0.0
C3646 C 0.6276 0.64324 0.33166 0.0
C3647 C 0.62807 0.63857 0.31555 0.0
C3648 C 0.63774 0.6456 0.30461 0.0
H3649 H 0.57266 0.58423 0.25181 0.0
H3650 H 0.58692 0.60271 0.26681 0.0
C3651 C 0.64678 0.6571 0.30968 0.0
C3652 C 0.61818 0.62661 0.30981 0.0
H3653 H 0.61243 0.59904 0.29483 0.0
C3654 C 0.60647 0.62493 0.30833 0.0
C3655 C 0.62028 0.61703 0.30536 0.0
C3656 C 0.63252 0.61807 0.30755 0.0
C3657 C 0.59689 0.61408 0.30194 0.0
C3658 C 0.59912 0.60473 0.29667 0.0
C3659 C 0.61074 0.60625 0.29874 0.0
C3660 C 0.58968 0.59349 0.28837 0.0
C3661 C 0.58446 0.61272 0.30088 0.0
C3662 C 0.5865 0.58213 0.29545 0.0
C3663 C 0.5783 0.57151 0.2869 0.0
C3664 C 0.57318 0.57204 0.27103 0.0
C3665 C 0.57621 0.58346 0.26417 0.0
C3666 C 0.5844 0.59406 0.27273 0.0
H3667 H 0.58353 0.61896 0.30989 0.0
H3668 H 0.58284 0.61494 0.28765 0.0
H3669 H 0.57741 0.6033 0.30382 0.0
H3670 H 0.59049 0.58148 0.3075 0.0
H3671 H 0.57609 0.56288 0.29262 0.0
H3672 H 0.33875 0.95848 0.33156 0.0
H3673 H 0.35872 0.96622 0.31944 0.0
H3674 H 0.36314 0.0021 0.31743 0.0
H3675 H 0.34293 0.99438 0.32929 0.0
H3676 H 0.3702 0.99642 0.28796 0.0
H3677 H 0.39102 0.98559 0.34294 0.0
H3678 H 0.37746 0.97251 0.3358 0.0
H3679 H 0.37674 0.98525 0.34454 0.0
C3680 C 0.34394 0.96805 0.32864 0.0
C3681 C 0.3392 0.97581 0.33149 0.0
C3682 C 0.35544 0.97247 0.32182 0.0
C3683 C 0.36256 0.98479 0.3179 0.0
C3684 C 0.35784 0.99258 0.32052 0.0
H3685 H 0.43793 0.01175 0.28796 0.0
H3686 H 0.42009 0.00912 0.30325 0.0
C3687 C 0.34628 0.98814 0.32728 0.0
C3688 C 0.37469 0.98933 0.31034 0.0
H3689 H 0.40109 0.9889 0.31579 0.0
C3690 C 0.37702 0.99493 0.29415 0.0
C3691 C 0.38371 0.98763 0.31856 0.0
C3692 C 0.38216 0.98254 0.3365 0.0
C3693 C 0.38786 0.99828 0.28558 0.0
C3694 C 0.39647 0.9957 0.29322 0.0
C3695 C 0.39441 0.9907 0.3098 0.0
C3696 C 0.40735 0.99755 0.28389 0.0
C3697 C 0.38993 0.00451 0.26838 0.0
C3698 C 0.40612 0.99177 0.26808 0.0
C3699 C 0.41627 0.99334 0.25926 0.0
C3700 C 0.42792 1.00058 0.26617 0.0
C3701 C 0.42913 0.00622 0.28217 0.0
C3702 C 0.41893 0.00468 0.29096 0.0
H3703 H 0.38474 0.00939 0.26713 0.0
H3704 H 0.39963 0.01105 0.2664 0.0
H3705 H 0.38682 0.99762 0.258 0.0
H3706 H 0.39728 0.98598 0.26255 0.0
H3707 H 0.41496 0.989 0.24687 0.0
H3708 H 0.65611 0.99446 0.30221 0.0
H3709 H 0.64033 0.99838 0.29105 0.0
H3710 H 0.6165 0.97616 0.33121 0.0
H3711 H 0.63235 0.9726 0.34277 0.0
H3712 H 0.61938 0.98297 0.278 0.0
H3713 H 0.61122 0.00455 0.33387 0.0
H3714 H 0.62411 0.00231 0.33276 0.0
H3715 H 0.60971 0.99018 0.33953 0.0
C3716 C 0.64756 0.99056 0.30879 0.0
C3717 C 0.64548 0.98326 0.3234 0.0
C3718 C 0.63855 0.9928 0.30241 0.0
C3719 C 0.62727 0.98774 0.31044 0.0
C3720 C 0.62522 0.98048 0.32507 0.0
H3721 H 0.56064 0.97085 0.25927 0.0
H3722 H 0.57766 0.97088 0.2737 0.0
C3723 C 0.63427 0.97836 0.33159 0.0
C3724 C 0.61738 0.98927 0.30277 0.0
H3725 H 0.59562 0.99657 0.31215 0.0
C3726 C 0.61428 0.98608 0.28545 0.0
C3727 C 0.61082 0.9935 0.31235 0.0
C3728 C 0.61422 0.99796 0.3306 0.0
C3729 C 0.60461 0.98663 0.27761 0.0
C3730 C 0.59756 0.99009 0.28751 0.0
C3731 C 0.60089 0.9937 0.30465 0.0
C3732 C 0.58664 0.9899 0.28027 0.0
C3733 C 0.60215 0.98361 0.25873 0.0
C3734 C 0.58563 1.00041 0.28006 0.0
C3735 C 0.57568 1.00036 0.2722 0.0
C3736 C 0.56653 0.98978 0.26437 0.0
C3737 C 0.56738 0.97915 0.26529 0.0
C3738 C 0.57724 0.97919 0.27329 0.0
H3739 H 0.61036 0.98496 0.252 0.0
H3740 H 0.59518 0.97396 0.25729 0.0
H3741 H 0.59883 0.98925 0.2523 0.0
H3742 H 0.5927 0.00875 0.28558 0.0
H3743 H 0.57525 0.00866 0.27206 0.0
H3744 H 0.01093 0.66135 0.32115 0.0
H3745 H 0.00345 0.64093 0.30963 0.0
H3746 H 0.03617 0.6417 0.32631 0.0
H3747 H 0.04367 0.66193 0.33798 0.0
H3748 H 0.01393 0.63359 0.28435 0.0
H3749 H 0.00986 0.60948 0.34565 0.0
H3750 H 0.01134 0.62437 0.3448 0.0
H3751 H 0.02442 0.62258 0.3428 0.0
C3752 C 0.01651 0.65715 0.32247 0.0
C3753 C 0.02791 0.66332 0.33054 0.0
C3754 C 0.01222 0.64548 0.31587 0.0
C3755 C 0.01917 0.63972 0.31737 0.0
C3756 C 0.03054 0.64586 0.32534 0.0
H3757 H 0.01754 0.58234 0.25705 0.0
H3758 H 0.02241 0.6012 0.27166 0.0
C3759 C 0.03485 0.6575 0.33189 0.0
C3760 C 0.01486 0.62752 0.30993 0.0
H3761 H 0.00925 0.59899 0.31987 0.0
C3762 C 0.0128 0.62599 0.29213 0.0
C3763 C 0.01325 0.61758 0.32013 0.0
C3764 C 0.01471 0.61852 0.33943 0.0
C3765 C 0.00959 0.6149 0.28417 0.0
C3766 C 0.00857 0.60514 0.29426 0.0
C3767 C 0.01019 0.60653 0.31214 0.0
C3768 C 0.00598 0.59348 0.28639 0.0
C3769 C 0.00729 0.61371 0.26502 0.0
C3770 C 0.99536 0.58278 0.29037 0.0
C3771 C 0.9926 0.57192 0.28218 0.0
C3772 C 1.00048 0.57156 0.26994 0.0
C3773 C 0.01133 0.58224 0.26652 0.0
C3774 C 0.01406 0.59307 0.27469 0.0
H3775 H 0.00533 0.62077 0.25999 0.0
H3776 H 0.01543 0.61478 0.25843 0.0
H3777 H 0.99963 0.60467 0.26168 0.0
H3778 H 0.98906 0.58289 0.2995 0.0
H3779 H 0.98423 0.56384 0.28525 0.0
H3780 H 0.34088 0.35088 0.30255 0.0
H3781 H 0.36117 0.36603 0.29378 0.0
H3782 H 0.36621 0.3852 0.34144 0.0
H3783 H 0.34586 0.37012 0.35028 0.0
H3784 H 0.3724 0.40006 0.31234 0.0
H3785 H 0.39391 0.37134 0.31131 0.0
H3786 H 0.38006 0.36518 0.29922 0.0
H3787 H 0.37987 0.36686 0.32214 0.0
C3788 C 0.34634 0.35825 0.31125 0.0
C3789 C 0.34176 0.35928 0.32714 0.0
C3790 C 0.35797 0.36687 0.30625 0.0
C3791 C 0.36526 0.37666 0.31705 0.0
C3792 C 0.36075 0.37768 0.33295 0.0
H3793 H 0.44123 0.42699 0.29459 0.0
H3794 H 0.42259 0.41309 0.30946 0.0
C3795 C 0.34913 0.36904 0.338 0.0
C3796 C 0.37735 0.38614 0.31131 0.0
H3797 H 0.4045 0.39052 0.29729 0.0
C3798 C 0.37946 0.39801 0.30921 0.0
C3799 C 0.38661 0.38349 0.30745 0.0
C3800 C 0.38508 0.37105 0.31029 0.0
C3801 C 0.39044 0.40719 0.30272 0.0
C3802 C 0.39947 0.40439 0.29803 0.0
C3803 C 0.39753 0.39264 0.30076 0.0
C3804 C 0.41076 0.41337 0.28955 0.0
C3805 C 0.39225 0.41981 0.30089 0.0
C3806 C 0.41029 0.41812 0.27343 0.0
C3807 C 0.42089 0.42598 0.26486 0.0
C3808 C 0.43223 0.42926 0.2722 0.0
C3809 C 0.43267 0.4246 0.28849 0.0
C3810 C 0.42203 0.41669 0.29704 0.0
H3811 H 0.38614 0.42125 0.30941 0.0
H3812 H 0.40171 0.42673 0.30393 0.0
H3813 H 0.39026 0.42121 0.28742 0.0
H3814 H 0.40169 0.41546 0.26723 0.0
H3815 H 0.42017 0.42914 0.25218 0.0
H3816 H 0.29984 0.29013 0.34439 0.0
H3817 H 0.3071 0.27764 0.35814 0.0
H3818 H 0.33285 0.30835 0.38772 0.0
H3819 H 0.32585 0.32111 0.37353 0.0
H3820 H 0.34251 0.29477 0.37628 0.0
H3821 H 0.29847 0.26494 0.40644 0.0
H3822 H 0.29719 0.26553 0.38352 0.0
H3823 H 0.30185 0.279 0.39613 0.0
C3824 C 0.30707 0.29428 0.35379 0.0
C3825 C 0.31216 0.3066 0.35804 0.0
C3826 C 0.31117 0.28709 0.36171 0.0
C3827 C 0.32028 0.29197 0.37432 0.0
C3828 C 0.32572 0.30437 0.37814 0.0
H3829 H 0.33222 0.24637 0.44639 0.0
H3830 H 0.32718 0.26059 0.43243 0.0
C3831 C 0.32172 0.31165 0.37003 0.0
C3832 C 0.32392 0.28401 0.38358 0.0
H3833 H 0.31264 0.25785 0.40678 0.0
C3834 C 0.33601 0.28674 0.38306 0.0
C3835 C 0.31548 0.27365 0.3927 0.0
C3836 C 0.30255 0.27067 0.39491 0.0
C3837 C 0.33981 0.27922 0.39104 0.0
C3838 C 0.33122 0.26851 0.39937 0.0
C3839 C 0.3192 0.26595 0.4002 0.0
C3840 C 0.33448 0.25994 0.40771 0.0
C3841 C 0.35303 0.28298 0.39075 0.0
C3842 C 0.34011 0.25467 0.39842 0.0
C3843 C 0.34308 0.24659 0.40644 0.0
C3844 C 0.34024 0.24343 0.42379 0.0
C3845 C 0.33437 0.2485 0.43294 0.0
C3846 C 0.33155 0.25669 0.425 0.0
H3847 H 0.35872 0.29288 0.38867 0.0
H3848 H 0.35592 0.28055 0.40294 0.0
H3849 H 0.35469 0.2783 0.38001 0.0
H3850 H 0.34214 0.25675 0.38494 0.0
H3851 H 0.34752 0.24273 0.39906 0.0
H3852 H 0.68022 0.00758 0.37286 0.0
H3853 H 0.69046 0.02795 0.38564 0.0
H3854 H 0.72346 0.03542 0.36078 0.0
H3855 H 0.71348 0.01523 0.34825 0.0
H3856 H 0.7135 0.03702 0.40712 0.0
H3857 H 0.71798 0.06526 0.34999 0.0
H3858 H 0.70632 0.0496 0.35179 0.0
H3859 H 0.72143 0.0533 0.34654 0.0
C3860 C 0.68962 0.01362 0.37 0.0
C3861 C 0.69604 0.00975 0.35961 0.0
C3862 C 0.69544 0.02523 0.37729 0.0
C3863 C 0.70766 0.03319 0.37396 0.0
C3864 C 0.71398 0.02945 0.36332 0.0
H3865 H 0.76989 0.09864 0.39988 0.0
H3866 H 0.75306 0.08103 0.38638 0.0
C3867 C 0.70827 0.01786 0.35626 0.0
C3868 C 0.71426 0.04512 0.38252 0.0
H3869 H 0.73098 0.07531 0.37388 0.0
C3870 C 0.71713 0.04545 0.40001 0.0
C3871 C 0.71904 0.05602 0.37309 0.0
C3872 C 0.71598 0.05611 0.35432 0.0
C3873 C 0.72528 0.05635 0.40813 0.0
C3874 C 0.73041 0.06727 0.39855 0.0
C3875 C 0.72705 0.06697 0.38122 0.0
C3876 C 0.74011 0.07882 0.40582 0.0
C3877 C 0.72891 0.05592 0.42656 0.0
C3878 C 0.73834 0.08375 0.42089 0.0
C3879 C 0.74803 0.09369 0.42885 0.0
C3880 C 0.75965 0.09903 0.42174 0.0
C3881 C 0.76115 0.0946 0.40595 0.0
C3882 C 0.7515 0.08458 0.39812 0.0
H3883 H 0.72629 0.04657 0.4307 0.0
H3884 H 0.73879 0.06169 0.42839 0.0
H3885 H 0.72434 0.05934 0.4351 0.0
H3886 H 0.72956 0.07966 0.42683 0.0
H3887 H 0.7465 0.09679 0.44102 0.0
H3888 H 0.99115 0.68927 0.33439 0.0
H3889 H 0.97081 0.68427 0.34322 0.0
H3890 H 0.9777 0.67489 0.3938 0.0
H3891 H 0.99801 0.67986 0.38514 0.0
H3892 H 0.95148 0.6619 0.35765 0.0
H3893 H 0.96769 0.70121 0.40177 0.0
H3894 H 0.97704 0.70025 0.38528 0.0
H3895 H 0.97462 0.692 0.40502 0.0
C3896 C 0.98831 0.68606 0.34736 0.0
C3897 C 0.99622 0.68502 0.3591 0.0
C3898 C 0.97669 0.68322 0.35237 0.0
C3899 C 0.97283 0.67939 0.36922 0.0
C3900 C 0.98058 0.67801 0.3808 0.0
H3901 H 0.90422 0.64551 0.41853 0.0
H3902 H 0.92272 0.65041 0.40346 0.0
C3903 C 0.99216 0.6808 0.3758 0.0
C3904 C 0.96079 0.67701 0.37486 0.0
H3905 H 0.94695 0.6864 0.40341 0.0
C3906 C 0.95047 0.66729 0.36756 0.0
C3907 C 0.95951 0.68419 0.38759 0.0
C3908 C 0.97028 0.69507 0.3953 0.0
C3909 C 0.93887 0.66428 0.37315 0.0
C3910 C 0.93762 0.67113 0.38645 0.0
C3911 C 0.94793 0.68112 0.39328 0.0
C3912 C 0.92576 0.66775 0.39412 0.0
C3913 C 0.92806 0.65379 0.36482 0.0
C3914 C 0.92132 0.67589 0.39395 0.0
C3915 C 0.91064 0.67308 0.40249 0.0
C3916 C 0.90426 0.66211 0.41152 0.0
C3917 C 0.90869 0.65391 0.41139 0.0
C3918 C 0.91931 0.65671 0.4028 0.0
H3919 H 0.93025 0.6517 0.35194 0.0
H3920 H 0.92504 0.64563 0.373 0.0
H3921 H 0.92047 0.65568 0.36346 0.0
H3922 H 0.9262 0.6845 0.38738 0.0
H3923 H 0.90747 0.67957 0.40218 0.0
H3924 H 0.3821 0.04064 0.67188 0.0
H3925 H 0.39564 0.03409 0.68403 0.0
H3926 H 0.36679 0.00782 0.71534 0.0
H3927 H 0.35303 0.01405 0.70278 0.0
H3928 H 0.40304 0.03542 0.71595 0.0
H3929 H 0.37972 0.98732 0.69617 0.0
H3930 H 0.37566 0.99805 0.68757 0.0
H3931 H 0.37016 0.99113 0.70821 0.0
C3932 C 0.37858 0.03339 0.68125 0.0
C3933 C 0.36646 0.02786 0.68635 0.0
C3934 C 0.38635 0.02965 0.68818 0.0
C3935 C 0.38223 0.02035 0.70044 0.0
C3936 C 0.37012 0.01479 0.70557 0.0
H3937 H 0.42736 0.00993 0.77438 0.0
H3938 H 0.41425 0.01565 0.75868 0.0
C3939 C 0.36228 0.01842 0.69846 0.0
C3940 C 0.3908 0.017 0.70849 0.0
H3941 H 0.3953 0.99316 0.71742 0.0
C3942 C 0.40138 0.02618 0.71614 0.0
C3943 C 0.38876 0.00498 0.70852 0.0
C3944 C 0.37802 0.99483 0.69952 0.0
C3945 C 0.40982 0.02367 0.72412 0.0
C3946 C 0.40747 0.01157 0.72495 0.0
C3947 C 0.39704 0.00241 0.71696 0.0
C3948 C 0.41558 0.0082 0.73436 0.0
C3949 C 0.42126 0.03407 0.73134 0.0
C3950 C 0.42044 0.0018 0.72607 0.0
C3951 C 0.42785 0.99839 0.73509 0.0
C3952 C 0.43057 0.00138 0.75257 0.0
C3953 C 0.42567 0.00776 0.76083 0.0
C3954 C 0.41818 0.01105 0.75186 0.0
H3955 H 0.42347 0.04273 0.72489 0.0
H3956 H 0.42005 0.0351 0.74522 0.0
H3957 H 0.42903 0.03248 0.72994 0.0
H3958 H 0.4185 0.99944 0.71259 0.0
H3959 H 0.4315 0.99347 0.7284 0.0
H3960 H 0.99303 0.34107 0.71714 0.0
H3961 H 0.99721 0.3613 0.72568 0.0
H3962 H 0.98373 0.36577 0.6767 0.0
H3963 H 0.97944 0.3455 0.66807 0.0
H3964 H 0.01143 0.38483 0.70967 0.0
H3965 H 0.96256 0.37023 0.71294 0.0
H3966 H 0.96802 0.35957 0.71214 0.0
H3967 H 0.96768 0.36736 0.69299 0.0
C3968 C 0.99106 0.3464 0.70811 0.0
C3969 C 0.98581 0.34164 0.69198 0.0
C3970 C 0.99348 0.35796 0.713 0.0
C3971 C 0.99062 0.36494 0.70191 0.0
C3972 C 0.98584 0.36044 0.68554 0.0
H3973 H 0.9876 0.43068 0.72511 0.0
H3974 H 0.98775 0.41403 0.70955 0.0
C3975 C 0.98344 0.34888 0.68061 0.0
C3976 C 0.99212 0.37667 0.70788 0.0
H3977 H 0.97619 0.39055 0.71954 0.0
C3978 C 0.00374 0.38613 0.71175 0.0
C3979 C 0.98208 0.37833 0.71052 0.0
C3980 C 0.96936 0.36833 0.70708 0.0
C3981 C 0.00559 0.39722 0.71828 0.0
C3982 C 0.99551 0.39876 0.72137 0.0
C3983 C 0.98391 0.38938 0.71712 0.0
C3984 C 0.99663 0.40968 0.72998 0.0
C3985 C 0.01831 0.40718 0.72173 0.0
C3986 C 0.00163 0.41281 0.74658 0.0
C3987 C 0.00156 0.4223 0.75547 0.0
C3988 C 0.99637 0.42879 0.74803 0.0
C3989 C 0.9916 0.42581 0.73124 0.0
C3990 C 0.99171 0.41633 0.72232 0.0
H3991 H 0.02488 0.40613 0.71368 0.0
H3992 H 0.01928 0.41622 0.71924 0.0
H3993 H 0.02066 0.40678 0.73541 0.0
H3994 H 0.00517 0.40761 0.75296 0.0
H3995 H 0.00508 0.42417 0.76851 0.0
H3996 H 0.6604 0.65155 0.71528 0.0
H3997 H 0.63986 0.63714 0.72418 0.0
H3998 H 0.635 0.61565 0.67899 0.0
H3999 H 0.65556 0.63005 0.66993 0.0
H4000 H 0.61702 0.62875 0.7043 0.0
H4001 H 0.6274 0.5922 0.72139 0.0
H4002 H 0.63902 0.60784 0.71953 0.0
H4003 H 0.63199 0.59913 0.70056 0.0
C4004 C 0.65495 0.64379 0.70718 0.0
C4005 C 0.65963 0.64191 0.69193 0.0
C4006 C 0.64322 0.63558 0.71227 0.0
C4007 C 0.63598 0.62528 0.70232 0.0
C4008 C 0.64051 0.62348 0.68693 0.0
H4009 H 0.56603 0.56366 0.73097 0.0
H4010 H 0.58428 0.57707 0.71484 0.0
C4011 C 0.65223 0.63174 0.68175 0.0
C4012 C 0.62377 0.61638 0.70831 0.0
H4013 H 0.6076 0.58825 0.72598 0.0
C4014 C 0.61491 0.61985 0.70893 0.0
C4015 C 0.62104 0.60477 0.7142 0.0
C4016 C 0.63034 0.60071 0.71404 0.0
C4017 C 0.60341 0.61206 0.71552 0.0
C4018 C 0.60083 0.60062 0.72209 0.0
C4019 C 0.60959 0.59702 0.72097 0.0
C4020 C 0.58943 0.59262 0.73122 0.0
C4021 C 0.59414 0.61617 0.71534 0.0
C4022 C 0.58633 0.59685 0.74587 0.0
C4023 C 0.57595 0.58924 0.75505 0.0
C4024 C 0.56847 0.57716 0.74991 0.0
C4025 C 0.57161 0.5729 0.73527 0.0
C4026 C 0.582 0.58056 0.72603 0.0
H4027 H 0.59598 0.62293 0.70503 0.0
H4028 H 0.5849 0.60843 0.71343 0.0
H4029 H 0.59449 0.62053 0.72781 0.0
H4030 H 0.59211 0.60598 0.75046 0.0
H4031 H 0.57399 0.59274 0.7665 0.0
H4032 H 0.70627 0.71129 0.66749 0.0
H4033 H 0.69894 0.72387 0.65439 0.0
H4034 H 0.6663 0.69202 0.63837 0.0
H4035 H 0.67354 0.67918 0.65168 0.0
H4036 H 0.69307 0.72362 0.61934 0.0
H4037 H 0.6542 0.71339 0.66161 0.0
H4038 H 0.66592 0.71005 0.66788 0.0
H4039 H 0.65473 0.70072 0.65232 0.0
C4040 C 0.6975 0.70687 0.66126 0.0
C4041 C 0.69053 0.69417 0.6606 0.0
C4042 C 0.69332 0.71412 0.65379 0.0
C4043 C 0.68205 0.7089 0.64552 0.0
C4044 C 0.67496 0.69624 0.64492 0.0
H4045 H 0.6541 0.74936 0.58706 0.0
H4046 H 0.65544 0.73269 0.60099 0.0
C4047 C 0.67914 0.68892 0.65245 0.0
C4048 C 0.67821 0.7169 0.63691 0.0
H4049 H 0.65842 0.72765 0.63943 0.0
C4050 C 0.68543 0.72442 0.62364 0.0
C4051 C 0.66821 0.71789 0.64251 0.0
C4052 C 0.66032 0.71016 0.65693 0.0
C4053 C 0.68312 0.73313 0.61612 0.0
C4054 C 0.67342 0.73444 0.62215 0.0
C4055 C 0.66589 0.72663 0.63495 0.0
C4056 C 0.67147 0.74434 0.61574 0.0
C4057 C 0.69119 0.74101 0.60194 0.0
C4058 C 0.6798 0.75636 0.61994 0.0
C4059 C 0.67903 0.76588 0.61213 0.0
C4060 C 0.66993 0.76355 0.59992 0.0
C4061 C 0.66117 0.75146 0.5965 0.0
C4062 C 0.66194 0.74192 0.60437 0.0
H4063 H 0.6966 0.73722 0.59634 0.0
H4064 H 0.6858 0.74214 0.59152 0.0
H4065 H 0.6975 0.75011 0.6072 0.0
H4066 H 0.68715 0.75838 0.62883 0.0
H4067 H 0.6858 0.77508 0.61525 0.0
H4068 H 0.30287 0.99101 0.68498 0.0
H4069 H 0.28765 0.97032 0.67721 0.0
H4070 H 0.30466 0.97448 0.62813 0.0
H4071 H 0.31993 0.99508 0.63582 0.0
H4072 H 0.27166 0.96373 0.64963 0.0
H4073 H 0.29977 0.94178 0.64471 0.0
H4074 H 0.30491 0.95607 0.65552 0.0
H4075 H 0.30554 0.95551 0.63247 0.0
C4076 C 0.30347 0.98746 0.67263 0.0
C4077 C 0.31262 0.99468 0.66102 0.0
C4078 C 0.29476 0.97564 0.66821 0.0
C4079 C 0.2951 0.9708 0.65218 0.0
C4080 C 0.30435 0.97793 0.6407 0.0
H4081 H 0.24071 0.91712 0.58794 0.0
H4082 H 0.25485 0.93523 0.6037 0.0
C4083 C 0.31304 0.98974 0.64509 0.0
C4084 C 0.28536 0.95864 0.6469 0.0
H4085 H 0.28024 0.93143 0.63124 0.0
C4086 C 0.27351 0.95661 0.64582 0.0
C4087 C 0.28774 0.94929 0.64215 0.0
C4088 C 0.30016 0.9507 0.64392 0.0
C4089 C 0.26408 0.94568 0.63937 0.0
C4090 C 0.2666 0.93663 0.63365 0.0
C4091 C 0.27834 0.93843 0.63548 0.0
C4092 C 0.25737 0.92553 0.62483 0.0
C4093 C 0.25151 0.94398 0.6386 0.0
C4094 C 0.25414 0.91402 0.63139 0.0
C4095 C 0.24597 0.90359 0.62242 0.0
C4096 C 0.24094 0.90448 0.60664 0.0
C4097 C 0.24414 0.91605 0.60023 0.0
C4098 C 0.25227 0.92644 0.60921 0.0
H4099 H 0.25041 0.94996 0.64791 0.0
H4100 H 0.24976 0.94632 0.62552 0.0
H4101 H 0.24465 0.93445 0.6413 0.0
H4102 H 0.25802 0.91312 0.64339 0.0
H4103 H 0.24364 0.89484 0.6278 0.0
H4104 H 0.01165 0.32785 0.66244 0.0
H4105 H 0.03157 0.33493 0.65003 0.0
H4106 H 0.02516 0.29829 0.64904 0.0
H4107 H 0.00544 0.29118 0.66189 0.0
H4108 H 0.04733 0.31354 0.66104 0.0
H4109 H 0.03926 0.33218 0.60081 0.0
H4110 H 0.03698 0.33861 0.61992 0.0
H4111 H 0.02727 0.32282 0.61529 0.0
C4112 C 0.01445 0.32129 0.65951 0.0
C4113 C 0.00689 0.30893 0.6631 0.0
C4114 C 0.02583 0.32535 0.65232 0.0
C4115 C 0.0298 0.31712 0.64831 0.0
C4116 C 0.0223 0.30481 0.65198 0.0
H4117 H 0.08821 0.31847 0.59219 0.0
H4118 H 0.0698 0.31313 0.60802 0.0
C4119 C 0.01099 0.30076 0.65931 0.0
C4120 C 0.04181 0.32127 0.64054 0.0
H4121 H 0.05917 0.33584 0.60574 0.0
C4122 C 0.0499 0.31841 0.64895 0.0
C4123 C 0.04517 0.3276 0.62471 0.0
C4124 C 0.03668 0.33039 0.61455 0.0
C4125 C 0.06122 0.3217 0.64196 0.0
C4126 C 0.06454 0.32803 0.62622 0.0
C4127 C 0.05657 0.33104 0.61789 0.0
C4128 C 0.07606 0.33116 0.61782 0.0
C4129 C 0.06959 0.31837 0.65133 0.0
C4130 C 0.0857 0.34305 0.6183 0.0
C4131 C 0.09635 0.34612 0.6095 0.0
C4132 C 0.09747 0.33738 0.59986 0.0
C4133 C 0.0878 0.32541 0.5997 0.0
C4134 C 0.07721 0.32234 0.60862 0.0
H4135 H 0.06625 0.31463 0.66433 0.0
H4136 H 0.07051 0.31149 0.64376 0.0
H4137 H 0.07869 0.32644 0.6526 0.0
H4138 H 0.08495 0.34996 0.62537 0.0
H4139 H 0.10365 0.35538 0.61013 0.0
H4140 H 0.31827 0.32501 0.6324 0.0
H4141 H 0.30279 0.33003 0.62378 0.0
H4142 H 0.28786 0.32143 0.67474 0.0
H4143 H 0.3032 0.31613 0.68338 0.0
H4144 H 0.27051 0.31119 0.65008 0.0
H4145 H 0.30015 0.35963 0.6351 0.0
H4146 H 0.30442 0.35011 0.62371 0.0
H4147 H 0.30544 0.35083 0.64682 0.0
C4148 C 0.31177 0.3243 0.64184 0.0
C4149 C 0.312 0.32022 0.6586 0.0
C4150 C 0.30296 0.32724 0.63691 0.0
C4151 C 0.29428 0.32631 0.64869 0.0
C4152 C 0.29451 0.32229 0.66547 0.0
H4153 H 0.24688 0.3554 0.62083 0.0
H4154 H 0.26083 0.35081 0.63669 0.0
C4155 C 0.3033 0.31929 0.67039 0.0
C4156 C 0.28465 0.329 0.64321 0.0
H4157 H 0.27999 0.35052 0.62382 0.0
C4158 C 0.27257 0.31984 0.64452 0.0
C4159 C 0.28732 0.34034 0.63623 0.0
C4160 C 0.30003 0.35083 0.63554 0.0
C4161 C 0.26312 0.32156 0.63841 0.0
C4162 C 0.26584 0.33265 0.63044 0.0
C4163 C 0.27789 0.34197 0.62976 0.0
C4164 C 0.25645 0.33467 0.62209 0.0
C4165 C 0.25032 0.31149 0.64061 0.0
C4166 C 0.24924 0.32707 0.60873 0.0
C4167 C 0.24122 0.32964 0.59973 0.0
C4168 C 0.24036 0.33996 0.60374 0.0
C4169 C 0.24738 0.34741 0.61739 0.0
C4170 C 0.25535 0.34479 0.62646 0.0
H4171 H 0.24956 0.30555 0.65162 0.0
H4172 H 0.24408 0.31509 0.64269 0.0
H4173 H 0.24739 0.30581 0.62884 0.0
H4174 H 0.25015 0.3194 0.60479 0.0
H4175 H 0.23611 0.32385 0.58908 0.0
H4176 H 0.70711 0.99154 0.67778 0.0
H4177 H 0.69901 0.9714 0.66546 0.0
H4178 H 0.66769 0.9728 0.64718 0.0
H4179 H 0.6758 0.99314 0.65932 0.0
H4180 H 0.67722 0.95001 0.67153 0.0
H4181 H 0.68089 0.96528 0.60362 0.0
H4182 H 0.68827 0.97568 0.62116 0.0
H4183 H 0.67238 0.96948 0.61748 0.0
C4184 C 0.69849 0.98762 0.67115 0.0
C4185 C 0.69217 0.99407 0.66941 0.0
C4186 C 0.69385 0.97606 0.66416 0.0
C4187 C 0.68283 0.97066 0.65523 0.0
C4188 C 0.67632 0.97689 0.6538 0.0
H4189 H 0.6457 0.89499 0.62082 0.0
H4190 H 0.65088 0.91389 0.63576 0.0
C4191 C 0.68095 0.98849 0.66081 0.0
C4192 C 0.67837 0.95862 0.64717 0.0
H4193 H 0.67271 0.94436 0.60831 0.0
C4194 C 0.67615 0.94873 0.65772 0.0
C4195 C 0.67714 0.95703 0.62913 0.0
C4196 C 0.67988 0.96743 0.61712 0.0
C4197 C 0.6728 0.93732 0.6507 0.0
C4198 C 0.67153 0.93574 0.63267 0.0
C4199 C 0.67365 0.94559 0.62214 0.0
C4200 C 0.66851 0.92409 0.62434 0.0
C4201 C 0.67104 0.92716 0.66258 0.0
C4202 C 0.67666 0.92356 0.61288 0.0
C4203 C 0.6737 0.91282 0.60424 0.0
C4204 C 0.66248 0.90237 0.60681 0.0
C4205 C 0.65439 0.90288 0.6185 0.0
C4206 C 0.65737 0.91364 0.62716 0.0
H4207 H 0.67492 0.93053 0.67557 0.0
H4208 H 0.66125 0.9208 0.664 0.0
H4209 H 0.67524 0.92205 0.65722 0.0
H4210 H 0.68527 0.93153 0.61046 0.0
H4211 H 0.68006 0.91285 0.59511 0.0
H4212 H 0.01136 0.70585 0.68242 0.0
H4213 H 0.03094 0.72073 0.67097 0.0
H4214 H 0.02342 0.69972 0.62454 0.0
H4215 H 0.00384 0.68469 0.63599 0.0
H4216 H 0.04689 0.70826 0.63751 0.0
H4217 H 0.03556 0.74514 0.63299 0.0
H4218 H 0.03345 0.7384 0.65393 0.0
H4219 H 0.02428 0.72951 0.63616 0.0
C4220 C 0.01387 0.70436 0.66979 0.0
C4221 C 0.006 0.69412 0.66006 0.0
C4222 C 0.02505 0.71292 0.66323 0.0
C4223 C 0.02854 0.71145 0.64678 0.0
C4224 C 0.02086 0.70107 0.63723 0.0
H4225 H 0.08445 0.76447 0.58192 0.0
H4226 H 0.06558 0.75013 0.59565 0.0
C4227 C 0.00968 0.69249 0.64379 0.0
C4228 C 0.04018 0.72077 0.63951 0.0
H4229 H 0.05582 0.75047 0.62745 0.0
C4230 C 0.04886 0.71749 0.63531 0.0
C4231 C 0.04266 0.73277 0.63647 0.0
C4232 C 0.03347 0.73668 0.63996 0.0
C4233 C 0.06 0.72592 0.62829 0.0
C4234 C 0.06259 0.738 0.62564 0.0
C4235 C 0.05387 0.74124 0.62969 0.0
C4236 C 0.07411 0.74726 0.61799 0.0
C4237 C 0.06879 0.72175 0.62339 0.0
C4238 C 0.08518 0.75068 0.62622 0.0
C4239 C 0.09602 0.75896 0.61845 0.0
C4240 C 0.09598 0.76403 0.60233 0.0
C4241 C 0.08484 0.76089 0.59443 0.0
C4242 C 0.07402 0.75262 0.60221 0.0
H4243 H 0.06435 0.71174 0.62244 0.0
H4244 H 0.07309 0.72573 0.6109 0.0
H4245 H 0.07599 0.72477 0.63335 0.0
H4246 H 0.08545 0.74687 0.63859 0.0
H4247 H 0.10443 0.76131 0.62499 0.0
H4248 H 0.96216 0.62979 0.71067 0.0
H4249 H 0.97058 0.6175 0.7214 0.0
H4250 H 0.00576 0.64414 0.70363 0.0
H4251 H 0.99735 0.65673 0.693 0.0
H4252 H 0.98122 0.60779 0.70097 0.0
H4253 H 0.0128 0.63675 0.75247 0.0
H4254 H 1.0012 0.63946 0.74359 0.0
H4255 H 0.01465 0.6436 0.73163 0.0
C4256 C 0.97173 0.63316 0.7092 0.0
C4257 C 0.97908 0.64423 0.7009 0.0
C4258 C 0.97653 0.62609 0.71534 0.0
C4259 C 0.98879 0.62988 0.71333 0.0
C4260 C 0.99629 0.64111 0.70553 0.0
H4261 H 0.02295 0.58684 0.74407 0.0
H4262 H 0.01954 0.60221 0.72999 0.0
C4263 C 0.99148 0.64829 0.69945 0.0
C4264 C 0.99332 0.62159 0.71859 0.0
H4265 H 0.01137 0.61777 0.7478 0.0
C4266 C 0.9879 0.61002 0.71111 0.0
C4267 C 0.00208 0.62453 0.73174 0.0
C4268 C 0.00799 0.63672 0.74046 0.0
C4269 C 0.99069 0.6012 0.71681 0.0
C4270 C 0.99907 0.60398 0.7304 0.0
C4271 C 0.00493 0.61569 0.73738 0.0
C4272 C 1.00112 0.59454 0.73842 0.0
C4273 C 0.98449 0.58887 0.70847 0.0
C4274 C 0.99188 0.58517 0.74781 0.0
C4275 C 0.99381 0.57647 0.75604 0.0
C4276 C 0.00504 0.57693 0.755 0.0
C4277 C 0.01424 0.58626 0.74532 0.0
C4278 C 0.01231 0.59504 0.7372 0.0
H4279 H 0.9806 0.58906 0.6957 0.0
H4280 H 0.99087 0.58537 0.70688 0.0
H4281 H 0.97705 0.58247 0.71681 0.0
H4282 H 0.98322 0.58474 0.74909 0.0
H4283 H 0.98661 0.56963 0.76367 0.0
H4284 H 0.38245 0.34496 0.68029 0.0
H4285 H 0.39461 0.3651 0.69249 0.0
H4286 H 0.36245 0.36484 0.70957 0.0
H4287 H 0.35008 0.34452 0.69747 0.0
H4288 H 0.39369 0.3869 0.68531 0.0
H4289 H 0.38371 0.37217 0.75361 0.0
H4290 H 0.3808 0.36161 0.73635 0.0
H4291 H 0.37104 0.36786 0.73936 0.0
C4292 C 0.3779 0.34912 0.68666 0.0
C4293 C 0.36525 0.34303 0.68802 0.0
C4294 C 0.38489 0.36068 0.69356 0.0
C4295 C 0.37945 0.3664 0.70206 0.0
C4296 C 0.36683 0.3605 0.70324 0.0
H4297 H 0.41875 0.43265 0.7633 0.0
H4298 H 0.40235 0.41604 0.74729 0.0
C4299 C 0.35979 0.3489 0.69627 0.0
C4300 C 0.38713 0.37847 0.7099 0.0
H4301 H 0.39751 0.39263 0.74855 0.0
C4302 C 0.39444 0.38821 0.69913 0.0
C4303 C 0.38803 0.38015 0.72792 0.0
C4304 C 0.38056 0.36991 0.74007 0.0
C4305 C 0.40286 0.39952 0.70593 0.0
C4306 C 0.40417 0.40104 0.72398 0.0
C4307 C 0.3965 0.39144 0.73472 0.0
C4308 C 0.41408 0.4121 0.73204 0.0
C4309 C 0.41033 0.4097 0.69372 0.0
C4310 C 0.42613 0.4155 0.72864 0.0
C4311 C 0.43551 0.42502 0.73768 0.0
C4312 C 0.43304 0.43128 0.75043 0.0
C4313 C 0.42097 0.42812 0.75341 0.0
C4314 C 0.41158 0.41858 0.74435 0.0
H4315 H 0.40562 0.40848 0.68117 0.0
H4316 H 0.41247 0.41861 0.69917 0.0
H4317 H 0.41893 0.40979 0.69124 0.0
H4318 H 0.42828 0.41049 0.71946 0.0
H4319 H 0.4447 0.42728 0.735 0.0
H4320 H 0.66439 0.01401 0.72164 0.0
H4321 H 0.64434 0.01007 0.72987 0.0
H4322 H 0.6389 0.0208 0.67937 0.0
H4323 H 0.65899 0.02471 0.67095 0.0
H4324 H 0.63607 0.02704 0.7299 0.0
H4325 H 0.60818 0.98779 0.68727 0.0
H4326 H 0.62385 0.99282 0.69194 0.0
H4327 H 0.61982 0.00104 0.67693 0.0
C4328 C 0.65891 0.01543 0.71221 0.0
C4329 C 0.66328 0.01965 0.69561 0.0
C4330 C 0.64746 0.01321 0.71696 0.0
C4331 C 0.6401 0.01506 0.70521 0.0
C4332 C 0.64437 0.01915 0.68857 0.0
H4333 H 0.57584 0.01802 0.73867 0.0
H4334 H 0.59483 0.02293 0.72461 0.0
C4335 C 0.65586 0.02141 0.68379 0.0
C4336 C 0.62814 0.01306 0.71071 0.0
H4337 H 0.59784 0.99497 0.70436 0.0
C4338 C 0.6277 0.02009 0.72424 0.0
C4339 C 0.61726 0.00393 0.70336 0.0
C4340 C 0.61721 0.99587 0.68916 0.0
C4341 C 0.61667 0.01814 0.73081 0.0
C4342 C 0.60577 0.00899 0.72349 0.0
C4343 C 0.60621 0.00205 0.70982 0.0
C4344 C 0.59388 0.00586 0.73081 0.0
C4345 C 0.61675 0.02557 0.74593 0.0
C4346 C 0.5869 0.99453 0.73854 0.0
C4347 C 0.5761 0.99172 0.7466 0.0
C4348 C 0.57196 1.00014 0.74703 0.0
C4349 C 0.57881 0.01138 0.7388 0.0
C4350 C 0.58966 0.0142 0.73074 0.0
H4351 H 0.6258 0.03061 0.75208 0.0
H4352 H 0.61408 0.03224 0.7415 0.0
H4353 H 0.61018 0.01971 0.75576 0.0
H4354 H 0.59001 0.98799 0.7388 0.0
H4355 H 0.57122 0.98307 0.75306 0.0
loop_
_geom_bond_atom_site_label_1
_geom_bond_atom_site_label_2
_geom_bond_distance
_geom_bond_site_symmetry_2
_ccdc_geom_bond_type
Mn0 O5 2.095 1_655 S
Mn0 O15 2.162 . S
Mn0 O16 2.297 1_554 S
Mn0 O24 2.385 1_554 S
Mn0 O25 2.209 1_654 S
Mn0 O26 2.094 . S
Mn1 O6 2.121 . S
Mn1 N8 2.257 1_554 S
Mn1 N17 2.282 . S
Mn1 O25 2.215 1_554 S
Mn1 O27 2.117 . S
C2 O24 1.234 1_455 S
C2 O25 1.283 . S
C3 O15 1.281 1_556 S
C3 O16 1.236 . S
C4 O26 1.232 1_455 S
C4 O27 1.285 . S
O5 Mn0 2.095 1_455 S
O5 C14 1.250 . S
O6 Mn1 2.121 . S
O6 C14 1.258 . S
C7 N8 1.326 . S
C7 C11 1.460 . S
C7 H13 0.929 . S
N8 Mn1 2.257 1_556 S
N8 C7 1.326 . S
N8 C12 1.362 . S
C9 C10 1.258 . S
C9 C12 1.431 . S
C9 C29 1.449 . S
C10 C9 1.258 . S
C10 C11 1.477 . S
C10 H30 0.931 . S
C11 C7 1.460 . S
C11 C10 1.477 . S
C11 H31 0.930 . S
C12 N8 1.362 . S
C12 C9 1.431 . S
C12 C22 1.476 . S
H13 C7 0.929 . S
C14 O5 1.250 . S
C14 O6 1.258 . S
O15 Mn0 2.162 . S
O15 C3 1.281 1_554 S
O16 Mn0 2.297 1_556 S
O16 C3 1.236 . S
N17 Mn1 2.282 . S
N17 C18 1.328 . S
N17 C22 1.318 1_554 S
C18 N17 1.328 . S
C18 C19 1.447 1_554 S
C18 H23 0.929 . S
C19 C18 1.447 1_556 S
C19 C20 1.307 . S
C19 H32 0.925 1_556 S
C20 C19 1.307 . S
C20 C21 1.373 . S
C20 H33 0.929 . S
C21 C20 1.373 . S
C21 C22 1.396 . S
C21 C28 1.403 . S
C22 C12 1.476 . S
C22 N17 1.318 1_556 S
C22 C21 1.396 . S
H23 C18 0.929 . S
O24 Mn0 2.385 1_556 S
O24 C2 1.234 1_655 S
O25 Mn0 2.209 1_456 S
O25 Mn1 2.215 1_556 S
O25 C2 1.283 . S
O26 Mn0 2.094 . S
O26 C4 1.232 1_655 S
O27 Mn1 2.117 . S
O27 C4 1.285 . S
C28 C21 1.403 . S
C28 C29 1.399 . S
C28 H34 0.929 . S
C29 C9 1.449 . S
C29 C28 1.399 . S
C29 H35 0.930 . S
H30 C10 0.931 . S
H31 C11 0.930 . S
H32 C19 0.925 1_554 S
H33 C20 0.929 . S
H34 C28 0.929 . S
H35 C29 0.930 . S
Mn36 O41 2.095 1_554 S
Mn36 O51 2.162 . S
Mn36 O52 2.297 . S
Mn36 O60 2.385 . S
Mn36 O61 2.209 . S
Mn36 O62 2.094 1_554 S
Mn37 O42 2.114 1_554 S
Mn37 N44 2.257 . S
Mn37 N53 2.282 . S
Mn37 O61 2.215 . S
Mn37 O63 2.117 1_554 S
C38 O60 1.234 . S
C38 O61 1.283 . S
C39 O51 1.281 . S
C39 O52 1.236 . S
C40 O62 1.240 . S
C40 O63 1.264 . S
O41 Mn36 2.095 1_556 S
O41 C50 1.250 . S
O42 Mn37 2.114 1_556 S
O42 C50 1.275 . S
C43 N44 1.326 . S
C43 C47 1.460 . S
C43 H49 0.929 . S
N44 Mn37 2.257 . S
N44 C43 1.326 . S
N44 C48 1.362 . S
C45 C46 1.258 . S
C45 C48 1.431 . S
C45 C65 1.449 . S
C46 C45 1.258 . S
C46 C47 1.477 . S
C46 H66 0.931 . S
C47 C43 1.460 . S
C47 C46 1.477 . S
C47 H67 0.930 . S
C48 N44 1.362 . S
C48 C45 1.431 . S
C48 C58 1.476 . S
H49 C43 0.929 . S
C50 O41 1.250 . S
C50 O42 1.275 . S
O51 Mn36 2.162 . S
O51 C39 1.281 . S
O52 Mn36 2.297 . S
O52 C39 1.236 . S
N53 Mn37 2.282 . S
N53 C54 1.328 . S
N53 C58 1.318 . S
C54 N53 1.328 . S
C54 C55 1.457 . S
C54 H59 0.929 . S
C55 C54 1.457 . S
C55 C56 1.291 . S
C55 H68 0.931 . S
C56 C55 1.291 . S
C56 C57 1.373 . S
C56 H69 0.929 . S
C57 C56 1.373 . S
C57 C58 1.396 . S
C57 C64 1.403 . S
C58 C48 1.476 . S
C58 N53 1.318 . S
C58 C57 1.396 . S
H59 C54 0.929 . S
O60 Mn36 2.385 . S
O60 C38 1.234 . S
O61 Mn36 2.209 . S
O61 Mn37 2.215 . S
O61 C38 1.283 . S
O62 Mn36 2.094 1_556 S
O62 C40 1.240 . S
O63 Mn37 2.117 1_556 S
O63 C40 1.264 . S
C64 C57 1.403 . S
C64 C65 1.399 . S
C64 H70 0.929 . S
C65 C45 1.449 . S
C65 C64 1.399 . S
C65 H71 0.930 . S
H66 C46 0.931 . S
H67 C47 0.930 . S
H68 C55 0.931 . S
H69 C56 0.929 . S
H70 C64 0.929 . S
H71 C65 0.930 . S
Mn72 O77 2.095 1_564 S
Mn72 O87 2.162 . S
Mn72 O88 2.297 . S
Mn72 O96 2.385 . S
Mn72 O97 2.209 1_565 S
Mn72 O98 2.094 1_554 S
Mn73 O78 2.121 . S
Mn73 N80 2.257 . S
Mn73 N89 2.282 . S
Mn73 O97 2.215 . S
Mn73 O99 2.117 1_554 S
C74 O96 1.211 1_545 S
C74 O97 1.307 . S
C75 O87 1.281 . S
C75 O88 1.236 . S
C76 O98 1.242 . S
C76 O99 1.260 1_565 S
O77 Mn72 2.095 1_546 S
O77 C86 1.250 . S
O78 Mn73 2.121 . S
O78 C86 1.258 1_554 S
C79 N80 1.326 . S
C79 C83 1.460 . S
C79 H85 0.929 . S
N80 Mn73 2.257 . S
N80 C79 1.326 . S
N80 C84 1.362 . S
C81 C82 1.258 . S
C81 C84 1.431 . S
C81 C101 1.449 . S
C82 C81 1.258 . S
C82 C83 1.477 . S
C82 H102 0.931 . S
C83 C79 1.460 . S
C83 C82 1.477 . S
C83 H103 0.930 . S
C84 N80 1.362 . S
C84 C81 1.431 . S
C84 C94 1.476 . S
H85 C79 0.929 . S
C86 O77 1.250 . S
C86 O78 1.258 1_556 S
O87 Mn72 2.162 . S
O87 C75 1.281 . S
O88 Mn72 2.297 . S
O88 C75 1.236 . S
N89 Mn73 2.282 . S
N89 C90 1.328 . S
N89 C94 1.318 . S
C90 N89 1.328 . S
C90 C91 1.457 . S
C90 H95 0.929 . S
C91 C90 1.457 . S
C91 C92 1.291 . S
C91 H104 0.931 . S
C92 C91 1.291 . S
C92 C93 1.373 . S
C92 H105 0.929 . S
C93 C92 1.373 . S
C93 C94 1.396 . S
C93 C100 1.403 . S
C94 C84 1.476 . S
C94 N89 1.318 . S
C94 C93 1.396 . S
H95 C90 0.929 . S
O96 Mn72 2.385 . S
O96 C74 1.211 1_565 S
O97 Mn72 2.209 1_545 S
O97 Mn73 2.215 . S
O97 C74 1.307 . S
O98 Mn72 2.094 1_556 S
O98 C76 1.242 . S
O99 Mn73 2.117 1_556 S
O99 C76 1.260 1_545 S
C100 C93 1.403 . S
C100 C101 1.399 . S
C100 H106 0.929 . S
C101 C81 1.449 . S
C101 C100 1.399 . S
C101 H107 0.930 . S
H102 C82 0.931 . S
H103 C83 0.930 . S
H104 C91 0.931 . S
H105 C92 0.929 . S
H106 C100 0.929 . S
H107 C101 0.930 . S
Mn108 O113 2.095 1_655 S
Mn108 O123 2.162 . S
Mn108 O124 2.297 1_554 S
Mn108 O132 2.385 1_554 S
Mn108 O133 2.209 1_654 S
Mn108 O134 2.094 . S
Mn109 O114 2.121 . S
Mn109 N116 2.257 1_554 S
Mn109 N125 2.282 . S
Mn109 O133 2.215 1_554 S
Mn109 O135 2.117 . S
C110 O132 1.185 1_455 S
C110 O133 1.305 . S
C111 O123 1.231 1_556 S
C111 O124 1.262 . S
C112 O134 1.231 1_455 S
C112 O135 1.272 . S
O113 Mn108 2.095 1_455 S
O113 C122 1.250 . S
O114 Mn109 2.121 . S
O114 C122 1.258 . S
C115 N116 1.326 . S
C115 C119 1.460 . S
C115 H121 0.929 . S
N116 Mn109 2.257 1_556 S
N116 C115 1.326 . S
N116 C120 1.362 . S
C117 C118 1.258 . S
C117 C120 1.431 . S
C117 C137 1.449 . S
C118 C117 1.258 . S
C118 C119 1.477 . S
C118 H138 0.931 . S
C119 C115 1.460 . S
C119 C118 1.477 . S
C119 H139 0.930 . S
C120 N116 1.362 . S
C120 C117 1.431 . S
C120 C130 1.476 . S
H121 C115 0.929 . S
C122 O113 1.250 . S
C122 O114 1.258 . S
O123 Mn108 2.162 . S
O123 C111 1.231 1_554 S
O124 Mn108 2.297 1_556 S
O124 C111 1.262 . S
N125 Mn109 2.282 . S
N125 C126 1.328 . S
N125 C130 1.318 1_554 S
C126 N125 1.328 . S
C126 C127 1.454 . S
C126 H131 0.929 . S
C127 C126 1.454 . S
C127 C128 1.296 1_554 S
C127 H140 0.929 . S
C128 C127 1.296 1_556 S
C128 C129 1.373 . S
C128 H141 0.929 . S
C129 C128 1.373 . S
C129 C130 1.396 . S
C129 C136 1.403 . S
C130 C120 1.476 . S
C130 N125 1.318 1_556 S
C130 C129 1.396 . S
H131 C126 0.929 . S
O132 Mn108 2.385 1_556 S
O132 C110 1.185 1_655 S
O133 Mn108 2.209 1_456 S
O133 Mn109 2.215 1_556 S
O133 C110 1.305 . S
O134 Mn108 2.094 . S
O134 C112 1.231 1_655 S
O135 Mn109 2.117 . S
O135 C112 1.272 . S
C136 C129 1.403 . S
C136 C137 1.399 . S
C136 H142 0.929 . S
C137 C117 1.449 . S
C137 C136 1.399 . S
C137 H143 0.930 . S
H138 C118 0.931 . S
H139 C119 0.930 . S
H140 C127 0.929 . S
H141 C128 0.929 . S
H142 C136 0.929 . S
H143 C137 0.930 . S
Mn144 O149 2.095 1_554 S
Mn144 O159 2.162 . S
Mn144 O160 2.297 . S
Mn144 O168 2.385 . S
Mn144 O169 2.209 . S
Mn144 O170 2.094 1_554 S
Mn145 O150 2.121 . S
Mn145 N152 2.257 . S
Mn145 N161 2.282 . S
Mn145 O169 2.215 . S
Mn145 O171 2.117 1_554 S
C146 O168 1.234 . S
C146 O169 1.283 . S
C147 O159 1.281 . S
C147 O160 1.236 . S
C148 O170 1.240 . S
C148 O171 1.264 . S
O149 Mn144 2.095 1_556 S
O149 C158 1.250 . S
O150 Mn145 2.121 . S
O150 C158 1.258 1_554 S
C151 N152 1.326 . S
C151 C155 1.460 . S
C151 H157 0.929 . S
N152 Mn145 2.257 . S
N152 C151 1.326 . S
N152 C156 1.362 . S
C153 C154 1.258 . S
C153 C156 1.431 . S
C153 C173 1.449 . S
C154 C153 1.258 . S
C154 C155 1.477 . S
C154 H174 0.931 . S
C155 C151 1.460 . S
C155 C154 1.477 . S
C155 H175 0.930 . S
C156 N152 1.362 . S
C156 C153 1.431 . S
C156 C166 1.476 . S
H157 C151 0.929 . S
C158 O149 1.250 . S
C158 O150 1.258 1_556 S
O159 Mn144 2.162 . S
O159 C147 1.281 . S
O160 Mn144 2.297 . S
O160 C147 1.236 . S
N161 Mn145 2.282 . S
N161 C162 1.328 . S
N161 C166 1.318 . S
C162 N161 1.328 . S
C162 C163 1.457 . S
C162 H167 0.929 . S
C163 C162 1.457 . S
C163 C164 1.291 . S
C163 H176 0.931 . S
C164 C163 1.291 . S
C164 C165 1.373 . S
C164 H177 0.929 . S
C165 C164 1.373 . S
C165 C166 1.396 . S
C165 C172 1.403 . S
C166 C156 1.476 . S
C166 N161 1.318 . S
C166 C165 1.396 . S
H167 C162 0.929 . S
O168 Mn144 2.385 . S
O168 C146 1.234 . S
O169 Mn144 2.209 . S
O169 Mn145 2.215 . S
O169 C146 1.283 . S
O170 Mn144 2.094 1_556 S
O170 C148 1.240 . S
O171 Mn145 2.117 1_556 S
O171 C148 1.264 . S
C172 C165 1.403 . S
C172 C173 1.399 . S
C172 H178 0.929 . S
C173 C153 1.449 . S
C173 C172 1.399 . S
C173 H179 0.930 . S
H174 C154 0.931 . S
H175 C155 0.930 . S
H176 C163 0.931 . S
H177 C164 0.929 . S
H178 C172 0.929 . S
H179 C173 0.930 . S
Mn180 O185 2.095 1_545 S
Mn180 O195 2.162 . S
Mn180 O196 2.297 1_554 S
Mn180 O204 2.385 1_554 S
Mn180 O205 2.209 1_544 S
Mn180 O206 2.094 . S
Mn181 O186 2.121 . S
Mn181 N188 2.257 1_554 S
Mn181 N197 2.282 . S
Mn181 O205 2.215 1_554 S
Mn181 O207 2.117 . S
C182 O204 1.234 . S
C182 O205 1.283 1_545 S
C183 O195 1.281 . S
C183 O196 1.236 1_554 S
C184 O206 1.240 . S
C184 O207 1.264 1_545 S
O185 Mn180 2.095 1_565 S
O185 C194 1.250 . S
O186 Mn181 2.121 . S
O186 C194 1.258 . S
C187 N188 1.326 . S
C187 C191 1.460 . S
C187 H193 0.929 . S
N188 Mn181 2.257 1_556 S
N188 C187 1.326 . S
N188 C192 1.362 . S
C189 C190 1.258 . S
C189 C192 1.431 . S
C189 C209 1.449 . S
C190 C189 1.258 . S
C190 C191 1.477 . S
C190 H210 0.931 . S
C191 C187 1.460 . S
C191 C190 1.477 . S
C191 H211 0.930 . S
C192 N188 1.362 . S
C192 C189 1.431 . S
C192 C202 1.476 . S
H193 C187 0.929 . S
C194 O185 1.250 . S
C194 O186 1.258 . S
O195 Mn180 2.162 . S
O195 C183 1.281 . S
O196 Mn180 2.297 1_556 S
O196 C183 1.236 1_556 S
N197 Mn181 2.282 . S
N197 C198 1.328 . S
N197 C202 1.318 1_554 S
C198 N197 1.328 . S
C198 C199 1.462 . S
C198 H203 0.929 . S
C199 C198 1.462 . S
C199 C200 1.283 1_554 S
C199 H212 0.933 . S
C200 C199 1.283 1_556 S
C200 C201 1.373 . S
C200 H213 0.929 . S
C201 C200 1.373 . S
C201 C202 1.396 . S
C201 C208 1.403 . S
C202 C192 1.476 . S
C202 N197 1.318 1_556 S
C202 C201 1.396 . S
H203 C198 0.929 . S
O204 Mn180 2.385 1_556 S
O204 C182 1.234 . S
O205 Mn180 2.209 1_566 S
O205 Mn181 2.215 1_556 S
O205 C182 1.283 1_565 S
O206 Mn180 2.094 . S
O206 C184 1.240 . S
O207 Mn181 2.117 . S
O207 C184 1.264 1_565 S
C208 C201 1.403 . S
C208 C209 1.399 . S
C208 H214 0.929 . S
C209 C189 1.449 . S
C209 C208 1.399 . S
C209 H215 0.930 . S
H210 C190 0.931 . S
H211 C191 0.930 . S
H212 C199 0.933 . S
H213 C200 0.929 . S
H214 C208 0.929 . S
H215 C209 0.930 . S
Mn216 O221 2.095 . S
Mn216 O231 2.162 . S
Mn216 O232 2.297 . S
Mn216 O240 2.385 . S
Mn216 O241 2.209 . S
Mn216 O242 2.094 . S
Mn217 O222 2.121 . S
Mn217 N224 2.257 . S
Mn217 N233 2.282 . S
Mn217 O241 2.215 . S
Mn217 O243 2.117 . S
C218 O240 1.234 . S
C218 O241 1.283 . S
C219 O231 1.281 . S
C219 O232 1.236 . S
C220 O242 1.240 . S
C220 O243 1.264 . S
O221 Mn216 2.095 . S
O221 C230 1.250 . S
O222 Mn217 2.121 . S
O222 C230 1.258 . S
C223 N224 1.326 . S
C223 C227 1.460 . S
C223 H229 0.929 . S
N224 Mn217 2.257 . S
N224 C223 1.326 . S
N224 C228 1.362 . S
C225 C226 1.258 . S
C225 C228 1.431 . S
C225 C245 1.449 . S
C226 C225 1.258 . S
C226 C227 1.477 . S
C226 H246 0.931 . S
C227 C223 1.460 . S
C227 C226 1.477 . S
C227 H247 0.930 . S
C228 N224 1.362 . S
C228 C225 1.431 . S
C228 C238 1.476 . S
H229 C223 0.929 . S
C230 O221 1.250 . S
C230 O222 1.258 . S
O231 Mn216 2.162 . S
O231 C219 1.281 . S
O232 Mn216 2.297 . S
O232 C219 1.236 . S
N233 Mn217 2.282 . S
N233 C234 1.328 . S
N233 C238 1.318 . S
C234 N233 1.328 . S
C234 C235 1.457 . S
C234 H239 0.929 . S
C235 C234 1.457 . S
C235 C236 1.291 . S
C235 H248 0.931 . S
C236 C235 1.291 . S
C236 C237 1.373 . S
C236 H249 0.929 . S
C237 C236 1.373 . S
C237 C238 1.396 . S
C237 C244 1.403 . S
C238 C228 1.476 . S
C238 N233 1.318 . S
C238 C237 1.396 . S
H239 C234 0.929 . S
O240 Mn216 2.385 . S
O240 C218 1.234 . S
O241 Mn216 2.209 . S
O241 Mn217 2.215 . S
O241 C218 1.283 . S
O242 Mn216 2.094 . S
O242 C220 1.240 . S
O243 Mn217 2.117 . S
O243 C220 1.264 . S
C244 C237 1.403 . S
C244 C245 1.399 . S
C244 H250 0.929 . S
C245 C225 1.449 . S
C245 C244 1.399 . S
C245 H251 0.930 . S
H246 C226 0.931 . S
H247 C227 0.930 . S
H248 C235 0.931 . S
H249 C236 0.929 . S
H250 C244 0.929 . S
H251 C245 0.930 . S
Mn252 O257 2.095 . S
Mn252 O267 2.162 . S
Mn252 O268 2.297 . S
Mn252 O276 2.385 . S
Mn252 O277 2.209 . S
Mn252 O278 2.094 . S
Mn253 O258 2.121 . S
Mn253 N260 2.257 . S
Mn253 N269 2.282 . S
Mn253 O277 2.215 . S
Mn253 O279 2.117 . S
C254 O276 1.234 . S
C254 O277 1.283 . S
C255 O267 1.281 1_545 S
C255 O268 1.233 1_545 S
C256 O278 1.240 . S
C256 O279 1.264 . S
O257 Mn252 2.095 . S
O257 C266 1.250 . S
O258 Mn253 2.121 . S
O258 C266 1.258 . S
C259 N260 1.326 . S
C259 C263 1.460 . S
C259 H265 0.929 . S
N260 Mn253 2.257 . S
N260 C259 1.326 . S
N260 C264 1.362 . S
C261 C262 1.258 . S
C261 C264 1.431 . S
C261 C281 1.449 . S
C262 C261 1.258 . S
C262 C263 1.477 . S
C262 H282 0.931 . S
C263 C259 1.460 . S
C263 C262 1.477 . S
C263 H283 0.930 . S
C264 N260 1.362 . S
C264 C261 1.431 . S
C264 C274 1.476 . S
H265 C259 0.929 . S
C266 O257 1.250 . S
C266 O258 1.258 . S
O267 Mn252 2.162 . S
O267 C255 1.281 1_565 S
O268 Mn252 2.297 . S
O268 C255 1.233 1_565 S
N269 Mn253 2.282 . S
N269 C270 1.328 . S
N269 C274 1.318 . S
C270 N269 1.328 . S
C270 C271 1.457 . S
C270 H275 0.929 . S
C271 C270 1.457 . S
C271 C272 1.291 . S
C271 H284 0.931 . S
C272 C271 1.291 . S
C272 C273 1.373 . S
C272 H285 0.929 . S
C273 C272 1.373 . S
C273 C274 1.396 . S
C273 C280 1.403 . S
C274 C264 1.476 . S
C274 N269 1.318 . S
C274 C273 1.396 . S
H275 C270 0.929 . S
O276 Mn252 2.385 . S
O276 C254 1.234 . S
O277 Mn252 2.209 . S
O277 Mn253 2.215 . S
O277 C254 1.283 . S
O278 Mn252 2.094 . S
O278 C256 1.240 . S
O279 Mn253 2.117 . S
O279 C256 1.264 . S
C280 C273 1.403 . S
C280 C281 1.399 . S
C280 H286 0.929 . S
C281 C261 1.449 . S
C281 C280 1.399 . S
C281 H287 0.930 . S
H282 C262 0.931 . S
H283 C263 0.930 . S
H284 C271 0.931 . S
H285 C272 0.929 . S
H286 C280 0.929 . S
H287 C281 0.930 . S
Mn288 O293 2.095 . S
Mn288 O303 2.162 . S
Mn288 O304 2.297 . S
Mn288 O312 2.385 . S
Mn288 O313 2.209 . S
Mn288 O314 2.094 . S
Mn289 O294 2.121 . S
Mn289 N296 2.257 . S
Mn289 N305 2.282 . S
Mn289 O313 2.215 . S
Mn289 O315 2.117 . S
C290 O312 1.234 . S
C290 O313 1.283 . S
C291 O303 1.263 1_655 S
C291 O304 1.230 1_655 S
C292 O314 1.240 . S
C292 O315 1.264 . S
O293 Mn288 2.095 . S
O293 C302 1.250 . S
O294 Mn289 2.121 . S
O294 C302 1.258 . S
C295 N296 1.326 . S
C295 C299 1.460 . S
C295 H301 0.929 . S
N296 Mn289 2.257 . S
N296 C295 1.326 . S
N296 C300 1.362 . S
C297 C298 1.258 . S
C297 C300 1.431 . S
C297 C317 1.449 . S
C298 C297 1.258 . S
C298 C299 1.477 . S
C298 H318 0.931 . S
C299 C295 1.460 . S
C299 C298 1.477 . S
C299 H319 0.930 . S
C300 N296 1.362 . S
C300 C297 1.431 . S
C300 C310 1.476 . S
H301 C295 0.929 . S
C302 O293 1.250 . S
C302 O294 1.258 . S
O303 Mn288 2.162 . S
O303 C291 1.263 1_455 S
O304 Mn288 2.297 . S
O304 C291 1.230 1_455 S
N305 Mn289 2.282 . S
N305 C306 1.328 . S
N305 C310 1.318 . S
C306 N305 1.328 . S
C306 C307 1.457 . S
C306 H311 0.929 . S
C307 C306 1.457 . S
C307 C308 1.291 . S
C307 H320 0.931 . S
C308 C307 1.291 . S
C308 C309 1.373 . S
C308 H321 0.929 . S
C309 C308 1.373 . S
C309 C310 1.396 . S
C309 C316 1.403 . S
C310 C300 1.476 . S
C310 N305 1.318 . S
C310 C309 1.396 . S
H311 C306 0.929 . S
O312 Mn288 2.385 . S
O312 C290 1.234 . S
O313 Mn288 2.209 . S
O313 Mn289 2.215 . S
O313 C290 1.283 . S
O314 Mn288 2.094 . S
O314 C292 1.240 . S
O315 Mn289 2.117 . S
O315 C292 1.264 . S
C316 C309 1.403 . S
C316 C317 1.399 . S
C316 H322 0.929 . S
C317 C297 1.449 . S
C317 C316 1.399 . S
C317 H323 0.930 . S
H318 C298 0.931 . S
H319 C299 0.930 . S
H320 C307 0.931 . S
H321 C308 0.929 . S
H322 C316 0.929 . S
H323 C317 0.930 . S
Mn324 O329 2.095 . S
Mn324 O339 2.162 . S
Mn324 O340 2.297 . S
Mn324 O348 2.385 . S
Mn324 O349 2.209 . S
Mn324 O350 2.094 . S
Mn325 O330 2.121 . S
Mn325 N332 2.257 . S
Mn325 N341 2.282 . S
Mn325 O349 2.215 . S
Mn325 O351 2.117 . S
C326 O348 1.234 . S
C326 O349 1.283 . S
C327 O339 1.281 . S
C327 O340 1.236 . S
C328 O350 1.240 . S
C328 O351 1.264 . S
O329 Mn324 2.095 . S
O329 C338 1.250 . S
O330 Mn325 2.121 . S
O330 C338 1.258 . S
C331 N332 1.326 . S
C331 C335 1.460 . S
C331 H337 0.929 . S
N332 Mn325 2.257 . S
N332 C331 1.326 . S
N332 C336 1.362 . S
C333 C334 1.258 . S
C333 C336 1.431 . S
C333 C353 1.449 . S
C334 C333 1.258 . S
C334 C335 1.477 . S
C334 H354 0.931 . S
C335 C331 1.460 . S
C335 C334 1.477 . S
C335 H355 0.930 1_565 S
C336 N332 1.362 . S
C336 C333 1.431 . S
C336 C346 1.476 . S
H337 C331 0.929 . S
C338 O329 1.250 . S
C338 O330 1.258 . S
O339 Mn324 2.162 . S
O339 C327 1.281 . S
O340 Mn324 2.297 . S
O340 C327 1.236 . S
N341 Mn325 2.282 . S
N341 C342 1.328 . S
N341 C346 1.318 . S
C342 N341 1.328 . S
C342 C343 1.457 . S
C342 H347 0.929 . S
C343 C342 1.457 . S
C343 C344 1.291 . S
C343 H356 0.931 . S
C344 C343 1.291 . S
C344 C345 1.373 . S
C344 H357 0.929 . S
C345 C344 1.373 . S
C345 C346 1.396 . S
C345 C352 1.403 . S
C346 C336 1.476 . S
C346 N341 1.318 . S
C346 C345 1.396 . S
H347 C342 0.929 . S
O348 Mn324 2.385 . S
O348 C326 1.234 . S
O349 Mn324 2.209 . S
O349 Mn325 2.215 . S
O349 C326 1.283 . S
O350 Mn324 2.094 . S
O350 C328 1.240 . S
O351 Mn325 2.117 . S
O351 C328 1.264 . S
C352 C345 1.403 . S
C352 C353 1.399 . S
C352 H358 0.929 . S
C353 C333 1.449 . S
C353 C352 1.399 . S
C353 H359 0.930 . S
H354 C334 0.931 . S
H355 C335 0.930 1_545 S
H356 C343 0.931 . S
H357 C344 0.929 . S
H358 C352 0.929 . S
H359 C353 0.930 . S
Mn360 O365 2.095 . S
Mn360 O375 2.162 . S
Mn360 O376 2.297 . S
Mn360 O384 2.385 . S
Mn360 O385 2.209 . S
Mn360 O386 2.094 . S
Mn361 O366 2.121 . S
Mn361 N368 2.257 . S
Mn361 N377 2.282 . S
Mn361 O385 2.215 . S
Mn361 O387 2.117 . S
C362 O384 1.234 . S
C362 O385 1.283 . S
C363 O375 1.281 . S
C363 O376 1.236 . S
C364 O386 1.240 . S
C364 O387 1.264 . S
O365 Mn360 2.095 . S
O365 C374 1.250 . S
O366 Mn361 2.121 . S
O366 C374 1.258 . S
C367 N368 1.326 . S
C367 C371 1.460 . S
C367 H373 0.929 . S
N368 Mn361 2.257 . S
N368 C367 1.326 . S
N368 C372 1.362 . S
C369 C370 1.258 . S
C369 C372 1.431 . S
C369 C389 1.449 . S
C370 C369 1.258 . S
C370 C371 1.477 . S
C370 H390 0.931 . S
C371 C367 1.460 . S
C371 C370 1.477 . S
C371 H391 0.930 . S
C372 N368 1.362 . S
C372 C369 1.431 . S
C372 C382 1.476 . S
H373 C367 0.929 . S
C374 O365 1.250 . S
C374 O366 1.258 . S
O375 Mn360 2.162 . S
O375 C363 1.281 . S
O376 Mn360 2.297 . S
O376 C363 1.236 . S
N377 Mn361 2.282 . S
N377 C378 1.328 . S
N377 C382 1.318 . S
C378 N377 1.328 . S
C378 C379 1.457 . S
C378 H383 0.929 . S
C379 C378 1.457 . S
C379 C380 1.291 . S
C379 H392 0.931 . S
C380 C379 1.291 . S
C380 C381 1.373 . S
C380 H393 0.929 . S
C381 C380 1.373 . S
C381 C382 1.396 . S
C381 C388 1.403 . S
C382 C372 1.476 . S
C382 N377 1.318 . S
C382 C381 1.396 . S
H383 C378 0.929 . S
O384 Mn360 2.385 . S
O384 C362 1.234 . S
O385 Mn360 2.209 . S
O385 Mn361 2.215 . S
O385 C362 1.283 . S
O386 Mn360 2.094 . S
O386 C364 1.240 . S
O387 Mn361 2.117 . S
O387 C364 1.264 . S
C388 C381 1.403 . S
C388 C389 1.399 . S
C388 H394 0.929 . S
C389 C369 1.449 . S
C389 C388 1.399 . S
C389 H395 0.930 . S
H390 C370 0.931 . S
H391 C371 0.930 . S
H392 C379 0.931 . S
H393 C380 0.929 . S
H394 C388 0.929 . S
H395 C389 0.930 . S
Mn396 O401 2.095 . S
Mn396 O411 2.162 . S
Mn396 O412 2.297 . S
Mn396 O420 2.385 . S
Mn396 O421 2.209 . S
Mn396 O422 2.094 . S
Mn397 O402 2.121 . S
Mn397 N404 2.257 . S
Mn397 N413 2.282 . S
Mn397 O421 2.215 . S
Mn397 O423 2.117 . S
C398 O420 1.234 . S
C398 O421 1.283 . S
C399 O411 1.281 . S
C399 O412 1.236 . S
C400 O422 1.240 . S
C400 O423 1.264 . S
O401 Mn396 2.095 . S
O401 C410 1.250 . S
O402 Mn397 2.121 . S
O402 C410 1.258 . S
C403 N404 1.326 . S
C403 C407 1.460 . S
C403 H409 0.929 . S
N404 Mn397 2.257 . S
N404 C403 1.326 . S
N404 C408 1.362 . S
C405 C406 1.258 . S
C405 C408 1.431 . S
C405 C425 1.449 . S
C406 C405 1.258 . S
C406 C407 1.477 . S
C406 H426 0.931 . S
C407 C403 1.460 . S
C407 C406 1.477 . S
C407 H427 0.930 . S
C408 N404 1.362 . S
C408 C405 1.431 . S
C408 C418 1.476 . S
H409 C403 0.929 . S
C410 O401 1.250 . S
C410 O402 1.258 . S
O411 Mn396 2.162 . S
O411 C399 1.281 . S
O412 Mn396 2.297 . S
O412 C399 1.236 . S
N413 Mn397 2.282 . S
N413 C414 1.328 . S
N413 C418 1.318 . S
C414 N413 1.328 . S
C414 C415 1.457 . S
C414 H419 0.929 . S
C415 C414 1.457 . S
C415 C416 1.291 . S
C415 H428 0.931 . S
C416 C415 1.291 . S
C416 C417 1.373 . S
C416 H429 0.929 . S
C417 C416 1.373 . S
C417 C418 1.396 . S
C417 C424 1.403 . S
C418 C408 1.476 . S
C418 N413 1.318 . S
C418 C417 1.396 . S
H419 C414 0.929 . S
O420 Mn396 2.385 . S
O420 C398 1.234 . S
O421 Mn396 2.209 . S
O421 Mn397 2.215 . S
O421 C398 1.283 . S
O422 Mn396 2.094 . S
O422 C400 1.240 . S
O423 Mn397 2.117 . S
O423 C400 1.264 . S
C424 C417 1.403 . S
C424 C425 1.399 . S
C424 H430 0.929 . S
C425 C405 1.449 . S
C425 C424 1.399 . S
C425 H431 0.930 . S
H426 C406 0.931 . S
H427 C407 0.930 . S
H428 C415 0.931 . S
H429 C416 0.929 . S
H430 C424 0.929 . S
H431 C425 0.930 . S
Mn432 O437 2.095 . S
Mn432 O447 2.162 . S
Mn432 O448 2.297 . S
Mn432 O456 2.385 . S
Mn432 O457 2.209 . S
Mn432 O458 2.094 . S
Mn433 O438 2.121 . S
Mn433 N440 2.257 . S
Mn433 N449 2.282 . S
Mn433 O457 2.215 . S
Mn433 O459 2.117 . S
C434 O456 1.234 . S
C434 O457 1.283 . S
C435 O447 1.281 . S
C435 O448 1.236 . S
C436 O458 1.240 . S
C436 O459 1.264 . S
O437 Mn432 2.095 . S
O437 C446 1.250 . S
O438 Mn433 2.121 . S
O438 C446 1.258 . S
C439 N440 1.326 . S
C439 C443 1.460 . S
C439 H445 0.929 . S
N440 Mn433 2.257 . S
N440 C439 1.326 . S
N440 C444 1.362 . S
C441 C442 1.258 . S
C441 C444 1.431 . S
C441 C461 1.449 . S
C442 C441 1.258 . S
C442 C443 1.477 . S
C442 H462 0.931 . S
C443 C439 1.460 . S
C443 C442 1.477 . S
C443 H463 0.930 . S
C444 N440 1.362 . S
C444 C441 1.431 . S
C444 C454 1.476 . S
H445 C439 0.929 . S
C446 O437 1.250 . S
C446 O438 1.258 . S
O447 Mn432 2.162 . S
O447 C435 1.281 . S
O448 Mn432 2.297 . S
O448 C435 1.236 . S
N449 Mn433 2.282 . S
N449 C450 1.328 . S
N449 C454 1.318 . S
C450 N449 1.328 . S
C450 C451 1.457 . S
C450 H455 0.929 . S
C451 C450 1.457 . S
C451 C452 1.291 . S
C451 H464 0.931 . S
C452 C451 1.291 . S
C452 C453 1.373 . S
C452 H465 0.929 . S
C453 C452 1.373 . S
C453 C454 1.396 . S
C453 C460 1.403 . S
C454 C444 1.476 . S
C454 N449 1.318 . S
C454 C453 1.396 . S
H455 C450 0.929 . S
O456 Mn432 2.385 . S
O456 C434 1.234 . S
O457 Mn432 2.209 . S
O457 Mn433 2.215 . S
O457 C434 1.283 . S
O458 Mn432 2.094 . S
O458 C436 1.240 . S
O459 Mn433 2.117 . S
O459 C436 1.264 . S
C460 C453 1.403 . S
C460 C461 1.399 . S
C460 H466 0.929 . S
C461 C441 1.449 . S
C461 C460 1.399 . S
C461 H467 0.930 . S
H462 C442 0.931 . S
H463 C443 0.930 . S
H464 C451 0.931 . S
H465 C452 0.929 . S
H466 C460 0.929 . S
H467 C461 0.930 . S
Mn468 O473 2.095 . S
Mn468 O483 2.162 . S
Mn468 O484 2.297 . S
Mn468 O492 2.385 . S
Mn468 O493 2.209 . S
Mn468 O494 2.094 . S
Mn469 O474 2.121 . S
Mn469 N476 2.257 . S
Mn469 N485 2.282 . S
Mn469 O493 2.215 . S
Mn469 O495 2.117 . S
C470 O492 1.234 . S
C470 O493 1.283 . S
C471 O483 1.281 . S
C471 O484 1.236 . S
C472 O494 1.240 . S
C472 O495 1.264 . S
O473 Mn468 2.095 . S
O473 C482 1.250 . S
O474 Mn469 2.121 . S
O474 C482 1.258 . S
C475 N476 1.326 . S
C475 C479 1.460 . S
C475 H481 0.929 . S
N476 Mn469 2.257 . S
N476 C475 1.326 . S
N476 C480 1.362 . S
C477 C478 1.258 . S
C477 C480 1.431 . S
C477 C497 1.449 . S
C478 C477 1.258 . S
C478 C479 1.477 . S
C478 H498 0.931 . S
C479 C475 1.460 . S
C479 C478 1.477 . S
C479 H499 0.930 1_655 S
C480 N476 1.362 . S
C480 C477 1.431 . S
C480 C490 1.476 . S
H481 C475 0.929 . S
C482 O473 1.250 . S
C482 O474 1.258 . S
O483 Mn468 2.162 . S
O483 C471 1.281 . S
O484 Mn468 2.297 . S
O484 C471 1.236 . S
N485 Mn469 2.282 . S
N485 C486 1.328 . S
N485 C490 1.318 . S
C486 N485 1.328 . S
C486 C487 1.457 . S
C486 H491 0.929 . S
C487 C486 1.457 . S
C487 C488 1.291 . S
C487 H500 0.931 . S
C488 C487 1.291 . S
C488 C489 1.373 . S
C488 H501 0.929 . S
C489 C488 1.373 . S
C489 C490 1.396 . S
C489 C496 1.403 . S
C490 C480 1.476 . S
C490 N485 1.318 . S
C490 C489 1.396 . S
H491 C486 0.929 . S
O492 Mn468 2.385 . S
O492 C470 1.234 . S
O493 Mn468 2.209 . S
O493 Mn469 2.215 . S
O493 C470 1.283 . S
O494 Mn468 2.094 . S
O494 C472 1.240 . S
O495 Mn469 2.117 . S
O495 C472 1.264 . S
C496 C489 1.403 . S
C496 C497 1.399 . S
C496 H502 0.929 . S
C497 C477 1.449 . S
C497 C496 1.399 . S
C497 H503 0.930 . S
H498 C478 0.931 . S
H499 C479 0.930 1_455 S
H500 C487 0.931 . S
H501 C488 0.929 . S
H502 C496 0.929 . S
H503 C497 0.930 . S
Mn504 O509 2.095 . S
Mn504 O519 2.162 . S
Mn504 O520 2.297 . S
Mn504 O528 2.385 . S
Mn504 O529 2.209 . S
Mn504 O530 2.094 . S
Mn505 O510 2.121 . S
Mn505 N512 2.257 . S
Mn505 N521 2.282 . S
Mn505 O529 2.215 . S
Mn505 O531 2.117 . S
C506 O528 1.234 . S
C506 O529 1.283 . S
C507 O519 1.281 . S
C507 O520 1.236 . S
C508 O530 1.240 . S
C508 O531 1.264 . S
O509 Mn504 2.095 . S
O509 C518 1.250 . S
O510 Mn505 2.121 . S
O510 C518 1.258 . S
C511 N512 1.326 . S
C511 C515 1.460 . S
C511 H517 0.929 . S
N512 Mn505 2.257 . S
N512 C511 1.326 . S
N512 C516 1.362 . S
C513 C514 1.258 . S
C513 C516 1.431 . S
C513 C533 1.449 . S
C514 C513 1.258 . S
C514 C515 1.477 . S
C514 H534 0.931 . S
C515 C511 1.460 . S
C515 C514 1.477 . S
C515 H535 0.930 . S
C516 N512 1.362 . S
C516 C513 1.431 . S
C516 C526 1.476 . S
H517 C511 0.929 . S
C518 O509 1.250 . S
C518 O510 1.258 . S
O519 Mn504 2.162 . S
O519 C507 1.281 . S
O520 Mn504 2.297 . S
O520 C507 1.236 . S
N521 Mn505 2.282 . S
N521 C522 1.328 . S
N521 C526 1.318 . S
C522 N521 1.328 . S
C522 C523 1.457 . S
C522 H527 0.929 . S
C523 C522 1.457 . S
C523 C524 1.291 . S
C523 H536 0.931 . S
C524 C523 1.291 . S
C524 C525 1.373 . S
C524 H537 0.929 . S
C525 C524 1.373 . S
C525 C526 1.396 . S
C525 C532 1.403 . S
C526 C516 1.476 . S
C526 N521 1.318 . S
C526 C525 1.396 . S
H527 C522 0.929 . S
O528 Mn504 2.385 . S
O528 C506 1.234 . S
O529 Mn504 2.209 . S
O529 Mn505 2.215 . S
O529 C506 1.283 . S
O530 Mn504 2.094 . S
O530 C508 1.240 . S
O531 Mn505 2.117 . S
O531 C508 1.264 . S
C532 C525 1.403 . S
C532 C533 1.399 . S
C532 H538 0.929 . S
C533 C513 1.449 . S
C533 C532 1.399 . S
C533 H539 0.930 . S
H534 C514 0.931 . S
H535 C515 0.930 . S
H536 C523 0.931 . S
H537 C524 0.929 . S
H538 C532 0.929 . S
H539 C533 0.930 . S
Mn540 O545 2.095 . S
Mn540 O555 2.162 . S
Mn540 O556 2.297 . S
Mn540 O564 2.385 . S
Mn540 O565 2.209 . S
Mn540 O566 2.094 . S
Mn541 O546 2.121 . S
Mn541 N548 2.257 . S
Mn541 N557 2.282 . S
Mn541 O565 2.215 . S
Mn541 O567 2.117 . S
C542 O564 1.234 . S
C542 O565 1.283 . S
C543 O555 1.281 . S
C543 O556 1.236 . S
C544 O566 1.240 . S
C544 O567 1.264 . S
O545 Mn540 2.095 . S
O545 C554 1.250 . S
O546 Mn541 2.121 . S
O546 C554 1.258 . S
C547 N548 1.326 . S
C547 C551 1.460 . S
C547 H553 0.929 . S
N548 Mn541 2.257 . S
N548 C547 1.326 . S
N548 C552 1.362 . S
C549 C550 1.258 . S
C549 C552 1.431 . S
C549 C569 1.449 . S
C550 C549 1.258 . S
C550 C551 1.477 . S
C550 H570 0.931 . S
C551 C547 1.460 . S
C551 C550 1.477 . S
C551 H571 0.930 . S
C552 N548 1.362 . S
C552 C549 1.431 . S
C552 C562 1.476 . S
H553 C547 0.929 . S
C554 O545 1.250 . S
C554 O546 1.258 . S
O555 Mn540 2.162 . S
O555 C543 1.281 . S
O556 Mn540 2.297 . S
O556 C543 1.236 . S
N557 Mn541 2.282 . S
N557 C558 1.328 . S
N557 C562 1.318 . S
C558 N557 1.328 . S
C558 C559 1.457 . S
C558 H563 0.929 . S
C559 C558 1.457 . S
C559 C560 1.291 . S
C559 H572 0.931 . S
C560 C559 1.291 . S
C560 C561 1.373 . S
C560 H573 0.929 . S
C561 C560 1.373 . S
C561 C562 1.396 . S
C561 C568 1.403 . S
C562 C552 1.476 . S
C562 N557 1.318 . S
C562 C561 1.396 . S
H563 C558 0.929 . S
O564 Mn540 2.385 . S
O564 C542 1.234 . S
O565 Mn540 2.209 . S
O565 Mn541 2.215 . S
O565 C542 1.283 . S
O566 Mn540 2.094 . S
O566 C544 1.240 . S
O567 Mn541 2.117 . S
O567 C544 1.264 . S
C568 C561 1.403 . S
C568 C569 1.399 . S
C568 H574 0.929 . S
C569 C549 1.449 . S
C569 C568 1.399 . S
C569 H575 0.930 . S
H570 C550 0.931 . S
H571 C551 0.930 . S
H572 C559 0.931 . S
H573 C560 0.929 . S
H574 C568 0.929 . S
H575 C569 0.930 . S
Mn576 O581 2.095 . S
Mn576 O591 2.162 . S
Mn576 O592 2.297 . S
Mn576 O600 2.385 . S
Mn576 O601 2.209 . S
Mn576 O602 2.094 . S
Mn577 O582 2.121 . S
Mn577 N584 2.257 . S
Mn577 N593 2.282 . S
Mn577 O601 2.215 . S
Mn577 O603 2.117 . S
C578 O600 1.234 . S
C578 O601 1.283 . S
C579 O591 1.281 . S
C579 O592 1.236 . S
C580 O602 1.240 . S
C580 O603 1.264 . S
O581 Mn576 2.095 . S
O581 C590 1.250 . S
O582 Mn577 2.121 . S
O582 C590 1.258 . S
C583 N584 1.326 . S
C583 C587 1.460 . S
C583 H589 0.929 . S
N584 Mn577 2.257 . S
N584 C583 1.326 . S
N584 C588 1.362 . S
C585 C586 1.258 . S
C585 C588 1.431 . S
C585 C605 1.449 . S
C586 C585 1.258 . S
C586 C587 1.477 . S
C586 H606 0.931 . S
C587 C583 1.460 . S
C587 C586 1.477 . S
C587 H607 0.930 1_545 S
C588 N584 1.362 . S
C588 C585 1.431 . S
C588 C598 1.476 . S
H589 C583 0.929 . S
C590 O581 1.250 . S
C590 O582 1.258 . S
O591 Mn576 2.162 . S
O591 C579 1.281 . S
O592 Mn576 2.297 . S
O592 C579 1.236 . S
N593 Mn577 2.282 . S
N593 C594 1.328 . S
N593 C598 1.318 . S
C594 N593 1.328 . S
C594 C595 1.457 . S
C594 H599 0.929 . S
C595 C594 1.457 . S
C595 C596 1.291 . S
C595 H608 0.931 . S
C596 C595 1.291 . S
C596 C597 1.373 . S
C596 H609 0.929 . S
C597 C596 1.373 . S
C597 C598 1.396 . S
C597 C604 1.403 . S
C598 C588 1.476 . S
C598 N593 1.318 . S
C598 C597 1.396 . S
H599 C594 0.929 . S
O600 Mn576 2.385 . S
O600 C578 1.234 . S
O601 Mn576 2.209 . S
O601 Mn577 2.215 . S
O601 C578 1.283 . S
O602 Mn576 2.094 . S
O602 C580 1.240 . S
O603 Mn577 2.117 . S
O603 C580 1.264 . S
C604 C597 1.403 . S
C604 C605 1.399 . S
C604 H610 0.929 . S
C605 C585 1.449 . S
C605 C604 1.399 . S
C605 H611 0.930 . S
H606 C586 0.931 . S
H607 C587 0.930 1_565 S
H608 C595 0.931 . S
H609 C596 0.929 . S
H610 C604 0.929 . S
H611 C605 0.930 . S
Mn612 O617 2.095 . S
Mn612 O627 2.162 . S
Mn612 O628 2.297 . S
Mn612 O636 2.385 . S
Mn612 O637 2.209 . S
Mn612 O638 2.094 . S
Mn613 O618 2.121 . S
Mn613 N620 2.257 . S
Mn613 N629 2.282 . S
Mn613 O637 2.215 . S
Mn613 O639 2.117 . S
C614 O636 1.234 . S
C614 O637 1.283 . S
C615 O627 1.275 . S
C615 O628 1.234 . S
C616 O638 1.240 . S
C616 O639 1.264 . S
O617 Mn612 2.095 . S
O617 C626 1.250 . S
O618 Mn613 2.121 . S
O618 C626 1.258 . S
C619 N620 1.326 . S
C619 C623 1.460 . S
C619 H625 0.929 . S
N620 Mn613 2.257 . S
N620 C619 1.326 . S
N620 C624 1.362 . S
C621 C622 1.258 . S
C621 C624 1.431 . S
C621 C641 1.449 . S
C622 C621 1.258 . S
C622 C623 1.477 . S
C622 H642 0.931 . S
C623 C619 1.460 . S
C623 C622 1.477 . S
C623 H643 0.930 . S
C624 N620 1.362 . S
C624 C621 1.431 . S
C624 C634 1.476 . S
H625 C619 0.929 . S
C626 O617 1.250 . S
C626 O618 1.258 . S
O627 Mn612 2.162 . S
O627 C615 1.275 . S
O628 Mn612 2.297 . S
O628 C615 1.234 . S
N629 Mn613 2.282 . S
N629 C630 1.328 . S
N629 C634 1.318 . S
C630 N629 1.328 . S
C630 C631 1.457 . S
C630 H635 0.929 . S
C631 C630 1.457 . S
C631 C632 1.291 . S
C631 H644 0.931 . S
C632 C631 1.291 . S
C632 C633 1.373 . S
C632 H645 0.929 . S
C633 C632 1.373 . S
C633 C634 1.396 . S
C633 C640 1.403 . S
C634 C624 1.476 . S
C634 N629 1.318 . S
C634 C633 1.396 . S
H635 C630 0.929 . S
O636 Mn612 2.385 . S
O636 C614 1.234 . S
O637 Mn612 2.209 . S
O637 Mn613 2.215 . S
O637 C614 1.283 . S
O638 Mn612 2.094 . S
O638 C616 1.240 . S
O639 Mn613 2.117 . S
O639 C616 1.264 . S
C640 C633 1.403 . S
C640 C641 1.399 . S
C640 H646 0.929 . S
C641 C621 1.449 . S
C641 C640 1.399 . S
C641 H647 0.930 . S
H642 C622 0.931 . S
H643 C623 0.930 . S
H644 C631 0.931 . S
H645 C632 0.929 . S
H646 C640 0.929 . S
H647 C641 0.930 . S
H648 C675 0.929 . S
N649 C674 1.433 . S
N649 C680 1.435 . S
N649 C686 1.423 . S
H650 C676 0.930 . S
H651 C679 0.931 . S
H652 C678 0.929 . S
H653 C681 0.930 . S
H654 C682 0.932 . S
H655 C685 0.929 . S
H656 C684 0.931 . S
H657 C687 0.929 . S
H658 C691 0.932 . S
H659 C688 0.931 . S
H660 C690 0.929 . S
H661 C693 0.929 . S
H662 C694 0.930 . S
H663 C696 0.929 . S
H664 C697 0.931 . S
H665 C699 0.930 . S
H666 C700 0.932 . S
H667 C702 0.931 . S
H668 C703 0.929 . S
H669 C705 0.929 . S
H670 C706 0.931 . S
H671 C708 0.929 . S
N672 C692 1.433 . S
N672 C698 1.435 . S
N672 C704 1.423 . S
H673 C709 0.932 . S
C674 N649 1.433 . S
C674 C675 1.363 . S
C674 C679 1.370 . S
C675 H648 0.929 . S
C675 C674 1.363 . S
C675 C676 1.385 . S
C676 H650 0.930 . S
C676 C675 1.385 . S
C676 C677 1.357 . S
C677 C676 1.357 . S
C677 C678 1.406 . S
C678 H652 0.929 . S
C678 C677 1.406 . S
C678 C679 1.391 . S
C679 H651 0.931 . S
C679 C674 1.370 . S
C679 C678 1.391 . S
C680 N649 1.435 . S
C680 C681 1.358 . S
C680 C685 1.371 . S
C681 H653 0.930 . S
C681 C680 1.358 . S
C681 C682 1.405 . S
C682 H654 0.932 . S
C682 C681 1.405 . S
C682 C683 1.383 . S
C683 C682 1.383 . S
C683 C684 1.393 . S
C684 H656 0.931 . S
C684 C683 1.393 . S
C684 C685 1.382 . S
C685 H655 0.929 . S
C685 C680 1.371 . S
C685 C684 1.382 . S
C686 N649 1.423 . S
C686 C687 1.362 . S
C686 C691 1.388 . S
C687 H657 0.929 . S
C687 C686 1.362 . S
C687 C688 1.376 . S
C688 H659 0.931 . S
C688 C687 1.376 . S
C688 C689 1.396 . S
C689 C688 1.396 . S
C689 C690 1.348 . S
C689 C707 1.472 . S
C690 H660 0.929 . S
C690 C689 1.348 . S
C690 C691 1.443 . S
C691 H658 0.932 . S
C691 C686 1.388 . S
C691 C690 1.443 . S
C692 N672 1.433 . S
C692 C693 1.363 . S
C692 C697 1.370 . S
C693 H661 0.929 . S
C693 C692 1.363 . S
C693 C694 1.385 . S
C694 H662 0.930 . S
C694 C693 1.385 . S
C694 C695 1.357 . S
C695 C694 1.357 . S
C695 C696 1.406 . S
C696 H663 0.929 . S
C696 C695 1.406 . S
C696 C697 1.391 . S
C697 H664 0.931 . S
C697 C692 1.370 . S
C697 C696 1.391 . S
C698 N672 1.435 . S
C698 C699 1.358 . S
C698 C703 1.371 . S
C699 H665 0.930 . S
C699 C698 1.358 . S
C699 C700 1.405 . S
C700 H666 0.932 . S
C700 C699 1.405 . S
C700 C701 1.383 . S
C701 C700 1.383 . S
C701 C702 1.393 . S
C702 H667 0.931 . S
C702 C701 1.393 . S
C702 C703 1.382 . S
C703 H668 0.929 . S
C703 C698 1.371 . S
C703 C702 1.382 . S
C704 N672 1.423 . S
C704 C705 1.362 . S
C704 C709 1.388 . S
C705 H669 0.929 . S
C705 C704 1.362 . S
C705 C706 1.376 . S
C706 H670 0.931 . S
C706 C705 1.376 . S
C706 C707 1.396 . S
C707 C689 1.472 . S
C707 C706 1.396 . S
C707 C708 1.348 . S
C708 H671 0.929 . S
C708 C707 1.348 . S
C708 C709 1.443 . S
C709 H673 0.932 . S
C709 C704 1.388 . S
C709 C708 1.443 . S
H710 C737 0.929 . S
N711 C736 1.433 . S
N711 C742 1.435 . S
N711 C748 1.423 . S
H712 C738 0.930 . S
H713 C741 0.931 . S
H714 C740 0.929 . S
H715 C743 0.930 . S
H716 C744 0.932 . S
H717 C747 0.929 . S
H718 C746 0.931 . S
H719 C749 0.929 . S
H720 C753 0.932 . S
H721 C750 0.931 . S
H722 C752 0.929 . S
H723 C755 0.929 . S
H724 C756 0.930 . S
H725 C758 0.929 . S
H726 C759 0.931 . S
H727 C761 0.930 . S
H728 C762 0.932 . S
H729 C764 0.931 . S
H730 C765 0.929 . S
H731 C767 0.929 . S
H732 C768 0.931 . S
H733 C770 0.929 . S
N734 C754 1.433 . S
N734 C760 1.435 . S
N734 C766 1.423 . S
H735 C771 0.932 . S
C736 N711 1.433 . S
C736 C737 1.363 . S
C736 C741 1.370 . S
C737 H710 0.929 . S
C737 C736 1.363 . S
C737 C738 1.385 . S
C738 H712 0.930 . S
C738 C737 1.385 . S
C738 C739 1.357 . S
C739 C738 1.357 . S
C739 C740 1.406 . S
C740 H714 0.929 . S
C740 C739 1.406 . S
C740 C741 1.391 . S
C741 H713 0.931 . S
C741 C736 1.370 . S
C741 C740 1.391 . S
C742 N711 1.435 . S
C742 C743 1.358 . S
C742 C747 1.371 . S
C743 H715 0.930 . S
C743 C742 1.358 . S
C743 C744 1.405 . S
C744 H716 0.932 . S
C744 C743 1.405 . S
C744 C745 1.383 . S
C745 C744 1.383 . S
C745 C746 1.393 . S
C746 H718 0.931 . S
C746 C745 1.393 . S
C746 C747 1.382 . S
C747 H717 0.929 . S
C747 C742 1.371 . S
C747 C746 1.382 . S
C748 N711 1.423 . S
C748 C749 1.362 . S
C748 C753 1.388 . S
C749 H719 0.929 . S
C749 C748 1.362 . S
C749 C750 1.376 . S
C750 H721 0.931 . S
C750 C749 1.376 . S
C750 C751 1.396 . S
C751 C750 1.396 . S
C751 C752 1.348 . S
C751 C769 1.472 . S
C752 H722 0.929 . S
C752 C751 1.348 . S
C752 C753 1.443 . S
C753 H720 0.932 . S
C753 C748 1.388 . S
C753 C752 1.443 . S
C754 N734 1.433 . S
C754 C755 1.363 . S
C754 C759 1.370 . S
C755 H723 0.929 . S
C755 C754 1.363 . S
C755 C756 1.385 . S
C756 H724 0.930 . S
C756 C755 1.385 . S
C756 C757 1.357 . S
C757 C756 1.357 . S
C757 C758 1.406 . S
C758 H725 0.929 . S
C758 C757 1.406 . S
C758 C759 1.391 . S
C759 H726 0.931 . S
C759 C754 1.370 . S
C759 C758 1.391 . S
C760 N734 1.435 . S
C760 C761 1.358 . S
C760 C765 1.371 . S
C761 H727 0.930 . S
C761 C760 1.358 . S
C761 C762 1.405 . S
C762 H728 0.932 . S
C762 C761 1.405 . S
C762 C763 1.383 . S
C763 C762 1.383 . S
C763 C764 1.393 . S
C764 H729 0.931 . S
C764 C763 1.393 . S
C764 C765 1.382 . S
C765 H730 0.929 . S
C765 C760 1.371 . S
C765 C764 1.382 . S
C766 N734 1.423 . S
C766 C767 1.362 . S
C766 C771 1.388 . S
C767 H731 0.929 . S
C767 C766 1.362 . S
C767 C768 1.376 . S
C768 H732 0.931 . S
C768 C767 1.376 . S
C768 C769 1.396 . S
C769 C751 1.472 . S
C769 C768 1.396 . S
C769 C770 1.348 . S
C770 H733 0.929 . S
C770 C769 1.348 . S
C770 C771 1.443 . S
C771 H735 0.932 . S
C771 C766 1.388 . S
C771 C770 1.443 . S
H772 C799 0.929 . S
N773 C798 1.433 . S
N773 C804 1.435 . S
N773 C810 1.423 . S
H774 C800 0.930 . S
H775 C803 0.931 . S
H776 C802 0.929 . S
H777 C805 0.930 . S
H778 C806 0.932 . S
H779 C809 0.929 . S
H780 C808 0.931 . S
H781 C811 0.929 . S
H782 C815 0.932 . S
H783 C812 0.931 . S
H784 C814 0.929 . S
H785 C817 0.929 . S
H786 C818 0.930 . S
H787 C820 0.929 . S
H788 C821 0.931 . S
H789 C823 0.930 . S
H790 C824 0.932 . S
H791 C826 0.931 . S
H792 C827 0.929 . S
H793 C829 0.929 . S
H794 C830 0.931 . S
H795 C832 0.929 . S
N796 C816 1.433 . S
N796 C822 1.435 . S
N796 C828 1.423 . S
H797 C833 0.932 . S
C798 N773 1.433 . S
C798 C799 1.363 . S
C798 C803 1.370 . S
C799 H772 0.929 . S
C799 C798 1.363 . S
C799 C800 1.385 . S
C800 H774 0.930 . S
C800 C799 1.385 . S
C800 C801 1.357 . S
C801 C800 1.357 . S
C801 C802 1.406 . S
C802 H776 0.929 . S
C802 C801 1.406 . S
C802 C803 1.391 . S
C803 H775 0.931 . S
C803 C798 1.370 . S
C803 C802 1.391 . S
C804 N773 1.435 . S
C804 C805 1.358 . S
C804 C809 1.371 . S
C805 H777 0.930 . S
C805 C804 1.358 . S
C805 C806 1.405 . S
C806 H778 0.932 . S
C806 C805 1.405 . S
C806 C807 1.383 . S
C807 C806 1.383 . S
C807 C808 1.393 . S
C808 H780 0.931 . S
C808 C807 1.393 . S
C808 C809 1.382 . S
C809 H779 0.929 . S
C809 C804 1.371 . S
C809 C808 1.382 . S
C810 N773 1.423 . S
C810 C811 1.362 . S
C810 C815 1.388 . S
C811 H781 0.929 . S
C811 C810 1.362 . S
C811 C812 1.376 . S
C812 H783 0.931 . S
C812 C811 1.376 . S
C812 C813 1.396 . S
C813 C812 1.396 . S
C813 C814 1.348 . S
C813 C831 1.472 . S
C814 H784 0.929 . S
C814 C813 1.348 . S
C814 C815 1.443 . S
C815 H782 0.932 . S
C815 C810 1.388 . S
C815 C814 1.443 . S
C816 N796 1.433 . S
C816 C817 1.363 . S
C816 C821 1.370 . S
C817 H785 0.929 . S
C817 C816 1.363 . S
C817 C818 1.385 . S
C818 H786 0.930 . S
C818 C817 1.385 . S
C818 C819 1.357 . S
C819 C818 1.357 . S
C819 C820 1.406 . S
C820 H787 0.929 . S
C820 C819 1.406 . S
C820 C821 1.391 . S
C821 H788 0.931 . S
C821 C816 1.370 . S
C821 C820 1.391 . S
C822 N796 1.435 . S
C822 C823 1.358 . S
C822 C827 1.371 . S
C823 H789 0.930 . S
C823 C822 1.358 . S
C823 C824 1.405 . S
C824 H790 0.932 . S
C824 C823 1.405 . S
C824 C825 1.383 . S
C825 C824 1.383 . S
C825 C826 1.393 . S
C826 H791 0.931 . S
C826 C825 1.393 . S
C826 C827 1.382 . S
C827 H792 0.929 . S
C827 C822 1.371 . S
C827 C826 1.382 . S
C828 N796 1.423 . S
C828 C829 1.362 . S
C828 C833 1.388 . S
C829 H793 0.929 . S
C829 C828 1.362 . S
C829 C830 1.376 . S
C830 H794 0.931 . S
C830 C829 1.376 . S
C830 C831 1.396 . S
C831 C813 1.472 . S
C831 C830 1.396 . S
C831 C832 1.348 . S
C832 H795 0.929 . S
C832 C831 1.348 . S
C832 C833 1.443 . S
C833 H797 0.932 . S
C833 C828 1.388 . S
C833 C832 1.443 . S
H834 C861 0.929 . S
N835 C860 1.433 . S
N835 C866 1.435 . S
N835 C872 1.423 . S
H836 C862 0.930 . S
H837 C865 0.931 . S
H838 C864 0.929 . S
H839 C867 0.930 . S
H840 C868 0.932 . S
H841 C871 0.929 . S
H842 C870 0.931 . S
H843 C873 0.929 . S
H844 C877 0.932 . S
H845 C874 0.931 . S
H846 C876 0.929 . S
H847 C879 0.929 . S
H848 C880 0.930 . S
H849 C882 0.929 . S
H850 C883 0.931 . S
H851 C885 0.930 . S
H852 C886 0.932 . S
H853 C888 0.931 . S
H854 C889 0.929 . S
H855 C891 0.929 . S
H856 C892 0.931 . S
H857 C894 0.929 . S
N858 C878 1.433 . S
N858 C884 1.435 . S
N858 C890 1.423 . S
H859 C895 0.932 . S
C860 N835 1.433 . S
C860 C861 1.363 . S
C860 C865 1.370 . S
C861 H834 0.929 . S
C861 C860 1.363 . S
C861 C862 1.385 . S
C862 H836 0.930 . S
C862 C861 1.385 . S
C862 C863 1.357 . S
C863 C862 1.357 . S
C863 C864 1.406 . S
C864 H838 0.929 . S
C864 C863 1.406 . S
C864 C865 1.391 . S
C865 H837 0.931 . S
C865 C860 1.370 . S
C865 C864 1.391 . S
C866 N835 1.435 . S
C866 C867 1.358 . S
C866 C871 1.371 . S
C867 H839 0.930 . S
C867 C866 1.358 . S
C867 C868 1.405 . S
C868 H840 0.932 . S
C868 C867 1.405 . S
C868 C869 1.383 . S
C869 C868 1.383 . S
C869 C870 1.393 . S
C870 H842 0.931 . S
C870 C869 1.393 . S
C870 C871 1.382 . S
C871 H841 0.929 . S
C871 C866 1.371 . S
C871 C870 1.382 . S
C872 N835 1.423 . S
C872 C873 1.362 . S
C872 C877 1.388 . S
C873 H843 0.929 . S
C873 C872 1.362 . S
C873 C874 1.376 . S
C874 H845 0.931 . S
C874 C873 1.376 . S
C874 C875 1.396 . S
C875 C874 1.396 . S
C875 C876 1.348 . S
C875 C893 1.472 . S
C876 H846 0.929 . S
C876 C875 1.348 . S
C876 C877 1.443 . S
C877 H844 0.932 . S
C877 C872 1.388 . S
C877 C876 1.443 . S
C878 N858 1.433 . S
C878 C879 1.363 . S
C878 C883 1.370 . S
C879 H847 0.929 . S
C879 C878 1.363 . S
C879 C880 1.385 . S
C880 H848 0.930 . S
C880 C879 1.385 . S
C880 C881 1.357 . S
C881 C880 1.357 . S
C881 C882 1.406 . S
C882 H849 0.929 . S
C882 C881 1.406 . S
C882 C883 1.391 . S
C883 H850 0.931 . S
C883 C878 1.370 . S
C883 C882 1.391 . S
C884 N858 1.435 . S
C884 C885 1.358 . S
C884 C889 1.371 . S
C885 H851 0.930 . S
C885 C884 1.358 . S
C885 C886 1.405 . S
C886 H852 0.932 . S
C886 C885 1.405 . S
C886 C887 1.383 . S
C887 C886 1.383 . S
C887 C888 1.393 . S
C888 H853 0.931 . S
C888 C887 1.393 . S
C888 C889 1.382 . S
C889 H854 0.929 . S
C889 C884 1.371 . S
C889 C888 1.382 . S
C890 N858 1.423 . S
C890 C891 1.362 . S
C890 C895 1.388 . S
C891 H855 0.929 . S
C891 C890 1.362 . S
C891 C892 1.376 . S
C892 H856 0.931 . S
C892 C891 1.376 . S
C892 C893 1.396 . S
C893 C875 1.472 . S
C893 C892 1.396 . S
C893 C894 1.348 . S
C894 H857 0.929 . S
C894 C893 1.348 . S
C894 C895 1.443 . S
C895 H859 0.932 . S
C895 C890 1.388 . S
C895 C894 1.443 . S
H896 C923 0.929 . S
N897 C922 1.433 . S
N897 C928 1.435 . S
N897 C934 1.423 . S
H898 C924 0.930 . S
H899 C927 0.931 . S
H900 C926 0.929 . S
H901 C929 0.930 . S
H902 C930 0.932 . S
H903 C933 0.929 . S
H904 C932 0.931 . S
H905 C935 0.929 . S
H906 C939 0.932 . S
H907 C936 0.931 . S
H908 C938 0.929 . S
H909 C941 0.929 . S
H910 C942 0.930 . S
H911 C944 0.929 . S
H912 C945 0.931 . S
H913 C947 0.930 . S
H914 C948 0.932 . S
H915 C950 0.931 . S
H916 C951 0.929 . S
H917 C953 0.929 . S
H918 C954 0.931 . S
H919 C956 0.929 . S
N920 C940 1.433 . S
N920 C946 1.435 . S
N920 C952 1.423 . S
H921 C957 0.932 . S
C922 N897 1.433 . S
C922 C923 1.363 . S
C922 C927 1.370 . S
C923 H896 0.929 . S
C923 C922 1.363 . S
C923 C924 1.385 . S
C924 H898 0.930 . S
C924 C923 1.385 . S
C924 C925 1.357 . S
C925 C924 1.357 . S
C925 C926 1.406 . S
C926 H900 0.929 . S
C926 C925 1.406 . S
C926 C927 1.391 . S
C927 H899 0.931 . S
C927 C922 1.370 . S
C927 C926 1.391 . S
C928 N897 1.435 . S
C928 C929 1.358 . S
C928 C933 1.371 . S
C929 H901 0.930 . S
C929 C928 1.358 . S
C929 C930 1.405 . S
C930 H902 0.932 . S
C930 C929 1.405 . S
C930 C931 1.383 . S
C931 C930 1.383 . S
C931 C932 1.393 . S
C932 H904 0.931 . S
C932 C931 1.393 . S
C932 C933 1.382 . S
C933 H903 0.929 . S
C933 C928 1.371 . S
C933 C932 1.382 . S
C934 N897 1.423 . S
C934 C935 1.362 . S
C934 C939 1.388 . S
C935 H905 0.929 . S
C935 C934 1.362 . S
C935 C936 1.376 . S
C936 H907 0.931 . S
C936 C935 1.376 . S
C936 C937 1.396 . S
C937 C936 1.396 . S
C937 C938 1.348 . S
C937 C955 1.472 . S
C938 H908 0.929 . S
C938 C937 1.348 . S
C938 C939 1.443 . S
C939 H906 0.932 . S
C939 C934 1.388 . S
C939 C938 1.443 . S
C940 N920 1.433 . S
C940 C941 1.363 . S
C940 C945 1.370 . S
C941 H909 0.929 . S
C941 C940 1.363 . S
C941 C942 1.385 . S
C942 H910 0.930 . S
C942 C941 1.385 . S
C942 C943 1.357 . S
C943 C942 1.357 . S
C943 C944 1.406 . S
C944 H911 0.929 . S
C944 C943 1.406 . S
C944 C945 1.391 . S
C945 H912 0.931 . S
C945 C940 1.370 . S
C945 C944 1.391 . S
C946 N920 1.435 . S
C946 C947 1.358 . S
C946 C951 1.371 . S
C947 H913 0.930 . S
C947 C946 1.358 . S
C947 C948 1.405 . S
C948 H914 0.932 . S
C948 C947 1.405 . S
C948 C949 1.383 . S
C949 C948 1.383 . S
C949 C950 1.393 . S
C950 H915 0.931 . S
C950 C949 1.393 . S
C950 C951 1.382 . S
C951 H916 0.929 . S
C951 C946 1.371 . S
C951 C950 1.382 . S
C952 N920 1.423 . S
C952 C953 1.362 . S
C952 C957 1.388 . S
C953 H917 0.929 . S
C953 C952 1.362 . S
C953 C954 1.376 . S
C954 H918 0.931 . S
C954 C953 1.376 . S
C954 C955 1.396 . S
C955 C937 1.472 . S
C955 C954 1.396 . S
C955 C956 1.348 . S
C956 H919 0.929 . S
C956 C955 1.348 . S
C956 C957 1.443 . S
C957 H921 0.932 . S
C957 C952 1.388 . S
C957 C956 1.443 . S
H958 C985 0.929 . S
N959 C984 1.433 . S
N959 C990 1.435 . S
N959 C996 1.423 . S
H960 C986 0.930 . S
H961 C989 0.931 . S
H962 C988 0.929 . S
H963 C991 0.930 . S
H964 C992 0.932 . S
H965 C995 0.929 . S
H966 C994 0.931 . S
H967 C997 0.929 . S
H968 C1001 0.932 . S
H969 C998 0.931 . S
H970 C1000 0.929 . S
H971 C1003 0.929 . S
H972 C1004 0.930 . S
H973 C1006 0.929 . S
H974 C1007 0.931 . S
H975 C1009 0.930 . S
H976 C1010 0.932 . S
H977 C1012 0.931 . S
H978 C1013 0.929 . S
H979 C1015 0.929 . S
H980 C1016 0.931 . S
H981 C1018 0.929 . S
N982 C1002 1.433 . S
N982 C1008 1.435 . S
N982 C1014 1.423 . S
H983 C1019 0.932 . S
C984 N959 1.433 . S
C984 C985 1.363 . S
C984 C989 1.370 . S
C985 H958 0.929 . S
C985 C984 1.363 . S
C985 C986 1.385 . S
C986 H960 0.930 . S
C986 C985 1.385 . S
C986 C987 1.357 . S
C987 C986 1.357 . S
C987 C988 1.406 . S
C988 H962 0.929 . S
C988 C987 1.406 . S
C988 C989 1.391 . S
C989 H961 0.931 . S
C989 C984 1.370 . S
C989 C988 1.391 . S
C990 N959 1.435 . S
C990 C991 1.358 . S
C990 C995 1.371 . S
C991 H963 0.930 . S
C991 C990 1.358 . S
C991 C992 1.405 . S
C992 H964 0.932 . S
C992 C991 1.405 . S
C992 C993 1.383 . S
C993 C992 1.383 . S
C993 C994 1.393 . S
C994 H966 0.931 . S
C994 C993 1.393 . S
C994 C995 1.382 . S
C995 H965 0.929 . S
C995 C990 1.371 . S
C995 C994 1.382 . S
C996 N959 1.423 . S
C996 C997 1.362 . S
C996 C1001 1.388 . S
C997 H967 0.929 . S
C997 C996 1.362 . S
C997 C998 1.376 . S
C998 H969 0.931 . S
C998 C997 1.376 . S
C998 C999 1.396 . S
C999 C998 1.396 . S
C999 C1000 1.348 . S
C999 C1017 1.472 . S
C1000 H970 0.929 . S
C1000 C999 1.348 . S
C1000 C1001 1.443 . S
C1001 H968 0.932 . S
C1001 C996 1.388 . S
C1001 C1000 1.443 . S
C1002 N982 1.433 . S
C1002 C1003 1.363 . S
C1002 C1007 1.370 . S
C1003 H971 0.929 . S
C1003 C1002 1.363 . S
C1003 C1004 1.385 . S
C1004 H972 0.930 . S
C1004 C1003 1.385 . S
C1004 C1005 1.357 . S
C1005 C1004 1.357 . S
C1005 C1006 1.406 . S
C1006 H973 0.929 . S
C1006 C1005 1.406 . S
C1006 C1007 1.391 . S
C1007 H974 0.931 . S
C1007 C1002 1.370 . S
C1007 C1006 1.391 . S
C1008 N982 1.435 . S
C1008 C1009 1.358 . S
C1008 C1013 1.371 . S
C1009 H975 0.930 . S
C1009 C1008 1.358 . S
C1009 C1010 1.405 . S
C1010 H976 0.932 . S
C1010 C1009 1.405 . S
C1010 C1011 1.383 . S
C1011 C1010 1.383 . S
C1011 C1012 1.393 . S
C1012 H977 0.931 . S
C1012 C1011 1.393 . S
C1012 C1013 1.382 . S
C1013 H978 0.929 . S
C1013 C1008 1.371 . S
C1013 C1012 1.382 . S
C1014 N982 1.423 . S
C1014 C1015 1.362 . S
C1014 C1019 1.388 . S
C1015 H979 0.929 . S
C1015 C1014 1.362 . S
C1015 C1016 1.376 . S
C1016 H980 0.931 . S
C1016 C1015 1.376 . S
C1016 C1017 1.396 . S
C1017 C999 1.472 . S
C1017 C1016 1.396 . S
C1017 C1018 1.348 . S
C1018 H981 0.929 . S
C1018 C1017 1.348 . S
C1018 C1019 1.443 . S
C1019 H983 0.932 . S
C1019 C1014 1.388 . S
C1019 C1018 1.443 . S
H1020 C1047 0.929 . S
N1021 C1046 1.433 . S
N1021 C1052 1.435 . S
N1021 C1058 1.423 . S
H1022 C1048 0.930 . S
H1023 C1051 0.931 . S
H1024 C1050 0.929 . S
H1025 C1053 0.930 . S
H1026 C1054 0.932 . S
H1027 C1057 0.929 . S
H1028 C1056 0.931 . S
H1029 C1059 0.929 . S
H1030 C1063 0.932 . S
H1031 C1060 0.931 . S
H1032 C1062 0.929 . S
H1033 C1065 0.929 . S
H1034 C1066 0.930 . S
H1035 C1068 0.929 . S
H1036 C1069 0.931 . S
H1037 C1071 0.930 . S
H1038 C1072 0.932 . S
H1039 C1074 0.931 . S
H1040 C1075 0.929 . S
H1041 C1077 0.929 . S
H1042 C1078 0.931 . S
H1043 C1080 0.929 . S
N1044 C1064 1.433 . S
N1044 C1070 1.435 . S
N1044 C1076 1.423 . S
H1045 C1081 0.932 . S
C1046 N1021 1.433 . S
C1046 C1047 1.363 . S
C1046 C1051 1.370 . S
C1047 H1020 0.929 . S
C1047 C1046 1.363 . S
C1047 C1048 1.385 . S
C1048 H1022 0.930 . S
C1048 C1047 1.385 . S
C1048 C1049 1.357 . S
C1049 C1048 1.357 . S
C1049 C1050 1.406 . S
C1050 H1024 0.929 . S
C1050 C1049 1.406 . S
C1050 C1051 1.391 . S
C1051 H1023 0.931 . S
C1051 C1046 1.370 . S
C1051 C1050 1.391 . S
C1052 N1021 1.435 . S
C1052 C1053 1.358 . S
C1052 C1057 1.371 . S
C1053 H1025 0.930 . S
C1053 C1052 1.358 . S
C1053 C1054 1.405 . S
C1054 H1026 0.932 . S
C1054 C1053 1.405 . S
C1054 C1055 1.383 . S
C1055 C1054 1.383 . S
C1055 C1056 1.393 . S
C1056 H1028 0.931 . S
C1056 C1055 1.393 . S
C1056 C1057 1.382 . S
C1057 H1027 0.929 . S
C1057 C1052 1.371 . S
C1057 C1056 1.382 . S
C1058 N1021 1.423 . S
C1058 C1059 1.362 . S
C1058 C1063 1.388 . S
C1059 H1029 0.929 . S
C1059 C1058 1.362 . S
C1059 C1060 1.376 . S
C1060 H1031 0.931 . S
C1060 C1059 1.376 . S
C1060 C1061 1.396 . S
C1061 C1060 1.396 . S
C1061 C1062 1.348 . S
C1061 C1079 1.472 . S
C1062 H1032 0.929 . S
C1062 C1061 1.348 . S
C1062 C1063 1.443 . S
C1063 H1030 0.932 . S
C1063 C1058 1.388 . S
C1063 C1062 1.443 . S
C1064 N1044 1.433 . S
C1064 C1065 1.363 . S
C1064 C1069 1.370 . S
C1065 H1033 0.929 . S
C1065 C1064 1.363 . S
C1065 C1066 1.385 . S
C1066 H1034 0.930 . S
C1066 C1065 1.385 . S
C1066 C1067 1.357 . S
C1067 C1066 1.357 . S
C1067 C1068 1.406 . S
C1068 H1035 0.929 . S
C1068 C1067 1.406 . S
C1068 C1069 1.391 . S
C1069 H1036 0.931 . S
C1069 C1064 1.370 . S
C1069 C1068 1.391 . S
C1070 N1044 1.435 . S
C1070 C1071 1.358 . S
C1070 C1075 1.371 . S
C1071 H1037 0.930 . S
C1071 C1070 1.358 . S
C1071 C1072 1.405 . S
C1072 H1038 0.932 . S
C1072 C1071 1.405 . S
C1072 C1073 1.383 . S
C1073 C1072 1.383 . S
C1073 C1074 1.393 . S
C1074 H1039 0.931 . S
C1074 C1073 1.393 . S
C1074 C1075 1.382 . S
C1075 H1040 0.929 . S
C1075 C1070 1.371 . S
C1075 C1074 1.382 . S
C1076 N1044 1.423 . S
C1076 C1077 1.362 . S
C1076 C1081 1.388 . S
C1077 H1041 0.929 . S
C1077 C1076 1.362 . S
C1077 C1078 1.376 . S
C1078 H1042 0.931 . S
C1078 C1077 1.376 . S
C1078 C1079 1.396 . S
C1079 C1061 1.472 . S
C1079 C1078 1.396 . S
C1079 C1080 1.348 . S
C1080 H1043 0.929 . S
C1080 C1079 1.348 . S
C1080 C1081 1.443 . S
C1081 H1045 0.932 . S
C1081 C1076 1.388 . S
C1081 C1080 1.443 . S
H1082 C1109 0.929 . S
N1083 C1108 1.433 . S
N1083 C1114 1.435 . S
N1083 C1120 1.423 . S
H1084 C1110 0.930 . S
H1085 C1113 0.931 . S
H1086 C1112 0.929 . S
H1087 C1115 0.930 . S
H1088 C1116 0.932 . S
H1089 C1119 0.929 . S
H1090 C1118 0.931 . S
H1091 C1121 0.929 . S
H1092 C1125 0.932 . S
H1093 C1122 0.931 . S
H1094 C1124 0.929 . S
H1095 C1127 0.929 . S
H1096 C1128 0.930 . S
H1097 C1130 0.929 . S
H1098 C1131 0.931 . S
H1099 C1133 0.930 . S
H1100 C1134 0.932 . S
H1101 C1136 0.931 . S
H1102 C1137 0.929 . S
H1103 C1139 0.929 . S
H1104 C1140 0.931 . S
H1105 C1142 0.929 . S
N1106 C1126 1.433 . S
N1106 C1132 1.435 . S
N1106 C1138 1.423 . S
H1107 C1143 0.932 . S
C1108 N1083 1.433 . S
C1108 C1109 1.363 . S
C1108 C1113 1.370 . S
C1109 H1082 0.929 . S
C1109 C1108 1.363 . S
C1109 C1110 1.385 . S
C1110 H1084 0.930 . S
C1110 C1109 1.385 . S
C1110 C1111 1.357 . S
C1111 C1110 1.357 . S
C1111 C1112 1.406 . S
C1112 H1086 0.929 . S
C1112 C1111 1.406 . S
C1112 C1113 1.391 . S
C1113 H1085 0.931 . S
C1113 C1108 1.370 . S
C1113 C1112 1.391 . S
C1114 N1083 1.435 . S
C1114 C1115 1.358 . S
C1114 C1119 1.371 . S
C1115 H1087 0.930 . S
C1115 C1114 1.358 . S
C1115 C1116 1.405 . S
C1116 H1088 0.932 . S
C1116 C1115 1.405 . S
C1116 C1117 1.383 . S
C1117 C1116 1.383 . S
C1117 C1118 1.393 . S
C1118 H1090 0.931 . S
C1118 C1117 1.393 . S
C1118 C1119 1.382 . S
C1119 H1089 0.929 . S
C1119 C1114 1.371 . S
C1119 C1118 1.382 . S
C1120 N1083 1.423 . S
C1120 C1121 1.362 . S
C1120 C1125 1.388 . S
C1121 H1091 0.929 . S
C1121 C1120 1.362 . S
C1121 C1122 1.376 . S
C1122 H1093 0.931 . S
C1122 C1121 1.376 . S
C1122 C1123 1.396 . S
C1123 C1122 1.396 . S
C1123 C1124 1.348 . S
C1123 C1141 1.472 . S
C1124 H1094 0.929 . S
C1124 C1123 1.348 . S
C1124 C1125 1.443 . S
C1125 H1092 0.932 . S
C1125 C1120 1.388 . S
C1125 C1124 1.443 . S
C1126 N1106 1.433 . S
C1126 C1127 1.363 . S
C1126 C1131 1.370 . S
C1127 H1095 0.929 . S
C1127 C1126 1.363 . S
C1127 C1128 1.385 . S
C1128 H1096 0.930 . S
C1128 C1127 1.385 . S
C1128 C1129 1.357 . S
C1129 C1128 1.357 . S
C1129 C1130 1.406 . S
C1130 H1097 0.929 . S
C1130 C1129 1.406 . S
C1130 C1131 1.391 . S
C1131 H1098 0.931 . S
C1131 C1126 1.370 . S
C1131 C1130 1.391 . S
C1132 N1106 1.435 . S
C1132 C1133 1.358 . S
C1132 C1137 1.371 . S
C1133 H1099 0.930 . S
C1133 C1132 1.358 . S
C1133 C1134 1.405 . S
C1134 H1100 0.932 . S
C1134 C1133 1.405 . S
C1134 C1135 1.383 . S
C1135 C1134 1.383 . S
C1135 C1136 1.393 . S
C1136 H1101 0.931 . S
C1136 C1135 1.393 . S
C1136 C1137 1.382 . S
C1137 H1102 0.929 . S
C1137 C1132 1.371 . S
C1137 C1136 1.382 . S
C1138 N1106 1.423 . S
C1138 C1139 1.362 . S
C1138 C1143 1.388 . S
C1139 H1103 0.929 . S
C1139 C1138 1.362 . S
C1139 C1140 1.376 . S
C1140 H1104 0.931 . S
C1140 C1139 1.376 . S
C1140 C1141 1.396 . S
C1141 C1123 1.472 . S
C1141 C1140 1.396 . S
C1141 C1142 1.348 . S
C1142 H1105 0.929 . S
C1142 C1141 1.348 . S
C1142 C1143 1.443 . S
C1143 H1107 0.932 . S
C1143 C1138 1.388 . S
C1143 C1142 1.443 . S
H1144 C1171 0.929 . S
N1145 C1170 1.433 . S
N1145 C1176 1.435 . S
N1145 C1182 1.423 . S
H1146 C1172 0.930 . S
H1147 C1175 0.931 . S
H1148 C1174 0.929 . S
H1149 C1177 0.930 . S
H1150 C1178 0.932 . S
H1151 C1181 0.929 . S
H1152 C1180 0.931 . S
H1153 C1183 0.929 . S
H1154 C1187 0.932 . S
H1155 C1184 0.931 . S
H1156 C1186 0.929 . S
H1157 C1189 0.929 . S
H1158 C1190 0.930 . S
H1159 C1192 0.929 . S
H1160 C1193 0.931 . S
H1161 C1195 0.930 . S
H1162 C1196 0.932 . S
H1163 C1198 0.931 . S
H1164 C1199 0.929 . S
H1165 C1201 0.929 . S
H1166 C1202 0.931 . S
H1167 C1204 0.929 . S
N1168 C1188 1.433 . S
N1168 C1194 1.435 . S
N1168 C1200 1.423 . S
H1169 C1205 0.932 . S
C1170 N1145 1.433 . S
C1170 C1171 1.363 . S
C1170 C1175 1.370 . S
C1171 H1144 0.929 . S
C1171 C1170 1.363 . S
C1171 C1172 1.385 . S
C1172 H1146 0.930 . S
C1172 C1171 1.385 . S
C1172 C1173 1.357 . S
C1173 C1172 1.357 . S
C1173 C1174 1.406 . S
C1174 H1148 0.929 . S
C1174 C1173 1.406 . S
C1174 C1175 1.391 . S
C1175 H1147 0.931 . S
C1175 C1170 1.370 . S
C1175 C1174 1.391 . S
C1176 N1145 1.435 . S
C1176 C1177 1.358 . S
C1176 C1181 1.371 . S
C1177 H1149 0.930 . S
C1177 C1176 1.358 . S
C1177 C1178 1.405 . S
C1178 H1150 0.932 . S
C1178 C1177 1.405 . S
C1178 C1179 1.383 . S
C1179 C1178 1.383 . S
C1179 C1180 1.393 . S
C1180 H1152 0.931 . S
C1180 C1179 1.393 . S
C1180 C1181 1.382 . S
C1181 H1151 0.929 . S
C1181 C1176 1.371 . S
C1181 C1180 1.382 . S
C1182 N1145 1.423 . S
C1182 C1183 1.362 . S
C1182 C1187 1.388 . S
C1183 H1153 0.929 . S
C1183 C1182 1.362 . S
C1183 C1184 1.376 . S
C1184 H1155 0.931 . S
C1184 C1183 1.376 . S
C1184 C1185 1.396 . S
C1185 C1184 1.396 . S
C1185 C1186 1.348 . S
C1185 C1203 1.472 . S
C1186 H1156 0.929 . S
C1186 C1185 1.348 . S
C1186 C1187 1.443 . S
C1187 H1154 0.932 . S
C1187 C1182 1.388 . S
C1187 C1186 1.443 . S
C1188 N1168 1.433 . S
C1188 C1189 1.363 . S
C1188 C1193 1.370 . S
C1189 H1157 0.929 . S
C1189 C1188 1.363 . S
C1189 C1190 1.385 . S
C1190 H1158 0.930 . S
C1190 C1189 1.385 . S
C1190 C1191 1.357 . S
C1191 C1190 1.357 . S
C1191 C1192 1.406 . S
C1192 H1159 0.929 . S
C1192 C1191 1.406 . S
C1192 C1193 1.391 . S
C1193 H1160 0.931 . S
C1193 C1188 1.370 . S
C1193 C1192 1.391 . S
C1194 N1168 1.435 . S
C1194 C1195 1.358 . S
C1194 C1199 1.371 . S
C1195 H1161 0.930 . S
C1195 C1194 1.358 . S
C1195 C1196 1.405 . S
C1196 H1162 0.932 . S
C1196 C1195 1.405 . S
C1196 C1197 1.383 . S
C1197 C1196 1.383 . S
C1197 C1198 1.393 . S
C1198 H1163 0.931 . S
C1198 C1197 1.393 . S
C1198 C1199 1.382 . S
C1199 H1164 0.929 . S
C1199 C1194 1.371 . S
C1199 C1198 1.382 . S
C1200 N1168 1.423 . S
C1200 C1201 1.362 . S
C1200 C1205 1.388 . S
C1201 H1165 0.929 . S
C1201 C1200 1.362 . S
C1201 C1202 1.376 . S
C1202 H1166 0.931 . S
C1202 C1201 1.376 . S
C1202 C1203 1.396 . S
C1203 C1185 1.472 . S
C1203 C1202 1.396 . S
C1203 C1204 1.348 . S
C1204 H1167 0.929 . S
C1204 C1203 1.348 . S
C1204 C1205 1.443 . S
C1205 H1169 0.932 . S
C1205 C1200 1.388 . S
C1205 C1204 1.443 . S
H1206 C1233 0.929 . S
N1207 C1232 1.433 . S
N1207 C1238 1.435 . S
N1207 C1244 1.423 . S
H1208 C1234 0.930 . S
H1209 C1237 0.931 . S
H1210 C1236 0.929 . S
H1211 C1239 0.930 . S
H1212 C1240 0.932 . S
H1213 C1243 0.929 . S
H1214 C1242 0.931 . S
H1215 C1245 0.929 . S
H1216 C1249 0.932 1_655 S
H1217 C1246 0.931 . S
H1218 C1248 0.939 . S
H1219 C1251 0.929 . S
H1220 C1252 0.930 . S
H1221 C1254 0.929 . S
H1222 C1255 0.931 . S
H1223 C1257 0.930 . S
H1224 C1258 0.932 . S
H1225 C1260 0.931 . S
H1226 C1261 0.929 . S
H1227 C1263 0.929 . S
H1228 C1264 0.931 . S
H1229 C1266 0.967 . S
N1230 C1250 1.433 . S
N1230 C1256 1.435 . S
N1230 C1262 1.423 . S
H1231 C1267 0.932 1_655 S
C1232 N1207 1.433 . S
C1232 C1233 1.363 . S
C1232 C1237 1.370 1_455 S
C1233 H1206 0.929 . S
C1233 C1232 1.363 . S
C1233 C1234 1.385 . S
C1234 H1208 0.930 . S
C1234 C1233 1.385 . S
C1234 C1235 1.357 1_455 S
C1235 C1234 1.357 1_655 S
C1235 C1236 1.406 . S
C1236 H1210 0.929 . S
C1236 C1235 1.406 . S
C1236 C1237 1.391 . S
C1237 H1209 0.931 . S
C1237 C1232 1.370 1_655 S
C1237 C1236 1.391 . S
C1238 N1207 1.435 . S
C1238 C1239 1.358 1_455 S
C1238 C1243 1.371 . S
C1239 H1211 0.930 . S
C1239 C1238 1.358 1_655 S
C1239 C1240 1.405 . S
C1240 H1212 0.932 . S
C1240 C1239 1.405 . S
C1240 C1241 1.383 1_655 S
C1241 C1240 1.383 1_455 S
C1241 C1242 1.393 . S
C1242 H1214 0.931 . S
C1242 C1241 1.393 . S
C1242 C1243 1.382 . S
C1243 H1213 0.929 . S
C1243 C1238 1.371 . S
C1243 C1242 1.382 . S
C1244 N1207 1.423 . S
C1244 C1245 1.362 . S
C1244 C1249 1.388 . S
C1245 H1215 0.929 . S
C1245 C1244 1.362 . S
C1245 C1246 1.376 . S
C1246 H1217 0.931 . S
C1246 C1245 1.376 . S
C1246 C1247 1.396 . S
C1247 C1246 1.396 . S
C1247 C1248 1.348 . S
C1247 C1265 1.472 . S
C1248 H1218 0.939 . S
C1248 C1247 1.348 . S
C1248 C1249 1.443 . S
C1249 H1216 0.932 1_455 S
C1249 C1244 1.388 . S
C1249 C1248 1.443 . S
C1250 N1230 1.433 . S
C1250 C1251 1.363 . S
C1250 C1255 1.370 1_455 S
C1251 H1219 0.929 . S
C1251 C1250 1.363 . S
C1251 C1252 1.385 . S
C1252 H1220 0.930 . S
C1252 C1251 1.385 . S
C1252 C1253 1.357 1_455 S
C1253 C1252 1.357 1_655 S
C1253 C1254 1.406 . S
C1254 H1221 0.929 . S
C1254 C1253 1.406 . S
C1254 C1255 1.391 . S
C1255 H1222 0.931 . S
C1255 C1250 1.370 1_655 S
C1255 C1254 1.391 . S
C1256 N1230 1.435 . S
C1256 C1257 1.358 1_455 S
C1256 C1261 1.371 . S
C1257 H1223 0.930 . S
C1257 C1256 1.358 1_655 S
C1257 C1258 1.405 . S
C1258 H1224 0.932 . S
C1258 C1257 1.405 . S
C1258 C1259 1.383 1_655 S
C1259 C1258 1.383 1_455 S
C1259 C1260 1.393 . S
C1260 H1225 0.931 . S
C1260 C1259 1.393 . S
C1260 C1261 1.382 . S
C1261 H1226 0.929 . S
C1261 C1256 1.371 . S
C1261 C1260 1.382 . S
C1262 N1230 1.423 . S
C1262 C1263 1.362 . S
C1262 C1267 1.388 . S
C1263 H1227 0.929 . S
C1263 C1262 1.362 . S
C1263 C1264 1.376 . S
C1264 H1228 0.931 . S
C1264 C1263 1.376 . S
C1264 C1265 1.396 . S
C1265 C1247 1.472 . S
C1265 C1264 1.396 . S
C1265 C1266 1.348 . S
C1266 H1229 0.967 . S
C1266 C1265 1.348 . S
C1266 C1267 1.443 . S
C1267 H1231 0.932 1_455 S
C1267 C1262 1.388 . S
C1267 C1266 1.443 . S
H1268 C1295 0.929 . S
N1269 C1294 1.433 . S
N1269 C1300 1.435 . S
N1269 C1306 1.423 . S
H1270 C1296 0.930 . S
H1271 C1299 0.931 . S
H1272 C1298 0.929 . S
H1273 C1301 0.930 . S
H1274 C1302 0.932 . S
H1275 C1305 0.929 . S
H1276 C1304 0.931 . S
H1277 C1307 0.929 . S
H1278 C1311 0.932 . S
H1279 C1308 0.931 . S
H1280 C1310 0.929 . S
H1281 C1313 0.929 . S
H1282 C1314 0.930 . S
H1283 C1316 0.929 . S
H1284 C1317 0.931 . S
H1285 C1319 0.930 . S
H1286 C1320 0.932 . S
H1287 C1322 0.931 . S
H1288 C1323 0.929 . S
H1289 C1325 0.929 . S
H1290 C1326 0.931 . S
H1291 C1328 0.929 . S
N1292 C1312 1.433 . S
N1292 C1318 1.435 . S
N1292 C1324 1.423 . S
H1293 C1329 0.932 . S
C1294 N1269 1.433 . S
C1294 C1295 1.363 . S
C1294 C1299 1.370 . S
C1295 H1268 0.929 . S
C1295 C1294 1.363 . S
C1295 C1296 1.385 . S
C1296 H1270 0.930 . S
C1296 C1295 1.385 . S
C1296 C1297 1.357 . S
C1297 C1296 1.357 . S
C1297 C1298 1.406 . S
C1298 H1272 0.929 . S
C1298 C1297 1.406 . S
C1298 C1299 1.391 . S
C1299 H1271 0.931 . S
C1299 C1294 1.370 . S
C1299 C1298 1.391 . S
C1300 N1269 1.435 . S
C1300 C1301 1.358 . S
C1300 C1305 1.371 . S
C1301 H1273 0.930 . S
C1301 C1300 1.358 . S
C1301 C1302 1.405 . S
C1302 H1274 0.932 . S
C1302 C1301 1.405 . S
C1302 C1303 1.383 . S
C1303 C1302 1.383 . S
C1303 C1304 1.393 . S
C1304 H1276 0.931 . S
C1304 C1303 1.393 . S
C1304 C1305 1.382 . S
C1305 H1275 0.929 . S
C1305 C1300 1.371 . S
C1305 C1304 1.382 . S
C1306 N1269 1.423 . S
C1306 C1307 1.362 . S
C1306 C1311 1.388 . S
C1307 H1277 0.929 . S
C1307 C1306 1.362 . S
C1307 C1308 1.376 . S
C1308 H1279 0.931 . S
C1308 C1307 1.376 . S
C1308 C1309 1.396 . S
C1309 C1308 1.396 . S
C1309 C1310 1.348 . S
C1309 C1327 1.472 . S
C1310 H1280 0.929 . S
C1310 C1309 1.348 . S
C1310 C1311 1.443 . S
C1311 H1278 0.932 . S
C1311 C1306 1.388 . S
C1311 C1310 1.443 . S
C1312 N1292 1.433 . S
C1312 C1313 1.363 . S
C1312 C1317 1.370 . S
C1313 H1281 0.929 . S
C1313 C1312 1.363 . S
C1313 C1314 1.385 . S
C1314 H1282 0.930 . S
C1314 C1313 1.385 . S
C1314 C1315 1.357 . S
C1315 C1314 1.357 . S
C1315 C1316 1.406 . S
C1316 H1283 0.929 . S
C1316 C1315 1.406 . S
C1316 C1317 1.391 . S
C1317 H1284 0.931 . S
C1317 C1312 1.370 . S
C1317 C1316 1.391 . S
C1318 N1292 1.435 . S
C1318 C1319 1.358 . S
C1318 C1323 1.371 . S
C1319 H1285 0.930 . S
C1319 C1318 1.358 . S
C1319 C1320 1.405 . S
C1320 H1286 0.932 . S
C1320 C1319 1.405 . S
C1320 C1321 1.383 . S
C1321 C1320 1.383 . S
C1321 C1322 1.393 . S
C1322 H1287 0.931 . S
C1322 C1321 1.393 . S
C1322 C1323 1.382 . S
C1323 H1288 0.929 . S
C1323 C1318 1.371 . S
C1323 C1322 1.382 . S
C1324 N1292 1.423 . S
C1324 C1325 1.362 . S
C1324 C1329 1.388 . S
C1325 H1289 0.929 . S
C1325 C1324 1.362 . S
C1325 C1326 1.376 . S
C1326 H1290 0.931 . S
C1326 C1325 1.376 . S
C1326 C1327 1.396 . S
C1327 C1309 1.472 . S
C1327 C1326 1.396 . S
C1327 C1328 1.348 . S
C1328 H1291 0.929 . S
C1328 C1327 1.348 . S
C1328 C1329 1.443 . S
C1329 H1293 0.932 . S
C1329 C1324 1.388 . S
C1329 C1328 1.443 . S
H1330 C1357 0.929 . S
N1331 C1356 1.433 . S
N1331 C1362 1.435 . S
N1331 C1368 1.423 . S
H1332 C1358 0.930 . S
H1333 C1361 0.931 . S
H1334 C1360 0.929 . S
H1335 C1363 0.930 . S
H1336 C1364 0.932 . S
H1337 C1367 0.929 . S
H1338 C1366 0.931 . S
H1339 C1369 0.929 . S
H1340 C1373 0.932 1_545 S
H1341 C1370 0.931 . S
H1342 C1372 0.976 . S
H1343 C1375 0.929 . S
H1344 C1376 0.930 . S
H1345 C1378 0.929 . S
H1346 C1379 0.931 . S
H1347 C1381 0.930 . S
H1348 C1382 0.932 . S
H1349 C1384 0.931 . S
H1350 C1385 0.929 . S
H1351 C1387 0.929 . S
H1352 C1388 0.931 . S
H1353 C1390 0.940 . S
N1354 C1374 1.433 . S
N1354 C1380 1.435 . S
N1354 C1386 1.423 . S
H1355 C1391 0.932 1_545 S
C1356 N1331 1.433 . S
C1356 C1357 1.363 . S
C1356 C1361 1.370 1_565 S
C1357 H1330 0.929 . S
C1357 C1356 1.363 . S
C1357 C1358 1.385 . S
C1358 H1332 0.930 . S
C1358 C1357 1.385 . S
C1358 C1359 1.357 1_565 S
C1359 C1358 1.357 1_545 S
C1359 C1360 1.406 . S
C1360 H1334 0.929 . S
C1360 C1359 1.406 . S
C1360 C1361 1.391 . S
C1361 H1333 0.931 . S
C1361 C1356 1.370 1_545 S
C1361 C1360 1.391 . S
C1362 N1331 1.435 . S
C1362 C1363 1.358 1_565 S
C1362 C1367 1.371 . S
C1363 H1335 0.930 . S
C1363 C1362 1.358 1_545 S
C1363 C1364 1.405 . S
C1364 H1336 0.932 . S
C1364 C1363 1.405 . S
C1364 C1365 1.383 1_545 S
C1365 C1364 1.383 1_565 S
C1365 C1366 1.393 . S
C1366 H1338 0.931 . S
C1366 C1365 1.393 . S
C1366 C1367 1.382 . S
C1367 H1337 0.929 . S
C1367 C1362 1.371 . S
C1367 C1366 1.382 . S
C1368 N1331 1.423 . S
C1368 C1369 1.362 . S
C1368 C1373 1.388 . S
C1369 H1339 0.929 . S
C1369 C1368 1.362 . S
C1369 C1370 1.376 . S
C1370 H1341 0.931 . S
C1370 C1369 1.376 . S
C1370 C1371 1.396 . S
C1371 C1370 1.396 . S
C1371 C1372 1.348 . S
C1371 C1389 1.472 . S
C1372 H1342 0.976 . S
C1372 C1371 1.348 . S
C1372 C1373 1.443 . S
C1373 H1340 0.932 1_565 S
C1373 C1368 1.388 . S
C1373 C1372 1.443 . S
C1374 N1354 1.433 . S
C1374 C1375 1.363 . S
C1374 C1379 1.370 1_565 S
C1375 H1343 0.929 . S
C1375 C1374 1.363 . S
C1375 C1376 1.385 . S
C1376 H1344 0.930 . S
C1376 C1375 1.385 . S
C1376 C1377 1.357 1_565 S
C1377 C1376 1.357 1_545 S
C1377 C1378 1.406 . S
C1378 H1345 0.929 . S
C1378 C1377 1.406 . S
C1378 C1379 1.391 . S
C1379 H1346 0.931 . S
C1379 C1374 1.370 1_545 S
C1379 C1378 1.391 . S
C1380 N1354 1.435 . S
C1380 C1381 1.358 1_565 S
C1380 C1385 1.371 . S
C1381 H1347 0.930 . S
C1381 C1380 1.358 1_545 S
C1381 C1382 1.405 . S
C1382 H1348 0.932 . S
C1382 C1381 1.405 . S
C1382 C1383 1.383 1_545 S
C1383 C1382 1.383 1_565 S
C1383 C1384 1.393 . S
C1384 H1349 0.931 . S
C1384 C1383 1.393 . S
C1384 C1385 1.382 . S
C1385 H1350 0.929 . S
C1385 C1380 1.371 . S
C1385 C1384 1.382 . S
C1386 N1354 1.423 . S
C1386 C1387 1.362 . S
C1386 C1391 1.388 . S
C1387 H1351 0.929 . S
C1387 C1386 1.362 . S
C1387 C1388 1.376 . S
C1388 H1352 0.931 . S
C1388 C1387 1.376 . S
C1388 C1389 1.396 . S
C1389 C1371 1.472 . S
C1389 C1388 1.396 . S
C1389 C1390 1.348 . S
C1390 H1353 0.940 . S
C1390 C1389 1.348 . S
C1390 C1391 1.443 . S
C1391 H1355 0.932 1_565 S
C1391 C1386 1.388 . S
C1391 C1390 1.443 . S
H1392 C1419 0.929 . S
N1393 C1418 1.433 . S
N1393 C1424 1.435 . S
N1393 C1430 1.423 . S
H1394 C1420 0.930 . S
H1395 C1423 0.931 . S
H1396 C1422 0.929 . S
H1397 C1425 0.930 . S
H1398 C1426 0.932 . S
H1399 C1429 0.929 . S
H1400 C1428 0.931 . S
H1401 C1431 0.929 . S
H1402 C1435 0.989 . S
H1403 C1432 0.931 . S
H1404 C1434 0.915 1_545 S
H1405 C1437 0.929 . S
H1406 C1438 0.930 . S
H1407 C1440 0.929 . S
H1408 C1441 1.026 . S
H1409 C1443 0.930 . S
H1410 C1444 0.932 . S
H1411 C1446 0.931 . S
H1412 C1447 0.929 . S
H1413 C1449 0.929 . S
H1414 C1450 0.931 . S
H1415 C1452 0.886 1_545 S
N1416 C1436 1.433 . S
N1416 C1442 1.435 . S
N1416 C1448 1.423 . S
H1417 C1453 0.965 . S
C1418 N1393 1.433 . S
C1418 C1419 1.363 . S
C1418 C1423 1.359 1_565 S
C1419 H1392 0.929 . S
C1419 C1418 1.363 . S
C1419 C1420 1.385 . S
C1420 H1394 0.930 . S
C1420 C1419 1.385 . S
C1420 C1421 1.357 . S
C1421 C1420 1.357 . S
C1421 C1422 1.406 1_565 S
C1422 H1396 0.929 . S
C1422 C1421 1.406 1_545 S
C1422 C1423 1.411 . S
C1423 H1395 0.931 . S
C1423 C1418 1.359 1_545 S
C1423 C1422 1.411 . S
C1424 N1393 1.435 . S
C1424 C1425 1.358 1_565 S
C1424 C1429 1.371 . S
C1425 H1397 0.930 . S
C1425 C1424 1.358 1_545 S
C1425 C1426 1.405 . S
C1426 H1398 0.932 . S
C1426 C1425 1.405 . S
C1426 C1427 1.383 . S
C1427 C1426 1.383 . S
C1427 C1428 1.393 1_545 S
C1428 H1400 0.931 . S
C1428 C1427 1.393 1_565 S
C1428 C1429 1.382 . S
C1429 H1399 0.929 . S
C1429 C1424 1.371 . S
C1429 C1428 1.382 . S
C1430 N1393 1.423 . S
C1430 C1431 1.362 . S
C1430 C1435 1.371 1_565 S
C1431 H1401 0.929 . S
C1431 C1430 1.362 . S
C1431 C1432 1.376 . S
C1432 H1403 0.931 . S
C1432 C1431 1.376 . S
C1432 C1433 1.396 . S
C1433 C1432 1.396 . S
C1433 C1434 1.406 . S
C1433 C1451 1.472 . S
C1434 H1404 0.915 1_565 S
C1434 C1433 1.406 . S
C1434 C1435 1.366 1_565 S
C1435 H1402 0.989 . S
C1435 C1430 1.371 1_545 S
C1435 C1434 1.366 1_545 S
C1436 N1416 1.433 . S
C1436 C1437 1.363 . S
C1436 C1441 1.296 1_565 S
C1437 H1405 0.929 . S
C1437 C1436 1.363 . S
C1437 C1438 1.385 . S
C1438 H1406 0.930 . S
C1438 C1437 1.385 . S
C1438 C1439 1.357 . S
C1439 C1438 1.357 . S
C1439 C1440 1.406 1_565 S
C1440 H1407 0.929 . S
C1440 C1439 1.406 1_545 S
C1440 C1441 1.380 . S
C1441 H1408 1.026 . S
C1441 C1436 1.296 1_545 S
C1441 C1440 1.380 . S
C1442 N1416 1.435 . S
C1442 C1443 1.358 1_565 S
C1442 C1447 1.371 . S
C1443 H1409 0.930 . S
C1443 C1442 1.358 1_545 S
C1443 C1444 1.405 . S
C1444 H1410 0.932 . S
C1444 C1443 1.405 . S
C1444 C1445 1.383 . S
C1445 C1444 1.383 . S
C1445 C1446 1.393 1_545 S
C1446 H1411 0.931 . S
C1446 C1445 1.393 1_565 S
C1446 C1447 1.382 . S
C1447 H1412 0.929 . S
C1447 C1442 1.371 . S
C1447 C1446 1.382 . S
C1448 N1416 1.423 . S
C1448 C1449 1.362 . S
C1448 C1453 1.325 1_565 S
C1449 H1413 0.929 . S
C1449 C1448 1.362 . S
C1449 C1450 1.376 . S
C1450 H1414 0.931 . S
C1450 C1449 1.376 . S
C1450 C1451 1.396 . S
C1451 C1433 1.472 . S
C1451 C1450 1.396 . S
C1451 C1452 1.367 . S
C1452 H1415 0.886 1_565 S
C1452 C1451 1.367 . S
C1452 C1453 1.508 1_565 S
C1453 H1417 0.965 . S
C1453 C1448 1.325 1_545 S
C1453 C1452 1.508 1_545 S
H1454 C1481 0.929 . S
N1455 C1480 1.433 . S
N1455 C1486 1.435 . S
N1455 C1492 1.423 . S
H1456 C1482 0.930 . S
H1457 C1485 0.931 . S
H1458 C1484 0.929 . S
H1459 C1487 0.930 . S
H1460 C1488 0.932 . S
H1461 C1491 0.929 . S
H1462 C1490 0.931 . S
H1463 C1493 0.929 . S
H1464 C1497 0.932 1_455 S
H1465 C1494 0.931 . S
H1466 C1496 0.973 . S
H1467 C1499 0.929 . S
H1468 C1500 0.930 . S
H1469 C1502 0.929 . S
H1470 C1503 0.931 . S
H1471 C1505 0.930 . S
H1472 C1506 0.932 . S
H1473 C1508 0.931 . S
H1474 C1509 0.929 . S
H1475 C1511 0.929 . S
H1476 C1512 0.931 . S
H1477 C1514 0.941 . S
N1478 C1498 1.433 . S
N1478 C1504 1.435 . S
N1478 C1510 1.423 . S
H1479 C1515 0.932 1_455 S
C1480 N1455 1.433 . S
C1480 C1481 1.363 . S
C1480 C1485 1.370 1_655 S
C1481 H1454 0.929 . S
C1481 C1480 1.363 . S
C1481 C1482 1.385 . S
C1482 H1456 0.930 . S
C1482 C1481 1.385 . S
C1482 C1483 1.357 1_655 S
C1483 C1482 1.357 1_455 S
C1483 C1484 1.406 . S
C1484 H1458 0.929 . S
C1484 C1483 1.406 . S
C1484 C1485 1.391 . S
C1485 H1457 0.931 . S
C1485 C1480 1.370 1_455 S
C1485 C1484 1.391 . S
C1486 N1455 1.435 . S
C1486 C1487 1.358 1_655 S
C1486 C1491 1.371 . S
C1487 H1459 0.930 . S
C1487 C1486 1.358 1_455 S
C1487 C1488 1.405 . S
C1488 H1460 0.932 . S
C1488 C1487 1.405 . S
C1488 C1489 1.383 1_455 S
C1489 C1488 1.383 1_655 S
C1489 C1490 1.393 . S
C1490 H1462 0.931 . S
C1490 C1489 1.393 . S
C1490 C1491 1.382 . S
C1491 H1461 0.929 . S
C1491 C1486 1.371 . S
C1491 C1490 1.382 . S
C1492 N1455 1.423 . S
C1492 C1493 1.362 . S
C1492 C1497 1.388 . S
C1493 H1463 0.929 . S
C1493 C1492 1.362 . S
C1493 C1494 1.376 . S
C1494 H1465 0.931 . S
C1494 C1493 1.376 . S
C1494 C1495 1.396 . S
C1495 C1494 1.396 . S
C1495 C1496 1.348 . S
C1495 C1513 1.472 . S
C1496 H1466 0.973 . S
C1496 C1495 1.348 . S
C1496 C1497 1.443 . S
C1497 H1464 0.932 1_655 S
C1497 C1492 1.388 . S
C1497 C1496 1.443 . S
C1498 N1478 1.433 . S
C1498 C1499 1.363 . S
C1498 C1503 1.370 1_655 S
C1499 H1467 0.929 . S
C1499 C1498 1.363 . S
C1499 C1500 1.385 . S
C1500 H1468 0.930 . S
C1500 C1499 1.385 . S
C1500 C1501 1.357 1_655 S
C1501 C1500 1.357 1_455 S
C1501 C1502 1.406 . S
C1502 H1469 0.929 . S
C1502 C1501 1.406 . S
C1502 C1503 1.391 . S
C1503 H1470 0.931 . S
C1503 C1498 1.370 1_455 S
C1503 C1502 1.391 . S
C1504 N1478 1.435 . S
C1504 C1505 1.358 1_655 S
C1504 C1509 1.371 . S
C1505 H1471 0.930 . S
C1505 C1504 1.358 1_455 S
C1505 C1506 1.405 . S
C1506 H1472 0.932 . S
C1506 C1505 1.405 . S
C1506 C1507 1.383 1_455 S
C1507 C1506 1.383 1_655 S
C1507 C1508 1.393 . S
C1508 H1473 0.931 . S
C1508 C1507 1.393 . S
C1508 C1509 1.382 . S
C1509 H1474 0.929 . S
C1509 C1504 1.371 . S
C1509 C1508 1.382 . S
C1510 N1478 1.423 . S
C1510 C1511 1.362 . S
C1510 C1515 1.388 . S
C1511 H1475 0.929 . S
C1511 C1510 1.362 . S
C1511 C1512 1.376 . S
C1512 H1476 0.931 . S
C1512 C1511 1.376 . S
C1512 C1513 1.396 . S
C1513 C1495 1.472 . S
C1513 C1512 1.396 . S
C1513 C1514 1.348 . S
C1514 H1477 0.941 . S
C1514 C1513 1.348 . S
C1514 C1515 1.443 . S
C1515 H1479 0.932 1_655 S
C1515 C1510 1.388 . S
C1515 C1514 1.443 . S
H1516 C1543 0.929 . S
N1517 C1542 1.433 . S
N1517 C1548 1.435 . S
N1517 C1554 1.423 . S
H1518 C1544 0.930 . S
H1519 C1547 0.931 . S
H1520 C1546 0.929 . S
H1521 C1549 0.930 . S
H1522 C1550 0.932 . S
H1523 C1553 0.929 . S
H1524 C1552 0.931 . S
H1525 C1555 0.929 . S
H1526 C1559 0.932 . S
H1527 C1556 0.931 . S
H1528 C1558 0.929 . S
H1529 C1561 0.929 . S
H1530 C1562 0.930 . S
H1531 C1564 0.929 . S
H1532 C1565 0.931 . S
H1533 C1567 0.930 . S
H1534 C1568 0.932 . S
H1535 C1570 0.931 . S
H1536 C1571 0.929 . S
H1537 C1573 0.929 . S
H1538 C1574 0.931 . S
H1539 C1576 0.929 . S
N1540 C1560 1.433 . S
N1540 C1566 1.435 . S
N1540 C1572 1.423 . S
H1541 C1577 0.932 . S
C1542 N1517 1.433 . S
C1542 C1543 1.363 . S
C1542 C1547 1.370 . S
C1543 H1516 0.929 . S
C1543 C1542 1.363 . S
C1543 C1544 1.385 . S
C1544 H1518 0.930 . S
C1544 C1543 1.385 . S
C1544 C1545 1.357 . S
C1545 C1544 1.357 . S
C1545 C1546 1.406 . S
C1546 H1520 0.929 . S
C1546 C1545 1.406 . S
C1546 C1547 1.391 . S
C1547 H1519 0.931 . S
C1547 C1542 1.370 . S
C1547 C1546 1.391 . S
C1548 N1517 1.435 . S
C1548 C1549 1.358 . S
C1548 C1553 1.371 . S
C1549 H1521 0.930 . S
C1549 C1548 1.358 . S
C1549 C1550 1.405 . S
C1550 H1522 0.932 . S
C1550 C1549 1.405 . S
C1550 C1551 1.383 . S
C1551 C1550 1.383 . S
C1551 C1552 1.393 . S
C1552 H1524 0.931 . S
C1552 C1551 1.393 . S
C1552 C1553 1.382 . S
C1553 H1523 0.929 . S
C1553 C1548 1.371 . S
C1553 C1552 1.382 . S
C1554 N1517 1.423 . S
C1554 C1555 1.362 . S
C1554 C1559 1.388 . S
C1555 H1525 0.929 . S
C1555 C1554 1.362 . S
C1555 C1556 1.376 . S
C1556 H1527 0.931 . S
C1556 C1555 1.376 . S
C1556 C1557 1.396 . S
C1557 C1556 1.396 . S
C1557 C1558 1.348 . S
C1557 C1575 1.472 . S
C1558 H1528 0.929 . S
C1558 C1557 1.348 . S
C1558 C1559 1.443 . S
C1559 H1526 0.932 . S
C1559 C1554 1.388 . S
C1559 C1558 1.443 . S
C1560 N1540 1.433 . S
C1560 C1561 1.363 . S
C1560 C1565 1.370 . S
C1561 H1529 0.929 . S
C1561 C1560 1.363 . S
C1561 C1562 1.385 . S
C1562 H1530 0.930 . S
C1562 C1561 1.385 . S
C1562 C1563 1.357 . S
C1563 C1562 1.357 . S
C1563 C1564 1.406 . S
C1564 H1531 0.929 . S
C1564 C1563 1.406 . S
C1564 C1565 1.391 . S
C1565 H1532 0.931 . S
C1565 C1560 1.370 . S
C1565 C1564 1.391 . S
C1566 N1540 1.435 . S
C1566 C1567 1.358 . S
C1566 C1571 1.371 . S
C1567 H1533 0.930 . S
C1567 C1566 1.358 . S
C1567 C1568 1.405 . S
C1568 H1534 0.932 . S
C1568 C1567 1.405 . S
C1568 C1569 1.383 . S
C1569 C1568 1.383 . S
C1569 C1570 1.393 . S
C1570 H1535 0.931 . S
C1570 C1569 1.393 . S
C1570 C1571 1.382 . S
C1571 H1536 0.929 . S
C1571 C1566 1.371 . S
C1571 C1570 1.382 . S
C1572 N1540 1.423 . S
C1572 C1573 1.362 . S
C1572 C1577 1.388 . S
C1573 H1537 0.929 . S
C1573 C1572 1.362 . S
C1573 C1574 1.376 . S
C1574 H1538 0.931 . S
C1574 C1573 1.376 . S
C1574 C1575 1.396 . S
C1575 C1557 1.472 . S
C1575 C1574 1.396 . S
C1575 C1576 1.348 . S
C1576 H1539 0.929 . S
C1576 C1575 1.348 . S
C1576 C1577 1.443 . S
C1577 H1541 0.932 . S
C1577 C1572 1.388 . S
C1577 C1576 1.443 . S
H1578 C1605 0.929 . S
N1579 C1604 1.433 . S
N1579 C1610 1.435 . S
N1579 C1616 1.423 . S
H1580 C1606 0.930 . S
H1581 C1609 0.931 . S
H1582 C1608 0.929 . S
H1583 C1611 0.930 . S
H1584 C1612 0.932 . S
H1585 C1615 0.929 . S
H1586 C1614 0.931 . S
H1587 C1617 0.929 . S
H1588 C1621 0.932 . S
H1589 C1618 0.931 . S
H1590 C1620 0.929 . S
H1591 C1623 0.929 . S
H1592 C1624 0.930 . S
H1593 C1626 0.929 . S
H1594 C1627 0.931 . S
H1595 C1629 0.930 . S
H1596 C1630 0.932 . S
H1597 C1632 0.931 . S
H1598 C1633 0.929 . S
H1599 C1635 0.929 . S
H1600 C1636 0.931 . S
H1601 C1638 0.929 . S
N1602 C1622 1.433 . S
N1602 C1628 1.435 . S
N1602 C1634 1.423 . S
H1603 C1639 0.932 . S
C1604 N1579 1.433 . S
C1604 C1605 1.363 . S
C1604 C1609 1.370 . S
C1605 H1578 0.929 . S
C1605 C1604 1.363 . S
C1605 C1606 1.385 . S
C1606 H1580 0.930 . S
C1606 C1605 1.385 . S
C1606 C1607 1.357 . S
C1607 C1606 1.357 . S
C1607 C1608 1.406 . S
C1608 H1582 0.929 . S
C1608 C1607 1.406 . S
C1608 C1609 1.391 . S
C1609 H1581 0.931 . S
C1609 C1604 1.370 . S
C1609 C1608 1.391 . S
C1610 N1579 1.435 . S
C1610 C1611 1.358 . S
C1610 C1615 1.371 . S
C1611 H1583 0.930 . S
C1611 C1610 1.358 . S
C1611 C1612 1.405 . S
C1612 H1584 0.932 . S
C1612 C1611 1.405 . S
C1612 C1613 1.383 . S
C1613 C1612 1.383 . S
C1613 C1614 1.393 . S
C1614 H1586 0.931 . S
C1614 C1613 1.393 . S
C1614 C1615 1.382 . S
C1615 H1585 0.929 . S
C1615 C1610 1.371 . S
C1615 C1614 1.382 . S
C1616 N1579 1.423 . S
C1616 C1617 1.362 . S
C1616 C1621 1.388 . S
C1617 H1587 0.929 . S
C1617 C1616 1.362 . S
C1617 C1618 1.376 . S
C1618 H1589 0.931 . S
C1618 C1617 1.376 . S
C1618 C1619 1.396 . S
C1619 C1618 1.396 . S
C1619 C1620 1.348 . S
C1619 C1637 1.472 . S
C1620 H1590 0.929 . S
C1620 C1619 1.348 . S
C1620 C1621 1.443 . S
C1621 H1588 0.932 . S
C1621 C1616 1.388 . S
C1621 C1620 1.443 . S
C1622 N1602 1.433 . S
C1622 C1623 1.363 . S
C1622 C1627 1.370 . S
C1623 H1591 0.929 . S
C1623 C1622 1.363 . S
C1623 C1624 1.385 . S
C1624 H1592 0.930 . S
C1624 C1623 1.385 . S
C1624 C1625 1.357 . S
C1625 C1624 1.357 . S
C1625 C1626 1.406 . S
C1626 H1593 0.929 . S
C1626 C1625 1.406 . S
C1626 C1627 1.391 . S
C1627 H1594 0.931 . S
C1627 C1622 1.370 . S
C1627 C1626 1.391 . S
C1628 N1602 1.435 . S
C1628 C1629 1.358 . S
C1628 C1633 1.371 . S
C1629 H1595 0.930 . S
C1629 C1628 1.358 . S
C1629 C1630 1.405 . S
C1630 H1596 0.932 . S
C1630 C1629 1.405 . S
C1630 C1631 1.383 . S
C1631 C1630 1.383 . S
C1631 C1632 1.393 . S
C1632 H1597 0.931 . S
C1632 C1631 1.393 . S
C1632 C1633 1.382 . S
C1633 H1598 0.929 . S
C1633 C1628 1.371 . S
C1633 C1632 1.382 . S
C1634 N1602 1.423 . S
C1634 C1635 1.362 . S
C1634 C1639 1.388 . S
C1635 H1599 0.929 . S
C1635 C1634 1.362 . S
C1635 C1636 1.376 . S
C1636 H1600 0.931 . S
C1636 C1635 1.376 . S
C1636 C1637 1.396 . S
C1637 C1619 1.472 . S
C1637 C1636 1.396 . S
C1637 C1638 1.348 . S
C1638 H1601 0.929 . S
C1638 C1637 1.348 . S
C1638 C1639 1.443 . S
C1639 H1603 0.932 . S
C1639 C1634 1.388 . S
C1639 C1638 1.443 . S
H1640 C1667 0.929 . S
N1641 C1666 1.433 . S
N1641 C1672 1.435 . S
N1641 C1678 1.423 . S
H1642 C1668 0.930 . S
H1643 C1671 0.931 . S
H1644 C1670 0.929 . S
H1645 C1673 0.930 . S
H1646 C1674 0.932 . S
H1647 C1677 0.929 . S
H1648 C1676 0.931 . S
H1649 C1679 0.929 . S
H1650 C1683 0.932 . S
H1651 C1680 0.931 . S
H1652 C1682 0.929 . S
H1653 C1685 0.929 . S
H1654 C1686 0.930 . S
H1655 C1688 0.929 . S
H1656 C1689 0.931 . S
H1657 C1691 0.930 . S
H1658 C1692 0.932 . S
H1659 C1694 0.931 . S
H1660 C1695 0.929 . S
H1661 C1697 0.929 . S
H1662 C1698 0.931 . S
H1663 C1700 0.929 . S
N1664 C1684 1.433 . S
N1664 C1690 1.435 . S
N1664 C1696 1.423 . S
H1665 C1701 0.932 . S
C1666 N1641 1.433 . S
C1666 C1667 1.363 . S
C1666 C1671 1.370 . S
C1667 H1640 0.929 . S
C1667 C1666 1.363 . S
C1667 C1668 1.385 . S
C1668 H1642 0.930 . S
C1668 C1667 1.385 . S
C1668 C1669 1.357 . S
C1669 C1668 1.357 . S
C1669 C1670 1.406 . S
C1670 H1644 0.929 . S
C1670 C1669 1.406 . S
C1670 C1671 1.391 . S
C1671 H1643 0.931 . S
C1671 C1666 1.370 . S
C1671 C1670 1.391 . S
C1672 N1641 1.435 . S
C1672 C1673 1.358 . S
C1672 C1677 1.371 . S
C1673 H1645 0.930 . S
C1673 C1672 1.358 . S
C1673 C1674 1.405 . S
C1674 H1646 0.932 . S
C1674 C1673 1.405 . S
C1674 C1675 1.383 . S
C1675 C1674 1.383 . S
C1675 C1676 1.393 . S
C1676 H1648 0.931 . S
C1676 C1675 1.393 . S
C1676 C1677 1.382 . S
C1677 H1647 0.929 . S
C1677 C1672 1.371 . S
C1677 C1676 1.382 . S
C1678 N1641 1.423 . S
C1678 C1679 1.362 . S
C1678 C1683 1.388 . S
C1679 H1649 0.929 . S
C1679 C1678 1.362 . S
C1679 C1680 1.376 . S
C1680 H1651 0.931 . S
C1680 C1679 1.376 . S
C1680 C1681 1.396 . S
C1681 C1680 1.396 . S
C1681 C1682 1.348 . S
C1681 C1699 1.472 . S
C1682 H1652 0.929 . S
C1682 C1681 1.348 . S
C1682 C1683 1.443 . S
C1683 H1650 0.932 . S
C1683 C1678 1.388 . S
C1683 C1682 1.443 . S
C1684 N1664 1.433 . S
C1684 C1685 1.363 . S
C1684 C1689 1.370 . S
C1685 H1653 0.929 . S
C1685 C1684 1.363 . S
C1685 C1686 1.385 . S
C1686 H1654 0.930 . S
C1686 C1685 1.385 . S
C1686 C1687 1.357 . S
C1687 C1686 1.357 . S
C1687 C1688 1.406 . S
C1688 H1655 0.929 . S
C1688 C1687 1.406 . S
C1688 C1689 1.391 . S
C1689 H1656 0.931 . S
C1689 C1684 1.370 . S
C1689 C1688 1.391 . S
C1690 N1664 1.435 . S
C1690 C1691 1.358 . S
C1690 C1695 1.371 . S
C1691 H1657 0.930 . S
C1691 C1690 1.358 . S
C1691 C1692 1.405 . S
C1692 H1658 0.932 . S
C1692 C1691 1.405 . S
C1692 C1693 1.383 . S
C1693 C1692 1.383 . S
C1693 C1694 1.393 . S
C1694 H1659 0.931 . S
C1694 C1693 1.393 . S
C1694 C1695 1.382 . S
C1695 H1660 0.929 . S
C1695 C1690 1.371 . S
C1695 C1694 1.382 . S
C1696 N1664 1.423 . S
C1696 C1697 1.362 . S
C1696 C1701 1.388 . S
C1697 H1661 0.929 . S
C1697 C1696 1.362 . S
C1697 C1698 1.376 . S
C1698 H1662 0.931 . S
C1698 C1697 1.376 . S
C1698 C1699 1.396 . S
C1699 C1681 1.472 . S
C1699 C1698 1.396 . S
C1699 C1700 1.348 . S
C1700 H1663 0.929 . S
C1700 C1699 1.348 . S
C1700 C1701 1.443 . S
C1701 H1665 0.932 . S
C1701 C1696 1.388 . S
C1701 C1700 1.443 . S
H1702 C1729 0.929 . S
N1703 C1728 1.433 . S
N1703 C1734 1.435 . S
N1703 C1740 1.423 . S
H1704 C1730 0.930 . S
H1705 C1733 0.931 . S
H1706 C1732 0.929 . S
H1707 C1735 0.930 . S
H1708 C1736 0.932 . S
H1709 C1739 0.929 . S
H1710 C1738 0.931 . S
H1711 C1741 0.929 . S
H1712 C1745 0.932 . S
H1713 C1742 0.931 . S
H1714 C1744 0.929 . S
H1715 C1747 0.929 . S
H1716 C1748 0.930 . S
H1717 C1750 0.929 . S
H1718 C1751 0.931 . S
H1719 C1753 0.930 . S
H1720 C1754 0.932 . S
H1721 C1756 0.931 . S
H1722 C1757 0.929 . S
H1723 C1759 0.929 . S
H1724 C1760 0.931 . S
H1725 C1762 0.929 . S
N1726 C1746 1.433 . S
N1726 C1752 1.435 . S
N1726 C1758 1.423 . S
H1727 C1763 0.932 . S
C1728 N1703 1.433 . S
C1728 C1729 1.363 . S
C1728 C1733 1.370 . S
C1729 H1702 0.929 . S
C1729 C1728 1.363 . S
C1729 C1730 1.385 . S
C1730 H1704 0.930 . S
C1730 C1729 1.385 . S
C1730 C1731 1.357 . S
C1731 C1730 1.357 . S
C1731 C1732 1.406 . S
C1732 H1706 0.929 . S
C1732 C1731 1.406 . S
C1732 C1733 1.391 . S
C1733 H1705 0.931 . S
C1733 C1728 1.370 . S
C1733 C1732 1.391 . S
C1734 N1703 1.435 . S
C1734 C1735 1.358 . S
C1734 C1739 1.371 . S
C1735 H1707 0.930 . S
C1735 C1734 1.358 . S
C1735 C1736 1.405 . S
C1736 H1708 0.932 . S
C1736 C1735 1.405 . S
C1736 C1737 1.383 . S
C1737 C1736 1.383 . S
C1737 C1738 1.393 . S
C1738 H1710 0.931 . S
C1738 C1737 1.393 . S
C1738 C1739 1.382 . S
C1739 H1709 0.929 . S
C1739 C1734 1.371 . S
C1739 C1738 1.382 . S
C1740 N1703 1.423 . S
C1740 C1741 1.362 . S
C1740 C1745 1.388 . S
C1741 H1711 0.929 . S
C1741 C1740 1.362 . S
C1741 C1742 1.376 . S
C1742 H1713 0.931 . S
C1742 C1741 1.376 . S
C1742 C1743 1.396 . S
C1743 C1742 1.396 . S
C1743 C1744 1.348 . S
C1743 C1761 1.472 . S
C1744 H1714 0.929 . S
C1744 C1743 1.348 . S
C1744 C1745 1.443 . S
C1745 H1712 0.932 . S
C1745 C1740 1.388 . S
C1745 C1744 1.443 . S
C1746 N1726 1.433 . S
C1746 C1747 1.363 . S
C1746 C1751 1.370 . S
C1747 H1715 0.929 . S
C1747 C1746 1.363 . S
C1747 C1748 1.385 . S
C1748 H1716 0.930 . S
C1748 C1747 1.385 . S
C1748 C1749 1.357 . S
C1749 C1748 1.357 . S
C1749 C1750 1.406 . S
C1750 H1717 0.929 . S
C1750 C1749 1.406 . S
C1750 C1751 1.391 . S
C1751 H1718 0.931 . S
C1751 C1746 1.370 . S
C1751 C1750 1.391 . S
C1752 N1726 1.435 . S
C1752 C1753 1.358 . S
C1752 C1757 1.371 . S
C1753 H1719 0.930 . S
C1753 C1752 1.358 . S
C1753 C1754 1.405 . S
C1754 H1720 0.932 . S
C1754 C1753 1.405 . S
C1754 C1755 1.383 . S
C1755 C1754 1.383 . S
C1755 C1756 1.393 . S
C1756 H1721 0.931 . S
C1756 C1755 1.393 . S
C1756 C1757 1.382 . S
C1757 H1722 0.929 . S
C1757 C1752 1.371 . S
C1757 C1756 1.382 . S
C1758 N1726 1.423 . S
C1758 C1759 1.362 . S
C1758 C1763 1.388 . S
C1759 H1723 0.929 . S
C1759 C1758 1.362 . S
C1759 C1760 1.376 . S
C1760 H1724 0.931 . S
C1760 C1759 1.376 . S
C1760 C1761 1.396 . S
C1761 C1743 1.472 . S
C1761 C1760 1.396 . S
C1761 C1762 1.348 . S
C1762 H1725 0.929 . S
C1762 C1761 1.348 . S
C1762 C1763 1.443 . S
C1763 H1727 0.932 . S
C1763 C1758 1.388 . S
C1763 C1762 1.443 . S
H1764 C1772 0.929 . S
H1765 C1774 0.930 . S
H1766 C1776 0.930 . S
H1767 C1779 0.929 . S
H1768 C1782 0.930 . S
H1769 C1784 0.960 . S
H1770 C1784 0.960 . S
H1771 C1784 0.960 . S
C1772 H1764 0.929 . S
C1772 C1773 1.377 1_455 S
C1772 C1774 1.384 . S
C1773 C1772 1.377 1_655 S
C1773 C1779 1.390 . S
C1774 H1765 0.930 . S
C1774 C1772 1.384 . S
C1774 C1775 1.372 1_455 S
C1775 C1774 1.372 1_655 S
C1775 C1776 1.400 . S
C1775 C1780 1.490 . S
C1776 H1766 0.930 . S
C1776 C1775 1.400 . S
C1776 C1779 1.386 . S
H1777 C1793 0.930 . S
H1778 C1794 0.931 . S
C1779 H1767 0.929 . S
C1779 C1773 1.390 . S
C1779 C1776 1.386 . S
C1780 C1775 1.490 . S
C1780 C1782 1.395 1_655 S
C1780 C1783 1.403 . S
H1781 C1787 0.930 . S
C1782 H1768 0.930 . S
C1782 C1780 1.395 1_455 S
C1782 C1785 1.403 . S
C1783 C1780 1.403 . S
C1783 C1784 1.524 . S
C1783 C1787 1.400 . S
C1784 H1769 0.960 . S
C1784 H1770 0.960 . S
C1784 H1771 0.960 . S
C1784 C1783 1.524 . S
C1785 C1782 1.403 . S
C1785 C1786 1.339 1_455 S
C1785 C1789 1.495 . S
C1786 C1785 1.339 1_655 S
C1786 C1787 1.412 . S
C1786 C1788 1.512 . S
C1787 H1781 0.930 . S
C1787 C1783 1.400 . S
C1787 C1786 1.412 . S
C1788 C1786 1.512 . S
C1788 C1790 1.381 1_655 S
C1788 C1794 1.383 . S
C1789 C1785 1.495 . S
C1789 H1795 0.959 . S
C1789 H1796 0.961 . S
C1789 H1797 0.960 . S
C1790 C1788 1.381 1_455 S
C1790 C1791 1.394 . S
C1790 H1798 0.930 . S
C1791 C1790 1.394 . S
C1791 C1792 1.383 1_455 S
C1791 H1799 0.929 . S
C1792 C1791 1.383 1_655 S
C1792 C1793 1.377 . S
C1793 H1777 0.930 . S
C1793 C1792 1.377 . S
C1793 C1794 1.379 . S
C1794 H1778 0.931 . S
C1794 C1788 1.383 . S
C1794 C1793 1.379 . S
H1795 C1789 0.959 . S
H1796 C1789 0.961 . S
H1797 C1789 0.960 . S
H1798 C1790 0.930 . S
H1799 C1791 0.929 . S
H1800 C1808 0.929 . S
H1801 C1810 0.930 . S
H1802 C1812 0.930 . S
H1803 C1815 0.929 . S
H1804 C1818 0.930 . S
H1805 C1820 0.960 . S
H1806 C1820 0.960 . S
H1807 C1820 0.960 . S
C1808 H1800 0.929 . S
C1808 C1809 1.377 . S
C1808 C1810 1.384 . S
C1809 C1808 1.377 . S
C1809 C1815 1.390 . S
C1810 H1801 0.930 . S
C1810 C1808 1.384 . S
C1810 C1811 1.372 . S
C1811 C1810 1.372 . S
C1811 C1812 1.400 . S
C1811 C1816 1.490 . S
C1812 H1802 0.930 . S
C1812 C1811 1.400 . S
C1812 C1815 1.386 . S
H1813 C1829 0.930 . S
H1814 C1830 0.931 . S
C1815 H1803 0.929 . S
C1815 C1809 1.390 . S
C1815 C1812 1.386 . S
C1816 C1811 1.490 . S
C1816 C1818 1.395 . S
C1816 C1819 1.403 . S
H1817 C1823 0.930 . S
C1818 H1804 0.930 . S
C1818 C1816 1.395 . S
C1818 C1821 1.403 . S
C1819 C1816 1.403 . S
C1819 C1820 1.524 . S
C1819 C1823 1.400 . S
C1820 H1805 0.960 . S
C1820 H1806 0.960 . S
C1820 H1807 0.960 . S
C1820 C1819 1.524 . S
C1821 C1818 1.403 . S
C1821 C1822 1.392 . S
C1821 C1825 1.495 . S
C1822 C1821 1.392 . S
C1822 C1823 1.385 . S
C1822 C1824 1.478 . S
C1823 H1817 0.930 . S
C1823 C1819 1.400 . S
C1823 C1822 1.385 . S
C1824 C1822 1.478 . S
C1824 C1826 1.381 . S
C1824 C1830 1.383 . S
C1825 C1821 1.495 . S
C1825 H1831 0.959 . S
C1825 H1832 0.961 . S
C1825 H1833 0.960 . S
C1826 C1824 1.381 . S
C1826 C1827 1.394 . S
C1826 H1834 0.930 . S
C1827 C1826 1.394 . S
C1827 C1828 1.383 . S
C1827 H1835 0.929 . S
C1828 C1827 1.383 . S
C1828 C1829 1.377 . S
C1829 H1813 0.930 . S
C1829 C1828 1.377 . S
C1829 C1830 1.379 . S
C1830 H1814 0.931 . S
C1830 C1824 1.383 . S
C1830 C1829 1.379 . S
H1831 C1825 0.959 . S
H1832 C1825 0.961 . S
H1833 C1825 0.960 . S
H1834 C1826 0.930 . S
H1835 C1827 0.929 . S
H1836 C1844 0.929 . S
H1837 C1846 0.930 . S
H1838 C1848 0.930 . S
H1839 C1851 0.929 . S
H1840 C1854 0.930 . S
H1841 C1856 0.960 . S
H1842 C1856 0.960 . S
H1843 C1856 0.960 . S
C1844 H1836 0.929 . S
C1844 C1845 1.377 . S
C1844 C1846 1.384 . S
C1845 C1844 1.377 . S
C1845 C1851 1.390 1_545 S
C1846 H1837 0.930 . S
C1846 C1844 1.384 . S
C1846 C1847 1.372 . S
C1847 C1846 1.372 . S
C1847 C1848 1.400 1_545 S
C1847 C1852 1.490 . S
C1848 H1838 0.930 . S
C1848 C1847 1.400 1_565 S
C1848 C1851 1.386 . S
H1849 C1865 0.930 . S
H1850 C1866 0.931 . S
C1851 H1839 0.929 . S
C1851 C1845 1.390 1_565 S
C1851 C1848 1.386 . S
C1852 C1847 1.490 . S
C1852 C1854 1.395 1_545 S
C1852 C1855 1.403 . S
H1853 C1859 0.930 . S
C1854 H1840 0.930 . S
C1854 C1852 1.395 1_565 S
C1854 C1857 1.403 . S
C1855 C1852 1.403 . S
C1855 C1856 1.524 . S
C1855 C1859 1.400 . S
C1856 H1841 0.960 . S
C1856 H1842 0.960 . S
C1856 H1843 0.960 . S
C1856 C1855 1.524 . S
C1857 C1854 1.403 . S
C1857 C1858 1.392 1_565 S
C1857 C1861 1.495 . S
C1858 C1857 1.392 1_545 S
C1858 C1859 1.385 . S
C1858 C1860 1.478 . S
C1859 H1853 0.930 . S
C1859 C1855 1.400 . S
C1859 C1858 1.385 . S
C1860 C1858 1.478 . S
C1860 C1862 1.381 . S
C1860 C1866 1.383 1_545 S
C1861 C1857 1.495 . S
C1861 H1867 0.959 . S
C1861 H1868 0.961 . S
C1861 H1869 0.960 . S
C1862 C1860 1.381 . S
C1862 C1863 1.394 . S
C1862 H1870 0.930 . S
C1863 C1862 1.394 . S
C1863 C1864 1.383 . S
C1863 H1871 0.929 . S
C1864 C1863 1.383 . S
C1864 C1865 1.377 1_545 S
C1865 H1849 0.930 . S
C1865 C1864 1.377 1_565 S
C1865 C1866 1.379 . S
C1866 H1850 0.931 . S
C1866 C1860 1.383 1_565 S
C1866 C1865 1.379 . S
H1867 C1861 0.959 . S
H1868 C1861 0.961 . S
H1869 C1861 0.960 . S
H1870 C1862 0.930 . S
H1871 C1863 0.929 . S
H1872 C1880 0.929 . S
H1873 C1882 0.930 . S
H1874 C1884 0.930 . S
H1875 C1887 0.929 . S
H1876 C1890 0.930 . S
H1877 C1892 0.960 . S
H1878 C1892 0.960 . S
H1879 C1892 0.960 . S
C1880 H1872 0.929 . S
C1880 C1881 1.377 1_545 S
C1880 C1882 1.384 . S
C1881 C1880 1.377 1_565 S
C1881 C1887 1.390 . S
C1882 H1873 0.930 . S
C1882 C1880 1.384 . S
C1882 C1883 1.372 1_545 S
C1883 C1882 1.372 1_565 S
C1883 C1884 1.400 . S
C1883 C1888 1.490 . S
C1884 H1874 0.930 . S
C1884 C1883 1.400 . S
C1884 C1887 1.386 . S
H1885 C1901 0.930 . S
H1886 C1902 0.931 . S
C1887 H1875 0.929 . S
C1887 C1881 1.390 . S
C1887 C1884 1.386 . S
C1888 C1883 1.490 . S
C1888 C1890 1.395 . S
C1888 C1891 1.403 1_565 S
H1889 C1895 0.930 . S
C1890 H1876 0.930 . S
C1890 C1888 1.395 . S
C1890 C1893 1.403 . S
C1891 C1888 1.403 1_545 S
C1891 C1892 1.524 . S
C1891 C1895 1.400 . S
C1892 H1877 0.960 . S
C1892 H1878 0.960 . S
C1892 H1879 0.960 . S
C1892 C1891 1.524 . S
C1893 C1890 1.403 . S
C1893 C1894 1.392 . S
C1893 C1897 1.495 . S
C1894 C1893 1.392 . S
C1894 C1895 1.385 1_565 S
C1894 C1896 1.478 . S
C1895 H1889 0.930 . S
C1895 C1891 1.400 . S
C1895 C1894 1.385 1_545 S
C1896 C1894 1.478 . S
C1896 C1898 1.383 1_565 S
C1896 C1902 1.383 . S
C1897 C1893 1.495 . S
C1897 H1903 0.959 . S
C1897 H1904 0.961 . S
C1897 H1905 0.960 . S
C1898 C1896 1.383 1_545 S
C1898 C1899 1.407 . S
C1898 H1906 0.936 . S
C1899 C1898 1.407 . S
C1899 C1900 1.368 1_545 S
C1899 H1907 0.927 . S
C1900 C1899 1.368 1_565 S
C1900 C1901 1.377 . S
C1901 H1885 0.930 . S
C1901 C1900 1.377 . S
C1901 C1902 1.379 . S
C1902 H1886 0.931 . S
C1902 C1896 1.383 . S
C1902 C1901 1.379 . S
H1903 C1897 0.959 . S
H1904 C1897 0.961 . S
H1905 C1897 0.960 . S
H1906 C1898 0.936 . S
H1907 C1899 0.927 . S
H1908 C1916 0.929 . S
H1909 C1918 0.930 . S
H1910 C1920 0.930 . S
H1911 C1923 0.929 . S
H1912 C1926 0.930 . S
H1913 C1928 0.960 . S
H1914 C1928 0.960 . S
H1915 C1928 0.960 . S
C1916 H1908 0.929 . S
C1916 C1917 1.377 . S
C1916 C1918 1.384 . S
C1917 C1916 1.377 . S
C1917 C1923 1.390 1_455 S
C1918 H1909 0.930 . S
C1918 C1916 1.384 . S
C1918 C1919 1.372 . S
C1919 C1918 1.372 . S
C1919 C1920 1.400 1_455 S
C1919 C1924 1.490 . S
C1920 H1910 0.930 . S
C1920 C1919 1.400 1_655 S
C1920 C1923 1.386 . S
H1921 C1937 0.930 1_655 S
H1922 C1938 0.933 . S
C1923 H1911 0.929 . S
C1923 C1917 1.390 1_655 S
C1923 C1920 1.386 . S
C1924 C1919 1.490 . S
C1924 C1926 1.395 . S
C1924 C1927 1.403 1_455 S
H1925 C1931 0.930 . S
C1926 H1912 0.930 . S
C1926 C1924 1.395 . S
C1926 C1929 1.403 . S
C1927 C1924 1.403 1_655 S
C1927 C1928 1.524 . S
C1927 C1931 1.400 . S
C1928 H1913 0.960 . S
C1928 H1914 0.960 . S
C1928 H1915 0.960 . S
C1928 C1927 1.524 . S
C1929 C1926 1.403 . S
C1929 C1930 1.392 . S
C1929 C1933 1.495 . S
C1930 C1929 1.392 . S
C1930 C1931 1.385 1_455 S
C1930 C1932 1.478 . S
C1931 H1925 0.930 . S
C1931 C1927 1.400 . S
C1931 C1930 1.385 1_655 S
C1932 C1930 1.478 . S
C1932 C1934 1.381 . S
C1932 C1938 1.383 . S
C1933 C1929 1.495 . S
C1933 H1939 0.959 . S
C1933 H1940 0.961 . S
C1933 H1941 0.960 . S
C1934 C1932 1.381 . S
C1934 C1935 1.394 . S
C1934 H1942 0.930 . S
C1935 C1934 1.394 . S
C1935 C1936 1.383 . S
C1935 H1943 0.929 . S
C1936 C1935 1.383 . S
C1936 C1937 1.377 . S
C1937 H1921 0.930 1_455 S
C1937 C1936 1.377 . S
C1937 C1938 1.379 . S
C1938 H1922 0.933 . S
C1938 C1932 1.383 . S
C1938 C1937 1.379 . S
H1939 C1933 0.959 . S
H1940 C1933 0.961 . S
H1941 C1933 0.960 . S
H1942 C1934 0.930 . S
H1943 C1935 0.929 . S
H1944 C1952 0.929 . S
H1945 C1954 0.930 . S
H1946 C1956 0.930 . S
H1947 C1959 0.929 . S
H1948 C1962 0.930 . S
H1949 C1964 0.960 . S
H1950 C1964 0.960 . S
H1951 C1964 0.960 . S
C1952 H1944 0.929 . S
C1952 C1953 1.377 . S
C1952 C1954 1.384 . S
C1953 C1952 1.377 . S
C1953 C1959 1.390 . S
C1954 H1945 0.930 . S
C1954 C1952 1.384 . S
C1954 C1955 1.372 . S
C1955 C1954 1.372 . S
C1955 C1956 1.400 . S
C1955 C1960 1.490 . S
C1956 H1946 0.930 . S
C1956 C1955 1.400 . S
C1956 C1959 1.386 . S
H1957 C1973 0.930 . S
H1958 C1974 0.931 . S
C1959 H1947 0.929 . S
C1959 C1953 1.390 . S
C1959 C1956 1.386 . S
C1960 C1955 1.490 . S
C1960 C1962 1.395 . S
C1960 C1963 1.403 . S
H1961 C1967 0.930 . S
C1962 H1948 0.930 . S
C1962 C1960 1.395 . S
C1962 C1965 1.403 . S
C1963 C1960 1.403 . S
C1963 C1964 1.524 . S
C1963 C1967 1.400 . S
C1964 H1949 0.960 . S
C1964 H1950 0.960 . S
C1964 H1951 0.960 . S
C1964 C1963 1.524 . S
C1965 C1962 1.403 . S
C1965 C1966 1.392 . S
C1965 C1969 1.495 . S
C1966 C1965 1.392 . S
C1966 C1967 1.385 . S
C1966 C1968 1.478 . S
C1967 H1961 0.930 . S
C1967 C1963 1.400 . S
C1967 C1966 1.385 . S
C1968 C1966 1.478 . S
C1968 C1970 1.381 . S
C1968 C1974 1.383 . S
C1969 C1965 1.495 . S
C1969 H1975 0.959 . S
C1969 H1976 0.961 . S
C1969 H1977 0.960 . S
C1970 C1968 1.381 . S
C1970 C1971 1.394 . S
C1970 H1978 0.930 . S
C1971 C1970 1.394 . S
C1971 C1972 1.383 . S
C1971 H1979 0.929 . S
C1972 C1971 1.383 . S
C1972 C1973 1.377 . S
C1973 H1957 0.930 . S
C1973 C1972 1.377 . S
C1973 C1974 1.379 . S
C1974 H1958 0.931 . S
C1974 C1968 1.383 . S
C1974 C1973 1.379 . S
H1975 C1969 0.959 . S
H1976 C1969 0.961 . S
H1977 C1969 0.960 . S
H1978 C1970 0.930 . S
H1979 C1971 0.929 . S
H1980 C1988 0.929 . S
H1981 C1990 0.930 . S
H1982 C1992 0.947 . S
H1983 C1995 1.005 . S
H1984 C1998 0.930 . S
H1985 C2000 0.960 . S
H1986 C2000 0.960 . S
H1987 C2000 0.960 . S
C1988 H1980 0.929 . S
C1988 C1989 1.377 . S
C1988 C1990 1.384 . S
C1989 C1988 1.377 . S
C1989 C1995 1.360 1_455 S
C1990 H1981 0.930 . S
C1990 C1988 1.384 . S
C1990 C1991 1.372 . S
C1991 C1990 1.372 . S
C1991 C1992 1.364 1_455 S
C1991 C1996 1.490 . S
C1992 H1982 0.947 . S
C1992 C1991 1.364 1_655 S
C1992 C1995 1.366 . S
H1993 C2009 0.930 . S
H1994 C2010 0.931 . S
C1995 H1983 1.005 . S
C1995 C1989 1.360 1_655 S
C1995 C1992 1.366 . S
C1996 C1991 1.490 . S
C1996 C1998 1.395 1_455 S
C1996 C1999 1.403 . S
H1997 C2003 0.930 . S
C1998 H1984 0.930 . S
C1998 C1996 1.395 1_655 S
C1998 C2001 1.403 . S
C1999 C1996 1.403 . S
C1999 C2000 1.524 . S
C1999 C2003 1.400 . S
C2000 H1985 0.960 . S
C2000 H1986 0.960 . S
C2000 H1987 0.960 . S
C2000 C1999 1.524 . S
C2001 C1998 1.403 . S
C2001 C2002 1.392 1_655 S
C2001 C2005 1.495 . S
C2002 C2001 1.392 1_455 S
C2002 C2003 1.385 . S
C2002 C2004 1.478 . S
C2003 H1997 0.930 . S
C2003 C1999 1.400 . S
C2003 C2002 1.385 . S
C2004 C2002 1.478 . S
C2004 C2006 1.381 . S
C2004 C2010 1.383 1_455 S
C2005 C2001 1.495 . S
C2005 H2011 0.959 . S
C2005 H2012 0.961 . S
C2005 H2013 0.960 . S
C2006 C2004 1.381 . S
C2006 C2007 1.394 . S
C2006 H2014 0.930 . S
C2007 C2006 1.394 . S
C2007 C2008 1.383 . S
C2007 H2015 0.929 . S
C2008 C2007 1.383 . S
C2008 C2009 1.377 1_455 S
C2009 H1993 0.930 . S
C2009 C2008 1.377 1_655 S
C2009 C2010 1.379 . S
C2010 H1994 0.931 . S
C2010 C2004 1.383 1_655 S
C2010 C2009 1.379 . S
H2011 C2005 0.959 . S
H2012 C2005 0.961 . S
H2013 C2005 0.960 . S
H2014 C2006 0.930 . S
H2015 C2007 0.929 . S
H2016 C2024 0.929 . S
H2017 C2026 0.930 . S
H2018 C2028 0.930 . S
H2019 C2031 0.929 . S
H2020 C2034 0.930 . S
H2021 C2036 0.960 . S
H2022 C2036 0.960 . S
H2023 C2036 0.960 . S
C2024 H2016 0.929 . S
C2024 C2025 1.377 . S
C2024 C2026 1.384 . S
C2025 C2024 1.377 . S
C2025 C2031 1.390 . S
C2026 H2017 0.930 . S
C2026 C2024 1.384 . S
C2026 C2027 1.372 . S
C2027 C2026 1.372 . S
C2027 C2028 1.400 . S
C2027 C2032 1.490 . S
C2028 H2018 0.930 . S
C2028 C2027 1.400 . S
C2028 C2031 1.386 . S
H2029 C2045 0.930 . S
H2030 C2046 0.931 . S
C2031 H2019 0.929 . S
C2031 C2025 1.390 . S
C2031 C2028 1.386 . S
C2032 C2027 1.490 . S
C2032 C2034 1.395 . S
C2032 C2035 1.403 . S
H2033 C2039 0.930 . S
C2034 H2020 0.930 . S
C2034 C2032 1.395 . S
C2034 C2037 1.403 . S
C2035 C2032 1.403 . S
C2035 C2036 1.524 . S
C2035 C2039 1.400 . S
C2036 H2021 0.960 . S
C2036 H2022 0.960 . S
C2036 H2023 0.960 . S
C2036 C2035 1.524 . S
C2037 C2034 1.403 . S
C2037 C2038 1.392 . S
C2037 C2041 1.495 . S
C2038 C2037 1.392 . S
C2038 C2039 1.385 . S
C2038 C2040 1.478 . S
C2039 H2033 0.930 . S
C2039 C2035 1.400 . S
C2039 C2038 1.385 . S
C2040 C2038 1.478 . S
C2040 C2042 1.381 . S
C2040 C2046 1.383 . S
C2041 C2037 1.495 . S
C2041 H2047 0.959 . S
C2041 H2048 0.961 . S
C2041 H2049 0.960 . S
C2042 C2040 1.381 . S
C2042 C2043 1.394 . S
C2042 H2050 0.930 . S
C2043 C2042 1.394 . S
C2043 C2044 1.383 . S
C2043 H2051 0.929 . S
C2044 C2043 1.383 . S
C2044 C2045 1.377 . S
C2045 H2029 0.930 . S
C2045 C2044 1.377 . S
C2045 C2046 1.379 . S
C2046 H2030 0.931 . S
C2046 C2040 1.383 . S
C2046 C2045 1.379 . S
H2047 C2041 0.959 . S
H2048 C2041 0.961 . S
H2049 C2041 0.960 . S
H2050 C2042 0.930 . S
H2051 C2043 0.929 . S
H2052 C2060 0.929 . S
H2053 C2062 0.930 . S
H2054 C2064 0.930 . S
H2055 C2067 0.929 . S
H2056 C2070 0.930 . S
H2057 C2072 0.960 . S
H2058 C2072 0.960 . S
H2059 C2072 0.960 . S
C2060 H2052 0.929 . S
C2060 C2061 1.383 1_565 S
C2060 C2062 1.384 . S
C2061 C2060 1.383 1_545 S
C2061 C2067 1.381 . S
C2062 H2053 0.930 . S
C2062 C2060 1.384 . S
C2062 C2063 1.372 . S
C2063 C2062 1.372 . S
C2063 C2064 1.400 1_565 S
C2063 C2068 1.490 . S
C2064 H2054 0.930 . S
C2064 C2063 1.400 1_545 S
C2064 C2067 1.386 . S
H2065 C2081 0.930 . S
H2066 C2082 0.931 . S
C2067 H2055 0.929 . S
C2067 C2061 1.381 . S
C2067 C2064 1.386 . S
C2068 C2063 1.490 . S
C2068 C2070 1.395 . S
C2068 C2071 1.403 1_565 S
H2069 C2075 0.930 . S
C2070 H2056 0.930 . S
C2070 C2068 1.395 . S
C2070 C2073 1.403 . S
C2071 C2068 1.403 1_545 S
C2071 C2072 1.524 . S
C2071 C2075 1.400 . S
C2072 H2057 0.960 . S
C2072 H2058 0.960 . S
C2072 H2059 0.960 . S
C2072 C2071 1.524 . S
C2073 C2070 1.403 . S
C2073 C2074 1.392 . S
C2073 C2077 1.495 . S
C2074 C2073 1.392 . S
C2074 C2075 1.385 1_565 S
C2074 C2076 1.478 . S
C2075 H2069 0.930 . S
C2075 C2071 1.400 . S
C2075 C2074 1.385 1_545 S
C2076 C2074 1.478 . S
C2076 C2078 1.381 . S
C2076 C2082 1.383 1_565 S
C2077 C2073 1.495 . S
C2077 H2083 0.959 . S
C2077 H2084 0.961 . S
C2077 H2085 0.960 . S
C2078 C2076 1.381 . S
C2078 C2079 1.394 . S
C2078 H2086 0.930 . S
C2079 C2078 1.394 . S
C2079 C2080 1.383 . S
C2079 H2087 0.929 . S
C2080 C2079 1.383 . S
C2080 C2081 1.377 1_565 S
C2081 H2065 0.930 . S
C2081 C2080 1.377 1_545 S
C2081 C2082 1.379 . S
C2082 H2066 0.931 . S
C2082 C2076 1.383 1_545 S
C2082 C2081 1.379 . S
H2083 C2077 0.959 . S
H2084 C2077 0.961 . S
H2085 C2077 0.960 . S
H2086 C2078 0.930 . S
H2087 C2079 0.929 . S
H2088 C2096 0.929 . S
H2089 C2098 0.930 . S
H2090 C2100 0.930 . S
H2091 C2103 0.929 . S
H2092 C2106 0.930 . S
H2093 C2108 0.960 . S
H2094 C2108 0.960 1_565 S
H2095 C2108 0.960 . S
C2096 H2088 0.929 . S
C2096 C2097 1.377 1_565 S
C2096 C2098 1.384 . S
C2097 C2096 1.377 1_545 S
C2097 C2103 1.390 . S
C2098 H2089 0.930 . S
C2098 C2096 1.384 . S
C2098 C2099 1.372 1_565 S
C2099 C2098 1.372 1_545 S
C2099 C2100 1.400 . S
C2099 C2104 1.490 . S
C2100 H2090 0.930 . S
C2100 C2099 1.400 . S
C2100 C2103 1.386 . S
H2101 C2117 0.930 . S
H2102 C2118 0.931 . S
C2103 H2091 0.929 . S
C2103 C2097 1.390 . S
C2103 C2100 1.386 . S
C2104 C2099 1.490 . S
C2104 C2106 1.395 . S
C2104 C2107 1.403 . S
H2105 C2111 0.930 . S
C2106 H2092 0.930 . S
C2106 C2104 1.395 . S
C2106 C2109 1.403 . S
C2107 C2104 1.403 . S
C2107 C2108 1.524 . S
C2107 C2111 1.400 . S
C2108 H2093 0.960 . S
C2108 H2094 0.960 1_545 S
C2108 H2095 0.960 . S
C2108 C2107 1.524 . S
C2109 C2106 1.403 . S
C2109 C2110 1.392 . S
C2109 C2113 1.495 . S
C2110 C2109 1.392 . S
C2110 C2111 1.385 . S
C2110 C2112 1.478 . S
C2111 H2105 0.930 . S
C2111 C2107 1.400 . S
C2111 C2110 1.385 . S
C2112 C2110 1.478 . S
C2112 C2114 1.381 1_545 S
C2112 C2118 1.383 . S
C2113 C2109 1.495 . S
C2113 H2119 0.959 . S
C2113 H2120 0.961 . S
C2113 H2121 0.960 1_545 S
C2114 C2112 1.381 1_565 S
C2114 C2115 1.394 . S
C2114 H2122 0.930 . S
C2115 C2114 1.394 . S
C2115 C2116 1.383 1_565 S
C2115 H2123 0.929 . S
C2116 C2115 1.383 1_545 S
C2116 C2117 1.377 . S
C2117 H2101 0.930 . S
C2117 C2116 1.377 . S
C2117 C2118 1.379 . S
C2118 H2102 0.931 . S
C2118 C2112 1.383 . S
C2118 C2117 1.379 . S
H2119 C2113 0.959 . S
H2120 C2113 0.961 . S
H2121 C2113 0.960 1_565 S
H2122 C2114 0.930 . S
H2123 C2115 0.929 . S
H2124 C2132 0.929 . S
H2125 C2134 0.930 . S
H2126 C2136 0.930 . S
H2127 C2139 0.912 . S
H2128 C2142 0.930 . S
H2129 C2144 0.960 . S
H2130 C2144 0.960 . S
H2131 C2144 0.960 . S
C2132 H2124 0.929 . S
C2132 C2133 1.377 . S
C2132 C2134 1.384 . S
C2133 C2132 1.377 . S
C2133 C2139 1.389 1_655 S
C2134 H2125 0.930 . S
C2134 C2132 1.384 . S
C2134 C2135 1.372 . S
C2135 C2134 1.372 . S
C2135 C2136 1.404 1_655 S
C2135 C2140 1.490 . S
C2136 H2126 0.930 . S
C2136 C2135 1.404 1_455 S
C2136 C2139 1.404 . S
H2137 C2153 0.944 . S
H2138 C2154 0.931 . S
C2139 H2127 0.912 . S
C2139 C2133 1.389 1_455 S
C2139 C2136 1.404 . S
C2140 C2135 1.490 . S
C2140 C2142 1.395 1_655 S
C2140 C2143 1.403 . S
H2141 C2147 0.930 . S
C2142 H2128 0.930 . S
C2142 C2140 1.395 1_455 S
C2142 C2145 1.403 . S
C2143 C2140 1.403 . S
C2143 C2144 1.524 . S
C2143 C2147 1.400 . S
C2144 H2129 0.960 . S
C2144 H2130 0.960 . S
C2144 H2131 0.960 . S
C2144 C2143 1.524 . S
C2145 C2142 1.403 . S
C2145 C2146 1.392 1_455 S
C2145 C2149 1.495 . S
C2146 C2145 1.392 1_655 S
C2146 C2147 1.385 . S
C2146 C2148 1.478 . S
C2147 H2141 0.930 . S
C2147 C2143 1.400 . S
C2147 C2146 1.385 . S
C2148 C2146 1.478 . S
C2148 C2150 1.381 . S
C2148 C2154 1.383 1_655 S
C2149 C2145 1.495 . S
C2149 H2155 0.959 . S
C2149 H2156 0.961 . S
C2149 H2157 0.960 . S
C2150 C2148 1.381 . S
C2150 C2151 1.394 . S
C2150 H2158 0.930 . S
C2151 C2150 1.394 . S
C2151 C2152 1.383 . S
C2151 H2159 0.929 . S
C2152 C2151 1.383 . S
C2152 C2153 1.402 1_655 S
C2153 H2137 0.944 . S
C2153 C2152 1.402 1_455 S
C2153 C2154 1.354 . S
C2154 H2138 0.931 . S
C2154 C2148 1.383 1_455 S
C2154 C2153 1.354 . S
H2155 C2149 0.959 . S
H2156 C2149 0.961 . S
H2157 C2149 0.960 . S
H2158 C2150 0.930 . S
H2159 C2151 0.929 . S
H2160 C2168 0.929 . S
H2161 C2170 0.930 . S
H2162 C2172 0.930 . S
H2163 C2175 0.929 . S
H2164 C2178 0.930 . S
H2165 C2180 0.960 . S
H2166 C2180 0.960 . S
H2167 C2180 0.960 . S
C2168 H2160 0.929 . S
C2168 C2169 1.377 . S
C2168 C2170 1.384 . S
C2169 C2168 1.377 . S
C2169 C2175 1.390 . S
C2170 H2161 0.930 . S
C2170 C2168 1.384 . S
C2170 C2171 1.372 . S
C2171 C2170 1.372 . S
C2171 C2172 1.400 . S
C2171 C2176 1.490 . S
C2172 H2162 0.930 . S
C2172 C2171 1.400 . S
C2172 C2175 1.386 . S
H2173 C2189 0.930 . S
H2174 C2190 0.931 . S
C2175 H2163 0.929 . S
C2175 C2169 1.390 . S
C2175 C2172 1.386 . S
C2176 C2171 1.490 . S
C2176 C2178 1.395 . S
C2176 C2179 1.403 . S
H2177 C2183 0.930 . S
C2178 H2164 0.930 . S
C2178 C2176 1.395 . S
C2178 C2181 1.403 . S
C2179 C2176 1.403 . S
C2179 C2180 1.524 . S
C2179 C2183 1.400 . S
C2180 H2165 0.960 . S
C2180 H2166 0.960 . S
C2180 H2167 0.960 . S
C2180 C2179 1.524 . S
C2181 C2178 1.403 . S
C2181 C2182 1.392 . S
C2181 C2185 1.495 . S
C2182 C2181 1.392 . S
C2182 C2183 1.385 . S
C2182 C2184 1.478 . S
C2183 H2177 0.930 . S
C2183 C2179 1.400 . S
C2183 C2182 1.385 . S
C2184 C2182 1.478 . S
C2184 C2186 1.381 . S
C2184 C2190 1.383 . S
C2185 C2181 1.495 . S
C2185 H2191 0.959 . S
C2185 H2192 0.961 . S
C2185 H2193 0.960 . S
C2186 C2184 1.381 . S
C2186 C2187 1.394 . S
C2186 H2194 0.930 . S
C2187 C2186 1.394 . S
C2187 C2188 1.383 . S
C2187 H2195 0.929 . S
C2188 C2187 1.383 . S
C2188 C2189 1.377 . S
C2189 H2173 0.930 . S
C2189 C2188 1.377 . S
C2189 C2190 1.379 . S
C2190 H2174 0.931 . S
C2190 C2184 1.383 . S
C2190 C2189 1.379 . S
H2191 C2185 0.959 . S
H2192 C2185 0.961 . S
H2193 C2185 0.960 . S
H2194 C2186 0.930 . S
H2195 C2187 0.929 . S
H2196 C2204 0.929 . S
H2197 C2206 0.930 . S
H2198 C2208 0.930 . S
H2199 C2211 0.929 . S
H2200 C2214 0.930 . S
H2201 C2216 0.960 . S
H2202 C2216 0.960 . S
H2203 C2216 0.960 . S
C2204 H2196 0.929 . S
C2204 C2205 1.377 . S
C2204 C2206 1.384 . S
C2205 C2204 1.377 . S
C2205 C2211 1.390 . S
C2206 H2197 0.930 . S
C2206 C2204 1.384 . S
C2206 C2207 1.372 . S
C2207 C2206 1.372 . S
C2207 C2208 1.400 . S
C2207 C2212 1.490 . S
C2208 H2198 0.930 . S
C2208 C2207 1.400 . S
C2208 C2211 1.386 . S
H2209 C2225 0.930 . S
H2210 C2226 0.931 . S
C2211 H2199 0.929 . S
C2211 C2205 1.390 . S
C2211 C2208 1.386 . S
C2212 C2207 1.490 . S
C2212 C2214 1.395 . S
C2212 C2215 1.403 . S
H2213 C2219 0.930 . S
C2214 H2200 0.930 . S
C2214 C2212 1.395 . S
C2214 C2217 1.403 . S
C2215 C2212 1.403 . S
C2215 C2216 1.524 . S
C2215 C2219 1.400 . S
C2216 H2201 0.960 . S
C2216 H2202 0.960 . S
C2216 H2203 0.960 . S
C2216 C2215 1.524 . S
C2217 C2214 1.403 . S
C2217 C2218 1.392 . S
C2217 C2221 1.495 . S
C2218 C2217 1.392 . S
C2218 C2219 1.385 . S
C2218 C2220 1.478 . S
C2219 H2213 0.930 . S
C2219 C2215 1.400 . S
C2219 C2218 1.385 . S
C2220 C2218 1.478 . S
C2220 C2222 1.381 . S
C2220 C2226 1.383 . S
C2221 C2217 1.495 . S
C2221 H2227 0.959 . S
C2221 H2228 0.961 . S
C2221 H2229 0.960 . S
C2222 C2220 1.381 . S
C2222 C2223 1.394 . S
C2222 H2230 0.930 . S
C2223 C2222 1.394 . S
C2223 C2224 1.383 . S
C2223 H2231 0.929 . S
C2224 C2223 1.383 . S
C2224 C2225 1.377 . S
C2225 H2209 0.930 . S
C2225 C2224 1.377 . S
C2225 C2226 1.379 . S
C2226 H2210 0.931 . S
C2226 C2220 1.383 . S
C2226 C2225 1.379 . S
H2227 C2221 0.959 . S
H2228 C2221 0.961 . S
H2229 C2221 0.960 . S
H2230 C2222 0.930 . S
H2231 C2223 0.929 . S
H2232 C2240 0.929 . S
H2233 C2242 0.930 . S
H2234 C2244 0.930 . S
H2235 C2247 0.929 . S
H2236 C2250 0.930 . S
H2237 C2252 0.960 . S
H2238 C2252 0.960 . S
H2239 C2252 0.960 . S
C2240 H2232 0.929 . S
C2240 C2241 1.377 . S
C2240 C2242 1.384 . S
C2241 C2240 1.377 . S
C2241 C2247 1.390 . S
C2242 H2233 0.930 . S
C2242 C2240 1.384 . S
C2242 C2243 1.372 . S
C2243 C2242 1.372 . S
C2243 C2244 1.400 . S
C2243 C2248 1.490 . S
C2244 H2234 0.930 . S
C2244 C2243 1.400 . S
C2244 C2247 1.386 . S
H2245 C2261 0.930 . S
H2246 C2262 0.931 . S
C2247 H2235 0.929 . S
C2247 C2241 1.390 . S
C2247 C2244 1.386 . S
C2248 C2243 1.490 . S
C2248 C2250 1.395 . S
C2248 C2251 1.403 . S
H2249 C2255 0.930 . S
C2250 H2236 0.930 . S
C2250 C2248 1.395 . S
C2250 C2253 1.403 . S
C2251 C2248 1.403 . S
C2251 C2252 1.524 . S
C2251 C2255 1.400 . S
C2252 H2237 0.960 . S
C2252 H2238 0.960 . S
C2252 H2239 0.960 . S
C2252 C2251 1.524 . S
C2253 C2250 1.403 . S
C2253 C2254 1.392 . S
C2253 C2257 1.495 . S
C2254 C2253 1.392 . S
C2254 C2255 1.385 . S
C2254 C2256 1.478 . S
C2255 H2249 0.930 . S
C2255 C2251 1.400 . S
C2255 C2254 1.385 . S
C2256 C2254 1.478 . S
C2256 C2258 1.381 . S
C2256 C2262 1.383 . S
C2257 C2253 1.495 . S
C2257 H2263 0.959 . S
C2257 H2264 0.961 . S
C2257 H2265 0.960 . S
C2258 C2256 1.381 . S
C2258 C2259 1.394 . S
C2258 H2266 0.930 . S
C2259 C2258 1.394 . S
C2259 C2260 1.383 . S
C2259 H2267 0.929 . S
C2260 C2259 1.383 . S
C2260 C2261 1.377 . S
C2261 H2245 0.930 . S
C2261 C2260 1.377 . S
C2261 C2262 1.379 . S
C2262 H2246 0.931 . S
C2262 C2256 1.383 . S
C2262 C2261 1.379 . S
H2263 C2257 0.959 . S
H2264 C2257 0.961 . S
H2265 C2257 0.960 . S
H2266 C2258 0.930 . S
H2267 C2259 0.929 . S
H2268 C2276 0.929 . S
H2269 C2278 0.930 . S
H2270 C2280 0.930 . S
H2271 C2283 0.929 . S
H2272 C2286 0.930 . S
H2273 C2288 0.960 . S
H2274 C2288 0.960 . S
H2275 C2288 0.960 . S
C2276 H2268 0.929 . S
C2276 C2277 1.377 . S
C2276 C2278 1.384 . S
C2277 C2276 1.377 . S
C2277 C2283 1.390 . S
C2278 H2269 0.930 . S
C2278 C2276 1.384 . S
C2278 C2279 1.372 . S
C2279 C2278 1.372 . S
C2279 C2280 1.400 . S
C2279 C2284 1.490 . S
C2280 H2270 0.930 . S
C2280 C2279 1.400 . S
C2280 C2283 1.386 . S
H2281 C2297 0.930 . S
H2282 C2298 0.931 . S
C2283 H2271 0.929 . S
C2283 C2277 1.390 . S
C2283 C2280 1.386 . S
C2284 C2279 1.490 . S
C2284 C2286 1.395 . S
C2284 C2287 1.403 . S
H2285 C2291 0.930 . S
C2286 H2272 0.930 . S
C2286 C2284 1.395 . S
C2286 C2289 1.403 . S
C2287 C2284 1.403 . S
C2287 C2288 1.524 . S
C2287 C2291 1.400 . S
C2288 H2273 0.960 . S
C2288 H2274 0.960 . S
C2288 H2275 0.960 . S
C2288 C2287 1.524 . S
C2289 C2286 1.403 . S
C2289 C2290 1.392 . S
C2289 C2293 1.495 . S
C2290 C2289 1.392 . S
C2290 C2291 1.385 . S
C2290 C2292 1.478 . S
C2291 H2285 0.930 . S
C2291 C2287 1.400 . S
C2291 C2290 1.385 . S
C2292 C2290 1.478 . S
C2292 C2294 1.381 . S
C2292 C2298 1.383 . S
C2293 C2289 1.495 . S
C2293 H2299 0.959 . S
C2293 H2300 0.961 . S
C2293 H2301 0.960 . S
C2294 C2292 1.381 . S
C2294 C2295 1.394 . S
C2294 H2302 0.930 . S
C2295 C2294 1.394 . S
C2295 C2296 1.383 . S
C2295 H2303 0.929 . S
C2296 C2295 1.383 . S
C2296 C2297 1.377 . S
C2297 H2281 0.930 . S
C2297 C2296 1.377 . S
C2297 C2298 1.379 . S
C2298 H2282 0.931 . S
C2298 C2292 1.383 . S
C2298 C2297 1.379 . S
H2299 C2293 0.959 . S
H2300 C2293 0.961 . S
H2301 C2293 0.960 . S
H2302 C2294 0.930 . S
H2303 C2295 0.929 . S
H2304 C2312 0.929 . S
H2305 C2314 0.930 . S
H2306 C2316 0.930 . S
H2307 C2319 0.929 . S
H2308 C2322 0.930 . S
H2309 C2324 0.960 . S
H2310 C2324 0.960 . S
H2311 C2324 0.960 . S
C2312 H2304 0.929 . S
C2312 C2313 1.377 . S
C2312 C2314 1.384 . S
C2313 C2312 1.377 . S
C2313 C2319 1.390 . S
C2314 H2305 0.930 . S
C2314 C2312 1.384 . S
C2314 C2315 1.372 . S
C2315 C2314 1.372 . S
C2315 C2316 1.400 . S
C2315 C2320 1.490 . S
C2316 H2306 0.930 . S
C2316 C2315 1.400 . S
C2316 C2319 1.386 . S
H2317 C2333 0.930 . S
H2318 C2334 0.931 . S
C2319 H2307 0.929 . S
C2319 C2313 1.390 . S
C2319 C2316 1.386 . S
C2320 C2315 1.490 . S
C2320 C2322 1.395 . S
C2320 C2323 1.403 . S
H2321 C2327 0.930 . S
C2322 H2308 0.930 . S
C2322 C2320 1.395 . S
C2322 C2325 1.403 . S
C2323 C2320 1.403 . S
C2323 C2324 1.524 . S
C2323 C2327 1.400 . S
C2324 H2309 0.960 . S
C2324 H2310 0.960 . S
C2324 H2311 0.960 . S
C2324 C2323 1.524 . S
C2325 C2322 1.403 . S
C2325 C2326 1.392 . S
C2325 C2329 1.495 . S
C2326 C2325 1.392 . S
C2326 C2327 1.385 . S
C2326 C2328 1.478 . S
C2327 H2321 0.930 . S
C2327 C2323 1.400 . S
C2327 C2326 1.385 . S
C2328 C2326 1.478 . S
C2328 C2330 1.381 . S
C2328 C2334 1.383 . S
C2329 C2325 1.495 . S
C2329 H2335 0.959 . S
C2329 H2336 0.961 . S
C2329 H2337 0.960 . S
C2330 C2328 1.381 . S
C2330 C2331 1.394 . S
C2330 H2338 0.930 . S
C2331 C2330 1.394 . S
C2331 C2332 1.383 . S
C2331 H2339 0.929 . S
C2332 C2331 1.383 . S
C2332 C2333 1.377 . S
C2333 H2317 0.930 . S
C2333 C2332 1.377 . S
C2333 C2334 1.379 . S
C2334 H2318 0.931 . S
C2334 C2328 1.383 . S
C2334 C2333 1.379 . S
H2335 C2329 0.959 . S
H2336 C2329 0.961 . S
H2337 C2329 0.960 . S
H2338 C2330 0.930 . S
H2339 C2331 0.929 . S
H2340 C2348 0.929 . S
H2341 C2350 0.930 . S
H2342 C2352 0.930 . S
H2343 C2355 0.929 . S
H2344 C2358 0.930 . S
H2345 C2360 0.960 . S
H2346 C2360 0.960 . S
H2347 C2360 0.960 . S
C2348 H2340 0.929 . S
C2348 C2349 1.377 . S
C2348 C2350 1.384 . S
C2349 C2348 1.377 . S
C2349 C2355 1.390 . S
C2350 H2341 0.930 . S
C2350 C2348 1.384 . S
C2350 C2351 1.372 . S
C2351 C2350 1.372 . S
C2351 C2352 1.400 . S
C2351 C2356 1.490 . S
C2352 H2342 0.930 . S
C2352 C2351 1.400 . S
C2352 C2355 1.386 . S
H2353 C2369 0.930 . S
H2354 C2370 0.931 . S
C2355 H2343 0.929 . S
C2355 C2349 1.390 . S
C2355 C2352 1.386 . S
C2356 C2351 1.490 . S
C2356 C2358 1.395 . S
C2356 C2359 1.403 . S
H2357 C2363 0.930 . S
C2358 H2344 0.930 . S
C2358 C2356 1.395 . S
C2358 C2361 1.403 . S
C2359 C2356 1.403 . S
C2359 C2360 1.524 . S
C2359 C2363 1.400 . S
C2360 H2345 0.960 . S
C2360 H2346 0.960 . S
C2360 H2347 0.960 . S
C2360 C2359 1.524 . S
C2361 C2358 1.403 . S
C2361 C2362 1.392 . S
C2361 C2365 1.495 . S
C2362 C2361 1.392 . S
C2362 C2363 1.385 . S
C2362 C2364 1.478 . S
C2363 H2357 0.930 . S
C2363 C2359 1.400 . S
C2363 C2362 1.385 . S
C2364 C2362 1.478 . S
C2364 C2366 1.381 . S
C2364 C2370 1.383 . S
C2365 C2361 1.495 . S
C2365 H2371 0.959 . S
C2365 H2372 0.961 . S
C2365 H2373 0.960 . S
C2366 C2364 1.381 . S
C2366 C2367 1.394 . S
C2366 H2374 0.930 . S
C2367 C2366 1.394 . S
C2367 C2368 1.383 . S
C2367 H2375 0.929 . S
C2368 C2367 1.383 . S
C2368 C2369 1.377 . S
C2369 H2353 0.930 . S
C2369 C2368 1.377 . S
C2369 C2370 1.379 . S
C2370 H2354 0.931 . S
C2370 C2364 1.383 . S
C2370 C2369 1.379 . S
H2371 C2365 0.959 . S
H2372 C2365 0.961 . S
H2373 C2365 0.960 . S
H2374 C2366 0.930 . S
H2375 C2367 0.929 . S
H2376 C2384 0.929 . S
H2377 C2386 0.930 . S
H2378 C2388 0.930 . S
H2379 C2391 0.929 . S
H2380 C2394 0.930 . S
H2381 C2396 0.960 . S
H2382 C2396 0.960 . S
H2383 C2396 0.960 . S
C2384 H2376 0.929 . S
C2384 C2385 1.377 . S
C2384 C2386 1.384 . S
C2385 C2384 1.377 . S
C2385 C2391 1.390 . S
C2386 H2377 0.930 . S
C2386 C2384 1.384 . S
C2386 C2387 1.372 . S
C2387 C2386 1.372 . S
C2387 C2388 1.400 . S
C2387 C2392 1.490 . S
C2388 H2378 0.930 . S
C2388 C2387 1.400 . S
C2388 C2391 1.386 . S
H2389 C2405 0.930 . S
H2390 C2406 0.931 . S
C2391 H2379 0.929 . S
C2391 C2385 1.390 . S
C2391 C2388 1.386 . S
C2392 C2387 1.490 . S
C2392 C2394 1.395 . S
C2392 C2395 1.403 . S
H2393 C2399 0.930 . S
C2394 H2380 0.930 . S
C2394 C2392 1.395 . S
C2394 C2397 1.403 . S
C2395 C2392 1.403 . S
C2395 C2396 1.524 . S
C2395 C2399 1.400 . S
C2396 H2381 0.960 . S
C2396 H2382 0.960 . S
C2396 H2383 0.960 . S
C2396 C2395 1.524 . S
C2397 C2394 1.403 . S
C2397 C2398 1.392 . S
C2397 C2401 1.495 . S
C2398 C2397 1.392 . S
C2398 C2399 1.385 . S
C2398 C2400 1.478 . S
C2399 H2393 0.930 . S
C2399 C2395 1.400 . S
C2399 C2398 1.385 . S
C2400 C2398 1.478 . S
C2400 C2402 1.381 . S
C2400 C2406 1.383 . S
C2401 C2397 1.495 . S
C2401 H2407 0.959 . S
C2401 H2408 0.961 . S
C2401 H2409 0.960 . S
C2402 C2400 1.381 . S
C2402 C2403 1.394 . S
C2402 H2410 0.930 . S
C2403 C2402 1.394 . S
C2403 C2404 1.383 . S
C2403 H2411 0.929 . S
C2404 C2403 1.383 . S
C2404 C2405 1.377 . S
C2405 H2389 0.930 . S
C2405 C2404 1.377 . S
C2405 C2406 1.379 . S
C2406 H2390 0.931 . S
C2406 C2400 1.383 . S
C2406 C2405 1.379 . S
H2407 C2401 0.959 . S
H2408 C2401 0.961 . S
H2409 C2401 0.960 . S
H2410 C2402 0.930 . S
H2411 C2403 0.929 . S
H2412 C2420 0.929 . S
H2413 C2422 0.930 . S
H2414 C2424 0.930 . S
H2415 C2427 0.929 . S
H2416 C2430 0.930 . S
H2417 C2432 0.960 . S
H2418 C2432 0.960 . S
H2419 C2432 0.960 . S
C2420 H2412 0.929 . S
C2420 C2421 1.377 . S
C2420 C2422 1.384 . S
C2421 C2420 1.377 . S
C2421 C2427 1.390 . S
C2422 H2413 0.930 . S
C2422 C2420 1.384 . S
C2422 C2423 1.372 . S
C2423 C2422 1.372 . S
C2423 C2424 1.400 . S
C2423 C2428 1.490 . S
C2424 H2414 0.930 . S
C2424 C2423 1.400 . S
C2424 C2427 1.386 . S
H2425 C2441 0.930 . S
H2426 C2442 0.931 . S
C2427 H2415 0.929 . S
C2427 C2421 1.390 . S
C2427 C2424 1.386 . S
C2428 C2423 1.490 . S
C2428 C2430 1.395 . S
C2428 C2431 1.403 . S
H2429 C2435 0.930 . S
C2430 H2416 0.930 . S
C2430 C2428 1.395 . S
C2430 C2433 1.403 . S
C2431 C2428 1.403 . S
C2431 C2432 1.524 . S
C2431 C2435 1.400 . S
C2432 H2417 0.960 . S
C2432 H2418 0.960 . S
C2432 H2419 0.960 . S
C2432 C2431 1.524 . S
C2433 C2430 1.403 . S
C2433 C2434 1.392 . S
C2433 C2437 1.495 . S
C2434 C2433 1.392 . S
C2434 C2435 1.385 . S
C2434 C2436 1.478 . S
C2435 H2429 0.930 . S
C2435 C2431 1.400 . S
C2435 C2434 1.385 . S
C2436 C2434 1.478 . S
C2436 C2438 1.381 . S
C2436 C2442 1.383 . S
C2437 C2433 1.495 . S
C2437 H2443 0.959 . S
C2437 H2444 0.961 . S
C2437 H2445 0.960 . S
C2438 C2436 1.381 . S
C2438 C2439 1.394 . S
C2438 H2446 0.930 . S
C2439 C2438 1.394 . S
C2439 C2440 1.383 . S
C2439 H2447 0.929 . S
C2440 C2439 1.383 . S
C2440 C2441 1.377 . S
C2441 H2425 0.930 . S
C2441 C2440 1.377 . S
C2441 C2442 1.379 . S
C2442 H2426 0.931 . S
C2442 C2436 1.383 . S
C2442 C2441 1.379 . S
H2443 C2437 0.959 . S
H2444 C2437 0.961 . S
H2445 C2437 0.960 . S
H2446 C2438 0.930 . S
H2447 C2439 0.929 . S
H2448 C2456 0.929 . S
H2449 C2458 0.930 . S
H2450 C2460 0.930 . S
H2451 C2463 0.929 . S
H2452 C2466 0.930 . S
H2453 C2468 0.960 . S
H2454 C2468 0.960 . S
H2455 C2468 0.960 . S
C2456 H2448 0.929 . S
C2456 C2457 1.377 . S
C2456 C2458 1.384 . S
C2457 C2456 1.377 . S
C2457 C2463 1.390 . S
C2458 H2449 0.930 . S
C2458 C2456 1.384 . S
C2458 C2459 1.372 . S
C2459 C2458 1.372 . S
C2459 C2460 1.400 . S
C2459 C2464 1.490 . S
C2460 H2450 0.930 . S
C2460 C2459 1.400 . S
C2460 C2463 1.386 . S
H2461 C2477 0.930 . S
H2462 C2478 0.931 . S
C2463 H2451 0.929 . S
C2463 C2457 1.390 . S
C2463 C2460 1.386 . S
C2464 C2459 1.490 . S
C2464 C2466 1.395 . S
C2464 C2467 1.403 . S
H2465 C2471 0.930 . S
C2466 H2452 0.930 . S
C2466 C2464 1.395 . S
C2466 C2469 1.403 . S
C2467 C2464 1.403 . S
C2467 C2468 1.524 . S
C2467 C2471 1.400 . S
C2468 H2453 0.960 . S
C2468 H2454 0.960 . S
C2468 H2455 0.960 . S
C2468 C2467 1.524 . S
C2469 C2466 1.403 . S
C2469 C2470 1.392 . S
C2469 C2473 1.495 . S
C2470 C2469 1.392 . S
C2470 C2471 1.385 . S
C2470 C2472 1.478 . S
C2471 H2465 0.930 . S
C2471 C2467 1.400 . S
C2471 C2470 1.385 . S
C2472 C2470 1.478 . S
C2472 C2474 1.381 . S
C2472 C2478 1.383 . S
C2473 C2469 1.495 . S
C2473 H2479 0.959 . S
C2473 H2480 0.961 . S
C2473 H2481 0.960 . S
C2474 C2472 1.381 . S
C2474 C2475 1.394 . S
C2474 H2482 0.930 . S
C2475 C2474 1.394 . S
C2475 C2476 1.383 . S
C2475 H2483 0.929 . S
C2476 C2475 1.383 . S
C2476 C2477 1.377 . S
C2477 H2461 0.930 . S
C2477 C2476 1.377 . S
C2477 C2478 1.379 . S
C2478 H2462 0.931 . S
C2478 C2472 1.383 . S
C2478 C2477 1.379 . S
H2479 C2473 0.959 . S
H2480 C2473 0.961 . S
H2481 C2473 0.960 . S
H2482 C2474 0.930 . S
H2483 C2475 0.929 . S
H2484 C2492 0.929 . S
H2485 C2494 0.930 . S
H2486 C2496 0.930 . S
H2487 C2499 0.929 . S
H2488 C2502 0.930 . S
H2489 C2504 0.960 . S
H2490 C2504 0.960 . S
H2491 C2504 0.960 . S
C2492 H2484 0.929 . S
C2492 C2493 1.377 . S
C2492 C2494 1.384 . S
C2493 C2492 1.377 . S
C2493 C2499 1.390 . S
C2494 H2485 0.930 . S
C2494 C2492 1.384 . S
C2494 C2495 1.372 . S
C2495 C2494 1.372 . S
C2495 C2496 1.400 . S
C2495 C2500 1.490 . S
C2496 H2486 0.930 . S
C2496 C2495 1.400 . S
C2496 C2499 1.386 . S
H2497 C2513 0.930 . S
H2498 C2514 0.931 . S
C2499 H2487 0.929 . S
C2499 C2493 1.390 . S
C2499 C2496 1.386 . S
C2500 C2495 1.490 . S
C2500 C2502 1.395 . S
C2500 C2503 1.403 . S
H2501 C2507 0.930 . S
C2502 H2488 0.930 . S
C2502 C2500 1.395 . S
C2502 C2505 1.403 . S
C2503 C2500 1.403 . S
C2503 C2504 1.524 . S
C2503 C2507 1.400 . S
C2504 H2489 0.960 . S
C2504 H2490 0.960 . S
C2504 H2491 0.960 . S
C2504 C2503 1.524 . S
C2505 C2502 1.403 . S
C2505 C2506 1.392 . S
C2505 C2509 1.495 . S
C2506 C2505 1.392 . S
C2506 C2507 1.385 . S
C2506 C2508 1.478 . S
C2507 H2501 0.930 . S
C2507 C2503 1.400 . S
C2507 C2506 1.385 . S
C2508 C2506 1.478 . S
C2508 C2510 1.381 . S
C2508 C2514 1.383 . S
C2509 C2505 1.495 . S
C2509 H2515 0.959 . S
C2509 H2516 0.961 . S
C2509 H2517 0.960 . S
C2510 C2508 1.381 . S
C2510 C2511 1.394 . S
C2510 H2518 0.930 . S
C2511 C2510 1.394 . S
C2511 C2512 1.383 . S
C2511 H2519 0.929 . S
C2512 C2511 1.383 . S
C2512 C2513 1.377 . S
C2513 H2497 0.930 . S
C2513 C2512 1.377 . S
C2513 C2514 1.379 . S
C2514 H2498 0.931 . S
C2514 C2508 1.383 . S
C2514 C2513 1.379 . S
H2515 C2509 0.959 . S
H2516 C2509 0.961 . S
H2517 C2509 0.960 . S
H2518 C2510 0.930 . S
H2519 C2511 0.929 . S
H2520 C2528 0.929 . S
H2521 C2530 0.930 . S
H2522 C2532 0.930 . S
H2523 C2535 0.929 . S
H2524 C2538 0.930 . S
H2525 C2540 0.960 . S
H2526 C2540 0.960 . S
H2527 C2540 0.960 . S
C2528 H2520 0.929 . S
C2528 C2529 1.377 . S
C2528 C2530 1.384 . S
C2529 C2528 1.377 . S
C2529 C2535 1.390 . S
C2530 H2521 0.930 . S
C2530 C2528 1.384 . S
C2530 C2531 1.372 . S
C2531 C2530 1.372 . S
C2531 C2532 1.400 . S
C2531 C2536 1.490 . S
C2532 H2522 0.930 . S
C2532 C2531 1.400 . S
C2532 C2535 1.386 . S
H2533 C2549 0.930 . S
H2534 C2550 0.931 . S
C2535 H2523 0.929 . S
C2535 C2529 1.390 . S
C2535 C2532 1.386 . S
C2536 C2531 1.490 . S
C2536 C2538 1.395 . S
C2536 C2539 1.403 . S
H2537 C2543 0.930 . S
C2538 H2524 0.930 . S
C2538 C2536 1.395 . S
C2538 C2541 1.403 . S
C2539 C2536 1.403 . S
C2539 C2540 1.524 . S
C2539 C2543 1.400 . S
C2540 H2525 0.960 . S
C2540 H2526 0.960 . S
C2540 H2527 0.960 . S
C2540 C2539 1.524 . S
C2541 C2538 1.403 . S
C2541 C2542 1.392 . S
C2541 C2545 1.495 . S
C2542 C2541 1.392 . S
C2542 C2543 1.385 . S
C2542 C2544 1.478 . S
C2543 H2537 0.930 . S
C2543 C2539 1.400 . S
C2543 C2542 1.385 . S
C2544 C2542 1.478 . S
C2544 C2546 1.381 . S
C2544 C2550 1.383 . S
C2545 C2541 1.495 . S
C2545 H2551 0.959 . S
C2545 H2552 0.961 . S
C2545 H2553 0.960 . S
C2546 C2544 1.381 . S
C2546 C2547 1.394 . S
C2546 H2554 0.930 . S
C2547 C2546 1.394 . S
C2547 C2548 1.383 . S
C2547 H2555 0.929 . S
C2548 C2547 1.383 . S
C2548 C2549 1.377 . S
C2549 H2533 0.930 . S
C2549 C2548 1.377 . S
C2549 C2550 1.379 . S
C2550 H2534 0.931 . S
C2550 C2544 1.383 . S
C2550 C2549 1.379 . S
H2551 C2545 0.959 . S
H2552 C2545 0.961 . S
H2553 C2545 0.960 . S
H2554 C2546 0.930 . S
H2555 C2547 0.929 . S
H2556 C2564 0.929 . S
H2557 C2566 0.930 . S
H2558 C2568 0.930 . S
H2559 C2571 0.929 . S
H2560 C2574 0.930 . S
H2561 C2576 0.960 . S
H2562 C2576 0.960 . S
H2563 C2576 0.960 . S
C2564 H2556 0.929 . S
C2564 C2565 1.377 . S
C2564 C2566 1.384 . S
C2565 C2564 1.377 . S
C2565 C2571 1.390 . S
C2566 H2557 0.930 . S
C2566 C2564 1.384 . S
C2566 C2567 1.372 . S
C2567 C2566 1.372 . S
C2567 C2568 1.400 . S
C2567 C2572 1.490 . S
C2568 H2558 0.930 . S
C2568 C2567 1.400 . S
C2568 C2571 1.386 . S
H2569 C2585 0.930 . S
H2570 C2586 0.931 . S
C2571 H2559 0.929 . S
C2571 C2565 1.390 . S
C2571 C2568 1.386 . S
C2572 C2567 1.490 . S
C2572 C2574 1.395 . S
C2572 C2575 1.403 . S
H2573 C2579 0.930 . S
C2574 H2560 0.930 . S
C2574 C2572 1.395 . S
C2574 C2577 1.403 . S
C2575 C2572 1.403 . S
C2575 C2576 1.524 . S
C2575 C2579 1.400 . S
C2576 H2561 0.960 . S
C2576 H2562 0.960 . S
C2576 H2563 0.960 . S
C2576 C2575 1.524 . S
C2577 C2574 1.403 . S
C2577 C2578 1.392 . S
C2577 C2581 1.495 . S
C2578 C2577 1.392 . S
C2578 C2579 1.385 . S
C2578 C2580 1.478 . S
C2579 H2573 0.930 . S
C2579 C2575 1.400 . S
C2579 C2578 1.385 . S
C2580 C2578 1.478 . S
C2580 C2582 1.381 . S
C2580 C2586 1.383 . S
C2581 C2577 1.495 . S
C2581 H2587 0.959 . S
C2581 H2588 0.961 . S
C2581 H2589 0.960 . S
C2582 C2580 1.381 . S
C2582 C2583 1.394 . S
C2582 H2590 0.930 . S
C2583 C2582 1.394 . S
C2583 C2584 1.383 . S
C2583 H2591 0.929 . S
C2584 C2583 1.383 . S
C2584 C2585 1.377 . S
C2585 H2569 0.930 . S
C2585 C2584 1.377 . S
C2585 C2586 1.379 . S
C2586 H2570 0.931 . S
C2586 C2580 1.383 . S
C2586 C2585 1.379 . S
H2587 C2581 0.959 . S
H2588 C2581 0.961 . S
H2589 C2581 0.960 . S
H2590 C2582 0.930 . S
H2591 C2583 0.929 . S
H2592 C2600 0.929 . S
H2593 C2602 0.930 . S
H2594 C2604 0.930 . S
H2595 C2607 0.929 . S
H2596 C2610 0.930 . S
H2597 C2612 0.960 . S
H2598 C2612 0.960 . S
H2599 C2612 0.960 . S
C2600 H2592 0.929 . S
C2600 C2601 1.377 . S
C2600 C2602 1.384 . S
C2601 C2600 1.377 . S
C2601 C2607 1.390 . S
C2602 H2593 0.930 . S
C2602 C2600 1.384 . S
C2602 C2603 1.372 . S
C2603 C2602 1.372 . S
C2603 C2604 1.400 . S
C2603 C2608 1.490 . S
C2604 H2594 0.930 . S
C2604 C2603 1.400 . S
C2604 C2607 1.386 . S
H2605 C2621 0.930 . S
H2606 C2622 0.931 . S
C2607 H2595 0.929 . S
C2607 C2601 1.390 . S
C2607 C2604 1.386 . S
C2608 C2603 1.490 . S
C2608 C2610 1.395 . S
C2608 C2611 1.403 . S
H2609 C2615 0.930 . S
C2610 H2596 0.930 . S
C2610 C2608 1.395 . S
C2610 C2613 1.403 . S
C2611 C2608 1.403 . S
C2611 C2612 1.524 . S
C2611 C2615 1.400 . S
C2612 H2597 0.960 . S
C2612 H2598 0.960 . S
C2612 H2599 0.960 . S
C2612 C2611 1.524 . S
C2613 C2610 1.403 . S
C2613 C2614 1.392 . S
C2613 C2617 1.495 . S
C2614 C2613 1.392 . S
C2614 C2615 1.385 . S
C2614 C2616 1.478 . S
C2615 H2609 0.930 . S
C2615 C2611 1.400 . S
C2615 C2614 1.385 . S
C2616 C2614 1.478 . S
C2616 C2618 1.381 . S
C2616 C2622 1.383 . S
C2617 C2613 1.495 . S
C2617 H2623 0.959 . S
C2617 H2624 0.961 . S
C2617 H2625 0.960 . S
C2618 C2616 1.381 . S
C2618 C2619 1.394 . S
C2618 H2626 0.930 . S
C2619 C2618 1.394 . S
C2619 C2620 1.383 . S
C2619 H2627 0.929 . S
C2620 C2619 1.383 . S
C2620 C2621 1.377 . S
C2621 H2605 0.930 . S
C2621 C2620 1.377 . S
C2621 C2622 1.379 . S
C2622 H2606 0.931 . S
C2622 C2616 1.383 . S
C2622 C2621 1.379 . S
H2623 C2617 0.959 . S
H2624 C2617 0.961 . S
H2625 C2617 0.960 . S
H2626 C2618 0.930 . S
H2627 C2619 0.929 . S
H2628 C2636 0.929 . S
H2629 C2638 0.930 . S
H2630 C2640 0.930 . S
H2631 C2643 0.929 . S
H2632 C2646 0.930 . S
H2633 C2648 0.960 . S
H2634 C2648 0.960 . S
H2635 C2648 0.960 . S
C2636 H2628 0.929 . S
C2636 C2637 1.377 . S
C2636 C2638 1.384 . S
C2637 C2636 1.377 . S
C2637 C2643 1.390 . S
C2638 H2629 0.930 . S
C2638 C2636 1.384 . S
C2638 C2639 1.372 . S
C2639 C2638 1.372 . S
C2639 C2640 1.400 . S
C2639 C2644 1.490 . S
C2640 H2630 0.930 . S
C2640 C2639 1.400 . S
C2640 C2643 1.386 . S
H2641 C2657 0.930 . S
H2642 C2658 0.931 . S
C2643 H2631 0.929 . S
C2643 C2637 1.390 . S
C2643 C2640 1.386 . S
C2644 C2639 1.490 . S
C2644 C2646 1.395 . S
C2644 C2647 1.403 . S
H2645 C2651 0.930 . S
C2646 H2632 0.930 . S
C2646 C2644 1.395 . S
C2646 C2649 1.403 . S
C2647 C2644 1.403 . S
C2647 C2648 1.524 . S
C2647 C2651 1.400 . S
C2648 H2633 0.960 . S
C2648 H2634 0.960 . S
C2648 H2635 0.960 . S
C2648 C2647 1.524 . S
C2649 C2646 1.403 . S
C2649 C2650 1.392 . S
C2649 C2653 1.495 . S
C2650 C2649 1.392 . S
C2650 C2651 1.385 . S
C2650 C2652 1.478 . S
C2651 H2645 0.930 . S
C2651 C2647 1.400 . S
C2651 C2650 1.385 . S
C2652 C2650 1.478 . S
C2652 C2654 1.381 . S
C2652 C2658 1.383 . S
C2653 C2649 1.495 . S
C2653 H2659 0.959 . S
C2653 H2660 0.961 . S
C2653 H2661 0.960 . S
C2654 C2652 1.381 . S
C2654 C2655 1.394 . S
C2654 H2662 0.930 . S
C2655 C2654 1.394 . S
C2655 C2656 1.383 . S
C2655 H2663 0.929 . S
C2656 C2655 1.383 . S
C2656 C2657 1.377 . S
C2657 H2641 0.930 . S
C2657 C2656 1.377 . S
C2657 C2658 1.379 . S
C2658 H2642 0.931 . S
C2658 C2652 1.383 . S
C2658 C2657 1.379 . S
H2659 C2653 0.959 . S
H2660 C2653 0.961 . S
H2661 C2653 0.960 . S
H2662 C2654 0.930 . S
H2663 C2655 0.929 . S
H2664 C2672 0.929 . S
H2665 C2674 0.930 . S
H2666 C2676 0.930 . S
H2667 C2679 0.929 . S
H2668 C2682 0.930 . S
H2669 C2684 0.960 . S
H2670 C2684 0.960 . S
H2671 C2684 0.960 . S
C2672 H2664 0.929 . S
C2672 C2673 1.377 . S
C2672 C2674 1.384 . S
C2673 C2672 1.377 . S
C2673 C2679 1.390 . S
C2674 H2665 0.930 . S
C2674 C2672 1.384 . S
C2674 C2675 1.372 . S
C2675 C2674 1.372 . S
C2675 C2676 1.400 . S
C2675 C2680 1.490 . S
C2676 H2666 0.930 . S
C2676 C2675 1.400 . S
C2676 C2679 1.386 . S
H2677 C2693 0.930 . S
H2678 C2694 0.931 . S
C2679 H2667 0.929 . S
C2679 C2673 1.390 . S
C2679 C2676 1.386 . S
C2680 C2675 1.490 . S
C2680 C2682 1.395 . S
C2680 C2683 1.403 . S
H2681 C2687 0.930 . S
C2682 H2668 0.930 . S
C2682 C2680 1.395 . S
C2682 C2685 1.403 . S
C2683 C2680 1.403 . S
C2683 C2684 1.524 . S
C2683 C2687 1.400 . S
C2684 H2669 0.960 . S
C2684 H2670 0.960 . S
C2684 H2671 0.960 . S
C2684 C2683 1.524 . S
C2685 C2682 1.403 . S
C2685 C2686 1.392 . S
C2685 C2689 1.495 . S
C2686 C2685 1.392 . S
C2686 C2687 1.385 . S
C2686 C2688 1.478 . S
C2687 H2681 0.930 . S
C2687 C2683 1.400 . S
C2687 C2686 1.385 . S
C2688 C2686 1.478 . S
C2688 C2690 1.381 . S
C2688 C2694 1.383 . S
C2689 C2685 1.495 . S
C2689 H2695 0.959 . S
C2689 H2696 0.961 . S
C2689 H2697 0.960 . S
C2690 C2688 1.381 . S
C2690 C2691 1.394 . S
C2690 H2698 0.930 . S
C2691 C2690 1.394 . S
C2691 C2692 1.383 . S
C2691 H2699 0.929 . S
C2692 C2691 1.383 . S
C2692 C2693 1.377 . S
C2693 H2677 0.930 . S
C2693 C2692 1.377 . S
C2693 C2694 1.379 . S
C2694 H2678 0.931 . S
C2694 C2688 1.383 . S
C2694 C2693 1.379 . S
H2695 C2689 0.959 . S
H2696 C2689 0.961 . S
H2697 C2689 0.960 . S
H2698 C2690 0.930 . S
H2699 C2691 0.929 . S
H2700 C2708 0.929 . S
H2701 C2710 0.930 . S
H2702 C2712 0.930 . S
H2703 C2715 0.929 . S
H2704 C2718 0.930 . S
H2705 C2720 0.960 . S
H2706 C2720 0.960 . S
H2707 C2720 0.960 . S
C2708 H2700 0.929 . S
C2708 C2709 1.377 . S
C2708 C2710 1.384 . S
C2709 C2708 1.377 . S
C2709 C2715 1.390 . S
C2710 H2701 0.930 . S
C2710 C2708 1.384 . S
C2710 C2711 1.372 . S
C2711 C2710 1.372 . S
C2711 C2712 1.400 . S
C2711 C2716 1.490 . S
C2712 H2702 0.930 . S
C2712 C2711 1.400 . S
C2712 C2715 1.386 . S
H2713 C2729 0.930 . S
H2714 C2730 0.931 . S
C2715 H2703 0.929 . S
C2715 C2709 1.390 . S
C2715 C2712 1.386 . S
C2716 C2711 1.490 . S
C2716 C2718 1.395 . S
C2716 C2719 1.403 . S
H2717 C2723 0.930 . S
C2718 H2704 0.930 . S
C2718 C2716 1.395 . S
C2718 C2721 1.403 . S
C2719 C2716 1.403 . S
C2719 C2720 1.524 . S
C2719 C2723 1.400 . S
C2720 H2705 0.960 . S
C2720 H2706 0.960 . S
C2720 H2707 0.960 . S
C2720 C2719 1.524 . S
C2721 C2718 1.403 . S
C2721 C2722 1.392 . S
C2721 C2725 1.495 . S
C2722 C2721 1.392 . S
C2722 C2723 1.385 . S
C2722 C2724 1.478 . S
C2723 H2717 0.930 . S
C2723 C2719 1.400 . S
C2723 C2722 1.385 . S
C2724 C2722 1.478 . S
C2724 C2726 1.381 . S
C2724 C2730 1.383 . S
C2725 C2721 1.495 . S
C2725 H2731 0.959 . S
C2725 H2732 0.961 . S
C2725 H2733 0.960 . S
C2726 C2724 1.381 . S
C2726 C2727 1.394 . S
C2726 H2734 0.930 . S
C2727 C2726 1.394 . S
C2727 C2728 1.383 . S
C2727 H2735 0.929 . S
C2728 C2727 1.383 . S
C2728 C2729 1.377 . S
C2729 H2713 0.930 . S
C2729 C2728 1.377 . S
C2729 C2730 1.379 . S
C2730 H2714 0.931 . S
C2730 C2724 1.383 . S
C2730 C2729 1.379 . S
H2731 C2725 0.959 . S
H2732 C2725 0.961 . S
H2733 C2725 0.960 . S
H2734 C2726 0.930 . S
H2735 C2727 0.929 . S
H2736 C2744 0.929 . S
H2737 C2746 0.930 . S
H2738 C2748 0.930 . S
H2739 C2751 0.929 . S
H2740 C2754 0.930 . S
H2741 C2756 0.960 . S
H2742 C2756 0.960 . S
H2743 C2756 0.960 . S
C2744 H2736 0.929 . S
C2744 C2745 1.377 . S
C2744 C2746 1.384 . S
C2745 C2744 1.377 . S
C2745 C2751 1.390 . S
C2746 H2737 0.930 . S
C2746 C2744 1.384 . S
C2746 C2747 1.372 . S
C2747 C2746 1.372 . S
C2747 C2748 1.400 . S
C2747 C2752 1.490 . S
C2748 H2738 0.930 . S
C2748 C2747 1.400 . S
C2748 C2751 1.386 . S
H2749 C2765 0.930 . S
H2750 C2766 0.931 . S
C2751 H2739 0.929 . S
C2751 C2745 1.390 . S
C2751 C2748 1.386 . S
C2752 C2747 1.490 . S
C2752 C2754 1.395 . S
C2752 C2755 1.403 . S
H2753 C2759 0.930 . S
C2754 H2740 0.930 . S
C2754 C2752 1.395 . S
C2754 C2757 1.403 . S
C2755 C2752 1.403 . S
C2755 C2756 1.524 . S
C2755 C2759 1.400 . S
C2756 H2741 0.960 . S
C2756 H2742 0.960 . S
C2756 H2743 0.960 . S
C2756 C2755 1.524 . S
C2757 C2754 1.403 . S
C2757 C2758 1.392 . S
C2757 C2761 1.495 . S
C2758 C2757 1.392 . S
C2758 C2759 1.385 . S
C2758 C2760 1.478 . S
C2759 H2753 0.930 . S
C2759 C2755 1.400 . S
C2759 C2758 1.385 . S
C2760 C2758 1.478 . S
C2760 C2762 1.381 . S
C2760 C2766 1.383 . S
C2761 C2757 1.495 . S
C2761 H2767 0.959 . S
C2761 H2768 0.961 . S
C2761 H2769 0.960 . S
C2762 C2760 1.381 . S
C2762 C2763 1.394 . S
C2762 H2770 0.930 . S
C2763 C2762 1.394 . S
C2763 C2764 1.383 . S
C2763 H2771 0.929 . S
C2764 C2763 1.383 . S
C2764 C2765 1.377 . S
C2765 H2749 0.930 . S
C2765 C2764 1.377 . S
C2765 C2766 1.379 . S
C2766 H2750 0.931 . S
C2766 C2760 1.383 . S
C2766 C2765 1.379 . S
H2767 C2761 0.959 . S
H2768 C2761 0.961 . S
H2769 C2761 0.960 . S
H2770 C2762 0.930 . S
H2771 C2763 0.929 . S
H2772 C2780 0.929 . S
H2773 C2782 0.930 . S
H2774 C2784 0.930 . S
H2775 C2787 0.929 . S
H2776 C2790 0.930 . S
H2777 C2792 0.960 . S
H2778 C2792 0.960 . S
H2779 C2792 0.960 . S
C2780 H2772 0.929 . S
C2780 C2781 1.377 . S
C2780 C2782 1.384 . S
C2781 C2780 1.377 . S
C2781 C2787 1.390 . S
C2782 H2773 0.930 . S
C2782 C2780 1.384 . S
C2782 C2783 1.372 . S
C2783 C2782 1.372 . S
C2783 C2784 1.400 . S
C2783 C2788 1.490 . S
C2784 H2774 0.930 . S
C2784 C2783 1.400 . S
C2784 C2787 1.386 . S
H2785 C2801 0.930 . S
H2786 C2802 0.931 . S
C2787 H2775 0.929 . S
C2787 C2781 1.390 . S
C2787 C2784 1.386 . S
C2788 C2783 1.490 . S
C2788 C2790 1.395 . S
C2788 C2791 1.403 . S
H2789 C2795 0.930 . S
C2790 H2776 0.930 . S
C2790 C2788 1.395 . S
C2790 C2793 1.403 . S
C2791 C2788 1.403 . S
C2791 C2792 1.524 . S
C2791 C2795 1.400 . S
C2792 H2777 0.960 . S
C2792 H2778 0.960 . S
C2792 H2779 0.960 . S
C2792 C2791 1.524 . S
C2793 C2790 1.403 . S
C2793 C2794 1.392 . S
C2793 C2797 1.495 . S
C2794 C2793 1.392 . S
C2794 C2795 1.385 . S
C2794 C2796 1.478 . S
C2795 H2789 0.930 . S
C2795 C2791 1.400 . S
C2795 C2794 1.385 . S
C2796 C2794 1.478 . S
C2796 C2798 1.381 . S
C2796 C2802 1.383 . S
C2797 C2793 1.495 . S
C2797 H2803 0.959 . S
C2797 H2804 0.961 . S
C2797 H2805 0.960 . S
C2798 C2796 1.381 . S
C2798 C2799 1.394 . S
C2798 H2806 0.930 . S
C2799 C2798 1.394 . S
C2799 C2800 1.383 . S
C2799 H2807 0.929 . S
C2800 C2799 1.383 . S
C2800 C2801 1.377 . S
C2801 H2785 0.930 . S
C2801 C2800 1.377 . S
C2801 C2802 1.379 . S
C2802 H2786 0.931 . S
C2802 C2796 1.383 . S
C2802 C2801 1.379 . S
H2803 C2797 0.959 . S
H2804 C2797 0.961 . S
H2805 C2797 0.960 . S
H2806 C2798 0.930 . S
H2807 C2799 0.929 . S
H2808 C2816 0.929 . S
H2809 C2818 0.930 . S
H2810 C2820 0.930 . S
H2811 C2823 0.929 . S
H2812 C2826 0.930 . S
H2813 C2828 0.960 . S
H2814 C2828 0.960 . S
H2815 C2828 0.960 . S
C2816 H2808 0.929 . S
C2816 C2817 1.377 . S
C2816 C2818 1.384 . S
C2817 C2816 1.377 . S
C2817 C2823 1.390 . S
C2818 H2809 0.930 . S
C2818 C2816 1.384 . S
C2818 C2819 1.372 . S
C2819 C2818 1.372 . S
C2819 C2820 1.400 . S
C2819 C2824 1.490 . S
C2820 H2810 0.930 . S
C2820 C2819 1.400 . S
C2820 C2823 1.386 . S
H2821 C2837 0.930 . S
H2822 C2838 0.931 . S
C2823 H2811 0.929 . S
C2823 C2817 1.390 . S
C2823 C2820 1.386 . S
C2824 C2819 1.490 . S
C2824 C2826 1.395 . S
C2824 C2827 1.403 . S
H2825 C2831 0.930 . S
C2826 H2812 0.930 . S
C2826 C2824 1.395 . S
C2826 C2829 1.403 . S
C2827 C2824 1.403 . S
C2827 C2828 1.524 . S
C2827 C2831 1.400 . S
C2828 H2813 0.960 . S
C2828 H2814 0.960 . S
C2828 H2815 0.960 . S
C2828 C2827 1.524 . S
C2829 C2826 1.403 . S
C2829 C2830 1.392 . S
C2829 C2833 1.495 . S
C2830 C2829 1.392 . S
C2830 C2831 1.385 . S
C2830 C2832 1.478 . S
C2831 H2825 0.930 . S
C2831 C2827 1.400 . S
C2831 C2830 1.385 . S
C2832 C2830 1.478 . S
C2832 C2834 1.381 . S
C2832 C2838 1.383 . S
C2833 C2829 1.495 . S
C2833 H2839 0.959 . S
C2833 H2840 0.961 . S
C2833 H2841 0.960 . S
C2834 C2832 1.381 . S
C2834 C2835 1.394 . S
C2834 H2842 0.930 . S
C2835 C2834 1.394 . S
C2835 C2836 1.383 . S
C2835 H2843 0.929 . S
C2836 C2835 1.383 . S
C2836 C2837 1.377 . S
C2837 H2821 0.930 . S
C2837 C2836 1.377 . S
C2837 C2838 1.379 . S
C2838 H2822 0.931 . S
C2838 C2832 1.383 . S
C2838 C2837 1.379 . S
H2839 C2833 0.959 . S
H2840 C2833 0.961 . S
H2841 C2833 0.960 . S
H2842 C2834 0.930 . S
H2843 C2835 0.929 . S
H2844 C2852 0.929 . S
H2845 C2854 0.930 . S
H2846 C2856 0.930 . S
H2847 C2859 0.929 . S
H2848 C2862 0.930 . S
H2849 C2864 0.960 . S
H2850 C2864 0.960 . S
H2851 C2864 0.960 . S
C2852 H2844 0.929 . S
C2852 C2853 1.377 . S
C2852 C2854 1.384 . S
C2853 C2852 1.377 . S
C2853 C2859 1.390 . S
C2854 H2845 0.930 . S
C2854 C2852 1.384 . S
C2854 C2855 1.372 . S
C2855 C2854 1.372 . S
C2855 C2856 1.400 . S
C2855 C2860 1.490 . S
C2856 H2846 0.930 . S
C2856 C2855 1.400 . S
C2856 C2859 1.386 . S
H2857 C2873 0.930 . S
H2858 C2874 0.931 . S
C2859 H2847 0.929 . S
C2859 C2853 1.390 . S
C2859 C2856 1.386 . S
C2860 C2855 1.490 . S
C2860 C2862 1.395 . S
C2860 C2863 1.403 . S
H2861 C2867 0.930 . S
C2862 H2848 0.930 . S
C2862 C2860 1.395 . S
C2862 C2865 1.403 . S
C2863 C2860 1.403 . S
C2863 C2864 1.524 . S
C2863 C2867 1.400 . S
C2864 H2849 0.960 . S
C2864 H2850 0.960 . S
C2864 H2851 0.960 . S
C2864 C2863 1.524 . S
C2865 C2862 1.403 . S
C2865 C2866 1.392 . S
C2865 C2869 1.495 . S
C2866 C2865 1.392 . S
C2866 C2867 1.385 . S
C2866 C2868 1.478 . S
C2867 H2861 0.930 . S
C2867 C2863 1.400 . S
C2867 C2866 1.385 . S
C2868 C2866 1.478 . S
C2868 C2870 1.381 . S
C2868 C2874 1.383 . S
C2869 C2865 1.495 . S
C2869 H2875 0.959 . S
C2869 H2876 0.961 . S
C2869 H2877 0.960 . S
C2870 C2868 1.381 . S
C2870 C2871 1.394 . S
C2870 H2878 0.930 . S
C2871 C2870 1.394 . S
C2871 C2872 1.383 . S
C2871 H2879 0.929 . S
C2872 C2871 1.383 . S
C2872 C2873 1.377 . S
C2873 H2857 0.930 . S
C2873 C2872 1.377 . S
C2873 C2874 1.379 . S
C2874 H2858 0.931 . S
C2874 C2868 1.383 . S
C2874 C2873 1.379 . S
H2875 C2869 0.959 . S
H2876 C2869 0.961 . S
H2877 C2869 0.960 . S
H2878 C2870 0.930 . S
H2879 C2871 0.929 . S
H2880 C2888 0.929 . S
H2881 C2890 0.930 . S
H2882 C2892 0.930 . S
H2883 C2895 0.929 . S
H2884 C2898 0.930 . S
H2885 C2900 0.960 . S
H2886 C2900 0.960 . S
H2887 C2900 0.960 . S
C2888 H2880 0.929 . S
C2888 C2889 1.377 . S
C2888 C2890 1.384 . S
C2889 C2888 1.377 . S
C2889 C2895 1.390 . S
C2890 H2881 0.930 . S
C2890 C2888 1.384 . S
C2890 C2891 1.372 . S
C2891 C2890 1.372 . S
C2891 C2892 1.400 . S
C2891 C2896 1.490 . S
C2892 H2882 0.930 . S
C2892 C2891 1.400 . S
C2892 C2895 1.386 . S
H2893 C2909 0.930 . S
H2894 C2910 0.931 . S
C2895 H2883 0.929 . S
C2895 C2889 1.390 . S
C2895 C2892 1.386 . S
C2896 C2891 1.490 . S
C2896 C2898 1.395 . S
C2896 C2899 1.403 . S
H2897 C2903 0.930 . S
C2898 H2884 0.930 . S
C2898 C2896 1.395 . S
C2898 C2901 1.403 . S
C2899 C2896 1.403 . S
C2899 C2900 1.524 . S
C2899 C2903 1.400 . S
C2900 H2885 0.960 . S
C2900 H2886 0.960 . S
C2900 H2887 0.960 . S
C2900 C2899 1.524 . S
C2901 C2898 1.403 . S
C2901 C2902 1.392 . S
C2901 C2905 1.495 . S
C2902 C2901 1.392 . S
C2902 C2903 1.385 . S
C2902 C2904 1.478 . S
C2903 H2897 0.930 . S
C2903 C2899 1.400 . S
C2903 C2902 1.385 . S
C2904 C2902 1.478 . S
C2904 C2906 1.381 . S
C2904 C2910 1.383 . S
C2905 C2901 1.495 . S
C2905 H2911 0.959 . S
C2905 H2912 0.961 . S
C2905 H2913 0.960 . S
C2906 C2904 1.381 . S
C2906 C2907 1.394 . S
C2906 H2914 0.930 . S
C2907 C2906 1.394 . S
C2907 C2908 1.383 . S
C2907 H2915 0.929 . S
C2908 C2907 1.383 . S
C2908 C2909 1.377 . S
C2909 H2893 0.930 . S
C2909 C2908 1.377 . S
C2909 C2910 1.379 . S
C2910 H2894 0.931 . S
C2910 C2904 1.383 . S
C2910 C2909 1.379 . S
H2911 C2905 0.959 . S
H2912 C2905 0.961 . S
H2913 C2905 0.960 . S
H2914 C2906 0.930 . S
H2915 C2907 0.929 . S
H2916 C2924 0.929 . S
H2917 C2926 0.930 . S
H2918 C2928 0.930 . S
H2919 C2931 0.929 . S
H2920 C2934 0.930 . S
H2921 C2936 0.960 . S
H2922 C2936 0.960 . S
H2923 C2936 0.960 . S
C2924 H2916 0.929 . S
C2924 C2925 1.377 . S
C2924 C2926 1.384 . S
C2925 C2924 1.377 . S
C2925 C2931 1.390 . S
C2926 H2917 0.930 . S
C2926 C2924 1.384 . S
C2926 C2927 1.372 . S
C2927 C2926 1.372 . S
C2927 C2928 1.400 . S
C2927 C2932 1.490 . S
C2928 H2918 0.930 . S
C2928 C2927 1.400 . S
C2928 C2931 1.386 . S
H2929 C2945 0.930 . S
H2930 C2946 0.931 . S
C2931 H2919 0.929 . S
C2931 C2925 1.390 . S
C2931 C2928 1.386 . S
C2932 C2927 1.490 . S
C2932 C2934 1.395 . S
C2932 C2935 1.403 . S
H2933 C2939 0.930 . S
C2934 H2920 0.930 . S
C2934 C2932 1.395 . S
C2934 C2937 1.403 . S
C2935 C2932 1.403 . S
C2935 C2936 1.524 . S
C2935 C2939 1.400 . S
C2936 H2921 0.960 . S
C2936 H2922 0.960 . S
C2936 H2923 0.960 . S
C2936 C2935 1.524 . S
C2937 C2934 1.403 . S
C2937 C2938 1.392 . S
C2937 C2941 1.495 . S
C2938 C2937 1.392 . S
C2938 C2939 1.385 . S
C2938 C2940 1.478 . S
C2939 H2933 0.930 . S
C2939 C2935 1.400 . S
C2939 C2938 1.385 . S
C2940 C2938 1.478 . S
C2940 C2942 1.381 . S
C2940 C2946 1.383 . S
C2941 C2937 1.495 . S
C2941 H2947 0.959 . S
C2941 H2948 0.961 . S
C2941 H2949 0.960 . S
C2942 C2940 1.381 . S
C2942 C2943 1.394 . S
C2942 H2950 0.930 . S
C2943 C2942 1.394 . S
C2943 C2944 1.383 . S
C2943 H2951 0.929 . S
C2944 C2943 1.383 . S
C2944 C2945 1.377 . S
C2945 H2929 0.930 . S
C2945 C2944 1.377 . S
C2945 C2946 1.379 . S
C2946 H2930 0.931 . S
C2946 C2940 1.383 . S
C2946 C2945 1.379 . S
H2947 C2941 0.959 . S
H2948 C2941 0.961 . S
H2949 C2941 0.960 . S
H2950 C2942 0.930 . S
H2951 C2943 0.929 . S
H2952 C2960 0.929 . S
H2953 C2962 0.930 . S
H2954 C2964 0.930 . S
H2955 C2967 0.929 . S
H2956 C2970 0.930 . S
H2957 C2972 0.960 . S
H2958 C2972 0.960 . S
H2959 C2972 0.960 . S
C2960 H2952 0.929 . S
C2960 C2961 1.377 . S
C2960 C2962 1.384 . S
C2961 C2960 1.377 . S
C2961 C2967 1.390 . S
C2962 H2953 0.930 . S
C2962 C2960 1.384 . S
C2962 C2963 1.372 . S
C2963 C2962 1.372 . S
C2963 C2964 1.400 . S
C2963 C2968 1.490 . S
C2964 H2954 0.930 . S
C2964 C2963 1.400 . S
C2964 C2967 1.386 . S
H2965 C2981 0.930 . S
H2966 C2982 0.931 . S
C2967 H2955 0.929 . S
C2967 C2961 1.390 . S
C2967 C2964 1.386 . S
C2968 C2963 1.490 . S
C2968 C2970 1.395 . S
C2968 C2971 1.403 . S
H2969 C2975 0.930 . S
C2970 H2956 0.930 . S
C2970 C2968 1.395 . S
C2970 C2973 1.403 . S
C2971 C2968 1.403 . S
C2971 C2972 1.524 . S
C2971 C2975 1.400 . S
C2972 H2957 0.960 . S
C2972 H2958 0.960 . S
C2972 H2959 0.960 . S
C2972 C2971 1.524 . S
C2973 C2970 1.403 . S
C2973 C2974 1.392 . S
C2973 C2977 1.495 . S
C2974 C2973 1.392 . S
C2974 C2975 1.385 . S
C2974 C2976 1.478 . S
C2975 H2969 0.930 . S
C2975 C2971 1.400 . S
C2975 C2974 1.385 . S
C2976 C2974 1.478 . S
C2976 C2978 1.381 . S
C2976 C2982 1.383 . S
C2977 C2973 1.495 . S
C2977 H2983 0.959 . S
C2977 H2984 0.961 . S
C2977 H2985 0.960 . S
C2978 C2976 1.381 . S
C2978 C2979 1.394 . S
C2978 H2986 0.930 . S
C2979 C2978 1.394 . S
C2979 C2980 1.383 . S
C2979 H2987 0.929 . S
C2980 C2979 1.383 . S
C2980 C2981 1.377 . S
C2981 H2965 0.930 . S
C2981 C2980 1.377 . S
C2981 C2982 1.379 . S
C2982 H2966 0.931 . S
C2982 C2976 1.383 . S
C2982 C2981 1.379 . S
H2983 C2977 0.959 . S
H2984 C2977 0.961 . S
H2985 C2977 0.960 . S
H2986 C2978 0.930 . S
H2987 C2979 0.929 . S
H2988 C2996 0.929 . S
H2989 C2998 0.930 . S
H2990 C3000 0.930 . S
H2991 C3003 0.929 . S
H2992 C3006 0.930 . S
H2993 C3008 0.960 . S
H2994 C3008 0.960 . S
H2995 C3008 0.960 . S
C2996 H2988 0.929 . S
C2996 C2997 1.377 . S
C2996 C2998 1.384 . S
C2997 C2996 1.377 . S
C2997 C3003 1.390 . S
C2998 H2989 0.930 . S
C2998 C2996 1.384 . S
C2998 C2999 1.372 . S
C2999 C2998 1.372 . S
C2999 C3000 1.400 . S
C2999 C3004 1.490 . S
C3000 H2990 0.930 . S
C3000 C2999 1.400 . S
C3000 C3003 1.386 . S
H3001 C3017 0.930 . S
H3002 C3018 0.931 . S
C3003 H2991 0.929 . S
C3003 C2997 1.390 . S
C3003 C3000 1.386 . S
C3004 C2999 1.490 . S
C3004 C3006 1.395 . S
C3004 C3007 1.403 . S
H3005 C3011 0.930 . S
C3006 H2992 0.930 . S
C3006 C3004 1.395 . S
C3006 C3009 1.403 . S
C3007 C3004 1.403 . S
C3007 C3008 1.524 . S
C3007 C3011 1.400 . S
C3008 H2993 0.960 . S
C3008 H2994 0.960 . S
C3008 H2995 0.960 . S
C3008 C3007 1.524 . S
C3009 C3006 1.403 . S
C3009 C3010 1.392 . S
C3009 C3013 1.495 . S
C3010 C3009 1.392 . S
C3010 C3011 1.385 . S
C3010 C3012 1.478 . S
C3011 H3005 0.930 . S
C3011 C3007 1.400 . S
C3011 C3010 1.385 . S
C3012 C3010 1.478 . S
C3012 C3014 1.381 . S
C3012 C3018 1.383 . S
C3013 C3009 1.495 . S
C3013 H3019 0.959 . S
C3013 H3020 0.961 . S
C3013 H3021 0.960 . S
C3014 C3012 1.381 . S
C3014 C3015 1.394 . S
C3014 H3022 0.930 . S
C3015 C3014 1.394 . S
C3015 C3016 1.383 . S
C3015 H3023 0.929 . S
C3016 C3015 1.383 . S
C3016 C3017 1.377 . S
C3017 H3001 0.930 . S
C3017 C3016 1.377 . S
C3017 C3018 1.379 . S
C3018 H3002 0.931 . S
C3018 C3012 1.383 . S
C3018 C3017 1.379 . S
H3019 C3013 0.959 . S
H3020 C3013 0.961 . S
H3021 C3013 0.960 . S
H3022 C3014 0.930 . S
H3023 C3015 0.929 . S
H3024 C3032 0.929 . S
H3025 C3034 0.930 . S
H3026 C3036 0.930 . S
H3027 C3039 0.929 . S
H3028 C3042 0.930 . S
H3029 C3044 0.960 . S
H3030 C3044 0.960 . S
H3031 C3044 0.960 . S
C3032 H3024 0.929 . S
C3032 C3033 1.377 . S
C3032 C3034 1.384 . S
C3033 C3032 1.377 . S
C3033 C3039 1.390 . S
C3034 H3025 0.930 . S
C3034 C3032 1.384 . S
C3034 C3035 1.372 . S
C3035 C3034 1.372 . S
C3035 C3036 1.400 . S
C3035 C3040 1.490 . S
C3036 H3026 0.930 . S
C3036 C3035 1.400 . S
C3036 C3039 1.386 . S
H3037 C3053 0.930 . S
H3038 C3054 0.931 . S
C3039 H3027 0.929 . S
C3039 C3033 1.390 . S
C3039 C3036 1.386 . S
C3040 C3035 1.490 . S
C3040 C3042 1.395 . S
C3040 C3043 1.403 . S
H3041 C3047 0.930 . S
C3042 H3028 0.930 . S
C3042 C3040 1.395 . S
C3042 C3045 1.403 . S
C3043 C3040 1.403 . S
C3043 C3044 1.524 . S
C3043 C3047 1.400 . S
C3044 H3029 0.960 . S
C3044 H3030 0.960 . S
C3044 H3031 0.960 . S
C3044 C3043 1.524 . S
C3045 C3042 1.403 . S
C3045 C3046 1.392 . S
C3045 C3049 1.495 . S
C3046 C3045 1.392 . S
C3046 C3047 1.385 . S
C3046 C3048 1.478 . S
C3047 H3041 0.930 . S
C3047 C3043 1.400 . S
C3047 C3046 1.385 . S
C3048 C3046 1.478 . S
C3048 C3050 1.381 . S
C3048 C3054 1.383 . S
C3049 C3045 1.495 . S
C3049 H3055 0.959 . S
C3049 H3056 0.961 . S
C3049 H3057 0.960 . S
C3050 C3048 1.381 . S
C3050 C3051 1.394 . S
C3050 H3058 0.930 . S
C3051 C3050 1.394 . S
C3051 C3052 1.383 . S
C3051 H3059 0.929 . S
C3052 C3051 1.383 . S
C3052 C3053 1.377 . S
C3053 H3037 0.930 . S
C3053 C3052 1.377 . S
C3053 C3054 1.379 . S
C3054 H3038 0.931 . S
C3054 C3048 1.383 . S
C3054 C3053 1.379 . S
H3055 C3049 0.959 . S
H3056 C3049 0.961 . S
H3057 C3049 0.960 . S
H3058 C3050 0.930 . S
H3059 C3051 0.929 . S
H3060 C3068 0.929 . S
H3061 C3070 0.930 . S
H3062 C3072 0.930 . S
H3063 C3075 0.929 . S
H3064 C3078 0.930 . S
H3065 C3080 0.960 . S
H3066 C3080 0.960 . S
H3067 C3080 0.960 . S
C3068 H3060 0.929 . S
C3068 C3069 1.377 . S
C3068 C3070 1.384 . S
C3069 C3068 1.377 . S
C3069 C3075 1.390 . S
C3070 H3061 0.930 . S
C3070 C3068 1.384 . S
C3070 C3071 1.372 . S
C3071 C3070 1.372 . S
C3071 C3072 1.400 . S
C3071 C3076 1.490 . S
C3072 H3062 0.930 . S
C3072 C3071 1.400 . S
C3072 C3075 1.386 . S
H3073 C3089 0.930 . S
H3074 C3090 0.931 . S
C3075 H3063 0.929 . S
C3075 C3069 1.390 . S
C3075 C3072 1.386 . S
C3076 C3071 1.490 . S
C3076 C3078 1.395 . S
C3076 C3079 1.403 . S
H3077 C3083 0.930 . S
C3078 H3064 0.930 . S
C3078 C3076 1.395 . S
C3078 C3081 1.403 . S
C3079 C3076 1.403 . S
C3079 C3080 1.524 . S
C3079 C3083 1.400 . S
C3080 H3065 0.960 . S
C3080 H3066 0.960 . S
C3080 H3067 0.960 . S
C3080 C3079 1.524 . S
C3081 C3078 1.403 . S
C3081 C3082 1.392 . S
C3081 C3085 1.495 . S
C3082 C3081 1.392 . S
C3082 C3083 1.385 . S
C3082 C3084 1.478 . S
C3083 H3077 0.930 . S
C3083 C3079 1.400 . S
C3083 C3082 1.385 . S
C3084 C3082 1.478 . S
C3084 C3086 1.381 . S
C3084 C3090 1.383 . S
C3085 C3081 1.495 . S
C3085 H3091 0.959 . S
C3085 H3092 0.961 . S
C3085 H3093 0.960 . S
C3086 C3084 1.381 . S
C3086 C3087 1.394 . S
C3086 H3094 0.930 . S
C3087 C3086 1.394 . S
C3087 C3088 1.383 . S
C3087 H3095 0.929 . S
C3088 C3087 1.383 . S
C3088 C3089 1.377 . S
C3089 H3073 0.930 . S
C3089 C3088 1.377 . S
C3089 C3090 1.379 . S
C3090 H3074 0.931 . S
C3090 C3084 1.383 . S
C3090 C3089 1.379 . S
H3091 C3085 0.959 . S
H3092 C3085 0.961 . S
H3093 C3085 0.960 . S
H3094 C3086 0.930 . S
H3095 C3087 0.929 . S
H3096 C3104 0.929 . S
H3097 C3106 0.930 . S
H3098 C3108 0.930 . S
H3099 C3111 0.929 . S
H3100 C3114 0.930 . S
H3101 C3116 0.960 . S
H3102 C3116 0.960 . S
H3103 C3116 0.960 . S
C3104 H3096 0.929 . S
C3104 C3105 1.377 . S
C3104 C3106 1.384 . S
C3105 C3104 1.377 . S
C3105 C3111 1.390 . S
C3106 H3097 0.930 . S
C3106 C3104 1.384 . S
C3106 C3107 1.372 . S
C3107 C3106 1.372 . S
C3107 C3108 1.400 . S
C3107 C3112 1.490 . S
C3108 H3098 0.930 . S
C3108 C3107 1.400 . S
C3108 C3111 1.386 . S
H3109 C3125 0.930 . S
H3110 C3126 0.931 . S
C3111 H3099 0.929 . S
C3111 C3105 1.390 . S
C3111 C3108 1.386 . S
C3112 C3107 1.490 . S
C3112 C3114 1.395 . S
C3112 C3115 1.403 . S
H3113 C3119 0.930 . S
C3114 H3100 0.930 . S
C3114 C3112 1.395 . S
C3114 C3117 1.403 . S
C3115 C3112 1.403 . S
C3115 C3116 1.524 . S
C3115 C3119 1.400 . S
C3116 H3101 0.960 . S
C3116 H3102 0.960 . S
C3116 H3103 0.960 . S
C3116 C3115 1.524 . S
C3117 C3114 1.403 . S
C3117 C3118 1.392 . S
C3117 C3121 1.495 . S
C3118 C3117 1.392 . S
C3118 C3119 1.385 . S
C3118 C3120 1.478 . S
C3119 H3113 0.930 . S
C3119 C3115 1.400 . S
C3119 C3118 1.385 . S
C3120 C3118 1.478 . S
C3120 C3122 1.381 . S
C3120 C3126 1.383 . S
C3121 C3117 1.495 . S
C3121 H3127 0.959 . S
C3121 H3128 0.961 . S
C3121 H3129 0.960 . S
C3122 C3120 1.381 . S
C3122 C3123 1.394 . S
C3122 H3130 0.930 . S
C3123 C3122 1.394 . S
C3123 C3124 1.383 . S
C3123 H3131 0.929 . S
C3124 C3123 1.383 . S
C3124 C3125 1.377 . S
C3125 H3109 0.930 . S
C3125 C3124 1.377 . S
C3125 C3126 1.379 . S
C3126 H3110 0.931 . S
C3126 C3120 1.383 . S
C3126 C3125 1.379 . S
H3127 C3121 0.959 . S
H3128 C3121 0.961 . S
H3129 C3121 0.960 . S
H3130 C3122 0.930 . S
H3131 C3123 0.929 . S
H3132 C3140 0.929 . S
H3133 C3142 0.930 . S
H3134 C3144 0.930 . S
H3135 C3147 0.929 . S
H3136 C3150 0.930 . S
H3137 C3152 0.960 . S
H3138 C3152 0.960 . S
H3139 C3152 0.960 . S
C3140 H3132 0.929 . S
C3140 C3141 1.377 . S
C3140 C3142 1.384 . S
C3141 C3140 1.377 . S
C3141 C3147 1.390 . S
C3142 H3133 0.930 . S
C3142 C3140 1.384 . S
C3142 C3143 1.372 . S
C3143 C3142 1.372 . S
C3143 C3144 1.400 . S
C3143 C3148 1.490 . S
C3144 H3134 0.930 . S
C3144 C3143 1.400 . S
C3144 C3147 1.386 . S
H3145 C3161 0.930 . S
H3146 C3162 0.931 . S
C3147 H3135 0.929 . S
C3147 C3141 1.390 . S
C3147 C3144 1.386 . S
C3148 C3143 1.490 . S
C3148 C3150 1.395 . S
C3148 C3151 1.403 . S
H3149 C3155 0.930 . S
C3150 H3136 0.930 . S
C3150 C3148 1.395 . S
C3150 C3153 1.403 . S
C3151 C3148 1.403 . S
C3151 C3152 1.524 . S
C3151 C3155 1.400 . S
C3152 H3137 0.960 . S
C3152 H3138 0.960 . S
C3152 H3139 0.960 . S
C3152 C3151 1.524 . S
C3153 C3150 1.403 . S
C3153 C3154 1.392 . S
C3153 C3157 1.495 . S
C3154 C3153 1.392 . S
C3154 C3155 1.385 . S
C3154 C3156 1.478 . S
C3155 H3149 0.930 . S
C3155 C3151 1.400 . S
C3155 C3154 1.385 . S
C3156 C3154 1.478 . S
C3156 C3158 1.381 . S
C3156 C3162 1.383 . S
C3157 C3153 1.495 . S
C3157 H3163 0.959 . S
C3157 H3164 0.961 . S
C3157 H3165 0.960 . S
C3158 C3156 1.381 . S
C3158 C3159 1.394 . S
C3158 H3166 0.930 . S
C3159 C3158 1.394 . S
C3159 C3160 1.383 . S
C3159 H3167 0.929 . S
C3160 C3159 1.383 . S
C3160 C3161 1.377 . S
C3161 H3145 0.930 . S
C3161 C3160 1.377 . S
C3161 C3162 1.379 . S
C3162 H3146 0.931 . S
C3162 C3156 1.383 . S
C3162 C3161 1.379 . S
H3163 C3157 0.959 . S
H3164 C3157 0.961 . S
H3165 C3157 0.960 . S
H3166 C3158 0.930 . S
H3167 C3159 0.929 . S
H3168 C3176 0.929 1_554 S
H3169 C3178 0.930 . S
H3170 C3180 0.930 . S
H3171 C3183 0.929 . S
H3172 C3186 0.930 . S
H3173 C3188 0.960 . S
H3174 C3188 0.960 1_554 S
H3175 C3188 0.960 . S
C3176 H3168 0.929 1_556 S
C3176 C3177 1.377 . S
C3176 C3178 1.384 . S
C3177 C3176 1.377 . S
C3177 C3183 1.390 . S
C3178 H3169 0.930 . S
C3178 C3176 1.384 . S
C3178 C3179 1.372 . S
C3179 C3178 1.372 . S
C3179 C3180 1.400 . S
C3179 C3184 1.490 . S
C3180 H3170 0.930 . S
C3180 C3179 1.400 . S
C3180 C3183 1.386 . S
H3181 C3197 0.930 . S
H3182 C3198 0.931 . S
C3183 H3171 0.929 . S
C3183 C3177 1.390 . S
C3183 C3180 1.386 . S
C3184 C3179 1.490 . S
C3184 C3186 1.395 . S
C3184 C3187 1.403 . S
H3185 C3191 0.930 . S
C3186 H3172 0.930 . S
C3186 C3184 1.395 . S
C3186 C3189 1.403 . S
C3187 C3184 1.403 . S
C3187 C3188 1.524 . S
C3187 C3191 1.400 . S
C3188 H3173 0.960 . S
C3188 H3174 0.960 1_556 S
C3188 H3175 0.960 . S
C3188 C3187 1.524 . S
C3189 C3186 1.403 . S
C3189 C3190 1.392 . S
C3189 C3193 1.495 . S
C3190 C3189 1.392 . S
C3190 C3191 1.385 . S
C3190 C3192 1.478 . S
C3191 H3185 0.930 . S
C3191 C3187 1.400 . S
C3191 C3190 1.385 . S
C3192 C3190 1.478 . S
C3192 C3194 1.381 . S
C3192 C3198 1.383 . S
C3193 C3189 1.495 . S
C3193 H3199 0.959 . S
C3193 H3200 0.961 . S
C3193 H3201 0.960 . S
C3194 C3192 1.381 . S
C3194 C3195 1.394 . S
C3194 H3202 0.930 . S
C3195 C3194 1.394 . S
C3195 C3196 1.383 . S
C3195 H3203 0.929 . S
C3196 C3195 1.383 . S
C3196 C3197 1.377 . S
C3197 H3181 0.930 . S
C3197 C3196 1.377 . S
C3197 C3198 1.379 . S
C3198 H3182 0.931 . S
C3198 C3192 1.383 . S
C3198 C3197 1.379 . S
H3199 C3193 0.959 . S
H3200 C3193 0.961 . S
H3201 C3193 0.960 . S
H3202 C3194 0.930 . S
H3203 C3195 0.929 . S
H3204 C3212 0.929 1_554 S
H3205 C3214 0.930 . S
H3206 C3216 0.930 . S
H3207 C3219 0.929 . S
H3208 C3222 0.930 . S
H3209 C3224 0.960 . S
H3210 C3224 0.960 . S
H3211 C3224 0.960 . S
C3212 H3204 0.929 1_556 S
C3212 C3213 1.377 . S
C3212 C3214 1.384 . S
C3213 C3212 1.377 . S
C3213 C3219 1.390 . S
C3214 H3205 0.930 . S
C3214 C3212 1.384 . S
C3214 C3215 1.372 . S
C3215 C3214 1.372 . S
C3215 C3216 1.400 . S
C3215 C3220 1.490 . S
C3216 H3206 0.930 . S
C3216 C3215 1.400 . S
C3216 C3219 1.386 . S
H3217 C3233 0.930 . S
H3218 C3234 0.931 . S
C3219 H3207 0.929 . S
C3219 C3213 1.390 . S
C3219 C3216 1.386 . S
C3220 C3215 1.490 . S
C3220 C3222 1.395 . S
C3220 C3223 1.403 . S
H3221 C3227 0.930 . S
C3222 H3208 0.930 . S
C3222 C3220 1.395 . S
C3222 C3225 1.403 . S
C3223 C3220 1.403 . S
C3223 C3224 1.524 . S
C3223 C3227 1.400 . S
C3224 H3209 0.960 . S
C3224 H3210 0.960 . S
C3224 H3211 0.960 . S
C3224 C3223 1.524 . S
C3225 C3222 1.403 . S
C3225 C3226 1.392 . S
C3225 C3229 1.495 . S
C3226 C3225 1.392 . S
C3226 C3227 1.385 . S
C3226 C3228 1.478 . S
C3227 H3221 0.930 . S
C3227 C3223 1.400 . S
C3227 C3226 1.385 . S
C3228 C3226 1.478 . S
C3228 C3230 1.381 . S
C3228 C3234 1.383 . S
C3229 C3225 1.495 . S
C3229 H3235 0.959 . S
C3229 H3236 0.961 . S
C3229 H3237 0.960 . S
C3230 C3228 1.381 . S
C3230 C3231 1.394 . S
C3230 H3238 0.930 . S
C3231 C3230 1.394 . S
C3231 C3232 1.383 . S
C3231 H3239 0.929 . S
C3232 C3231 1.383 . S
C3232 C3233 1.377 . S
C3233 H3217 0.930 . S
C3233 C3232 1.377 . S
C3233 C3234 1.379 . S
C3234 H3218 0.931 . S
C3234 C3228 1.383 . S
C3234 C3233 1.379 . S
H3235 C3229 0.959 . S
H3236 C3229 0.961 . S
H3237 C3229 0.960 . S
H3238 C3230 0.930 . S
H3239 C3231 0.929 . S
H3240 C3248 0.886 1_554 S
H3241 C3250 0.930 1_554 S
H3242 C3252 0.930 . S
H3243 C3255 0.929 . S
H3244 C3258 0.930 . S
H3245 C3260 0.960 . S
H3246 C3260 0.960 . S
H3247 C3260 0.960 . S
C3248 H3240 0.886 1_556 S
C3248 C3249 1.404 . S
C3248 C3250 1.401 . S
C3249 C3248 1.404 . S
C3249 C3255 1.390 . S
C3250 H3241 0.930 1_556 S
C3250 C3248 1.401 . S
C3250 C3251 1.372 . S
C3251 C3250 1.372 . S
C3251 C3252 1.400 . S
C3251 C3256 1.490 . S
C3252 H3242 0.930 . S
C3252 C3251 1.400 . S
C3252 C3255 1.386 . S
H3253 C3269 0.930 . S
H3254 C3270 0.931 . S
C3255 H3243 0.929 . S
C3255 C3249 1.390 . S
C3255 C3252 1.386 . S
C3256 C3251 1.490 . S
C3256 C3258 1.395 . S
C3256 C3259 1.403 . S
H3257 C3263 0.930 . S
C3258 H3244 0.930 . S
C3258 C3256 1.395 . S
C3258 C3261 1.403 . S
C3259 C3256 1.403 . S
C3259 C3260 1.524 . S
C3259 C3263 1.400 . S
C3260 H3245 0.960 . S
C3260 H3246 0.960 . S
C3260 H3247 0.960 . S
C3260 C3259 1.524 . S
C3261 C3258 1.403 . S
C3261 C3262 1.392 . S
C3261 C3265 1.495 . S
C3262 C3261 1.392 . S
C3262 C3263 1.385 . S
C3262 C3264 1.478 . S
C3263 H3257 0.930 . S
C3263 C3259 1.400 . S
C3263 C3262 1.385 . S
C3264 C3262 1.478 . S
C3264 C3266 1.381 . S
C3264 C3270 1.383 . S
C3265 C3261 1.495 . S
C3265 H3271 0.959 . S
C3265 H3272 0.961 . S
C3265 H3273 0.960 . S
C3266 C3264 1.381 . S
C3266 C3267 1.394 . S
C3266 H3274 0.930 . S
C3267 C3266 1.394 . S
C3267 C3268 1.383 . S
C3267 H3275 0.929 . S
C3268 C3267 1.383 . S
C3268 C3269 1.377 . S
C3269 H3253 0.930 . S
C3269 C3268 1.377 . S
C3269 C3270 1.379 . S
C3270 H3254 0.931 . S
C3270 C3264 1.383 . S
C3270 C3269 1.379 . S
H3271 C3265 0.959 . S
H3272 C3265 0.961 . S
H3273 C3265 0.960 . S
H3274 C3266 0.930 . S
H3275 C3267 0.929 . S
H3276 C3284 0.929 1_554 S
H3277 C3286 0.930 . S
H3278 C3288 0.930 . S
H3279 C3291 0.929 . S
H3280 C3294 0.930 . S
H3281 C3296 0.960 . S
H3282 C3296 0.960 . S
H3283 C3296 0.960 . S
C3284 H3276 0.929 1_556 S
C3284 C3285 1.377 . S
C3284 C3286 1.384 . S
C3285 C3284 1.377 . S
C3285 C3291 1.390 . S
C3286 H3277 0.930 . S
C3286 C3284 1.384 . S
C3286 C3287 1.372 . S
C3287 C3286 1.372 . S
C3287 C3288 1.400 . S
C3287 C3292 1.490 . S
C3288 H3278 0.930 . S
C3288 C3287 1.400 . S
C3288 C3291 1.386 . S
H3289 C3305 0.930 . S
H3290 C3306 0.931 . S
C3291 H3279 0.929 . S
C3291 C3285 1.390 . S
C3291 C3288 1.386 . S
C3292 C3287 1.490 . S
C3292 C3294 1.395 . S
C3292 C3295 1.403 . S
H3293 C3299 0.930 . S
C3294 H3280 0.930 . S
C3294 C3292 1.395 . S
C3294 C3297 1.403 . S
C3295 C3292 1.403 . S
C3295 C3296 1.524 . S
C3295 C3299 1.400 . S
C3296 H3281 0.960 . S
C3296 H3282 0.960 . S
C3296 H3283 0.960 . S
C3296 C3295 1.524 . S
C3297 C3294 1.403 . S
C3297 C3298 1.392 . S
C3297 C3301 1.495 . S
C3298 C3297 1.392 . S
C3298 C3299 1.385 . S
C3298 C3300 1.478 . S
C3299 H3293 0.930 . S
C3299 C3295 1.400 . S
C3299 C3298 1.385 . S
C3300 C3298 1.478 . S
C3300 C3302 1.381 . S
C3300 C3306 1.383 . S
C3301 C3297 1.495 . S
C3301 H3307 0.959 . S
C3301 H3308 0.961 . S
C3301 H3309 0.960 . S
C3302 C3300 1.381 . S
C3302 C3303 1.394 . S
C3302 H3310 0.930 . S
C3303 C3302 1.394 . S
C3303 C3304 1.383 . S
C3303 H3311 0.929 . S
C3304 C3303 1.383 . S
C3304 C3305 1.377 . S
C3305 H3289 0.930 . S
C3305 C3304 1.377 . S
C3305 C3306 1.379 . S
C3306 H3290 0.931 . S
C3306 C3300 1.383 . S
C3306 C3305 1.379 . S
H3307 C3301 0.959 . S
H3308 C3301 0.961 . S
H3309 C3301 0.960 . S
H3310 C3302 0.930 . S
H3311 C3303 0.929 . S
H3312 C3320 0.929 . S
H3313 C3322 0.930 . S
H3314 C3324 0.930 . S
H3315 C3327 0.929 1_554 S
H3316 C3330 0.930 . S
H3317 C3332 0.960 . S
H3318 C3332 0.960 . S
H3319 C3332 0.960 . S
C3320 H3312 0.929 . S
C3320 C3321 1.377 . S
C3320 C3322 1.384 . S
C3321 C3320 1.377 . S
C3321 C3327 1.390 . S
C3322 H3313 0.930 . S
C3322 C3320 1.384 . S
C3322 C3323 1.372 . S
C3323 C3322 1.372 . S
C3323 C3324 1.400 . S
C3323 C3328 1.490 . S
C3324 H3314 0.930 . S
C3324 C3323 1.400 . S
C3324 C3327 1.386 . S
H3325 C3341 0.930 . S
H3326 C3342 0.931 . S
C3327 H3315 0.929 1_556 S
C3327 C3321 1.390 . S
C3327 C3324 1.386 . S
C3328 C3323 1.490 . S
C3328 C3330 1.395 . S
C3328 C3331 1.403 . S
H3329 C3335 0.930 . S
C3330 H3316 0.930 . S
C3330 C3328 1.395 . S
C3330 C3333 1.403 . S
C3331 C3328 1.403 . S
C3331 C3332 1.524 . S
C3331 C3335 1.400 . S
C3332 H3317 0.960 . S
C3332 H3318 0.960 . S
C3332 H3319 0.960 . S
C3332 C3331 1.524 . S
C3333 C3330 1.403 . S
C3333 C3334 1.392 . S
C3333 C3337 1.495 . S
C3334 C3333 1.392 . S
C3334 C3335 1.385 . S
C3334 C3336 1.478 . S
C3335 H3329 0.930 . S
C3335 C3331 1.400 . S
C3335 C3334 1.385 . S
C3336 C3334 1.478 . S
C3336 C3338 1.381 . S
C3336 C3342 1.383 . S
C3337 C3333 1.495 . S
C3337 H3343 0.959 . S
C3337 H3344 0.961 . S
C3337 H3345 0.960 . S
C3338 C3336 1.381 . S
C3338 C3339 1.394 . S
C3338 H3346 0.930 . S
C3339 C3338 1.394 . S
C3339 C3340 1.383 . S
C3339 H3347 0.929 . S
C3340 C3339 1.383 . S
C3340 C3341 1.377 . S
C3341 H3325 0.930 . S
C3341 C3340 1.377 . S
C3341 C3342 1.379 . S
C3342 H3326 0.931 . S
C3342 C3336 1.383 . S
C3342 C3341 1.379 . S
H3343 C3337 0.959 . S
H3344 C3337 0.961 . S
H3345 C3337 0.960 . S
H3346 C3338 0.930 . S
H3347 C3339 0.929 . S
H3348 C3356 0.929 . S
H3349 C3358 0.930 1_554 S
H3350 C3360 0.930 . S
H3351 C3363 0.929 . S
H3352 C3366 0.930 . S
H3353 C3368 0.960 . S
H3354 C3368 0.960 . S
H3355 C3368 0.960 . S
C3356 H3348 0.929 . S
C3356 C3357 1.377 1_554 S
C3356 C3358 1.384 1_554 S
C3357 C3356 1.377 1_556 S
C3357 C3363 1.390 . S
C3358 H3349 0.930 1_556 S
C3358 C3356 1.384 1_556 S
C3358 C3359 1.372 . S
C3359 C3358 1.372 . S
C3359 C3360 1.400 . S
C3359 C3364 1.490 . S
C3360 H3350 0.930 . S
C3360 C3359 1.400 . S
C3360 C3363 1.386 . S
H3361 C3377 0.930 . S
H3362 C3378 0.931 . S
C3363 H3351 0.929 . S
C3363 C3357 1.390 . S
C3363 C3360 1.386 . S
C3364 C3359 1.490 . S
C3364 C3366 1.395 . S
C3364 C3367 1.403 . S
H3365 C3371 0.930 . S
C3366 H3352 0.930 . S
C3366 C3364 1.395 . S
C3366 C3369 1.403 . S
C3367 C3364 1.403 . S
C3367 C3368 1.524 . S
C3367 C3371 1.400 . S
C3368 H3353 0.960 . S
C3368 H3354 0.960 . S
C3368 H3355 0.960 . S
C3368 C3367 1.524 . S
C3369 C3366 1.403 . S
C3369 C3370 1.392 . S
C3369 C3373 1.495 . S
C3370 C3369 1.392 . S
C3370 C3371 1.385 . S
C3370 C3372 1.478 . S
C3371 H3365 0.930 . S
C3371 C3367 1.400 . S
C3371 C3370 1.385 . S
C3372 C3370 1.478 . S
C3372 C3374 1.381 . S
C3372 C3378 1.383 . S
C3373 C3369 1.495 . S
C3373 H3379 0.959 . S
C3373 H3380 0.961 . S
C3373 H3381 0.960 . S
C3374 C3372 1.381 . S
C3374 C3375 1.394 . S
C3374 H3382 0.930 . S
C3375 C3374 1.394 . S
C3375 C3376 1.383 . S
C3375 H3383 0.929 . S
C3376 C3375 1.383 . S
C3376 C3377 1.377 . S
C3377 H3361 0.930 . S
C3377 C3376 1.377 . S
C3377 C3378 1.379 . S
C3378 H3362 0.931 . S
C3378 C3372 1.383 . S
C3378 C3377 1.379 . S
H3379 C3373 0.959 . S
H3380 C3373 0.961 . S
H3381 C3373 0.960 . S
H3382 C3374 0.930 . S
H3383 C3375 0.929 . S
H3384 C3392 0.929 . S
H3385 C3394 0.930 . S
H3386 C3396 0.930 . S
H3387 C3399 0.929 . S
H3388 C3402 0.930 . S
H3389 C3404 0.960 . S
H3390 C3404 0.960 . S
H3391 C3404 0.960 . S
C3392 H3384 0.929 . S
C3392 C3393 1.377 . S
C3392 C3394 1.384 . S
C3393 C3392 1.377 . S
C3393 C3399 1.390 . S
C3394 H3385 0.930 . S
C3394 C3392 1.384 . S
C3394 C3395 1.372 . S
C3395 C3394 1.372 . S
C3395 C3396 1.400 . S
C3395 C3400 1.490 . S
C3396 H3386 0.930 . S
C3396 C3395 1.400 . S
C3396 C3399 1.386 . S
H3397 C3413 0.930 . S
H3398 C3414 0.931 . S
C3399 H3387 0.929 . S
C3399 C3393 1.390 . S
C3399 C3396 1.386 . S
C3400 C3395 1.490 . S
C3400 C3402 1.395 . S
C3400 C3403 1.403 . S
H3401 C3407 0.930 . S
C3402 H3388 0.930 . S
C3402 C3400 1.395 . S
C3402 C3405 1.403 . S
C3403 C3400 1.403 . S
C3403 C3404 1.524 . S
C3403 C3407 1.400 . S
C3404 H3389 0.960 . S
C3404 H3390 0.960 . S
C3404 H3391 0.960 . S
C3404 C3403 1.524 . S
C3405 C3402 1.403 . S
C3405 C3406 1.392 . S
C3405 C3409 1.495 . S
C3406 C3405 1.392 . S
C3406 C3407 1.385 . S
C3406 C3408 1.478 . S
C3407 H3401 0.930 . S
C3407 C3403 1.400 . S
C3407 C3406 1.385 . S
C3408 C3406 1.478 . S
C3408 C3410 1.381 . S
C3408 C3414 1.383 . S
C3409 C3405 1.495 . S
C3409 H3415 0.959 . S
C3409 H3416 0.961 . S
C3409 H3417 0.960 . S
C3410 C3408 1.381 . S
C3410 C3411 1.394 . S
C3410 H3418 0.930 . S
C3411 C3410 1.394 . S
C3411 C3412 1.383 . S
C3411 H3419 0.929 . S
C3412 C3411 1.383 . S
C3412 C3413 1.377 . S
C3413 H3397 0.930 . S
C3413 C3412 1.377 . S
C3413 C3414 1.379 . S
C3414 H3398 0.931 . S
C3414 C3408 1.383 . S
C3414 C3413 1.379 . S
H3415 C3409 0.959 . S
H3416 C3409 0.961 . S
H3417 C3409 0.960 . S
H3418 C3410 0.930 . S
H3419 C3411 0.929 . S
H3420 C3428 0.929 . S
H3421 C3430 0.930 . S
H3422 C3432 0.930 . S
H3423 C3435 0.929 . S
H3424 C3438 0.930 . S
H3425 C3440 0.960 . S
H3426 C3440 0.960 . S
H3427 C3440 0.960 . S
C3428 H3420 0.929 . S
C3428 C3429 1.377 . S
C3428 C3430 1.384 . S
C3429 C3428 1.377 . S
C3429 C3435 1.390 . S
C3430 H3421 0.930 . S
C3430 C3428 1.384 . S
C3430 C3431 1.372 . S
C3431 C3430 1.372 . S
C3431 C3432 1.400 . S
C3431 C3436 1.490 . S
C3432 H3422 0.930 . S
C3432 C3431 1.400 . S
C3432 C3435 1.386 . S
H3433 C3449 0.930 . S
H3434 C3450 0.931 . S
C3435 H3423 0.929 . S
C3435 C3429 1.390 . S
C3435 C3432 1.386 . S
C3436 C3431 1.490 . S
C3436 C3438 1.395 . S
C3436 C3439 1.403 . S
H3437 C3443 0.930 . S
C3438 H3424 0.930 . S
C3438 C3436 1.395 . S
C3438 C3441 1.403 . S
C3439 C3436 1.403 . S
C3439 C3440 1.524 . S
C3439 C3443 1.400 . S
C3440 H3425 0.960 . S
C3440 H3426 0.960 . S
C3440 H3427 0.960 . S
C3440 C3439 1.524 . S
C3441 C3438 1.403 . S
C3441 C3442 1.392 . S
C3441 C3445 1.495 . S
C3442 C3441 1.392 . S
C3442 C3443 1.385 . S
C3442 C3444 1.478 . S
C3443 H3437 0.930 . S
C3443 C3439 1.400 . S
C3443 C3442 1.385 . S
C3444 C3442 1.478 . S
C3444 C3446 1.381 . S
C3444 C3450 1.383 . S
C3445 C3441 1.495 . S
C3445 H3451 0.959 . S
C3445 H3452 0.961 . S
C3445 H3453 0.960 . S
C3446 C3444 1.381 . S
C3446 C3447 1.394 . S
C3446 H3454 0.930 . S
C3447 C3446 1.394 . S
C3447 C3448 1.383 . S
C3447 H3455 0.929 . S
C3448 C3447 1.383 . S
C3448 C3449 1.377 . S
C3449 H3433 0.930 . S
C3449 C3448 1.377 . S
C3449 C3450 1.379 . S
C3450 H3434 0.931 . S
C3450 C3444 1.383 . S
C3450 C3449 1.379 . S
H3451 C3445 0.959 . S
H3452 C3445 0.961 . S
H3453 C3445 0.960 . S
H3454 C3446 0.930 . S
H3455 C3447 0.929 . S
H3456 C3464 0.929 . S
H3457 C3466 0.930 . S
H3458 C3468 0.930 . S
H3459 C3471 0.929 . S
H3460 C3474 0.930 . S
H3461 C3476 0.960 . S
H3462 C3476 0.960 . S
H3463 C3476 0.960 . S
C3464 H3456 0.929 . S
C3464 C3465 1.377 . S
C3464 C3466 1.384 . S
C3465 C3464 1.377 . S
C3465 C3471 1.390 . S
C3466 H3457 0.930 . S
C3466 C3464 1.384 . S
C3466 C3467 1.372 . S
C3467 C3466 1.372 . S
C3467 C3468 1.400 . S
C3467 C3472 1.490 . S
C3468 H3458 0.930 . S
C3468 C3467 1.400 . S
C3468 C3471 1.386 . S
H3469 C3485 0.930 . S
H3470 C3486 0.931 . S
C3471 H3459 0.929 . S
C3471 C3465 1.390 . S
C3471 C3468 1.386 . S
C3472 C3467 1.490 . S
C3472 C3474 1.395 . S
C3472 C3475 1.403 . S
H3473 C3479 0.930 . S
C3474 H3460 0.930 . S
C3474 C3472 1.395 . S
C3474 C3477 1.403 . S
C3475 C3472 1.403 . S
C3475 C3476 1.524 . S
C3475 C3479 1.400 . S
C3476 H3461 0.960 . S
C3476 H3462 0.960 . S
C3476 H3463 0.960 . S
C3476 C3475 1.524 . S
C3477 C3474 1.403 . S
C3477 C3478 1.392 . S
C3477 C3481 1.495 . S
C3478 C3477 1.392 . S
C3478 C3479 1.385 . S
C3478 C3480 1.478 . S
C3479 H3473 0.930 . S
C3479 C3475 1.400 . S
C3479 C3478 1.385 . S
C3480 C3478 1.478 . S
C3480 C3482 1.381 . S
C3480 C3486 1.383 . S
C3481 C3477 1.495 . S
C3481 H3487 0.959 . S
C3481 H3488 0.961 . S
C3481 H3489 0.960 . S
C3482 C3480 1.381 . S
C3482 C3483 1.394 . S
C3482 H3490 0.930 . S
C3483 C3482 1.394 . S
C3483 C3484 1.383 . S
C3483 H3491 0.929 . S
C3484 C3483 1.383 . S
C3484 C3485 1.377 . S
C3485 H3469 0.930 . S
C3485 C3484 1.377 . S
C3485 C3486 1.379 . S
C3486 H3470 0.931 . S
C3486 C3480 1.383 . S
C3486 C3485 1.379 . S
H3487 C3481 0.959 . S
H3488 C3481 0.961 . S
H3489 C3481 0.960 . S
H3490 C3482 0.930 . S
H3491 C3483 0.929 . S
H3492 C3500 0.929 . S
H3493 C3502 0.930 . S
H3494 C3504 0.930 . S
H3495 C3507 0.929 . S
H3496 C3510 0.930 . S
H3497 C3512 0.960 . S
H3498 C3512 0.960 . S
H3499 C3512 0.960 . S
C3500 H3492 0.929 . S
C3500 C3501 1.377 . S
C3500 C3502 1.384 . S
C3501 C3500 1.377 . S
C3501 C3507 1.390 . S
C3502 H3493 0.930 . S
C3502 C3500 1.384 . S
C3502 C3503 1.372 . S
C3503 C3502 1.372 . S
C3503 C3504 1.400 . S
C3503 C3508 1.490 . S
C3504 H3494 0.930 . S
C3504 C3503 1.400 . S
C3504 C3507 1.386 . S
H3505 C3521 0.930 . S
H3506 C3522 0.931 . S
C3507 H3495 0.929 . S
C3507 C3501 1.390 . S
C3507 C3504 1.386 . S
C3508 C3503 1.490 . S
C3508 C3510 1.395 . S
C3508 C3511 1.403 . S
H3509 C3515 0.930 . S
C3510 H3496 0.930 . S
C3510 C3508 1.395 . S
C3510 C3513 1.403 . S
C3511 C3508 1.403 . S
C3511 C3512 1.524 . S
C3511 C3515 1.400 . S
C3512 H3497 0.960 . S
C3512 H3498 0.960 . S
C3512 H3499 0.960 . S
C3512 C3511 1.524 . S
C3513 C3510 1.403 . S
C3513 C3514 1.392 . S
C3513 C3517 1.495 . S
C3514 C3513 1.392 . S
C3514 C3515 1.385 . S
C3514 C3516 1.478 . S
C3515 H3509 0.930 . S
C3515 C3511 1.400 . S
C3515 C3514 1.385 . S
C3516 C3514 1.478 . S
C3516 C3518 1.381 . S
C3516 C3522 1.383 . S
C3517 C3513 1.495 . S
C3517 H3523 0.959 . S
C3517 H3524 0.961 . S
C3517 H3525 0.960 . S
C3518 C3516 1.381 . S
C3518 C3519 1.394 . S
C3518 H3526 0.930 . S
C3519 C3518 1.394 . S
C3519 C3520 1.383 . S
C3519 H3527 0.929 . S
C3520 C3519 1.383 . S
C3520 C3521 1.377 . S
C3521 H3505 0.930 . S
C3521 C3520 1.377 . S
C3521 C3522 1.379 . S
C3522 H3506 0.931 . S
C3522 C3516 1.383 . S
C3522 C3521 1.379 . S
H3523 C3517 0.959 . S
H3524 C3517 0.961 . S
H3525 C3517 0.960 . S
H3526 C3518 0.930 . S
H3527 C3519 0.929 . S
H3528 C3536 0.929 . S
H3529 C3538 0.930 . S
H3530 C3540 0.930 . S
H3531 C3543 0.929 . S
H3532 C3546 0.930 . S
H3533 C3548 0.960 . S
H3534 C3548 0.960 . S
H3535 C3548 0.960 . S
C3536 H3528 0.929 . S
C3536 C3537 1.377 . S
C3536 C3538 1.384 . S
C3537 C3536 1.377 . S
C3537 C3543 1.390 . S
C3538 H3529 0.930 . S
C3538 C3536 1.384 . S
C3538 C3539 1.372 . S
C3539 C3538 1.372 . S
C3539 C3540 1.400 . S
C3539 C3544 1.490 . S
C3540 H3530 0.930 . S
C3540 C3539 1.400 . S
C3540 C3543 1.386 . S
H3541 C3557 0.930 . S
H3542 C3558 0.931 . S
C3543 H3531 0.929 . S
C3543 C3537 1.390 . S
C3543 C3540 1.386 . S
C3544 C3539 1.490 . S
C3544 C3546 1.395 . S
C3544 C3547 1.403 . S
H3545 C3551 0.930 . S
C3546 H3532 0.930 . S
C3546 C3544 1.395 . S
C3546 C3549 1.403 . S
C3547 C3544 1.403 . S
C3547 C3548 1.524 . S
C3547 C3551 1.400 . S
C3548 H3533 0.960 . S
C3548 H3534 0.960 . S
C3548 H3535 0.960 . S
C3548 C3547 1.524 . S
C3549 C3546 1.403 . S
C3549 C3550 1.392 . S
C3549 C3553 1.495 . S
C3550 C3549 1.392 . S
C3550 C3551 1.385 . S
C3550 C3552 1.478 . S
C3551 H3545 0.930 . S
C3551 C3547 1.400 . S
C3551 C3550 1.385 . S
C3552 C3550 1.478 . S
C3552 C3554 1.381 . S
C3552 C3558 1.383 . S
C3553 C3549 1.495 . S
C3553 H3559 0.959 . S
C3553 H3560 0.961 . S
C3553 H3561 0.960 . S
C3554 C3552 1.381 . S
C3554 C3555 1.394 . S
C3554 H3562 0.930 . S
C3555 C3554 1.394 . S
C3555 C3556 1.383 . S
C3555 H3563 0.929 . S
C3556 C3555 1.383 . S
C3556 C3557 1.377 . S
C3557 H3541 0.930 . S
C3557 C3556 1.377 . S
C3557 C3558 1.379 . S
C3558 H3542 0.931 . S
C3558 C3552 1.383 . S
C3558 C3557 1.379 . S
H3559 C3553 0.959 . S
H3560 C3553 0.961 . S
H3561 C3553 0.960 . S
H3562 C3554 0.930 . S
H3563 C3555 0.929 . S
H3564 C3572 0.929 . S
H3565 C3574 0.930 . S
H3566 C3576 0.930 . S
H3567 C3579 0.929 . S
H3568 C3582 0.930 . S
H3569 C3584 0.960 . S
H3570 C3584 0.960 . S
H3571 C3584 0.960 . S
C3572 H3564 0.929 . S
C3572 C3573 1.377 . S
C3572 C3574 1.384 . S
C3573 C3572 1.377 . S
C3573 C3579 1.390 . S
C3574 H3565 0.930 . S
C3574 C3572 1.384 . S
C3574 C3575 1.372 . S
C3575 C3574 1.372 . S
C3575 C3576 1.400 . S
C3575 C3580 1.490 . S
C3576 H3566 0.930 . S
C3576 C3575 1.400 . S
C3576 C3579 1.386 . S
H3577 C3593 0.930 . S
H3578 C3594 0.931 . S
C3579 H3567 0.929 . S
C3579 C3573 1.390 . S
C3579 C3576 1.386 . S
C3580 C3575 1.490 . S
C3580 C3582 1.395 . S
C3580 C3583 1.403 . S
H3581 C3587 0.930 . S
C3582 H3568 0.930 . S
C3582 C3580 1.395 . S
C3582 C3585 1.403 . S
C3583 C3580 1.403 . S
C3583 C3584 1.524 . S
C3583 C3587 1.400 . S
C3584 H3569 0.960 . S
C3584 H3570 0.960 . S
C3584 H3571 0.960 . S
C3584 C3583 1.524 . S
C3585 C3582 1.403 . S
C3585 C3586 1.392 . S
C3585 C3589 1.495 . S
C3586 C3585 1.392 . S
C3586 C3587 1.385 . S
C3586 C3588 1.478 . S
C3587 H3581 0.930 . S
C3587 C3583 1.400 . S
C3587 C3586 1.385 . S
C3588 C3586 1.478 . S
C3588 C3590 1.381 . S
C3588 C3594 1.383 . S
C3589 C3585 1.495 . S
C3589 H3595 0.959 . S
C3589 H3596 0.961 . S
C3589 H3597 0.960 . S
C3590 C3588 1.381 . S
C3590 C3591 1.394 . S
C3590 H3598 0.930 . S
C3591 C3590 1.394 . S
C3591 C3592 1.383 . S
C3591 H3599 0.929 . S
C3592 C3591 1.383 . S
C3592 C3593 1.377 . S
C3593 H3577 0.930 . S
C3593 C3592 1.377 . S
C3593 C3594 1.379 . S
C3594 H3578 0.931 . S
C3594 C3588 1.383 . S
C3594 C3593 1.379 . S
H3595 C3589 0.959 . S
H3596 C3589 0.961 . S
H3597 C3589 0.960 . S
H3598 C3590 0.930 . S
H3599 C3591 0.929 . S
H3600 C3608 0.929 . S
H3601 C3610 0.930 1_655 S
H3602 C3612 0.930 . S
H3603 C3615 0.929 . S
H3604 C3618 0.930 1_655 S
H3605 C3620 0.960 . S
H3606 C3620 0.960 . S
H3607 C3620 0.960 . S
C3608 H3600 0.929 . S
C3608 C3609 1.377 . S
C3608 C3610 1.384 . S
C3609 C3608 1.377 . S
C3609 C3615 1.390 . S
C3610 H3601 0.930 1_455 S
C3610 C3608 1.384 . S
C3610 C3611 1.372 . S
C3611 C3610 1.372 . S
C3611 C3612 1.400 . S
C3611 C3616 1.490 . S
C3612 H3602 0.930 . S
C3612 C3611 1.400 . S
C3612 C3615 1.386 . S
H3613 C3629 0.930 . S
H3614 C3630 0.931 . S
C3615 H3603 0.929 . S
C3615 C3609 1.390 . S
C3615 C3612 1.386 . S
C3616 C3611 1.490 . S
C3616 C3618 1.395 . S
C3616 C3619 1.403 . S
H3617 C3623 0.930 . S
C3618 H3604 0.930 1_455 S
C3618 C3616 1.395 . S
C3618 C3621 1.348 1_455 S
C3619 C3616 1.403 . S
C3619 C3620 1.524 . S
C3619 C3623 1.400 . S
C3620 H3605 0.960 . S
C3620 H3606 0.960 . S
C3620 H3607 0.960 . S
C3620 C3619 1.524 . S
C3621 C3618 1.348 1_655 S
C3621 C3622 1.364 1_655 S
C3621 C3625 1.580 . S
C3622 C3621 1.364 1_455 S
C3622 C3623 1.385 . S
C3622 C3624 1.478 . S
C3623 H3617 0.930 . S
C3623 C3619 1.400 . S
C3623 C3622 1.385 . S
C3624 C3622 1.478 . S
C3624 C3626 1.381 1_455 S
C3624 C3630 1.383 . S
C3625 C3621 1.580 . S
C3625 H3631 0.959 . S
C3625 H3632 0.961 . S
C3625 H3633 0.960 . S
C3626 C3624 1.381 1_655 S
C3626 C3627 1.394 . S
C3626 H3634 0.930 . S
C3627 C3626 1.394 . S
C3627 C3628 1.383 1_655 S
C3627 H3635 0.929 . S
C3628 C3627 1.383 1_455 S
C3628 C3629 1.377 . S
C3629 H3613 0.930 . S
C3629 C3628 1.377 . S
C3629 C3630 1.379 . S
C3630 H3614 0.931 . S
C3630 C3624 1.383 . S
C3630 C3629 1.379 . S
H3631 C3625 0.959 . S
H3632 C3625 0.961 . S
H3633 C3625 0.960 . S
H3634 C3626 0.930 . S
H3635 C3627 0.929 . S
H3636 C3644 0.929 . S
H3637 C3646 0.930 . S
H3638 C3648 0.930 . S
H3639 C3651 0.929 . S
H3640 C3654 0.930 . S
H3641 C3656 0.960 . S
H3642 C3656 0.960 . S
H3643 C3656 0.960 . S
C3644 H3636 0.929 . S
C3644 C3645 1.377 . S
C3644 C3646 1.384 . S
C3645 C3644 1.377 . S
C3645 C3651 1.390 . S
C3646 H3637 0.930 . S
C3646 C3644 1.384 . S
C3646 C3647 1.372 . S
C3647 C3646 1.372 . S
C3647 C3648 1.400 . S
C3647 C3652 1.490 . S
C3648 H3638 0.930 . S
C3648 C3647 1.400 . S
C3648 C3651 1.386 . S
H3649 C3665 0.930 . S
H3650 C3666 0.931 . S
C3651 H3639 0.929 . S
C3651 C3645 1.390 . S
C3651 C3648 1.386 . S
C3652 C3647 1.490 . S
C3652 C3654 1.395 . S
C3652 C3655 1.403 . S
H3653 C3659 0.930 . S
C3654 H3640 0.930 . S
C3654 C3652 1.395 . S
C3654 C3657 1.403 . S
C3655 C3652 1.403 . S
C3655 C3656 1.524 . S
C3655 C3659 1.400 . S
C3656 H3641 0.960 . S
C3656 H3642 0.960 . S
C3656 H3643 0.960 . S
C3656 C3655 1.524 . S
C3657 C3654 1.403 . S
C3657 C3658 1.392 . S
C3657 C3661 1.495 . S
C3658 C3657 1.392 . S
C3658 C3659 1.385 . S
C3658 C3660 1.478 . S
C3659 H3653 0.930 . S
C3659 C3655 1.400 . S
C3659 C3658 1.385 . S
C3660 C3658 1.478 . S
C3660 C3662 1.381 . S
C3660 C3666 1.383 . S
C3661 C3657 1.495 . S
C3661 H3667 0.959 . S
C3661 H3668 0.961 . S
C3661 H3669 0.960 . S
C3662 C3660 1.381 . S
C3662 C3663 1.394 . S
C3662 H3670 0.930 . S
C3663 C3662 1.394 . S
C3663 C3664 1.383 . S
C3663 H3671 0.929 . S
C3664 C3663 1.383 . S
C3664 C3665 1.377 . S
C3665 H3649 0.930 . S
C3665 C3664 1.377 . S
C3665 C3666 1.379 . S
C3666 H3650 0.931 . S
C3666 C3660 1.383 . S
C3666 C3665 1.379 . S
H3667 C3661 0.959 . S
H3668 C3661 0.961 . S
H3669 C3661 0.960 . S
H3670 C3662 0.930 . S
H3671 C3663 0.929 . S
H3672 C3680 0.929 . S
H3673 C3682 0.930 . S
H3674 C3684 0.930 1_545 S
H3675 C3687 0.913 1_545 S
H3676 C3690 0.930 . S
H3677 C3692 0.960 1_545 S
H3678 C3692 0.960 . S
H3679 C3692 0.960 1_545 S
C3680 H3672 0.929 . S
C3680 C3681 1.377 . S
C3680 C3682 1.384 . S
C3681 C3680 1.377 . S
C3681 C3687 1.390 . S
C3682 H3673 0.930 . S
C3682 C3680 1.384 . S
C3682 C3683 1.372 . S
C3683 C3682 1.372 . S
C3683 C3684 1.400 . S
C3683 C3688 1.490 . S
C3684 H3674 0.930 1_565 S
C3684 C3683 1.400 . S
C3684 C3687 1.386 . S
H3685 C3701 0.930 . S
H3686 C3702 0.931 . S
C3687 H3675 0.913 1_565 S
C3687 C3681 1.390 . S
C3687 C3684 1.386 . S
C3688 C3683 1.490 . S
C3688 C3690 1.395 . S
C3688 C3691 1.403 . S
H3689 C3695 0.930 . S
C3690 H3676 0.930 . S
C3690 C3688 1.395 . S
C3690 C3693 1.403 . S
C3691 C3688 1.403 . S
C3691 C3692 1.524 . S
C3691 C3695 1.400 . S
C3692 H3677 0.960 1_565 S
C3692 H3678 0.960 . S
C3692 H3679 0.960 1_565 S
C3692 C3691 1.524 . S
C3693 C3690 1.403 . S
C3693 C3694 1.392 . S
C3693 C3697 1.495 . S
C3694 C3693 1.392 . S
C3694 C3695 1.385 . S
C3694 C3696 1.478 . S
C3695 H3689 0.930 . S
C3695 C3691 1.400 . S
C3695 C3694 1.385 . S
C3696 C3694 1.478 . S
C3696 C3698 1.381 . S
C3696 C3702 1.383 1_565 S
C3697 C3693 1.495 . S
C3697 H3703 0.959 . S
C3697 H3704 0.961 . S
C3697 H3705 0.960 . S
C3698 C3696 1.381 . S
C3698 C3699 1.394 . S
C3698 H3706 0.930 . S
C3699 C3698 1.394 . S
C3699 C3700 1.383 . S
C3699 H3707 0.929 . S
C3700 C3699 1.383 . S
C3700 C3701 1.377 1_565 S
C3701 H3685 0.930 . S
C3701 C3700 1.377 1_545 S
C3701 C3702 1.379 . S
C3702 H3686 0.931 . S
C3702 C3696 1.383 1_545 S
C3702 C3701 1.379 . S
H3703 C3697 0.959 . S
H3704 C3697 0.961 . S
H3705 C3697 0.960 . S
H3706 C3698 0.930 . S
H3707 C3699 0.929 . S
H3708 C3716 0.968 . S
H3709 C3718 0.930 1_545 S
H3710 C3720 0.930 . S
H3711 C3723 0.929 . S
H3712 C3726 0.930 . S
H3713 C3728 0.960 . S
H3714 C3728 0.960 . S
H3715 C3728 0.960 . S
C3716 H3708 0.968 . S
C3716 C3717 1.377 . S
C3716 C3718 1.384 . S
C3717 C3716 1.377 . S
C3717 C3723 1.390 . S
C3718 H3709 0.930 1_565 S
C3718 C3716 1.384 . S
C3718 C3719 1.372 . S
C3719 C3718 1.372 . S
C3719 C3720 1.400 . S
C3719 C3724 1.490 . S
C3720 H3710 0.930 . S
C3720 C3719 1.400 . S
C3720 C3723 1.386 . S
H3721 C3737 0.930 . S
H3722 C3738 0.931 . S
C3723 H3711 0.929 . S
C3723 C3717 1.390 . S
C3723 C3720 1.386 . S
C3724 C3719 1.490 . S
C3724 C3726 1.395 . S
C3724 C3727 1.403 . S
H3725 C3731 0.930 . S
C3726 H3712 0.930 . S
C3726 C3724 1.395 . S
C3726 C3729 1.403 . S
C3727 C3724 1.403 . S
C3727 C3728 1.524 . S
C3727 C3731 1.400 . S
C3728 H3713 0.960 . S
C3728 H3714 0.960 . S
C3728 H3715 0.960 . S
C3728 C3727 1.524 . S
C3729 C3726 1.403 . S
C3729 C3730 1.392 . S
C3729 C3733 1.499 1_565 S
C3730 C3729 1.392 . S
C3730 C3731 1.385 . S
C3730 C3732 1.478 . S
C3731 H3725 0.930 . S
C3731 C3727 1.400 . S
C3731 C3730 1.385 . S
C3732 C3730 1.478 . S
C3732 C3734 1.381 1_565 S
C3732 C3738 1.383 . S
C3733 C3729 1.499 1_545 S
C3733 H3739 0.962 . S
C3733 H3740 0.964 1_545 S
C3733 H3741 0.950 . S
C3734 C3732 1.381 1_545 S
C3734 C3735 1.394 . S
C3734 H3742 0.930 . S
C3735 C3734 1.394 . S
C3735 C3736 1.383 1_545 S
C3735 H3743 0.929 . S
C3736 C3735 1.383 1_565 S
C3736 C3737 1.377 . S
C3737 H3721 0.930 . S
C3737 C3736 1.377 . S
C3737 C3738 1.379 . S
C3738 H3722 0.931 . S
C3738 C3732 1.383 . S
C3738 C3737 1.379 . S
H3739 C3733 0.962 . S
H3740 C3733 0.964 1_565 S
H3741 C3733 0.950 . S
H3742 C3734 0.930 . S
H3743 C3735 0.929 . S
H3744 C3752 0.929 . S
H3745 C3754 0.870 1_655 S
H3746 C3756 0.930 . S
H3747 C3759 0.929 . S
H3748 C3762 0.930 . S
H3749 C3764 0.960 . S
H3750 C3764 0.960 . S
H3751 C3764 0.960 . S
C3752 H3744 0.929 . S
C3752 C3753 1.377 . S
C3752 C3754 1.384 . S
C3753 C3752 1.377 . S
C3753 C3759 1.390 . S
C3754 H3745 0.870 1_455 S
C3754 C3752 1.384 . S
C3754 C3755 1.372 . S
C3755 C3754 1.372 . S
C3755 C3756 1.400 . S
C3755 C3760 1.490 . S
C3756 H3746 0.930 . S
C3756 C3755 1.400 . S
C3756 C3759 1.386 . S
H3757 C3773 0.930 . S
H3758 C3774 0.931 . S
C3759 H3747 0.929 . S
C3759 C3753 1.390 . S
C3759 C3756 1.386 . S
C3760 C3755 1.490 . S
C3760 C3762 1.395 . S
C3760 C3763 1.403 . S
H3761 C3767 0.930 . S
C3762 H3748 0.930 . S
C3762 C3760 1.395 . S
C3762 C3765 1.403 . S
C3763 C3760 1.403 . S
C3763 C3764 1.524 . S
C3763 C3767 1.400 . S
C3764 H3749 0.960 . S
C3764 H3750 0.960 . S
C3764 H3751 0.960 . S
C3764 C3763 1.524 . S
C3765 C3762 1.403 . S
C3765 C3766 1.392 . S
C3765 C3769 1.495 1_455 S
C3766 C3765 1.392 . S
C3766 C3767 1.385 . S
C3766 C3768 1.478 . S
C3767 H3761 0.930 . S
C3767 C3763 1.400 . S
C3767 C3766 1.385 . S
C3768 C3766 1.478 . S
C3768 C3770 1.381 1_455 S
C3768 C3774 1.383 . S
C3769 C3765 1.495 1_655 S
C3769 H3775 0.959 . S
C3769 H3776 0.961 1_655 S
C3769 H3777 0.960 . S
C3770 C3768 1.381 1_655 S
C3770 C3771 1.394 . S
C3770 H3778 0.930 . S
C3771 C3770 1.394 . S
C3771 C3772 1.383 1_655 S
C3771 H3779 0.929 . S
C3772 C3771 1.383 1_455 S
C3772 C3773 1.377 . S
C3773 H3757 0.930 . S
C3773 C3772 1.377 . S
C3773 C3774 1.379 . S
C3774 H3758 0.931 . S
C3774 C3768 1.383 . S
C3774 C3773 1.379 . S
H3775 C3769 0.959 . S
H3776 C3769 0.961 1_455 S
H3777 C3769 0.960 . S
H3778 C3770 0.930 . S
H3779 C3771 0.929 . S
H3780 C3788 0.929 . S
H3781 C3790 0.930 . S
H3782 C3792 0.930 . S
H3783 C3795 0.929 . S
H3784 C3798 0.930 . S
H3785 C3800 0.960 . S
H3786 C3800 0.960 . S
H3787 C3800 0.960 . S
C3788 H3780 0.929 . S
C3788 C3789 1.377 . S
C3788 C3790 1.384 . S
C3789 C3788 1.377 . S
C3789 C3795 1.390 . S
C3790 H3781 0.930 . S
C3790 C3788 1.384 . S
C3790 C3791 1.372 . S
C3791 C3790 1.372 . S
C3791 C3792 1.400 . S
C3791 C3796 1.490 . S
C3792 H3782 0.930 . S
C3792 C3791 1.400 . S
C3792 C3795 1.386 . S
H3793 C3809 0.930 . S
H3794 C3810 0.931 . S
C3795 H3783 0.929 . S
C3795 C3789 1.390 . S
C3795 C3792 1.386 . S
C3796 C3791 1.490 . S
C3796 C3798 1.395 . S
C3796 C3799 1.403 . S
H3797 C3803 0.930 . S
C3798 H3784 0.930 . S
C3798 C3796 1.395 . S
C3798 C3801 1.403 . S
C3799 C3796 1.403 . S
C3799 C3800 1.524 . S
C3799 C3803 1.400 . S
C3800 H3785 0.960 . S
C3800 H3786 0.960 . S
C3800 H3787 0.960 . S
C3800 C3799 1.524 . S
C3801 C3798 1.403 . S
C3801 C3802 1.392 . S
C3801 C3805 1.495 . S
C3802 C3801 1.392 . S
C3802 C3803 1.385 . S
C3802 C3804 1.478 . S
C3803 H3797 0.930 . S
C3803 C3799 1.400 . S
C3803 C3802 1.385 . S
C3804 C3802 1.478 . S
C3804 C3806 1.381 . S
C3804 C3810 1.383 . S
C3805 C3801 1.495 . S
C3805 H3811 0.959 . S
C3805 H3812 0.961 . S
C3805 H3813 0.960 . S
C3806 C3804 1.381 . S
C3806 C3807 1.394 . S
C3806 H3814 0.930 . S
C3807 C3806 1.394 . S
C3807 C3808 1.383 . S
C3807 H3815 0.929 . S
C3808 C3807 1.383 . S
C3808 C3809 1.377 . S
C3809 H3793 0.930 . S
C3809 C3808 1.377 . S
C3809 C3810 1.379 . S
C3810 H3794 0.931 . S
C3810 C3804 1.383 . S
C3810 C3809 1.379 . S
H3811 C3805 0.959 . S
H3812 C3805 0.961 . S
H3813 C3805 0.960 . S
H3814 C3806 0.930 . S
H3815 C3807 0.929 . S
H3816 C3824 0.929 . S
H3817 C3826 0.930 . S
H3818 C3828 0.930 . S
H3819 C3831 0.929 . S
H3820 C3834 0.930 . S
H3821 C3836 0.960 . S
H3822 C3836 0.960 . S
H3823 C3836 0.960 . S
C3824 H3816 0.929 . S
C3824 C3825 1.377 . S
C3824 C3826 1.384 . S
C3825 C3824 1.377 . S
C3825 C3831 1.390 . S
C3826 H3817 0.930 . S
C3826 C3824 1.384 . S
C3826 C3827 1.372 . S
C3827 C3826 1.372 . S
C3827 C3828 1.400 . S
C3827 C3832 1.490 . S
C3828 H3818 0.930 . S
C3828 C3827 1.400 . S
C3828 C3831 1.386 . S
H3829 C3845 0.930 . S
H3830 C3846 0.931 . S
C3831 H3819 0.929 . S
C3831 C3825 1.390 . S
C3831 C3828 1.386 . S
C3832 C3827 1.490 . S
C3832 C3834 1.395 . S
C3832 C3835 1.403 . S
H3833 C3839 0.930 . S
C3834 H3820 0.930 . S
C3834 C3832 1.395 . S
C3834 C3837 1.403 . S
C3835 C3832 1.403 . S
C3835 C3836 1.524 . S
C3835 C3839 1.400 . S
C3836 H3821 0.960 . S
C3836 H3822 0.960 . S
C3836 H3823 0.960 . S
C3836 C3835 1.524 . S
C3837 C3834 1.403 . S
C3837 C3838 1.392 . S
C3837 C3841 1.495 . S
C3838 C3837 1.392 . S
C3838 C3839 1.385 . S
C3838 C3840 1.478 . S
C3839 H3833 0.930 . S
C3839 C3835 1.400 . S
C3839 C3838 1.385 . S
C3840 C3838 1.478 . S
C3840 C3842 1.381 . S
C3840 C3846 1.383 . S
C3841 C3837 1.495 . S
C3841 H3847 0.959 . S
C3841 H3848 0.961 . S
C3841 H3849 0.960 . S
C3842 C3840 1.381 . S
C3842 C3843 1.394 . S
C3842 H3850 0.930 . S
C3843 C3842 1.394 . S
C3843 C3844 1.383 . S
C3843 H3851 0.929 . S
C3844 C3843 1.383 . S
C3844 C3845 1.377 . S
C3845 H3829 0.930 . S
C3845 C3844 1.377 . S
C3845 C3846 1.379 . S
C3846 H3830 0.931 . S
C3846 C3840 1.383 . S
C3846 C3845 1.379 . S
H3847 C3841 0.959 . S
H3848 C3841 0.961 . S
H3849 C3841 0.960 . S
H3850 C3842 0.930 . S
H3851 C3843 0.929 . S
H3852 C3860 0.929 . S
H3853 C3862 0.930 . S
H3854 C3864 0.930 . S
H3855 C3867 0.929 . S
H3856 C3870 0.930 . S
H3857 C3872 0.960 . S
H3858 C3872 0.960 . S
H3859 C3872 0.960 . S
C3860 H3852 0.929 . S
C3860 C3861 1.377 . S
C3860 C3862 1.384 . S
C3861 C3860 1.377 . S
C3861 C3867 1.390 . S
C3862 H3853 0.930 . S
C3862 C3860 1.384 . S
C3862 C3863 1.372 . S
C3863 C3862 1.372 . S
C3863 C3864 1.400 . S
C3863 C3868 1.490 . S
C3864 H3854 0.930 . S
C3864 C3863 1.400 . S
C3864 C3867 1.386 . S
H3865 C3881 0.930 . S
H3866 C3882 0.931 . S
C3867 H3855 0.929 . S
C3867 C3861 1.390 . S
C3867 C3864 1.386 . S
C3868 C3863 1.490 . S
C3868 C3870 1.395 . S
C3868 C3871 1.403 . S
H3869 C3875 0.930 . S
C3870 H3856 0.930 . S
C3870 C3868 1.395 . S
C3870 C3873 1.403 . S
C3871 C3868 1.403 . S
C3871 C3872 1.524 . S
C3871 C3875 1.400 . S
C3872 H3857 0.960 . S
C3872 H3858 0.960 . S
C3872 H3859 0.960 . S
C3872 C3871 1.524 . S
C3873 C3870 1.403 . S
C3873 C3874 1.392 . S
C3873 C3877 1.495 . S
C3874 C3873 1.392 . S
C3874 C3875 1.385 . S
C3874 C3876 1.478 . S
C3875 H3869 0.930 . S
C3875 C3871 1.400 . S
C3875 C3874 1.385 . S
C3876 C3874 1.478 . S
C3876 C3878 1.381 . S
C3876 C3882 1.383 . S
C3877 C3873 1.495 . S
C3877 H3883 0.959 . S
C3877 H3884 0.961 . S
C3877 H3885 0.960 . S
C3878 C3876 1.381 . S
C3878 C3879 1.394 . S
C3878 H3886 0.930 . S
C3879 C3878 1.394 . S
C3879 C3880 1.383 . S
C3879 H3887 0.929 . S
C3880 C3879 1.383 . S
C3880 C3881 1.377 . S
C3881 H3865 0.930 . S
C3881 C3880 1.377 . S
C3881 C3882 1.379 . S
C3882 H3866 0.931 . S
C3882 C3876 1.383 . S
C3882 C3881 1.379 . S
H3883 C3877 0.959 . S
H3884 C3877 0.961 . S
H3885 C3877 0.960 . S
H3886 C3878 0.930 . S
H3887 C3879 0.929 . S
H3888 C3896 0.929 . S
H3889 C3898 0.930 . S
H3890 C3900 0.930 . S
H3891 C3903 0.929 . S
H3892 C3906 0.930 . S
H3893 C3908 0.960 . S
H3894 C3908 0.960 . S
H3895 C3908 0.960 . S
C3896 H3888 0.929 . S
C3896 C3897 1.377 . S
C3896 C3898 1.384 . S
C3897 C3896 1.377 . S
C3897 C3903 1.390 . S
C3898 H3889 0.930 . S
C3898 C3896 1.384 . S
C3898 C3899 1.372 . S
C3899 C3898 1.372 . S
C3899 C3900 1.400 . S
C3899 C3904 1.490 . S
C3900 H3890 0.930 . S
C3900 C3899 1.400 . S
C3900 C3903 1.386 . S
H3901 C3917 0.930 . S
H3902 C3918 0.931 . S
C3903 H3891 0.929 . S
C3903 C3897 1.390 . S
C3903 C3900 1.386 . S
C3904 C3899 1.490 . S
C3904 C3906 1.395 . S
C3904 C3907 1.403 . S
H3905 C3911 0.930 . S
C3906 H3892 0.930 . S
C3906 C3904 1.395 . S
C3906 C3909 1.403 . S
C3907 C3904 1.403 . S
C3907 C3908 1.524 . S
C3907 C3911 1.400 . S
C3908 H3893 0.960 . S
C3908 H3894 0.960 . S
C3908 H3895 0.960 . S
C3908 C3907 1.524 . S
C3909 C3906 1.403 . S
C3909 C3910 1.392 . S
C3909 C3913 1.495 . S
C3910 C3909 1.392 . S
C3910 C3911 1.385 . S
C3910 C3912 1.478 . S
C3911 H3905 0.930 . S
C3911 C3907 1.400 . S
C3911 C3910 1.385 . S
C3912 C3910 1.478 . S
C3912 C3914 1.381 . S
C3912 C3918 1.383 . S
C3913 C3909 1.495 . S
C3913 H3919 0.959 . S
C3913 H3920 0.961 . S
C3913 H3921 0.960 . S
C3914 C3912 1.381 . S
C3914 C3915 1.394 . S
C3914 H3922 0.930 . S
C3915 C3914 1.394 . S
C3915 C3916 1.383 . S
C3915 H3923 0.929 . S
C3916 C3915 1.383 . S
C3916 C3917 1.377 . S
C3917 H3901 0.930 . S
C3917 C3916 1.377 . S
C3917 C3918 1.379 . S
C3918 H3902 0.931 . S
C3918 C3912 1.383 . S
C3918 C3917 1.379 . S
H3919 C3913 0.959 . S
H3920 C3913 0.961 . S
H3921 C3913 0.960 . S
H3922 C3914 0.930 . S
H3923 C3915 0.929 . S
H3924 C3932 0.929 . S
H3925 C3934 0.930 . S
H3926 C3936 0.930 . S
H3927 C3939 0.929 . S
H3928 C3942 0.930 . S
H3929 C3944 0.960 . S
H3930 C3944 0.960 . S
H3931 C3944 0.960 . S
C3932 H3924 0.929 . S
C3932 C3933 1.377 . S
C3932 C3934 1.384 . S
C3933 C3932 1.377 . S
C3933 C3939 1.390 . S
C3934 H3925 0.930 . S
C3934 C3932 1.384 . S
C3934 C3935 1.372 . S
C3935 C3934 1.372 . S
C3935 C3936 1.400 . S
C3935 C3940 1.490 . S
C3936 H3926 0.930 . S
C3936 C3935 1.400 . S
C3936 C3939 1.386 . S
H3937 C3953 0.930 . S
H3938 C3954 0.931 . S
C3939 H3927 0.929 . S
C3939 C3933 1.390 . S
C3939 C3936 1.386 . S
C3940 C3935 1.490 . S
C3940 C3942 1.395 . S
C3940 C3943 1.403 . S
H3941 C3947 0.930 1_565 S
C3942 H3928 0.930 . S
C3942 C3940 1.395 . S
C3942 C3945 1.403 . S
C3943 C3940 1.403 . S
C3943 C3944 1.524 1_545 S
C3943 C3947 1.400 . S
C3944 H3929 0.960 . S
C3944 H3930 0.960 . S
C3944 H3931 0.960 . S
C3944 C3943 1.524 1_565 S
C3945 C3942 1.403 . S
C3945 C3946 1.392 . S
C3945 C3949 1.495 . S
C3946 C3945 1.392 . S
C3946 C3947 1.385 . S
C3946 C3948 1.478 . S
C3947 H3941 0.930 1_545 S
C3947 C3943 1.400 . S
C3947 C3946 1.385 . S
C3948 C3946 1.478 . S
C3948 C3950 1.381 . S
C3948 C3954 1.383 . S
C3949 C3945 1.495 . S
C3949 H3955 0.959 . S
C3949 H3956 0.961 . S
C3949 H3957 0.960 . S
C3950 C3948 1.381 . S
C3950 C3951 1.394 . S
C3950 H3958 0.930 . S
C3951 C3950 1.394 . S
C3951 C3952 1.383 . S
C3951 H3959 0.929 . S
C3952 C3951 1.383 . S
C3952 C3953 1.377 . S
C3953 H3937 0.930 . S
C3953 C3952 1.377 . S
C3953 C3954 1.379 . S
C3954 H3938 0.931 . S
C3954 C3948 1.383 . S
C3954 C3953 1.379 . S
H3955 C3949 0.959 . S
H3956 C3949 0.961 . S
H3957 C3949 0.960 . S
H3958 C3950 0.930 . S
H3959 C3951 0.929 . S
H3960 C3968 0.929 . S
H3961 C3970 0.930 . S
H3962 C3972 0.930 . S
H3963 C3975 0.929 . S
H3964 C3978 0.930 . S
H3965 C3980 0.960 . S
H3966 C3980 0.960 . S
H3967 C3980 0.960 . S
C3968 H3960 0.929 . S
C3968 C3969 1.377 . S
C3968 C3970 1.384 . S
C3969 C3968 1.377 . S
C3969 C3975 1.390 . S
C3970 H3961 0.930 . S
C3970 C3968 1.384 . S
C3970 C3971 1.372 . S
C3971 C3970 1.372 . S
C3971 C3972 1.400 . S
C3971 C3976 1.490 . S
C3972 H3962 0.930 . S
C3972 C3971 1.400 . S
C3972 C3975 1.386 . S
H3973 C3989 0.930 1_455 S
H3974 C3990 0.942 . S
C3975 H3963 0.929 . S
C3975 C3969 1.390 . S
C3975 C3972 1.386 . S
C3976 C3971 1.490 . S
C3976 C3978 1.395 . S
C3976 C3979 1.403 . S
H3977 C3983 0.930 . S
C3978 H3964 0.930 . S
C3978 C3976 1.395 . S
C3978 C3981 1.403 . S
C3979 C3976 1.403 . S
C3979 C3980 1.524 . S
C3979 C3983 1.400 . S
C3980 H3965 0.960 . S
C3980 H3966 0.960 . S
C3980 H3967 0.960 . S
C3980 C3979 1.524 . S
C3981 C3978 1.403 . S
C3981 C3982 1.392 . S
C3981 C3985 1.495 1_655 S
C3982 C3981 1.392 . S
C3982 C3983 1.385 . S
C3982 C3984 1.478 . S
C3983 H3977 0.930 . S
C3983 C3979 1.400 . S
C3983 C3982 1.385 . S
C3984 C3982 1.478 . S
C3984 C3986 1.381 . S
C3984 C3990 1.383 . S
C3985 C3981 1.495 1_455 S
C3985 H3991 0.959 . S
C3985 H3992 0.961 . S
C3985 H3993 0.960 . S
C3986 C3984 1.381 . S
C3986 C3987 1.394 . S
C3986 H3994 0.930 . S
C3987 C3986 1.394 . S
C3987 C3988 1.383 . S
C3987 H3995 0.929 . S
C3988 C3987 1.383 . S
C3988 C3989 1.377 . S
C3989 H3973 0.930 1_655 S
C3989 C3988 1.377 . S
C3989 C3990 1.379 . S
C3990 H3974 0.942 . S
C3990 C3984 1.383 . S
C3990 C3989 1.379 . S
H3991 C3985 0.959 . S
H3992 C3985 0.961 . S
H3993 C3985 0.960 . S
H3994 C3986 0.930 . S
H3995 C3987 0.929 . S
H3996 C4004 0.929 . S
H3997 C4006 0.930 . S
H3998 C4008 0.930 . S
H3999 C4011 0.929 . S
H4000 C4014 0.930 . S
H4001 C4016 0.960 . S
H4002 C4016 0.960 . S
H4003 C4016 0.960 . S
C4004 H3996 0.929 . S
C4004 C4005 1.377 . S
C4004 C4006 1.384 . S
C4005 C4004 1.377 . S
C4005 C4011 1.390 . S
C4006 H3997 0.930 . S
C4006 C4004 1.384 . S
C4006 C4007 1.372 . S
C4007 C4006 1.372 . S
C4007 C4008 1.400 . S
C4007 C4012 1.490 . S
C4008 H3998 0.930 . S
C4008 C4007 1.400 . S
C4008 C4011 1.386 . S
H4009 C4025 0.930 . S
H4010 C4026 0.931 . S
C4011 H3999 0.929 . S
C4011 C4005 1.390 . S
C4011 C4008 1.386 . S
C4012 C4007 1.490 . S
C4012 C4014 1.395 . S
C4012 C4015 1.403 . S
H4013 C4019 0.930 . S
C4014 H4000 0.930 . S
C4014 C4012 1.395 . S
C4014 C4017 1.403 . S
C4015 C4012 1.403 . S
C4015 C4016 1.524 . S
C4015 C4019 1.400 . S
C4016 H4001 0.960 . S
C4016 H4002 0.960 . S
C4016 H4003 0.960 . S
C4016 C4015 1.524 . S
C4017 C4014 1.403 . S
C4017 C4018 1.392 . S
C4017 C4021 1.495 . S
C4018 C4017 1.392 . S
C4018 C4019 1.385 . S
C4018 C4020 1.478 . S
C4019 H4013 0.930 . S
C4019 C4015 1.400 . S
C4019 C4018 1.385 . S
C4020 C4018 1.478 . S
C4020 C4022 1.381 . S
C4020 C4026 1.383 . S
C4021 C4017 1.495 . S
C4021 H4027 0.959 . S
C4021 H4028 0.961 . S
C4021 H4029 0.960 . S
C4022 C4020 1.381 . S
C4022 C4023 1.394 . S
C4022 H4030 0.930 . S
C4023 C4022 1.394 . S
C4023 C4024 1.383 . S
C4023 H4031 0.929 . S
C4024 C4023 1.383 . S
C4024 C4025 1.377 . S
C4025 H4009 0.930 . S
C4025 C4024 1.377 . S
C4025 C4026 1.379 . S
C4026 H4010 0.931 . S
C4026 C4020 1.383 . S
C4026 C4025 1.379 . S
H4027 C4021 0.959 . S
H4028 C4021 0.961 . S
H4029 C4021 0.960 . S
H4030 C4022 0.930 . S
H4031 C4023 0.929 . S
H4032 C4040 0.929 . S
H4033 C4042 0.930 . S
H4034 C4044 0.930 . S
H4035 C4047 0.929 . S
H4036 C4050 0.930 . S
H4037 C4052 0.960 . S
H4038 C4052 0.960 . S
H4039 C4052 0.960 . S
C4040 H4032 0.929 . S
C4040 C4041 1.377 . S
C4040 C4042 1.384 . S
C4041 C4040 1.377 . S
C4041 C4047 1.390 . S
C4042 H4033 0.930 . S
C4042 C4040 1.384 . S
C4042 C4043 1.372 . S
C4043 C4042 1.372 . S
C4043 C4044 1.400 . S
C4043 C4048 1.490 . S
C4044 H4034 0.930 . S
C4044 C4043 1.400 . S
C4044 C4047 1.386 . S
H4045 C4061 0.930 . S
H4046 C4062 0.931 . S
C4047 H4035 0.929 . S
C4047 C4041 1.390 . S
C4047 C4044 1.386 . S
C4048 C4043 1.490 . S
C4048 C4050 1.395 . S
C4048 C4051 1.403 . S
H4049 C4055 0.930 . S
C4050 H4036 0.930 . S
C4050 C4048 1.395 . S
C4050 C4053 1.403 . S
C4051 C4048 1.403 . S
C4051 C4052 1.524 . S
C4051 C4055 1.400 . S
C4052 H4037 0.960 . S
C4052 H4038 0.960 . S
C4052 H4039 0.960 . S
C4052 C4051 1.524 . S
C4053 C4050 1.403 . S
C4053 C4054 1.392 . S
C4053 C4057 1.495 . S
C4054 C4053 1.392 . S
C4054 C4055 1.385 . S
C4054 C4056 1.478 . S
C4055 H4049 0.930 . S
C4055 C4051 1.400 . S
C4055 C4054 1.385 . S
C4056 C4054 1.478 . S
C4056 C4058 1.381 . S
C4056 C4062 1.383 . S
C4057 C4053 1.495 . S
C4057 H4063 0.959 . S
C4057 H4064 0.961 . S
C4057 H4065 0.960 . S
C4058 C4056 1.381 . S
C4058 C4059 1.394 . S
C4058 H4066 0.930 . S
C4059 C4058 1.394 . S
C4059 C4060 1.383 . S
C4059 H4067 0.929 . S
C4060 C4059 1.383 . S
C4060 C4061 1.377 . S
C4061 H4045 0.930 . S
C4061 C4060 1.377 . S
C4061 C4062 1.379 . S
C4062 H4046 0.931 . S
C4062 C4056 1.383 . S
C4062 C4061 1.379 . S
H4063 C4057 0.959 . S
H4064 C4057 0.961 . S
H4065 C4057 0.960 . S
H4066 C4058 0.930 . S
H4067 C4059 0.929 . S
H4068 C4076 0.929 . S
H4069 C4078 0.930 . S
H4070 C4080 0.930 . S
H4071 C4083 0.929 . S
H4072 C4086 0.930 . S
H4073 C4088 0.960 . S
H4074 C4088 0.960 . S
H4075 C4088 0.960 . S
C4076 H4068 0.929 . S
C4076 C4077 1.377 . S
C4076 C4078 1.384 . S
C4077 C4076 1.377 . S
C4077 C4083 1.390 . S
C4078 H4069 0.930 . S
C4078 C4076 1.384 . S
C4078 C4079 1.372 . S
C4079 C4078 1.372 . S
C4079 C4080 1.400 . S
C4079 C4084 1.490 . S
C4080 H4070 0.930 . S
C4080 C4079 1.400 . S
C4080 C4083 1.386 . S
H4081 C4097 0.930 . S
H4082 C4098 0.931 . S
C4083 H4071 0.929 . S
C4083 C4077 1.390 . S
C4083 C4080 1.386 . S
C4084 C4079 1.490 . S
C4084 C4086 1.395 . S
C4084 C4087 1.403 . S
H4085 C4091 0.930 . S
C4086 H4072 0.930 . S
C4086 C4084 1.395 . S
C4086 C4089 1.403 . S
C4087 C4084 1.403 . S
C4087 C4088 1.524 . S
C4087 C4091 1.400 . S
C4088 H4073 0.960 . S
C4088 H4074 0.960 . S
C4088 H4075 0.960 . S
C4088 C4087 1.524 . S
C4089 C4086 1.403 . S
C4089 C4090 1.392 . S
C4089 C4093 1.495 . S
C4090 C4089 1.392 . S
C4090 C4091 1.385 . S
C4090 C4092 1.478 . S
C4091 H4085 0.930 . S
C4091 C4087 1.400 . S
C4091 C4090 1.385 . S
C4092 C4090 1.478 . S
C4092 C4094 1.381 . S
C4092 C4098 1.383 . S
C4093 C4089 1.495 . S
C4093 H4099 0.959 . S
C4093 H4100 0.961 . S
C4093 H4101 0.960 . S
C4094 C4092 1.381 . S
C4094 C4095 1.394 . S
C4094 H4102 0.930 . S
C4095 C4094 1.394 . S
C4095 C4096 1.383 . S
C4095 H4103 0.929 . S
C4096 C4095 1.383 . S
C4096 C4097 1.377 . S
C4097 H4081 0.930 . S
C4097 C4096 1.377 . S
C4097 C4098 1.379 . S
C4098 H4082 0.931 . S
C4098 C4092 1.383 . S
C4098 C4097 1.379 . S
H4099 C4093 0.959 . S
H4100 C4093 0.961 . S
H4101 C4093 0.960 . S
H4102 C4094 0.930 . S
H4103 C4095 0.929 . S
H4104 C4112 0.929 . S
H4105 C4114 0.930 . S
H4106 C4116 0.930 . S
H4107 C4119 0.929 . S
H4108 C4122 0.930 . S
H4109 C4124 0.960 . S
H4110 C4124 0.960 . S
H4111 C4124 0.960 . S
C4112 H4104 0.929 . S
C4112 C4113 1.377 . S
C4112 C4114 1.384 . S
C4113 C4112 1.377 . S
C4113 C4119 1.390 . S
C4114 H4105 0.930 . S
C4114 C4112 1.384 . S
C4114 C4115 1.372 . S
C4115 C4114 1.372 . S
C4115 C4116 1.400 . S
C4115 C4120 1.490 . S
C4116 H4106 0.930 . S
C4116 C4115 1.400 . S
C4116 C4119 1.386 . S
H4117 C4133 0.930 . S
H4118 C4134 0.931 . S
C4119 H4107 0.929 . S
C4119 C4113 1.390 . S
C4119 C4116 1.386 . S
C4120 C4115 1.490 . S
C4120 C4122 1.395 . S
C4120 C4123 1.403 . S
H4121 C4127 0.930 . S
C4122 H4108 0.930 . S
C4122 C4120 1.395 . S
C4122 C4125 1.403 . S
C4123 C4120 1.403 . S
C4123 C4124 1.524 . S
C4123 C4127 1.400 . S
C4124 H4109 0.960 . S
C4124 H4110 0.960 . S
C4124 H4111 0.960 . S
C4124 C4123 1.524 . S
C4125 C4122 1.403 . S
C4125 C4126 1.392 . S
C4125 C4129 1.495 . S
C4126 C4125 1.392 . S
C4126 C4127 1.385 . S
C4126 C4128 1.478 . S
C4127 H4121 0.930 . S
C4127 C4123 1.400 . S
C4127 C4126 1.385 . S
C4128 C4126 1.478 . S
C4128 C4130 1.381 . S
C4128 C4134 1.383 . S
C4129 C4125 1.495 . S
C4129 H4135 0.959 . S
C4129 H4136 0.961 . S
C4129 H4137 0.960 . S
C4130 C4128 1.381 . S
C4130 C4131 1.394 . S
C4130 H4138 0.930 . S
C4131 C4130 1.394 . S
C4131 C4132 1.383 . S
C4131 H4139 0.929 . S
C4132 C4131 1.383 . S
C4132 C4133 1.377 . S
C4133 H4117 0.930 . S
C4133 C4132 1.377 . S
C4133 C4134 1.379 . S
C4134 H4118 0.931 . S
C4134 C4128 1.383 . S
C4134 C4133 1.379 . S
H4135 C4129 0.959 . S
H4136 C4129 0.961 . S
H4137 C4129 0.960 . S
H4138 C4130 0.930 . S
H4139 C4131 0.929 . S
H4140 C4148 0.929 . S
H4141 C4150 0.930 . S
H4142 C4152 0.930 . S
H4143 C4155 0.929 . S
H4144 C4158 0.930 . S
H4145 C4160 0.960 . S
H4146 C4160 0.960 . S
H4147 C4160 0.960 . S
C4148 H4140 0.929 . S
C4148 C4149 1.377 . S
C4148 C4150 1.384 . S
C4149 C4148 1.377 . S
C4149 C4155 1.390 . S
C4150 H4141 0.930 . S
C4150 C4148 1.384 . S
C4150 C4151 1.372 . S
C4151 C4150 1.372 . S
C4151 C4152 1.400 . S
C4151 C4156 1.490 . S
C4152 H4142 0.930 . S
C4152 C4151 1.400 . S
C4152 C4155 1.386 . S
H4153 C4169 0.930 . S
H4154 C4170 0.931 . S
C4155 H4143 0.929 . S
C4155 C4149 1.390 . S
C4155 C4152 1.386 . S
C4156 C4151 1.490 . S
C4156 C4158 1.395 . S
C4156 C4159 1.403 . S
H4157 C4163 0.930 . S
C4158 H4144 0.930 . S
C4158 C4156 1.395 . S
C4158 C4161 1.403 . S
C4159 C4156 1.403 . S
C4159 C4160 1.524 . S
C4159 C4163 1.400 . S
C4160 H4145 0.960 . S
C4160 H4146 0.960 . S
C4160 H4147 0.960 . S
C4160 C4159 1.524 . S
C4161 C4158 1.403 . S
C4161 C4162 1.392 . S
C4161 C4165 1.495 . S
C4162 C4161 1.392 . S
C4162 C4163 1.385 . S
C4162 C4164 1.478 . S
C4163 H4157 0.930 . S
C4163 C4159 1.400 . S
C4163 C4162 1.385 . S
C4164 C4162 1.478 . S
C4164 C4166 1.381 . S
C4164 C4170 1.383 . S
C4165 C4161 1.495 . S
C4165 H4171 0.959 . S
C4165 H4172 0.961 . S
C4165 H4173 0.960 . S
C4166 C4164 1.381 . S
C4166 C4167 1.394 . S
C4166 H4174 0.930 . S
C4167 C4166 1.394 . S
C4167 C4168 1.383 . S
C4167 H4175 0.929 . S
C4168 C4167 1.383 . S
C4168 C4169 1.377 . S
C4169 H4153 0.930 . S
C4169 C4168 1.377 . S
C4169 C4170 1.379 . S
C4170 H4154 0.931 . S
C4170 C4164 1.383 . S
C4170 C4169 1.379 . S
H4171 C4165 0.959 . S
H4172 C4165 0.961 . S
H4173 C4165 0.960 . S
H4174 C4166 0.930 . S
H4175 C4167 0.929 . S
H4176 C4184 0.929 . S
H4177 C4186 0.930 . S
H4178 C4188 0.930 . S
H4179 C4191 0.929 . S
H4180 C4194 0.930 . S
H4181 C4196 0.960 . S
H4182 C4196 0.960 . S
H4183 C4196 0.960 . S
C4184 H4176 0.929 . S
C4184 C4185 1.377 . S
C4184 C4186 1.384 . S
C4185 C4184 1.377 . S
C4185 C4191 1.390 . S
C4186 H4177 0.930 . S
C4186 C4184 1.384 . S
C4186 C4187 1.372 . S
C4187 C4186 1.372 . S
C4187 C4188 1.400 . S
C4187 C4192 1.490 . S
C4188 H4178 0.930 . S
C4188 C4187 1.400 . S
C4188 C4191 1.386 . S
H4189 C4205 0.930 . S
H4190 C4206 0.931 . S
C4191 H4179 0.929 . S
C4191 C4185 1.390 . S
C4191 C4188 1.386 . S
C4192 C4187 1.490 . S
C4192 C4194 1.395 . S
C4192 C4195 1.403 . S
H4193 C4199 0.930 . S
C4194 H4180 0.930 . S
C4194 C4192 1.395 . S
C4194 C4197 1.403 . S
C4195 C4192 1.403 . S
C4195 C4196 1.524 . S
C4195 C4199 1.400 . S
C4196 H4181 0.960 . S
C4196 H4182 0.960 . S
C4196 H4183 0.960 . S
C4196 C4195 1.524 . S
C4197 C4194 1.403 . S
C4197 C4198 1.392 . S
C4197 C4201 1.495 . S
C4198 C4197 1.392 . S
C4198 C4199 1.385 . S
C4198 C4200 1.478 . S
C4199 H4193 0.930 . S
C4199 C4195 1.400 . S
C4199 C4198 1.385 . S
C4200 C4198 1.478 . S
C4200 C4202 1.381 . S
C4200 C4206 1.383 . S
C4201 C4197 1.495 . S
C4201 H4207 0.959 . S
C4201 H4208 0.961 . S
C4201 H4209 0.960 . S
C4202 C4200 1.381 . S
C4202 C4203 1.394 . S
C4202 H4210 0.930 . S
C4203 C4202 1.394 . S
C4203 C4204 1.383 . S
C4203 H4211 0.929 . S
C4204 C4203 1.383 . S
C4204 C4205 1.377 . S
C4205 H4189 0.930 . S
C4205 C4204 1.377 . S
C4205 C4206 1.379 . S
C4206 H4190 0.931 . S
C4206 C4200 1.383 . S
C4206 C4205 1.379 . S
H4207 C4201 0.959 . S
H4208 C4201 0.961 . S
H4209 C4201 0.960 . S
H4210 C4202 0.930 . S
H4211 C4203 0.929 . S
H4212 C4220 0.929 . S
H4213 C4222 0.930 . S
H4214 C4224 0.930 . S
H4215 C4227 0.929 . S
H4216 C4230 0.930 . S
H4217 C4232 0.960 . S
H4218 C4232 0.960 . S
H4219 C4232 0.960 . S
C4220 H4212 0.929 . S
C4220 C4221 1.377 . S
C4220 C4222 1.384 . S
C4221 C4220 1.377 . S
C4221 C4227 1.390 . S
C4222 H4213 0.930 . S
C4222 C4220 1.384 . S
C4222 C4223 1.372 . S
C4223 C4222 1.372 . S
C4223 C4224 1.400 . S
C4223 C4228 1.490 . S
C4224 H4214 0.930 . S
C4224 C4223 1.400 . S
C4224 C4227 1.386 . S
H4225 C4241 0.930 . S
H4226 C4242 0.931 . S
C4227 H4215 0.929 . S
C4227 C4221 1.390 . S
C4227 C4224 1.386 . S
C4228 C4223 1.490 . S
C4228 C4230 1.395 . S
C4228 C4231 1.403 . S
H4229 C4235 0.930 . S
C4230 H4216 0.930 . S
C4230 C4228 1.395 . S
C4230 C4233 1.403 . S
C4231 C4228 1.403 . S
C4231 C4232 1.524 . S
C4231 C4235 1.400 . S
C4232 H4217 0.960 . S
C4232 H4218 0.960 . S
C4232 H4219 0.960 . S
C4232 C4231 1.524 . S
C4233 C4230 1.403 . S
C4233 C4234 1.392 . S
C4233 C4237 1.495 . S
C4234 C4233 1.392 . S
C4234 C4235 1.385 . S
C4234 C4236 1.478 . S
C4235 H4229 0.930 . S
C4235 C4231 1.400 . S
C4235 C4234 1.385 . S
C4236 C4234 1.478 . S
C4236 C4238 1.381 . S
C4236 C4242 1.383 . S
C4237 C4233 1.495 . S
C4237 H4243 0.959 . S
C4237 H4244 0.961 . S
C4237 H4245 0.960 . S
C4238 C4236 1.381 . S
C4238 C4239 1.394 . S
C4238 H4246 0.930 . S
C4239 C4238 1.394 . S
C4239 C4240 1.383 . S
C4239 H4247 0.929 . S
C4240 C4239 1.383 . S
C4240 C4241 1.377 . S
C4241 H4225 0.930 . S
C4241 C4240 1.377 . S
C4241 C4242 1.379 . S
C4242 H4226 0.931 . S
C4242 C4236 1.383 . S
C4242 C4241 1.379 . S
H4243 C4237 0.959 . S
H4244 C4237 0.961 . S
H4245 C4237 0.960 . S
H4246 C4238 0.930 . S
H4247 C4239 0.929 . S
H4248 C4256 0.929 . S
H4249 C4258 0.930 . S
H4250 C4260 0.930 . S
H4251 C4263 0.929 . S
H4252 C4266 0.930 . S
H4253 C4268 0.960 . S
H4254 C4268 0.960 . S
H4255 C4268 0.960 . S
C4256 H4248 0.929 . S
C4256 C4257 1.377 . S
C4256 C4258 1.384 . S
C4257 C4256 1.377 . S
C4257 C4263 1.390 . S
C4258 H4249 0.930 . S
C4258 C4256 1.384 . S
C4258 C4259 1.372 . S
C4259 C4258 1.372 . S
C4259 C4260 1.400 . S
C4259 C4264 1.490 . S
C4260 H4250 0.930 . S
C4260 C4259 1.400 . S
C4260 C4263 1.386 . S
H4261 C4277 0.932 . S
H4262 C4278 0.931 1_455 S
C4263 H4251 0.929 . S
C4263 C4257 1.390 . S
C4263 C4260 1.386 . S
C4264 C4259 1.490 . S
C4264 C4266 1.395 . S
C4264 C4267 1.403 . S
H4265 C4271 0.930 1_455 S
C4266 H4252 0.930 . S
C4266 C4264 1.395 . S
C4266 C4269 1.403 . S
C4267 C4264 1.403 . S
C4267 C4268 1.524 1_655 S
C4267 C4271 1.400 . S
C4268 H4253 0.960 . S
C4268 H4254 0.960 . S
C4268 H4255 0.960 . S
C4268 C4267 1.524 1_455 S
C4269 C4266 1.403 . S
C4269 C4270 1.392 . S
C4269 C4273 1.495 . S
C4270 C4269 1.392 . S
C4270 C4271 1.385 . S
C4270 C4272 1.478 . S
C4271 H4265 0.930 1_655 S
C4271 C4267 1.400 . S
C4271 C4270 1.385 . S
C4272 C4270 1.478 . S
C4272 C4274 1.381 . S
C4272 C4278 1.383 . S
C4273 C4269 1.495 . S
C4273 H4279 0.959 . S
C4273 H4280 0.961 . S
C4273 H4281 0.960 . S
C4274 C4272 1.381 . S
C4274 C4275 1.394 . S
C4274 H4282 0.930 . S
C4275 C4274 1.394 . S
C4275 C4276 1.383 . S
C4275 H4283 0.929 . S
C4276 C4275 1.383 . S
C4276 C4277 1.376 1_655 S
C4277 H4261 0.932 . S
C4277 C4276 1.376 1_455 S
C4277 C4278 1.378 1_455 S
C4278 H4262 0.931 1_655 S
C4278 C4272 1.383 . S
C4278 C4277 1.378 1_655 S
H4279 C4273 0.959 . S
H4280 C4273 0.961 . S
H4281 C4273 0.960 . S
H4282 C4274 0.930 . S
H4283 C4275 0.929 . S
H4284 C4292 0.929 . S
H4285 C4294 0.930 . S
H4286 C4296 0.930 . S
H4287 C4299 0.929 . S
H4288 C4302 0.930 . S
H4289 C4304 0.960 . S
H4290 C4304 0.960 . S
H4291 C4304 0.960 . S
C4292 H4284 0.929 . S
C4292 C4293 1.377 . S
C4292 C4294 1.384 . S
C4293 C4292 1.377 . S
C4293 C4299 1.390 . S
C4294 H4285 0.930 . S
C4294 C4292 1.384 . S
C4294 C4295 1.372 . S
C4295 C4294 1.372 . S
C4295 C4296 1.400 . S
C4295 C4300 1.490 . S
C4296 H4286 0.930 . S
C4296 C4295 1.400 . S
C4296 C4299 1.386 . S
H4297 C4313 0.930 . S
H4298 C4314 0.931 . S
C4299 H4287 0.929 . S
C4299 C4293 1.390 . S
C4299 C4296 1.386 . S
C4300 C4295 1.490 . S
C4300 C4302 1.395 . S
C4300 C4303 1.403 . S
H4301 C4307 0.930 . S
C4302 H4288 0.930 . S
C4302 C4300 1.395 . S
C4302 C4305 1.403 . S
C4303 C4300 1.403 . S
C4303 C4304 1.524 . S
C4303 C4307 1.400 . S
C4304 H4289 0.960 . S
C4304 H4290 0.960 . S
C4304 H4291 0.960 . S
C4304 C4303 1.524 . S
C4305 C4302 1.403 . S
C4305 C4306 1.392 . S
C4305 C4309 1.495 . S
C4306 C4305 1.392 . S
C4306 C4307 1.385 . S
C4306 C4308 1.478 . S
C4307 H4301 0.930 . S
C4307 C4303 1.400 . S
C4307 C4306 1.385 . S
C4308 C4306 1.478 . S
C4308 C4310 1.381 . S
C4308 C4314 1.383 . S
C4309 C4305 1.495 . S
C4309 H4315 0.959 . S
C4309 H4316 0.961 . S
C4309 H4317 0.960 . S
C4310 C4308 1.381 . S
C4310 C4311 1.394 . S
C4310 H4318 0.930 . S
C4311 C4310 1.394 . S
C4311 C4312 1.383 . S
C4311 H4319 0.929 . S
C4312 C4311 1.383 . S
C4312 C4313 1.377 . S
C4313 H4297 0.930 . S
C4313 C4312 1.377 . S
C4313 C4314 1.379 . S
C4314 H4298 0.931 . S
C4314 C4308 1.383 . S
C4314 C4313 1.379 . S
H4315 C4309 0.959 . S
H4316 C4309 0.961 . S
H4317 C4309 0.960 . S
H4318 C4310 0.930 . S
H4319 C4311 0.929 . S
H4320 C4328 1.013 . S
H4321 C4330 0.930 1_565 S
H4322 C4332 0.930 . S
H4323 C4335 0.929 . S
H4324 C4338 0.930 . S
H4325 C4340 0.960 . S
H4326 C4340 0.960 . S
H4327 C4340 0.960 . S
C4328 H4320 1.013 . S
C4328 C4329 1.377 . S
C4328 C4330 1.384 . S
C4329 C4328 1.377 . S
C4329 C4335 1.390 . S
C4330 H4321 0.930 1_545 S
C4330 C4328 1.384 . S
C4330 C4331 1.372 . S
C4331 C4330 1.372 . S
C4331 C4332 1.400 . S
C4331 C4336 1.490 . S
C4332 H4322 0.930 . S
C4332 C4331 1.400 . S
C4332 C4335 1.386 . S
H4333 C4349 0.930 . S
H4334 C4350 0.931 . S
C4335 H4323 0.929 . S
C4335 C4329 1.390 . S
C4335 C4332 1.386 . S
C4336 C4331 1.490 . S
C4336 C4338 1.395 . S
C4336 C4339 1.403 . S
H4337 C4343 0.930 . S
C4338 H4324 0.930 . S
C4338 C4336 1.395 . S
C4338 C4341 1.403 . S
C4339 C4336 1.403 . S
C4339 C4340 1.524 . S
C4339 C4343 1.400 . S
C4340 H4325 0.960 . S
C4340 H4326 0.960 . S
C4340 H4327 0.960 . S
C4340 C4339 1.524 . S
C4341 C4338 1.403 . S
C4341 C4342 1.392 . S
C4341 C4345 1.495 1_545 S
C4342 C4341 1.392 . S
C4342 C4343 1.385 . S
C4342 C4344 1.478 . S
C4343 H4337 0.930 . S
C4343 C4339 1.400 . S
C4343 C4342 1.385 . S
C4344 C4342 1.478 . S
C4344 C4346 1.381 1_545 S
C4344 C4350 1.383 . S
C4345 C4341 1.495 1_565 S
C4345 H4351 0.959 . S
C4345 H4352 0.961 1_565 S
C4345 H4353 0.960 . S
C4346 C4344 1.381 1_565 S
C4346 C4347 1.394 . S
C4346 H4354 0.930 . S
C4347 C4346 1.394 . S
C4347 C4348 1.383 1_565 S
C4347 H4355 0.929 . S
C4348 C4347 1.383 1_545 S
C4348 C4349 1.377 . S
C4349 H4333 0.930 . S
C4349 C4348 1.377 . S
C4349 C4350 1.379 . S
C4350 H4334 0.931 . S
C4350 C4344 1.383 . S
C4350 C4349 1.379 . S
H4351 C4345 0.959 . S
H4352 C4345 0.961 1_545 S
H4353 C4345 0.960 . S
H4354 C4346 0.930 . S
H4355 C4347 0.929 . S
C1773 C4 1.539 1_655 S
C1792 C1253 1.499 . S
C1809 C38 1.738 . S
C1828 C1297 1.718 . S
C1864 C1377 1.467 . S
C1845 C74 1.539 . S
C1881 C76 1.516 . S
C1900 C1421 1.494 . S
C1917 C2 1.637 . S
C1936 C1501 1.615 . S
C1953 C40 1.572 . S
C1972 C1563 1.533 . S
C1989 C110 1.636 . S
C2008 C1483 1.561 . S
C2044 C1545 1.510 . S
C2025 C148 1.568 . S
C2080 C1439 1.608 . S
C2061 C182 1.631 . S
C2097 C184 1.569 . S
C2116 C1359 1.500 . S
C2152 C1235 1.474 . S
C2133 C112 1.523 1_655 S
C2169 C146 1.671 . S
C2188 C1315 1.650 . S
C2205 C220 1.650 . S
C2224 C1625 1.554 . S
C2241 C254 1.791 . S
C2260 C1669 1.740 . S
C2296 C1749 1.614 . S
C2277 C290 1.660 . S
C2313 C292 1.571 . S
C2332 C695 1.476 . S
C2349 C218 1.718 . S
C2368 C739 1.658 . S
C2385 C256 1.588 . S
C2404 C819 1.510 . S
C2421 C326 1.709 . S
C2440 C757 1.662 . S
C2457 C364 1.622 . S
C2476 C801 1.555 . S
C2512 C677 1.646 . S
C2493 C398 1.725 . S
C2548 C1731 1.591 . S
C2529 C400 1.676 . S
C2584 C1607 1.474 . S
C2565 C328 1.544 . S
C2620 C1687 1.699 . S
C2601 C362 1.723 . S
C2637 C436 1.616 . S
C2656 C881 1.542 . S
C2673 C470 1.777 . S
C2692 C943 1.729 . S
C2709 C506 1.664 . S
C2728 C987 1.611 . S
C2745 C508 1.607 . S
C2764 C1049 1.576 . S
C2800 C1111 1.701 . S
C2781 C434 1.718 . S
C2836 C1191 1.516 . S
C2817 C472 1.610 . S
C2872 C1129 1.735 . S
C2853 C542 1.763 . S
C2908 C1173 1.568 . S
C2889 C580 1.623 . S
C2925 C614 1.709 . S
C2944 C1067 1.670 . S
C2980 C1005 1.596 . S
C2961 C616 1.624 . S
C2997 C544 1.555 . S
C3016 C863 1.508 . S
C3052 C925 1.650 . S
C3033 C578 1.697 . S
C3088 C701 1.474 . S
C3069 C14 1.545 . S
C3105 C39 1.525 . S
C3124 C745 1.493 . S
C3160 C825 1.464 . S
C3141 C75 1.523 . S
C3196 C887 1.312 . S
C3177 C86 1.368 . S
C3232 C949 1.466 . S
C3213 C3 1.554 . S
C3268 C993 1.457 . S
C3249 C50 1.484 . S
C3285 C111 1.577 . S
C3304 C1011 1.487 . S
C3321 C158 1.430 . S
C3340 C869 1.399 . S
C3357 C183 1.630 1_556 S
C3376 C931 1.566 . S
C3393 C194 1.516 . S
C3412 C763 1.495 . S
C3448 C807 1.374 . S
C3429 C122 1.430 . S
C3465 C147 1.443 . S
C3484 C683 1.400 . S
C3520 C1055 1.468 . S
C3501 C230 1.520 . S
C3537 C255 1.607 . S
C3556 C1117 1.525 . S
C3573 C291 1.571 . S
C3592 C1197 1.484 . S
C3628 C1259 1.331 . S
C3609 C302 1.318 . S
C3645 C219 1.543 . S
C3664 C1303 1.499 . S
C3681 C266 1.391 . S
C3700 C1383 1.360 . S
C3717 C327 1.387 . S
C3736 C1365 1.291 . S
C3753 C374 1.379 . S
C3772 C1241 1.331 . S
C3808 C1321 1.555 . S
C3789 C399 1.614 . S
C3825 C410 1.521 . S
C3844 C1135 1.517 . S
C3861 C338 1.506 1_545 S
C3880 C1179 1.432 . S
C3916 C1073 1.479 . S
C3897 C363 1.516 1_655 S
C3952 C1427 1.423 . S
C3933 C446 1.416 . S
C3969 C471 1.447 . S
C3988 C1507 1.379 . S
C4005 C507 1.486 . S
C4024 C1569 1.425 . S
C4060 C1631 1.361 . S
C4041 C518 1.399 . S
C4096 C1675 1.551 . S
C4077 C435 1.612 1_565 S
C4113 C482 1.549 1_455 S
C4132 C1755 1.520 . S
C4149 C543 1.514 . S
C4168 C1737 1.435 . S
C4185 C590 1.496 1_565 S
C4204 C1613 1.485 . S
C4240 C1693 1.608 . S
C4221 C615 1.669 1_455 S
C4276 C1489 1.402 . S
C4257 C626 1.395 . S
C4312 C1551 1.446 . S
C4293 C554 1.456 . S
C4329 C579 1.388 . S
C4348 C1445 1.313 . S
