# Generated by pormake.
# Topology ptr, (4,4)-cn, num edge types: 1
# Building blocks:
#     Node 0, Type 0, BuildingBlock: AZAVOO_clean_sbu_0, # of connection points: 4
#     Node 1, Type 0, BuildingBlock: AZAVOO_clean_sbu_0, # of connection points: 4
#     Node 2, Type 0, BuildingBlock: AZAVOO_clean_sbu_0, # of connection points: 4
#     Node 3, Type 0, BuildingBlock: AZAVOO_clean_sbu_0, # of connection points: 4
#     Node 4, Type 0, BuildingBlock: AZAVOO_clean_sbu_0, # of connection points: 4
#     Node 5, Type 0, BuildingBlock: AZAVOO_clean_sbu_0, # of connection points: 4
#     Node 6, Type 0, BuildingBlock: AZAVOO_clean_sbu_0, # of connection points: 4
#     Node 7, Type 0, BuildingBlock: AZAVOO_clean_sbu_0, # of connection points: 4
#     Node 8, Type 0, BuildingBlock: AZAVOO_clean_sbu_0, # of connection points: 4
#     Node 9, Type 0, BuildingBlock: AZAVOO_clean_sbu_0, # of connection points: 4
#     Node 10, Type 0, BuildingBlock: AZAVOO_clean_sbu_0, # of connection points: 4
#     Node 11, Type 0, BuildingBlock: AZAVOO_clean_sbu_0, # of connection points: 4
#     Node 12, Type 0, BuildingBlock: AZAVOO_clean_sbu_0, # of connection points: 4
#     Node 13, Type 0, BuildingBlock: AZAVOO_clean_sbu_0, # of connection points: 4
#     Node 14, Type 0, BuildingBlock: AZAVOO_clean_sbu_0, # of connection points: 4
#     Node 15, Type 0, BuildingBlock: AZAVOO_clean_sbu_0, # of connection points: 4
#     Node 16, Type 0, BuildingBlock: AZAVOO_clean_sbu_0, # of connection points: 4
#     Node 17, Type 0, BuildingBlock: AZAVOO_clean_sbu_0, # of connection points: 4
#     Node 18, Type 1, BuildingBlock: NAWXER_clean_linker_0, # of connection points: 4
#     Node 19, Type 1, BuildingBlock: NAWXER_clean_linker_0, # of connection points: 4
#     Node 20, Type 1, BuildingBlock: NAWXER_clean_linker_0, # of connection points: 4
#     Node 21, Type 1, BuildingBlock: NAWXER_clean_linker_0, # of connection points: 4
#     Node 22, Type 1, BuildingBlock: NAWXER_clean_linker_0, # of connection points: 4
#     Node 23, Type 1, BuildingBlock: NAWXER_clean_linker_0, # of connection points: 4
#     Node 24, Type 1, BuildingBlock: NAWXER_clean_linker_0, # of connection points: 4
#     Node 25, Type 1, BuildingBlock: NAWXER_clean_linker_0, # of connection points: 4
#     Node 26, Type 1, BuildingBlock: NAWXER_clean_linker_0, # of connection points: 4
#     Node 27, Type 1, BuildingBlock: NAWXER_clean_linker_0, # of connection points: 4
#     Node 28, Type 1, BuildingBlock: NAWXER_clean_linker_0, # of connection points: 4
#     Node 29, Type 1, BuildingBlock: NAWXER_clean_linker_0, # of connection points: 4
#     Node 30, Type 1, BuildingBlock: NAWXER_clean_linker_0, # of connection points: 4
#     Node 31, Type 1, BuildingBlock: NAWXER_clean_linker_0, # of connection points: 4
#     Node 32, Type 1, BuildingBlock: NAWXER_clean_linker_0, # of connection points: 4
#     Node 33, Type 1, BuildingBlock: NAWXER_clean_linker_0, # of connection points: 4
#     Node 34, Type 1, BuildingBlock: NAWXER_clean_linker_0, # of connection points: 4
#     Node 35, Type 1, BuildingBlock: NAWXER_clean_linker_0, # of connection points: 4
#     Edge 36, Type (0, 1), BuildingBlock: FUNLAD_clean_linker_0, # of connection points: 2
#     Edge 37, Type (0, 1), BuildingBlock: FUNLAD_clean_linker_0, # of connection points: 2
#     Edge 38, Type (0, 1), BuildingBlock: FUNLAD_clean_linker_0, # of connection points: 2
#     Edge 39, Type (0, 1), BuildingBlock: FUNLAD_clean_linker_0, # of connection points: 2
#     Edge 40, Type (0, 1), BuildingBlock: FUNLAD_clean_linker_0, # of connection points: 2
#     Edge 41, Type (0, 1), BuildingBlock: FUNLAD_clean_linker_0, # of connection points: 2
#     Edge 42, Type (0, 1), BuildingBlock: FUNLAD_clean_linker_0, # of connection points: 2
#     Edge 43, Type (0, 1), BuildingBlock: FUNLAD_clean_linker_0, # of connection points: 2
#     Edge 44, Type (0, 1), BuildingBlock: FUNLAD_clean_linker_0, # of connection points: 2
#     Edge 45, Type (0, 1), BuildingBlock: FUNLAD_clean_linker_0, # of connection points: 2
#     Edge 46, Type (0, 1), BuildingBlock: FUNLAD_clean_linker_0, # of connection points: 2
#     Edge 47, Type (0, 1), BuildingBlock: FUNLAD_clean_linker_0, # of connection points: 2
#     Edge 48, Type (0, 1), BuildingBlock: FUNLAD_clean_linker_0, # of connection points: 2
#     Edge 49, Type (0, 1), BuildingBlock: FUNLAD_clean_linker_0, # of connection points: 2
#     Edge 50, Type (0, 1), BuildingBlock: FUNLAD_clean_linker_0, # of connection points: 2
#     Edge 51, Type (0, 1), BuildingBlock: FUNLAD_clean_linker_0, # of connection points: 2
#     Edge 52, Type (0, 1), BuildingBlock: FUNLAD_clean_linker_0, # of connection points: 2
#     Edge 53, Type (0, 1), BuildingBlock: FUNLAD_clean_linker_0, # of connection points: 2
#     Edge 54, Type (0, 1), BuildingBlock: FUNLAD_clean_linker_0, # of connection points: 2
#     Edge 55, Type (0, 1), BuildingBlock: FUNLAD_clean_linker_0, # of connection points: 2
#     Edge 56, Type (0, 1), BuildingBlock: FUNLAD_clean_linker_0, # of connection points: 2
#     Edge 57, Type (0, 1), BuildingBlock: FUNLAD_clean_linker_0, # of connection points: 2
#     Edge 58, Type (0, 1), BuildingBlock: FUNLAD_clean_linker_0, # of connection points: 2
#     Edge 59, Type (0, 1), BuildingBlock: FUNLAD_clean_linker_0, # of connection points: 2
#     Edge 60, Type (0, 1), BuildingBlock: FUNLAD_clean_linker_0, # of connection points: 2
#     Edge 61, Type (0, 1), BuildingBlock: FUNLAD_clean_linker_0, # of connection points: 2
#     Edge 62, Type (0, 1), BuildingBlock: FUNLAD_clean_linker_0, # of connection points: 2
#     Edge 63, Type (0, 1), BuildingBlock: FUNLAD_clean_linker_0, # of connection points: 2
#     Edge 64, Type (0, 1), BuildingBlock: FUNLAD_clean_linker_0, # of connection points: 2
#     Edge 65, Type (0, 1), BuildingBlock: FUNLAD_clean_linker_0, # of connection points: 2
#     Edge 66, Type (0, 1), BuildingBlock: FUNLAD_clean_linker_0, # of connection points: 2
#     Edge 67, Type (0, 1), BuildingBlock: FUNLAD_clean_linker_0, # of connection points: 2
#     Edge 68, Type (0, 1), BuildingBlock: FUNLAD_clean_linker_0, # of connection points: 2
#     Edge 69, Type (0, 1), BuildingBlock: FUNLAD_clean_linker_0, # of connection points: 2
#     Edge 70, Type (0, 1), BuildingBlock: FUNLAD_clean_linker_0, # of connection points: 2
#     Edge 71, Type (0, 1), BuildingBlock: FUNLAD_clean_linker_0, # of connection points: 2
#     Edge 72, Type (0, 1), BuildingBlock: FUNLAD_clean_linker_0, # of connection points: 2
#     Edge 73, Type (0, 1), BuildingBlock: FUNLAD_clean_linker_0, # of connection points: 2
#     Edge 74, Type (0, 1), BuildingBlock: FUNLAD_clean_linker_0, # of connection points: 2
#     Edge 75, Type (0, 1), BuildingBlock: FUNLAD_clean_linker_0, # of connection points: 2
#     Edge 76, Type (0, 1), BuildingBlock: FUNLAD_clean_linker_0, # of connection points: 2
#     Edge 77, Type (0, 1), BuildingBlock: FUNLAD_clean_linker_0, # of connection points: 2
#     Edge 78, Type (0, 1), BuildingBlock: FUNLAD_clean_linker_0, # of connection points: 2
#     Edge 79, Type (0, 1), BuildingBlock: FUNLAD_clean_linker_0, # of connection points: 2
#     Edge 80, Type (0, 1), BuildingBlock: FUNLAD_clean_linker_0, # of connection points: 2
#     Edge 81, Type (0, 1), BuildingBlock: FUNLAD_clean_linker_0, # of connection points: 2
#     Edge 82, Type (0, 1), BuildingBlock: FUNLAD_clean_linker_0, # of connection points: 2
#     Edge 83, Type (0, 1), BuildingBlock: FUNLAD_clean_linker_0, # of connection points: 2
#     Edge 84, Type (0, 1), BuildingBlock: FUNLAD_clean_linker_0, # of connection points: 2
#     Edge 85, Type (0, 1), BuildingBlock: FUNLAD_clean_linker_0, # of connection points: 2
#     Edge 86, Type (0, 1), BuildingBlock: FUNLAD_clean_linker_0, # of connection points: 2
#     Edge 87, Type (0, 1), BuildingBlock: FUNLAD_clean_linker_0, # of connection points: 2
#     Edge 88, Type (0, 1), BuildingBlock: FUNLAD_clean_linker_0, # of connection points: 2
#     Edge 89, Type (0, 1), BuildingBlock: FUNLAD_clean_linker_0, # of connection points: 2
#     Edge 90, Type (0, 1), BuildingBlock: FUNLAD_clean_linker_0, # of connection points: 2
#     Edge 91, Type (0, 1), BuildingBlock: FUNLAD_clean_linker_0, # of connection points: 2
#     Edge 92, Type (0, 1), BuildingBlock: FUNLAD_clean_linker_0, # of connection points: 2
#     Edge 93, Type (0, 1), BuildingBlock: FUNLAD_clean_linker_0, # of connection points: 2
#     Edge 94, Type (0, 1), BuildingBlock: FUNLAD_clean_linker_0, # of connection points: 2
#     Edge 95, Type (0, 1), BuildingBlock: FUNLAD_clean_linker_0, # of connection points: 2
#     Edge 96, Type (0, 1), BuildingBlock: FUNLAD_clean_linker_0, # of connection points: 2
#     Edge 97, Type (0, 1), BuildingBlock: FUNLAD_clean_linker_0, # of connection points: 2
#     Edge 98, Type (0, 1), BuildingBlock: FUNLAD_clean_linker_0, # of connection points: 2
#     Edge 99, Type (0, 1), BuildingBlock: FUNLAD_clean_linker_0, # of connection points: 2
#     Edge 100, Type (0, 1), BuildingBlock: FUNLAD_clean_linker_0, # of connection points: 2
#     Edge 101, Type (0, 1), BuildingBlock: FUNLAD_clean_linker_0, # of connection points: 2
#     Edge 102, Type (0, 1), BuildingBlock: FUNLAD_clean_linker_0, # of connection points: 2
#     Edge 103, Type (0, 1), BuildingBlock: FUNLAD_clean_linker_0, # of connection points: 2
#     Edge 104, Type (0, 1), BuildingBlock: FUNLAD_clean_linker_0, # of connection points: 2
#     Edge 105, Type (0, 1), BuildingBlock: FUNLAD_clean_linker_0, # of connection points: 2
#     Edge 106, Type (0, 1), BuildingBlock: FUNLAD_clean_linker_0, # of connection points: 2
#     Edge 107, Type (0, 1), BuildingBlock: FUNLAD_clean_linker_0, # of connection points: 2
# Relax obj value: 0.082
# Max RMSD: 0.298
# Mean RMSD: 0.120
data_MOF--net-ptr--node1-AZAVOO_clean_sbu_0--node2-NAWXER_clean_linker_0--edge1-FUNLAD_clean_linker_0
_symmetry_space_group_name_H-M    P1
_symmetry_Int_Tables_number       1
_symmetry_cell_setting            triclinic
loop_
_symmetry_equiv_pos_as_xyz
'x, y, z'
_cell_length_a     99.988641
_cell_length_b     98.241598
_cell_length_c     70.293276
_cell_angle_alpha  91.09508
_cell_angle_beta   90.812128
_cell_angle_gamma 120.1073
loop_
_atom_site_label
_atom_site_type_symbol
_atom_site_fract_x
_atom_site_fract_y
_atom_site_fract_z
_atom_type_partial_charge
Mg0 Mg 0.01778 0.33637 0.98046 0.0
O1 O 0.00359 0.34373 0.99946 0.0
O2 O 0.98871 0.34836 0.97962 0.0
Mg3 Mg 0.99281 0.34385 0.94898 0.0
C4 C 0.99344 0.34779 0.99641 0.0
C5 C 0.03919 0.32984 0.00415 0.0
O6 O 0.04657 0.336 0.98847 0.0
O7 O 0.99662 0.31196 0.97487 0.0
O8 O 0.9824 0.31768 0.95533 0.0
O9 O 0.03583 0.36169 0.97842 0.0
O10 O 0.016 0.3491 0.95818 0.0
C11 C 0.9845 0.30778 0.96452 0.0
C12 C 0.02786 0.36215 0.96402 0.0
O13 O 0.02576 0.32802 0.006 0.0
Mg14 Mg 0.65735 0.6576 0.03617 0.0
O15 O 0.63842 0.65329 0.01396 0.0
O16 O 0.6187 0.65237 0.02957 0.0
Mg17 Mg 0.62487 0.65583 0.06141 0.0
C18 C 0.62491 0.65163 0.01413 0.0
C19 C 0.68501 0.65986 0.01595 0.0
O20 O 0.68431 0.65231 0.03148 0.0
O21 O 0.66399 0.68317 0.04058 0.0
O22 O 0.64435 0.68141 0.05727 0.0
O23 O 0.64684 0.6318 0.03914 0.0
O24 O 0.6408 0.64677 0.05669 0.0
C25 C 0.65746 0.68955 0.04957 0.0
C26 C 0.63836 0.63292 0.05214 0.0
O27 O 0.67492 0.66388 0.01304 0.0
Mg28 Mg 0.33521 0.97952 0.98876 0.0
O29 O 0.35438 0.99456 0.01087 0.0
O30 O 0.37461 0.01312 0.99576 0.0
Mg31 Mg 0.36825 0.01006 0.96395 0.0
C32 C 0.36811 0.00633 0.01103 0.0
C33 C 0.30449 0.96681 0.00985 0.0
O34 O 0.30055 0.96976 0.99318 0.0
O35 O 0.32938 -0.00113 0.98494 0.0
O36 O 0.34947 0.01667 0.96879 0.0
O37 O 0.34545 0.964 0.98482 0.0
O38 O 0.35141 0.98497 0.96794 0.0
C39 C 0.33637 0.01188 0.97642 0.0
C40 C 0.35376 0.97359 0.97184 0.0
O41 O 0.31814 0.9693 0.01256 0.0
Mg42 Mg 0.99166 0.66352 0.02812 0.0
O43 O 0.0034 0.65773 0.00368 0.0
O44 O 0.022 0.65458 0.01725 0.0
Mg45 Mg 0.0221 0.65789 0.04947 0.0
C46 C 0.01442 0.65471 0.00254 0.0
C47 C 0.97611 0.68178 0.01391 0.0
O48 O 0.97944 0.68645 0.03187 0.0
O49 O 0.01229 0.68841 0.03218 0.0
O50 O 0.02975 0.68405 0.04662 0.0
O51 O 0.97492 0.63786 0.03091 0.0
O52 O 0.99745 0.65064 0.04641 0.0
C53 C 0.02555 0.69343 0.04019 0.0
C54 C 0.98514 0.63746 0.04204 0.0
O55 O 0.97993 0.67211 0.0073 0.0
Mg56 Mg 0.33629 0.34578 0.97911 0.0
O57 O 0.35622 0.35049 0.99971 0.0
O58 O 0.37642 0.35422 0.98271 0.0
Mg59 Mg 0.36945 0.35217 0.95115 0.0
C60 C 0.37012 0.35333 0.99866 0.0
C61 C 0.3066 0.32462 0.00181 0.0
O62 O 0.30265 0.31673 0.98545 0.0
O63 O 0.3319 0.32109 0.97238 0.0
O64 O 0.35167 0.32589 0.95384 0.0
O65 O 0.34501 0.37164 0.97802 0.0
O66 O 0.3519 0.35858 0.95836 0.0
C67 C 0.3391 0.31632 0.96181 0.0
C68 C 0.35347 0.37183 0.96414 0.0
O69 O 0.31971 0.33709 0.00367 0.0
Mg70 Mg 0.6603 0.0066 0.03113 0.0
O71 O 0.64196 0.99479 0.0072 0.0
O72 O 0.61999 0.97641 0.01959 0.0
Mg73 Mg 0.62435 0.97638 0.0516 0.0
C74 C 0.6278 0.984 0.00539 0.0
C75 C 0.69146 0.01733 0.01119 0.0
O76 O 0.69395 0.01199 0.02705 0.0
O77 O 0.66318 0.98511 0.03273 0.0
O78 O 0.64138 0.96753 0.04634 0.0
O79 O 0.65226 0.02386 0.03664 0.0
O80 O 0.64318 0.00114 0.05083 0.0
C81 C 0.65459 0.97155 0.0395 0.0
C82 C 0.64251 0.01371 0.04817 0.0
O83 O 0.67875 0.01714 0.00874 0.0
Mg84 Mg 0.6781 0.67059 0.32082 0.0
O85 O 0.66379 0.67731 0.34041 0.0
O86 O 0.6496 0.68328 0.32114 0.0
Mg87 Mg 0.65443 0.68043 0.29015 0.0
C88 C 0.65389 0.68177 0.33778 0.0
C89 C 0.69974 0.66521 0.34559 0.0
O90 O 0.70824 0.67473 0.33231 0.0
O91 O 0.65678 0.64663 0.31331 0.0
O92 O 0.64375 0.65381 0.29377 0.0
O93 O 0.6966 0.69594 0.32058 0.0
O94 O 0.67721 0.68468 0.29958 0.0
C95 C 0.64523 0.6432 0.30217 0.0
C96 C 0.68918 0.69728 0.30618 0.0
O97 O 0.68538 0.66067 0.3455 0.0
Mg98 Mg 0.32798 -0.00027 0.37485 0.0
O99 O 0.30852 0.99123 0.35208 0.0
O100 O 0.28773 0.98964 0.36568 0.0
Mg101 Mg 0.29361 0.99612 0.3973 0.0
C102 C 0.29453 0.98825 0.35117 0.0
C103 C 0.35583 0.0018 0.35387 0.0
O104 O 0.3563 0.99516 0.36972 0.0
O105 O 0.3319 0.02467 0.37515 0.0
O106 O 0.31117 0.0217 0.39037 0.0
O107 O 0.31993 0.97481 0.3818 0.0
O108 O 0.31164 0.98941 0.39586 0.0
C109 C 0.32406 0.03036 0.38245 0.0
C110 C 0.31072 0.97591 0.39371 0.0
O111 O 0.34538 0.0054 0.35152 0.0
Mg112 Mg 0.00726 0.32576 0.32557 0.0
O113 O 0.02458 0.33778 0.35058 0.0
O114 O 0.04675 0.35652 0.33899 0.0
Mg115 Mg 0.04366 0.35643 0.30669 0.0
C116 C 0.0386 0.34884 0.35294 0.0
C117 C 0.98711 0.30464 0.35817 0.0
O118 O 0.99822 0.3012 0.35862 0.0
O119 O 0.00376 0.34675 0.32275 0.0
O120 O 0.02588 0.36463 0.30999 0.0
O121 O 0.01583 0.30886 0.32135 0.0
O122 O 0.02516 0.33158 0.30706 0.0
C123 C 0.01234 0.3603 0.31592 0.0
C124 C 0.02584 0.31907 0.3101 0.0
O125 O 0.98765 0.31445 0.34626 0.0
Mg126 Mg 0.64986 0.98659 0.36509 0.0
O127 O 0.66504 0.98109 0.3456 0.0
O128 O 0.68098 0.97736 0.36457 0.0
Mg129 Mg 0.67628 0.9804 0.39557 0.0
C130 C 0.6759 0.97795 0.34802 0.0
C131 C 0.62652 0.98768 0.33753 0.0
O132 O 0.61787 0.97663 0.34933 0.0
O133 O 0.67003 0.01158 0.37146 0.0
O134 O 0.68473 0.00649 0.39095 0.0
O135 O 0.63297 0.96072 0.36671 0.0
O136 O 0.65266 0.97401 0.38689 0.0
C137 C 0.682 0.01621 0.3823 0.0
C138 C 0.64119 0.96069 0.38108 0.0
O139 O 0.64114 0.9946 0.33983 0.0
Mg140 Mg 0.01032 0.67091 0.31586 0.0
O141 O 0.03017 0.67904 0.33801 0.0
O142 O 0.05166 0.68502 0.32244 0.0
Mg143 Mg 0.04574 0.68132 0.29054 0.0
C144 C 0.04462 0.68376 0.33789 0.0
C145 C 0.99319 0.66935 0.35317 0.0
O146 O 0.0043 0.68414 0.35436 0.0
O147 O 0.00948 0.64752 0.31109 0.0
O148 O 0.03052 0.65462 0.29401 0.0
O149 O 0.0155 0.6957 0.31302 0.0
O150 O 0.02585 0.68465 0.2955 0.0
C151 C 0.01825 0.64407 0.30166 0.0
C152 C 0.02507 0.697 0.3 0.0
O153 O 0.99271 0.66076 0.33914 0.0
Mg154 Mg 0.32936 0.34581 0.37359 0.0
O155 O 0.31059 0.33383 0.35013 0.0
O156 O 0.28873 0.31583 0.36312 0.0
Mg157 Mg 0.29366 0.31623 0.39508 0.0
C158 C 0.29637 0.32313 0.34868 0.0
C159 C 0.34603 0.36327 0.33701 0.0
O160 O 0.3335 0.36436 0.33537 0.0
O161 O 0.33198 0.32422 0.37492 0.0
O162 O 0.31034 0.30697 0.38914 0.0
O163 O 0.32196 0.36345 0.3793 0.0
O164 O 0.31271 0.34079 0.39372 0.0
C165 C 0.32335 0.31072 0.38185 0.0
C166 C 0.31242 0.35358 0.39123 0.0
O167 O 0.34768 0.35635 0.35117 0.0
Mg168 Mg 0.34922 0.01126 0.65633 0.0
O169 O 0.3378 0.02194 0.67513 0.0
O170 O 0.32409 0.02836 0.65559 0.0
Mg171 Mg 0.32521 0.0204 0.62528 0.0
C172 C 0.32917 0.0279 0.6722 0.0
C173 C 0.35834 0.99126 0.68091 0.0
O174 O 0.35413 0.98313 0.66471 0.0
O175 O 0.32646 0.98792 0.65335 0.0
O176 O 0.31278 0.99452 0.63404 0.0
O177 O 0.36883 0.03547 0.65129 0.0
O178 O 0.3478 0.02316 0.63286 0.0
C179 C 0.31412 0.9844 0.64379 0.0
C180 C 0.36072 0.03576 0.63694 0.0
O181 O 0.35704 0.00346 0.68252 0.0
Mg182 Mg 0.9896 0.3174 0.70807 0.0
O183 O 0.97098 0.30969 0.68447 0.0
O184 O 0.94857 0.30363 0.69769 0.0
Mg185 Mg 0.9529 0.30721 0.72995 0.0
C186 C 0.95657 0.30508 0.68308 0.0
C187 C 0.02212 0.33604 0.69058 0.0
O188 O 0.02586 0.33953 0.70873 0.0
O189 O 0.99051 0.34089 0.71191 0.0
O190 O 0.96832 0.33392 0.72641 0.0
O191 O 0.98382 0.29248 0.71143 0.0
O192 O 0.97302 0.30381 0.72753 0.0
C193 C 0.98115 0.3444 0.71974 0.0
C194 C 0.97378 0.29136 0.72368 0.0
O195 O 0.008 0.32719 0.68566 0.0
Mg196 Mg 0.67397 0.64419 0.6579 0.0
O197 O 0.69388 0.65825 0.67945 0.0
O198 O 0.71487 0.67464 0.66362 0.0
Mg199 Mg 0.70847 0.67048 0.63178 0.0
C200 C 0.70809 0.66897 0.67917 0.0
C201 C 0.65747 0.62931 0.69587 0.0
O202 O 0.66818 0.62532 0.69676 0.0
O203 O 0.67146 0.66558 0.65263 0.0
O204 O 0.69197 0.68022 0.635 0.0
O205 O 0.68091 0.62578 0.65523 0.0
O206 O 0.68946 0.64658 0.63727 0.0
C207 C 0.67949 0.6777 0.64279 0.0
C208 C 0.68985 0.63417 0.64183 0.0
O209 O 0.65693 0.63693 0.68177 0.0
Mg210 Mg 0.31925 0.32583 0.69979 0.0
O211 O 0.33273 0.31983 0.67793 0.0
O212 O 0.34907 0.31501 0.69453 0.0
Mg213 Mg 0.34644 0.31807 0.72623 0.0
C214 C 0.34324 0.31604 0.67872 0.0
C215 C 0.30312 0.32694 0.6616 0.0
O216 O 0.30214 0.31319 0.65896 0.0
O217 O 0.34022 0.35026 0.70581 0.0
O218 O 0.3559 0.34456 0.72247 0.0
O219 O 0.30171 0.30025 0.70122 0.0
O220 O 0.32256 0.31245 0.71998 0.0
C221 C 0.35286 0.35451 0.71505 0.0
C222 C 0.31047 0.29949 0.71442 0.0
O223 O 0.30996 0.33511 0.67657 0.0
Mg224 Mg 0.67251 0.00745 0.64914 0.0
O225 O 0.69308 0.01612 0.67041 0.0
O226 O 0.71426 0.02297 0.65368 0.0
Mg227 Mg 0.70746 0.01939 0.62202 0.0
C228 C 0.7076 0.0213 0.66954 0.0
C229 C 0.64311 0.984 0.67104 0.0
O230 O 0.63967 0.97642 0.65448 0.0
O231 O 0.67266 0.98465 0.64346 0.0
O232 O 0.69348 0.99259 0.62565 0.0
O233 O 0.67624 0.0317 0.64712 0.0
O234 O 0.68732 0.02195 0.62863 0.0
C235 C 0.68161 0.98174 0.63364 0.0
C236 C 0.68586 0.03378 0.63382 0.0
O237 O 0.65585 0.99684 0.67328 0.0
Mg238 Mg 0.99066 0.67906 0.70254 0.0
O239 O 0.97138 0.66806 0.67957 0.0
O240 O 0.94954 0.65081 0.6933 0.0
Mg241 Mg 0.95473 0.65143 0.72522 0.0
C242 C 0.957 0.65779 0.67861 0.0
C243 C 0.00892 0.69733 0.66708 0.0
O244 O -0.00149 0.70176 0.66724 0.0
O245 O 0.99153 0.65649 0.70384 0.0
O246 O 0.9701 0.64062 0.71937 0.0
O247 O 0.98515 0.69811 0.70862 0.0
O248 O 0.9747 0.67542 0.72312 0.0
C249 C 0.98263 0.64339 0.7115 0.0
C250 C 0.97546 0.68875 0.72081 0.0
O251 O 0.00863 0.6881 0.67968 0.0
C252 C 0.20959 0.30354 0.13158 0.0
C253 C 0.20428 0.29174 0.11715 0.0
C254 C 0.19923 0.3043 0.14407 0.0
C255 C 0.18339 0.29312 0.14257 0.0
C256 C 0.18842 0.2805 0.11576 0.0
C257 C 0.17807 0.28124 0.1283 0.0
C258 C 0.17215 0.29461 0.15459 0.0
C259 C 0.20219 0.28609 0.19628 0.0
C260 C 0.21017 0.29845 0.20983 0.0
C261 C 0.19064 0.28571 0.18438 0.0
C262 C 0.18693 0.29771 0.18583 0.0
C263 C 0.20647 0.31048 0.21106 0.0
C264 C 0.19496 0.31007 0.19925 0.0
C265 C 0.17406 0.29715 0.17453 0.0
C266 C 0.11516 0.29552 0.19678 0.0
C267 C 0.12137 0.30703 0.21159 0.0
C268 C 0.12491 0.29315 0.18483 0.0
C269 C 0.14104 0.30239 0.1873 0.0
C270 C 0.13751 0.31607 0.21419 0.0
C271 C 0.14722 0.31375 0.2022 0.0
C272 C 0.15163 0.29983 0.17524 0.0
C273 C 0.12821 0.31682 0.1351 0.0
C274 C 0.11926 0.30611 0.12031 0.0
C275 C 0.13793 0.31394 0.1467 0.0
C276 C 0.13878 0.3002 0.1439 0.0
C277 C 0.12003 0.29229 0.11762 0.0
C278 C 0.1298 0.28944 0.12922 0.0
C279 C 0.14994 0.29772 0.15523 0.0
H280 H 0.22167 0.31257 0.13276 0.0
H281 H 0.20356 0.31392 0.15449 0.0
H282 H 0.184 0.27121 0.10488 0.0
H283 H 0.16587 0.2726 0.12676 0.0
H284 H 0.20479 0.27666 0.195 0.0
H285 H 0.18439 0.27588 0.17438 0.0
H286 H 0.21215 0.32 0.22158 0.0
H287 H 0.1922 0.31938 0.20075 0.0
H288 H 0.10278 0.28841 0.19433 0.0
H289 H 0.11982 0.28398 0.1738 0.0
H290 H 0.14267 0.32482 0.22566 0.0
H291 H 0.15963 0.32089 0.20455 0.0
H292 H 0.12783 0.32753 0.1376 0.0
H293 H 0.14505 0.32267 0.15756 0.0
H294 H 0.11345 0.28393 0.10617 0.0
H295 H 0.13044 0.27888 0.12663 0.0
N296 N 0.16016 0.295 0.14572 0.0
N297 N 0.16368 0.29959 0.18401 0.0
C298 C 0.69654 0.89889 0.14592 0.0
C299 C 0.70679 0.90642 0.13112 0.0
C300 C 0.69952 0.89017 0.15903 0.0
C301 C 0.7129 0.889 0.15773 0.0
C302 C 0.72035 0.90554 0.13012 0.0
C303 C 0.72331 0.8968 0.14323 0.0
C304 C 0.71502 0.87798 0.16964 0.0
C305 C 0.71648 0.91522 0.20917 0.0
C306 C 0.70453 0.90924 0.22235 0.0
C307 C 0.71975 0.90504 0.19863 0.0
C308 C 0.71105 0.8887 0.20101 0.0
C309 C 0.69613 0.89291 0.225 0.0
C310 C 0.6994 0.88278 0.21451 0.0
C311 C 0.71385 0.87756 0.18964 0.0
C312 C 0.72728 0.82518 0.20747 0.0
C313 C 0.71622 0.81756 0.22145 0.0
C314 C 0.72769 0.83755 0.1975 0.0
C315 C 0.71687 0.84237 0.20112 0.0
C316 C 0.70591 0.82293 0.22567 0.0
C317 C 0.70628 0.83525 0.21565 0.0
C318 C 0.71623 0.85453 0.18963 0.0
C319 C 0.70213 0.8136 0.14842 0.0
C320 C 0.71011 0.81697 0.13132 0.0
C321 C 0.7046 0.82574 0.16119 0.0
C322 C 0.71554 0.84146 0.15746 0.0
C323 C 0.72104 0.83261 0.12751 0.0
C324 C 0.72378 0.84474 0.14052 0.0
C325 C 0.71676 0.85461 0.16952 0.0
H326 H 0.68606 0.89948 0.14715 0.0
H327 H 0.69107 0.88388 0.16973 0.0
H328 H 0.72838 0.91107 0.11877 0.0
H329 H 0.73357 0.8958 0.14179 0.0
H330 H 0.72317 0.92774 0.20681 0.0
H331 H 0.72903 0.90994 0.18861 0.0
H332 H 0.68706 0.88794 0.23531 0.0
H333 H 0.69262 0.87024 0.21673 0.0
H334 H 0.73557 0.82151 0.20414 0.0
H335 H 0.73627 0.84317 0.18673 0.0
H336 H 0.69717 0.81724 0.23624 0.0
H337 H 0.69789 0.83883 0.2188 0.0
H338 H 0.69341 0.80163 0.15145 0.0
H339 H 0.69743 0.82282 0.17355 0.0
H340 H 0.72726 0.83547 0.11434 0.0
H341 H 0.73205 0.85677 0.13709 0.0
N342 N 0.7164 0.8665 0.16044 0.0
N343 N 0.71457 0.86588 0.19885 0.0
C344 C 0.12117 0.81766 0.13502 0.0
C345 C 0.11313 0.81986 0.11994 0.0
C346 C 0.12992 0.82983 0.14825 0.0
C347 C 0.1307 0.84445 0.14686 0.0
C348 C 0.11382 0.83447 0.1186 0.0
C349 C 0.12266 0.84671 0.13186 0.0
C350 C 0.14107 0.85773 0.15994 0.0
C351 C 0.10336 0.82202 0.19572 0.0
C352 C 0.10878 0.8145 0.20781 0.0
C353 C 0.11383 0.83575 0.18664 0.0
C354 C 0.12982 0.84218 0.18971 0.0
C355 C 0.12476 0.82113 0.21109 0.0
C356 C 0.13517 0.83493 0.20226 0.0
C357 C 0.14114 0.85638 0.1799 0.0
C358 C 0.19118 0.92012 0.20895 0.0
C359 C 0.19928 0.91554 0.22143 0.0
C360 C 0.17986 0.90918 0.19613 0.0
C361 C 0.17628 0.89343 0.19574 0.0
C362 C 0.19578 0.89974 0.2206 0.0
C363 C 0.18425 0.88879 0.20813 0.0
C364 C 0.16403 0.88153 0.18283 0.0
C365 C 0.20439 0.90809 0.14496 0.0
C366 C 0.20161 0.91465 0.12886 0.0
C367 C 0.1923 0.8984 0.15662 0.0
C368 C 0.17721 0.89533 0.15269 0.0
C369 C 0.18662 0.91205 0.12529 0.0
C370 C 0.17451 0.90239 0.13706 0.0
C371 C 0.16402 0.88291 0.16287 0.0
H372 H 0.12077 0.80651 0.13655 0.0
H373 H 0.1364 0.82792 0.1593 0.0
H374 H 0.10789 0.83657 0.10703 0.0
H375 H 0.12332 0.85798 0.13033 0.0
H376 H 0.09108 0.81709 0.19298 0.0
H377 H 0.10946 0.8413 0.17719 0.0
H378 H 0.12918 0.81561 0.2205 0.0
H379 H 0.14746 0.83975 0.20489 0.0
H380 H 0.19331 0.93207 0.20931 0.0
H381 H 0.1737 0.91295 0.18679 0.0
H382 H 0.20198 0.89576 0.2295 0.0
H383 H 0.18173 0.87669 0.20794 0.0
H384 H 0.21584 0.90997 0.14816 0.0
H385 H 0.19468 0.89265 0.16808 0.0
H386 H 0.18407 0.91679 0.11286 0.0
H387 H 0.16292 0.89996 0.13354 0.0
N388 N 0.15247 0.87099 0.15222 0.0
N389 N 0.15264 0.86828 0.19055 0.0
C390 C 0.30609 0.09831 0.81865 0.0
C391 C 0.29551 0.08872 0.80418 0.0
C392 C 0.30314 0.10834 0.82989 0.0
C393 C 0.28957 0.10901 0.82684 0.0
C394 C 0.28175 0.08913 0.80144 0.0
C395 C 0.2789 0.09933 0.81254 0.0
C396 C 0.28727 0.12083 0.83731 0.0
C397 C 0.28235 0.08589 0.88234 0.0
C398 C 0.29419 0.0927 0.8965 0.0
C399 C 0.28047 0.09533 0.86913 0.0
C400 C 0.29036 0.11171 0.86994 0.0
C401 C 0.30423 0.10909 0.89689 0.0
C402 C 0.30224 0.11847 0.88389 0.0
C403 C 0.288 0.12222 0.85737 0.0
C404 C 0.27872 0.17817 0.8715 0.0
C405 C 0.28975 0.18551 0.88642 0.0
C406 C 0.27722 0.16489 0.86181 0.0
C407 C 0.28698 0.15895 0.86661 0.0
C408 C 0.29896 0.17906 0.89177 0.0
C409 C 0.29756 0.16591 0.88199 0.0
C410 C 0.28651 0.14563 0.85577 0.0
C411 C 0.30207 0.18547 0.81706 0.0
C412 C 0.29103 0.18312 0.80284 0.0
C413 C 0.30071 0.17285 0.82727 0.0
C414 C 0.28815 0.15761 0.82374 0.0
C415 C 0.27888 0.16772 0.79861 0.0
C416 C 0.27747 0.15504 0.80898 0.0
C417 C 0.28626 0.14455 0.83567 0.0
H418 H 0.31676 0.09821 0.82107 0.0
H419 H 0.31171 0.11596 0.84055 0.0
H420 H 0.27349 0.082 0.79023 0.0
H421 H 0.26846 0.09983 0.80981 0.0
H422 H 0.27435 0.07332 0.88172 0.0
H423 H 0.27106 0.08991 0.85864 0.0
H424 H 0.31374 0.11473 0.9072 0.0
H425 H 0.31003 0.13109 0.88471 0.0
H426 H 0.27133 0.18277 0.86725 0.0
H427 H 0.26861 0.15942 0.85041 0.0
H428 H 0.30769 0.18455 0.90305 0.0
H429 H 0.30515 0.16151 0.88606 0.0
H430 H 0.31177 0.19712 0.82031 0.0
H431 H 0.30937 0.17503 0.83819 0.0
H432 H 0.27023 0.16556 0.78768 0.0
H433 H 0.26781 0.14333 0.80587 0.0
N434 N 0.28643 0.13207 0.82717 0.0
N435 N 0.28751 0.1345 0.86576 0.0
C436 C 0.90031 0.16712 0.8871 0.0
C437 C 0.89573 0.17487 0.90027 0.0
C438 C 0.88924 0.15405 0.87634 0.0
C439 C 0.8734 0.14861 0.87839 0.0
C440 C 0.87985 0.16891 0.90288 0.0
C441 C 0.86883 0.15593 0.8921 0.0
C442 C 0.8614 0.13535 0.86647 0.0
C443 C 0.88829 0.17372 0.82589 0.0
C444 C 0.89595 0.17007 0.81183 0.0
C445 C 0.87754 0.16202 0.83732 0.0
C446 C 0.87439 0.14644 0.83519 0.0
C447 C 0.89263 0.15442 0.8095 0.0
C448 C 0.88189 0.14269 0.82105 0.0
C449 C 0.86232 0.1339 0.84657 0.0
C450 C 0.79905 0.08776 0.81921 0.0
C451 C 0.80244 0.07976 0.80497 0.0
C452 C 0.81019 0.09707 0.83321 0.0
C453 C 0.82487 0.09846 0.83332 0.0
C454 C 0.81692 0.08064 0.80567 0.0
C455 C 0.82805 0.08999 0.8196 0.0
C456 C 0.83761 0.11037 0.84572 0.0
C457 C 0.80362 0.0754 0.88684 0.0
C458 C 0.79905 0.0822 0.90127 0.0
C459 C 0.81557 0.08497 0.87476 0.0
C460 C 0.82287 0.10146 0.87672 0.0
C461 C 0.80619 0.09865 0.90294 0.0
C462 C 0.81795 0.10815 0.89082 0.0
C463 C 0.83649 0.11204 0.86555 0.0
H464 H 0.91245 0.17141 0.88473 0.0
H465 H 0.89308 0.14833 0.86627 0.0
H466 H 0.87592 0.17438 0.91319 0.0
H467 H 0.85669 0.15184 0.89416 0.0
H468 H 0.89028 0.18558 0.82771 0.0
H469 H 0.87145 0.16512 0.84758 0.0
H470 H 0.89836 0.15125 0.7988 0.0
H471 H 0.87942 0.13069 0.81894 0.0
H472 H 0.7881 0.08752 0.81896 0.0
H473 H 0.80759 0.10383 0.84333 0.0
H474 H 0.81983 0.07444 0.79512 0.0
H475 H 0.83934 0.09098 0.81933 0.0
H476 H 0.79836 0.06273 0.88538 0.0
H477 H 0.8194 0.07947 0.86437 0.0
H478 H 0.80274 0.10418 0.91378 0.0
H479 H 0.82336 0.12082 0.89265 0.0
N480 N 0.84848 0.12443 0.87507 0.0
N481 N 0.8505 0.12137 0.83705 0.0
C482 C 0.80156 0.71773 0.89596 0.0
C483 C 0.79515 0.70484 0.90805 0.0
C484 C 0.81451 0.72105 0.88532 0.0
C485 C 0.82115 0.71142 0.88643 0.0
C486 C 0.80192 0.69531 0.90918 0.0
C487 C 0.81482 0.69862 0.89856 0.0
C488 C 0.83497 0.71475 0.87554 0.0
C489 C 0.79732 0.70112 0.83074 0.0
C490 C 0.80047 0.7121 0.81646 0.0
C491 C 0.80881 0.70327 0.84398 0.0
C492 C 0.82364 0.71666 0.84356 0.0
C493 C 0.81526 0.72561 0.81624 0.0
C494 C 0.82672 0.72782 0.82961 0.0
C495 C 0.83644 0.71812 0.85597 0.0
C496 C 0.89029 0.71187 0.83374 0.0
C497 C 0.89771 0.72446 0.82136 0.0
C498 C 0.87873 0.7108 0.84553 0.0
C499 C 0.87455 0.72247 0.84546 0.0
C500 C 0.89343 0.73608 0.82119 0.0
C501 C 0.88191 0.73506 0.83311 0.0
C502 C 0.86155 0.72081 0.85685 0.0
C503 C 0.89841 0.72503 0.89793 0.0
C504 C 0.89364 0.71184 0.90932 0.0
C505 C 0.88754 0.72702 0.88742 0.0
C506 C 0.87172 0.7157 0.88784 0.0
C507 C 0.87777 0.70077 0.91009 0.0
C508 C 0.86695 0.70272 0.89952 0.0
C509 C 0.85997 0.71717 0.87634 0.0
H510 H 0.79675 0.72542 0.89501 0.0
H511 H 0.81943 0.73122 0.87641 0.0
H512 H 0.79714 0.68517 0.91815 0.0
H513 H 0.81976 0.69105 0.89967 0.0
H514 H 0.78603 0.69065 0.83146 0.0
H515 H 0.80622 0.69416 0.8541 0.0
H516 H 0.81821 0.73418 0.80528 0.0
H517 H 0.83814 0.7381 0.82877 0.0
H518 H 0.89306 0.70253 0.83386 0.0
H519 H 0.8728 0.70064 0.85435 0.0
H520 H 0.89896 0.74591 0.8118 0.0
H521 H 0.87868 0.74404 0.83262 0.0
H522 H 0.91053 0.7339 0.89729 0.0
H523 H 0.89151 0.73739 0.87897 0.0
H524 H 0.87372 0.6904 0.91857 0.0
H525 H 0.85482 0.69385 0.90016 0.0
N526 N 0.84672 0.71429 0.88488 0.0
N527 N 0.84976 0.72119 0.84749 0.0
C528 C 0.7754 0.61966 0.45899 0.0
C529 C 0.7811 0.63345 0.44849 0.0
C530 C 0.78559 0.61598 0.46835 0.0
C531 C 0.80167 0.62609 0.4675 0.0
C532 C 0.7972 0.64321 0.44715 0.0
C533 C 0.80734 0.63955 0.45649 0.0
C534 C 0.81278 0.62301 0.47809 0.0
C535 C 0.78755 0.63257 0.52444 0.0
C536 C 0.77982 0.62031 0.53717 0.0
C537 C 0.79723 0.6318 0.51091 0.0
C538 C 0.79918 0.61864 0.50962 0.0
C539 C 0.78149 0.60696 0.53558 0.0
C540 C 0.7912 0.6062 0.52201 0.0
C541 C 0.81116 0.61885 0.4974 0.0
C542 C 0.8741 0.63489 0.52279 0.0
C543 C 0.87054 0.62327 0.53633 0.0
C544 C 0.86289 0.63345 0.50955 0.0
C545 C 0.84796 0.62018 0.50924 0.0
C546 C 0.85568 0.60983 0.53573 0.0
C547 C 0.8445 0.60835 0.52236 0.0
C548 C 0.8354 0.61963 0.49722 0.0
C549 C 0.8708 0.62107 0.45811 0.0
C550 C 0.87832 0.63504 0.44792 0.0
C551 C 0.85712 0.61705 0.46748 0.0
C552 C 0.8508 0.62699 0.46693 0.0
C553 C 0.87162 0.64462 0.4468 0.0
C554 C 0.85796 0.64059 0.45614 0.0
C555 C 0.83698 0.62362 0.47785 0.0
H556 H 0.76307 0.61188 0.46027 0.0
H557 H 0.7809 0.60531 0.47636 0.0
H558 H 0.80199 0.65373 0.43883 0.0
H559 H 0.81968 0.64746 0.45543 0.0
H560 H 0.78636 0.64294 0.52519 0.0
H561 H 0.80364 0.64179 0.50195 0.0
H562 H 0.77579 0.5974 0.54531 0.0
H563 H 0.79278 0.59607 0.52148 0.0
H564 H 0.88546 0.64532 0.52273 0.0
H565 H 0.86576 0.64305 0.50008 0.0
H566 H 0.85244 0.60078 0.54612 0.0
H567 H 0.83299 0.59815 0.52264 0.0
H568 H 0.87568 0.61345 0.45922 0.0
H569 H 0.85161 0.60631 0.47537 0.0
H570 H 0.87696 0.65527 0.43874 0.0
H571 H 0.85321 0.64836 0.45536 0.0
N572 N 0.82566 0.62524 0.46909 0.0
N573 N 0.82247 0.61725 0.50612 0.0
C574 C 0.36884 0.23763 0.48141 0.0
C575 C 0.37836 0.24464 0.46585 0.0
C576 C 0.37237 0.22927 0.49443 0.0
C577 C 0.38561 0.22795 0.49229 0.0
C578 C 0.39177 0.24357 0.46395 0.0
C579 C 0.3953 0.23519 0.47698 0.0
C580 C 0.38827 0.21736 0.50436 0.0
C581 C 0.39216 0.25618 0.54324 0.0
C582 C 0.38087 0.25089 0.55729 0.0
C583 C 0.39453 0.24544 0.53255 0.0
C584 C 0.38562 0.22921 0.53567 0.0
C585 C 0.37217 0.23467 0.56053 0.0
C586 C 0.37457 0.22398 0.54991 0.0
C587 C 0.38772 0.21753 0.52443 0.0
C588 C 0.40116 0.16546 0.54372 0.0
C589 C 0.39107 0.15901 0.55893 0.0
C590 C 0.40097 0.1771 0.53279 0.0
C591 C 0.39052 0.18235 0.53668 0.0
C592 C 0.38096 0.16464 0.56314 0.0
C593 C 0.38074 0.17622 0.55217 0.0
C594 C 0.38977 0.19432 0.52491 0.0
C595 C 0.37283 0.15262 0.48408 0.0
C596 C 0.38155 0.15517 0.46766 0.0
C597 C 0.37602 0.1651 0.49669 0.0
C598 C 0.38811 0.18036 0.49325 0.0
C599 C 0.39394 0.17035 0.46451 0.0
C600 C 0.3971 0.18287 0.47712 0.0
C601 C 0.38989 0.19395 0.5048 0.0
H602 H 0.3585 0.23839 0.48336 0.0
H603 H 0.36444 0.22338 0.50576 0.0
H604 H 0.39924 0.24871 0.452 0.0
H605 H 0.40542 0.23407 0.47489 0.0
H606 H 0.39906 0.2686 0.54041 0.0
H607 H 0.40336 0.24981 0.52192 0.0
H608 H 0.36361 0.23023 0.57149 0.0
H609 H 0.36765 0.21155 0.55268 0.0
H610 H 0.40927 0.16157 0.54034 0.0
H611 H 0.40899 0.18199 0.5213 0.0
H612 H 0.37294 0.1598 0.57464 0.0
H613 H 0.37264 0.18013 0.55554 0.0
H614 H 0.3633 0.14102 0.48697 0.0
H615 H 0.3686 0.1629 0.50869 0.0
H616 H 0.40077 0.17269 0.45189 0.0
H617 H 0.40631 0.19459 0.47401 0.0
N618 N 0.38934 0.2056 0.49539 0.0
N619 N 0.38855 0.20602 0.5339 0.0
C620 C 0.77905 0.14256 0.47524 0.0
C621 C 0.77014 0.14393 0.46056 0.0
C622 C 0.79071 0.15591 0.48479 0.0
C623 C 0.79363 0.17096 0.4801 0.0
C624 C 0.77341 0.15904 0.45537 0.0
C625 C 0.78511 0.17247 0.46505 0.0
C626 C 0.80599 0.18504 0.49046 0.0
C627 C 0.76917 0.15843 0.53355 0.0
C628 C 0.77427 0.15221 0.54798 0.0
C629 C 0.77973 0.16948 0.52118 0.0
C630 C 0.79554 0.17445 0.52307 0.0
C631 C 0.79013 0.15727 0.5497 0.0
C632 C 0.80063 0.16836 0.53751 0.0
C633 C 0.80709 0.18628 0.51054 0.0
C634 C 0.86406 0.24894 0.52852 0.0
C635 C 0.87011 0.24411 0.54345 0.0
C636 C 0.85182 0.23776 0.51686 0.0
C637 C 0.84542 0.22162 0.52006 0.0
C638 C 0.86379 0.22794 0.54636 0.0
C639 C 0.85154 0.21685 0.53488 0.0
C640 C 0.83177 0.20949 0.50903 0.0
C641 C 0.87083 0.22882 0.46882 0.0
C642 C 0.86877 0.23601 0.45281 0.0
C643 C 0.85852 0.21996 0.48062 0.0
C644 C 0.84394 0.21833 0.47691 0.0
C645 C 0.85412 0.23425 0.44901 0.0
C646 C 0.84179 0.22539 0.4609 0.0
C647 C 0.83075 0.20831 0.48894 0.0
H648 H 0.77714 0.13113 0.47921 0.0
H649 H 0.79754 0.15446 0.49581 0.0
H650 H 0.76678 0.16046 0.44407 0.0
H651 H 0.78737 0.184 0.461 0.0
H652 H 0.75706 0.15492 0.53195 0.0
H653 H 0.77559 0.17425 0.51032 0.0
H654 H 0.79446 0.15248 0.5603 0.0
H655 H 0.81277 0.17199 0.53917 0.0
H656 H 0.86871 0.26133 0.52597 0.0
H657 H 0.84712 0.24171 0.50568 0.0
H658 H 0.86799 0.22384 0.55794 0.0
H659 H 0.84673 0.20447 0.53768 0.0
H660 H 0.88197 0.23003 0.47225 0.0
H661 H 0.86037 0.21418 0.49249 0.0
H662 H 0.85211 0.23944 0.43663 0.0
H663 H 0.83055 0.22403 0.45759 0.0
N664 N 0.81783 0.19618 0.48039 0.0
N665 N 0.81993 0.19841 0.51897 0.0
C666 C 0.95252 0.50893 0.13418 0.0
C667 C 0.96387 0.51733 0.12073 0.0
C668 C 0.95289 0.49715 0.14456 0.0
C669 C 0.96452 0.49338 0.14162 0.0
C670 C 0.97529 0.5132 0.11751 0.0
C671 C 0.9755 0.50122 0.12772 0.0
C672 C 0.96543 0.48154 0.15338 0.0
C673 C 0.9832 0.52446 0.19131 0.0
C674 C 0.97447 0.52291 0.20747 0.0
C675 C 0.98002 0.51131 0.18002 0.0
C676 C 0.96791 0.49633 0.18446 0.0
C677 C 0.96237 0.50789 0.21197 0.0
C678 C 0.95917 0.4947 0.20059 0.0
C679 C 0.96553 0.48226 0.17344 0.0
C680 C 0.97837 0.43192 0.19806 0.0
C681 C 0.96848 0.42657 0.21358 0.0
C682 C 0.97726 0.44188 0.18498 0.0
C683 C 0.96594 0.44625 0.1869 0.0
C684 C 0.95721 0.43098 0.21552 0.0
C685 C 0.95594 0.4407 0.20229 0.0
C686 C 0.96542 0.45795 0.17443 0.0
C687 C 0.95923 0.41805 0.13513 0.0
C688 C 0.97032 0.42284 0.12089 0.0
C689 C 0.95769 0.42924 0.14606 0.0
C690 C 0.96743 0.4454 0.14318 0.0
C691 C 0.97992 0.43901 0.11797 0.0
C692 C 0.97846 0.45014 0.12895 0.0
C693 C 0.96612 0.45762 0.15433 0.0
H694 H 0.94331 0.51144 0.13672 0.0
H695 H 0.94412 0.49101 0.15498 0.0
H696 H 0.98433 0.51949 0.10748 0.0
H697 H 0.98456 0.49847 0.12524 0.0
H698 H 0.99286 0.53577 0.18773 0.0
H699 H 0.9874 0.51283 0.16817 0.0
H700 H 0.95543 0.50634 0.2243 0.0
H701 H 0.94995 0.48321 0.20446 0.0
H702 H 0.98732 0.42888 0.19645 0.0
H703 H 0.98555 0.44651 0.17374 0.0
H704 H 0.94944 0.42696 0.22735 0.0
H705 H 0.94726 0.44409 0.20423 0.0
H706 H 0.95154 0.40566 0.13752 0.0
H707 H 0.9488 0.42525 0.15661 0.0
H708 H 0.98868 0.44307 0.10725 0.0
H709 H 0.98608 0.46252 0.12641 0.0
N710 N 0.966 0.46941 0.14459 0.0
N711 N 0.96524 0.47033 0.18314 0.0
C712 C 0.46033 0.41185 0.15195 0.0
C713 C 0.45381 0.41688 0.13782 0.0
C714 C 0.47297 0.42288 0.16323 0.0
C715 C 0.47933 0.43907 0.16039 0.0
C716 C 0.46025 0.43308 0.13507 0.0
C717 C 0.47292 0.44403 0.14614 0.0
C718 C 0.49289 0.45108 0.17167 0.0
C719 C 0.45379 0.43093 0.21222 0.0
C720 C 0.45598 0.42344 0.22779 0.0
C721 C 0.46596 0.43986 0.20026 0.0
C722 C 0.48052 0.44132 0.20348 0.0
C723 C 0.47053 0.4248 0.23092 0.0
C724 C 0.48274 0.43379 0.21894 0.0
C725 C 0.49369 0.45185 0.19177 0.0
C726 C 0.54268 0.51826 0.2077 0.0
C727 C 0.55215 0.51727 0.22195 0.0
C728 C 0.53148 0.50476 0.19788 0.0
C729 C 0.5296 0.48997 0.2019 0.0
C730 C 0.54985 0.50237 0.22649 0.0
C731 C 0.5386 0.4888 0.21657 0.0
C732 C 0.51793 0.47579 0.19103 0.0
C733 C 0.55522 0.50636 0.15127 0.0
C734 C 0.54995 0.51179 0.13615 0.0
C735 C 0.54469 0.49412 0.16241 0.0
C736 C 0.52871 0.48729 0.15881 0.0
C737 C 0.53397 0.50442 0.1321 0.0
C738 C 0.52349 0.49232 0.14331 0.0
C739 C 0.51718 0.47489 0.17091 0.0
H740 H 0.45559 0.39942 0.15434 0.0
H741 H 0.47788 0.41877 0.17397 0.0
H742 H 0.45564 0.43731 0.12409 0.0
H743 H 0.47768 0.45646 0.14363 0.0
H744 H 0.44269 0.43002 0.20938 0.0
H745 H 0.46407 0.44595 0.18878 0.0
H746 H 0.4726 0.41932 0.24296 0.0
H747 H 0.49397 0.435 0.22183 0.0
H748 H 0.54385 0.52949 0.20421 0.0
H749 H 0.5243 0.50589 0.18706 0.0
H750 H 0.55694 0.50123 0.23742 0.0
H751 H 0.53715 0.47746 0.22008 0.0
H752 H 0.56745 0.51178 0.15477 0.0
H753 H 0.54905 0.49012 0.17393 0.0
H754 H 0.52953 0.50803 0.12028 0.0
H755 H 0.51124 0.48711 0.14006 0.0
N756 N 0.50466 0.46262 0.16209 0.0
N757 N 0.50622 0.46414 0.2007 0.0
C758 C 0.46006 0.02955 0.226 0.0
C759 C 0.45254 0.01532 0.23569 0.0
C760 C 0.47199 0.03253 0.2136 0.0
C761 C 0.47655 0.02128 0.21058 0.0
C762 C 0.45694 0.00397 0.23228 0.0
C763 C 0.46888 0.00698 0.21997 0.0
C764 C 0.49003 0.0247 0.19894 0.0
C765 C 0.45499 0.02183 0.15519 0.0
C766 C 0.45957 0.03573 0.14524 0.0
C767 C 0.4654 0.02055 0.16746 0.0
C768 C 0.48059 0.03315 0.17009 0.0
C769 C 0.47464 0.04852 0.1485 0.0
C770 C 0.48507 0.04718 0.16064 0.0
C771 C 0.49233 0.03108 0.18065 0.0
C772 C 0.54143 0.02043 0.14999 0.0
C773 C 0.55041 0.03435 0.14016 0.0
C774 C 0.53051 0.0194 0.16286 0.0
C775 C 0.52843 0.03232 0.16632 0.0
C776 C 0.54841 0.04733 0.14373 0.0
C777 C 0.53738 0.04627 0.15658 0.0
C778 C 0.51602 0.03082 0.1788 0.0
C779 C 0.55097 0.02799 0.21706 0.0
C780 C 0.54531 0.01362 0.22631 0.0
C781 C 0.54082 0.0316 0.2075 0.0
C782 C 0.52483 0.02087 0.20687 0.0
C783 C 0.52928 0.00299 0.2258 0.0
C784 C 0.51916 0.00662 0.21627 0.0
C785 C 0.5138 0.02456 0.19717 0.0
H786 H 0.45711 0.03863 0.22851 0.0
H787 H 0.47798 0.04382 0.20689 0.0
H788 H 0.45123 0.99278 0.23924 0.0
H789 H 0.47221 0.99813 0.21787 0.0
H790 H 0.44359 0.01164 0.15281 0.0
H791 H 0.46178 0.00943 0.17417 0.0
H792 H 0.4785 0.0595 0.14135 0.0
H793 H 0.49677 0.05701 0.16238 0.0
H794 H 0.54281 0.01027 0.14765 0.0
H795 H 0.52345 0.00837 0.16981 0.0
H796 H 0.55507 0.05816 0.13623 0.0
H797 H 0.53578 0.05629 0.15884 0.0
H798 H 0.56325 0.03642 0.21716 0.0
H799 H 0.54548 0.04287 0.20079 0.0
H800 H 0.52449 0.99197 0.23309 0.0
H801 H 0.50687 0.99821 0.21617 0.0
N802 N 0.50085 0.02169 0.20645 0.0
N803 N 0.50526 0.03393 0.17133 0.0
C804 C 0.5427 0.97041 0.79044 0.0
C805 C 0.53734 0.95823 0.77651 0.0
C806 C 0.53231 0.97195 0.80208 0.0
C807 C 0.51638 0.96115 0.80027 0.0
C808 C 0.52137 0.94758 0.77451 0.0
C809 C 0.51099 0.94906 0.78626 0.0
C810 C 0.50522 0.96283 0.81224 0.0
C811 C 0.53452 0.95335 0.85373 0.0
C812 C 0.54259 0.96545 0.86756 0.0
C813 C 0.52322 0.95345 0.84184 0.0
C814 C 0.5199 0.96572 0.84348 0.0
C815 C 0.53928 0.97774 0.86903 0.0
C816 C 0.52802 0.97783 0.85717 0.0
C817 C 0.50721 0.96553 0.83216 0.0
C818 C 0.44723 0.95985 0.85587 0.0
C819 C 0.45291 0.97169 0.87029 0.0
C820 C 0.45737 0.9585 0.84354 0.0
C821 C 0.47334 0.96912 0.84522 0.0
C822 C 0.46892 0.98219 0.87203 0.0
C823 C 0.47903 0.98087 0.85966 0.0
C824 C 0.48436 0.96741 0.833 0.0
C825 C 0.45572 0.97875 0.79381 0.0
C826 C 0.4471 0.96709 0.77972 0.0
C827 C 0.46719 0.97809 0.80466 0.0
C828 C 0.4701 0.96561 0.80189 0.0
C829 C 0.45019 0.95474 0.77678 0.0
C830 C 0.46162 0.95405 0.78771 0.0
C831 C 0.48243 0.96492 0.81305 0.0
H832 H 0.5549 0.97901 0.79201 0.0
H833 H 0.53673 0.98173 0.81229 0.0
H834 H 0.51691 0.93805 0.76393 0.0
H835 H 0.49873 0.94069 0.78449 0.0
H836 H 0.53682 0.94373 0.85221 0.0
H837 H 0.51685 0.94376 0.8317 0.0
H838 H 0.54504 0.98707 0.87976 0.0
H839 H 0.52553 0.98732 0.85885 0.0
H840 H 0.43495 0.95164 0.85407 0.0
H841 H 0.45272 0.94902 0.83289 0.0
H842 H 0.4737 0.99127 0.88318 0.0
H843 H 0.49133 0.98904 0.8614 0.0
H844 H 0.45385 0.98859 0.79615 0.0
H845 H 0.47393 0.98746 0.81505 0.0
H846 H 0.44369 0.94552 0.76613 0.0
H847 H 0.46375 0.94439 0.78519 0.0
N848 N 0.49288 0.96258 0.80347 0.0
N849 N 0.49672 0.96773 0.8417 0.0
C850 C 0.01356 0.55547 0.80792 0.0
C851 C 0.02125 0.56027 0.79061 0.0
C852 C 0.0181 0.54822 0.82137 0.0
C853 C 0.0306 0.54586 0.81793 0.0
C854 C 0.03393 0.55816 0.78735 0.0
C855 C 0.0385 0.55095 0.80085 0.0
C856 C 0.03405 0.53616 0.83067 0.0
C857 C 0.04344 0.57892 0.86562 0.0
C858 C 0.03386 0.5757 0.88134 0.0
C859 C 0.04393 0.56672 0.85564 0.0
C860 C 0.03477 0.55105 0.86112 0.0
C861 C 0.02488 0.56002 0.88692 0.0
C862 C 0.02539 0.54785 0.87698 0.0
C863 C 0.03506 0.53792 0.85074 0.0
C864 C 0.04704 0.48527 0.87249 0.0
C865 C 0.0365 0.47873 0.88725 0.0
C866 C 0.04749 0.49729 0.86172 0.0
C867 C 0.03727 0.50287 0.86535 0.0
C868 C 0.02688 0.48495 0.8915 0.0
C869 C 0.02731 0.49695 0.8807 0.0
C870 C 0.03645 0.51441 0.85287 0.0
C871 C 0.01899 0.47041 0.81579 0.0
C872 C 0.02768 0.47217 0.79952 0.0
C873 C 0.02182 0.48352 0.82699 0.0
C874 C 0.03355 0.49864 0.82232 0.0
C875 C 0.03956 0.48729 0.79501 0.0
C876 C 0.04238 0.50041 0.80624 0.0
C877 C 0.03546 0.51272 0.83281 0.0
H878 H 0.00385 0.55709 0.81095 0.0
H879 H 0.01146 0.54393 0.83412 0.0
H880 H 0.03998 0.56155 0.77407 0.0
H881 H 0.048 0.54898 0.79775 0.0
H882 H 0.05049 0.59086 0.86095 0.0
H883 H 0.05155 0.56956 0.84373 0.0
H884 H 0.01761 0.55715 0.8992 0.0
H885 H 0.01833 0.53589 0.88159 0.0
H886 H 0.05458 0.48073 0.8688 0.0
H887 H 0.05556 0.50196 0.85025 0.0
H888 H 0.01884 0.48038 0.90302 0.0
H889 H 0.01945 0.5012 0.88392 0.0
H890 H 0.00985 0.45891 0.81973 0.0
H891 H 0.01452 0.48187 0.83898 0.0
H892 H 0.04633 0.48905 0.78245 0.0
H893 H 0.05131 0.512 0.80219 0.0
N894 N 0.0344 0.5237 0.82255 0.0
N895 N 0.03614 0.52691 0.86106 0.0
C896 C 0.53437 0.58091 0.8031 0.0
C897 C 0.54052 0.57349 0.79183 0.0
C898 C 0.52072 0.57194 0.81287 0.0
C899 C 0.51304 0.55542 0.81156 0.0
C900 C 0.53254 0.55698 0.79013 0.0
C901 C 0.51891 0.54804 0.79982 0.0
C902 C 0.49902 0.54559 0.82243 0.0
C903 C 0.538 0.57004 0.86573 0.0
C904 C 0.53616 0.57966 0.87927 0.0
C905 C 0.52573 0.55984 0.85352 0.0
C906 C 0.51143 0.55927 0.85427 0.0
C907 C 0.5218 0.57903 0.88003 0.0
C908 C 0.50954 0.56887 0.86771 0.0
C909 C 0.49809 0.54775 0.8422 0.0
C910 C 0.44661 0.48674 0.86479 0.0
C911 C 0.43945 0.49128 0.87857 0.0
C912 C 0.45697 0.49768 0.85231 0.0
C913 C 0.46029 0.51335 0.85325 0.0
C914 C 0.4425 0.50689 0.87927 0.0
C915 C 0.45299 0.51789 0.86682 0.0
C916 C 0.47269 0.52527 0.84166 0.0
C917 C 0.43413 0.49335 0.80064 0.0
C918 C 0.43793 0.4844 0.78832 0.0
C919 C 0.44565 0.50601 0.81153 0.0
C920 C 0.46119 0.50995 0.81035 0.0
C921 C 0.45356 0.48857 0.78702 0.0
C922 C 0.46504 0.50126 0.79779 0.0
C923 C 0.47359 0.52317 0.82187 0.0
H924 H 0.54027 0.59362 0.80464 0.0
H925 H 0.51622 0.57788 0.82156 0.0
H926 H 0.53683 0.55094 0.78124 0.0
H927 H 0.5131 0.53532 0.79847 0.0
H928 H 0.54891 0.57028 0.86464 0.0
H929 H 0.52737 0.55218 0.84374 0.0
H930 H 0.51989 0.58607 0.89049 0.0
H931 H 0.49852 0.56842 0.86878 0.0
H932 H 0.44437 0.47475 0.86384 0.0
H933 H 0.46279 0.49398 0.84237 0.0
H934 H 0.43722 0.5107 0.88987 0.0
H935 H 0.4556 0.53 0.86797 0.0
H936 H 0.42227 0.49068 0.80177 0.0
H937 H 0.44242 0.51277 0.82078 0.0
H938 H 0.45693 0.48182 0.77796 0.0
H939 H 0.47695 0.50407 0.79662 0.0
N940 N 0.48676 0.53338 0.81307 0.0
N941 N 0.48491 0.53754 0.85102 0.0
C942 C 0.64101 0.76031 0.48291 0.0
C943 C 0.6298 0.75164 0.46854 0.0
C944 C 0.63967 0.7712 0.4946 0.0
C945 C 0.62702 0.77358 0.49229 0.0
C946 C 0.61711 0.75403 0.46632 0.0
C947 C 0.61582 0.76499 0.47799 0.0
C948 C 0.62608 0.78579 0.50388 0.0
C949 C 0.62096 0.74818 0.54348 0.0
C950 C 0.63237 0.75361 0.55811 0.0
C951 C 0.61912 0.75886 0.53247 0.0
C952 C 0.62889 0.77515 0.53564 0.0
C953 C 0.64173 0.76988 0.56167 0.0
C954 C 0.63999 0.78052 0.55057 0.0
C955 C 0.6276 0.78684 0.52395 0.0
C956 C 0.62437 0.84542 0.54413 0.0
C957 C 0.63656 0.85204 0.5578 0.0
C958 C 0.62151 0.83215 0.53312 0.0
C959 C 0.63087 0.82538 0.53554 0.0
C960 C 0.64557 0.84491 0.56053 0.0
C961 C 0.64273 0.83171 0.54957 0.0
C962 C 0.62845 0.81155 0.52392 0.0
C963 C 0.64268 0.8509 0.48341 0.0
C964 C 0.63151 0.84815 0.46916 0.0
C965 C 0.64112 0.83869 0.49471 0.0
C966 C 0.62823 0.82351 0.49225 0.0
C967 C 0.61871 0.83288 0.46654 0.0
C968 C 0.61714 0.82065 0.47792 0.0
C969 C 0.6268 0.81046 0.50385 0.0
H970 H 0.65111 0.75906 0.48477 0.0
H971 H 0.64871 0.77803 0.50517 0.0
H972 H 0.60819 0.74747 0.45554 0.0
H973 H 0.60604 0.76676 0.47586 0.0
H974 H 0.61347 0.73568 0.5406 0.0
H975 H 0.61009 0.75439 0.52149 0.0
H976 H 0.65074 0.77442 0.57267 0.0
H977 H 0.64761 0.79301 0.5534 0.0
H978 H 0.61723 0.85067 0.54168 0.0
H979 H 0.61204 0.82725 0.52271 0.0
H980 H 0.65486 0.84954 0.57118 0.0
H981 H 0.65 0.82659 0.55186 0.0
H982 H 0.65261 0.86253 0.48593 0.0
H983 H 0.65008 0.84111 0.50529 0.0
H984 H 0.61002 0.83032 0.45551 0.0
H985 H 0.60724 0.80895 0.47557 0.0
N986 N 0.62557 0.79757 0.49462 0.0
N987 N 0.62879 0.79971 0.5331 0.0
C988 C 0.13157 0.75584 0.49052 0.0
C989 C 0.12635 0.76039 0.4745 0.0
C990 C 0.1434 0.76719 0.50247 0.0
C991 C 0.15019 0.78326 0.49856 0.0
C992 C 0.13338 0.77645 0.47047 0.0
C993 C 0.14523 0.78775 0.48231 0.0
C994 C 0.16248 0.79558 0.51113 0.0
C995 C 0.1194 0.7755 0.54507 0.0
C996 C 0.12 0.76863 0.56218 0.0
C997 C 0.13274 0.78418 0.53474 0.0
C998 C 0.14692 0.78594 0.5411 0.0
C999 C 0.13419 0.77034 0.56849 0.0
C1000 C 0.14756 0.77901 0.55809 0.0
C1001 C 0.16128 0.79631 0.53109 0.0
C1002 C 0.20875 0.86206 0.55235 0.0
C1003 C 0.21538 0.86027 0.56922 0.0
C1004 C 0.1993 0.84906 0.54049 0.0
C1005 C 0.19647 0.834 0.54501 0.0
C1006 C 0.21249 0.84516 0.57379 0.0
C1007 C 0.20301 0.83213 0.56184 0.0
C1008 C 0.18568 0.82012 0.53299 0.0
C1009 C 0.22656 0.85066 0.49754 0.0
C1010 C 0.22259 0.85743 0.48264 0.0
C1011 C 0.21499 0.8381 0.50735 0.0
C1012 C 0.19934 0.83213 0.50232 0.0
C1013 C 0.20695 0.8511 0.4773 0.0
C1014 C 0.19546 0.8385 0.48695 0.0
C1015 C 0.18678 0.81948 0.513 0.0
H1016 H 0.12637 0.74354 0.49396 0.0
H1017 H 0.14723 0.76343 0.51475 0.0
H1018 H 0.1298 0.7803 0.45804 0.0
H1019 H 0.15036 0.80006 0.47892 0.0
H1020 H 0.10864 0.77431 0.53975 0.0
H1021 H 0.13202 0.78987 0.52204 0.0
H1022 H 0.13508 0.7654 0.58177 0.0
H1023 H 0.15844 0.78048 0.56343 0.0
H1024 H 0.21086 0.87353 0.54828 0.0
H1025 H 0.19399 0.85078 0.52792 0.0
H1026 H 0.21728 0.84337 0.58678 0.0
H1027 H 0.20074 0.82056 0.56577 0.0
H1028 H 0.23854 0.85535 0.5019 0.0
H1029 H 0.21825 0.83317 0.51897 0.0
H1030 H 0.20361 0.85596 0.46569 0.0
H1031 H 0.18346 0.83401 0.48275 0.0
N1032 N 0.17514 0.80726 0.50289 0.0
N1033 N 0.173 0.80846 0.54126 0.0
C1034 C 0.22674 0.38856 0.49868 0.0
C1035 C 0.22255 0.37912 0.48193 0.0
C1036 C 0.21542 0.38737 0.51106 0.0
C1037 C 0.19973 0.37652 0.50707 0.0
C1038 C 0.20682 0.36861 0.47771 0.0
C1039 C 0.19553 0.36736 0.49014 0.0
C1040 C 0.18753 0.37506 0.51997 0.0
C1041 C 0.215 0.3587 0.55348 0.0
C1042 C 0.22277 0.36793 0.56984 0.0
C1043 C 0.20404 0.36094 0.54368 0.0
C1044 C 0.20072 0.37258 0.54987 0.0
C1045 C 0.21939 0.37955 0.57608 0.0
C1046 C 0.20838 0.38176 0.56626 0.0
C1047 C 0.18857 0.37447 0.53998 0.0
C1048 C 0.12559 0.35811 0.56558 0.0
C1049 C 0.12943 0.36865 0.58125 0.0
C1050 C 0.13687 0.35983 0.5528 0.0
C1051 C 0.15218 0.37222 0.55533 0.0
C1052 C 0.14479 0.38104 0.58373 0.0
C1053 C 0.15606 0.38274 0.57095 0.0
C1054 C 0.1644 0.37367 0.54255 0.0
C1055 C 0.13175 0.38184 0.5051 0.0
C1056 C 0.12507 0.37084 0.48981 0.0
C1057 C 0.1439 0.3826 0.51614 0.0
C1058 C 0.14953 0.37236 0.51207 0.0
C1059 C 0.13068 0.36054 0.48594 0.0
C1060 C 0.14281 0.36135 0.49689 0.0
C1061 C 0.16306 0.37355 0.52251 0.0
H1062 H 0.23876 0.39695 0.50213 0.0
H1063 H 0.21893 0.39499 0.52368 0.0
H1064 H 0.20326 0.36107 0.46501 0.0
H1065 H 0.18349 0.35901 0.48667 0.0
H1066 H 0.21739 0.34972 0.54822 0.0
H1067 H 0.19798 0.35338 0.5314 0.0
H1068 H 0.22499 0.38669 0.5888 0.0
H1069 H 0.20584 0.39065 0.57147 0.0
H1070 H 0.11395 0.34825 0.56348 0.0
H1071 H 0.13369 0.35126 0.54119 0.0
H1072 H 0.1481 0.38945 0.59554 0.0
H1073 H 0.16784 0.3923 0.57324 0.0
H1074 H 0.12767 0.38992 0.50843 0.0
H1075 H 0.14911 0.39142 0.52755 0.0
H1076 H 0.12602 0.35214 0.47405 0.0
H1077 H 0.14706 0.35343 0.49337 0.0
N1078 N 0.17473 0.37434 0.51206 0.0
N1079 N 0.17708 0.37407 0.55051 0.0
C1080 C 0.99513 0.3571 0.03048 0.0
C1081 C 0.98751 0.35301 0.01254 0.0
C1082 C 0.99055 0.36391 0.04481 0.0
C1083 C 0.97815 0.36662 0.04148 0.0
C1084 C 0.97015 0.36183 0.02386 0.0
C1085 C 0.97474 0.35511 0.00959 0.0
C1086 C 0.97407 0.37573 0.05499 0.0
C1087 C 0.97874 0.37896 0.07342 0.0
C1088 C 0.97584 0.38982 0.08541 0.0
C1089 C 0.97429 0.38783 0.10514 0.0
C1090 C 0.97212 0.39831 0.1167 0.0
C1091 C 0.97177 0.41115 0.10874 0.0
H1092 H 0.97704 0.40489 0.06244 0.0
C1093 C 0.97335 0.41313 0.08901 0.0
C1094 C 0.9754 0.40264 0.07749 0.0
H1095 H 0.97307 0.42288 0.08244 0.0
H1096 H 0.00505 0.35569 0.03319 0.0
H1097 H 0.99721 0.36764 0.05805 0.0
H1098 H 0.96057 0.36374 0.02085 0.0
H1099 H 0.9685 0.35198 0.99602 0.0
H1100 H 0.96691 0.38019 0.04925 0.0
H1101 H 0.98467 0.3735 0.08005 0.0
H1102 H 0.97478 0.37816 0.11163 0.0
H1103 H 0.97111 0.3966 0.1319 0.0
C1104 C 0.62317 0.60372 0.05561 0.0
C1105 C 0.62627 0.61882 0.06139 0.0
C1106 C 0.6123 0.59045 0.06505 0.0
C1107 C 0.60441 0.59206 0.08059 0.0
C1108 C 0.60724 0.60712 0.08598 0.0
C1109 C 0.61809 0.62037 0.07656 0.0
C1110 C 0.593 0.57838 0.09134 0.0
C1111 C 0.59287 0.56462 0.09207 0.0
C1112 C 0.58167 0.55118 0.10338 0.0
C1113 C 0.5854 0.53979 0.10886 0.0
C1114 C 0.57518 0.52701 0.11954 0.0
C1115 C 0.56094 0.52532 0.12486 0.0
H1116 H 0.5637 0.55752 0.10404 0.0
C1117 C 0.55715 0.53665 0.1192 0.0
C1118 C 0.56731 0.54934 0.10847 0.0
H1119 H 0.54633 0.53579 0.12318 0.0
H1120 H 0.62919 0.60214 0.04385 0.0
H1121 H 0.61007 0.57901 0.06 0.0
H1122 H 0.60122 0.60869 0.09777 0.0
H1123 H 0.62023 0.63184 0.0814 0.0
H1124 H 0.58503 0.58019 0.09987 0.0
H1125 H 0.60177 0.56333 0.085 0.0
H1126 H 0.59631 0.5408 0.10495 0.0
H1127 H 0.57835 0.51836 0.12341 0.0
C1128 C 0.3928 0.02351 0.02967 0.0
C1129 C 0.37716 0.0116 0.02928 0.0
C1130 C 0.40177 0.02744 0.04647 0.0
C1131 C 0.39528 0.01963 0.06342 0.0
C1132 C 0.37954 0.00806 0.06312 0.0
C1133 C 0.37057 0.0041 0.0463 0.0
C1134 C 0.40467 0.02219 0.08121 0.0
C1135 C 0.41911 0.03444 0.08442 0.0
C1136 C 0.42913 0.0355 0.10089 0.0
C1137 C 0.4452 0.04359 0.09874 0.0
C1138 C 0.45506 0.04396 0.11327 0.0
C1139 C 0.44909 0.03642 0.13048 0.0
H1140 H 0.41085 0.02256 0.1208 0.0
C1141 C 0.43302 0.02889 0.13296 0.0
C1142 C 0.42313 0.02843 0.11834 0.0
H1143 H 0.42805 0.02327 0.14618 0.0
H1144 H 0.3983 0.0295 0.01682 0.0
H1145 H 0.41388 0.03617 0.04572 0.0
H1146 H 0.3742 0.00179 0.07589 0.0
H1147 H 0.35856 0.99488 0.04658 0.0
H1148 H 0.39962 0.0131 0.09169 0.0
H1149 H 0.42436 0.04355 0.07404 0.0
H1150 H 0.45015 0.04921 0.0855 0.0
H1151 H 0.46733 0.04969 0.11068 0.0
C1152 C 0.37281 0.98111 0.94608 0.0
C1153 C 0.36584 0.97196 0.96196 0.0
C1154 C 0.38394 0.97951 0.93621 0.0
C1155 C 0.38856 0.96885 0.94213 0.0
C1156 C 0.38148 0.95957 0.95791 0.0
C1157 C 0.37022 0.96113 0.96778 0.0
C1158 C 0.4001 0.96663 0.93151 0.0
C1159 C 0.41087 0.97792 0.92076 0.0
C1160 C 0.42177 0.97581 0.9086 0.0
C1161 C 0.4344 0.98927 0.90136 0.0
C1162 C 0.44451 0.98794 0.88901 0.0
C1163 C 0.44221 0.97307 0.88356 0.0
H1164 H 0.40967 0.95017 0.90793 0.0
C1165 C 0.4296 0.95957 0.89081 0.0
C1166 C 0.41944 0.96089 0.90314 0.0
H1167 H 0.42758 0.94794 0.88701 0.0
H1168 H 0.36945 0.98932 0.94096 0.0
H1169 H 0.38856 0.98639 0.92366 0.0
H1170 H 0.38466 0.95112 0.96261 0.0
H1171 H 0.36496 0.95384 0.9799 0.0
H1172 H 0.39978 0.9555 0.93295 0.0
H1173 H 0.41198 0.9895 0.92093 0.0
H1174 H 0.43639 0.00091 0.90512 0.0
H1175 H 0.45397 0.99857 0.88345 0.0
C1176 C 0.02337 0.37731 0.93905 0.0
C1177 C 0.03134 0.37723 0.95563 0.0
C1178 C 0.02615 0.39148 0.93144 0.0
C1179 C 0.03691 0.40595 0.94032 0.0
C1180 C 0.04525 0.40589 0.95653 0.0
C1181 C 0.04246 0.39168 0.96417 0.0
C1182 C 0.03989 0.42123 0.93276 0.0
C1183 C 0.02903 0.42274 0.923 0.0
C1184 C 0.03153 0.4377 0.91494 0.0
C1185 C 0.01852 0.43887 0.90992 0.0
C1186 C 0.02017 0.45231 0.90134 0.0
C1187 C 0.03492 0.46491 0.89745 0.0
H1188 H 0.05667 0.44983 0.9144 0.0
C1189 C 0.04799 0.46383 0.90258 0.0
C1190 C 0.04634 0.45036 0.9112 0.0
H1191 H 0.05952 0.47336 0.89982 0.0
H1192 H 0.01501 0.3664 0.93185 0.0
H1193 H 0.01995 0.39102 0.91847 0.0
H1194 H 0.05376 0.41687 0.9635 0.0
H1195 H 0.04887 0.39201 0.97689 0.0
H1196 H 0.05105 0.43153 0.93618 0.0
H1197 H 0.01746 0.41261 0.92128 0.0
H1198 H 0.00697 0.42926 0.91245 0.0
H1199 H 0.00984 0.45261 0.89726 0.0
C1200 C 0.62067 0.64346 0.97946 0.0
C1201 C 0.6156 0.64746 0.99611 0.0
C1202 C 0.61107 0.63776 0.96313 0.0
C1203 C 0.59617 0.63592 0.96311 0.0
C1204 C 0.59148 0.64078 0.97935 0.0
C1205 C 0.60102 0.64638 0.9957 0.0
C1206 C 0.58504 0.62858 0.94672 0.0
C1207 C 0.58498 0.61752 0.93501 0.0
C1208 C 0.57269 0.60842 0.92023 0.0
C1209 C 0.56995 0.59347 0.91447 0.0
C1210 C 0.55819 0.58422 0.90115 0.0
C1211 C 0.54896 0.58977 0.89306 0.0
H1212 H 0.56572 0.62583 0.91549 0.0
C1213 C 0.55191 0.60492 0.89849 0.0
C1214 C 0.56367 0.61417 0.91189 0.0
H1215 H 0.54522 0.60968 0.89225 0.0
H1216 H 0.63188 0.64429 0.97918 0.0
H1217 H 0.61531 0.63468 0.95065 0.0
H1218 H 0.58015 0.63969 0.97965 0.0
H1219 H 0.59679 0.6495 0.00818 0.0
H1220 H 0.57573 0.6312 0.94557 0.0
H1221 H 0.59348 0.61389 0.9374 0.0
H1222 H 0.57673 0.58875 0.92059 0.0
H1223 H 0.55613 0.57255 0.89752 0.0
C1224 C 0.03002 0.6468 0.98244 0.0
C1225 C 0.01753 0.64951 0.98398 0.0
C1226 C 0.03172 0.6396 0.96606 0.0
C1227 C 0.02103 0.63502 0.95067 0.0
C1228 C 0.00895 0.63839 0.95187 0.0
C1229 C 0.00725 0.64562 0.96829 0.0
C1230 C 0.02111 0.62525 0.93424 0.0
C1231 C 0.03354 0.62407 0.92954 0.0
C1232 C 0.03301 0.61224 0.91551 0.0
C1233 C 0.04697 0.61439 0.90835 0.0
C1234 C 0.04722 0.60277 0.89681 0.0
C1235 C 0.03348 0.58861 0.89228 0.0
H1236 H 0.00822 0.59583 0.9161 0.0
C1237 C 0.01945 0.5866 0.89905 0.0
C1238 C 0.0192 0.59822 0.91057 0.0
H1239 H 0.00864 0.57589 0.89567 0.0
H1240 H 0.03818 0.64963 0.99422 0.0
H1241 H 0.04099 0.63695 0.96608 0.0
H1242 H 0.00049 0.63493 0.9403 0.0
H1243 H 0.99748 0.6475 0.96898 0.0
H1244 H 0.01035 0.6185 0.92609 0.0
H1245 H 0.04466 0.63191 0.93647 0.0
H1246 H 0.05781 0.62497 0.91207 0.0
H1247 H 0.05825 0.60463 0.89203 0.0
C1248 C 0.36742 0.40132 0.96238 0.0
C1249 C 0.36497 0.38668 0.95554 0.0
C1250 C 0.37818 0.41525 0.95383 0.0
C1251 C 0.38665 0.41472 0.93828 0.0
C1252 C 0.38426 0.4001 0.93165 0.0
C1253 C 0.37348 0.38625 0.94005 0.0
C1254 C 0.39833 0.42901 0.92873 0.0
C1255 C 0.39827 0.44269 0.92845 0.0
C1256 C 0.40947 0.45608 0.91712 0.0
C1257 C 0.40497 0.46614 0.90891 0.0
C1258 C 0.41483 0.4779 0.89672 0.0
C1259 C 0.42937 0.47978 0.8926 0.0
H1260 H 0.42855 0.45159 0.92061 0.0
C1261 C 0.43417 0.47028 0.90164 0.0
C1262 C 0.4244 0.45864 0.91386 0.0
H1263 H 0.44551 0.4718 0.89917 0.0
H1264 H 0.36106 0.40203 0.97433 0.0
H1265 H 0.37998 0.42635 0.95961 0.0
H1266 H 0.39064 0.39934 0.91973 0.0
H1267 H 0.37177 0.37519 0.93423 0.0
H1268 H 0.40669 0.42773 0.92033 0.0
H1269 H 0.38906 0.44365 0.9352 0.0
H1270 H 0.39361 0.46454 0.91139 0.0
H1271 H 0.41089 0.48515 0.89001 0.0
C1272 C 0.60401 0.97013 0.98426 0.0
C1273 C 0.61997 0.98076 0.9864 0.0
C1274 C 0.59636 0.96802 0.96672 0.0
C1275 C 0.60455 0.97639 0.9508 0.0
C1276 C 0.62055 0.98673 0.95285 0.0
C1277 C 0.6282 0.98887 0.97041 0.0
C1278 C 0.59665 0.97574 0.9324 0.0
C1279 C 0.58233 0.96408 0.92723 0.0
C1280 C 0.57344 0.96452 0.9103 0.0
C1281 C 0.5601 0.95057 0.90412 0.0
C1282 C 0.5504 0.95074 0.88972 0.0
C1283 C 0.5538 0.96491 0.88121 0.0
H1284 H 0.58703 0.98975 0.90581 0.0
C1285 C 0.56743 0.97878 0.8869 0.0
C1286 C 0.5771 0.97863 0.90132 0.0
H1287 H 0.57045 0.98987 0.88049 0.0
H1288 H 0.59728 0.96374 0.99627 0.0
H1289 H 0.58396 0.96028 0.96603 0.0
H1290 H 0.62715 0.99343 0.9409 0.0
H1291 H 0.64051 0.99715 0.97151 0.0
H1292 H 0.60296 0.9854 0.92294 0.0
H1293 H 0.57663 0.95374 0.93586 0.0
H1294 H 0.5569 0.93955 0.91084 0.0
H1295 H 0.53989 0.93987 0.88585 0.0
C1296 C 0.62891 0.02907 0.05375 0.0
C1297 C 0.63053 0.01594 0.05742 0.0
C1298 C 0.61752 0.03099 0.06278 0.0
C1299 C 0.60758 0.01976 0.07563 0.0
C1300 C 0.60919 0.00666 0.07913 0.0
C1301 C 0.62059 0.00483 0.0703 0.0
C1302 C 0.59514 0.02093 0.08542 0.0
C1303 C 0.59547 0.03456 0.08941 0.0
C1304 C 0.58341 0.03504 0.10103 0.0
C1305 C 0.58746 0.0481 0.11322 0.0
C1306 C 0.57665 0.04811 0.12566 0.0
C1307 C 0.56159 0.03508 0.12602 0.0
H1308 H 0.56435 0.01244 0.09087 0.0
C1309 C 0.55733 0.02241 0.11308 0.0
C1310 C 0.56808 0.02241 0.10065 0.0
H1311 H 0.54568 0.01241 0.11265 0.0
H1312 H 0.63638 0.03782 0.04386 0.0
H1313 H 0.6164 0.04107 0.05943 0.0
H1314 H 0.6017 0.99784 0.08895 0.0
H1315 H 0.62162 0.9947 0.07372 0.0
H1316 H 0.58586 0.01008 0.09092 0.0
H1317 H 0.60543 0.04567 0.08568 0.0
H1318 H 0.59914 0.05805 0.11363 0.0
H1319 H 0.58024 0.05807 0.13544 0.0
C1320 C 0.96803 0.60949 0.05099 0.0
C1321 C 0.98298 0.62235 0.04877 0.0
C1322 C 0.96595 0.59534 0.058 0.0
C1323 C 0.97882 0.59373 0.06263 0.0
C1324 C 0.99371 0.60639 0.05975 0.0
C1325 C 0.99579 0.62061 0.0531 0.0
C1326 C 0.9771 0.57901 0.07037 0.0
C1327 C 0.96591 0.57013 0.08246 0.0
C1328 C 0.96516 0.55633 0.09172 0.0
C1329 C 0.95998 0.55307 0.11041 0.0
C1330 C 0.95959 0.54048 0.11979 0.0
C1331 C 0.96403 0.53058 0.11053 0.0
H1332 H 0.97308 0.54835 0.06769 0.0
C1333 C 0.96882 0.53363 0.09158 0.0
C1334 C 0.96944 0.5464 0.0823 0.0
H1335 H 0.97197 0.52608 0.0838 0.0
H1336 H 0.95794 0.61046 0.04763 0.0
H1337 H 0.9543 0.58565 0.05962 0.0
H1338 H 0.0038 0.60537 0.06301 0.0
H1339 H 0.00743 0.63013 0.05117 0.0
H1340 H 0.98611 0.57623 0.06738 0.0
H1341 H 0.95788 0.57387 0.08703 0.0
H1342 H 0.9566 0.56054 0.11796 0.0
H1343 H 0.95609 0.53873 0.13446 0.0
C1344 C 0.37293 0.35563 0.03433 0.0
C1345 C 0.37946 0.35644 0.0165 0.0
C1346 C 0.38205 0.3598 0.05104 0.0
C1347 C 0.39796 0.36501 0.05028 0.0
C1348 C 0.40429 0.36507 0.03257 0.0
C1349 C 0.39519 0.36089 0.01586 0.0
C1350 C 0.40844 0.37102 0.06743 0.0
C1351 C 0.4056 0.37748 0.08283 0.0
C1352 C 0.41728 0.3862 0.09833 0.0
C1353 C 0.41661 0.39835 0.10829 0.0
C1354 C 0.42819 0.40794 0.12162 0.0
C1355 C 0.44062 0.40547 0.12547 0.0
H1356 H 0.42992 0.37358 0.09599 0.0
C1357 C 0.44084 0.39272 0.1164 0.0
C1358 C 0.42928 0.38316 0.10291 0.0
H1359 H 0.45026 0.39051 0.11916 0.0
H1360 H 0.36081 0.35202 0.0354 0.0
H1361 H 0.37657 0.35901 0.06446 0.0
H1362 H 0.41647 0.36885 0.03156 0.0
H1363 H 0.40059 0.36152 0.00241 0.0
H1364 H 0.41959 0.37172 0.06636 0.0
H1365 H 0.39506 0.37807 0.08314 0.0
H1366 H 0.4074 0.40083 0.10524 0.0
H1367 H 0.4276 0.41753 0.12864 0.0
C1368 C 0.65434 0.68818 0.37276 0.0
C1369 C 0.6478 0.68632 0.35438 0.0
C1370 C 0.64954 0.69405 0.3879 0.0
C1371 C 0.63805 0.69817 0.38495 0.0
C1372 C 0.63106 0.69558 0.36677 0.0
C1373 C 0.63588 0.68979 0.35169 0.0
C1374 C 0.6333 0.70577 0.3999 0.0
C1375 C 0.64094 0.71192 0.41665 0.0
C1376 C 0.63698 0.7213 0.4299 0.0
C1377 C 0.64059 0.72201 0.4494 0.0
C1378 C 0.63791 0.73152 0.46203 0.0
C1379 C 0.63175 0.74072 0.45539 0.0
H1380 H 0.6283 0.73067 0.40826 0.0
C1381 C 0.6281 0.73996 0.43586 0.0
C1382 C 0.6307 0.7304 0.42327 0.0
H1383 H 0.62371 0.74716 0.43014 0.0
H1384 H 0.66348 0.68552 0.37536 0.0
H1385 H 0.65503 0.69545 0.40171 0.0
H1386 H 0.6221 0.69848 0.36403 0.0
H1387 H 0.63044 0.68837 0.33779 0.0
H1388 H 0.62333 0.70698 0.39644 0.0
H1389 H 0.65057 0.71043 0.42087 0.0
H1390 H 0.64555 0.71523 0.45487 0.0
H1391 H 0.64071 0.73169 0.477 0.0
C1392 C 0.29882 0.94758 0.40229 0.0
C1393 C 0.29922 0.96207 0.404 0.0
C1394 C 0.28813 0.93461 0.41237 0.0
C1395 C 0.2776 0.9359 0.42427 0.0
C1396 C 0.27789 0.95029 0.42574 0.0
C1397 C 0.28868 0.96328 0.4159 0.0
C1398 C 0.26581 0.92241 0.43486 0.0
C1399 C 0.26809 0.911 0.44178 0.0
C1400 C 0.25644 0.89761 0.45287 0.0
C1401 C 0.25867 0.88478 0.45607 0.0
C1402 C 0.24786 0.87181 0.46605 0.0
C1403 C 0.23456 0.87139 0.47295 0.0
H1404 H 0.2413 0.90708 0.45917 0.0
C1405 C 0.23251 0.88434 0.47024 0.0
C1406 C 0.24334 0.89734 0.46047 0.0
H1407 H 0.22251 0.88445 0.47581 0.0
H1408 H 0.30678 0.94625 0.3932 0.0
H1409 H 0.28796 0.92356 0.41052 0.0
H1410 H 0.26984 0.95155 0.43474 0.0
H1411 H 0.28874 0.97426 0.41772 0.0
H1412 H 0.25514 0.92239 0.43739 0.0
H1413 H 0.27898 0.91143 0.43923 0.0
H1414 H 0.2687 0.88469 0.45061 0.0
H1415 H 0.24971 0.86196 0.46798 0.0
C1416 C 0.06149 0.36406 0.37519 0.0
C1417 C 0.04595 0.3522 0.37225 0.0
C1418 C 0.06893 0.36629 0.3929 0.0
C1419 C 0.06097 0.35677 0.40822 0.0
C1420 C 0.04534 0.34521 0.40543 0.0
C1421 C 0.03788 0.34299 0.3877 0.0
C1422 C 0.06895 0.35749 0.42659 0.0
C1423 C 0.0825 0.37001 0.43262 0.0
C1424 C 0.09188 0.36985 0.44918 0.0
C1425 C 0.10394 0.38424 0.45668 0.0
C1426 C 0.1143 0.3846 0.47055 0.0
C1427 C 0.11289 0.37054 0.47712 0.0
H1428 H 0.08126 0.34438 0.45077 0.0
C1429 C 0.10047 0.35613 0.47019 0.0
C1430 C 0.09012 0.35576 0.45634 0.0
H1431 H 0.09899 0.34509 0.47511 0.0
H1432 H 0.0681 0.37135 0.36362 0.0
H1433 H 0.08108 0.37503 0.39417 0.0
H1434 H 0.03894 0.33763 0.4169 0.0
H1435 H 0.02592 0.33373 0.38598 0.0
H1436 H 0.06345 0.34714 0.43523 0.0
H1437 H 0.08722 0.38087 0.42491 0.0
H1438 H 0.10567 0.39528 0.45136 0.0
H1439 H 0.12384 0.3959 0.47543 0.0
C1440 C 0.04655 0.32659 0.28648 0.0
C1441 C 0.03764 0.31657 0.30087 0.0
C1442 C 0.05708 0.32388 0.27677 0.0
C1443 C 0.05914 0.31116 0.28142 0.0
C1444 C 0.05026 0.30116 0.29587 0.0
C1445 C 0.0396 0.30383 0.30553 0.0
C1446 C 0.06975 0.3075 0.27074 0.0
C1447 C 0.08161 0.31828 0.2607 0.0
C1448 C 0.09171 0.3148 0.24868 0.0
C1449 C 0.10542 0.32751 0.24216 0.0
C1450 C 0.115 0.32499 0.23015 0.0
C1451 C 0.1111 0.30964 0.22433 0.0
H1452 H 0.0771 0.28925 0.24696 0.0
C1453 C 0.09737 0.29688 0.23078 0.0
C1454 C 0.08773 0.29941 0.24275 0.0
H1455 H 0.09409 0.2849 0.22667 0.0
H1456 H 0.04511 0.33634 0.28229 0.0
H1457 H 0.06316 0.33153 0.26526 0.0
H1458 H 0.05147 0.29117 0.29961 0.0
H1459 H 0.03282 0.29584 0.31649 0.0
H1460 H 0.06776 0.29561 0.27152 0.0
H1461 H 0.08435 0.33046 0.26144 0.0
H1462 H 0.1087 0.3395 0.24626 0.0
H1463 H 0.12535 0.3351 0.22518 0.0
C1464 C 0.68673 0.71374 0.2812 0.0
C1465 C 0.69374 0.71279 0.2982 0.0
C1466 C 0.69103 0.72833 0.2735 0.0
C1467 C 0.70252 0.74233 0.28259 0.0
C1468 C 0.70936 0.74139 0.29973 0.0
C1469 C 0.70511 0.72677 0.30739 0.0
C1470 C 0.70713 0.75804 0.27492 0.0
C1471 C 0.70625 0.76033 0.25621 0.0
C1472 C 0.71 0.7757 0.24817 0.0
C1473 C 0.7132 0.77799 0.22873 0.0
C1474 C 0.71567 0.79176 0.22021 0.0
C1475 C 0.71486 0.80354 0.23091 0.0
H1476 H 0.70664 0.78619 0.27389 0.0
C1477 C 0.71187 0.80138 0.25044 0.0
C1478 C 0.70944 0.78761 0.25899 0.0
H1479 H 0.71123 0.81028 0.25908 0.0
H1480 H 0.67793 0.7032 0.27376 0.0
H1481 H 0.6851 0.72856 0.26062 0.0
H1482 H 0.71812 0.752 0.30713 0.0
H1483 H 0.71068 0.72643 0.32056 0.0
H1484 H 0.71187 0.76799 0.28496 0.0
H1485 H 0.70293 0.75057 0.24612 0.0
H1486 H 0.71356 0.76897 0.22001 0.0
H1487 H 0.7177 0.79294 0.20508 0.0
C1488 C 0.27207 0.98262 0.32954 0.0
C1489 C 0.28545 0.98167 0.33317 0.0
C1490 C 0.26254 0.97488 0.31357 0.0
C1491 C 0.26609 0.96585 0.3011 0.0
C1492 C 0.27962 0.96521 0.30448 0.0
C1493 C 0.28933 0.97322 0.32021 0.0
C1494 C 0.25508 0.95567 0.28575 0.0
C1495 C 0.24592 0.95954 0.27585 0.0
C1496 C 0.23403 0.94833 0.26194 0.0
C1497 C 0.23163 0.95361 0.24454 0.0
C1498 C 0.22047 0.94303 0.2313 0.0
C1499 C 0.21116 0.927 0.23546 0.0
H1500 H 0.22598 0.9281 0.27982 0.0
C1501 C 0.21331 0.92192 0.25326 0.0
C1502 C 0.2247 0.93241 0.26624 0.0
H1503 H 0.20609 0.90985 0.25738 0.0
H1504 H 0.26878 0.98903 0.33929 0.0
H1505 H 0.25202 0.97535 0.31156 0.0
H1506 H 0.28253 0.95822 0.29515 0.0
H1507 H 0.29949 0.97217 0.32269 0.0
H1508 H 0.25457 0.94456 0.28242 0.0
H1509 H 0.24735 0.97121 0.27765 0.0
H1510 H 0.23863 0.96588 0.24101 0.0
H1511 H 0.21933 0.94742 0.21772 0.0
C1512 C 0.67532 0.97152 0.31306 0.0
C1513 C 0.68232 0.97401 0.33127 0.0
C1514 C 0.68062 0.96638 0.29772 0.0
C1515 C 0.69304 0.9636 0.30031 0.0
C1516 C 0.70048 0.96685 0.31825 0.0
C1517 C 0.69516 0.9719 0.33357 0.0
C1518 C 0.69835 0.95693 0.28495 0.0
C1519 C 0.68907 0.94768 0.27045 0.0
C1520 C 0.69352 0.9388 0.25702 0.0
C1521 C 0.68175 0.92494 0.24813 0.0
C1522 C 0.68533 0.91554 0.23658 0.0
C1523 C 0.70081 0.91987 0.23351 0.0
H1524 H 0.71845 0.95439 0.25932 0.0
C1525 C 0.71262 0.93412 0.24167 0.0
C1526 C 0.70903 0.94352 0.25328 0.0
H1527 H 0.72466 0.93781 0.23953 0.0
H1528 H 0.6655 0.97318 0.31073 0.0
H1529 H 0.67489 0.96453 0.28396 0.0
H1530 H 0.71018 0.965 0.32062 0.0
H1531 H 0.70098 0.97386 0.34731 0.0
H1532 H 0.70977 0.95835 0.2869 0.0
H1533 H 0.67719 0.94513 0.26949 0.0
H1534 H 0.6697 0.92111 0.25053 0.0
H1535 H 0.67595 0.90481 0.23016 0.0
C1536 C 0.0452 0.71308 0.27668 0.0
C1537 C 0.03487 0.71208 0.29065 0.0
C1538 C 0.05403 0.72702 0.26718 0.0
C1539 C 0.05254 0.7403 0.27112 0.0
C1540 C 0.04245 0.73941 0.28539 0.0
C1541 C 0.03367 0.72543 0.29504 0.0
C1542 C 0.06158 0.75531 0.26104 0.0
C1543 C 0.06815 0.75624 0.24414 0.0
C1544 C 0.07811 0.77129 0.23476 0.0
C1545 C 0.0903 0.77258 0.22383 0.0
C1546 C 0.10021 0.78662 0.21505 0.0
C1547 C 0.09791 0.79955 0.2167 0.0
H1548 H 0.06608 0.78339 0.24409 0.0
C1549 C 0.08542 0.79816 0.22711 0.0
C1550 C 0.07563 0.78416 0.23619 0.0
H1551 H 0.08342 0.80799 0.22851 0.0
H1552 H 0.04643 0.70305 0.27292 0.0
H1553 H 0.06209 0.72725 0.25692 0.0
H1554 H 0.04121 0.74949 0.28892 0.0
H1555 H 0.02583 0.72505 0.30577 0.0
H1556 H 0.06293 0.76595 0.26789 0.0
H1557 H 0.06689 0.74573 0.2371 0.0
H1558 H 0.09235 0.76277 0.22237 0.0
H1559 H 0.10965 0.78736 0.2069 0.0
C1560 C 0.27246 0.3086 0.32782 0.0
C1561 C 0.28839 0.31945 0.32974 0.0
C1562 C 0.26475 0.30578 0.31018 0.0
C1563 C 0.27284 0.31366 0.29396 0.0
C1564 C 0.2888 0.3243 0.29585 0.0
C1565 C 0.29651 0.32714 0.31349 0.0
C1566 C 0.26488 0.31214 0.27532 0.0
C1567 C 0.25072 0.30004 0.27039 0.0
C1568 C 0.24172 0.29963 0.25309 0.0
C1569 C 0.22856 0.28533 0.24738 0.0
C1570 C 0.21868 0.28476 0.23271 0.0
C1571 C 0.2217 0.29855 0.22348 0.0
H1572 H 0.25482 0.32468 0.24736 0.0
C1573 C 0.2352 0.31274 0.22863 0.0
C1574 C 0.24505 0.31332 0.2433 0.0
H1575 H 0.23794 0.32354 0.22165 0.0
H1576 H 0.26582 0.30253 0.34004 0.0
H1577 H 0.25238 0.29786 0.30959 0.0
H1578 H 0.29531 0.33064 0.28367 0.0
H1579 H 0.30879 0.33556 0.3144 0.0
H1580 H 0.27101 0.32151 0.26544 0.0
H1581 H 0.24523 0.29 0.27952 0.0
H1582 H 0.22562 0.27461 0.2547 0.0
H1583 H 0.2083 0.27367 0.22923 0.0
C1584 C 0.30042 0.3702 0.39831 0.0
C1585 C 0.30165 0.35683 0.40189 0.0
C1586 C 0.29089 0.37365 0.40935 0.0
C1587 C 0.28244 0.36376 0.42417 0.0
C1588 C 0.28364 0.3504 0.4276 0.0
C1589 C 0.29306 0.34692 0.41654 0.0
C1590 C 0.2728 0.36725 0.43696 0.0
C1591 C 0.26637 0.37592 0.4321 0.0
C1592 C 0.25598 0.37811 0.44506 0.0
C1593 C 0.24334 0.37884 0.43737 0.0
C1594 C 0.23264 0.37953 0.44932 0.0
C1595 C 0.23453 0.37975 0.46921 0.0
H1596 H 0.26815 0.37902 0.47134 0.0
C1597 C 0.24761 0.37984 0.47689 0.0
C1598 C 0.25825 0.37905 0.46495 0.0
H1599 H 0.24938 0.38 0.49215 0.0
H1600 H 0.307 0.37812 0.3872 0.0
H1601 H 0.29055 0.38426 0.40656 0.0
H1602 H 0.27733 0.34264 0.43898 0.0
H1603 H 0.29385 0.33662 0.41982 0.0
H1604 H 0.27014 0.36158 0.45062 0.0
H1605 H 0.26761 0.38035 0.41782 0.0
H1606 H 0.24147 0.37835 0.42209 0.0
H1607 H 0.22279 0.37972 0.44302 0.0
C1608 C 0.64659 0.94637 0.40631 0.0
C1609 C 0.63812 0.94588 0.38994 0.0
C1610 C 0.64384 0.93251 0.41479 0.0
C1611 C 0.63254 0.91777 0.40706 0.0
C1612 C 0.62383 0.91726 0.39095 0.0
C1613 C 0.62663 0.93118 0.38239 0.0
C1614 C 0.62927 0.90284 0.41599 0.0
C1615 C 0.64019 0.90142 0.42574 0.0
C1616 C 0.63728 0.887 0.43568 0.0
C1617 C 0.64994 0.88505 0.44014 0.0
C1618 C 0.648 0.87229 0.45062 0.0
C1619 C 0.63334 0.86121 0.45708 0.0
H1620 H 0.61256 0.87707 0.43918 0.0
C1621 C 0.6206 0.86301 0.45241 0.0
C1622 C 0.62254 0.87578 0.44186 0.0
H1623 H 0.6092 0.85481 0.45742 0.0
H1624 H 0.65526 0.95749 0.41278 0.0
H1625 H 0.65038 0.93343 0.42763 0.0
H1626 H 0.61492 0.90607 0.38486 0.0
H1627 H 0.61982 0.93041 0.36987 0.0
H1628 H 0.61775 0.89271 0.41387 0.0
H1629 H 0.65203 0.91118 0.42615 0.0
H1630 H 0.66143 0.89352 0.43562 0.0
H1631 H 0.65802 0.87114 0.45371 0.0
C1632 C 0.04698 0.68986 0.37308 0.0
C1633 C 0.05371 0.68878 0.3561 0.0
C1634 C 0.05596 0.69594 0.38985 0.0
C1635 C 0.07188 0.70111 0.38997 0.0
C1636 C 0.07841 0.69929 0.37327 0.0
C1637 C 0.06947 0.69328 0.3565 0.0
C1638 C 0.08218 0.70891 0.40696 0.0
C1639 C 0.07943 0.71732 0.4201 0.0
C1640 C 0.09093 0.7274 0.43519 0.0
C1641 C 0.09064 0.74073 0.4421 0.0
C1642 C 0.10194 0.75124 0.45516 0.0
C1643 C 0.1137 0.74853 0.4618 0.0
H1644 H 0.10265 0.71389 0.4379 0.0
C1645 C 0.11359 0.73479 0.45562 0.0
C1646 C 0.10232 0.72431 0.44243 0.0
H1647 H 0.12249 0.73237 0.46054 0.0
H1648 H 0.03484 0.68633 0.37336 0.0
H1649 H 0.05038 0.69665 0.40261 0.0
H1650 H 0.0906 0.703 0.373 0.0
H1651 H 0.07503 0.69247 0.34375 0.0
H1652 H 0.09316 0.70915 0.40744 0.0
H1653 H 0.06912 0.71828 0.41858 0.0
H1654 H 0.0819 0.74331 0.43696 0.0
H1655 H 0.10155 0.76158 0.45994 0.0
C1656 C 0.3258 0.03094 0.70716 0.0
C1657 C 0.32552 0.03533 0.68829 0.0
C1658 C 0.32258 0.03834 0.72221 0.0
C1659 C 0.31933 0.05044 0.71864 0.0
C1660 C 0.31921 0.05488 0.69984 0.0
C1661 C 0.32207 0.04729 0.68481 0.0
C1662 C 0.31678 0.05925 0.73416 0.0
C1663 C 0.30923 0.05256 0.7501 0.0
C1664 C 0.30612 0.06166 0.7647 0.0
C1665 C 0.29186 0.0546 0.77377 0.0
C1666 C 0.28838 0.06332 0.78671 0.0
C1667 C 0.29929 0.07914 0.79117 0.0
H1668 H 0.32837 0.08307 0.76303 0.0
C1669 C 0.31377 0.08602 0.78262 0.0
C1670 C 0.31714 0.0774 0.76947 0.0
H1671 H 0.32238 0.09821 0.78575 0.0
H1672 H 0.32847 0.02179 0.71027 0.0
H1673 H 0.32304 0.03487 0.73663 0.0
H1674 H 0.31685 0.06425 0.69674 0.0
H1675 H 0.32191 0.05106 0.67047 0.0
H1676 H 0.3203 0.07148 0.73171 0.0
H1677 H 0.3042 0.03996 0.75177 0.0
H1678 H 0.28324 0.04245 0.77043 0.0
H1679 H 0.27718 0.05771 0.79324 0.0
C1680 C 0.96466 0.26289 0.72933 0.0
C1681 C 0.96372 0.27646 0.73327 0.0
C1682 C 0.95602 0.24924 0.73963 0.0
C1683 C 0.94622 0.24892 0.75403 0.0
C1684 C 0.94512 0.26241 0.75765 0.0
C1685 C 0.95373 0.276 0.7474 0.0
C1686 C 0.93762 0.23524 0.7664 0.0
C1687 C 0.93457 0.22049 0.76226 0.0
C1688 C 0.92569 0.20736 0.77527 0.0
C1689 C 0.91597 0.19211 0.76767 0.0
C1690 C 0.90661 0.17982 0.77956 0.0
C1691 C 0.90694 0.18257 0.79932 0.0
H1692 H 0.93447 0.22135 0.80158 0.0
C1693 C 0.9173 0.19765 0.80699 0.0
C1694 C 0.92661 0.20989 0.79513 0.0
H1695 H 0.91812 0.20003 0.82221 0.0
H1696 H 0.97235 0.26292 0.71861 0.0
H1697 H 0.95748 0.23923 0.73663 0.0
H1698 H 0.93774 0.26255 0.76869 0.0
H1699 H 0.95281 0.28626 0.75095 0.0
H1700 H 0.9331 0.23741 0.77936 0.0
H1701 H 0.93765 0.21766 0.74861 0.0
H1702 H 0.9152 0.18981 0.75244 0.0
H1703 H 0.89872 0.16833 0.77321 0.0
C1704 C 0.73258 0.68687 0.69783 0.0
C1705 C 0.71716 0.67443 0.69738 0.0
C1706 C 0.74146 0.69128 0.71474 0.0
C1707 C 0.73511 0.68333 0.73163 0.0
C1708 C 0.71966 0.67107 0.73124 0.0
C1709 C 0.71074 0.66673 0.71436 0.0
C1710 C 0.74458 0.6866 0.74942 0.0
C1711 C 0.75745 0.70048 0.75364 0.0
C1712 C 0.76762 0.70306 0.77057 0.0
C1713 C 0.77686 0.71836 0.77831 0.0
C1714 C 0.78724 0.72128 0.79351 0.0
C1715 C 0.78874 0.70897 0.80114 0.0
H1716 H 0.76251 0.67885 0.77231 0.0
C1717 C 0.77944 0.69364 0.79338 0.0
C1718 C 0.76902 0.69071 0.7783 0.0
H1719 H 0.78056 0.68393 0.79852 0.0
H1720 H 0.73792 0.69303 0.68501 0.0
H1721 H 0.75345 0.7005 0.7143 0.0
H1722 H 0.71451 0.66467 0.74399 0.0
H1723 H 0.69892 0.65706 0.71457 0.0
H1724 H 0.74064 0.67719 0.7595 0.0
H1725 H 0.7606 0.71043 0.74459 0.0
H1726 H 0.7761 0.7281 0.77253 0.0
H1727 H 0.79412 0.73321 0.79922 0.0
C1728 C 0.70878 0.63883 0.61666 0.0
C1729 C 0.70039 0.63002 0.63215 0.0
C1730 C 0.71854 0.63501 0.60698 0.0
C1731 C 0.72025 0.6223 0.61259 0.0
C1732 C 0.71166 0.61325 0.62783 0.0
C1733 C 0.70186 0.61713 0.63763 0.0
C1734 C 0.7304 0.61801 0.60198 0.0
C1735 C 0.74334 0.62905 0.59384 0.0
C1736 C 0.75289 0.62571 0.58072 0.0
C1737 C 0.76764 0.63813 0.57662 0.0
C1738 C 0.77645 0.63624 0.56276 0.0
C1739 C 0.77067 0.62187 0.55256 0.0
H1740 H 0.73577 0.60138 0.57328 0.0
C1741 C 0.75609 0.60924 0.55699 0.0
C1742 C 0.74723 0.61114 0.57089 0.0
H1743 H 0.75131 0.59807 0.54925 0.0
H1744 H 0.70763 0.64856 0.61169 0.0
H1745 H 0.72445 0.64184 0.5948 0.0
H1746 H 0.71261 0.60325 0.63221 0.0
H1747 H 0.6954 0.61003 0.6494 0.0
H1748 H 0.72714 0.60569 0.60097 0.0
H1749 H 0.7471 0.64139 0.5967 0.0
H1750 H 0.77228 0.64948 0.58392 0.0
H1751 H 0.78778 0.6461 0.55994 0.0
C1752 C 0.37799 0.06478 0.63278 0.0
C1753 C 0.36554 0.05025 0.62625 0.0
C1754 C 0.3823 0.07846 0.62266 0.0
C1755 C 0.37422 0.07781 0.60577 0.0
C1756 C 0.36202 0.06321 0.5991 0.0
C1757 C 0.35767 0.04961 0.60925 0.0
C1758 C 0.37822 0.09193 0.5945 0.0
C1759 C 0.38523 0.10671 0.60199 0.0
C1760 C 0.38774 0.12043 0.59077 0.0
C1761 C 0.38791 0.13326 0.60016 0.0
C1762 C 0.38927 0.14592 0.5899 0.0
C1763 C 0.39068 0.14611 0.57002 0.0
H1764 H 0.39019 0.11148 0.5633 0.0
C1765 C 0.39116 0.13358 0.56071 0.0
C1766 C 0.38974 0.12089 0.57096 0.0
H1767 H 0.39222 0.13336 0.54541 0.0
H1768 H 0.38437 0.06562 0.64576 0.0
H1769 H 0.39206 0.0894 0.62798 0.0
H1770 H 0.35569 0.06233 0.58605 0.0
H1771 H 0.34817 0.03857 0.60366 0.0
H1772 H 0.37412 0.08986 0.57976 0.0
H1773 H 0.388 0.10871 0.61714 0.0
H1774 H 0.3866 0.13331 0.61543 0.0
H1775 H 0.38915 0.15554 0.59752 0.0
C1776 C 0.93306 0.29609 0.66183 0.0
C1777 C 0.94884 0.30087 0.66398 0.0
C1778 C 0.92556 0.29131 0.64399 0.0
C1779 C 0.93369 0.29126 0.62781 0.0
C1780 C 0.94949 0.29625 0.62992 0.0
C1781 C 0.957 0.30108 0.64775 0.0
C1782 C 0.92581 0.28476 0.609 0.0
C1783 C 0.91229 0.28372 0.60376 0.0
C1784 C 0.90311 0.27493 0.58637 0.0
C1785 C 0.89143 0.27771 0.57957 0.0
C1786 C 0.8812 0.26825 0.56486 0.0
C1787 C 0.88235 0.2557 0.5568 0.0
H1788 H 0.91322 0.25993 0.58266 0.0
C1789 C 0.89443 0.25333 0.56302 0.0
C1790 C 0.90466 0.26278 0.57766 0.0
H1791 H 0.89566 0.2438 0.55697 0.0
H1792 H 0.92639 0.29572 0.67401 0.0
H1793 H 0.91329 0.28711 0.64315 0.0
H1794 H 0.956 0.29619 0.61776 0.0
H1795 H 0.96916 0.30467 0.64884 0.0
H1796 H 0.93138 0.28059 0.59924 0.0
H1797 H 0.90751 0.28927 0.61271 0.0
H1798 H 0.88989 0.2869 0.58607 0.0
H1799 H 0.87192 0.27026 0.5605 0.0
C1800 C 0.36056 0.30867 0.6615 0.0
C1801 C 0.34818 0.31164 0.66094 0.0
C1802 C 0.36432 0.30292 0.64536 0.0
C1803 C 0.35585 0.30006 0.62814 0.0
C1804 C 0.34374 0.30341 0.62742 0.0
C1805 C 0.34 0.30924 0.6436 0.0
C1806 C 0.35837 0.29219 0.61137 0.0
C1807 C 0.37171 0.29224 0.60851 0.0
C1808 C 0.3736 0.28235 0.59366 0.0
C1809 C 0.38862 0.2861 0.58872 0.0
C1810 C 0.39099 0.27619 0.57643 0.0
C1811 C 0.37837 0.26218 0.56893 0.0
H1812 H 0.3492 0.26495 0.58945 0.0
C1813 C 0.36332 0.25862 0.57347 0.0
C1814 C 0.36095 0.26854 0.58572 0.0
H1815 H 0.35335 0.24798 0.56779 0.0
H1816 H 0.36712 0.31035 0.67459 0.0
H1817 H 0.37344 0.3001 0.64678 0.0
H1818 H 0.33693 0.3012 0.61441 0.0
H1819 H 0.33036 0.31133 0.64266 0.0
H1820 H 0.34875 0.28598 0.60124 0.0
H1821 H 0.38175 0.29968 0.61759 0.0
H1822 H 0.39859 0.29657 0.59475 0.0
H1823 H 0.40273 0.2792 0.57338 0.0
C1824 C 0.70939 0.05375 0.61748 0.0
C1825 C 0.69487 0.0492 0.62501 0.0
C1826 C 0.71759 0.06802 0.60836 0.0
C1827 C 0.71134 0.07795 0.6064 0.0
C1828 C 0.69681 0.07341 0.61387 0.0
C1829 C 0.68873 0.05925 0.62337 0.0
C1830 C 0.71953 0.09265 0.59573 0.0
C1831 C 0.735 0.10178 0.59683 0.0
C1832 C 0.74381 0.11557 0.58484 0.0
C1833 C 0.75805 0.1279 0.59181 0.0
C1834 C 0.76757 0.14018 0.58012 0.0
C1835 C 0.76322 0.14021 0.561 0.0
H1836 H 0.72828 0.10638 0.56007 0.0
C1837 C 0.74869 0.1281 0.55419 0.0
C1838 C 0.73905 0.11591 0.56601 0.0
H1839 H 0.74506 0.12762 0.53949 0.0
H1840 H 0.71447 0.04634 0.61864 0.0
H1841 H 0.72864 0.07105 0.60239 0.0
H1842 H 0.69172 0.08083 0.61238 0.0
H1843 H 0.67749 0.05595 0.62895 0.0
H1844 H 0.71269 0.09608 0.58705 0.0
H1845 H 0.74156 0.09908 0.60702 0.0
H1846 H 0.76196 0.12789 0.60627 0.0
H1847 H 0.7785 0.1495 0.586 0.0
C1848 C 0.93321 0.6418 0.65798 0.0
C1849 C 0.94864 0.65411 0.65994 0.0
C1850 C 0.92512 0.63869 0.64058 0.0
C1851 C 0.9323 0.64783 0.62471 0.0
C1852 C 0.94772 0.66008 0.62664 0.0
C1853 C 0.95585 0.66313 0.64401 0.0
C1854 C 0.92372 0.64567 0.60642 0.0
C1855 C 0.91129 0.63192 0.60061 0.0
C1856 C 0.90186 0.63021 0.58323 0.0
C1857 C 0.89299 0.61529 0.57433 0.0
C1858 C 0.88316 0.61307 0.55876 0.0
C1859 C 0.88185 0.62572 0.5519 0.0
H1860 H 0.90691 0.65446 0.58308 0.0
C1861 C 0.89083 0.64068 0.56075 0.0
C1862 C 0.9007 0.6429 0.57623 0.0
H1863 H 0.88983 0.65061 0.5562 0.0
H1864 H 0.92727 0.63465 0.66996 0.0
H1865 H 0.91312 0.62946 0.63984 0.0
H1866 H 0.95348 0.6674 0.61471 0.0
H1867 H 0.9677 0.67274 0.64501 0.0
H1868 H 0.92801 0.65577 0.59735 0.0
H1869 H 0.90793 0.62142 0.60869 0.0
H1870 H 0.89358 0.60529 0.57952 0.0
H1871 H 0.8765 0.60143 0.55219 0.0
C1872 C 0.9668 0.70789 0.73001 0.0
C1873 C 0.96583 0.69322 0.73211 0.0
C1874 C 0.95861 0.71251 0.74196 0.0
C1875 C 0.94924 0.70247 0.75617 0.0
C1876 C 0.94813 0.68775 0.75796 0.0
C1877 C 0.95628 0.68316 0.74609 0.0
C1878 C 0.94103 0.70701 0.77008 0.0
C1879 C 0.93785 0.71868 0.76781 0.0
C1880 C 0.92889 0.72191 0.78203 0.0
C1881 C 0.91857 0.72676 0.77589 0.0
C1882 C 0.9088 0.72819 0.7888 0.0
C1883 C 0.90929 0.72491 0.80809 0.0
H1884 H 0.93838 0.71652 0.8069 0.0
C1885 C 0.92033 0.72104 0.81441 0.0
C1886 C 0.93008 0.71963 0.80155 0.0
H1887 H 0.92124 0.71885 0.82929 0.0
H1888 H 0.97417 0.71595 0.71946 0.0
H1889 H 0.96005 0.72409 0.74033 0.0
H1890 H 0.94106 0.6798 0.7688 0.0
H1891 H 0.95538 0.67185 0.74826 0.0
H1892 H 0.93676 0.69979 0.78253 0.0
H1893 H 0.94066 0.72511 0.75471 0.0
H1894 H 0.91759 0.72878 0.76097 0.0
H1895 H 0.90039 0.73118 0.78351 0.0
C1896 C 0.31619 0.28387 0.73748 0.0
C1897 C 0.30707 0.28426 0.72235 0.0
C1898 C 0.31285 0.26961 0.74535 0.0
C1899 C 0.30016 0.25535 0.73844 0.0
C1900 C 0.29125 0.25569 0.72303 0.0
C1901 C 0.29461 0.27 0.71511 0.0
C1902 C 0.29616 0.23998 0.74678 0.0
C1903 C 0.29955 0.23875 0.76508 0.0
C1904 C 0.29621 0.22382 0.77412 0.0
C1905 C 0.29774 0.22394 0.79402 0.0
C1906 C 0.29574 0.21064 0.80328 0.0
C1907 C 0.29219 0.19684 0.79287 0.0
H1908 H 0.29137 0.20929 0.7483 0.0
C1909 C 0.2903 0.1965 0.77298 0.0
C1910 C 0.29237 0.20988 0.76366 0.0
H1911 H 0.2877 0.18606 0.76459 0.0
H1912 H 0.32589 0.29461 0.74339 0.0
H1913 H 0.32038 0.26984 0.75672 0.0
H1914 H 0.28153 0.24488 0.71726 0.0
H1915 H 0.2874 0.26989 0.70339 0.0
H1916 H 0.28971 0.22949 0.73776 0.0
H1917 H 0.3048 0.24925 0.77426 0.0
H1918 H 0.30067 0.23445 0.80249 0.0
H1919 H 0.29705 0.21119 0.81865 0.0
C1920 C 0.73289 0.03041 0.68689 0.0
C1921 C 0.71714 0.02582 0.68741 0.0
C1922 C 0.74209 0.0352 0.70354 0.0
C1923 C 0.7358 0.03572 0.72115 0.0
C1924 C 0.71996 0.03068 0.72177 0.0
C1925 C 0.71072 0.02583 0.70509 0.0
C1926 C 0.74538 0.0413 0.73909 0.0
C1927 C 0.76074 0.05161 0.73932 0.0
C1928 C 0.77089 0.05789 0.75677 0.0
C1929 C 0.78694 0.06657 0.75441 0.0
C1930 C 0.7971 0.07335 0.77004 0.0
C1931 C 0.79149 0.07166 0.78858 0.0
H1932 H 0.75297 0.04969 0.77798 0.0
C1933 C 0.77543 0.06288 0.79107 0.0
C1934 C 0.76522 0.05606 0.77536 0.0
H1935 H 0.77074 0.06132 0.80517 0.0
H1936 H 0.73819 0.03032 0.67359 0.0
H1937 H 0.75407 0.03832 0.70248 0.0
H1938 H 0.71475 0.03076 0.73515 0.0
H1939 H 0.69861 0.02228 0.70606 0.0
H1940 H 0.7394 0.03713 0.75231 0.0
H1941 H 0.76636 0.05599 0.7259 0.0
H1942 H 0.7917 0.06829 0.74032 0.0
H1943 H 0.80937 0.08029 0.76751 0.0
C1944 C 0.06169 0.32807 0.01693 0.0
C1945 C 0.0466 0.32533 0.01924 0.0
C1946 C 0.06895 0.32408 0.03105 0.0
C1947 C 0.06134 0.31732 0.04794 0.0
C1948 C 0.04613 0.31424 0.05011 0.0
C1949 C 0.03885 0.3183 0.03596 0.0
C1950 C 0.0689 0.31301 0.0632 0.0
C1951 C 0.08434 0.32092 0.06638 0.0
C1952 C 0.0925 0.31684 0.08104 0.0
C1953 C 0.10742 0.32846 0.0872 0.0
C1954 C 0.11594 0.32502 0.10015 0.0
C1955 C 0.10981 0.30978 0.10714 0.0
H1956 H 0.07499 0.29217 0.08336 0.0
C1957 C 0.09487 0.29809 0.10101 0.0
C1958 C 0.08628 0.30157 0.08811 0.0
H1959 H 0.08983 0.28625 0.10618 0.0
H1960 H 0.06795 0.33331 0.00416 0.0
H1961 H 0.08045 0.32611 0.02851 0.0
H1962 H 0.03994 0.30886 0.06288 0.0
H1963 H 0.02718 0.31594 0.03812 0.0
H1964 H 0.06149 0.30357 0.07244 0.0
H1965 H 0.09145 0.33131 0.05823 0.0
H1966 H 0.11257 0.34027 0.08185 0.0
H1967 H 0.12751 0.33423 0.10432 0.0
C1968 C 0.65842 0.71463 0.05958 0.0
C1969 C 0.66612 0.70678 0.05328 0.0
C1970 C 0.66681 0.7303 0.06613 0.0
C1971 C 0.68308 0.73838 0.06667 0.0
C1972 C 0.69075 0.73076 0.05962 0.0
C1973 C 0.68236 0.71517 0.05276 0.0
C1974 C 0.69219 0.75388 0.07673 0.0
C1975 C 0.6875 0.76452 0.0778 0.0
C1976 C 0.69509 0.77856 0.09079 0.0
C1977 C 0.69528 0.7924 0.08573 0.0
C1978 C 0.70093 0.80522 0.09861 0.0
C1979 C 0.70607 0.80423 0.11695 0.0
H1980 H 0.70039 0.76714 0.11347 0.0
C1981 C 0.70608 0.79048 0.12196 0.0
C1982 C 0.70075 0.77779 0.10895 0.0
H1983 H 0.70991 0.78945 0.13607 0.0
H1984 H 0.64592 0.70848 0.06016 0.0
H1985 H 0.66051 0.7357 0.07183 0.0
H1986 H 0.70327 0.73671 0.06001 0.0
H1987 H 0.68865 0.70945 0.04809 0.0
H1988 H 0.70292 0.75641 0.08393 0.0
H1989 H 0.67763 0.76279 0.06918 0.0
H1990 H 0.69082 0.79318 0.07191 0.0
H1991 H 0.70064 0.81566 0.09455 0.0
C1992 C 0.27834 0.95865 0.02252 0.0
C1993 C 0.2933 0.96101 0.02537 0.0
C1994 C 0.26776 0.9532 0.03719 0.0
C1995 C 0.27198 0.95008 0.05507 0.0
C1996 C 0.28691 0.95237 0.05784 0.0
C1997 C 0.29749 0.95784 0.0432 0.0
C1998 C 0.26092 0.94358 0.07078 0.0
C1999 C 0.24827 0.94503 0.07223 0.0
C2000 C 0.23681 0.93751 0.08736 0.0
C2001 C 0.22733 0.94371 0.0924 0.0
C2002 C 0.21604 0.9365 0.1061 0.0
C2003 C 0.21397 0.92289 0.11494 0.0
H2004 H 0.24118 0.91825 0.09211 0.0
C2005 C 0.22338 0.91664 0.10978 0.0
C2006 C 0.23461 0.92381 0.09612 0.0
H2007 H 0.22177 0.9059 0.1159 0.0
H2008 H 0.27472 0.9609 0.00891 0.0
H2009 H 0.25622 0.95111 0.03424 0.0
H2010 H 0.29042 0.94991 0.0714 0.0
H2011 H 0.30892 0.95951 0.04585 0.0
H2012 H 0.2636 0.93767 0.08182 0.0
H2013 H 0.24633 0.95225 0.06232 0.0
H2014 H 0.22866 0.95415 0.08572 0.0
H2015 H 0.20895 0.94158 0.10978 0.0
C2016 C 0.33668 0.03658 0.96785 0.0
C2017 C 0.3283 0.02078 0.97307 0.0
C2018 C 0.32899 0.04424 0.96138 0.0
C2019 C 0.31274 0.03619 0.95985 0.0
C2020 C 0.30435 0.02063 0.96586 0.0
C2021 C 0.31205 0.01304 0.97265 0.0
C2022 C 0.30451 0.04311 0.94987 0.0
C2023 C 0.30992 0.05869 0.94986 0.0
C2024 C 0.30371 0.06603 0.9369 0.0
C2025 C 0.30509 0.08048 0.94237 0.0
C2026 C 0.30128 0.08874 0.92954 0.0
C2027 C 0.29636 0.08292 0.91075 0.0
H2028 H 0.29727 0.04886 0.91359 0.0
C2029 C 0.29448 0.06818 0.90548 0.0
C2030 C 0.29809 0.05979 0.91843 0.0
H2031 H 0.29093 0.06343 0.89109 0.0
H2032 H 0.34921 0.04285 0.96802 0.0
H2033 H 0.33586 0.05613 0.95648 0.0
H2034 H 0.29184 0.01416 0.9647 0.0
H2035 H 0.30527 0.00082 0.97646 0.0
H2036 H 0.29397 0.03516 0.94181 0.0
H2037 H 0.31955 0.06649 0.95935 0.0
H2038 H 0.30942 0.08553 0.9565 0.0
H2039 H 0.30251 0.09988 0.93426 0.0
C2040 C 0.97638 0.27905 0.96413 0.0
C2041 C 0.97257 0.29095 0.96235 0.0
C2042 C 0.96529 0.2633 0.95985 0.0
C2043 C 0.95017 0.25922 0.95398 0.0
C2044 C 0.94623 0.27103 0.95328 0.0
C2045 C 0.95732 0.28672 0.95721 0.0
C2046 C 0.93824 0.24298 0.94786 0.0
C2047 C 0.9415 0.23262 0.93936 0.0
C2048 C 0.92938 0.21762 0.93006 0.0
C2049 C 0.93216 0.20504 0.92758 0.0
C2050 C 0.92124 0.19108 0.91807 0.0
C2051 C 0.90735 0.18948 0.9107 0.0
H2052 H 0.91323 0.22567 0.92323 0.0
C2053 C 0.90469 0.20216 0.91298 0.0
C2054 C 0.91556 0.21605 0.92246 0.0
H2055 H 0.89434 0.20151 0.907 0.0
H2056 H 0.98804 0.28197 0.96815 0.0
H2057 H 0.96861 0.25442 0.96105 0.0
H2058 H 0.93464 0.2682 0.94898 0.0
H2059 H 0.95398 0.2956 0.95593 0.0
H2060 H 0.92627 0.24004 0.94896 0.0
H2061 H 0.95343 0.23538 0.93842 0.0
H2062 H 0.9428 0.206 0.93304 0.0
H2063 H 0.92363 0.18151 0.91659 0.0
C2064 C 0.69893 0.67267 0.98628 0.0
C2065 C 0.69768 0.66407 0.00256 0.0
C2066 C 0.71126 0.67707 0.97404 0.0
C2067 C 0.72264 0.67297 0.9779 0.0
C2068 C 0.72115 0.66409 0.99397 0.0
C2069 C 0.70886 0.65972 0.00618 0.0
C2070 C 0.73625 0.67757 0.96578 0.0
C2071 C 0.74105 0.68858 0.95239 0.0
C2072 C 0.75518 0.69314 0.94138 0.0
C2073 C 0.75599 0.69831 0.92273 0.0
C2074 C 0.76903 0.70229 0.91191 0.0
C2075 C 0.78156 0.70133 0.91965 0.0
H2076 H 0.76804 0.68946 0.96392 0.0
C2077 C 0.78095 0.69671 0.93855 0.0
C2078 C 0.76794 0.6927 0.94932 0.0
H2079 H 0.7906 0.69628 0.94511 0.0
H2080 H 0.69043 0.6761 0.98302 0.0
H2081 H 0.71167 0.68355 0.96161 0.0
H2082 H 0.72965 0.66066 0.99728 0.0
H2083 H 0.70822 0.65303 0.01855 0.0
H2084 H 0.74282 0.67168 0.96835 0.0
H2085 H 0.73451 0.69433 0.94903 0.0
H2086 H 0.74639 0.69894 0.91637 0.0
H2087 H 0.76913 0.70578 0.89736 0.0
C2088 C 0.96326 0.68189 0.98293 0.0
C2089 C 0.96733 0.68711 0.00202 0.0
C2090 C 0.95428 0.68635 0.97212 0.0
C2091 C 0.94924 0.69619 0.98019 0.0
C2092 C 0.95346 0.70148 0.99919 0.0
C2093 C 0.96245 0.69708 0.00995 0.0
C2094 C 0.93879 0.70038 0.96979 0.0
C2095 C 0.93735 0.70011 0.95067 0.0
C2096 C 0.9263 0.7037 0.94066 0.0
C2097 C 0.92928 0.7091 0.92198 0.0
C2098 C 0.91886 0.71205 0.91193 0.0
C2099 C 0.90511 0.70946 0.92027 0.0
H2100 H 0.90956 0.69657 0.96315 0.0
C2101 C 0.90212 0.70405 0.93895 0.0
C2102 C 0.91255 0.70116 0.94902 0.0
H2103 H 0.89166 0.70199 0.94581 0.0
H2104 H 0.96676 0.67413 0.97642 0.0
H2105 H 0.95097 0.68166 0.9577 0.0
H2106 H 0.94967 0.70898 0.00583 0.0
H2107 H 0.96535 0.70131 0.02461 0.0
H2108 H 0.93234 0.70429 0.9784 0.0
H2109 H 0.94482 0.69768 0.94193 0.0
H2110 H 0.93969 0.71099 0.91511 0.0
H2111 H 0.9214 0.716 0.89746 0.0
C2112 C 0.3386 0.29408 0.94335 0.0
C2113 C 0.33209 0.29927 0.95729 0.0
C2114 C 0.33123 0.27829 0.93744 0.0
C2115 C 0.31717 0.26728 0.94536 0.0
C2116 C 0.31105 0.27224 0.96 0.0
C2117 C 0.31836 0.28813 0.96582 0.0
C2118 C 0.30888 0.25062 0.9385 0.0
C2119 C 0.3087 0.24671 0.91999 0.0
C2120 C 0.3018 0.23032 0.91231 0.0
C2121 C 0.29851 0.22752 0.89267 0.0
C2122 C 0.29385 0.21272 0.88439 0.0
C2123 C 0.29251 0.20044 0.89559 0.0
H2124 H 0.30253 0.21957 0.93878 0.0
C2125 C 0.29524 0.20305 0.91536 0.0
C2126 C 0.29984 0.21784 0.92366 0.0
H2127 H 0.29422 0.19375 0.92434 0.0
H2128 H 0.34922 0.30226 0.93659 0.0
H2129 H 0.33654 0.27473 0.9266 0.0
H2130 H 0.30036 0.2639 0.96652 0.0
H2131 H 0.3131 0.29171 0.9767 0.0
H2132 H 0.30245 0.24161 0.94871 0.0
H2133 H 0.31392 0.25604 0.90979 0.0
H2134 H 0.30002 0.23694 0.88358 0.0
H2135 H 0.29202 0.21113 0.86909 0.0
C2136 C 0.71701 0.02291 0.99873 0.0
C2137 C 0.70315 0.02312 0.9962 0.0
C2138 C 0.72806 0.02835 0.9846 0.0
C2139 C 0.72554 0.03425 0.96766 0.0
C2140 C 0.71154 0.03411 0.96496 0.0
C2141 C 0.70048 0.02867 0.9791 0.0
C2142 C 0.73723 0.04067 0.95258 0.0
C2143 C 0.75252 0.0472 0.95628 0.0
C2144 C 0.7644 0.0553 0.94178 0.0
C2145 C 0.77897 0.06765 0.94784 0.0
C2146 C 0.79026 0.07618 0.93467 0.0
C2147 C 0.7873 0.07237 0.91512 0.0
H2148 H 0.75062 0.04135 0.91712 0.0
C2149 C 0.77297 0.05957 0.90903 0.0
C2150 C 0.76157 0.05111 0.92224 0.0
H2151 H 0.77045 0.05636 0.89404 0.0
H2152 H 0.71933 0.0185 0.01162 0.0
H2153 H 0.73847 0.02775 0.98698 0.0
H2154 H 0.70923 0.03846 0.95199 0.0
H2155 H 0.68986 0.02887 0.97662 0.0
H2156 H 0.7332 0.04125 0.93835 0.0
H2157 H 0.75666 0.04801 0.97086 0.0
H2158 H 0.78152 0.07099 0.96281 0.0
H2159 H 0.80131 0.08584 0.93976 0.0
C2160 C 0.67683 0.96664 0.04184 0.0
C2161 C 0.66079 0.9608 0.04176 0.0
C2162 C 0.68286 0.95726 0.04782 0.0
C2163 C 0.67292 0.94184 0.05368 0.0
C2164 C 0.65688 0.93556 0.05189 0.0
C2165 C 0.65086 0.94498 0.04615 0.0
C2166 C 0.67872 0.9324 0.0632 0.0
C2167 C 0.69131 0.939 0.07494 0.0
C2168 C 0.69527 0.92989 0.08822 0.0
C2169 C 0.71042 0.93678 0.09582 0.0
C2170 C 0.71425 0.92914 0.1096 0.0
C2171 C 0.70293 0.91452 0.11626 0.0
H2172 H 0.67205 0.90961 0.08985 0.0
C2173 C 0.6878 0.90756 0.10858 0.0
C2174 C 0.68398 0.91516 0.09479 0.0
H2175 H 0.67885 0.89622 0.11327 0.0
H2176 H 0.68479 0.97874 0.03834 0.0
H2177 H 0.69528 0.96227 0.04841 0.0
H2178 H 0.64898 0.92363 0.05607 0.0
H2179 H 0.63844 0.94006 0.04597 0.0
H2180 H 0.67141 0.9197 0.06221 0.0
H2181 H 0.69857 0.95173 0.07586 0.0
H2182 H 0.71929 0.94822 0.09123 0.0
H2183 H 0.72599 0.93485 0.11537 0.0
C2184 C 0.05111 0.71634 0.05072 0.0
C2185 C 0.03588 0.71057 0.04388 0.0
C2186 C 0.06025 0.73203 0.05688 0.0
C2187 C 0.05442 0.74242 0.05627 0.0
C2188 C 0.03939 0.73681 0.04879 0.0
C2189 C 0.03024 0.72109 0.04251 0.0
C2190 C 0.06305 0.75852 0.06521 0.0
C2191 C 0.07857 0.76658 0.06763 0.0
C2192 C 0.08737 0.78114 0.0798 0.0
C2193 C 0.10251 0.78549 0.08567 0.0
C2194 C 0.11091 0.7982 0.09837 0.0
C2195 C 0.10444 0.80701 0.10547 0.0
H2196 H 0.06962 0.78775 0.08184 0.0
C2197 C 0.08955 0.80316 0.09901 0.0
C2198 C 0.08107 0.79036 0.08631 0.0
H2199 H 0.08427 0.80978 0.10418 0.0
H2200 H 0.05583 0.70859 0.05201 0.0
H2201 H 0.07157 0.73565 0.06304 0.0
H2202 H 0.03455 0.7445 0.04828 0.0
H2203 H 0.01853 0.71702 0.0374 0.0
H2204 H 0.05617 0.76334 0.07075 0.0
H2205 H 0.08523 0.76172 0.06144 0.0
H2206 H 0.10776 0.77876 0.0808 0.0
H2207 H 0.12249 0.80107 0.10274 0.0
C2208 C 0.28145 0.30526 0.01595 0.0
C2209 C 0.29573 0.31934 0.0177 0.0
C2210 C 0.27092 0.30058 0.03067 0.0
C2211 C 0.2744 0.31 0.0474 0.0
C2212 C 0.28889 0.32379 0.04935 0.0
C2213 C 0.29943 0.32844 0.03467 0.0
C2214 C 0.26328 0.30603 0.06302 0.0
C2215 C 0.24784 0.29682 0.06046 0.0
C2216 C 0.23664 0.29447 0.0755 0.0
C2217 C 0.22155 0.29053 0.06995 0.0
C2218 C 0.21093 0.28925 0.0835 0.0
C2219 C 0.21514 0.29178 0.10295 0.0
H2220 H 0.25197 0.29877 0.09998 0.0
C2221 C 0.23004 0.29508 0.1086 0.0
C2222 C 0.24066 0.29634 0.09504 0.0
H2223 H 0.2335 0.29675 0.12352 0.0
H2224 H 0.27834 0.29785 0.00317 0.0
H2225 H 0.26014 0.28957 0.02883 0.0
H2226 H 0.29196 0.33119 0.06214 0.0
H2227 H 0.31038 0.3393 0.03654 0.0
H2228 H 0.26796 0.31205 0.07667 0.0
H2229 H 0.24304 0.29192 0.04639 0.0
H2230 H 0.21808 0.28889 0.05502 0.0
H2231 H 0.19958 0.28681 0.07866 0.0
C2232 C 0.72306 0.66627 0.36047 0.0
C2233 C 0.70693 0.65981 0.35992 0.0
C2234 C 0.73009 0.66109 0.37345 0.0
C2235 C 0.72118 0.64934 0.38634 0.0
C2236 C 0.70504 0.64276 0.38572 0.0
C2237 C 0.69797 0.64803 0.37274 0.0
C2238 C 0.72848 0.64332 0.39982 0.0
C2239 C 0.74302 0.65246 0.40686 0.0
C2240 C 0.75151 0.64681 0.41888 0.0
C2241 C 0.7647 0.65802 0.42925 0.0
C2242 C 0.77401 0.6536 0.43924 0.0
C2243 C 0.77045 0.63782 0.43899 0.0
H2244 H 0.73779 0.62194 0.41087 0.0
C2245 C 0.757 0.62647 0.42904 0.0
C2246 C 0.74764 0.63091 0.41903 0.0
H2247 H 0.75403 0.61424 0.4284 0.0
H2248 H 0.73032 0.67528 0.35071 0.0
H2249 H 0.74249 0.66608 0.37299 0.0
H2250 H 0.69789 0.63355 0.39534 0.0
H2251 H 0.68551 0.64274 0.37258 0.0
H2252 H 0.72161 0.63123 0.40419 0.0
H2253 H 0.74914 0.66491 0.40377 0.0
H2254 H 0.76799 0.67035 0.42939 0.0
H2255 H 0.78412 0.66261 0.44704 0.0
C2256 C 0.34694 0.05774 0.38366 0.0
C2257 C 0.33084 0.04764 0.38407 0.0
C2258 C 0.35353 0.07364 0.38911 0.0
C2259 C 0.34409 0.07972 0.39492 0.0
C2260 C 0.32797 0.06993 0.39367 0.0
C2261 C 0.3214 0.05403 0.38847 0.0
C2262 C 0.35045 0.09572 0.4037 0.0
C2263 C 0.36376 0.10296 0.41412 0.0
C2264 C 0.36825 0.11701 0.42672 0.0
C2265 C 0.38389 0.12695 0.43195 0.0
C2266 C 0.38831 0.13951 0.44503 0.0
C2267 C 0.37711 0.14218 0.45338 0.0
H2268 H 0.34486 0.11217 0.43186 0.0
C2269 C 0.36148 0.13228 0.44807 0.0
C2270 C 0.35708 0.11983 0.43495 0.0
H2271 H 0.35259 0.13413 0.45412 0.0
H2272 H 0.35452 0.0532 0.38019 0.0
H2273 H 0.36599 0.08099 0.38924 0.0
H2274 H 0.32042 0.07436 0.39781 0.0
H2275 H 0.30894 0.0466 0.38869 0.0
H2276 H 0.34304 0.10085 0.40328 0.0
H2277 H 0.3713 0.09797 0.41448 0.0
H2278 H 0.39271 0.12491 0.42605 0.0
H2279 H 0.40044 0.14689 0.44895 0.0
C2280 C 0.96222 0.30087 0.37082 0.0
C2281 C 0.97381 0.29677 0.37085 0.0
C2282 C 0.94939 0.2931 0.38232 0.0
C2283 C 0.94781 0.28093 0.39404 0.0
C2284 C 0.95959 0.27709 0.39431 0.0
C2285 C 0.97244 0.28489 0.38285 0.0
C2286 C 0.93425 0.27195 0.40626 0.0
C2287 C 0.92085 0.27208 0.40469 0.0
C2288 C 0.90745 0.26255 0.41683 0.0
C2289 C 0.89714 0.26791 0.42091 0.0
C2290 C 0.88451 0.25928 0.43248 0.0
C2291 C 0.88186 0.24502 0.44003 0.0
H2292 H 0.91185 0.2432 0.42046 0.0
C2293 C 0.89193 0.23943 0.43544 0.0
C2294 C 0.90456 0.24806 0.42395 0.0
H2295 H 0.88996 0.22826 0.44057 0.0
H2296 H 0.96301 0.31008 0.36187 0.0
H2297 H 0.94092 0.29684 0.38196 0.0
H2298 H 0.95879 0.26787 0.40328 0.0
H2299 H 0.98119 0.28148 0.38327 0.0
H2300 H 0.93538 0.26472 0.41693 0.0
H2301 H 0.91952 0.27948 0.39451 0.0
H2302 H 0.89901 0.27895 0.41542 0.0
H2303 H 0.877 0.26394 0.4358 0.0
C2304 C 0.01542 0.38656 0.30881 0.0
C2305 C 0.00569 0.37046 0.31207 0.0
C2306 C 0.00936 0.39546 0.30129 0.0
C2307 C 0.99356 0.38832 0.29647 0.0
C2308 C 0.98365 0.37255 0.30105 0.0
C2309 C 0.98965 0.36372 0.30893 0.0
C2310 C 0.98799 0.39711 0.28512 0.0
C2311 C 0.97844 0.3903 0.26986 0.0
C2312 C 0.97519 0.3994 0.25584 0.0
C2313 C 0.97341 0.39479 0.23652 0.0
C2314 C 0.9712 0.40359 0.22276 0.0
C2315 C 0.97035 0.41695 0.22815 0.0
H2316 H 0.9751 0.4163 0.27611 0.0
C2317 C 0.97161 0.42129 0.24754 0.0
C2318 C 0.97409 0.41264 0.26128 0.0
H2319 H 0.97101 0.43158 0.25203 0.0
H2320 H 0.0278 0.3921 0.31126 0.0
H2321 H 0.01718 0.40766 0.29805 0.0
H2322 H 0.97135 0.36689 0.29786 0.0
H2323 H 0.98185 0.35136 0.31135 0.0
H2324 H 0.99355 0.40977 0.2876 0.0
H2325 H 0.97434 0.37799 0.26627 0.0
H2326 H 0.97413 0.38457 0.23201 0.0
H2327 H 0.97012 0.39994 0.2079 0.0
C2328 C 0.62035 0.62282 0.28653 0.0
C2329 C 0.63358 0.62648 0.2977 0.0
C2330 C 0.61012 0.60738 0.28036 0.0
C2331 C 0.6129 0.59515 0.28507 0.0
C2332 C 0.62557 0.59858 0.29716 0.0
C2333 C 0.63589 0.61413 0.30336 0.0
C2334 C 0.60281 0.57889 0.27717 0.0
C2335 C 0.59656 0.57629 0.25941 0.0
C2336 C 0.58613 0.56054 0.25038 0.0
C2337 C 0.58397 0.55956 0.23053 0.0
C2338 C 0.5733 0.54542 0.22134 0.0
C2339 C 0.56438 0.53187 0.2318 0.0
H2340 H 0.57867 0.5472 0.27625 0.0
C2341 C 0.56682 0.53266 0.25165 0.0
C2342 C 0.57756 0.54688 0.26089 0.0
H2343 H 0.56002 0.52245 0.26012 0.0
H2344 H 0.618 0.63195 0.28218 0.0
H2345 H 0.60011 0.60507 0.27172 0.0
H2346 H 0.62782 0.58932 0.30124 0.0
H2347 H 0.6459 0.61651 0.31206 0.0
H2348 H 0.60128 0.56911 0.28563 0.0
H2349 H 0.59956 0.58637 0.25063 0.0
H2350 H 0.59041 0.56987 0.22205 0.0
H2351 H 0.57192 0.54516 0.206 0.0
C2352 C 0.37876 0.00089 0.34165 0.0
C2353 C 0.36712 0.00474 0.33885 0.0
C2354 C 0.38931 0.00341 0.32743 0.0
C2355 C 0.38837 0.00971 0.30996 0.0
C2356 C 0.37692 0.01384 0.30733 0.0
C2357 C 0.36636 0.01132 0.32157 0.0
C2358 C 0.39938 0.01258 0.29446 0.0
C2359 C 0.40694 0.00452 0.29242 0.0
C2360 C 0.41839 0.00753 0.27747 0.0
C2361 C 0.42928 0.00273 0.2806 0.0
C2362 C 0.44031 0.00527 0.26708 0.0
C2363 C 0.44064 0.01254 0.24992 0.0
H2364 H 0.41012 0.01813 0.25695 0.0
C2365 C 0.42963 0.0172 0.24663 0.0
C2366 C 0.41859 0.0147 0.26022 0.0
H2367 H 0.4294 0.02258 0.23341 0.0
H2368 H 0.37979 0.99597 0.35488 0.0
H2369 H 0.39831 0.00064 0.33039 0.0
H2370 H 0.37604 0.01888 0.29412 0.0
H2371 H 0.35758 0.01449 0.31899 0.0
H2372 H 0.40114 0.02156 0.28443 0.0
H2373 H 0.40499 0.99544 0.30239 0.0
H2374 H 0.42938 0.99715 0.29371 0.0
H2375 H 0.44876 0.00174 0.27024 0.0
C2376 C 0.60302 0.98368 0.31955 0.0
C2377 C 0.61917 0.99217 0.32234 0.0
C2378 C 0.59582 0.98807 0.30579 0.0
C2379 C 0.60461 0.00106 0.29437 0.0
C2380 C 0.62076 0.00959 0.29717 0.0
C2381 C 0.62799 0.00513 0.31092 0.0
C2382 C 0.59714 0.00648 0.28029 0.0
C2383 C 0.58331 0.99667 0.27175 0.0
C2384 C 0.57479 0.00183 0.25899 0.0
C2385 C 0.56281 0.99048 0.24711 0.0
C2386 C 0.55354 0.99441 0.23613 0.0
C2387 C 0.55595 0.00979 0.23688 0.0
H2388 H 0.58626 0.02636 0.26876 0.0
C2389 C 0.56815 0.02126 0.24845 0.0
C2390 C 0.57745 0.01734 0.25944 0.0
H2391 H 0.57016 0.03316 0.24958 0.0
H2392 H 0.59585 0.97369 0.32818 0.0
H2393 H 0.58333 0.9815 0.30459 0.0
H2394 H 0.62779 0.01975 0.28872 0.0
H2395 H 0.64045 0.01198 0.31278 0.0
H2396 H 0.6034 0.01881 0.27672 0.0
H2397 H 0.57789 0.98412 0.27405 0.0
H2398 H 0.56045 0.97845 0.2465 0.0
H2399 H 0.54439 0.98533 0.22717 0.0
C2400 C 0.02232 0.62341 0.28606 0.0
C2401 C 0.01318 0.62732 0.29739 0.0
C2402 C 0.01647 0.60807 0.27891 0.0
C2403 C 0.00135 0.5963 0.28292 0.0
C2404 C 0.99271 0.59981 0.29558 0.0
C2405 C -0.00147 0.61523 0.30269 0.0
C2406 C 0.99415 0.58066 0.27304 0.0
C2407 C 0.99652 0.57939 0.25443 0.0
C2408 C 0.98936 0.56439 0.24311 0.0
C2409 C 0.98842 0.56507 0.22325 0.0
C2410 C 0.98299 0.55151 0.21177 0.0
C2411 C 0.97856 0.53693 0.21988 0.0
H2412 H 0.9853 0.54881 0.26658 0.0
C2413 C 0.97907 0.53613 0.23982 0.0
C2414 C 0.98444 0.54974 0.25136 0.0
H2415 H 0.97594 0.52511 0.24648 0.0
H2416 H 0.03377 0.63232 0.28196 0.0
H2417 H 0.02362 0.60556 0.26972 0.0
H2418 H 0.98111 0.59084 0.29911 0.0
H2419 H 0.99124 0.61779 0.31155 0.0
H2420 H 0.98587 0.57043 0.28063 0.0
H2421 H 0.00364 0.59008 0.24675 0.0
H2422 H 0.99209 0.5762 0.21654 0.0
H2423 H 0.98251 0.55249 0.19649 0.0
C2424 C 0.37221 0.37028 0.32541 0.0
C2425 C 0.35823 0.37021 0.32273 0.0
C2426 C 0.38391 0.37717 0.31218 0.0
C2427 C 0.38179 0.384 0.29583 0.0
C2428 C 0.36779 0.38389 0.29317 0.0
C2429 C 0.35611 0.37705 0.30644 0.0
C2430 C 0.39412 0.39208 0.28177 0.0
C2431 C 0.4063 0.38986 0.27997 0.0
C2432 C 0.41887 0.39859 0.2664 0.0
C2433 C 0.42797 0.39216 0.26053 0.0
C2434 C 0.44004 0.40018 0.248 0.0
C2435 C 0.44326 0.41483 0.24114 0.0
H2436 H 0.41609 0.41914 0.26458 0.0
C2437 C 0.43434 0.42139 0.24726 0.0
C2438 C 0.42234 0.41342 0.25981 0.0
H2439 H 0.43682 0.43285 0.2426 0.0
H2440 H 0.37425 0.36521 0.3379 0.0
H2441 H 0.39466 0.3774 0.31517 0.0
H2442 H 0.36587 0.38918 0.28081 0.0
H2443 H 0.34547 0.3772 0.30395 0.0
H2444 H 0.39279 0.39989 0.2722 0.0
H2445 H 0.40697 0.38098 0.28822 0.0
H2446 H 0.42567 0.38085 0.26555 0.0
H2447 H 0.44671 0.39483 0.2435 0.0
C2448 C 0.3451 0.30499 0.38178 0.0
C2449 C 0.32923 0.29965 0.38342 0.0
C2450 C 0.35106 0.29531 0.38667 0.0
C2451 C 0.34122 0.28009 0.3932 0.0
C2452 C 0.32523 0.2743 0.39322 0.0
C2453 C 0.31929 0.28402 0.38854 0.0
C2454 C 0.34722 0.27041 0.40157 0.0
C2455 C 0.36056 0.27684 0.41193 0.0
C2456 C 0.36506 0.26768 0.42438 0.0
C2457 C 0.38056 0.27447 0.43068 0.0
C2458 C 0.38497 0.26692 0.44391 0.0
C2459 C 0.37392 0.25248 0.45129 0.0
H2460 H 0.34192 0.2476 0.42764 0.0
C2461 C 0.35847 0.24557 0.4448 0.0
C2462 C 0.35406 0.25308 0.43157 0.0
H2463 H 0.34972 0.23436 0.45006 0.0
H2464 H 0.35305 0.31692 0.37766 0.0
H2465 H 0.36339 0.29994 0.38585 0.0
H2466 H 0.3174 0.26254 0.39796 0.0
H2467 H 0.30698 0.27946 0.38968 0.0
H2468 H 0.33957 0.25775 0.40101 0.0
H2469 H 0.36812 0.28954 0.41241 0.0
H2470 H 0.38923 0.28579 0.42558 0.0
H2471 H 0.39696 0.27258 0.44876 0.0
C2472 C 0.70611 0.03818 0.39756 0.0
C2473 C 0.69267 0.03327 0.38621 0.0
C2474 C 0.71536 0.0539 0.40333 0.0
C2475 C 0.71144 0.06518 0.39798 0.0
C2476 C 0.6986 0.06057 0.38566 0.0
C2477 C 0.68921 0.04471 0.37991 0.0
C2478 C 0.72053 0.08166 0.40556 0.0
C2479 C 0.726 0.08474 0.4237 0.0
C2480 C 0.73598 0.10069 0.43245 0.0
C2481 C 0.73735 0.10211 0.45238 0.0
C2482 C 0.74797 0.11632 0.46144 0.0
C2483 C 0.75763 0.12949 0.45078 0.0
H2484 H 0.74462 0.11336 0.40631 0.0
C2485 C 0.75585 0.12834 0.43082 0.0
C2486 C 0.74514 0.11404 0.42171 0.0
H2487 H 0.76322 0.13826 0.42222 0.0
H2488 H 0.70934 0.0298 0.40243 0.0
H2489 H 0.72553 0.05718 0.41223 0.0
H2490 H 0.69548 0.06911 0.38111 0.0
H2491 H 0.67902 0.04136 0.37104 0.0
H2492 H 0.72209 0.09113 0.39646 0.0
H2493 H 0.7229 0.07488 0.43293 0.0
H2494 H 0.73042 0.09204 0.46103 0.0
H2495 H 0.74885 0.11691 0.47685 0.0
C2496 C 0.98026 0.67298 0.38149 0.0
C2497 C 0.98069 0.66308 0.36711 0.0
C2498 C 0.96777 0.6674 0.39366 0.0
C2499 C 0.95542 0.6518 0.39164 0.0
C2500 C 0.95624 0.64172 0.3779 0.0
C2501 C 0.9687 0.64731 0.36568 0.0
C2502 C 0.9414 0.64572 0.4033 0.0
C2503 C 0.93611 0.65501 0.41009 0.0
C2504 C 0.92142 0.6492 0.42039 0.0
C2505 C 0.91913 0.66019 0.43073 0.0
C2506 C 0.90524 0.65556 0.43982 0.0
C2507 C 0.89323 0.63979 0.4387 0.0
H2508 H 0.91045 0.62454 0.41113 0.0
C2509 C 0.89552 0.62872 0.42851 0.0
C2510 C 0.90943 0.63336 0.41937 0.0
H2511 H 0.88639 0.61652 0.42716 0.0
H2512 H 0.98942 0.68513 0.38315 0.0
H2513 H 0.96786 0.67536 0.40458 0.0
H2514 H 0.94699 0.6296 0.3762 0.0
H2515 H 0.96875 0.63932 0.35488 0.0
H2516 H 0.93492 0.63313 0.40534 0.0
H2517 H 0.94265 0.66757 0.4077 0.0
H2518 H 0.92811 0.67247 0.43173 0.0
H2519 H 0.90391 0.66434 0.44779 0.0
C2520 C 0.36754 0.97383 0.69419 0.0
C2521 C 0.36612 0.98731 0.69613 0.0
C2522 C 0.37621 0.97087 0.70751 0.0
C2523 C 0.38382 0.98143 0.723 0.0
C2524 C 0.38174 0.99447 0.72544 0.0
C2525 C 0.37302 0.99741 0.71213 0.0
C2526 C 0.39414 0.97939 0.7367 0.0
C2527 C 0.40158 0.97155 0.73213 0.0
C2528 C 0.41294 0.97036 0.74494 0.0
C2529 C 0.42299 0.9659 0.73686 0.0
C2530 C 0.43399 0.96477 0.74813 0.0
C2531 C 0.43519 0.96802 0.76783 0.0
H2532 H 0.40616 0.97636 0.77171 0.0
C2533 C 0.42501 0.97228 0.77601 0.0
C2534 C 0.41395 0.97337 0.76474 0.0
H2535 H 0.42545 0.97458 0.79121 0.0
H2536 H 0.36217 0.96566 0.68218 0.0
H2537 H 0.37695 0.96032 0.70551 0.0
H2538 H 0.38726 0.00269 0.73737 0.0
H2539 H 0.37207 0.00786 0.71413 0.0
H2540 H 0.39653 0.9856 0.75036 0.0
H2541 H 0.40009 0.96652 0.71784 0.0
H2542 H 0.42247 0.96344 0.72169 0.0
H2543 H 0.44175 0.96161 0.74134 0.0
C2544 C 0.00138 0.37303 0.72192 0.0
C2545 C 0.98578 0.36115 0.72283 0.0
C2546 C 0.00601 0.38853 0.72762 0.0
C2547 C 0.9951 0.39243 0.73422 0.0
C2548 C 0.97941 0.38079 0.73383 0.0
C2549 C 0.9748 0.36529 0.72835 0.0
C2550 C -0.00041 0.40821 0.74249 0.0
C2551 C 0.01311 0.41734 0.75203 0.0
C2552 C 0.01657 0.43176 0.7633 0.0
C2553 C 0.03206 0.44302 0.76773 0.0
C2554 C 0.03572 0.45624 0.77932 0.0
C2555 C 0.02394 0.45834 0.78693 0.0
H2556 H 0.9927 0.42532 0.76841 0.0
C2557 C 0.00845 0.44709 0.78248 0.0
C2558 C 0.00479 0.43393 0.77088 0.0
H2559 H -0.00089 0.44844 0.78799 0.0
H2560 H 0.01011 0.37026 0.71757 0.0
H2561 H 0.01815 0.39733 0.7271 0.0
H2562 H 0.97075 0.38353 0.73861 0.0
H2563 H 0.96266 0.35647 0.72898 0.0
H2564 H 0.99086 0.41169 0.74207 0.0
H2565 H 0.02184 0.41386 0.75237 0.0
H2566 H 0.04136 0.44155 0.76231 0.0
H2567 H 0.04776 0.46463 0.78265 0.0
C2568 C 0.63541 0.63033 0.71074 0.0
C2569 C 0.64575 0.62458 0.71072 0.0
C2570 C 0.62381 0.6253 0.72411 0.0
C2571 C 0.62214 0.61421 0.73764 0.0
C2572 C 0.63286 0.60893 0.73804 0.0
C2573 C 0.64454 0.61404 0.72472 0.0
C2574 C 0.6093 0.60759 0.75127 0.0
C2575 C 0.59594 0.60765 0.74856 0.0
C2576 C 0.58245 0.59946 0.76102 0.0
C2577 C 0.57142 0.60432 0.76132 0.0
C2578 C 0.55797 0.59616 0.77172 0.0
C2579 C 0.5552 0.58283 0.78181 0.0
H2580 H 0.58771 0.58181 0.77112 0.0
C2581 C 0.56632 0.57808 0.78171 0.0
C2582 C 0.57977 0.58626 0.7714 0.0
H2583 H 0.56453 0.5679 0.78947 0.0
H2584 H 0.63622 0.63869 0.70034 0.0
H2585 H 0.61626 0.63021 0.72369 0.0
H2586 H 0.63197 0.60052 0.74842 0.0
H2587 H 0.6524 0.60948 0.72517 0.0
H2588 H 0.61069 0.6018 0.76351 0.0
H2589 H 0.59446 0.61352 0.7365 0.0
H2590 H 0.57312 0.61435 0.75329 0.0
H2591 H 0.54953 0.59999 0.77138 0.0
C2592 C 0.68075 0.70005 0.62497 0.0
C2593 C 0.67337 0.68827 0.63838 0.0
C2594 C 0.67387 0.70845 0.61843 0.0
C2595 C 0.65949 0.70533 0.6252 0.0
C2596 C 0.6526 0.69441 0.63958 0.0
C2597 C 0.65941 0.68583 0.64602 0.0
C2598 C 0.65145 0.71314 0.61696 0.0
C2599 C 0.65154 0.71538 0.59812 0.0
C2600 C 0.64461 0.72391 0.58883 0.0
C2601 C 0.64119 0.72141 0.5692 0.0
C2602 C 0.63645 0.73054 0.55937 0.0
C2603 C 0.63523 0.74251 0.56897 0.0
H2604 H 0.64556 0.73794 0.61366 0.0
C2605 C 0.63812 0.74467 0.58875 0.0
C2606 C 0.64276 0.73545 0.59861 0.0
H2607 H 0.63719 0.75378 0.5965 0.0
H2608 H 0.69159 0.70242 0.61893 0.0
H2609 H 0.67971 0.71721 0.60779 0.0
H2610 H 0.64162 0.69202 0.64521 0.0
H2611 H 0.65348 0.67694 0.65649 0.0
H2612 H 0.64485 0.71632 0.62633 0.0
H2613 H 0.65692 0.71061 0.58887 0.0
H2614 H 0.64262 0.71265 0.56132 0.0
H2615 H 0.63447 0.72873 0.54411 0.0
C2616 C 0.28637 0.96448 0.63729 0.0
C2617 C 0.30138 0.96785 0.64236 0.0
C2618 C 0.27474 0.94906 0.6329 0.0
C2619 C 0.27797 0.93665 0.63301 0.0
C2620 C 0.2927 0.93989 0.63942 0.0
C2621 C 0.3043 0.95535 0.6441 0.0
C2622 C 0.26661 0.92045 0.62569 0.0
C2623 C 0.25499 0.91749 0.61325 0.0
C2624 C 0.24447 0.9019 0.60388 0.0
C2625 C 0.23042 0.89934 0.59588 0.0
C2626 C 0.22082 0.88564 0.58517 0.0
C2627 C 0.22508 0.87418 0.58199 0.0
H2628 H 0.25945 0.89188 0.60678 0.0
C2629 C 0.23893 0.87648 0.59045 0.0
C2630 C 0.24856 0.89022 0.60126 0.0
H2631 H 0.24262 0.86794 0.5881 0.0
H2632 H 0.28368 0.97384 0.63626 0.0
H2633 H 0.26338 0.94707 0.6291 0.0
H2634 H 0.29546 0.93056 0.63997 0.0
H2635 H 0.31575 0.95758 0.64805 0.0
H2636 H 0.2685 0.91094 0.6298 0.0
H2637 H 0.2532 0.92702 0.60902 0.0
H2638 H 0.22697 0.90812 0.59765 0.0
H2639 H 0.21009 0.88412 0.57918 0.0
C2640 C 0.04994 0.35052 0.68158 0.0
C2641 C 0.03421 0.34182 0.6761 0.0
C2642 C 0.06138 0.35539 0.66796 0.0
C2643 C 0.0573 0.3516 0.64853 0.0
C2644 C 0.04159 0.34337 0.64302 0.0
C2645 C 0.03016 0.33845 0.65664 0.0
C2646 C 0.06906 0.35602 0.63363 0.0
C2647 C 0.0831 0.35764 0.63702 0.0
C2648 C 0.09478 0.36106 0.62219 0.0
C2649 C 0.10999 0.36576 0.62814 0.0
C2650 C 0.12126 0.36843 0.61489 0.0
C2651 C 0.11758 0.36641 0.59529 0.0
H2652 H 0.0795 0.35514 0.59718 0.0
C2653 C 0.10239 0.3618 0.58927 0.0
C2654 C 0.09109 0.35909 0.60253 0.0
H2655 H 0.0992 0.36023 0.57426 0.0
H2656 H 0.05346 0.35347 0.69644 0.0
H2657 H 0.07336 0.3622 0.67273 0.0
H2658 H 0.03813 0.34045 0.62814 0.0
H2659 H 0.01814 0.33188 0.65191 0.0
H2660 H 0.06561 0.35725 0.61937 0.0
H2661 H 0.08623 0.35612 0.65135 0.0
H2662 H 0.11317 0.36724 0.64316 0.0
H2663 H 0.13279 0.37173 0.62004 0.0
C2664 C 0.29398 0.34558 0.65257 0.0
C2665 C 0.2951 0.33217 0.64824 0.0
C2666 C 0.28528 0.34975 0.6408 0.0
C2667 C 0.27761 0.34066 0.62425 0.0
C2668 C 0.27909 0.32748 0.61974 0.0
C2669 C 0.28772 0.32328 0.63155 0.0
C2670 C 0.26722 0.3438 0.61197 0.0
C2671 C 0.26656 0.35719 0.61277 0.0
C2672 C 0.25532 0.3596 0.60124 0.0
C2673 C 0.25847 0.37502 0.59825 0.0
C2674 C 0.24799 0.37777 0.58802 0.0
C2675 C 0.23404 0.36512 0.58061 0.0
H2676 H 0.23803 0.33487 0.59656 0.0
C2677 C 0.23081 0.34968 0.58374 0.0
C2678 C 0.24126 0.34694 0.59399 0.0
H2679 H 0.22001 0.33967 0.57862 0.0
H2680 H 0.29945 0.35265 0.66538 0.0
H2681 H 0.28427 0.35979 0.64518 0.0
H2682 H 0.27331 0.32021 0.60715 0.0
H2683 H 0.28835 0.31288 0.62776 0.0
H2684 H 0.25987 0.33458 0.60166 0.0
H2685 H 0.27472 0.36701 0.62184 0.0
H2686 H 0.26912 0.38501 0.6038 0.0
H2687 H 0.25087 0.38981 0.58577 0.0
C2688 C 0.66227 0.95282 0.63196 0.0
C2689 C 0.67753 0.9652 0.62996 0.0
C2690 C 0.658 0.93748 0.62597 0.0
C2691 C 0.66898 0.93423 0.61803 0.0
C2692 C 0.6844 0.94641 0.61719 0.0
C2693 C 0.68862 0.96176 0.62291 0.0
C2694 C 0.6648 0.91851 0.60989 0.0
C2695 C 0.65098 0.90874 0.60131 0.0
C2696 C 0.64755 0.8941 0.59057 0.0
C2697 C 0.63208 0.88226 0.58731 0.0
C2698 C 0.62843 0.86859 0.57665 0.0
C2699 C 0.64021 0.86654 0.56895 0.0
H2700 H 0.67135 0.9012 0.58391 0.0
C2701 C 0.65567 0.87849 0.57195 0.0
C2702 C 0.65932 0.89212 0.58255 0.0
H2703 H 0.665 0.87745 0.56579 0.0
H2704 H 0.65347 0.95508 0.63745 0.0
H2705 H 0.64611 0.92826 0.62739 0.0
H2706 H 0.69312 0.94418 0.61135 0.0
H2707 H 0.70051 0.971 0.62139 0.0
H2708 H 0.6739 0.91555 0.60972 0.0
H2709 H 0.6419 0.91173 0.60159 0.0
H2710 H 0.62277 0.88355 0.59309 0.0
H2711 H 0.6164 0.85956 0.57464 0.0
C2712 C 0.02272 0.71495 0.6402 0.0
C2713 C 0.02119 0.70338 0.65285 0.0
C2714 C 0.03476 0.72115 0.62735 0.0
C2715 C 0.04553 0.71591 0.62693 0.0
C2716 C 0.04365 0.70396 0.6391 0.0
C2717 C 0.03168 0.69782 0.65202 0.0
C2718 C 0.05882 0.72258 0.61403 0.0
C2719 C 0.0657 0.73756 0.60835 0.0
C2720 C 0.07949 0.74487 0.5962 0.0
C2721 C 0.08306 0.75889 0.58722 0.0
C2722 C 0.09612 0.7665 0.5761 0.0
C2723 C 0.10599 0.7603 0.57375 0.0
H2724 H 0.08743 0.72818 0.60102 0.0
C2725 C 0.10251 0.74632 0.58281 0.0
C2726 C 0.08943 0.73869 0.59396 0.0
H2727 H 0.10987 0.74124 0.58124 0.0
H2728 H 0.01472 0.71935 0.64034 0.0
H2729 H 0.0355 0.72994 0.61771 0.0
H2730 H 0.05168 0.69959 0.63891 0.0
H2731 H 0.03074 0.68881 0.66145 0.0
H2732 H 0.06334 0.715 0.60984 0.0
H2733 H 0.06113 0.74502 0.61289 0.0
H2734 H 0.07575 0.76403 0.58885 0.0
H2735 H 0.09863 0.77742 0.56962 0.0
C2736 C 0.97814 0.61715 0.72145 0.0
C2737 C 0.9878 0.63173 0.71329 0.0
C2738 C 0.98383 0.60726 0.72633 0.0
C2739 C -0.00066 0.61171 0.72302 0.0
C2740 C 0.00872 0.62586 0.71385 0.0
C2741 C 0.003 0.63573 0.70892 0.0
C2742 C 0.00661 0.60309 0.73125 0.0
C2743 C -0.00149 0.58794 0.7363 0.0
C2744 C 0.00489 0.5804 0.74878 0.0
C2745 C 0.99445 0.56715 0.75877 0.0
C2746 C -0.00023 0.56053 0.77214 0.0
C2747 C 0.01569 0.56698 0.7758 0.0
H2748 H 0.02938 0.59631 0.74404 0.0
C2749 C 0.0262 0.57982 0.76524 0.0
C2750 C 0.02088 0.58644 0.75181 0.0
H2751 H 0.03855 0.585 0.76766 0.0
H2752 H 0.96636 0.61367 0.72498 0.0
H2753 H 0.97626 0.59669 0.73376 0.0
H2754 H 0.02071 0.6296 0.7112 0.0
H2755 H 0.01076 0.64687 0.7026 0.0
H2756 H 0.01892 0.61 0.7345 0.0
H2757 H 0.98626 0.58109 0.7326 0.0
H2758 H 0.98209 0.56213 0.75661 0.0
H2759 H 0.99137 0.55037 0.77968 0.0
C2760 C 0.35913 0.38258 0.7189 0.0
C2761 C 0.36406 0.37146 0.71843 0.0
C2762 C 0.36947 0.39828 0.72438 0.0
C2763 C 0.38496 0.40316 0.72923 0.0
C2764 C 0.39004 0.39222 0.72772 0.0
C2765 C 0.37968 0.37651 0.72261 0.0
C2766 C 0.39607 0.4194 0.7363 0.0
C2767 C 0.39191 0.42782 0.74757 0.0
C2768 C 0.40341 0.44296 0.75711 0.0
C2769 C 0.40031 0.44683 0.77521 0.0
C2770 C 0.41136 0.46039 0.78521 0.0
C2771 C 0.42571 0.47055 0.77718 0.0
H2772 H 0.42007 0.45104 0.73456 0.0
C2773 C 0.4285 0.46702 0.75866 0.0
C2774 C 0.4175 0.45338 0.74875 0.0
H2775 H 0.43922 0.47479 0.7518 0.0
H2776 H 0.34717 0.37904 0.71572 0.0
H2777 H 0.36529 0.40654 0.72495 0.0
H2778 H 0.40196 0.39572 0.73118 0.0
H2779 H 0.38386 0.36825 0.72221 0.0
H2780 H 0.40826 0.42376 0.73394 0.0
H2781 H 0.37991 0.42271 0.75155 0.0
H2782 H 0.3895 0.43904 0.78192 0.0
H2783 H 0.40883 0.46263 0.79947 0.0
C2784 C 0.6172 0.96483 0.68371 0.0
C2785 C 0.63178 0.97843 0.68643 0.0
C2786 C 0.60604 0.96038 0.69767 0.0
C2787 C 0.60924 0.96953 0.71458 0.0
C2788 C 0.62407 0.98265 0.71764 0.0
C2789 C 0.6352 0.98709 0.70372 0.0
C2790 C 0.59741 0.96615 0.72914 0.0
C2791 C 0.58207 0.95828 0.72518 0.0
C2792 C 0.57039 0.9571 0.73892 0.0
C2793 C 0.55606 0.95444 0.73179 0.0
C2794 C 0.54518 0.95444 0.74402 0.0
C2795 C 0.54838 0.95704 0.7637 0.0
H2796 H 0.58391 0.96042 0.76494 0.0
C2797 C 0.56244 0.95905 0.77096 0.0
C2798 C 0.5733 0.95898 0.75874 0.0
H2799 H 0.56505 0.96072 0.78612 0.0
H2800 H 0.61428 0.95777 0.67066 0.0
H2801 H 0.59496 0.94984 0.69505 0.0
H2802 H 0.62693 0.9898 0.73061 0.0
H2803 H 0.64638 0.99754 0.70636 0.0
H2804 H 0.60165 0.97179 0.74307 0.0
H2805 H 0.57791 0.95383 0.71077 0.0
H2806 H 0.55345 0.95283 0.71662 0.0
H2807 H 0.53446 0.95291 0.73799 0.0
loop_
_geom_bond_atom_site_label_1
_geom_bond_atom_site_label_2
_geom_bond_distance
_geom_bond_site_symmetry_2
_ccdc_geom_bond_type
Mg0 O1 2.028 1_556 S
Mg0 O7 1.986 1_455 S
Mg0 O9 2.114 . S
Mg0 O10 2.271 . S
Mg0 O13 2.010 1_556 S
O1 Mg0 2.028 1_554 S
O1 C4 1.250 1_455 S
O2 Mg3 2.028 1_554 S
O2 C4 1.248 . S
Mg3 O2 2.028 1_556 S
Mg3 O8 2.032 . S
Mg3 O10 2.054 1_655 S
C4 O1 1.250 1_655 S
C4 O2 1.248 . S
C5 O6 1.264 . S
C5 O13 1.249 . S
O6 C5 1.264 . S
O7 Mg0 1.986 1_655 S
O7 C11 1.246 . S
O8 Mg3 2.032 . S
O8 C11 1.259 . S
O9 Mg0 2.114 . S
O9 C12 1.252 . S
O10 Mg0 2.271 . S
O10 Mg3 2.054 1_455 S
O10 C12 1.292 . S
C11 O7 1.246 . S
C11 O8 1.259 . S
C12 O9 1.252 . S
C12 O10 1.292 . S
O13 Mg0 2.010 1_554 S
O13 C5 1.249 . S
Mg14 O15 2.028 1_554 S
Mg14 O21 1.986 . S
Mg14 O23 2.114 . S
Mg14 O24 2.251 . S
Mg14 O27 2.010 . S
O15 Mg14 2.028 1_556 S
O15 C18 1.250 . S
O16 Mg17 2.028 . S
O16 C18 1.248 1_554 S
Mg17 O16 2.028 . S
Mg17 O22 2.032 . S
Mg17 O24 2.079 . S
C18 O15 1.250 . S
C18 O16 1.248 1_556 S
C19 O20 1.239 1_556 S
C19 O27 1.224 1_556 S
O20 C19 1.239 1_554 S
O21 Mg14 1.986 . S
O21 C25 1.246 . S
O22 Mg17 2.032 . S
O22 C25 1.259 . S
O23 Mg14 2.114 . S
O23 C26 1.252 . S
O24 Mg14 2.251 . S
O24 Mg17 2.079 . S
O24 C26 1.273 . S
C25 O21 1.246 . S
C25 O22 1.259 . S
C26 O23 1.252 . S
C26 O24 1.273 . S
O27 Mg14 2.010 . S
O27 C19 1.224 1_554 S
Mg28 O29 1.998 1_566 S
Mg28 O35 1.986 1_565 S
Mg28 O37 2.126 . S
Mg28 O38 2.271 1_565 S
Mg28 O41 1.997 1_556 S
O29 Mg28 1.998 1_544 S
O29 C32 1.250 . S
O30 Mg31 2.028 1_554 S
O30 C32 1.248 . S
Mg31 O30 2.028 1_556 S
Mg31 O36 2.032 . S
Mg31 O38 2.079 . S
C32 O29 1.250 . S
C32 O30 1.248 . S
C33 O34 1.264 . S
C33 O41 1.249 . S
O34 C33 1.264 . S
O35 Mg28 1.986 1_545 S
O35 C39 1.249 . S
O36 Mg31 2.032 . S
O36 C39 1.259 . S
O37 Mg28 2.126 . S
O37 C40 1.252 . S
O38 Mg28 2.271 1_545 S
O38 Mg31 2.079 . S
O38 C40 1.273 1_545 S
C39 O35 1.249 . S
C39 O36 1.259 . S
C40 O37 1.252 . S
C40 O38 1.273 1_565 S
O41 Mg28 1.997 1_554 S
O41 C33 1.249 . S
Mg42 O43 2.008 1_654 S
Mg42 O49 1.986 1_655 S
Mg42 O51 2.114 . S
Mg42 O52 2.251 1_655 S
Mg42 O55 2.010 . S
O43 Mg42 2.008 1_456 S
O43 C46 1.300 . S
O44 Mg45 2.058 . S
O44 C46 1.229 1_554 S
Mg45 O44 2.058 . S
Mg45 O50 2.032 . S
Mg45 O52 2.079 . S
C46 O43 1.300 . S
C46 O44 1.229 1_556 S
C47 O48 1.264 . S
C47 O55 1.249 . S
O48 C47 1.264 . S
O49 Mg42 1.986 1_455 S
O49 C53 1.246 . S
O50 Mg45 2.032 . S
O50 C53 1.259 . S
O51 Mg42 2.114 . S
O51 C54 1.252 . S
O52 Mg42 2.251 1_455 S
O52 Mg45 2.079 . S
O52 C54 1.273 1_455 S
C53 O49 1.246 . S
C53 O50 1.259 . S
C54 O51 1.252 . S
C54 O52 1.273 1_655 S
O55 Mg42 2.010 . S
O55 C47 1.249 . S
Mg56 O57 2.058 . S
Mg56 O63 1.984 1_554 S
Mg56 O65 2.103 1_554 S
Mg56 O66 2.231 1_554 S
Mg56 O69 2.025 . S
O57 Mg56 2.058 . S
O57 C60 1.250 . S
O58 Mg59 2.028 1_554 S
O58 C60 1.248 . S
Mg59 O58 2.028 1_556 S
Mg59 O64 2.032 . S
Mg59 O66 2.079 . S
C60 O57 1.250 . S
C60 O58 1.248 . S
C61 O62 1.264 . S
C61 O69 1.249 . S
O62 C61 1.264 . S
O63 Mg56 1.984 1_556 S
O63 C67 1.246 . S
O64 Mg59 2.032 . S
O64 C67 1.259 . S
O65 Mg56 2.103 1_556 S
O65 C68 1.252 . S
O66 Mg56 2.231 1_556 S
O66 Mg59 2.079 . S
O66 C68 1.273 . S
C67 O63 1.246 . S
C67 O64 1.259 . S
C68 O65 1.252 . S
C68 O66 1.273 . S
O69 Mg56 2.025 . S
O69 C61 1.249 . S
Mg70 O71 2.028 1_554 S
Mg70 O77 1.986 1_545 S
Mg70 O79 2.114 . S
Mg70 O80 2.251 1_545 S
Mg70 O83 2.010 . S
O71 Mg70 2.028 1_556 S
O71 C74 1.250 1_545 S
O72 Mg73 2.028 . S
O72 C74 1.248 1_554 S
Mg73 O72 2.028 . S
Mg73 O78 2.032 . S
Mg73 O80 2.079 . S
C74 O71 1.250 1_565 S
C74 O72 1.248 1_556 S
C75 O76 1.264 . S
C75 O83 1.249 . S
O76 C75 1.264 . S
O77 Mg70 1.986 1_565 S
O77 C81 1.246 . S
O78 Mg73 2.032 . S
O78 C81 1.259 . S
O79 Mg70 2.114 . S
O79 C82 1.252 . S
O80 Mg70 2.251 1_565 S
O80 Mg73 2.079 . S
O80 C82 1.273 1_565 S
C81 O77 1.246 . S
C81 O78 1.259 . S
C82 O79 1.252 . S
C82 O80 1.273 1_545 S
O83 Mg70 2.010 . S
O83 C75 1.249 . S
Mg84 O85 2.028 . S
Mg84 O91 1.986 . S
Mg84 O93 2.114 . S
Mg84 O94 2.251 . S
Mg84 O97 2.010 . S
O85 Mg84 2.028 . S
O85 C88 1.250 . S
O86 Mg87 2.028 . S
O86 C88 1.248 . S
Mg87 O86 2.028 . S
Mg87 O92 2.032 . S
Mg87 O94 2.079 . S
C88 O85 1.250 . S
C88 O86 1.248 . S
C89 O90 1.264 . S
C89 O97 1.249 . S
O90 C89 1.264 . S
O91 Mg84 1.986 . S
O91 C95 1.246 . S
O92 Mg87 2.032 . S
O92 C95 1.259 . S
O93 Mg84 2.114 . S
O93 C96 1.252 . S
O94 Mg84 2.251 . S
O94 Mg87 2.079 . S
O94 C96 1.273 . S
C95 O91 1.246 . S
C95 O92 1.259 . S
C96 O93 1.252 . S
C96 O94 1.273 . S
O97 Mg84 2.010 . S
O97 C89 1.249 . S
Mg98 O99 2.028 . S
Mg98 O105 1.986 1_565 S
Mg98 O107 2.114 . S
Mg98 O108 2.251 . S
Mg98 O111 2.010 . S
O99 Mg98 2.028 . S
O99 C102 1.250 . S
O100 Mg101 2.028 . S
O100 C102 1.248 . S
Mg101 O100 2.028 . S
Mg101 O106 2.032 1_565 S
Mg101 O108 2.079 . S
C102 O99 1.250 . S
C102 O100 1.248 . S
C103 O104 1.264 . S
C103 O111 1.249 . S
O104 C103 1.264 . S
O105 Mg98 1.986 1_545 S
O105 C109 1.246 . S
O106 Mg101 2.032 1_545 S
O106 C109 1.259 . S
O107 Mg98 2.114 . S
O107 C110 1.252 . S
O108 Mg98 2.251 . S
O108 Mg101 2.079 . S
O108 C110 1.273 . S
C109 O105 1.246 . S
C109 O106 1.259 . S
C110 O107 1.252 . S
C110 O108 1.273 . S
O111 Mg98 2.010 . S
O111 C103 1.249 . S
Mg112 O113 2.028 . S
Mg112 O119 1.986 . S
Mg112 O121 2.114 . S
Mg112 O122 2.251 . S
Mg112 O125 2.010 1_455 S
O113 Mg112 2.028 . S
O113 C116 1.250 . S
O114 Mg115 2.028 . S
O114 C116 1.248 . S
Mg115 O114 2.028 . S
Mg115 O120 2.032 . S
Mg115 O122 2.079 . S
C116 O113 1.250 . S
C116 O114 1.248 . S
C117 O118 1.264 . S
C117 O125 1.249 . S
O118 C117 1.264 . S
O119 Mg112 1.986 . S
O119 C123 1.246 . S
O120 Mg115 2.032 . S
O120 C123 1.259 . S
O121 Mg112 2.114 . S
O121 C124 1.252 . S
O122 Mg112 2.251 . S
O122 Mg115 2.079 . S
O122 C124 1.273 . S
C123 O119 1.246 . S
C123 O120 1.259 . S
C124 O121 1.252 . S
C124 O122 1.273 . S
O125 Mg112 2.010 1_655 S
O125 C117 1.249 . S
Mg126 O127 2.028 . S
Mg126 O133 1.986 1_565 S
Mg126 O135 2.114 . S
Mg126 O136 2.251 . S
Mg126 O139 2.010 . S
O127 Mg126 2.028 . S
O127 C130 1.250 . S
O128 Mg129 2.028 . S
O128 C130 1.248 . S
Mg129 O128 2.028 . S
Mg129 O134 2.032 1_565 S
Mg129 O136 2.079 . S
C130 O127 1.250 . S
C130 O128 1.248 . S
C131 O132 1.264 . S
C131 O139 1.249 . S
O132 C131 1.264 . S
O133 Mg126 1.986 1_545 S
O133 C137 1.246 . S
O134 Mg129 2.032 1_545 S
O134 C137 1.259 . S
O135 Mg126 2.114 . S
O135 C138 1.252 . S
O136 Mg126 2.251 . S
O136 Mg129 2.079 . S
O136 C138 1.273 . S
C137 O133 1.246 . S
C137 O134 1.259 . S
C138 O135 1.252 . S
C138 O136 1.273 . S
O139 Mg126 2.010 . S
O139 C131 1.249 . S
Mg140 O141 2.028 . S
Mg140 O147 1.986 . S
Mg140 O149 2.114 . S
Mg140 O150 2.251 . S
Mg140 O153 2.010 1_455 S
O141 Mg140 2.028 . S
O141 C144 1.250 . S
O142 Mg143 2.028 . S
O142 C144 1.248 . S
Mg143 O142 2.028 . S
Mg143 O148 2.032 . S
Mg143 O150 2.079 . S
C144 O141 1.250 . S
C144 O142 1.248 . S
C145 O146 1.264 . S
C145 O153 1.249 . S
O146 C145 1.264 . S
O147 Mg140 1.986 . S
O147 C151 1.246 . S
O148 Mg143 2.032 . S
O148 C151 1.259 . S
O149 Mg140 2.114 . S
O149 C152 1.252 . S
O150 Mg140 2.251 . S
O150 Mg143 2.079 . S
O150 C152 1.273 . S
C151 O147 1.246 . S
C151 O148 1.259 . S
C152 O149 1.252 . S
C152 O150 1.273 . S
O153 Mg140 2.010 1_655 S
O153 C145 1.249 . S
Mg154 O155 2.028 . S
Mg154 O161 1.986 . S
Mg154 O163 2.114 . S
Mg154 O164 2.251 . S
Mg154 O167 2.010 . S
O155 Mg154 2.028 . S
O155 C158 1.250 . S
O156 Mg157 2.028 . S
O156 C158 1.248 . S
Mg157 O156 2.028 . S
Mg157 O162 2.032 . S
Mg157 O164 2.079 . S
C158 O155 1.250 . S
C158 O156 1.248 . S
C159 O160 1.264 . S
C159 O167 1.249 . S
O160 C159 1.264 . S
O161 Mg154 1.986 . S
O161 C165 1.246 . S
O162 Mg157 2.032 . S
O162 C165 1.259 . S
O163 Mg154 2.114 . S
O163 C166 1.252 . S
O164 Mg154 2.251 . S
O164 Mg157 2.079 . S
O164 C166 1.273 . S
C165 O161 1.246 . S
C165 O162 1.259 . S
C166 O163 1.252 . S
C166 O164 1.273 . S
O167 Mg154 2.010 . S
O167 C159 1.249 . S
Mg168 O169 2.028 . S
Mg168 O175 1.986 1_545 S
Mg168 O177 2.114 . S
Mg168 O178 2.251 . S
Mg168 O181 2.010 . S
O169 Mg168 2.028 . S
O169 C172 1.250 . S
O170 Mg171 2.028 . S
O170 C172 1.248 . S
Mg171 O170 2.028 . S
Mg171 O176 1.977 1_545 S
Mg171 O178 2.079 . S
C172 O169 1.250 . S
C172 O170 1.248 . S
C173 O174 1.264 . S
C173 O181 1.249 . S
O174 C173 1.264 . S
O175 Mg168 1.986 1_565 S
O175 C179 1.246 . S
O176 Mg171 1.977 1_565 S
O176 C179 1.309 . S
O177 Mg168 2.114 . S
O177 C180 1.252 . S
O178 Mg168 2.251 . S
O178 Mg171 2.079 . S
O178 C180 1.273 . S
C179 O175 1.246 . S
C179 O176 1.309 . S
C180 O177 1.252 . S
C180 O178 1.273 . S
O181 Mg168 2.010 . S
O181 C173 1.249 . S
Mg182 O183 2.028 . S
Mg182 O189 1.986 . S
Mg182 O191 2.114 . S
Mg182 O192 2.251 . S
Mg182 O195 2.010 1_655 S
O183 Mg182 2.028 . S
O183 C186 1.250 . S
O184 Mg185 2.028 . S
O184 C186 1.248 . S
Mg185 O184 2.028 . S
Mg185 O190 2.032 . S
Mg185 O192 2.079 . S
C186 O183 1.250 . S
C186 O184 1.248 . S
C187 O188 1.264 . S
C187 O195 1.249 . S
O188 C187 1.264 . S
O189 Mg182 1.986 . S
O189 C193 1.246 . S
O190 Mg185 2.032 . S
O190 C193 1.259 . S
O191 Mg182 2.114 . S
O191 C194 1.252 . S
O192 Mg182 2.251 . S
O192 Mg185 2.079 . S
O192 C194 1.273 . S
C193 O189 1.246 . S
C193 O190 1.259 . S
C194 O191 1.252 . S
C194 O192 1.273 . S
O195 Mg182 2.010 1_455 S
O195 C187 1.249 . S
Mg196 O197 2.028 . S
Mg196 O203 1.986 . S
Mg196 O205 2.114 . S
Mg196 O206 2.251 . S
Mg196 O209 2.010 . S
O197 Mg196 2.028 . S
O197 C200 1.250 . S
O198 Mg199 2.028 . S
O198 C200 1.248 . S
Mg199 O198 2.028 . S
Mg199 O204 2.032 . S
Mg199 O206 2.079 . S
C200 O197 1.250 . S
C200 O198 1.248 . S
C201 O202 1.264 . S
C201 O209 1.249 . S
O202 C201 1.264 . S
O203 Mg196 1.986 . S
O203 C207 1.246 . S
O204 Mg199 2.032 . S
O204 C207 1.259 . S
O205 Mg196 2.114 . S
O205 C208 1.252 . S
O206 Mg196 2.251 . S
O206 Mg199 2.079 . S
O206 C208 1.273 . S
C207 O203 1.246 . S
C207 O204 1.259 . S
C208 O205 1.252 . S
C208 O206 1.273 . S
O209 Mg196 2.010 . S
O209 C201 1.249 . S
Mg210 O211 2.028 . S
Mg210 O217 1.986 . S
Mg210 O219 2.114 . S
Mg210 O220 2.251 . S
Mg210 O223 2.010 . S
O211 Mg210 2.028 . S
O211 C214 1.250 . S
O212 Mg213 2.028 . S
O212 C214 1.248 . S
Mg213 O212 2.028 . S
Mg213 O218 2.032 . S
Mg213 O220 2.079 . S
C214 O211 1.250 . S
C214 O212 1.248 . S
C215 O216 1.264 . S
C215 O223 1.249 . S
O216 C215 1.264 . S
O217 Mg210 1.986 . S
O217 C221 1.246 . S
O218 Mg213 2.032 . S
O218 C221 1.259 . S
O219 Mg210 2.114 . S
O219 C222 1.252 . S
O220 Mg210 2.251 . S
O220 Mg213 2.079 . S
O220 C222 1.273 . S
C221 O217 1.246 . S
C221 O218 1.259 . S
C222 O219 1.252 . S
C222 O220 1.273 . S
O223 Mg210 2.010 . S
O223 C215 1.249 . S
Mg224 O225 2.028 . S
Mg224 O231 1.986 1_545 S
Mg224 O233 2.114 . S
Mg224 O234 2.251 . S
Mg224 O237 2.010 . S
O225 Mg224 2.028 . S
O225 C228 1.250 . S
O226 Mg227 2.028 . S
O226 C228 1.248 . S
Mg227 O226 2.028 . S
Mg227 O232 2.032 1_545 S
Mg227 O234 2.079 . S
C228 O225 1.250 . S
C228 O226 1.248 . S
C229 O230 1.264 . S
C229 O237 1.249 . S
O230 C229 1.264 . S
O231 Mg224 1.986 1_565 S
O231 C235 1.246 . S
O232 Mg227 2.032 1_565 S
O232 C235 1.259 . S
O233 Mg224 2.114 . S
O233 C236 1.252 . S
O234 Mg224 2.251 . S
O234 Mg227 2.079 . S
O234 C236 1.273 . S
C235 O231 1.246 . S
C235 O232 1.259 . S
C236 O233 1.252 . S
C236 O234 1.273 . S
O237 Mg224 2.010 . S
O237 C229 1.249 . S
Mg238 O239 2.028 . S
Mg238 O245 1.986 . S
Mg238 O247 2.114 . S
Mg238 O248 2.251 . S
Mg238 O251 2.010 1_655 S
O239 Mg238 2.028 . S
O239 C242 1.250 . S
O240 Mg241 2.028 . S
O240 C242 1.248 . S
Mg241 O240 2.028 . S
Mg241 O246 2.032 . S
Mg241 O248 2.079 . S
C242 O239 1.250 . S
C242 O240 1.248 . S
C243 O244 1.264 . S
C243 O251 1.249 . S
O244 C243 1.264 . S
O245 Mg238 1.986 . S
O245 C249 1.246 . S
O246 Mg241 2.032 . S
O246 C249 1.259 . S
O247 Mg238 2.114 . S
O247 C250 1.252 . S
O248 Mg238 2.251 . S
O248 Mg241 2.079 . S
O248 C250 1.273 . S
C249 O245 1.246 . S
C249 O246 1.259 . S
C250 O247 1.252 . S
C250 O248 1.273 . S
O251 Mg238 2.010 1_455 S
O251 C243 1.249 . S
C252 C253 1.384 . S
C252 C254 1.384 . S
C252 H280 0.931 . S
C253 C252 1.384 . S
C253 C256 1.382 . S
C254 C252 1.384 . S
C254 C255 1.381 . S
C254 H281 0.930 . S
C255 C254 1.381 . S
C255 C257 1.381 . S
C255 C258 1.487 . S
C256 C253 1.382 . S
C256 C257 1.387 . S
C256 H282 0.930 . S
C257 C255 1.381 . S
C257 C256 1.387 . S
C257 H283 0.931 . S
C258 C255 1.487 . S
C258 C265 1.399 . S
C258 N296 1.343 . S
C259 C260 1.384 . S
C259 C261 1.384 . S
C259 H284 0.931 . S
C260 C259 1.384 . S
C260 C263 1.382 . S
C261 C259 1.384 . S
C261 C262 1.381 . S
C261 H285 0.930 . S
C262 C261 1.381 . S
C262 C264 1.381 . S
C262 C265 1.487 . S
C263 C260 1.382 . S
C263 C264 1.387 . S
C263 H286 0.930 . S
C264 C262 1.381 . S
C264 C263 1.387 . S
C264 H287 0.931 . S
C265 C258 1.399 . S
C265 C262 1.487 . S
C265 N297 1.343 . S
C266 C267 1.384 . S
C266 C268 1.384 . S
C266 H288 0.931 . S
C267 C266 1.384 . S
C267 C270 1.382 . S
C268 C266 1.384 . S
C268 C269 1.381 . S
C268 H289 0.930 . S
C269 C268 1.381 . S
C269 C271 1.381 . S
C269 C272 1.487 . S
C270 C267 1.382 . S
C270 C271 1.387 . S
C270 H290 0.930 . S
C271 C269 1.381 . S
C271 C270 1.387 . S
C271 H291 0.931 . S
C272 C269 1.487 . S
C272 C279 1.399 . S
C272 N297 1.343 . S
C273 C274 1.384 . S
C273 C275 1.384 . S
C273 H292 0.931 . S
C274 C273 1.384 . S
C274 C277 1.382 . S
C275 C273 1.384 . S
C275 C276 1.381 . S
C275 H293 0.930 . S
C276 C275 1.381 . S
C276 C278 1.381 . S
C276 C279 1.487 . S
C277 C274 1.382 . S
C277 C278 1.387 . S
C277 H294 0.930 . S
C278 C276 1.381 . S
C278 C277 1.387 . S
C278 H295 0.931 . S
C279 C272 1.399 . S
C279 C276 1.487 . S
C279 N296 1.343 . S
H280 C252 0.931 . S
H281 C254 0.930 . S
H282 C256 0.930 . S
H283 C257 0.931 . S
H284 C259 0.931 . S
H285 C261 0.930 . S
H286 C263 0.930 . S
H287 C264 0.931 . S
H288 C266 0.931 . S
H289 C268 0.930 . S
H290 C270 0.930 . S
H291 C271 0.931 . S
H292 C273 0.931 . S
H293 C275 0.930 . S
H294 C277 0.930 . S
H295 C278 0.931 . S
N296 C258 1.343 . S
N296 C279 1.343 . S
N297 C265 1.343 . S
N297 C272 1.343 . S
C298 C299 1.384 . S
C298 C300 1.384 . S
C298 H326 0.931 . S
C299 C298 1.384 . S
C299 C302 1.382 . S
C300 C298 1.384 . S
C300 C301 1.381 . S
C300 H327 0.930 . S
C301 C300 1.381 . S
C301 C303 1.381 . S
C301 C304 1.487 . S
C302 C299 1.382 . S
C302 C303 1.387 . S
C302 H328 0.930 . S
C303 C301 1.381 . S
C303 C302 1.387 . S
C303 H329 0.931 . S
C304 C301 1.487 . S
C304 C311 1.399 . S
C304 N342 1.343 . S
C305 C306 1.384 . S
C305 C307 1.384 . S
C305 H330 0.931 . S
C306 C305 1.384 . S
C306 C309 1.382 . S
C307 C305 1.384 . S
C307 C308 1.381 . S
C307 H331 0.930 . S
C308 C307 1.381 . S
C308 C310 1.381 . S
C308 C311 1.487 . S
C309 C306 1.382 . S
C309 C310 1.387 . S
C309 H332 0.930 . S
C310 C308 1.381 . S
C310 C309 1.387 . S
C310 H333 0.931 . S
C311 C304 1.399 . S
C311 C308 1.487 . S
C311 N343 1.343 . S
C312 C313 1.384 . S
C312 C314 1.384 . S
C312 H334 0.931 . S
C313 C312 1.384 . S
C313 C316 1.382 . S
C314 C312 1.384 . S
C314 C315 1.381 . S
C314 H335 0.930 . S
C315 C314 1.381 . S
C315 C317 1.381 . S
C315 C318 1.487 . S
C316 C313 1.382 . S
C316 C317 1.387 . S
C316 H336 0.930 . S
C317 C315 1.381 . S
C317 C316 1.387 . S
C317 H337 0.931 . S
C318 C315 1.487 . S
C318 C325 1.399 . S
C318 N343 1.343 . S
C319 C320 1.384 . S
C319 C321 1.384 . S
C319 H338 0.931 . S
C320 C319 1.384 . S
C320 C323 1.382 . S
C321 C319 1.384 . S
C321 C322 1.381 . S
C321 H339 0.930 . S
C322 C321 1.381 . S
C322 C324 1.381 . S
C322 C325 1.487 . S
C323 C320 1.382 . S
C323 C324 1.387 . S
C323 H340 0.930 . S
C324 C322 1.381 . S
C324 C323 1.387 . S
C324 H341 0.931 . S
C325 C318 1.399 . S
C325 C322 1.487 . S
C325 N342 1.343 . S
H326 C298 0.931 . S
H327 C300 0.930 . S
H328 C302 0.930 . S
H329 C303 0.931 . S
H330 C305 0.931 . S
H331 C307 0.930 . S
H332 C309 0.930 . S
H333 C310 0.931 . S
H334 C312 0.931 . S
H335 C314 0.930 . S
H336 C316 0.930 . S
H337 C317 0.931 . S
H338 C319 0.931 . S
H339 C321 0.930 . S
H340 C323 0.930 . S
H341 C324 0.931 . S
N342 C304 1.343 . S
N342 C325 1.343 . S
N343 C311 1.343 . S
N343 C318 1.343 . S
C344 C345 1.384 . S
C344 C346 1.384 . S
C344 H372 0.931 . S
C345 C344 1.384 . S
C345 C348 1.382 . S
C346 C344 1.384 . S
C346 C347 1.381 . S
C346 H373 0.930 . S
C347 C346 1.381 . S
C347 C349 1.381 . S
C347 C350 1.487 . S
C348 C345 1.382 . S
C348 C349 1.387 . S
C348 H374 0.930 . S
C349 C347 1.381 . S
C349 C348 1.387 . S
C349 H375 0.931 . S
C350 C347 1.487 . S
C350 C357 1.399 . S
C350 N388 1.343 . S
C351 C352 1.384 . S
C351 C353 1.384 . S
C351 H376 0.931 . S
C352 C351 1.384 . S
C352 C355 1.382 . S
C353 C351 1.384 . S
C353 C354 1.381 . S
C353 H377 0.930 . S
C354 C353 1.381 . S
C354 C356 1.381 . S
C354 C357 1.487 . S
C355 C352 1.382 . S
C355 C356 1.387 . S
C355 H378 0.930 . S
C356 C354 1.381 . S
C356 C355 1.387 . S
C356 H379 0.931 . S
C357 C350 1.399 . S
C357 C354 1.487 . S
C357 N389 1.343 . S
C358 C359 1.384 . S
C358 C360 1.384 . S
C358 H380 0.931 . S
C359 C358 1.384 . S
C359 C362 1.382 . S
C360 C358 1.384 . S
C360 C361 1.381 . S
C360 H381 0.930 . S
C361 C360 1.381 . S
C361 C363 1.381 . S
C361 C364 1.487 . S
C362 C359 1.382 . S
C362 C363 1.387 . S
C362 H382 0.930 . S
C363 C361 1.381 . S
C363 C362 1.387 . S
C363 H383 0.931 . S
C364 C361 1.487 . S
C364 C371 1.399 . S
C364 N389 1.343 . S
C365 C366 1.384 . S
C365 C367 1.384 . S
C365 H384 0.931 . S
C366 C365 1.384 . S
C366 C369 1.382 . S
C367 C365 1.384 . S
C367 C368 1.381 . S
C367 H385 0.930 . S
C368 C367 1.381 . S
C368 C370 1.381 . S
C368 C371 1.487 . S
C369 C366 1.382 . S
C369 C370 1.387 . S
C369 H386 0.930 . S
C370 C368 1.381 . S
C370 C369 1.387 . S
C370 H387 0.931 . S
C371 C364 1.399 . S
C371 C368 1.487 . S
C371 N388 1.343 . S
H372 C344 0.931 . S
H373 C346 0.930 . S
H374 C348 0.930 . S
H375 C349 0.931 . S
H376 C351 0.931 . S
H377 C353 0.930 . S
H378 C355 0.930 . S
H379 C356 0.931 . S
H380 C358 0.931 . S
H381 C360 0.930 . S
H382 C362 0.930 . S
H383 C363 0.931 . S
H384 C365 0.931 . S
H385 C367 0.930 . S
H386 C369 0.930 . S
H387 C370 0.931 . S
N388 C350 1.343 . S
N388 C371 1.343 . S
N389 C357 1.343 . S
N389 C364 1.343 . S
C390 C391 1.384 . S
C390 C392 1.384 . S
C390 H418 0.931 . S
C391 C390 1.384 . S
C391 C394 1.382 . S
C392 C390 1.384 . S
C392 C393 1.381 . S
C392 H419 0.930 . S
C393 C392 1.381 . S
C393 C395 1.381 . S
C393 C396 1.487 . S
C394 C391 1.382 . S
C394 C395 1.387 . S
C394 H420 0.930 . S
C395 C393 1.381 . S
C395 C394 1.387 . S
C395 H421 0.931 . S
C396 C393 1.487 . S
C396 C403 1.399 . S
C396 N434 1.343 . S
C397 C398 1.384 . S
C397 C399 1.384 . S
C397 H422 0.931 . S
C398 C397 1.384 . S
C398 C401 1.382 . S
C399 C397 1.384 . S
C399 C400 1.381 . S
C399 H423 0.930 . S
C400 C399 1.381 . S
C400 C402 1.381 . S
C400 C403 1.487 . S
C401 C398 1.382 . S
C401 C402 1.387 . S
C401 H424 0.930 . S
C402 C400 1.381 . S
C402 C401 1.387 . S
C402 H425 0.931 . S
C403 C396 1.399 . S
C403 C400 1.487 . S
C403 N435 1.343 . S
C404 C405 1.384 . S
C404 C406 1.384 . S
C404 H426 0.931 . S
C405 C404 1.384 . S
C405 C408 1.382 . S
C406 C404 1.384 . S
C406 C407 1.381 . S
C406 H427 0.930 . S
C407 C406 1.381 . S
C407 C409 1.381 . S
C407 C410 1.487 . S
C408 C405 1.382 . S
C408 C409 1.387 . S
C408 H428 0.930 . S
C409 C407 1.381 . S
C409 C408 1.387 . S
C409 H429 0.931 . S
C410 C407 1.487 . S
C410 C417 1.399 . S
C410 N435 1.343 . S
C411 C412 1.384 . S
C411 C413 1.384 . S
C411 H430 0.931 . S
C412 C411 1.384 . S
C412 C415 1.382 . S
C413 C411 1.384 . S
C413 C414 1.381 . S
C413 H431 0.930 . S
C414 C413 1.381 . S
C414 C416 1.381 . S
C414 C417 1.487 . S
C415 C412 1.382 . S
C415 C416 1.387 . S
C415 H432 0.930 . S
C416 C414 1.381 . S
C416 C415 1.387 . S
C416 H433 0.931 . S
C417 C410 1.399 . S
C417 C414 1.487 . S
C417 N434 1.343 . S
H418 C390 0.931 . S
H419 C392 0.930 . S
H420 C394 0.930 . S
H421 C395 0.931 . S
H422 C397 0.931 . S
H423 C399 0.930 . S
H424 C401 0.930 . S
H425 C402 0.931 . S
H426 C404 0.931 . S
H427 C406 0.930 . S
H428 C408 0.930 . S
H429 C409 0.931 . S
H430 C411 0.931 . S
H431 C413 0.930 . S
H432 C415 0.930 . S
H433 C416 0.931 . S
N434 C396 1.343 . S
N434 C417 1.343 . S
N435 C403 1.343 . S
N435 C410 1.343 . S
C436 C437 1.384 . S
C436 C438 1.384 . S
C436 H464 0.931 . S
C437 C436 1.384 . S
C437 C440 1.382 . S
C438 C436 1.384 . S
C438 C439 1.381 . S
C438 H465 0.930 . S
C439 C438 1.381 . S
C439 C441 1.381 . S
C439 C442 1.487 . S
C440 C437 1.382 . S
C440 C441 1.387 . S
C440 H466 0.930 . S
C441 C439 1.381 . S
C441 C440 1.387 . S
C441 H467 0.931 . S
C442 C439 1.487 . S
C442 C449 1.399 . S
C442 N480 1.343 . S
C443 C444 1.384 . S
C443 C445 1.384 . S
C443 H468 0.931 . S
C444 C443 1.384 . S
C444 C447 1.382 . S
C445 C443 1.384 . S
C445 C446 1.381 . S
C445 H469 0.930 . S
C446 C445 1.381 . S
C446 C448 1.381 . S
C446 C449 1.487 . S
C447 C444 1.382 . S
C447 C448 1.387 . S
C447 H470 0.930 . S
C448 C446 1.381 . S
C448 C447 1.387 . S
C448 H471 0.931 . S
C449 C442 1.399 . S
C449 C446 1.487 . S
C449 N481 1.343 . S
C450 C451 1.384 . S
C450 C452 1.384 . S
C450 H472 0.931 . S
C451 C450 1.384 . S
C451 C454 1.382 . S
C452 C450 1.384 . S
C452 C453 1.381 . S
C452 H473 0.930 . S
C453 C452 1.381 . S
C453 C455 1.381 . S
C453 C456 1.487 . S
C454 C451 1.382 . S
C454 C455 1.387 . S
C454 H474 0.930 . S
C455 C453 1.381 . S
C455 C454 1.387 . S
C455 H475 0.931 . S
C456 C453 1.487 . S
C456 C463 1.399 . S
C456 N481 1.343 . S
C457 C458 1.384 . S
C457 C459 1.384 . S
C457 H476 0.931 . S
C458 C457 1.384 . S
C458 C461 1.382 . S
C459 C457 1.384 . S
C459 C460 1.381 . S
C459 H477 0.930 . S
C460 C459 1.381 . S
C460 C462 1.381 . S
C460 C463 1.487 . S
C461 C458 1.382 . S
C461 C462 1.387 . S
C461 H478 0.930 . S
C462 C460 1.381 . S
C462 C461 1.387 . S
C462 H479 0.931 . S
C463 C456 1.399 . S
C463 C460 1.487 . S
C463 N480 1.343 . S
H464 C436 0.931 . S
H465 C438 0.930 . S
H466 C440 0.930 . S
H467 C441 0.931 . S
H468 C443 0.931 . S
H469 C445 0.930 . S
H470 C447 0.930 . S
H471 C448 0.931 . S
H472 C450 0.931 . S
H473 C452 0.930 . S
H474 C454 0.930 . S
H475 C455 0.931 . S
H476 C457 0.931 . S
H477 C459 0.930 . S
H478 C461 0.930 . S
H479 C462 0.931 . S
N480 C442 1.343 . S
N480 C463 1.343 . S
N481 C449 1.343 . S
N481 C456 1.343 . S
C482 C483 1.384 . S
C482 C484 1.384 . S
C482 H510 0.931 . S
C483 C482 1.384 . S
C483 C486 1.382 . S
C484 C482 1.384 . S
C484 C485 1.381 . S
C484 H511 0.930 . S
C485 C484 1.381 . S
C485 C487 1.381 . S
C485 C488 1.487 . S
C486 C483 1.382 . S
C486 C487 1.387 . S
C486 H512 0.930 . S
C487 C485 1.381 . S
C487 C486 1.387 . S
C487 H513 0.931 . S
C488 C485 1.487 . S
C488 C495 1.399 . S
C488 N526 1.343 . S
C489 C490 1.384 . S
C489 C491 1.384 . S
C489 H514 0.931 . S
C490 C489 1.384 . S
C490 C493 1.382 . S
C491 C489 1.384 . S
C491 C492 1.381 . S
C491 H515 0.930 . S
C492 C491 1.381 . S
C492 C494 1.381 . S
C492 C495 1.487 . S
C493 C490 1.382 . S
C493 C494 1.387 . S
C493 H516 0.930 . S
C494 C492 1.381 . S
C494 C493 1.387 . S
C494 H517 0.931 . S
C495 C488 1.399 . S
C495 C492 1.487 . S
C495 N527 1.343 . S
C496 C497 1.384 . S
C496 C498 1.384 . S
C496 H518 0.931 . S
C497 C496 1.384 . S
C497 C500 1.382 . S
C498 C496 1.384 . S
C498 C499 1.381 . S
C498 H519 0.930 . S
C499 C498 1.381 . S
C499 C501 1.381 . S
C499 C502 1.487 . S
C500 C497 1.382 . S
C500 C501 1.387 . S
C500 H520 0.930 . S
C501 C499 1.381 . S
C501 C500 1.387 . S
C501 H521 0.931 . S
C502 C499 1.487 . S
C502 C509 1.399 . S
C502 N527 1.343 . S
C503 C504 1.384 . S
C503 C505 1.384 . S
C503 H522 0.931 . S
C504 C503 1.384 . S
C504 C507 1.382 . S
C505 C503 1.384 . S
C505 C506 1.381 . S
C505 H523 0.930 . S
C506 C505 1.381 . S
C506 C508 1.381 . S
C506 C509 1.487 . S
C507 C504 1.382 . S
C507 C508 1.387 . S
C507 H524 0.930 . S
C508 C506 1.381 . S
C508 C507 1.387 . S
C508 H525 0.931 . S
C509 C502 1.399 . S
C509 C506 1.487 . S
C509 N526 1.343 . S
H510 C482 0.931 . S
H511 C484 0.930 . S
H512 C486 0.930 . S
H513 C487 0.931 . S
H514 C489 0.931 . S
H515 C491 0.930 . S
H516 C493 0.930 . S
H517 C494 0.931 . S
H518 C496 0.931 . S
H519 C498 0.930 . S
H520 C500 0.930 . S
H521 C501 0.931 . S
H522 C503 0.931 . S
H523 C505 0.930 . S
H524 C507 0.930 . S
H525 C508 0.931 . S
N526 C488 1.343 . S
N526 C509 1.343 . S
N527 C495 1.343 . S
N527 C502 1.343 . S
C528 C529 1.384 . S
C528 C530 1.384 . S
C528 H556 0.931 . S
C529 C528 1.384 . S
C529 C532 1.382 . S
C530 C528 1.384 . S
C530 C531 1.381 . S
C530 H557 0.930 . S
C531 C530 1.381 . S
C531 C533 1.381 . S
C531 C534 1.487 . S
C532 C529 1.382 . S
C532 C533 1.387 . S
C532 H558 0.930 . S
C533 C531 1.381 . S
C533 C532 1.387 . S
C533 H559 0.931 . S
C534 C531 1.487 . S
C534 C541 1.399 . S
C534 N572 1.343 . S
C535 C536 1.384 . S
C535 C537 1.384 . S
C535 H560 0.931 . S
C536 C535 1.384 . S
C536 C539 1.382 . S
C537 C535 1.384 . S
C537 C538 1.381 . S
C537 H561 0.930 . S
C538 C537 1.381 . S
C538 C540 1.381 . S
C538 C541 1.487 . S
C539 C536 1.382 . S
C539 C540 1.387 . S
C539 H562 0.930 . S
C540 C538 1.381 . S
C540 C539 1.387 . S
C540 H563 0.931 . S
C541 C534 1.399 . S
C541 C538 1.487 . S
C541 N573 1.343 . S
C542 C543 1.384 . S
C542 C544 1.384 . S
C542 H564 0.931 . S
C543 C542 1.384 . S
C543 C546 1.382 . S
C544 C542 1.384 . S
C544 C545 1.381 . S
C544 H565 0.930 . S
C545 C544 1.381 . S
C545 C547 1.381 . S
C545 C548 1.487 . S
C546 C543 1.382 . S
C546 C547 1.387 . S
C546 H566 0.930 . S
C547 C545 1.381 . S
C547 C546 1.387 . S
C547 H567 0.931 . S
C548 C545 1.487 . S
C548 C555 1.399 . S
C548 N573 1.343 . S
C549 C550 1.384 . S
C549 C551 1.384 . S
C549 H568 0.931 . S
C550 C549 1.384 . S
C550 C553 1.382 . S
C551 C549 1.384 . S
C551 C552 1.381 . S
C551 H569 0.930 . S
C552 C551 1.381 . S
C552 C554 1.381 . S
C552 C555 1.487 . S
C553 C550 1.382 . S
C553 C554 1.387 . S
C553 H570 0.930 . S
C554 C552 1.381 . S
C554 C553 1.387 . S
C554 H571 0.931 . S
C555 C548 1.399 . S
C555 C552 1.487 . S
C555 N572 1.343 . S
H556 C528 0.931 . S
H557 C530 0.930 . S
H558 C532 0.930 . S
H559 C533 0.931 . S
H560 C535 0.931 . S
H561 C537 0.930 . S
H562 C539 0.930 . S
H563 C540 0.931 . S
H564 C542 0.931 . S
H565 C544 0.930 . S
H566 C546 0.930 . S
H567 C547 0.931 . S
H568 C549 0.931 . S
H569 C551 0.930 . S
H570 C553 0.930 . S
H571 C554 0.931 . S
N572 C534 1.343 . S
N572 C555 1.343 . S
N573 C541 1.343 . S
N573 C548 1.343 . S
C574 C575 1.384 . S
C574 C576 1.384 . S
C574 H602 0.931 . S
C575 C574 1.384 . S
C575 C578 1.382 . S
C576 C574 1.384 . S
C576 C577 1.381 . S
C576 H603 0.930 . S
C577 C576 1.381 . S
C577 C579 1.381 . S
C577 C580 1.487 . S
C578 C575 1.382 . S
C578 C579 1.387 . S
C578 H604 0.930 . S
C579 C577 1.381 . S
C579 C578 1.387 . S
C579 H605 0.931 . S
C580 C577 1.487 . S
C580 C587 1.399 . S
C580 N618 1.343 . S
C581 C582 1.384 . S
C581 C583 1.384 . S
C581 H606 0.931 . S
C582 C581 1.384 . S
C582 C585 1.382 . S
C583 C581 1.384 . S
C583 C584 1.381 . S
C583 H607 0.930 . S
C584 C583 1.381 . S
C584 C586 1.381 . S
C584 C587 1.487 . S
C585 C582 1.382 . S
C585 C586 1.387 . S
C585 H608 0.930 . S
C586 C584 1.381 . S
C586 C585 1.387 . S
C586 H609 0.931 . S
C587 C580 1.399 . S
C587 C584 1.487 . S
C587 N619 1.343 . S
C588 C589 1.384 . S
C588 C590 1.384 . S
C588 H610 0.931 . S
C589 C588 1.384 . S
C589 C592 1.382 . S
C590 C588 1.384 . S
C590 C591 1.381 . S
C590 H611 0.930 . S
C591 C590 1.381 . S
C591 C593 1.381 . S
C591 C594 1.487 . S
C592 C589 1.382 . S
C592 C593 1.387 . S
C592 H612 0.930 . S
C593 C591 1.381 . S
C593 C592 1.387 . S
C593 H613 0.931 . S
C594 C591 1.487 . S
C594 C601 1.399 . S
C594 N619 1.343 . S
C595 C596 1.384 . S
C595 C597 1.384 . S
C595 H614 0.931 . S
C596 C595 1.384 . S
C596 C599 1.382 . S
C597 C595 1.384 . S
C597 C598 1.381 . S
C597 H615 0.930 . S
C598 C597 1.381 . S
C598 C600 1.381 . S
C598 C601 1.487 . S
C599 C596 1.382 . S
C599 C600 1.387 . S
C599 H616 0.930 . S
C600 C598 1.381 . S
C600 C599 1.387 . S
C600 H617 0.931 . S
C601 C594 1.399 . S
C601 C598 1.487 . S
C601 N618 1.343 . S
H602 C574 0.931 . S
H603 C576 0.930 . S
H604 C578 0.930 . S
H605 C579 0.931 . S
H606 C581 0.931 . S
H607 C583 0.930 . S
H608 C585 0.930 . S
H609 C586 0.931 . S
H610 C588 0.931 . S
H611 C590 0.930 . S
H612 C592 0.930 . S
H613 C593 0.931 . S
H614 C595 0.931 . S
H615 C597 0.930 . S
H616 C599 0.930 . S
H617 C600 0.931 . S
N618 C580 1.343 . S
N618 C601 1.343 . S
N619 C587 1.343 . S
N619 C594 1.343 . S
C620 C621 1.384 . S
C620 C622 1.384 . S
C620 H648 0.931 . S
C621 C620 1.384 . S
C621 C624 1.382 . S
C622 C620 1.384 . S
C622 C623 1.381 . S
C622 H649 0.930 . S
C623 C622 1.381 . S
C623 C625 1.381 . S
C623 C626 1.487 . S
C624 C621 1.382 . S
C624 C625 1.387 . S
C624 H650 0.930 . S
C625 C623 1.381 . S
C625 C624 1.387 . S
C625 H651 0.931 . S
C626 C623 1.487 . S
C626 C633 1.399 . S
C626 N664 1.343 . S
C627 C628 1.384 . S
C627 C629 1.384 . S
C627 H652 0.931 . S
C628 C627 1.384 . S
C628 C631 1.382 . S
C629 C627 1.384 . S
C629 C630 1.381 . S
C629 H653 0.930 . S
C630 C629 1.381 . S
C630 C632 1.381 . S
C630 C633 1.487 . S
C631 C628 1.382 . S
C631 C632 1.387 . S
C631 H654 0.930 . S
C632 C630 1.381 . S
C632 C631 1.387 . S
C632 H655 0.931 . S
C633 C626 1.399 . S
C633 C630 1.487 . S
C633 N665 1.343 . S
C634 C635 1.384 . S
C634 C636 1.384 . S
C634 H656 0.931 . S
C635 C634 1.384 . S
C635 C638 1.382 . S
C636 C634 1.384 . S
C636 C637 1.381 . S
C636 H657 0.930 . S
C637 C636 1.381 . S
C637 C639 1.381 . S
C637 C640 1.487 . S
C638 C635 1.382 . S
C638 C639 1.387 . S
C638 H658 0.930 . S
C639 C637 1.381 . S
C639 C638 1.387 . S
C639 H659 0.931 . S
C640 C637 1.487 . S
C640 C647 1.399 . S
C640 N665 1.343 . S
C641 C642 1.384 . S
C641 C643 1.384 . S
C641 H660 0.931 . S
C642 C641 1.384 . S
C642 C645 1.382 . S
C643 C641 1.384 . S
C643 C644 1.381 . S
C643 H661 0.930 . S
C644 C643 1.381 . S
C644 C646 1.381 . S
C644 C647 1.487 . S
C645 C642 1.382 . S
C645 C646 1.387 . S
C645 H662 0.930 . S
C646 C644 1.381 . S
C646 C645 1.387 . S
C646 H663 0.931 . S
C647 C640 1.399 . S
C647 C644 1.487 . S
C647 N664 1.343 . S
H648 C620 0.931 . S
H649 C622 0.930 . S
H650 C624 0.930 . S
H651 C625 0.931 . S
H652 C627 0.931 . S
H653 C629 0.930 . S
H654 C631 0.930 . S
H655 C632 0.931 . S
H656 C634 0.931 . S
H657 C636 0.930 . S
H658 C638 0.930 . S
H659 C639 0.931 . S
H660 C641 0.931 . S
H661 C643 0.930 . S
H662 C645 0.930 . S
H663 C646 0.931 . S
N664 C626 1.343 . S
N664 C647 1.343 . S
N665 C633 1.343 . S
N665 C640 1.343 . S
C666 C667 1.384 . S
C666 C668 1.384 . S
C666 H694 0.931 . S
C667 C666 1.384 . S
C667 C670 1.382 1_655 S
C668 C666 1.384 . S
C668 C669 1.387 . S
C668 H695 0.930 . S
C669 C668 1.387 . S
C669 C671 1.378 1_655 S
C669 C672 1.478 1_655 S
C670 C667 1.382 1_455 S
C670 C671 1.387 . S
C670 H696 0.930 . S
C671 C669 1.378 1_455 S
C671 C670 1.387 . S
C671 H697 0.931 . S
C672 C669 1.478 1_455 S
C672 C679 1.398 1_455 S
C672 N710 1.312 . S
C673 C674 1.384 . S
C673 C675 1.384 . S
C673 H698 0.931 . S
C674 C673 1.384 . S
C674 C677 1.382 1_455 S
C675 C673 1.384 . S
C675 C676 1.383 1_455 S
C675 H699 0.930 . S
C676 C675 1.383 1_655 S
C676 C678 1.378 . S
C676 C679 1.495 . S
C677 C674 1.382 1_655 S
C677 C678 1.387 . S
C677 H700 0.930 . S
C678 C676 1.378 . S
C678 C677 1.387 . S
C678 H701 0.931 . S
C679 C672 1.398 1_655 S
C679 C676 1.495 . S
C679 N711 1.363 . S
C680 C681 1.384 . S
C680 C682 1.384 . S
C680 H702 0.931 . S
C681 C680 1.384 . S
C681 C684 1.382 1_455 S
C682 C680 1.384 . S
C682 C683 1.406 . S
C682 H703 0.930 . S
C683 C682 1.406 . S
C683 C685 1.368 1_455 S
C683 C686 1.478 1_455 S
C684 C681 1.382 1_655 S
C684 C685 1.387 . S
C684 H704 0.930 . S
C685 C683 1.368 1_655 S
C685 C684 1.387 . S
C685 H705 0.931 . S
C686 C683 1.478 1_655 S
C686 C693 1.398 1_655 S
C686 N711 1.312 . S
C687 C688 1.384 . S
C687 C689 1.384 . S
C687 H706 0.931 . S
C688 C687 1.384 . S
C688 C691 1.382 1_655 S
C689 C687 1.384 . S
C689 C690 1.379 1_655 S
C689 H707 0.930 . S
C690 C689 1.379 1_455 S
C690 C692 1.389 . S
C690 C693 1.495 . S
C691 C688 1.382 1_455 S
C691 C692 1.387 . S
C691 H708 0.930 . S
C692 C690 1.389 . S
C692 C691 1.387 . S
C692 H709 0.931 . S
C693 C686 1.398 1_455 S
C693 C690 1.495 . S
C693 N710 1.363 . S
H694 C666 0.931 . S
H695 C668 0.930 . S
H696 C670 0.930 . S
H697 C671 0.931 . S
H698 C673 0.931 . S
H699 C675 0.930 . S
H700 C677 0.930 . S
H701 C678 0.931 . S
H702 C680 0.931 . S
H703 C682 0.930 . S
H704 C684 0.930 . S
H705 C685 0.931 . S
H706 C687 0.931 . S
H707 C689 0.930 . S
H708 C691 0.930 . S
H709 C692 0.931 . S
N710 C672 1.312 . S
N710 C693 1.363 . S
N711 C679 1.363 . S
N711 C686 1.312 . S
C712 C713 1.384 . S
C712 C714 1.384 . S
C712 H740 0.931 . S
C713 C712 1.384 . S
C713 C716 1.382 . S
C714 C712 1.384 . S
C714 C715 1.381 . S
C714 H741 0.930 . S
C715 C714 1.381 . S
C715 C717 1.381 . S
C715 C718 1.487 . S
C716 C713 1.382 . S
C716 C717 1.387 . S
C716 H742 0.930 . S
C717 C715 1.381 . S
C717 C716 1.387 . S
C717 H743 0.931 . S
C718 C715 1.487 . S
C718 C725 1.399 . S
C718 N756 1.343 . S
C719 C720 1.384 . S
C719 C721 1.384 . S
C719 H744 0.931 . S
C720 C719 1.384 . S
C720 C723 1.382 . S
C721 C719 1.384 . S
C721 C722 1.381 . S
C721 H745 0.930 . S
C722 C721 1.381 . S
C722 C724 1.381 . S
C722 C725 1.487 . S
C723 C720 1.382 . S
C723 C724 1.387 . S
C723 H746 0.930 . S
C724 C722 1.381 . S
C724 C723 1.387 . S
C724 H747 0.931 . S
C725 C718 1.399 . S
C725 C722 1.487 . S
C725 N757 1.343 . S
C726 C727 1.384 . S
C726 C728 1.384 . S
C726 H748 0.931 . S
C727 C726 1.384 . S
C727 C730 1.382 . S
C728 C726 1.384 . S
C728 C729 1.381 . S
C728 H749 0.930 . S
C729 C728 1.381 . S
C729 C731 1.381 . S
C729 C732 1.487 . S
C730 C727 1.382 . S
C730 C731 1.387 . S
C730 H750 0.930 . S
C731 C729 1.381 . S
C731 C730 1.387 . S
C731 H751 0.931 . S
C732 C729 1.487 . S
C732 C739 1.399 . S
C732 N757 1.343 . S
C733 C734 1.384 . S
C733 C735 1.384 . S
C733 H752 0.931 . S
C734 C733 1.384 . S
C734 C737 1.382 . S
C735 C733 1.384 . S
C735 C736 1.381 . S
C735 H753 0.930 . S
C736 C735 1.381 . S
C736 C738 1.381 . S
C736 C739 1.487 . S
C737 C734 1.382 . S
C737 C738 1.387 . S
C737 H754 0.930 . S
C738 C736 1.381 . S
C738 C737 1.387 . S
C738 H755 0.931 . S
C739 C732 1.399 . S
C739 C736 1.487 . S
C739 N756 1.343 . S
H740 C712 0.931 . S
H741 C714 0.930 . S
H742 C716 0.930 . S
H743 C717 0.931 . S
H744 C719 0.931 . S
H745 C721 0.930 . S
H746 C723 0.930 . S
H747 C724 0.931 . S
H748 C726 0.931 . S
H749 C728 0.930 . S
H750 C730 0.930 . S
H751 C731 0.931 . S
H752 C733 0.931 . S
H753 C735 0.930 . S
H754 C737 0.930 . S
H755 C738 0.931 . S
N756 C718 1.343 . S
N756 C739 1.343 . S
N757 C725 1.343 . S
N757 C732 1.343 . S
C758 C759 1.384 1_545 S
C758 C760 1.384 . S
C758 H786 0.931 . S
C759 C758 1.384 1_565 S
C759 C762 1.382 . S
C760 C758 1.384 . S
C760 C761 1.381 1_545 S
C760 H787 0.930 . S
C761 C760 1.381 1_565 S
C761 C763 1.381 . S
C761 C764 1.487 . S
C762 C759 1.382 . S
C762 C763 1.387 . S
C762 H788 0.930 . S
C763 C761 1.381 . S
C763 C762 1.387 . S
C763 H789 0.931 . S
C764 C761 1.487 . S
C764 C771 1.399 1_565 S
C764 N802 1.343 . S
C765 C766 1.384 1_565 S
C765 C767 1.384 . S
C765 H790 0.931 . S
C766 C765 1.384 1_545 S
C766 C769 1.382 . S
C767 C765 1.384 . S
C767 C768 1.381 1_565 S
C767 H791 0.930 . S
C768 C767 1.381 1_545 S
C768 C770 1.381 . S
C768 C771 1.487 . S
C769 C766 1.382 . S
C769 C770 1.387 . S
C769 H792 0.930 . S
C770 C768 1.381 . S
C770 C769 1.387 . S
C770 H793 0.931 . S
C771 C764 1.399 1_545 S
C771 C768 1.487 . S
C771 N803 1.343 . S
C772 C773 1.384 1_565 S
C772 C774 1.384 . S
C772 H794 0.931 . S
C773 C772 1.384 1_545 S
C773 C776 1.382 . S
C774 C772 1.384 . S
C774 C775 1.381 1_565 S
C774 H795 0.930 . S
C775 C774 1.381 1_545 S
C775 C777 1.381 . S
C775 C778 1.487 . S
C776 C773 1.382 . S
C776 C777 1.387 . S
C776 H796 0.930 . S
C777 C775 1.381 . S
C777 C776 1.387 . S
C777 H797 0.931 . S
C778 C775 1.487 . S
C778 C785 1.399 1_545 S
C778 N803 1.343 . S
C779 C780 1.384 1_545 S
C779 C781 1.384 . S
C779 H798 0.931 . S
C780 C779 1.384 1_565 S
C780 C783 1.382 . S
C781 C779 1.384 . S
C781 C782 1.381 1_545 S
C781 H799 0.930 . S
C782 C781 1.381 1_565 S
C782 C784 1.381 . S
C782 C785 1.487 . S
C783 C780 1.382 . S
C783 C784 1.387 . S
C783 H800 0.930 . S
C784 C782 1.381 . S
C784 C783 1.387 . S
C784 H801 0.931 . S
C785 C778 1.399 1_565 S
C785 C782 1.487 . S
C785 N802 1.343 . S
H786 C758 0.931 . S
H787 C760 0.930 . S
H788 C762 0.930 . S
H789 C763 0.931 . S
H790 C765 0.931 . S
H791 C767 0.930 . S
H792 C769 0.930 . S
H793 C770 0.931 . S
H794 C772 0.931 . S
H795 C774 0.930 . S
H796 C776 0.930 . S
H797 C777 0.931 . S
H798 C779 0.931 . S
H799 C781 0.930 . S
H800 C783 0.930 . S
H801 C784 0.931 . S
N802 C764 1.343 . S
N802 C785 1.343 . S
N803 C771 1.343 . S
N803 C778 1.343 . S
C804 C805 1.384 . S
C804 C806 1.384 . S
C804 H832 0.931 . S
C805 C804 1.384 . S
C805 C808 1.382 1_545 S
C806 C804 1.384 . S
C806 C807 1.385 . S
C806 H833 0.930 . S
C807 C806 1.385 . S
C807 C809 1.371 1_545 S
C807 C810 1.494 1_545 S
C808 C805 1.382 1_565 S
C808 C809 1.387 . S
C808 H834 0.930 . S
C809 C807 1.371 1_565 S
C809 C808 1.387 . S
C809 H835 0.931 . S
C810 C807 1.494 1_565 S
C810 C817 1.399 1_565 S
C810 N848 1.367 . S
C811 C812 1.384 . S
C811 C813 1.384 . S
C811 H836 0.931 . S
C812 C811 1.384 . S
C812 C815 1.382 1_565 S
C813 C811 1.384 . S
C813 C814 1.375 . S
C813 H837 0.930 . S
C814 C813 1.375 . S
C814 C816 1.384 1_565 S
C814 C817 1.480 1_565 S
C815 C812 1.382 1_545 S
C815 C816 1.387 . S
C815 H838 0.930 . S
C816 C814 1.384 1_545 S
C816 C815 1.387 . S
C816 H839 0.931 . S
C817 C810 1.399 1_545 S
C817 C814 1.480 1_545 S
C817 N849 1.320 . S
C818 C819 1.384 . S
C818 C820 1.384 . S
C818 H840 0.931 . S
C819 C818 1.384 . S
C819 C822 1.382 1_565 S
C820 C818 1.384 . S
C820 C821 1.381 . S
C820 H841 0.930 . S
C821 C820 1.381 . S
C821 C823 1.382 1_565 S
C821 C824 1.494 1_565 S
C822 C819 1.382 1_545 S
C822 C823 1.387 . S
C822 H842 0.930 . S
C823 C821 1.382 1_545 S
C823 C822 1.387 . S
C823 H843 0.931 . S
C824 C821 1.494 1_545 S
C824 C831 1.399 1_545 S
C824 N849 1.367 . S
C825 C826 1.384 . S
C825 C827 1.384 . S
C825 H844 0.931 . S
C826 C825 1.384 . S
C826 C829 1.382 1_545 S
C827 C825 1.384 . S
C827 C828 1.394 . S
C827 H845 0.930 . S
C828 C827 1.394 . S
C828 C830 1.375 1_545 S
C828 C831 1.480 1_545 S
C829 C826 1.382 1_565 S
C829 C830 1.387 . S
C829 H846 0.930 . S
C830 C828 1.375 1_565 S
C830 C829 1.387 . S
C830 H847 0.931 . S
C831 C824 1.399 1_565 S
C831 C828 1.480 1_565 S
C831 N848 1.320 . S
H832 C804 0.931 . S
H833 C806 0.930 . S
H834 C808 0.930 . S
H835 C809 0.931 . S
H836 C811 0.931 . S
H837 C813 0.930 . S
H838 C815 0.930 . S
H839 C816 0.931 . S
H840 C818 0.931 . S
H841 C820 0.930 . S
H842 C822 0.930 . S
H843 C823 0.931 . S
H844 C825 0.931 . S
H845 C827 0.930 . S
H846 C829 0.930 . S
H847 C830 0.931 . S
N848 C810 1.367 . S
N848 C831 1.320 . S
N849 C817 1.320 . S
N849 C824 1.367 . S
C850 C851 1.384 . S
C850 C852 1.384 . S
C850 H878 0.931 . S
C851 C850 1.384 . S
C851 C854 1.382 1_655 S
C852 C850 1.384 . S
C852 C853 1.423 . S
C852 H879 0.930 . S
C853 C852 1.423 . S
C853 C855 1.360 1_655 S
C853 C856 1.466 . S
C854 C851 1.382 1_455 S
C854 C855 1.387 . S
C854 H880 0.930 . S
C855 C853 1.360 1_455 S
C855 C854 1.387 . S
C855 H881 0.931 . S
C856 C853 1.466 . S
C856 C863 1.398 . S
C856 N894 1.324 1_655 S
C857 C858 1.384 . S
C857 C859 1.384 . S
C857 H882 0.931 . S
C858 C857 1.384 . S
C858 C861 1.382 1_455 S
C859 C857 1.384 . S
C859 C860 1.382 1_455 S
C859 H883 0.930 . S
C860 C859 1.382 1_655 S
C860 C862 1.379 . S
C860 C863 1.500 . S
C861 C858 1.382 1_655 S
C861 C862 1.387 . S
C861 H884 0.930 . S
C862 C860 1.379 . S
C862 C861 1.387 . S
C862 H885 0.931 . S
C863 C856 1.398 . S
C863 C860 1.500 . S
C863 N895 1.360 . S
C864 C865 1.384 . S
C864 C866 1.384 . S
C864 H886 0.931 . S
C865 C864 1.384 . S
C865 C868 1.382 1_455 S
C866 C864 1.384 . S
C866 C867 1.404 . S
C866 H887 0.930 . S
C867 C866 1.404 . S
C867 C869 1.369 1_455 S
C867 C870 1.474 1_455 S
C868 C865 1.382 1_655 S
C868 C869 1.387 . S
C868 H888 0.930 . S
C869 C867 1.369 1_655 S
C869 C868 1.387 . S
C869 H889 0.931 . S
C870 C867 1.474 1_655 S
C870 C877 1.399 1_655 S
C870 N895 1.316 . S
C871 C872 1.384 . S
C871 C873 1.384 . S
C871 H890 0.931 . S
C872 C871 1.384 . S
C872 C875 1.382 1_655 S
C873 C871 1.384 . S
C873 C874 1.382 . S
C873 H891 0.930 . S
C874 C873 1.382 . S
C874 C876 1.379 1_655 S
C874 C877 1.491 1_655 S
C875 C872 1.382 1_455 S
C875 C876 1.387 . S
C875 H892 0.930 . S
C876 C874 1.379 1_455 S
C876 C875 1.387 . S
C876 H893 0.931 . S
C877 C870 1.399 1_455 S
C877 C874 1.491 1_455 S
C877 N894 1.360 . S
H878 C850 0.931 . S
H879 C852 0.930 . S
H880 C854 0.930 . S
H881 C855 0.931 . S
H882 C857 0.931 . S
H883 C859 0.930 . S
H884 C861 0.930 . S
H885 C862 0.931 . S
H886 C864 0.931 . S
H887 C866 0.930 . S
H888 C868 0.930 . S
H889 C869 0.931 . S
H890 C871 0.931 . S
H891 C873 0.930 . S
H892 C875 0.930 . S
H893 C876 0.931 . S
N894 C856 1.324 1_455 S
N894 C877 1.360 . S
N895 C863 1.360 . S
N895 C870 1.316 . S
C896 C897 1.384 . S
C896 C898 1.384 . S
C896 H924 0.931 . S
C897 C896 1.384 . S
C897 C900 1.382 . S
C898 C896 1.384 . S
C898 C899 1.381 . S
C898 H925 0.930 . S
C899 C898 1.381 . S
C899 C901 1.381 . S
C899 C902 1.487 . S
C900 C897 1.382 . S
C900 C901 1.387 . S
C900 H926 0.930 . S
C901 C899 1.381 . S
C901 C900 1.387 . S
C901 H927 0.931 . S
C902 C899 1.487 . S
C902 C909 1.399 . S
C902 N940 1.343 . S
C903 C904 1.384 . S
C903 C905 1.384 . S
C903 H928 0.931 . S
C904 C903 1.384 . S
C904 C907 1.382 . S
C905 C903 1.384 . S
C905 C906 1.381 . S
C905 H929 0.930 . S
C906 C905 1.381 . S
C906 C908 1.381 . S
C906 C909 1.487 . S
C907 C904 1.382 . S
C907 C908 1.387 . S
C907 H930 0.930 . S
C908 C906 1.381 . S
C908 C907 1.387 . S
C908 H931 0.931 . S
C909 C902 1.399 . S
C909 C906 1.487 . S
C909 N941 1.343 . S
C910 C911 1.384 . S
C910 C912 1.384 . S
C910 H932 0.931 . S
C911 C910 1.384 . S
C911 C914 1.382 . S
C912 C910 1.384 . S
C912 C913 1.381 . S
C912 H933 0.930 . S
C913 C912 1.381 . S
C913 C915 1.381 . S
C913 C916 1.487 . S
C914 C911 1.382 . S
C914 C915 1.387 . S
C914 H934 0.930 . S
C915 C913 1.381 . S
C915 C914 1.387 . S
C915 H935 0.931 . S
C916 C913 1.487 . S
C916 C923 1.399 . S
C916 N941 1.343 . S
C917 C918 1.384 . S
C917 C919 1.384 . S
C917 H936 0.931 . S
C918 C917 1.384 . S
C918 C921 1.382 . S
C919 C917 1.384 . S
C919 C920 1.381 . S
C919 H937 0.930 . S
C920 C919 1.381 . S
C920 C922 1.381 . S
C920 C923 1.487 . S
C921 C918 1.382 . S
C921 C922 1.387 . S
C921 H938 0.930 . S
C922 C920 1.381 . S
C922 C921 1.387 . S
C922 H939 0.931 . S
C923 C916 1.399 . S
C923 C920 1.487 . S
C923 N940 1.343 . S
H924 C896 0.931 . S
H925 C898 0.930 . S
H926 C900 0.930 . S
H927 C901 0.931 . S
H928 C903 0.931 . S
H929 C905 0.930 . S
H930 C907 0.930 . S
H931 C908 0.931 . S
H932 C910 0.931 . S
H933 C912 0.930 . S
H934 C914 0.930 . S
H935 C915 0.931 . S
H936 C917 0.931 . S
H937 C919 0.930 . S
H938 C921 0.930 . S
H939 C922 0.931 . S
N940 C902 1.343 . S
N940 C923 1.343 . S
N941 C909 1.343 . S
N941 C916 1.343 . S
C942 C943 1.384 . S
C942 C944 1.384 . S
C942 H970 0.931 . S
C943 C942 1.384 . S
C943 C946 1.382 . S
C944 C942 1.384 . S
C944 C945 1.381 . S
C944 H971 0.930 . S
C945 C944 1.381 . S
C945 C947 1.381 . S
C945 C948 1.487 . S
C946 C943 1.382 . S
C946 C947 1.387 . S
C946 H972 0.930 . S
C947 C945 1.381 . S
C947 C946 1.387 . S
C947 H973 0.931 . S
C948 C945 1.487 . S
C948 C955 1.399 . S
C948 N986 1.343 . S
C949 C950 1.384 . S
C949 C951 1.384 . S
C949 H974 0.931 . S
C950 C949 1.384 . S
C950 C953 1.382 . S
C951 C949 1.384 . S
C951 C952 1.381 . S
C951 H975 0.930 . S
C952 C951 1.381 . S
C952 C954 1.381 . S
C952 C955 1.487 . S
C953 C950 1.382 . S
C953 C954 1.387 . S
C953 H976 0.930 . S
C954 C952 1.381 . S
C954 C953 1.387 . S
C954 H977 0.931 . S
C955 C948 1.399 . S
C955 C952 1.487 . S
C955 N987 1.343 . S
C956 C957 1.384 . S
C956 C958 1.384 . S
C956 H978 0.931 . S
C957 C956 1.384 . S
C957 C960 1.382 . S
C958 C956 1.384 . S
C958 C959 1.381 . S
C958 H979 0.930 . S
C959 C958 1.381 . S
C959 C961 1.381 . S
C959 C962 1.487 . S
C960 C957 1.382 . S
C960 C961 1.387 . S
C960 H980 0.930 . S
C961 C959 1.381 . S
C961 C960 1.387 . S
C961 H981 0.931 . S
C962 C959 1.487 . S
C962 C969 1.399 . S
C962 N987 1.343 . S
C963 C964 1.384 . S
C963 C965 1.384 . S
C963 H982 0.931 . S
C964 C963 1.384 . S
C964 C967 1.382 . S
C965 C963 1.384 . S
C965 C966 1.381 . S
C965 H983 0.930 . S
C966 C965 1.381 . S
C966 C968 1.381 . S
C966 C969 1.487 . S
C967 C964 1.382 . S
C967 C968 1.387 . S
C967 H984 0.930 . S
C968 C966 1.381 . S
C968 C967 1.387 . S
C968 H985 0.931 . S
C969 C962 1.399 . S
C969 C966 1.487 . S
C969 N986 1.343 . S
H970 C942 0.931 . S
H971 C944 0.930 . S
H972 C946 0.930 . S
H973 C947 0.931 . S
H974 C949 0.931 . S
H975 C951 0.930 . S
H976 C953 0.930 . S
H977 C954 0.931 . S
H978 C956 0.931 . S
H979 C958 0.930 . S
H980 C960 0.930 . S
H981 C961 0.931 . S
H982 C963 0.931 . S
H983 C965 0.930 . S
H984 C967 0.930 . S
H985 C968 0.931 . S
N986 C948 1.343 . S
N986 C969 1.343 . S
N987 C955 1.343 . S
N987 C962 1.343 . S
C988 C989 1.384 . S
C988 C990 1.384 . S
C988 H1016 0.931 . S
C989 C988 1.384 . S
C989 C992 1.382 . S
C990 C988 1.384 . S
C990 C991 1.381 . S
C990 H1017 0.930 . S
C991 C990 1.381 . S
C991 C993 1.381 . S
C991 C994 1.487 . S
C992 C989 1.382 . S
C992 C993 1.387 . S
C992 H1018 0.930 . S
C993 C991 1.381 . S
C993 C992 1.387 . S
C993 H1019 0.931 . S
C994 C991 1.487 . S
C994 C1001 1.399 . S
C994 N1032 1.343 . S
C995 C996 1.384 . S
C995 C997 1.384 . S
C995 H1020 0.931 . S
C996 C995 1.384 . S
C996 C999 1.382 . S
C997 C995 1.384 . S
C997 C998 1.381 . S
C997 H1021 0.930 . S
C998 C997 1.381 . S
C998 C1000 1.381 . S
C998 C1001 1.487 . S
C999 C996 1.382 . S
C999 C1000 1.387 . S
C999 H1022 0.930 . S
C1000 C998 1.381 . S
C1000 C999 1.387 . S
C1000 H1023 0.931 . S
C1001 C994 1.399 . S
C1001 C998 1.487 . S
C1001 N1033 1.343 . S
C1002 C1003 1.384 . S
C1002 C1004 1.384 . S
C1002 H1024 0.931 . S
C1003 C1002 1.384 . S
C1003 C1006 1.382 . S
C1004 C1002 1.384 . S
C1004 C1005 1.381 . S
C1004 H1025 0.930 . S
C1005 C1004 1.381 . S
C1005 C1007 1.381 . S
C1005 C1008 1.487 . S
C1006 C1003 1.382 . S
C1006 C1007 1.387 . S
C1006 H1026 0.930 . S
C1007 C1005 1.381 . S
C1007 C1006 1.387 . S
C1007 H1027 0.931 . S
C1008 C1005 1.487 . S
C1008 C1015 1.399 . S
C1008 N1033 1.343 . S
C1009 C1010 1.384 . S
C1009 C1011 1.384 . S
C1009 H1028 0.931 . S
C1010 C1009 1.384 . S
C1010 C1013 1.382 . S
C1011 C1009 1.384 . S
C1011 C1012 1.381 . S
C1011 H1029 0.930 . S
C1012 C1011 1.381 . S
C1012 C1014 1.381 . S
C1012 C1015 1.487 . S
C1013 C1010 1.382 . S
C1013 C1014 1.387 . S
C1013 H1030 0.930 . S
C1014 C1012 1.381 . S
C1014 C1013 1.387 . S
C1014 H1031 0.931 . S
C1015 C1008 1.399 . S
C1015 C1012 1.487 . S
C1015 N1032 1.343 . S
H1016 C988 0.931 . S
H1017 C990 0.930 . S
H1018 C992 0.930 . S
H1019 C993 0.931 . S
H1020 C995 0.931 . S
H1021 C997 0.930 . S
H1022 C999 0.930 . S
H1023 C1000 0.931 . S
H1024 C1002 0.931 . S
H1025 C1004 0.930 . S
H1026 C1006 0.930 . S
H1027 C1007 0.931 . S
H1028 C1009 0.931 . S
H1029 C1011 0.930 . S
H1030 C1013 0.930 . S
H1031 C1014 0.931 . S
N1032 C994 1.343 . S
N1032 C1015 1.343 . S
N1033 C1001 1.343 . S
N1033 C1008 1.343 . S
C1034 C1035 1.384 . S
C1034 C1036 1.384 . S
C1034 H1062 0.931 . S
C1035 C1034 1.384 . S
C1035 C1038 1.382 . S
C1036 C1034 1.384 . S
C1036 C1037 1.381 . S
C1036 H1063 0.930 . S
C1037 C1036 1.381 . S
C1037 C1039 1.381 . S
C1037 C1040 1.487 . S
C1038 C1035 1.382 . S
C1038 C1039 1.387 . S
C1038 H1064 0.930 . S
C1039 C1037 1.381 . S
C1039 C1038 1.387 . S
C1039 H1065 0.931 . S
C1040 C1037 1.487 . S
C1040 C1047 1.399 . S
C1040 N1078 1.343 . S
C1041 C1042 1.384 . S
C1041 C1043 1.384 . S
C1041 H1066 0.931 . S
C1042 C1041 1.384 . S
C1042 C1045 1.382 . S
C1043 C1041 1.384 . S
C1043 C1044 1.381 . S
C1043 H1067 0.930 . S
C1044 C1043 1.381 . S
C1044 C1046 1.381 . S
C1044 C1047 1.487 . S
C1045 C1042 1.382 . S
C1045 C1046 1.387 . S
C1045 H1068 0.930 . S
C1046 C1044 1.381 . S
C1046 C1045 1.387 . S
C1046 H1069 0.931 . S
C1047 C1040 1.399 . S
C1047 C1044 1.487 . S
C1047 N1079 1.343 . S
C1048 C1049 1.384 . S
C1048 C1050 1.384 . S
C1048 H1070 0.931 . S
C1049 C1048 1.384 . S
C1049 C1052 1.382 . S
C1050 C1048 1.384 . S
C1050 C1051 1.381 . S
C1050 H1071 0.930 . S
C1051 C1050 1.381 . S
C1051 C1053 1.381 . S
C1051 C1054 1.487 . S
C1052 C1049 1.382 . S
C1052 C1053 1.387 . S
C1052 H1072 0.930 . S
C1053 C1051 1.381 . S
C1053 C1052 1.387 . S
C1053 H1073 0.931 . S
C1054 C1051 1.487 . S
C1054 C1061 1.399 . S
C1054 N1079 1.343 . S
C1055 C1056 1.384 . S
C1055 C1057 1.384 . S
C1055 H1074 0.931 . S
C1056 C1055 1.384 . S
C1056 C1059 1.382 . S
C1057 C1055 1.384 . S
C1057 C1058 1.381 . S
C1057 H1075 0.930 . S
C1058 C1057 1.381 . S
C1058 C1060 1.381 . S
C1058 C1061 1.487 . S
C1059 C1056 1.382 . S
C1059 C1060 1.387 . S
C1059 H1076 0.930 . S
C1060 C1058 1.381 . S
C1060 C1059 1.387 . S
C1060 H1077 0.931 . S
C1061 C1054 1.399 . S
C1061 C1058 1.487 . S
C1061 N1078 1.343 . S
H1062 C1034 0.931 . S
H1063 C1036 0.930 . S
H1064 C1038 0.930 . S
H1065 C1039 0.931 . S
H1066 C1041 0.931 . S
H1067 C1043 0.930 . S
H1068 C1045 0.930 . S
H1069 C1046 0.931 . S
H1070 C1048 0.931 . S
H1071 C1050 0.930 . S
H1072 C1052 0.930 . S
H1073 C1053 0.931 . S
H1074 C1055 0.931 . S
H1075 C1057 0.930 . S
H1076 C1059 0.930 . S
H1077 C1060 0.931 . S
N1078 C1040 1.343 . S
N1078 C1061 1.343 . S
N1079 C1047 1.343 . S
N1079 C1054 1.343 . S
C1080 C1081 1.386 . S
C1080 C1082 1.391 1_655 S
C1080 H1096 0.951 . S
C1081 C1080 1.386 . S
C1081 C1085 1.363 . S
C1082 C1080 1.391 1_455 S
C1082 C1083 1.393 . S
C1082 H1097 0.950 . S
C1083 C1082 1.393 . S
C1083 C1084 1.380 . S
C1083 C1086 1.481 . S
C1084 C1083 1.380 . S
C1084 C1085 1.411 1_455 S
C1084 H1098 0.927 . S
C1085 C1081 1.363 . S
C1085 C1084 1.411 1_655 S
C1085 H1099 0.949 . S
C1086 C1083 1.481 . S
C1086 C1087 1.297 . S
C1086 H1100 0.950 . S
C1087 C1086 1.297 . S
C1087 C1088 1.479 . S
C1087 H1101 0.950 . S
C1088 C1087 1.479 . S
C1088 C1089 1.375 . S
C1088 C1094 1.404 . S
C1089 C1088 1.375 . S
C1089 C1090 1.382 . S
C1089 H1102 0.950 . S
C1090 C1089 1.382 . S
C1090 C1091 1.386 . S
C1090 H1103 0.950 1_455 S
C1091 C1090 1.386 . S
C1091 C1093 1.385 . S
H1092 C1094 0.949 . S
C1093 C1091 1.385 . S
C1093 C1094 1.385 . S
C1093 H1095 0.950 . S
C1094 C1088 1.404 . S
C1094 H1092 0.949 . S
C1094 C1093 1.385 . S
H1095 C1093 0.950 . S
H1096 C1080 0.951 . S
H1097 C1082 0.950 . S
H1098 C1084 0.927 . S
H1099 C1085 0.949 . S
H1100 C1086 0.950 . S
H1101 C1087 0.950 . S
H1102 C1089 0.950 . S
H1103 C1090 0.950 1_655 S
C1104 C1105 1.386 . S
C1104 C1106 1.383 . S
C1104 H1120 0.951 . S
C1105 C1104 1.386 . S
C1105 C1109 1.383 . S
C1106 C1104 1.383 . S
C1106 C1107 1.402 . S
C1106 H1121 0.951 . S
C1107 C1106 1.402 . S
C1107 C1108 1.375 . S
C1107 C1110 1.481 . S
C1108 C1107 1.375 . S
C1108 C1109 1.367 . S
C1108 H1122 0.951 . S
C1109 C1105 1.383 . S
C1109 C1108 1.367 . S
C1109 H1123 0.950 . S
C1110 C1107 1.481 . S
C1110 C1111 1.297 . S
C1110 H1124 0.950 . S
C1111 C1110 1.297 . S
C1111 C1112 1.479 . S
C1111 H1125 0.950 . S
C1112 C1111 1.479 . S
C1112 C1113 1.375 . S
C1112 C1118 1.404 . S
C1113 C1112 1.375 . S
C1113 C1114 1.369 . S
C1113 H1126 0.950 . S
C1114 C1113 1.369 . S
C1114 C1115 1.392 . S
C1114 H1127 0.951 . S
C1115 C1114 1.392 . S
C1115 C1117 1.384 . S
H1116 C1118 0.949 . S
C1117 C1115 1.384 . S
C1117 C1118 1.385 . S
C1117 H1119 0.950 . S
C1118 C1112 1.404 . S
C1118 H1116 0.949 . S
C1118 C1117 1.385 . S
H1119 C1117 0.950 . S
H1120 C1104 0.951 . S
H1121 C1106 0.951 . S
H1122 C1108 0.951 . S
H1123 C1109 0.950 . S
H1124 C1110 0.950 . S
H1125 C1111 0.950 . S
H1126 C1113 0.950 . S
H1127 C1114 0.951 . S
C1128 C1129 1.386 . S
C1128 C1130 1.383 . S
C1128 H1144 0.951 . S
C1129 C1128 1.386 . S
C1129 C1133 1.383 . S
C1130 C1128 1.383 . S
C1130 C1131 1.402 . S
C1130 H1145 0.951 . S
C1131 C1130 1.402 . S
C1131 C1132 1.375 . S
C1131 C1134 1.481 . S
C1132 C1131 1.375 . S
C1132 C1133 1.370 . S
C1132 H1146 0.948 1_545 S
C1133 C1129 1.383 . S
C1133 C1132 1.370 . S
C1133 H1147 0.950 1_545 S
C1134 C1131 1.481 . S
C1134 C1135 1.297 . S
C1134 H1148 0.928 1_545 S
C1135 C1134 1.297 . S
C1135 C1136 1.479 . S
C1135 H1149 0.950 . S
C1136 C1135 1.479 . S
C1136 C1137 1.375 . S
C1136 C1142 1.404 . S
C1137 C1136 1.375 . S
C1137 C1138 1.369 . S
C1137 H1150 0.950 . S
C1138 C1137 1.369 . S
C1138 C1139 1.392 . S
C1138 H1151 0.951 . S
C1139 C1138 1.392 . S
C1139 C1141 1.388 1_545 S
H1140 C1142 0.965 1_565 S
C1141 C1139 1.388 1_565 S
C1141 C1142 1.374 1_565 S
C1141 H1143 0.958 . S
C1142 C1136 1.404 . S
C1142 H1140 0.965 1_545 S
C1142 C1141 1.374 1_545 S
H1143 C1141 0.958 . S
H1144 C1128 0.951 . S
H1145 C1130 0.951 . S
H1146 C1132 0.948 1_565 S
H1147 C1133 0.950 1_565 S
H1148 C1134 0.928 1_565 S
H1149 C1135 0.950 . S
H1150 C1137 0.950 . S
H1151 C1138 0.951 . S
C1152 C1153 1.386 1_545 S
C1152 C1154 1.383 . S
C1152 H1168 0.951 . S
C1153 C1152 1.386 1_565 S
C1153 C1157 1.383 . S
C1154 C1152 1.383 . S
C1154 C1155 1.402 1_545 S
C1154 H1169 0.951 . S
C1155 C1154 1.402 1_565 S
C1155 C1156 1.375 . S
C1155 C1158 1.481 . S
C1156 C1155 1.375 . S
C1156 C1157 1.367 . S
C1156 H1170 0.951 . S
C1157 C1153 1.383 . S
C1157 C1156 1.367 . S
C1157 H1171 0.950 . S
C1158 C1155 1.481 . S
C1158 C1159 1.297 . S
C1158 H1172 0.950 . S
C1159 C1158 1.297 . S
C1159 C1160 1.479 . S
C1159 H1173 0.950 1_565 S
C1160 C1159 1.479 . S
C1160 C1161 1.375 1_565 S
C1160 C1166 1.404 . S
C1161 C1160 1.375 1_545 S
C1161 C1162 1.369 . S
C1161 H1174 0.950 . S
C1162 C1161 1.369 . S
C1162 C1163 1.392 1_545 S
C1162 H1175 0.951 . S
C1163 C1162 1.392 1_565 S
C1163 C1165 1.384 . S
H1164 C1166 0.949 . S
C1165 C1163 1.384 . S
C1165 C1166 1.385 . S
C1165 H1167 0.950 . S
C1166 C1160 1.404 . S
C1166 H1164 0.949 . S
C1166 C1165 1.385 . S
H1167 C1165 0.950 . S
H1168 C1152 0.951 . S
H1169 C1154 0.951 . S
H1170 C1156 0.951 . S
H1171 C1157 0.950 . S
H1172 C1158 0.950 . S
H1173 C1159 0.950 1_545 S
H1174 C1161 0.950 . S
H1175 C1162 0.951 . S
C1176 C1177 1.386 . S
C1176 C1178 1.383 . S
C1176 H1192 0.951 1_455 S
C1177 C1176 1.386 . S
C1177 C1181 1.383 . S
C1178 C1176 1.383 . S
C1178 C1179 1.402 . S
C1178 H1193 0.951 1_455 S
C1179 C1178 1.402 . S
C1179 C1180 1.375 . S
C1179 C1182 1.481 . S
C1180 C1179 1.375 . S
C1180 C1181 1.367 . S
C1180 H1194 0.951 . S
C1181 C1177 1.383 . S
C1181 C1180 1.367 . S
C1181 H1195 0.950 . S
C1182 C1179 1.481 . S
C1182 C1183 1.297 . S
C1182 H1196 0.950 . S
C1183 C1182 1.297 . S
C1183 C1184 1.479 . S
C1183 H1197 0.919 1_455 S
C1184 C1183 1.479 . S
C1184 C1185 1.375 1_455 S
C1184 C1190 1.404 . S
C1185 C1184 1.375 1_655 S
C1185 C1186 1.369 . S
C1185 H1198 0.950 . S
C1186 C1185 1.369 . S
C1186 C1187 1.392 1_655 S
C1186 H1199 0.951 . S
C1187 C1186 1.392 1_455 S
C1187 C1189 1.384 . S
H1188 C1190 0.949 . S
C1189 C1187 1.384 . S
C1189 C1190 1.385 . S
C1189 H1191 0.950 . S
C1190 C1184 1.404 . S
C1190 H1188 0.949 . S
C1190 C1189 1.385 . S
H1191 C1189 0.950 . S
H1192 C1176 0.951 1_655 S
H1193 C1178 0.951 1_655 S
H1194 C1180 0.951 . S
H1195 C1181 0.950 . S
H1196 C1182 0.950 . S
H1197 C1183 0.919 1_655 S
H1198 C1185 0.950 . S
H1199 C1186 0.951 . S
C1200 C1201 1.386 . S
C1200 C1202 1.383 . S
C1200 H1216 0.951 . S
C1201 C1200 1.386 . S
C1201 C1205 1.383 . S
C1202 C1200 1.383 . S
C1202 C1203 1.402 . S
C1202 H1217 0.951 . S
C1203 C1202 1.402 . S
C1203 C1204 1.375 . S
C1203 C1206 1.481 . S
C1204 C1203 1.375 . S
C1204 C1205 1.367 . S
C1204 H1218 0.951 . S
C1205 C1201 1.383 . S
C1205 C1204 1.367 . S
C1205 H1219 0.950 . S
C1206 C1203 1.481 . S
C1206 C1207 1.297 . S
C1206 H1220 0.950 . S
C1207 C1206 1.297 . S
C1207 C1208 1.479 . S
C1207 H1221 0.950 . S
C1208 C1207 1.479 . S
C1208 C1209 1.375 . S
C1208 C1214 1.404 . S
C1209 C1208 1.375 . S
C1209 C1210 1.369 . S
C1209 H1222 0.950 . S
C1210 C1209 1.369 . S
C1210 C1211 1.392 . S
C1210 H1223 0.951 . S
C1211 C1210 1.392 . S
C1211 C1213 1.384 . S
H1212 C1214 0.949 . S
C1213 C1211 1.384 . S
C1213 C1214 1.385 . S
C1213 H1215 0.950 . S
C1214 C1208 1.404 . S
C1214 H1212 0.949 . S
C1214 C1213 1.385 . S
H1215 C1213 0.950 . S
H1216 C1200 0.951 . S
H1217 C1202 0.951 . S
H1218 C1204 0.951 . S
H1219 C1205 0.950 . S
H1220 C1206 0.950 . S
H1221 C1207 0.950 . S
H1222 C1209 0.950 . S
H1223 C1210 0.951 . S
C1224 C1225 1.386 . S
C1224 C1226 1.383 . S
C1224 H1240 0.951 . S
C1225 C1224 1.386 . S
C1225 C1229 1.383 1_455 S
C1226 C1224 1.383 . S
C1226 C1227 1.402 . S
C1226 H1241 0.951 . S
C1227 C1226 1.402 . S
C1227 C1228 1.375 1_455 S
C1227 C1230 1.481 1_455 S
C1228 C1227 1.375 1_655 S
C1228 C1229 1.367 . S
C1228 H1242 0.951 . S
C1229 C1225 1.383 1_655 S
C1229 C1228 1.367 . S
C1229 H1243 0.950 . S
C1230 C1227 1.481 1_655 S
C1230 C1231 1.297 1_655 S
C1230 H1244 0.950 . S
C1231 C1230 1.297 1_455 S
C1231 C1232 1.460 . S
C1231 H1245 0.950 . S
C1232 C1231 1.460 . S
C1232 C1233 1.452 . S
C1232 C1238 1.358 1_455 S
C1233 C1232 1.452 . S
C1233 C1234 1.369 . S
C1233 H1246 0.950 . S
C1234 C1233 1.369 . S
C1234 C1235 1.392 . S
C1234 H1247 0.951 . S
C1235 C1234 1.392 . S
C1235 C1237 1.384 1_455 S
H1236 C1238 0.949 . S
C1237 C1235 1.384 1_655 S
C1237 C1238 1.385 . S
C1237 H1239 0.950 . S
C1238 C1232 1.358 1_655 S
C1238 H1236 0.949 . S
C1238 C1237 1.385 . S
H1239 C1237 0.950 . S
H1240 C1224 0.951 . S
H1241 C1226 0.951 . S
H1242 C1228 0.951 . S
H1243 C1229 0.950 . S
H1244 C1230 0.950 . S
H1245 C1231 0.950 . S
H1246 C1233 0.950 . S
H1247 C1234 0.951 . S
C1248 C1249 1.386 . S
C1248 C1250 1.383 . S
C1248 H1264 0.951 . S
C1249 C1248 1.386 . S
C1249 C1253 1.383 . S
C1250 C1248 1.383 . S
C1250 C1251 1.402 . S
C1250 H1265 0.951 . S
C1251 C1250 1.402 . S
C1251 C1252 1.375 . S
C1251 C1254 1.481 . S
C1252 C1251 1.375 . S
C1252 C1253 1.367 . S
C1252 H1266 0.951 . S
C1253 C1249 1.383 . S
C1253 C1252 1.367 . S
C1253 H1267 0.950 . S
C1254 C1251 1.481 . S
C1254 C1255 1.297 . S
C1254 H1268 0.950 . S
C1255 C1254 1.297 . S
C1255 C1256 1.479 . S
C1255 H1269 0.950 . S
C1256 C1255 1.479 . S
C1256 C1257 1.375 . S
C1256 C1262 1.404 . S
C1257 C1256 1.375 . S
C1257 C1258 1.369 . S
C1257 H1270 0.950 . S
C1258 C1257 1.369 . S
C1258 C1259 1.392 . S
C1258 H1271 0.951 . S
C1259 C1258 1.392 . S
C1259 C1261 1.384 . S
H1260 C1262 0.949 . S
C1261 C1259 1.384 . S
C1261 C1262 1.385 . S
C1261 H1263 0.950 . S
C1262 C1256 1.404 . S
C1262 H1260 0.949 . S
C1262 C1261 1.385 . S
H1263 C1261 0.950 . S
H1264 C1248 0.951 . S
H1265 C1250 0.951 . S
H1266 C1252 0.951 . S
H1267 C1253 0.950 . S
H1268 C1254 0.950 . S
H1269 C1255 0.950 . S
H1270 C1257 0.950 . S
H1271 C1258 0.951 . S
C1272 C1273 1.386 . S
C1272 C1274 1.383 . S
C1272 H1288 0.951 . S
C1273 C1272 1.386 . S
C1273 C1277 1.383 1_565 S
C1274 C1272 1.383 . S
C1274 C1275 1.402 1_565 S
C1274 H1289 0.951 . S
C1275 C1274 1.402 1_545 S
C1275 C1276 1.375 . S
C1275 C1278 1.481 . S
C1276 C1275 1.375 . S
C1276 C1277 1.367 . S
C1276 H1290 0.951 . S
C1277 C1273 1.383 1_545 S
C1277 C1276 1.367 . S
C1277 H1291 0.950 . S
C1278 C1275 1.481 . S
C1278 C1279 1.297 1_545 S
C1278 H1292 0.950 . S
C1279 C1278 1.297 1_565 S
C1279 C1280 1.513 . S
C1279 H1293 0.950 . S
C1280 C1279 1.513 . S
C1280 C1281 1.394 . S
C1280 C1286 1.360 1_565 S
C1281 C1280 1.394 . S
C1281 C1282 1.369 . S
C1281 H1294 0.950 . S
C1282 C1281 1.369 . S
C1282 C1283 1.392 . S
C1282 H1295 0.951 . S
C1283 C1282 1.392 . S
C1283 C1285 1.384 1_565 S
H1284 C1286 0.949 . S
C1285 C1283 1.384 1_545 S
C1285 C1286 1.385 . S
C1285 H1287 0.950 . S
C1286 C1280 1.360 1_545 S
C1286 H1284 0.949 . S
C1286 C1285 1.385 . S
H1287 C1285 0.950 . S
H1288 C1272 0.951 . S
H1289 C1274 0.951 . S
H1290 C1276 0.951 . S
H1291 C1277 0.950 . S
H1292 C1278 0.950 . S
H1293 C1279 0.950 . S
H1294 C1281 0.950 . S
H1295 C1282 0.951 . S
C1296 C1297 1.386 . S
C1296 C1298 1.383 . S
C1296 H1312 0.951 . S
C1297 C1296 1.386 . S
C1297 C1301 1.383 1_545 S
C1298 C1296 1.383 . S
C1298 C1299 1.402 . S
C1298 H1313 0.951 . S
C1299 C1298 1.402 . S
C1299 C1300 1.375 1_545 S
C1299 C1302 1.481 . S
C1300 C1299 1.375 1_565 S
C1300 C1301 1.367 . S
C1300 H1314 0.951 . S
C1301 C1297 1.383 1_565 S
C1301 C1300 1.367 . S
C1301 H1315 0.950 . S
C1302 C1299 1.481 . S
C1302 C1303 1.297 . S
C1302 H1316 0.950 1_545 S
C1303 C1302 1.297 . S
C1303 C1304 1.479 . S
C1303 H1317 0.950 . S
C1304 C1303 1.479 . S
C1304 C1305 1.375 . S
C1304 C1310 1.404 1_545 S
C1305 C1304 1.375 . S
C1305 C1306 1.369 . S
C1305 H1318 0.950 . S
C1306 C1305 1.369 . S
C1306 C1307 1.392 . S
C1306 H1319 0.951 . S
C1307 C1306 1.392 . S
C1307 C1309 1.384 1_545 S
H1308 C1310 0.949 . S
C1309 C1307 1.384 1_565 S
C1309 C1310 1.385 . S
C1309 H1311 0.950 . S
C1310 C1304 1.404 1_565 S
C1310 H1308 0.949 . S
C1310 C1309 1.385 . S
H1311 C1309 0.950 . S
H1312 C1296 0.951 . S
H1313 C1298 0.951 . S
H1314 C1300 0.951 . S
H1315 C1301 0.950 . S
H1316 C1302 0.950 1_565 S
H1317 C1303 0.950 . S
H1318 C1305 0.950 . S
H1319 C1306 0.951 . S
C1320 C1321 1.386 . S
C1320 C1322 1.383 . S
C1320 H1336 0.951 . S
C1321 C1320 1.386 . S
C1321 C1325 1.447 . S
C1322 C1320 1.383 . S
C1322 C1323 1.402 . S
C1322 H1337 0.951 . S
C1323 C1322 1.402 . S
C1323 C1324 1.378 1_655 S
C1323 C1326 1.481 . S
C1324 C1323 1.378 1_455 S
C1324 C1325 1.336 1_455 S
C1324 H1338 0.945 . S
C1325 C1321 1.447 . S
C1325 C1324 1.336 1_655 S
C1325 H1339 0.924 1_655 S
C1326 C1323 1.481 . S
C1326 C1327 1.297 . S
C1326 H1340 0.894 1_655 S
C1327 C1326 1.297 . S
C1327 C1328 1.479 . S
C1327 H1341 0.950 . S
C1328 C1327 1.479 . S
C1328 C1329 1.375 . S
C1328 C1334 1.404 . S
C1329 C1328 1.375 . S
C1329 C1330 1.369 . S
C1329 H1342 0.950 . S
C1330 C1329 1.369 . S
C1330 C1331 1.392 . S
C1330 H1343 0.951 . S
C1331 C1330 1.392 . S
C1331 C1333 1.378 1_655 S
H1332 C1334 0.925 1_455 S
C1333 C1331 1.378 1_455 S
C1333 C1334 1.375 1_455 S
C1333 H1335 0.967 . S
C1334 C1328 1.404 . S
C1334 H1332 0.925 1_655 S
C1334 C1333 1.375 1_655 S
H1335 C1333 0.967 . S
H1336 C1320 0.951 . S
H1337 C1322 0.951 . S
H1338 C1324 0.945 . S
H1339 C1325 0.924 1_455 S
H1340 C1326 0.894 1_455 S
H1341 C1327 0.950 . S
H1342 C1329 0.950 . S
H1343 C1330 0.951 . S
C1344 C1345 1.386 . S
C1344 C1346 1.383 . S
C1344 H1360 0.951 . S
C1345 C1344 1.386 . S
C1345 C1349 1.383 . S
C1346 C1344 1.383 . S
C1346 C1347 1.402 . S
C1346 H1361 0.951 . S
C1347 C1346 1.402 . S
C1347 C1348 1.375 . S
C1347 C1350 1.481 . S
C1348 C1347 1.375 . S
C1348 C1349 1.367 . S
C1348 H1362 0.951 . S
C1349 C1345 1.383 . S
C1349 C1348 1.367 . S
C1349 H1363 0.950 . S
C1350 C1347 1.481 . S
C1350 C1351 1.297 . S
C1350 H1364 0.950 . S
C1351 C1350 1.297 . S
C1351 C1352 1.479 . S
C1351 H1365 0.950 . S
C1352 C1351 1.479 . S
C1352 C1353 1.375 . S
C1352 C1358 1.404 . S
C1353 C1352 1.375 . S
C1353 C1354 1.369 . S
C1353 H1366 0.950 . S
C1354 C1353 1.369 . S
C1354 C1355 1.392 . S
C1354 H1367 0.951 . S
C1355 C1354 1.392 . S
C1355 C1357 1.384 . S
H1356 C1358 0.949 . S
C1357 C1355 1.384 . S
C1357 C1358 1.385 . S
C1357 H1359 0.950 . S
C1358 C1352 1.404 . S
C1358 H1356 0.949 . S
C1358 C1357 1.385 . S
H1359 C1357 0.950 . S
H1360 C1344 0.951 . S
H1361 C1346 0.951 . S
H1362 C1348 0.951 . S
H1363 C1349 0.950 . S
H1364 C1350 0.950 . S
H1365 C1351 0.950 . S
H1366 C1353 0.950 . S
H1367 C1354 0.951 . S
C1368 C1369 1.386 . S
C1368 C1370 1.383 . S
C1368 H1384 0.951 . S
C1369 C1368 1.386 . S
C1369 C1373 1.383 . S
C1370 C1368 1.383 . S
C1370 C1371 1.402 . S
C1370 H1385 0.951 . S
C1371 C1370 1.402 . S
C1371 C1372 1.375 . S
C1371 C1374 1.481 . S
C1372 C1371 1.375 . S
C1372 C1373 1.367 . S
C1372 H1386 0.951 . S
C1373 C1369 1.383 . S
C1373 C1372 1.367 . S
C1373 H1387 0.950 . S
C1374 C1371 1.481 . S
C1374 C1375 1.297 . S
C1374 H1388 0.950 . S
C1375 C1374 1.297 . S
C1375 C1376 1.479 . S
C1375 H1389 0.950 . S
C1376 C1375 1.479 . S
C1376 C1377 1.375 . S
C1376 C1382 1.404 . S
C1377 C1376 1.375 . S
C1377 C1378 1.369 . S
C1377 H1390 0.950 . S
C1378 C1377 1.369 . S
C1378 C1379 1.392 . S
C1378 H1391 0.951 . S
C1379 C1378 1.392 . S
C1379 C1381 1.384 . S
H1380 C1382 0.949 . S
C1381 C1379 1.384 . S
C1381 C1382 1.385 . S
C1381 H1383 0.950 . S
C1382 C1376 1.404 . S
C1382 H1380 0.949 . S
C1382 C1381 1.385 . S
H1383 C1381 0.950 . S
H1384 C1368 0.951 . S
H1385 C1370 0.951 . S
H1386 C1372 0.951 . S
H1387 C1373 0.950 . S
H1388 C1374 0.950 . S
H1389 C1375 0.950 . S
H1390 C1377 0.950 . S
H1391 C1378 0.951 . S
C1392 C1393 1.386 . S
C1392 C1394 1.383 . S
C1392 H1408 0.951 . S
C1393 C1392 1.386 . S
C1393 C1397 1.383 . S
C1394 C1392 1.383 . S
C1394 C1395 1.402 . S
C1394 H1409 0.951 . S
C1395 C1394 1.402 . S
C1395 C1396 1.375 . S
C1395 C1398 1.481 . S
C1396 C1395 1.375 . S
C1396 C1397 1.367 . S
C1396 H1410 0.951 . S
C1397 C1393 1.383 . S
C1397 C1396 1.367 . S
C1397 H1411 0.950 . S
C1398 C1395 1.481 . S
C1398 C1399 1.297 . S
C1398 H1412 0.950 . S
C1399 C1398 1.297 . S
C1399 C1400 1.479 . S
C1399 H1413 0.950 . S
C1400 C1399 1.479 . S
C1400 C1401 1.375 . S
C1400 C1406 1.404 . S
C1401 C1400 1.375 . S
C1401 C1402 1.369 . S
C1401 H1414 0.950 . S
C1402 C1401 1.369 . S
C1402 C1403 1.392 . S
C1402 H1415 0.951 . S
C1403 C1402 1.392 . S
C1403 C1405 1.384 . S
H1404 C1406 0.949 . S
C1405 C1403 1.384 . S
C1405 C1406 1.385 . S
C1405 H1407 0.950 . S
C1406 C1400 1.404 . S
C1406 H1404 0.949 . S
C1406 C1405 1.385 . S
H1407 C1405 0.950 . S
H1408 C1392 0.951 . S
H1409 C1394 0.951 . S
H1410 C1396 0.951 . S
H1411 C1397 0.950 . S
H1412 C1398 0.950 . S
H1413 C1399 0.950 . S
H1414 C1401 0.950 . S
H1415 C1402 0.951 . S
C1416 C1417 1.386 . S
C1416 C1418 1.383 . S
C1416 H1432 0.951 . S
C1417 C1416 1.386 . S
C1417 C1421 1.383 . S
C1418 C1416 1.383 . S
C1418 C1419 1.402 . S
C1418 H1433 0.951 . S
C1419 C1418 1.402 . S
C1419 C1420 1.375 . S
C1419 C1422 1.481 . S
C1420 C1419 1.375 . S
C1420 C1421 1.367 . S
C1420 H1434 0.951 . S
C1421 C1417 1.383 . S
C1421 C1420 1.367 . S
C1421 H1435 0.950 . S
C1422 C1419 1.481 . S
C1422 C1423 1.297 . S
C1422 H1436 0.950 . S
C1423 C1422 1.297 . S
C1423 C1424 1.479 . S
C1423 H1437 0.950 . S
C1424 C1423 1.479 . S
C1424 C1425 1.375 . S
C1424 C1430 1.404 . S
C1425 C1424 1.375 . S
C1425 C1426 1.369 . S
C1425 H1438 0.950 . S
C1426 C1425 1.369 . S
C1426 C1427 1.392 . S
C1426 H1439 0.951 . S
C1427 C1426 1.392 . S
C1427 C1429 1.384 . S
H1428 C1430 0.949 . S
C1429 C1427 1.384 . S
C1429 C1430 1.385 . S
C1429 H1431 0.950 . S
C1430 C1424 1.404 . S
C1430 H1428 0.949 . S
C1430 C1429 1.385 . S
H1431 C1429 0.950 . S
H1432 C1416 0.951 . S
H1433 C1418 0.951 . S
H1434 C1420 0.951 . S
H1435 C1421 0.950 . S
H1436 C1422 0.950 . S
H1437 C1423 0.950 . S
H1438 C1425 0.950 . S
H1439 C1426 0.951 . S
C1440 C1441 1.386 . S
C1440 C1442 1.383 . S
C1440 H1456 0.951 . S
C1441 C1440 1.386 . S
C1441 C1445 1.383 . S
C1442 C1440 1.383 . S
C1442 C1443 1.402 . S
C1442 H1457 0.951 . S
C1443 C1442 1.402 . S
C1443 C1444 1.375 . S
C1443 C1446 1.481 . S
C1444 C1443 1.375 . S
C1444 C1445 1.367 . S
C1444 H1458 0.951 . S
C1445 C1441 1.383 . S
C1445 C1444 1.367 . S
C1445 H1459 0.950 . S
C1446 C1443 1.481 . S
C1446 C1447 1.297 . S
C1446 H1460 0.950 . S
C1447 C1446 1.297 . S
C1447 C1448 1.479 . S
C1447 H1461 0.950 . S
C1448 C1447 1.479 . S
C1448 C1449 1.375 . S
C1448 C1454 1.404 . S
C1449 C1448 1.375 . S
C1449 C1450 1.369 . S
C1449 H1462 0.950 . S
C1450 C1449 1.369 . S
C1450 C1451 1.392 . S
C1450 H1463 0.951 . S
C1451 C1450 1.392 . S
C1451 C1453 1.384 . S
H1452 C1454 0.949 . S
C1453 C1451 1.384 . S
C1453 C1454 1.385 . S
C1453 H1455 0.950 . S
C1454 C1448 1.404 . S
C1454 H1452 0.949 . S
C1454 C1453 1.385 . S
H1455 C1453 0.950 . S
H1456 C1440 0.951 . S
H1457 C1442 0.951 . S
H1458 C1444 0.951 . S
H1459 C1445 0.950 . S
H1460 C1446 0.950 . S
H1461 C1447 0.950 . S
H1462 C1449 0.950 . S
H1463 C1450 0.951 . S
C1464 C1465 1.386 . S
C1464 C1466 1.383 . S
C1464 H1480 0.951 . S
C1465 C1464 1.386 . S
C1465 C1469 1.383 . S
C1466 C1464 1.383 . S
C1466 C1467 1.402 . S
C1466 H1481 0.951 . S
C1467 C1466 1.402 . S
C1467 C1468 1.375 . S
C1467 C1470 1.481 . S
C1468 C1467 1.375 . S
C1468 C1469 1.367 . S
C1468 H1482 0.951 . S
C1469 C1465 1.383 . S
C1469 C1468 1.367 . S
C1469 H1483 0.950 . S
C1470 C1467 1.481 . S
C1470 C1471 1.297 . S
C1470 H1484 0.950 . S
C1471 C1470 1.297 . S
C1471 C1472 1.479 . S
C1471 H1485 0.950 . S
C1472 C1471 1.479 . S
C1472 C1473 1.375 . S
C1472 C1478 1.404 . S
C1473 C1472 1.375 . S
C1473 C1474 1.369 . S
C1473 H1486 0.950 . S
C1474 C1473 1.369 . S
C1474 C1475 1.392 . S
C1474 H1487 0.951 . S
C1475 C1474 1.392 . S
C1475 C1477 1.384 . S
H1476 C1478 0.949 . S
C1477 C1475 1.384 . S
C1477 C1478 1.385 . S
C1477 H1479 0.950 . S
C1478 C1472 1.404 . S
C1478 H1476 0.949 . S
C1478 C1477 1.385 . S
H1479 C1477 0.950 . S
H1480 C1464 0.951 . S
H1481 C1466 0.951 . S
H1482 C1468 0.951 . S
H1483 C1469 0.950 . S
H1484 C1470 0.950 . S
H1485 C1471 0.950 . S
H1486 C1473 0.950 . S
H1487 C1474 0.951 . S
C1488 C1489 1.386 . S
C1488 C1490 1.383 . S
C1488 H1504 0.951 . S
C1489 C1488 1.386 . S
C1489 C1493 1.383 . S
C1490 C1488 1.383 . S
C1490 C1491 1.402 . S
C1490 H1505 0.951 . S
C1491 C1490 1.402 . S
C1491 C1492 1.375 . S
C1491 C1494 1.481 . S
C1492 C1491 1.375 . S
C1492 C1493 1.367 . S
C1492 H1506 0.951 . S
C1493 C1489 1.383 . S
C1493 C1492 1.367 . S
C1493 H1507 0.950 . S
C1494 C1491 1.481 . S
C1494 C1495 1.297 . S
C1494 H1508 0.950 . S
C1495 C1494 1.297 . S
C1495 C1496 1.479 . S
C1495 H1509 0.950 . S
C1496 C1495 1.479 . S
C1496 C1497 1.375 . S
C1496 C1502 1.404 . S
C1497 C1496 1.375 . S
C1497 C1498 1.369 . S
C1497 H1510 0.950 . S
C1498 C1497 1.369 . S
C1498 C1499 1.392 . S
C1498 H1511 0.951 . S
C1499 C1498 1.392 . S
C1499 C1501 1.384 . S
H1500 C1502 0.949 . S
C1501 C1499 1.384 . S
C1501 C1502 1.385 . S
C1501 H1503 0.950 . S
C1502 C1496 1.404 . S
C1502 H1500 0.949 . S
C1502 C1501 1.385 . S
H1503 C1501 0.950 . S
H1504 C1488 0.951 . S
H1505 C1490 0.951 . S
H1506 C1492 0.951 . S
H1507 C1493 0.950 . S
H1508 C1494 0.950 . S
H1509 C1495 0.950 . S
H1510 C1497 0.950 . S
H1511 C1498 0.951 . S
C1512 C1513 1.386 . S
C1512 C1514 1.383 . S
C1512 H1528 0.951 . S
C1513 C1512 1.386 . S
C1513 C1517 1.383 . S
C1514 C1512 1.383 . S
C1514 C1515 1.402 . S
C1514 H1529 0.951 . S
C1515 C1514 1.402 . S
C1515 C1516 1.375 . S
C1515 C1518 1.481 . S
C1516 C1515 1.375 . S
C1516 C1517 1.367 . S
C1516 H1530 0.951 . S
C1517 C1513 1.383 . S
C1517 C1516 1.367 . S
C1517 H1531 0.950 . S
C1518 C1515 1.481 . S
C1518 C1519 1.297 . S
C1518 H1532 0.950 . S
C1519 C1518 1.297 . S
C1519 C1520 1.479 . S
C1519 H1533 0.950 . S
C1520 C1519 1.479 . S
C1520 C1521 1.375 . S
C1520 C1526 1.404 . S
C1521 C1520 1.375 . S
C1521 C1522 1.369 . S
C1521 H1534 0.950 . S
C1522 C1521 1.369 . S
C1522 C1523 1.392 . S
C1522 H1535 0.951 . S
C1523 C1522 1.392 . S
C1523 C1525 1.384 . S
H1524 C1526 0.949 . S
C1525 C1523 1.384 . S
C1525 C1526 1.385 . S
C1525 H1527 0.950 . S
C1526 C1520 1.404 . S
C1526 H1524 0.949 . S
C1526 C1525 1.385 . S
H1527 C1525 0.950 . S
H1528 C1512 0.951 . S
H1529 C1514 0.951 . S
H1530 C1516 0.951 . S
H1531 C1517 0.950 . S
H1532 C1518 0.950 . S
H1533 C1519 0.950 . S
H1534 C1521 0.950 . S
H1535 C1522 0.951 . S
C1536 C1537 1.386 . S
C1536 C1538 1.383 . S
C1536 H1552 0.951 . S
C1537 C1536 1.386 . S
C1537 C1541 1.383 . S
C1538 C1536 1.383 . S
C1538 C1539 1.402 . S
C1538 H1553 0.951 . S
C1539 C1538 1.402 . S
C1539 C1540 1.375 . S
C1539 C1542 1.481 . S
C1540 C1539 1.375 . S
C1540 C1541 1.367 . S
C1540 H1554 0.951 . S
C1541 C1537 1.383 . S
C1541 C1540 1.367 . S
C1541 H1555 0.950 . S
C1542 C1539 1.481 . S
C1542 C1543 1.297 . S
C1542 H1556 0.950 . S
C1543 C1542 1.297 . S
C1543 C1544 1.479 . S
C1543 H1557 0.950 . S
C1544 C1543 1.479 . S
C1544 C1545 1.375 . S
C1544 C1550 1.404 . S
C1545 C1544 1.375 . S
C1545 C1546 1.369 . S
C1545 H1558 0.950 . S
C1546 C1545 1.369 . S
C1546 C1547 1.392 . S
C1546 H1559 0.951 . S
C1547 C1546 1.392 . S
C1547 C1549 1.384 . S
H1548 C1550 0.949 . S
C1549 C1547 1.384 . S
C1549 C1550 1.385 . S
C1549 H1551 0.950 . S
C1550 C1544 1.404 . S
C1550 H1548 0.949 . S
C1550 C1549 1.385 . S
H1551 C1549 0.950 . S
H1552 C1536 0.951 . S
H1553 C1538 0.951 . S
H1554 C1540 0.951 . S
H1555 C1541 0.950 . S
H1556 C1542 0.950 . S
H1557 C1543 0.950 . S
H1558 C1545 0.950 . S
H1559 C1546 0.951 . S
C1560 C1561 1.386 . S
C1560 C1562 1.383 . S
C1560 H1576 0.951 . S
C1561 C1560 1.386 . S
C1561 C1565 1.383 . S
C1562 C1560 1.383 . S
C1562 C1563 1.402 . S
C1562 H1577 0.951 . S
C1563 C1562 1.402 . S
C1563 C1564 1.375 . S
C1563 C1566 1.481 . S
C1564 C1563 1.375 . S
C1564 C1565 1.367 . S
C1564 H1578 0.951 . S
C1565 C1561 1.383 . S
C1565 C1564 1.367 . S
C1565 H1579 0.950 . S
C1566 C1563 1.481 . S
C1566 C1567 1.297 . S
C1566 H1580 0.950 . S
C1567 C1566 1.297 . S
C1567 C1568 1.479 . S
C1567 H1581 0.950 . S
C1568 C1567 1.479 . S
C1568 C1569 1.375 . S
C1568 C1574 1.404 . S
C1569 C1568 1.375 . S
C1569 C1570 1.369 . S
C1569 H1582 0.950 . S
C1570 C1569 1.369 . S
C1570 C1571 1.392 . S
C1570 H1583 0.951 . S
C1571 C1570 1.392 . S
C1571 C1573 1.384 . S
H1572 C1574 0.949 . S
C1573 C1571 1.384 . S
C1573 C1574 1.385 . S
C1573 H1575 0.950 . S
C1574 C1568 1.404 . S
C1574 H1572 0.949 . S
C1574 C1573 1.385 . S
H1575 C1573 0.950 . S
H1576 C1560 0.951 . S
H1577 C1562 0.951 . S
H1578 C1564 0.951 . S
H1579 C1565 0.950 . S
H1580 C1566 0.950 . S
H1581 C1567 0.950 . S
H1582 C1569 0.950 . S
H1583 C1570 0.951 . S
C1584 C1585 1.386 . S
C1584 C1586 1.383 . S
C1584 H1600 0.951 . S
C1585 C1584 1.386 . S
C1585 C1589 1.383 . S
C1586 C1584 1.383 . S
C1586 C1587 1.402 . S
C1586 H1601 0.951 . S
C1587 C1586 1.402 . S
C1587 C1588 1.375 . S
C1587 C1590 1.481 . S
C1588 C1587 1.375 . S
C1588 C1589 1.367 . S
C1588 H1602 0.951 . S
C1589 C1585 1.383 . S
C1589 C1588 1.367 . S
C1589 H1603 0.950 . S
C1590 C1587 1.481 . S
C1590 C1591 1.297 . S
C1590 H1604 0.950 . S
C1591 C1590 1.297 . S
C1591 C1592 1.479 . S
C1591 H1605 0.950 . S
C1592 C1591 1.479 . S
C1592 C1593 1.375 . S
C1592 C1598 1.404 . S
C1593 C1592 1.375 . S
C1593 C1594 1.369 . S
C1593 H1606 0.950 . S
C1594 C1593 1.369 . S
C1594 C1595 1.392 . S
C1594 H1607 0.951 . S
C1595 C1594 1.392 . S
C1595 C1597 1.384 . S
H1596 C1598 0.949 . S
C1597 C1595 1.384 . S
C1597 C1598 1.385 . S
C1597 H1599 0.950 . S
C1598 C1592 1.404 . S
C1598 H1596 0.949 . S
C1598 C1597 1.385 . S
H1599 C1597 0.950 . S
H1600 C1584 0.951 . S
H1601 C1586 0.951 . S
H1602 C1588 0.951 . S
H1603 C1589 0.950 . S
H1604 C1590 0.950 . S
H1605 C1591 0.950 . S
H1606 C1593 0.950 . S
H1607 C1594 0.951 . S
C1608 C1609 1.386 . S
C1608 C1610 1.383 . S
C1608 H1624 0.951 . S
C1609 C1608 1.386 . S
C1609 C1613 1.383 . S
C1610 C1608 1.383 . S
C1610 C1611 1.402 . S
C1610 H1625 0.951 . S
C1611 C1610 1.402 . S
C1611 C1612 1.375 . S
C1611 C1614 1.481 . S
C1612 C1611 1.375 . S
C1612 C1613 1.367 . S
C1612 H1626 0.951 . S
C1613 C1609 1.383 . S
C1613 C1612 1.367 . S
C1613 H1627 0.950 . S
C1614 C1611 1.481 . S
C1614 C1615 1.297 . S
C1614 H1628 0.950 . S
C1615 C1614 1.297 . S
C1615 C1616 1.479 . S
C1615 H1629 0.950 . S
C1616 C1615 1.479 . S
C1616 C1617 1.375 . S
C1616 C1622 1.404 . S
C1617 C1616 1.375 . S
C1617 C1618 1.369 . S
C1617 H1630 0.950 . S
C1618 C1617 1.369 . S
C1618 C1619 1.392 . S
C1618 H1631 0.951 . S
C1619 C1618 1.392 . S
C1619 C1621 1.384 . S
H1620 C1622 0.949 . S
C1621 C1619 1.384 . S
C1621 C1622 1.385 . S
C1621 H1623 0.950 . S
C1622 C1616 1.404 . S
C1622 H1620 0.949 . S
C1622 C1621 1.385 . S
H1623 C1621 0.950 . S
H1624 C1608 0.951 . S
H1625 C1610 0.951 . S
H1626 C1612 0.951 . S
H1627 C1613 0.950 . S
H1628 C1614 0.950 . S
H1629 C1615 0.950 . S
H1630 C1617 0.950 . S
H1631 C1618 0.951 . S
C1632 C1633 1.386 . S
C1632 C1634 1.383 . S
C1632 H1648 0.951 . S
C1633 C1632 1.386 . S
C1633 C1637 1.383 . S
C1634 C1632 1.383 . S
C1634 C1635 1.402 . S
C1634 H1649 0.951 . S
C1635 C1634 1.402 . S
C1635 C1636 1.375 . S
C1635 C1638 1.481 . S
C1636 C1635 1.375 . S
C1636 C1637 1.367 . S
C1636 H1650 0.951 . S
C1637 C1633 1.383 . S
C1637 C1636 1.367 . S
C1637 H1651 0.950 . S
C1638 C1635 1.481 . S
C1638 C1639 1.297 . S
C1638 H1652 0.950 . S
C1639 C1638 1.297 . S
C1639 C1640 1.479 . S
C1639 H1653 0.950 . S
C1640 C1639 1.479 . S
C1640 C1641 1.375 . S
C1640 C1646 1.404 . S
C1641 C1640 1.375 . S
C1641 C1642 1.369 . S
C1641 H1654 0.950 . S
C1642 C1641 1.369 . S
C1642 C1643 1.392 . S
C1642 H1655 0.951 . S
C1643 C1642 1.392 . S
C1643 C1645 1.384 . S
H1644 C1646 0.949 . S
C1645 C1643 1.384 . S
C1645 C1646 1.385 . S
C1645 H1647 0.950 . S
C1646 C1640 1.404 . S
C1646 H1644 0.949 . S
C1646 C1645 1.385 . S
H1647 C1645 0.950 . S
H1648 C1632 0.951 . S
H1649 C1634 0.951 . S
H1650 C1636 0.951 . S
H1651 C1637 0.950 . S
H1652 C1638 0.950 . S
H1653 C1639 0.950 . S
H1654 C1641 0.950 . S
H1655 C1642 0.951 . S
C1656 C1657 1.386 . S
C1656 C1658 1.383 . S
C1656 H1672 0.951 . S
C1657 C1656 1.386 . S
C1657 C1661 1.383 . S
C1658 C1656 1.383 . S
C1658 C1659 1.402 . S
C1658 H1673 0.951 . S
C1659 C1658 1.402 . S
C1659 C1660 1.375 . S
C1659 C1662 1.481 . S
C1660 C1659 1.375 . S
C1660 C1661 1.367 . S
C1660 H1674 0.951 . S
C1661 C1657 1.383 . S
C1661 C1660 1.367 . S
C1661 H1675 0.950 . S
C1662 C1659 1.481 . S
C1662 C1663 1.297 . S
C1662 H1676 0.950 . S
C1663 C1662 1.297 . S
C1663 C1664 1.479 . S
C1663 H1677 0.950 . S
C1664 C1663 1.479 . S
C1664 C1665 1.375 . S
C1664 C1670 1.404 . S
C1665 C1664 1.375 . S
C1665 C1666 1.369 . S
C1665 H1678 0.950 . S
C1666 C1665 1.369 . S
C1666 C1667 1.392 . S
C1666 H1679 0.951 . S
C1667 C1666 1.392 . S
C1667 C1669 1.384 . S
H1668 C1670 0.949 . S
C1669 C1667 1.384 . S
C1669 C1670 1.385 . S
C1669 H1671 0.950 . S
C1670 C1664 1.404 . S
C1670 H1668 0.949 . S
C1670 C1669 1.385 . S
H1671 C1669 0.950 . S
H1672 C1656 0.951 . S
H1673 C1658 0.951 . S
H1674 C1660 0.951 . S
H1675 C1661 0.950 . S
H1676 C1662 0.950 . S
H1677 C1663 0.950 . S
H1678 C1665 0.950 . S
H1679 C1666 0.951 . S
C1680 C1681 1.386 . S
C1680 C1682 1.383 . S
C1680 H1696 0.951 . S
C1681 C1680 1.386 . S
C1681 C1685 1.383 . S
C1682 C1680 1.383 . S
C1682 C1683 1.402 . S
C1682 H1697 0.951 . S
C1683 C1682 1.402 . S
C1683 C1684 1.375 . S
C1683 C1686 1.481 . S
C1684 C1683 1.375 . S
C1684 C1685 1.367 . S
C1684 H1698 0.951 . S
C1685 C1681 1.383 . S
C1685 C1684 1.367 . S
C1685 H1699 0.950 . S
C1686 C1683 1.481 . S
C1686 C1687 1.297 . S
C1686 H1700 0.950 . S
C1687 C1686 1.297 . S
C1687 C1688 1.479 . S
C1687 H1701 0.950 . S
C1688 C1687 1.479 . S
C1688 C1689 1.375 . S
C1688 C1694 1.404 . S
C1689 C1688 1.375 . S
C1689 C1690 1.369 . S
C1689 H1702 0.950 . S
C1690 C1689 1.369 . S
C1690 C1691 1.392 . S
C1690 H1703 0.951 . S
C1691 C1690 1.392 . S
C1691 C1693 1.384 . S
H1692 C1694 0.949 . S
C1693 C1691 1.384 . S
C1693 C1694 1.385 . S
C1693 H1695 0.950 . S
C1694 C1688 1.404 . S
C1694 H1692 0.949 . S
C1694 C1693 1.385 . S
H1695 C1693 0.950 . S
H1696 C1680 0.951 . S
H1697 C1682 0.951 . S
H1698 C1684 0.951 . S
H1699 C1685 0.950 . S
H1700 C1686 0.950 . S
H1701 C1687 0.950 . S
H1702 C1689 0.950 . S
H1703 C1690 0.951 . S
C1704 C1705 1.386 . S
C1704 C1706 1.383 . S
C1704 H1720 0.951 . S
C1705 C1704 1.386 . S
C1705 C1709 1.383 . S
C1706 C1704 1.383 . S
C1706 C1707 1.402 . S
C1706 H1721 0.951 . S
C1707 C1706 1.402 . S
C1707 C1708 1.375 . S
C1707 C1710 1.481 . S
C1708 C1707 1.375 . S
C1708 C1709 1.367 . S
C1708 H1722 0.951 . S
C1709 C1705 1.383 . S
C1709 C1708 1.367 . S
C1709 H1723 0.950 . S
C1710 C1707 1.481 . S
C1710 C1711 1.297 . S
C1710 H1724 0.950 . S
C1711 C1710 1.297 . S
C1711 C1712 1.479 . S
C1711 H1725 0.950 . S
C1712 C1711 1.479 . S
C1712 C1713 1.375 . S
C1712 C1718 1.404 . S
C1713 C1712 1.375 . S
C1713 C1714 1.369 . S
C1713 H1726 0.950 . S
C1714 C1713 1.369 . S
C1714 C1715 1.392 . S
C1714 H1727 0.951 . S
C1715 C1714 1.392 . S
C1715 C1717 1.384 . S
H1716 C1718 0.949 . S
C1717 C1715 1.384 . S
C1717 C1718 1.385 . S
C1717 H1719 0.950 . S
C1718 C1712 1.404 . S
C1718 H1716 0.949 . S
C1718 C1717 1.385 . S
H1719 C1717 0.950 . S
H1720 C1704 0.951 . S
H1721 C1706 0.951 . S
H1722 C1708 0.951 . S
H1723 C1709 0.950 . S
H1724 C1710 0.950 . S
H1725 C1711 0.950 . S
H1726 C1713 0.950 . S
H1727 C1714 0.951 . S
C1728 C1729 1.386 . S
C1728 C1730 1.383 . S
C1728 H1744 0.951 . S
C1729 C1728 1.386 . S
C1729 C1733 1.383 . S
C1730 C1728 1.383 . S
C1730 C1731 1.402 . S
C1730 H1745 0.951 . S
C1731 C1730 1.402 . S
C1731 C1732 1.375 . S
C1731 C1734 1.481 . S
C1732 C1731 1.375 . S
C1732 C1733 1.367 . S
C1732 H1746 0.951 . S
C1733 C1729 1.383 . S
C1733 C1732 1.367 . S
C1733 H1747 0.950 . S
C1734 C1731 1.481 . S
C1734 C1735 1.297 . S
C1734 H1748 0.950 . S
C1735 C1734 1.297 . S
C1735 C1736 1.479 . S
C1735 H1749 0.950 . S
C1736 C1735 1.479 . S
C1736 C1737 1.375 . S
C1736 C1742 1.404 . S
C1737 C1736 1.375 . S
C1737 C1738 1.369 . S
C1737 H1750 0.950 . S
C1738 C1737 1.369 . S
C1738 C1739 1.392 . S
C1738 H1751 0.951 . S
C1739 C1738 1.392 . S
C1739 C1741 1.384 . S
H1740 C1742 0.949 . S
C1741 C1739 1.384 . S
C1741 C1742 1.385 . S
C1741 H1743 0.950 . S
C1742 C1736 1.404 . S
C1742 H1740 0.949 . S
C1742 C1741 1.385 . S
H1743 C1741 0.950 . S
H1744 C1728 0.951 . S
H1745 C1730 0.951 . S
H1746 C1732 0.951 . S
H1747 C1733 0.950 . S
H1748 C1734 0.950 . S
H1749 C1735 0.950 . S
H1750 C1737 0.950 . S
H1751 C1738 0.951 . S
C1752 C1753 1.386 . S
C1752 C1754 1.383 . S
C1752 H1768 0.951 . S
C1753 C1752 1.386 . S
C1753 C1757 1.383 . S
C1754 C1752 1.383 . S
C1754 C1755 1.402 . S
C1754 H1769 0.951 . S
C1755 C1754 1.402 . S
C1755 C1756 1.375 . S
C1755 C1758 1.481 . S
C1756 C1755 1.375 . S
C1756 C1757 1.367 . S
C1756 H1770 0.951 . S
C1757 C1753 1.383 . S
C1757 C1756 1.367 . S
C1757 H1771 0.950 . S
C1758 C1755 1.481 . S
C1758 C1759 1.297 . S
C1758 H1772 0.950 . S
C1759 C1758 1.297 . S
C1759 C1760 1.479 . S
C1759 H1773 0.950 . S
C1760 C1759 1.479 . S
C1760 C1761 1.375 . S
C1760 C1766 1.404 . S
C1761 C1760 1.375 . S
C1761 C1762 1.369 . S
C1761 H1774 0.950 . S
C1762 C1761 1.369 . S
C1762 C1763 1.392 . S
C1762 H1775 0.951 . S
C1763 C1762 1.392 . S
C1763 C1765 1.384 . S
H1764 C1766 0.949 . S
C1765 C1763 1.384 . S
C1765 C1766 1.385 . S
C1765 H1767 0.950 . S
C1766 C1760 1.404 . S
C1766 H1764 0.949 . S
C1766 C1765 1.385 . S
H1767 C1765 0.950 . S
H1768 C1752 0.951 . S
H1769 C1754 0.951 . S
H1770 C1756 0.951 . S
H1771 C1757 0.950 . S
H1772 C1758 0.950 . S
H1773 C1759 0.950 . S
H1774 C1761 0.950 . S
H1775 C1762 0.951 . S
C1776 C1777 1.386 . S
C1776 C1778 1.383 . S
C1776 H1792 0.951 . S
C1777 C1776 1.386 . S
C1777 C1781 1.383 . S
C1778 C1776 1.383 . S
C1778 C1779 1.402 . S
C1778 H1793 0.951 . S
C1779 C1778 1.402 . S
C1779 C1780 1.375 . S
C1779 C1782 1.481 . S
C1780 C1779 1.375 . S
C1780 C1781 1.367 . S
C1780 H1794 0.951 . S
C1781 C1777 1.383 . S
C1781 C1780 1.367 . S
C1781 H1795 0.950 . S
C1782 C1779 1.481 . S
C1782 C1783 1.297 . S
C1782 H1796 0.950 . S
C1783 C1782 1.297 . S
C1783 C1784 1.479 . S
C1783 H1797 0.950 . S
C1784 C1783 1.479 . S
C1784 C1785 1.375 . S
C1784 C1790 1.404 . S
C1785 C1784 1.375 . S
C1785 C1786 1.369 . S
C1785 H1798 0.950 . S
C1786 C1785 1.369 . S
C1786 C1787 1.392 . S
C1786 H1799 0.951 . S
C1787 C1786 1.392 . S
C1787 C1789 1.384 . S
H1788 C1790 0.949 . S
C1789 C1787 1.384 . S
C1789 C1790 1.385 . S
C1789 H1791 0.950 . S
C1790 C1784 1.404 . S
C1790 H1788 0.949 . S
C1790 C1789 1.385 . S
H1791 C1789 0.950 . S
H1792 C1776 0.951 . S
H1793 C1778 0.951 . S
H1794 C1780 0.951 . S
H1795 C1781 0.950 . S
H1796 C1782 0.950 . S
H1797 C1783 0.950 . S
H1798 C1785 0.950 . S
H1799 C1786 0.951 . S
C1800 C1801 1.386 . S
C1800 C1802 1.383 . S
C1800 H1816 0.951 . S
C1801 C1800 1.386 . S
C1801 C1805 1.383 . S
C1802 C1800 1.383 . S
C1802 C1803 1.402 . S
C1802 H1817 0.951 . S
C1803 C1802 1.402 . S
C1803 C1804 1.375 . S
C1803 C1806 1.481 . S
C1804 C1803 1.375 . S
C1804 C1805 1.367 . S
C1804 H1818 0.951 . S
C1805 C1801 1.383 . S
C1805 C1804 1.367 . S
C1805 H1819 0.950 . S
C1806 C1803 1.481 . S
C1806 C1807 1.297 . S
C1806 H1820 0.950 . S
C1807 C1806 1.297 . S
C1807 C1808 1.479 . S
C1807 H1821 0.950 . S
C1808 C1807 1.479 . S
C1808 C1809 1.375 . S
C1808 C1814 1.404 . S
C1809 C1808 1.375 . S
C1809 C1810 1.369 . S
C1809 H1822 0.950 . S
C1810 C1809 1.369 . S
C1810 C1811 1.392 . S
C1810 H1823 0.951 . S
C1811 C1810 1.392 . S
C1811 C1813 1.384 . S
H1812 C1814 0.949 . S
C1813 C1811 1.384 . S
C1813 C1814 1.385 . S
C1813 H1815 0.950 . S
C1814 C1808 1.404 . S
C1814 H1812 0.949 . S
C1814 C1813 1.385 . S
H1815 C1813 0.950 . S
H1816 C1800 0.951 . S
H1817 C1802 0.951 . S
H1818 C1804 0.951 . S
H1819 C1805 0.950 . S
H1820 C1806 0.950 . S
H1821 C1807 0.950 . S
H1822 C1809 0.950 . S
H1823 C1810 0.951 . S
C1824 C1825 1.386 . S
C1824 C1826 1.383 . S
C1824 H1840 0.951 . S
C1825 C1824 1.386 . S
C1825 C1829 1.383 . S
C1826 C1824 1.383 . S
C1826 C1827 1.402 . S
C1826 H1841 0.951 . S
C1827 C1826 1.402 . S
C1827 C1828 1.375 . S
C1827 C1830 1.481 . S
C1828 C1827 1.375 . S
C1828 C1829 1.367 . S
C1828 H1842 0.951 . S
C1829 C1825 1.383 . S
C1829 C1828 1.367 . S
C1829 H1843 0.950 . S
C1830 C1827 1.481 . S
C1830 C1831 1.297 . S
C1830 H1844 0.950 . S
C1831 C1830 1.297 . S
C1831 C1832 1.479 . S
C1831 H1845 0.950 . S
C1832 C1831 1.479 . S
C1832 C1833 1.375 . S
C1832 C1838 1.404 . S
C1833 C1832 1.375 . S
C1833 C1834 1.369 . S
C1833 H1846 0.950 . S
C1834 C1833 1.369 . S
C1834 C1835 1.392 . S
C1834 H1847 0.951 . S
C1835 C1834 1.392 . S
C1835 C1837 1.384 . S
H1836 C1838 0.949 . S
C1837 C1835 1.384 . S
C1837 C1838 1.385 . S
C1837 H1839 0.950 . S
C1838 C1832 1.404 . S
C1838 H1836 0.949 . S
C1838 C1837 1.385 . S
H1839 C1837 0.950 . S
H1840 C1824 0.951 . S
H1841 C1826 0.951 . S
H1842 C1828 0.951 . S
H1843 C1829 0.950 . S
H1844 C1830 0.950 . S
H1845 C1831 0.950 . S
H1846 C1833 0.950 . S
H1847 C1834 0.951 . S
C1848 C1849 1.386 . S
C1848 C1850 1.383 . S
C1848 H1864 0.951 . S
C1849 C1848 1.386 . S
C1849 C1853 1.383 . S
C1850 C1848 1.383 . S
C1850 C1851 1.402 . S
C1850 H1865 0.951 . S
C1851 C1850 1.402 . S
C1851 C1852 1.375 . S
C1851 C1854 1.481 . S
C1852 C1851 1.375 . S
C1852 C1853 1.367 . S
C1852 H1866 0.951 . S
C1853 C1849 1.383 . S
C1853 C1852 1.367 . S
C1853 H1867 0.950 . S
C1854 C1851 1.481 . S
C1854 C1855 1.297 . S
C1854 H1868 0.950 . S
C1855 C1854 1.297 . S
C1855 C1856 1.479 . S
C1855 H1869 0.950 . S
C1856 C1855 1.479 . S
C1856 C1857 1.375 . S
C1856 C1862 1.404 . S
C1857 C1856 1.375 . S
C1857 C1858 1.369 . S
C1857 H1870 0.950 . S
C1858 C1857 1.369 . S
C1858 C1859 1.392 . S
C1858 H1871 0.951 . S
C1859 C1858 1.392 . S
C1859 C1861 1.384 . S
H1860 C1862 0.949 . S
C1861 C1859 1.384 . S
C1861 C1862 1.385 . S
C1861 H1863 0.950 . S
C1862 C1856 1.404 . S
C1862 H1860 0.949 . S
C1862 C1861 1.385 . S
H1863 C1861 0.950 . S
H1864 C1848 0.951 . S
H1865 C1850 0.951 . S
H1866 C1852 0.951 . S
H1867 C1853 0.950 . S
H1868 C1854 0.950 . S
H1869 C1855 0.950 . S
H1870 C1857 0.950 . S
H1871 C1858 0.951 . S
C1872 C1873 1.386 . S
C1872 C1874 1.383 . S
C1872 H1888 0.951 . S
C1873 C1872 1.386 . S
C1873 C1877 1.383 . S
C1874 C1872 1.383 . S
C1874 C1875 1.402 . S
C1874 H1889 0.951 . S
C1875 C1874 1.402 . S
C1875 C1876 1.375 . S
C1875 C1878 1.481 . S
C1876 C1875 1.375 . S
C1876 C1877 1.367 . S
C1876 H1890 0.951 . S
C1877 C1873 1.383 . S
C1877 C1876 1.367 . S
C1877 H1891 0.950 . S
C1878 C1875 1.481 . S
C1878 C1879 1.297 . S
C1878 H1892 0.950 . S
C1879 C1878 1.297 . S
C1879 C1880 1.479 . S
C1879 H1893 0.950 . S
C1880 C1879 1.479 . S
C1880 C1881 1.375 . S
C1880 C1886 1.404 . S
C1881 C1880 1.375 . S
C1881 C1882 1.369 . S
C1881 H1894 0.950 . S
C1882 C1881 1.369 . S
C1882 C1883 1.392 . S
C1882 H1895 0.951 . S
C1883 C1882 1.392 . S
C1883 C1885 1.384 . S
H1884 C1886 0.949 . S
C1885 C1883 1.384 . S
C1885 C1886 1.385 . S
C1885 H1887 0.950 . S
C1886 C1880 1.404 . S
C1886 H1884 0.949 . S
C1886 C1885 1.385 . S
H1887 C1885 0.950 . S
H1888 C1872 0.951 . S
H1889 C1874 0.951 . S
H1890 C1876 0.951 . S
H1891 C1877 0.950 . S
H1892 C1878 0.950 . S
H1893 C1879 0.950 . S
H1894 C1881 0.950 . S
H1895 C1882 0.951 . S
C1896 C1897 1.386 . S
C1896 C1898 1.383 . S
C1896 H1912 0.951 . S
C1897 C1896 1.386 . S
C1897 C1901 1.383 . S
C1898 C1896 1.383 . S
C1898 C1899 1.402 . S
C1898 H1913 0.951 . S
C1899 C1898 1.402 . S
C1899 C1900 1.375 . S
C1899 C1902 1.481 . S
C1900 C1899 1.375 . S
C1900 C1901 1.367 . S
C1900 H1914 0.951 . S
C1901 C1897 1.383 . S
C1901 C1900 1.367 . S
C1901 H1915 0.950 . S
C1902 C1899 1.481 . S
C1902 C1903 1.297 . S
C1902 H1916 0.950 . S
C1903 C1902 1.297 . S
C1903 C1904 1.479 . S
C1903 H1917 0.950 . S
C1904 C1903 1.479 . S
C1904 C1905 1.375 . S
C1904 C1910 1.404 . S
C1905 C1904 1.375 . S
C1905 C1906 1.369 . S
C1905 H1918 0.950 . S
C1906 C1905 1.369 . S
C1906 C1907 1.392 . S
C1906 H1919 0.951 . S
C1907 C1906 1.392 . S
C1907 C1909 1.384 . S
H1908 C1910 0.949 . S
C1909 C1907 1.384 . S
C1909 C1910 1.385 . S
C1909 H1911 0.950 . S
C1910 C1904 1.404 . S
C1910 H1908 0.949 . S
C1910 C1909 1.385 . S
H1911 C1909 0.950 . S
H1912 C1896 0.951 . S
H1913 C1898 0.951 . S
H1914 C1900 0.951 . S
H1915 C1901 0.950 . S
H1916 C1902 0.950 . S
H1917 C1903 0.950 . S
H1918 C1905 0.950 . S
H1919 C1906 0.951 . S
C1920 C1921 1.386 . S
C1920 C1922 1.383 . S
C1920 H1936 0.951 . S
C1921 C1920 1.386 . S
C1921 C1925 1.383 . S
C1922 C1920 1.383 . S
C1922 C1923 1.402 . S
C1922 H1937 0.951 . S
C1923 C1922 1.402 . S
C1923 C1924 1.375 . S
C1923 C1926 1.481 . S
C1924 C1923 1.375 . S
C1924 C1925 1.367 . S
C1924 H1938 0.951 . S
C1925 C1921 1.383 . S
C1925 C1924 1.367 . S
C1925 H1939 0.950 . S
C1926 C1923 1.481 . S
C1926 C1927 1.297 . S
C1926 H1940 0.950 . S
C1927 C1926 1.297 . S
C1927 C1928 1.479 . S
C1927 H1941 0.950 . S
C1928 C1927 1.479 . S
C1928 C1929 1.375 . S
C1928 C1934 1.404 . S
C1929 C1928 1.375 . S
C1929 C1930 1.369 . S
C1929 H1942 0.950 . S
C1930 C1929 1.369 . S
C1930 C1931 1.392 . S
C1930 H1943 0.951 . S
C1931 C1930 1.392 . S
C1931 C1933 1.384 . S
H1932 C1934 0.949 . S
C1933 C1931 1.384 . S
C1933 C1934 1.385 . S
C1933 H1935 0.950 . S
C1934 C1928 1.404 . S
C1934 H1932 0.949 . S
C1934 C1933 1.385 . S
H1935 C1933 0.950 . S
H1936 C1920 0.951 . S
H1937 C1922 0.951 . S
H1938 C1924 0.951 . S
H1939 C1925 0.950 . S
H1940 C1926 0.950 . S
H1941 C1927 0.950 . S
H1942 C1929 0.950 . S
H1943 C1930 0.951 . S
C1944 C1945 1.386 . S
C1944 C1946 1.383 . S
C1944 H1960 0.951 . S
C1945 C1944 1.386 . S
C1945 C1949 1.383 . S
C1946 C1944 1.383 . S
C1946 C1947 1.402 . S
C1946 H1961 0.951 . S
C1947 C1946 1.402 . S
C1947 C1948 1.375 . S
C1947 C1950 1.481 . S
C1948 C1947 1.375 . S
C1948 C1949 1.367 . S
C1948 H1962 0.951 . S
C1949 C1945 1.383 . S
C1949 C1948 1.367 . S
C1949 H1963 0.950 . S
C1950 C1947 1.481 . S
C1950 C1951 1.297 . S
C1950 H1964 0.950 . S
C1951 C1950 1.297 . S
C1951 C1952 1.479 . S
C1951 H1965 0.950 . S
C1952 C1951 1.479 . S
C1952 C1953 1.375 . S
C1952 C1958 1.404 . S
C1953 C1952 1.375 . S
C1953 C1954 1.369 . S
C1953 H1966 0.950 . S
C1954 C1953 1.369 . S
C1954 C1955 1.392 . S
C1954 H1967 0.951 . S
C1955 C1954 1.392 . S
C1955 C1957 1.384 . S
H1956 C1958 0.949 . S
C1957 C1955 1.384 . S
C1957 C1958 1.385 . S
C1957 H1959 0.950 . S
C1958 C1952 1.404 . S
C1958 H1956 0.949 . S
C1958 C1957 1.385 . S
H1959 C1957 0.950 . S
H1960 C1944 0.951 . S
H1961 C1946 0.951 . S
H1962 C1948 0.951 . S
H1963 C1949 0.950 . S
H1964 C1950 0.950 . S
H1965 C1951 0.950 . S
H1966 C1953 0.950 . S
H1967 C1954 0.951 . S
C1968 C1969 1.386 . S
C1968 C1970 1.383 . S
C1968 H1984 0.951 . S
C1969 C1968 1.386 . S
C1969 C1973 1.383 . S
C1970 C1968 1.383 . S
C1970 C1971 1.402 . S
C1970 H1985 0.951 . S
C1971 C1970 1.402 . S
C1971 C1972 1.375 . S
C1971 C1974 1.481 . S
C1972 C1971 1.375 . S
C1972 C1973 1.367 . S
C1972 H1986 0.951 . S
C1973 C1969 1.383 . S
C1973 C1972 1.367 . S
C1973 H1987 0.950 . S
C1974 C1971 1.481 . S
C1974 C1975 1.297 . S
C1974 H1988 0.950 . S
C1975 C1974 1.297 . S
C1975 C1976 1.479 . S
C1975 H1989 0.950 . S
C1976 C1975 1.479 . S
C1976 C1977 1.375 . S
C1976 C1982 1.404 . S
C1977 C1976 1.375 . S
C1977 C1978 1.369 . S
C1977 H1990 0.950 . S
C1978 C1977 1.369 . S
C1978 C1979 1.392 . S
C1978 H1991 0.951 . S
C1979 C1978 1.392 . S
C1979 C1981 1.384 . S
H1980 C1982 0.949 . S
C1981 C1979 1.384 . S
C1981 C1982 1.385 . S
C1981 H1983 0.950 . S
C1982 C1976 1.404 . S
C1982 H1980 0.949 . S
C1982 C1981 1.385 . S
H1983 C1981 0.950 . S
H1984 C1968 0.951 . S
H1985 C1970 0.951 . S
H1986 C1972 0.951 . S
H1987 C1973 0.950 . S
H1988 C1974 0.950 . S
H1989 C1975 0.950 . S
H1990 C1977 0.950 . S
H1991 C1978 0.951 . S
C1992 C1993 1.386 . S
C1992 C1994 1.383 . S
C1992 H2008 0.951 . S
C1993 C1992 1.386 . S
C1993 C1997 1.383 . S
C1994 C1992 1.383 . S
C1994 C1995 1.402 . S
C1994 H2009 0.951 . S
C1995 C1994 1.402 . S
C1995 C1996 1.375 . S
C1995 C1998 1.481 . S
C1996 C1995 1.375 . S
C1996 C1997 1.367 . S
C1996 H2010 0.951 . S
C1997 C1993 1.383 . S
C1997 C1996 1.367 . S
C1997 H2011 0.950 . S
C1998 C1995 1.481 . S
C1998 C1999 1.297 . S
C1998 H2012 0.950 . S
C1999 C1998 1.297 . S
C1999 C2000 1.479 . S
C1999 H2013 0.950 . S
C2000 C1999 1.479 . S
C2000 C2001 1.375 . S
C2000 C2006 1.404 . S
C2001 C2000 1.375 . S
C2001 C2002 1.369 . S
C2001 H2014 0.950 . S
C2002 C2001 1.369 . S
C2002 C2003 1.392 . S
C2002 H2015 0.951 . S
C2003 C2002 1.392 . S
C2003 C2005 1.384 . S
H2004 C2006 0.949 . S
C2005 C2003 1.384 . S
C2005 C2006 1.385 . S
C2005 H2007 0.950 . S
C2006 C2000 1.404 . S
C2006 H2004 0.949 . S
C2006 C2005 1.385 . S
H2007 C2005 0.950 . S
H2008 C1992 0.951 . S
H2009 C1994 0.951 . S
H2010 C1996 0.951 . S
H2011 C1997 0.950 . S
H2012 C1998 0.950 . S
H2013 C1999 0.950 . S
H2014 C2001 0.950 . S
H2015 C2002 0.951 . S
C2016 C2017 1.386 . S
C2016 C2018 1.383 . S
C2016 H2032 0.951 . S
C2017 C2016 1.386 . S
C2017 C2021 1.383 . S
C2018 C2016 1.383 . S
C2018 C2019 1.402 . S
C2018 H2033 0.951 . S
C2019 C2018 1.402 . S
C2019 C2020 1.375 . S
C2019 C2022 1.481 . S
C2020 C2019 1.375 . S
C2020 C2021 1.367 . S
C2020 H2034 0.951 . S
C2021 C2017 1.383 . S
C2021 C2020 1.367 . S
C2021 H2035 0.950 . S
C2022 C2019 1.481 . S
C2022 C2023 1.297 . S
C2022 H2036 0.950 . S
C2023 C2022 1.297 . S
C2023 C2024 1.479 . S
C2023 H2037 0.950 . S
C2024 C2023 1.479 . S
C2024 C2025 1.375 . S
C2024 C2030 1.404 . S
C2025 C2024 1.375 . S
C2025 C2026 1.369 . S
C2025 H2038 0.950 . S
C2026 C2025 1.369 . S
C2026 C2027 1.392 . S
C2026 H2039 0.951 . S
C2027 C2026 1.392 . S
C2027 C2029 1.384 . S
H2028 C2030 0.949 . S
C2029 C2027 1.384 . S
C2029 C2030 1.385 . S
C2029 H2031 0.950 . S
C2030 C2024 1.404 . S
C2030 H2028 0.949 . S
C2030 C2029 1.385 . S
H2031 C2029 0.950 . S
H2032 C2016 0.951 . S
H2033 C2018 0.951 . S
H2034 C2020 0.951 . S
H2035 C2021 0.950 . S
H2036 C2022 0.950 . S
H2037 C2023 0.950 . S
H2038 C2025 0.950 . S
H2039 C2026 0.951 . S
C2040 C2041 1.386 . S
C2040 C2042 1.383 . S
C2040 H2056 0.951 . S
C2041 C2040 1.386 . S
C2041 C2045 1.383 . S
C2042 C2040 1.383 . S
C2042 C2043 1.402 . S
C2042 H2057 0.951 . S
C2043 C2042 1.402 . S
C2043 C2044 1.375 . S
C2043 C2046 1.481 . S
C2044 C2043 1.375 . S
C2044 C2045 1.367 . S
C2044 H2058 0.951 . S
C2045 C2041 1.383 . S
C2045 C2044 1.367 . S
C2045 H2059 0.950 . S
C2046 C2043 1.481 . S
C2046 C2047 1.297 . S
C2046 H2060 0.950 . S
C2047 C2046 1.297 . S
C2047 C2048 1.479 . S
C2047 H2061 0.950 . S
C2048 C2047 1.479 . S
C2048 C2049 1.375 . S
C2048 C2054 1.404 . S
C2049 C2048 1.375 . S
C2049 C2050 1.369 . S
C2049 H2062 0.950 . S
C2050 C2049 1.369 . S
C2050 C2051 1.392 . S
C2050 H2063 0.951 . S
C2051 C2050 1.392 . S
C2051 C2053 1.384 . S
H2052 C2054 0.949 . S
C2053 C2051 1.384 . S
C2053 C2054 1.385 . S
C2053 H2055 0.950 . S
C2054 C2048 1.404 . S
C2054 H2052 0.949 . S
C2054 C2053 1.385 . S
H2055 C2053 0.950 . S
H2056 C2040 0.951 . S
H2057 C2042 0.951 . S
H2058 C2044 0.951 . S
H2059 C2045 0.950 . S
H2060 C2046 0.950 . S
H2061 C2047 0.950 . S
H2062 C2049 0.950 . S
H2063 C2050 0.951 . S
C2064 C2065 1.386 . S
C2064 C2066 1.383 . S
C2064 H2080 0.951 . S
C2065 C2064 1.386 . S
C2065 C2069 1.383 . S
C2066 C2064 1.383 . S
C2066 C2067 1.402 . S
C2066 H2081 0.951 . S
C2067 C2066 1.402 . S
C2067 C2068 1.375 . S
C2067 C2070 1.481 . S
C2068 C2067 1.375 . S
C2068 C2069 1.367 . S
C2068 H2082 0.951 . S
C2069 C2065 1.383 . S
C2069 C2068 1.367 . S
C2069 H2083 0.950 1_556 S
C2070 C2067 1.481 . S
C2070 C2071 1.297 . S
C2070 H2084 0.950 . S
C2071 C2070 1.297 . S
C2071 C2072 1.479 . S
C2071 H2085 0.950 . S
C2072 C2071 1.479 . S
C2072 C2073 1.375 . S
C2072 C2078 1.404 . S
C2073 C2072 1.375 . S
C2073 C2074 1.369 . S
C2073 H2086 0.950 . S
C2074 C2073 1.369 . S
C2074 C2075 1.392 . S
C2074 H2087 0.951 . S
C2075 C2074 1.392 . S
C2075 C2077 1.384 . S
H2076 C2078 0.949 . S
C2077 C2075 1.384 . S
C2077 C2078 1.385 . S
C2077 H2079 0.950 . S
C2078 C2072 1.404 . S
C2078 H2076 0.949 . S
C2078 C2077 1.385 . S
H2079 C2077 0.950 . S
H2080 C2064 0.951 . S
H2081 C2066 0.951 . S
H2082 C2068 0.951 . S
H2083 C2069 0.950 1_554 S
H2084 C2070 0.950 . S
H2085 C2071 0.950 . S
H2086 C2073 0.950 . S
H2087 C2074 0.951 . S
C2088 C2089 1.386 . S
C2088 C2090 1.383 . S
C2088 H2104 0.951 . S
C2089 C2088 1.386 . S
C2089 C2093 1.383 . S
C2090 C2088 1.383 . S
C2090 C2091 1.402 . S
C2090 H2105 0.951 . S
C2091 C2090 1.402 . S
C2091 C2092 1.375 . S
C2091 C2094 1.481 . S
C2092 C2091 1.375 . S
C2092 C2093 1.367 . S
C2092 H2106 0.951 . S
C2093 C2089 1.383 . S
C2093 C2092 1.367 . S
C2093 H2107 0.950 1_556 S
C2094 C2091 1.481 . S
C2094 C2095 1.297 . S
C2094 H2108 0.950 . S
C2095 C2094 1.297 . S
C2095 C2096 1.479 . S
C2095 H2109 0.950 . S
C2096 C2095 1.479 . S
C2096 C2097 1.375 . S
C2096 C2102 1.404 . S
C2097 C2096 1.375 . S
C2097 C2098 1.369 . S
C2097 H2110 0.950 . S
C2098 C2097 1.369 . S
C2098 C2099 1.392 . S
C2098 H2111 0.951 . S
C2099 C2098 1.392 . S
C2099 C2101 1.384 . S
H2100 C2102 0.949 . S
C2101 C2099 1.384 . S
C2101 C2102 1.385 . S
C2101 H2103 0.950 . S
C2102 C2096 1.404 . S
C2102 H2100 0.949 . S
C2102 C2101 1.385 . S
H2103 C2101 0.950 . S
H2104 C2088 0.951 . S
H2105 C2090 0.951 . S
H2106 C2092 0.951 . S
H2107 C2093 0.950 1_554 S
H2108 C2094 0.950 . S
H2109 C2095 0.950 . S
H2110 C2097 0.950 . S
H2111 C2098 0.951 . S
C2112 C2113 1.386 . S
C2112 C2114 1.383 . S
C2112 H2128 0.951 . S
C2113 C2112 1.386 . S
C2113 C2117 1.383 . S
C2114 C2112 1.383 . S
C2114 C2115 1.402 . S
C2114 H2129 0.951 . S
C2115 C2114 1.402 . S
C2115 C2116 1.375 . S
C2115 C2118 1.481 . S
C2116 C2115 1.375 . S
C2116 C2117 1.367 . S
C2116 H2130 0.951 . S
C2117 C2113 1.383 . S
C2117 C2116 1.367 . S
C2117 H2131 0.950 1_556 S
C2118 C2115 1.481 . S
C2118 C2119 1.297 . S
C2118 H2132 0.950 . S
C2119 C2118 1.297 . S
C2119 C2120 1.479 . S
C2119 H2133 0.950 . S
C2120 C2119 1.479 . S
C2120 C2121 1.375 . S
C2120 C2126 1.404 . S
C2121 C2120 1.375 . S
C2121 C2122 1.369 . S
C2121 H2134 0.950 . S
C2122 C2121 1.369 . S
C2122 C2123 1.392 . S
C2122 H2135 0.951 . S
C2123 C2122 1.392 . S
C2123 C2125 1.384 . S
H2124 C2126 0.949 . S
C2125 C2123 1.384 . S
C2125 C2126 1.385 . S
C2125 H2127 0.950 . S
C2126 C2120 1.404 . S
C2126 H2124 0.949 . S
C2126 C2125 1.385 . S
H2127 C2125 0.950 . S
H2128 C2112 0.951 . S
H2129 C2114 0.951 . S
H2130 C2116 0.951 . S
H2131 C2117 0.950 1_554 S
H2132 C2118 0.950 . S
H2133 C2119 0.950 . S
H2134 C2121 0.950 . S
H2135 C2122 0.951 . S
C2136 C2137 1.386 . S
C2136 C2138 1.383 . S
C2136 H2152 0.951 1_556 S
C2137 C2136 1.386 . S
C2137 C2141 1.383 . S
C2138 C2136 1.383 . S
C2138 C2139 1.402 . S
C2138 H2153 0.951 . S
C2139 C2138 1.402 . S
C2139 C2140 1.375 . S
C2139 C2142 1.481 . S
C2140 C2139 1.375 . S
C2140 C2141 1.367 . S
C2140 H2154 0.951 . S
C2141 C2137 1.383 . S
C2141 C2140 1.367 . S
C2141 H2155 0.950 . S
C2142 C2139 1.481 . S
C2142 C2143 1.297 . S
C2142 H2156 0.950 . S
C2143 C2142 1.297 . S
C2143 C2144 1.479 . S
C2143 H2157 0.950 . S
C2144 C2143 1.479 . S
C2144 C2145 1.375 . S
C2144 C2150 1.404 . S
C2145 C2144 1.375 . S
C2145 C2146 1.369 . S
C2145 H2158 0.950 . S
C2146 C2145 1.369 . S
C2146 C2147 1.392 . S
C2146 H2159 0.951 . S
C2147 C2146 1.392 . S
C2147 C2149 1.384 . S
H2148 C2150 0.949 . S
C2149 C2147 1.384 . S
C2149 C2150 1.385 . S
C2149 H2151 0.950 . S
C2150 C2144 1.404 . S
C2150 H2148 0.949 . S
C2150 C2149 1.385 . S
H2151 C2149 0.950 . S
H2152 C2136 0.951 1_554 S
H2153 C2138 0.951 . S
H2154 C2140 0.951 . S
H2155 C2141 0.950 . S
H2156 C2142 0.950 . S
H2157 C2143 0.950 . S
H2158 C2145 0.950 . S
H2159 C2146 0.951 . S
C2160 C2161 1.386 . S
C2160 C2162 1.383 . S
C2160 H2176 0.951 . S
C2161 C2160 1.386 . S
C2161 C2165 1.383 . S
C2162 C2160 1.383 . S
C2162 C2163 1.402 . S
C2162 H2177 0.951 . S
C2163 C2162 1.402 . S
C2163 C2164 1.375 . S
C2163 C2166 1.481 . S
C2164 C2163 1.375 . S
C2164 C2165 1.367 . S
C2164 H2178 0.951 . S
C2165 C2161 1.383 . S
C2165 C2164 1.367 . S
C2165 H2179 0.950 . S
C2166 C2163 1.481 . S
C2166 C2167 1.297 . S
C2166 H2180 0.950 . S
C2167 C2166 1.297 . S
C2167 C2168 1.479 . S
C2167 H2181 0.950 . S
C2168 C2167 1.479 . S
C2168 C2169 1.375 . S
C2168 C2174 1.404 . S
C2169 C2168 1.375 . S
C2169 C2170 1.369 . S
C2169 H2182 0.950 . S
C2170 C2169 1.369 . S
C2170 C2171 1.392 . S
C2170 H2183 0.951 . S
C2171 C2170 1.392 . S
C2171 C2173 1.384 . S
H2172 C2174 0.949 . S
C2173 C2171 1.384 . S
C2173 C2174 1.385 . S
C2173 H2175 0.950 . S
C2174 C2168 1.404 . S
C2174 H2172 0.949 . S
C2174 C2173 1.385 . S
H2175 C2173 0.950 . S
H2176 C2160 0.951 . S
H2177 C2162 0.951 . S
H2178 C2164 0.951 . S
H2179 C2165 0.950 . S
H2180 C2166 0.950 . S
H2181 C2167 0.950 . S
H2182 C2169 0.950 . S
H2183 C2170 0.951 . S
C2184 C2185 1.386 . S
C2184 C2186 1.383 . S
C2184 H2200 0.951 . S
C2185 C2184 1.386 . S
C2185 C2189 1.383 . S
C2186 C2184 1.383 . S
C2186 C2187 1.402 . S
C2186 H2201 0.951 . S
C2187 C2186 1.402 . S
C2187 C2188 1.375 . S
C2187 C2190 1.481 . S
C2188 C2187 1.375 . S
C2188 C2189 1.367 . S
C2188 H2202 0.951 . S
C2189 C2185 1.383 . S
C2189 C2188 1.367 . S
C2189 H2203 0.950 . S
C2190 C2187 1.481 . S
C2190 C2191 1.297 . S
C2190 H2204 0.950 . S
C2191 C2190 1.297 . S
C2191 C2192 1.479 . S
C2191 H2205 0.950 . S
C2192 C2191 1.479 . S
C2192 C2193 1.375 . S
C2192 C2198 1.404 . S
C2193 C2192 1.375 . S
C2193 C2194 1.369 . S
C2193 H2206 0.950 . S
C2194 C2193 1.369 . S
C2194 C2195 1.392 . S
C2194 H2207 0.951 . S
C2195 C2194 1.392 . S
C2195 C2197 1.384 . S
H2196 C2198 0.949 . S
C2197 C2195 1.384 . S
C2197 C2198 1.385 . S
C2197 H2199 0.950 . S
C2198 C2192 1.404 . S
C2198 H2196 0.949 . S
C2198 C2197 1.385 . S
H2199 C2197 0.950 . S
H2200 C2184 0.951 . S
H2201 C2186 0.951 . S
H2202 C2188 0.951 . S
H2203 C2189 0.950 . S
H2204 C2190 0.950 . S
H2205 C2191 0.950 . S
H2206 C2193 0.950 . S
H2207 C2194 0.951 . S
C2208 C2209 1.386 . S
C2208 C2210 1.383 . S
C2208 H2224 0.951 . S
C2209 C2208 1.386 . S
C2209 C2213 1.383 . S
C2210 C2208 1.383 . S
C2210 C2211 1.402 . S
C2210 H2225 0.951 . S
C2211 C2210 1.402 . S
C2211 C2212 1.375 . S
C2211 C2214 1.481 . S
C2212 C2211 1.375 . S
C2212 C2213 1.367 . S
C2212 H2226 0.951 . S
C2213 C2209 1.383 . S
C2213 C2212 1.367 . S
C2213 H2227 0.950 . S
C2214 C2211 1.481 . S
C2214 C2215 1.297 . S
C2214 H2228 0.950 . S
C2215 C2214 1.297 . S
C2215 C2216 1.479 . S
C2215 H2229 0.950 . S
C2216 C2215 1.479 . S
C2216 C2217 1.375 . S
C2216 C2222 1.404 . S
C2217 C2216 1.375 . S
C2217 C2218 1.369 . S
C2217 H2230 0.950 . S
C2218 C2217 1.369 . S
C2218 C2219 1.392 . S
C2218 H2231 0.951 . S
C2219 C2218 1.392 . S
C2219 C2221 1.384 . S
H2220 C2222 0.949 . S
C2221 C2219 1.384 . S
C2221 C2222 1.385 . S
C2221 H2223 0.950 . S
C2222 C2216 1.404 . S
C2222 H2220 0.949 . S
C2222 C2221 1.385 . S
H2223 C2221 0.950 . S
H2224 C2208 0.951 . S
H2225 C2210 0.951 . S
H2226 C2212 0.951 . S
H2227 C2213 0.950 . S
H2228 C2214 0.950 . S
H2229 C2215 0.950 . S
H2230 C2217 0.950 . S
H2231 C2218 0.951 . S
C2232 C2233 1.386 . S
C2232 C2234 1.383 . S
C2232 H2248 0.951 . S
C2233 C2232 1.386 . S
C2233 C2237 1.383 . S
C2234 C2232 1.383 . S
C2234 C2235 1.402 . S
C2234 H2249 0.951 . S
C2235 C2234 1.402 . S
C2235 C2236 1.375 . S
C2235 C2238 1.481 . S
C2236 C2235 1.375 . S
C2236 C2237 1.367 . S
C2236 H2250 0.951 . S
C2237 C2233 1.383 . S
C2237 C2236 1.367 . S
C2237 H2251 0.950 . S
C2238 C2235 1.481 . S
C2238 C2239 1.297 . S
C2238 H2252 0.950 . S
C2239 C2238 1.297 . S
C2239 C2240 1.479 . S
C2239 H2253 0.950 . S
C2240 C2239 1.479 . S
C2240 C2241 1.375 . S
C2240 C2246 1.404 . S
C2241 C2240 1.375 . S
C2241 C2242 1.369 . S
C2241 H2254 0.950 . S
C2242 C2241 1.369 . S
C2242 C2243 1.392 . S
C2242 H2255 0.951 . S
C2243 C2242 1.392 . S
C2243 C2245 1.384 . S
H2244 C2246 0.949 . S
C2245 C2243 1.384 . S
C2245 C2246 1.385 . S
C2245 H2247 0.950 . S
C2246 C2240 1.404 . S
C2246 H2244 0.949 . S
C2246 C2245 1.385 . S
H2247 C2245 0.950 . S
H2248 C2232 0.951 . S
H2249 C2234 0.951 . S
H2250 C2236 0.951 . S
H2251 C2237 0.950 . S
H2252 C2238 0.950 . S
H2253 C2239 0.950 . S
H2254 C2241 0.950 . S
H2255 C2242 0.951 . S
C2256 C2257 1.386 . S
C2256 C2258 1.383 . S
C2256 H2272 0.951 . S
C2257 C2256 1.386 . S
C2257 C2261 1.383 . S
C2258 C2256 1.383 . S
C2258 C2259 1.402 . S
C2258 H2273 0.951 . S
C2259 C2258 1.402 . S
C2259 C2260 1.375 . S
C2259 C2262 1.481 . S
C2260 C2259 1.375 . S
C2260 C2261 1.367 . S
C2260 H2274 0.951 . S
C2261 C2257 1.383 . S
C2261 C2260 1.367 . S
C2261 H2275 0.950 . S
C2262 C2259 1.481 . S
C2262 C2263 1.297 . S
C2262 H2276 0.950 . S
C2263 C2262 1.297 . S
C2263 C2264 1.479 . S
C2263 H2277 0.950 . S
C2264 C2263 1.479 . S
C2264 C2265 1.375 . S
C2264 C2270 1.404 . S
C2265 C2264 1.375 . S
C2265 C2266 1.369 . S
C2265 H2278 0.950 . S
C2266 C2265 1.369 . S
C2266 C2267 1.392 . S
C2266 H2279 0.951 . S
C2267 C2266 1.392 . S
C2267 C2269 1.384 . S
H2268 C2270 0.949 . S
C2269 C2267 1.384 . S
C2269 C2270 1.385 . S
C2269 H2271 0.950 . S
C2270 C2264 1.404 . S
C2270 H2268 0.949 . S
C2270 C2269 1.385 . S
H2271 C2269 0.950 . S
H2272 C2256 0.951 . S
H2273 C2258 0.951 . S
H2274 C2260 0.951 . S
H2275 C2261 0.950 . S
H2276 C2262 0.950 . S
H2277 C2263 0.950 . S
H2278 C2265 0.950 . S
H2279 C2266 0.951 . S
C2280 C2281 1.386 . S
C2280 C2282 1.383 . S
C2280 H2296 0.951 . S
C2281 C2280 1.386 . S
C2281 C2285 1.383 . S
C2282 C2280 1.383 . S
C2282 C2283 1.402 . S
C2282 H2297 0.951 . S
C2283 C2282 1.402 . S
C2283 C2284 1.375 . S
C2283 C2286 1.481 . S
C2284 C2283 1.375 . S
C2284 C2285 1.367 . S
C2284 H2298 0.951 . S
C2285 C2281 1.383 . S
C2285 C2284 1.367 . S
C2285 H2299 0.950 . S
C2286 C2283 1.481 . S
C2286 C2287 1.297 . S
C2286 H2300 0.950 . S
C2287 C2286 1.297 . S
C2287 C2288 1.479 . S
C2287 H2301 0.950 . S
C2288 C2287 1.479 . S
C2288 C2289 1.375 . S
C2288 C2294 1.404 . S
C2289 C2288 1.375 . S
C2289 C2290 1.369 . S
C2289 H2302 0.950 . S
C2290 C2289 1.369 . S
C2290 C2291 1.392 . S
C2290 H2303 0.951 . S
C2291 C2290 1.392 . S
C2291 C2293 1.384 . S
H2292 C2294 0.949 . S
C2293 C2291 1.384 . S
C2293 C2294 1.385 . S
C2293 H2295 0.950 . S
C2294 C2288 1.404 . S
C2294 H2292 0.949 . S
C2294 C2293 1.385 . S
H2295 C2293 0.950 . S
H2296 C2280 0.951 . S
H2297 C2282 0.951 . S
H2298 C2284 0.951 . S
H2299 C2285 0.950 . S
H2300 C2286 0.950 . S
H2301 C2287 0.950 . S
H2302 C2289 0.950 . S
H2303 C2290 0.951 . S
C2304 C2305 1.386 . S
C2304 C2306 1.383 . S
C2304 H2320 0.951 . S
C2305 C2304 1.386 . S
C2305 C2309 1.383 . S
C2306 C2304 1.383 . S
C2306 C2307 1.402 . S
C2306 H2321 0.951 . S
C2307 C2306 1.402 . S
C2307 C2308 1.375 . S
C2307 C2310 1.481 . S
C2308 C2307 1.375 . S
C2308 C2309 1.367 . S
C2308 H2322 0.951 . S
C2309 C2305 1.383 . S
C2309 C2308 1.367 . S
C2309 H2323 0.950 . S
C2310 C2307 1.481 . S
C2310 C2311 1.297 . S
C2310 H2324 0.950 . S
C2311 C2310 1.297 . S
C2311 C2312 1.498 . S
C2311 H2325 0.950 . S
C2312 C2311 1.498 . S
C2312 C2313 1.378 . S
C2312 C2318 1.386 1_455 S
C2313 C2312 1.378 . S
C2313 C2314 1.369 . S
C2313 H2326 0.950 . S
C2314 C2313 1.369 . S
C2314 C2315 1.392 . S
C2314 H2327 0.951 . S
C2315 C2314 1.392 . S
C2315 C2317 1.377 1_455 S
H2316 C2318 0.949 . S
C2317 C2315 1.377 1_655 S
C2317 C2318 1.351 . S
C2317 H2319 0.999 . S
C2318 C2312 1.386 1_655 S
C2318 H2316 0.949 . S
C2318 C2317 1.351 . S
H2319 C2317 0.999 . S
H2320 C2304 0.951 . S
H2321 C2306 0.951 . S
H2322 C2308 0.951 . S
H2323 C2309 0.950 . S
H2324 C2310 0.950 . S
H2325 C2311 0.950 . S
H2326 C2313 0.950 . S
H2327 C2314 0.951 . S
C2328 C2329 1.386 . S
C2328 C2330 1.383 . S
C2328 H2344 0.951 . S
C2329 C2328 1.386 . S
C2329 C2333 1.383 . S
C2330 C2328 1.383 . S
C2330 C2331 1.402 . S
C2330 H2345 0.951 . S
C2331 C2330 1.402 . S
C2331 C2332 1.375 . S
C2331 C2334 1.481 . S
C2332 C2331 1.375 . S
C2332 C2333 1.367 . S
C2332 H2346 0.951 . S
C2333 C2329 1.383 . S
C2333 C2332 1.367 . S
C2333 H2347 0.950 . S
C2334 C2331 1.481 . S
C2334 C2335 1.297 . S
C2334 H2348 0.950 . S
C2335 C2334 1.297 . S
C2335 C2336 1.479 . S
C2335 H2349 0.950 . S
C2336 C2335 1.479 . S
C2336 C2337 1.375 . S
C2336 C2342 1.404 . S
C2337 C2336 1.375 . S
C2337 C2338 1.369 . S
C2337 H2350 0.950 . S
C2338 C2337 1.369 . S
C2338 C2339 1.392 . S
C2338 H2351 0.951 . S
C2339 C2338 1.392 . S
C2339 C2341 1.384 . S
H2340 C2342 0.949 . S
C2341 C2339 1.384 . S
C2341 C2342 1.385 . S
C2341 H2343 0.950 . S
C2342 C2336 1.404 . S
C2342 H2340 0.949 . S
C2342 C2341 1.385 . S
H2343 C2341 0.950 . S
H2344 C2328 0.951 . S
H2345 C2330 0.951 . S
H2346 C2332 0.951 . S
H2347 C2333 0.950 . S
H2348 C2334 0.950 . S
H2349 C2335 0.950 . S
H2350 C2337 0.950 . S
H2351 C2338 0.951 . S
C2352 C2353 1.386 . S
C2352 C2354 1.383 . S
C2352 H2368 0.951 . S
C2353 C2352 1.386 . S
C2353 C2357 1.423 . S
C2354 C2352 1.383 . S
C2354 C2355 1.402 . S
C2354 H2369 0.951 . S
C2355 C2354 1.402 . S
C2355 C2356 1.375 1_565 S
C2355 C2358 1.481 . S
C2356 C2355 1.375 1_545 S
C2356 C2357 1.384 1_545 S
C2356 H2370 0.951 . S
C2357 C2353 1.423 . S
C2357 C2356 1.384 1_565 S
C2357 H2371 0.895 1_565 S
C2358 C2355 1.481 . S
C2358 C2359 1.297 . S
C2358 H2372 0.950 1_565 S
C2359 C2358 1.297 . S
C2359 C2360 1.479 . S
C2359 H2373 0.950 . S
C2360 C2359 1.479 . S
C2360 C2361 1.375 . S
C2360 C2366 1.405 1_565 S
C2361 C2360 1.375 . S
C2361 C2362 1.369 . S
C2361 H2374 0.950 . S
C2362 C2361 1.369 . S
C2362 C2363 1.392 . S
C2362 H2375 0.951 . S
C2363 C2362 1.392 . S
C2363 C2365 1.384 1_565 S
H2364 C2366 0.947 . S
C2365 C2363 1.384 1_545 S
C2365 C2366 1.385 . S
C2365 H2367 0.950 . S
C2366 C2360 1.405 1_545 S
C2366 H2364 0.947 . S
C2366 C2365 1.385 . S
H2367 C2365 0.950 . S
H2368 C2352 0.951 . S
H2369 C2354 0.951 . S
H2370 C2356 0.951 . S
H2371 C2357 0.895 1_545 S
H2372 C2358 0.950 1_545 S
H2373 C2359 0.950 . S
H2374 C2361 0.950 . S
H2375 C2362 0.951 . S
C2376 C2377 1.386 . S
C2376 C2378 1.383 . S
C2376 H2392 0.951 . S
C2377 C2376 1.386 . S
C2377 C2381 1.388 1_565 S
C2378 C2376 1.383 . S
C2378 C2379 1.402 . S
C2378 H2393 0.951 . S
C2379 C2378 1.402 . S
C2379 C2380 1.375 1_565 S
C2379 C2382 1.481 . S
C2380 C2379 1.375 1_545 S
C2380 C2381 1.364 . S
C2380 H2394 0.951 . S
C2381 C2377 1.388 1_545 S
C2381 C2380 1.364 . S
C2381 H2395 0.948 . S
C2382 C2379 1.481 . S
C2382 C2383 1.297 . S
C2382 H2396 0.950 1_565 S
C2383 C2382 1.297 . S
C2383 C2384 1.479 . S
C2383 H2397 0.950 . S
C2384 C2383 1.479 . S
C2384 C2385 1.375 . S
C2384 C2390 1.404 1_565 S
C2385 C2384 1.375 . S
C2385 C2386 1.369 . S
C2385 H2398 0.950 . S
C2386 C2385 1.369 . S
C2386 C2387 1.392 . S
C2386 H2399 0.951 . S
C2387 C2386 1.392 . S
C2387 C2389 1.384 1_565 S
H2388 C2390 0.949 . S
C2389 C2387 1.384 1_545 S
C2389 C2390 1.385 . S
C2389 H2391 0.950 . S
C2390 C2384 1.404 1_545 S
C2390 H2388 0.949 . S
C2390 C2389 1.385 . S
H2391 C2389 0.950 . S
H2392 C2376 0.951 . S
H2393 C2378 0.951 . S
H2394 C2380 0.951 . S
H2395 C2381 0.948 . S
H2396 C2382 0.950 1_545 S
H2397 C2383 0.950 . S
H2398 C2385 0.950 . S
H2399 C2386 0.951 . S
C2400 C2401 1.386 . S
C2400 C2402 1.383 . S
C2400 H2416 0.951 . S
C2401 C2400 1.386 . S
C2401 C2405 1.383 . S
C2402 C2400 1.383 . S
C2402 C2403 1.402 . S
C2402 H2417 0.951 . S
C2403 C2402 1.402 . S
C2403 C2404 1.375 . S
C2403 C2406 1.481 . S
C2404 C2403 1.375 . S
C2404 C2405 1.367 . S
C2404 H2418 0.951 1_455 S
C2405 C2401 1.383 . S
C2405 C2404 1.367 . S
C2405 H2419 0.950 . S
C2406 C2403 1.481 . S
C2406 C2407 1.297 . S
C2406 H2420 0.950 . S
C2407 C2406 1.297 . S
C2407 C2408 1.479 . S
C2407 H2421 0.950 . S
C2408 C2407 1.479 . S
C2408 C2409 1.375 . S
C2408 C2414 1.404 . S
C2409 C2408 1.375 . S
C2409 C2410 1.369 . S
C2409 H2422 0.950 . S
C2410 C2409 1.369 . S
C2410 C2411 1.392 . S
C2410 H2423 0.951 . S
C2411 C2410 1.392 . S
C2411 C2413 1.384 1_455 S
H2412 C2414 0.922 1_655 S
C2413 C2411 1.384 1_655 S
C2413 C2414 1.385 1_655 S
C2413 H2415 0.950 . S
C2414 C2408 1.404 . S
C2414 H2412 0.922 1_455 S
C2414 C2413 1.385 1_455 S
H2415 C2413 0.950 . S
H2416 C2400 0.951 . S
H2417 C2402 0.951 . S
H2418 C2404 0.951 1_655 S
H2419 C2405 0.950 . S
H2420 C2406 0.950 . S
H2421 C2407 0.950 . S
H2422 C2409 0.950 . S
H2423 C2410 0.951 . S
C2424 C2425 1.386 . S
C2424 C2426 1.383 . S
C2424 H2440 0.951 . S
C2425 C2424 1.386 . S
C2425 C2429 1.383 . S
C2426 C2424 1.383 . S
C2426 C2427 1.402 . S
C2426 H2441 0.951 . S
C2427 C2426 1.402 . S
C2427 C2428 1.375 . S
C2427 C2430 1.481 . S
C2428 C2427 1.375 . S
C2428 C2429 1.367 . S
C2428 H2442 0.951 . S
C2429 C2425 1.383 . S
C2429 C2428 1.367 . S
C2429 H2443 0.950 . S
C2430 C2427 1.481 . S
C2430 C2431 1.297 . S
C2430 H2444 0.950 . S
C2431 C2430 1.297 . S
C2431 C2432 1.479 . S
C2431 H2445 0.950 . S
C2432 C2431 1.479 . S
C2432 C2433 1.375 . S
C2432 C2438 1.404 . S
C2433 C2432 1.375 . S
C2433 C2434 1.369 . S
C2433 H2446 0.950 . S
C2434 C2433 1.369 . S
C2434 C2435 1.392 . S
C2434 H2447 0.951 . S
C2435 C2434 1.392 . S
C2435 C2437 1.384 . S
H2436 C2438 0.949 . S
C2437 C2435 1.384 . S
C2437 C2438 1.385 . S
C2437 H2439 0.950 . S
C2438 C2432 1.404 . S
C2438 H2436 0.949 . S
C2438 C2437 1.385 . S
H2439 C2437 0.950 . S
H2440 C2424 0.951 . S
H2441 C2426 0.951 . S
H2442 C2428 0.951 . S
H2443 C2429 0.950 . S
H2444 C2430 0.950 . S
H2445 C2431 0.950 . S
H2446 C2433 0.950 . S
H2447 C2434 0.951 . S
C2448 C2449 1.386 . S
C2448 C2450 1.383 . S
C2448 H2464 0.951 . S
C2449 C2448 1.386 . S
C2449 C2453 1.383 . S
C2450 C2448 1.383 . S
C2450 C2451 1.402 . S
C2450 H2465 0.951 . S
C2451 C2450 1.402 . S
C2451 C2452 1.375 . S
C2451 C2454 1.481 . S
C2452 C2451 1.375 . S
C2452 C2453 1.367 . S
C2452 H2466 0.951 . S
C2453 C2449 1.383 . S
C2453 C2452 1.367 . S
C2453 H2467 0.950 . S
C2454 C2451 1.481 . S
C2454 C2455 1.297 . S
C2454 H2468 0.950 . S
C2455 C2454 1.297 . S
C2455 C2456 1.479 . S
C2455 H2469 0.950 . S
C2456 C2455 1.479 . S
C2456 C2457 1.375 . S
C2456 C2462 1.404 . S
C2457 C2456 1.375 . S
C2457 C2458 1.369 . S
C2457 H2470 0.950 . S
C2458 C2457 1.369 . S
C2458 C2459 1.392 . S
C2458 H2471 0.951 . S
C2459 C2458 1.392 . S
C2459 C2461 1.384 . S
H2460 C2462 0.949 . S
C2461 C2459 1.384 . S
C2461 C2462 1.385 . S
C2461 H2463 0.950 . S
C2462 C2456 1.404 . S
C2462 H2460 0.949 . S
C2462 C2461 1.385 . S
H2463 C2461 0.950 . S
H2464 C2448 0.951 . S
H2465 C2450 0.951 . S
H2466 C2452 0.951 . S
H2467 C2453 0.950 . S
H2468 C2454 0.950 . S
H2469 C2455 0.950 . S
H2470 C2457 0.950 . S
H2471 C2458 0.951 . S
C2472 C2473 1.386 . S
C2472 C2474 1.383 . S
C2472 H2488 0.951 . S
C2473 C2472 1.386 . S
C2473 C2477 1.383 . S
C2474 C2472 1.383 . S
C2474 C2475 1.402 . S
C2474 H2489 0.951 . S
C2475 C2474 1.402 . S
C2475 C2476 1.375 . S
C2475 C2478 1.481 . S
C2476 C2475 1.375 . S
C2476 C2477 1.367 . S
C2476 H2490 0.951 . S
C2477 C2473 1.383 . S
C2477 C2476 1.367 . S
C2477 H2491 0.950 . S
C2478 C2475 1.481 . S
C2478 C2479 1.297 . S
C2478 H2492 0.950 . S
C2479 C2478 1.297 . S
C2479 C2480 1.479 . S
C2479 H2493 0.950 . S
C2480 C2479 1.479 . S
C2480 C2481 1.375 . S
C2480 C2486 1.404 . S
C2481 C2480 1.375 . S
C2481 C2482 1.369 . S
C2481 H2494 0.950 . S
C2482 C2481 1.369 . S
C2482 C2483 1.392 . S
C2482 H2495 0.951 . S
C2483 C2482 1.392 . S
C2483 C2485 1.384 . S
H2484 C2486 0.949 . S
C2485 C2483 1.384 . S
C2485 C2486 1.385 . S
C2485 H2487 0.950 . S
C2486 C2480 1.404 . S
C2486 H2484 0.949 . S
C2486 C2485 1.385 . S
H2487 C2485 0.950 . S
H2488 C2472 0.951 . S
H2489 C2474 0.951 . S
H2490 C2476 0.951 . S
H2491 C2477 0.950 . S
H2492 C2478 0.950 . S
H2493 C2479 0.950 . S
H2494 C2481 0.950 . S
H2495 C2482 0.951 . S
C2496 C2497 1.386 . S
C2496 C2498 1.383 . S
C2496 H2512 0.951 . S
C2497 C2496 1.386 . S
C2497 C2501 1.383 . S
C2498 C2496 1.383 . S
C2498 C2499 1.402 . S
C2498 H2513 0.951 . S
C2499 C2498 1.402 . S
C2499 C2500 1.375 . S
C2499 C2502 1.481 . S
C2500 C2499 1.375 . S
C2500 C2501 1.367 . S
C2500 H2514 0.951 . S
C2501 C2497 1.383 . S
C2501 C2500 1.367 . S
C2501 H2515 0.950 . S
C2502 C2499 1.481 . S
C2502 C2503 1.297 . S
C2502 H2516 0.950 . S
C2503 C2502 1.297 . S
C2503 C2504 1.479 . S
C2503 H2517 0.950 . S
C2504 C2503 1.479 . S
C2504 C2505 1.375 . S
C2504 C2510 1.404 . S
C2505 C2504 1.375 . S
C2505 C2506 1.369 . S
C2505 H2518 0.950 . S
C2506 C2505 1.369 . S
C2506 C2507 1.392 . S
C2506 H2519 0.951 . S
C2507 C2506 1.392 . S
C2507 C2509 1.384 . S
H2508 C2510 0.949 . S
C2509 C2507 1.384 . S
C2509 C2510 1.385 . S
C2509 H2511 0.950 . S
C2510 C2504 1.404 . S
C2510 H2508 0.949 . S
C2510 C2509 1.385 . S
H2511 C2509 0.950 . S
H2512 C2496 0.951 . S
H2513 C2498 0.951 . S
H2514 C2500 0.951 . S
H2515 C2501 0.950 . S
H2516 C2502 0.950 . S
H2517 C2503 0.950 . S
H2518 C2505 0.950 . S
H2519 C2506 0.951 . S
C2520 C2521 1.386 . S
C2520 C2522 1.383 . S
C2520 H2536 0.951 . S
C2521 C2520 1.386 . S
C2521 C2525 1.383 . S
C2522 C2520 1.383 . S
C2522 C2523 1.402 . S
C2522 H2537 0.951 . S
C2523 C2522 1.402 . S
C2523 C2524 1.375 . S
C2523 C2526 1.481 . S
C2524 C2523 1.375 . S
C2524 C2525 1.367 . S
C2524 H2538 0.951 . S
C2525 C2521 1.383 . S
C2525 C2524 1.367 . S
C2525 H2539 0.950 . S
C2526 C2523 1.481 . S
C2526 C2527 1.297 . S
C2526 H2540 0.950 . S
C2527 C2526 1.297 . S
C2527 C2528 1.479 . S
C2527 H2541 0.950 . S
C2528 C2527 1.479 . S
C2528 C2529 1.375 . S
C2528 C2534 1.404 . S
C2529 C2528 1.375 . S
C2529 C2530 1.369 1_545 S
C2529 H2542 0.950 1_545 S
C2530 C2529 1.369 1_565 S
C2530 C2531 1.392 1_565 S
C2530 H2543 0.951 . S
C2531 C2530 1.392 1_545 S
C2531 C2533 1.384 . S
H2532 C2534 0.949 . S
C2533 C2531 1.384 . S
C2533 C2534 1.385 . S
C2533 H2535 0.950 . S
C2534 C2528 1.404 . S
C2534 H2532 0.949 . S
C2534 C2533 1.385 . S
H2535 C2533 0.950 . S
H2536 C2520 0.951 . S
H2537 C2522 0.951 . S
H2538 C2524 0.951 . S
H2539 C2525 0.950 . S
H2540 C2526 0.950 . S
H2541 C2527 0.950 . S
H2542 C2529 0.950 1_565 S
H2543 C2530 0.951 . S
C2544 C2545 1.386 . S
C2544 C2546 1.383 . S
C2544 H2560 0.951 1_655 S
C2545 C2544 1.386 . S
C2545 C2549 1.383 . S
C2546 C2544 1.383 . S
C2546 C2547 1.402 . S
C2546 H2561 0.951 1_655 S
C2547 C2546 1.402 . S
C2547 C2548 1.375 . S
C2547 C2550 1.481 . S
C2548 C2547 1.375 . S
C2548 C2549 1.367 . S
C2548 H2562 0.951 . S
C2549 C2545 1.383 . S
C2549 C2548 1.367 . S
C2549 H2563 0.950 . S
C2550 C2547 1.481 . S
C2550 C2551 1.297 . S
C2550 H2564 0.950 . S
C2551 C2550 1.297 . S
C2551 C2552 1.479 . S
C2551 H2565 0.950 . S
C2552 C2551 1.479 . S
C2552 C2553 1.375 1_655 S
C2552 C2558 1.404 . S
C2553 C2552 1.375 1_455 S
C2553 C2554 1.369 . S
C2553 H2566 0.950 . S
C2554 C2553 1.369 . S
C2554 C2555 1.392 1_455 S
C2554 H2567 0.951 . S
C2555 C2554 1.392 1_655 S
C2555 C2557 1.384 . S
H2556 C2558 0.949 . S
C2557 C2555 1.384 . S
C2557 C2558 1.385 . S
C2557 H2559 0.950 . S
C2558 C2552 1.404 . S
C2558 H2556 0.949 . S
C2558 C2557 1.385 . S
H2559 C2557 0.950 . S
H2560 C2544 0.951 1_455 S
H2561 C2546 0.951 1_455 S
H2562 C2548 0.951 . S
H2563 C2549 0.950 . S
H2564 C2550 0.950 . S
H2565 C2551 0.950 . S
H2566 C2553 0.950 . S
H2567 C2554 0.951 . S
C2568 C2569 1.386 . S
C2568 C2570 1.383 . S
C2568 H2584 0.951 . S
C2569 C2568 1.386 . S
C2569 C2573 1.383 . S
C2570 C2568 1.383 . S
C2570 C2571 1.402 . S
C2570 H2585 0.951 . S
C2571 C2570 1.402 . S
C2571 C2572 1.375 . S
C2571 C2574 1.481 . S
C2572 C2571 1.375 . S
C2572 C2573 1.367 . S
C2572 H2586 0.951 . S
C2573 C2569 1.383 . S
C2573 C2572 1.367 . S
C2573 H2587 0.950 . S
C2574 C2571 1.481 . S
C2574 C2575 1.297 . S
C2574 H2588 0.950 . S
C2575 C2574 1.297 . S
C2575 C2576 1.479 . S
C2575 H2589 0.950 . S
C2576 C2575 1.479 . S
C2576 C2577 1.375 . S
C2576 C2582 1.404 . S
C2577 C2576 1.375 . S
C2577 C2578 1.369 . S
C2577 H2590 0.950 . S
C2578 C2577 1.369 . S
C2578 C2579 1.392 . S
C2578 H2591 0.951 . S
C2579 C2578 1.392 . S
C2579 C2581 1.384 . S
H2580 C2582 0.949 . S
C2581 C2579 1.384 . S
C2581 C2582 1.385 . S
C2581 H2583 0.950 . S
C2582 C2576 1.404 . S
C2582 H2580 0.949 . S
C2582 C2581 1.385 . S
H2583 C2581 0.950 . S
H2584 C2568 0.951 . S
H2585 C2570 0.951 . S
H2586 C2572 0.951 . S
H2587 C2573 0.950 . S
H2588 C2574 0.950 . S
H2589 C2575 0.950 . S
H2590 C2577 0.950 . S
H2591 C2578 0.951 . S
C2592 C2593 1.386 . S
C2592 C2594 1.383 . S
C2592 H2608 0.951 . S
C2593 C2592 1.386 . S
C2593 C2597 1.383 . S
C2594 C2592 1.383 . S
C2594 C2595 1.402 . S
C2594 H2609 0.951 . S
C2595 C2594 1.402 . S
C2595 C2596 1.375 . S
C2595 C2598 1.481 . S
C2596 C2595 1.375 . S
C2596 C2597 1.367 . S
C2596 H2610 0.951 . S
C2597 C2593 1.383 . S
C2597 C2596 1.367 . S
C2597 H2611 0.950 . S
C2598 C2595 1.481 . S
C2598 C2599 1.297 . S
C2598 H2612 0.950 . S
C2599 C2598 1.297 . S
C2599 C2600 1.479 . S
C2599 H2613 0.950 . S
C2600 C2599 1.479 . S
C2600 C2601 1.375 . S
C2600 C2606 1.404 . S
C2601 C2600 1.375 . S
C2601 C2602 1.369 . S
C2601 H2614 0.950 . S
C2602 C2601 1.369 . S
C2602 C2603 1.392 . S
C2602 H2615 0.951 . S
C2603 C2602 1.392 . S
C2603 C2605 1.384 . S
H2604 C2606 0.949 . S
C2605 C2603 1.384 . S
C2605 C2606 1.385 . S
C2605 H2607 0.950 . S
C2606 C2600 1.404 . S
C2606 H2604 0.949 . S
C2606 C2605 1.385 . S
H2607 C2605 0.950 . S
H2608 C2592 0.951 . S
H2609 C2594 0.951 . S
H2610 C2596 0.951 . S
H2611 C2597 0.950 . S
H2612 C2598 0.950 . S
H2613 C2599 0.950 . S
H2614 C2601 0.950 . S
H2615 C2602 0.951 . S
C2616 C2617 1.386 . S
C2616 C2618 1.383 . S
C2616 H2632 0.951 . S
C2617 C2616 1.386 . S
C2617 C2621 1.383 . S
C2618 C2616 1.383 . S
C2618 C2619 1.402 . S
C2618 H2633 0.951 . S
C2619 C2618 1.402 . S
C2619 C2620 1.375 . S
C2619 C2622 1.481 . S
C2620 C2619 1.375 . S
C2620 C2621 1.367 . S
C2620 H2634 0.951 . S
C2621 C2617 1.383 . S
C2621 C2620 1.367 . S
C2621 H2635 0.950 . S
C2622 C2619 1.481 . S
C2622 C2623 1.297 . S
C2622 H2636 0.950 . S
C2623 C2622 1.297 . S
C2623 C2624 1.479 . S
C2623 H2637 0.950 . S
C2624 C2623 1.479 . S
C2624 C2625 1.375 . S
C2624 C2630 1.404 . S
C2625 C2624 1.375 . S
C2625 C2626 1.369 . S
C2625 H2638 0.950 . S
C2626 C2625 1.369 . S
C2626 C2627 1.392 . S
C2626 H2639 0.951 . S
C2627 C2626 1.392 . S
C2627 C2629 1.384 . S
H2628 C2630 0.949 . S
C2629 C2627 1.384 . S
C2629 C2630 1.385 . S
C2629 H2631 0.950 . S
C2630 C2624 1.404 . S
C2630 H2628 0.949 . S
C2630 C2629 1.385 . S
H2631 C2629 0.950 . S
H2632 C2616 0.951 . S
H2633 C2618 0.951 . S
H2634 C2620 0.951 . S
H2635 C2621 0.950 . S
H2636 C2622 0.950 . S
H2637 C2623 0.950 . S
H2638 C2625 0.950 . S
H2639 C2626 0.951 . S
C2640 C2641 1.386 . S
C2640 C2642 1.383 . S
C2640 H2656 0.951 . S
C2641 C2640 1.386 . S
C2641 C2645 1.383 . S
C2642 C2640 1.383 . S
C2642 C2643 1.402 . S
C2642 H2657 0.951 . S
C2643 C2642 1.402 . S
C2643 C2644 1.375 . S
C2643 C2646 1.481 . S
C2644 C2643 1.375 . S
C2644 C2645 1.367 . S
C2644 H2658 0.951 . S
C2645 C2641 1.383 . S
C2645 C2644 1.367 . S
C2645 H2659 0.950 . S
C2646 C2643 1.481 . S
C2646 C2647 1.297 . S
C2646 H2660 0.950 . S
C2647 C2646 1.297 . S
C2647 C2648 1.479 . S
C2647 H2661 0.950 . S
C2648 C2647 1.479 . S
C2648 C2649 1.375 . S
C2648 C2654 1.404 . S
C2649 C2648 1.375 . S
C2649 C2650 1.369 . S
C2649 H2662 0.950 . S
C2650 C2649 1.369 . S
C2650 C2651 1.392 . S
C2650 H2663 0.951 . S
C2651 C2650 1.392 . S
C2651 C2653 1.384 . S
H2652 C2654 0.949 . S
C2653 C2651 1.384 . S
C2653 C2654 1.385 . S
C2653 H2655 0.950 . S
C2654 C2648 1.404 . S
C2654 H2652 0.949 . S
C2654 C2653 1.385 . S
H2655 C2653 0.950 . S
H2656 C2640 0.951 . S
H2657 C2642 0.951 . S
H2658 C2644 0.951 . S
H2659 C2645 0.950 . S
H2660 C2646 0.950 . S
H2661 C2647 0.950 . S
H2662 C2649 0.950 . S
H2663 C2650 0.951 . S
C2664 C2665 1.386 . S
C2664 C2666 1.383 . S
C2664 H2680 0.951 . S
C2665 C2664 1.386 . S
C2665 C2669 1.383 . S
C2666 C2664 1.383 . S
C2666 C2667 1.402 . S
C2666 H2681 0.951 . S
C2667 C2666 1.402 . S
C2667 C2668 1.375 . S
C2667 C2670 1.481 . S
C2668 C2667 1.375 . S
C2668 C2669 1.367 . S
C2668 H2682 0.951 . S
C2669 C2665 1.383 . S
C2669 C2668 1.367 . S
C2669 H2683 0.950 . S
C2670 C2667 1.481 . S
C2670 C2671 1.297 . S
C2670 H2684 0.950 . S
C2671 C2670 1.297 . S
C2671 C2672 1.479 . S
C2671 H2685 0.950 . S
C2672 C2671 1.479 . S
C2672 C2673 1.375 . S
C2672 C2678 1.404 . S
C2673 C2672 1.375 . S
C2673 C2674 1.369 . S
C2673 H2686 0.950 . S
C2674 C2673 1.369 . S
C2674 C2675 1.392 . S
C2674 H2687 0.951 . S
C2675 C2674 1.392 . S
C2675 C2677 1.384 . S
H2676 C2678 0.949 . S
C2677 C2675 1.384 . S
C2677 C2678 1.385 . S
C2677 H2679 0.950 . S
C2678 C2672 1.404 . S
C2678 H2676 0.949 . S
C2678 C2677 1.385 . S
H2679 C2677 0.950 . S
H2680 C2664 0.951 . S
H2681 C2666 0.951 . S
H2682 C2668 0.951 . S
H2683 C2669 0.950 . S
H2684 C2670 0.950 . S
H2685 C2671 0.950 . S
H2686 C2673 0.950 . S
H2687 C2674 0.951 . S
C2688 C2689 1.386 . S
C2688 C2690 1.383 . S
C2688 H2704 0.951 . S
C2689 C2688 1.386 . S
C2689 C2693 1.383 . S
C2690 C2688 1.383 . S
C2690 C2691 1.402 . S
C2690 H2705 0.951 . S
C2691 C2690 1.402 . S
C2691 C2692 1.375 . S
C2691 C2694 1.481 . S
C2692 C2691 1.375 . S
C2692 C2693 1.367 . S
C2692 H2706 0.951 . S
C2693 C2689 1.383 . S
C2693 C2692 1.367 . S
C2693 H2707 0.950 . S
C2694 C2691 1.481 . S
C2694 C2695 1.297 . S
C2694 H2708 0.950 . S
C2695 C2694 1.297 . S
C2695 C2696 1.479 . S
C2695 H2709 0.950 . S
C2696 C2695 1.479 . S
C2696 C2697 1.375 . S
C2696 C2702 1.404 . S
C2697 C2696 1.375 . S
C2697 C2698 1.369 . S
C2697 H2710 0.950 . S
C2698 C2697 1.369 . S
C2698 C2699 1.392 . S
C2698 H2711 0.951 . S
C2699 C2698 1.392 . S
C2699 C2701 1.384 . S
H2700 C2702 0.949 . S
C2701 C2699 1.384 . S
C2701 C2702 1.385 . S
C2701 H2703 0.950 . S
C2702 C2696 1.404 . S
C2702 H2700 0.949 . S
C2702 C2701 1.385 . S
H2703 C2701 0.950 . S
H2704 C2688 0.951 . S
H2705 C2690 0.951 . S
H2706 C2692 0.951 . S
H2707 C2693 0.950 . S
H2708 C2694 0.950 . S
H2709 C2695 0.950 . S
H2710 C2697 0.950 . S
H2711 C2698 0.951 . S
C2712 C2713 1.386 . S
C2712 C2714 1.383 . S
C2712 H2728 0.951 . S
C2713 C2712 1.386 . S
C2713 C2717 1.383 . S
C2714 C2712 1.383 . S
C2714 C2715 1.402 . S
C2714 H2729 0.951 . S
C2715 C2714 1.402 . S
C2715 C2716 1.375 . S
C2715 C2718 1.481 . S
C2716 C2715 1.375 . S
C2716 C2717 1.367 . S
C2716 H2730 0.951 . S
C2717 C2713 1.383 . S
C2717 C2716 1.367 . S
C2717 H2731 0.950 . S
C2718 C2715 1.481 . S
C2718 C2719 1.297 . S
C2718 H2732 0.950 . S
C2719 C2718 1.297 . S
C2719 C2720 1.479 . S
C2719 H2733 0.950 . S
C2720 C2719 1.479 . S
C2720 C2721 1.375 . S
C2720 C2726 1.404 . S
C2721 C2720 1.375 . S
C2721 C2722 1.369 . S
C2721 H2734 0.950 . S
C2722 C2721 1.369 . S
C2722 C2723 1.392 . S
C2722 H2735 0.951 . S
C2723 C2722 1.392 . S
C2723 C2725 1.384 . S
H2724 C2726 0.949 . S
C2725 C2723 1.384 . S
C2725 C2726 1.385 . S
C2725 H2727 0.950 . S
C2726 C2720 1.404 . S
C2726 H2724 0.949 . S
C2726 C2725 1.385 . S
H2727 C2725 0.950 . S
H2728 C2712 0.951 . S
H2729 C2714 0.951 . S
H2730 C2716 0.951 . S
H2731 C2717 0.950 . S
H2732 C2718 0.950 . S
H2733 C2719 0.950 . S
H2734 C2721 0.950 . S
H2735 C2722 0.951 . S
C2736 C2737 1.386 . S
C2736 C2738 1.383 . S
C2736 H2752 0.951 . S
C2737 C2736 1.386 . S
C2737 C2741 1.383 1_655 S
C2738 C2736 1.383 . S
C2738 C2739 1.402 . S
C2738 H2753 0.951 . S
C2739 C2738 1.402 . S
C2739 C2740 1.375 1_655 S
C2739 C2742 1.493 . S
C2740 C2739 1.375 1_455 S
C2740 C2741 1.367 . S
C2740 H2754 0.951 . S
C2741 C2737 1.383 1_455 S
C2741 C2740 1.367 . S
C2741 H2755 0.950 . S
C2742 C2739 1.493 . S
C2742 C2743 1.301 . S
C2742 H2756 0.933 1_655 S
C2743 C2742 1.301 . S
C2743 C2744 1.479 . S
C2743 H2757 0.950 . S
C2744 C2743 1.479 . S
C2744 C2745 1.375 . S
C2744 C2750 1.404 1_655 S
C2745 C2744 1.375 . S
C2745 C2746 1.369 . S
C2745 H2758 0.950 . S
C2746 C2745 1.369 . S
C2746 C2747 1.392 . S
C2746 H2759 0.951 . S
C2747 C2746 1.392 . S
C2747 C2749 1.384 1_655 S
H2748 C2750 0.949 . S
C2749 C2747 1.384 1_455 S
C2749 C2750 1.385 . S
C2749 H2751 0.950 . S
C2750 C2744 1.404 1_455 S
C2750 H2748 0.949 . S
C2750 C2749 1.385 . S
H2751 C2749 0.950 . S
H2752 C2736 0.951 . S
H2753 C2738 0.951 . S
H2754 C2740 0.951 . S
H2755 C2741 0.950 . S
H2756 C2742 0.933 1_455 S
H2757 C2743 0.950 . S
H2758 C2745 0.950 . S
H2759 C2746 0.951 . S
C2760 C2761 1.386 . S
C2760 C2762 1.383 . S
C2760 H2776 0.951 . S
C2761 C2760 1.386 . S
C2761 C2765 1.383 . S
C2762 C2760 1.383 . S
C2762 C2763 1.402 . S
C2762 H2777 0.951 . S
C2763 C2762 1.402 . S
C2763 C2764 1.375 . S
C2763 C2766 1.481 . S
C2764 C2763 1.375 . S
C2764 C2765 1.367 . S
C2764 H2778 0.951 . S
C2765 C2761 1.383 . S
C2765 C2764 1.367 . S
C2765 H2779 0.950 . S
C2766 C2763 1.481 . S
C2766 C2767 1.297 . S
C2766 H2780 0.950 . S
C2767 C2766 1.297 . S
C2767 C2768 1.479 . S
C2767 H2781 0.950 . S
C2768 C2767 1.479 . S
C2768 C2769 1.375 . S
C2768 C2774 1.404 . S
C2769 C2768 1.375 . S
C2769 C2770 1.369 . S
C2769 H2782 0.950 . S
C2770 C2769 1.369 . S
C2770 C2771 1.392 . S
C2770 H2783 0.951 . S
C2771 C2770 1.392 . S
C2771 C2773 1.384 . S
H2772 C2774 0.949 . S
C2773 C2771 1.384 . S
C2773 C2774 1.385 . S
C2773 H2775 0.950 . S
C2774 C2768 1.404 . S
C2774 H2772 0.949 . S
C2774 C2773 1.385 . S
H2775 C2773 0.950 . S
H2776 C2760 0.951 . S
H2777 C2762 0.951 . S
H2778 C2764 0.951 . S
H2779 C2765 0.950 . S
H2780 C2766 0.950 . S
H2781 C2767 0.950 . S
H2782 C2769 0.950 . S
H2783 C2770 0.951 . S
C2784 C2785 1.386 . S
C2784 C2786 1.383 . S
C2784 H2800 0.965 . S
C2785 C2784 1.386 . S
C2785 C2789 1.383 . S
C2786 C2784 1.383 . S
C2786 C2787 1.402 . S
C2786 H2801 0.951 1_545 S
C2787 C2786 1.402 . S
C2787 C2788 1.375 . S
C2787 C2790 1.481 . S
C2788 C2787 1.375 . S
C2788 C2789 1.367 . S
C2788 H2802 0.951 . S
C2789 C2785 1.383 . S
C2789 C2788 1.367 . S
C2789 H2803 0.950 . S
C2790 C2787 1.481 . S
C2790 C2791 1.298 . S
C2790 H2804 0.950 . S
C2791 C2790 1.298 . S
C2791 C2792 1.489 1_545 S
C2791 H2805 0.946 1_545 S
C2792 C2791 1.489 1_565 S
C2792 C2793 1.374 . S
C2792 C2798 1.398 1_565 S
C2793 C2792 1.374 . S
C2793 C2794 1.369 . S
C2793 H2806 0.950 . S
C2794 C2793 1.369 . S
C2794 C2795 1.392 1_565 S
C2794 H2807 0.951 . S
C2795 C2794 1.392 1_545 S
C2795 C2797 1.384 . S
H2796 C2798 0.949 . S
C2797 C2795 1.384 . S
C2797 C2798 1.385 . S
C2797 H2799 0.950 . S
C2798 C2792 1.398 1_545 S
C2798 H2796 0.949 . S
C2798 C2797 1.385 . S
H2799 C2797 0.950 . S
H2800 C2784 0.965 . S
H2801 C2786 0.951 1_565 S
H2802 C2788 0.951 . S
H2803 C2789 0.950 . S
H2804 C2790 0.950 . S
H2805 C2791 0.946 1_565 S
H2806 C2793 0.950 . S
H2807 C2794 0.951 . S
C1081 C4 1.379 . S
C1091 C688 1.421 1_455 S
C1105 C26 1.529 . S
C1115 C734 1.516 . S
C1139 C766 1.374 . S
C1129 C32 1.376 . S
C1153 C40 1.375 . S
C1163 C819 1.385 . S
C1177 C12 1.436 . S
C1187 C865 1.444 . S
C1201 C18 1.452 . S
C1211 C904 1.497 . S
C1225 C46 1.386 . S
C1235 C858 1.410 . S
C1259 C911 1.532 . S
C1249 C68 1.519 . S
C1283 C812 1.393 . S
C1273 C74 1.359 . S
C1297 C82 1.337 . S
C1307 C773 1.375 . S
C1331 C667 1.453 . S
C1321 C54 1.430 . S
C1345 C60 1.436 . S
C1355 C713 1.495 . S
C1369 C88 1.567 . S
C1379 C943 1.609 . S
C1393 C110 1.613 . S
C1403 C1010 1.593 . S
C1427 C1056 1.588 . S
C1417 C116 1.566 . S
C1441 C124 1.454 . S
C1451 C267 1.435 . S
C1465 C96 1.530 . S
C1475 C313 1.501 . S
C1489 C102 1.502 . S
C1499 C359 1.498 . S
C1513 C130 1.507 . S
C1523 C306 1.508 . S
C1537 C152 1.608 . S
C1547 C352 1.581 . S
C1571 C260 1.549 . S
C1561 C158 1.552 . S
C1595 C1035 1.504 . S
C1585 C166 1.548 . S
C1619 C964 1.514 . S
C1609 C138 1.523 . S
C1643 C989 1.587 . S
C1633 C144 1.527 . S
C1657 C172 1.498 . S
C1667 C391 1.516 . S
C1681 C194 1.601 . S
C1691 C444 1.600 . S
C1705 C200 1.550 . S
C1715 C490 1.570 . S
C1729 C208 1.539 . S
C1739 C536 1.529 . S
C1763 C589 1.534 . S
C1753 C180 1.535 . S
C1787 C635 1.579 . S
C1777 C186 1.547 . S
C1811 C582 1.624 . S
C1801 C214 1.587 . S
C1835 C628 1.561 . S
C1825 C236 1.614 . S
C1849 C242 1.531 . S
C1859 C543 1.545 . S
C1883 C497 1.420 . S
C1873 C250 1.441 . S
C1897 C222 1.543 . S
C1907 C412 1.551 . S
C1931 C451 1.515 . S
C1921 C228 1.534 . S
C1955 C274 1.499 . S
C1945 C5 1.295 . S
C1969 C25 1.401 . S
C1979 C320 1.356 . S
C2003 C366 1.518 . S
C1993 C33 1.370 . S
C2027 C398 1.353 . S
C2017 C39 1.379 . S
C2051 C437 1.478 . S
C2041 C11 1.487 . S
C2075 C483 1.415 . S
C2065 C19 1.191 . S
C2089 C47 1.319 1_556 S
C2099 C504 1.478 . S
C2113 C67 1.422 . S
C2123 C405 1.357 . S
C2137 C75 1.346 1_556 S
C2147 C458 1.551 . S
C2161 C81 1.399 . S
C2171 C299 1.410 . S
C2195 C345 1.448 . S
C2185 C53 1.469 . S
C2209 C61 1.250 . S
C2219 C253 1.399 . S
C2243 C529 1.408 . S
C2233 C89 1.244 . S
C2257 C109 1.530 . S
C2267 C596 1.535 . S
C2281 C117 1.262 . S
C2291 C642 1.541 . S
C2315 C681 1.188 . S
C2305 C123 1.196 . S
C2329 C95 1.407 . S
C2339 C727 1.407 . S
C2353 C103 1.124 . S
C2363 C759 1.195 . S
C2377 C131 1.000 . S
C2387 C780 1.215 . S
C2401 C151 1.218 . S
C2411 C674 1.218 . S
C2435 C720 1.409 . S
C2425 C159 1.277 . S
C2449 C165 1.370 . S
C2459 C575 1.341 . S
C2473 C137 1.500 . S
C2483 C621 1.454 . S
C2507 C550 1.508 . S
C2497 C145 1.256 . S
C2531 C826 1.235 . S
C2521 C173 1.115 . S
C2545 C193 1.165 . S
C2555 C872 1.212 . S
C2569 C201 1.189 . S
C2579 C897 1.418 . S
C2603 C950 1.379 . S
C2593 C207 1.379 . S
C2627 C1003 1.478 . S
C2617 C179 1.519 . S
C2641 C187 1.343 . S
C2651 C1049 1.481 . S
C2665 C215 1.309 . S
C2675 C1042 1.458 . S
C2689 C235 1.507 . S
C2699 C957 1.466 . S
C2723 C996 1.524 . S
C2713 C243 1.256 . S
C2747 C851 1.186 . S
C2737 C249 1.177 . S
C2771 C918 1.341 . S
C2761 C221 1.395 . S
C2785 C229 1.130 . S
C2795 C805 1.216 . S
