# Generated by pormake.
# Topology pyr, (3,6)-cn, num edge types: 1
# Building blocks:
#     Node 0, Type 0, BuildingBlock: PAMTOO_clean_linker_0, # of connection points: 3
#     Node 1, Type 0, BuildingBlock: PAMTOO_clean_linker_0, # of connection points: 3
#     Node 2, Type 0, BuildingBlock: PAMTOO_clean_linker_0, # of connection points: 3
#     Node 3, Type 0, BuildingBlock: PAMTOO_clean_linker_0, # of connection points: 3
#     Node 4, Type 0, BuildingBlock: PAMTOO_clean_linker_0, # of connection points: 3
#     Node 5, Type 0, BuildingBlock: PAMTOO_clean_linker_0, # of connection points: 3
#     Node 6, Type 0, BuildingBlock: PAMTOO_clean_linker_0, # of connection points: 3
#     Node 7, Type 0, BuildingBlock: PAMTOO_clean_linker_0, # of connection points: 3
#     Node 8, Type 1, BuildingBlock: MIDCAF_clean_sbu_0, # of connection points: 6
#     Node 9, Type 1, BuildingBlock: MIDCAF_clean_sbu_0, # of connection points: 6
#     Node 10, Type 1, BuildingBlock: MIDCAF_clean_sbu_0, # of connection points: 6
#     Node 11, Type 1, BuildingBlock: MIDCAF_clean_sbu_0, # of connection points: 6
#     Edge 12, Type (0, 1), BuildingBlock: CIFDUS_clean_linker_0, # of connection points: 2
#     Edge 13, Type (0, 1), BuildingBlock: CIFDUS_clean_linker_0, # of connection points: 2
#     Edge 14, Type (0, 1), BuildingBlock: CIFDUS_clean_linker_0, # of connection points: 2
#     Edge 15, Type (0, 1), BuildingBlock: CIFDUS_clean_linker_0, # of connection points: 2
#     Edge 16, Type (0, 1), BuildingBlock: CIFDUS_clean_linker_0, # of connection points: 2
#     Edge 17, Type (0, 1), BuildingBlock: CIFDUS_clean_linker_0, # of connection points: 2
#     Edge 18, Type (0, 1), BuildingBlock: CIFDUS_clean_linker_0, # of connection points: 2
#     Edge 19, Type (0, 1), BuildingBlock: CIFDUS_clean_linker_0, # of connection points: 2
#     Edge 20, Type (0, 1), BuildingBlock: CIFDUS_clean_linker_0, # of connection points: 2
#     Edge 21, Type (0, 1), BuildingBlock: CIFDUS_clean_linker_0, # of connection points: 2
#     Edge 22, Type (0, 1), BuildingBlock: CIFDUS_clean_linker_0, # of connection points: 2
#     Edge 23, Type (0, 1), BuildingBlock: CIFDUS_clean_linker_0, # of connection points: 2
#     Edge 24, Type (0, 1), BuildingBlock: CIFDUS_clean_linker_0, # of connection points: 2
#     Edge 25, Type (0, 1), BuildingBlock: CIFDUS_clean_linker_0, # of connection points: 2
#     Edge 26, Type (0, 1), BuildingBlock: CIFDUS_clean_linker_0, # of connection points: 2
#     Edge 27, Type (0, 1), BuildingBlock: CIFDUS_clean_linker_0, # of connection points: 2
#     Edge 28, Type (0, 1), BuildingBlock: CIFDUS_clean_linker_0, # of connection points: 2
#     Edge 29, Type (0, 1), BuildingBlock: CIFDUS_clean_linker_0, # of connection points: 2
#     Edge 30, Type (0, 1), BuildingBlock: CIFDUS_clean_linker_0, # of connection points: 2
#     Edge 31, Type (0, 1), BuildingBlock: CIFDUS_clean_linker_0, # of connection points: 2
#     Edge 32, Type (0, 1), BuildingBlock: CIFDUS_clean_linker_0, # of connection points: 2
#     Edge 33, Type (0, 1), BuildingBlock: CIFDUS_clean_linker_0, # of connection points: 2
#     Edge 34, Type (0, 1), BuildingBlock: CIFDUS_clean_linker_0, # of connection points: 2
#     Edge 35, Type (0, 1), BuildingBlock: CIFDUS_clean_linker_0, # of connection points: 2
# Relax obj value: 0.098
# Max RMSD: 0.202
# Mean RMSD: 0.141
data_MOF--net-pry--node1-MIDCAF_clean_sbu_0--node2-PAMTOO_clean_linker_0--edge1-CIFDUS_clean_linker_0
_symmetry_space_group_name_H-M    P1
_symmetry_Int_Tables_number       1
_symmetry_cell_setting            triclinic
loop_
_symmetry_equiv_pos_as_xyz
'x, y, z'
_cell_length_a     30.192886
_cell_length_b     31.346542
_cell_length_c     30.822754
_cell_angle_alpha  89.857113
_cell_angle_beta   91.138414
_cell_angle_gamma 95.478082
loop_
_atom_site_label
_atom_site_type_symbol
_atom_site_fract_x
_atom_site_fract_y
_atom_site_fract_z
_atom_type_partial_charge
H0 H 0.20353 0.27685 0.27995 0.0
H1 H 0.30032 0.18414 0.28516 0.0
H2 H 0.29718 0.26815 0.17677 0.0
H3 H 0.30456 0.17438 0.15817 0.0
C4 C 0.3253 0.16741 0.18711 0.0
O5 O 0.33494 0.2044 0.21117 0.0
H6 H 0.3056 0.14299 0.20698 0.0
C7 C 0.23137 0.26277 0.26613 0.0
C8 C 0.24726 0.27695 0.22507 0.0
C9 C 0.25066 0.22977 0.28903 0.0
C10 C 0.286 0.21088 0.26982 0.0
C11 C 0.30219 0.22452 0.22952 0.0
C12 C 0.28346 0.25778 0.20765 0.0
H13 H 0.26879 0.89255 0.76623 0.0
H14 H 0.26669 0.79788 0.66521 0.0
H15 H 0.36321 0.79721 0.76756 0.0
H16 H 0.39322 0.79453 0.67422 0.0
C17 C 0.36555 0.77128 0.66214 0.0
O18 O 0.3351 0.76233 0.69456 0.0
H19 H 0.34916 0.78664 0.6343 0.0
C20 C 0.28175 0.86478 0.75252 0.0
C21 C 0.31916 0.84807 0.77236 0.0
C22 C 0.26146 0.84666 0.71431 0.0
C23 C 0.27963 0.81138 0.69572 0.0
C24 C 0.31642 0.79431 0.71477 0.0
C25 C 0.33537 0.81186 0.7533 0.0
H26 H 0.84255 0.22982 0.86332 0.0
H27 H 0.74159 0.22784 0.76261 0.0
H28 H 0.82633 0.34237 0.78549 0.0
H29 H 0.72304 0.33867 0.77734 0.0
C30 C 0.72172 0.32204 0.74538 0.0
O31 O 0.76175 0.30582 0.73755 0.0
H32 H 0.69499 0.29508 0.7465 0.0
C33 C 0.82603 0.24592 0.83742 0.0
C34 C 0.83975 0.28916 0.82764 0.0
C35 C 0.78985 0.22355 0.81514 0.0
C36 C 0.77009 0.24366 0.77992 0.0
C37 C 0.78387 0.28605 0.76912 0.0
C38 C 0.81812 0.30885 0.79307 0.0
H39 H 0.83066 0.78446 0.38631 0.0
H40 H 0.80208 0.68514 0.29134 0.0
H41 H 0.90026 0.78895 0.265 0.0
H42 H 0.86396 0.75087 0.18499 0.0
C43 C 0.85105 0.71884 0.19747 0.0
O44 O 0.86576 0.71407 0.23964 0.0
H45 H 0.81403 0.7165 0.19593 0.0
C46 C 0.83544 0.77225 0.35406 0.0
C47 C 0.86799 0.793 0.32709 0.0
C48 C 0.81074 0.73395 0.34097 0.0
C49 C 0.81888 0.71596 0.30061 0.0
C50 C 0.8518 0.73562 0.2739 0.0
C51 C 0.87515 0.77448 0.28647 0.0
H52 H 0.89104 0.95739 0.8595 0.0
H53 H 0.89318 0.85144 0.9485 0.0
H54 H 0.99997 0.87767 0.86019 0.0
H55 H 0.9729 0.78257 0.87243 0.0
C56 C 0.95467 0.78564 0.90307 0.0
O57 O 0.96648 0.82565 0.92079 0.0
H58 H 0.91834 0.78183 0.89507 0.0
C59 C 0.90766 0.93118 0.87323 0.0
C60 C 0.94875 0.9216 0.85644 0.0
C61 C 0.88682 0.90584 0.90607 0.0
C62 C 0.90814 0.87122 0.9228 0.0
C63 C 0.94832 0.86081 0.90589 0.0
C64 C 0.96868 0.88593 0.87283 0.0
H65 H 0.70094 0.06239 0.35189 0.0
H66 H 0.60668 0.15782 0.34829 0.0
H67 H 0.70938 0.16361 0.44652 0.0
H68 H 0.63605 0.18638 0.48244 0.0
C69 C 0.61483 0.19441 0.45423 0.0
O70 O 0.64027 0.19883 0.41746 0.0
H71 H 0.58807 0.16764 0.4499 0.0
C72 C 0.68876 0.09119 0.36463 0.0
C73 C 0.70938 0.11061 0.40176 0.0
C74 C 0.65168 0.1081 0.34472 0.0
C75 C 0.63578 0.14496 0.36235 0.0
C76 C 0.65669 0.16471 0.39906 0.0
C77 C 0.69374 0.14804 0.41801 0.0
H78 H 0.35785 0.66154 0.05195 0.0
H79 H 0.41836 0.60185 0.16093 0.0
H80 H 0.48898 0.70894 0.09773 0.0
H81 H 0.55283 0.64378 0.16484 0.0
C82 C 0.51917 0.62963 0.17404 0.0
O83 O 0.48883 0.65868 0.16435 0.0
H84 H 0.51131 0.59915 0.15579 0.0
C85 C 0.38649 0.65864 0.07317 0.0
C86 C 0.42423 0.68816 0.06987 0.0
C87 C 0.38494 0.62653 0.10516 0.0
C88 C 0.42052 0.62509 0.13482 0.0
C89 C 0.45829 0.65459 0.13164 0.0
C90 C 0.46063 0.68496 0.09838 0.0
H91 H 0.08052 0.35763 0.69105 0.0
H92 H 0.116 0.49384 0.6838 0.0
H93 H 0.17234 0.41015 0.59502 0.0
H94 H 0.21388 0.49519 0.67298 0.0
C95 C 0.20598 0.51205 0.64228 0.0
O96 O 0.17025 0.4902 0.62036 0.0
H97 H 0.19674 0.54429 0.65119 0.0
C98 C 0.09878 0.3851 0.6761 0.0
C99 C 0.12639 0.37891 0.64081 0.0
C100 C 0.09444 0.4264 0.69201 0.0
C101 C 0.11765 0.46166 0.67159 0.0
C102 C 0.14615 0.4558 0.63735 0.0
C103 C 0.1503 0.41449 0.62165 0.0
Zn104 Zn 0.98989 0.09265 0.57867 0.0
Zn105 Zn 0.09603 0.00902 0.4873 0.0
Zn106 Zn 0.03952 0.05086 0.53168 0.0
C107 C 0.11781 0.09544 0.46952 0.0
C108 C 0.00818 0.98254 0.4568 0.0
O109 O 0.04045 0.02538 0.60032 0.0
O110 O 0.99114 0.06102 0.63325 0.0
C111 C 0.05674 0.15217 0.5519 0.0
O112 O 0.08594 0.09826 0.49639 0.0
O113 O 0.13019 0.05929 0.46015 0.0
O114 O 0.04849 0.97585 0.45252 0.0
O115 O 0.99779 0.01108 0.48392 0.0
O116 O 0.02501 0.14854 0.578 0.0
O117 O 0.06597 0.11976 0.52929 0.0
O118 O 0.9715 0.04138 0.50174 0.0
O119 O 0.93561 0.0843 0.54229 0.0
C120 C 0.93595 0.05927 0.51033 0.0
O121 O 0.0748 0.00952 0.57734 0.0
O122 O 0.12269 0.97918 0.53658 0.0
C123 C 0.01808 0.03269 0.63441 0.0
C124 C 0.10636 0.98486 0.57324 0.0
Zn125 Zn 0.52861 0.06139 0.95401 0.0
Zn126 Zn 0.59237 0.95091 0.06038 0.0
Zn127 Zn 0.56468 0.00751 0.00988 0.0
C128 C 0.66218 0.97603 0.00463 0.0
C129 C 0.52561 0.90692 0.01607 0.0
O130 O 0.53282 0.05444 0.05023 0.0
O131 O 0.50776 0.09799 1.00071 0.0
C132 C 0.62106 0.06676 0.94063 0.0
O133 O 0.63611 0.00485 0.9943 0.0
O134 O 0.64997 0.94731 0.03179 0.0
O135 O 0.54805 0.90212 0.05031 0.0
O136 O 0.52899 0.94307 0.99582 0.0
O137 O 0.58582 0.07988 0.92499 0.0
O138 O 0.61956 0.03994 0.97243 0.0
O139 O 0.51378 0.97223 0.96641 0.0
O140 O 0.48392 0.01977 0.92443 0.0
C141 C 0.48596 0.98142 0.93625 0.0
O142 O 0.55868 0.03042 0.07822 0.0
O143 O 0.59138 0.98156 0.1155 0.0
C144 C 0.5123 0.08748 0.04006 0.0
C145 C 0.57334 0.01623 0.11461 0.0
Zn146 Zn 0.60918 0.57347 0.57224 0.0
Zn147 Zn 0.49212 0.49059 0.47252 0.0
Zn148 Zn 0.55164 0.53226 0.51895 0.0
C149 C 0.54738 0.43028 0.49872 0.0
C150 C 0.53732 0.54801 0.41716 0.0
O151 O 0.5143 0.57023 0.56465 0.0
O152 O 0.56701 0.60464 0.60565 0.0
C153 C 0.61899 0.48762 0.5852 0.0
O154 O 0.56557 0.46334 0.51957 0.0
O155 O 0.51336 0.4336 0.47504 0.0
O156 O 0.50274 0.52222 0.41875 0.0
O157 O 0.56207 0.55572 0.45134 0.0
O158 O 0.63388 0.52389 0.5997 0.0
O159 O 0.58934 0.48469 0.55431 0.0
O160 O 0.59474 0.57829 0.47867 0.0
O161 O 0.64457 0.60522 0.52725 0.0
C162 C 0.63029 0.6029 0.48847 0.0
O163 O 0.4834 0.54041 0.54387 0.0
O164 O 0.4373 0.49891 0.50201 0.0
C165 C 0.52635 0.5972 0.59526 0.0
C166 C 0.4436 0.52408 0.53378 0.0
Zn167 Zn 0.11349 0.53206 0.98394 0.0
Zn168 Zn 0.00692 0.45764 0.09464 0.0
Zn169 Zn 0.06048 0.49518 0.03502 0.0
C170 C 0.09307 0.4454 0.12226 0.0
C171 C 0.98665 0.41617 0.01385 0.0
O172 O 0.04704 0.56404 0.02875 0.0
O173 O 0.10685 0.59285 0.99573 0.0
C174 C 0.16823 0.49669 0.03991 0.0
O175 O 0.10128 0.46554 0.08629 0.0
O176 O 0.05362 0.43903 0.13535 0.0
O177 O 0.97649 0.41483 0.05346 0.0
O178 O 0.01768 0.44404 1.00058 0.0
O179 O 0.16999 0.51034 1.00148 0.0
O180 O 0.1304 0.49098 0.05886 0.0
O181 O 0.04828 0.46386 0.9703 0.0
O182 O 0.08731 0.51049 0.92881 0.0
C183 C 0.061 0.47709 0.93246 0.0
O184 O 0.01962 0.54428 0.06162 0.0
O185 O 0.97586 0.50873 0.1089 0.0
C186 C 0.07014 0.59718 0.01317 0.0
C187 C 0.98848 0.54332 0.08978 0.0
H188 H 0.16416 0.2235 0.31845 0.0
H189 H 0.2976 0.19838 0.35733 0.0
H190 H 0.26861 0.15766 0.41935 0.0
H191 H 0.20468 0.1212 0.45727 0.0
H192 H 0.07227 0.15201 0.4241 0.0
H193 H 0.10176 0.1999 0.36629 0.0
C194 C 0.18726 0.2103 0.34096 0.0
C195 C 0.23307 0.21274 0.33161 0.0
C196 C 0.17052 0.18788 0.37784 0.0
C197 C 0.262 0.19541 0.36198 0.0
C198 C 0.24553 0.17238 0.39797 0.0
C199 C 0.18253 0.1395 0.43821 0.0
C200 C 0.13646 0.13302 0.4446 0.0
C201 C 0.19975 0.16709 0.40532 0.0
C202 C 0.10794 0.15681 0.41988 0.0
C203 C 0.12477 0.1838 0.38652 0.0
H204 H 0.40761 0.84856 0.79801 0.0
H205 H 0.28465 0.89743 0.83587 0.0
H206 H 0.32507 0.94217 0.89031 0.0
H207 H 0.39653 0.97206 0.9236 0.0
H208 H 0.51656 0.91503 0.89391 0.0
H209 H 0.47538 0.86713 0.84129 0.0
C210 C 0.3888 0.86768 0.81871 0.0
C211 C 0.34278 0.87016 0.81086 0.0
C212 C 0.41183 0.8919 0.85188 0.0
C213 C 0.32022 0.89601 0.8388 0.0
C214 C 0.34325 0.92138 0.8707 0.0
C215 C 0.4133 0.94845 0.90618 0.0
C216 C 0.45941 0.94718 0.91201 0.0
C217 C 0.38924 0.92043 0.87676 0.0
C218 C 0.48099 0.91639 0.88978 0.0
C219 C 0.45752 0.88928 0.85954 0.0
H220 H 0.64856 0.32031 0.69124 0.0
H221 H 0.77196 0.39527 0.72345 0.0
H222 H 0.75291 0.45139 0.6729 0.0
H223 H 0.69864 0.48137 0.62448 0.0
H224 H 0.57326 0.40853 0.59498 0.0
H225 H 0.59592 0.34871 0.63868 0.0
C226 C 0.67146 0.34871 0.68664 0.0
C227 C 0.71164 0.35385 0.71082 0.0
C228 C 0.65992 0.38101 0.65804 0.0
C229 C 0.74099 0.39078 0.70492 0.0
C230 C 0.73004 0.42279 0.6762 0.0
C231 C 0.67647 0.45218 0.62722 0.0
C232 C 0.63447 0.4492 0.6063 0.0
C233 C 0.68923 0.4186 0.6533 0.0
C234 C 0.60607 0.41127 0.61012 0.0
C235 C 0.61885 0.37727 0.63548 0.0
H236 H 0.93155 0.71926 0.15855 0.0
H237 H 0.8093 0.63974 0.17905 0.0
H238 H 0.84 0.57938 0.14406 0.0
H239 H 0.90341 0.54786 0.11285 0.0
H240 H 0.02728 0.62577 0.09555 0.0
H241 H 0.99405 0.68849 0.12283 0.0
C242 C 0.91147 0.68891 0.15442 0.0
C243 C 0.86799 0.684 0.17058 0.0
C244 C 0.92967 0.65419 0.13484 0.0
C245 C 0.84253 0.64434 0.16614 0.0
C246 C 0.86016 0.60984 0.14638 0.0
C247 C 0.92296 0.57873 0.1146 0.0
C248 C 0.96755 0.58238 0.10157 0.0
C249 C 0.90394 0.61419 0.13137 0.0
C250 C 0.99255 0.62244 0.10415 0.0
C251 C 0.9737 0.65815 0.12033 0.0
H252 H 0.38692 0.20512 0.1324 0.0
H253 H 0.35672 0.09004 0.207 0.0
H254 H 0.41757 0.05698 0.173 0.0
H255 H 0.47261 0.05742 0.11455 0.0
H256 H 0.4999 0.17186 0.03794 0.0
H257 H 0.44813 0.20874 0.08063 0.0
C258 C 0.3944 0.17316 0.14177 0.0
C259 C 0.36729 0.14996 0.17184 0.0
C260 C 0.42891 0.1541 0.12149 0.0
C261 C 0.37708 0.10849 0.18376 0.0
C262 C 0.4118 0.08953 0.16423 0.0
C263 C 0.46813 0.09078 0.1081 0.0
C264 C 0.48979 0.11176 0.07291 0.0
C265 C 0.43707 0.11151 0.13201 0.0
C266 C 0.48335 0.15491 0.06467 0.0
C267 C 0.45356 0.17599 0.08893 0.0
H268 H 0.24206 0.93122 0.71272 0.0
H269 H 0.1927 0.80513 0.66614 0.0
H270 H 0.13744 0.83652 0.62105 0.0
H271 H 0.10836 0.90049 0.58876 0.0
H272 H 0.1517 0.02525 0.64053 0.0
H273 H 0.20269 0.9933 0.69138 0.0
C274 C 0.21859 0.9101 0.69393 0.0
C275 C 0.22311 0.86566 0.69217 0.0
C276 C 0.18545 0.92816 0.66909 0.0
C277 C 0.19186 0.83956 0.66698 0.0
C278 C 0.15966 0.85741 0.64143 0.0
C279 C 0.12805 0.92039 0.61217 0.0
C280 C 0.12661 0.96499 0.6111 0.0
C281 C 0.15701 0.90176 0.64127 0.0
C282 C 0.15216 0.99073 0.64124 0.0
C283 C 0.18161 0.9725 0.66991 0.0
H284 H 0.85575 0.2799 0.91485 0.0
H285 H 0.90008 0.35694 0.80455 0.0
H286 H 0.9488 0.4032 0.85221 0.0
H287 H 0.97439 0.42454 0.92628 0.0
H288 H 0.93804 0.34144 0.03387 0.0
H289 H 0.89006 0.29481 0.98599 0.0
C290 C 0.87687 0.30587 0.90057 0.0
C291 C 0.87346 0.31475 0.8558 0.0
C292 C 0.90599 0.3316 0.92785 0.0
C293 C 0.90074 0.34964 0.83889 0.0
C294 C 0.92899 0.37608 0.86611 0.0
C295 C 0.95797 0.39518 0.93881 0.0
C296 C 0.96102 0.38614 0.98339 0.0
C297 C 0.93142 0.36767 0.91076 0.0
C298 C 0.93658 0.34927 0.99965 0.0
C299 C 0.90913 0.32248 0.97228 0.0
H300 H 0.72156 0.70918 0.33304 0.0
H301 H 0.8355 0.70373 0.41873 0.0
H302 H 0.78983 0.66167 0.47095 0.0
H303 H 0.71825 0.6264 0.49218 0.0
H304 H 0.60165 0.63726 0.41175 0.0
H305 H 0.64743 0.67642 0.35691 0.0
C306 C 0.7361 0.69871 0.36322 0.0
C307 C 0.7817 0.70946 0.37226 0.0
C308 C 0.70933 0.67514 0.39359 0.0
C309 C 0.8004 0.69603 0.41142 0.0
C310 C 0.77437 0.67191 0.44115 0.0
C311 C 0.70271 0.63735 0.46267 0.0
C312 C 0.65679 0.62741 0.45513 0.0
C313 C 0.72889 0.66133 0.43259 0.0
C314 C 0.63723 0.64246 0.4171 0.0
C315 C 0.66334 0.66553 0.3862 0.0
H316 H 0.20649 0.34613 0.25489 0.0
H317 H 0.23658 0.28232 0.13635 0.0
H318 H 0.19891 0.33393 0.09414 0.0
H319 H 0.15078 0.39305 0.09042 0.0
H320 H 0.11143 0.45004 0.20884 0.0
H321 H 0.15895 0.40558 0.25121 0.0
C322 C 0.20465 0.3431 0.21988 0.0
C323 C 0.22494 0.30998 0.19932 0.0
C324 C 0.18109 0.37199 0.19549 0.0
C325 C 0.22252 0.30769 0.1536 0.0
C326 C 0.20047 0.33711 0.12916 0.0
C327 C 0.15359 0.39638 0.12542 0.0
C328 C 0.12827 0.42514 0.14653 0.0
C329 C 0.17904 0.369 0.14971 0.0
C330 C 0.1311 0.42841 0.19195 0.0
C331 C 0.15796 0.40274 0.21616 0.0
H332 H 0.78006 0.19997 0.89991 0.0
H333 H 0.74934 0.15459 0.76953 0.0
H334 H 0.69705 0.09761 0.79783 0.0
H335 H 0.65152 0.06842 0.85873 0.0
H336 H 0.68415 0.11263 0.98867 0.0
H337 H 0.74538 0.16163 0.96151 0.0
C338 C 0.76335 0.1768 0.87757 0.0
C339 C 0.76793 0.18248 0.83245 0.0
C340 C 0.73337 0.14404 0.89403 0.0
C341 C 0.74551 0.15195 0.80432 0.0
C342 C 0.71563 0.11922 0.82047 0.0
C343 C 0.67304 0.08791 0.88104 0.0
C344 C 0.66377 0.08711 0.92548 0.0
C345 C 0.70786 0.11619 0.8651 0.0
C346 C 0.69124 0.11261 0.95434 0.0
C347 C 0.72595 0.14079 0.93877 0.0
H348 H 0.84789 0.8577 0.38189 0.0
H349 H 0.95642 0.81334 0.3102 0.0
H350 H 0.00651 0.87148 0.33938 0.0
H351 H 0.02193 0.93082 0.3895 0.0
H352 H 0.91764 0.96978 0.46986 0.0
H353 H 0.86379 0.91811 0.43307 0.0
C354 C 0.88251 0.86049 0.37271 0.0
C355 C 0.89775 0.83083 0.34332 0.0
C356 C 0.91215 0.89318 0.39129 0.0
C357 C 0.94282 0.83588 0.33157 0.0
C358 C 0.97194 0.869 0.34875 0.0
C359 C 0.98734 0.92842 0.39889 0.0
C360 C 0.97386 0.95482 0.43207 0.0
C361 C 0.95718 0.89729 0.37914 0.0
C362 C 0.92886 0.95091 0.44367 0.0
C363 C 0.89813 0.92084 0.423 0.0
H364 H 0.4285 0.72859 0.7031 0.0
H365 H 0.3451 0.72446 0.58794 0.0
H366 H 0.38415 0.6661 0.55876 0.0
H367 H 0.44847 0.62289 0.56222 0.0
H368 H 0.53253 0.62855 0.67725 0.0
H369 H 0.48702 0.67943 0.7102 0.0
C370 C 0.41856 0.71435 0.67194 0.0
C371 C 0.38467 0.73115 0.64733 0.0
C372 C 0.44165 0.6814 0.65511 0.0
C373 C 0.37156 0.7123 0.60718 0.0
C374 C 0.39396 0.67907 0.59045 0.0
C375 C 0.45606 0.63441 0.59491 0.0
C376 C 0.49389 0.62201 0.61719 0.0
C377 C 0.43002 0.66427 0.61353 0.0
C378 C 0.50374 0.63779 0.6593 0.0
C379 C 0.47775 0.66694 0.6782 0.0
H380 H 0.98724 0.89541 0.78227 0.0
H381 H 0.95773 0.00853 0.85153 0.0
H382 H 0.98337 0.05337 0.79064 0.0
H383 H 0.00584 0.05985 0.71533 0.0
H384 H 0.03334 0.94783 0.64364 0.0
H385 H 0.01869 0.9033 0.70839 0.0
C386 C 0.98726 0.92994 0.78432 0.0
C387 C 0.96977 0.94853 0.82117 0.0
C388 C 1.00182 0.9557 0.74882 0.0
C389 C 0.96999 0.99333 0.82323 0.0
C390 C 0.98488 0.01903 0.78851 0.0
C391 C 0.00944 0.02576 0.71406 0.0
C392 C 0.02031 0.00709 0.6747 0.0
C393 C 0.99957 1.00046 0.75076 0.0
C394 C 0.02538 0.96303 0.67363 0.0
C395 C 0.01639 0.93752 0.71052 0.0
H396 H 0.62369 0.1435 0.26877 0.0
H397 H 0.62735 0.02289 0.336 0.0
H398 H 0.59594 0.98462 0.27212 0.0
H399 H 0.57531 0.98456 0.19552 0.0
H400 H 0.57506 0.1037 0.12538 0.0
H401 H 0.5953 0.14359 0.19243 0.0
C402 C 0.61695 0.1089 0.26952 0.0
C403 C 0.62866 0.08597 0.30681 0.0
C404 C 0.59925 0.08692 0.23228 0.0
C405 C 0.61968 0.04117 0.3074 0.0
C406 C 0.60144 0.01928 0.27099 0.0
C407 C 0.57891 0.01934 0.19497 0.0
C408 C 0.57409 0.04112 0.15546 0.0
C409 C 0.59228 0.04171 0.23298 0.0
C410 C 0.57828 0.08614 0.15539 0.0
C411 C 0.59047 0.10891 0.19364 0.0
H412 H 0.58668 0.60618 0.22713 0.0
H413 H 0.44802 0.62982 0.22838 0.0
H414 H 0.44443 0.61203 0.30464 0.0
H415 H 0.47837 0.58592 0.37 0.0
H416 H 0.61464 0.55617 0.3708 0.0
H417 H 0.62215 0.58148 0.29532 0.0
C418 C 0.55592 0.60779 0.24438 0.0
C419 C 0.51796 0.61996 0.22203 0.0
C420 C 0.55378 0.59686 0.28869 0.0
C421 C 0.47796 0.62106 0.24451 0.0
C422 C 0.47579 0.61096 0.28833 0.0
C423 C 0.50996 0.58568 0.35379 0.0
C424 C 0.54607 0.56994 0.37567 0.0
C425 C 0.51324 0.59847 0.31052 0.0
C426 C 0.5867 0.56905 0.35453 0.0
C427 C 0.59073 0.58301 0.31137 0.0
H428 H 0.09121 0.37756 0.76572 0.0
H429 H 0.04152 0.49026 0.70913 0.0
H430 H 0.01762 0.51188 0.78017 0.0
H431 H 0.02534 0.50622 0.85928 0.0
H432 H 0.07458 0.39409 0.91639 0.0
H433 H 0.08245 0.36368 0.844 0.0
C434 C 0.07375 0.40605 0.76854 0.0
C435 C 0.06957 0.43303 0.7323 0.0
C436 C 0.06021 0.41845 0.80965 0.0
C437 C 0.04662 0.46972 0.73673 0.0
C438 C 0.03275 0.48204 0.77732 0.0
C439 C 0.03615 0.47438 0.85574 0.0
C440 C 0.0499 0.45248 0.89261 0.0
C441 C 0.04158 0.45784 0.81422 0.0
C442 C 0.06377 0.41131 0.88819 0.0
C443 C 0.06876 0.39426 0.84683 0.0
H444 H 0.85389 0.9828 0.92362 0.0
H445 H 0.81787 0.84606 0.92213 0.0
H446 H 0.74543 0.85651 0.95107 0.0
H447 H 0.69319 0.90345 0.97913 0.0
H448 H 0.72641 0.04 0.98131 0.0
H449 H 0.79851 0.03099 0.9485 0.0
C450 C 0.82999 0.95538 0.92921 0.0
C451 C 0.8418 0.9136 0.92145 0.0
C452 C 0.78782 0.96161 0.94566 0.0
C453 C 0.81032 0.87844 0.9289 0.0
C454 C 0.76866 0.88437 0.94515 0.0
C455 C 0.71618 0.93131 0.97229 0.0
C456 C 0.70454 0.97243 0.9823 0.0
C457 C 0.75734 0.92565 0.95416 0.0
C458 C 0.73432 0.00822 0.97292 0.0
C459 C 0.7757 0.00291 0.9547 0.0
H460 H 0.78701 0.08482 0.37047 0.0
H461 H 0.71169 0.09208 0.48728 0.0
H462 H 0.77364 0.0693 0.53047 0.0
H463 H 0.85178 0.05687 0.53633 0.0
H464 H 0.93011 0.05241 0.42144 0.0
H465 H 0.86427 0.0631 0.37596 0.0
C466 C 0.78408 0.0806 0.40526 0.0
C467 C 0.74525 0.09092 0.42586 0.0
C468 C 0.82034 0.06806 0.43016 0.0
C469 C 0.74163 0.08519 0.47091 0.0
C470 C 0.77695 0.07204 0.49559 0.0
C471 C 0.8542 0.05733 0.50124 0.0
C472 C 0.89562 0.05428 0.48219 0.0
C473 C 0.81687 0.06483 0.47576 0.0
C474 C 0.89842 0.05454 0.43676 0.0
C475 C 0.8609 0.06113 0.41086 0.0
H476 H 0.36646 0.54984 0.06619 0.0
H477 H 0.3131 0.63815 0.15325 0.0
H478 H 0.24061 0.5956 0.1507 0.0
H479 H 0.18979 0.54208 0.11204 0.0
H480 H 0.24187 0.4587 0.019 0.0
H481 H 0.31777 0.48852 0.03704 0.0
C482 C 0.3391 0.55891 0.08534 0.0
C483 C 0.34441 0.59694 0.10952 0.0
C484 C 0.29744 0.53486 0.0828 0.0
C485 C 0.30919 0.60892 0.1343 0.0
C486 C 0.26791 0.58464 0.13281 0.0
C487 C 0.218 0.52901 0.09746 0.0
C488 C 0.21057 0.49834 0.06435 0.0
C489 C 0.26115 0.54857 0.10573 0.0
C490 C 0.2471 0.48211 0.04486 0.0
C491 C 0.29037 0.49975 0.05458 0.0
H492 H 0.29171 0.52649 0.67015 0.0
H493 H 0.21137 0.51282 0.55277 0.0
H494 H 0.27829 0.52038 0.50926 0.0
H495 H 0.35935 0.52563 0.50473 0.0
H496 H 0.44061 0.53755 0.62146 0.0
H497 H 0.37367 0.53739 0.66518 0.0
C498 C 0.28904 0.52504 0.63502 0.0
C499 C 0.24685 0.51739 0.61477 0.0
C500 C 0.3277 0.52967 0.61019 0.0
C501 C 0.2435 0.51715 0.56923 0.0
C502 C 0.28173 0.52179 0.54432 0.0
C503 C 0.36241 0.52874 0.53974 0.0
C504 C 0.40475 0.53175 0.55992 0.0
C505 C 0.32393 0.52725 0.56449 0.0
C506 C 0.40838 0.53593 0.6052 0.0
C507 C 0.3701 0.53526 0.63018 0.0
H508 H 0.03354 0.7784 0.94576 0.0
H509 H 0.90204 0.7138 0.92748 0.0
H510 H 0.9241 0.65168 0.96777 0.0
H511 H 0.98386 0.61201 0.99886 0.0
H512 H 0.11616 0.67584 0.01407 0.0
H513 H 0.09058 0.74221 0.98572 0.0
C514 C 0.00953 0.75108 0.95157 0.0
C515 C 0.96628 0.75067 0.93383 0.0
C516 C 0.02265 0.71524 0.9742 0.0
C517 C 0.93552 0.7149 0.941 0.0
C518 C 0.94814 0.67933 0.96395 0.0
C519 C 0.00666 0.64087 0.99731 0.0
C520 C 0.05184 0.63905 0.00833 0.0
C521 C 0.99202 0.6786 0.97953 0.0
C522 C 0.08122 0.6765 0.00565 0.0
C523 C 0.0667 0.71437 0.98912 0.0
H524 H 0.48009 0.71558 0.0057 0.0
H525 H 0.36757 0.74933 0.07739 0.0
H526 H 0.38282 0.82422 0.05564 0.0
H527 H 0.44022 0.88096 0.03353 0.0
H528 H 0.55386 0.84716 0.96384 0.0
H529 H 0.52556 0.77153 0.96581 0.0
C530 C 0.45786 0.73913 0.0148 0.0
C531 C 0.42326 0.72744 0.04349 0.0
C532 C 0.46744 0.78222 1.00289 0.0
C533 C 0.39443 0.75786 0.05526 0.0
C534 C 0.40343 0.80074 0.0432 0.0
C535 C 0.4573 0.85715 0.01671 0.0
C536 C 0.49897 0.86909 0.9988 0.0
C537 C 0.44154 0.81362 0.01944 0.0
C538 C 0.52148 0.83834 0.97755 0.0
C539 C 0.50564 0.79507 0.97928 0.0
H540 H 0.10938 0.34777 0.55907 0.0
H541 H 0.15045 0.31154 0.68766 0.0
H542 H 0.14221 0.23609 0.66679 0.0
H543 H 0.11017 0.18075 0.61682 0.0
H544 H 0.06278 0.21521 0.49018 0.0
H545 H 0.08778 0.29091 0.50449 0.0
C546 C 0.11765 0.32329 0.58197 0.0
C547 C 0.12996 0.33487 0.62496 0.0
C548 C 0.1115 0.27974 0.57003 0.0
C549 C 0.14042 0.30311 0.65459 0.0
C550 C 0.1357 0.26005 0.64267 0.0
C551 C 0.10706 0.20476 0.59177 0.0
C552 C 0.08513 0.19285 0.55251 0.0
C553 C 0.11945 0.24797 0.60116 0.0
C554 C 0.08029 0.22387 0.52037 0.0
C555 C 0.09396 0.26713 0.52888 0.0
H556 H 0.65735 0.26908 0.48548 0.0
H557 H 0.5284 0.21165 0.44296 0.0
H558 H 0.49586 0.2785 0.45731 0.0
H559 H 0.50442 0.35339 0.47923 0.0
H560 H 0.63372 0.41376 0.5171 0.0
H561 H 0.6657 0.3453 0.50878 0.0
C562 C 0.62212 0.27141 0.47962 0.0
C563 C 0.59513 0.23564 0.46347 0.0
C564 C 0.60374 0.31016 0.48761 0.0
C565 C 0.54964 0.23878 0.45557 0.0
C566 C 0.53108 0.27691 0.46383 0.0
C567 C 0.53959 0.35161 0.48603 0.0
C568 C 0.56655 0.38853 0.49932 0.0
C569 C 0.55785 0.31279 0.47956 0.0
C570 C 0.61204 0.38562 0.50784 0.0
C571 C 0.63041 0.3466 0.50251 0.0
loop_
_geom_bond_atom_site_label_1
_geom_bond_atom_site_label_2
_geom_bond_distance
_geom_bond_site_symmetry_2
_ccdc_geom_bond_type
H0 C7 0.929 . S
H1 C10 0.930 . S
H2 C12 0.929 . S
H3 C4 0.969 . S
C4 H3 0.969 . S
C4 O5 1.550 . S
C4 H6 0.973 . S
O5 C4 1.550 . S
O5 C11 1.412 . S
H6 C4 0.973 . S
C7 H0 0.929 . S
C7 C8 1.400 . S
C7 C9 1.364 . S
C8 C7 1.400 . S
C8 C12 1.377 . S
C9 C7 1.364 . S
C9 C10 1.374 . S
C10 H1 0.930 . S
C10 C9 1.374 . S
C10 C11 1.383 . S
C11 O5 1.412 . S
C11 C10 1.383 . S
C11 C12 1.394 . S
C12 H2 0.929 . S
C12 C8 1.377 . S
C12 C11 1.394 . S
H13 C20 0.929 . S
H14 C23 0.930 . S
H15 C25 0.929 . S
H16 C17 0.969 . S
C17 H16 0.969 . S
C17 O18 1.550 . S
C17 H19 0.973 . S
O18 C17 1.550 . S
O18 C24 1.412 . S
H19 C17 0.973 . S
C20 H13 0.929 . S
C20 C21 1.400 . S
C20 C22 1.364 . S
C21 C20 1.400 . S
C21 C25 1.377 . S
C22 C20 1.364 . S
C22 C23 1.374 . S
C23 H14 0.930 . S
C23 C22 1.374 . S
C23 C24 1.383 . S
C24 O18 1.412 . S
C24 C23 1.383 . S
C24 C25 1.394 . S
C25 H15 0.929 . S
C25 C21 1.377 . S
C25 C24 1.394 . S
H26 C33 0.929 . S
H27 C36 0.930 . S
H28 C38 0.929 . S
H29 C30 0.969 . S
C30 H29 0.969 . S
C30 O31 1.550 . S
C30 H32 0.973 . S
O31 C30 1.550 . S
O31 C37 1.412 . S
H32 C30 0.973 . S
C33 H26 0.929 . S
C33 C34 1.400 . S
C33 C35 1.364 . S
C34 C33 1.400 . S
C34 C38 1.377 . S
C35 C33 1.364 . S
C35 C36 1.374 . S
C36 H27 0.930 . S
C36 C35 1.374 . S
C36 C37 1.383 . S
C37 O31 1.412 . S
C37 C36 1.383 . S
C37 C38 1.394 . S
C38 H28 0.929 . S
C38 C34 1.377 . S
C38 C37 1.394 . S
H39 C46 0.929 . S
H40 C49 0.930 . S
H41 C51 0.929 . S
H42 C43 0.969 . S
C43 H42 0.969 . S
C43 O44 1.550 . S
C43 H45 0.973 . S
O44 C43 1.550 . S
O44 C50 1.412 . S
H45 C43 0.973 . S
C46 H39 0.929 . S
C46 C47 1.400 . S
C46 C48 1.364 . S
C47 C46 1.400 . S
C47 C51 1.377 . S
C48 C46 1.364 . S
C48 C49 1.374 . S
C49 H40 0.930 . S
C49 C48 1.374 . S
C49 C50 1.383 . S
C50 O44 1.412 . S
C50 C49 1.383 . S
C50 C51 1.394 . S
C51 H41 0.929 . S
C51 C47 1.377 . S
C51 C50 1.394 . S
H52 C59 0.929 . S
H53 C62 0.930 . S
H54 C64 0.929 1_455 S
H55 C56 0.969 . S
C56 H55 0.969 . S
C56 O57 1.550 1_655 S
C56 H58 0.973 1_556 S
O57 C56 1.550 1_455 S
O57 C63 1.412 1_455 S
H58 C56 0.973 1_554 S
C59 H52 0.929 . S
C59 C60 1.400 . S
C59 C61 1.364 . S
C60 C59 1.400 . S
C60 C64 1.377 . S
C61 C59 1.364 . S
C61 C62 1.374 . S
C62 H53 0.930 . S
C62 C61 1.374 . S
C62 C63 1.383 . S
C63 O57 1.412 1_655 S
C63 C62 1.383 . S
C63 C64 1.394 . S
C64 H54 0.929 1_655 S
C64 C60 1.377 . S
C64 C63 1.394 . S
H65 C72 0.929 . S
H66 C75 0.930 . S
H67 C77 0.929 . S
H68 C69 0.969 . S
C69 H68 0.969 . S
C69 O70 1.550 . S
C69 H71 0.973 . S
O70 C69 1.550 . S
O70 C76 1.412 . S
H71 C69 0.973 . S
C72 H65 0.929 . S
C72 C73 1.400 . S
C72 C74 1.364 . S
C73 C72 1.400 . S
C73 C77 1.377 . S
C74 C72 1.364 . S
C74 C75 1.374 . S
C75 H66 0.930 . S
C75 C74 1.374 . S
C75 C76 1.383 . S
C76 O70 1.412 . S
C76 C75 1.383 . S
C76 C77 1.394 . S
C77 H67 0.929 . S
C77 C73 1.377 . S
C77 C76 1.394 . S
H78 C85 0.929 . S
H79 C88 0.930 . S
H80 C90 0.929 . S
H81 C82 0.969 . S
C82 H81 0.969 . S
C82 O83 1.550 . S
C82 H84 0.973 . S
O83 C82 1.550 . S
O83 C89 1.412 . S
H84 C82 0.973 . S
C85 H78 0.929 . S
C85 C86 1.400 . S
C85 C87 1.364 . S
C86 C85 1.400 . S
C86 C90 1.377 . S
C87 C85 1.364 . S
C87 C88 1.374 . S
C88 H79 0.930 . S
C88 C87 1.374 . S
C88 C89 1.383 . S
C89 O83 1.412 . S
C89 C88 1.383 . S
C89 C90 1.394 . S
C90 H80 0.929 . S
C90 C86 1.377 . S
C90 C89 1.394 . S
H91 C98 0.929 . S
H92 C101 0.930 . S
H93 C103 0.929 . S
H94 C95 0.969 . S
C95 H94 0.969 . S
C95 O96 1.550 . S
C95 H97 0.973 . S
O96 C95 1.550 . S
O96 C102 1.412 . S
H97 C95 0.973 . S
C98 H91 0.929 . S
C98 C99 1.400 . S
C98 C100 1.364 . S
C99 C98 1.400 . S
C99 C103 1.377 . S
C100 C98 1.364 . S
C100 C101 1.374 . S
C101 H92 0.930 . S
C101 C100 1.374 . S
C101 C102 1.383 . S
C102 O96 1.412 . S
C102 C101 1.383 . S
C102 C103 1.394 . S
C103 H93 0.929 . S
C103 C99 1.377 . S
C103 C102 1.394 . S
Zn104 O110 1.920 . S
Zn104 O116 1.898 . S
Zn104 O119 1.905 . S
Zn105 O113 1.905 1_565 S
Zn105 O114 1.898 . S
Zn105 O122 1.920 . S
Zn106 O109 2.080 1_455 S
Zn106 O112 2.114 . S
Zn106 O115 2.120 1_445 S
Zn106 O117 2.120 . S
Zn106 O118 2.114 1_455 S
Zn106 O121 2.080 . S
C107 O112 1.166 . S
C107 O113 1.182 . S
C108 O114 1.167 1_655 S
C108 O115 1.299 . S
O109 Zn106 2.080 1_655 S
O109 C123 1.305 . S
O110 Zn104 1.920 . S
O110 C123 1.234 . S
C111 O116 1.167 1_455 S
C111 O117 1.299 . S
O112 Zn106 2.114 . S
O112 C107 1.166 . S
O113 Zn105 1.905 1_545 S
O113 C107 1.182 . S
O114 Zn105 1.898 . S
O114 C108 1.167 1_455 S
O115 Zn106 2.120 1_665 S
O115 C108 1.299 . S
O116 Zn104 1.898 . S
O116 C111 1.167 1_655 S
O117 Zn106 2.120 . S
O117 C111 1.299 . S
O118 Zn106 2.114 1_655 S
O118 C120 1.166 . S
O119 Zn104 1.905 . S
O119 C120 1.182 . S
C120 O118 1.166 . S
C120 O119 1.182 . S
O121 Zn106 2.080 . S
O121 C124 1.305 1_545 S
O122 Zn105 1.920 . S
O122 C124 1.234 . S
C123 O109 1.305 . S
C123 O110 1.234 . S
C124 O121 1.305 1_565 S
C124 O122 1.234 . S
Zn125 O131 1.920 1_556 S
Zn125 O137 1.898 . S
Zn125 O140 1.905 . S
Zn126 O134 1.905 . S
Zn126 O135 1.898 . S
Zn126 O143 1.920 . S
Zn127 O130 2.080 . S
Zn127 O133 2.114 1_545 S
Zn127 O136 2.120 1_545 S
Zn127 O138 2.120 1_554 S
Zn127 O139 2.114 1_544 S
Zn127 O142 2.080 . S
C128 O133 1.166 . S
C128 O134 1.182 . S
C129 O135 1.167 . S
C129 O136 1.299 . S
O130 Zn127 2.080 . S
O130 C144 1.305 . S
O131 Zn125 1.920 1_554 S
O131 C144 1.234 . S
C132 O137 1.167 . S
C132 O138 1.299 . S
O133 Zn127 2.114 1_565 S
O133 C128 1.166 . S
O134 Zn126 1.905 . S
O134 C128 1.182 . S
O135 Zn126 1.898 . S
O135 C129 1.167 . S
O136 Zn127 2.120 1_565 S
O136 C129 1.299 . S
O137 Zn125 1.898 . S
O137 C132 1.167 . S
O138 Zn127 2.120 1_556 S
O138 C132 1.299 . S
O139 Zn127 2.114 1_566 S
O139 C141 1.166 . S
O140 Zn125 1.905 . S
O140 C141 1.182 1_545 S
C141 O139 1.166 . S
C141 O140 1.182 1_565 S
O142 Zn127 2.080 . S
O142 C145 1.305 . S
O143 Zn126 1.920 . S
O143 C145 1.234 1_565 S
C144 O130 1.305 . S
C144 O131 1.234 . S
C145 O142 1.305 . S
C145 O143 1.234 1_545 S
Zn146 O152 1.920 . S
Zn146 O158 1.898 . S
Zn146 O161 1.905 . S
Zn147 O155 1.905 . S
Zn147 O156 1.898 . S
Zn147 O164 1.920 . S
Zn148 O151 2.080 . S
Zn148 O154 2.114 . S
Zn148 O157 2.120 . S
Zn148 O159 2.120 . S
Zn148 O160 2.114 . S
Zn148 O163 2.080 . S
C149 O154 1.166 . S
C149 O155 1.182 . S
C150 O156 1.167 . S
C150 O157 1.299 . S
O151 Zn148 2.080 . S
O151 C165 1.305 . S
O152 Zn146 1.920 . S
O152 C165 1.234 . S
C153 O158 1.167 . S
C153 O159 1.299 . S
O154 Zn148 2.114 . S
O154 C149 1.166 . S
O155 Zn147 1.905 . S
O155 C149 1.182 . S
O156 Zn147 1.898 . S
O156 C150 1.167 . S
O157 Zn148 2.120 . S
O157 C150 1.299 . S
O158 Zn146 1.898 . S
O158 C153 1.167 . S
O159 Zn148 2.120 . S
O159 C153 1.299 . S
O160 Zn148 2.114 . S
O160 C162 1.166 . S
O161 Zn146 1.905 . S
O161 C162 1.182 . S
C162 O160 1.166 . S
C162 O161 1.182 . S
O163 Zn148 2.080 . S
O163 C166 1.305 . S
O164 Zn147 1.920 . S
O164 C166 1.234 . S
C165 O151 1.305 . S
C165 O152 1.234 . S
C166 O163 1.305 . S
C166 O164 1.234 . S
Zn167 O173 1.920 . S
Zn167 O179 1.898 . S
Zn167 O182 1.905 . S
Zn168 O176 1.905 1_655 S
Zn168 O177 1.898 . S
Zn168 O185 1.920 . S
Zn169 O172 2.080 1_554 S
Zn169 O175 2.114 . S
Zn169 O178 2.120 1_454 S
Zn169 O180 2.120 . S
Zn169 O181 2.114 1_554 S
Zn169 O184 2.080 . S
C170 O175 1.166 . S
C170 O176 1.182 . S
C171 O177 1.167 1_556 S
C171 O178 1.299 . S
O172 Zn169 2.080 1_556 S
O172 C186 1.305 . S
O173 Zn167 1.920 . S
O173 C186 1.234 . S
C174 O179 1.167 1_554 S
C174 O180 1.299 . S
O175 Zn169 2.114 . S
O175 C170 1.166 . S
O176 Zn168 1.905 1_455 S
O176 C170 1.182 . S
O177 Zn168 1.898 . S
O177 C171 1.167 1_554 S
O178 Zn169 2.120 1_656 S
O178 C171 1.299 . S
O179 Zn167 1.898 . S
O179 C174 1.167 1_556 S
O180 Zn169 2.120 . S
O180 C174 1.299 . S
O181 Zn169 2.114 1_556 S
O181 C183 1.166 . S
O182 Zn167 1.905 . S
O182 C183 1.182 . S
C183 O181 1.166 . S
C183 O182 1.182 . S
O184 Zn169 2.080 . S
O184 C187 1.305 . S
O185 Zn168 1.920 . S
O185 C187 1.234 1_655 S
C186 O172 1.305 . S
C186 O173 1.234 . S
C187 O184 1.305 . S
C187 O185 1.234 1_455 S
H188 C194 0.930 . S
H189 C197 0.930 . S
H190 C198 0.930 . S
H191 C199 0.930 . S
H192 C202 0.930 . S
H193 C203 0.930 . S
C194 H188 0.930 . S
C194 C195 1.355 . S
C194 C196 1.415 . S
C195 C194 1.355 . S
C195 C197 1.419 . S
C196 C194 1.415 . S
C196 C201 1.425 . S
C196 C203 1.409 . S
C197 H189 0.930 . S
C197 C195 1.419 . S
C197 C198 1.362 . S
C198 H190 0.930 . S
C198 C197 1.362 . S
C198 C201 1.409 . S
C199 H191 0.930 . S
C199 C200 1.355 . S
C199 C201 1.415 . S
C200 C199 1.355 . S
C200 C202 1.419 . S
C201 C196 1.425 . S
C201 C198 1.409 . S
C201 C199 1.415 . S
C202 H192 0.930 . S
C202 C200 1.419 . S
C202 C203 1.362 . S
C203 H193 0.930 . S
C203 C196 1.409 . S
C203 C202 1.362 . S
H204 C210 0.930 . S
H205 C213 0.930 . S
H206 C214 0.930 . S
H207 C215 0.930 . S
H208 C218 0.930 . S
H209 C219 0.930 . S
C210 H204 0.930 . S
C210 C211 1.355 . S
C210 C212 1.415 . S
C211 C210 1.355 . S
C211 C213 1.419 . S
C212 C210 1.415 . S
C212 C217 1.425 . S
C212 C219 1.409 . S
C213 H205 0.930 . S
C213 C211 1.419 . S
C213 C214 1.362 . S
C214 H206 0.930 . S
C214 C213 1.362 . S
C214 C217 1.409 . S
C215 H207 0.930 . S
C215 C216 1.355 . S
C215 C217 1.415 . S
C216 C215 1.355 . S
C216 C218 1.419 . S
C217 C212 1.425 . S
C217 C214 1.409 . S
C217 C215 1.415 . S
C218 H208 0.930 . S
C218 C216 1.419 . S
C218 C219 1.362 . S
C219 H209 0.930 . S
C219 C212 1.409 . S
C219 C218 1.362 . S
H220 C226 0.930 . S
H221 C229 0.930 . S
H222 C230 0.930 . S
H223 C231 0.930 . S
H224 C234 0.930 . S
H225 C235 0.930 . S
C226 H220 0.930 . S
C226 C227 1.355 . S
C226 C228 1.415 . S
C227 C226 1.355 . S
C227 C229 1.419 . S
C228 C226 1.415 . S
C228 C233 1.425 . S
C228 C235 1.409 . S
C229 H221 0.930 . S
C229 C227 1.419 . S
C229 C230 1.362 . S
C230 H222 0.930 . S
C230 C229 1.362 . S
C230 C233 1.409 . S
C231 H223 0.930 . S
C231 C232 1.355 . S
C231 C233 1.415 . S
C232 C231 1.355 . S
C232 C234 1.419 . S
C233 C228 1.425 . S
C233 C230 1.409 . S
C233 C231 1.415 . S
C234 H224 0.930 . S
C234 C232 1.419 . S
C234 C235 1.362 . S
C235 H225 0.930 . S
C235 C228 1.409 . S
C235 C234 1.362 . S
H236 C242 0.930 . S
H237 C245 0.930 . S
H238 C246 0.930 . S
H239 C247 0.930 . S
H240 C250 0.930 . S
H241 C251 0.930 . S
C242 H236 0.930 . S
C242 C243 1.355 . S
C242 C244 1.415 . S
C243 C242 1.355 . S
C243 C245 1.419 . S
C244 C242 1.415 . S
C244 C249 1.425 . S
C244 C251 1.409 1_655 S
C245 H237 0.930 . S
C245 C243 1.419 . S
C245 C246 1.362 . S
C246 H238 0.930 . S
C246 C245 1.362 . S
C246 C249 1.409 . S
C247 H239 0.930 . S
C247 C248 1.355 1_655 S
C247 C249 1.415 . S
C248 C247 1.355 1_455 S
C248 C250 1.419 . S
C249 C244 1.425 . S
C249 C246 1.409 . S
C249 C247 1.415 . S
C250 H240 0.930 . S
C250 C248 1.419 . S
C250 C251 1.362 . S
C251 H241 0.930 . S
C251 C244 1.409 1_455 S
C251 C250 1.362 . S
H252 C258 0.930 . S
H253 C261 0.930 . S
H254 C262 0.930 . S
H255 C263 0.930 . S
H256 C266 0.930 . S
H257 C267 0.930 . S
C258 H252 0.930 . S
C258 C259 1.355 . S
C258 C260 1.415 . S
C259 C258 1.355 . S
C259 C261 1.419 . S
C260 C258 1.415 . S
C260 C265 1.425 . S
C260 C267 1.409 . S
C261 H253 0.930 . S
C261 C259 1.419 . S
C261 C262 1.362 . S
C262 H254 0.930 . S
C262 C261 1.362 . S
C262 C265 1.409 . S
C263 H255 0.930 . S
C263 C264 1.355 . S
C263 C265 1.415 . S
C264 C263 1.355 . S
C264 C266 1.419 . S
C265 C260 1.425 . S
C265 C262 1.409 . S
C265 C263 1.415 . S
C266 H256 0.930 . S
C266 C264 1.419 . S
C266 C267 1.362 . S
C267 H257 0.930 . S
C267 C260 1.409 . S
C267 C266 1.362 . S
H268 C274 0.930 . S
H269 C277 0.930 . S
H270 C278 0.930 . S
H271 C279 0.930 . S
H272 C282 0.935 . S
H273 C283 0.930 1_545 S
C274 H268 0.930 . S
C274 C275 1.355 . S
C274 C276 1.415 . S
C275 C274 1.355 . S
C275 C277 1.419 . S
C276 C274 1.415 . S
C276 C281 1.425 . S
C276 C283 1.409 . S
C277 H269 0.930 . S
C277 C275 1.419 . S
C277 C278 1.362 . S
C278 H270 0.930 . S
C278 C277 1.362 . S
C278 C281 1.409 . S
C279 H271 0.930 . S
C279 C280 1.355 . S
C279 C281 1.415 . S
C280 C279 1.355 . S
C280 C282 1.416 1_565 S
C281 C276 1.425 . S
C281 C278 1.409 . S
C281 C279 1.415 . S
C282 H272 0.935 . S
C282 C280 1.416 1_545 S
C282 C283 1.360 1_545 S
C283 H273 0.930 1_565 S
C283 C276 1.409 . S
C283 C282 1.360 1_565 S
H284 C290 0.930 . S
H285 C293 0.930 . S
H286 C294 0.930 . S
H287 C295 0.930 . S
H288 C298 0.930 1_554 S
H289 C299 0.930 1_554 S
C290 H284 0.930 . S
C290 C291 1.355 . S
C290 C292 1.415 . S
C291 C290 1.355 . S
C291 C293 1.419 . S
C292 C290 1.415 . S
C292 C297 1.425 . S
C292 C299 1.409 . S
C293 H285 0.930 . S
C293 C291 1.419 . S
C293 C294 1.362 . S
C294 H286 0.930 . S
C294 C293 1.362 . S
C294 C297 1.409 . S
C295 H287 0.930 . S
C295 C296 1.355 . S
C295 C297 1.415 . S
C296 C295 1.355 . S
C296 C298 1.419 . S
C297 C292 1.425 . S
C297 C294 1.409 . S
C297 C295 1.415 . S
C298 H288 0.930 1_556 S
C298 C296 1.419 . S
C298 C299 1.362 . S
C299 H289 0.930 1_556 S
C299 C292 1.409 . S
C299 C298 1.362 . S
H300 C306 0.930 . S
H301 C309 0.930 . S
H302 C310 0.930 . S
H303 C311 0.930 . S
H304 C314 0.930 . S
H305 C315 0.930 . S
C306 H300 0.930 . S
C306 C307 1.355 . S
C306 C308 1.415 . S
C307 C306 1.355 . S
C307 C309 1.419 . S
C308 C306 1.415 . S
C308 C313 1.425 . S
C308 C315 1.409 . S
C309 H301 0.930 . S
C309 C307 1.419 . S
C309 C310 1.362 . S
C310 H302 0.930 . S
C310 C309 1.362 . S
C310 C313 1.409 . S
C311 H303 0.930 . S
C311 C312 1.355 . S
C311 C313 1.415 . S
C312 C311 1.355 . S
C312 C314 1.419 . S
C313 C308 1.425 . S
C313 C310 1.409 . S
C313 C311 1.415 . S
C314 H304 0.930 . S
C314 C312 1.419 . S
C314 C315 1.362 . S
C315 H305 0.930 . S
C315 C308 1.409 . S
C315 C314 1.362 . S
H316 C322 0.930 . S
H317 C325 0.930 . S
H318 C326 0.930 . S
H319 C327 0.930 . S
H320 C330 0.930 . S
H321 C331 0.930 . S
C322 H316 0.930 . S
C322 C323 1.355 . S
C322 C324 1.415 . S
C323 C322 1.355 . S
C323 C325 1.419 . S
C324 C322 1.415 . S
C324 C329 1.425 . S
C324 C331 1.409 . S
C325 H317 0.930 . S
C325 C323 1.419 . S
C325 C326 1.362 . S
C326 H318 0.930 . S
C326 C325 1.362 . S
C326 C329 1.409 . S
C327 H319 0.930 . S
C327 C328 1.355 . S
C327 C329 1.415 . S
C328 C327 1.355 . S
C328 C330 1.419 . S
C329 C324 1.425 . S
C329 C326 1.409 . S
C329 C327 1.415 . S
C330 H320 0.930 . S
C330 C328 1.419 . S
C330 C331 1.362 . S
C331 H321 0.930 . S
C331 C324 1.409 . S
C331 C330 1.362 . S
H332 C338 0.930 . S
H333 C341 0.930 . S
H334 C342 0.930 . S
H335 C343 0.930 . S
H336 C346 0.930 . S
H337 C347 0.930 . S
C338 H332 0.930 . S
C338 C339 1.355 . S
C338 C340 1.415 . S
C339 C338 1.355 . S
C339 C341 1.419 . S
C340 C338 1.415 . S
C340 C345 1.425 . S
C340 C347 1.409 . S
C341 H333 0.930 . S
C341 C339 1.419 . S
C341 C342 1.362 . S
C342 H334 0.930 . S
C342 C341 1.362 . S
C342 C345 1.409 . S
C343 H335 0.930 . S
C343 C344 1.355 . S
C343 C345 1.415 . S
C344 C343 1.355 . S
C344 C346 1.419 . S
C345 C340 1.425 . S
C345 C342 1.409 . S
C345 C343 1.415 . S
C346 H336 0.930 . S
C346 C344 1.419 . S
C346 C347 1.362 . S
C347 H337 0.930 . S
C347 C340 1.409 . S
C347 C346 1.362 . S
H348 C354 0.930 . S
H349 C357 0.930 . S
H350 C358 0.930 1_455 S
H351 C359 0.930 1_455 S
H352 C362 0.930 . S
H353 C363 0.930 . S
C354 H348 0.930 . S
C354 C355 1.355 . S
C354 C356 1.415 . S
C355 C354 1.355 . S
C355 C357 1.419 . S
C356 C354 1.415 . S
C356 C361 1.425 . S
C356 C363 1.409 . S
C357 H349 0.930 . S
C357 C355 1.419 . S
C357 C358 1.362 . S
C358 H350 0.930 1_655 S
C358 C357 1.362 . S
C358 C361 1.409 . S
C359 H351 0.930 1_655 S
C359 C360 1.355 . S
C359 C361 1.415 . S
C360 C359 1.355 . S
C360 C362 1.419 . S
C361 C356 1.425 . S
C361 C358 1.409 . S
C361 C359 1.415 . S
C362 H352 0.930 . S
C362 C360 1.419 . S
C362 C363 1.362 . S
C363 H353 0.930 . S
C363 C356 1.409 . S
C363 C362 1.362 . S
H364 C370 0.930 . S
H365 C373 0.930 . S
H366 C374 0.930 . S
H367 C375 0.930 . S
H368 C378 0.930 . S
H369 C379 0.930 . S
C370 H364 0.930 . S
C370 C371 1.355 . S
C370 C372 1.415 . S
C371 C370 1.355 . S
C371 C373 1.419 . S
C372 C370 1.415 . S
C372 C377 1.425 . S
C372 C379 1.409 . S
C373 H365 0.930 . S
C373 C371 1.419 . S
C373 C374 1.362 . S
C374 H366 0.930 . S
C374 C373 1.362 . S
C374 C377 1.409 . S
C375 H367 0.930 . S
C375 C376 1.355 . S
C375 C377 1.415 . S
C376 C375 1.355 . S
C376 C378 1.419 . S
C377 C372 1.425 . S
C377 C374 1.409 . S
C377 C375 1.415 . S
C378 H368 0.930 . S
C378 C376 1.419 . S
C378 C379 1.362 . S
C379 H369 0.930 . S
C379 C372 1.409 . S
C379 C378 1.362 . S
H380 C386 0.930 1_545 S
H381 C389 0.930 . S
H382 C390 0.930 . S
H383 C391 0.930 . S
H384 C394 0.930 . S
H385 C395 0.930 . S
C386 H380 0.930 1_565 S
C386 C387 1.355 . S
C386 C388 1.415 1_565 S
C387 C386 1.355 . S
C387 C389 1.419 1_655 S
C388 C386 1.415 1_545 S
C388 C393 1.425 1_645 S
C388 C395 1.409 . S
C389 H381 0.930 . S
C389 C387 1.419 1_455 S
C389 C390 1.362 . S
C390 H382 0.930 . S
C390 C389 1.362 . S
C390 C393 1.409 . S
C391 H383 0.930 . S
C391 C392 1.355 1_465 S
C391 C393 1.415 . S
C392 C391 1.355 1_645 S
C392 C394 1.419 . S
C393 C388 1.425 1_465 S
C393 C390 1.409 . S
C393 C391 1.415 . S
C394 H384 0.930 . S
C394 C392 1.419 . S
C394 C395 1.362 . S
C395 H385 0.930 . S
C395 C388 1.409 . S
C395 C394 1.362 . S
H396 C402 0.930 . S
H397 C405 0.930 . S
H398 C406 0.930 1_565 S
H399 C407 0.930 1_565 S
H400 C410 0.930 . S
H401 C411 0.930 . S
C402 H396 0.930 . S
C402 C403 1.355 . S
C402 C404 1.415 . S
C403 C402 1.355 . S
C403 C405 1.419 . S
C404 C402 1.415 . S
C404 C409 1.425 . S
C404 C411 1.409 . S
C405 H397 0.930 . S
C405 C403 1.419 . S
C405 C406 1.362 . S
C406 H398 0.930 1_545 S
C406 C405 1.362 . S
C406 C409 1.409 . S
C407 H399 0.930 1_545 S
C407 C408 1.355 . S
C407 C409 1.415 . S
C408 C407 1.355 . S
C408 C410 1.419 . S
C409 C404 1.425 . S
C409 C406 1.409 . S
C409 C407 1.415 . S
C410 H400 0.930 . S
C410 C408 1.419 . S
C410 C411 1.362 . S
C411 H401 0.930 . S
C411 C404 1.409 . S
C411 C410 1.362 . S
H412 C418 0.930 . S
H413 C421 0.930 . S
H414 C422 0.930 . S
H415 C423 0.930 . S
H416 C426 0.930 . S
H417 C427 0.930 . S
C418 H412 0.930 . S
C418 C419 1.355 . S
C418 C420 1.415 . S
C419 C418 1.355 . S
C419 C421 1.419 . S
C420 C418 1.415 . S
C420 C425 1.425 . S
C420 C427 1.409 . S
C421 H413 0.930 . S
C421 C419 1.419 . S
C421 C422 1.362 . S
C422 H414 0.930 . S
C422 C421 1.362 . S
C422 C425 1.409 . S
C423 H415 0.930 . S
C423 C424 1.355 . S
C423 C425 1.415 . S
C424 C423 1.355 . S
C424 C426 1.419 . S
C425 C420 1.425 . S
C425 C422 1.409 . S
C425 C423 1.415 . S
C426 H416 0.930 . S
C426 C424 1.419 . S
C426 C427 1.362 . S
C427 H417 0.930 . S
C427 C420 1.409 . S
C427 C426 1.362 . S
H428 C434 0.930 . S
H429 C437 0.930 . S
H430 C438 0.930 . S
H431 C439 0.930 . S
H432 C442 0.930 . S
H433 C443 0.930 . S
C434 H428 0.930 . S
C434 C435 1.355 . S
C434 C436 1.415 . S
C435 C434 1.355 . S
C435 C437 1.419 . S
C436 C434 1.415 . S
C436 C441 1.425 . S
C436 C443 1.409 . S
C437 H429 0.930 . S
C437 C435 1.419 . S
C437 C438 1.362 . S
C438 H430 0.930 . S
C438 C437 1.362 . S
C438 C441 1.409 . S
C439 H431 0.930 . S
C439 C440 1.355 . S
C439 C441 1.415 . S
C440 C439 1.355 . S
C440 C442 1.419 . S
C441 C436 1.425 . S
C441 C438 1.409 . S
C441 C439 1.415 . S
C442 H432 0.930 . S
C442 C440 1.419 . S
C442 C443 1.362 . S
C443 H433 0.930 . S
C443 C436 1.409 . S
C443 C442 1.362 . S
H444 C450 0.930 1_545 S
H445 C453 0.930 . S
H446 C454 0.930 . S
H447 C455 0.930 . S
H448 C458 0.930 1_554 S
H449 C459 0.930 . S
C450 H444 0.930 1_565 S
C450 C451 1.355 . S
C450 C452 1.415 . S
C451 C450 1.355 . S
C451 C453 1.419 . S
C452 C450 1.415 . S
C452 C457 1.425 . S
C452 C459 1.409 1_565 S
C453 H445 0.930 . S
C453 C451 1.419 . S
C453 C454 1.362 . S
C454 H446 0.930 . S
C454 C453 1.362 . S
C454 C457 1.409 . S
C455 H447 0.930 . S
C455 C456 1.355 . S
C455 C457 1.415 . S
C456 C455 1.355 . S
C456 C458 1.419 1_565 S
C457 C452 1.425 . S
C457 C454 1.409 . S
C457 C455 1.415 . S
C458 H448 0.930 1_556 S
C458 C456 1.419 1_545 S
C458 C459 1.362 . S
C459 H449 0.930 . S
C459 C452 1.409 1_545 S
C459 C458 1.362 . S
H460 C466 0.930 . S
H461 C469 0.930 . S
H462 C470 0.930 . S
H463 C471 0.930 . S
H464 C474 0.930 . S
H465 C475 0.930 . S
C466 H460 0.930 . S
C466 C467 1.355 . S
C466 C468 1.415 . S
C467 C466 1.355 . S
C467 C469 1.419 . S
C468 C466 1.415 . S
C468 C473 1.425 . S
C468 C475 1.409 . S
C469 H461 0.930 . S
C469 C467 1.419 . S
C469 C470 1.362 . S
C470 H462 0.930 . S
C470 C469 1.362 . S
C470 C473 1.409 . S
C471 H463 0.930 . S
C471 C472 1.355 . S
C471 C473 1.415 . S
C472 C471 1.355 . S
C472 C474 1.419 . S
C473 C468 1.425 . S
C473 C470 1.409 . S
C473 C471 1.415 . S
C474 H464 0.930 . S
C474 C472 1.419 . S
C474 C475 1.362 . S
C475 H465 0.930 . S
C475 C468 1.409 . S
C475 C474 1.362 . S
H476 C482 0.930 . S
H477 C485 0.930 . S
H478 C486 0.930 . S
H479 C487 0.930 . S
H480 C490 0.930 . S
H481 C491 0.930 . S
C482 H476 0.930 . S
C482 C483 1.355 . S
C482 C484 1.415 . S
C483 C482 1.355 . S
C483 C485 1.419 . S
C484 C482 1.415 . S
C484 C489 1.425 . S
C484 C491 1.409 . S
C485 H477 0.930 . S
C485 C483 1.419 . S
C485 C486 1.362 . S
C486 H478 0.930 . S
C486 C485 1.362 . S
C486 C489 1.409 . S
C487 H479 0.930 . S
C487 C488 1.355 . S
C487 C489 1.415 . S
C488 C487 1.355 . S
C488 C490 1.419 . S
C489 C484 1.425 . S
C489 C486 1.409 . S
C489 C487 1.415 . S
C490 H480 0.930 . S
C490 C488 1.419 . S
C490 C491 1.362 . S
C491 H481 0.930 . S
C491 C484 1.409 . S
C491 C490 1.362 . S
H492 C498 0.930 . S
H493 C501 0.930 . S
H494 C502 0.930 . S
H495 C503 0.930 . S
H496 C506 0.930 . S
H497 C507 0.930 . S
C498 H492 0.930 . S
C498 C499 1.355 . S
C498 C500 1.415 . S
C499 C498 1.355 . S
C499 C501 1.419 . S
C500 C498 1.415 . S
C500 C505 1.425 . S
C500 C507 1.409 . S
C501 H493 0.930 . S
C501 C499 1.419 . S
C501 C502 1.362 . S
C502 H494 0.930 . S
C502 C501 1.362 . S
C502 C505 1.409 . S
C503 H495 0.930 . S
C503 C504 1.355 . S
C503 C505 1.415 . S
C504 C503 1.355 . S
C504 C506 1.419 . S
C505 C500 1.425 . S
C505 C502 1.409 . S
C505 C503 1.415 . S
C506 H496 0.930 . S
C506 C504 1.419 . S
C506 C507 1.362 . S
C507 H497 0.930 . S
C507 C500 1.409 . S
C507 C506 1.362 . S
H508 C514 0.930 . S
H509 C517 0.930 . S
H510 C518 0.930 . S
H511 C519 0.930 . S
H512 C522 0.930 . S
H513 C523 0.930 . S
C514 H508 0.930 . S
C514 C515 1.355 . S
C514 C516 1.415 . S
C515 C514 1.355 . S
C515 C517 1.419 1_456 S
C516 C514 1.415 . S
C516 C521 1.425 1_556 S
C516 C523 1.409 . S
C517 H509 0.930 . S
C517 C515 1.419 1_654 S
C517 C518 1.362 . S
C518 H510 0.930 . S
C518 C517 1.362 . S
C518 C521 1.409 1_655 S
C519 H511 0.930 . S
C519 C520 1.355 1_554 S
C519 C521 1.415 . S
C520 C519 1.355 1_556 S
C520 C522 1.419 . S
C521 C516 1.425 1_554 S
C521 C518 1.409 1_455 S
C521 C519 1.415 . S
C522 H512 0.930 . S
C522 C520 1.419 . S
C522 C523 1.362 . S
C523 H513 0.930 . S
C523 C516 1.409 . S
C523 C522 1.362 . S
H524 C530 0.930 . S
H525 C533 0.930 . S
H526 C534 0.930 1_556 S
H527 C535 0.930 . S
H528 C538 0.930 . S
H529 C539 0.930 . S
C530 H524 0.930 . S
C530 C531 1.355 . S
C530 C532 1.415 . S
C531 C530 1.355 . S
C531 C533 1.419 . S
C532 C530 1.415 . S
C532 C537 1.425 . S
C532 C539 1.409 . S
C533 H525 0.930 . S
C533 C531 1.419 . S
C533 C534 1.362 . S
C534 H526 0.930 1_554 S
C534 C533 1.362 . S
C534 C537 1.409 . S
C535 H527 0.930 . S
C535 C536 1.355 . S
C535 C537 1.415 . S
C536 C535 1.355 . S
C536 C538 1.419 . S
C537 C532 1.425 . S
C537 C534 1.409 . S
C537 C535 1.415 . S
C538 H528 0.930 . S
C538 C536 1.419 . S
C538 C539 1.362 . S
C539 H529 0.930 . S
C539 C532 1.409 . S
C539 C538 1.362 . S
H540 C546 0.930 . S
H541 C549 0.930 . S
H542 C550 0.930 . S
H543 C551 0.930 . S
H544 C554 0.930 . S
H545 C555 0.930 . S
C546 H540 0.930 . S
C546 C547 1.355 . S
C546 C548 1.415 . S
C547 C546 1.355 . S
C547 C549 1.419 . S
C548 C546 1.415 . S
C548 C553 1.425 . S
C548 C555 1.409 . S
C549 H541 0.930 . S
C549 C547 1.419 . S
C549 C550 1.362 . S
C550 H542 0.930 . S
C550 C549 1.362 . S
C550 C553 1.409 . S
C551 H543 0.930 . S
C551 C552 1.355 . S
C551 C553 1.415 . S
C552 C551 1.355 . S
C552 C554 1.419 . S
C553 C548 1.425 . S
C553 C550 1.409 . S
C553 C551 1.415 . S
C554 H544 0.930 . S
C554 C552 1.419 . S
C554 C555 1.362 . S
C555 H545 0.930 . S
C555 C548 1.409 . S
C555 C554 1.362 . S
H556 C562 0.930 . S
H557 C565 0.930 . S
H558 C566 0.930 . S
H559 C567 0.930 . S
H560 C570 0.930 . S
H561 C571 0.930 . S
C562 H556 0.930 . S
C562 C563 1.355 . S
C562 C564 1.415 . S
C563 C562 1.355 . S
C563 C565 1.419 . S
C564 C562 1.415 . S
C564 C569 1.425 . S
C564 C571 1.409 . S
C565 H557 0.930 . S
C565 C563 1.419 . S
C565 C566 1.362 . S
C566 H558 0.930 . S
C566 C565 1.362 . S
C566 C569 1.409 . S
C567 H559 0.930 . S
C567 C568 1.355 . S
C567 C569 1.415 . S
C568 C567 1.355 . S
C568 C570 1.419 . S
C569 C564 1.425 . S
C569 C566 1.409 . S
C569 C567 1.415 . S
C570 H560 0.930 . S
C570 C568 1.419 . S
C570 C571 1.362 . S
C571 H561 0.930 . S
C571 C564 1.409 . S
C571 C570 1.362 . S
C195 C9 1.906 . S
C200 C107 1.751 . S
C211 C21 1.555 . S
C216 C141 1.383 . S
C232 C153 1.286 . S
C227 C30 1.266 . S
C243 C43 1.240 . S
C248 C187 1.285 . S
C264 C144 1.346 . S
C259 C4 1.422 . S
C280 C124 1.777 . S
C275 C22 1.950 . S
C296 C171 1.107 . S
C291 C34 1.241 . S
C312 C162 1.347 . S
C307 C48 1.385 . S
C323 C8 1.621 . S
C328 C170 1.506 . S
C344 C132 1.347 . S
C339 C35 1.514 . S
C355 C47 1.578 . S
C360 C108 1.479 . S
C371 C17 1.395 . S
C376 C165 1.329 . S
C392 C123 1.500 . S
C387 C60 1.617 . S
C403 C74 1.829 . S
C408 C145 1.728 . S
C419 C82 1.202 . S
C424 C150 1.169 . S
C435 C100 1.845 . S
C440 C183 1.721 . S
C451 C61 1.833 . S
C456 C128 1.752 1_556 S
C472 C120 1.612 . S
C467 C73 1.686 . S
C488 C174 1.531 . S
C483 C87 1.638 . S
C504 C166 1.224 . S
C499 C95 1.232 . S
C515 C56 1.530 1_455 S
C520 C186 1.519 . S
C536 C129 1.574 . S
C531 C86 1.689 . S
C552 C111 1.462 . S
C547 C99 1.530 . S
C563 C69 1.510 . S
C568 C149 1.474 . S
