# Generated by pormake.
# Topology dag, (6,3)-cn, num edge types: 1
# Building blocks:
#     Node 0, Type 0, BuildingBlock: OJICUG_clean_sbu_0, # of connection points: 6
#     Node 1, Type 0, BuildingBlock: OJICUG_clean_sbu_0, # of connection points: 6
#     Node 2, Type 0, BuildingBlock: OJICUG_clean_sbu_0, # of connection points: 6
#     Node 3, Type 0, BuildingBlock: OJICUG_clean_sbu_0, # of connection points: 6
#     Node 4, Type 1, BuildingBlock: BELTOD_clean_linker_0, # of connection points: 3
#     Node 5, Type 1, BuildingBlock: BELTOD_clean_linker_0, # of connection points: 3
#     Node 6, Type 1, BuildingBlock: BELTOD_clean_linker_0, # of connection points: 3
#     Node 7, Type 1, BuildingBlock: BELTOD_clean_linker_0, # of connection points: 3
#     Node 8, Type 1, BuildingBlock: BELTOD_clean_linker_0, # of connection points: 3
#     Node 9, Type 1, BuildingBlock: BELTOD_clean_linker_0, # of connection points: 3
#     Node 10, Type 1, BuildingBlock: BELTOD_clean_linker_0, # of connection points: 3
#     Node 11, Type 1, BuildingBlock: BELTOD_clean_linker_0, # of connection points: 3
#     Edge 12, Type (0, 1), BuildingBlock: TEMPAE_clean_linker_10, # of connection points: 2
#     Edge 13, Type (0, 1), BuildingBlock: TEMPAE_clean_linker_10, # of connection points: 2
#     Edge 14, Type (0, 1), BuildingBlock: TEMPAE_clean_linker_10, # of connection points: 2
#     Edge 15, Type (0, 1), BuildingBlock: TEMPAE_clean_linker_10, # of connection points: 2
#     Edge 16, Type (0, 1), BuildingBlock: TEMPAE_clean_linker_10, # of connection points: 2
#     Edge 17, Type (0, 1), BuildingBlock: TEMPAE_clean_linker_10, # of connection points: 2
#     Edge 18, Type (0, 1), BuildingBlock: TEMPAE_clean_linker_10, # of connection points: 2
#     Edge 19, Type (0, 1), BuildingBlock: TEMPAE_clean_linker_10, # of connection points: 2
#     Edge 20, Type (0, 1), BuildingBlock: TEMPAE_clean_linker_10, # of connection points: 2
#     Edge 21, Type (0, 1), BuildingBlock: TEMPAE_clean_linker_10, # of connection points: 2
#     Edge 22, Type (0, 1), BuildingBlock: TEMPAE_clean_linker_10, # of connection points: 2
#     Edge 23, Type (0, 1), BuildingBlock: TEMPAE_clean_linker_10, # of connection points: 2
#     Edge 24, Type (0, 1), BuildingBlock: TEMPAE_clean_linker_10, # of connection points: 2
#     Edge 25, Type (0, 1), BuildingBlock: TEMPAE_clean_linker_10, # of connection points: 2
#     Edge 26, Type (0, 1), BuildingBlock: TEMPAE_clean_linker_10, # of connection points: 2
#     Edge 27, Type (0, 1), BuildingBlock: TEMPAE_clean_linker_10, # of connection points: 2
#     Edge 28, Type (0, 1), BuildingBlock: TEMPAE_clean_linker_10, # of connection points: 2
#     Edge 29, Type (0, 1), BuildingBlock: TEMPAE_clean_linker_10, # of connection points: 2
#     Edge 30, Type (0, 1), BuildingBlock: TEMPAE_clean_linker_10, # of connection points: 2
#     Edge 31, Type (0, 1), BuildingBlock: TEMPAE_clean_linker_10, # of connection points: 2
#     Edge 32, Type (0, 1), BuildingBlock: TEMPAE_clean_linker_10, # of connection points: 2
#     Edge 33, Type (0, 1), BuildingBlock: TEMPAE_clean_linker_10, # of connection points: 2
#     Edge 34, Type (0, 1), BuildingBlock: TEMPAE_clean_linker_10, # of connection points: 2
#     Edge 35, Type (0, 1), BuildingBlock: TEMPAE_clean_linker_10, # of connection points: 2
# Relax obj value: 0.238
# Max RMSD: 0.192
# Mean RMSD: 0.159
data_MOF--net-dag--node1-OJICUG_clean_sbu_0--node2-BELTOD_clean_linker_0--edge1-TEMPAE_clean_linker_10
_symmetry_space_group_name_H-M    P1
_symmetry_Int_Tables_number       1
_symmetry_cell_setting            triclinic
loop_
_symmetry_equiv_pos_as_xyz
'x, y, z'
_cell_length_a     40.602747
_cell_length_b     43.434068
_cell_length_c     42.252546
_cell_angle_alpha  94.963442
_cell_angle_beta   90.255704
_cell_angle_gamma 90.187893
loop_
_atom_site_label
_atom_site_type_symbol
_atom_site_fract_x
_atom_site_fract_y
_atom_site_fract_z
_atom_type_partial_charge
Sc0 Sc 0.11674 0.8735 0.03668 0.0
Sc1 Sc 0.12705 0.79326 0.03657 0.0
Sc2 Sc 0.18431 0.84427 0.0771 0.0
O3 O 0.14285 0.837 0.05001 0.0
C4 C 0.19045 0.89826 0.0308 0.0
C5 C 0.11248 0.82752 0.97406 0.0
C6 C 0.2051 0.78782 0.02757 0.0
C7 C 0.05938 0.82712 0.05369 0.0
C8 C 0.13522 0.89537 0.10869 0.0
C9 C 0.15128 0.78711 0.10755 0.0
O10 O 0.15987 0.89835 0.02444 0.0
O11 O 0.11607 0.80335 0.98865 0.0
O12 O 0.21187 0.81064 0.04755 0.0
O13 O 0.07021 0.85349 0.04785 0.0
O14 O 0.16067 0.87842 0.10955 0.0
O15 O 0.13476 0.77809 0.08293 0.0
O16 O 0.11708 0.89584 0.08412 0.0
O17 O 0.07714 0.803 0.05145 0.0
O18 O 0.17056 0.81028 0.10895 0.0
O19 O 0.11347 0.85465 0.988 0.0
O20 O 0.20322 0.87965 0.04898 0.0
O21 O 0.1757 0.77907 0.02091 0.0
Sc22 Sc 0.67318 0.6429 0.45229 0.0
Sc23 Sc 0.61878 0.69417 0.49579 0.0
Sc24 Sc 0.60633 0.614 0.49365 0.0
O25 O 0.63292 0.65042 0.48067 0.0
C26 C 0.62191 0.59322 0.42113 0.0
C27 C 0.64129 0.70178 0.42438 0.0
C28 C 0.54985 0.66183 0.47901 0.0
C29 C 0.69707 0.69833 0.5016 0.0
C30 C 0.67981 0.58851 0.49797 0.0
C31 C 0.60521 0.65842 0.55763 0.0
O32 O 0.64797 0.60938 0.41989 0.0
O33 O 0.6258 0.71073 0.44958 0.0
O34 O 0.56043 0.63503 0.48329 0.0
O35 O 0.70269 0.67612 0.48072 0.0
O36 O 0.64936 0.58837 0.50474 0.0
O37 O 0.60979 0.68302 0.54392 0.0
O38 O 0.69234 0.60724 0.47982 0.0
O39 O 0.66828 0.70685 0.51022 0.0
O40 O 0.60431 0.63179 0.54261 0.0
O41 O 0.65897 0.67763 0.42179 0.0
O42 O 0.60466 0.59274 0.44606 0.0
O43 O 0.56788 0.68587 0.48247 0.0
Sc44 Sc 0.88308 0.24052 0.00981 0.0
Sc45 Sc 0.82615 0.1892 0.9695 0.0
Sc46 Sc 0.89889 0.16043 0.00086 0.0
O47 O 0.86945 0.19677 0.99337 0.0
C48 C 0.95247 0.21097 0.98746 0.0
C49 C 0.85403 0.2502 0.94147 0.0
C50 C 0.87368 0.14249 0.92981 0.0
C51 C 0.80523 0.24102 0.02308 0.0
C52 C 0.90371 0.20196 0.06733 0.0
C53 C 0.82776 0.13236 0.0125 0.0
O54 O 0.93415 0.23397 0.99579 0.0
O55 O 0.83441 0.22731 0.94126 0.0
O56 O 0.8936 0.13983 0.95273 0.0
O57 O 0.83387 0.25294 0.02655 0.0
O58 O 0.90753 0.17701 0.04964 0.0
O59 O 0.81252 0.15036 0.99537 0.0
O60 O 0.89363 0.22693 0.05687 0.0
O61 O 0.79927 0.21747 0.00403 0.0
O62 O 0.85872 0.13371 0.01676 0.0
O63 O 0.87428 0.2575 0.96396 0.0
O64 O 0.94251 0.18318 0.98665 0.0
O65 O 0.84855 0.15986 0.93218 0.0
Sc66 Sc 0.39779 0.34647 0.55563 0.0
Sc67 Sc 0.32442 0.32449 0.5914 0.0
Sc68 Sc 0.37799 0.2675 0.55643 0.0
O69 O 0.36674 0.3128 0.56779 0.0
C70 C 0.39926 0.29785 0.49389 0.0
C71 C 0.32765 0.37528 0.54123 0.0
C72 C 0.29991 0.26783 0.5445 0.0
C73 C 0.37501 0.37329 0.625 0.0
C74 C 0.44896 0.29633 0.5753 0.0
C75 C 0.35038 0.26682 0.6267 0.0
O76 O 0.40511 0.32413 0.50862 0.0
O77 O 0.31222 0.36014 0.56094 0.0
O78 O 0.32812 0.25522 0.54211 0.0
O79 O 0.39436 0.37246 0.60136 0.0
O80 O 0.42957 0.27359 0.56869 0.0
O81 O 0.33201 0.29017 0.62433 0.0
O82 O 0.44037 0.3242 0.57335 0.0
O83 O 0.34903 0.35691 0.62506 0.0
O84 O 0.36943 0.25618 0.60454 0.0
O85 O 0.35842 0.37233 0.53641 0.0
O86 O 0.38777 0.27511 0.50748 0.0
O87 O 0.29505 0.29345 0.56059 0.0
P88 P 0.02344 0.11647 0.36572 0.0
H89 H 0.99535 0.0589 0.33662 0.0
H90 H 0.01707 0.01895 0.29797 0.0
H91 H 0.11207 0.06431 0.30326 0.0
H92 H 0.09 0.10443 0.34118 0.0
H93 H 0.04742 0.18102 0.37203 0.0
H94 H 0.09234 0.20633 0.40294 0.0
H95 H 0.11356 0.12068 0.44377 0.0
H96 H 0.06831 0.09553 0.41292 0.0
H97 H 0.9564 0.14028 0.35768 0.0
H98 H 0.05059 0.14466 0.31156 0.0
O99 O 0.99451 0.10371 0.38932 0.0
H100 H 0.93089 0.16708 0.31525 0.0
H101 H 0.02532 0.17036 0.26869 0.0
C102 C 0.04122 0.08423 0.34228 0.0
C103 C 0.02105 0.05979 0.33 0.0
C104 C 0.03351 0.03698 0.30792 0.0
C105 C 0.06631 0.03847 0.29753 0.0
C106 C 0.08664 0.06264 0.31058 0.0
C107 C 0.07414 0.08541 0.33258 0.0
C108 C 0.05475 0.13629 0.38999 0.0
C109 C 0.06164 0.16765 0.38762 0.0
C110 C 0.08744 0.1821 0.40524 0.0
C111 C 0.10664 0.16545 0.42564 0.0
C112 C 0.09906 0.1342 0.42848 0.0
C113 C 0.07331 0.11979 0.41081 0.0
C114 C 0.00534 0.14037 0.33762 0.0
C115 C 0.97166 0.14733 0.33863 0.0
C116 C 0.95708 0.16249 0.31425 0.0
C117 C 0.97598 0.17077 0.28842 0.0
C118 C 0.01004 0.16481 0.28836 0.0
C119 C 0.02453 0.14983 0.31276 0.0
P120 P 0.47557 0.61356 0.86544 0.0
H121 H 0.53592 0.64999 0.8583 0.0
H122 H 0.56156 0.67017 0.81183 0.0
H123 H 0.47829 0.63721 0.75421 0.0
H124 H 0.45274 0.61806 0.80052 0.0
H125 H 0.45719 0.62361 0.93228 0.0
H126 H 0.41358 0.65369 0.95982 0.0
H127 H 0.38012 0.68341 0.8701 0.0
H128 H 0.42446 0.65422 0.84302 0.0
H129 H 0.50726 0.55748 0.839 0.0
H130 H 0.40784 0.59044 0.8529 0.0
O131 O 0.50563 0.60669 0.89094 0.0
H132 H 0.4867 0.51273 0.80568 0.0
H133 H 0.38708 0.54555 0.82006 0.0
C134 C 0.49264 0.63219 0.83275 0.0
C135 C 0.52305 0.64757 0.83572 0.0
C136 C 0.53773 0.65895 0.80912 0.0
C137 C 0.52207 0.65523 0.77923 0.0
C138 C 0.4909 0.64095 0.77687 0.0
C139 C 0.47632 0.6297 0.80336 0.0
C140 C 0.44445 0.63712 0.88569 0.0
C141 C 0.44072 0.63695 0.91862 0.0
C142 C 0.41554 0.65392 0.93429 0.0
C143 C 0.39329 0.67104 0.91721 0.0
C144 C 0.39713 0.67101 0.88412 0.0
C145 C 0.42249 0.65422 0.86854 0.0
C146 C 0.45914 0.57718 0.84866 0.0
C147 C 0.48092 0.55454 0.83576 0.0
C148 C 0.46911 0.52896 0.81669 0.0
C149 C 0.43525 0.52569 0.81004 0.0
C150 C 0.41334 0.54763 0.82442 0.0
C151 C 0.4252 0.57322 0.84347 0.0
P152 P 0.76407 0.91191 0.22489 0.0
H153 H 0.78816 0.97451 0.22295 0.0
H154 H 0.77876 0.01367 0.18622 0.0
H155 H 0.7046 0.9556 0.13738 0.0
H156 H 0.71424 0.91616 0.17472 0.0
H157 H 0.74752 0.84589 0.21209 0.0
H158 H 0.70857 0.81344 0.23802 0.0
H159 H 0.66685 0.89471 0.28854 0.0
H160 H 0.70606 0.92717 0.26254 0.0
H161 H 0.82019 0.87743 0.24644 0.0
H162 H 0.77625 0.89563 0.15686 0.0
O163 O 0.78077 0.92772 0.25866 0.0
H164 H 0.86587 0.85087 0.21828 0.0
H165 H 0.82213 0.87 0.12865 0.0
C166 C 0.75159 0.94268 0.20178 0.0
C167 C 0.76915 0.97054 0.205 0.0
C168 C 0.76363 0.99299 0.18399 0.0
C169 C 0.74074 0.98782 0.15902 0.0
C170 C 0.72233 0.96022 0.15645 0.0
C171 C 0.72767 0.9378 0.17781 0.0
C172 C 0.72988 0.88888 0.23579 0.0
C173 C 0.72939 0.85686 0.22798 0.0
C174 C 0.70693 0.83831 0.24266 0.0
C175 C 0.68494 0.85159 0.2655 0.0
C176 C 0.68372 0.88392 0.27118 0.0
C177 C 0.70603 0.90244 0.25633 0.0
C178 C 0.79536 0.8893 0.20379 0.0
C179 C 0.82033 0.87565 0.22072 0.0
C180 C 0.84643 0.86053 0.2046 0.0
C181 C 0.8479 0.85871 0.17123 0.0
C182 C 0.82172 0.87085 0.15434 0.0
C183 C 0.79559 0.88587 0.1705 0.0
P184 P 0.80238 0.31202 0.61631 0.0
H185 H 0.84175 0.34673 0.57313 0.0
H186 H 0.83516 0.39835 0.55441 0.0
H187 H 0.75105 0.41423 0.61574 0.0
H188 H 0.75706 0.36277 0.63361 0.0
H189 H 0.84997 0.27139 0.64379 0.0
H190 H 0.87005 0.2679 0.69783 0.0
H191 H 0.81012 0.34658 0.72998 0.0
H192 H 0.79222 0.35113 0.67583 0.0
H193 H 0.76451 0.28139 0.5639 0.0
H194 H 0.7489 0.30953 0.66306 0.0
O195 O 0.82619 0.29107 0.59059 0.0
H196 H 0.70631 0.26764 0.55789 0.0
H197 H 0.69073 0.2974 0.657 0.0
C198 C 0.79989 0.35087 0.60476 0.0
C199 C 0.82207 0.36143 0.58272 0.0
C200 C 0.81836 0.39087 0.57208 0.0
C201 C 0.79278 0.41028 0.58386 0.0
C202 C 0.77132 0.39995 0.60669 0.0
C203 C 0.77471 0.37044 0.61686 0.0
C204 C 0.81957 0.31152 0.65566 0.0
C205 C 0.84169 0.28826 0.6624 0.0
C206 C 0.85292 0.28612 0.69346 0.0
C207 C 0.84155 0.30679 0.71855 0.0
C208 C 0.81998 0.33055 0.7114 0.0
C209 C 0.80938 0.33303 0.68026 0.0
C210 C 0.76126 0.29616 0.61398 0.0
C211 C 0.74872 0.28408 0.58453 0.0
C212 C 0.71531 0.27658 0.58106 0.0
C213 C 0.69363 0.28165 0.60689 0.0
C214 C 0.70664 0.2927 0.63667 0.0
C215 C 0.7401 0.29984 0.64016 0.0
P216 P 0.50492 0.35353 0.18647 0.0
H217 H 0.54424 0.40754 0.17318 0.0
H218 H 0.56364 0.45254 0.20746 0.0
H219 H 0.50339 0.42424 0.28379 0.0
H220 H 0.48388 0.37985 0.24979 0.0
H221 H 0.52035 0.32246 0.12399 0.0
H222 H 0.57237 0.30596 0.09889 0.0
H223 H 0.62478 0.33708 0.18506 0.0
H224 H 0.57283 0.35332 0.20999 0.0
H225 H 0.43821 0.33045 0.19671 0.0
H226 H 0.53524 0.32028 0.2362 0.0
O227 O 0.4775 0.35951 0.15814 0.0
H228 H 0.41429 0.306 0.24124 0.0
H229 H 0.5117 0.29726 0.28123 0.0
C230 C 0.51354 0.38972 0.20922 0.0
C231 C 0.53484 0.41132 0.19715 0.0
C232 C 0.54584 0.437 0.21665 0.0
C233 C 0.53553 0.44134 0.2484 0.0
C234 C 0.51227 0.42095 0.25959 0.0
C235 C 0.50115 0.3955 0.24008 0.0
C236 C 0.54276 0.33928 0.16874 0.0
C237 C 0.54302 0.3256 0.13749 0.0
C238 C 0.57277 0.31637 0.12313 0.0
C239 C 0.60269 0.32047 0.13994 0.0
C240 C 0.60215 0.33344 0.17157 0.0
C241 C 0.57244 0.34275 0.18582 0.0
C242 C 0.48857 0.32695 0.21291 0.0
C243 C 0.45448 0.32212 0.21443 0.0
C244 C 0.4408 0.30848 0.24017 0.0
C245 C 0.46095 0.3 0.26518 0.0
C246 C 0.49532 0.30302 0.26235 0.0
C247 C 0.50895 0.3163 0.23645 0.0
P248 P 0.30657 0.19388 0.95054 0.0
H249 H 0.33603 0.15853 -0.00024 0.0
H250 H 0.32939 0.10467 0.01191 0.0
H251 H 0.26575 0.08751 0.93005 0.0
H252 H 0.27216 0.14134 0.91827 0.0
H253 H 0.31706 0.24855 0.91678 0.0
H254 H 0.33443 0.2557 0.8626 0.0
H255 H 0.35365 0.15782 0.84646 0.0
H256 H 0.33608 0.1508 0.90041 0.0
H257 H 0.26116 0.20264 0.00327 0.0
H258 H 0.25898 0.21298 0.9027 0.0
O259 O 0.329 0.21369 0.97858 0.0
H260 H 0.20266 0.2147 0.00662 0.0
H261 H 0.20124 0.22733 0.90616 0.0
C262 C 0.30475 0.15377 0.95798 0.0
C263 C 0.32099 0.14308 0.98423 0.0
C264 C 0.31716 0.11236 0.99117 0.0
C265 C 0.29727 0.09191 0.97177 0.0
C266 C 0.28168 0.10261 0.94508 0.0
C267 C 0.28517 0.13336 0.93843 0.0
C268 C 0.32434 0.1991 0.91237 0.0
C269 C 0.32541 0.22871 0.90168 0.0
C270 C 0.33552 0.23277 0.87076 0.0
C271 C 0.34505 0.20723 0.85012 0.0
C272 C 0.3458 0.17782 0.8616 0.0
C273 C 0.33565 0.17381 0.89252 0.0
C274 C 0.26469 0.20749 0.95295 0.0
C275 C 0.24829 0.20844 0.98208 0.0
C276 C 0.21479 0.21557 0.98395 0.0
C277 C 0.19698 0.22221 0.95667 0.0
C278 C 0.21387 0.222 0.92762 0.0
C279 C 0.24724 0.21424 0.92569 0.0
P280 P 0.24104 0.59273 0.32656 0.0
H281 H 0.25704 0.52749 0.32261 0.0
H282 H 0.25437 0.4895 0.36139 0.0
H283 H 0.20064 0.55413 0.42515 0.0
H284 H 0.20341 0.59239 0.38572 0.0
H285 H 0.23353 0.66032 0.33175 0.0
H286 H 0.19616 0.69272 0.30482 0.0
H287 H 0.13842 0.61248 0.27208 0.0
H288 H 0.17588 0.57978 0.29998 0.0
H289 H 0.31069 0.59728 0.31059 0.0
H290 H 0.24608 0.63342 0.38548 0.0
O291 O 0.25378 0.57644 0.29153 0.0
H292 H 0.35747 0.62218 0.33841 0.0
H293 H 0.29283 0.65943 0.41318 0.0
C294 C 0.23022 0.56267 0.35121 0.0
C295 C 0.24364 0.53321 0.34441 0.0
C296 C 0.24203 0.5114 0.36667 0.0
C297 C 0.22732 0.51881 0.3964 0.0
C298 C 0.21228 0.54785 0.4025 0.0
C299 C 0.2137 0.56964 0.37998 0.0
C300 C 0.20744 0.61753 0.31806 0.0
C301 C 0.21199 0.64966 0.32032 0.0
C302 C 0.19045 0.66833 0.30484 0.0
C303 C 0.16452 0.65507 0.2862 0.0
C304 C 0.15826 0.62324 0.28632 0.0
C305 C 0.17958 0.60459 0.30229 0.0
C306 C 0.27489 0.61365 0.34587 0.0
C307 C 0.30645 0.61106 0.33277 0.0
C308 C 0.33321 0.62559 0.34864 0.0
C309 C 0.3289 0.64308 0.37794 0.0
C310 C 0.29705 0.64599 0.39078 0.0
C311 C 0.2703 0.6312 0.37495 0.0
P312 P 0.87696 0.86933 0.73032 0.0
H313 H 0.82574 0.91559 0.72645 0.0
H314 H 0.8243 0.97061 0.74447 0.0
H315 H 0.92939 0.96945 0.76084 0.0
H316 H 0.9308 0.91507 0.74212 0.0
H317 H 0.87968 0.80562 0.70628 0.0
H318 H 0.86598 0.77946 0.6551 0.0
H319 H 0.86107 0.86769 0.61478 0.0
H320 H 0.87301 0.89383 0.66724 0.0
H321 H 0.87856 0.84369 0.7918 0.0
H322 H 0.94768 0.86171 0.7184 0.0
O323 O 0.84142 0.8589 0.74608 0.0
H324 H 0.92339 0.82834 0.82516 0.0
H325 H 0.99333 0.84873 0.7528 0.0
C326 C 0.87816 0.91094 0.73393 0.0
C327 C 0.8486 0.9274 0.7331 0.0
C328 C 0.84779 0.95881 0.74349 0.0
C329 C 0.87661 0.97419 0.7548 0.0
C330 C 0.90674 0.95833 0.75233 0.0
C331 C 0.9075 0.92695 0.74186 0.0
C332 C 0.87723 0.85155 0.6905 0.0
C333 C 0.87657 0.8193 0.68622 0.0
C334 C 0.86894 0.80432 0.65664 0.0
C335 C 0.86205 0.82137 0.63053 0.0
C336 C 0.86551 0.8538 0.63443 0.0
C337 C 0.87265 0.86882 0.66435 0.0
C338 C 0.90989 0.85416 0.75281 0.0
C339 C 0.90345 0.84426 0.7828 0.0
C340 C 0.92925 0.83581 0.80204 0.0
C341 C 0.96215 0.83806 0.79208 0.0
C342 C 0.96837 0.84659 0.76127 0.0
C343 C 0.94234 0.85426 0.74166 0.0
C344 C 0.14707 0.91878 0.16405 0.0
C345 C 0.12591 0.91525 0.1376 0.0
C346 C 0.13848 0.93778 0.19134 0.0
C347 C 0.10797 0.9535 0.19226 0.0
C348 C 0.08631 0.9497 0.16587 0.0
C349 C 0.09556 0.93071 0.13888 0.0
C350 C 0.16222 0.94136 0.21904 0.0
C351 C 0.05346 0.96595 0.16601 0.0
C352 C 0.07075 0.98465 0.27093 0.0
C353 C 0.07858 0.01618 0.27163 0.0
C354 C 0.08079 0.96379 0.24558 0.0
C355 C 0.09901 0.97478 0.22034 0.0
C356 C 0.10749 0.00646 0.22121 0.0
C357 C 0.09715 0.02677 0.2468 0.0
C358 C 0.07137 0.93013 0.24549 0.0
C359 C 0.12675 0.01909 0.19466 0.0
H360 H 0.17055 0.90695 0.16337 0.0
H361 H 0.07886 0.92798 0.11874 0.0
H362 H 0.17004 0.96587 0.22332 0.0
H363 H 0.14992 0.93502 0.24096 0.0
H364 H 0.18451 0.92682 0.21497 0.0
H365 H 0.03907 0.95986 0.14392 0.0
H366 H 0.03864 0.9599 0.18659 0.0
H367 H 0.05732 0.99135 0.16864 0.0
H368 H 0.05669 0.9763 0.29021 0.0
H369 H 0.10283 0.05118 0.24689 0.0
H370 H 0.09365 0.91543 0.24282 0.0
H371 H 0.05504 0.92344 0.2249 0.0
H372 H 0.05842 0.92505 0.26757 0.0
H373 H 0.15008 0.00613 0.1907 0.0
H374 H 0.13271 0.04403 0.19967 0.0
H375 H 0.11234 0.01602 0.17223 0.0
C376 C 0.60397 0.6886 0.6112 0.0
C377 C 0.5985 0.66084 0.59226 0.0
C378 C 0.59526 0.69151 0.6435 0.0
C379 C 0.58026 0.66625 0.65695 0.0
C380 C 0.57552 0.63797 0.63818 0.0
C381 C 0.58489 0.63555 0.6062 0.0
C382 C 0.60132 0.7218 0.66298 0.0
C383 C 0.55939 0.61051 0.65154 0.0
C384 C 0.57225 0.65675 0.74489 0.0
C385 C 0.53886 0.66375 0.74998 0.0
C386 C 0.58691 0.6597 0.71526 0.0
C387 C 0.56759 0.66949 0.69005 0.0
C388 C 0.53455 0.67861 0.69568 0.0
C389 C 0.52068 0.67586 0.72563 0.0
C390 C 0.62241 0.65031 0.71036 0.0
C391 C 0.51307 0.68916 0.66944 0.0
H392 H 0.61473 0.70818 0.60072 0.0
H393 H 0.5805 0.61401 0.59185 0.0
H394 H 0.57745 0.73294 0.6694 0.0
H395 H 0.61416 0.71779 0.68549 0.0
H396 H 0.61627 0.73803 0.64998 0.0
H397 H 0.55831 0.58992 0.63402 0.0
H398 H 0.57304 0.60425 0.67284 0.0
H399 H 0.53391 0.61654 0.65912 0.0
H400 H 0.58651 0.64725 0.76346 0.0
H401 H 0.49509 0.68204 0.72961 0.0
H402 H 0.63571 0.6672 0.69681 0.0
H403 H 0.62345 0.62756 0.69629 0.0
H404 H 0.63546 0.64836 0.73326 0.0
H405 H 0.52574 0.70734 0.65713 0.0
H406 H 0.48904 0.69832 0.67843 0.0
H407 H 0.50827 0.66941 0.65153 0.0
C408 C 0.82538 0.09007 0.04885 0.0
C409 C 0.80877 0.10975 0.02957 0.0
C410 C 0.80814 0.07019 0.06722 0.0
C411 C 0.77328 0.0697 0.06625 0.0
C412 C 0.75624 0.08865 0.04608 0.0
C413 C 0.7742 0.10857 0.02801 0.0
C414 C 0.82732 0.05032 0.08843 0.0
C415 C 0.71911 0.0885 0.04425 0.0
C416 C 0.74226 0.99849 0.10187 0.0
C417 C 0.73962 0.00964 0.13392 0.0
C418 C 0.74996 0.01851 0.0786 0.0
C419 C 0.7553 0.05026 0.08775 0.0
C420 C 0.74921 0.06206 0.11947 0.0
C421 C 0.74134 0.04157 0.14218 0.0
C422 C 0.75565 0.00512 0.04492 0.0
C423 C 0.75435 0.09581 0.13018 0.0
H424 H 0.85205 0.0906 0.05018 0.0
H425 H 0.76109 0.12363 0.01316 0.0
H426 H 0.82088 0.05663 0.11365 0.0
H427 H 0.82075 0.02563 0.08289 0.0
H428 H 0.85438 0.05289 0.08579 0.0
H429 H 0.70979 0.10179 0.02477 0.0
H430 H 0.70964 0.06446 0.04057 0.0
H431 H 0.70889 0.09885 0.06703 0.0
H432 H 0.74098 0.97383 0.09531 0.0
H433 H 0.73866 0.05032 0.16685 0.0
H434 H 0.78252 0.00285 0.04068 0.0
H435 H 0.74567 0.02055 0.02764 0.0
H436 H 0.74419 0.9819 0.04029 0.0
H437 H 0.78115 0.10091 0.13147 0.0
H438 H 0.74356 0.10208 0.15398 0.0
H439 H 0.74332 0.1107 0.11295 0.0
C440 C 0.50305 0.31397 0.599 0.0
C441 C 0.48364 0.29025 0.58386 0.0
C442 C 0.53675 0.30969 0.60443 0.0
C443 C 0.55156 0.28113 0.59412 0.0
C444 C 0.53191 0.25669 0.57989 0.0
C445 C 0.49811 0.26148 0.57511 0.0
C446 C 0.55675 0.33619 0.62016 0.0
C447 C 0.54687 0.226 0.56834 0.0
C448 C 0.64228 0.28758 0.57481 0.0
C449 C 0.65734 0.27811 0.60231 0.0
C450 C 0.60792 0.28736 0.57132 0.0
C451 C 0.58797 0.27787 0.59612 0.0
C452 C 0.60292 0.26735 0.6235 0.0
C453 C 0.63743 0.26743 0.6262 0.0
C454 C 0.59294 0.29852 0.5416 0.0
C455 C 0.58245 0.25714 0.65047 0.0
H456 H 0.492 0.33616 0.60617 0.0
H457 H 0.48331 0.24305 0.56331 0.0
H458 H 0.5712 0.32839 0.64032 0.0
H459 H 0.57455 0.34444 0.6029 0.0
H460 H 0.54108 0.35595 0.62913 0.0
H461 H 0.52786 0.20851 0.56043 0.0
H462 H 0.5635 0.22915 0.5481 0.0
H463 H 0.56197 0.21691 0.58736 0.0
H464 H 0.65726 0.29637 0.55642 0.0
H465 H 0.6488 0.2596 0.64731 0.0
H466 H 0.57952 0.32044 0.54768 0.0
H467 H 0.57481 0.2814 0.53101 0.0
H468 H 0.6118 0.30262 0.52345 0.0
H469 H 0.56849 0.27713 0.6616 0.0
H470 H 0.59777 0.24747 0.66905 0.0
H471 H 0.56417 0.23944 0.64144 0.0
C472 C 0.63267 0.56357 0.36865 0.0
C473 C 0.61049 0.57436 0.39238 0.0
C474 C 0.62202 0.54381 0.3425 0.0
C475 C 0.58839 0.53513 0.33992 0.0
C476 C 0.56567 0.54725 0.36301 0.0
C477 C 0.57704 0.56651 0.38906 0.0
C478 C 0.64696 0.53111 0.31845 0.0
C479 C 0.52952 0.53893 0.36089 0.0
C480 C 0.55223 0.49633 0.2634 0.0
C481 C 0.55063 0.46551 0.2707 0.0
C482 C 0.56526 0.51935 0.2854 0.0
C483 C 0.57729 0.51109 0.31503 0.0
C484 C 0.57677 0.47978 0.32191 0.0
C485 C 0.56329 0.45742 0.29972 0.0
C486 C 0.56515 0.55256 0.27744 0.0
C487 C 0.58971 0.46997 0.35307 0.0
H488 H 0.65852 0.56966 0.3711 0.0
H489 H 0.55967 0.57526 0.40705 0.0
H490 H 0.64984 0.50592 0.32019 0.0
H491 H 0.63834 0.53425 0.29399 0.0
H492 H 0.67146 0.54235 0.32216 0.0
H493 H 0.51466 0.55273 0.37898 0.0
H494 H 0.51967 0.54258 0.33698 0.0
H495 H 0.52627 0.51409 0.36444 0.0
H496 H 0.54242 0.50252 0.24091 0.0
H497 H 0.56258 0.43345 0.30508 0.0
H498 H 0.59007 0.56285 0.28096 0.0
H499 H 0.54825 0.56621 0.29371 0.0
H500 H 0.55713 0.55485 0.25258 0.0
H501 H 0.61528 0.4785 0.35726 0.0
H502 H 0.58951 0.44446 0.3538 0.0
H503 H 0.57442 0.48032 0.37291 0.0
C504 C 0.0107 0.19339 0.98672 0.0
C505 C 0.98769 0.2162 0.98069 0.0
C506 C 0.04439 0.19778 0.9818 0.0
C507 C 0.05545 0.22542 0.96983 0.0
C508 C 0.03236 0.24846 0.96324 0.0
C509 C 0.9987 0.24374 0.96917 0.0
C510 C 0.0682 0.17286 0.98973 0.0
C511 C 0.0432 0.27788 0.94975 0.0
C512 C 0.14609 0.24184 0.98564 0.0
C513 C 0.16062 0.22718 0.95825 0.0
C514 C 0.11172 0.24293 0.98911 0.0
C515 C 0.09129 0.22969 0.9643 0.0
C516 C 0.10566 0.21687 0.93571 0.0
C517 C 0.14008 0.21542 0.93317 0.0
C518 C 0.0974 0.2565 0.02015 0.0
C519 C 0.08471 0.20299 0.90845 0.0
H520 H 0.00243 0.17221 0.99604 0.0
H521 H 0.98096 0.26138 0.96438 0.0
H522 H 0.08163 0.16392 0.96807 0.0
H523 H 0.0868 0.1826 0.00718 0.0
H524 H 0.05565 0.15315 -0.00022 0.0
H525 H 0.02213 0.29324 0.9454 0.0
H526 H 0.06074 0.29068 0.96628 0.0
H527 H 0.05636 0.27229 0.92702 0.0
H528 H 0.16158 0.25176 0.00486 0.0
H529 H 0.15075 0.20371 0.91199 0.0
H530 H 0.08639 0.23773 0.03293 0.0
H531 H 0.07742 0.27299 0.01581 0.0
H532 H 0.11627 0.26862 0.03579 0.0
H533 H 0.07397 0.18082 0.91472 0.0
H534 H 0.09919 0.19842 0.8863 0.0
H535 H 0.06398 0.21856 0.90374 0.0
C536 C 0.32456 0.41166 0.49851 0.0
C537 C 0.30891 0.39683 0.52258 0.0
C538 C 0.30716 0.43148 0.48008 0.0
C539 C 0.27324 0.43678 0.48585 0.0
C540 C 0.25727 0.42218 0.51024 0.0
C541 C 0.27527 0.40231 0.52829 0.0
C542 C 0.32508 0.44657 0.45418 0.0
C543 C 0.22117 0.42744 0.51713 0.0
C544 C 0.24331 0.50954 0.45194 0.0
C545 C 0.23188 0.49775 0.42192 0.0
C546 C 0.25472 0.48973 0.47408 0.0
C547 C 0.25478 0.45744 0.4659 0.0
C548 C 0.24084 0.44532 0.43665 0.0
C549 C 0.22949 0.46565 0.41502 0.0
C550 C 0.26913 0.50354 0.50515 0.0
C551 C 0.24021 0.411 0.42714 0.0
H552 H 0.35047 0.40759 0.4938 0.0
H553 H 0.26291 0.39104 0.54684 0.0
H554 H 0.31338 0.43975 0.43083 0.0
H555 H 0.32332 0.47208 0.45836 0.0
H556 H 0.35152 0.44013 0.45284 0.0
H557 H 0.21254 0.41477 0.5373 0.0
H558 H 0.21646 0.45245 0.52275 0.0
H559 H 0.20625 0.41985 0.49579 0.0
H560 H 0.2455 0.53432 0.45738 0.0
H561 H 0.22019 0.45645 0.39201 0.0
H562 H 0.29635 0.50144 0.50443 0.0
H563 H 0.26029 0.49088 0.52519 0.0
H564 H 0.26282 0.52837 0.50994 0.0
H565 H 0.26566 0.40284 0.42199 0.0
H566 H 0.22476 0.40513 0.40569 0.0
H567 H 0.23075 0.39819 0.44682 0.0
C568 C 0.10473 0.84885 0.92149 0.0
C569 C 0.102 0.82399 0.94039 0.0
C570 C 0.0879 0.84855 0.89241 0.0
C571 C 0.06733 0.82311 0.88253 0.0
C572 C 0.06719 0.79668 0.89992 0.0
C573 C 0.08484 0.79733 0.92856 0.0
C574 C 0.08957 0.87675 0.87397 0.0
C575 C 0.0454 0.76917 0.8904 0.0
C576 C 0.98591 0.84431 0.84687 0.0
C577 C 0.98956 0.83377 0.81476 0.0
C578 C 0.01096 0.84062 0.86898 0.0
C579 C 0.04103 0.82685 0.85868 0.0
C580 C 0.04541 0.81677 0.82623 0.0
C581 C 0.01945 0.82007 0.80464 0.0
C582 C 0.00512 0.85153 0.90346 0.0
C583 C 0.07741 0.80257 0.81439 0.0
H584 H 0.11852 0.86929 0.93023 0.0
H585 H 0.08277 0.77792 0.94294 0.0
H586 H 0.09018 0.87009 0.84803 0.0
H587 H 0.06727 0.89103 0.87894 0.0
H588 H 0.11155 0.89121 0.8807 0.0
H589 H 0.0526 0.74859 0.90269 0.0
H590 H 0.01954 0.77503 0.89676 0.0
H591 H 0.04617 0.76308 0.86439 0.0
H592 H 0.96344 0.85587 0.85485 0.0
H593 H 0.02251 0.81172 0.77992 0.0
H594 H 0.02296 0.87007 0.91128 0.0
H595 H 0.00903 0.83223 0.91862 0.0
H596 H 0.97983 0.86062 0.90768 0.0
H597 H 0.09824 0.81839 0.82128 0.0
H598 H 0.0775 0.79745 0.78817 0.0
H599 H 0.08189 0.78078 0.82557 0.0
C600 C 0.89781 0.09625 0.89913 0.0
C601 C 0.87854 0.12301 0.89967 0.0
C602 C 0.89896 0.07531 0.87199 0.0
C603 C 0.88077 0.08151 0.84458 0.0
C604 C 0.86319 0.10954 0.8442 0.0
C605 C 0.86205 0.12986 0.87187 0.0
C606 C 0.91792 0.04559 0.87338 0.0
C607 C 0.84411 0.11731 0.81522 0.0
C608 C 0.89906 0.0272 0.77151 0.0
C609 C 0.87467 0.00453 0.77378 0.0
C610 C 0.90035 0.0535 0.79333 0.0
C611 C 0.87695 0.0569 0.81812 0.0
C612 C 0.85127 0.03495 0.81942 0.0
C613 C 0.85041 0.00911 0.79722 0.0
C614 C 0.92769 0.07677 0.79084 0.0
C615 C 0.82585 0.03766 0.84553 0.0
H616 H 0.91071 0.09082 0.92046 0.0
H617 H 0.84752 0.15077 0.87192 0.0
H618 H 0.90044 0.02582 0.87248 0.0
H619 H 0.93443 0.04181 0.85258 0.0
H620 H 0.93297 0.04546 0.89539 0.0
H621 H 0.83658 0.14196 0.81684 0.0
H622 H 0.85894 0.1123 0.7934 0.0
H623 H 0.82159 0.10275 0.81268 0.0
H624 H 0.91769 0.02389 0.75325 0.0
H625 H 0.8318 0.99149 0.7995 0.0
H626 H 0.94582 0.07462 0.81023 0.0
H627 H 0.91786 0.10065 0.79364 0.0
H628 H 0.94077 0.07331 0.76777 0.0
H629 H 0.83801 0.03516 0.86875 0.0
H630 H 0.80623 0.0198 0.8419 0.0
H631 H 0.81418 0.06078 0.84696 0.0
C632 C 0.39096 0.27059 0.43949 0.0
C633 C 0.40653 0.2938 0.45944 0.0
C634 C 0.39711 0.2675 0.40663 0.0
C635 C 0.41974 0.28778 0.39361 0.0
C636 C 0.43601 0.31079 0.41378 0.0
C637 C 0.42902 0.31366 0.44633 0.0
C638 C 0.37891 0.24304 0.38578 0.0
C639 C 0.46066 0.33263 0.40094 0.0
C640 C 0.46214 0.27099 0.31425 0.0
C641 C 0.44642 0.29203 0.2958 0.0
C642 C 0.45242 0.26789 0.34568 0.0
C643 C 0.42604 0.2859 0.35883 0.0
C644 C 0.40838 0.30526 0.33954 0.0
C645 C 0.41892 0.30828 0.30839 0.0
C646 C 0.47193 0.24702 0.36547 0.0
C647 C 0.37979 0.32454 0.3525 0.0
H648 H 0.37342 0.25526 0.44945 0.0
H649 H 0.44141 0.33145 0.46161 0.0
H650 H 0.36328 0.25418 0.36846 0.0
H651 H 0.39664 0.22797 0.37191 0.0
H652 H 0.363 0.2284 0.39971 0.0
H653 H 0.47218 0.34838 0.42 0.0
H654 H 0.48042 0.31933 0.38793 0.0
H655 H 0.44837 0.34686 0.38381 0.0
H656 H 0.48295 0.25783 0.30456 0.0
H657 H 0.40672 0.32487 0.29465 0.0
H658 H 0.45524 0.23246 0.37864 0.0
H659 H 0.48679 0.26133 0.38333 0.0
H660 H 0.48887 0.23172 0.3508 0.0
H661 H 0.36277 0.31045 0.36585 0.0
H662 H 0.3657 0.33471 0.33338 0.0
H663 H 0.38914 0.34367 0.36929 0.0
C664 C 0.24541 0.92388 0.02402 0.0
C665 C 0.21127 0.92268 0.01848 0.0
C666 C 0.26439 0.94891 0.01529 0.0
C667 C 0.24877 0.97341 0.00114 0.0
C668 C 0.21462 0.97173 0.99439 0.0
C669 C 0.1964 0.94635 0.0029 0.0
C670 C 0.3009 0.94965 0.02221 0.0
C671 C 0.19694 0.99746 0.97945 0.0
C672 C 0.27971 0.05591 0.01142 0.0
C673 C 0.29031 0.06029 0.98061 0.0
C674 C 0.26797 0.02707 0.01898 0.0
C675 C 0.26718 0.00197 0.99524 0.0
C676 C 0.28005 0.00573 0.96472 0.0
C677 C 0.29119 0.03498 0.95767 0.0
C678 C 0.25416 0.02413 0.05172 0.0
C679 C 0.28025 0.97938 0.93898 0.0
H680 H 0.25721 0.90563 0.0358 0.0
H681 H 0.17011 0.94572 0.99834 0.0
H682 H 0.31483 0.95545 0.00098 0.0
H683 H 0.30635 0.96791 0.04154 0.0
H684 H 0.30995 0.92723 0.0296 0.0
H685 H 0.17051 0.99206 0.97473 0.0
H686 H 0.19859 0.01908 0.99543 0.0
H687 H 0.20881 0.00199 0.95672 0.0
H688 H 0.27877 0.07551 0.02912 0.0
H689 H 0.29975 0.0383 0.93392 0.0
H690 H 0.26437 0.00347 0.06191 0.0
H691 H 0.22704 0.02104 0.05004 0.0
H692 H 0.25954 0.04481 0.06831 0.0
H693 H 0.28942 0.95794 0.94844 0.0
H694 H 0.29576 0.98461 0.91851 0.0
H695 H 0.25475 0.97475 0.93025 0.0
C696 C 0.50024 0.63798 0.45225 0.0
C697 C 0.51568 0.66428 0.46727 0.0
C698 C 0.46858 0.63951 0.43942 0.0
C699 C 0.45156 0.66798 0.44207 0.0
C700 C 0.46665 0.6946 0.45765 0.0
C701 C 0.49879 0.69251 0.46983 0.0
C702 C 0.4536 0.61064 0.42254 0.0
C703 C 0.44894 0.72518 0.46127 0.0
C704 C 0.38474 0.66794 0.37982 0.0
C705 C 0.35808 0.65597 0.39592 0.0
C706 C 0.41486 0.67449 0.39532 0.0
C707 C 0.4182 0.66936 0.42779 0.0
C708 C 0.39047 0.6602 0.4449 0.0
C709 C 0.36077 0.65338 0.42871 0.0
C710 C 0.44385 0.68418 0.37618 0.0
C711 C 0.39291 0.65498 0.4797 0.0
H712 H 0.51325 0.61615 0.44978 0.0
H713 H 0.5106 0.71289 0.48147 0.0
H714 H 0.43034 0.60473 0.43432 0.0
H715 H 0.44747 0.61471 0.39763 0.0
H716 H 0.47036 0.59045 0.42225 0.0
H717 H 0.46353 0.74334 0.47522 0.0
H718 H 0.44362 0.73312 0.43753 0.0
H719 H 0.42494 0.7225 0.47319 0.0
H720 H 0.38256 0.67081 0.35467 0.0
H721 H 0.34038 0.64411 0.4414 0.0
H722 H 0.46099 0.66441 0.37199 0.0
H723 H 0.45769 0.70332 0.38932 0.0
H724 H 0.43614 0.69164 0.35278 0.0
H725 H 0.40597 0.63293 0.48234 0.0
H726 H 0.36824 0.65363 0.49077 0.0
H727 H 0.40729 0.67374 0.49288 0.0
C728 C 0.36362 0.39444 0.68109 0.0
C729 C 0.38313 0.39421 0.65369 0.0
C730 C 0.37088 0.41434 0.70822 0.0
C731 C 0.39823 0.43459 0.70794 0.0
C732 C 0.41822 0.43428 0.68055 0.0
C733 C 0.41047 0.41409 0.65381 0.0
C734 C 0.34909 0.41396 0.73705 0.0
C735 C 0.44759 0.45558 0.67934 0.0
C736 C 0.40073 0.50865 0.76251 0.0
C737 C 0.42336 0.50125 0.78585 0.0
C738 C 0.3916 0.48686 0.73756 0.0
C739 C 0.40545 0.45691 0.73585 0.0
C740 C 0.42749 0.44893 0.75986 0.0
C741 C 0.43623 0.47123 0.78457 0.0
C742 C 0.36808 0.49628 0.71237 0.0
C743 C 0.44258 0.41715 0.75895 0.0
H744 H 0.34255 0.37909 0.68139 0.0
H745 H 0.42578 0.41412 0.63286 0.0
H746 H 0.36407 0.40961 0.75822 0.0
H747 H 0.33728 0.43685 0.74205 0.0
H748 H 0.32948 0.39603 0.73387 0.0
H749 H 0.46108 0.45198 0.65651 0.0
H750 H 0.43942 0.47999 0.68256 0.0
H751 H 0.4649 0.4519 0.69903 0.0
H752 H 0.39108 0.53193 0.76302 0.0
H753 H 0.45348 0.4653 0.80271 0.0
H754 H 0.34727 0.47966 0.70933 0.0
H755 H 0.38096 0.49585 0.68923 0.0
H756 H 0.35797 0.51982 0.71818 0.0
H757 H 0.42302 0.39918 0.75675 0.0
H758 H 0.45757 0.414 0.78048 0.0
H759 H 0.45858 0.41327 0.73777 0.0
C760 C 0.01595 0.80097 0.08395 0.0
C761 C 0.02547 0.82535 0.0662 0.0
C762 C 0.98567 0.80167 0.09996 0.0
C763 C 0.96444 0.82723 0.09796 0.0
C764 C 0.97306 0.85092 0.07851 0.0
C765 C 0.00346 0.84972 0.06293 0.0
C766 C 0.97728 0.77596 0.12044 0.0
C767 C 0.951 0.87848 0.07552 0.0
C768 C 0.87538 0.82892 0.125 0.0
C769 C 0.87784 0.84682 0.15422 0.0
C770 C 0.90357 0.82089 0.10702 0.0
C771 C 0.93488 0.83112 0.11853 0.0
C772 C 0.93765 0.8479 0.14868 0.0
C773 C 0.90912 0.85557 0.16611 0.0
C774 C 0.8997 0.80277 0.07509 0.0
C775 C 0.97061 0.85928 0.16179 0.0
H776 H 0.03282 0.78207 0.08665 0.0
H777 H 0.01044 0.86847 0.04896 0.0
H778 H 0.97894 0.78475 0.14585 0.0
H779 H 0.95163 0.76784 0.11586 0.0
H780 H 0.99421 0.75599 0.11632 0.0
H781 H 0.95992 0.89346 0.05731 0.0
H782 H 0.92556 0.87078 0.0692 0.0
H783 H 0.94984 0.89254 0.0987 0.0
H784 H 0.85131 0.82172 0.11588 0.0
H785 H 0.91126 0.86975 0.18843 0.0
H786 H 0.91739 0.7833 0.07276 0.0
H787 H 0.9053 0.81795 0.05598 0.0
H788 H 0.87435 0.79344 0.07126 0.0
H789 H 0.98856 0.84003 0.1609 0.0
H790 H 0.96886 0.86961 0.18671 0.0
H791 H 0.98053 0.87702 0.14698 0.0
C792 C 0.68669 0.53909 0.5232 0.0
C793 C 0.7011 0.56492 0.51095 0.0
C794 C 0.70605 0.51583 0.53463 0.0
C795 C 0.74079 0.51857 0.53425 0.0
C796 C 0.75562 0.54475 0.5224 0.0
C797 C 0.73557 0.56757 0.51064 0.0
C798 C 0.68924 0.4881 0.5468 0.0
C799 C 0.79257 0.5486 0.52211 0.0
C800 C 0.7798 0.46662 0.59099 0.0
C801 C 0.78625 0.44013 0.57065 0.0
C802 C 0.76754 0.49348 0.57907 0.0
C803 C 0.76111 0.49357 0.54612 0.0
C804 C 0.76977 0.4676 0.52525 0.0
C805 C 0.78244 0.44119 0.53779 0.0
C806 C 0.7592 0.52089 0.60202 0.0
C807 C 0.76306 0.46668 0.49001 0.0
H808 H 0.66011 0.53669 0.52337 0.0
H809 H 0.7469 0.58753 0.50135 0.0
H810 H 0.69752 0.46663 0.53302 0.0
H811 H 0.69612 0.48622 0.57199 0.0
H812 H 0.66197 0.48937 0.54511 0.0
H813 H 0.80022 0.57074 0.51295 0.0
H814 H 0.80261 0.54776 0.54648 0.0
H815 H 0.80383 0.52927 0.50709 0.0
H816 H 0.78309 0.46587 0.61639 0.0
H817 H 0.78723 0.42064 0.52207 0.0
H818 H 0.73209 0.52231 0.60494 0.0
H819 H 0.76755 0.54272 0.59273 0.0
H820 H 0.77054 0.51913 0.62578 0.0
H821 H 0.73612 0.4648 0.48569 0.0
H822 H 0.77522 0.44673 0.47664 0.0
H823 H 0.77161 0.48828 0.48043 0.0
C824 C 0.93316 0.17875 0.11129 0.0
C825 C 0.91205 0.20162 0.10147 0.0
C826 C 0.94136 0.17748 0.14336 0.0
C827 C 0.92779 0.19937 0.1664 0.0
C828 C 0.90643 0.22256 0.15676 0.0
C829 C 0.899 0.22358 0.12431 0.0
C830 C 0.96459 0.15259 0.15255 0.0
C831 C 0.89114 0.24597 0.18075 0.0
C832 C 0.9305 0.16986 0.248 0.0
C833 C 0.96015 0.18283 0.26016 0.0
C834 C 0.91816 0.17703 0.21845 0.0
C835 C 0.93609 0.19736 0.20047 0.0
C836 C 0.96474 0.21221 0.21359 0.0
C837 C 0.97631 0.20489 0.24337 0.0
C838 C 0.88727 0.16101 0.20547 0.0
C839 C 0.98458 0.23402 0.1952 0.0
H840 H 0.94361 0.16187 0.0938 0.0
H841 H 0.88252 0.24121 0.11689 0.0
H842 H 0.98613 0.16322 0.1656 0.0
H843 H 0.95198 0.13758 0.1687 0.0
H844 H 0.97365 0.13785 0.13162 0.0
H845 H 0.87547 0.26284 0.16936 0.0
H846 H 0.87582 0.23395 0.19758 0.0
H847 H 0.91064 0.25878 0.19491 0.0
H848 H 0.91788 0.15264 0.26061 0.0
H849 H 0.99883 0.21555 0.25292 0.0
H850 H 0.89393 0.14286 0.1865 0.0
H851 H 0.87078 0.17759 0.19472 0.0
H852 H 0.87349 0.14994 0.22414 0.0
H853 H 0.9972 0.22068 0.17523 0.0
H854 H 0.00352 0.24676 0.21026 0.0
H855 H 0.9683 0.251 0.18482 0.0
C856 C 0.17423 0.76657 0.15627 0.0
C857 C 0.14751 0.76984 0.13583 0.0
C858 C 0.17148 0.74845 0.18202 0.0
C859 C 0.14099 0.73405 0.1879 0.0
C860 C 0.11345 0.73861 0.16827 0.0
C861 C 0.11718 0.7561 0.14212 0.0
C862 C 0.2016 0.74371 0.20213 0.0
C863 C 0.08033 0.72446 0.1744 0.0
C864 C 0.15175 0.66147 0.22975 0.0
C865 C 0.14968 0.67308 0.26167 0.0
C866 C 0.14682 0.68073 0.20528 0.0
C867 C 0.13908 0.71222 0.21298 0.0
C868 C 0.13378 0.72333 0.24504 0.0
C869 C 0.13955 0.70366 0.26914 0.0
C870 C 0.15304 0.66803 0.17142 0.0
C871 C 0.12443 0.75652 0.25406 0.0
H872 H 0.19765 0.7772 0.15138 0.0
H873 H 0.09631 0.75909 0.12658 0.0
H874 H 0.19637 0.75072 0.22747 0.0
H875 H 0.20815 0.71883 0.20033 0.0
H876 H 0.22322 0.75707 0.19479 0.0
H877 H 0.06054 0.73351 0.15955 0.0
H878 H 0.08151 0.69902 0.16914 0.0
H879 H 0.0736 0.72903 0.1998 0.0
H880 H 0.16002 0.63796 0.2239 0.0
H881 H 0.13783 0.71261 0.29384 0.0
H882 H 0.17601 0.67833 0.16278 0.0
H883 H 0.13271 0.67431 0.15563 0.0
H884 H 0.15567 0.64248 0.16919 0.0
H885 H 0.14631 0.77158 0.25205 0.0
H886 H 0.11522 0.75992 0.27884 0.0
H887 H 0.10523 0.7642 0.23774 0.0
C888 C 0.72546 0.72426 0.54879 0.0
C889 C 0.72531 0.71551 0.51617 0.0
C890 C 0.75176 0.74129 0.56301 0.0
C891 C 0.7779 0.75071 0.54386 0.0
C892 C 0.77778 0.742 0.51081 0.0
C893 C 0.75165 0.724 0.49739 0.0
C894 C 0.7514 0.7494 0.59851 0.0
C895 C 0.80458 0.75255 0.48953 0.0
C896 C 0.82024 0.81968 0.58654 0.0
C897 C 0.84641 0.80553 0.60154 0.0
C898 C 0.79961 0.80256 0.56487 0.0
C899 C 0.80464 0.77039 0.55882 0.0
C900 C 0.83274 0.75656 0.57141 0.0
C901 C 0.8537 0.77449 0.5921 0.0
C902 C 0.77064 0.81841 0.55083 0.0
C903 C 0.8389 0.72227 0.56573 0.0
H904 H 0.70511 0.71747 0.56324 0.0
H905 H 0.75121 0.71744 0.47204 0.0
H906 H 0.77473 0.74199 0.60929 0.0
H907 H 0.74953 0.77481 0.60368 0.0
H908 H 0.73049 0.7384 0.61018 0.0
H909 H 0.80197 0.74214 0.46468 0.0
H910 H 0.80375 0.77808 0.48944 0.0
H911 H 0.82919 0.7466 0.49866 0.0
H912 H 0.81414 0.84357 0.59341 0.0
H913 H 0.87456 0.76356 0.60258 0.0
H914 H 0.74791 0.81302 0.56377 0.0
H915 H 0.76701 0.81002 0.5255 0.0
H916 H 0.77384 0.84392 0.55261 0.0
H917 H 0.82102 0.70972 0.57975 0.0
H918 H 0.86418 0.716 0.57296 0.0
H919 H 0.83516 0.71412 0.54037 0.0
C920 C 0.74737 0.23818 0.04234 0.0
C921 C 0.77728 0.25452 0.04202 0.0
C922 C 0.72025 0.25026 0.05949 0.0
C923 C 0.72288 0.27953 0.07676 0.0
C924 C 0.75299 0.29612 0.0769 0.0
C925 C 0.77994 0.28336 0.05959 0.0
C926 C 0.68866 0.2317 0.05891 0.0
C927 C 0.75659 0.32745 0.09504 0.0
C928 C 0.64082 0.31893 0.09343 0.0
C929 C 0.63439 0.31149 0.12445 0.0
C930 C 0.67022 0.30981 0.0781 0.0
C931 C 0.69368 0.29269 0.09413 0.0
C932 C 0.68773 0.28582 0.12575 0.0
C933 C 0.65815 0.29534 0.14055 0.0
C934 C 0.67574 0.31769 0.04441 0.0
C935 C 0.71203 0.2674 0.14352 0.0
H936 H 0.74503 0.21574 0.02916 0.0
H937 H 0.80291 0.29613 0.05951 0.0
H938 H 0.68131 0.22766 0.08347 0.0
H939 H 0.6685 0.24481 0.04851 0.0
H940 H 0.69094 0.20897 0.04489 0.0
H941 H 0.78181 0.33711 0.09328 0.0
H942 H 0.73877 0.34382 0.08579 0.0
H943 H 0.75076 0.32584 0.12047 0.0
H944 H 0.62277 0.33189 0.0811 0.0
H945 H 0.6532 0.28937 0.16446 0.0
H946 H 0.67597 0.29617 0.02821 0.0
H947 H 0.70004 0.32908 0.04239 0.0
H948 H 0.65633 0.33316 0.0362 0.0
H949 H 0.71349 0.24351 0.13198 0.0
H950 H 0.70501 0.26619 0.16877 0.0
H951 H 0.73701 0.27771 0.14269 0.0
C952 C 0.32618 0.26089 0.68001 0.0
C953 C 0.35065 0.25284 0.65747 0.0
C954 C 0.32747 0.25052 0.71043 0.0
C955 C 0.35393 0.23161 0.71866 0.0
C956 C 0.37818 0.2225 0.6958 0.0
C957 C 0.37623 0.23318 0.66538 0.0
C958 C 0.30094 0.26055 0.73406 0.0
C959 C 0.40669 0.2023 0.70379 0.0
C960 C 0.36948 0.2366 0.80735 0.0
C961 C 0.35163 0.21103 0.81615 0.0
C962 C 0.37211 0.24259 0.77537 0.0
C963 C 0.35645 0.22253 0.75167 0.0
C964 C 0.33998 0.19574 0.76023 0.0
C965 C 0.33773 0.19034 0.7924 0.0
C966 C 0.39006 0.27131 0.76714 0.0
C967 C 0.32297 0.17382 0.73566 0.0
H968 H 0.30614 0.27583 0.67408 0.0
H969 H 0.39529 0.22691 0.64817 0.0
H970 H 0.28942 0.24006 0.7435 0.0
H971 H 0.31198 0.27479 0.7545 0.0
H972 H 0.28134 0.27426 0.72347 0.0
H973 H 0.42219 0.19552 0.68275 0.0
H974 H 0.42236 0.21481 0.72229 0.0
H975 H 0.39753 0.18106 0.71372 0.0
H976 H 0.38071 0.25239 0.82559 0.0
H977 H 0.32361 0.17069 0.79902 0.0
H978 H 0.37209 0.28807 0.75882 0.0
H979 H 0.40764 0.26563 0.74749 0.0
H980 H 0.40378 0.28267 0.78779 0.0
H981 H 0.30091 0.1852 0.72646 0.0
H982 H 0.31502 0.15214 0.74558 0.0
H983 H 0.33946 0.16786 0.7152 0.0
C984 C 0.61424 0.74146 0.39341 0.0
C985 C 0.64069 0.72149 0.39759 0.0
C986 C 0.61502 0.7621 0.3696 0.0
C987 C 0.64331 0.76334 0.3503 0.0
C988 C 0.66955 0.74247 0.35375 0.0
C989 C 0.66771 0.72155 0.37709 0.0
C990 C 0.58617 0.78334 0.36591 0.0
C991 C 0.70045 0.74341 0.33405 0.0
C992 C 0.65153 0.80469 0.27536 0.0
C993 C 0.66802 0.83172 0.28712 0.0
C994 C 0.64075 0.78312 0.29603 0.0
C995 C 0.64751 0.78847 0.32896 0.0
C996 C 0.66249 0.81655 0.34104 0.0
C997 C 0.67231 0.83793 0.31998 0.0
C998 C 0.62393 0.75386 0.28242 0.0
C999 C 0.67066 0.82297 0.37592 0.0
H1000 H 0.59311 0.74119 0.40898 0.0
H1001 H 0.68827 0.70623 0.38029 0.0
H1002 H 0.59298 0.80723 0.37506 0.0
H1003 H 0.57951 0.78386 0.34046 0.0
H1004 H 0.5642 0.77621 0.3791 0.0
H1005 H 0.71796 0.72471 0.33875 0.0
H1006 H 0.69419 0.74125 0.30838 0.0
H1007 H 0.71308 0.76598 0.33935 0.0
H1008 H 0.64805 0.79997 0.24994 0.0
H1009 H 0.68546 0.85861 0.32911 0.0
H1010 H 0.60273 0.74817 0.29738 0.0
H1011 H 0.64149 0.73433 0.28211 0.0
H1012 H 0.61508 0.75576 0.25775 0.0
H1013 H 0.64868 0.81939 0.39065 0.0
H1014 H 0.67991 0.8469 0.38178 0.0
H1015 H 0.68986 0.80659 0.38267 0.0
C1016 C 0.82568 0.27169 0.89615 0.0
C1017 C 0.85493 0.26701 0.91269 0.0
C1018 C 0.82629 0.28246 0.86587 0.0
C1019 C 0.85697 0.2878 0.85147 0.0
C1020 C 0.88656 0.28468 0.86877 0.0
C1021 C 0.88515 0.27462 0.89945 0.0
C1022 C 0.79414 0.28629 0.84855 0.0
C1023 C 0.91974 0.28964 0.85405 0.0
C1024 C 0.85245 0.27229 0.76209 0.0
C1025 C 0.84995 0.30225 0.75222 0.0
C1026 C 0.85678 0.26743 0.79419 0.0
C1027 C 0.85784 0.29311 0.81721 0.0
C1028 C 0.85664 0.32342 0.80747 0.0
C1029 C 0.85309 0.32764 0.77505 0.0
C1030 C 0.85857 0.23468 0.80359 0.0
C1031 C 0.85736 0.35134 0.83137 0.0
H1032 H 0.8023 0.26595 0.90653 0.0
H1033 H 0.9078 0.27067 0.91216 0.0
H1034 H 0.79366 0.30877 0.83793 0.0
H1035 H 0.79163 0.26779 0.82885 0.0
H1036 H 0.77254 0.28503 0.86445 0.0
H1037 H 0.93993 0.29063 0.87195 0.0
H1038 H 0.92478 0.2703 0.83581 0.0
H1039 H 0.92002 0.31128 0.84192 0.0
H1040 H 0.84959 0.25243 0.74494 0.0
H1041 H 0.85199 0.35091 0.76771 0.0
H1042 H 0.83584 0.22915 0.81645 0.0
H1043 H 0.87969 0.23213 0.8199 0.0
H1044 H 0.8612 0.21752 0.78268 0.0
H1045 H 0.83434 0.35209 0.84546 0.0
H1046 H 0.85959 0.37329 0.81983 0.0
H1047 H 0.87817 0.34982 0.84825 0.0
C1048 C 0.24074 0.26699 0.52725 0.0
C1049 C 0.27149 0.25229 0.5275 0.0
C1050 C 0.21374 0.25291 0.51092 0.0
C1051 C 0.21747 0.22335 0.4945 0.0
C1052 C 0.24831 0.20827 0.49475 0.0
C1053 C 0.27497 0.22293 0.51119 0.0
C1054 C 0.18125 0.26978 0.51108 0.0
C1055 C 0.25318 0.17667 0.47755 0.0
C1056 C 0.14039 0.1754 0.47535 0.0
C1057 C 0.13489 0.18044 0.44341 0.0
C1058 C 0.16723 0.18914 0.49226 0.0
C1059 C 0.18912 0.20835 0.47683 0.0
C1060 C 0.18372 0.21351 0.44459 0.0
C1061 C 0.15666 0.1995 0.42828 0.0
C1062 C 0.17211 0.18323 0.52666 0.0
C1063 C 0.20658 0.23377 0.42731 0.0
H1064 H 0.23772 0.28971 0.53964 0.0
H1065 H 0.29855 0.21132 0.51124 0.0
H1066 H 0.17383 0.27351 0.4864 0.0
H1067 H 0.16172 0.25558 0.52105 0.0
H1068 H 0.18235 0.29255 0.52521 0.0
H1069 H 0.27863 0.16794 0.48029 0.0
H1070 H 0.23567 0.15993 0.48669 0.0
H1071 H 0.24786 0.1775 0.45186 0.0
H1072 H 0.12343 0.16096 0.48726 0.0
H1073 H 0.15281 0.20311 0.40347 0.0
H1074 H 0.17129 0.20538 0.54182 0.0
H1075 H 0.19673 0.17296 0.53001 0.0
H1076 H 0.15308 0.16744 0.53506 0.0
H1077 H 0.20728 0.2574 0.43958 0.0
H1078 H 0.19897 0.23538 0.40222 0.0
H1079 H 0.23201 0.22453 0.42762 0.0
C1080 C 0.22688 0.74969 0.98479 0.0
C1081 C 0.23274 0.77069 0.0114 0.0
C1082 C 0.25287 0.73351 0.9692 0.0
C1083 C 0.28548 0.7382 0.98064 0.0
C1084 C 0.29158 0.75922 0.00754 0.0
C1085 C 0.26519 0.77531 0.02249 0.0
C1086 C 0.24545 0.7115 0.94038 0.0
C1087 C 0.326 0.7646 0.02063 0.0
C1088 C 0.34858 0.67577 0.95823 0.0
C1089 C 0.36587 0.68844 0.93371 0.0
C1090 C 0.32252 0.69179 0.97383 0.0
C1091 C 0.31325 0.72107 0.9645 0.0
C1092 C 0.33049 0.73399 0.93975 0.0
C1093 C 0.35668 0.7176 0.92478 0.0
C1094 C 0.30483 0.67732 0.00023 0.0
C1095 C 0.32125 0.76512 0.92907 0.0
H1096 H 0.20196 0.74605 0.97591 0.0
H1097 H 0.27002 0.79134 0.0431 0.0
H1098 H 0.25931 0.71854 0.9196 0.0
H1099 H 0.25364 0.68786 0.94463 0.0
H1100 H 0.21879 0.71066 0.93432 0.0
H1101 H 0.32657 0.78159 0.04185 0.0
H1102 H 0.33655 0.7425 0.02724 0.0
H1103 H 0.34217 0.77316 0.00218 0.0
H1104 H 0.35511 0.65306 0.96497 0.0
H1105 H 0.37017 0.7278 0.90621 0.0
H1106 H 0.27843 0.67388 0.99396 0.0
H1107 H 0.30597 0.69301 0.02238 0.0
H1108 H 0.3155 0.65467 0.00507 0.0
H1109 H 0.2951 0.76487 0.92132 0.0
H1110 H 0.33682 0.77174 0.90917 0.0
H1111 H 0.32375 0.78316 0.94919 0.0
loop_
_geom_bond_atom_site_label_1
_geom_bond_atom_site_label_2
_geom_bond_distance
_geom_bond_site_symmetry_2
_ccdc_geom_bond_type
Sc0 O3 2.025 . S
Sc0 O10 2.105 . S
Sc0 O13 2.105 . S
Sc0 O16 2.105 . S
Sc0 O19 2.105 1_554 S
Sc1 O3 2.025 . S
Sc1 O11 2.105 1_554 S
Sc1 O15 2.105 . S
Sc1 O17 2.105 . S
Sc1 O21 2.105 . S
Sc2 O3 2.025 . S
Sc2 O12 2.105 . S
Sc2 O14 2.105 . S
Sc2 O18 2.105 . S
Sc2 O20 2.105 . S
O3 Sc0 2.025 . S
O3 Sc1 2.025 . S
O3 Sc2 2.025 . S
C4 O10 1.268 . S
C4 O20 1.268 . S
C5 O11 1.268 . S
C5 O19 1.268 . S
C6 O12 1.268 . S
C6 O21 1.268 . S
C7 O13 1.268 . S
C7 O17 1.268 . S
C8 O14 1.268 . S
C8 O16 1.268 . S
C9 O15 1.268 . S
C9 O18 1.268 . S
O10 Sc0 2.105 . S
O10 C4 1.268 . S
O11 Sc1 2.105 1_556 S
O11 C5 1.268 . S
O12 Sc2 2.105 . S
O12 C6 1.268 . S
O13 Sc0 2.105 . S
O13 C7 1.268 . S
O14 Sc2 2.105 . S
O14 C8 1.268 . S
O15 Sc1 2.105 . S
O15 C9 1.268 . S
O16 Sc0 2.105 . S
O16 C8 1.268 . S
O17 Sc1 2.105 . S
O17 C7 1.268 . S
O18 Sc2 2.105 . S
O18 C9 1.268 . S
O19 Sc0 2.105 1_556 S
O19 C5 1.268 . S
O20 Sc2 2.105 . S
O20 C4 1.268 . S
O21 Sc1 2.105 . S
O21 C6 1.268 . S
Sc22 O25 2.025 . S
Sc22 O32 2.105 . S
Sc22 O35 2.105 . S
Sc22 O38 2.105 . S
Sc22 O41 2.105 . S
Sc23 O25 2.025 . S
Sc23 O33 2.105 . S
Sc23 O37 2.105 . S
Sc23 O39 2.105 . S
Sc23 O43 2.105 . S
Sc24 O25 2.025 . S
Sc24 O34 2.105 . S
Sc24 O36 2.105 . S
Sc24 O40 2.105 . S
Sc24 O42 2.105 . S
O25 Sc22 2.025 . S
O25 Sc23 2.025 . S
O25 Sc24 2.025 . S
C26 O32 1.268 . S
C26 O42 1.268 . S
C27 O33 1.268 . S
C27 O41 1.268 . S
C28 O34 1.268 . S
C28 O43 1.268 . S
C29 O35 1.268 . S
C29 O39 1.268 . S
C30 O36 1.268 . S
C30 O38 1.268 . S
C31 O37 1.268 . S
C31 O40 1.268 . S
O32 Sc22 2.105 . S
O32 C26 1.268 . S
O33 Sc23 2.105 . S
O33 C27 1.268 . S
O34 Sc24 2.105 . S
O34 C28 1.268 . S
O35 Sc22 2.105 . S
O35 C29 1.268 . S
O36 Sc24 2.105 . S
O36 C30 1.268 . S
O37 Sc23 2.105 . S
O37 C31 1.268 . S
O38 Sc22 2.105 . S
O38 C30 1.268 . S
O39 Sc23 2.105 . S
O39 C29 1.268 . S
O40 Sc24 2.105 . S
O40 C31 1.268 . S
O41 Sc22 2.105 . S
O41 C27 1.268 . S
O42 Sc24 2.105 . S
O42 C26 1.268 . S
O43 Sc23 2.105 . S
O43 C28 1.268 . S
Sc44 O47 2.025 . S
Sc44 O54 2.105 1_554 S
Sc44 O57 2.105 . S
Sc44 O60 2.105 . S
Sc44 O63 2.105 1_554 S
Sc45 O47 2.025 1_556 S
Sc45 O55 2.105 . S
Sc45 O59 2.105 1_556 S
Sc45 O61 2.105 1_556 S
Sc45 O65 2.105 . S
Sc46 O47 2.025 . S
Sc46 O56 2.105 1_554 S
Sc46 O58 2.105 . S
Sc46 O62 2.105 . S
Sc46 O64 2.105 1_554 S
O47 Sc44 2.025 . S
O47 Sc45 2.025 1_554 S
O47 Sc46 2.025 . S
C48 O54 1.268 . S
C48 O64 1.268 . S
C49 O55 1.268 . S
C49 O63 1.268 . S
C50 O56 1.268 . S
C50 O65 1.268 . S
C51 O57 1.268 . S
C51 O61 1.268 . S
C52 O58 1.268 . S
C52 O60 1.268 . S
C53 O59 1.268 . S
C53 O62 1.268 . S
O54 Sc44 2.105 1_556 S
O54 C48 1.268 . S
O55 Sc45 2.105 . S
O55 C49 1.268 . S
O56 Sc46 2.105 1_556 S
O56 C50 1.268 . S
O57 Sc44 2.105 . S
O57 C51 1.268 . S
O58 Sc46 2.105 . S
O58 C52 1.268 . S
O59 Sc45 2.105 1_554 S
O59 C53 1.268 . S
O60 Sc44 2.105 . S
O60 C52 1.268 . S
O61 Sc45 2.105 1_554 S
O61 C51 1.268 . S
O62 Sc46 2.105 . S
O62 C53 1.268 . S
O63 Sc44 2.105 1_556 S
O63 C49 1.268 . S
O64 Sc46 2.105 1_556 S
O64 C48 1.268 . S
O65 Sc45 2.105 . S
O65 C50 1.268 . S
Sc66 O69 2.025 . S
Sc66 O76 2.105 . S
Sc66 O79 2.105 . S
Sc66 O82 2.105 . S
Sc66 O85 2.105 . S
Sc67 O69 2.025 . S
Sc67 O77 2.105 . S
Sc67 O81 2.105 . S
Sc67 O83 2.105 . S
Sc67 O87 2.105 . S
Sc68 O69 2.025 . S
Sc68 O78 2.105 . S
Sc68 O80 2.105 . S
Sc68 O84 2.105 . S
Sc68 O86 2.105 . S
O69 Sc66 2.025 . S
O69 Sc67 2.025 . S
O69 Sc68 2.025 . S
C70 O76 1.268 . S
C70 O86 1.268 . S
C71 O77 1.268 . S
C71 O85 1.268 . S
C72 O78 1.268 . S
C72 O87 1.268 . S
C73 O79 1.268 . S
C73 O83 1.268 . S
C74 O80 1.268 . S
C74 O82 1.268 . S
C75 O81 1.268 . S
C75 O84 1.268 . S
O76 Sc66 2.105 . S
O76 C70 1.268 . S
O77 Sc67 2.105 . S
O77 C71 1.268 . S
O78 Sc68 2.105 . S
O78 C72 1.268 . S
O79 Sc66 2.105 . S
O79 C73 1.268 . S
O80 Sc68 2.105 . S
O80 C74 1.268 . S
O81 Sc67 2.105 . S
O81 C75 1.268 . S
O82 Sc66 2.105 . S
O82 C74 1.268 . S
O83 Sc67 2.105 . S
O83 C73 1.268 . S
O84 Sc68 2.105 . S
O84 C75 1.268 . S
O85 Sc66 2.105 . S
O85 C71 1.268 . S
O86 Sc68 2.105 . S
O86 C70 1.268 . S
O87 Sc67 2.105 . S
O87 C72 1.268 . S
P88 O99 1.490 . S
P88 C102 1.812 . S
P88 C108 1.803 . S
P88 C114 1.819 . S
H89 C103 0.941 . S
H90 C104 0.961 . S
H91 C106 0.940 . S
H92 C107 0.940 . S
H93 C109 0.939 . S
H94 C110 0.942 . S
H95 C112 0.940 . S
H96 C113 0.939 . S
H97 C115 0.941 . S
H98 C119 0.939 . S
O99 P88 1.490 . S
H100 C116 0.939 . S
H101 C118 0.940 . S
C102 P88 1.812 . S
C102 C103 1.389 . S
C102 C107 1.391 . S
C103 H89 0.941 . S
C103 C102 1.389 . S
C103 C104 1.397 . S
C104 H90 0.961 . S
C104 C103 1.397 . S
C104 C105 1.378 . S
C105 C104 1.378 . S
C105 C106 1.378 . S
C106 H91 0.940 . S
C106 C105 1.378 . S
C106 C107 1.396 . S
C107 H92 0.940 . S
C107 C102 1.391 . S
C107 C106 1.396 . S
C108 P88 1.803 . S
C108 C109 1.378 . S
C108 C113 1.400 . S
C109 H93 0.939 . S
C109 C108 1.378 . S
C109 C110 1.361 . S
C110 H94 0.942 . S
C110 C109 1.361 . S
C110 C111 1.369 . S
C111 C110 1.369 . S
C111 C112 1.404 . S
C112 H95 0.940 . S
C112 C111 1.404 . S
C112 C113 1.389 . S
C113 H96 0.939 . S
C113 C108 1.400 . S
C113 C112 1.389 . S
C114 P88 1.819 . S
C114 C115 1.391 1_455 S
C114 C119 1.391 . S
C115 H97 0.941 . S
C115 C114 1.391 1_655 S
C115 C116 1.396 . S
C116 H100 0.939 . S
C116 C115 1.396 . S
C116 C117 1.397 . S
C117 C116 1.397 . S
C117 C118 1.385 1_655 S
C118 H101 0.940 . S
C118 C117 1.385 1_455 S
C118 C119 1.388 . S
C119 H98 0.939 . S
C119 C114 1.391 . S
C119 C118 1.388 . S
P120 O131 1.490 . S
P120 C134 1.812 . S
P120 C140 1.803 . S
P120 C146 1.819 . S
H121 C135 0.941 . S
H122 C136 0.939 . S
H123 C138 0.940 . S
H124 C139 0.940 . S
H125 C141 0.939 . S
H126 C142 0.942 . S
H127 C144 0.940 . S
H128 C145 0.939 . S
H129 C147 0.941 . S
H130 C151 0.939 . S
O131 P120 1.490 . S
H132 C148 0.939 . S
H133 C150 0.940 . S
C134 P120 1.812 . S
C134 C135 1.389 . S
C134 C139 1.391 . S
C135 H121 0.941 . S
C135 C134 1.389 . S
C135 C136 1.397 . S
C136 H122 0.939 . S
C136 C135 1.397 . S
C136 C137 1.378 . S
C137 C136 1.378 . S
C137 C138 1.378 . S
C138 H123 0.940 . S
C138 C137 1.378 . S
C138 C139 1.396 . S
C139 H124 0.940 . S
C139 C134 1.391 . S
C139 C138 1.396 . S
C140 P120 1.803 . S
C140 C141 1.378 . S
C140 C145 1.400 . S
C141 H125 0.939 . S
C141 C140 1.378 . S
C141 C142 1.361 . S
C142 H126 0.942 . S
C142 C141 1.361 . S
C142 C143 1.369 . S
C143 C142 1.369 . S
C143 C144 1.404 . S
C144 H127 0.940 . S
C144 C143 1.404 . S
C144 C145 1.389 . S
C145 H128 0.939 . S
C145 C140 1.400 . S
C145 C144 1.389 . S
C146 P120 1.819 . S
C146 C147 1.391 . S
C146 C151 1.391 . S
C147 H129 0.941 . S
C147 C146 1.391 . S
C147 C148 1.396 . S
C148 H132 0.939 . S
C148 C147 1.396 . S
C148 C149 1.397 . S
C149 C148 1.397 . S
C149 C150 1.385 . S
C150 H133 0.940 . S
C150 C149 1.385 . S
C150 C151 1.388 . S
C151 H130 0.939 . S
C151 C146 1.391 . S
C151 C150 1.388 . S
P152 O163 1.490 . S
P152 C166 1.812 . S
P152 C172 1.803 . S
P152 C178 1.819 . S
H153 C167 0.941 . S
H154 C168 0.939 . S
H155 C170 0.940 . S
H156 C171 0.940 . S
H157 C173 0.939 . S
H158 C174 0.942 . S
H159 C176 0.940 . S
H160 C177 0.939 . S
H161 C179 0.941 . S
H162 C183 0.939 . S
O163 P152 1.490 . S
H164 C180 0.939 . S
H165 C182 0.940 . S
C166 P152 1.812 . S
C166 C167 1.389 . S
C166 C171 1.391 . S
C167 H153 0.941 . S
C167 C166 1.389 . S
C167 C168 1.397 . S
C168 H154 0.939 . S
C168 C167 1.397 . S
C168 C169 1.378 . S
C169 C168 1.378 . S
C169 C170 1.378 . S
C170 H155 0.940 . S
C170 C169 1.378 . S
C170 C171 1.396 . S
C171 H156 0.940 . S
C171 C166 1.391 . S
C171 C170 1.396 . S
C172 P152 1.803 . S
C172 C173 1.378 . S
C172 C177 1.400 . S
C173 H157 0.939 . S
C173 C172 1.378 . S
C173 C174 1.361 . S
C174 H158 0.942 . S
C174 C173 1.361 . S
C174 C175 1.369 . S
C175 C174 1.369 . S
C175 C176 1.404 . S
C176 H159 0.940 . S
C176 C175 1.404 . S
C176 C177 1.389 . S
C177 H160 0.939 . S
C177 C172 1.400 . S
C177 C176 1.389 . S
C178 P152 1.819 . S
C178 C179 1.391 . S
C178 C183 1.391 . S
C179 H161 0.941 . S
C179 C178 1.391 . S
C179 C180 1.396 . S
C180 H164 0.939 . S
C180 C179 1.396 . S
C180 C181 1.397 . S
C181 C180 1.397 . S
C181 C182 1.385 . S
C182 H165 0.940 . S
C182 C181 1.385 . S
C182 C183 1.388 . S
C183 H162 0.939 . S
C183 C178 1.391 . S
C183 C182 1.388 . S
P184 O195 1.490 . S
P184 C198 1.812 . S
P184 C204 1.803 . S
P184 C210 1.819 . S
H185 C199 0.941 . S
H186 C200 0.939 . S
H187 C202 0.940 . S
H188 C203 0.940 . S
H189 C205 0.939 . S
H190 C206 0.942 . S
H191 C208 0.940 . S
H192 C209 0.939 . S
H193 C211 0.941 . S
H194 C215 0.939 . S
O195 P184 1.490 . S
H196 C212 0.939 . S
H197 C214 0.940 . S
C198 P184 1.812 . S
C198 C199 1.389 . S
C198 C203 1.391 . S
C199 H185 0.941 . S
C199 C198 1.389 . S
C199 C200 1.397 . S
C200 H186 0.939 . S
C200 C199 1.397 . S
C200 C201 1.378 . S
C201 C200 1.378 . S
C201 C202 1.378 . S
C202 H187 0.940 . S
C202 C201 1.378 . S
C202 C203 1.396 . S
C203 H188 0.940 . S
C203 C198 1.391 . S
C203 C202 1.396 . S
C204 P184 1.803 . S
C204 C205 1.378 . S
C204 C209 1.400 . S
C205 H189 0.939 . S
C205 C204 1.378 . S
C205 C206 1.361 . S
C206 H190 0.942 . S
C206 C205 1.361 . S
C206 C207 1.369 . S
C207 C206 1.369 . S
C207 C208 1.404 . S
C208 H191 0.940 . S
C208 C207 1.404 . S
C208 C209 1.389 . S
C209 H192 0.939 . S
C209 C204 1.400 . S
C209 C208 1.389 . S
C210 P184 1.819 . S
C210 C211 1.391 . S
C210 C215 1.391 . S
C211 H193 0.941 . S
C211 C210 1.391 . S
C211 C212 1.396 . S
C212 H196 0.939 . S
C212 C211 1.396 . S
C212 C213 1.397 . S
C213 C212 1.397 . S
C213 C214 1.385 . S
C214 H197 0.940 . S
C214 C213 1.385 . S
C214 C215 1.388 . S
C215 H194 0.939 . S
C215 C210 1.391 . S
C215 C214 1.388 . S
P216 O227 1.490 . S
P216 C230 1.812 . S
P216 C236 1.803 . S
P216 C242 1.819 . S
H217 C231 0.941 . S
H218 C232 0.939 . S
H219 C234 0.940 . S
H220 C235 0.940 . S
H221 C237 0.939 . S
H222 C238 0.942 . S
H223 C240 0.940 . S
H224 C241 0.939 . S
H225 C243 0.941 . S
H226 C247 0.939 . S
O227 P216 1.490 . S
H228 C244 0.939 . S
H229 C246 0.940 . S
C230 P216 1.812 . S
C230 C231 1.389 . S
C230 C235 1.391 . S
C231 H217 0.941 . S
C231 C230 1.389 . S
C231 C232 1.397 . S
C232 H218 0.939 . S
C232 C231 1.397 . S
C232 C233 1.378 . S
C233 C232 1.378 . S
C233 C234 1.378 . S
C234 H219 0.940 . S
C234 C233 1.378 . S
C234 C235 1.396 . S
C235 H220 0.940 . S
C235 C230 1.391 . S
C235 C234 1.396 . S
C236 P216 1.803 . S
C236 C237 1.378 . S
C236 C241 1.400 . S
C237 H221 0.939 . S
C237 C236 1.378 . S
C237 C238 1.361 . S
C238 H222 0.942 . S
C238 C237 1.361 . S
C238 C239 1.369 . S
C239 C238 1.369 . S
C239 C240 1.404 . S
C240 H223 0.940 . S
C240 C239 1.404 . S
C240 C241 1.389 . S
C241 H224 0.939 . S
C241 C236 1.400 . S
C241 C240 1.389 . S
C242 P216 1.819 . S
C242 C243 1.391 . S
C242 C247 1.391 . S
C243 H225 0.941 . S
C243 C242 1.391 . S
C243 C244 1.396 . S
C244 H228 0.939 . S
C244 C243 1.396 . S
C244 C245 1.397 . S
C245 C244 1.397 . S
C245 C246 1.385 . S
C246 H229 0.940 . S
C246 C245 1.385 . S
C246 C247 1.388 . S
C247 H226 0.939 . S
C247 C242 1.391 . S
C247 C246 1.388 . S
P248 O259 1.490 . S
P248 C262 1.812 . S
P248 C268 1.803 . S
P248 C274 1.819 . S
H249 C263 0.941 . S
H250 C264 0.939 . S
H251 C266 0.940 . S
H252 C267 0.940 . S
H253 C269 0.939 . S
H254 C270 0.942 . S
H255 C272 0.940 . S
H256 C273 0.939 . S
H257 C275 0.941 . S
H258 C279 0.939 . S
O259 P248 1.490 . S
H260 C276 0.939 . S
H261 C278 0.940 . S
C262 P248 1.812 . S
C262 C263 1.389 . S
C262 C267 1.391 . S
C263 H249 0.941 . S
C263 C262 1.389 . S
C263 C264 1.397 . S
C264 H250 0.939 . S
C264 C263 1.397 . S
C264 C265 1.378 . S
C265 C264 1.378 . S
C265 C266 1.378 . S
C266 H251 0.940 . S
C266 C265 1.378 . S
C266 C267 1.396 . S
C267 H252 0.940 . S
C267 C262 1.391 . S
C267 C266 1.396 . S
C268 P248 1.803 . S
C268 C269 1.378 . S
C268 C273 1.400 . S
C269 H253 0.939 . S
C269 C268 1.378 . S
C269 C270 1.361 . S
C270 H254 0.942 . S
C270 C269 1.361 . S
C270 C271 1.369 . S
C271 C270 1.369 . S
C271 C272 1.404 . S
C272 H255 0.940 . S
C272 C271 1.404 . S
C272 C273 1.389 . S
C273 H256 0.939 . S
C273 C268 1.400 . S
C273 C272 1.389 . S
C274 P248 1.819 . S
C274 C275 1.391 . S
C274 C279 1.391 . S
C275 H257 0.941 . S
C275 C274 1.391 . S
C275 C276 1.396 . S
C276 H260 0.939 . S
C276 C275 1.396 . S
C276 C277 1.397 . S
C277 C276 1.397 . S
C277 C278 1.385 . S
C278 H261 0.940 . S
C278 C277 1.385 . S
C278 C279 1.388 . S
C279 H258 0.939 . S
C279 C274 1.391 . S
C279 C278 1.388 . S
P280 O291 1.490 . S
P280 C294 1.812 . S
P280 C300 1.803 . S
P280 C306 1.819 . S
H281 C295 0.941 . S
H282 C296 0.939 . S
H283 C298 0.940 . S
H284 C299 0.940 . S
H285 C301 0.939 . S
H286 C302 0.942 . S
H287 C304 0.940 . S
H288 C305 0.939 . S
H289 C307 0.941 . S
H290 C311 0.939 . S
O291 P280 1.490 . S
H292 C308 0.939 . S
H293 C310 0.940 . S
C294 P280 1.812 . S
C294 C295 1.389 . S
C294 C299 1.391 . S
C295 H281 0.941 . S
C295 C294 1.389 . S
C295 C296 1.397 . S
C296 H282 0.939 . S
C296 C295 1.397 . S
C296 C297 1.378 . S
C297 C296 1.378 . S
C297 C298 1.378 . S
C298 H283 0.940 . S
C298 C297 1.378 . S
C298 C299 1.396 . S
C299 H284 0.940 . S
C299 C294 1.391 . S
C299 C298 1.396 . S
C300 P280 1.803 . S
C300 C301 1.378 . S
C300 C305 1.400 . S
C301 H285 0.939 . S
C301 C300 1.378 . S
C301 C302 1.361 . S
C302 H286 0.942 . S
C302 C301 1.361 . S
C302 C303 1.369 . S
C303 C302 1.369 . S
C303 C304 1.404 . S
C304 H287 0.940 . S
C304 C303 1.404 . S
C304 C305 1.389 . S
C305 H288 0.939 . S
C305 C300 1.400 . S
C305 C304 1.389 . S
C306 P280 1.819 . S
C306 C307 1.391 . S
C306 C311 1.391 . S
C307 H289 0.941 . S
C307 C306 1.391 . S
C307 C308 1.396 . S
C308 H292 0.939 . S
C308 C307 1.396 . S
C308 C309 1.397 . S
C309 C308 1.397 . S
C309 C310 1.385 . S
C310 H293 0.940 . S
C310 C309 1.385 . S
C310 C311 1.388 . S
C311 H290 0.939 . S
C311 C306 1.391 . S
C311 C310 1.388 . S
P312 O323 1.490 . S
P312 C326 1.812 . S
P312 C332 1.803 . S
P312 C338 1.819 . S
H313 C327 0.941 . S
H314 C328 0.939 . S
H315 C330 0.940 . S
H316 C331 0.940 . S
H317 C333 0.939 . S
H318 C334 0.942 . S
H319 C336 0.940 . S
H320 C337 0.939 . S
H321 C339 0.941 . S
H322 C343 0.939 . S
O323 P312 1.490 . S
H324 C340 0.939 . S
H325 C342 0.926 1_455 S
C326 P312 1.812 . S
C326 C327 1.389 . S
C326 C331 1.391 . S
C327 H313 0.941 . S
C327 C326 1.389 . S
C327 C328 1.397 . S
C328 H314 0.939 . S
C328 C327 1.397 . S
C328 C329 1.378 . S
C329 C328 1.378 . S
C329 C330 1.378 . S
C330 H315 0.940 . S
C330 C329 1.378 . S
C330 C331 1.396 . S
C331 H316 0.940 . S
C331 C326 1.391 . S
C331 C330 1.396 . S
C332 P312 1.803 . S
C332 C333 1.378 . S
C332 C337 1.400 . S
C333 H317 0.939 . S
C333 C332 1.378 . S
C333 C334 1.361 . S
C334 H318 0.942 . S
C334 C333 1.361 . S
C334 C335 1.369 . S
C335 C334 1.369 . S
C335 C336 1.404 . S
C336 H319 0.940 . S
C336 C335 1.404 . S
C336 C337 1.389 . S
C337 H320 0.939 . S
C337 C332 1.400 . S
C337 C336 1.389 . S
C338 P312 1.819 . S
C338 C339 1.391 . S
C338 C343 1.391 . S
C339 H321 0.941 . S
C339 C338 1.391 . S
C339 C340 1.396 . S
C340 H324 0.939 . S
C340 C339 1.396 . S
C340 C341 1.397 1_655 S
C341 C340 1.397 1_455 S
C341 C342 1.377 1_455 S
C342 H325 0.926 1_655 S
C342 C341 1.377 1_655 S
C342 C343 1.410 . S
C343 H322 0.939 . S
C343 C338 1.391 . S
C343 C342 1.410 . S
C344 C345 1.391 . S
C344 C346 1.394 . S
C344 H360 0.931 . S
C345 C344 1.391 . S
C345 C349 1.376 . S
C346 C344 1.394 . S
C346 C347 1.369 . S
C346 C350 1.531 . S
C347 C346 1.369 . S
C347 C348 1.410 . S
C347 C355 1.503 . S
C348 C347 1.410 . S
C348 C349 1.392 . S
C348 C351 1.511 . S
C349 C345 1.376 . S
C349 C348 1.392 . S
C349 H361 0.929 . S
C350 C346 1.531 . S
C350 H362 0.960 . S
C350 H363 0.962 . S
C350 H364 0.960 . S
C351 C348 1.511 . S
C351 H365 0.961 . S
C351 H366 0.961 . S
C351 H367 0.961 . S
C352 C353 1.370 . S
C352 C354 1.363 . S
C352 H368 0.931 . S
C353 C352 1.370 . S
C353 C357 1.408 1_565 S
C354 C352 1.363 . S
C354 C355 1.370 . S
C354 C358 1.524 . S
C355 C347 1.503 . S
C355 C354 1.370 . S
C355 C356 1.403 . S
C356 C355 1.403 . S
C356 C357 1.404 1_565 S
C356 C359 1.539 . S
C357 C353 1.408 1_545 S
C357 C356 1.404 1_545 S
C357 H369 0.929 . S
C358 C354 1.524 . S
C358 H370 0.956 . S
C358 H371 0.961 . S
C358 H372 0.961 . S
C359 C356 1.539 . S
C359 H373 0.958 . S
C359 H374 0.961 . S
C359 H375 0.960 . S
H360 C344 0.931 . S
H361 C349 0.929 . S
H362 C350 0.960 . S
H363 C350 0.962 . S
H364 C350 0.960 . S
H365 C351 0.961 . S
H366 C351 0.961 . S
H367 C351 0.961 . S
H368 C352 0.931 . S
H369 C357 0.929 . S
H370 C358 0.956 . S
H371 C358 0.961 . S
H372 C358 0.961 . S
H373 C359 0.958 . S
H374 C359 0.961 . S
H375 C359 0.960 . S
C376 C377 1.391 . S
C376 C378 1.394 . S
C376 H392 0.931 . S
C377 C376 1.391 . S
C377 C381 1.376 . S
C378 C376 1.394 . S
C378 C379 1.369 . S
C378 C382 1.531 . S
C379 C378 1.369 . S
C379 C380 1.410 . S
C379 C387 1.503 . S
C380 C379 1.410 . S
C380 C381 1.392 . S
C380 C383 1.511 . S
C381 C377 1.376 . S
C381 C380 1.392 . S
C381 H393 0.929 . S
C382 C378 1.531 . S
C382 H394 0.960 . S
C382 H395 0.962 . S
C382 H396 0.960 . S
C383 C380 1.511 . S
C383 H397 0.961 . S
C383 H398 0.961 . S
C383 H399 0.961 . S
C384 C385 1.370 . S
C384 C386 1.363 . S
C384 H400 0.931 . S
C385 C384 1.370 . S
C385 C389 1.408 . S
C386 C384 1.363 . S
C386 C387 1.370 . S
C386 C390 1.524 . S
C387 C379 1.503 . S
C387 C386 1.370 . S
C387 C388 1.403 . S
C388 C387 1.403 . S
C388 C389 1.404 . S
C388 C391 1.539 . S
C389 C385 1.408 . S
C389 C388 1.404 . S
C389 H401 0.930 . S
C390 C386 1.524 . S
C390 H402 0.956 . S
C390 H403 0.961 . S
C390 H404 0.961 . S
C391 C388 1.539 . S
C391 H405 0.958 . S
C391 H406 0.961 . S
C391 H407 0.960 . S
H392 C376 0.931 . S
H393 C381 0.929 . S
H394 C382 0.960 . S
H395 C382 0.962 . S
H396 C382 0.960 . S
H397 C383 0.961 . S
H398 C383 0.961 . S
H399 C383 0.961 . S
H400 C384 0.931 . S
H401 C389 0.930 . S
H402 C390 0.956 . S
H403 C390 0.961 . S
H404 C390 0.961 . S
H405 C391 0.958 . S
H406 C391 0.961 . S
H407 C391 0.960 . S
C408 C409 1.391 . S
C408 C410 1.394 . S
C408 H424 0.931 . S
C409 C408 1.391 . S
C409 C413 1.376 . S
C410 C408 1.394 . S
C410 C411 1.369 . S
C410 C414 1.531 . S
C411 C410 1.369 . S
C411 C412 1.410 . S
C411 C419 1.503 . S
C412 C411 1.410 . S
C412 C413 1.392 . S
C412 C415 1.511 . S
C413 C409 1.376 . S
C413 C412 1.392 . S
C413 H425 0.929 . S
C414 C410 1.531 . S
C414 H426 0.960 . S
C414 H427 0.962 . S
C414 H428 0.960 . S
C415 C412 1.511 . S
C415 H429 0.961 . S
C415 H430 0.961 1_545 S
C415 H431 0.961 . S
C416 C417 1.370 . S
C416 C418 1.363 . S
C416 H432 0.931 . S
C417 C416 1.370 . S
C417 C421 1.408 . S
C418 C416 1.363 . S
C418 C419 1.370 1_565 S
C418 C422 1.524 . S
C419 C411 1.503 . S
C419 C418 1.370 1_545 S
C419 C420 1.403 . S
C420 C419 1.403 . S
C420 C421 1.404 1_545 S
C420 C423 1.539 . S
C421 C417 1.408 . S
C421 C420 1.404 1_565 S
C421 H433 0.930 . S
C422 C418 1.524 . S
C422 H434 0.956 1_565 S
C422 H435 0.961 1_565 S
C422 H436 0.961 . S
C423 C420 1.539 . S
C423 H437 0.958 . S
C423 H438 0.961 . S
C423 H439 0.960 . S
H424 C408 0.931 . S
H425 C413 0.929 . S
H426 C414 0.960 . S
H427 C414 0.962 . S
H428 C414 0.960 . S
H429 C415 0.961 . S
H430 C415 0.961 1_565 S
H431 C415 0.961 . S
H432 C416 0.931 . S
H433 C421 0.930 . S
H434 C422 0.956 1_545 S
H435 C422 0.961 1_545 S
H436 C422 0.961 . S
H437 C423 0.958 . S
H438 C423 0.961 . S
H439 C423 0.960 . S
C440 C441 1.391 . S
C440 C442 1.394 . S
C440 H456 0.931 . S
C441 C440 1.391 . S
C441 C445 1.376 . S
C442 C440 1.394 . S
C442 C443 1.369 . S
C442 C446 1.531 . S
C443 C442 1.369 . S
C443 C444 1.410 . S
C443 C451 1.503 . S
C444 C443 1.410 . S
C444 C445 1.392 . S
C444 C447 1.511 . S
C445 C441 1.376 . S
C445 C444 1.392 . S
C445 H457 0.929 . S
C446 C442 1.531 . S
C446 H458 0.960 . S
C446 H459 0.962 . S
C446 H460 0.960 . S
C447 C444 1.511 . S
C447 H461 0.961 . S
C447 H462 0.961 . S
C447 H463 0.961 . S
C448 C449 1.370 . S
C448 C450 1.363 . S
C448 H464 0.931 . S
C449 C448 1.370 . S
C449 C453 1.408 . S
C450 C448 1.363 . S
C450 C451 1.370 . S
C450 C454 1.524 . S
C451 C443 1.503 . S
C451 C450 1.370 . S
C451 C452 1.403 . S
C452 C451 1.403 . S
C452 C453 1.404 . S
C452 C455 1.539 . S
C453 C449 1.408 . S
C453 C452 1.404 . S
C453 H465 0.930 . S
C454 C450 1.524 . S
C454 H466 0.956 . S
C454 H467 0.961 . S
C454 H468 0.961 . S
C455 C452 1.539 . S
C455 H469 0.958 . S
C455 H470 0.961 . S
C455 H471 0.960 . S
H456 C440 0.931 . S
H457 C445 0.929 . S
H458 C446 0.960 . S
H459 C446 0.962 . S
H460 C446 0.960 . S
H461 C447 0.961 . S
H462 C447 0.961 . S
H463 C447 0.961 . S
H464 C448 0.931 . S
H465 C453 0.930 . S
H466 C454 0.956 . S
H467 C454 0.961 . S
H468 C454 0.961 . S
H469 C455 0.958 . S
H470 C455 0.961 . S
H471 C455 0.960 . S
C472 C473 1.391 . S
C472 C474 1.394 . S
C472 H488 0.931 . S
C473 C472 1.391 . S
C473 C477 1.376 . S
C474 C472 1.394 . S
C474 C475 1.369 . S
C474 C478 1.531 . S
C475 C474 1.369 . S
C475 C476 1.410 . S
C475 C483 1.503 . S
C476 C475 1.410 . S
C476 C477 1.392 . S
C476 C479 1.511 . S
C477 C473 1.376 . S
C477 C476 1.392 . S
C477 H489 0.929 . S
C478 C474 1.531 . S
C478 H490 0.960 . S
C478 H491 0.962 . S
C478 H492 0.960 . S
C479 C476 1.511 . S
C479 H493 0.961 . S
C479 H494 0.961 . S
C479 H495 0.961 . S
C480 C481 1.370 . S
C480 C482 1.363 . S
C480 H496 0.931 . S
C481 C480 1.370 . S
C481 C485 1.408 . S
C482 C480 1.363 . S
C482 C483 1.370 . S
C482 C486 1.524 . S
C483 C475 1.503 . S
C483 C482 1.370 . S
C483 C484 1.403 . S
C484 C483 1.403 . S
C484 C485 1.404 . S
C484 C487 1.539 . S
C485 C481 1.408 . S
C485 C484 1.404 . S
C485 H497 0.930 . S
C486 C482 1.524 . S
C486 H498 0.956 . S
C486 H499 0.961 . S
C486 H500 0.961 . S
C487 C484 1.539 . S
C487 H501 0.958 . S
C487 H502 0.961 . S
C487 H503 0.960 . S
H488 C472 0.931 . S
H489 C477 0.929 . S
H490 C478 0.960 . S
H491 C478 0.962 . S
H492 C478 0.960 . S
H493 C479 0.961 . S
H494 C479 0.961 . S
H495 C479 0.961 . S
H496 C480 0.931 . S
H497 C485 0.930 . S
H498 C486 0.956 . S
H499 C486 0.961 . S
H500 C486 0.961 . S
H501 C487 0.958 . S
H502 C487 0.961 . S
H503 C487 0.960 . S
C504 C505 1.391 . S
C504 C506 1.394 1_655 S
C504 H520 0.931 1_556 S
C505 C504 1.391 . S
C505 C509 1.376 . S
C506 C504 1.394 1_455 S
C506 C507 1.369 . S
C506 C510 1.531 1_556 S
C507 C506 1.369 . S
C507 C508 1.410 . S
C507 C515 1.503 . S
C508 C507 1.410 . S
C508 C509 1.392 1_455 S
C508 C511 1.511 . S
C509 C505 1.376 . S
C509 C508 1.392 1_655 S
C509 H521 0.929 . S
C510 C506 1.531 1_554 S
C510 H522 0.960 . S
C510 H523 0.962 . S
C510 H524 0.960 . S
C511 C508 1.511 . S
C511 H525 0.961 1_455 S
C511 H526 0.961 . S
C511 H527 0.961 . S
C512 C513 1.370 . S
C512 C514 1.363 . S
C512 H528 0.931 . S
C513 C512 1.370 . S
C513 C517 1.408 . S
C514 C512 1.363 . S
C514 C515 1.370 . S
C514 C518 1.524 . S
C515 C507 1.503 . S
C515 C514 1.370 . S
C515 C516 1.403 . S
C516 C515 1.403 . S
C516 C517 1.404 . S
C516 C519 1.539 . S
C517 C513 1.408 . S
C517 C516 1.404 . S
C517 H529 0.930 . S
C518 C514 1.524 . S
C518 H530 0.956 . S
C518 H531 0.961 . S
C518 H532 0.961 . S
C519 C516 1.539 . S
C519 H533 0.958 . S
C519 H534 0.961 . S
C519 H535 0.960 . S
H520 C504 0.931 1_554 S
H521 C509 0.929 . S
H522 C510 0.960 . S
H523 C510 0.962 . S
H524 C510 0.960 . S
H525 C511 0.961 1_655 S
H526 C511 0.961 . S
H527 C511 0.961 . S
H528 C512 0.931 . S
H529 C517 0.930 . S
H530 C518 0.956 . S
H531 C518 0.961 . S
H532 C518 0.961 . S
H533 C519 0.958 . S
H534 C519 0.961 . S
H535 C519 0.960 . S
C536 C537 1.391 . S
C536 C538 1.394 . S
C536 H552 0.931 . S
C537 C536 1.391 . S
C537 C541 1.376 . S
C538 C536 1.394 . S
C538 C539 1.369 . S
C538 C542 1.531 . S
C539 C538 1.369 . S
C539 C540 1.410 . S
C539 C547 1.503 . S
C540 C539 1.410 . S
C540 C541 1.392 . S
C540 C543 1.511 . S
C541 C537 1.376 . S
C541 C540 1.392 . S
C541 H553 0.929 . S
C542 C538 1.531 . S
C542 H554 0.960 . S
C542 H555 0.962 . S
C542 H556 0.960 . S
C543 C540 1.511 . S
C543 H557 0.961 . S
C543 H558 0.961 . S
C543 H559 0.961 . S
C544 C545 1.370 . S
C544 C546 1.363 . S
C544 H560 0.931 . S
C545 C544 1.370 . S
C545 C549 1.408 . S
C546 C544 1.363 . S
C546 C547 1.370 . S
C546 C550 1.524 . S
C547 C539 1.503 . S
C547 C546 1.370 . S
C547 C548 1.403 . S
C548 C547 1.403 . S
C548 C549 1.404 . S
C548 C551 1.539 . S
C549 C545 1.408 . S
C549 C548 1.404 . S
C549 H561 0.930 . S
C550 C546 1.524 . S
C550 H562 0.956 . S
C550 H563 0.961 . S
C550 H564 0.961 . S
C551 C548 1.539 . S
C551 H565 0.958 . S
C551 H566 0.961 . S
C551 H567 0.960 . S
H552 C536 0.931 . S
H553 C541 0.929 . S
H554 C542 0.960 . S
H555 C542 0.962 . S
H556 C542 0.960 . S
H557 C543 0.961 . S
H558 C543 0.961 . S
H559 C543 0.961 . S
H560 C544 0.931 . S
H561 C549 0.930 . S
H562 C550 0.956 . S
H563 C550 0.961 . S
H564 C550 0.961 . S
H565 C551 0.958 . S
H566 C551 0.961 . S
H567 C551 0.960 . S
C568 C569 1.391 . S
C568 C570 1.394 . S
C568 H584 0.931 . S
C569 C568 1.391 . S
C569 C573 1.376 . S
C570 C568 1.394 . S
C570 C571 1.369 . S
C570 C574 1.531 . S
C571 C570 1.369 . S
C571 C572 1.410 . S
C571 C579 1.503 . S
C572 C571 1.410 . S
C572 C573 1.392 . S
C572 C575 1.511 . S
C573 C569 1.376 . S
C573 C572 1.392 . S
C573 H585 0.929 . S
C574 C570 1.531 . S
C574 H586 0.960 . S
C574 H587 0.962 . S
C574 H588 0.960 . S
C575 C572 1.511 . S
C575 H589 0.961 . S
C575 H590 0.961 . S
C575 H591 0.961 . S
C576 C577 1.370 . S
C576 C578 1.363 . S
C576 H592 0.931 . S
C577 C576 1.370 . S
C577 C581 1.408 . S
C578 C576 1.363 . S
C578 C579 1.370 . S
C578 C582 1.524 . S
C579 C571 1.503 . S
C579 C578 1.370 . S
C579 C580 1.403 . S
C580 C579 1.403 . S
C580 C581 1.404 . S
C580 C583 1.539 . S
C581 C577 1.408 . S
C581 C580 1.404 . S
C581 H593 0.930 . S
C582 C578 1.524 . S
C582 H594 0.956 . S
C582 H595 0.961 . S
C582 H596 0.961 . S
C583 C580 1.539 . S
C583 H597 0.958 . S
C583 H598 0.961 . S
C583 H599 0.960 . S
H584 C568 0.931 . S
H585 C573 0.929 . S
H586 C574 0.960 . S
H587 C574 0.962 . S
H588 C574 0.960 . S
H589 C575 0.961 . S
H590 C575 0.961 . S
H591 C575 0.961 . S
H592 C576 0.931 . S
H593 C581 0.930 . S
H594 C582 0.956 . S
H595 C582 0.961 . S
H596 C582 0.961 . S
H597 C583 0.958 . S
H598 C583 0.961 . S
H599 C583 0.960 . S
C600 C601 1.391 . S
C600 C602 1.394 . S
C600 H616 0.931 . S
C601 C600 1.391 . S
C601 C605 1.376 . S
C602 C600 1.394 . S
C602 C603 1.369 . S
C602 C606 1.531 . S
C603 C602 1.369 . S
C603 C604 1.410 . S
C603 C611 1.503 . S
C604 C603 1.410 . S
C604 C605 1.392 . S
C604 C607 1.511 . S
C605 C601 1.376 . S
C605 C604 1.392 . S
C605 H617 0.929 . S
C606 C602 1.531 . S
C606 H618 0.960 . S
C606 H619 0.962 . S
C606 H620 0.960 . S
C607 C604 1.511 . S
C607 H621 0.961 . S
C607 H622 0.961 . S
C607 H623 0.961 . S
C608 C609 1.341 1_545 S
C608 C610 1.363 . S
C608 H624 0.931 . S
C609 C608 1.341 1_565 S
C609 C613 1.423 . S
C610 C608 1.363 . S
C610 C611 1.370 . S
C610 C614 1.524 . S
C611 C603 1.503 . S
C611 C610 1.370 . S
C611 C612 1.403 . S
C612 C611 1.403 . S
C612 C613 1.404 1_545 S
C612 C615 1.539 1_545 S
C613 C609 1.423 . S
C613 C612 1.404 1_565 S
C613 H625 0.930 . S
C614 C610 1.524 . S
C614 H626 0.956 . S
C614 H627 0.961 . S
C614 H628 0.961 . S
C615 C612 1.539 1_565 S
C615 H629 0.958 . S
C615 H630 0.961 . S
C615 H631 0.960 1_565 S
H616 C600 0.931 . S
H617 C605 0.929 . S
H618 C606 0.960 . S
H619 C606 0.962 . S
H620 C606 0.960 . S
H621 C607 0.961 . S
H622 C607 0.961 . S
H623 C607 0.961 . S
H624 C608 0.931 . S
H625 C613 0.930 . S
H626 C614 0.956 . S
H627 C614 0.961 . S
H628 C614 0.961 . S
H629 C615 0.958 . S
H630 C615 0.961 . S
H631 C615 0.960 1_545 S
C632 C633 1.391 . S
C632 C634 1.394 . S
C632 H648 0.931 . S
C633 C632 1.391 . S
C633 C637 1.376 . S
C634 C632 1.394 . S
C634 C635 1.369 . S
C634 C638 1.531 . S
C635 C634 1.369 . S
C635 C636 1.410 . S
C635 C643 1.503 . S
C636 C635 1.410 . S
C636 C637 1.392 . S
C636 C639 1.511 . S
C637 C633 1.376 . S
C637 C636 1.392 . S
C637 H649 0.929 . S
C638 C634 1.531 . S
C638 H650 0.960 . S
C638 H651 0.962 . S
C638 H652 0.960 . S
C639 C636 1.511 . S
C639 H653 0.961 . S
C639 H654 0.961 . S
C639 H655 0.961 . S
C640 C641 1.370 . S
C640 C642 1.363 . S
C640 H656 0.931 . S
C641 C640 1.370 . S
C641 C645 1.408 . S
C642 C640 1.363 . S
C642 C643 1.370 . S
C642 C646 1.524 . S
C643 C635 1.503 . S
C643 C642 1.370 . S
C643 C644 1.403 . S
C644 C643 1.403 . S
C644 C645 1.404 . S
C644 C647 1.539 . S
C645 C641 1.408 . S
C645 C644 1.404 . S
C645 H657 0.930 . S
C646 C642 1.524 . S
C646 H658 0.956 . S
C646 H659 0.961 . S
C646 H660 0.961 . S
C647 C644 1.539 . S
C647 H661 0.958 . S
C647 H662 0.961 . S
C647 H663 0.960 . S
H648 C632 0.931 . S
H649 C637 0.929 . S
H650 C638 0.960 . S
H651 C638 0.962 . S
H652 C638 0.960 . S
H653 C639 0.961 . S
H654 C639 0.961 . S
H655 C639 0.961 . S
H656 C640 0.931 . S
H657 C645 0.930 . S
H658 C646 0.956 . S
H659 C646 0.961 . S
H660 C646 0.961 . S
H661 C647 0.958 . S
H662 C647 0.961 . S
H663 C647 0.960 . S
C664 C665 1.391 . S
C664 C666 1.394 . S
C664 H680 0.931 . S
C665 C664 1.391 . S
C665 C669 1.377 . S
C666 C664 1.394 . S
C666 C667 1.369 . S
C666 C670 1.531 . S
C667 C666 1.369 . S
C667 C668 1.410 . S
C667 C675 1.503 . S
C668 C667 1.410 . S
C668 C669 1.410 . S
C668 C671 1.511 . S
C669 C665 1.377 . S
C669 C668 1.410 . S
C669 H681 0.912 1_556 S
C670 C666 1.531 . S
C670 H682 0.960 . S
C670 H683 0.962 . S
C670 H684 0.960 . S
C671 C668 1.511 . S
C671 H685 0.961 1_556 S
C671 H686 0.961 1_565 S
C671 H687 0.961 . S
C672 C673 1.370 . S
C672 C674 1.363 . S
C672 H688 0.931 . S
C673 C672 1.370 . S
C673 C677 1.408 . S
C674 C672 1.363 . S
C674 C675 1.370 1_545 S
C674 C678 1.524 1_546 S
C675 C667 1.503 . S
C675 C674 1.370 1_565 S
C675 C676 1.403 . S
C676 C675 1.403 . S
C676 C677 1.404 1_565 S
C676 C679 1.539 . S
C677 C673 1.408 . S
C677 C676 1.404 1_545 S
C677 H689 0.930 . S
C678 C674 1.524 1_564 S
C678 H690 0.956 . S
C678 H691 0.961 . S
C678 H692 0.961 1_565 S
C679 C676 1.539 . S
C679 H693 0.958 . S
C679 H694 0.961 . S
C679 H695 0.960 . S
H680 C664 0.931 . S
H681 C669 0.912 1_554 S
H682 C670 0.960 . S
H683 C670 0.962 . S
H684 C670 0.960 . S
H685 C671 0.961 1_554 S
H686 C671 0.961 1_545 S
H687 C671 0.961 . S
H688 C672 0.931 . S
H689 C677 0.930 . S
H690 C678 0.956 . S
H691 C678 0.961 . S
H692 C678 0.961 1_545 S
H693 C679 0.958 . S
H694 C679 0.961 . S
H695 C679 0.960 . S
C696 C697 1.391 . S
C696 C698 1.394 . S
C696 H712 0.931 . S
C697 C696 1.391 . S
C697 C701 1.376 . S
C698 C696 1.394 . S
C698 C699 1.369 . S
C698 C702 1.531 . S
C699 C698 1.369 . S
C699 C700 1.410 . S
C699 C707 1.503 . S
C700 C699 1.410 . S
C700 C701 1.392 . S
C700 C703 1.511 . S
C701 C697 1.376 . S
C701 C700 1.392 . S
C701 H713 0.929 . S
C702 C698 1.531 . S
C702 H714 0.960 . S
C702 H715 0.962 . S
C702 H716 0.960 . S
C703 C700 1.511 . S
C703 H717 0.961 . S
C703 H718 0.961 . S
C703 H719 0.961 . S
C704 C705 1.370 . S
C704 C706 1.363 . S
C704 H720 0.931 . S
C705 C704 1.370 . S
C705 C709 1.408 . S
C706 C704 1.363 . S
C706 C707 1.370 . S
C706 C710 1.524 . S
C707 C699 1.503 . S
C707 C706 1.370 . S
C707 C708 1.403 . S
C708 C707 1.403 . S
C708 C709 1.404 . S
C708 C711 1.539 . S
C709 C705 1.408 . S
C709 C708 1.404 . S
C709 H721 0.930 . S
C710 C706 1.524 . S
C710 H722 0.956 . S
C710 H723 0.961 . S
C710 H724 0.961 . S
C711 C708 1.539 . S
C711 H725 0.958 . S
C711 H726 0.961 . S
C711 H727 0.960 . S
H712 C696 0.931 . S
H713 C701 0.929 . S
H714 C702 0.960 . S
H715 C702 0.962 . S
H716 C702 0.960 . S
H717 C703 0.961 . S
H718 C703 0.961 . S
H719 C703 0.961 . S
H720 C704 0.931 . S
H721 C709 0.930 . S
H722 C710 0.956 . S
H723 C710 0.961 . S
H724 C710 0.961 . S
H725 C711 0.958 . S
H726 C711 0.961 . S
H727 C711 0.960 . S
C728 C729 1.391 . S
C728 C730 1.394 . S
C728 H744 0.931 . S
C729 C728 1.391 . S
C729 C733 1.376 . S
C730 C728 1.394 . S
C730 C731 1.369 . S
C730 C734 1.531 . S
C731 C730 1.369 . S
C731 C732 1.410 . S
C731 C739 1.503 . S
C732 C731 1.410 . S
C732 C733 1.392 . S
C732 C735 1.511 . S
C733 C729 1.376 . S
C733 C732 1.392 . S
C733 H745 0.929 . S
C734 C730 1.531 . S
C734 H746 0.960 . S
C734 H747 0.962 . S
C734 H748 0.960 . S
C735 C732 1.511 . S
C735 H749 0.961 . S
C735 H750 0.961 . S
C735 H751 0.961 . S
C736 C737 1.370 . S
C736 C738 1.363 . S
C736 H752 0.931 . S
C737 C736 1.370 . S
C737 C741 1.408 . S
C738 C736 1.363 . S
C738 C739 1.370 . S
C738 C742 1.524 . S
C739 C731 1.503 . S
C739 C738 1.370 . S
C739 C740 1.403 . S
C740 C739 1.403 . S
C740 C741 1.404 . S
C740 C743 1.539 . S
C741 C737 1.408 . S
C741 C740 1.404 . S
C741 H753 0.930 . S
C742 C738 1.524 . S
C742 H754 0.956 . S
C742 H755 0.961 . S
C742 H756 0.961 . S
C743 C740 1.539 . S
C743 H757 0.958 . S
C743 H758 0.961 . S
C743 H759 0.960 . S
H744 C728 0.931 . S
H745 C733 0.929 . S
H746 C734 0.960 . S
H747 C734 0.962 . S
H748 C734 0.960 . S
H749 C735 0.961 . S
H750 C735 0.961 . S
H751 C735 0.961 . S
H752 C736 0.931 . S
H753 C741 0.930 . S
H754 C742 0.956 . S
H755 C742 0.961 . S
H756 C742 0.961 . S
H757 C743 0.958 . S
H758 C743 0.961 . S
H759 C743 0.960 . S
C760 C761 1.391 . S
C760 C762 1.394 1_455 S
C760 H776 0.931 . S
C761 C760 1.391 . S
C761 C765 1.376 . S
C762 C760 1.394 1_655 S
C762 C763 1.369 . S
C762 C766 1.531 . S
C763 C762 1.369 . S
C763 C764 1.410 . S
C763 C771 1.503 . S
C764 C763 1.410 . S
C764 C765 1.392 1_655 S
C764 C767 1.511 . S
C765 C761 1.376 . S
C765 C764 1.392 1_455 S
C765 H777 0.929 . S
C766 C762 1.531 . S
C766 H778 0.960 . S
C766 H779 0.962 . S
C766 H780 0.960 1_655 S
C767 C764 1.511 . S
C767 H781 0.961 . S
C767 H782 0.961 . S
C767 H783 0.961 . S
C768 C769 1.370 . S
C768 C770 1.363 . S
C768 H784 0.931 . S
C769 C768 1.370 . S
C769 C773 1.408 . S
C770 C768 1.363 . S
C770 C771 1.370 . S
C770 C774 1.524 . S
C771 C763 1.503 . S
C771 C770 1.370 . S
C771 C772 1.403 . S
C772 C771 1.403 . S
C772 C773 1.404 . S
C772 C775 1.539 . S
C773 C769 1.408 . S
C773 C772 1.404 . S
C773 H785 0.930 . S
C774 C770 1.524 . S
C774 H786 0.956 . S
C774 H787 0.961 . S
C774 H788 0.961 . S
C775 C772 1.539 . S
C775 H789 0.958 . S
C775 H790 0.961 . S
C775 H791 0.960 . S
H776 C760 0.931 . S
H777 C765 0.929 . S
H778 C766 0.960 . S
H779 C766 0.962 . S
H780 C766 0.960 1_455 S
H781 C767 0.961 . S
H782 C767 0.961 . S
H783 C767 0.961 . S
H784 C768 0.931 . S
H785 C773 0.930 . S
H786 C774 0.956 . S
H787 C774 0.961 . S
H788 C774 0.961 . S
H789 C775 0.958 . S
H790 C775 0.961 . S
H791 C775 0.960 . S
C792 C793 1.391 . S
C792 C794 1.394 . S
C792 H808 0.931 . S
C793 C792 1.391 . S
C793 C797 1.376 . S
C794 C792 1.394 . S
C794 C795 1.369 . S
C794 C798 1.531 . S
C795 C794 1.369 . S
C795 C796 1.410 . S
C795 C803 1.503 . S
C796 C795 1.410 . S
C796 C797 1.392 . S
C796 C799 1.511 . S
C797 C793 1.376 . S
C797 C796 1.392 . S
C797 H809 0.929 . S
C798 C794 1.531 . S
C798 H810 0.960 . S
C798 H811 0.962 . S
C798 H812 0.960 . S
C799 C796 1.511 . S
C799 H813 0.961 . S
C799 H814 0.961 . S
C799 H815 0.961 . S
C800 C801 1.370 . S
C800 C802 1.363 . S
C800 H816 0.931 . S
C801 C800 1.370 . S
C801 C805 1.408 . S
C802 C800 1.363 . S
C802 C803 1.370 . S
C802 C806 1.524 . S
C803 C795 1.503 . S
C803 C802 1.370 . S
C803 C804 1.403 . S
C804 C803 1.403 . S
C804 C805 1.404 . S
C804 C807 1.539 . S
C805 C801 1.408 . S
C805 C804 1.404 . S
C805 H817 0.930 . S
C806 C802 1.524 . S
C806 H818 0.956 . S
C806 H819 0.961 . S
C806 H820 0.961 . S
C807 C804 1.539 . S
C807 H821 0.958 . S
C807 H822 0.961 . S
C807 H823 0.960 . S
H808 C792 0.931 . S
H809 C797 0.929 . S
H810 C798 0.960 . S
H811 C798 0.962 . S
H812 C798 0.960 . S
H813 C799 0.961 . S
H814 C799 0.961 . S
H815 C799 0.961 . S
H816 C800 0.931 . S
H817 C805 0.930 . S
H818 C806 0.956 . S
H819 C806 0.961 . S
H820 C806 0.961 . S
H821 C807 0.958 . S
H822 C807 0.961 . S
H823 C807 0.960 . S
C824 C825 1.391 . S
C824 C826 1.394 . S
C824 H840 0.931 . S
C825 C824 1.391 . S
C825 C829 1.376 . S
C826 C824 1.394 . S
C826 C827 1.369 . S
C826 C830 1.531 . S
C827 C826 1.369 . S
C827 C828 1.410 . S
C827 C835 1.503 . S
C828 C827 1.410 . S
C828 C829 1.392 . S
C828 C831 1.511 . S
C829 C825 1.376 . S
C829 C828 1.392 . S
C829 H841 0.929 . S
C830 C826 1.531 . S
C830 H842 0.960 . S
C830 H843 0.962 . S
C830 H844 0.960 . S
C831 C828 1.511 . S
C831 H845 0.961 . S
C831 H846 0.961 . S
C831 H847 0.961 . S
C832 C833 1.370 . S
C832 C834 1.363 . S
C832 H848 0.931 . S
C833 C832 1.370 . S
C833 C837 1.408 . S
C834 C832 1.363 . S
C834 C835 1.370 . S
C834 C838 1.524 . S
C835 C827 1.503 . S
C835 C834 1.370 . S
C835 C836 1.403 . S
C836 C835 1.403 . S
C836 C837 1.404 . S
C836 C839 1.539 . S
C837 C833 1.408 . S
C837 C836 1.404 . S
C837 H849 0.930 . S
C838 C834 1.524 . S
C838 H850 0.956 . S
C838 H851 0.961 . S
C838 H852 0.961 . S
C839 C836 1.539 . S
C839 H853 0.958 . S
C839 H854 0.961 . S
C839 H855 0.960 . S
H840 C824 0.931 . S
H841 C829 0.929 . S
H842 C830 0.960 . S
H843 C830 0.962 . S
H844 C830 0.960 . S
H845 C831 0.961 . S
H846 C831 0.961 . S
H847 C831 0.961 . S
H848 C832 0.931 . S
H849 C837 0.930 . S
H850 C838 0.956 . S
H851 C838 0.961 . S
H852 C838 0.961 . S
H853 C839 0.958 . S
H854 C839 0.961 . S
H855 C839 0.960 . S
C856 C857 1.391 . S
C856 C858 1.394 . S
C856 H872 0.931 . S
C857 C856 1.391 . S
C857 C861 1.376 . S
C858 C856 1.394 . S
C858 C859 1.369 . S
C858 C862 1.531 . S
C859 C858 1.369 . S
C859 C860 1.410 . S
C859 C867 1.503 . S
C860 C859 1.410 . S
C860 C861 1.392 . S
C860 C863 1.511 . S
C861 C857 1.376 . S
C861 C860 1.392 . S
C861 H873 0.929 . S
C862 C858 1.531 . S
C862 H874 0.960 . S
C862 H875 0.962 . S
C862 H876 0.960 . S
C863 C860 1.511 . S
C863 H877 0.961 . S
C863 H878 0.961 . S
C863 H879 0.961 . S
C864 C865 1.370 . S
C864 C866 1.363 . S
C864 H880 0.931 . S
C865 C864 1.370 . S
C865 C869 1.408 . S
C866 C864 1.363 . S
C866 C867 1.370 . S
C866 C870 1.524 . S
C867 C859 1.503 . S
C867 C866 1.370 . S
C867 C868 1.403 . S
C868 C867 1.403 . S
C868 C869 1.404 . S
C868 C871 1.539 . S
C869 C865 1.408 . S
C869 C868 1.404 . S
C869 H881 0.930 . S
C870 C866 1.524 . S
C870 H882 0.956 . S
C870 H883 0.961 . S
C870 H884 0.961 . S
C871 C868 1.539 . S
C871 H885 0.958 . S
C871 H886 0.961 . S
C871 H887 0.960 . S
H872 C856 0.931 . S
H873 C861 0.929 . S
H874 C862 0.960 . S
H875 C862 0.962 . S
H876 C862 0.960 . S
H877 C863 0.961 . S
H878 C863 0.961 . S
H879 C863 0.961 . S
H880 C864 0.931 . S
H881 C869 0.930 . S
H882 C870 0.956 . S
H883 C870 0.961 . S
H884 C870 0.961 . S
H885 C871 0.958 . S
H886 C871 0.961 . S
H887 C871 0.960 . S
C888 C889 1.391 . S
C888 C890 1.394 . S
C888 H904 0.931 . S
C889 C888 1.391 . S
C889 C893 1.376 . S
C890 C888 1.394 . S
C890 C891 1.369 . S
C890 C894 1.531 . S
C891 C890 1.369 . S
C891 C892 1.410 . S
C891 C899 1.503 . S
C892 C891 1.410 . S
C892 C893 1.392 . S
C892 C895 1.511 . S
C893 C889 1.376 . S
C893 C892 1.392 . S
C893 H905 0.929 . S
C894 C890 1.531 . S
C894 H906 0.960 . S
C894 H907 0.962 . S
C894 H908 0.960 . S
C895 C892 1.511 . S
C895 H909 0.961 . S
C895 H910 0.961 . S
C895 H911 0.961 . S
C896 C897 1.370 . S
C896 C898 1.363 . S
C896 H912 0.931 . S
C897 C896 1.370 . S
C897 C901 1.408 . S
C898 C896 1.363 . S
C898 C899 1.370 . S
C898 C902 1.524 . S
C899 C891 1.503 . S
C899 C898 1.370 . S
C899 C900 1.403 . S
C900 C899 1.403 . S
C900 C901 1.404 . S
C900 C903 1.539 . S
C901 C897 1.408 . S
C901 C900 1.404 . S
C901 H913 0.930 . S
C902 C898 1.524 . S
C902 H914 0.956 . S
C902 H915 0.961 . S
C902 H916 0.961 . S
C903 C900 1.539 . S
C903 H917 0.958 . S
C903 H918 0.961 . S
C903 H919 0.960 . S
H904 C888 0.931 . S
H905 C893 0.929 . S
H906 C894 0.960 . S
H907 C894 0.962 . S
H908 C894 0.960 . S
H909 C895 0.961 . S
H910 C895 0.961 . S
H911 C895 0.961 . S
H912 C896 0.931 . S
H913 C901 0.930 . S
H914 C902 0.956 . S
H915 C902 0.961 . S
H916 C902 0.961 . S
H917 C903 0.958 . S
H918 C903 0.961 . S
H919 C903 0.960 . S
C920 C921 1.391 . S
C920 C922 1.394 . S
C920 H936 0.931 . S
C921 C920 1.391 . S
C921 C925 1.376 . S
C922 C920 1.394 . S
C922 C923 1.369 . S
C922 C926 1.531 . S
C923 C922 1.369 . S
C923 C924 1.410 . S
C923 C931 1.503 . S
C924 C923 1.410 . S
C924 C925 1.392 . S
C924 C927 1.511 . S
C925 C921 1.376 . S
C925 C924 1.392 . S
C925 H937 0.929 . S
C926 C922 1.531 . S
C926 H938 0.960 . S
C926 H939 0.962 . S
C926 H940 0.960 . S
C927 C924 1.511 . S
C927 H941 0.961 . S
C927 H942 0.961 . S
C927 H943 0.961 . S
C928 C929 1.370 . S
C928 C930 1.363 . S
C928 H944 0.931 . S
C929 C928 1.370 . S
C929 C933 1.408 . S
C930 C928 1.363 . S
C930 C931 1.370 . S
C930 C934 1.524 . S
C931 C923 1.503 . S
C931 C930 1.370 . S
C931 C932 1.403 . S
C932 C931 1.403 . S
C932 C933 1.404 . S
C932 C935 1.539 . S
C933 C929 1.408 . S
C933 C932 1.404 . S
C933 H945 0.930 . S
C934 C930 1.524 . S
C934 H946 0.956 . S
C934 H947 0.961 . S
C934 H948 0.961 . S
C935 C932 1.539 . S
C935 H949 0.958 . S
C935 H950 0.961 . S
C935 H951 0.960 . S
H936 C920 0.931 . S
H937 C925 0.929 . S
H938 C926 0.960 . S
H939 C926 0.962 . S
H940 C926 0.960 . S
H941 C927 0.961 . S
H942 C927 0.961 . S
H943 C927 0.961 . S
H944 C928 0.931 . S
H945 C933 0.930 . S
H946 C934 0.956 . S
H947 C934 0.961 . S
H948 C934 0.961 . S
H949 C935 0.958 . S
H950 C935 0.961 . S
H951 C935 0.960 . S
C952 C953 1.391 . S
C952 C954 1.394 . S
C952 H968 0.931 . S
C953 C952 1.391 . S
C953 C957 1.376 . S
C954 C952 1.394 . S
C954 C955 1.369 . S
C954 C958 1.531 . S
C955 C954 1.369 . S
C955 C956 1.410 . S
C955 C963 1.503 . S
C956 C955 1.410 . S
C956 C957 1.392 . S
C956 C959 1.511 . S
C957 C953 1.376 . S
C957 C956 1.392 . S
C957 H969 0.929 . S
C958 C954 1.531 . S
C958 H970 0.960 . S
C958 H971 0.962 . S
C958 H972 0.960 . S
C959 C956 1.511 . S
C959 H973 0.961 . S
C959 H974 0.961 . S
C959 H975 0.961 . S
C960 C961 1.370 . S
C960 C962 1.363 . S
C960 H976 0.931 . S
C961 C960 1.370 . S
C961 C965 1.408 . S
C962 C960 1.363 . S
C962 C963 1.370 . S
C962 C966 1.524 . S
C963 C955 1.503 . S
C963 C962 1.370 . S
C963 C964 1.403 . S
C964 C963 1.403 . S
C964 C965 1.404 . S
C964 C967 1.539 . S
C965 C961 1.408 . S
C965 C964 1.404 . S
C965 H977 0.930 . S
C966 C962 1.524 . S
C966 H978 0.956 . S
C966 H979 0.961 . S
C966 H980 0.961 . S
C967 C964 1.539 . S
C967 H981 0.958 . S
C967 H982 0.961 . S
C967 H983 0.960 . S
H968 C952 0.931 . S
H969 C957 0.929 . S
H970 C958 0.960 . S
H971 C958 0.962 . S
H972 C958 0.960 . S
H973 C959 0.961 . S
H974 C959 0.961 . S
H975 C959 0.961 . S
H976 C960 0.931 . S
H977 C965 0.930 . S
H978 C966 0.956 . S
H979 C966 0.961 . S
H980 C966 0.961 . S
H981 C967 0.958 . S
H982 C967 0.961 . S
H983 C967 0.960 . S
C984 C985 1.391 . S
C984 C986 1.394 . S
C984 H1000 0.931 . S
C985 C984 1.391 . S
C985 C989 1.376 . S
C986 C984 1.394 . S
C986 C987 1.369 . S
C986 C990 1.531 . S
C987 C986 1.369 . S
C987 C988 1.410 . S
C987 C995 1.503 . S
C988 C987 1.410 . S
C988 C989 1.392 . S
C988 C991 1.511 . S
C989 C985 1.376 . S
C989 C988 1.392 . S
C989 H1001 0.929 . S
C990 C986 1.531 . S
C990 H1002 0.960 . S
C990 H1003 0.962 . S
C990 H1004 0.960 . S
C991 C988 1.511 . S
C991 H1005 0.961 . S
C991 H1006 0.961 . S
C991 H1007 0.961 . S
C992 C993 1.370 . S
C992 C994 1.363 . S
C992 H1008 0.931 . S
C993 C992 1.370 . S
C993 C997 1.408 . S
C994 C992 1.363 . S
C994 C995 1.370 . S
C994 C998 1.524 . S
C995 C987 1.503 . S
C995 C994 1.370 . S
C995 C996 1.403 . S
C996 C995 1.403 . S
C996 C997 1.404 . S
C996 C999 1.539 . S
C997 C993 1.408 . S
C997 C996 1.404 . S
C997 H1009 0.930 . S
C998 C994 1.524 . S
C998 H1010 0.956 . S
C998 H1011 0.961 . S
C998 H1012 0.961 . S
C999 C996 1.539 . S
C999 H1013 0.958 . S
C999 H1014 0.961 . S
C999 H1015 0.960 . S
H1000 C984 0.931 . S
H1001 C989 0.929 . S
H1002 C990 0.960 . S
H1003 C990 0.962 . S
H1004 C990 0.960 . S
H1005 C991 0.961 . S
H1006 C991 0.961 . S
H1007 C991 0.961 . S
H1008 C992 0.931 . S
H1009 C997 0.930 . S
H1010 C998 0.956 . S
H1011 C998 0.961 . S
H1012 C998 0.961 . S
H1013 C999 0.958 . S
H1014 C999 0.961 . S
H1015 C999 0.960 . S
C1016 C1017 1.391 . S
C1016 C1018 1.394 . S
C1016 H1032 0.931 . S
C1017 C1016 1.391 . S
C1017 C1021 1.376 . S
C1018 C1016 1.394 . S
C1018 C1019 1.369 . S
C1018 C1022 1.531 . S
C1019 C1018 1.369 . S
C1019 C1020 1.410 . S
C1019 C1027 1.503 . S
C1020 C1019 1.410 . S
C1020 C1021 1.392 . S
C1020 C1023 1.511 . S
C1021 C1017 1.376 . S
C1021 C1020 1.392 . S
C1021 H1033 0.929 . S
C1022 C1018 1.531 . S
C1022 H1034 0.960 . S
C1022 H1035 0.962 . S
C1022 H1036 0.960 . S
C1023 C1020 1.511 . S
C1023 H1037 0.961 . S
C1023 H1038 0.961 . S
C1023 H1039 0.961 . S
C1024 C1025 1.370 . S
C1024 C1026 1.363 . S
C1024 H1040 0.931 . S
C1025 C1024 1.370 . S
C1025 C1029 1.408 . S
C1026 C1024 1.363 . S
C1026 C1027 1.370 . S
C1026 C1030 1.524 . S
C1027 C1019 1.503 . S
C1027 C1026 1.370 . S
C1027 C1028 1.403 . S
C1028 C1027 1.403 . S
C1028 C1029 1.404 . S
C1028 C1031 1.539 . S
C1029 C1025 1.408 . S
C1029 C1028 1.404 . S
C1029 H1041 0.930 . S
C1030 C1026 1.524 . S
C1030 H1042 0.956 . S
C1030 H1043 0.961 . S
C1030 H1044 0.961 . S
C1031 C1028 1.539 . S
C1031 H1045 0.958 . S
C1031 H1046 0.961 . S
C1031 H1047 0.960 . S
H1032 C1016 0.931 . S
H1033 C1021 0.929 . S
H1034 C1022 0.960 . S
H1035 C1022 0.962 . S
H1036 C1022 0.960 . S
H1037 C1023 0.961 . S
H1038 C1023 0.961 . S
H1039 C1023 0.961 . S
H1040 C1024 0.931 . S
H1041 C1029 0.930 . S
H1042 C1030 0.956 . S
H1043 C1030 0.961 . S
H1044 C1030 0.961 . S
H1045 C1031 0.958 . S
H1046 C1031 0.961 . S
H1047 C1031 0.960 . S
C1048 C1049 1.391 . S
C1048 C1050 1.394 . S
C1048 H1064 0.931 . S
C1049 C1048 1.391 . S
C1049 C1053 1.376 . S
C1050 C1048 1.394 . S
C1050 C1051 1.369 . S
C1050 C1054 1.531 . S
C1051 C1050 1.369 . S
C1051 C1052 1.410 . S
C1051 C1059 1.503 . S
C1052 C1051 1.410 . S
C1052 C1053 1.392 . S
C1052 C1055 1.511 . S
C1053 C1049 1.376 . S
C1053 C1052 1.392 . S
C1053 H1065 0.929 . S
C1054 C1050 1.531 . S
C1054 H1066 0.960 . S
C1054 H1067 0.962 . S
C1054 H1068 0.960 . S
C1055 C1052 1.511 . S
C1055 H1069 0.961 . S
C1055 H1070 0.961 . S
C1055 H1071 0.961 . S
C1056 C1057 1.370 . S
C1056 C1058 1.363 . S
C1056 H1072 0.931 . S
C1057 C1056 1.370 . S
C1057 C1061 1.408 . S
C1058 C1056 1.363 . S
C1058 C1059 1.370 . S
C1058 C1062 1.524 . S
C1059 C1051 1.503 . S
C1059 C1058 1.370 . S
C1059 C1060 1.403 . S
C1060 C1059 1.403 . S
C1060 C1061 1.404 . S
C1060 C1063 1.539 . S
C1061 C1057 1.408 . S
C1061 C1060 1.404 . S
C1061 H1073 0.930 . S
C1062 C1058 1.524 . S
C1062 H1074 0.956 . S
C1062 H1075 0.961 . S
C1062 H1076 0.961 . S
C1063 C1060 1.539 . S
C1063 H1077 0.958 . S
C1063 H1078 0.961 . S
C1063 H1079 0.960 . S
H1064 C1048 0.931 . S
H1065 C1053 0.929 . S
H1066 C1054 0.960 . S
H1067 C1054 0.962 . S
H1068 C1054 0.960 . S
H1069 C1055 0.961 . S
H1070 C1055 0.961 . S
H1071 C1055 0.961 . S
H1072 C1056 0.931 . S
H1073 C1061 0.930 . S
H1074 C1062 0.956 . S
H1075 C1062 0.961 . S
H1076 C1062 0.961 . S
H1077 C1063 0.958 . S
H1078 C1063 0.961 . S
H1079 C1063 0.960 . S
C1080 C1081 1.391 . S
C1080 C1082 1.394 . S
C1080 H1096 0.931 . S
C1081 C1080 1.391 . S
C1081 C1085 1.376 1_556 S
C1082 C1080 1.394 . S
C1082 C1083 1.369 . S
C1082 C1086 1.531 . S
C1083 C1082 1.369 . S
C1083 C1084 1.410 . S
C1083 C1091 1.503 . S
C1084 C1083 1.410 . S
C1084 C1085 1.392 1_556 S
C1084 C1087 1.511 1_556 S
C1085 C1081 1.376 1_554 S
C1085 C1084 1.392 1_554 S
C1085 H1097 0.929 . S
C1086 C1082 1.531 . S
C1086 H1098 0.960 . S
C1086 H1099 0.962 . S
C1086 H1100 0.960 . S
C1087 C1084 1.511 1_554 S
C1087 H1101 0.961 . S
C1087 H1102 0.961 . S
C1087 H1103 0.961 . S
C1088 C1089 1.370 . S
C1088 C1090 1.363 . S
C1088 H1104 0.931 . S
C1089 C1088 1.370 . S
C1089 C1093 1.408 . S
C1090 C1088 1.363 . S
C1090 C1091 1.370 . S
C1090 C1094 1.524 . S
C1091 C1083 1.503 . S
C1091 C1090 1.370 . S
C1091 C1092 1.403 . S
C1092 C1091 1.403 . S
C1092 C1093 1.404 . S
C1092 C1095 1.539 . S
C1093 C1089 1.408 . S
C1093 C1092 1.404 . S
C1093 H1105 0.930 . S
C1094 C1090 1.524 . S
C1094 H1106 0.956 . S
C1094 H1107 0.961 . S
C1094 H1108 0.961 . S
C1095 C1092 1.539 . S
C1095 H1109 0.958 . S
C1095 H1110 0.961 . S
C1095 H1111 0.960 . S
H1096 C1080 0.931 . S
H1097 C1085 0.929 . S
H1098 C1086 0.960 . S
H1099 C1086 0.962 . S
H1100 C1086 0.960 . S
H1101 C1087 0.961 . S
H1102 C1087 0.961 . S
H1103 C1087 0.961 . S
H1104 C1088 0.931 . S
H1105 C1093 0.930 . S
H1106 C1094 0.956 . S
H1107 C1094 0.961 . S
H1108 C1094 0.961 . S
H1109 C1095 0.958 . S
H1110 C1095 0.961 . S
H1111 C1095 0.960 . S
C345 C8 1.498 . S
C353 C105 1.506 1_565 S
C377 C31 1.353 . S
C385 C137 1.344 . S
C409 C53 1.628 . S
C417 C169 1.523 . S
C449 C213 1.430 . S
C441 C74 1.416 . S
C481 C233 1.459 . S
C473 C26 1.445 . S
C505 C48 1.395 . S
C513 C277 1.436 . S
C537 C71 1.626 . S
C545 C297 1.485 . S
C569 C5 1.398 . S
C577 C341 1.252 . S
C601 C50 1.489 . S
C609 C329 1.394 . S
C641 C245 1.389 . S
C633 C70 1.399 . S
C673 C265 1.621 . S
C665 C4 1.655 1_556 S
C697 C28 1.382 . S
C705 C309 1.348 . S
C737 C149 1.528 . S
C729 C73 1.535 . S
C761 C7 1.386 . S
C769 C181 1.311 . S
C801 C201 1.596 . S
C793 C30 1.596 . S
C833 C117 1.388 . S
C825 C52 1.401 . S
C865 C303 1.379 . S
C857 C9 1.481 . S
C897 C335 1.275 . S
C889 C29 1.356 . S
C921 C51 1.376 . S
C929 C239 1.367 . S
C961 C271 1.513 . S
C953 C75 1.518 . S
C993 C175 1.351 . S
C985 C27 1.506 . S
C1017 C49 1.495 . S
C1025 C207 1.490 . S
C1057 C111 1.389 . S
C1049 C72 1.388 . S
C1089 C143 1.368 . S
C1081 C6 1.357 1_556 S
