# Generated by pormake.
# Topology nom, (4,4)-cn, num edge types: 1
# Building blocks:
#     Node 0, Type 0, BuildingBlock: NAWXER_clean_linker_0, # of connection points: 4
#     Node 1, Type 0, BuildingBlock: NAWXER_clean_linker_0, # of connection points: 4
#     Node 2, Type 0, BuildingBlock: NAWXER_clean_linker_0, # of connection points: 4
#     Node 3, Type 0, BuildingBlock: NAWXER_clean_linker_0, # of connection points: 4
#     Node 4, Type 0, BuildingBlock: NAWXER_clean_linker_0, # of connection points: 4
#     Node 5, Type 0, BuildingBlock: NAWXER_clean_linker_0, # of connection points: 4
#     Node 6, Type 1, BuildingBlock: KUFVIS_clean_sbu_0, # of connection points: 4
#     Node 7, Type 1, BuildingBlock: KUFVIS_clean_sbu_0, # of connection points: 4
#     Node 8, Type 1, BuildingBlock: KUFVIS_clean_sbu_0, # of connection points: 4
#     Node 9, Type 1, BuildingBlock: KUFVIS_clean_sbu_0, # of connection points: 4
#     Node 10, Type 1, BuildingBlock: KUFVIS_clean_sbu_0, # of connection points: 4
#     Node 11, Type 1, BuildingBlock: KUFVIS_clean_sbu_0, # of connection points: 4
#     Edge 12, Type (0, 1), BuildingBlock: EZIPEK_clean_linker_0, # of connection points: 2
#     Edge 13, Type (0, 1), BuildingBlock: EZIPEK_clean_linker_0, # of connection points: 2
#     Edge 14, Type (0, 1), BuildingBlock: EZIPEK_clean_linker_0, # of connection points: 2
#     Edge 15, Type (0, 1), BuildingBlock: EZIPEK_clean_linker_0, # of connection points: 2
#     Edge 16, Type (0, 1), BuildingBlock: EZIPEK_clean_linker_0, # of connection points: 2
#     Edge 17, Type (0, 1), BuildingBlock: EZIPEK_clean_linker_0, # of connection points: 2
#     Edge 18, Type (0, 1), BuildingBlock: EZIPEK_clean_linker_0, # of connection points: 2
#     Edge 19, Type (0, 1), BuildingBlock: EZIPEK_clean_linker_0, # of connection points: 2
#     Edge 20, Type (0, 1), BuildingBlock: EZIPEK_clean_linker_0, # of connection points: 2
#     Edge 21, Type (0, 1), BuildingBlock: EZIPEK_clean_linker_0, # of connection points: 2
#     Edge 22, Type (0, 1), BuildingBlock: EZIPEK_clean_linker_0, # of connection points: 2
#     Edge 23, Type (0, 1), BuildingBlock: EZIPEK_clean_linker_0, # of connection points: 2
#     Edge 24, Type (0, 1), BuildingBlock: EZIPEK_clean_linker_0, # of connection points: 2
#     Edge 25, Type (0, 1), BuildingBlock: EZIPEK_clean_linker_0, # of connection points: 2
#     Edge 26, Type (0, 1), BuildingBlock: EZIPEK_clean_linker_0, # of connection points: 2
#     Edge 27, Type (0, 1), BuildingBlock: EZIPEK_clean_linker_0, # of connection points: 2
#     Edge 28, Type (0, 1), BuildingBlock: EZIPEK_clean_linker_0, # of connection points: 2
#     Edge 29, Type (0, 1), BuildingBlock: EZIPEK_clean_linker_0, # of connection points: 2
#     Edge 30, Type (0, 1), BuildingBlock: EZIPEK_clean_linker_0, # of connection points: 2
#     Edge 31, Type (0, 1), BuildingBlock: EZIPEK_clean_linker_0, # of connection points: 2
#     Edge 32, Type (0, 1), BuildingBlock: EZIPEK_clean_linker_0, # of connection points: 2
#     Edge 33, Type (0, 1), BuildingBlock: EZIPEK_clean_linker_0, # of connection points: 2
#     Edge 34, Type (0, 1), BuildingBlock: EZIPEK_clean_linker_0, # of connection points: 2
#     Edge 35, Type (0, 1), BuildingBlock: EZIPEK_clean_linker_0, # of connection points: 2
# Relax obj value: 0.005
# Max RMSD: 0.111
# Mean RMSD: 0.070
data_MOF--net-nom--node1-KUFVIS_clean_sbu_0--node2-NAWXER_clean_linker_0--edge1-EZIPEK_clean_linker_0
_symmetry_space_group_name_H-M    P1
_symmetry_Int_Tables_number       1
_symmetry_cell_setting            triclinic
loop_
_symmetry_equiv_pos_as_xyz
'x, y, z'
_cell_length_a     40.190155
_cell_length_b     40.667897
_cell_length_c     44.600982
_cell_angle_alpha  90.518866
_cell_angle_beta   90.797287
_cell_angle_gamma 120.05427
loop_
_atom_site_label
_atom_site_type_symbol
_atom_site_fract_x
_atom_site_fract_y
_atom_site_fract_z
_atom_type_partial_charge
C0 C 0.87034 0.501 0.34385 0.0
C1 C 0.85225 0.46762 0.36051 0.0
C2 C 0.90798 0.51523 0.33432 0.0
C3 C 0.92837 0.49653 0.34146 0.0
C4 C 0.87227 0.44833 0.36708 0.0
C5 C 0.91031 0.46303 0.35801 0.0
C6 C 0.96925 0.51373 0.33334 0.0
C7 C 0.91323 0.45821 0.24348 0.0
C8 C 0.90765 0.48354 0.22583 0.0
C9 C 0.93609 0.47114 0.26956 0.0
C10 C 0.95434 0.50969 0.27795 0.0
C11 C 0.92499 0.52194 0.23486 0.0
C12 C 0.94878 0.53506 0.26048 0.0
C13 C 0.98136 0.52367 0.30373 0.0
C14 C 0.15372 0.59319 0.31036 0.0
C15 C 0.1635 0.62483 0.29239 0.0
C16 C 0.11586 0.57062 0.31994 0.0
C17 C 0.08748 0.57966 0.31179 0.0
C18 C 0.13511 0.6335 0.28395 0.0
C19 C 0.09741 0.61098 0.2934 0.0
C20 C 0.04685 0.55586 0.32054 0.0
C21 C 0.11361 0.6028 0.40803 0.0
C22 C 0.10793 0.57494 0.4289 0.0
C23 C 0.0904 0.59307 0.38209 0.0
C24 C 0.06155 0.55516 0.37646 0.0
C25 C 0.07909 0.53718 0.42343 0.0
C26 C 0.056 0.52741 0.39747 0.0
C27 C 0.03483 0.54448 0.35028 0.0
H28 H 0.85547 0.51635 0.33861 0.0
H29 H 0.92159 0.54154 0.32209 0.0
H30 H 0.85874 0.42246 0.37986 0.0
H31 H 0.92566 0.44835 0.36393 0.0
H32 H 0.89995 0.4285 0.23702 0.0
H33 H 0.9404 0.45128 0.28275 0.0
H34 H 0.92086 0.54187 0.22162 0.0
H35 H 0.96288 0.56495 0.26665 0.0
H36 H 0.17542 0.58624 0.31714 0.0
H37 H 0.10873 0.54608 0.33348 0.0
H38 H 0.14226 0.65793 0.27023 0.0
H39 H 0.07599 0.61832 0.28658 0.0
H40 H 0.1356 0.63216 0.41209 0.0
H41 H 0.09445 0.61529 0.36685 0.0
H42 H 0.07402 0.51547 0.4395 0.0
H43 H 0.03357 0.49812 0.39388 0.0
N44 N 0.9964 0.52403 0.3555 0.0
N45 N 0.01952 0.54464 0.29843 0.0
C46 C 0.39403 0.8727 0.49951 0.0
C47 C 0.41216 0.85893 0.51913 0.0
C48 C 0.41062 0.91124 0.49324 0.0
C49 C 0.44558 0.93788 0.5069 0.0
C50 C 0.44493 0.8868 0.53541 0.0
C51 C 0.46177 0.92545 0.52888 0.0
C52 C 0.46367 0.97891 0.5001 0.0
C53 C 0.46839 0.92644 0.41156 0.0
C54 C 0.43994 0.9233 0.39117 0.0
C55 C 0.47655 0.94834 0.4378 0.0
C56 C 0.45678 0.96787 0.44378 0.0
C57 C 0.41981 0.94247 0.39744 0.0
C58 C 0.42867 0.96515 0.42332 0.0
C59 C 0.4667 0.99252 0.47068 0.0
C60 C 0.56815 0.16119 0.48454 0.0
C61 C 0.54816 0.17326 0.4658 0.0
C62 C 0.55103 0.12308 0.49274 0.0
C63 C 0.51365 0.09671 0.48239 0.0
C64 C 0.51109 0.14691 0.45519 0.0
C65 C 0.49408 0.10886 0.46324 0.0
C66 C 0.49546 0.05602 0.48983 0.0
C67 C 0.50912 0.11954 0.5764 0.0
C68 C 0.53037 0.11355 0.59871 0.0
C69 C 0.49652 0.09645 0.55055 0.0
C70 C 0.50572 0.06759 0.54643 0.0
C71 C 0.53835 0.08397 0.59513 0.0
C72 C 0.5262 0.06121 0.5692 0.0
C73 C 0.49275 0.04257 0.51935 0.0
H74 H 0.36623 0.85401 0.48918 0.0
H75 H 0.39551 0.92021 0.47812 0.0
H76 H 0.45776 0.88006 0.55387 0.0
H77 H 0.48752 0.94572 0.5412 0.0
H78 H 0.48397 0.91162 0.4073 0.0
H79 H 0.49862 0.95046 0.45325 0.0
H80 H 0.39761 0.9402 0.38207 0.0
H81 H 0.41331 0.98024 0.42758 0.0
H82 H 0.59684 0.18128 0.49286 0.0
H83 H 0.56706 0.11416 0.50692 0.0
H84 H 0.49535 0.15587 0.44071 0.0
H85 H 0.46544 0.08892 0.45473 0.0
H86 H 0.50232 0.14202 0.57905 0.0
H87 H 0.47943 0.10104 0.53394 0.0
H88 H 0.55407 0.07855 0.61234 0.0
H89 H 0.5331 0.03877 0.56683 0.0
N90 N 0.47708 0.00454 0.52327 0.0
N91 N 0.48215 0.0304 0.46669 0.0
C92 C 0.57326 0.48706 0.5806 0.0
C93 C 0.54776 0.45972 0.5596 0.0
C94 C 0.55932 0.49492 0.60666 0.0
C95 C 0.51964 0.47631 0.61166 0.0
C96 C 0.5081 0.44066 0.56499 0.0
C97 C 0.49412 0.44946 0.59052 0.0
C98 C 0.50459 0.48669 0.63785 0.0
C99 C 0.53505 0.40097 0.67284 0.0
C100 C 0.55849 0.41178 0.69884 0.0
C101 C 0.52091 0.42388 0.66197 0.0
C102 C 0.53075 0.45857 0.67647 0.0
C103 C 0.56853 0.44638 0.7133 0.0
C104 C 0.55489 0.46959 0.70217 0.0
C105 C 0.51218 0.48095 0.66775 0.0
C106 C 0.42208 0.53698 0.73981 0.0
C107 C 0.44646 0.5491 0.76537 0.0
C108 C 0.43194 0.52423 0.71406 0.0
C109 C 0.46792 0.52637 0.7123 0.0
C110 C 0.48143 0.54928 0.76426 0.0
C111 C 0.49233 0.53876 0.7379 0.0
C112 C 0.47983 0.51328 0.68528 0.0
C113 C 0.43422 0.58739 0.64964 0.0
C114 C 0.40128 0.5664 0.63132 0.0
C115 C 0.45799 0.57241 0.65687 0.0
C116 C 0.44854 0.53595 0.64639 0.0
C117 C 0.3928 0.53076 0.61992 0.0
C118 C 0.41631 0.51573 0.62728 0.0
C119 C 0.47137 0.51801 0.65517 0.0
H120 H 0.60392 0.5021 0.57687 0.0
H121 H 0.57938 0.51612 0.62257 0.0
H122 H 0.48797 0.41942 0.54913 0.0
H123 H 0.46339 0.43508 0.59394 0.0
H124 H 0.52663 0.37413 0.66158 0.0
H125 H 0.50087 0.41339 0.64312 0.0
H126 H 0.58638 0.45509 0.7335 0.0
H127 H 0.56251 0.49583 0.71411 0.0
H128 H 0.39465 0.53601 0.7402 0.0
H129 H 0.41095 0.51219 0.6959 0.0
H130 H 0.50044 0.55781 0.7838 0.0
H131 H 0.51988 0.53999 0.73767 0.0
H132 H 0.44121 0.61504 0.65852 0.0
H133 H 0.48317 0.58883 0.67116 0.0
H134 H 0.36755 0.51428 0.6057 0.0
H135 H 0.40868 0.48776 0.61869 0.0
N136 N 0.48412 0.50448 0.63276 0.0
N137 N 0.4998 0.49485 0.6901 0.0
C138 C 0.86954 0.40505 0.8213 0.0
C139 C 0.85483 0.40758 0.79325 0.0
C140 C 0.90741 0.43107 0.82987 0.0
C141 C 0.93054 0.46244 0.81188 0.0
C142 C 0.8783 0.43778 0.77454 0.0
C143 C 0.91545 0.46527 0.78399 0.0
C144 C 0.97146 0.49009 0.82027 0.0
C145 C 0.90553 0.48536 0.90271 0.0
C146 C 0.9135 0.46891 0.92729 0.0
C147 C 0.92906 0.49605 0.87764 0.0
C148 C 0.96058 0.49002 0.87677 0.0
C149 C 0.94542 0.46371 0.92673 0.0
C150 C 0.96887 0.47434 0.90174 0.0
C151 C 0.98542 0.50021 0.85026 0.0
C152 C 0.15868 0.59714 0.8375 0.0
C153 C 0.16845 0.57787 0.85865 0.0
C154 C 0.12005 0.58307 0.82919 0.0
C155 C 0.09105 0.5493 0.84165 0.0
C156 C 0.13945 0.54502 0.87177 0.0
C157 C 0.10113 0.53094 0.86342 0.0
C158 C 0.04995 0.53234 0.833 0.0
C159 C 0.10803 0.53426 0.74493 0.0
C160 C 0.10833 0.56196 0.72612 0.0
C161 C 0.08501 0.52264 0.77033 0.0
C162 C 0.06166 0.53823 0.77702 0.0
C163 C 0.08551 0.57804 0.73327 0.0
C164 C 0.06198 0.56588 0.75828 0.0
C165 C 0.03609 0.52528 0.80306 0.0
H166 H 0.85226 0.38176 0.836 0.0
H167 H 0.91851 0.42564 0.85027 0.0
H168 H 0.86787 0.44007 0.75257 0.0
H169 H 0.93264 0.48841 0.76916 0.0
H170 H 0.8812 0.48993 0.903 0.0
H171 H 0.92257 0.50882 0.85891 0.0
H172 H 0.9521 0.45135 0.94566 0.0
H173 H 0.99317 0.46969 0.90168 0.0
H174 H 0.18088 0.62255 0.82717 0.0
H175 H 0.11297 0.59848 0.81308 0.0
H176 H 0.14661 0.52978 0.88804 0.0
H177 H 0.07936 0.50503 0.87352 0.0
H178 H 0.1253 0.52142 0.73975 0.0
H179 H 0.08498 0.50112 0.78449 0.0
H180 H 0.08531 0.59941 0.71906 0.0
H181 H 0.04412 0.57818 0.7631 0.0
N182 N 0.99748 0.50408 0.79786 0.0
N183 N 0.02403 0.51997 0.85532 0.0
C184 C 0.49356 0.88794 0.97561 0.0
C185 C 0.45659 0.86673 0.96253 0.0
C186 C 0.50779 0.92567 0.98466 0.0
C187 C 0.48567 0.94314 0.98017 0.0
C188 C 0.43421 0.88413 0.95843 0.0
C189 C 0.449 0.92236 0.96665 0.0
C190 C 0.50217 0.98372 0.98808 0.0
C191 C 0.44965 0.92103 0.07355 0.0
C192 C 0.47406 0.93185 0.09941 0.0
C193 C 0.46142 0.94187 0.04709 0.0
C194 C 0.49891 0.9726 0.04462 0.0
C195 C 0.51291 0.9602 0.09512 0.0
C196 C 0.52474 0.98086 0.06869 0.0
C197 C 0.51116 0.99752 0.01798 0.0
C198 C 0.58926 0.1689 1.00194 0.0
C199 C 0.61929 0.17944 0.02304 0.0
C200 C 0.56406 0.13046 0.99501 0.0
C201 C 0.56936 0.10214 0.00841 0.0
C202 C 0.62352 0.1512 0.03741 0.0
C203 C 0.59879 0.11292 0.03017 0.0
C204 C 0.54489 0.06126 1.0002 0.0
C205 C 0.6027 0.12034 0.91512 0.0
C206 C 0.5771 0.11594 0.89165 0.0
C207 C 0.58927 0.09823 0.94076 0.0
C208 C 0.54985 0.07195 0.94364 0.0
C209 C 0.53785 0.08948 0.89426 0.0
C210 C 0.52435 0.06759 0.92003 0.0
C211 C 0.53535 0.04733 0.97024 0.0
H212 H 0.51133 0.87513 0.97895 0.0
H213 H 0.53637 0.94148 0.99471 0.0
H214 H 0.40556 0.86824 0.94855 0.0
H215 H 0.43171 0.93558 0.96282 0.0
H216 H 0.42146 0.89627 0.07268 0.0
H217 H 0.44072 0.93418 0.02882 0.0
H218 H 0.53503 0.96674 0.11195 0.0
H219 H 0.5544 1.00337 0.06706 0.0
H220 H 0.58551 0.19041 0.99079 0.0
H221 H 0.54082 0.12295 0.97893 0.0
H222 H 0.64655 0.15889 0.05377 0.0
H223 H 0.60332 0.09173 0.04107 0.0
H224 H 0.63318 0.14021 0.91324 0.0
H225 H 0.60978 0.10129 0.95812 0.0
H226 H 0.5178 0.08543 0.87617 0.0
H227 H 0.49395 0.04714 0.92152 0.0
N228 N 0.51434 0.00907 0.96543 0.0
N229 N 0.53239 0.03575 0.02276 0.0
C230 C 0.48275 0.63822 0.16447 0.0
C231 C 0.4646 0.6341 0.19195 0.0
C232 C 0.49687 0.61429 0.15655 0.0
C233 C 0.49063 0.58368 0.17479 0.0
C234 C 0.45887 0.60413 0.21058 0.0
C235 C 0.47125 0.57891 0.20189 0.0
C236 C 0.50696 0.55869 0.16766 0.0
C237 C 0.44562 0.55249 0.07838 0.0
C238 C 0.47271 0.57896 0.05874 0.0
C239 C 0.4577 0.54246 0.10455 0.0
C240 C 0.49702 0.55799 0.11098 0.0
C241 C 0.51208 0.59469 0.06551 0.0
C242 C 0.52411 0.58349 0.091 0.0
C243 C 0.51037 0.54745 0.13818 0.0
C244 C 0.56763 0.44319 0.13013 0.0
C245 C 0.60792 0.46413 0.13282 0.0
C246 C 0.54578 0.45972 0.13844 0.0
C247 C 0.56391 0.49672 0.15063 0.0
C248 C 0.62591 0.50122 0.14499 0.0
C249 C 0.60402 0.51725 0.15411 0.0
C250 C 0.54149 0.51524 0.15759 0.0
C251 C 0.58494 0.52875 0.26187 0.0
C252 C 0.57543 0.49074 0.26508 0.0
C253 C 0.57239 0.53982 0.23649 0.0
C254 C 0.55055 0.51315 0.21379 0.0
C255 C 0.55328 0.46395 0.24263 0.0
C256 C 0.5408 0.47502 0.21725 0.0
C257 C 0.53716 0.5251 0.18704 0.0
H258 H 0.48801 0.66146 0.14991 0.0
H259 H 0.51418 0.6213 0.13685 0.0
H260 H 0.44531 0.6006 0.23205 0.0
H261 H 0.46641 0.5561 0.21679 0.0
H262 H 0.41515 0.54028 0.07379 0.0
H263 H 0.43646 0.52251 0.11966 0.0
H264 H 0.53347 0.61537 0.05088 0.0
H265 H 0.55461 0.59562 0.09565 0.0
H266 H 0.55326 0.41446 0.121 0.0
H267 H 0.51481 0.44368 0.13545 0.0
H268 H 0.65695 0.51779 0.14729 0.0
H269 H 0.61841 0.54602 0.16318 0.0
H270 H 0.60182 0.54972 0.27912 0.0
H271 H 0.58002 0.5693 0.23446 0.0
H272 H 0.54536 0.43443 0.24493 0.0
H273 H 0.52297 0.45362 0.20059 0.0
N274 N 0.52033 0.54668 0.19094 0.0
N275 N 0.52788 0.52662 0.13433 0.0
Mn276 Mn 0.62063 0.39001 0.41822 0.0
Mn277 Mn 0.67388 0.4848 0.43062 0.0
C278 C 0.5998 0.41957 0.45175 0.0
C279 C 0.60586 0.32876 0.43048 0.0
C280 C 0.62495 0.4492 0.37417 0.0
O281 O 0.67259 0.4029 0.40175 0.0
O282 O 0.70736 0.46515 0.41497 0.0
C283 C 0.72433 0.48688 0.48057 0.0
N284 N 0.69692 0.4943 0.46993 0.0
C285 C 0.694 0.52064 0.51774 0.0
C286 C 0.72161 0.51248 0.52933 0.0
C287 C 0.73696 0.49566 0.51061 0.0
C288 C 0.68236 0.51098 0.48766 0.0
H289 H 0.73663 0.47466 0.46616 0.0
C290 C 0.70412 0.43447 0.40362 0.0
O291 O 0.5971 0.33607 0.40419 0.0
O292 O 0.62446 0.35709 0.44909 0.0
N293 N 0.64502 0.50688 0.44594 0.0
C294 C 0.62004 0.51463 0.43092 0.0
C295 C 0.60368 0.53339 0.446 0.0
C296 C 0.61332 0.54419 0.47628 0.0
C297 C 0.6395 0.53641 0.49115 0.0
C298 C 0.65534 0.51817 0.47483 0.0
H299 H 0.61254 0.50652 0.40762 0.0
O300 O 0.57571 0.38679 0.43975 0.0
O301 O 0.63517 0.43418 0.44327 0.0
O302 O 0.61072 0.41457 0.38175 0.0
O303 O 0.64959 0.47737 0.39026 0.0
C304 C 0.65057 0.54613 0.5215 0.0
C305 C 0.67764 0.53805 0.53484 0.0
H306 H 0.73146 0.51929 0.55248 0.0
H307 H 0.7586 0.48965 0.51927 0.0
H308 H 0.58354 0.53934 0.43434 0.0
H309 H 0.60037 0.55834 0.48792 0.0
H310 H 0.63845 0.55984 0.53478 0.0
H311 H 0.68591 0.54563 0.5582 0.0
Mn312 Mn 0.25442 0.65076 0.57162 0.0
Mn313 Mn 0.20429 0.55516 0.5637 0.0
C314 C 0.20407 0.62244 0.53673 0.0
C315 C 0.30651 0.70844 0.55738 0.0
C316 C 0.19366 0.59797 0.61578 0.0
O317 O 0.28915 0.6347 0.59257 0.0
O318 O 0.25517 0.5715 0.58339 0.0
C319 C 0.25539 0.54865 0.51979 0.0
N320 N 0.21983 0.54207 0.52725 0.0
C321 C 0.19336 0.5125 0.47915 0.0
C322 C 0.22962 0.51872 0.47105 0.0
C323 C 0.26079 0.537 0.49143 0.0
C324 C 0.18978 0.525 0.50764 0.0
H325 H 0.27952 0.56284 0.53529 0.0
C326 C 0.28487 0.60148 0.59375 0.0
O327 O 0.28989 0.70546 0.58282 0.0
O328 O 0.29386 0.67788 0.54106 0.0
N329 N 0.15491 0.53499 0.54424 0.0
C330 C 0.12149 0.52978 0.55583 0.0
C331 C 0.08762 0.51236 0.53814 0.0
C332 C 0.08815 0.49924 0.50903 0.0
C333 C 0.12244 0.50313 0.49808 0.0
C334 C 0.15534 0.52099 0.51671 0.0
H335 H 0.12058 0.53812 0.57857 0.0
O336 O 0.21651 0.65693 0.54629 0.0
O337 O 0.22165 0.60571 0.54799 0.0
O338 O 0.21762 0.63153 0.60721 0.0
O339 O 0.18645 0.56755 0.60138 0.0
C340 C 0.12521 0.48973 0.46951 0.0
C341 C 0.1607 0.49462 0.45998 0.0
H342 H 0.23389 0.50975 0.4492 0.0
H343 H 0.28893 0.54212 0.4853 0.0
H344 H 0.06107 0.50866 0.54706 0.0
H345 H 0.06196 0.48575 0.49545 0.0
H346 H 0.10025 0.47559 0.45468 0.0
H347 H 0.16255 0.48455 0.43784 0.0
Mn348 Mn 0.61815 0.25588 0.74235 0.0
Mn349 Mn 0.66596 0.21219 0.71925 0.0
C350 C 0.59107 0.209 0.70537 0.0
C351 C 0.60563 0.30584 0.73781 0.0
C352 C 0.62602 0.19693 0.77942 0.0
O353 O 0.67301 0.29062 0.7583 0.0
O354 O 0.70333 0.26291 0.73635 0.0
C355 C 0.70951 0.26258 0.66966 0.0
N356 N 0.68428 0.22725 0.67962 0.0
C357 C 0.68062 0.19908 0.63115 0.0
C358 C 0.70672 0.23513 0.62038 0.0
C359 C 0.72104 0.26705 0.63969 0.0
C360 C 0.6699 0.19646 0.66114 0.0
H361 H 0.72077 0.28712 0.68451 0.0
C362 C 0.70337 0.28945 0.75203 0.0
O363 O 0.59888 0.28713 0.76256 0.0
O364 O 0.62118 0.29679 0.71642 0.0
N365 N 0.63326 0.16286 0.70168 0.0
C366 C 0.6054 0.13088 0.71463 0.0
C367 C 0.58752 0.09644 0.69825 0.0
C368 C 0.59821 0.09534 0.66859 0.0
C369 C 0.62607 0.12889 0.65535 0.0
C370 C 0.64311 0.16227 0.67291 0.0
H371 H 0.59604 0.13192 0.73694 0.0
O372 O 0.56978 0.21861 0.72042 0.0
O373 O 0.62754 0.22744 0.71236 0.0
O374 O 0.60987 0.21676 0.77467 0.0
O375 O 0.64838 0.19461 0.76052 0.0
C376 C 0.63734 0.13062 0.62535 0.0
C377 C 0.66445 0.16572 0.61322 0.0
H378 H 0.71573 0.23868 0.5973 0.0
H379 H 0.74105 0.29499 0.63152 0.0
H380 H 0.56531 0.07089 0.70837 0.0
H381 H 0.58439 0.06869 0.65607 0.0
H382 H 0.62496 0.10524 0.61127 0.0
H383 H 0.67233 0.16681 0.58997 0.0
Mn384 Mn 0.39867 0.65018 0.91726 0.0
Mn385 Mn 0.34911 0.55639 0.93088 0.0
C386 C 0.42203 0.62477 0.95269 0.0
C387 C 0.4092 0.71093 0.9282 0.0
C388 C 0.39737 0.59008 0.87517 0.0
O389 O 0.34623 0.63295 0.89773 0.0
O390 O 0.31365 0.57313 0.91469 0.0
C391 C 0.30155 0.55848 0.98015 0.0
N392 N 0.32725 0.54879 0.96975 0.0
C393 C 0.32976 0.52244 0.01724 0.0
C394 C 0.30315 0.53193 0.02841 0.0
C395 C 0.28911 0.55017 0.00982 0.0
C396 C 0.34145 0.53185 0.98761 0.0
H397 H 0.29078 0.57263 0.96597 0.0
C398 C 0.31518 0.60138 0.90098 0.0
O399 O 0.41965 0.70318 0.90289 0.0
O400 O 0.39125 0.68306 0.9464 0.0
N401 N 0.37923 0.53605 0.94712 0.0
C402 C 0.40385 0.52775 0.93263 0.0
C403 C 0.41953 0.50836 0.94779 0.0
C404 C 0.40939 0.49726 0.97754 0.0
C405 C 0.3835 0.5055 0.99181 0.0
C406 C 0.36844 0.52449 0.97546 0.0
H407 H 0.41138 0.53568 0.90963 0.0
O408 O 0.44462 0.65774 0.94144 0.0
O409 O 0.38661 0.60815 0.94308 0.0
O410 O 0.41108 0.62501 0.88259 0.0
O411 O 0.37274 0.56258 0.89089 0.0
C412 C 0.37176 0.49528 0.02153 0.0
C413 C 0.34518 0.50407 0.03433 0.0
H414 H 0.29338 0.52544 0.05125 0.0
H415 H 0.26872 0.55776 0.01833 0.0
H416 H 0.43937 0.50197 0.93656 0.0
H417 H 0.4217 0.48249 0.9892 0.0
H418 H 0.38313 0.4808 0.03479 0.0
H419 H 0.33665 0.49638 0.05731 0.0
Mn420 Mn 0.76663 0.41087 0.08013 0.0
Mn421 Mn 0.81882 0.36747 0.08861 0.0
C422 C 0.81639 0.4343 0.11549 0.0
C423 C 0.71403 0.41653 0.09337 0.0
C424 C 0.82673 0.41788 0.03587 0.0
O425 O 0.73347 0.35949 0.05918 0.0
O426 O 0.76731 0.33065 0.07118 0.0
C427 C 0.77244 0.31333 0.13544 0.0
N428 N 0.80678 0.34228 0.12624 0.0
C429 C 0.83705 0.34508 0.17386 0.0
C430 C 0.80208 0.31516 0.18379 0.0
C431 C 0.76962 0.29928 0.1645 0.0
C432 C 0.83807 0.35802 0.14472 0.0
H433 H 0.74732 0.30122 0.1208 0.0
C434 C 0.73773 0.33041 0.05982 0.0
O435 O 0.73098 0.42919 0.06801 0.0
O436 O 0.72617 0.39861 0.11004 0.0
N437 N 0.86904 0.39953 0.10583 0.0
C438 C 0.90096 0.42718 0.09245 0.0
C439 C 0.9361 0.44554 0.10851 0.0
C440 C 0.93826 0.43473 0.13797 0.0
C441 C 0.9053 0.40542 0.15098 0.0
C442 C 0.87115 0.388 0.13378 0.0
H443 H 0.89977 0.43472 0.06954 0.0
O444 O 0.80322 0.45557 0.10566 0.0
O445 O 0.8 0.40008 0.10405 0.0
O446 O 0.80384 0.42873 0.04519 0.0
O447 O 0.83339 0.39414 0.0496 0.0
C448 C 0.90505 0.39269 0.18029 0.0
C449 C 0.87087 0.36272 0.1918 0.0
H450 H 0.79978 0.30427 0.2062 0.0
H451 H 0.74247 0.27633 0.17205 0.0
H452 H 0.96151 0.46781 0.09815 0.0
H453 H 0.96538 0.44903 0.15033 0.0
H454 H 0.93096 0.40584 0.1942 0.0
H455 H 0.87096 0.35338 0.21445 0.0
Mn456 Mn 0.37985 0.78229 0.2471 0.0
Mn457 Mn 0.47402 0.82753 0.26538 0.0
C458 C 0.4039 0.83057 0.28307 0.0
C459 C 0.31843 0.73169 0.25619 0.0
C460 C 0.44206 0.84025 0.20671 0.0
O461 O 0.39819 0.74792 0.22918 0.0
O462 O 0.45823 0.77604 0.24913 0.0
C463 C 0.47148 0.7791 0.31544 0.0
N464 N 0.4808 0.81399 0.30499 0.0
C465 C 0.50552 0.84316 0.3535 0.0
C466 C 0.49634 0.80758 0.36476 0.0
C467 C 0.47915 0.77539 0.34566 0.0
C468 C 0.49699 0.84506 0.32324 0.0
H469 H 0.45812 0.75426 0.30087 0.0
C470 C 0.43013 0.74911 0.23425 0.0
O471 O 0.3263 0.74896 0.23066 0.0
O472 O 0.34641 0.74251 0.27552 0.0
N473 N 0.49304 0.87757 0.28193 0.0
C474 C 0.49919 0.90964 0.26783 0.0
C475 C 0.51694 0.94451 0.28364 0.0
C476 C 0.52802 0.94603 0.31384 0.0
C477 C 0.52119 0.91262 0.32797 0.0
C478 C 0.50401 0.87882 0.31091 0.0
H479 H 0.49005 0.90856 0.24486 0.0
O480 O 0.37103 0.81983 0.26989 0.0
O481 O 0.42131 0.81251 0.27474 0.0
O482 O 0.40651 0.82035 0.21339 0.0
O483 O 0.46902 0.84355 0.22431 0.0
C484 C 0.53065 0.91153 0.35833 0.0
C485 C 0.52254 0.87677 0.37115 0.0
H486 H 0.50221 0.80461 0.38805 0.0
H487 H 0.47181 0.7478 0.35421 0.0
H488 H 0.52169 0.97008 0.27265 0.0
H489 H 0.5413 0.9729 0.32607 0.0
H490 H 0.54383 0.93721 0.37209 0.0
H491 H 0.52949 0.87621 0.39463 0.0
C492 C 0.21811 0.64366 0.25679 0.0
C493 C 0.20391 0.6506 0.28367 0.0
C494 C 0.26296 0.71203 0.29038 0.0
C495 C 0.27855 0.70392 0.2648 0.0
N496 N 0.27368 0.65967 0.2263 0.0
N497 N 0.21496 0.68776 0.32895 0.0
C498 C 0.25683 0.66909 0.24862 0.0
C499 C 0.22708 0.68367 0.30138 0.0
N500 N 0.19432 0.61318 0.23879 0.0
N501 N 0.28147 0.74758 0.30329 0.0
H502 H 0.18848 0.66792 0.33758 0.0
H503 H 0.23247 0.70908 0.34437 0.0
H504 H 0.30721 0.7697 0.29547 0.0
H505 H 0.26949 0.75639 0.31987 0.0
H506 H 0.20142 0.60888 0.21732 0.0
H507 H 0.16628 0.59335 0.24459 0.0
H508 H 0.26081 0.63303 0.2158 0.0
H509 H 0.30195 0.67756 0.21983 0.0
C510 C 0.58745 0.22727 0.43144 0.0
C511 C 0.5654 0.21377 0.45772 0.0
C512 C 0.56825 0.27486 0.4651 0.0
C513 C 0.59245 0.2893 0.43993 0.0
N514 N 0.63077 0.28185 0.40229 0.0
N515 N 0.54051 0.22611 0.50265 0.0
C516 C 0.60361 0.2662 0.4239 0.0
C517 C 0.55768 0.23809 0.47556 0.0
N518 N 0.59225 0.20267 0.41339 0.0
N519 N 0.5535 0.29534 0.478 0.0
H520 H 0.53149 0.19899 0.51075 0.0
H521 H 0.53813 0.24402 0.51823 0.0
H522 H 0.55949 0.32196 0.47063 0.0
H523 H 0.53238 0.28452 0.49419 0.0
H524 H 0.60412 0.20959 0.39219 0.0
H525 H 0.58201 0.17433 0.41878 0.0
H526 H 0.64308 0.26757 0.39195 0.0
H527 H 0.64355 0.31035 0.39645 0.0
C528 C 0.38111 0.60452 0.59977 0.0
C529 C 0.3744 0.58061 0.62459 0.0
C530 C 0.31142 0.57526 0.63202 0.0
C531 C 0.31702 0.5972 0.60596 0.0
N532 N 0.35504 0.62989 0.56319 0.0
N533 N 0.33771 0.549 0.66791 0.0
C534 C 0.35162 0.61171 0.58963 0.0
C535 C 0.34082 0.56771 0.64181 0.0
N536 N 0.41594 0.62061 0.58613 0.0
N537 N 0.27736 0.5606 0.6467 0.0
H538 H 0.35879 0.54312 0.6756 0.0
H539 H 0.31579 0.54136 0.68313 0.0
H540 H 0.25582 0.56662 0.64079 0.0
H541 H 0.26932 0.54122 0.66395 0.0
H542 H 0.42465 0.64162 0.5701 0.0
H543 H 0.43767 0.61499 0.59242 0.0
H544 H 0.37727 0.63721 0.54831 0.0
H545 H 0.33417 0.63559 0.55475 0.0
C546 C 0.8054 0.33858 0.7835 0.0
C547 C 0.81559 0.37747 0.78298 0.0
C548 C 0.75346 0.35875 0.75868 0.0
C549 C 0.74122 0.32001 0.76372 0.0
N550 N 0.75333 0.27409 0.7882 0.0
N551 N 0.79438 0.42323 0.77661 0.0
C552 C 0.7665 0.31019 0.7784 0.0
C553 C 0.78814 0.38725 0.77254 0.0
N554 N 0.83293 0.32856 0.78728 0.0
N555 N 0.73347 0.36851 0.73924 0.0
H556 H 0.81844 0.44449 0.78813 0.0
H557 H 0.77356 0.43056 0.77143 0.0
H558 H 0.70951 0.34836 0.72692 0.0
H559 H 0.74335 0.39647 0.73291 0.0
H560 H 0.82694 0.30055 0.78526 0.0
H561 H 0.86223 0.34839 0.7888 0.0
H562 H 0.77018 0.26664 0.80126 0.0
H563 H 0.72453 0.25282 0.78624 0.0
C564 C 0.4317 0.81372 0.92335 0.0
C565 C 0.44151 0.82614 0.95373 0.0
C566 C 0.43374 0.76435 0.96653 0.0
C567 C 0.41953 0.75039 0.937 0.0
N568 N 0.39581 0.75985 0.88965 0.0
N569 N 0.4411 0.80926 0.00554 0.0
C570 C 0.41578 0.77448 0.91603 0.0
C571 C 0.43904 0.80014 0.97575 0.0
N572 N 0.43902 0.83938 0.90125 0.0
N573 N 0.44464 0.74487 0.9853 0.0
H574 H 0.44371 0.83477 0.01324 0.0
H575 H 0.43596 0.7898 0.02242 0.0
H576 H 0.44462 0.72017 0.97889 0.0
H577 H 0.4583 0.75586 0.00601 0.0
H578 H 0.43588 0.83206 0.87851 0.0
H579 H 0.45186 0.86852 0.90542 0.0
H580 H 0.38937 0.77573 0.8749 0.0
H581 H 0.38192 0.73096 0.8841 0.0
C582 C 0.65654 0.44446 0.14427 0.0
C583 C 0.6318 0.44765 0.12307 0.0
C584 C 0.65502 0.42178 0.08405 0.0
C585 C 0.68439 0.42517 0.10406 0.0
N586 N 0.71803 0.44878 0.15197 0.0
N587 N 0.6123 0.44544 0.07117 0.0
C588 C 0.68643 0.43869 0.13396 0.0
C589 C 0.63215 0.43782 0.09247 0.0
N590 N 0.65139 0.44668 0.17429 0.0
N591 N 0.64815 0.40234 0.05743 0.0
H592 H 0.59621 0.45838 0.07611 0.0
H593 H 0.61491 0.44229 0.04826 0.0
H594 H 0.66312 0.38867 0.05109 0.0
H595 H 0.62479 0.39622 0.04331 0.0
H596 H 0.66661 0.4411 0.19065 0.0
H597 H 0.62914 0.45001 0.18271 0.0
H598 H 0.722 0.46206 0.17287 0.0
H599 H 0.7424 0.44838 0.14488 0.0
C600 C 0.40203 0.80094 0.54986 0.0
C601 C 0.39357 0.81634 0.5244 0.0
C602 C 0.33298 0.75678 0.51685 0.0
C603 C 0.33712 0.74534 0.54606 0.0
N604 N 0.37754 0.75551 0.58988 0.0
N605 N 0.36695 0.79533 0.4747 0.0
C606 C 0.37217 0.76719 0.56255 0.0
C607 C 0.36378 0.79011 0.50492 0.0
N608 N 0.4394 0.81338 0.55778 0.0
N609 N 0.29897 0.73745 0.50108 0.0
H610 H 0.39154 0.8177 0.46546 0.0
H611 H 0.34776 0.77526 0.45914 0.0
H612 H 0.2746 0.71405 0.5094 0.0
H613 H 0.29391 0.74719 0.48093 0.0
H614 H 0.44763 0.80128 0.57473 0.0
H615 H 0.46172 0.83097 0.54374 0.0
H616 H 0.40092 0.77271 0.60402 0.0
H617 H 0.35779 0.72958 0.59902 0.0
C618 C 0.61036 0.39639 0.71209 0.0
C619 C 0.57093 0.38586 0.71169 0.0
C620 C 0.55399 0.32314 0.73101 0.0
C621 C 0.5936 0.33446 0.73277 0.0
N622 N 0.65936 0.38503 0.73348 0.0
N623 N 0.50646 0.34309 0.72798 0.0
C624 C 0.62178 0.37212 0.72586 0.0
C625 C 0.54309 0.35039 0.72341 0.0
N626 N 0.63672 0.42872 0.6983 0.0
N627 N 0.52666 0.28602 0.73511 0.0
H628 H 0.49756 0.36259 0.72317 0.0
H629 H 0.48604 0.31933 0.73923 0.0
H630 H 0.53327 0.26513 0.74088 0.0
H631 H 0.49751 0.27534 0.73053 0.0
H632 H 0.66514 0.43563 0.69526 0.0
H633 H 0.62946 0.44697 0.68751 0.0
H634 H 0.68104 0.41319 0.73128 0.0
H635 H 0.66773 0.36839 0.74545 0.0
C636 C 0.2296 0.61692 0.88879 0.0
C637 C 0.20901 0.58951 0.86584 0.0
C638 C 0.25612 0.5684 0.86721 0.0
C639 C 0.27852 0.59735 0.88896 0.0
N640 N 0.28808 0.65143 0.91898 0.0
N641 N 0.2074 0.54657 0.8277 0.0
C642 C 0.26595 0.62266 0.89901 0.0
C643 C 0.22401 0.56783 0.85321 0.0
N644 N 0.21346 0.63603 0.9018 0.0
N645 N 0.26404 0.54017 0.8608 0.0
H646 H 0.18364 0.54549 0.81691 0.0
H647 H 0.2195 0.5333 0.81557 0.0
H648 H 0.28589 0.53784 0.87133 0.0
H649 H 0.24614 0.5164 0.8475 0.0
H650 H 0.2245 0.65297 0.92108 0.0
H651 H 0.18755 0.63334 0.89413 0.0
H652 H 0.28315 0.67365 0.92401 0.0
H653 H 0.31243 0.65407 0.92986 0.0
C654 C 0.68416 0.23681 0.01582 0.0
C655 C 0.64772 0.22005 0.0295 0.0
C656 C 0.66975 0.27618 0.06232 0.0
C657 C 0.70597 0.29347 0.04815 0.0
N658 N 0.74642 0.29303 0.00889 0.0
N659 N 0.60304 0.2256 0.06163 0.0
C660 C 0.71279 0.27456 0.02412 0.0
C661 C 0.6396 0.24047 0.05133 0.0
N662 N 0.69165 0.21612 0.99543 0.0
N663 N 0.66495 0.29258 0.08758 0.0
H664 H 0.58059 0.19891 0.05492 0.0
H665 H 0.59415 0.24082 0.07494 0.0
H666 H 0.68645 0.31824 0.09687 0.0
H667 H 0.64085 0.27933 0.10095 0.0
H668 H 0.7189 0.22447 0.98742 0.0
H669 H 0.67071 0.18934 0.98741 0.0
H670 H 0.75154 0.28288 0.98901 0.0
H671 H 0.76869 0.32001 0.01505 0.0
C672 C 0.48338 0.70199 0.20348 0.0
C673 C 0.45452 0.66305 0.20211 0.0
C674 C 0.40887 0.67968 0.22365 0.0
C675 C 0.4366 0.71893 0.22134 0.0
N676 N 0.4959 0.76618 0.19922 0.0
N677 N 0.38695 0.61617 0.20412 0.0
C678 C 0.47254 0.72973 0.20822 0.0
C679 C 0.41631 0.65222 0.21013 0.0
N680 N 0.52138 0.71267 0.20164 0.0
N681 N 0.37646 0.66828 0.23993 0.0
H682 H 0.39104 0.59565 0.19331 0.0
H683 H 0.35815 0.60798 0.20704 0.0
H684 H 0.37065 0.68709 0.25159 0.0
H685 H 0.35733 0.63986 0.24445 0.0
H686 H 0.54338 0.74068 0.20512 0.0
H687 H 0.53103 0.69322 0.20023 0.0
H688 H 0.52098 0.77437 0.18738 0.0
H689 H 0.48784 0.78689 0.20016 0.0
C690 C 0.78147 0.44194 0.35076 0.0
C691 C 0.81265 0.45378 0.37161 0.0
C692 C 0.76837 0.44038 0.41294 0.0
C693 C 0.7394 0.43598 0.39224 0.0
N694 N 0.71726 0.43149 0.34106 0.0
N695 N 0.83656 0.46884 0.4229 0.0
C696 C 0.74548 0.43609 0.36097 0.0
C697 C 0.8063 0.45394 0.40286 0.0
N698 N 0.78606 0.43536 0.32141 0.0
N699 N 0.75922 0.4301 0.44203 0.0
H700 H 0.86506 0.48021 0.41657 0.0
H701 H 0.83362 0.47313 0.44556 0.0
H702 H 0.73102 0.41782 0.44946 0.0
H703 H 0.77851 0.42964 0.45764 0.0
H704 H 0.76357 0.42335 0.30565 0.0
H705 H 0.8118 0.43865 0.31338 0.0
H706 H 0.72156 0.43611 0.31816 0.0
H707 H 0.68983 0.42479 0.34769 0.0
C708 C 0.1175 0.59201 0.48382 0.0
C709 C 0.13187 0.58562 0.45685 0.0
C710 C 0.1931 0.60269 0.48225 0.0
C711 C 0.17848 0.60813 0.5096 0.0
N712 N 0.12998 0.61515 0.53539 0.0
N713 N 0.18008 0.57851 0.43092 0.0
C714 C 0.14148 0.60468 0.5101 0.0
C715 C 0.1688 0.58925 0.45621 0.0
N716 N 0.08044 0.58493 0.48441 0.0
N717 N 0.23103 0.61282 0.48058 0.0
H718 H 0.16331 0.56907 0.41127 0.0
H719 H 0.20447 0.5758 0.43005 0.0
H720 H 0.25026 0.62344 0.49876 0.0
H721 H 0.24456 0.61377 0.46062 0.0
H722 H 0.06622 0.58411 0.50394 0.0
H723 H 0.06266 0.57742 0.46534 0.0
H724 H 0.10536 0.61738 0.53656 0.0
H725 H 0.14655 0.62431 0.55505 0.0
C726 C 0.57746 0.17535 0.62386 0.0
C727 C 0.5448 0.13855 0.62584 0.0
C728 C 0.5428 0.14741 0.68014 0.0
C729 C 0.57509 0.18459 0.67804 0.0
N730 N 0.61576 0.23768 0.64691 0.0
N731 N 0.49185 0.0918 0.65412 0.0
C732 C 0.59032 0.19969 0.6496 0.0
C733 C 0.52609 0.12524 0.65351 0.0
N734 N 0.59683 0.1867 0.59755 0.0
N735 N 0.52902 0.1328 0.70769 0.0
H736 H 0.47899 0.07476 0.63506 0.0
H737 H 0.47456 0.08231 0.67285 0.0
H738 H 0.54057 0.14806 0.72771 0.0
H739 H 0.50844 0.10454 0.71108 0.0
H740 H 0.62317 0.21159 0.59556 0.0
H741 H 0.58826 0.16977 0.5781 0.0
H742 H 0.62484 0.25096 0.62639 0.0
H743 H 0.62517 0.25686 0.66498 0.0
C744 C 0.45904 0.5953 0.80847 0.0
C745 C 0.43456 0.55996 0.79364 0.0
C746 C 0.38416 0.54867 0.8288 0.0
C747 C 0.41045 0.58055 0.84673 0.0
N748 N 0.47732 0.62806 0.85645 0.0
N749 N 0.37737 0.49799 0.79629 0.0
C750 C 0.44925 0.60226 0.83743 0.0
C751 C 0.39822 0.535 0.80585 0.0
N752 N 0.49087 0.62281 0.79474 0.0
N753 N 0.34554 0.5328 0.83215 0.0
H754 H 0.38766 0.48597 0.78087 0.0
H755 H 0.35194 0.47835 0.80642 0.0
H756 H 0.33417 0.54534 0.84581 0.0
H757 H 0.32538 0.51113 0.81808 0.0
H758 H 0.50761 0.65012 0.80387 0.0
H759 H 0.49796 0.61978 0.77288 0.0
H760 H 0.50636 0.64202 0.85112 0.0
H761 H 0.47249 0.632 0.87872 0.0
C762 C 0.90248 0.48155 0.98025 0.0
C763 C 0.88912 0.45787 0.95419 0.0
C764 C 0.83072 0.41287 0.98014 0.0
C765 C 0.84672 0.43354 0.00732 0.0
N766 N 0.89734 0.48778 0.03382 0.0
N767 N 0.84216 0.39956 0.92941 0.0
C768 C 0.88241 0.46813 0.00748 0.0
C769 C 0.85352 0.4232 0.95407 0.0
N770 N 0.93388 0.51721 0.97868 0.0
N771 N 0.79327 0.38419 0.97909 0.0
H772 H 0.85778 0.40643 0.90971 0.0
H773 H 0.81874 0.37202 0.92919 0.0
H774 H 0.77548 0.37715 0.99757 0.0
H775 H 0.77875 0.37012 0.95936 0.0
H776 H 0.94299 0.53742 0.99596 0.0
H777 H 0.94927 0.52787 0.95908 0.0
H778 H 0.92526 0.5105 0.0365 0.0
H779 H 0.8821 0.47986 0.0536 0.0
C780 C 0.42604 0.87761 0.13323 0.0
C781 C 0.46134 0.91188 0.12958 0.0
C782 C 0.48573 0.89922 0.17614 0.0
C783 C 0.45204 0.86265 0.17808 0.0
N784 N 0.39573 0.81372 0.15143 0.0
N785 N 0.50745 0.96336 0.16116 0.0
C786 C 0.42381 0.8509 0.15456 0.0
C787 C 0.48641 0.92532 0.15501 0.0
N788 N 0.39292 0.87372 0.12113 0.0
N789 N 0.51846 0.90893 0.19243 0.0
H790 H 0.50432 0.98302 0.14828 0.0
H791 H 0.52353 0.97439 0.18101 0.0
H792 H 0.52297 0.88972 0.20448 0.0
H793 H 0.54365 0.93493 0.18989 0.0
H794 H 0.36594 0.85031 0.12513 0.0
H795 H 0.39208 0.89686 0.11203 0.0
H796 H 0.37625 0.80381 0.13332 0.0
H797 H 0.39537 0.79232 0.16441 0.0
C798 C 0.56149 0.46136 0.31596 0.0
C799 C 0.58777 0.47875 0.29247 0.0
C800 C 0.63865 0.47728 0.3225 0.0
C801 C 0.61173 0.45769 0.34538 0.0
N802 N 0.54592 0.42594 0.36191 0.0
N803 N 0.64908 0.49747 0.27071 0.0
C804 C 0.57261 0.44799 0.34142 0.0
C805 C 0.62574 0.48507 0.29499 0.0
N806 N 0.52632 0.459 0.31445 0.0
N807 N 0.67668 0.48883 0.32713 0.0
H808 H 0.64071 0.50385 0.25035 0.0
H809 H 0.67547 0.49853 0.26983 0.0
H810 H 0.68722 0.48205 0.34612 0.0
H811 H 0.69832 0.50716 0.313 0.0
H812 H 0.50763 0.45102 0.33234 0.0
H813 H 0.51688 0.46796 0.29601 0.0
H814 H 0.51641 0.41411 0.35841 0.0
H815 H 0.55272 0.41688 0.38158 0.0
C816 C 0.41653 0.85995 0.36551 0.0
C817 C 0.43096 0.89961 0.36337 0.0
C818 C 0.424 0.89318 0.30856 0.0
C819 C 0.41468 0.85473 0.31056 0.0
N820 N 0.40344 0.80127 0.34097 0.0
N821 N 0.45474 0.95529 0.33273 0.0
C822 C 0.41165 0.83812 0.33905 0.0
C823 C 0.43622 0.9166 0.33485 0.0
N824 N 0.40516 0.84271 0.39263 0.0
N825 N 0.42131 0.90743 0.28157 0.0
H826 H 0.46581 0.9736 0.35133 0.0
H827 H 0.46268 0.96938 0.31243 0.0
H828 H 0.4147 0.89192 0.26146 0.0
H829 H 0.42339 0.93387 0.27939 0.0
H830 H 0.39061 0.81338 0.39522 0.0
H831 H 0.40669 0.85739 0.41237 0.0
H832 H 0.40616 0.78944 0.36081 0.0
H833 H 0.3963 0.78298 0.32249 0.0
C834 C 0.5505 0.45675 0.5033 0.0
C835 C 0.56244 0.45094 0.5319 0.0
C836 C 0.60314 0.42973 0.50771 0.0
C837 C 0.58863 0.43255 0.47912 0.0
N838 N 0.5425 0.44125 0.45024 0.0
N839 N 0.59348 0.42406 0.56133 0.0
C840 C 0.56026 0.44351 0.47713 0.0
C841 C 0.58721 0.43556 0.53414 0.0
N842 N 0.53139 0.47658 0.50099 0.0
N843 N 0.63164 0.42077 0.50982 0.0
H844 H 0.58111 0.42628 0.58108 0.0
H845 H 0.60772 0.40876 0.56395 0.0
H846 H 0.64213 0.41301 0.49151 0.0
H847 H 0.64691 0.42362 0.52965 0.0
H848 H 0.52521 0.48484 0.4806 0.0
H849 H 0.52529 0.48835 0.5195 0.0
H850 H 0.51846 0.44449 0.44808 0.0
H851 H 0.55044 0.43391 0.43027 0.0
C852 C 0.11161 0.56496 0.66987 0.0
C853 C 0.13106 0.573 0.69811 0.0
C854 C 0.19288 0.59982 0.67247 0.0
C855 C 0.17324 0.59353 0.64441 0.0
N856 N 0.11596 0.58255 0.61795 0.0
N857 N 0.19073 0.60525 0.72661 0.0
C858 C 0.13317 0.57975 0.64358 0.0
C859 C 0.17194 0.59252 0.69953 0.0
N860 N 0.07258 0.54191 0.6679 0.0
N861 N 0.23134 0.61203 0.67326 0.0
H862 H 0.17639 0.60093 0.74678 0.0
H863 H 0.22038 0.62291 0.72887 0.0
H864 H 0.24796 0.61966 0.65409 0.0
H865 H 0.24632 0.61259 0.69268 0.0
H866 H 0.05761 0.53223 0.6475 0.0
H867 H 0.05563 0.5293 0.68648 0.0
H868 H 0.08742 0.57619 0.61674 0.0
H869 H 0.13167 0.59537 0.59895 0.0
C870 C 0.60263 0.121 0.83985 0.0
C871 C 0.59196 0.13722 0.86341 0.0
C872 C 0.61544 0.1958 0.83507 0.0
C873 C 0.61977 0.17753 0.80924 0.0
N874 N 0.62219 0.12303 0.7888 0.0
N875 N 0.58547 0.18897 0.88314 0.0
C876 C 0.6151 0.14038 0.81217 0.0
C877 C 0.5976 0.17432 0.86093 0.0
N878 N 0.60231 0.08758 0.84438 0.0
N879 N 0.63101 0.23439 0.83568 0.0
H880 H 0.5732 0.17448 0.90279 0.0
H881 H 0.58481 0.21413 0.88101 0.0
H882 H 0.64778 0.25161 0.81842 0.0
H883 H 0.63175 0.24974 0.85475 0.0
H884 H 0.61441 0.07651 0.82984 0.0
H885 H 0.59227 0.07191 0.86389 0.0
H886 H 0.61074 0.09374 0.78709 0.0
H887 H 0.64057 0.13754 0.77155 0.0
C888 C 0.43641 0.60756 0.03432 0.0
C889 C 0.45994 0.59088 0.03141 0.0
C890 C 0.46273 0.60128 0.97713 0.0
C891 C 0.43461 0.6124 0.97959 0.0
N892 N 0.3927 0.62439 0.0105 0.0
N893 N 0.4906 0.56621 0.99925 0.0
C894 C 0.42064 0.61475 0.00816 0.0
C895 C 0.47207 0.58646 1.0026 0.0
N896 N 0.4312 0.61895 0.06196 0.0
N897 N 0.48027 0.60448 0.95042 0.0
H898 H 0.49566 0.5526 0.01694 0.0
H899 H 0.49723 0.55933 0.97849 0.0
H900 H 0.4726 0.6131 0.93084 0.0
H901 H 0.50403 0.60091 0.94814 0.0
H902 H 0.41766 0.6348 0.06518 0.0
H903 H 0.44405 0.61629 0.08155 0.0
H904 H 0.37784 0.62145 0.03017 0.0
H905 H 0.38235 0.63289 0.99239 0.0
C906 C 0.90157 0.48618 0.16988 0.0
C907 C 0.88433 0.4701 0.19752 0.0
C908 C 0.82357 0.42752 0.17085 0.0
C909 C 0.8402 0.44578 0.14351 0.0
N910 N 0.89155 0.49965 0.11903 0.0
N911 N 0.82673 0.43147 0.22518 0.0
C912 C 0.8781 0.47739 0.14366 0.0
C913 C 0.84473 0.4422 0.19827 0.0
N914 N 0.94061 0.50866 0.16836 0.0
N915 N 0.78726 0.3967 0.17087 0.0
H916 H 0.8408 0.44265 0.24573 0.0
H917 H 0.7971 0.41438 0.22716 0.0
H918 H 0.76918 0.38684 0.15199 0.0
H919 H 0.77583 0.37928 0.18932 0.0
H920 H 0.95492 0.51816 0.14821 0.0
H921 H 0.95911 0.51435 0.18676 0.0
H922 H 0.91766 0.52511 0.11895 0.0
H923 H 0.87489 0.49472 0.09967 0.0
loop_
_geom_bond_atom_site_label_1
_geom_bond_atom_site_label_2
_geom_bond_distance
_geom_bond_site_symmetry_2
_ccdc_geom_bond_type
C0 C1 1.384 . S
C0 C2 1.384 . S
C0 H28 0.931 . S
C1 C0 1.384 . S
C1 C4 1.382 . S
C2 C0 1.384 . S
C2 C3 1.381 . S
C2 H29 0.930 . S
C3 C2 1.381 . S
C3 C5 1.381 . S
C3 C6 1.487 . S
C4 C1 1.382 . S
C4 C5 1.387 . S
C4 H30 0.930 . S
C5 C3 1.381 . S
C5 C4 1.387 . S
C5 H31 0.931 . S
C6 C3 1.487 . S
C6 C13 1.399 . S
C6 N44 1.343 . S
C7 C8 1.384 . S
C7 C9 1.384 . S
C7 H32 0.931 . S
C8 C7 1.384 . S
C8 C11 1.382 . S
C9 C7 1.384 . S
C9 C10 1.381 . S
C9 H33 0.930 . S
C10 C9 1.381 . S
C10 C12 1.381 . S
C10 C13 1.487 . S
C11 C8 1.382 . S
C11 C12 1.387 . S
C11 H34 0.930 . S
C12 C10 1.381 . S
C12 C11 1.387 . S
C12 H35 0.931 . S
C13 C6 1.399 . S
C13 C10 1.487 . S
C13 N45 1.343 1_655 S
C14 C15 1.384 . S
C14 C16 1.384 . S
C14 H36 0.931 . S
C15 C14 1.384 . S
C15 C18 1.382 . S
C16 C14 1.384 . S
C16 C17 1.381 . S
C16 H37 0.930 . S
C17 C16 1.381 . S
C17 C19 1.381 . S
C17 C20 1.487 . S
C18 C15 1.382 . S
C18 C19 1.387 . S
C18 H38 0.930 . S
C19 C17 1.381 . S
C19 C18 1.387 . S
C19 H39 0.931 . S
C20 C17 1.487 . S
C20 C27 1.399 . S
C20 N45 1.343 . S
C21 C22 1.384 . S
C21 C23 1.384 . S
C21 H40 0.931 . S
C22 C21 1.384 . S
C22 C25 1.382 . S
C23 C21 1.384 . S
C23 C24 1.381 . S
C23 H41 0.930 . S
C24 C23 1.381 . S
C24 C26 1.381 . S
C24 C27 1.487 . S
C25 C22 1.382 . S
C25 C26 1.387 . S
C25 H42 0.930 . S
C26 C24 1.381 . S
C26 C25 1.387 . S
C26 H43 0.931 . S
C27 C20 1.399 . S
C27 C24 1.487 . S
C27 N44 1.343 1_455 S
H28 C0 0.931 . S
H29 C2 0.930 . S
H30 C4 0.930 . S
H31 C5 0.931 . S
H32 C7 0.931 . S
H33 C9 0.930 . S
H34 C11 0.930 . S
H35 C12 0.931 . S
H36 C14 0.931 . S
H37 C16 0.930 . S
H38 C18 0.930 . S
H39 C19 0.931 . S
H40 C21 0.931 . S
H41 C23 0.930 . S
H42 C25 0.930 . S
H43 C26 0.931 . S
N44 C6 1.343 . S
N44 C27 1.343 1_655 S
N45 C13 1.343 1_455 S
N45 C20 1.343 . S
C46 C47 1.384 . S
C46 C48 1.384 . S
C46 H74 0.931 . S
C47 C46 1.384 . S
C47 C50 1.382 . S
C48 C46 1.384 . S
C48 C49 1.381 . S
C48 H75 0.930 . S
C49 C48 1.381 . S
C49 C51 1.381 . S
C49 C52 1.487 . S
C50 C47 1.382 . S
C50 C51 1.387 . S
C50 H76 0.930 . S
C51 C49 1.381 . S
C51 C50 1.387 . S
C51 H77 0.931 . S
C52 C49 1.487 . S
C52 C59 1.399 . S
C52 N90 1.343 1_565 S
C53 C54 1.384 . S
C53 C55 1.384 . S
C53 H78 0.931 . S
C54 C53 1.384 . S
C54 C57 1.382 . S
C55 C53 1.384 . S
C55 C56 1.381 . S
C55 H79 0.930 . S
C56 C55 1.381 . S
C56 C58 1.381 . S
C56 C59 1.487 . S
C57 C54 1.382 . S
C57 C58 1.387 . S
C57 H80 0.930 . S
C58 C56 1.381 . S
C58 C57 1.387 . S
C58 H81 0.931 . S
C59 C52 1.399 . S
C59 C56 1.487 . S
C59 N91 1.343 1_565 S
C60 C61 1.384 . S
C60 C62 1.384 . S
C60 H82 0.931 . S
C61 C60 1.384 . S
C61 C64 1.382 . S
C62 C60 1.384 . S
C62 C63 1.381 . S
C62 H83 0.930 . S
C63 C62 1.381 . S
C63 C65 1.381 . S
C63 C66 1.487 . S
C64 C61 1.382 . S
C64 C65 1.387 . S
C64 H84 0.930 . S
C65 C63 1.381 . S
C65 C64 1.387 . S
C65 H85 0.931 . S
C66 C63 1.487 . S
C66 C73 1.399 . S
C66 N91 1.343 . S
C67 C68 1.384 . S
C67 C69 1.384 . S
C67 H86 0.931 . S
C68 C67 1.384 . S
C68 C71 1.382 . S
C69 C67 1.384 . S
C69 C70 1.381 . S
C69 H87 0.930 . S
C70 C69 1.381 . S
C70 C72 1.381 . S
C70 C73 1.487 . S
C71 C68 1.382 . S
C71 C72 1.387 . S
C71 H88 0.930 . S
C72 C70 1.381 . S
C72 C71 1.387 . S
C72 H89 0.931 . S
C73 C66 1.399 . S
C73 C70 1.487 . S
C73 N90 1.343 . S
H74 C46 0.931 . S
H75 C48 0.930 . S
H76 C50 0.930 . S
H77 C51 0.931 . S
H78 C53 0.931 . S
H79 C55 0.930 . S
H80 C57 0.930 . S
H81 C58 0.931 . S
H82 C60 0.931 . S
H83 C62 0.930 . S
H84 C64 0.930 . S
H85 C65 0.931 . S
H86 C67 0.931 . S
H87 C69 0.930 . S
H88 C71 0.930 . S
H89 C72 0.931 . S
N90 C52 1.343 1_545 S
N90 C73 1.343 . S
N91 C59 1.343 1_545 S
N91 C66 1.343 . S
C92 C93 1.384 . S
C92 C94 1.384 . S
C92 H120 0.931 . S
C93 C92 1.384 . S
C93 C96 1.382 . S
C94 C92 1.384 . S
C94 C95 1.381 . S
C94 H121 0.930 . S
C95 C94 1.381 . S
C95 C97 1.381 . S
C95 C98 1.487 . S
C96 C93 1.382 . S
C96 C97 1.387 . S
C96 H122 0.930 . S
C97 C95 1.381 . S
C97 C96 1.387 . S
C97 H123 0.931 . S
C98 C95 1.487 . S
C98 C105 1.399 . S
C98 N136 1.343 . S
C99 C100 1.384 . S
C99 C101 1.384 . S
C99 H124 0.931 . S
C100 C99 1.384 . S
C100 C103 1.382 . S
C101 C99 1.384 . S
C101 C102 1.381 . S
C101 H125 0.930 . S
C102 C101 1.381 . S
C102 C104 1.381 . S
C102 C105 1.487 . S
C103 C100 1.382 . S
C103 C104 1.387 . S
C103 H126 0.930 . S
C104 C102 1.381 . S
C104 C103 1.387 . S
C104 H127 0.931 . S
C105 C98 1.399 . S
C105 C102 1.487 . S
C105 N137 1.343 . S
C106 C107 1.384 . S
C106 C108 1.384 . S
C106 H128 0.931 . S
C107 C106 1.384 . S
C107 C110 1.382 . S
C108 C106 1.384 . S
C108 C109 1.381 . S
C108 H129 0.930 . S
C109 C108 1.381 . S
C109 C111 1.381 . S
C109 C112 1.487 . S
C110 C107 1.382 . S
C110 C111 1.387 . S
C110 H130 0.930 . S
C111 C109 1.381 . S
C111 C110 1.387 . S
C111 H131 0.931 . S
C112 C109 1.487 . S
C112 C119 1.399 . S
C112 N137 1.343 . S
C113 C114 1.384 . S
C113 C115 1.384 . S
C113 H132 0.931 . S
C114 C113 1.384 . S
C114 C117 1.382 . S
C115 C113 1.384 . S
C115 C116 1.381 . S
C115 H133 0.930 . S
C116 C115 1.381 . S
C116 C118 1.381 . S
C116 C119 1.487 . S
C117 C114 1.382 . S
C117 C118 1.387 . S
C117 H134 0.930 . S
C118 C116 1.381 . S
C118 C117 1.387 . S
C118 H135 0.931 . S
C119 C112 1.399 . S
C119 C116 1.487 . S
C119 N136 1.343 . S
H120 C92 0.931 . S
H121 C94 0.930 . S
H122 C96 0.930 . S
H123 C97 0.931 . S
H124 C99 0.931 . S
H125 C101 0.930 . S
H126 C103 0.930 . S
H127 C104 0.931 . S
H128 C106 0.931 . S
H129 C108 0.930 . S
H130 C110 0.930 . S
H131 C111 0.931 . S
H132 C113 0.931 . S
H133 C115 0.930 . S
H134 C117 0.930 . S
H135 C118 0.931 . S
N136 C98 1.343 . S
N136 C119 1.343 . S
N137 C105 1.343 . S
N137 C112 1.343 . S
C138 C139 1.384 . S
C138 C140 1.384 . S
C138 H166 0.931 . S
C139 C138 1.384 . S
C139 C142 1.382 . S
C140 C138 1.384 . S
C140 C141 1.381 . S
C140 H167 0.930 . S
C141 C140 1.381 . S
C141 C143 1.381 . S
C141 C144 1.487 . S
C142 C139 1.382 . S
C142 C143 1.387 . S
C142 H168 0.930 . S
C143 C141 1.381 . S
C143 C142 1.387 . S
C143 H169 0.931 . S
C144 C141 1.487 . S
C144 C151 1.399 . S
C144 N182 1.343 . S
C145 C146 1.384 . S
C145 C147 1.384 . S
C145 H170 0.931 . S
C146 C145 1.384 . S
C146 C149 1.382 . S
C147 C145 1.384 . S
C147 C148 1.381 . S
C147 H171 0.930 . S
C148 C147 1.381 . S
C148 C150 1.381 . S
C148 C151 1.487 . S
C149 C146 1.382 . S
C149 C150 1.387 . S
C149 H172 0.930 . S
C150 C148 1.381 . S
C150 C149 1.387 . S
C150 H173 0.931 . S
C151 C144 1.399 . S
C151 C148 1.487 . S
C151 N183 1.343 1_655 S
C152 C153 1.384 . S
C152 C154 1.384 . S
C152 H174 0.931 . S
C153 C152 1.384 . S
C153 C156 1.382 . S
C154 C152 1.384 . S
C154 C155 1.381 . S
C154 H175 0.930 . S
C155 C154 1.381 . S
C155 C157 1.381 . S
C155 C158 1.487 . S
C156 C153 1.382 . S
C156 C157 1.387 . S
C156 H176 0.930 . S
C157 C155 1.381 . S
C157 C156 1.387 . S
C157 H177 0.931 . S
C158 C155 1.487 . S
C158 C165 1.399 . S
C158 N183 1.343 . S
C159 C160 1.384 . S
C159 C161 1.384 . S
C159 H178 0.931 . S
C160 C159 1.384 . S
C160 C163 1.382 . S
C161 C159 1.384 . S
C161 C162 1.381 . S
C161 H179 0.930 . S
C162 C161 1.381 . S
C162 C164 1.381 . S
C162 C165 1.487 . S
C163 C160 1.382 . S
C163 C164 1.387 . S
C163 H180 0.930 . S
C164 C162 1.381 . S
C164 C163 1.387 . S
C164 H181 0.931 . S
C165 C158 1.399 . S
C165 C162 1.487 . S
C165 N182 1.343 1_455 S
H166 C138 0.931 . S
H167 C140 0.930 . S
H168 C142 0.930 . S
H169 C143 0.931 . S
H170 C145 0.931 . S
H171 C147 0.930 . S
H172 C149 0.930 . S
H173 C150 0.931 . S
H174 C152 0.931 . S
H175 C154 0.930 . S
H176 C156 0.930 . S
H177 C157 0.931 . S
H178 C159 0.931 . S
H179 C161 0.930 . S
H180 C163 0.930 . S
H181 C164 0.931 . S
N182 C144 1.343 . S
N182 C165 1.343 1_655 S
N183 C151 1.343 1_455 S
N183 C158 1.343 . S
C184 C185 1.384 . S
C184 C186 1.384 . S
C184 H212 0.931 . S
C185 C184 1.384 . S
C185 C188 1.382 . S
C186 C184 1.384 . S
C186 C187 1.381 . S
C186 H213 0.930 1_556 S
C187 C186 1.381 . S
C187 C189 1.381 . S
C187 C190 1.487 . S
C188 C185 1.382 . S
C188 C189 1.387 . S
C188 H214 0.930 . S
C189 C187 1.381 . S
C189 C188 1.387 . S
C189 H215 0.931 . S
C190 C187 1.487 . S
C190 C197 1.399 1_556 S
C190 N228 1.343 1_565 S
C191 C192 1.384 . S
C191 C193 1.384 . S
C191 H216 0.931 . S
C192 C191 1.384 . S
C192 C195 1.382 . S
C193 C191 1.384 . S
C193 C194 1.381 . S
C193 H217 0.930 . S
C194 C193 1.381 . S
C194 C196 1.381 . S
C194 C197 1.487 . S
C195 C192 1.382 . S
C195 C196 1.387 . S
C195 H218 0.930 . S
C196 C194 1.381 . S
C196 C195 1.387 . S
C196 H219 0.930 . S
C197 C190 1.399 1_554 S
C197 C194 1.487 . S
C197 N229 1.343 1_565 S
C198 C199 1.384 . S
C198 C200 1.372 1_554 S
C198 H220 0.931 . S
C199 C198 1.384 . S
C199 C202 1.382 . S
C200 C198 1.372 1_556 S
C200 C201 1.367 1_556 S
C200 H221 0.958 . S
C201 C200 1.367 1_554 S
C201 C203 1.381 . S
C201 C204 1.495 . S
C202 C199 1.382 . S
C202 C203 1.387 . S
C202 H222 0.930 . S
C203 C201 1.381 . S
C203 C202 1.387 . S
C203 H223 0.931 . S
C204 C201 1.495 . S
C204 C211 1.370 1_554 S
C204 N229 1.367 . S
C205 C206 1.384 . S
C205 C207 1.384 . S
C205 H224 0.931 . S
C206 C205 1.384 . S
C206 C209 1.382 . S
C207 C205 1.384 . S
C207 C208 1.381 . S
C207 H225 0.930 . S
C208 C207 1.381 . S
C208 C210 1.381 . S
C208 C211 1.487 . S
C209 C206 1.382 . S
C209 C210 1.387 . S
C209 H226 0.930 . S
C210 C208 1.381 . S
C210 C209 1.387 . S
C210 H227 0.931 . S
C211 C204 1.370 1_556 S
C211 C208 1.487 . S
C211 N228 1.343 . S
H212 C184 0.931 . S
H213 C186 0.930 1_554 S
H214 C188 0.930 . S
H215 C189 0.931 . S
H216 C191 0.931 . S
H217 C193 0.930 . S
H218 C195 0.930 . S
H219 C196 0.930 . S
H220 C198 0.931 . S
H221 C200 0.958 . S
H222 C202 0.930 . S
H223 C203 0.931 . S
H224 C205 0.931 . S
H225 C207 0.930 . S
H226 C209 0.930 . S
H227 C210 0.931 . S
N228 C190 1.343 1_545 S
N228 C211 1.343 . S
N229 C197 1.343 1_545 S
N229 C204 1.367 . S
C230 C231 1.384 . S
C230 C232 1.384 . S
C230 H258 0.931 . S
C231 C230 1.384 . S
C231 C234 1.382 . S
C232 C230 1.384 . S
C232 C233 1.381 . S
C232 H259 0.930 . S
C233 C232 1.381 . S
C233 C235 1.381 . S
C233 C236 1.487 . S
C234 C231 1.382 . S
C234 C235 1.387 . S
C234 H260 0.930 . S
C235 C233 1.381 . S
C235 C234 1.387 . S
C235 H261 0.931 . S
C236 C233 1.487 . S
C236 C243 1.399 . S
C236 N274 1.343 . S
C237 C238 1.384 . S
C237 C239 1.384 . S
C237 H262 0.931 . S
C238 C237 1.384 . S
C238 C241 1.382 . S
C239 C237 1.384 . S
C239 C240 1.381 . S
C239 H263 0.930 . S
C240 C239 1.381 . S
C240 C242 1.381 . S
C240 C243 1.487 . S
C241 C238 1.382 . S
C241 C242 1.387 . S
C241 H264 0.930 . S
C242 C240 1.381 . S
C242 C241 1.387 . S
C242 H265 0.931 . S
C243 C236 1.399 . S
C243 C240 1.487 . S
C243 N275 1.343 . S
C244 C245 1.384 . S
C244 C246 1.384 . S
C244 H266 0.931 . S
C245 C244 1.384 . S
C245 C248 1.382 . S
C246 C244 1.384 . S
C246 C247 1.381 . S
C246 H267 0.930 . S
C247 C246 1.381 . S
C247 C249 1.381 . S
C247 C250 1.487 . S
C248 C245 1.382 . S
C248 C249 1.387 . S
C248 H268 0.930 . S
C249 C247 1.381 . S
C249 C248 1.387 . S
C249 H269 0.931 . S
C250 C247 1.487 . S
C250 C257 1.399 . S
C250 N275 1.343 . S
C251 C252 1.384 . S
C251 C253 1.384 . S
C251 H270 0.931 . S
C252 C251 1.384 . S
C252 C255 1.382 . S
C253 C251 1.384 . S
C253 C254 1.381 . S
C253 H271 0.930 . S
C254 C253 1.381 . S
C254 C256 1.381 . S
C254 C257 1.487 . S
C255 C252 1.382 . S
C255 C256 1.387 . S
C255 H272 0.930 . S
C256 C254 1.381 . S
C256 C255 1.387 . S
C256 H273 0.931 . S
C257 C250 1.399 . S
C257 C254 1.487 . S
C257 N274 1.343 . S
H258 C230 0.931 . S
H259 C232 0.930 . S
H260 C234 0.930 . S
H261 C235 0.931 . S
H262 C237 0.931 . S
H263 C239 0.930 . S
H264 C241 0.930 . S
H265 C242 0.931 . S
H266 C244 0.931 . S
H267 C246 0.930 . S
H268 C248 0.930 . S
H269 C249 0.931 . S
H270 C251 0.931 . S
H271 C253 0.930 . S
H272 C255 0.930 . S
H273 C256 0.931 . S
N274 C236 1.343 . S
N274 C257 1.343 . S
N275 C243 1.343 . S
N275 C250 1.343 . S
Mn276 O281 2.095 . S
Mn276 O291 2.162 . S
Mn276 O292 2.297 . S
Mn276 O300 2.385 . S
Mn276 O301 2.209 . S
Mn276 O302 2.094 . S
Mn277 O282 2.121 . S
Mn277 N284 2.257 . S
Mn277 N293 2.282 . S
Mn277 O301 2.215 . S
Mn277 O303 2.117 . S
C278 O300 1.234 . S
C278 O301 1.283 . S
C279 O291 1.281 . S
C279 O292 1.236 . S
C280 O302 1.240 . S
C280 O303 1.264 . S
O281 Mn276 2.095 . S
O281 C290 1.250 . S
O282 Mn277 2.121 . S
O282 C290 1.258 . S
C283 N284 1.326 . S
C283 C287 1.460 . S
C283 H289 0.929 . S
N284 Mn277 2.257 . S
N284 C283 1.326 . S
N284 C288 1.362 . S
C285 C286 1.258 . S
C285 C288 1.431 . S
C285 C305 1.449 . S
C286 C285 1.258 . S
C286 C287 1.477 . S
C286 H306 0.931 . S
C287 C283 1.460 . S
C287 C286 1.477 . S
C287 H307 0.930 . S
C288 N284 1.362 . S
C288 C285 1.431 . S
C288 C298 1.476 . S
H289 C283 0.929 . S
C290 O281 1.250 . S
C290 O282 1.258 . S
O291 Mn276 2.162 . S
O291 C279 1.281 . S
O292 Mn276 2.297 . S
O292 C279 1.236 . S
N293 Mn277 2.282 . S
N293 C294 1.328 . S
N293 C298 1.318 . S
C294 N293 1.328 . S
C294 C295 1.457 . S
C294 H299 0.929 . S
C295 C294 1.457 . S
C295 C296 1.291 . S
C295 H308 0.931 . S
C296 C295 1.291 . S
C296 C297 1.373 . S
C296 H309 0.929 . S
C297 C296 1.373 . S
C297 C298 1.396 . S
C297 C304 1.403 . S
C298 C288 1.476 . S
C298 N293 1.318 . S
C298 C297 1.396 . S
H299 C294 0.929 . S
O300 Mn276 2.385 . S
O300 C278 1.234 . S
O301 Mn276 2.209 . S
O301 Mn277 2.215 . S
O301 C278 1.283 . S
O302 Mn276 2.094 . S
O302 C280 1.240 . S
O303 Mn277 2.117 . S
O303 C280 1.264 . S
C304 C297 1.403 . S
C304 C305 1.399 . S
C304 H310 0.929 . S
C305 C285 1.449 . S
C305 C304 1.399 . S
C305 H311 0.930 . S
H306 C286 0.931 . S
H307 C287 0.930 . S
H308 C295 0.931 . S
H309 C296 0.929 . S
H310 C304 0.929 . S
H311 C305 0.930 . S
Mn312 O317 2.095 . S
Mn312 O327 2.162 . S
Mn312 O328 2.297 . S
Mn312 O336 2.385 . S
Mn312 O337 2.209 . S
Mn312 O338 2.094 . S
Mn313 O318 2.121 . S
Mn313 N320 2.257 . S
Mn313 N329 2.282 . S
Mn313 O337 2.215 . S
Mn313 O339 2.117 . S
C314 O336 1.234 . S
C314 O337 1.283 . S
C315 O327 1.281 . S
C315 O328 1.236 . S
C316 O338 1.240 . S
C316 O339 1.264 . S
O317 Mn312 2.095 . S
O317 C326 1.250 . S
O318 Mn313 2.121 . S
O318 C326 1.258 . S
C319 N320 1.326 . S
C319 C323 1.460 . S
C319 H325 0.929 . S
N320 Mn313 2.257 . S
N320 C319 1.326 . S
N320 C324 1.362 . S
C321 C322 1.258 . S
C321 C324 1.431 . S
C321 C341 1.449 . S
C322 C321 1.258 . S
C322 C323 1.477 . S
C322 H342 0.931 . S
C323 C319 1.460 . S
C323 C322 1.477 . S
C323 H343 0.930 . S
C324 N320 1.362 . S
C324 C321 1.431 . S
C324 C334 1.476 . S
H325 C319 0.929 . S
C326 O317 1.250 . S
C326 O318 1.258 . S
O327 Mn312 2.162 . S
O327 C315 1.281 . S
O328 Mn312 2.297 . S
O328 C315 1.236 . S
N329 Mn313 2.282 . S
N329 C330 1.328 . S
N329 C334 1.318 . S
C330 N329 1.328 . S
C330 C331 1.457 . S
C330 H335 0.929 . S
C331 C330 1.457 . S
C331 C332 1.291 . S
C331 H344 0.931 . S
C332 C331 1.291 . S
C332 C333 1.373 . S
C332 H345 0.929 . S
C333 C332 1.373 . S
C333 C334 1.396 . S
C333 C340 1.403 . S
C334 C324 1.476 . S
C334 N329 1.318 . S
C334 C333 1.396 . S
H335 C330 0.929 . S
O336 Mn312 2.385 . S
O336 C314 1.234 . S
O337 Mn312 2.209 . S
O337 Mn313 2.215 . S
O337 C314 1.283 . S
O338 Mn312 2.094 . S
O338 C316 1.240 . S
O339 Mn313 2.117 . S
O339 C316 1.264 . S
C340 C333 1.403 . S
C340 C341 1.399 . S
C340 H346 0.929 . S
C341 C321 1.449 . S
C341 C340 1.399 . S
C341 H347 0.930 . S
H342 C322 0.931 . S
H343 C323 0.930 . S
H344 C331 0.931 . S
H345 C332 0.929 . S
H346 C340 0.929 . S
H347 C341 0.930 . S
Mn348 O353 2.095 . S
Mn348 O363 2.162 . S
Mn348 O364 2.297 . S
Mn348 O372 2.385 . S
Mn348 O373 2.209 . S
Mn348 O374 2.094 . S
Mn349 O354 2.121 . S
Mn349 N356 2.257 . S
Mn349 N365 2.282 . S
Mn349 O373 2.215 . S
Mn349 O375 2.117 . S
C350 O372 1.234 . S
C350 O373 1.283 . S
C351 O363 1.281 . S
C351 O364 1.236 . S
C352 O374 1.240 . S
C352 O375 1.264 . S
O353 Mn348 2.095 . S
O353 C362 1.250 . S
O354 Mn349 2.121 . S
O354 C362 1.258 . S
C355 N356 1.326 . S
C355 C359 1.460 . S
C355 H361 0.929 . S
N356 Mn349 2.257 . S
N356 C355 1.326 . S
N356 C360 1.362 . S
C357 C358 1.258 . S
C357 C360 1.431 . S
C357 C377 1.449 . S
C358 C357 1.258 . S
C358 C359 1.477 . S
C358 H378 0.931 . S
C359 C355 1.460 . S
C359 C358 1.477 . S
C359 H379 0.930 . S
C360 N356 1.362 . S
C360 C357 1.431 . S
C360 C370 1.476 . S
H361 C355 0.929 . S
C362 O353 1.250 . S
C362 O354 1.258 . S
O363 Mn348 2.162 . S
O363 C351 1.281 . S
O364 Mn348 2.297 . S
O364 C351 1.236 . S
N365 Mn349 2.282 . S
N365 C366 1.328 . S
N365 C370 1.318 . S
C366 N365 1.328 . S
C366 C367 1.457 . S
C366 H371 0.929 . S
C367 C366 1.457 . S
C367 C368 1.291 . S
C367 H380 0.931 . S
C368 C367 1.291 . S
C368 C369 1.373 . S
C368 H381 0.929 . S
C369 C368 1.373 . S
C369 C370 1.396 . S
C369 C376 1.403 . S
C370 C360 1.476 . S
C370 N365 1.318 . S
C370 C369 1.396 . S
H371 C366 0.929 . S
O372 Mn348 2.385 . S
O372 C350 1.234 . S
O373 Mn348 2.209 . S
O373 Mn349 2.215 . S
O373 C350 1.283 . S
O374 Mn348 2.094 . S
O374 C352 1.240 . S
O375 Mn349 2.117 . S
O375 C352 1.264 . S
C376 C369 1.403 . S
C376 C377 1.399 . S
C376 H382 0.929 . S
C377 C357 1.449 . S
C377 C376 1.399 . S
C377 H383 0.930 . S
H378 C358 0.931 . S
H379 C359 0.930 . S
H380 C367 0.931 . S
H381 C368 0.929 . S
H382 C376 0.929 . S
H383 C377 0.930 . S
Mn384 O389 2.095 . S
Mn384 O399 2.162 . S
Mn384 O400 2.297 . S
Mn384 O408 2.385 . S
Mn384 O409 2.209 . S
Mn384 O410 2.094 . S
Mn385 O390 2.121 . S
Mn385 N392 2.257 . S
Mn385 N401 2.282 . S
Mn385 O409 2.215 . S
Mn385 O411 2.117 . S
C386 O408 1.234 . S
C386 O409 1.283 . S
C387 O399 1.281 . S
C387 O400 1.236 . S
C388 O410 1.240 . S
C388 O411 1.264 . S
O389 Mn384 2.095 . S
O389 C398 1.250 . S
O390 Mn385 2.121 . S
O390 C398 1.258 . S
C391 N392 1.326 . S
C391 C395 1.460 . S
C391 H397 0.929 . S
N392 Mn385 2.257 . S
N392 C391 1.326 . S
N392 C396 1.362 . S
C393 C394 1.258 . S
C393 C396 1.431 . S
C393 C413 1.449 . S
C394 C393 1.258 . S
C394 C395 1.477 . S
C394 H414 0.931 1_556 S
C395 C391 1.460 . S
C395 C394 1.477 . S
C395 H415 0.930 . S
C396 N392 1.362 . S
C396 C393 1.431 . S
C396 C406 1.476 . S
H397 C391 0.929 . S
C398 O389 1.250 . S
C398 O390 1.258 . S
O399 Mn384 2.162 . S
O399 C387 1.281 . S
O400 Mn384 2.297 . S
O400 C387 1.236 . S
N401 Mn385 2.282 . S
N401 C402 1.328 . S
N401 C406 1.318 . S
C402 N401 1.328 . S
C402 C403 1.457 . S
C402 H407 0.929 . S
C403 C402 1.457 . S
C403 C404 1.291 . S
C403 H416 0.931 . S
C404 C403 1.291 . S
C404 C405 1.373 . S
C404 H417 0.929 . S
C405 C404 1.373 . S
C405 C406 1.396 . S
C405 C412 1.403 . S
C406 C396 1.476 . S
C406 N401 1.318 . S
C406 C405 1.396 . S
H407 C402 0.929 . S
O408 Mn384 2.385 . S
O408 C386 1.234 . S
O409 Mn384 2.209 . S
O409 Mn385 2.215 . S
O409 C386 1.283 . S
O410 Mn384 2.094 . S
O410 C388 1.240 . S
O411 Mn385 2.117 . S
O411 C388 1.264 . S
C412 C405 1.403 . S
C412 C413 1.399 . S
C412 H418 0.929 . S
C413 C393 1.449 . S
C413 C412 1.399 . S
C413 H419 0.930 1_556 S
H414 C394 0.931 1_554 S
H415 C395 0.930 . S
H416 C403 0.931 . S
H417 C404 0.929 . S
H418 C412 0.929 . S
H419 C413 0.930 1_554 S
Mn420 O425 2.095 . S
Mn420 O435 2.162 . S
Mn420 O436 2.297 . S
Mn420 O444 2.385 . S
Mn420 O445 2.209 . S
Mn420 O446 2.094 . S
Mn421 O426 2.121 . S
Mn421 N428 2.257 . S
Mn421 N437 2.282 . S
Mn421 O445 2.215 . S
Mn421 O447 2.117 . S
C422 O444 1.234 . S
C422 O445 1.283 . S
C423 O435 1.281 . S
C423 O436 1.236 . S
C424 O446 1.240 . S
C424 O447 1.264 . S
O425 Mn420 2.095 . S
O425 C434 1.250 . S
O426 Mn421 2.121 . S
O426 C434 1.258 . S
C427 N428 1.326 . S
C427 C431 1.460 . S
C427 H433 0.929 . S
N428 Mn421 2.257 . S
N428 C427 1.326 . S
N428 C432 1.362 . S
C429 C430 1.258 . S
C429 C432 1.431 . S
C429 C449 1.449 . S
C430 C429 1.258 . S
C430 C431 1.477 . S
C430 H450 0.931 . S
C431 C427 1.460 . S
C431 C430 1.477 . S
C431 H451 0.930 . S
C432 N428 1.362 . S
C432 C429 1.431 . S
C432 C442 1.476 . S
H433 C427 0.929 . S
C434 O425 1.250 . S
C434 O426 1.258 . S
O435 Mn420 2.162 . S
O435 C423 1.281 . S
O436 Mn420 2.297 . S
O436 C423 1.236 . S
N437 Mn421 2.282 . S
N437 C438 1.328 . S
N437 C442 1.318 . S
C438 N437 1.328 . S
C438 C439 1.457 . S
C438 H443 0.929 . S
C439 C438 1.457 . S
C439 C440 1.291 . S
C439 H452 0.931 . S
C440 C439 1.291 . S
C440 C441 1.373 . S
C440 H453 0.929 . S
C441 C440 1.373 . S
C441 C442 1.396 . S
C441 C448 1.403 . S
C442 C432 1.476 . S
C442 N437 1.318 . S
C442 C441 1.396 . S
H443 C438 0.929 . S
O444 Mn420 2.385 . S
O444 C422 1.234 . S
O445 Mn420 2.209 . S
O445 Mn421 2.215 . S
O445 C422 1.283 . S
O446 Mn420 2.094 . S
O446 C424 1.240 . S
O447 Mn421 2.117 . S
O447 C424 1.264 . S
C448 C441 1.403 . S
C448 C449 1.399 . S
C448 H454 0.929 . S
C449 C429 1.449 . S
C449 C448 1.399 . S
C449 H455 0.930 . S
H450 C430 0.931 . S
H451 C431 0.930 . S
H452 C439 0.931 . S
H453 C440 0.929 . S
H454 C448 0.929 . S
H455 C449 0.930 . S
Mn456 O461 2.095 . S
Mn456 O471 2.162 . S
Mn456 O472 2.297 . S
Mn456 O480 2.385 . S
Mn456 O481 2.209 . S
Mn456 O482 2.094 . S
Mn457 O462 2.121 . S
Mn457 N464 2.257 . S
Mn457 N473 2.282 . S
Mn457 O481 2.215 . S
Mn457 O483 2.117 . S
C458 O480 1.234 . S
C458 O481 1.283 . S
C459 O471 1.281 . S
C459 O472 1.236 . S
C460 O482 1.240 . S
C460 O483 1.264 . S
O461 Mn456 2.095 . S
O461 C470 1.250 . S
O462 Mn457 2.121 . S
O462 C470 1.258 . S
C463 N464 1.326 . S
C463 C467 1.460 . S
C463 H469 0.929 . S
N464 Mn457 2.257 . S
N464 C463 1.326 . S
N464 C468 1.362 . S
C465 C466 1.258 . S
C465 C468 1.431 . S
C465 C485 1.449 . S
C466 C465 1.258 . S
C466 C467 1.477 . S
C466 H486 0.931 . S
C467 C463 1.460 . S
C467 C466 1.477 . S
C467 H487 0.930 . S
C468 N464 1.362 . S
C468 C465 1.431 . S
C468 C478 1.476 . S
H469 C463 0.929 . S
C470 O461 1.250 . S
C470 O462 1.258 . S
O471 Mn456 2.162 . S
O471 C459 1.281 . S
O472 Mn456 2.297 . S
O472 C459 1.236 . S
N473 Mn457 2.282 . S
N473 C474 1.328 . S
N473 C478 1.318 . S
C474 N473 1.328 . S
C474 C475 1.457 . S
C474 H479 0.929 . S
C475 C474 1.457 . S
C475 C476 1.291 . S
C475 H488 0.931 . S
C476 C475 1.291 . S
C476 C477 1.373 . S
C476 H489 0.929 . S
C477 C476 1.373 . S
C477 C478 1.396 . S
C477 C484 1.403 . S
C478 C468 1.476 . S
C478 N473 1.318 . S
C478 C477 1.396 . S
H479 C474 0.929 . S
O480 Mn456 2.385 . S
O480 C458 1.234 . S
O481 Mn456 2.209 . S
O481 Mn457 2.215 . S
O481 C458 1.283 . S
O482 Mn456 2.094 . S
O482 C460 1.240 . S
O483 Mn457 2.117 . S
O483 C460 1.264 . S
C484 C477 1.403 . S
C484 C485 1.399 . S
C484 H490 0.929 . S
C485 C465 1.449 . S
C485 C484 1.399 . S
C485 H491 0.930 . S
H486 C466 0.931 . S
H487 C467 0.930 . S
H488 C475 0.931 . S
H489 C476 0.929 . S
H490 C484 0.929 . S
H491 C485 0.930 . S
C492 C493 1.363 . S
C492 C498 1.379 . S
C492 N500 1.356 . S
C493 C492 1.363 . S
C493 C499 1.363 . S
C494 C495 1.363 . S
C494 C499 1.379 . S
C494 N501 1.356 . S
C495 C494 1.363 . S
C495 C498 1.363 . S
N496 C498 1.356 . S
N496 H508 0.984 . S
N496 H509 0.985 . S
N497 C499 1.356 . S
N497 H502 0.984 . S
N497 H503 0.985 . S
C498 C492 1.379 . S
C498 C495 1.363 . S
C498 N496 1.356 . S
C499 C493 1.363 . S
C499 C494 1.379 . S
C499 N497 1.356 . S
N500 C492 1.356 . S
N500 H506 0.984 . S
N500 H507 0.984 . S
N501 C494 1.356 . S
N501 H504 0.984 . S
N501 H505 0.985 . S
H502 N497 0.984 . S
H503 N497 0.985 . S
H504 N501 0.984 . S
H505 N501 0.985 . S
H506 N500 0.984 . S
H507 N500 0.984 . S
H508 N496 0.984 . S
H509 N496 0.985 . S
C510 C511 1.363 . S
C510 C516 1.379 . S
C510 N518 1.356 . S
C511 C510 1.363 . S
C511 C517 1.363 . S
C512 C513 1.363 . S
C512 C517 1.379 . S
C512 N519 1.356 . S
C513 C512 1.363 . S
C513 C516 1.363 . S
N514 C516 1.356 . S
N514 H526 0.984 . S
N514 H527 0.985 . S
N515 C517 1.356 . S
N515 H520 0.984 . S
N515 H521 0.985 . S
C516 C510 1.379 . S
C516 C513 1.363 . S
C516 N514 1.356 . S
C517 C511 1.363 . S
C517 C512 1.379 . S
C517 N515 1.356 . S
N518 C510 1.356 . S
N518 H524 0.984 . S
N518 H525 0.984 . S
N519 C512 1.356 . S
N519 H522 0.984 . S
N519 H523 0.985 . S
H520 N515 0.984 . S
H521 N515 0.985 . S
H522 N519 0.984 . S
H523 N519 0.985 . S
H524 N518 0.984 . S
H525 N518 0.984 . S
H526 N514 0.984 . S
H527 N514 0.985 . S
C528 C529 1.363 . S
C528 C534 1.379 . S
C528 N536 1.356 . S
C529 C528 1.363 . S
C529 C535 1.363 . S
C530 C531 1.363 . S
C530 C535 1.379 . S
C530 N537 1.356 . S
C531 C530 1.363 . S
C531 C534 1.363 . S
N532 C534 1.356 . S
N532 H544 0.984 . S
N532 H545 0.985 . S
N533 C535 1.356 . S
N533 H538 0.984 . S
N533 H539 0.985 . S
C534 C528 1.379 . S
C534 C531 1.363 . S
C534 N532 1.356 . S
C535 C529 1.363 . S
C535 C530 1.379 . S
C535 N533 1.356 . S
N536 C528 1.356 . S
N536 H542 0.984 . S
N536 H543 0.984 . S
N537 C530 1.356 . S
N537 H540 0.984 . S
N537 H541 0.985 . S
H538 N533 0.984 . S
H539 N533 0.985 . S
H540 N537 0.984 . S
H541 N537 0.985 . S
H542 N536 0.984 . S
H543 N536 0.984 . S
H544 N532 0.984 . S
H545 N532 0.985 . S
C546 C547 1.363 . S
C546 C552 1.379 . S
C546 N554 1.356 . S
C547 C546 1.363 . S
C547 C553 1.363 . S
C548 C549 1.363 . S
C548 C553 1.379 . S
C548 N555 1.356 . S
C549 C548 1.363 . S
C549 C552 1.363 . S
N550 C552 1.356 . S
N550 H562 0.984 . S
N550 H563 0.985 . S
N551 C553 1.356 . S
N551 H556 0.984 . S
N551 H557 0.985 . S
C552 C546 1.379 . S
C552 C549 1.363 . S
C552 N550 1.356 . S
C553 C547 1.363 . S
C553 C548 1.379 . S
C553 N551 1.356 . S
N554 C546 1.356 . S
N554 H560 0.984 . S
N554 H561 0.984 . S
N555 C548 1.356 . S
N555 H558 0.984 . S
N555 H559 0.985 . S
H556 N551 0.984 . S
H557 N551 0.985 . S
H558 N555 0.984 . S
H559 N555 0.985 . S
H560 N554 0.984 . S
H561 N554 0.984 . S
H562 N550 0.984 . S
H563 N550 0.985 . S
C564 C565 1.363 . S
C564 C570 1.379 . S
C564 N572 1.356 . S
C565 C564 1.363 . S
C565 C571 1.363 . S
C566 C567 1.363 . S
C566 C571 1.379 . S
C566 N573 1.356 . S
C567 C566 1.363 . S
C567 C570 1.363 . S
N568 C570 1.356 . S
N568 H580 0.984 . S
N568 H581 0.985 . S
N569 C571 1.356 . S
N569 H574 0.984 . S
N569 H575 0.985 1_556 S
C570 C564 1.379 . S
C570 C567 1.363 . S
C570 N568 1.356 . S
C571 C565 1.363 . S
C571 C566 1.379 . S
C571 N569 1.356 . S
N572 C564 1.356 . S
N572 H578 0.984 . S
N572 H579 0.984 . S
N573 C566 1.356 . S
N573 H576 0.984 . S
N573 H577 0.985 . S
H574 N569 0.984 . S
H575 N569 0.985 1_554 S
H576 N573 0.984 . S
H577 N573 0.985 . S
H578 N572 0.984 . S
H579 N572 0.984 . S
H580 N568 0.984 . S
H581 N568 0.985 . S
C582 C583 1.363 . S
C582 C588 1.379 . S
C582 N590 1.356 . S
C583 C582 1.363 . S
C583 C589 1.363 . S
C584 C585 1.363 . S
C584 C589 1.379 . S
C584 N591 1.356 . S
C585 C584 1.363 . S
C585 C588 1.363 . S
N586 C588 1.356 . S
N586 H598 0.984 . S
N586 H599 0.985 . S
N587 C589 1.356 . S
N587 H592 0.984 . S
N587 H593 0.985 . S
C588 C582 1.379 . S
C588 C585 1.363 . S
C588 N586 1.356 . S
C589 C583 1.363 . S
C589 C584 1.379 . S
C589 N587 1.356 . S
N590 C582 1.356 . S
N590 H596 0.984 . S
N590 H597 0.984 . S
N591 C584 1.356 . S
N591 H594 0.984 . S
N591 H595 0.985 . S
H592 N587 0.984 . S
H593 N587 0.985 . S
H594 N591 0.984 . S
H595 N591 0.985 . S
H596 N590 0.984 . S
H597 N590 0.984 . S
H598 N586 0.984 . S
H599 N586 0.985 . S
C600 C601 1.363 . S
C600 C606 1.379 . S
C600 N608 1.356 . S
C601 C600 1.363 . S
C601 C607 1.363 . S
C602 C603 1.363 . S
C602 C607 1.379 . S
C602 N609 1.356 . S
C603 C602 1.363 . S
C603 C606 1.363 . S
N604 C606 1.356 . S
N604 H616 0.984 . S
N604 H617 0.985 . S
N605 C607 1.356 . S
N605 H610 0.984 . S
N605 H611 0.985 . S
C606 C600 1.379 . S
C606 C603 1.363 . S
C606 N604 1.356 . S
C607 C601 1.363 . S
C607 C602 1.379 . S
C607 N605 1.356 . S
N608 C600 1.356 . S
N608 H614 0.984 . S
N608 H615 0.984 . S
N609 C602 1.356 . S
N609 H612 0.984 . S
N609 H613 0.985 . S
H610 N605 0.984 . S
H611 N605 0.985 . S
H612 N609 0.984 . S
H613 N609 0.985 . S
H614 N608 0.984 . S
H615 N608 0.984 . S
H616 N604 0.984 . S
H617 N604 0.985 . S
C618 C619 1.363 . S
C618 C624 1.379 . S
C618 N626 1.356 . S
C619 C618 1.363 . S
C619 C625 1.363 . S
C620 C621 1.363 . S
C620 C625 1.379 . S
C620 N627 1.356 . S
C621 C620 1.363 . S
C621 C624 1.363 . S
N622 C624 1.356 . S
N622 H634 0.984 . S
N622 H635 0.985 . S
N623 C625 1.356 . S
N623 H628 0.984 . S
N623 H629 0.985 . S
C624 C618 1.379 . S
C624 C621 1.363 . S
C624 N622 1.356 . S
C625 C619 1.363 . S
C625 C620 1.379 . S
C625 N623 1.356 . S
N626 C618 1.356 . S
N626 H632 0.984 . S
N626 H633 0.984 . S
N627 C620 1.356 . S
N627 H630 0.984 . S
N627 H631 0.985 . S
H628 N623 0.984 . S
H629 N623 0.985 . S
H630 N627 0.984 . S
H631 N627 0.985 . S
H632 N626 0.984 . S
H633 N626 0.984 . S
H634 N622 0.984 . S
H635 N622 0.985 . S
C636 C637 1.363 . S
C636 C642 1.379 . S
C636 N644 1.356 . S
C637 C636 1.363 . S
C637 C643 1.363 . S
C638 C639 1.363 . S
C638 C643 1.379 . S
C638 N645 1.356 . S
C639 C638 1.363 . S
C639 C642 1.363 . S
N640 C642 1.356 . S
N640 H652 0.984 . S
N640 H653 0.985 . S
N641 C643 1.356 . S
N641 H646 0.984 . S
N641 H647 0.985 . S
C642 C636 1.379 . S
C642 C639 1.363 . S
C642 N640 1.356 . S
C643 C637 1.363 . S
C643 C638 1.379 . S
C643 N641 1.356 . S
N644 C636 1.356 . S
N644 H650 0.984 . S
N644 H651 0.984 . S
N645 C638 1.356 . S
N645 H648 0.984 . S
N645 H649 0.985 . S
H646 N641 0.984 . S
H647 N641 0.985 . S
H648 N645 0.984 . S
H649 N645 0.985 . S
H650 N644 0.984 . S
H651 N644 0.984 . S
H652 N640 0.984 . S
H653 N640 0.985 . S
C654 C655 1.363 . S
C654 C660 1.379 . S
C654 N662 1.356 . S
C655 C654 1.363 . S
C655 C661 1.363 . S
C656 C657 1.363 . S
C656 C661 1.379 . S
C656 N663 1.356 . S
C657 C656 1.363 . S
C657 C660 1.363 . S
N658 C660 1.356 . S
N658 H670 0.984 . S
N658 H671 0.985 . S
N659 C661 1.356 . S
N659 H664 0.984 . S
N659 H665 0.985 . S
C660 C654 1.379 . S
C660 C657 1.363 . S
C660 N658 1.356 . S
C661 C655 1.363 . S
C661 C656 1.379 . S
C661 N659 1.356 . S
N662 C654 1.356 . S
N662 H668 0.984 . S
N662 H669 0.984 . S
N663 C656 1.356 . S
N663 H666 0.984 . S
N663 H667 0.985 . S
H664 N659 0.984 . S
H665 N659 0.985 . S
H666 N663 0.984 . S
H667 N663 0.985 . S
H668 N662 0.984 . S
H669 N662 0.984 . S
H670 N658 0.984 . S
H671 N658 0.985 . S
C672 C673 1.363 . S
C672 C678 1.379 . S
C672 N680 1.356 . S
C673 C672 1.363 . S
C673 C679 1.363 . S
C674 C675 1.363 . S
C674 C679 1.379 . S
C674 N681 1.356 . S
C675 C674 1.363 . S
C675 C678 1.363 . S
N676 C678 1.356 . S
N676 H688 0.984 . S
N676 H689 0.985 . S
N677 C679 1.356 . S
N677 H682 0.984 . S
N677 H683 0.985 . S
C678 C672 1.379 . S
C678 C675 1.363 . S
C678 N676 1.356 . S
C679 C673 1.363 . S
C679 C674 1.379 . S
C679 N677 1.356 . S
N680 C672 1.356 . S
N680 H686 0.984 . S
N680 H687 0.984 . S
N681 C674 1.356 . S
N681 H684 0.984 . S
N681 H685 0.985 . S
H682 N677 0.984 . S
H683 N677 0.985 . S
H684 N681 0.984 . S
H685 N681 0.985 . S
H686 N680 0.984 . S
H687 N680 0.984 . S
H688 N676 0.984 . S
H689 N676 0.985 . S
C690 C691 1.363 . S
C690 C696 1.379 . S
C690 N698 1.356 . S
C691 C690 1.363 . S
C691 C697 1.363 . S
C692 C693 1.363 . S
C692 C697 1.379 . S
C692 N699 1.356 . S
C693 C692 1.363 . S
C693 C696 1.363 . S
N694 C696 1.356 . S
N694 H706 0.984 . S
N694 H707 0.985 . S
N695 C697 1.356 . S
N695 H700 0.984 . S
N695 H701 0.985 . S
C696 C690 1.379 . S
C696 C693 1.363 . S
C696 N694 1.356 . S
C697 C691 1.363 . S
C697 C692 1.379 . S
C697 N695 1.356 . S
N698 C690 1.356 . S
N698 H704 0.984 . S
N698 H705 0.984 . S
N699 C692 1.356 . S
N699 H702 0.984 . S
N699 H703 0.985 . S
H700 N695 0.984 . S
H701 N695 0.985 . S
H702 N699 0.984 . S
H703 N699 0.985 . S
H704 N698 0.984 . S
H705 N698 0.984 . S
H706 N694 0.984 . S
H707 N694 0.985 . S
C708 C709 1.363 . S
C708 C714 1.379 . S
C708 N716 1.356 . S
C709 C708 1.363 . S
C709 C715 1.363 . S
C710 C711 1.363 . S
C710 C715 1.379 . S
C710 N717 1.356 . S
C711 C710 1.363 . S
C711 C714 1.363 . S
N712 C714 1.356 . S
N712 H724 0.984 . S
N712 H725 0.985 . S
N713 C715 1.356 . S
N713 H718 0.984 . S
N713 H719 0.985 . S
C714 C708 1.379 . S
C714 C711 1.363 . S
C714 N712 1.356 . S
C715 C709 1.363 . S
C715 C710 1.379 . S
C715 N713 1.356 . S
N716 C708 1.356 . S
N716 H722 0.984 . S
N716 H723 0.984 . S
N717 C710 1.356 . S
N717 H720 0.984 . S
N717 H721 0.985 . S
H718 N713 0.984 . S
H719 N713 0.985 . S
H720 N717 0.984 . S
H721 N717 0.985 . S
H722 N716 0.984 . S
H723 N716 0.984 . S
H724 N712 0.984 . S
H725 N712 0.985 . S
C726 C727 1.363 . S
C726 C732 1.379 . S
C726 N734 1.356 . S
C727 C726 1.363 . S
C727 C733 1.363 . S
C728 C729 1.363 . S
C728 C733 1.379 . S
C728 N735 1.356 . S
C729 C728 1.363 . S
C729 C732 1.363 . S
N730 C732 1.356 . S
N730 H742 0.984 . S
N730 H743 0.985 . S
N731 C733 1.356 . S
N731 H736 0.984 . S
N731 H737 0.985 . S
C732 C726 1.379 . S
C732 C729 1.363 . S
C732 N730 1.356 . S
C733 C727 1.363 . S
C733 C728 1.379 . S
C733 N731 1.356 . S
N734 C726 1.356 . S
N734 H740 0.984 . S
N734 H741 0.984 . S
N735 C728 1.356 . S
N735 H738 0.984 . S
N735 H739 0.985 . S
H736 N731 0.984 . S
H737 N731 0.985 . S
H738 N735 0.984 . S
H739 N735 0.985 . S
H740 N734 0.984 . S
H741 N734 0.984 . S
H742 N730 0.984 . S
H743 N730 0.985 . S
C744 C745 1.363 . S
C744 C750 1.379 . S
C744 N752 1.356 . S
C745 C744 1.363 . S
C745 C751 1.363 . S
C746 C747 1.363 . S
C746 C751 1.379 . S
C746 N753 1.356 . S
C747 C746 1.363 . S
C747 C750 1.363 . S
N748 C750 1.356 . S
N748 H760 0.984 . S
N748 H761 0.985 . S
N749 C751 1.356 . S
N749 H754 0.984 . S
N749 H755 0.985 . S
C750 C744 1.379 . S
C750 C747 1.363 . S
C750 N748 1.356 . S
C751 C745 1.363 . S
C751 C746 1.379 . S
C751 N749 1.356 . S
N752 C744 1.356 . S
N752 H758 0.984 . S
N752 H759 0.984 . S
N753 C746 1.356 . S
N753 H756 0.984 . S
N753 H757 0.985 . S
H754 N749 0.984 . S
H755 N749 0.985 . S
H756 N753 0.984 . S
H757 N753 0.985 . S
H758 N752 0.984 . S
H759 N752 0.984 . S
H760 N748 0.984 . S
H761 N748 0.985 . S
C762 C763 1.363 . S
C762 C768 1.360 1_556 S
C762 N770 1.356 . S
C763 C762 1.363 . S
C763 C769 1.363 . S
C764 C765 1.363 1_556 S
C764 C769 1.379 . S
C764 N771 1.356 . S
C765 C764 1.363 1_554 S
C765 C768 1.365 . S
N766 C768 1.377 . S
N766 H778 0.984 . S
N766 H779 0.985 . S
N767 C769 1.356 . S
N767 H772 0.984 . S
N767 H773 0.985 . S
C768 C762 1.360 1_554 S
C768 C765 1.365 . S
C768 N766 1.377 . S
C769 C763 1.363 . S
C769 C764 1.379 . S
C769 N767 1.356 . S
N770 C762 1.356 . S
N770 H776 0.984 . S
N770 H777 0.984 . S
N771 C764 1.356 . S
N771 H774 0.984 1_556 S
N771 H775 0.985 . S
H772 N767 0.984 . S
H773 N767 0.985 . S
H774 N771 0.984 1_554 S
H775 N771 0.985 . S
H776 N770 0.984 . S
H777 N770 0.984 . S
H778 N766 0.984 . S
H779 N766 0.985 . S
C780 C781 1.363 . S
C780 C786 1.379 . S
C780 N788 1.356 . S
C781 C780 1.363 . S
C781 C787 1.363 . S
C782 C783 1.363 . S
C782 C787 1.379 . S
C782 N789 1.356 . S
C783 C782 1.363 . S
C783 C786 1.363 . S
N784 C786 1.356 . S
N784 H796 0.984 . S
N784 H797 0.985 . S
N785 C787 1.356 . S
N785 H790 0.984 . S
N785 H791 0.985 . S
C786 C780 1.379 . S
C786 C783 1.363 . S
C786 N784 1.356 . S
C787 C781 1.363 . S
C787 C782 1.379 . S
C787 N785 1.356 . S
N788 C780 1.356 . S
N788 H794 0.984 . S
N788 H795 0.984 . S
N789 C782 1.356 . S
N789 H792 0.984 . S
N789 H793 0.985 . S
H790 N785 0.984 . S
H791 N785 0.985 . S
H792 N789 0.984 . S
H793 N789 0.985 . S
H794 N788 0.984 . S
H795 N788 0.984 . S
H796 N784 0.984 . S
H797 N784 0.985 . S
C798 C799 1.363 . S
C798 C804 1.379 . S
C798 N806 1.356 . S
C799 C798 1.363 . S
C799 C805 1.363 . S
C800 C801 1.363 . S
C800 C805 1.379 . S
C800 N807 1.356 . S
C801 C800 1.363 . S
C801 C804 1.363 . S
N802 C804 1.356 . S
N802 H814 0.984 . S
N802 H815 0.985 . S
N803 C805 1.356 . S
N803 H808 0.984 . S
N803 H809 0.985 . S
C804 C798 1.379 . S
C804 C801 1.363 . S
C804 N802 1.356 . S
C805 C799 1.363 . S
C805 C800 1.379 . S
C805 N803 1.356 . S
N806 C798 1.356 . S
N806 H812 0.984 . S
N806 H813 0.984 . S
N807 C800 1.356 . S
N807 H810 0.984 . S
N807 H811 0.985 . S
H808 N803 0.984 . S
H809 N803 0.985 . S
H810 N807 0.984 . S
H811 N807 0.985 . S
H812 N806 0.984 . S
H813 N806 0.984 . S
H814 N802 0.984 . S
H815 N802 0.985 . S
C816 C817 1.363 . S
C816 C822 1.379 . S
C816 N824 1.356 . S
C817 C816 1.363 . S
C817 C823 1.363 . S
C818 C819 1.363 . S
C818 C823 1.379 . S
C818 N825 1.356 . S
C819 C818 1.363 . S
C819 C822 1.363 . S
N820 C822 1.356 . S
N820 H832 0.984 . S
N820 H833 0.985 . S
N821 C823 1.356 . S
N821 H826 0.984 . S
N821 H827 0.985 . S
C822 C816 1.379 . S
C822 C819 1.363 . S
C822 N820 1.356 . S
C823 C817 1.363 . S
C823 C818 1.379 . S
C823 N821 1.356 . S
N824 C816 1.356 . S
N824 H830 0.984 . S
N824 H831 0.984 . S
N825 C818 1.356 . S
N825 H828 0.984 . S
N825 H829 0.985 . S
H826 N821 0.984 . S
H827 N821 0.985 . S
H828 N825 0.984 . S
H829 N825 0.985 . S
H830 N824 0.984 . S
H831 N824 0.984 . S
H832 N820 0.984 . S
H833 N820 0.985 . S
C834 C835 1.363 . S
C834 C840 1.379 . S
C834 N842 1.356 . S
C835 C834 1.363 . S
C835 C841 1.363 . S
C836 C837 1.363 . S
C836 C841 1.379 . S
C836 N843 1.356 . S
C837 C836 1.363 . S
C837 C840 1.363 . S
N838 C840 1.356 . S
N838 H850 0.984 . S
N838 H851 0.985 . S
N839 C841 1.356 . S
N839 H844 0.984 . S
N839 H845 0.985 . S
C840 C834 1.379 . S
C840 C837 1.363 . S
C840 N838 1.356 . S
C841 C835 1.363 . S
C841 C836 1.379 . S
C841 N839 1.356 . S
N842 C834 1.356 . S
N842 H848 0.984 . S
N842 H849 0.984 . S
N843 C836 1.356 . S
N843 H846 0.984 . S
N843 H847 0.985 . S
H844 N839 0.984 . S
H845 N839 0.985 . S
H846 N843 0.984 . S
H847 N843 0.985 . S
H848 N842 0.984 . S
H849 N842 0.984 . S
H850 N838 0.984 . S
H851 N838 0.985 . S
C852 C853 1.363 . S
C852 C858 1.379 . S
C852 N860 1.356 . S
C853 C852 1.363 . S
C853 C859 1.363 . S
C854 C855 1.363 . S
C854 C859 1.379 . S
C854 N861 1.356 . S
C855 C854 1.363 . S
C855 C858 1.363 . S
N856 C858 1.356 . S
N856 H868 0.984 . S
N856 H869 0.985 . S
N857 C859 1.356 . S
N857 H862 0.984 . S
N857 H863 0.985 . S
C858 C852 1.379 . S
C858 C855 1.363 . S
C858 N856 1.356 . S
C859 C853 1.363 . S
C859 C854 1.379 . S
C859 N857 1.356 . S
N860 C852 1.356 . S
N860 H866 0.984 . S
N860 H867 0.984 . S
N861 C854 1.356 . S
N861 H864 0.984 . S
N861 H865 0.985 . S
H862 N857 0.984 . S
H863 N857 0.985 . S
H864 N861 0.984 . S
H865 N861 0.985 . S
H866 N860 0.984 . S
H867 N860 0.984 . S
H868 N856 0.984 . S
H869 N856 0.985 . S
C870 C871 1.363 . S
C870 C876 1.379 . S
C870 N878 1.356 . S
C871 C870 1.363 . S
C871 C877 1.363 . S
C872 C873 1.363 . S
C872 C877 1.379 . S
C872 N879 1.356 . S
C873 C872 1.363 . S
C873 C876 1.363 . S
N874 C876 1.356 . S
N874 H886 0.984 . S
N874 H887 0.985 . S
N875 C877 1.356 . S
N875 H880 0.984 . S
N875 H881 0.985 . S
C876 C870 1.379 . S
C876 C873 1.363 . S
C876 N874 1.356 . S
C877 C871 1.363 . S
C877 C872 1.379 . S
C877 N875 1.356 . S
N878 C870 1.356 . S
N878 H884 0.984 . S
N878 H885 0.984 . S
N879 C872 1.356 . S
N879 H882 0.984 . S
N879 H883 0.985 . S
H880 N875 0.984 . S
H881 N875 0.985 . S
H882 N879 0.984 . S
H883 N879 0.985 . S
H884 N878 0.984 . S
H885 N878 0.984 . S
H886 N874 0.984 . S
H887 N874 0.985 . S
C888 C889 1.363 . S
C888 C894 1.379 . S
C888 N896 1.356 . S
C889 C888 1.363 . S
C889 C895 1.365 1_554 S
C890 C891 1.363 . S
C890 C895 1.377 . S
C890 N897 1.356 . S
C891 C890 1.363 . S
C891 C894 1.363 1_556 S
N892 C894 1.356 1_556 S
N892 H904 0.984 1_556 S
N892 H905 0.985 . S
N893 C895 1.357 1_554 S
N893 H898 0.984 . S
N893 H899 0.985 1_554 S
C894 C888 1.379 . S
C894 C891 1.363 1_554 S
C894 N892 1.356 1_554 S
C895 C889 1.365 1_556 S
C895 C890 1.377 . S
C895 N893 1.357 1_556 S
N896 C888 1.356 . S
N896 H902 0.984 . S
N896 H903 0.984 . S
N897 C890 1.356 . S
N897 H900 0.984 . S
N897 H901 0.985 . S
H898 N893 0.984 . S
H899 N893 0.985 1_556 S
H900 N897 0.984 . S
H901 N897 0.985 . S
H902 N896 0.984 . S
H903 N896 0.984 . S
H904 N892 0.984 1_554 S
H905 N892 0.985 . S
C906 C907 1.363 . S
C906 C912 1.379 . S
C906 N914 1.356 . S
C907 C906 1.363 . S
C907 C913 1.363 . S
C908 C909 1.363 . S
C908 C913 1.379 . S
C908 N915 1.356 . S
C909 C908 1.363 . S
C909 C912 1.363 . S
N910 C912 1.356 . S
N910 H922 0.984 . S
N910 H923 0.985 . S
N911 C913 1.356 . S
N911 H916 0.984 . S
N911 H917 0.985 . S
C912 C906 1.379 . S
C912 C909 1.363 . S
C912 N910 1.356 . S
C913 C907 1.363 . S
C913 C908 1.379 . S
C913 N911 1.356 . S
N914 C906 1.356 . S
N914 H920 0.984 . S
N914 H921 0.984 . S
N915 C908 1.356 . S
N915 H918 0.984 . S
N915 H919 0.985 . S
H916 N911 0.984 . S
H917 N911 0.985 . S
H918 N915 0.984 . S
H919 N915 0.985 . S
H920 N914 0.984 . S
H921 N914 0.984 . S
H922 N910 0.984 . S
H923 N910 0.985 . S
C495 C459 1.624 . S
C493 C15 1.592 . S
C511 C61 1.626 . S
C513 C279 1.661 . S
C529 C114 1.606 . S
C531 C326 1.656 . S
C547 C139 1.569 . S
C549 C362 1.590 . S
C567 C387 1.603 . S
C565 C185 1.589 . S
C583 C245 1.574 . S
C585 C423 1.605 . S
C601 C47 1.635 . S
C603 C315 1.653 . S
C619 C100 1.594 . S
C621 C351 1.608 . S
C637 C153 1.543 . S
C639 C398 1.579 . S
C657 C434 1.636 . S
C655 C199 1.589 . S
C675 C470 1.645 . S
C673 C231 1.617 . S
C693 C290 1.660 . S
C691 C1 1.630 . S
C709 C22 1.481 . S
C711 C314 1.469 . S
C727 C68 1.492 . S
C729 C350 1.482 . S
C747 C388 1.490 . S
C745 C107 1.494 . S
C763 C146 1.497 . S
C765 C424 1.491 . S
C783 C460 1.461 . S
C781 C192 1.467 . S
C801 C280 1.452 . S
C799 C252 1.457 . S
C819 C458 1.465 . S
C817 C54 1.478 . S
C835 C93 1.478 . S
C837 C278 1.464 . S
C855 C316 1.475 . S
C853 C160 1.479 . S
C871 C206 1.489 . S
C873 C352 1.486 . S
C889 C238 1.518 . S
C891 C386 1.506 . S
C907 C8 1.506 . S
C909 C422 1.493 . S
