# Generated by pormake.
# Topology llk, (3,12)-cn, num edge types: 1
# Building blocks:
#     Node 0, Type 0, BuildingBlock: BELTOD_clean_linker_0, # of connection points: 3
#     Node 1, Type 0, BuildingBlock: BELTOD_clean_linker_0, # of connection points: 3
#     Node 2, Type 0, BuildingBlock: BELTOD_clean_linker_0, # of connection points: 3
#     Node 3, Type 0, BuildingBlock: BELTOD_clean_linker_0, # of connection points: 3
#     Node 4, Type 0, BuildingBlock: BELTOD_clean_linker_0, # of connection points: 3
#     Node 5, Type 0, BuildingBlock: BELTOD_clean_linker_0, # of connection points: 3
#     Node 6, Type 0, BuildingBlock: BELTOD_clean_linker_0, # of connection points: 3
#     Node 7, Type 0, BuildingBlock: BELTOD_clean_linker_0, # of connection points: 3
#     Node 8, Type 0, BuildingBlock: BELTOD_clean_linker_0, # of connection points: 3
#     Node 9, Type 0, BuildingBlock: BELTOD_clean_linker_0, # of connection points: 3
#     Node 10, Type 0, BuildingBlock: BELTOD_clean_linker_0, # of connection points: 3
#     Node 11, Type 0, BuildingBlock: BELTOD_clean_linker_0, # of connection points: 3
#     Node 12, Type 0, BuildingBlock: BELTOD_clean_linker_0, # of connection points: 3
#     Node 13, Type 0, BuildingBlock: BELTOD_clean_linker_0, # of connection points: 3
#     Node 14, Type 0, BuildingBlock: BELTOD_clean_linker_0, # of connection points: 3
#     Node 15, Type 0, BuildingBlock: BELTOD_clean_linker_0, # of connection points: 3
#     Node 16, Type 0, BuildingBlock: BELTOD_clean_linker_0, # of connection points: 3
#     Node 17, Type 0, BuildingBlock: BELTOD_clean_linker_0, # of connection points: 3
#     Node 18, Type 0, BuildingBlock: BELTOD_clean_linker_0, # of connection points: 3
#     Node 19, Type 0, BuildingBlock: BELTOD_clean_linker_0, # of connection points: 3
#     Node 20, Type 0, BuildingBlock: BELTOD_clean_linker_0, # of connection points: 3
#     Node 21, Type 0, BuildingBlock: BELTOD_clean_linker_0, # of connection points: 3
#     Node 22, Type 0, BuildingBlock: BELTOD_clean_linker_0, # of connection points: 3
#     Node 23, Type 0, BuildingBlock: BELTOD_clean_linker_0, # of connection points: 3
#     Node 24, Type 1, BuildingBlock: EZIPEK_clean_sbu_0, # of connection points: 12
#     Node 25, Type 1, BuildingBlock: EZIPEK_clean_sbu_0, # of connection points: 12
#     Node 26, Type 1, BuildingBlock: EZIPEK_clean_sbu_0, # of connection points: 12
#     Node 27, Type 1, BuildingBlock: EZIPEK_clean_sbu_0, # of connection points: 12
#     Node 28, Type 1, BuildingBlock: EZIPEK_clean_sbu_0, # of connection points: 12
#     Node 29, Type 1, BuildingBlock: EZIPEK_clean_sbu_0, # of connection points: 12
#     Edge 30, Type (0, 1), BuildingBlock: UVAHIK_clean_linker_0, # of connection points: 2
#     Edge 31, Type (0, 1), BuildingBlock: UVAHIK_clean_linker_0, # of connection points: 2
#     Edge 32, Type (0, 1), BuildingBlock: UVAHIK_clean_linker_0, # of connection points: 2
#     Edge 33, Type (0, 1), BuildingBlock: UVAHIK_clean_linker_0, # of connection points: 2
#     Edge 34, Type (0, 1), BuildingBlock: UVAHIK_clean_linker_0, # of connection points: 2
#     Edge 35, Type (0, 1), BuildingBlock: UVAHIK_clean_linker_0, # of connection points: 2
#     Edge 36, Type (0, 1), BuildingBlock: UVAHIK_clean_linker_0, # of connection points: 2
#     Edge 37, Type (0, 1), BuildingBlock: UVAHIK_clean_linker_0, # of connection points: 2
#     Edge 38, Type (0, 1), BuildingBlock: UVAHIK_clean_linker_0, # of connection points: 2
#     Edge 39, Type (0, 1), BuildingBlock: UVAHIK_clean_linker_0, # of connection points: 2
#     Edge 40, Type (0, 1), BuildingBlock: UVAHIK_clean_linker_0, # of connection points: 2
#     Edge 41, Type (0, 1), BuildingBlock: UVAHIK_clean_linker_0, # of connection points: 2
#     Edge 42, Type (0, 1), BuildingBlock: UVAHIK_clean_linker_0, # of connection points: 2
#     Edge 43, Type (0, 1), BuildingBlock: UVAHIK_clean_linker_0, # of connection points: 2
#     Edge 44, Type (0, 1), BuildingBlock: UVAHIK_clean_linker_0, # of connection points: 2
#     Edge 45, Type (0, 1), BuildingBlock: UVAHIK_clean_linker_0, # of connection points: 2
#     Edge 46, Type (0, 1), BuildingBlock: UVAHIK_clean_linker_0, # of connection points: 2
#     Edge 47, Type (0, 1), BuildingBlock: UVAHIK_clean_linker_0, # of connection points: 2
#     Edge 48, Type (0, 1), BuildingBlock: UVAHIK_clean_linker_0, # of connection points: 2
#     Edge 49, Type (0, 1), BuildingBlock: UVAHIK_clean_linker_0, # of connection points: 2
#     Edge 50, Type (0, 1), BuildingBlock: UVAHIK_clean_linker_0, # of connection points: 2
#     Edge 51, Type (0, 1), BuildingBlock: UVAHIK_clean_linker_0, # of connection points: 2
#     Edge 52, Type (0, 1), BuildingBlock: UVAHIK_clean_linker_0, # of connection points: 2
#     Edge 53, Type (0, 1), BuildingBlock: UVAHIK_clean_linker_0, # of connection points: 2
#     Edge 54, Type (0, 1), BuildingBlock: UVAHIK_clean_linker_0, # of connection points: 2
#     Edge 55, Type (0, 1), BuildingBlock: UVAHIK_clean_linker_0, # of connection points: 2
#     Edge 56, Type (0, 1), BuildingBlock: UVAHIK_clean_linker_0, # of connection points: 2
#     Edge 57, Type (0, 1), BuildingBlock: UVAHIK_clean_linker_0, # of connection points: 2
#     Edge 58, Type (0, 1), BuildingBlock: UVAHIK_clean_linker_0, # of connection points: 2
#     Edge 59, Type (0, 1), BuildingBlock: UVAHIK_clean_linker_0, # of connection points: 2
#     Edge 60, Type (0, 1), BuildingBlock: UVAHIK_clean_linker_0, # of connection points: 2
#     Edge 61, Type (0, 1), BuildingBlock: UVAHIK_clean_linker_0, # of connection points: 2
#     Edge 62, Type (0, 1), BuildingBlock: UVAHIK_clean_linker_0, # of connection points: 2
#     Edge 63, Type (0, 1), BuildingBlock: UVAHIK_clean_linker_0, # of connection points: 2
#     Edge 64, Type (0, 1), BuildingBlock: UVAHIK_clean_linker_0, # of connection points: 2
#     Edge 65, Type (0, 1), BuildingBlock: UVAHIK_clean_linker_0, # of connection points: 2
#     Edge 66, Type (0, 1), BuildingBlock: UVAHIK_clean_linker_0, # of connection points: 2
#     Edge 67, Type (0, 1), BuildingBlock: UVAHIK_clean_linker_0, # of connection points: 2
#     Edge 68, Type (0, 1), BuildingBlock: UVAHIK_clean_linker_0, # of connection points: 2
#     Edge 69, Type (0, 1), BuildingBlock: UVAHIK_clean_linker_0, # of connection points: 2
#     Edge 70, Type (0, 1), BuildingBlock: UVAHIK_clean_linker_0, # of connection points: 2
#     Edge 71, Type (0, 1), BuildingBlock: UVAHIK_clean_linker_0, # of connection points: 2
#     Edge 72, Type (0, 1), BuildingBlock: UVAHIK_clean_linker_0, # of connection points: 2
#     Edge 73, Type (0, 1), BuildingBlock: UVAHIK_clean_linker_0, # of connection points: 2
#     Edge 74, Type (0, 1), BuildingBlock: UVAHIK_clean_linker_0, # of connection points: 2
#     Edge 75, Type (0, 1), BuildingBlock: UVAHIK_clean_linker_0, # of connection points: 2
#     Edge 76, Type (0, 1), BuildingBlock: UVAHIK_clean_linker_0, # of connection points: 2
#     Edge 77, Type (0, 1), BuildingBlock: UVAHIK_clean_linker_0, # of connection points: 2
#     Edge 78, Type (0, 1), BuildingBlock: UVAHIK_clean_linker_0, # of connection points: 2
#     Edge 79, Type (0, 1), BuildingBlock: UVAHIK_clean_linker_0, # of connection points: 2
#     Edge 80, Type (0, 1), BuildingBlock: UVAHIK_clean_linker_0, # of connection points: 2
#     Edge 81, Type (0, 1), BuildingBlock: UVAHIK_clean_linker_0, # of connection points: 2
#     Edge 82, Type (0, 1), BuildingBlock: UVAHIK_clean_linker_0, # of connection points: 2
#     Edge 83, Type (0, 1), BuildingBlock: UVAHIK_clean_linker_0, # of connection points: 2
#     Edge 84, Type (0, 1), BuildingBlock: UVAHIK_clean_linker_0, # of connection points: 2
#     Edge 85, Type (0, 1), BuildingBlock: UVAHIK_clean_linker_0, # of connection points: 2
#     Edge 86, Type (0, 1), BuildingBlock: UVAHIK_clean_linker_0, # of connection points: 2
#     Edge 87, Type (0, 1), BuildingBlock: UVAHIK_clean_linker_0, # of connection points: 2
#     Edge 88, Type (0, 1), BuildingBlock: UVAHIK_clean_linker_0, # of connection points: 2
#     Edge 89, Type (0, 1), BuildingBlock: UVAHIK_clean_linker_0, # of connection points: 2
#     Edge 90, Type (0, 1), BuildingBlock: UVAHIK_clean_linker_0, # of connection points: 2
#     Edge 91, Type (0, 1), BuildingBlock: UVAHIK_clean_linker_0, # of connection points: 2
#     Edge 92, Type (0, 1), BuildingBlock: UVAHIK_clean_linker_0, # of connection points: 2
#     Edge 93, Type (0, 1), BuildingBlock: UVAHIK_clean_linker_0, # of connection points: 2
#     Edge 94, Type (0, 1), BuildingBlock: UVAHIK_clean_linker_0, # of connection points: 2
#     Edge 95, Type (0, 1), BuildingBlock: UVAHIK_clean_linker_0, # of connection points: 2
#     Edge 96, Type (0, 1), BuildingBlock: UVAHIK_clean_linker_0, # of connection points: 2
#     Edge 97, Type (0, 1), BuildingBlock: UVAHIK_clean_linker_0, # of connection points: 2
#     Edge 98, Type (0, 1), BuildingBlock: UVAHIK_clean_linker_0, # of connection points: 2
#     Edge 99, Type (0, 1), BuildingBlock: UVAHIK_clean_linker_0, # of connection points: 2
#     Edge 100, Type (0, 1), BuildingBlock: UVAHIK_clean_linker_0, # of connection points: 2
#     Edge 101, Type (0, 1), BuildingBlock: UVAHIK_clean_linker_0, # of connection points: 2
# Relax obj value: 0.097
# Max RMSD: 0.145
# Mean RMSD: 0.122
data_MOF--net-llk--node1-EZIPEK_clean_sbu_0--node2-BELTOD_clean_linker_0--edge1-UVAHIK_clean_linker_0
_symmetry_space_group_name_H-M    P1
_symmetry_Int_Tables_number       1
_symmetry_cell_setting            triclinic
loop_
_symmetry_equiv_pos_as_xyz
'x, y, z'
_cell_length_a     65.079103
_cell_length_b     65.258985
_cell_length_c     64.971927
_cell_angle_alpha  89.998421
_cell_angle_beta   89.998928
_cell_angle_gamma 90.006905
loop_
_atom_site_label
_atom_site_type_symbol
_atom_site_fract_x
_atom_site_fract_y
_atom_site_fract_z
_atom_type_partial_charge
P0 P 0.96111 0.24827 0.25048 0.0
H1 H 0.95518 0.25008 0.20584 0.0
H2 H 0.96785 0.27406 0.18002 0.0
H3 H 0.00959 0.29985 0.2248 0.0
H4 H 0.99646 0.27609 0.25071 0.0
H5 H 0.94847 0.20619 0.25885 0.0
H6 H 0.96311 0.17982 0.28092 0.0
H7 H 0.01773 0.21656 0.28891 0.0
H8 H 0.00295 0.24301 0.26665 0.0
H9 H 0.94641 0.29043 0.2496 0.0
H10 H 0.96542 0.24684 0.29581 0.0
O11 O 0.93827 0.24071 0.24158 0.0
H12 H 0.94474 0.31721 0.27583 0.0
H13 H 0.96467 0.27355 0.32174 0.0
C14 C 0.97477 0.26136 0.23024 0.0
C15 C 0.96743 0.26051 0.20998 0.0
C16 C 0.97475 0.27426 0.19518 0.0
C17 C 0.98954 0.28911 0.20041 0.0
C18 C 0.99794 0.28885 0.22036 0.0
C19 C 0.99063 0.27507 0.23513 0.0
C20 C 0.97466 0.22654 0.26095 0.0
C21 C 0.9639 0.20832 0.26471 0.0
C22 C 0.9723 0.19321 0.27739 0.0
C23 C 0.99152 0.19618 0.2868 0.0
C24 C 0.00282 0.21393 0.28201 0.0
C25 C 0.99448 0.22895 0.26909 0.0
C26 C 0.95668 0.26679 0.27056 0.0
C27 C 0.95014 0.28659 0.26539 0.0
C28 C 0.94933 0.30192 0.28037 0.0
C29 C 0.95495 0.29764 0.30083 0.0
C30 C 0.96019 0.27742 0.30617 0.0
C31 C 0.96089 0.2621 0.2912 0.0
P32 P 0.75662 0.9561 0.25089 0.0
H33 H 0.75522 0.94573 0.20708 0.0
H34 H 0.7324 0.957 0.17949 0.0
H35 H 0.70763 0.0038 0.21948 0.0
H36 H 0.73078 0.99266 0.24686 0.0
H37 H 0.79955 0.94413 0.25635 0.0
H38 H 0.82695 0.95872 0.27721 0.0
H39 H 0.78969 0.0123 0.2886 0.0
H40 H 0.76218 0.99754 0.26755 0.0
H41 H 0.71292 0.94601 0.25038 0.0
H42 H 0.75872 0.96079 0.29607 0.0
O43 O 0.76344 0.9323 0.2444 0.0
H44 H 0.68632 0.94685 0.27686 0.0
H45 H 0.73222 0.96261 0.32231 0.0
C46 C 0.74456 0.96822 0.22909 0.0
C47 C 0.74528 0.95877 0.20975 0.0
C48 C 0.73208 0.96512 0.19403 0.0
C49 C 0.71787 0.98102 0.19741 0.0
C50 C 0.7184 0.99155 0.2163 0.0
C51 C 0.73168 0.98521 0.232 0.0
C52 C 0.77878 0.96972 0.2604 0.0
C53 C 0.79747 0.95931 0.26273 0.0
C54 C 0.81318 0.9677 0.2747 0.0
C55 C 0.8104 0.98657 0.28475 0.0
C56 C 0.79219 0.99763 0.28121 0.0
C57 C 0.77655 0.98932 0.26899 0.0
C58 C 0.73768 0.95419 0.27104 0.0
C59 C 0.71725 0.94952 0.26608 0.0
C60 C 0.70204 0.95011 0.28123 0.0
C61 C 0.70704 0.95524 0.30166 0.0
C62 C 0.72777 0.95862 0.30677 0.0
C63 C 0.74297 0.95787 0.29163 0.0
P64 P 0.04312 0.75551 0.24902 0.0
H65 H 0.05714 0.74969 0.2067 0.0
H66 H 0.04413 0.72834 0.17889 0.0
H67 H 0.98897 0.71649 0.2139 0.0
H68 H 0.00217 0.73796 0.24184 0.0
H69 H 0.05213 0.79939 0.25181 0.0
H70 H 0.03908 0.82593 0.27473 0.0
H71 H 0.9916 0.78461 0.29574 0.0
H72 H 0.00513 0.75793 0.27311 0.0
H73 H 0.03974 0.71039 0.24694 0.0
H74 H 0.0524 0.7564 0.29295 0.0
O75 O 0.06689 0.76301 0.24295 0.0
H76 H 0.03843 0.68425 0.27349 0.0
H77 H 0.05211 0.73005 0.31961 0.0
C78 C 0.03063 0.74547 0.22638 0.0
C79 C 0.04195 0.74309 0.20819 0.0
C80 C 0.03447 0.73084 0.19223 0.0
C81 C 0.0156 0.72054 0.19427 0.0
C82 C 0.00366 0.72406 0.21198 0.0
C83 C 0.01108 0.73654 0.22786 0.0
C84 C 0.02969 0.77663 0.26082 0.0
C85 C 0.03859 0.79618 0.26093 0.0
C86 C 0.03104 0.81141 0.27405 0.0
C87 C 0.01445 0.80732 0.28732 0.0
C88 C 0.00462 0.78815 0.28599 0.0
C89 C 0.01217 0.77295 0.27283 0.0
C90 C 0.04529 0.73554 0.26805 0.0
C91 C 0.0423 0.71493 0.26274 0.0
C92 C 0.04186 0.69986 0.27798 0.0
C93 C 0.04483 0.70506 0.29878 0.0
C94 C 0.04919 0.72558 0.30383 0.0
C95 C 0.04947 0.74065 0.28858 0.0
P96 P 0.25087 0.95273 0.24812 0.0
H97 H 0.21565 0.93005 0.26344 0.0
H98 H 0.18837 0.93947 0.28733 0.0
H99 H 0.2069 0.00284 0.28353 0.0
H100 H 0.23453 0.99329 0.25965 0.0
H101 H 0.25258 0.94522 0.20377 0.0
H102 H 0.2735 0.96082 0.17693 0.0
H103 H 0.29042 0.00949 0.2187 0.0
H104 H 0.26957 0.9936 0.24565 0.0
H105 H 0.24916 0.95086 0.29342 0.0
H106 H 0.29582 0.95437 0.24632 0.0
O107 O 0.24838 0.92852 0.24023 0.0
H108 H 0.27537 0.95412 0.31983 0.0
H109 H 0.32205 0.95873 0.27267 0.0
C110 C 0.22701 0.96099 0.2595 0.0
C111 C 0.21347 0.94608 0.26709 0.0
C112 C 0.19798 0.95144 0.28092 0.0
C113 C 0.19569 0.97183 0.28738 0.0
C114 C 0.2083 0.98702 0.27868 0.0
C115 C 0.22402 0.98159 0.26496 0.0
C116 C 0.2597 0.9681 0.2268 0.0
C117 C 0.26022 0.9596 0.207 0.0
C118 C 0.27221 0.96859 0.1916 0.0
C119 C 0.28393 0.98622 0.19579 0.0
C120 C 0.28184 0.99573 0.21511 0.0
C121 C 0.2697 0.98679 0.23045 0.0
C122 C 0.27039 0.9532 0.26779 0.0
C123 C 0.265 0.95253 0.28868 0.0
C124 C 0.28005 0.9545 0.30385 0.0
C125 C 0.30081 0.95716 0.29842 0.0
C126 C 0.30625 0.9567 0.27747 0.0
C127 C 0.29119 0.95446 0.26232 0.0
P128 P 0.95309 0.75339 0.75604 0.0
H129 H 0.94883 0.75211 0.8008 0.0
H130 H 0.96435 0.72959 0.82637 0.0
H131 H 0.00788 0.70832 0.78092 0.0
H132 H 0.99212 0.73089 0.75532 0.0
H133 H 0.92941 0.78471 0.73575 0.0
H134 H 0.93926 0.81233 0.71255 0.0
H135 H 0.00306 0.80258 0.72777 0.0
H136 H 0.99305 0.77459 0.75115 0.0
H137 H 0.93415 0.71311 0.75199 0.0
H138 H 0.9728 0.75246 0.71519 0.0
O139 O 0.92915 0.75541 0.76502 0.0
H140 H 0.93627 0.68656 0.72536 0.0
H141 H 0.97514 0.7262 0.68897 0.0
C142 C 0.96909 0.74293 0.77608 0.0
C143 C 0.96212 0.7431 0.79648 0.0
C144 C 0.97105 0.73018 0.81112 0.0
C145 C 0.98711 0.71684 0.80558 0.0
C146 C 0.99526 0.71811 0.78556 0.0
C147 C 0.98638 0.73115 0.77095 0.0
C148 C 0.96046 0.77779 0.74542 0.0
C149 C 0.94547 0.78897 0.73477 0.0
C150 C 0.95112 0.80461 0.72133 0.0
C151 C 0.97191 0.80939 0.71823 0.0
C152 C 0.98691 0.79922 0.73 0.0
C153 C 0.98121 0.78335 0.74344 0.0
C154 C 0.95293 0.73493 0.73546 0.0
C155 C 0.94281 0.71616 0.73809 0.0
C156 C 0.94418 0.70097 0.72297 0.0
C157 C 0.95576 0.70436 0.70501 0.0
C158 C 0.96574 0.72327 0.70242 0.0
C159 C 0.96442 0.73836 0.71753 0.0
P160 P 0.24709 0.95213 0.75507 0.0
H161 H 0.26268 0.92944 0.7902 0.0
H162 H 0.28627 0.93905 0.81769 0.0
H163 H 0.28151 0.00248 0.79958 0.0
H164 H 0.25793 0.99275 0.77175 0.0
H165 H 0.203 0.94363 0.75323 0.0
H166 H 0.17584 0.9589 0.73252 0.0
H167 H 0.2164 0.00875 0.71624 0.0
H168 H 0.24369 0.99317 0.73685 0.0
H169 H 0.2923 0.95077 0.75675 0.0
H170 H 0.24526 0.95448 0.71006 0.0
O171 O 0.23972 0.92773 0.75733 0.0
H172 H 0.31866 0.95454 0.73053 0.0
H173 H 0.27153 0.95938 0.68385 0.0
C174 C 0.25828 0.96039 0.77904 0.0
C175 C 0.26605 0.94551 0.79252 0.0
C176 C 0.27972 0.95098 0.80812 0.0
C177 C 0.28581 0.97146 0.8106 0.0
C178 C 0.27693 0.9866 0.79804 0.0
C179 C 0.26338 0.98106 0.78221 0.0
C180 C 0.22546 0.96712 0.74641 0.0
C181 C 0.20589 0.95818 0.74577 0.0
C182 C 0.19031 0.96698 0.73391 0.0
C183 C 0.19407 0.98487 0.72242 0.0
C184 C 0.21314 0.99478 0.72464 0.0
C185 C 0.22868 0.98602 0.73664 0.0
C186 C 0.26671 0.95317 0.73551 0.0
C187 C 0.28756 0.95261 0.74091 0.0
C188 C 0.30269 0.95488 0.72585 0.0
C189 C 0.29726 0.95772 0.70509 0.0
C190 C 0.27634 0.9572 0.69965 0.0
C191 C 0.26124 0.95466 0.7147 0.0
P192 P 0.05074 0.25072 0.75775 0.0
H193 H 0.05704 0.25159 0.80227 0.0
H194 H 0.04148 0.27273 0.82896 0.0
H195 H 0.99471 0.2922 0.78599 0.0
H196 H 0.01054 0.27107 0.75923 0.0
H197 H 0.07457 0.22126 0.73504 0.0
H198 H 0.06478 0.19362 0.71186 0.0
H199 H 0.00156 0.19987 0.73091 0.0
H200 H 0.01152 0.22784 0.75433 0.0
H201 H 0.07146 0.29001 0.75195 0.0
H202 H 0.02626 0.25367 0.71987 0.0
O203 O 0.07506 0.2492 0.76578 0.0
H204 H 0.06848 0.31667 0.72551 0.0
H205 H 0.0231 0.28007 0.69378 0.0
C206 C 0.03517 0.26003 0.77867 0.0
C207 C 0.04308 0.2599 0.79873 0.0
C208 C 0.03411 0.27202 0.81403 0.0
C209 C 0.01706 0.28449 0.8095 0.0
C210 C 0.00808 0.2831 0.78985 0.0
C211 C 0.01703 0.27088 0.77458 0.0
C212 C 0.04384 0.22642 0.74663 0.0
C213 C 0.0587 0.21625 0.73486 0.0
C214 C 0.05307 0.20059 0.72143 0.0
C215 C 0.03239 0.19481 0.71944 0.0
C216 C 0.01762 0.20401 0.73226 0.0
C217 C 0.0233 0.21988 0.74571 0.0
C218 C 0.04953 0.26961 0.73762 0.0
C219 C 0.06111 0.28765 0.73912 0.0
C220 C 0.05926 0.30292 0.72412 0.0
C221 C 0.0457 0.30035 0.70746 0.0
C222 C 0.03403 0.2823 0.70616 0.0
C223 C 0.03584 0.26714 0.72115 0.0
P224 P 0.75718 0.0495 0.75562 0.0
H225 H 0.74451 0.07126 0.79249 0.0
H226 H 0.7214 0.06159 0.82037 0.0
H227 H 0.72215 0.99892 0.79929 0.0
H228 H 0.74521 0.00872 0.77101 0.0
H229 H 0.80143 0.05664 0.75279 0.0
H230 H 0.82745 0.04154 0.73055 0.0
H231 H 0.78475 0.99394 0.713 0.0
H232 H 0.75862 0.00931 0.73527 0.0
H233 H 0.71215 0.05214 0.75955 0.0
H234 H 0.75678 0.0487 0.71051 0.0
O235 O 0.76532 0.0736 0.75839 0.0
H236 H 0.68447 0.04994 0.73455 0.0
H237 H 0.72917 0.04537 0.68549 0.0
C238 C 0.74683 0.04067 0.77977 0.0
C239 C 0.7404 0.05528 0.79423 0.0
C240 C 0.72703 0.04979 0.81008 0.0
C241 C 0.71992 0.02957 0.81183 0.0
C242 C 0.72755 0.01459 0.7983 0.0
C243 C 0.7408 0.02016 0.78223 0.0
C244 C 0.77799 0.03428 0.74548 0.0
C245 C 0.79782 0.04259 0.7447 0.0
C246 C 0.81275 0.03389 0.73195 0.0
C247 C 0.80806 0.01673 0.71971 0.0
C248 C 0.78872 0.00736 0.72198 0.0
C249 C 0.77385 0.01599 0.7349 0.0
C250 C 0.73662 0.04972 0.73702 0.0
C251 C 0.71608 0.05069 0.74345 0.0
C252 C 0.70018 0.04933 0.72909 0.0
C253 C 0.70453 0.04702 0.70801 0.0
C254 C 0.72518 0.04716 0.70157 0.0
C255 C 0.74105 0.04879 0.71593 0.0
P256 P 0.24823 0.25096 0.95509 0.0
H257 H 0.24922 0.20733 0.94465 0.0
H258 H 0.27183 0.1797 0.95595 0.0
H259 H 0.29673 0.21921 0.00313 0.0
H260 H 0.27378 0.24665 0.99197 0.0
H261 H 0.20535 0.25681 0.94311 0.0
H262 H 0.1782 0.27798 0.95765 0.0
H263 H 0.21571 0.2894 0.01128 0.0
H264 H 0.24297 0.26802 0.99657 0.0
H265 H 0.29186 0.24956 0.94479 0.0
H266 H 0.24709 0.29599 0.95985 0.0
O267 O 0.24131 0.24454 0.93121 0.0
H268 H 0.31903 0.27535 0.94562 0.0
H269 H 0.27416 0.32153 0.9617 0.0
C270 C 0.25995 0.22911 0.96734 0.0
C271 C 0.25911 0.20989 0.95779 0.0
C272 C 0.27221 0.19414 0.96415 0.0
C273 C 0.28641 0.19738 0.98016 0.0
C274 C 0.28596 0.21615 0.9908 0.0
C275 C 0.27279 0.23187 0.98446 0.0
C276 C 0.22623 0.26086 0.96872 0.0
C277 C 0.20754 0.26328 0.95829 0.0
C278 C 0.19197 0.27542 0.96665 0.0
C279 C 0.1949 0.28555 0.98552 0.0
C280 C 0.21311 0.28195 0.99661 0.0
C281 C 0.2286 0.26955 0.98833 0.0
C282 C 0.26757 0.27064 0.95311 0.0
C283 C 0.28787 0.26528 0.94836 0.0
C284 C 0.30341 0.28002 0.94894 0.0
C285 C 0.29887 0.30045 0.95417 0.0
C286 C 0.27826 0.30597 0.95763 0.0
C287 C 0.26273 0.29124 0.95687 0.0
P288 P 0.25053 0.75584 0.9561 0.0
H289 H 0.20689 0.75477 0.94524 0.0
H290 H 0.17915 0.73213 0.95627 0.0
H291 H 0.21826 0.70773 0.00411 0.0
H292 H 0.2458 0.73073 0.99322 0.0
H293 H 0.25623 0.79846 0.94354 0.0
H294 H 0.27731 0.82583 0.9577 0.0
H295 H 0.28885 0.78926 0.0119 0.0
H296 H 0.26754 0.76176 0.99756 0.0
H297 H 0.24917 0.71223 0.94626 0.0
H298 H 0.29565 0.75698 0.96127 0.0
O299 O 0.24432 0.76239 0.93206 0.0
H300 H 0.275 0.68515 0.94746 0.0
H301 H 0.32124 0.73 0.96347 0.0
C302 C 0.22849 0.74429 0.96827 0.0
C303 C 0.20933 0.74498 0.95847 0.0
C304 C 0.19352 0.73187 0.96468 0.0
C305 C 0.19663 0.71777 0.98078 0.0
C306 C 0.2153 0.7184 0.99169 0.0
C307 C 0.23108 0.7316 0.9855 0.0
C308 C 0.26034 0.77801 0.96945 0.0
C309 C 0.26271 0.79651 0.95876 0.0
C310 C 0.2748 0.81222 0.96691 0.0
C311 C 0.28494 0.80963 0.98583 0.0
C312 C 0.28139 0.79161 0.99718 0.0
C313 C 0.26904 0.77598 0.98911 0.0
C314 C 0.27026 0.73652 0.95453 0.0
C315 C 0.2649 0.71623 0.94992 0.0
C316 C 0.27967 0.70074 0.95071 0.0
C317 C 0.30013 0.70531 0.956 0.0
C318 C 0.30565 0.72588 0.95936 0.0
C319 C 0.29089 0.74137 0.9584 0.0
P320 P 0.75427 0.24896 0.95574 0.0
H321 H 0.79822 0.24955 0.94614 0.0
H322 H 0.82588 0.27199 0.95781 0.0
H323 H 0.78554 0.29743 0.00405 0.0
H324 H 0.7581 0.27463 0.99255 0.0
H325 H 0.74808 0.20642 0.94316 0.0
H326 H 0.72676 0.17924 0.95737 0.0
H327 H 0.71558 0.21596 0.01152 0.0
H328 H 0.73712 0.24325 0.99715 0.0
H329 H 0.75578 0.2924 0.94526 0.0
H330 H 0.7091 0.24792 0.96045 0.0
O331 O 0.76102 0.24224 0.93189 0.0
H332 H 0.72998 0.31956 0.94593 0.0
H333 H 0.68354 0.27497 0.96212 0.0
C334 C 0.77603 0.26057 0.96833 0.0
C335 C 0.79549 0.25954 0.95916 0.0
C336 C 0.81125 0.27253 0.96573 0.0
C337 C 0.8078 0.28684 0.98157 0.0
C338 C 0.78878 0.28659 0.99186 0.0
C339 C 0.77304 0.2735 0.98531 0.0
C340 C 0.74419 0.2269 0.96907 0.0
C341 C 0.74163 0.20843 0.95838 0.0
C342 C 0.7294 0.19284 0.96655 0.0
C343 C 0.7193 0.19553 0.98548 0.0
C344 C 0.723 0.21354 0.99681 0.0
C345 C 0.7355 0.22905 0.98871 0.0
C346 C 0.73457 0.26826 0.95364 0.0
C347 C 0.74 0.28848 0.94881 0.0
C348 C 0.72525 0.304 0.94931 0.0
C349 C 0.70475 0.29954 0.95451 0.0
C350 C 0.69916 0.27901 0.95806 0.0
C351 C 0.7139 0.26349 0.9574 0.0
P352 P 0.75464 0.75597 0.04548 0.0
H353 H 0.79858 0.75638 0.05508 0.0
H354 H 0.8267 0.73449 0.04353 0.0
H355 H 0.78701 0.70816 0.99723 0.0
H356 H 0.75908 0.73047 0.0086 0.0
H357 H 0.74885 0.79874 0.05745 0.0
H358 H 0.72669 0.82547 0.04372 0.0
H359 H 0.71344 0.78767 0.99078 0.0
H360 H 0.73583 0.76082 0.00469 0.0
H361 H 0.75713 0.71226 0.05491 0.0
H362 H 0.70937 0.75646 0.04255 0.0
O363 O 0.76131 0.76296 0.06928 0.0
H364 H 0.73161 0.68484 0.05489 0.0
H365 H 0.68405 0.72916 0.04151 0.0
C366 C 0.77666 0.74487 0.03287 0.0
C367 C 0.79607 0.74633 0.04206 0.0
C368 C 0.81211 0.73365 0.03556 0.0
C369 C 0.80898 0.71922 0.01977 0.0
C370 C 0.78999 0.7191 0.0094 0.0
C371 C 0.77398 0.73188 0.01588 0.0
C372 C 0.74395 0.77773 0.03214 0.0
C373 C 0.74175 0.7964 0.04257 0.0
C374 C 0.72903 0.81173 0.03467 0.0
C375 C 0.71811 0.8086 0.01626 0.0
C376 C 0.72148 0.79043 0.00511 0.0
C377 C 0.73446 0.77517 0.01292 0.0
C378 C 0.73533 0.7363 0.04782 0.0
C379 C 0.74118 0.71607 0.05206 0.0
C380 C 0.72658 0.70038 0.05196 0.0
C381 C 0.70582 0.7047 0.04776 0.0
C382 C 0.69988 0.72522 0.0448 0.0
C383 C 0.71447 0.74089 0.04507 0.0
P384 P 0.45357 0.75082 0.74892 0.0
H385 H 0.44726 0.75359 0.70446 0.0
H386 H 0.46295 0.77576 0.67873 0.0
H387 H 0.51001 0.79282 0.72241 0.0
H388 H 0.49398 0.77072 0.74825 0.0
H389 H 0.43008 0.72082 0.77126 0.0
H390 H 0.44018 0.69359 0.79479 0.0
H391 H 0.50351 0.70122 0.77666 0.0
H392 H 0.49324 0.72879 0.75289 0.0
H393 H 0.43272 0.79012 0.75396 0.0
H394 H 0.47666 0.75373 0.7877 0.0
O395 O 0.42941 0.74878 0.74051 0.0
H396 H 0.43503 0.81693 0.78034 0.0
H397 H 0.47913 0.78023 0.81372 0.0
C398 C 0.46927 0.76072 0.72836 0.0
C399 C 0.46131 0.76158 0.70834 0.0
C400 C 0.47036 0.7743 0.69358 0.0
C401 C 0.48753 0.7864 0.69862 0.0
C402 C 0.49655 0.78403 0.71817 0.0
C403 C 0.48751 0.77123 0.7329 0.0
C404 C 0.46085 0.72665 0.76011 0.0
C405 C 0.44605 0.71618 0.7717 0.0
C406 C 0.45186 0.70076 0.78534 0.0
C407 C 0.47263 0.69551 0.7877 0.0
C408 C 0.48737 0.70496 0.77503 0.0
C409 C 0.48152 0.72059 0.76138 0.0
C410 C 0.45407 0.76969 0.7691 0.0
C411 C 0.44262 0.78777 0.76715 0.0
C412 C 0.44408 0.80311 0.78211 0.0
C413 C 0.45711 0.80058 0.7992 0.0
C414 C 0.4686 0.78245 0.801 0.0
C415 C 0.46718 0.76722 0.78604 0.0
P416 P 0.25656 0.45558 0.74972 0.0
H417 H 0.25644 0.44548 0.70582 0.0
H418 H 0.23441 0.45694 0.67767 0.0
H419 H 0.20853 0.50349 0.71723 0.0
H420 H 0.2309 0.49219 0.74518 0.0
H421 H 0.29943 0.44373 0.75583 0.0
H422 H 0.32645 0.45829 0.77721 0.0
H423 H 0.28874 0.51159 0.78849 0.0
H424 H 0.26162 0.49686 0.76691 0.0
H425 H 0.21285 0.44563 0.74801 0.0
H426 H 0.2575 0.46002 0.79495 0.0
O427 O 0.26353 0.4318 0.74332 0.0
H428 H 0.1856 0.44628 0.77383 0.0
H429 H 0.23036 0.46168 0.82053 0.0
C430 C 0.24514 0.46783 0.72766 0.0
C431 C 0.24644 0.45851 0.70829 0.0
C432 C 0.2337 0.46497 0.69224 0.0
C433 C 0.2194 0.48085 0.69532 0.0
C434 C 0.2194 0.49127 0.71428 0.0
C435 C 0.23221 0.48483 0.73031 0.0
C436 C 0.27847 0.46918 0.7598 0.0
C437 C 0.29717 0.45884 0.76232 0.0
C438 C 0.31266 0.46721 0.77457 0.0
C439 C 0.30964 0.486 0.78472 0.0
C440 C 0.29141 0.49699 0.78102 0.0
C441 C 0.276 0.48869 0.76851 0.0
C442 C 0.2371 0.45362 0.76935 0.0
C443 C 0.21679 0.44902 0.76385 0.0
C444 C 0.2012 0.4495 0.77861 0.0
C445 C 0.20569 0.45446 0.7992 0.0
C446 C 0.22629 0.4578 0.80485 0.0
C447 C 0.24187 0.45716 0.7901 0.0
P448 P 0.55214 0.2545 0.74783 0.0
H449 H 0.55922 0.25717 0.70353 0.0
H450 H 0.5461 0.23635 0.67519 0.0
H451 H 0.50076 0.21 0.71595 0.0
H452 H 0.51357 0.23132 0.74401 0.0
H453 H 0.57568 0.28378 0.77106 0.0
H454 H 0.5656 0.31147 0.79402 0.0
H455 H 0.50281 0.30587 0.77343 0.0
H456 H 0.51307 0.27779 0.7502 0.0
H457 H 0.57265 0.21532 0.75499 0.0
H458 H 0.52548 0.25156 0.78423 0.0
O459 O 0.57684 0.25565 0.74098 0.0
H460 H 0.56853 0.18894 0.78154 0.0
H461 H 0.52122 0.22541 0.81044 0.0
C462 C 0.53768 0.24546 0.72598 0.0
C463 C 0.54602 0.24742 0.7062 0.0
C464 C 0.53863 0.23533 0.69005 0.0
C465 C 0.52277 0.22105 0.69344 0.0
C466 C 0.51303 0.22076 0.71278 0.0
C467 C 0.5204 0.23294 0.72891 0.0
C468 C 0.5452 0.27892 0.75869 0.0
C469 C 0.55987 0.28894 0.77083 0.0
C470 C 0.55406 0.30463 0.78414 0.0
C471 C 0.53341 0.3106 0.78565 0.0
C472 C 0.51886 0.30157 0.77245 0.0
C473 C 0.52471 0.28566 0.75911 0.0
C474 C 0.5498 0.23566 0.76792 0.0
C475 C 0.56159 0.21771 0.76722 0.0
C476 C 0.55911 0.20259 0.78228 0.0
C477 C 0.54469 0.20522 0.7982 0.0
C478 C 0.53277 0.22315 0.79866 0.0
C479 C 0.53522 0.23816 0.78361 0.0
P480 P 0.74957 0.45465 0.74844 0.0
H481 H 0.70549 0.44569 0.74845 0.0
H482 H 0.67768 0.45764 0.77065 0.0
H483 H 0.71844 0.50277 0.79717 0.0
H484 H 0.74602 0.491 0.77464 0.0
H485 H 0.7563 0.44249 0.7057 0.0
H486 H 0.77788 0.45699 0.6788 0.0
H487 H 0.78822 0.5107 0.71626 0.0
H488 H 0.76644 0.49603 0.74326 0.0
H489 H 0.74801 0.44411 0.79208 0.0
H490 H 0.79474 0.45898 0.74737 0.0
O491 O 0.74267 0.43102 0.74143 0.0
H492 H 0.77383 0.44468 0.81934 0.0
H493 H 0.82032 0.46053 0.77452 0.0
C494 C 0.72788 0.4673 0.76007 0.0
C495 C 0.70829 0.45852 0.75864 0.0
C496 C 0.69244 0.46526 0.77147 0.0
C497 C 0.69595 0.48087 0.786 0.0
C498 C 0.71516 0.49077 0.78614 0.0
C499 C 0.73098 0.48405 0.77322 0.0
C500 C 0.75975 0.46816 0.72651 0.0
C501 C 0.7626 0.45768 0.70791 0.0
C502 C 0.77498 0.46602 0.69249 0.0
C503 C 0.78492 0.48491 0.6955 0.0
C504 C 0.78091 0.49602 0.7136 0.0
C505 C 0.76828 0.48775 0.72894 0.0
C506 C 0.76925 0.45232 0.76781 0.0
C507 C 0.7638 0.44755 0.78812 0.0
C508 C 0.77857 0.44799 0.80371 0.0
C509 C 0.79909 0.45308 0.79921 0.0
C510 C 0.80469 0.45655 0.77859 0.0
C511 C 0.78993 0.45596 0.76301 0.0
P512 P 0.46125 0.25481 0.25686 0.0
H513 H 0.45537 0.25216 0.30147 0.0
H514 H 0.46938 0.22863 0.32699 0.0
H515 H 0.51301 0.20634 0.28211 0.0
H516 H 0.49847 0.22956 0.25647 0.0
H517 H 0.44658 0.29639 0.24939 0.0
H518 H 0.45912 0.32345 0.22691 0.0
H519 H 0.51484 0.28909 0.21628 0.0
H520 H 0.50214 0.26192 0.23896 0.0
H521 H 0.44899 0.2119 0.25837 0.0
H522 H 0.4644 0.25611 0.21142 0.0
O523 O 0.43817 0.26125 0.266 0.0
H524 H 0.44802 0.18489 0.23235 0.0
H525 H 0.46447 0.22922 0.18568 0.0
C526 C 0.4758 0.24257 0.27703 0.0
C527 C 0.46832 0.24263 0.29725 0.0
C528 C 0.4764 0.22915 0.31188 0.0
C529 C 0.49214 0.21535 0.30652 0.0
C530 C 0.50065 0.2165 0.28664 0.0
C531 C 0.49255 0.23 0.27203 0.0
C532 C 0.47345 0.27714 0.24599 0.0
C533 C 0.46181 0.29493 0.24285 0.0
C534 C 0.46901 0.31044 0.22993 0.0
C535 C 0.48791 0.30834 0.21966 0.0
C536 C 0.50014 0.29106 0.22383 0.0
C537 C 0.493 0.27562 0.237 0.0
C538 C 0.45746 0.2359 0.23702 0.0
C539 C 0.45213 0.21581 0.24247 0.0
C540 C 0.45172 0.20037 0.2276 0.0
C541 C 0.45657 0.20479 0.20697 0.0
C542 C 0.46062 0.22522 0.20139 0.0
C543 C 0.46087 0.24066 0.21625 0.0
P544 P 0.75 0.55022 0.2575 0.0
H545 H 0.71414 0.57259 0.24329 0.0
H546 H 0.6863 0.56296 0.22014 0.0
H547 H 0.70553 0.49978 0.22321 0.0
H548 H 0.73375 0.50953 0.24633 0.0
H549 H 0.75217 0.55775 0.3018 0.0
H550 H 0.77345 0.54234 0.32846 0.0
H551 H 0.79057 0.49391 0.2865 0.0
H552 H 0.76934 0.50961 0.25973 0.0
H553 H 0.74709 0.55216 0.21229 0.0
H554 H 0.795 0.54877 0.25811 0.0
O555 O 0.74755 0.57444 0.26537 0.0
H556 H 0.77265 0.54948 0.18516 0.0
H557 H 0.82058 0.54499 0.23105 0.0
C558 C 0.72591 0.54175 0.2468 0.0
C559 C 0.71201 0.55654 0.23966 0.0
C560 C 0.69619 0.55108 0.22626 0.0
C561 C 0.69392 0.53068 0.21981 0.0
C562 C 0.70692 0.51559 0.22809 0.0
C563 C 0.72297 0.52114 0.24137 0.0
C564 C 0.75938 0.535 0.27869 0.0
C565 C 0.75996 0.54347 0.29849 0.0
C566 C 0.77215 0.53459 0.31378 0.0
C567 C 0.78401 0.51708 0.30949 0.0
C568 C 0.78189 0.50759 0.29017 0.0
C569 C 0.76956 0.51642 0.27492 0.0
C570 C 0.76901 0.54985 0.23732 0.0
C571 C 0.76306 0.55062 0.21659 0.0
C572 C 0.77774 0.54898 0.20101 0.0
C573 C 0.79867 0.54658 0.20586 0.0
C574 C 0.80463 0.54685 0.22668 0.0
C575 C 0.78995 0.54875 0.24223 0.0
P576 P 0.54467 0.74865 0.25535 0.0
H577 H 0.55322 0.75094 0.29955 0.0
H578 H 0.54006 0.77367 0.32625 0.0
H579 H 0.4932 0.79528 0.28441 0.0
H580 H 0.50687 0.77292 0.25757 0.0
H581 H 0.56026 0.70772 0.24621 0.0
H582 H 0.54676 0.68017 0.22488 0.0
H583 H 0.48907 0.71242 0.21943 0.0
H584 H 0.50272 0.74007 0.24093 0.0
H585 H 0.55615 0.79177 0.25621 0.0
H586 H 0.53786 0.74757 0.21031 0.0
O587 O 0.5685 0.74293 0.2629 0.0
H588 H 0.55523 0.81884 0.23025 0.0
H589 H 0.536 0.77452 0.18467 0.0
C590 C 0.53111 0.7603 0.27652 0.0
C591 C 0.53978 0.76016 0.29626 0.0
C592 C 0.53218 0.77317 0.31158 0.0
C593 C 0.51574 0.78655 0.30739 0.0
C594 C 0.50611 0.78545 0.28804 0.0
C595 C 0.51373 0.77244 0.27274 0.0
C596 C 0.53247 0.72594 0.24531 0.0
C597 C 0.54446 0.70861 0.24106 0.0
C598 C 0.53671 0.69281 0.22881 0.0
C599 C 0.51689 0.69419 0.22033 0.0
C600 C 0.50446 0.71102 0.22561 0.0
C601 C 0.51217 0.72673 0.2381 0.0
C602 C 0.5465 0.76775 0.2354 0.0
C603 C 0.55196 0.78788 0.24056 0.0
C604 C 0.55128 0.80336 0.22573 0.0
C605 C 0.5452 0.79894 0.20543 0.0
C606 C 0.54082 0.77851 0.20011 0.0
C607 C 0.54163 0.76304 0.21492 0.0
P608 P 0.25694 0.54927 0.2544 0.0
H609 H 0.24269 0.57139 0.29046 0.0
H610 H 0.21916 0.5617 0.31798 0.0
H611 H 0.22178 0.4987 0.29805 0.0
H612 H 0.24526 0.50851 0.27015 0.0
H613 H 0.30125 0.55641 0.25229 0.0
H614 H 0.32766 0.54106 0.23066 0.0
H615 H 0.28527 0.49325 0.21297 0.0
H616 H 0.25877 0.50885 0.2346 0.0
H617 H 0.2118 0.55174 0.25712 0.0
H618 H 0.25774 0.54828 0.20931 0.0
O619 O 0.26504 0.57338 0.25719 0.0
H620 H 0.18481 0.54928 0.23141 0.0
H621 H 0.23081 0.54467 0.18357 0.0
C622 C 0.24599 0.54064 0.27836 0.0
C623 C 0.23888 0.55535 0.29238 0.0
C624 C 0.22526 0.54986 0.30801 0.0
C625 C 0.21858 0.52951 0.30999 0.0
C626 C 0.22683 0.51447 0.2969 0.0
C627 C 0.24032 0.52005 0.28103 0.0
C628 C 0.27795 0.53394 0.24486 0.0
C629 C 0.29779 0.54226 0.24431 0.0
C630 C 0.31294 0.53342 0.23191 0.0
C631 C 0.30845 0.51613 0.21979 0.0
C632 C 0.28909 0.50676 0.22186 0.0
C633 C 0.274 0.51553 0.23443 0.0
C634 C 0.23688 0.54934 0.23527 0.0
C635 C 0.21616 0.55023 0.24113 0.0
C636 C 0.20066 0.54873 0.22636 0.0
C637 C 0.20558 0.54631 0.20542 0.0
C638 C 0.22639 0.54654 0.19953 0.0
C639 C 0.24186 0.54833 0.2143 0.0
P640 P 0.74906 0.75108 0.4562 0.0
H641 H 0.74988 0.70759 0.4452 0.0
H642 H 0.7723 0.67967 0.45614 0.0
H643 H 0.79761 0.71849 0.50369 0.0
H644 H 0.77482 0.74621 0.49289 0.0
H645 H 0.70587 0.75641 0.44509 0.0
H646 H 0.67892 0.77762 0.45994 0.0
H647 H 0.71746 0.78981 0.51266 0.0
H648 H 0.74452 0.76841 0.49763 0.0
H649 H 0.79297 0.74992 0.44676 0.0
H650 H 0.74739 0.79611 0.46 0.0
O651 O 0.74186 0.74496 0.43233 0.0
H652 H 0.81982 0.77604 0.44755 0.0
H653 H 0.77412 0.82202 0.46177 0.0
C654 C 0.76083 0.72905 0.46809 0.0
C655 C 0.75984 0.70994 0.45833 0.0
C656 C 0.77282 0.69402 0.4645 0.0
C657 C 0.78708 0.69698 0.48051 0.0
C658 C 0.7868 0.71565 0.49135 0.0
C659 C 0.77373 0.73154 0.4852 0.0
C660 C 0.72725 0.76086 0.47021 0.0
C661 C 0.70834 0.76305 0.46015 0.0
C662 C 0.69288 0.77522 0.46869 0.0
C663 C 0.69615 0.78559 0.48737 0.0
C664 C 0.71459 0.78218 0.49813 0.0
C665 C 0.72997 0.76977 0.48967 0.0
C666 C 0.76829 0.77087 0.45424 0.0
C667 C 0.78873 0.76565 0.44995 0.0
C668 C 0.80409 0.78059 0.45049 0.0
C669 C 0.79921 0.80107 0.45518 0.0
C670 C 0.77848 0.80642 0.45813 0.0
C671 C 0.76314 0.79149 0.45742 0.0
P672 P 0.75002 0.25582 0.45742 0.0
H673 H 0.70635 0.25445 0.44671 0.0
H674 H 0.67872 0.23176 0.45791 0.0
H675 H 0.71819 0.20731 0.5054 0.0
H676 H 0.74565 0.23034 0.49433 0.0
H677 H 0.75513 0.29881 0.44587 0.0
H678 H 0.77645 0.32589 0.46027 0.0
H679 H 0.78921 0.28801 0.51327 0.0
H680 H 0.76769 0.26082 0.4987 0.0
H681 H 0.74901 0.21208 0.44784 0.0
H682 H 0.7952 0.25766 0.46112 0.0
O683 O 0.7436 0.26282 0.43357 0.0
H684 H 0.7753 0.18541 0.4485 0.0
H685 H 0.82127 0.2311 0.46279 0.0
C686 C 0.72813 0.24395 0.46956 0.0
C687 C 0.7089 0.24462 0.45989 0.0
C688 C 0.69315 0.23149 0.4662 0.0
C689 C 0.69638 0.21739 0.48227 0.0
C690 C 0.71514 0.21799 0.49302 0.0
C691 C 0.73088 0.2312 0.48672 0.0
C692 C 0.75985 0.27774 0.47116 0.0
C693 C 0.76192 0.29651 0.4609 0.0
C694 C 0.77415 0.31205 0.46918 0.0
C695 C 0.78472 0.309 0.48781 0.0
C696 C 0.78143 0.29071 0.49878 0.0
C697 C 0.76895 0.27525 0.49058 0.0
C698 C 0.76995 0.23675 0.45535 0.0
C699 C 0.76478 0.21635 0.45101 0.0
C700 C 0.77982 0.2011 0.45148 0.0
C701 C 0.80034 0.20602 0.45616 0.0
C702 C 0.80564 0.22671 0.45916 0.0
C703 C 0.79061 0.24195 0.45851 0.0
P704 P 0.25362 0.74884 0.4551 0.0
H705 H 0.29732 0.74954 0.44445 0.0
H706 H 0.32531 0.7717 0.45584 0.0
H707 H 0.28617 0.7964 0.5035 0.0
H708 H 0.2584 0.77383 0.49229 0.0
H709 H 0.24762 0.70644 0.44195 0.0
H710 H 0.22652 0.67898 0.45591 0.0
H711 H 0.2157 0.71481 0.51075 0.0
H712 H 0.23702 0.7424 0.49661 0.0
H713 H 0.25478 0.79265 0.44603 0.0
H714 H 0.20853 0.74739 0.46018 0.0
O715 O 0.25978 0.74261 0.43096 0.0
H716 H 0.22878 0.81957 0.44763 0.0
H717 H 0.18277 0.77418 0.46277 0.0
C718 C 0.2757 0.76021 0.46737 0.0
C719 C 0.29493 0.7593 0.45771 0.0
C720 C 0.31088 0.77214 0.46413 0.0
C721 C 0.30785 0.78618 0.48029 0.0
C722 C 0.28908 0.78577 0.49104 0.0
C723 C 0.27316 0.77283 0.48465 0.0
C724 C 0.24388 0.72651 0.46821 0.0
C725 C 0.24131 0.70819 0.45726 0.0
C726 C 0.2292 0.69244 0.46529 0.0
C727 C 0.21924 0.69481 0.48435 0.0
C728 C 0.223 0.71264 0.49593 0.0
C729 C 0.23537 0.72831 0.48797 0.0
C730 C 0.23381 0.7681 0.45385 0.0
C731 C 0.23906 0.7885 0.44958 0.0
C732 C 0.22419 0.80389 0.45061 0.0
C733 C 0.20375 0.79912 0.45577 0.0
C734 C 0.19834 0.77846 0.45876 0.0
C735 C 0.2132 0.76308 0.45758 0.0
P736 P 0.25555 0.25588 0.54575 0.0
H737 H 0.29955 0.25598 0.55511 0.0
H738 H 0.32737 0.23369 0.5436 0.0
H739 H 0.28721 0.2075 0.49763 0.0
H740 H 0.25956 0.23015 0.50899 0.0
H741 H 0.24972 0.2988 0.55716 0.0
H742 H 0.22745 0.32531 0.54318 0.0
H743 H 0.21394 0.28675 0.49086 0.0
H744 H 0.23644 0.26012 0.50502 0.0
H745 H 0.25829 0.21241 0.55607 0.0
H746 H 0.21025 0.25608 0.54293 0.0
O747 O 0.26247 0.26324 0.56936 0.0
H748 H 0.23296 0.18483 0.55651 0.0
H749 H 0.18512 0.22859 0.54232 0.0
C750 C 0.27741 0.24457 0.53306 0.0
C751 C 0.29688 0.24588 0.54216 0.0
C752 C 0.31274 0.23297 0.53568 0.0
C753 C 0.30939 0.21848 0.52 0.0
C754 C 0.29036 0.21849 0.50971 0.0
C755 C 0.27451 0.23149 0.51617 0.0
C756 C 0.2447 0.27743 0.53218 0.0
C757 C 0.24254 0.29623 0.54236 0.0
C758 C 0.22976 0.31144 0.53431 0.0
C759 C 0.21874 0.30804 0.51602 0.0
C760 C 0.22206 0.28971 0.5051 0.0
C761 C 0.2351 0.27458 0.51306 0.0
C762 C 0.23634 0.23619 0.54857 0.0
C763 C 0.24232 0.21607 0.55317 0.0
C764 C 0.22783 0.20029 0.55332 0.0
C765 C 0.20705 0.2044 0.549 0.0
C766 C 0.20096 0.22482 0.5457 0.0
C767 C 0.21545 0.24059 0.54573 0.0
C768 C 0.00121 0.95288 0.55254 0.0
C769 C 0.00226 0.95399 0.45246 0.0
C770 C 0.00165 0.05196 0.55352 0.0
C771 C 0.00592 0.05303 0.45349 0.0
C772 C 0.95402 0.05374 0.50025 0.0
C773 C 0.95181 0.95442 0.49947 0.0
C774 C 0.05344 0.05146 0.50736 0.0
C775 C 0.05132 0.95219 0.5015 0.0
C776 C 0.05375 0.00268 0.45442 0.0
C777 C 0.95441 0.00466 0.45166 0.0
C778 C 0.05089 0.00169 0.55453 0.0
C779 C 0.95169 0.00272 0.55192 0.0
Eu780 Eu 0.00176 0.9641 0.50263 0.0
O781 O 0.98455 0.98551 0.48431 0.0
O782 O 0.02019 0.98398 0.52159 0.0
Eu783 Eu 0.96355 0.00384 0.50207 0.0
Eu784 Eu 0.04174 0.00206 0.50414 0.0
O785 O 0.98326 0.9848 0.52063 0.0
O786 O 0.02102 0.98457 0.48524 0.0
Eu787 Eu 0.00158 0.0025 0.54162 0.0
Eu788 Eu 0.0038 0.00343 0.46441 0.0
O789 O 0.98417 0.02157 0.52096 0.0
O790 O 0.98528 0.02175 0.48465 0.0
O791 O 0.02209 0.02115 0.4855 0.0
O792 O 0.0207 0.02047 0.5217 0.0
Eu793 Eu 0.00353 0.04189 0.50338 0.0
O794 O 0.00094 0.94662 0.53294 0.0
O795 O 0.00145 0.94738 0.47191 0.0
O796 O 0.00241 0.05861 0.53407 0.0
O797 O 0.00608 0.05932 0.47309 0.0
O798 O 0.94723 0.03445 0.50114 0.0
O799 O 0.94593 0.97402 0.49963 0.0
O800 O 0.05942 0.03191 0.50617 0.0
O801 O 0.05811 0.97145 0.50301 0.0
O802 O 0.03434 0.00332 0.44784 0.0
O803 O 0.97419 0.00422 0.44629 0.0
O804 O 0.03111 0.00242 0.55985 0.0
O805 O 0.97118 0.00226 0.55819 0.0
O806 O 0.03407 0.05813 0.50655 0.0
O807 O 0.97369 0.05957 0.50083 0.0
O808 O 0.03164 0.94642 0.5013 0.0
O809 O 0.97114 0.94772 0.50095 0.0
O810 O 0.0034 0.97359 0.44668 0.0
O811 O 0.00481 0.03356 0.44737 0.0
O812 O 0.00158 0.97236 0.55877 0.0
O813 O 0.00117 0.03235 0.55936 0.0
O814 O 0.94554 0.00337 0.53226 0.0
O815 O 0.94732 0.00472 0.47099 0.0
O816 O 0.05799 0.00116 0.53521 0.0
O817 O 0.05972 0.00207 0.47409 0.0
C818 C 0.5033 0.95322 0.05281 0.0
C819 C 0.49938 0.05263 0.05273 0.0
C820 C 0.49937 0.95336 0.95294 0.0
C821 C 0.50489 0.05252 0.95292 0.0
C822 C 0.55232 0.00195 0.95376 0.0
C823 C 0.55121 0.00321 0.05326 0.0
C824 C 0.4525 0.00369 0.9526 0.0
C825 C 0.45119 0.00326 0.052 0.0
C826 C 0.45265 0.0533 0.00226 0.0
C827 C 0.55262 0.05174 0.00377 0.0
C828 C 0.45113 0.95418 0.00307 0.0
C829 C 0.55121 0.95271 0.00273 0.0
Eu830 Eu 0.50135 0.00293 0.04204 0.0
O831 O 0.52005 0.02106 0.02155 0.0
O832 O 0.48318 0.98482 0.0211 0.0
Eu833 Eu 0.54035 0.00238 0.00337 0.0
Eu834 Eu 0.46336 0.00358 0.00244 0.0
O835 O 0.51942 0.98444 0.02142 0.0
O836 O 0.48393 0.02144 0.02093 0.0
Eu837 Eu 0.50132 0.96392 0.00291 0.0
Eu838 Eu 0.50245 0.04198 0.00289 0.0
O839 O 0.51997 0.98428 0.98466 0.0
O840 O 0.52037 0.02091 0.98484 0.0
O841 O 0.48414 0.02168 0.98419 0.0
O842 O 0.4838 0.98501 0.98448 0.0
Eu843 Eu 0.50229 0.00294 0.96384 0.0
O844 O 0.5024 0.97267 0.05916 0.0
O845 O 0.49998 0.03317 0.05908 0.0
O846 O 0.50083 0.9728 0.94671 0.0
O847 O 0.50386 0.03305 0.94671 0.0
O848 O 0.55815 0.00164 0.97345 0.0
O849 O 0.55737 0.00263 0.03368 0.0
O850 O 0.44624 0.00414 0.97214 0.0
O851 O 0.44561 0.00377 0.03226 0.0
O852 O 0.47223 0.05951 0.0018 0.0
O853 O 0.53325 0.05859 0.00419 0.0
O854 O 0.47049 0.94734 0.00385 0.0
O855 O 0.53166 0.9464 0.0019 0.0
O856 O 0.47205 0.00316 0.94632 0.0
O857 O 0.53292 0.0025 0.94704 0.0
O858 O 0.47057 0.00266 0.05884 0.0
O859 O 0.53165 0.00351 0.05955 0.0
O860 O 0.50029 0.05893 0.0332 0.0
O861 O 0.50448 0.05888 0.97246 0.0
O862 O 0.50295 0.94698 0.03324 0.0
O863 O 0.4994 0.94703 0.97249 0.0
O864 O 0.55726 0.97221 0.00374 0.0
O865 O 0.55816 0.03207 0.00314 0.0
O866 O 0.44558 0.97384 0.00215 0.0
O867 O 0.44644 0.03383 0.00274 0.0
C868 C 0.00188 0.45384 0.05316 0.0
C869 C 0.001 0.45101 0.95374 0.0
C870 C 0.00202 0.55359 0.05009 0.0
C871 C 0.00317 0.55083 0.95065 0.0
C872 C 0.95286 0.55264 0.99958 0.0
C873 C 0.95169 0.45308 0.00393 0.0
C874 C 0.05227 0.55149 0.00081 0.0
C875 C 0.05095 0.45182 0.00365 0.0
C876 C 0.05189 0.4981 0.95218 0.0
C877 C 0.95226 0.49917 0.95199 0.0
C878 C 0.05181 0.50521 0.05171 0.0
C879 C 0.95218 0.50611 0.05167 0.0
Eu880 Eu 0.00147 0.46399 0.00315 0.0
O881 O 0.98363 0.48411 0.98413 0.0
O882 O 0.02021 0.48449 0.021 0.0
Eu883 Eu 0.96294 0.50274 0.00184 0.0
Eu884 Eu 0.04102 0.50179 0.00194 0.0
O885 O 0.98324 0.48493 0.02101 0.0
O886 O 0.01997 0.4836 0.98416 0.0
Eu887 Eu 0.00197 0.50339 0.04111 0.0
Eu888 Eu 0.00208 0.50123 0.96267 0.0
O889 O 0.98401 0.52098 0.01958 0.0
O890 O 0.98378 0.52013 0.98279 0.0
O891 O 0.02071 0.51972 0.98286 0.0
O892 O 0.02034 0.52054 0.01962 0.0
Eu893 Eu 0.00244 0.54069 0.00067 0.0
O894 O 0.00179 0.44751 0.03365 0.0
O895 O 0.00087 0.44577 0.97359 0.0
O896 O 0.00216 0.55888 0.03026 0.0
O897 O 0.0033 0.55712 0.97017 0.0
O898 O 0.94617 0.53327 0.00025 0.0
O899 O 0.94542 0.47258 0.00325 0.0
O900 O 0.05854 0.53197 0.00055 0.0
O901 O 0.05778 0.47116 0.00371 0.0
O902 O 0.03243 0.49916 0.94573 0.0
O903 O 0.97178 0.49954 0.94567 0.0
O904 O 0.03233 0.50465 0.05814 0.0
O905 O 0.97168 0.50555 0.05802 0.0
O906 O 0.03272 0.55764 0.00107 0.0
O907 O 0.97254 0.55838 0.99963 0.0
O908 O 0.03124 0.44626 0.00322 0.0
O909 O 0.97125 0.44695 0.004 0.0
O910 O 0.00152 0.47022 0.94655 0.0
O911 O 0.00257 0.53124 0.94455 0.0
O912 O 0.0018 0.47344 0.05923 0.0
O913 O 0.00198 0.53438 0.05726 0.0
O914 O 0.94584 0.50498 0.03215 0.0
O915 O 0.94591 0.5005 0.97149 0.0
O916 O 0.05807 0.50428 0.03217 0.0
O917 O 0.05811 0.49891 0.97174 0.0
C918 C 0.50187 0.45166 0.05172 0.0
C919 C 0.50108 0.55063 0.05357 0.0
C920 C 0.50262 0.45363 0.95154 0.0
C921 C 0.5035 0.55274 0.95351 0.0
C922 C 0.55251 0.50365 0.95292 0.0
C923 C 0.55157 0.501 0.05289 0.0
C924 C 0.45316 0.50337 0.95202 0.0
C925 C 0.4523 0.50095 0.05229 0.0
C926 C 0.45259 0.55197 0.00064 0.0
C927 C 0.55209 0.55172 0.00635 0.0
C928 C 0.45243 0.45264 0.99914 0.0
C929 C 0.55205 0.45249 0.99967 0.0
Eu930 Eu 0.50201 0.50133 0.04104 0.0
O931 O 0.52038 0.51995 0.02103 0.0
O932 O 0.48366 0.48343 0.02021 0.0
Eu933 Eu 0.54136 0.50213 0.00281 0.0
Eu934 Eu 0.4632 0.50226 0.00223 0.0
O935 O 0.52065 0.48334 0.02054 0.0
O936 O 0.48373 0.52021 0.02098 0.0
Eu937 Eu 0.50226 0.46319 0.00184 0.0
Eu938 Eu 0.50231 0.54111 0.00332 0.0
O939 O 0.52067 0.48428 0.98423 0.0
O940 O 0.52094 0.52096 0.98479 0.0
O941 O 0.48425 0.52072 0.98463 0.0
O942 O 0.48429 0.48444 0.984 0.0
Eu943 Eu 0.50275 0.50299 0.96388 0.0
O944 O 0.50163 0.47114 0.05789 0.0
O945 O 0.50199 0.53095 0.0591 0.0
O946 O 0.50255 0.47329 0.94588 0.0
O947 O 0.50329 0.53333 0.94709 0.0
O948 O 0.55882 0.50342 0.9725 0.0
O949 O 0.55822 0.50154 0.03344 0.0
O950 O 0.44638 0.50302 0.97145 0.0
O951 O 0.4458 0.50139 0.03274 0.0
O952 O 0.47213 0.55816 0.0012 0.0
O953 O 0.53257 0.55801 0.00603 0.0
O954 O 0.4719 0.44626 0.00013 0.0
O955 O 0.53252 0.44624 1.00004 0.0
O956 O 0.47285 0.50347 0.94632 0.0
O957 O 0.53296 0.50335 0.94677 0.0
O958 O 0.47191 0.50093 0.05822 0.0
O959 O 0.53193 0.50068 0.05879 0.0
O960 O 0.5006 0.55751 0.03419 0.0
O961 O 0.50332 0.55884 0.97316 0.0
O962 O 0.50229 0.44542 0.03211 0.0
O963 O 0.50265 0.4468 0.97095 0.0
O964 O 0.55842 0.47191 0.00096 0.0
O965 O 0.55843 0.53231 0.00485 0.0
O966 O 0.44618 0.47212 0.99984 0.0
O967 O 0.44618 0.53254 0.0015 0.0
C968 C 0.00445 0.45271 0.55291 0.0
C969 C 0.99846 0.4515 0.45315 0.0
C970 C 0.00051 0.55199 0.55171 0.0
C971 C 0.0045 0.55081 0.45182 0.0
C972 C 0.95271 0.55193 0.5019 0.0
C973 C 0.9515 0.45288 0.50409 0.0
C974 C 0.05271 0.55066 0.5018 0.0
C975 C 0.05152 0.45165 0.50183 0.0
C976 C 0.05152 0.50028 0.45216 0.0
C977 C 0.95156 0.50185 0.45307 0.0
C978 C 0.05239 0.50269 0.55166 0.0
C979 C 0.95241 0.50231 0.55239 0.0
Eu980 Eu 0.00163 0.46276 0.50287 0.0
O981 O 0.98373 0.48357 0.48448 0.0
O982 O 0.02006 0.48354 0.52076 0.0
Eu983 Eu 0.96365 0.50225 0.50265 0.0
Eu984 Eu 0.04053 0.50127 0.50199 0.0
O985 O 0.98383 0.48381 0.52119 0.0
O986 O 0.01983 0.48293 0.48391 0.0
Eu987 Eu 0.00234 0.50222 0.54148 0.0
Eu988 Eu 0.00167 0.50129 0.46317 0.0
O989 O 0.98445 0.52045 0.52055 0.0
O990 O 0.98395 0.52024 0.48375 0.0
O991 O 0.02009 0.51952 0.48369 0.0
O992 O 0.02056 0.52012 0.52039 0.0
Eu993 Eu 0.00255 0.54079 0.50188 0.0
O994 O 0.00361 0.44617 0.53345 0.0
O995 O 0.99895 0.44549 0.4728 0.0
O996 O 0.0011 0.55809 0.53209 0.0
O997 O 0.00399 0.55737 0.47129 0.0
O998 O 0.94658 0.53243 0.5027 0.0
O999 O 0.94591 0.47252 0.50316 0.0
O1000 O 0.05828 0.531 0.5012 0.0
O1001 O 0.05754 0.47117 0.50239 0.0
O1002 O 0.03199 0.5006 0.44578 0.0
O1003 O 0.97096 0.50192 0.44626 0.0
O1004 O 0.03296 0.50309 0.55833 0.0
O1005 O 0.97191 0.50194 0.55891 0.0
O1006 O 0.03333 0.55747 0.5025 0.0
O1007 O 0.97226 0.55819 0.50113 0.0
O1008 O 0.03198 0.44527 0.50152 0.0
O1009 O 0.97089 0.44607 0.50451 0.0
O1010 O 0.9998 0.47083 0.44652 0.0
O1011 O 0.00359 0.53128 0.44574 0.0
O1012 O 0.00386 0.47226 0.55894 0.0
O1013 O 0.00115 0.53259 0.55819 0.0
O1014 O 0.94649 0.50266 0.53276 0.0
O1015 O 0.94595 0.50188 0.47281 0.0
O1016 O 0.05818 0.50187 0.53197 0.0
O1017 O 0.05771 0.50031 0.47173 0.0
C1018 C 0.50231 0.9524 0.55416 0.0
C1019 C 0.50271 0.95095 0.45461 0.0
C1020 C 0.50024 0.05221 0.55249 0.0
C1021 C 0.50462 0.05063 0.453 0.0
C1022 C 0.45279 0.05148 0.50108 0.0
C1023 C 0.45254 0.95185 0.50335 0.0
C1024 C 0.55221 0.05118 0.50401 0.0
C1025 C 0.55184 0.95147 0.50591 0.0
C1026 C 0.55356 0.99837 0.45511 0.0
C1027 C 0.45406 0.99948 0.45229 0.0
C1028 C 0.55086 0.00485 0.55464 0.0
C1029 C 0.45122 0.00029 0.55202 0.0
Eu1030 Eu 0.50227 0.96311 0.50424 0.0
O1031 O 0.48465 0.98333 0.48508 0.0
O1032 O 0.52027 0.98361 0.52288 0.0
Eu1033 Eu 0.4634 0.00165 0.50246 0.0
Eu1034 Eu 0.5414 0.00135 0.50461 0.0
O1035 O 0.48357 0.98386 0.52172 0.0
O1036 O 0.52109 0.98313 0.48602 0.0
Eu1037 Eu 0.50135 0.00212 0.54276 0.0
Eu1038 Eu 0.50351 0.00095 0.46446 0.0
O1039 O 0.48359 0.02 0.52122 0.0
O1040 O 0.48455 0.01949 0.48427 0.0
O1041 O 0.52134 0.01936 0.48538 0.0
O1042 O 0.52007 0.01971 0.52196 0.0
Eu1043 Eu 0.50244 0.04003 0.50291 0.0
O1044 O 0.50211 0.94624 0.53459 0.0
O1045 O 0.50235 0.94529 0.47435 0.0
O1046 O 0.50102 0.05783 0.53275 0.0
O1047 O 0.50397 0.05686 0.47255 0.0
O1048 O 0.44627 0.03205 0.50173 0.0
O1049 O 0.44616 0.9713 0.50232 0.0
O1050 O 0.55862 0.03171 0.50365 0.0
O1051 O 0.55846 0.97087 0.5065 0.0
O1052 O 0.53425 0.99932 0.44823 0.0
O1053 O 0.47375 0.99968 0.44655 0.0
O1054 O 0.53123 0.00403 0.56058 0.0
O1055 O 0.47053 0.00102 0.55897 0.0
O1056 O 0.53261 0.0572 0.50413 0.0
O1057 O 0.47242 0.05739 0.50119 0.0
O1058 O 0.53221 0.94572 0.50478 0.0
O1059 O 0.47212 0.94586 0.50432 0.0
O1060 O 0.50326 0.97029 0.44784 0.0
O1061 O 0.50447 0.03109 0.44679 0.0
O1062 O 0.50221 0.97194 0.56042 0.0
O1063 O 0.50019 0.03287 0.55933 0.0
O1064 O 0.44552 0.00062 0.53229 0.0
O1065 O 0.44717 0.00046 0.47163 0.0
O1066 O 0.55761 0.00393 0.53527 0.0
O1067 O 0.55931 0.99898 0.47483 0.0
C1068 C 0.17156 0.18979 0.55344 0.0
C1069 C 0.19199 0.18742 0.54681 0.0
C1070 C 0.15705 0.17443 0.54982 0.0
C1071 C 0.14751 0.1299 0.51588 0.0
H1072 H 0.10413 0.11829 0.55511 0.0
C1073 C 0.09039 0.06238 0.5073 0.0
C1074 C 0.06959 0.06702 0.51082 0.0
C1075 C 0.10566 0.07681 0.51164 0.0
C1076 C 0.1161 0.12149 0.54396 0.0
H1077 H 0.21321 0.16678 0.53147 0.0
H1078 H 0.18816 0.13972 0.52595 0.0
H1079 H 0.13052 0.14343 0.56368 0.0
H1080 H 0.04853 0.09051 0.52163 0.0
H1081 H 0.07521 0.11557 0.52922 0.0
H1082 H 0.13313 0.10771 0.4963 0.0
C1083 C 0.18322 0.15364 0.53355 0.0
C1084 C 0.13119 0.13591 0.54884 0.0
C1085 C 0.19768 0.16906 0.53702 0.0
C1086 C 0.06438 0.08646 0.5186 0.0
C1087 C 0.07966 0.10076 0.52314 0.0
C1088 C 0.13252 0.11534 0.5111 0.0
C1089 C 0.16266 0.15626 0.53962 0.0
C1090 C 0.147 0.14039 0.53479 0.0
C1091 C 0.10044 0.09604 0.5198 0.0
C1092 C 0.1166 0.11112 0.52503 0.0
H1093 H 0.1667 0.20361 0.56127 0.0
H1094 H 0.14132 0.17707 0.55455 0.0
H1095 H 0.15923 0.13322 0.50453 0.0
H1096 H 0.09492 0.04757 0.5013 0.0
H1097 H 0.12159 0.07275 0.50903 0.0
C1098 C 0.81061 0.1713 0.46916 0.0
C1099 C 0.81592 0.18962 0.45908 0.0
C1100 C 0.82548 0.15646 0.47329 0.0
C1101 C 0.8782 0.1399 0.45931 0.0
H1102 H 0.87566 0.11211 0.51204 0.0
C1103 C 0.94418 0.08937 0.48987 0.0
C1104 C 0.93843 0.06998 0.49736 0.0
C1105 C 0.9293 0.10417 0.48556 0.0
C1106 C 0.87647 0.11967 0.49722 0.0
H1107 H 0.841 0.20635 0.44486 0.0
H1108 H 0.86707 0.18079 0.45272 0.0
H1109 H 0.84949 0.13734 0.50319 0.0
H1110 H 0.91255 0.05117 0.50678 0.0
H1111 H 0.88663 0.07715 0.49943 0.0
H1112 H 0.90543 0.12239 0.45357 0.0
C1113 C 0.85133 0.17776 0.45717 0.0
C1114 C 0.86144 0.13405 0.49208 0.0
C1115 C 0.83641 0.19254 0.45288 0.0
C1116 C 0.91751 0.06593 0.50097 0.0
C1117 C 0.90266 0.08082 0.49686 0.0
C1118 C 0.89333 0.12564 0.46454 0.0
C1119 C 0.84608 0.15963 0.46763 0.0
C1120 C 0.86208 0.14429 0.47303 0.0
C1121 C 0.9084 0.09997 0.48886 0.0
C1122 C 0.89257 0.11536 0.48352 0.0
H1123 H 0.79504 0.16862 0.47439 0.0
H1124 H 0.82081 0.14253 0.48106 0.0
H1125 H 0.879 0.14725 0.44439 0.0
H1126 H 0.96014 0.09298 0.48681 0.0
H1127 H 0.93414 0.1189 0.47959 0.0
C1128 C 0.834 0.81123 0.46829 0.0
C1129 C 0.81569 0.81656 0.45813 0.0
C1130 C 0.84893 0.82602 0.47243 0.0
C1131 C 0.86584 0.87842 0.45821 0.0
H1132 H 0.89334 0.87621 0.51114 0.0
C1133 C 0.91628 0.94443 0.48861 0.0
C1134 C 0.93562 0.9388 0.49644 0.0
C1135 C 0.90151 0.92954 0.48426 0.0
C1136 C 0.88588 0.87692 0.49625 0.0
H1137 H 0.79907 0.84157 0.44376 0.0
H1138 H 0.82479 0.86751 0.45158 0.0
H1139 H 0.86804 0.8501 0.50231 0.0
H1140 H 0.95437 0.91312 0.50639 0.0
H1141 H 0.92845 0.88716 0.49893 0.0
H1142 H 0.88351 0.90549 0.45237 0.0
C1143 C 0.82774 0.85181 0.45611 0.0
C1144 C 0.87145 0.86193 0.49113 0.0
C1145 C 0.81287 0.83698 0.45184 0.0
C1146 C 0.93966 0.91799 0.50032 0.0
C1147 C 0.9248 0.90311 0.49614 0.0
C1148 C 0.88014 0.89351 0.46341 0.0
C1149 C 0.84586 0.84655 0.46665 0.0
C1150 C 0.86129 0.86246 0.47202 0.0
C1151 C 0.90569 0.90873 0.48782 0.0
C1152 C 0.89032 0.89288 0.48247 0.0
H1153 H 0.83661 0.79571 0.4736 0.0
H1154 H 0.86285 0.82135 0.48027 0.0
H1155 H 0.85856 0.87913 0.44324 0.0
H1156 H 0.91268 0.96031 0.48535 0.0
H1157 H 0.88682 0.93429 0.47805 0.0
C1158 C 0.16776 0.81292 0.4532 0.0
C1159 C 0.18837 0.81562 0.45908 0.0
C1160 C 0.15308 0.82787 0.45771 0.0
C1161 C 0.14384 0.87174 0.49265 0.0
H1162 H 0.09958 0.88374 0.45456 0.0
C1163 C 0.08787 0.94 0.50223 0.0
C1164 C 0.06694 0.93596 0.49866 0.0
C1165 C 0.10272 0.92513 0.498 0.0
C1166 C 0.11177 0.8804 0.46541 0.0
H1167 H 0.20971 0.83637 0.47412 0.0
H1168 H 0.1843 0.86273 0.4812 0.0
H1169 H 0.12574 0.85869 0.44513 0.0
H1170 H 0.04522 0.91294 0.48813 0.0
H1171 H 0.07118 0.88708 0.48076 0.0
H1172 H 0.12996 0.89376 0.51276 0.0
C1173 C 0.17938 0.84886 0.4735 0.0
C1174 C 0.12673 0.86603 0.46004 0.0
C1175 C 0.19403 0.83386 0.46912 0.0
C1176 C 0.06118 0.91657 0.49115 0.0
C1177 C 0.07605 0.9018 0.48675 0.0
C1178 C 0.12897 0.88623 0.49794 0.0
C1179 C 0.15868 0.84594 0.46809 0.0
C1180 C 0.14293 0.86148 0.47362 0.0
C1181 C 0.09696 0.906 0.48995 0.0
C1182 C 0.11275 0.89064 0.4844 0.0
H1183 H 0.16291 0.79918 0.44523 0.0
H1184 H 0.13724 0.82501 0.45348 0.0
H1185 H 0.15588 0.86834 0.50364 0.0
H1186 H 0.09284 0.95475 0.50803 0.0
H1187 H 0.11876 0.9288 0.5005 0.0
C1188 C 0.45285 0.19101 0.17101 0.0
C1189 C 0.4588 0.18807 0.19161 0.0
C1190 C 0.45676 0.17597 0.15623 0.0
C1191 C 0.49057 0.13139 0.14674 0.0
H1192 H 0.45269 0.12086 0.10191 0.0
C1193 C 0.49947 0.06398 0.08959 0.0
C1194 C 0.49637 0.06854 0.06866 0.0
C1195 C 0.49523 0.07861 0.1047 0.0
C1196 C 0.46347 0.12378 0.11426 0.0
H1197 H 0.47314 0.16672 0.21284 0.0
H1198 H 0.47913 0.14021 0.18729 0.0
H1199 H 0.44356 0.1457 0.12843 0.0
H1200 H 0.48661 0.09215 0.04721 0.0
H1201 H 0.4792 0.11759 0.07364 0.0
H1202 H 0.51032 0.10919 0.13264 0.0
C1203 C 0.47188 0.15434 0.18244 0.0
C1204 C 0.45828 0.13802 0.12944 0.0
C1205 C 0.46812 0.16944 0.19718 0.0
C1206 C 0.48927 0.08814 0.06317 0.0
C1207 C 0.48484 0.10267 0.0783 0.0
C1208 C 0.49567 0.11702 0.13166 0.0
C1209 C 0.46657 0.15756 0.16173 0.0
C1210 C 0.4718 0.14205 0.14583 0.0
C1211 C 0.48762 0.09799 0.0992 0.0
C1212 C 0.48221 0.11315 0.11524 0.0
H1213 H 0.4454 0.20506 0.16623 0.0
H1214 H 0.4526 0.17904 0.14039 0.0
H1215 H 0.50154 0.13439 0.15891 0.0
H1216 H 0.50496 0.04905 0.09435 0.0
H1217 H 0.49741 0.07458 0.12073 0.0
C1218 C 0.80919 0.53102 0.17212 0.0
C1219 C 0.8141 0.54314 0.18934 0.0
C1220 C 0.82382 0.52717 0.15691 0.0
C1221 C 0.87403 0.54545 0.13685 0.0
H1222 H 0.87571 0.49155 0.11169 0.0
C1223 C 0.94156 0.51778 0.08672 0.0
C1224 C 0.93629 0.5091 0.06763 0.0
C1225 C 0.92646 0.52175 0.10142 0.0
C1226 C 0.8753 0.5067 0.1185 0.0
H1227 H 0.83826 0.56099 0.20378 0.0
H1228 H 0.86401 0.55354 0.17774 0.0
H1229 H 0.84979 0.49907 0.13773 0.0
H1230 H 0.91111 0.49734 0.04918 0.0
H1231 H 0.88473 0.50402 0.07512 0.0
H1232 H 0.89994 0.5528 0.11791 0.0
C1233 C 0.8487 0.54734 0.17577 0.0
C1234 C 0.86041 0.51107 0.13335 0.0
C1235 C 0.83399 0.55139 0.19088 0.0
C1236 C 0.91565 0.50409 0.06372 0.0
C1237 C 0.90057 0.50782 0.07857 0.0
C1238 C 0.88906 0.54098 0.12219 0.0
C1239 C 0.84382 0.53513 0.15861 0.0
C1240 C 0.85958 0.53051 0.1427 0.0
C1241 C 0.90583 0.51689 0.09745 0.0
C1242 C 0.88982 0.52158 0.1129 0.0
H1243 H 0.79413 0.52415 0.17054 0.0
H1244 H 0.8194 0.51795 0.14377 0.0
H1245 H 0.87362 0.56069 0.14341 0.0
H1246 H 0.9573 0.52195 0.09017 0.0
H1247 H 0.93091 0.5286 0.11594 0.0
C1248 C 0.54742 0.81259 0.16931 0.0
C1249 C 0.54238 0.81564 0.19013 0.0
C1250 C 0.54324 0.82772 0.1547 0.0
C1251 C 0.53338 0.88272 0.14839 0.0
H1252 H 0.50581 0.86605 0.09819 0.0
C1253 C 0.50311 0.94182 0.08971 0.0
C1254 C 0.50593 0.93723 0.06876 0.0
C1255 C 0.50686 0.92699 0.10477 0.0
C1256 C 0.51373 0.87095 0.112 0.0
H1257 H 0.52918 0.83718 0.21191 0.0
H1258 H 0.52234 0.86374 0.18645 0.0
H1259 H 0.51488 0.84037 0.12386 0.0
H1260 H 0.51484 0.91335 0.04724 0.0
H1261 H 0.5217 0.88775 0.07342 0.0
H1262 H 0.53259 0.91324 0.13643 0.0
C1263 C 0.52958 0.84963 0.18149 0.0
C1264 C 0.5189 0.85623 0.1267 0.0
C1265 C 0.53359 0.83443 0.19608 0.0
C1266 C 0.51229 0.9174 0.0632 0.0
C1267 C 0.51618 0.90264 0.07825 0.0
C1268 C 0.52836 0.89744 0.1336 0.0
C1269 C 0.5341 0.84631 0.16063 0.0
C1270 C 0.5288 0.86197 0.14501 0.0
C1271 C 0.51364 0.90728 0.09922 0.0
C1272 C 0.5185 0.89172 0.1152 0.0
H1273 H 0.55452 0.79845 0.16425 0.0
H1274 H 0.54717 0.8249 0.13875 0.0
H1275 H 0.54117 0.88753 0.16231 0.0
H1276 H 0.49811 0.9569 0.09453 0.0
H1277 H 0.50441 0.93097 0.12076 0.0
C1278 C 0.17194 0.53071 0.19483 0.0
C1279 C 0.18915 0.5428 0.18992 0.0
C1280 C 0.15683 0.52673 0.18012 0.0
C1281 C 0.13713 0.54452 0.12952 0.0
H1282 H 0.1119 0.49066 0.12833 0.0
C1283 C 0.08705 0.51634 0.06212 0.0
C1284 C 0.06786 0.50802 0.06754 0.0
C1285 C 0.1018 0.52028 0.07718 0.0
C1286 C 0.11875 0.50579 0.1286 0.0
H1287 H 0.20369 0.56049 0.16566 0.0
H1288 H 0.17786 0.55279 0.13977 0.0
H1289 H 0.13783 0.4984 0.1543 0.0
H1290 H 0.04932 0.4968 0.09291 0.0
H1291 H 0.07536 0.50341 0.11922 0.0
H1292 H 0.11834 0.55162 0.10342 0.0
C1293 C 0.1758 0.54672 0.15514 0.0
C1294 C 0.13352 0.51029 0.14351 0.0
C1295 C 0.19079 0.5509 0.16993 0.0
C1296 C 0.06393 0.50328 0.08827 0.0
C1297 C 0.07884 0.50696 0.1033 0.0
C1298 C 0.12255 0.53991 0.11446 0.0
C1299 C 0.15866 0.53451 0.16003 0.0
C1300 C 0.14288 0.52974 0.14419 0.0
C1301 C 0.09779 0.51574 0.09791 0.0
C1302 C 0.11323 0.52052 0.11388 0.0
H1303 H 0.17027 0.52395 0.20995 0.0
H1304 H 0.1437 0.51754 0.18454 0.0
H1305 H 0.14369 0.55976 0.1298 0.0
H1306 H 0.09052 0.5203 0.04631 0.0
H1307 H 0.11638 0.5269 0.07263 0.0
C1308 C 0.46149 0.83752 0.80892 0.0
C1309 C 0.45936 0.81693 0.81487 0.0
C1310 C 0.46519 0.85268 0.82364 0.0
C1311 C 0.46182 0.86346 0.8794 0.0
H1312 H 0.50404 0.90376 0.86769 0.0
C1313 C 0.49401 0.91685 0.94209 0.0
C1314 C 0.49646 0.9376 0.93679 0.0
C1315 C 0.4897 0.90224 0.927 0.0
C1316 C 0.49208 0.89274 0.8711 0.0
H1317 H 0.45863 0.79618 0.84093 0.0
H1318 H 0.46538 0.82256 0.86657 0.0
H1319 H 0.49502 0.87841 0.84163 0.0
H1320 H 0.49668 0.95911 0.91124 0.0
H1321 H 0.4891 0.93362 0.88504 0.0
H1322 H 0.45895 0.87772 0.9089 0.0
C1323 C 0.46409 0.82704 0.85057 0.0
C1324 C 0.48687 0.87825 0.85616 0.0
C1325 C 0.46043 0.8119 0.83587 0.0
C1326 C 0.49497 0.94329 0.91594 0.0
C1327 C 0.49068 0.92866 0.90087 0.0
C1328 C 0.46704 0.87793 0.89433 0.0
C1329 C 0.46675 0.84756 0.8446 0.0
C1330 C 0.47174 0.86341 0.86018 0.0
C1331 C 0.48777 0.90803 0.90626 0.0
C1332 C 0.48228 0.89267 0.89037 0.0
H1333 H 0.4609 0.84184 0.79283 0.0
H1334 H 0.46693 0.86841 0.8186 0.0
H1335 H 0.44989 0.8524 0.88284 0.0
H1336 H 0.4951 0.91185 0.95795 0.0
H1337 H 0.48785 0.88638 0.93158 0.0
C1338 C 0.17049 0.46689 0.80878 0.0
C1339 C 0.18893 0.45722 0.81449 0.0
C1340 C 0.15525 0.47081 0.82338 0.0
C1341 C 0.13802 0.45683 0.876 0.0
H1342 H 0.10942 0.5089 0.87293 0.0
C1343 C 0.0874 0.48744 0.94195 0.0
C1344 C 0.06788 0.49482 0.93634 0.0
C1345 C 0.10207 0.48298 0.92694 0.0
C1346 C 0.11718 0.49425 0.87387 0.0
H1347 H 0.2055 0.44351 0.83999 0.0
H1348 H 0.17926 0.451 0.86559 0.0
H1349 H 0.13504 0.5003 0.84695 0.0
H1350 H 0.0487 0.5038 0.91053 0.0
H1351 H 0.07447 0.49619 0.88434 0.0
H1352 H 0.12038 0.45104 0.90321 0.0
C1353 C 0.17642 0.45529 0.84974 0.0
C1354 C 0.13179 0.48925 0.85895 0.0
C1355 C 0.1916 0.45122 0.8351 0.0
C1356 C 0.06355 0.49809 0.91539 0.0
C1357 C 0.07832 0.49383 0.90038 0.0
C1358 C 0.12354 0.46192 0.89101 0.0
C1359 C 0.15815 0.46532 0.8441 0.0
C1360 C 0.14239 0.47048 0.85983 0.0
C1361 C 0.09763 0.486 0.90601 0.0
C1362 C 0.11299 0.48067 0.89009 0.0
H1363 H 0.16799 0.47196 0.79311 0.0
H1364 H 0.14123 0.47826 0.81841 0.0
H1365 H 0.14563 0.44211 0.87697 0.0
H1366 H 0.09124 0.48464 0.95793 0.0
H1367 H 0.11692 0.47717 0.9317 0.0
C1368 C 0.53903 0.19476 0.83484 0.0
C1369 C 0.54168 0.18922 0.81411 0.0
C1370 C 0.53509 0.17987 0.84973 0.0
C1371 C 0.53911 0.12447 0.8601 0.0
H1372 H 0.49736 0.13583 0.90117 0.0
C1373 C 0.50975 0.06254 0.91599 0.0
C1374 C 0.50749 0.0683 0.93674 0.0
C1375 C 0.51343 0.07727 0.90086 0.0
C1376 C 0.50919 0.13252 0.88993 0.0
H1377 H 0.54243 0.16371 0.79274 0.0
H1378 H 0.53554 0.13764 0.81878 0.0
H1379 H 0.5053 0.16152 0.87511 0.0
H1380 H 0.50699 0.09424 0.9577 0.0
H1381 H 0.51351 0.11985 0.93127 0.0
H1382 H 0.543 0.09546 0.87494 0.0
C1383 C 0.53674 0.1535 0.82354 0.0
C1384 C 0.51376 0.14723 0.87501 0.0
C1385 C 0.5407 0.16842 0.80863 0.0
C1386 C 0.50862 0.0892 0.9419 0.0
C1387 C 0.51227 0.10393 0.92674 0.0
C1388 C 0.53453 0.10975 0.87501 0.0
C1389 C 0.53369 0.15909 0.84422 0.0
C1390 C 0.5288 0.14339 0.85997 0.0
C1391 C 0.5149 0.0981 0.90609 0.0
C1392 C 0.51955 0.11363 0.8901 0.0
H1393 H 0.54004 0.21064 0.83957 0.0
H1394 H 0.53321 0.18462 0.86559 0.0
H1395 H 0.55097 0.12117 0.84888 0.0
H1396 H 0.50896 0.04662 0.91137 0.0
H1397 H 0.5151 0.07233 0.88503 0.0
C1398 C 0.83496 0.45015 0.81331 0.0
C1399 C 0.81433 0.45598 0.81599 0.0
C1400 C 0.84957 0.45446 0.82844 0.0
C1401 C 0.85859 0.48896 0.87273 0.0
H1402 H 0.90325 0.45137 0.88432 0.0
C1403 C 0.91546 0.49917 0.94051 0.0
C1404 C 0.93635 0.49592 0.93606 0.0
C1405 C 0.90038 0.49469 0.92588 0.0
C1406 C 0.89094 0.46207 0.88111 0.0
H1407 H 0.79289 0.47062 0.83694 0.0
H1408 H 0.81817 0.47736 0.86362 0.0
H1409 H 0.87697 0.44184 0.85934 0.0
H1410 H 0.95776 0.48558 0.91258 0.0
H1411 H 0.93142 0.47776 0.88715 0.0
H1412 H 0.8725 0.50905 0.89478 0.0
C1413 C 0.82315 0.46985 0.84962 0.0
C1414 C 0.8759 0.45665 0.86678 0.0
C1415 C 0.80857 0.46568 0.83443 0.0
C1416 C 0.94184 0.48839 0.91653 0.0
C1417 C 0.92675 0.48372 0.902 0.0
C1418 C 0.87353 0.4943 0.88719 0.0
C1419 C 0.84388 0.46457 0.84669 0.0
C1420 C 0.85959 0.47006 0.86234 0.0
C1421 C 0.90589 0.48666 0.90659 0.0
C1422 C 0.8899 0.48096 0.89143 0.0
H1423 H 0.83988 0.44242 0.79941 0.0
H1424 H 0.86543 0.45033 0.82557 0.0
H1425 H 0.84646 0.49984 0.86943 0.0
H1426 H 0.91069 0.50498 0.95538 0.0
H1427 H 0.88438 0.497 0.92984 0.0
C1428 C 0.67024 0.69031 0.05216 0.0
C1429 C 0.69062 0.68787 0.0454 0.0
C1430 C 0.6556 0.6751 0.04842 0.0
C1431 C 0.64559 0.63095 0.0141 0.0
H1432 H 0.60251 0.61906 0.05357 0.0
C1433 C 0.58887 0.56314 0.0058 0.0
C1434 C 0.56806 0.56753 0.00957 0.0
C1435 C 0.60402 0.57773 0.00998 0.0
C1436 C 0.61438 0.62235 0.04235 0.0
H1437 H 0.71161 0.66727 0.0297 0.0
H1438 H 0.68634 0.64045 0.02399 0.0
H1439 H 0.62896 0.64413 0.06212 0.0
H1440 H 0.54685 0.59078 0.0206 0.0
H1441 H 0.57334 0.61614 0.02792 0.0
H1442 H 0.63108 0.60888 0.99448 0.0
C1443 C 0.68154 0.65433 0.03177 0.0
C1444 C 0.62951 0.63673 0.04722 0.0
C1445 C 0.69613 0.6696 0.03535 0.0
C1446 C 0.56272 0.58691 0.0174 0.0
C1447 C 0.57788 0.60139 0.02177 0.0
C1448 C 0.63057 0.61643 0.00933 0.0
C1449 C 0.66103 0.65702 0.03799 0.0
C1450 C 0.64525 0.64128 0.03311 0.0
C1451 C 0.59868 0.59689 0.01822 0.0
C1452 C 0.61476 0.61208 0.02336 0.0
H1453 H 0.66551 0.70407 0.06019 0.0
H1454 H 0.63992 0.67779 0.05328 0.0
H1455 H 0.65725 0.63434 0.0027 0.0
H1456 H 0.59352 0.54838 0.99975 0.0
H1457 H 0.61997 0.57384 0.0072 0.0
C1458 C 0.30958 0.67027 0.96877 0.0
C1459 C 0.31539 0.68865 0.95908 0.0
C1460 C 0.32412 0.6551 0.97292 0.0
C1461 C 0.37675 0.6379 0.95937 0.0
H1462 H 0.37324 0.60934 0.01164 0.0
C1463 C 0.44238 0.5875 0.99043 0.0
C1464 C 0.43677 0.56797 0.99768 0.0
C1465 C 0.42739 0.60214 0.98601 0.0
C1466 C 0.3743 0.61709 0.99693 0.0
H1467 H 0.341 0.70517 0.9456 0.0
H1468 H 0.36648 0.67904 0.95348 0.0
H1469 H 0.34738 0.63491 0.00278 0.0
H1470 H 0.41101 0.54874 0.0065 0.0
H1471 H 0.38485 0.57448 0.99895 0.0
H1472 H 0.40395 0.62031 0.95378 0.0
C1473 C 0.35061 0.67621 0.95761 0.0
C1474 C 0.35946 0.63167 0.99179 0.0
C1475 C 0.33604 0.69132 0.95332 0.0
C1476 C 0.41586 0.56361 0.00091 0.0
C1477 C 0.40087 0.57835 0.99667 0.0
C1478 C 0.39169 0.62345 0.9646 0.0
C1479 C 0.34486 0.65798 0.96763 0.0
C1480 C 0.3605 0.64226 0.97294 0.0
C1481 C 0.4065 0.59765 0.98891 0.0
C1482 C 0.39061 0.61293 0.98343 0.0
H1483 H 0.29388 0.66777 0.97368 0.0
H1484 H 0.31909 0.64112 0.98036 0.0
H1485 H 0.37784 0.64548 0.94459 0.0
H1486 H 0.45832 0.59137 0.98765 0.0
H1487 H 0.43215 0.61698 0.98025 0.0
C1488 C 0.33405 0.30991 0.96678 0.0
C1489 C 0.31559 0.31567 0.95713 0.0
C1490 C 0.34926 0.32442 0.9709 0.0
C1491 C 0.36639 0.37699 0.95746 0.0
H1492 H 0.39503 0.37342 0.00971 0.0
C1493 C 0.41685 0.44244 0.98873 0.0
C1494 C 0.43642 0.43685 0.99598 0.0
C1495 C 0.40219 0.42749 0.98422 0.0
C1496 C 0.38726 0.3745 0.995 0.0
H1497 H 0.29897 0.3412 0.94369 0.0
H1498 H 0.32516 0.36664 0.95152 0.0
H1499 H 0.36945 0.34759 0.00079 0.0
H1500 H 0.45572 0.41115 0.00473 0.0
H1501 H 0.42996 0.38506 0.99704 0.0
H1502 H 0.38397 0.40417 0.95193 0.0
C1503 C 0.32803 0.35082 0.95563 0.0
C1504 C 0.37267 0.35967 0.98983 0.0
C1505 C 0.31288 0.33626 0.95137 0.0
C1506 C 0.44082 0.41599 0.99912 0.0
C1507 C 0.42606 0.40104 0.99481 0.0
C1508 C 0.38084 0.3919 0.96272 0.0
C1509 C 0.34632 0.34511 0.96563 0.0
C1510 C 0.36206 0.36073 0.97098 0.0
C1511 C 0.40671 0.40665 0.98706 0.0
C1512 C 0.3914 0.39081 0.98154 0.0
H1513 H 0.33658 0.29425 0.97168 0.0
H1514 H 0.36329 0.31942 0.97832 0.0
H1515 H 0.35878 0.37809 0.94268 0.0
H1516 H 0.41294 0.45835 0.98603 0.0
H1517 H 0.38731 0.43223 0.97848 0.0
C1518 C 0.69532 0.33467 0.96702 0.0
C1519 C 0.68952 0.31626 0.95739 0.0
C1520 C 0.68078 0.34986 0.97109 0.0
C1521 C 0.62813 0.36704 0.95759 0.0
H1522 H 0.63158 0.39538 0.00997 0.0
C1523 C 0.56237 0.41713 0.98896 0.0
C1524 C 0.56792 0.43658 0.99645 0.0
C1525 C 0.5774 0.40258 0.98436 0.0
C1526 C 0.63054 0.3877 0.99523 0.0
H1527 H 0.66393 0.29971 0.94391 0.0
H1528 H 0.63845 0.32589 0.95164 0.0
H1529 H 0.6575 0.36992 0.001 0.0
H1530 H 0.59364 0.45578 0.00548 0.0
H1531 H 0.61987 0.43022 0.99761 0.0
H1532 H 0.60089 0.38459 0.95207 0.0
C1533 C 0.65431 0.32873 0.95579 0.0
C1534 C 0.64541 0.37317 0.99003 0.0
C1535 C 0.66889 0.31359 0.95157 0.0
C1536 C 0.58883 0.44096 0.99971 0.0
C1537 C 0.60385 0.42632 0.99529 0.0
C1538 C 0.61316 0.38143 0.96288 0.0
C1539 C 0.66005 0.34696 0.96579 0.0
C1540 C 0.64439 0.36266 0.97114 0.0
C1541 C 0.59829 0.40709 0.98732 0.0
C1542 C 0.61421 0.39188 0.98175 0.0
H1543 H 0.71102 0.33717 0.97195 0.0
H1544 H 0.68581 0.36385 0.97852 0.0
H1545 H 0.62705 0.35949 0.94278 0.0
H1546 H 0.54644 0.41324 0.98614 0.0
H1547 H 0.57268 0.38779 0.97844 0.0
C1548 C 0.95789 0.69288 0.66829 0.0
C1549 C 0.95831 0.68804 0.68936 0.0
C1550 C 0.96202 0.6779 0.65354 0.0
C1551 C 0.98856 0.62854 0.64738 0.0
H1552 H 0.95828 0.62608 0.59604 0.0
C1553 C 0.99774 0.56278 0.58864 0.0
C1554 C 0.99781 0.56801 0.56763 0.0
C1555 C 0.99347 0.57753 0.60359 0.0
C1556 C 0.96703 0.62675 0.6102 0.0
H1557 H 0.96299 0.6636 0.71148 0.0
H1558 H 0.96977 0.63729 0.68567 0.0
H1559 H 0.94857 0.65113 0.62212 0.0
H1560 H 0.99402 0.59311 0.54598 0.0
H1561 H 0.98677 0.61882 0.57213 0.0
H1562 H 0.00699 0.60411 0.63545 0.0
C1563 C 0.96652 0.65276 0.68059 0.0
C1564 C 0.96144 0.64106 0.62515 0.0
C1565 C 0.96238 0.66776 0.69535 0.0
C1566 C 0.99407 0.58848 0.56199 0.0
C1567 C 0.98974 0.60321 0.57696 0.0
C1568 C 0.99412 0.61421 0.63244 0.0
C1569 C 0.96665 0.65774 0.65954 0.0
C1570 C 0.97217 0.64214 0.64389 0.0
C1571 C 0.98914 0.59783 0.59788 0.0
C1572 C 0.98344 0.61319 0.61367 0.0
H1573 H 0.95459 0.70834 0.66319 0.0
H1574 H 0.96214 0.68227 0.63746 0.0
H1575 H 0.99735 0.62923 0.66152 0.0
H1576 H 0.00057 0.54719 0.5936 0.0
H1577 H 0.99296 0.57289 0.61959 0.0
C1578 C 0.33037 0.97419 0.69414 0.0
C1579 C 0.31328 0.96189 0.68932 0.0
C1580 C 0.34517 0.97863 0.67925 0.0
C1581 C 0.36455 0.96153 0.62836 0.0
H1582 H 0.3896 0.01548 0.62763 0.0
C1583 C 0.41561 0.98968 0.56171 0.0
C1584 C 0.43474 0.9979 0.56747 0.0
C1585 C 0.40051 0.98592 0.57648 0.0
C1586 C 0.38279 0.00033 0.62776 0.0
H1587 H 0.29859 0.94441 0.66501 0.0
H1588 H 0.32389 0.95289 0.63884 0.0
H1589 H 0.36363 0.00745 0.65349 0.0
H1590 H 0.45278 0.00922 0.59317 0.0
H1591 H 0.42616 0.00291 0.61895 0.0
H1592 H 0.38346 0.95466 0.60229 0.0
C1593 C 0.32609 0.95877 0.65426 0.0
C1594 C 0.36799 0.99566 0.64261 0.0
C1595 C 0.3114 0.95413 0.66922 0.0
C1596 C 0.43823 0.00281 0.58825 0.0
C1597 C 0.42299 0.9993 0.60299 0.0
C1598 C 0.37915 0.9663 0.61337 0.0
C1599 C 0.34315 0.97111 0.65909 0.0
C1600 C 0.35875 0.97617 0.64315 0.0
C1601 C 0.40412 0.99055 0.59725 0.0
C1602 C 0.38844 0.98571 0.61298 0.0
H1603 H 0.33219 0.98071 0.70936 0.0
H1604 H 0.35825 0.98792 0.68363 0.0
H1605 H 0.35806 0.94625 0.62852 0.0
H1606 H 0.41246 0.9856 0.54585 0.0
H1607 H 0.38601 0.97933 0.57166 0.0
C1608 C 0.04153 0.31134 0.67077 0.0
C1609 C 0.0432 0.31657 0.69168 0.0
C1610 C 0.03785 0.32639 0.65598 0.0
C1611 C 0.01628 0.37812 0.6502 0.0
H1612 H 0.04341 0.37639 0.59709 0.0
C1613 C 0.0091 0.44284 0.58994 0.0
C1614 C 0.00722 0.43703 0.56917 0.0
C1615 C 0.01318 0.42824 0.6051 0.0
C1616 C 0.03554 0.37693 0.61176 0.0
H1617 H 0.04264 0.34174 0.71347 0.0
H1618 H 0.03657 0.36815 0.68754 0.0
H1619 H 0.05215 0.35106 0.62324 0.0
H1620 H 0.00764 0.41107 0.54821 0.0
H1621 H 0.01454 0.38565 0.57472 0.0
H1622 H 0.99964 0.40399 0.63869 0.0
C1623 C 0.03786 0.35234 0.68264 0.0
C1624 C 0.04057 0.36246 0.62675 0.0
C1625 C 0.04158 0.33726 0.69745 0.0
C1626 C 0.00906 0.41617 0.56401 0.0
C1627 C 0.01316 0.40158 0.57918 0.0
C1628 C 0.01125 0.39261 0.63521 0.0
C1629 C 0.03577 0.34703 0.66177 0.0
C1630 C 0.03094 0.36284 0.64611 0.0
C1631 C 0.01549 0.40749 0.59985 0.0
C1632 C 0.02077 0.39212 0.6158 0.0
H1633 H 0.04293 0.29554 0.66584 0.0
H1634 H 0.03615 0.32178 0.64006 0.0
H1635 H 0.00836 0.37863 0.66485 0.0
H1636 H 0.00783 0.45875 0.59453 0.0
H1637 H 0.01508 0.43329 0.62086 0.0
C1638 C 0.67054 0.03166 0.69818 0.0
C1639 C 0.68768 0.04371 0.69292 0.0
C1640 C 0.65509 0.02779 0.68381 0.0
C1641 C 0.63444 0.04567 0.63358 0.0
H1642 H 0.6097 0.99159 0.63236 0.0
C1643 C 0.58564 0.01663 0.56575 0.0
C1644 C 0.56648 0.00804 0.57082 0.0
C1645 C 0.60001 0.02091 0.58108 0.0
C1646 C 0.61638 0.00679 0.63266 0.0
H1647 H 0.70168 0.06151 0.66844 0.0
H1648 H 0.67526 0.054 0.64312 0.0
H1649 H 0.63564 0.99951 0.65827 0.0
H1650 H 0.54757 0.99674 0.59588 0.0
H1651 H 0.57298 0.00392 0.62268 0.0
H1652 H 0.61556 0.05263 0.60751 0.0
C1653 C 0.67352 0.04787 0.65851 0.0
C1654 C 0.63117 0.01139 0.64754 0.0
C1655 C 0.68886 0.05194 0.67296 0.0
C1656 C 0.56217 0.00341 0.5915 0.0
C1657 C 0.57671 0.00743 0.60682 0.0
C1658 C 0.61987 0.04096 0.61856 0.0
C1659 C 0.65648 0.03567 0.66372 0.0
C1660 C 0.64042 0.03089 0.64816 0.0
C1661 C 0.59564 0.01645 0.60174 0.0
C1662 C 0.61076 0.02147 0.61794 0.0
H1663 H 0.66922 0.02481 0.7133 0.0
H1664 H 0.64205 0.01859 0.68847 0.0
H1665 H 0.64091 0.06095 0.63383 0.0
H1666 H 0.58939 0.02053 0.54998 0.0
H1667 H 0.61458 0.0277 0.57677 0.0
C1668 C 0.96525 0.33339 0.31054 0.0
C1669 C 0.9568 0.31437 0.31622 0.0
C1670 C 0.96881 0.34852 0.32529 0.0
C1671 C 0.97926 0.35448 0.38015 0.0
H1672 H 0.96633 0.4117 0.37062 0.0
C1673 C 0.98827 0.41582 0.44331 0.0
C1674 C 0.99511 0.43541 0.43745 0.0
C1675 C 0.98365 0.40106 0.42847 0.0
C1676 C 0.97031 0.39583 0.3734 0.0
H1677 H 0.94465 0.29673 0.34179 0.0
H1678 H 0.95117 0.32311 0.36761 0.0
H1679 H 0.95714 0.38617 0.34479 0.0
H1680 H 0.00305 0.45461 0.41134 0.0
H1681 H 0.99547 0.42867 0.3855 0.0
H1682 H 0.99277 0.36407 0.40854 0.0
C1683 C 0.9552 0.32615 0.35172 0.0
C1684 C 0.96494 0.38122 0.35865 0.0
C1685 C 0.95149 0.31106 0.33694 0.0
C1686 C 0.99768 0.43973 0.41641 0.0
C1687 C 0.9932 0.4249 0.40157 0.0
C1688 C 0.98477 0.3691 0.39483 0.0
C1689 C 0.96414 0.34492 0.34607 0.0
C1690 C 0.96934 0.3604 0.36189 0.0
C1691 C 0.98591 0.40547 0.40742 0.0
C1692 C 0.98034 0.38995 0.39165 0.0
H1693 H 0.96987 0.33634 0.2948 0.0
H1694 H 0.97591 0.36277 0.32054 0.0
H1695 H 0.98315 0.33857 0.38289 0.0
H1696 H 0.98591 0.412 0.45936 0.0
H1697 H 0.9778 0.38637 0.43353 0.0
C1698 C 0.69376 0.95236 0.33791 0.0
C1699 C 0.69066 0.9582 0.31731 0.0
C1700 C 0.67891 0.95659 0.35285 0.0
C1701 C 0.63455 0.99071 0.36273 0.0
H1702 H 0.62334 0.95246 0.407 0.0
C1703 C 0.56593 0.99897 0.41859 0.0
C1704 C 0.56991 0.99548 0.43957 0.0
C1705 C 0.58099 0.99498 0.4038 0.0
C1706 C 0.62647 0.96336 0.39482 0.0
H1707 H 0.6693 0.97286 0.29628 0.0
H1708 H 0.64314 0.97946 0.32211 0.0
H1709 H 0.6485 0.94357 0.38066 0.0
H1710 H 0.59296 0.98525 0.46146 0.0
H1711 H 0.61917 0.97826 0.43559 0.0
H1712 H 0.6122 0.01032 0.37678 0.0
C1713 C 0.65724 0.972 0.32683 0.0
C1714 C 0.64089 0.9583 0.37974 0.0
C1715 C 0.67213 0.9679 0.31193 0.0
C1716 C 0.58939 0.9882 0.44545 0.0
C1717 C 0.60436 0.98403 0.43064 0.0
C1718 C 0.62 0.99569 0.37771 0.0
C1719 C 0.66056 0.96665 0.34752 0.0
C1720 C 0.64511 0.97191 0.36351 0.0
C1721 C 0.60025 0.98723 0.40967 0.0
C1722 C 0.61584 0.98208 0.39391 0.0
H1723 H 0.70774 0.94464 0.34255 0.0
H1724 H 0.68206 0.95239 0.36866 0.0
H1725 H 0.6377 0.00174 0.35068 0.0
H1726 H 0.55112 0.00462 0.41352 0.0
H1727 H 0.57737 0.99747 0.38772 0.0
C1728 C 0.03236 0.69436 0.33371 0.0
C1729 C 0.04233 0.68937 0.31516 0.0
C1730 C 0.02879 0.67939 0.34863 0.0
C1731 C 0.02172 0.62421 0.35448 0.0
H1732 H 0.03236 0.63458 0.41227 0.0
C1733 C 0.01478 0.56097 0.41614 0.0
C1734 C 0.00727 0.5665 0.43564 0.0
C1735 C 0.01885 0.57593 0.40133 0.0
C1736 C 0.029 0.63153 0.39623 0.0
H1737 H 0.05694 0.66475 0.29811 0.0
H1738 H 0.05033 0.63852 0.32406 0.0
H1739 H 0.04053 0.66082 0.38684 0.0
H1740 H 0.9975 0.59204 0.45466 0.0
H1741 H 0.00405 0.61807 0.42863 0.0
H1742 H 0.00983 0.59512 0.36379 0.0
C1743 C 0.04517 0.65405 0.32691 0.0
C1744 C 0.03379 0.64654 0.38168 0.0
C1745 C 0.04892 0.66907 0.31205 0.0
C1746 C 0.00344 0.58728 0.43984 0.0
C1747 C 0.00733 0.60222 0.42495 0.0
C1748 C 0.01676 0.60927 0.36904 0.0
C1749 C 0.03494 0.65905 0.34526 0.0
C1750 C 0.03022 0.64301 0.36067 0.0
C1751 C 0.01533 0.59676 0.40561 0.0
C1752 C 0.02036 0.61274 0.3901 0.0
H1753 H 0.02671 0.70973 0.33648 0.0
H1754 H 0.02066 0.6836 0.36255 0.0
H1755 H 0.01854 0.62122 0.33839 0.0
H1756 H 0.0181 0.54512 0.41246 0.0
H1757 H 0.02528 0.57118 0.38671 0.0
C1758 C 0.33658 0.95323 0.31261 0.0
C1759 C 0.31658 0.96115 0.31449 0.0
C1760 C 0.35156 0.95776 0.32731 0.0
C1761 C 0.36351 0.99472 0.36911 0.0
H1762 H 0.40349 0.95351 0.38477 0.0
C1763 C 0.4179 0.00204 0.4393 0.0
C1764 C 0.4386 0.99696 0.43584 0.0
C1765 C 0.40315 0.99846 0.42409 0.0
C1766 C 0.39251 0.9652 0.3804 0.0
H1767 H 0.29673 0.98012 0.33344 0.0
H1768 H 0.32249 0.98717 0.35951 0.0
H1769 H 0.37721 0.94516 0.35939 0.0
H1770 H 0.46007 0.98425 0.41365 0.0
H1771 H 0.43424 0.97787 0.38724 0.0
H1772 H 0.37863 0.01454 0.39062 0.0
C1773 C 0.32677 0.97783 0.34642 0.0
C1774 C 0.37749 0.96047 0.36582 0.0
C1775 C 0.31187 0.97348 0.33161 0.0
C1776 C 0.44428 0.98847 0.41677 0.0
C1777 C 0.42949 0.98466 0.4017 0.0
C1778 C 0.37839 0.99936 0.38388 0.0
C1779 C 0.34685 0.97016 0.34438 0.0
C1780 C 0.36282 0.97518 0.35995 0.0
C1781 C 0.40879 0.98948 0.40528 0.0
C1782 C 0.39304 0.98466 0.38961 0.0
H1783 H 0.34071 0.94348 0.29977 0.0
H1784 H 0.36692 0.95178 0.32511 0.0
H1785 H 0.35272 0.00656 0.36469 0.0
H1786 H 0.41305 0.00864 0.4538 0.0
H1787 H 0.38724 0.00222 0.42725 0.0
C1788 C 0.00564 0.18958 0.32209 0.0
C1789 C 0.99851 0.18188 0.30318 0.0
C1790 C 0.00955 0.17635 0.33857 0.0
C1791 C 0.01846 0.12208 0.35233 0.0
H1792 H 0.99371 0.13717 0.40449 0.0
C1793 C 0.00458 0.0629 0.41624 0.0
C1794 C 0.00706 0.06873 0.43695 0.0
C1795 C 0.00567 0.07737 0.40049 0.0
C1796 C 0.00105 0.13284 0.39017 0.0
H1797 H 0.99085 0.15421 0.28642 0.0
H1798 H 0.99774 0.13109 0.31517 0.0
H1799 H 0.99268 0.16113 0.37571 0.0
H1800 H 0.01272 0.09456 0.4572 0.0
H1801 H 0.01489 0.11986 0.42956 0.0
H1802 H 0.02673 0.09376 0.36668 0.0
C1803 C 0.00031 0.14735 0.31727 0.0
C1804 C 0.00043 0.14659 0.37365 0.0
C1805 C 0.99624 0.16059 0.30084 0.0
C1806 C 0.01067 0.0895 0.44146 0.0
C1807 C 0.01184 0.10403 0.4256 0.0
C1808 C 0.01919 0.10839 0.36887 0.0
C1809 C 0.00658 0.15512 0.33646 0.0
C1810 C 0.00884 0.14122 0.35445 0.0
C1811 C 0.00938 0.09812 0.40491 0.0
C1812 C 0.01016 0.11343 0.3879 0.0
H1813 H 0.00733 0.20592 0.32447 0.0
H1814 H 0.01457 0.18278 0.3531 0.0
H1815 H 0.02535 0.11762 0.33783 0.0
H1816 H 0.0016 0.0471 0.41208 0.0
H1817 H 0.00324 0.07229 0.38481 0.0
C1818 C 0.8186 0.99973 0.32006 0.0
C1819 C 0.82545 0.99334 0.30057 0.0
C1820 C 0.8326 0.00315 0.33603 0.0
C1821 C 0.88486 0.98779 0.35201 0.0
H1822 H 0.87755 0.02921 0.39419 0.0
C1823 C 0.94599 0.00246 0.41408 0.0
C1824 C 0.93926 0.00485 0.43454 0.0
C1825 C 0.93198 0.00223 0.39784 0.0
C1826 C 0.87967 0.01746 0.38261 0.0
H1827 H 0.85242 0.98675 0.28219 0.0
H1828 H 0.87691 0.99315 0.30989 0.0
H1829 H 0.85379 0.02782 0.36506 0.0
H1830 H 0.91234 0.00917 0.45378 0.0
H1831 H 0.88781 0.00873 0.42524 0.0
H1832 H 0.91071 0.97746 0.36948 0.0
C1833 C 0.86068 0.99498 0.31304 0.0
C1834 C 0.86608 0.01666 0.36591 0.0
C1835 C 0.84667 0.99143 0.29711 0.0
C1836 C 0.91809 0.00726 0.43825 0.0
C1837 C 0.90404 0.00713 0.4219 0.0
C1838 C 0.89845 0.98866 0.36861 0.0
C1839 C 0.85379 0.00035 0.33286 0.0
C1840 C 0.86852 0.00181 0.35037 0.0
C1841 C 0.91084 0.00444 0.40153 0.0
C1842 C 0.89606 0.00351 0.38409 0.0
H1843 H 0.80232 0.00105 0.32331 0.0
H1844 H 0.82669 0.00707 0.35111 0.0
H1845 H 0.88695 0.97582 0.34066 0.0
H1846 H 0.96213 0.0006 0.4105 0.0
H1847 H 0.93775 0.00041 0.3823 0.0
C1848 C 0.00909 0.84337 0.30017 0.0
C1849 C 0.00894 0.82214 0.30385 0.0
C1850 C 0.00614 0.85725 0.31633 0.0
C1851 C 0.01198 0.86091 0.37263 0.0
H1852 H 0.98113 0.91134 0.36637 0.0
C1853 C 0.99997 0.9174 0.44029 0.0
C1854 C 0.00175 0.93841 0.43577 0.0
C1855 C 0.99945 0.90285 0.42445 0.0
C1856 C 0.98996 0.8974 0.36831 0.0
H1857 H 0.00513 0.7989 0.32745 0.0
H1858 H 0.99958 0.82305 0.35545 0.0
H1859 H 0.98218 0.88671 0.33812 0.0
H1860 H 0.00439 0.96047 0.41084 0.0
H1861 H 0.00377 0.93519 0.38346 0.0
H1862 H 0.02003 0.87169 0.40267 0.0
C1863 C 0.00221 0.82899 0.34011 0.0
C1864 C 0.99054 0.88328 0.35212 0.0
C1865 C 0.00511 0.81513 0.32397 0.0
C1866 C 0.00295 0.94447 0.41501 0.0
C1867 C 0.00244 0.92995 0.39922 0.0
C1868 C 0.01144 0.87504 0.3888 0.0
C1869 C 0.00305 0.85022 0.33656 0.0
C1870 C 0.00165 0.86492 0.35403 0.0
C1871 C 0.00069 0.90895 0.40371 0.0
C1872 C 0.00054 0.89353 0.3868 0.0
H1873 H 0.01183 0.84929 0.28484 0.0
H1874 H 0.007 0.87351 0.31307 0.0
H1875 H 0.02098 0.84708 0.37451 0.0
H1876 H 0.99893 0.91212 0.45606 0.0
H1877 H 0.99786 0.88683 0.42847 0.0
C1878 C 0.18346 0.96557 0.32316 0.0
C1879 C 0.18175 0.97666 0.30474 0.0
C1880 C 0.17048 0.96972 0.33973 0.0
C1881 C 0.13338 0.00835 0.36018 0.0
H1882 H 0.11642 0.96256 0.39426 0.0
C1883 C 0.06603 0.01059 0.4188 0.0
C1884 C 0.06984 0.00212 0.43833 0.0
C1885 C 0.0806 0.00894 0.40308 0.0
C1886 C 0.1212 0.97552 0.385 0.0
H1887 H 0.16532 0.00094 0.28917 0.0
H1888 H 0.14188 0.00774 0.31785 0.0
H1889 H 0.13925 0.95663 0.36524 0.0
H1890 H 0.09203 0.9855 0.45679 0.0
H1891 H 0.11736 0.98222 0.4291 0.0
H1892 H 0.11444 0.02701 0.37969 0.0
C1893 C 0.15361 0.99613 0.31975 0.0
C1894 C 0.13437 0.97217 0.36837 0.0
C1895 C 0.16691 0.99218 0.30324 0.0
C1896 C 0.0887 0.99226 0.44194 0.0
C1897 C 0.10312 0.99028 0.42608 0.0
C1898 C 0.1199 0.01162 0.37666 0.0
C1899 C 0.15515 0.98485 0.33821 0.0
C1900 C 0.14078 0.98855 0.35577 0.0
C1901 C 0.09913 0.99846 0.40646 0.0
C1902 C 0.11377 0.99524 0.38928 0.0
H1903 H 0.19507 0.95378 0.32484 0.0
H1904 H 0.17263 0.9611 0.3538 0.0
H1905 H 0.13817 0.0214 0.35109 0.0
H1906 H 0.05168 0.01839 0.41558 0.0
H1907 H 0.07709 0.01528 0.38808 0.0
C1908 C 0.96992 0.81939 0.68131 0.0
C1909 C 0.97767 0.82324 0.7011 0.0
C1910 C 0.97423 0.83266 0.66506 0.0
C1911 C 0.00821 0.87563 0.64862 0.0
H1912 H 0.96405 0.88508 0.60964 0.0
C1913 C 0.00734 0.94186 0.58898 0.0
C1914 C 0.00079 0.93705 0.5689 0.0
C1915 C 0.00609 0.92734 0.60474 0.0
C1916 C 0.97661 0.88242 0.62026 0.0
H1917 H 0.99646 0.84364 0.71938 0.0
H1918 H 0.00355 0.86743 0.69103 0.0
H1919 H 0.95882 0.86152 0.63815 0.0
H1920 H 0.9881 0.91306 0.54962 0.0
H1921 H 0.98566 0.88776 0.57728 0.0
H1922 H 0.02569 0.8972 0.63087 0.0
C1923 C 0.99441 0.85392 0.68796 0.0
C1924 C 0.97366 0.86886 0.63662 0.0
C1925 C 0.9903 0.84038 0.70424 0.0
C1926 C 0.99329 0.91725 0.56489 0.0
C1927 C 0.99179 0.90281 0.58074 0.0
C1928 C 0.01106 0.88942 0.63235 0.0
C1929 C 0.98617 0.85036 0.6682 0.0
C1930 C 0.98945 0.86514 0.65097 0.0
C1931 C 0.99803 0.90776 0.60087 0.0
C1932 C 0.99531 0.89288 0.61795 0.0
H1933 H 0.96047 0.80603 0.6784 0.0
H1934 H 0.96812 0.82901 0.65 0.0
H1935 H 0.02081 0.873 0.65918 0.0
H1936 H 0.01336 0.95692 0.59259 0.0
H1937 H 0.01089 0.93163 0.62011 0.0
C1938 C 0.18615 0.99653 0.6865 0.0
C1939 C 0.17917 0.99149 0.70636 0.0
C1940 C 0.17222 0.9998 0.67046 0.0
C1941 C 0.11945 0.98585 0.65528 0.0
H1942 H 0.12819 0.02516 0.61138 0.0
C1943 C 0.0591 0.99955 0.59215 0.0
C1944 C 0.06598 0.00146 0.5717 0.0
C1945 C 0.07301 0.99936 0.60849 0.0
C1946 C 0.12567 0.01398 0.62343 0.0
H1947 H 0.15203 0.98715 0.72519 0.0
H1948 H 0.12767 0.99314 0.69725 0.0
H1949 H 0.15183 0.02425 0.64061 0.0
H1950 H 0.09309 0.00482 0.55254 0.0
H1951 H 0.11745 0.00435 0.5812 0.0
H1952 H 0.09338 0.97553 0.63815 0.0
C1953 C 0.14396 0.99409 0.69397 0.0
C1954 C 0.13918 0.01347 0.6402 0.0
C1955 C 0.1579 0.99075 0.71001 0.0
C1956 C 0.08722 0.00327 0.56806 0.0
C1957 C 0.10118 0.00315 0.58449 0.0
C1958 C 0.10595 0.9864 0.63858 0.0
C1959 C 0.15095 0.99815 0.67387 0.0
C1960 C 0.13623 0.99939 0.65635 0.0
C1961 C 0.09421 0.00109 0.60489 0.0
C1962 C 0.10887 0.00046 0.62246 0.0
H1963 H 0.20243 0.9969 0.68307 0.0
H1964 H 0.17819 0.00266 0.65517 0.0
H1965 H 0.11696 0.97448 0.66716 0.0
H1966 H 0.04289 0.99813 0.59567 0.0
H1967 H 0.06709 0.99803 0.62402 0.0
C1968 C 0.03319 0.18494 0.68243 0.0
C1969 C 0.02637 0.18083 0.7025 0.0
C1970 C 0.0287 0.17154 0.66634 0.0
C1971 C 0.99548 0.12773 0.65094 0.0
H1972 H 0.03878 0.11938 0.61076 0.0
C1973 C 0.99566 0.06234 0.59022 0.0
C1974 C 0.00191 0.06752 0.57014 0.0
C1975 C 0.99704 0.07661 0.60621 0.0
C1976 C 0.02645 0.12171 0.62172 0.0
H1977 H 0.00896 0.15981 0.72146 0.0
H1978 H 0.0015 0.13584 0.69334 0.0
H1979 H 0.04428 0.1429 0.63923 0.0
H1980 H 0.01421 0.09194 0.55111 0.0
H1981 H 0.01676 0.11678 0.57909 0.0
H1982 H 0.97793 0.10596 0.6335 0.0
C1983 C 0.0101 0.14965 0.68996 0.0
C1984 C 0.02956 0.13525 0.63805 0.0
C1985 C 0.01441 0.16329 0.7061 0.0
C1986 C 0.00921 0.08745 0.56636 0.0
C1987 C 0.0108 0.10164 0.58241 0.0
C1988 C 0.99246 0.11399 0.63465 0.0
C1989 C 0.01747 0.15347 0.66992 0.0
C1990 C 0.01407 0.1386 0.65281 0.0
C1991 C 0.00493 0.09631 0.60254 0.0
C1992 C 0.00787 0.11095 0.6198 0.0
H1993 H 0.04208 0.1986 0.67916 0.0
H1994 H 0.03412 0.17537 0.65106 0.0
H1995 H 0.98313 0.13006 0.66186 0.0
H1996 H 0.98985 0.04716 0.59366 0.0
H1997 H 0.99252 0.07202 0.62158 0.0
C1998 C 0.84369 0.01016 0.70623 0.0
C1999 C 0.82234 0.01039 0.703 0.0
C2000 C 0.85719 0.00725 0.68974 0.0
C2001 C 0.86062 0.9908 0.63495 0.0
H2002 H 0.90761 0.02732 0.63464 0.0
C2003 C 0.91474 0.00179 0.56403 0.0
C2004 C 0.93589 0.00257 0.56847 0.0
C2005 C 0.90021 0.00182 0.58001 0.0
C2006 C 0.89468 0.01688 0.63455 0.0
H2007 H 0.79845 0.00703 0.67996 0.0
H2008 H 0.82198 0.00199 0.65124 0.0
H2009 H 0.88403 0.02784 0.66363 0.0
H2010 H 0.9582 0.00378 0.59341 0.0
H2011 H 0.9331 0.00374 0.62081 0.0
H2012 H 0.87137 0.98001 0.60565 0.0
C2013 C 0.82831 0.00381 0.66654 0.0
C2014 C 0.88118 0.01711 0.65124 0.0
C2015 C 0.8148 0.00666 0.68305 0.0
C2016 C 0.9421 0.00325 0.58923 0.0
C2017 C 0.92766 0.00335 0.60506 0.0
C2018 C 0.87417 0.9906 0.61817 0.0
C2019 C 0.84968 0.00461 0.6696 0.0
C2020 C 0.86406 0.00398 0.65177 0.0
C2021 C 0.90655 0.00279 0.6007 0.0
C2022 C 0.89145 0.00352 0.61789 0.0
H2023 H 0.84997 0.01272 0.72145 0.0
H2024 H 0.87356 0.00747 0.69274 0.0
H2025 H 0.84765 0.98041 0.6349 0.0
H2026 H 0.90938 0.00121 0.54827 0.0
H2027 H 0.88402 0.00148 0.57617 0.0
C2028 C 0.31999 0.99744 0.18816 0.0
C2029 C 0.30008 0.99294 0.18104 0.0
C2030 C 0.33608 0.00077 0.17429 0.0
C2031 C 0.35091 0.98791 0.12105 0.0
H2032 H 0.39556 0.02609 0.13074 0.0
C2033 C 0.41367 0.00218 0.06059 0.0
C2034 C 0.43421 0.00326 0.06731 0.0
C2035 C 0.3975 0.00201 0.07468 0.0
C2036 C 0.38329 0.01522 0.12795 0.0
H2037 H 0.28122 0.98963 0.15377 0.0
H2038 H 0.30921 0.99576 0.12952 0.0
H2039 H 0.36643 0.02508 0.1545 0.0
H2040 H 0.45369 0.0053 0.09435 0.0
H2041 H 0.42528 0.0049 0.11904 0.0
H2042 H 0.36771 0.97802 0.09457 0.0
C2043 C 0.31251 0.99622 0.14585 0.0
C2044 C 0.36658 0.01466 0.14153 0.0
C2045 C 0.29643 0.99281 0.15973 0.0
C2046 C 0.4381 0.00439 0.08859 0.0
C2047 C 0.42182 0.0043 0.10274 0.0
C2048 C 0.36754 0.98852 0.10748 0.0
C2049 C 0.33264 0.99972 0.15295 0.0
C2050 C 0.35016 0.001 0.13823 0.0
C2051 C 0.40134 0.00295 0.09592 0.0
C2052 C 0.38392 0.0022 0.11073 0.0
H2053 H 0.32342 0.99733 0.20447 0.0
H2054 H 0.35139 0.0032 0.18033 0.0
H2055 H 0.33883 0.97685 0.11827 0.0
H2056 H 0.40993 0.00137 0.04437 0.0
H2057 H 0.38191 0.00129 0.06888 0.0
C2058 C 0.99587 0.3263 0.19276 0.0
C2059 C 0.99459 0.30593 0.18577 0.0
C2060 C 0.99832 0.34246 0.17884 0.0
C2061 C 0.98853 0.35518 0.12451 0.0
H2062 H 0.02229 0.40288 0.13572 0.0
C2063 C 0.00266 0.41677 0.06314 0.0
C2064 C 0.00205 0.43751 0.06912 0.0
C2065 C 0.00252 0.40117 0.07779 0.0
C2066 C 0.01262 0.38977 0.13249 0.0
H2067 H 0.99591 0.28654 0.15872 0.0
H2068 H 0.00027 0.31473 0.13442 0.0
H2069 H 0.02162 0.37448 0.16027 0.0
H2070 H 0.00112 0.45794 0.09545 0.0
H2071 H 0.00071 0.43051 0.12114 0.0
H2072 H 0.97942 0.37039 0.09684 0.0
C2073 C 0.99899 0.31823 0.15066 0.0
C2074 C 0.01227 0.37347 0.14652 0.0
C2075 C 0.99654 0.30206 0.16458 0.0
C2076 C 0.00156 0.44218 0.09026 0.0
C2077 C 0.00144 0.42646 0.10499 0.0
C2078 C 0.98888 0.37142 0.11052 0.0
C2079 C 0.99952 0.33865 0.15758 0.0
C2080 C 0.00028 0.35594 0.14264 0.0
C2081 C 0.00174 0.40577 0.09889 0.0
C2082 C 0.001 0.38887 0.11426 0.0
H2083 H 0.99409 0.32989 0.20894 0.0
H2084 H 0.99843 0.358 0.18469 0.0
H2085 H 0.97875 0.34215 0.12124 0.0
H2086 H 0.00322 0.41244 0.04706 0.0
H2087 H 0.00317 0.38543 0.07255 0.0
C2088 C 0.69462 0.00523 0.17802 0.0
C2089 C 0.70126 0.98515 0.1822 0.0
C2090 C 0.67804 0.00874 0.16473 0.0
C2091 C 0.63226 0.98295 0.14311 0.0
H2092 H 0.63415 0.0259 0.10193 0.0
C2093 C 0.56297 0.0007 0.09014 0.0
C2094 C 0.56762 0.00338 0.06916 0.0
C2095 C 0.57867 1.00012 0.10487 0.0
C2096 C 0.6334 0.01382 0.11335 0.0
H2097 H 0.69552 0.95302 0.17575 0.0
H2098 H 0.66701 0.95916 0.15238 0.0
H2099 H 0.66307 0.02139 0.12546 0.0
H2100 H 0.59256 0.00804 0.0474 0.0
H2101 H 0.61972 0.00687 0.07296 0.0
H2102 H 0.60286 0.97501 0.13068 0.0
C2103 C 0.67448 0.9722 0.15947 0.0
C2104 C 0.64989 0.01137 0.12695 0.0
C2105 C 0.69106 0.96871 0.17264 0.0
C2106 C 0.58832 0.00586 0.06337 0.0
C2107 C 0.60395 0.00538 0.07807 0.0
C2108 C 0.61575 0.98545 0.12958 0.0
C2109 C 0.66763 0.99223 0.15549 0.0
C2110 C 0.64964 0.99571 0.14179 0.0
C2111 C 0.59936 0.00235 0.09898 0.0
C2112 C 0.61624 0.00073 0.11435 0.0
H2113 H 0.7022 0.01823 0.18507 0.0
H2114 H 0.67308 0.02436 0.16204 0.0
H2115 H 0.63145 0.97092 0.15457 0.0
H2116 H 0.54723 0.99876 0.09519 0.0
H2117 H 0.57461 0.99795 0.12088 0.0
C2118 C 0.01265 0.70786 0.15786 0.0
C2119 C 0.00968 0.7046 0.17903 0.0
C2120 C 0.00978 0.69189 0.1438 0.0
C2121 C 0.98797 0.63942 0.13766 0.0
H2122 H 0.02942 0.63517 0.09501 0.0
C2123 C 0.99842 0.56711 0.08629 0.0
C2124 C 0.00197 0.57066 0.06523 0.0
C2125 C 0.99834 0.58342 0.10033 0.0
C2126 C 0.0176 0.63623 0.1067 0.0
H2127 H 0.00084 0.68213 0.20196 0.0
H2128 H 0.99596 0.65426 0.1775 0.0
H2129 H 0.0302 0.66398 0.11872 0.0
H2130 H 0.00818 0.59433 0.04251 0.0
H2131 H 0.00796 0.6225 0.06685 0.0
H2132 H 0.97559 0.61139 0.12566 0.0
C2133 C 0.0002 0.66922 0.17167 0.0
C2134 C 0.01798 0.65282 0.12027 0.0
C2135 C 0.00297 0.68523 0.18572 0.0
C2136 C 0.00539 0.59091 0.05858 0.0
C2137 C 0.00541 0.60712 0.07258 0.0
C2138 C 0.98763 0.62274 0.12409 0.0
C2139 C 0.00402 0.67222 0.15058 0.0
C2140 C 0.00314 0.6547 0.13589 0.0
C2141 C 0.00195 0.6036 0.09362 0.0
C2142 C 0.00241 0.62101 0.1084 0.0
H2143 H 0.01758 0.72268 0.1522 0.0
H2144 H 0.0124 0.69489 0.12762 0.0
H2145 H 0.97619 0.64046 0.14938 0.0
H2146 H 0.99565 0.55175 0.09197 0.0
H2147 H 0.99577 0.5802 0.11648 0.0
C2148 C 0.32158 0.9657 0.82294 0.0
C2149 C 0.303 0.97647 0.82467 0.0
C2150 C 0.33799 0.97001 0.83605 0.0
C2151 C 0.35765 0.00861 0.87365 0.0
H2152 H 0.39238 0.96321 0.89022 0.0
C2153 C 0.41664 0.01119 0.94082 0.0
C2154 C 0.43624 0.00308 0.93668 0.0
C2155 C 0.40082 0.00941 0.92638 0.0
C2156 C 0.38292 0.97606 0.88557 0.0
H2157 H 0.28698 0.00034 0.84128 0.0
H2158 H 0.3154 0.0074 0.86495 0.0
H2159 H 0.36348 0.95702 0.86734 0.0
H2160 H 0.45467 0.98696 0.91407 0.0
H2161 H 0.42681 0.98349 0.889 0.0
H2162 H 0.37687 0.02741 0.89275 0.0
C2163 C 0.31754 0.99593 0.85311 0.0
C2164 C 0.36636 0.97257 0.87236 0.0
C2165 C 0.30118 0.99184 0.83967 0.0
C2166 C 0.43977 0.99346 0.91765 0.0
C2167 C 0.42382 0.99136 0.90337 0.0
C2168 C 0.37405 0.01202 0.88718 0.0
C2169 C 0.33616 0.98497 0.85155 0.0
C2170 C 0.35355 0.98881 0.86605 0.0
C2171 C 0.40415 0.99917 0.90767 0.0
C2172 C 0.38691 0.99579 0.89314 0.0
H2173 H 0.32351 0.95406 0.81121 0.0
H2174 H 0.35219 0.96164 0.83389 0.0
H2175 H 0.34838 0.02156 0.86896 0.0
H2176 H 0.41348 0.01877 0.95531 0.0
H2177 H 0.38577 0.01547 0.93012 0.0
C2178 C 0.00651 0.32061 0.81746 0.0
C2179 C 0.01041 0.30055 0.82435 0.0
C2180 C 0.00313 0.33649 0.8315 0.0
C2181 C 0.01487 0.35034 0.88523 0.0
H2182 H 0.97756 0.39557 0.87512 0.0
C2183 C 0.00138 0.41346 0.94551 0.0
C2184 C 0.00061 0.4339 0.93862 0.0
C2185 C 0.00128 0.39722 0.93154 0.0
C2186 C 0.98819 0.38314 0.87805 0.0
H2187 H 0.0126 0.28126 0.85142 0.0
H2188 H 0.00645 0.30893 0.87595 0.0
H2189 H 0.97858 0.36673 0.85115 0.0
H2190 H 0.99885 0.45313 0.91142 0.0
H2191 H 0.99884 0.42466 0.88698 0.0
H2192 H 0.02457 0.36673 0.91201 0.0
C2193 C 0.00647 0.31247 0.85966 0.0
C2194 C 0.98875 0.36659 0.86434 0.0
C2195 C 0.00992 0.29658 0.84561 0.0
C2196 C 0.99951 0.43762 0.91731 0.0
C2197 C 0.99937 0.42129 0.90329 0.0
C2198 C 0.01427 0.36683 0.89892 0.0
C2199 C 0.00353 0.33272 0.8528 0.0
C2200 C 0.00213 0.34998 0.86775 0.0
C2201 C 0.0004 0.4009 0.91026 0.0
C2202 C 0.00095 0.38345 0.89551 0.0
H2203 H 0.00711 0.3243 0.80122 0.0
H2204 H 0.00115 0.3519 0.82565 0.0
H2205 H 0.0257 0.33808 0.88812 0.0
H2206 H 0.00214 0.40987 0.96177 0.0
H2207 H 0.00176 0.38171 0.93746 0.0
C2208 C 0.68451 0.03626 0.82454 0.0
C2209 C 0.70276 0.02492 0.82602 0.0
C2210 C 0.66813 0.03241 0.83782 0.0
C2211 C 0.6477 0.99441 0.87565 0.0
H2212 H 0.61442 0.04086 0.89229 0.0
C2213 C 0.5883 0.99389 0.9427 0.0
C2214 C 0.5689 0.00226 0.93818 0.0
C2215 C 0.60436 0.99521 0.92846 0.0
C2216 C 0.62349 0.02773 0.88764 0.0
H2217 H 0.71822 0.00048 0.84229 0.0
H2218 H 0.68987 0.99422 0.86631 0.0
H2219 H 0.64344 0.04616 0.86934 0.0
H2220 H 0.55108 0.01842 0.91511 0.0
H2221 H 0.57935 0.02114 0.89042 0.0
H2222 H 0.62796 0.97623 0.89485 0.0
C2223 C 0.68796 0.0058 0.85454 0.0
C2224 C 0.6401 0.0307 0.87438 0.0
C2225 C 0.70427 0.00943 0.84091 0.0
C2226 C 0.56581 0.01173 0.919 0.0
C2227 C 0.582 0.01339 0.90493 0.0
C2228 C 0.63125 0.99152 0.88925 0.0
C2229 C 0.66968 0.01736 0.85326 0.0
C2230 C 0.65235 0.01407 0.86798 0.0
C2231 C 0.60145 0.00527 0.90959 0.0
C2232 C 0.6189 0.00814 0.89521 0.0
H2233 H 0.68284 0.04804 0.81289 0.0
H2234 H 0.65418 0.04123 0.83584 0.0
H2235 H 0.65653 0.98117 0.87092 0.0
H2236 H 0.59112 0.9864 0.95732 0.0
H2237 H 0.61924 0.98892 0.93246 0.0
C2238 C 0.99585 0.68001 0.81251 0.0
C2239 C 0.99352 0.70016 0.81985 0.0
C2240 C 0.99899 0.66373 0.82617 0.0
C2241 C 0.98926 0.64997 0.88035 0.0
H2242 H 0.02368 0.60293 0.86839 0.0
C2243 C 0.00436 0.58794 0.94089 0.0
C2244 C 0.00357 0.56725 0.93476 0.0
C2245 C 0.00421 0.60366 0.92637 0.0
C2246 C 0.01384 0.61587 0.87183 0.0
H2247 H 0.99391 0.71914 0.84722 0.0
H2248 H 0.99966 0.6908 0.87104 0.0
H2249 H 0.02263 0.63173 0.84429 0.0
H2250 H 0.0024 0.54704 0.90827 0.0
H2251 H 0.00202 0.57472 0.88279 0.0
H2252 H 0.98042 0.63422 0.90779 0.0
C2253 C 0.99857 0.6875 0.85474 0.0
C2254 C 0.01327 0.63239 0.85805 0.0
C2255 C 0.99536 0.70377 0.84109 0.0
C2256 C 0.00297 0.56276 0.91358 0.0
C2257 C 0.00286 0.57861 0.89897 0.0
C2258 C 0.98987 0.63353 0.89408 0.0
C2259 C 0.99991 0.66721 0.8475 0.0
C2260 C 0.00103 0.6497 0.8622 0.0
C2261 C 0.00324 0.59926 0.90525 0.0
C2262 C 0.00224 0.61633 0.89008 0.0
H2263 H 0.99421 0.67662 0.79628 0.0
H2264 H 0.99975 0.64832 0.82004 0.0
H2265 H 0.97926 0.66277 0.88382 0.0
H2266 H 0.00501 0.59216 0.957 0.0
H2267 H 0.00492 0.61936 0.93174 0.0
C2268 C 0.15875 0.29815 0.99046 0.0
C2269 C 0.18001 0.30147 0.99224 0.0
C2270 C 0.14487 0.31412 0.99395 0.0
C2271 C 0.13988 0.36698 0.01528 0.0
H2272 H 0.09497 0.37031 0.97622 0.0
C2273 C 0.08743 0.43881 0.00591 0.0
C2274 C 0.06626 0.43492 0.0038 0.0
C2275 C 0.10162 0.42263 0.0057 0.0
C2276 C 0.10731 0.36952 0.98737 0.0
H2277 H 0.20332 0.32401 0.99968 0.0
H2278 H 0.17916 0.35192 0.00558 0.0
H2279 H 0.11869 0.34159 0.97458 0.0
H2280 H 0.04354 0.41076 1.00001 0.0
H2281 H 0.06813 0.3829 0.99967 0.0
H2282 H 0.12851 0.39523 0.02779 0.0
C2283 C 0.17314 0.33691 0.00181 0.0
C2284 C 0.12088 0.35298 0.98651 0.0
C2285 C 0.18702 0.32089 0.99845 0.0
C2286 C 0.05967 0.41448 0.00163 0.0
C2287 C 0.0738 0.39842 0.00132 0.0
C2288 C 0.12631 0.38363 0.01607 0.0
C2289 C 0.15191 0.33386 0.99912 0.0
C2290 C 0.1373 0.3514 0.0005 0.0
C2291 C 0.09494 0.40227 0.00321 0.0
C2292 C 0.10981 0.38501 0.00219 0.0
H2293 H 0.15288 0.28328 0.98593 0.0
H2294 H 0.12861 0.31108 0.99223 0.0
H2295 H 0.15224 0.36619 0.02641 0.0
H2296 H 0.09308 0.45432 0.00764 0.0
H2297 H 0.11784 0.42608 0.00707 0.0
C2298 C 0.17227 0.69091 0.96796 0.0
C2299 C 0.18144 0.70114 0.98465 0.0
C2300 C 0.1591 0.67434 0.97122 0.0
C2301 C 0.12585 0.6498 0.00988 0.0
H2302 H 0.13029 0.60293 0.97342 0.0
C2303 C 0.06239 0.58853 0.00311 0.0
C2304 C 0.06817 0.56786 0.00082 0.0
C2305 C 0.0771 0.6041 0.00281 0.0
C2306 C 0.12898 0.61578 0.98389 0.0
H2307 H 0.18364 0.7021 0.01793 0.0
H2308 H 0.16061 0.67299 0.02364 0.0
H2309 H 0.15426 0.63141 0.96985 0.0
H2310 H 0.0942 0.54747 0.99674 0.0
H2311 H 0.11991 0.57474 0.99622 0.0
H2312 H 0.10054 0.63413 0.02392 0.0
C2313 C 0.1636 0.67793 0.00801 0.0
C2314 C 0.14257 0.63222 0.98169 0.0
C2315 C 0.17689 0.69451 0.00474 0.0
C2316 C 0.08914 0.56318 0.99847 0.0
C2317 C 0.10389 0.57883 0.99808 0.0
C2318 C 0.11219 0.63338 0.01204 0.0
C2319 C 0.15473 0.66751 0.99125 0.0
C2320 C 0.141 0.64955 0.99447 0.0
C2321 C 0.09802 0.59947 0.00017 0.0
C2322 C 0.11344 0.61627 0.9989 0.0
H2323 H 0.17567 0.69535 0.95226 0.0
H2324 H 0.15231 0.66686 0.95798 0.0
H2325 H 0.12417 0.66294 0.01993 0.0
H2326 H 0.04642 0.59281 0.00503 0.0
H2327 H 0.072 0.61984 0.00418 0.0
C2328 C 0.30959 0.17789 0.00439 0.0
C2329 C 0.30297 0.18217 0.98424 0.0
C2330 C 0.32616 0.16461 0.00785 0.0
C2331 C 0.3719 0.14314 0.98185 0.0
H2332 H 0.36987 0.10188 0.02472 0.0
C2333 C 0.44101 0.09006 0.99954 0.0
C2334 C 0.43628 0.06918 0.00215 0.0
C2335 C 0.42535 0.10478 0.99894 0.0
C2336 C 0.37066 0.11332 0.01267 0.0
H2337 H 0.3087 0.1759 0.95194 0.0
H2338 H 0.33717 0.15256 0.95798 0.0
H2339 H 0.34102 0.12542 0.02034 0.0
H2340 H 0.41121 0.04758 0.00658 0.0
H2341 H 0.38416 0.07312 0.00537 0.0
H2342 H 0.40126 0.13073 0.97381 0.0
C2343 C 0.32971 0.15956 0.97112 0.0
C2344 C 0.35421 0.12692 0.01028 0.0
C2345 C 0.31316 0.17272 0.96768 0.0
C2346 C 0.41554 0.06347 0.00448 0.0
C2347 C 0.39996 0.07816 0.00397 0.0
C2348 C 0.38836 0.12961 0.98428 0.0
C2349 C 0.33655 0.15548 0.99122 0.0
C2350 C 0.35451 0.14179 0.99464 0.0
C2351 C 0.40464 0.09897 0.00106 0.0
C2352 C 0.38782 0.11435 0.99953 0.0
H2353 H 0.30203 0.18486 0.01748 0.0
H2354 H 0.33111 0.16185 0.02352 0.0
H2355 H 0.37274 0.15462 0.96984 0.0
H2356 H 0.45678 0.09505 0.99775 0.0
H2357 H 0.42948 0.12072 0.99686 0.0
C2358 C 0.82695 0.31015 0.00596 0.0
C2359 C 0.82308 0.30331 0.98579 0.0
C2360 C 0.84025 0.32667 0.00952 0.0
C2361 C 0.86246 0.37189 0.98338 0.0
H2362 H 0.90258 0.37068 0.02745 0.0
C2363 C 0.91493 0.44128 0.00107 0.0
C2364 C 0.9358 0.43673 0.00433 0.0
C2365 C 0.90024 0.4256 0.00053 0.0
C2366 C 0.89147 0.37124 0.01506 0.0
H2367 H 0.83016 0.3086 0.95358 0.0
H2368 H 0.85355 0.33695 0.95981 0.0
H2369 H 0.87918 0.34177 0.02284 0.0
H2370 H 0.95742 0.41199 0.0101 0.0
H2371 H 0.93193 0.38486 0.00898 0.0
H2372 H 0.87506 0.40107 0.97522 0.0
C2373 C 0.84619 0.32971 0.97288 0.0
C2374 C 0.87794 0.35475 0.01254 0.0
C2375 C 0.83301 0.31321 0.96933 0.0
C2376 C 0.94152 0.41616 0.00748 0.0
C2377 C 0.92686 0.40054 0.00701 0.0
C2378 C 0.87592 0.38839 0.98593 0.0
C2379 C 0.84983 0.33679 0.99298 0.0
C2380 C 0.86347 0.35476 0.99648 0.0
C2381 C 0.90607 0.40503 0.00335 0.0
C2382 C 0.89077 0.38815 0.00164 0.0
H2383 H 0.81962 0.30281 0.01898 0.0
H2384 H 0.84266 0.3318 0.02518 0.0
H2385 H 0.85129 0.37253 0.97104 0.0
H2386 H 0.90992 0.45692 0.99862 0.0
H2387 H 0.88431 0.42959 0.99788 0.0
C2388 C 0.68211 0.81607 0.00461 0.0
C2389 C 0.70172 0.82327 0.01015 0.0
C2390 C 0.66576 0.82974 0.00191 0.0
C2391 C 0.64959 0.88146 0.01828 0.0
H2392 H 0.60634 0.87444 0.97783 0.0
C2393 C 0.58845 0.94323 0.00478 0.0
C2394 C 0.56782 0.93706 0.00259 0.0
C2395 C 0.60429 0.92885 0.00487 0.0
C2396 C 0.6182 0.87645 0.98934 0.0
H2397 H 0.71984 0.85052 0.01589 0.0
H2398 H 0.69146 0.87441 0.01081 0.0
H2399 H 0.63546 0.85071 0.97829 0.0
H2400 H 0.54787 0.91072 0.99853 0.0
H2401 H 0.57575 0.8855 0.99875 0.0
H2402 H 0.63248 0.90717 0.02931 0.0
C2403 C 0.68854 0.85816 0.0091 0.0
C2404 C 0.6349 0.86289 0.9896 0.0
C2405 C 0.70485 0.8445 0.0119 0.0
C2406 C 0.56353 0.91605 0.00029 0.0
C2407 C 0.57951 0.9016 0.0003 0.0
C2408 C 0.633 0.895 0.01798 0.0
C2409 C 0.66866 0.85093 0.00463 0.0
C2410 C 0.65089 0.86533 0.004 0.0
C2411 C 0.60005 0.90787 0.00276 0.0
C2412 C 0.61717 0.89277 0.00343 0.0
H2413 H 0.67912 0.79979 0.00342 0.0
H2414 H 0.65065 0.8236 0.99864 0.0
H2415 H 0.6613 0.88351 0.02995 0.0
H2416 H 0.5925 0.95923 0.00651 0.0
H2417 H 0.61995 0.93424 0.00647 0.0
C2418 C 0.83444 0.69329 0.03236 0.0
C2419 C 0.82453 0.70296 0.01575 0.0
C2420 C 0.84785 0.67693 0.02905 0.0
C2421 C 0.88022 0.65179 0.99 0.0
H2422 H 0.87662 0.60553 0.02734 0.0
C2423 C 0.94331 0.58976 0.99605 0.0
C2424 C 0.93725 0.56926 0.99903 0.0
C2425 C 0.92884 0.60557 0.99632 0.0
C2426 C 0.8777 0.61821 0.01663 0.0
H2427 H 0.82136 0.70321 0.98254 0.0
H2428 H 0.84483 0.67446 0.97673 0.0
H2429 H 0.85286 0.63413 0.0311 0.0
H2430 H 0.91099 0.5494 0.00421 0.0
H2431 H 0.88576 0.57704 0.00462 0.0
H2432 H 0.90508 0.63578 0.97553 0.0
C2433 C 0.84221 0.67968 0.99234 0.0
C2434 C 0.86423 0.63473 0.01894 0.0
C2435 C 0.82868 0.69605 0.99567 0.0
C2436 C 0.91626 0.56498 0.00192 0.0
C2437 C 0.90179 0.58084 0.00226 0.0
C2438 C 0.89377 0.63528 0.98774 0.0
C2439 C 0.85173 0.66976 0.00904 0.0
C2440 C 0.86547 0.65182 0.00581 0.0
C2441 C 0.90793 0.60135 0.99963 0.0
C2442 C 0.89278 0.61837 0.00116 0.0
H2443 H 0.83139 0.69796 0.04806 0.0
H2444 H 0.85514 0.66984 0.04223 0.0
H2445 H 0.88163 0.66475 0.97969 0.0
H2446 H 0.9593 0.59371 0.9937 0.0
H2447 H 0.93414 0.6212 0.99447 0.0
C2448 C 0.29738 0.84583 0.99018 0.0
C2449 C 0.3008 0.82469 0.99237 0.0
C2450 C 0.31331 0.85983 0.99351 0.0
C2451 C 0.3661 0.86551 0.01518 0.0
H2452 H 0.36959 0.90958 0.97531 0.0
C2453 C 0.43803 0.91784 0.00574 0.0
C2454 C 0.43417 0.9389 0.00308 0.0
C2455 C 0.42183 0.90367 0.00556 0.0
C2456 C 0.36875 0.89749 0.9867 0.0
H2457 H 0.32349 0.80171 0.00038 0.0
H2458 H 0.35131 0.82606 0.00602 0.0
H2459 H 0.34091 0.88576 0.97388 0.0
H2460 H 0.41002 0.96144 0.99832 0.0
H2461 H 0.38209 0.93687 0.99804 0.0
H2462 H 0.39424 0.87722 0.02774 0.0
C2463 C 0.33625 0.83191 0.00204 0.0
C2464 C 0.35223 0.88385 0.98594 0.0
C2465 C 0.32028 0.81792 0.99883 0.0
C2466 C 0.41372 0.94539 0.00036 0.0
C2467 C 0.39762 0.93127 1.00008 0.0
C2468 C 0.38272 0.87914 0.01587 0.0
C2469 C 0.33311 0.85302 0.99895 0.0
C2470 C 0.3506 0.86772 0.00022 0.0
C2471 C 0.40146 0.91024 0.00257 0.0
C2472 C 0.38417 0.89535 0.00169 0.0
H2473 H 0.28248 0.85153 0.98545 0.0
H2474 H 0.31019 0.876 0.99146 0.0
H2475 H 0.36526 0.85339 0.02653 0.0
H2476 H 0.45355 0.91226 0.00791 0.0
H2477 H 0.42529 0.88754 0.00738 0.0
C2478 C 0.68392 0.18752 0.99852 0.0
C2479 C 0.70335 0.1806 0.99208 0.0
C2480 C 0.66787 0.17364 0.00182 0.0
C2481 C 0.65161 0.12167 0.98611 0.0
H2482 H 0.60969 0.12881 0.02792 0.0
C2483 C 0.59005 0.06044 0.00124 0.0
C2484 C 0.56959 0.06699 0.00379 0.0
C2485 C 0.60616 0.07453 0.00086 0.0
C2486 C 0.62119 0.12675 0.01605 0.0
H2487 H 0.72152 0.15363 0.98528 0.0
H2488 H 0.69368 0.12935 0.99147 0.0
H2489 H 0.63877 0.15251 0.02647 0.0
H2490 H 0.55023 0.09371 0.00822 0.0
H2491 H 0.57855 0.11838 0.00753 0.0
H2492 H 0.63414 0.09591 0.97573 0.0
C2493 C 0.69065 0.14555 0.99342 0.0
C2494 C 0.63787 0.1403 0.01522 0.0
C2495 C 0.70665 0.15943 0.98999 0.0
C2496 C 0.56575 0.08808 0.00619 0.0
C2497 C 0.58198 0.10222 0.00591 0.0
C2498 C 0.63504 0.10811 0.98701 0.0
C2499 C 0.6709 0.1525 0.99885 0.0
C2500 C 0.65333 0.1379 0.00025 0.0
C2501 C 0.60235 0.09558 0.00306 0.0
C2502 C 0.61966 0.11043 0.00201 0.0
H2503 H 0.68081 0.20376 0.99998 0.0
H2504 H 0.65286 0.1796 0.00579 0.0
H2505 H 0.6629 0.11961 0.97404 0.0
H2506 H 0.59374 0.04436 0.99939 0.0
H2507 H 0.6217 0.06888 0.99893 0.0
C2508 C 0.49108 0.66452 0.80163 0.0
C2509 C 0.47873 0.68185 0.80488 0.0
C2510 C 0.4955 0.65117 0.81797 0.0
C2511 C 0.4759 0.63703 0.86995 0.0
H2512 H 0.52781 0.60832 0.87482 0.0
C2513 C 0.49607 0.58854 0.9414 0.0
C2514 C 0.50343 0.56871 0.93729 0.0
C2515 C 0.49456 0.60304 0.9256 0.0
C2516 C 0.51322 0.61621 0.8736 0.0
H2517 H 0.46242 0.69958 0.82783 0.0
H2518 H 0.47058 0.67688 0.85631 0.0
H2519 H 0.52251 0.63232 0.84641 0.0
H2520 H 0.51579 0.54886 0.9135 0.0
H2521 H 0.5133 0.57421 0.88605 0.0
H2522 H 0.46671 0.62109 0.89722 0.0
C2523 C 0.47622 0.67296 0.84114 0.0
C2524 C 0.51013 0.62988 0.85727 0.0
C2525 C 0.47162 0.68607 0.82483 0.0
C2526 C 0.5099 0.56395 0.91718 0.0
C2527 C 0.50863 0.57851 0.90146 0.0
C2528 C 0.47908 0.62357 0.88634 0.0
C2529 C 0.48786 0.65509 0.8379 0.0
C2530 C 0.49141 0.64049 0.85522 0.0
C2531 C 0.50064 0.5981 0.90542 0.0
C2532 C 0.49774 0.61297 0.88834 0.0
H2533 H 0.49675 0.66097 0.78637 0.0
H2534 H 0.50439 0.6375 0.81485 0.0
H2535 H 0.4611 0.64448 0.86867 0.0
H2536 H 0.4909 0.59269 0.9567 0.0
H2537 H 0.4885 0.61809 0.92913 0.0
C2538 C 0.31731 0.4989 0.82024 0.0
C2539 C 0.32443 0.49273 0.80077 0.0
C2540 C 0.33109 0.50219 0.83643 0.0
C2541 C 0.38304 0.48649 0.85287 0.0
H2542 H 0.37574 0.52773 0.89523 0.0
C2543 C 0.44432 0.50103 0.91458 0.0
C2544 C 0.43779 0.50343 0.9351 0.0
C2545 C 0.43016 0.50076 0.89849 0.0
C2546 C 0.37784 0.51601 0.88361 0.0
H2547 H 0.35165 0.48646 0.78265 0.0
H2548 H 0.37577 0.4926 0.81074 0.0
H2549 H 0.35211 0.5266 0.86596 0.0
H2550 H 0.41107 0.50768 0.95463 0.0
H2551 H 0.38624 0.50717 0.92631 0.0
H2552 H 0.40873 0.47593 0.8704 0.0
C2553 C 0.35949 0.49435 0.81369 0.0
C2554 C 0.36433 0.51537 0.86682 0.0
C2555 C 0.3457 0.49095 0.79755 0.0
C2556 C 0.41665 0.50576 0.93904 0.0
C2557 C 0.40243 0.5056 0.92283 0.0
C2558 C 0.39653 0.48718 0.86954 0.0
C2559 C 0.35233 0.49945 0.83349 0.0
C2560 C 0.36683 0.50064 0.85119 0.0
C2561 C 0.40906 0.50292 0.90239 0.0
C2562 C 0.39417 0.50199 0.88506 0.0
H2563 H 0.30099 0.50013 0.82329 0.0
H2564 H 0.325 0.50591 0.85148 0.0
H2565 H 0.38514 0.47459 0.84144 0.0
H2566 H 0.46043 0.4992 0.91083 0.0
H2567 H 0.43579 0.49897 0.8829 0.0
C2568 C 0.51587 0.3425 0.7987 0.0
C2569 C 0.52715 0.32457 0.80252 0.0
C2570 C 0.51156 0.3562 0.8148 0.0
C2571 C 0.53022 0.36973 0.86725 0.0
H2572 H 0.47963 0.40089 0.87064 0.0
C2573 C 0.50981 0.41806 0.93864 0.0
C2574 C 0.50315 0.43819 0.93479 0.0
C2575 C 0.51142 0.4039 0.92255 0.0
C2576 C 0.49387 0.39235 0.86981 0.0
H2577 H 0.54162 0.30618 0.82617 0.0
H2578 H 0.53362 0.3295 0.85419 0.0
H2579 H 0.48463 0.37669 0.84232 0.0
H2580 H 0.49226 0.45898 0.91107 0.0
H2581 H 0.49497 0.4342 0.8831 0.0
H2582 H 0.53936 0.38518 0.89481 0.0
C2583 C 0.52875 0.33358 0.83879 0.0
C2584 C 0.49678 0.37854 0.85355 0.0
C2585 C 0.53325 0.32012 0.82275 0.0
C2586 C 0.49759 0.44365 0.91458 0.0
C2587 C 0.49899 0.42941 0.89855 0.0
C2588 C 0.52722 0.38334 0.88355 0.0
C2589 C 0.51826 0.35204 0.83501 0.0
C2590 C 0.51499 0.36698 0.85209 0.0
C2591 C 0.50619 0.40947 0.9023 0.0
C2592 C 0.50902 0.39478 0.88505 0.0
H2593 H 0.51099 0.34624 0.78321 0.0
H2594 H 0.50353 0.3703 0.81127 0.0
H2595 H 0.54466 0.36155 0.86641 0.0
H2596 H 0.51425 0.41335 0.95399 0.0
H2597 H 0.51684 0.38858 0.92594 0.0
C2598 C 0.67696 0.50531 0.80932 0.0
C2599 C 0.68054 0.48522 0.80234 0.0
C2600 C 0.66367 0.50895 0.82588 0.0
C2601 C 0.64124 0.48298 0.87112 0.0
H2602 H 0.60164 0.52734 0.87029 0.0
C2603 C 0.58922 0.50071 0.94103 0.0
C2604 C 0.56835 0.50405 0.93649 0.0
C2605 C 0.60387 0.5002 0.92525 0.0
C2606 C 0.61261 0.51487 0.87074 0.0
H2607 H 0.6729 0.45323 0.80736 0.0
H2608 H 0.6495 0.45961 0.8358 0.0
H2609 H 0.62487 0.52263 0.84113 0.0
H2610 H 0.54671 0.51008 0.91174 0.0
H2611 H 0.57213 0.50899 0.88443 0.0
H2612 H 0.62866 0.47484 0.90043 0.0
C2613 C 0.65709 0.47255 0.82863 0.0
C2614 C 0.62604 0.51229 0.85412 0.0
C2615 C 0.67028 0.46893 0.81209 0.0
C2616 C 0.5626 0.50734 0.91587 0.0
C2617 C 0.57722 0.50691 0.90016 0.0
C2618 C 0.62789 0.48559 0.88775 0.0
C2619 C 0.65381 0.49256 0.83589 0.0
C2620 C 0.6403 0.49612 0.85399 0.0
C2621 C 0.598 0.50314 0.90462 0.0
C2622 C 0.61323 0.5014 0.88764 0.0
H2623 H 0.68455 0.5182 0.80208 0.0
H2624 H 0.6615 0.52455 0.83115 0.0
H2625 H 0.65226 0.47055 0.87164 0.0
H2626 H 0.59423 0.49816 0.95671 0.0
H2627 H 0.6198 0.49746 0.92921 0.0
C2628 C 0.49034 0.34419 0.20579 0.0
C2629 C 0.49359 0.32308 0.20316 0.0
C2630 C 0.49293 0.35772 0.18932 0.0
C2631 C 0.51454 0.36285 0.1365 0.0
H2632 H 0.47256 0.40471 0.13155 0.0
C2633 C 0.50488 0.41508 0.06417 0.0
C2634 C 0.5015 0.43598 0.06831 0.0
C2635 C 0.5046 0.40064 0.08018 0.0
C2636 C 0.4845 0.39321 0.13277 0.0
H2637 H 0.50272 0.29969 0.18128 0.0
H2638 H 0.50714 0.32328 0.15251 0.0
H2639 H 0.47183 0.38131 0.16064 0.0
H2640 H 0.49513 0.45793 0.09269 0.0
H2641 H 0.49469 0.43295 0.12021 0.0
H2642 H 0.52705 0.37483 0.10839 0.0
C2643 C 0.50285 0.32944 0.16737 0.0
C2644 C 0.48415 0.37983 0.14952 0.0
C2645 C 0.50035 0.31591 0.18389 0.0
C2646 C 0.49782 0.44202 0.08878 0.0
C2647 C 0.49742 0.42765 0.10464 0.0
C2648 C 0.51485 0.37625 0.11964 0.0
C2649 C 0.49869 0.35046 0.16975 0.0
C2650 C 0.49927 0.3646 0.15175 0.0
C2651 C 0.50073 0.40679 0.10057 0.0
C2652 C 0.49994 0.39171 0.11772 0.0
H2653 H 0.48539 0.35021 0.22052 0.0
H2654 H 0.49008 0.37388 0.19185 0.0
H2655 H 0.52649 0.35137 0.13778 0.0
H2656 H 0.50782 0.40988 0.04862 0.0
H2657 H 0.5071 0.38463 0.07656 0.0
C2658 C 0.66459 0.51057 0.20466 0.0
C2659 C 0.67966 0.52582 0.20275 0.0
C2660 C 0.65091 0.50672 0.18844 0.0
C2661 C 0.63132 0.53072 0.13999 0.0
H2662 H 0.61031 0.47619 0.12908 0.0
C2663 C 0.5864 0.51069 0.06613 0.0
C2664 C 0.56719 0.50142 0.06944 0.0
C2665 C 0.6005 0.51253 0.08227 0.0
C2666 C 0.61605 0.49149 0.13203 0.0
H2667 H 0.69305 0.54826 0.1822 0.0
H2668 H 0.66999 0.54107 0.15371 0.0
H2669 H 0.6343 0.48153 0.15755 0.0
H2670 H 0.54803 0.48608 0.09202 0.0
H2671 H 0.57293 0.48892 0.12007 0.0
H2672 H 0.61347 0.54049 0.11409 0.0
C2673 C 0.66792 0.53263 0.1679 0.0
C2674 C 0.62969 0.49462 0.14841 0.0
C2675 C 0.68127 0.53669 0.18419 0.0
C2676 C 0.56267 0.49341 0.08902 0.0
C2677 C 0.57693 0.49491 0.10505 0.0
C2678 C 0.61801 0.52751 0.12345 0.0
C2679 C 0.65232 0.51782 0.16985 0.0
C2680 C 0.63756 0.51429 0.1526 0.0
C2681 C 0.59583 0.5048 0.10191 0.0
C2682 C 0.61025 0.5079 0.1193 0.0
H2683 H 0.66311 0.50198 0.21886 0.0
H2684 H 0.63901 0.49534 0.19065 0.0
H2685 H 0.63651 0.54619 0.14298 0.0
H2686 H 0.5903 0.5171 0.05126 0.0
H2687 H 0.61504 0.52013 0.07944 0.0
C2688 C 0.50164 0.68624 0.18581 0.0
C2689 C 0.51027 0.67926 0.20438 0.0
C2690 C 0.49795 0.67262 0.16961 0.0
C2691 C 0.49232 0.61781 0.15647 0.0
H2692 H 0.51304 0.63446 0.10305 0.0
C2693 C 0.50458 0.55983 0.09087 0.0
C2694 C 0.50055 0.56592 0.07049 0.0
C2695 C 0.50403 0.57401 0.10695 0.0
C2696 C 0.50684 0.62966 0.11775 0.0
H2697 H 0.52087 0.65239 0.22084 0.0
H2698 H 0.51435 0.62857 0.19256 0.0
H2699 H 0.51422 0.65841 0.1318 0.0
H2700 H 0.49266 0.59186 0.05116 0.0
H2701 H 0.49136 0.61658 0.0793 0.0
H2702 H 0.48493 0.58907 0.14249 0.0
C2703 C 0.51045 0.64458 0.19054 0.0
C2704 C 0.50754 0.6434 0.13425 0.0
C2705 C 0.51431 0.65822 0.20668 0.0
C2706 C 0.49595 0.58662 0.06663 0.0
C2707 C 0.49528 0.60083 0.08278 0.0
C2708 C 0.49147 0.60411 0.13994 0.0
C2709 C 0.50265 0.6517 0.17166 0.0
C2710 C 0.50053 0.63755 0.15386 0.0
C2711 C 0.4993 0.59469 0.10316 0.0
C2712 C 0.49899 0.60975 0.12042 0.0
H2713 H 0.49858 0.70238 0.18346 0.0
H2714 H 0.49174 0.67853 0.15532 0.0
H2715 H 0.48654 0.61295 0.17133 0.0
H2716 H 0.50837 0.54407 0.09449 0.0
H2717 H 0.50765 0.56877 0.12234 0.0
C2718 C 0.31569 0.50575 0.18333 0.0
C2719 C 0.32297 0.50963 0.20335 0.0
C2720 C 0.3294 0.50265 0.16705 0.0
C2721 C 0.38271 0.5151 0.15231 0.0
H2722 H 0.37245 0.47817 0.10668 0.0
C2723 C 0.44322 0.50091 0.08976 0.0
C2724 C 0.43675 0.50059 0.06907 0.0
C2725 C 0.42897 0.50094 0.10577 0.0
C2726 C 0.3754 0.48869 0.11923 0.0
H2727 H 0.35034 0.51205 0.22216 0.0
H2728 H 0.3743 0.5063 0.19384 0.0
H2729 H 0.34867 0.47892 0.13584 0.0
H2730 H 0.40998 0.49972 0.04919 0.0
H2731 H 0.38497 0.49984 0.07736 0.0
H2732 H 0.40937 0.52488 0.1358 0.0
C2733 C 0.35798 0.50616 0.19061 0.0
C2734 C 0.36181 0.48911 0.13595 0.0
C2735 C 0.34426 0.50935 0.20688 0.0
C2736 C 0.41554 0.50002 0.06489 0.0
C2737 C 0.40121 0.49997 0.08103 0.0
C2738 C 0.39628 0.51463 0.13568 0.0
C2739 C 0.35074 0.50331 0.1704 0.0
C2740 C 0.36534 0.50229 0.15275 0.0
C2741 C 0.4078 0.50064 0.10165 0.0
C2742 C 0.39286 0.50138 0.11897 0.0
H2743 H 0.29938 0.50617 0.18001 0.0
H2744 H 0.32325 0.50071 0.15169 0.0
H2745 H 0.38567 0.52582 0.16469 0.0
H2746 H 0.45938 0.50123 0.09374 0.0
H2747 H 0.43458 0.5011 0.12147 0.0
C2748 C 0.8204 0.49798 0.68818 0.0
C2749 C 0.80109 0.49163 0.68084 0.0
C2750 C 0.83673 0.5012 0.67456 0.0
C2751 C 0.85391 0.48479 0.62306 0.0
H2752 H 0.89574 0.52658 0.62996 0.0
C2753 C 0.91519 0.49938 0.56155 0.0
C2754 C 0.93568 0.50213 0.56794 0.0
C2755 C 0.89922 0.49902 0.57581 0.0
C2756 C 0.88427 0.51471 0.62799 0.0
H2757 H 0.7834 0.485 0.6534 0.0
H2758 H 0.81175 0.49099 0.62957 0.0
H2759 H 0.86635 0.52555 0.65345 0.0
H2760 H 0.95527 0.50695 0.59453 0.0
H2761 H 0.92713 0.50627 0.61959 0.0
H2762 H 0.8717 0.47397 0.59764 0.0
C2763 C 0.81446 0.49295 0.6459 0.0
C2764 C 0.86742 0.51413 0.64141 0.0
C2765 C 0.79817 0.48962 0.65952 0.0
C2766 C 0.93971 0.50472 0.58906 0.0
C2767 C 0.9236 0.50446 0.6034 0.0
C2768 C 0.87065 0.48541 0.60967 0.0
C2769 C 0.8341 0.4982 0.6533 0.0
C2770 C 0.85196 0.49923 0.63901 0.0
C2771 C 0.90319 0.50143 0.5969 0.0
C2772 C 0.88596 0.50045 0.61187 0.0
H2773 H 0.82321 0.49939 0.70455 0.0
H2774 H 0.85166 0.50507 0.68082 0.0
H2775 H 0.84262 0.47276 0.62107 0.0
H2776 H 0.91137 0.49735 0.54545 0.0
H2777 H 0.88365 0.49696 0.57027 0.0
C2778 C 0.49462 0.80008 0.66305 0.0
C2779 C 0.49432 0.80305 0.68448 0.0
C2780 C 0.49832 0.81654 0.64973 0.0
C2781 C 0.49341 0.87271 0.64776 0.0
H2782 H 0.52442 0.86732 0.59712 0.0
C2783 C 0.50471 0.94063 0.5911 0.0
C2784 C 0.50286 0.93599 0.57004 0.0
C2785 C 0.50547 0.92491 0.60581 0.0
C2786 C 0.51557 0.86904 0.61113 0.0
H2787 H 0.49824 0.82563 0.70869 0.0
H2788 H 0.50507 0.85416 0.68551 0.0
H2789 H 0.52319 0.83875 0.6213 0.0
H2790 H 0.5002 0.91098 0.54807 0.0
H2791 H 0.50124 0.88392 0.57354 0.0
H2792 H 0.48544 0.90284 0.63742 0.0
C2793 C 0.50223 0.83915 0.67899 0.0
C2794 C 0.51489 0.85266 0.625 0.0
C2795 C 0.49859 0.8227 0.69229 0.0
C2796 C 0.50175 0.91527 0.5641 0.0
C2797 C 0.5025 0.89964 0.57874 0.0
C2798 C 0.49404 0.88908 0.63387 0.0
C2799 C 0.50173 0.83636 0.65754 0.0
C2800 C 0.50362 0.85421 0.64338 0.0
C2801 C 0.50443 0.90422 0.59978 0.0
C2802 C 0.50491 0.88736 0.61525 0.0
H2803 H 0.49153 0.78512 0.65653 0.0
H2804 H 0.4977 0.81386 0.6333 0.0
H2805 H 0.48433 0.87433 0.66163 0.0
H2806 H 0.50569 0.95637 0.59628 0.0
H2807 H 0.50713 0.92898 0.62188 0.0
C2808 C 0.19316 0.46852 0.66999 0.0
C2809 C 0.20313 0.48497 0.67976 0.0
C2810 C 0.17673 0.47198 0.65663 0.0
C2811 C 0.15199 0.51102 0.62412 0.0
H2812 H 0.10499 0.47466 0.62822 0.0
C2813 C 0.08966 0.50541 0.56116 0.0
C2814 C 0.06905 0.50298 0.56728 0.0
C2815 C 0.10551 0.50497 0.57565 0.0
C2816 C 0.11788 0.4851 0.62701 0.0
H2817 H 0.2039 0.51805 0.68274 0.0
H2818 H 0.17503 0.52412 0.65936 0.0
H2819 H 0.13373 0.47061 0.65192 0.0
H2820 H 0.04903 0.49853 0.59363 0.0
H2821 H 0.07676 0.49781 0.61891 0.0
H2822 H 0.13608 0.52551 0.59918 0.0
C2823 C 0.18005 0.50852 0.66204 0.0
C2824 C 0.13446 0.48262 0.64043 0.0
C2825 C 0.19649 0.50505 0.67553 0.0
C2826 C 0.0647 0.50042 0.58833 0.0
C2827 C 0.0806 0.4999 0.60283 0.0
C2828 C 0.13542 0.51345 0.61061 0.0
C2829 C 0.16982 0.49198 0.65267 0.0
C2830 C 0.15182 0.49539 0.639 0.0
C2831 C 0.1012 0.50203 0.59662 0.0
C2832 C 0.11825 0.50038 0.61178 0.0
H2833 H 0.19763 0.45284 0.67312 0.0
H2834 H 0.16938 0.45892 0.64944 0.0
H2835 H 0.16516 0.52105 0.62257 0.0
H2836 H 0.09366 0.50749 0.54512 0.0
H2837 H 0.12121 0.50642 0.57031 0.0
C2838 C 0.49814 0.19784 0.6744 0.0
C2839 C 0.51829 0.20486 0.6779 0.0
C2840 C 0.49448 0.18125 0.66118 0.0
C2841 C 0.52056 0.1359 0.63945 0.0
H2842 H 0.47626 0.13587 0.59957 0.0
C2843 C 0.50283 0.06503 0.58898 0.0
C2844 C 0.49968 0.069 0.56794 0.0
C2845 C 0.50329 0.08113 0.60325 0.0
C2846 C 0.48871 0.13566 0.61063 0.0
H2847 H 0.55034 0.19986 0.67012 0.0
H2848 H 0.54391 0.17138 0.64692 0.0
H2849 H 0.48085 0.16539 0.6223 0.0
H2850 H 0.49393 0.0931 0.54557 0.0
H2851 H 0.49486 0.12095 0.57035 0.0
H2852 H 0.52875 0.10644 0.62753 0.0
C2853 C 0.53095 0.17856 0.65449 0.0
C2854 C 0.49123 0.15249 0.62376 0.0
C2855 C 0.53459 0.19513 0.66757 0.0
C2856 C 0.4965 0.08939 0.56162 0.0
C2857 C 0.49685 0.10542 0.57587 0.0
C2858 C 0.51799 0.11905 0.62642 0.0
C2859 C 0.5109 0.17122 0.65135 0.0
C2860 C 0.50738 0.15293 0.63812 0.0
C2861 C 0.50047 0.10153 0.59682 0.0
C2862 C 0.5022 0.11883 0.61167 0.0
H2863 H 0.48523 0.20503 0.68205 0.0
H2864 H 0.47885 0.17593 0.65912 0.0
H2865 H 0.53298 0.13562 0.65054 0.0
H2866 H 0.50531 0.04955 0.59444 0.0
H2867 H 0.50592 0.07759 0.61932 0.0
C2868 C 0.79669 0.51057 0.3455 0.0
C2869 C 0.80026 0.51046 0.32417 0.0
C2870 C 0.81284 0.50733 0.35932 0.0
C2871 C 0.86703 0.48938 0.3636 0.0
H2872 H 0.86806 0.52651 0.41017 0.0
C2873 C 0.93852 0.5003 0.41647 0.0
C2874 C 0.9346 0.50172 0.43773 0.0
C2875 C 0.92225 0.50022 0.4023 0.0
C2876 C 0.86792 0.51587 0.39738 0.0
H2877 H 0.82354 0.5062 0.30066 0.0
H2878 H 0.85165 0.50059 0.32471 0.0
H2879 H 0.83913 0.52728 0.38653 0.0
H2880 H 0.9103 0.50395 0.46062 0.0
H2881 H 0.88232 0.50371 0.43609 0.0
H2882 H 0.89607 0.47819 0.37447 0.0
C2883 C 0.83634 0.50291 0.3308 0.0
C2884 C 0.85127 0.51625 0.38384 0.0
C2885 C 0.82018 0.50609 0.31698 0.0
C2886 C 0.91406 0.50293 0.44441 0.0
C2887 C 0.89791 0.50291 0.43031 0.0
C2888 C 0.88377 0.48903 0.37716 0.0
C2889 C 0.83297 0.504 0.35215 0.0
C2890 C 0.85055 0.50298 0.36681 0.0
C2891 C 0.90177 0.50167 0.40909 0.0
C2892 C 0.88435 0.50223 0.39426 0.0
H2893 H 0.78147 0.51363 0.35151 0.0
H2894 H 0.8096 0.50781 0.37566 0.0
H2895 H 0.86691 0.47884 0.35073 0.0
H2896 H 0.95411 0.49928 0.41075 0.0
H2897 H 0.92574 0.49938 0.38603 0.0
C2898 C 0.50654 0.82305 0.31531 0.0
C2899 C 0.51022 0.80298 0.32231 0.0
C2900 C 0.5036 0.83908 0.32926 0.0
C2901 C 0.49157 0.85093 0.38373 0.0
H2902 H 0.52122 0.90122 0.37231 0.0
C2903 C 0.50356 0.91365 0.44519 0.0
C2904 C 0.50235 0.93429 0.43903 0.0
C2905 C 0.50317 0.89789 0.43064 0.0
C2906 C 0.51259 0.88742 0.37561 0.0
H2907 H 0.5128 0.78394 0.34953 0.0
H2908 H 0.50792 0.81199 0.37392 0.0
H2909 H 0.52234 0.87319 0.34761 0.0
H2910 H 0.49957 0.95441 0.41256 0.0
H2911 H 0.49875 0.92688 0.38722 0.0
H2912 H 0.48196 0.86513 0.41184 0.0
C2913 C 0.5072 0.81529 0.3576 0.0
C2914 C 0.51323 0.87132 0.36144 0.0
C2915 C 0.51018 0.79923 0.34363 0.0
C2916 C 0.50068 0.93873 0.4179 0.0
C2917 C 0.50027 0.92293 0.40334 0.0
C2918 C 0.4909 0.86705 0.39791 0.0
C2919 C 0.50426 0.83547 0.35057 0.0
C2920 C 0.50283 0.85283 0.36537 0.0
C2921 C 0.50153 0.90231 0.40954 0.0
C2922 C 0.50153 0.88545 0.39409 0.0
H2923 H 0.50672 0.82658 0.29902 0.0
H2924 H 0.50108 0.85438 0.32332 0.0
H2925 H 0.48316 0.837 0.3871 0.0
H2926 H 0.50495 0.90956 0.46128 0.0
H2927 H 0.50451 0.88221 0.43595 0.0
C2928 C 0.18291 0.5357 0.32232 0.0
C2929 C 0.20133 0.52467 0.32404 0.0
C2930 C 0.16646 0.53164 0.33547 0.0
C2931 C 0.14637 0.49348 0.37334 0.0
H2932 H 0.11225 0.53945 0.38963 0.0
C2933 C 0.08736 0.49239 0.44062 0.0
C2934 C 0.06783 0.50055 0.43629 0.0
C2935 C 0.10324 0.49381 0.42619 0.0
C2936 C 0.12154 0.52644 0.38506 0.0
H2937 H 0.21704 0.50058 0.34061 0.0
H2938 H 0.18857 0.49397 0.36437 0.0
H2939 H 0.14121 0.54511 0.36668 0.0
H2940 H 0.04956 0.51639 0.41337 0.0
H2941 H 0.07752 0.5193 0.38832 0.0
H2942 H 0.12694 0.47508 0.39262 0.0
C2943 C 0.18658 0.50545 0.35251 0.0
C2944 C 0.13813 0.52962 0.3718 0.0
C2945 C 0.20296 0.50929 0.33903 0.0
C2946 C 0.06441 0.50987 0.4171 0.0
C2947 C 0.08041 0.51164 0.40283 0.0
C2948 C 0.12995 0.49038 0.38692 0.0
C2949 C 0.16812 0.51669 0.35099 0.0
C2950 C 0.15071 0.51318 0.36558 0.0
C2951 C 0.10001 0.50377 0.40731 0.0
C2952 C 0.1173 0.50682 0.39277 0.0
H2953 H 0.18115 0.54738 0.31059 0.0
H2954 H 0.15239 0.54021 0.33331 0.0
H2955 H 0.15546 0.48037 0.36872 0.0
H2956 H 0.09044 0.48502 0.45524 0.0
H2957 H 0.11823 0.48772 0.43006 0.0
C2958 C 0.50066 0.17845 0.31336 0.0
C2959 C 0.49802 0.19852 0.32084 0.0
C2960 C 0.5039 0.16212 0.3269 0.0
C2961 C 0.51844 0.14919 0.38056 0.0
H2962 H 0.48646 0.10005 0.37039 0.0
C2963 C 0.50554 0.08773 0.44285 0.0
C2964 C 0.5056 0.06694 0.43704 0.0
C2965 C 0.50636 0.10321 0.42805 0.0
C2966 C 0.49575 0.11351 0.37331 0.0
H2967 H 0.4976 0.21719 0.34843 0.0
H2968 H 0.50296 0.18865 0.37209 0.0
H2969 H 0.4853 0.12821 0.3458 0.0
H2970 H 0.50675 0.04629 0.41088 0.0
H2971 H 0.50829 0.0734 0.38503 0.0
H2972 H 0.52868 0.13458 0.40822 0.0
C2973 C 0.50266 0.18557 0.35572 0.0
C2974 C 0.49509 0.12968 0.3592 0.0
C2975 C 0.4994 0.20192 0.34217 0.0
C2976 C 0.50659 0.06209 0.41596 0.0
C2977 C 0.5074 0.07764 0.40112 0.0
C2978 C 0.51911 0.13301 0.39467 0.0
C2979 C 0.50457 0.16541 0.34826 0.0
C2980 C 0.50626 0.14781 0.36275 0.0
C2981 C 0.50727 0.0984 0.407 0.0
C2982 C 0.50759 0.11506 0.39134 0.0
H2983 H 0.49944 0.17519 0.29707 0.0
H2984 H 0.50558 0.14684 0.32062 0.0
H2985 H 0.52748 0.16279 0.38361 0.0
H2986 H 0.50473 0.09217 0.45889 0.0
H2987 H 0.50588 0.11901 0.43314 0.0
C2988 C 0.68846 0.82106 0.50007 0.0
C2989 C 0.68136 0.80157 0.49419 0.0
C2990 C 0.67463 0.83711 0.50351 0.0
C2991 C 0.62214 0.85297 0.48889 0.0
H2992 H 0.63024 0.89557 0.52972 0.0
C2993 C 0.56085 0.91418 0.50438 0.0
C2994 C 0.5673 0.9347 0.50623 0.0
C2995 C 0.57509 0.89823 0.50406 0.0
C2996 C 0.62791 0.88388 0.51812 0.0
H2997 H 0.65414 0.7833 0.48855 0.0
H2998 H 0.62996 0.81114 0.49497 0.0
H2999 H 0.65405 0.8666 0.52821 0.0
H3000 H 0.59401 0.95434 0.50956 0.0
H3001 H 0.61898 0.92627 0.509 0.0
H3002 H 0.59603 0.87014 0.47884 0.0
C3003 C 0.64625 0.81422 0.49638 0.0
C3004 C 0.64152 0.86726 0.51726 0.0
C3005 C 0.66008 0.79822 0.49282 0.0
C3006 C 0.58846 0.93876 0.50809 0.0
C3007 C 0.60277 0.92269 0.50787 0.0
C3008 C 0.60854 0.86948 0.48982 0.0
C3009 C 0.65336 0.83402 0.50123 0.0
C3010 C 0.63875 0.85155 0.50266 0.0
C3011 C 0.59621 0.90226 0.50564 0.0
C3012 C 0.61119 0.88508 0.50448 0.0
H3013 H 0.70478 0.82422 0.50098 0.0
H3014 H 0.6807 0.85216 0.50702 0.0
H3015 H 0.61981 0.84149 0.47709 0.0
H3016 H 0.54472 0.91031 0.50299 0.0
H3017 H 0.56951 0.88265 0.50265 0.0
C3018 C 0.6718 0.19058 0.46977 0.0
C3019 C 0.68116 0.20084 0.48633 0.0
C3020 C 0.65858 0.17409 0.47321 0.0
C3021 C 0.6255 0.14986 0.51222 0.0
H3022 H 0.62976 0.10269 0.47614 0.0
C3023 C 0.56214 0.08829 0.50629 0.0
C3024 C 0.56802 0.06764 0.50411 0.0
C3025 C 0.57679 0.10392 0.50585 0.0
C3026 C 0.6285 0.11563 0.4865 0.0
H3027 H 0.68362 0.20196 0.51959 0.0
H3028 H 0.66047 0.17299 0.52563 0.0
H3029 H 0.65369 0.13115 0.47217 0.0
H3030 H 0.59415 0.04735 0.50011 0.0
H3031 H 0.61971 0.07472 0.49935 0.0
H3032 H 0.60029 0.13429 0.52654 0.0
C3033 C 0.66337 0.17784 0.50995 0.0
C3034 C 0.64206 0.13206 0.48407 0.0
C3035 C 0.67672 0.19434 0.50649 0.0
C3036 C 0.58901 0.06305 0.50177 0.0
C3037 C 0.60368 0.07875 0.50124 0.0
C3038 C 0.61186 0.13345 0.5146 0.0
C3039 C 0.65433 0.16738 0.49331 0.0
C3040 C 0.64057 0.14948 0.49673 0.0
C3041 C 0.59771 0.09938 0.50316 0.0
C3042 C 0.61306 0.11623 0.50161 0.0
H3043 H 0.6751 0.19493 0.45402 0.0
H3044 H 0.65165 0.16657 0.46006 0.0
H3045 H 0.62389 0.16308 0.52217 0.0
H3046 H 0.54616 0.0925 0.50818 0.0
H3047 H 0.57162 0.11965 0.50711 0.0
C3048 C 0.81012 0.67706 0.50453 0.0
C3049 C 0.80349 0.68156 0.48443 0.0
C3050 C 0.82655 0.66358 0.50785 0.0
C3051 C 0.87198 0.64183 0.48154 0.0
H3052 H 0.86988 0.6005 0.52433 0.0
C3053 C 0.941 0.58863 0.49902 0.0
C3054 C 0.9363 0.56777 0.50176 0.0
C3055 C 0.92533 0.60334 0.49841 0.0
C3056 C 0.87068 0.61195 0.51229 0.0
H3057 H 0.80906 0.67545 0.45207 0.0
H3058 H 0.83726 0.65173 0.45787 0.0
H3059 H 0.84114 0.6242 0.5201 0.0
H3060 H 0.91127 0.54617 0.50637 0.0
H3061 H 0.88419 0.57169 0.50513 0.0
H3062 H 0.90124 0.62929 0.47336 0.0
C3063 C 0.82993 0.65873 0.47108 0.0
C3064 C 0.8543 0.62565 0.50999 0.0
C3065 C 0.81352 0.6721 0.46778 0.0
C3066 C 0.91557 0.56205 0.50418 0.0
C3067 C 0.89997 0.57673 0.50365 0.0
C3068 C 0.88837 0.6282 0.48387 0.0
C3069 C 0.83678 0.65444 0.49113 0.0
C3070 C 0.85463 0.64057 0.4944 0.0
C3071 C 0.90463 0.59754 0.50063 0.0
C3072 C 0.88782 0.61292 0.49911 0.0
H3073 H 0.80268 0.68402 0.5177 0.0
H3074 H 0.83151 0.66065 0.52349 0.0
H3075 H 0.87285 0.65335 0.46956 0.0
H3076 H 0.95675 0.59364 0.49716 0.0
H3077 H 0.92945 0.61928 0.49626 0.0
C3078 C 0.32765 0.80902 0.50461 0.0
C3079 C 0.32328 0.80253 0.48443 0.0
C3080 C 0.34111 0.82542 0.50812 0.0
C3081 C 0.36296 0.87096 0.4822 0.0
H3082 H 0.404 0.86888 0.52539 0.0
C3083 C 0.41581 0.93998 0.50032 0.0
C3084 C 0.43673 0.93541 0.50324 0.0
C3085 C 0.40115 0.92429 0.49959 0.0
C3086 C 0.39264 0.86968 0.51324 0.0
H3087 H 0.32962 0.80832 0.45215 0.0
H3088 H 0.3533 0.83646 0.45829 0.0
H3089 H 0.38041 0.84013 0.5208 0.0
H3090 H 0.45847 0.91058 0.50812 0.0
H3091 H 0.43302 0.88343 0.50666 0.0
H3092 H 0.37549 0.90023 0.47427 0.0
C3093 C 0.34621 0.82904 0.47141 0.0
C3094 C 0.379 0.85328 0.51074 0.0
C3095 C 0.33286 0.81266 0.46791 0.0
C3096 C 0.44254 0.91478 0.50578 0.0
C3097 C 0.42789 0.89914 0.50512 0.0
C3098 C 0.37654 0.88736 0.48474 0.0
C3099 C 0.35036 0.83577 0.49153 0.0
C3100 C 0.36418 0.85361 0.495 0.0
C3101 C 0.40704 0.90367 0.50187 0.0
C3102 C 0.39171 0.88682 0.50012 0.0
H3103 H 0.3206 0.8015 0.51767 0.0
H3104 H 0.34392 0.83028 0.52381 0.0
H3105 H 0.35153 0.87184 0.47012 0.0
H3106 H 0.41073 0.95566 0.49837 0.0
H3107 H 0.38517 0.92831 0.49727 0.0
C3108 C 0.20544 0.34386 0.51117 0.0
C3109 C 0.20231 0.3226 0.50979 0.0
C3110 C 0.18911 0.35746 0.50825 0.0
C3111 C 0.1353 0.36183 0.4891 0.0
H3112 H 0.13317 0.40677 0.52808 0.0
C3113 C 0.06392 0.41498 0.49975 0.0
C3114 C 0.06818 0.43604 0.50164 0.0
C3115 C 0.07993 0.40058 0.49978 0.0
C3116 C 0.13361 0.39441 0.51696 0.0
H3117 H 0.17968 0.29901 0.50359 0.0
H3118 H 0.15116 0.32272 0.49863 0.0
H3119 H 0.16203 0.38316 0.52886 0.0
H3120 H 0.09285 0.45834 0.50482 0.0
H3121 H 0.12037 0.43342 0.50482 0.0
H3122 H 0.1066 0.37313 0.47742 0.0
C3123 C 0.16629 0.32892 0.50169 0.0
C3124 C 0.15023 0.3809 0.51733 0.0
C3125 C 0.18266 0.31531 0.5045 0.0
C3126 C 0.08881 0.4423 0.50341 0.0
C3127 C 0.1047 0.42797 0.50353 0.0
C3128 C 0.11858 0.37535 0.48878 0.0
C3129 C 0.1692 0.35015 0.50404 0.0
C3130 C 0.15141 0.36453 0.50332 0.0
C3131 C 0.10049 0.40694 0.50186 0.0
C3132 C 0.11765 0.3919 0.5026 0.0
H3133 H 0.22046 0.34995 0.51496 0.0
H3134 H 0.19203 0.37374 0.50968 0.0
H3135 H 0.13577 0.34946 0.478 0.0
H3136 H 0.04824 0.40959 0.49832 0.0
H3137 H 0.0762 0.38445 0.49857 0.0
C3138 C 0.32877 0.19497 0.49599 0.0
C3139 C 0.32472 0.20201 0.51605 0.0
C3140 C 0.34212 0.17843 0.49271 0.0
C3141 C 0.36375 0.13336 0.51944 0.0
H3142 H 0.40485 0.1342 0.47627 0.0
C3143 C 0.41608 0.0636 0.50307 0.0
C3144 C 0.43708 0.06799 0.5004 0.0
C3145 C 0.40152 0.0794 0.50322 0.0
C3146 C 0.39346 0.13375 0.48841 0.0
H3147 H 0.3315 0.19704 0.54837 0.0
H3148 H 0.35492 0.16861 0.54264 0.0
H3149 H 0.38145 0.16324 0.48021 0.0
H3150 H 0.45905 0.09257 0.49528 0.0
H3151 H 0.43375 0.1199 0.4957 0.0
H3152 H 0.37601 0.10416 0.528 0.0
C3153 C 0.34771 0.17574 0.52944 0.0
C3154 C 0.37994 0.1503 0.49054 0.0
C3155 C 0.3345 0.19228 0.53269 0.0
C3156 C 0.44306 0.08852 0.49746 0.0
C3157 C 0.42851 0.10425 0.49752 0.0
C3158 C 0.37717 0.1168 0.51725 0.0
C3159 C 0.35152 0.16847 0.50945 0.0
C3160 C 0.36513 0.15042 0.50629 0.0
C3161 C 0.40759 0.09992 0.50059 0.0
C3162 C 0.39237 0.1169 0.50189 0.0
H3163 H 0.32154 0.20218 0.48283 0.0
H3164 H 0.34469 0.17314 0.47713 0.0
H3165 H 0.35231 0.13285 0.53155 0.0
H3166 H 0.41087 0.048 0.50532 0.0
H3167 H 0.38548 0.07553 0.50541 0.0
C3168 C 0.82037 0.3169 0.50016 0.0
C3169 C 0.80076 0.32387 0.49434 0.0
C3170 C 0.83645 0.33077 0.50335 0.0
C3171 C 0.85216 0.38306 0.48821 0.0
H3172 H 0.89519 0.37528 0.52876 0.0
C3173 C 0.91402 0.44414 0.5026 0.0
C3174 C 0.93455 0.43759 0.50447 0.0
C3175 C 0.89792 0.43003 0.50249 0.0
C3176 C 0.88338 0.37753 0.51724 0.0
H3177 H 0.78235 0.3509 0.48854 0.0
H3178 H 0.81025 0.37516 0.49453 0.0
H3179 H 0.86613 0.35154 0.52765 0.0
H3180 H 0.95406 0.41085 0.50802 0.0
H3181 H 0.92577 0.38614 0.5078 0.0
H3182 H 0.86931 0.40903 0.47782 0.0
C3183 C 0.81339 0.35894 0.49608 0.0
C3184 C 0.86671 0.36395 0.51661 0.0
C3185 C 0.79735 0.34506 0.49276 0.0
C3186 C 0.93848 0.41648 0.50652 0.0
C3187 C 0.92227 0.40231 0.50651 0.0
C3188 C 0.86873 0.39664 0.48891 0.0
C3189 C 0.83329 0.35195 0.50088 0.0
C3190 C 0.85085 0.36658 0.5021 0.0
C3191 C 0.90182 0.40895 0.5043 0.0
C3192 C 0.8845 0.3941 0.50345 0.0
H3193 H 0.82358 0.30065 0.50121 0.0
H3194 H 0.85158 0.32479 0.50682 0.0
H3195 H 0.84056 0.3853 0.47648 0.0
H3196 H 0.91025 0.46023 0.50107 0.0
H3197 H 0.88233 0.43568 0.50107 0.0
C3198 C 0.18397 0.68656 0.49753 0.0
C3199 C 0.20334 0.67976 0.4908 0.0
C3200 C 0.16793 0.67263 0.50068 0.0
C3201 C 0.15146 0.62104 0.48398 0.0
H3202 H 0.10996 0.62726 0.52635 0.0
C3203 C 0.09005 0.55948 0.49849 0.0
C3204 C 0.06964 0.56595 0.50159 0.0
C3205 C 0.10614 0.57359 0.4981 0.0
C3206 C 0.12133 0.62546 0.51432 0.0
H3207 H 0.22142 0.6529 0.48332 0.0
H3208 H 0.19361 0.62853 0.48922 0.0
H3209 H 0.13903 0.65097 0.52515 0.0
H3210 H 0.05034 0.59254 0.50693 0.0
H3211 H 0.07862 0.61726 0.50621 0.0
H3212 H 0.13387 0.59554 0.47319 0.0
C3213 C 0.19061 0.64469 0.49153 0.0
C3214 C 0.13801 0.63903 0.51364 0.0
C3215 C 0.2066 0.65863 0.48826 0.0
C3216 C 0.06582 0.58699 0.50446 0.0
C3217 C 0.08203 0.60115 0.50418 0.0
C3218 C 0.13489 0.60747 0.48473 0.0
C3219 C 0.17091 0.65155 0.49725 0.0
C3220 C 0.15333 0.63694 0.49848 0.0
C3221 C 0.10236 0.59459 0.50085 0.0
C3222 C 0.11966 0.60946 0.49993 0.0
H3223 H 0.18088 0.70277 0.49934 0.0
H3224 H 0.15295 0.67852 0.50489 0.0
H3225 H 0.16264 0.61925 0.47177 0.0
H3226 H 0.09371 0.54344 0.49625 0.0
H3227 H 0.12164 0.56799 0.49579 0.0
loop_
_geom_bond_atom_site_label_1
_geom_bond_atom_site_label_2
_geom_bond_distance
_geom_bond_site_symmetry_2
_ccdc_geom_bond_type
P0 O11 1.490 . S
P0 C14 1.812 . S
P0 C20 1.803 . S
P0 C26 1.819 . S
H1 C15 0.941 . S
H2 C16 0.939 . S
H3 C18 0.940 . S
H4 C19 0.940 . S
H5 C21 0.939 . S
H6 C22 0.942 . S
H7 C24 0.940 . S
H8 C25 0.939 . S
H9 C27 0.941 . S
H10 C31 0.939 1_455 S
O11 P0 1.490 . S
H12 C28 0.939 . S
H13 C30 0.940 . S
C14 P0 1.812 . S
C14 C15 1.389 . S
C14 C19 1.391 1_655 S
C15 H1 0.941 . S
C15 C14 1.389 . S
C15 C16 1.397 . S
C16 H2 0.939 . S
C16 C15 1.397 . S
C16 C17 1.378 . S
C17 C16 1.378 . S
C17 C18 1.378 1_655 S
C18 H3 0.940 . S
C18 C17 1.378 1_455 S
C18 C19 1.396 . S
C19 H4 0.940 . S
C19 C14 1.391 1_455 S
C19 C18 1.396 . S
C20 P0 1.803 . S
C20 C21 1.378 . S
C20 C25 1.400 1_655 S
C21 H5 0.939 . S
C21 C20 1.378 . S
C21 C22 1.361 . S
C22 H6 0.942 . S
C22 C21 1.361 . S
C22 C23 1.369 . S
C23 C22 1.369 . S
C23 C24 1.404 1_655 S
C24 H7 0.940 . S
C24 C23 1.404 1_455 S
C24 C25 1.389 . S
C25 H8 0.939 . S
C25 C20 1.400 1_455 S
C25 C24 1.389 . S
C26 P0 1.819 . S
C26 C27 1.391 . S
C26 C31 1.391 . S
C27 H9 0.941 . S
C27 C26 1.391 . S
C27 C28 1.396 . S
C28 H12 0.939 . S
C28 C27 1.396 . S
C28 C29 1.397 . S
C29 C28 1.397 . S
C29 C30 1.385 1_655 S
C30 H13 0.940 . S
C30 C29 1.385 1_455 S
C30 C31 1.388 1_455 S
C31 H10 0.939 1_655 S
C31 C26 1.391 . S
C31 C30 1.388 1_655 S
P32 O43 1.490 . S
P32 C46 1.812 . S
P32 C52 1.803 . S
P32 C58 1.819 . S
H33 C47 0.941 . S
H34 C48 0.939 . S
H35 C50 0.940 . S
H36 C51 0.940 . S
H37 C53 0.939 . S
H38 C54 0.942 . S
H39 C56 0.940 . S
H40 C57 0.939 . S
H41 C59 0.941 . S
H42 C63 0.939 1_545 S
O43 P32 1.490 . S
H44 C60 0.939 . S
H45 C62 0.940 . S
C46 P32 1.812 . S
C46 C47 1.389 . S
C46 C51 1.391 1_565 S
C47 H33 0.941 . S
C47 C46 1.389 . S
C47 C48 1.397 . S
C48 H34 0.939 . S
C48 C47 1.397 . S
C48 C49 1.378 . S
C49 C48 1.378 . S
C49 C50 1.378 1_565 S
C50 H35 0.940 . S
C50 C49 1.378 1_545 S
C50 C51 1.396 . S
C51 H36 0.940 . S
C51 C46 1.391 1_545 S
C51 C50 1.396 . S
C52 P32 1.803 . S
C52 C53 1.378 . S
C52 C57 1.400 1_565 S
C53 H37 0.939 . S
C53 C52 1.378 . S
C53 C54 1.361 . S
C54 H38 0.942 . S
C54 C53 1.361 . S
C54 C55 1.369 . S
C55 C54 1.369 . S
C55 C56 1.404 1_565 S
C56 H39 0.940 . S
C56 C55 1.404 1_545 S
C56 C57 1.389 . S
C57 H40 0.939 . S
C57 C52 1.400 1_545 S
C57 C56 1.389 . S
C58 P32 1.819 . S
C58 C59 1.391 . S
C58 C63 1.391 . S
C59 H41 0.941 . S
C59 C58 1.391 . S
C59 C60 1.396 . S
C60 H44 0.939 . S
C60 C59 1.396 . S
C60 C61 1.397 . S
C61 C60 1.397 . S
C61 C62 1.385 1_565 S
C62 H45 0.940 . S
C62 C61 1.385 1_545 S
C62 C63 1.388 1_545 S
C63 H42 0.939 1_565 S
C63 C58 1.391 . S
C63 C62 1.388 1_565 S
P64 O75 1.490 . S
P64 C78 1.812 . S
P64 C84 1.803 . S
P64 C90 1.819 . S
H65 C79 0.941 . S
H66 C80 0.939 . S
H67 C82 0.940 . S
H68 C83 0.940 1_655 S
H69 C85 0.939 . S
H70 C86 0.942 . S
H71 C88 0.940 . S
H72 C89 0.939 1_655 S
H73 C91 0.941 . S
H74 C95 0.939 . S
O75 P64 1.490 . S
H76 C92 0.939 . S
H77 C94 0.940 . S
C78 P64 1.812 . S
C78 C79 1.389 . S
C78 C83 1.391 . S
C79 H65 0.941 . S
C79 C78 1.389 . S
C79 C80 1.397 . S
C80 H66 0.939 . S
C80 C79 1.397 . S
C80 C81 1.378 . S
C81 C80 1.378 . S
C81 C82 1.378 1_455 S
C82 H67 0.940 . S
C82 C81 1.378 1_655 S
C82 C83 1.396 1_655 S
C83 H68 0.940 1_455 S
C83 C78 1.391 . S
C83 C82 1.396 1_455 S
C84 P64 1.803 . S
C84 C85 1.378 . S
C84 C89 1.400 . S
C85 H69 0.939 . S
C85 C84 1.378 . S
C85 C86 1.361 . S
C86 H70 0.942 . S
C86 C85 1.361 . S
C86 C87 1.369 . S
C87 C86 1.369 . S
C87 C88 1.404 1_455 S
C88 H71 0.940 . S
C88 C87 1.404 1_655 S
C88 C89 1.389 1_655 S
C89 H72 0.939 1_455 S
C89 C84 1.400 . S
C89 C88 1.389 1_455 S
C90 P64 1.819 . S
C90 C91 1.391 . S
C90 C95 1.391 . S
C91 H73 0.941 . S
C91 C90 1.391 . S
C91 C92 1.396 . S
C92 H76 0.939 . S
C92 C91 1.396 . S
C92 C93 1.397 . S
C93 C92 1.397 . S
C93 C94 1.385 1_455 S
C94 H77 0.940 . S
C94 C93 1.385 1_655 S
C94 C95 1.388 1_655 S
C95 H74 0.939 . S
C95 C90 1.391 . S
C95 C94 1.388 1_455 S
P96 O107 1.490 . S
P96 C110 1.812 . S
P96 C116 1.803 . S
P96 C122 1.819 . S
H97 C111 0.941 . S
H98 C112 0.939 . S
H99 C114 0.940 . S
H100 C115 0.940 . S
H101 C117 0.939 . S
H102 C118 0.942 . S
H103 C120 0.940 . S
H104 C121 0.939 . S
H105 C123 0.941 . S
H106 C127 0.939 1_545 S
O107 P96 1.490 . S
H108 C124 0.939 . S
H109 C126 0.940 . S
C110 P96 1.812 . S
C110 C111 1.389 . S
C110 C115 1.391 1_565 S
C111 H97 0.941 . S
C111 C110 1.389 . S
C111 C112 1.397 . S
C112 H98 0.939 . S
C112 C111 1.397 . S
C112 C113 1.378 . S
C113 C112 1.378 . S
C113 C114 1.378 1_565 S
C114 H99 0.940 . S
C114 C113 1.378 1_545 S
C114 C115 1.396 . S
C115 H100 0.940 . S
C115 C110 1.391 1_545 S
C115 C114 1.396 . S
C116 P96 1.803 . S
C116 C117 1.378 . S
C116 C121 1.400 1_565 S
C117 H101 0.939 . S
C117 C116 1.378 . S
C117 C118 1.361 . S
C118 H102 0.942 . S
C118 C117 1.361 . S
C118 C119 1.369 . S
C119 C118 1.369 . S
C119 C120 1.404 1_565 S
C120 H103 0.940 . S
C120 C119 1.404 1_545 S
C120 C121 1.389 . S
C121 H104 0.939 . S
C121 C116 1.400 1_545 S
C121 C120 1.389 . S
C122 P96 1.819 . S
C122 C123 1.391 . S
C122 C127 1.391 . S
C123 H105 0.941 . S
C123 C122 1.391 . S
C123 C124 1.396 . S
C124 H108 0.939 . S
C124 C123 1.396 . S
C124 C125 1.397 . S
C125 C124 1.397 . S
C125 C126 1.385 1_565 S
C126 H109 0.940 . S
C126 C125 1.385 1_545 S
C126 C127 1.388 1_545 S
C127 H106 0.939 1_565 S
C127 C122 1.391 . S
C127 C126 1.388 1_565 S
P128 O139 1.490 . S
P128 C142 1.812 . S
P128 C148 1.803 . S
P128 C154 1.819 . S
H129 C143 0.941 . S
H130 C144 0.939 . S
H131 C146 0.940 . S
H132 C147 0.940 . S
H133 C149 0.939 . S
H134 C150 0.942 . S
H135 C152 0.940 . S
H136 C153 0.939 . S
H137 C155 0.941 . S
H138 C159 0.939 1_455 S
O139 P128 1.490 . S
H140 C156 0.939 . S
H141 C158 0.940 . S
C142 P128 1.812 . S
C142 C143 1.389 . S
C142 C147 1.391 1_655 S
C143 H129 0.941 . S
C143 C142 1.389 . S
C143 C144 1.397 . S
C144 H130 0.939 . S
C144 C143 1.397 . S
C144 C145 1.378 . S
C145 C144 1.378 . S
C145 C146 1.378 1_655 S
C146 H131 0.940 . S
C146 C145 1.378 1_455 S
C146 C147 1.396 . S
C147 H132 0.940 . S
C147 C142 1.391 1_455 S
C147 C146 1.396 . S
C148 P128 1.803 . S
C148 C149 1.378 . S
C148 C153 1.400 1_655 S
C149 H133 0.939 . S
C149 C148 1.378 . S
C149 C150 1.361 . S
C150 H134 0.942 . S
C150 C149 1.361 . S
C150 C151 1.369 . S
C151 C150 1.369 . S
C151 C152 1.404 1_655 S
C152 H135 0.940 . S
C152 C151 1.404 1_455 S
C152 C153 1.389 . S
C153 H136 0.939 . S
C153 C148 1.400 1_455 S
C153 C152 1.389 . S
C154 P128 1.819 . S
C154 C155 1.391 . S
C154 C159 1.391 . S
C155 H137 0.941 . S
C155 C154 1.391 . S
C155 C156 1.396 . S
C156 H140 0.939 . S
C156 C155 1.396 . S
C156 C157 1.397 . S
C157 C156 1.397 . S
C157 C158 1.385 1_655 S
C158 H141 0.940 . S
C158 C157 1.385 1_455 S
C158 C159 1.388 1_455 S
C159 H138 0.939 1_655 S
C159 C154 1.391 . S
C159 C158 1.388 1_655 S
P160 O171 1.490 . S
P160 C174 1.812 . S
P160 C180 1.803 . S
P160 C186 1.819 . S
H161 C175 0.941 . S
H162 C176 0.939 . S
H163 C178 0.940 . S
H164 C179 0.940 . S
H165 C181 0.939 . S
H166 C182 0.942 . S
H167 C184 0.940 . S
H168 C185 0.939 . S
H169 C187 0.941 . S
H170 C191 0.939 1_545 S
O171 P160 1.490 . S
H172 C188 0.939 . S
H173 C190 0.940 . S
C174 P160 1.812 . S
C174 C175 1.389 . S
C174 C179 1.391 1_565 S
C175 H161 0.941 . S
C175 C174 1.389 . S
C175 C176 1.397 . S
C176 H162 0.939 . S
C176 C175 1.397 . S
C176 C177 1.378 . S
C177 C176 1.378 . S
C177 C178 1.378 1_565 S
C178 H163 0.940 . S
C178 C177 1.378 1_545 S
C178 C179 1.396 . S
C179 H164 0.940 . S
C179 C174 1.391 1_545 S
C179 C178 1.396 . S
C180 P160 1.803 . S
C180 C181 1.378 . S
C180 C185 1.400 1_565 S
C181 H165 0.939 . S
C181 C180 1.378 . S
C181 C182 1.361 . S
C182 H166 0.942 . S
C182 C181 1.361 . S
C182 C183 1.369 . S
C183 C182 1.369 . S
C183 C184 1.404 1_565 S
C184 H167 0.940 . S
C184 C183 1.404 1_545 S
C184 C185 1.389 . S
C185 H168 0.939 . S
C185 C180 1.400 1_545 S
C185 C184 1.389 . S
C186 P160 1.819 . S
C186 C187 1.391 . S
C186 C191 1.391 . S
C187 H169 0.941 . S
C187 C186 1.391 . S
C187 C188 1.396 . S
C188 H172 0.939 . S
C188 C187 1.396 . S
C188 C189 1.397 . S
C189 C188 1.397 . S
C189 C190 1.385 1_565 S
C190 H173 0.940 . S
C190 C189 1.385 1_545 S
C190 C191 1.388 1_545 S
C191 H170 0.939 1_565 S
C191 C186 1.391 . S
C191 C190 1.388 1_565 S
P192 O203 1.490 . S
P192 C206 1.812 . S
P192 C212 1.803 . S
P192 C218 1.819 . S
H193 C207 0.941 . S
H194 C208 0.939 . S
H195 C210 0.940 . S
H196 C211 0.940 1_655 S
H197 C213 0.939 . S
H198 C214 0.942 . S
H199 C216 0.940 . S
H200 C217 0.939 1_655 S
H201 C219 0.941 . S
H202 C223 0.939 . S
O203 P192 1.490 . S
H204 C220 0.939 . S
H205 C222 0.940 . S
C206 P192 1.812 . S
C206 C207 1.389 . S
C206 C211 1.391 . S
C207 H193 0.941 . S
C207 C206 1.389 . S
C207 C208 1.397 . S
C208 H194 0.939 . S
C208 C207 1.397 . S
C208 C209 1.378 . S
C209 C208 1.378 . S
C209 C210 1.378 1_455 S
C210 H195 0.940 . S
C210 C209 1.378 1_655 S
C210 C211 1.396 1_655 S
C211 H196 0.940 1_455 S
C211 C206 1.391 . S
C211 C210 1.396 1_455 S
C212 P192 1.803 . S
C212 C213 1.378 . S
C212 C217 1.400 . S
C213 H197 0.939 . S
C213 C212 1.378 . S
C213 C214 1.361 . S
C214 H198 0.942 . S
C214 C213 1.361 . S
C214 C215 1.369 . S
C215 C214 1.369 . S
C215 C216 1.404 1_455 S
C216 H199 0.940 . S
C216 C215 1.404 1_655 S
C216 C217 1.389 1_655 S
C217 H200 0.939 1_455 S
C217 C212 1.400 . S
C217 C216 1.389 1_455 S
C218 P192 1.819 . S
C218 C219 1.391 . S
C218 C223 1.391 . S
C219 H201 0.941 . S
C219 C218 1.391 . S
C219 C220 1.396 . S
C220 H204 0.939 . S
C220 C219 1.396 . S
C220 C221 1.397 . S
C221 C220 1.397 . S
C221 C222 1.385 1_455 S
C222 H205 0.940 . S
C222 C221 1.385 1_655 S
C222 C223 1.388 1_655 S
C223 H202 0.939 . S
C223 C218 1.391 . S
C223 C222 1.388 1_455 S
P224 O235 1.490 . S
P224 C238 1.812 . S
P224 C244 1.803 . S
P224 C250 1.819 . S
H225 C239 0.941 . S
H226 C240 0.939 . S
H227 C242 0.940 . S
H228 C243 0.919 1_565 S
H229 C245 0.939 . S
H230 C246 0.942 . S
H231 C248 0.940 . S
H232 C249 0.928 1_565 S
H233 C251 0.941 . S
H234 C255 0.948 . S
O235 P224 1.490 . S
H236 C252 0.939 . S
H237 C254 0.940 . S
C238 P224 1.812 . S
C238 C239 1.389 . S
C238 C243 1.426 . S
C239 H225 0.941 . S
C239 C238 1.389 . S
C239 C240 1.397 . S
C240 H226 0.939 . S
C240 C239 1.397 . S
C240 C241 1.378 . S
C241 C240 1.378 . S
C241 C242 1.378 1_545 S
C242 H227 0.940 . S
C242 C241 1.378 1_565 S
C242 C243 1.384 1_565 S
C243 H228 0.919 1_545 S
C243 C238 1.426 . S
C243 C242 1.384 1_545 S
C244 P224 1.803 . S
C244 C245 1.378 . S
C244 C249 1.418 . S
C245 H229 0.939 . S
C245 C244 1.378 . S
C245 C246 1.361 . S
C246 H230 0.942 . S
C246 C245 1.361 . S
C246 C247 1.369 . S
C247 C246 1.369 . S
C247 C248 1.404 1_545 S
C248 H231 0.940 . S
C248 C247 1.404 1_565 S
C248 C249 1.382 1_565 S
C249 H232 0.928 1_545 S
C249 C244 1.418 . S
C249 C248 1.382 1_545 S
C250 P224 1.819 . S
C250 C251 1.391 . S
C250 C255 1.391 . S
C251 H233 0.941 . S
C251 C250 1.391 . S
C251 C252 1.396 . S
C252 H236 0.939 . S
C252 C251 1.396 . S
C252 C253 1.397 . S
C253 C252 1.397 . S
C253 C254 1.385 1_545 S
C254 H237 0.940 . S
C254 C253 1.385 1_565 S
C254 C255 1.388 1_565 S
C255 H234 0.948 . S
C255 C250 1.391 . S
C255 C254 1.388 1_545 S
P256 O267 1.490 . S
P256 C270 1.812 . S
P256 C276 1.803 . S
P256 C282 1.819 . S
H257 C271 0.941 . S
H258 C272 0.939 . S
H259 C274 0.940 . S
H260 C275 0.959 . S
H261 C277 0.939 . S
H262 C278 0.942 . S
H263 C280 0.940 . S
H264 C281 0.969 . S
H265 C283 0.941 . S
H266 C287 0.924 1_554 S
O267 P256 1.490 . S
H268 C284 0.939 . S
H269 C286 0.940 . S
C270 P256 1.812 . S
C270 C271 1.389 . S
C270 C275 1.362 1_556 S
C271 H257 0.941 . S
C271 C270 1.389 . S
C271 C272 1.397 . S
C272 H258 0.939 . S
C272 C271 1.397 . S
C272 C273 1.378 . S
C273 C272 1.378 . S
C273 C274 1.378 1_556 S
C274 H259 0.940 . S
C274 C273 1.378 1_554 S
C274 C275 1.408 . S
C275 H260 0.959 . S
C275 C270 1.362 1_554 S
C275 C274 1.408 . S
C276 P256 1.803 . S
C276 C277 1.378 . S
C276 C281 1.354 1_556 S
C277 H261 0.939 . S
C277 C276 1.378 . S
C277 C278 1.361 . S
C278 H262 0.942 . S
C278 C277 1.361 . S
C278 C279 1.369 . S
C279 C278 1.369 . S
C279 C280 1.404 1_556 S
C280 H263 0.940 . S
C280 C279 1.404 1_554 S
C280 C281 1.408 . S
C281 H264 0.969 . S
C281 C276 1.354 1_554 S
C281 C280 1.408 . S
C282 P256 1.819 . S
C282 C283 1.391 . S
C282 C287 1.391 . S
C283 H265 0.941 . S
C283 C282 1.391 . S
C283 C284 1.396 . S
C284 H268 0.939 . S
C284 C283 1.396 . S
C284 C285 1.397 . S
C285 C284 1.397 . S
C285 C286 1.385 1_556 S
C286 H269 0.940 . S
C286 C285 1.385 1_554 S
C286 C287 1.388 1_554 S
C287 H266 0.924 1_556 S
C287 C282 1.391 . S
C287 C286 1.388 1_556 S
P288 O299 1.490 . S
P288 C302 1.812 . S
P288 C308 1.803 . S
P288 C314 1.819 . S
H289 C303 0.941 . S
H290 C304 0.939 . S
H291 C306 0.940 . S
H292 C307 0.960 . S
H293 C309 0.939 . S
H294 C310 0.942 . S
H295 C312 0.940 . S
H296 C313 0.968 . S
H297 C315 0.941 . S
H298 C319 0.924 1_554 S
O299 P288 1.490 . S
H300 C316 0.939 . S
H301 C318 0.940 . S
C302 P288 1.812 . S
C302 C303 1.389 . S
C302 C307 1.360 1_556 S
C303 H289 0.941 . S
C303 C302 1.389 . S
C303 C304 1.397 . S
C304 H290 0.939 . S
C304 C303 1.397 . S
C304 C305 1.378 . S
C305 C304 1.378 . S
C305 C306 1.378 1_556 S
C306 H291 0.940 . S
C306 C305 1.378 1_554 S
C306 C307 1.408 . S
C307 H292 0.960 . S
C307 C302 1.360 1_554 S
C307 C306 1.408 . S
C308 P288 1.803 . S
C308 C309 1.378 . S
C308 C313 1.355 1_556 S
C309 H293 0.939 . S
C309 C308 1.378 . S
C309 C310 1.361 . S
C310 H294 0.942 . S
C310 C309 1.361 . S
C310 C311 1.369 . S
C311 C310 1.369 . S
C311 C312 1.404 1_556 S
C312 H295 0.940 . S
C312 C311 1.404 1_554 S
C312 C313 1.407 . S
C313 H296 0.968 . S
C313 C308 1.355 1_554 S
C313 C312 1.407 . S
C314 P288 1.819 . S
C314 C315 1.391 . S
C314 C319 1.391 . S
C315 H297 0.941 . S
C315 C314 1.391 . S
C315 C316 1.396 . S
C316 H300 0.939 . S
C316 C315 1.396 . S
C316 C317 1.397 . S
C317 C316 1.397 . S
C317 C318 1.385 1_556 S
C318 H301 0.940 . S
C318 C317 1.385 1_554 S
C318 C319 1.388 1_554 S
C319 H298 0.924 1_556 S
C319 C314 1.391 . S
C319 C318 1.388 1_556 S
P320 O331 1.490 . S
P320 C334 1.812 . S
P320 C340 1.803 . S
P320 C346 1.819 . S
H321 C335 0.941 . S
H322 C336 0.939 . S
H323 C338 0.940 . S
H324 C339 0.957 . S
H325 C341 0.939 . S
H326 C342 0.942 . S
H327 C344 0.940 . S
H328 C345 0.965 . S
H329 C347 0.941 . S
H330 C351 0.926 1_554 S
O331 P320 1.490 . S
H332 C348 0.939 . S
H333 C350 0.940 . S
C334 P320 1.812 . S
C334 C335 1.389 . S
C334 C339 1.365 1_556 S
C335 H321 0.941 . S
C335 C334 1.389 . S
C335 C336 1.397 . S
C336 H322 0.939 . S
C336 C335 1.397 . S
C336 C337 1.378 . S
C337 C336 1.378 . S
C337 C338 1.378 1_556 S
C338 H323 0.940 . S
C338 C337 1.378 1_554 S
C338 C339 1.407 . S
C339 H324 0.957 . S
C339 C334 1.365 1_554 S
C339 C338 1.407 . S
C340 P320 1.803 . S
C340 C341 1.378 . S
C340 C345 1.360 1_556 S
C341 H325 0.939 . S
C341 C340 1.378 . S
C341 C342 1.361 . S
C342 H326 0.942 . S
C342 C341 1.361 . S
C342 C343 1.369 . S
C343 C342 1.369 . S
C343 C344 1.404 1_556 S
C344 H327 0.940 . S
C344 C343 1.404 1_554 S
C344 C345 1.405 . S
C345 H328 0.965 . S
C345 C340 1.360 1_554 S
C345 C344 1.405 . S
C346 P320 1.819 . S
C346 C347 1.391 . S
C346 C351 1.391 . S
C347 H329 0.941 . S
C347 C346 1.391 . S
C347 C348 1.396 . S
C348 H332 0.939 . S
C348 C347 1.396 . S
C348 C349 1.397 . S
C349 C348 1.397 . S
C349 C350 1.385 1_556 S
C350 H333 0.940 . S
C350 C349 1.385 1_554 S
C350 C351 1.388 1_554 S
C351 H330 0.926 1_556 S
C351 C346 1.391 . S
C351 C350 1.388 1_556 S
P352 O363 1.490 . S
P352 C366 1.812 . S
P352 C372 1.803 . S
P352 C378 1.819 . S
H353 C367 0.941 . S
H354 C368 0.939 . S
H355 C370 0.940 . S
H356 C371 0.936 . S
H357 C373 0.939 . S
H358 C374 0.942 . S
H359 C376 0.940 . S
H360 C377 0.946 . S
H361 C379 0.941 . S
H362 C383 0.937 1_556 S
O363 P352 1.490 . S
H364 C380 0.939 . S
H365 C382 0.940 . S
C366 P352 1.812 . S
C366 C367 1.389 . S
C366 C371 1.397 1_554 S
C367 H353 0.941 . S
C367 C366 1.389 . S
C367 C368 1.397 . S
C368 H354 0.939 . S
C368 C367 1.397 . S
C368 C369 1.378 . S
C369 C368 1.378 . S
C369 C370 1.378 1_554 S
C370 H355 0.940 . S
C370 C369 1.378 1_556 S
C370 C371 1.394 . S
C371 H356 0.936 . S
C371 C366 1.397 1_556 S
C371 C370 1.394 . S
C372 P352 1.803 . S
C372 C373 1.378 . S
C372 C377 1.389 1_554 S
C373 H357 0.939 . S
C373 C372 1.378 . S
C373 C374 1.361 . S
C374 H358 0.942 . S
C374 C373 1.361 . S
C374 C375 1.369 . S
C375 C374 1.369 . S
C375 C376 1.404 1_554 S
C376 H359 0.940 . S
C376 C375 1.404 1_556 S
C376 C377 1.394 . S
C377 H360 0.946 . S
C377 C372 1.389 1_556 S
C377 C376 1.394 . S
C378 P352 1.819 . S
C378 C379 1.391 . S
C378 C383 1.391 . S
C379 H361 0.941 . S
C379 C378 1.391 . S
C379 C380 1.396 . S
C380 H364 0.939 . S
C380 C379 1.396 . S
C380 C381 1.397 . S
C381 C380 1.397 . S
C381 C382 1.385 1_554 S
C382 H365 0.940 . S
C382 C381 1.385 1_556 S
C382 C383 1.388 1_556 S
C383 H362 0.937 1_554 S
C383 C378 1.391 . S
C383 C382 1.388 1_554 S
P384 O395 1.490 . S
P384 C398 1.812 . S
P384 C404 1.803 . S
P384 C410 1.819 . S
H385 C399 0.941 . S
H386 C400 0.939 . S
H387 C402 0.940 . S
H388 C403 0.940 . S
H389 C405 0.939 . S
H390 C406 0.942 . S
H391 C408 0.940 . S
H392 C409 0.939 . S
H393 C411 0.941 . S
H394 C415 0.939 . S
O395 P384 1.490 . S
H396 C412 0.939 . S
H397 C414 0.940 . S
C398 P384 1.812 . S
C398 C399 1.389 . S
C398 C403 1.391 . S
C399 H385 0.941 . S
C399 C398 1.389 . S
C399 C400 1.397 . S
C400 H386 0.939 . S
C400 C399 1.397 . S
C400 C401 1.378 . S
C401 C400 1.378 . S
C401 C402 1.378 . S
C402 H387 0.940 . S
C402 C401 1.378 . S
C402 C403 1.396 . S
C403 H388 0.940 . S
C403 C398 1.391 . S
C403 C402 1.396 . S
C404 P384 1.803 . S
C404 C405 1.378 . S
C404 C409 1.400 . S
C405 H389 0.939 . S
C405 C404 1.378 . S
C405 C406 1.361 . S
C406 H390 0.942 . S
C406 C405 1.361 . S
C406 C407 1.369 . S
C407 C406 1.369 . S
C407 C408 1.404 . S
C408 H391 0.940 . S
C408 C407 1.404 . S
C408 C409 1.389 . S
C409 H392 0.939 . S
C409 C404 1.400 . S
C409 C408 1.389 . S
C410 P384 1.819 . S
C410 C411 1.391 . S
C410 C415 1.391 . S
C411 H393 0.941 . S
C411 C410 1.391 . S
C411 C412 1.396 . S
C412 H396 0.939 . S
C412 C411 1.396 . S
C412 C413 1.397 . S
C413 C412 1.397 . S
C413 C414 1.385 . S
C414 H397 0.940 . S
C414 C413 1.385 . S
C414 C415 1.388 . S
C415 H394 0.939 . S
C415 C410 1.391 . S
C415 C414 1.388 . S
P416 O427 1.490 . S
P416 C430 1.812 . S
P416 C436 1.803 . S
P416 C442 1.819 . S
H417 C431 0.941 . S
H418 C432 0.939 . S
H419 C434 0.940 . S
H420 C435 0.940 . S
H421 C437 0.939 . S
H422 C438 0.942 . S
H423 C440 0.940 . S
H424 C441 0.939 . S
H425 C443 0.941 . S
H426 C447 0.939 . S
O427 P416 1.490 . S
H428 C444 0.939 . S
H429 C446 0.940 . S
C430 P416 1.812 . S
C430 C431 1.389 . S
C430 C435 1.391 . S
C431 H417 0.941 . S
C431 C430 1.389 . S
C431 C432 1.397 . S
C432 H418 0.939 . S
C432 C431 1.397 . S
C432 C433 1.378 . S
C433 C432 1.378 . S
C433 C434 1.378 . S
C434 H419 0.940 . S
C434 C433 1.378 . S
C434 C435 1.396 . S
C435 H420 0.940 . S
C435 C430 1.391 . S
C435 C434 1.396 . S
C436 P416 1.803 . S
C436 C437 1.378 . S
C436 C441 1.400 . S
C437 H421 0.939 . S
C437 C436 1.378 . S
C437 C438 1.361 . S
C438 H422 0.942 . S
C438 C437 1.361 . S
C438 C439 1.369 . S
C439 C438 1.369 . S
C439 C440 1.404 . S
C440 H423 0.940 . S
C440 C439 1.404 . S
C440 C441 1.389 . S
C441 H424 0.939 . S
C441 C436 1.400 . S
C441 C440 1.389 . S
C442 P416 1.819 . S
C442 C443 1.391 . S
C442 C447 1.391 . S
C443 H425 0.941 . S
C443 C442 1.391 . S
C443 C444 1.396 . S
C444 H428 0.939 . S
C444 C443 1.396 . S
C444 C445 1.397 . S
C445 C444 1.397 . S
C445 C446 1.385 . S
C446 H429 0.940 . S
C446 C445 1.385 . S
C446 C447 1.388 . S
C447 H426 0.939 . S
C447 C442 1.391 . S
C447 C446 1.388 . S
P448 O459 1.490 . S
P448 C462 1.812 . S
P448 C468 1.803 . S
P448 C474 1.819 . S
H449 C463 0.941 . S
H450 C464 0.939 . S
H451 C466 0.940 . S
H452 C467 0.940 . S
H453 C469 0.939 . S
H454 C470 0.942 . S
H455 C472 0.940 . S
H456 C473 0.939 . S
H457 C475 0.941 . S
H458 C479 0.939 . S
O459 P448 1.490 . S
H460 C476 0.939 . S
H461 C478 0.940 . S
C462 P448 1.812 . S
C462 C463 1.389 . S
C462 C467 1.391 . S
C463 H449 0.941 . S
C463 C462 1.389 . S
C463 C464 1.397 . S
C464 H450 0.939 . S
C464 C463 1.397 . S
C464 C465 1.378 . S
C465 C464 1.378 . S
C465 C466 1.378 . S
C466 H451 0.940 . S
C466 C465 1.378 . S
C466 C467 1.396 . S
C467 H452 0.940 . S
C467 C462 1.391 . S
C467 C466 1.396 . S
C468 P448 1.803 . S
C468 C469 1.378 . S
C468 C473 1.400 . S
C469 H453 0.939 . S
C469 C468 1.378 . S
C469 C470 1.361 . S
C470 H454 0.942 . S
C470 C469 1.361 . S
C470 C471 1.369 . S
C471 C470 1.369 . S
C471 C472 1.404 . S
C472 H455 0.940 . S
C472 C471 1.404 . S
C472 C473 1.389 . S
C473 H456 0.939 . S
C473 C468 1.400 . S
C473 C472 1.389 . S
C474 P448 1.819 . S
C474 C475 1.391 . S
C474 C479 1.391 . S
C475 H457 0.941 . S
C475 C474 1.391 . S
C475 C476 1.396 . S
C476 H460 0.939 . S
C476 C475 1.396 . S
C476 C477 1.397 . S
C477 C476 1.397 . S
C477 C478 1.385 . S
C478 H461 0.940 . S
C478 C477 1.385 . S
C478 C479 1.388 . S
C479 H458 0.939 . S
C479 C474 1.391 . S
C479 C478 1.388 . S
P480 O491 1.490 . S
P480 C494 1.812 . S
P480 C500 1.803 . S
P480 C506 1.819 . S
H481 C495 0.941 . S
H482 C496 0.939 . S
H483 C498 0.940 . S
H484 C499 0.940 . S
H485 C501 0.939 . S
H486 C502 0.942 . S
H487 C504 0.940 . S
H488 C505 0.939 . S
H489 C507 0.941 . S
H490 C511 0.939 . S
O491 P480 1.490 . S
H492 C508 0.939 . S
H493 C510 0.940 . S
C494 P480 1.812 . S
C494 C495 1.389 . S
C494 C499 1.391 . S
C495 H481 0.941 . S
C495 C494 1.389 . S
C495 C496 1.397 . S
C496 H482 0.939 . S
C496 C495 1.397 . S
C496 C497 1.378 . S
C497 C496 1.378 . S
C497 C498 1.378 . S
C498 H483 0.940 . S
C498 C497 1.378 . S
C498 C499 1.396 . S
C499 H484 0.940 . S
C499 C494 1.391 . S
C499 C498 1.396 . S
C500 P480 1.803 . S
C500 C501 1.378 . S
C500 C505 1.400 . S
C501 H485 0.939 . S
C501 C500 1.378 . S
C501 C502 1.361 . S
C502 H486 0.942 . S
C502 C501 1.361 . S
C502 C503 1.369 . S
C503 C502 1.369 . S
C503 C504 1.404 . S
C504 H487 0.940 . S
C504 C503 1.404 . S
C504 C505 1.389 . S
C505 H488 0.939 . S
C505 C500 1.400 . S
C505 C504 1.389 . S
C506 P480 1.819 . S
C506 C507 1.391 . S
C506 C511 1.391 . S
C507 H489 0.941 . S
C507 C506 1.391 . S
C507 C508 1.396 . S
C508 H492 0.939 . S
C508 C507 1.396 . S
C508 C509 1.397 . S
C509 C508 1.397 . S
C509 C510 1.385 . S
C510 H493 0.940 . S
C510 C509 1.385 . S
C510 C511 1.388 . S
C511 H490 0.939 . S
C511 C506 1.391 . S
C511 C510 1.388 . S
P512 O523 1.490 . S
P512 C526 1.812 . S
P512 C532 1.803 . S
P512 C538 1.819 . S
H513 C527 0.941 . S
H514 C528 0.939 . S
H515 C530 0.940 . S
H516 C531 0.940 . S
H517 C533 0.939 . S
H518 C534 0.942 . S
H519 C536 0.940 . S
H520 C537 0.939 . S
H521 C539 0.941 . S
H522 C543 0.939 . S
O523 P512 1.490 . S
H524 C540 0.939 . S
H525 C542 0.940 . S
C526 P512 1.812 . S
C526 C527 1.389 . S
C526 C531 1.391 . S
C527 H513 0.941 . S
C527 C526 1.389 . S
C527 C528 1.397 . S
C528 H514 0.939 . S
C528 C527 1.397 . S
C528 C529 1.378 . S
C529 C528 1.378 . S
C529 C530 1.378 . S
C530 H515 0.940 . S
C530 C529 1.378 . S
C530 C531 1.396 . S
C531 H516 0.940 . S
C531 C526 1.391 . S
C531 C530 1.396 . S
C532 P512 1.803 . S
C532 C533 1.378 . S
C532 C537 1.400 . S
C533 H517 0.939 . S
C533 C532 1.378 . S
C533 C534 1.361 . S
C534 H518 0.942 . S
C534 C533 1.361 . S
C534 C535 1.369 . S
C535 C534 1.369 . S
C535 C536 1.404 . S
C536 H519 0.940 . S
C536 C535 1.404 . S
C536 C537 1.389 . S
C537 H520 0.939 . S
C537 C532 1.400 . S
C537 C536 1.389 . S
C538 P512 1.819 . S
C538 C539 1.391 . S
C538 C543 1.391 . S
C539 H521 0.941 . S
C539 C538 1.391 . S
C539 C540 1.396 . S
C540 H524 0.939 . S
C540 C539 1.396 . S
C540 C541 1.397 . S
C541 C540 1.397 . S
C541 C542 1.385 . S
C542 H525 0.940 . S
C542 C541 1.385 . S
C542 C543 1.388 . S
C543 H522 0.939 . S
C543 C538 1.391 . S
C543 C542 1.388 . S
P544 O555 1.490 . S
P544 C558 1.812 . S
P544 C564 1.803 . S
P544 C570 1.819 . S
H545 C559 0.941 . S
H546 C560 0.939 . S
H547 C562 0.940 . S
H548 C563 0.940 . S
H549 C565 0.939 . S
H550 C566 0.942 . S
H551 C568 0.940 . S
H552 C569 0.939 . S
H553 C571 0.941 . S
H554 C575 0.939 . S
O555 P544 1.490 . S
H556 C572 0.939 . S
H557 C574 0.940 . S
C558 P544 1.812 . S
C558 C559 1.389 . S
C558 C563 1.391 . S
C559 H545 0.941 . S
C559 C558 1.389 . S
C559 C560 1.397 . S
C560 H546 0.939 . S
C560 C559 1.397 . S
C560 C561 1.378 . S
C561 C560 1.378 . S
C561 C562 1.378 . S
C562 H547 0.940 . S
C562 C561 1.378 . S
C562 C563 1.396 . S
C563 H548 0.940 . S
C563 C558 1.391 . S
C563 C562 1.396 . S
C564 P544 1.803 . S
C564 C565 1.378 . S
C564 C569 1.400 . S
C565 H549 0.939 . S
C565 C564 1.378 . S
C565 C566 1.361 . S
C566 H550 0.942 . S
C566 C565 1.361 . S
C566 C567 1.369 . S
C567 C566 1.369 . S
C567 C568 1.404 . S
C568 H551 0.940 . S
C568 C567 1.404 . S
C568 C569 1.389 . S
C569 H552 0.939 . S
C569 C564 1.400 . S
C569 C568 1.389 . S
C570 P544 1.819 . S
C570 C571 1.391 . S
C570 C575 1.391 . S
C571 H553 0.941 . S
C571 C570 1.391 . S
C571 C572 1.396 . S
C572 H556 0.939 . S
C572 C571 1.396 . S
C572 C573 1.397 . S
C573 C572 1.397 . S
C573 C574 1.385 . S
C574 H557 0.940 . S
C574 C573 1.385 . S
C574 C575 1.388 . S
C575 H554 0.939 . S
C575 C570 1.391 . S
C575 C574 1.388 . S
P576 O587 1.490 . S
P576 C590 1.812 . S
P576 C596 1.803 . S
P576 C602 1.819 . S
H577 C591 0.941 . S
H578 C592 0.939 . S
H579 C594 0.940 . S
H580 C595 0.940 . S
H581 C597 0.939 . S
H582 C598 0.942 . S
H583 C600 0.940 . S
H584 C601 0.939 . S
H585 C603 0.941 . S
H586 C607 0.939 . S
O587 P576 1.490 . S
H588 C604 0.939 . S
H589 C606 0.940 . S
C590 P576 1.812 . S
C590 C591 1.389 . S
C590 C595 1.391 . S
C591 H577 0.941 . S
C591 C590 1.389 . S
C591 C592 1.397 . S
C592 H578 0.939 . S
C592 C591 1.397 . S
C592 C593 1.378 . S
C593 C592 1.378 . S
C593 C594 1.378 . S
C594 H579 0.940 . S
C594 C593 1.378 . S
C594 C595 1.396 . S
C595 H580 0.940 . S
C595 C590 1.391 . S
C595 C594 1.396 . S
C596 P576 1.803 . S
C596 C597 1.378 . S
C596 C601 1.400 . S
C597 H581 0.939 . S
C597 C596 1.378 . S
C597 C598 1.361 . S
C598 H582 0.942 . S
C598 C597 1.361 . S
C598 C599 1.369 . S
C599 C598 1.369 . S
C599 C600 1.404 . S
C600 H583 0.940 . S
C600 C599 1.404 . S
C600 C601 1.389 . S
C601 H584 0.939 . S
C601 C596 1.400 . S
C601 C600 1.389 . S
C602 P576 1.819 . S
C602 C603 1.391 . S
C602 C607 1.391 . S
C603 H585 0.941 . S
C603 C602 1.391 . S
C603 C604 1.396 . S
C604 H588 0.939 . S
C604 C603 1.396 . S
C604 C605 1.397 . S
C605 C604 1.397 . S
C605 C606 1.385 . S
C606 H589 0.940 . S
C606 C605 1.385 . S
C606 C607 1.388 . S
C607 H586 0.939 . S
C607 C602 1.391 . S
C607 C606 1.388 . S
P608 O619 1.490 . S
P608 C622 1.812 . S
P608 C628 1.803 . S
P608 C634 1.819 . S
H609 C623 0.941 . S
H610 C624 0.939 . S
H611 C626 0.940 . S
H612 C627 0.940 . S
H613 C629 0.939 . S
H614 C630 0.942 . S
H615 C632 0.940 . S
H616 C633 0.939 . S
H617 C635 0.941 . S
H618 C639 0.939 . S
O619 P608 1.490 . S
H620 C636 0.939 . S
H621 C638 0.940 . S
C622 P608 1.812 . S
C622 C623 1.389 . S
C622 C627 1.391 . S
C623 H609 0.941 . S
C623 C622 1.389 . S
C623 C624 1.397 . S
C624 H610 0.939 . S
C624 C623 1.397 . S
C624 C625 1.378 . S
C625 C624 1.378 . S
C625 C626 1.378 . S
C626 H611 0.940 . S
C626 C625 1.378 . S
C626 C627 1.396 . S
C627 H612 0.940 . S
C627 C622 1.391 . S
C627 C626 1.396 . S
C628 P608 1.803 . S
C628 C629 1.378 . S
C628 C633 1.400 . S
C629 H613 0.939 . S
C629 C628 1.378 . S
C629 C630 1.361 . S
C630 H614 0.942 . S
C630 C629 1.361 . S
C630 C631 1.369 . S
C631 C630 1.369 . S
C631 C632 1.404 . S
C632 H615 0.940 . S
C632 C631 1.404 . S
C632 C633 1.389 . S
C633 H616 0.939 . S
C633 C628 1.400 . S
C633 C632 1.389 . S
C634 P608 1.819 . S
C634 C635 1.391 . S
C634 C639 1.391 . S
C635 H617 0.941 . S
C635 C634 1.391 . S
C635 C636 1.396 . S
C636 H620 0.939 . S
C636 C635 1.396 . S
C636 C637 1.397 . S
C637 C636 1.397 . S
C637 C638 1.385 . S
C638 H621 0.940 . S
C638 C637 1.385 . S
C638 C639 1.388 . S
C639 H618 0.939 . S
C639 C634 1.391 . S
C639 C638 1.388 . S
P640 O651 1.490 . S
P640 C654 1.812 . S
P640 C660 1.803 . S
P640 C666 1.819 . S
H641 C655 0.941 . S
H642 C656 0.939 . S
H643 C658 0.940 . S
H644 C659 0.940 . S
H645 C661 0.939 . S
H646 C662 0.942 . S
H647 C664 0.940 . S
H648 C665 0.939 . S
H649 C667 0.941 . S
H650 C671 0.939 . S
O651 P640 1.490 . S
H652 C668 0.939 . S
H653 C670 0.940 . S
C654 P640 1.812 . S
C654 C655 1.389 . S
C654 C659 1.391 . S
C655 H641 0.941 . S
C655 C654 1.389 . S
C655 C656 1.397 . S
C656 H642 0.939 . S
C656 C655 1.397 . S
C656 C657 1.378 . S
C657 C656 1.378 . S
C657 C658 1.378 . S
C658 H643 0.940 . S
C658 C657 1.378 . S
C658 C659 1.396 . S
C659 H644 0.940 . S
C659 C654 1.391 . S
C659 C658 1.396 . S
C660 P640 1.803 . S
C660 C661 1.378 . S
C660 C665 1.400 . S
C661 H645 0.939 . S
C661 C660 1.378 . S
C661 C662 1.361 . S
C662 H646 0.942 . S
C662 C661 1.361 . S
C662 C663 1.369 . S
C663 C662 1.369 . S
C663 C664 1.404 . S
C664 H647 0.940 . S
C664 C663 1.404 . S
C664 C665 1.389 . S
C665 H648 0.939 . S
C665 C660 1.400 . S
C665 C664 1.389 . S
C666 P640 1.819 . S
C666 C667 1.391 . S
C666 C671 1.391 . S
C667 H649 0.941 . S
C667 C666 1.391 . S
C667 C668 1.396 . S
C668 H652 0.939 . S
C668 C667 1.396 . S
C668 C669 1.397 . S
C669 C668 1.397 . S
C669 C670 1.385 . S
C670 H653 0.940 . S
C670 C669 1.385 . S
C670 C671 1.388 . S
C671 H650 0.939 . S
C671 C666 1.391 . S
C671 C670 1.388 . S
P672 O683 1.490 . S
P672 C686 1.812 . S
P672 C692 1.803 . S
P672 C698 1.819 . S
H673 C687 0.941 . S
H674 C688 0.939 . S
H675 C690 0.940 . S
H676 C691 0.940 . S
H677 C693 0.939 . S
H678 C694 0.942 . S
H679 C696 0.940 . S
H680 C697 0.939 . S
H681 C699 0.941 . S
H682 C703 0.939 . S
O683 P672 1.490 . S
H684 C700 0.939 . S
H685 C702 0.940 . S
C686 P672 1.812 . S
C686 C687 1.389 . S
C686 C691 1.391 . S
C687 H673 0.941 . S
C687 C686 1.389 . S
C687 C688 1.397 . S
C688 H674 0.939 . S
C688 C687 1.397 . S
C688 C689 1.378 . S
C689 C688 1.378 . S
C689 C690 1.378 . S
C690 H675 0.940 . S
C690 C689 1.378 . S
C690 C691 1.396 . S
C691 H676 0.940 . S
C691 C686 1.391 . S
C691 C690 1.396 . S
C692 P672 1.803 . S
C692 C693 1.378 . S
C692 C697 1.400 . S
C693 H677 0.939 . S
C693 C692 1.378 . S
C693 C694 1.361 . S
C694 H678 0.942 . S
C694 C693 1.361 . S
C694 C695 1.369 . S
C695 C694 1.369 . S
C695 C696 1.404 . S
C696 H679 0.940 . S
C696 C695 1.404 . S
C696 C697 1.389 . S
C697 H680 0.939 . S
C697 C692 1.400 . S
C697 C696 1.389 . S
C698 P672 1.819 . S
C698 C699 1.391 . S
C698 C703 1.391 . S
C699 H681 0.941 . S
C699 C698 1.391 . S
C699 C700 1.396 . S
C700 H684 0.939 . S
C700 C699 1.396 . S
C700 C701 1.397 . S
C701 C700 1.397 . S
C701 C702 1.385 . S
C702 H685 0.940 . S
C702 C701 1.385 . S
C702 C703 1.388 . S
C703 H682 0.939 . S
C703 C698 1.391 . S
C703 C702 1.388 . S
P704 O715 1.490 . S
P704 C718 1.812 . S
P704 C724 1.803 . S
P704 C730 1.819 . S
H705 C719 0.941 . S
H706 C720 0.939 . S
H707 C722 0.940 . S
H708 C723 0.940 . S
H709 C725 0.939 . S
H710 C726 0.942 . S
H711 C728 0.940 . S
H712 C729 0.939 . S
H713 C731 0.941 . S
H714 C735 0.939 . S
O715 P704 1.490 . S
H716 C732 0.939 . S
H717 C734 0.940 . S
C718 P704 1.812 . S
C718 C719 1.389 . S
C718 C723 1.391 . S
C719 H705 0.941 . S
C719 C718 1.389 . S
C719 C720 1.397 . S
C720 H706 0.939 . S
C720 C719 1.397 . S
C720 C721 1.378 . S
C721 C720 1.378 . S
C721 C722 1.378 . S
C722 H707 0.940 . S
C722 C721 1.378 . S
C722 C723 1.396 . S
C723 H708 0.940 . S
C723 C718 1.391 . S
C723 C722 1.396 . S
C724 P704 1.803 . S
C724 C725 1.378 . S
C724 C729 1.400 . S
C725 H709 0.939 . S
C725 C724 1.378 . S
C725 C726 1.361 . S
C726 H710 0.942 . S
C726 C725 1.361 . S
C726 C727 1.369 . S
C727 C726 1.369 . S
C727 C728 1.404 . S
C728 H711 0.940 . S
C728 C727 1.404 . S
C728 C729 1.389 . S
C729 H712 0.939 . S
C729 C724 1.400 . S
C729 C728 1.389 . S
C730 P704 1.819 . S
C730 C731 1.391 . S
C730 C735 1.391 . S
C731 H713 0.941 . S
C731 C730 1.391 . S
C731 C732 1.396 . S
C732 H716 0.939 . S
C732 C731 1.396 . S
C732 C733 1.397 . S
C733 C732 1.397 . S
C733 C734 1.385 . S
C734 H717 0.940 . S
C734 C733 1.385 . S
C734 C735 1.388 . S
C735 H714 0.939 . S
C735 C730 1.391 . S
C735 C734 1.388 . S
P736 O747 1.490 . S
P736 C750 1.812 . S
P736 C756 1.803 . S
P736 C762 1.819 . S
H737 C751 0.941 . S
H738 C752 0.939 . S
H739 C754 0.940 . S
H740 C755 0.940 . S
H741 C757 0.939 . S
H742 C758 0.942 . S
H743 C760 0.940 . S
H744 C761 0.939 . S
H745 C763 0.941 . S
H746 C767 0.939 . S
O747 P736 1.490 . S
H748 C764 0.939 . S
H749 C766 0.940 . S
C750 P736 1.812 . S
C750 C751 1.389 . S
C750 C755 1.391 . S
C751 H737 0.941 . S
C751 C750 1.389 . S
C751 C752 1.397 . S
C752 H738 0.939 . S
C752 C751 1.397 . S
C752 C753 1.378 . S
C753 C752 1.378 . S
C753 C754 1.378 . S
C754 H739 0.940 . S
C754 C753 1.378 . S
C754 C755 1.396 . S
C755 H740 0.940 . S
C755 C750 1.391 . S
C755 C754 1.396 . S
C756 P736 1.803 . S
C756 C757 1.378 . S
C756 C761 1.400 . S
C757 H741 0.939 . S
C757 C756 1.378 . S
C757 C758 1.361 . S
C758 H742 0.942 . S
C758 C757 1.361 . S
C758 C759 1.369 . S
C759 C758 1.369 . S
C759 C760 1.404 . S
C760 H743 0.940 . S
C760 C759 1.404 . S
C760 C761 1.389 . S
C761 H744 0.939 . S
C761 C756 1.400 . S
C761 C760 1.389 . S
C762 P736 1.819 . S
C762 C763 1.391 . S
C762 C767 1.391 . S
C763 H745 0.941 . S
C763 C762 1.391 . S
C763 C764 1.396 . S
C764 H748 0.939 . S
C764 C763 1.396 . S
C764 C765 1.397 . S
C765 C764 1.397 . S
C765 C766 1.385 . S
C766 H749 0.940 . S
C766 C765 1.385 . S
C766 C767 1.388 . S
C767 H746 0.939 . S
C767 C762 1.391 . S
C767 C766 1.388 . S
C768 O794 1.283 . S
C768 O812 1.283 . S
C769 O795 1.283 . S
C769 O810 1.283 . S
C770 O796 1.283 . S
C770 O813 1.283 . S
C771 O797 1.283 . S
C771 O811 1.283 . S
C772 O798 1.283 . S
C772 O807 1.283 . S
C773 O799 1.283 . S
C773 O809 1.283 . S
C774 O800 1.283 . S
C774 O806 1.283 . S
C775 O801 1.283 . S
C775 O808 1.283 . S
C776 O802 1.283 . S
C776 O817 1.283 . S
C777 O803 1.283 . S
C777 O815 1.283 . S
C778 O804 1.283 . S
C778 O816 1.283 . S
C779 O805 1.283 . S
C779 O814 1.283 . S
Eu780 O781 2.370 1_455 S
Eu780 O782 2.370 . S
Eu780 O785 2.370 1_455 S
Eu780 O786 2.370 . S
Eu780 O794 2.363 . S
Eu780 O795 2.363 . S
Eu780 O808 2.363 . S
Eu780 O809 2.363 1_455 S
O781 Eu780 2.370 1_655 S
O781 Eu783 2.351 1_565 S
O781 Eu788 2.351 1_665 S
O782 Eu780 2.370 . S
O782 Eu784 2.351 1_565 S
O782 Eu787 2.351 1_565 S
Eu783 O781 2.351 1_545 S
Eu783 O785 2.351 1_545 S
Eu783 O789 2.389 . S
Eu783 O790 2.389 . S
Eu783 O798 2.395 . S
Eu783 O799 2.331 1_545 S
Eu783 O814 2.363 . S
Eu783 O815 2.363 . S
Eu784 O782 2.351 1_545 S
Eu784 O786 2.351 1_545 S
Eu784 O791 2.390 . S
Eu784 O792 2.390 . S
Eu784 O800 2.396 . S
Eu784 O801 2.330 1_545 S
Eu784 O816 2.363 . S
Eu784 O817 2.363 . S
O785 Eu780 2.370 1_655 S
O785 Eu783 2.351 1_565 S
O785 Eu787 2.351 1_665 S
O786 Eu780 2.370 . S
O786 Eu784 2.351 1_565 S
O786 Eu788 2.351 1_565 S
Eu787 O782 2.351 1_545 S
Eu787 O785 2.351 1_445 S
Eu787 O789 2.390 1_455 S
Eu787 O792 2.390 . S
Eu787 O804 2.363 . S
Eu787 O805 2.363 1_455 S
Eu787 O812 2.330 1_545 S
Eu787 O813 2.396 . S
Eu788 O781 2.351 1_445 S
Eu788 O786 2.351 1_545 S
Eu788 O790 2.390 1_455 S
Eu788 O791 2.390 . S
Eu788 O802 2.363 . S
Eu788 O803 2.363 1_455 S
Eu788 O810 2.330 1_545 S
Eu788 O811 2.396 . S
O789 Eu783 2.389 . S
O789 Eu787 2.390 1_655 S
O789 Eu793 2.370 1_655 S
O790 Eu783 2.389 . S
O790 Eu788 2.390 1_655 S
O790 Eu793 2.370 1_655 S
O791 Eu784 2.390 . S
O791 Eu788 2.390 . S
O791 Eu793 2.370 . S
O792 Eu784 2.390 . S
O792 Eu787 2.390 . S
O792 Eu793 2.370 . S
Eu793 O789 2.370 1_455 S
Eu793 O790 2.370 1_455 S
Eu793 O791 2.370 . S
Eu793 O792 2.370 . S
Eu793 O796 2.363 . S
Eu793 O797 2.363 . S
Eu793 O806 2.363 . S
Eu793 O807 2.363 1_455 S
O794 C768 1.283 . S
O794 Eu780 2.363 . S
O795 C769 1.283 . S
O795 Eu780 2.363 . S
O796 C770 1.283 . S
O796 Eu793 2.363 . S
O797 C771 1.283 . S
O797 Eu793 2.363 . S
O798 C772 1.283 . S
O798 Eu783 2.395 . S
O799 C773 1.283 . S
O799 Eu783 2.331 1_565 S
O800 C774 1.283 . S
O800 Eu784 2.396 . S
O801 C775 1.283 . S
O801 Eu784 2.330 1_565 S
O802 C776 1.283 . S
O802 Eu788 2.363 . S
O803 C777 1.283 . S
O803 Eu788 2.363 1_655 S
O804 C778 1.283 . S
O804 Eu787 2.363 . S
O805 C779 1.283 . S
O805 Eu787 2.363 1_655 S
O806 C774 1.283 . S
O806 Eu793 2.363 . S
O807 C772 1.283 . S
O807 Eu793 2.363 1_655 S
O808 C775 1.283 . S
O808 Eu780 2.363 . S
O809 C773 1.283 . S
O809 Eu780 2.363 1_655 S
O810 C769 1.283 . S
O810 Eu788 2.330 1_565 S
O811 C771 1.283 . S
O811 Eu788 2.396 . S
O812 C768 1.283 . S
O812 Eu787 2.330 1_565 S
O813 C770 1.283 . S
O813 Eu787 2.396 . S
O814 C779 1.283 . S
O814 Eu783 2.363 . S
O815 C777 1.283 . S
O815 Eu783 2.363 . S
O816 C778 1.283 . S
O816 Eu784 2.363 . S
O817 C776 1.283 . S
O817 Eu784 2.363 . S
C818 O844 1.283 . S
C818 O862 1.283 . S
C819 O845 1.283 . S
C819 O860 1.283 . S
C820 O846 1.283 . S
C820 O863 1.283 . S
C821 O847 1.283 . S
C821 O861 1.283 . S
C822 O848 1.283 . S
C822 O857 1.283 . S
C823 O849 1.283 . S
C823 O859 1.283 . S
C824 O850 1.283 . S
C824 O856 1.283 . S
C825 O851 1.283 . S
C825 O858 1.283 . S
C826 O852 1.283 . S
C826 O867 1.283 . S
C827 O853 1.283 . S
C827 O865 1.283 . S
C828 O854 1.283 . S
C828 O866 1.283 . S
C829 O855 1.283 . S
C829 O864 1.283 . S
Eu830 O831 2.370 . S
Eu830 O832 2.370 1_545 S
Eu830 O835 2.370 1_545 S
Eu830 O836 2.370 . S
Eu830 O844 2.363 1_545 S
Eu830 O845 2.363 . S
Eu830 O858 2.363 . S
Eu830 O859 2.363 . S
O831 Eu830 2.370 . S
O831 Eu833 2.370 . S
O831 Eu838 2.370 . S
O832 Eu830 2.370 1_565 S
O832 Eu834 2.370 1_565 S
O832 Eu837 2.370 . S
Eu833 O831 2.370 . S
Eu833 O835 2.370 1_545 S
Eu833 O839 2.370 1_544 S
Eu833 O840 2.370 1_554 S
Eu833 O848 2.363 1_554 S
Eu833 O849 2.363 . S
Eu833 O864 2.363 1_545 S
Eu833 O865 2.363 . S
Eu834 O832 2.370 1_545 S
Eu834 O836 2.370 . S
Eu834 O841 2.370 1_554 S
Eu834 O842 2.370 1_544 S
Eu834 O850 2.363 1_554 S
Eu834 O851 2.363 . S
Eu834 O866 2.363 1_545 S
Eu834 O867 2.363 . S
O835 Eu830 2.370 1_565 S
O835 Eu833 2.370 1_565 S
O835 Eu837 2.370 . S
O836 Eu830 2.370 . S
O836 Eu834 2.370 . S
O836 Eu838 2.370 . S
Eu837 O832 2.370 . S
Eu837 O835 2.370 . S
Eu837 O839 2.370 1_554 S
Eu837 O842 2.370 1_554 S
Eu837 O854 2.363 . S
Eu837 O855 2.363 . S
Eu837 O862 2.363 . S
Eu837 O863 2.363 1_554 S
Eu838 O831 2.370 . S
Eu838 O836 2.370 . S
Eu838 O840 2.370 1_554 S
Eu838 O841 2.370 1_554 S
Eu838 O852 2.363 . S
Eu838 O853 2.363 . S
Eu838 O860 2.363 . S
Eu838 O861 2.363 1_554 S
O839 Eu833 2.370 1_566 S
O839 Eu837 2.370 1_556 S
O839 Eu843 2.370 1_565 S
O840 Eu833 2.370 1_556 S
O840 Eu838 2.370 1_556 S
O840 Eu843 2.370 . S
O841 Eu834 2.370 1_556 S
O841 Eu838 2.370 1_556 S
O841 Eu843 2.370 . S
O842 Eu834 2.370 1_566 S
O842 Eu837 2.370 1_556 S
O842 Eu843 2.370 1_565 S
Eu843 O839 2.370 1_545 S
Eu843 O840 2.370 . S
Eu843 O841 2.370 . S
Eu843 O842 2.370 1_545 S
Eu843 O846 2.363 1_545 S
Eu843 O847 2.363 . S
Eu843 O856 2.363 . S
Eu843 O857 2.363 . S
O844 C818 1.283 . S
O844 Eu830 2.363 1_565 S
O845 C819 1.283 . S
O845 Eu830 2.363 . S
O846 C820 1.283 . S
O846 Eu843 2.363 1_565 S
O847 C821 1.283 . S
O847 Eu843 2.363 . S
O848 C822 1.283 . S
O848 Eu833 2.363 1_556 S
O849 C823 1.283 . S
O849 Eu833 2.363 . S
O850 C824 1.283 . S
O850 Eu834 2.363 1_556 S
O851 C825 1.283 . S
O851 Eu834 2.363 . S
O852 C826 1.283 . S
O852 Eu838 2.363 . S
O853 C827 1.283 . S
O853 Eu838 2.363 . S
O854 C828 1.283 . S
O854 Eu837 2.363 . S
O855 C829 1.283 . S
O855 Eu837 2.363 . S
O856 C824 1.283 . S
O856 Eu843 2.363 . S
O857 C822 1.283 . S
O857 Eu843 2.363 . S
O858 C825 1.283 . S
O858 Eu830 2.363 . S
O859 C823 1.283 . S
O859 Eu830 2.363 . S
O860 C819 1.283 . S
O860 Eu838 2.363 . S
O861 C821 1.283 . S
O861 Eu838 2.363 1_556 S
O862 C818 1.283 . S
O862 Eu837 2.363 . S
O863 C820 1.283 . S
O863 Eu837 2.363 1_556 S
O864 C829 1.283 . S
O864 Eu833 2.363 1_565 S
O865 C827 1.283 . S
O865 Eu833 2.363 . S
O866 C828 1.283 . S
O866 Eu834 2.363 1_565 S
O867 C826 1.283 . S
O867 Eu834 2.363 . S
C868 O894 1.283 . S
C868 O912 1.283 . S
C869 O895 1.283 . S
C869 O910 1.283 . S
C870 O896 1.283 . S
C870 O913 1.283 . S
C871 O897 1.283 . S
C871 O911 1.283 . S
C872 O898 1.283 . S
C872 O907 1.283 . S
C873 O899 1.283 . S
C873 O909 1.283 . S
C874 O900 1.283 . S
C874 O906 1.283 . S
C875 O901 1.283 . S
C875 O908 1.283 . S
C876 O902 1.283 . S
C876 O917 1.283 . S
C877 O903 1.283 . S
C877 O915 1.283 . S
C878 O904 1.283 . S
C878 O916 1.283 . S
C879 O905 1.283 . S
C879 O914 1.283 . S
Eu880 O881 2.360 1_454 S
Eu880 O882 2.380 . S
Eu880 O885 2.380 1_455 S
Eu880 O886 2.360 1_554 S
Eu880 O894 2.380 . S
Eu880 O895 2.346 1_554 S
Eu880 O908 2.363 . S
Eu880 O909 2.363 1_455 S
O881 Eu880 2.360 1_656 S
O881 Eu883 2.360 1_556 S
O881 Eu888 2.370 1_655 S
O882 Eu880 2.380 . S
O882 Eu884 2.380 . S
O882 Eu887 2.370 . S
Eu883 O881 2.360 1_554 S
Eu883 O885 2.380 . S
Eu883 O889 2.380 . S
Eu883 O890 2.360 1_554 S
Eu883 O898 2.363 . S
Eu883 O899 2.363 . S
Eu883 O914 2.379 . S
Eu883 O915 2.346 1_554 S
Eu884 O882 2.380 . S
Eu884 O886 2.360 1_554 S
Eu884 O891 2.360 1_554 S
Eu884 O892 2.380 . S
Eu884 O900 2.363 . S
Eu884 O901 2.363 . S
Eu884 O916 2.380 . S
Eu884 O917 2.346 1_554 S
O885 Eu880 2.380 1_655 S
O885 Eu883 2.380 . S
O885 Eu887 2.370 1_655 S
O886 Eu880 2.360 1_556 S
O886 Eu884 2.360 1_556 S
O886 Eu888 2.370 . S
Eu887 O882 2.370 . S
Eu887 O885 2.370 1_455 S
Eu887 O889 2.370 1_455 S
Eu887 O892 2.370 . S
Eu887 O904 2.363 . S
Eu887 O905 2.363 1_455 S
Eu887 O912 2.363 . S
Eu887 O913 2.363 . S
Eu888 O881 2.370 1_455 S
Eu888 O886 2.370 . S
Eu888 O890 2.370 1_455 S
Eu888 O891 2.370 . S
Eu888 O902 2.363 . S
Eu888 O903 2.363 1_455 S
Eu888 O910 2.363 . S
Eu888 O911 2.363 . S
O889 Eu883 2.380 . S
O889 Eu887 2.370 1_655 S
O889 Eu893 2.380 1_655 S
O890 Eu883 2.360 1_556 S
O890 Eu888 2.370 1_655 S
O890 Eu893 2.360 1_656 S
O891 Eu884 2.360 1_556 S
O891 Eu888 2.370 . S
O891 Eu893 2.360 1_556 S
O892 Eu884 2.380 . S
O892 Eu887 2.370 . S
O892 Eu893 2.380 . S
Eu893 O889 2.380 1_455 S
Eu893 O890 2.360 1_454 S
Eu893 O891 2.360 1_554 S
Eu893 O892 2.380 . S
Eu893 O896 2.380 . S
Eu893 O897 2.346 1_554 S
Eu893 O906 2.363 . S
Eu893 O907 2.363 1_455 S
O894 C868 1.283 . S
O894 Eu880 2.380 . S
O895 C869 1.283 . S
O895 Eu880 2.346 1_556 S
O896 C870 1.283 . S
O896 Eu893 2.380 . S
O897 C871 1.283 . S
O897 Eu893 2.346 1_556 S
O898 C872 1.283 . S
O898 Eu883 2.363 . S
O899 C873 1.283 . S
O899 Eu883 2.363 . S
O900 C874 1.283 . S
O900 Eu884 2.363 . S
O901 C875 1.283 . S
O901 Eu884 2.363 . S
O902 C876 1.283 . S
O902 Eu888 2.363 . S
O903 C877 1.283 . S
O903 Eu888 2.363 1_655 S
O904 C878 1.283 . S
O904 Eu887 2.363 . S
O905 C879 1.283 . S
O905 Eu887 2.363 1_655 S
O906 C874 1.283 . S
O906 Eu893 2.363 . S
O907 C872 1.283 . S
O907 Eu893 2.363 1_655 S
O908 C875 1.283 . S
O908 Eu880 2.363 . S
O909 C873 1.283 . S
O909 Eu880 2.363 1_655 S
O910 C869 1.283 . S
O910 Eu888 2.363 . S
O911 C871 1.283 . S
O911 Eu888 2.363 . S
O912 C868 1.283 . S
O912 Eu887 2.363 . S
O913 C870 1.283 . S
O913 Eu887 2.363 . S
O914 C879 1.283 . S
O914 Eu883 2.379 . S
O915 C877 1.283 . S
O915 Eu883 2.346 1_556 S
O916 C878 1.283 . S
O916 Eu884 2.380 . S
O917 C876 1.283 . S
O917 Eu884 2.346 1_556 S
C918 O944 1.283 . S
C918 O962 1.283 . S
C919 O945 1.283 . S
C919 O960 1.283 . S
C920 O946 1.283 . S
C920 O963 1.283 . S
C921 O947 1.283 . S
C921 O961 1.283 . S
C922 O948 1.283 . S
C922 O957 1.283 . S
C923 O949 1.283 . S
C923 O959 1.283 . S
C924 O950 1.283 . S
C924 O956 1.283 . S
C925 O951 1.283 . S
C925 O958 1.283 . S
C926 O952 1.283 . S
C926 O967 1.283 . S
C927 O953 1.283 . S
C927 O965 1.283 . S
C928 O954 1.283 . S
C928 O966 1.283 . S
C929 O955 1.283 . S
C929 O964 1.283 . S
Eu930 O931 2.370 . S
Eu930 O932 2.370 . S
Eu930 O935 2.370 . S
Eu930 O936 2.370 . S
Eu930 O944 2.363 . S
Eu930 O945 2.363 . S
Eu930 O958 2.363 . S
Eu930 O959 2.363 . S
O931 Eu930 2.370 . S
O931 Eu933 2.382 . S
O931 Eu938 2.382 . S
O932 Eu930 2.370 . S
O932 Eu934 2.382 . S
O932 Eu937 2.382 . S
Eu933 O931 2.382 . S
Eu933 O935 2.382 . S
Eu933 O939 2.358 1_554 S
Eu933 O940 2.358 1_554 S
Eu933 O948 2.342 1_554 S
Eu933 O949 2.384 . S
Eu933 O964 2.363 . S
Eu933 O965 2.363 . S
Eu934 O932 2.382 . S
Eu934 O936 2.382 . S
Eu934 O941 2.358 1_554 S
Eu934 O942 2.358 1_554 S
Eu934 O950 2.342 1_554 S
Eu934 O951 2.384 . S
Eu934 O966 2.363 . S
Eu934 O967 2.363 . S
O935 Eu930 2.370 . S
O935 Eu933 2.382 . S
O935 Eu937 2.382 . S
O936 Eu930 2.370 . S
O936 Eu934 2.382 . S
O936 Eu938 2.382 . S
Eu937 O932 2.382 . S
Eu937 O935 2.382 . S
Eu937 O939 2.358 1_554 S
Eu937 O942 2.358 1_554 S
Eu937 O954 2.363 . S
Eu937 O955 2.363 . S
Eu937 O962 2.384 . S
Eu937 O963 2.342 1_554 S
Eu938 O931 2.382 . S
Eu938 O936 2.382 . S
Eu938 O940 2.358 1_554 S
Eu938 O941 2.358 1_554 S
Eu938 O952 2.363 . S
Eu938 O953 2.363 . S
Eu938 O960 2.384 . S
Eu938 O961 2.342 1_554 S
O939 Eu933 2.358 1_556 S
O939 Eu937 2.358 1_556 S
O939 Eu943 2.370 . S
O940 Eu933 2.358 1_556 S
O940 Eu938 2.358 1_556 S
O940 Eu943 2.370 . S
O941 Eu934 2.358 1_556 S
O941 Eu938 2.358 1_556 S
O941 Eu943 2.370 . S
O942 Eu934 2.358 1_556 S
O942 Eu937 2.358 1_556 S
O942 Eu943 2.370 . S
Eu943 O939 2.370 . S
Eu943 O940 2.370 . S
Eu943 O941 2.370 . S
Eu943 O942 2.370 . S
Eu943 O946 2.363 . S
Eu943 O947 2.363 . S
Eu943 O956 2.363 . S
Eu943 O957 2.363 . S
O944 C918 1.283 . S
O944 Eu930 2.363 . S
O945 C919 1.283 . S
O945 Eu930 2.363 . S
O946 C920 1.283 . S
O946 Eu943 2.363 . S
O947 C921 1.283 . S
O947 Eu943 2.363 . S
O948 C922 1.283 . S
O948 Eu933 2.342 1_556 S
O949 C923 1.283 . S
O949 Eu933 2.384 . S
O950 C924 1.283 . S
O950 Eu934 2.342 1_556 S
O951 C925 1.283 . S
O951 Eu934 2.384 . S
O952 C926 1.283 . S
O952 Eu938 2.363 . S
O953 C927 1.283 . S
O953 Eu938 2.363 . S
O954 C928 1.283 . S
O954 Eu937 2.363 . S
O955 C929 1.283 . S
O955 Eu937 2.363 . S
O956 C924 1.283 . S
O956 Eu943 2.363 . S
O957 C922 1.283 . S
O957 Eu943 2.363 . S
O958 C925 1.283 . S
O958 Eu930 2.363 . S
O959 C923 1.283 . S
O959 Eu930 2.363 . S
O960 C919 1.283 . S
O960 Eu938 2.384 . S
O961 C921 1.283 . S
O961 Eu938 2.342 1_556 S
O962 C918 1.283 . S
O962 Eu937 2.384 . S
O963 C920 1.283 . S
O963 Eu937 2.342 1_556 S
O964 C929 1.283 . S
O964 Eu933 2.363 . S
O965 C927 1.283 . S
O965 Eu933 2.363 . S
O966 C928 1.283 . S
O966 Eu934 2.363 . S
O967 C926 1.283 . S
O967 Eu934 2.363 . S
C968 O994 1.283 . S
C968 O1012 1.283 . S
C969 O995 1.283 . S
C969 O1010 1.283 . S
C970 O996 1.283 . S
C970 O1013 1.283 . S
C971 O997 1.283 . S
C971 O1011 1.283 . S
C972 O998 1.283 . S
C972 O1007 1.283 . S
C973 O999 1.283 . S
C973 O1009 1.283 . S
C974 O1000 1.283 . S
C974 O1006 1.283 . S
C975 O1001 1.283 . S
C975 O1008 1.283 . S
C976 O1002 1.283 . S
C976 O1017 1.283 . S
C977 O1003 1.283 . S
C977 O1015 1.283 . S
C978 O1004 1.283 . S
C978 O1016 1.283 . S
C979 O1005 1.283 . S
C979 O1014 1.283 . S
Eu980 O981 2.370 1_455 S
Eu980 O982 2.370 . S
Eu980 O985 2.370 1_455 S
Eu980 O986 2.370 . S
Eu980 O994 2.363 . S
Eu980 O995 2.363 . S
Eu980 O1008 2.363 . S
Eu980 O1009 2.363 1_455 S
O981 Eu980 2.370 1_655 S
O981 Eu983 2.370 . S
O981 Eu988 2.370 1_655 S
O982 Eu980 2.370 . S
O982 Eu984 2.370 . S
O982 Eu987 2.370 . S
Eu983 O981 2.370 . S
Eu983 O985 2.370 . S
Eu983 O989 2.370 . S
Eu983 O990 2.370 . S
Eu983 O998 2.363 . S
Eu983 O999 2.363 . S
Eu983 O1014 2.363 . S
Eu983 O1015 2.363 . S
Eu984 O982 2.370 . S
Eu984 O986 2.370 . S
Eu984 O991 2.370 . S
Eu984 O992 2.370 . S
Eu984 O1000 2.363 . S
Eu984 O1001 2.363 . S
Eu984 O1016 2.363 . S
Eu984 O1017 2.363 . S
O985 Eu980 2.370 1_655 S
O985 Eu983 2.370 . S
O985 Eu987 2.370 1_655 S
O986 Eu980 2.370 . S
O986 Eu984 2.370 . S
O986 Eu988 2.370 . S
Eu987 O982 2.370 . S
Eu987 O985 2.370 1_455 S
Eu987 O989 2.370 1_455 S
Eu987 O992 2.370 . S
Eu987 O1004 2.363 . S
Eu987 O1005 2.363 1_455 S
Eu987 O1012 2.363 . S
Eu987 O1013 2.363 . S
Eu988 O981 2.370 1_455 S
Eu988 O986 2.370 . S
Eu988 O990 2.370 1_455 S
Eu988 O991 2.370 . S
Eu988 O1002 2.363 . S
Eu988 O1003 2.363 1_455 S
Eu988 O1010 2.363 . S
Eu988 O1011 2.363 . S
O989 Eu983 2.370 . S
O989 Eu987 2.370 1_655 S
O989 Eu993 2.370 1_655 S
O990 Eu983 2.370 . S
O990 Eu988 2.370 1_655 S
O990 Eu993 2.370 1_655 S
O991 Eu984 2.370 . S
O991 Eu988 2.370 . S
O991 Eu993 2.370 . S
O992 Eu984 2.370 . S
O992 Eu987 2.370 . S
O992 Eu993 2.370 . S
Eu993 O989 2.370 1_455 S
Eu993 O990 2.370 1_455 S
Eu993 O991 2.370 . S
Eu993 O992 2.370 . S
Eu993 O996 2.363 . S
Eu993 O997 2.363 . S
Eu993 O1006 2.363 . S
Eu993 O1007 2.363 1_455 S
O994 C968 1.283 . S
O994 Eu980 2.363 . S
O995 C969 1.283 . S
O995 Eu980 2.363 . S
O996 C970 1.283 . S
O996 Eu993 2.363 . S
O997 C971 1.283 . S
O997 Eu993 2.363 . S
O998 C972 1.283 . S
O998 Eu983 2.363 . S
O999 C973 1.283 . S
O999 Eu983 2.363 . S
O1000 C974 1.283 . S
O1000 Eu984 2.363 . S
O1001 C975 1.283 . S
O1001 Eu984 2.363 . S
O1002 C976 1.283 . S
O1002 Eu988 2.363 . S
O1003 C977 1.283 . S
O1003 Eu988 2.363 1_655 S
O1004 C978 1.283 . S
O1004 Eu987 2.363 . S
O1005 C979 1.283 . S
O1005 Eu987 2.363 1_655 S
O1006 C974 1.283 . S
O1006 Eu993 2.363 . S
O1007 C972 1.283 . S
O1007 Eu993 2.363 1_655 S
O1008 C975 1.283 . S
O1008 Eu980 2.363 . S
O1009 C973 1.283 . S
O1009 Eu980 2.363 1_655 S
O1010 C969 1.283 . S
O1010 Eu988 2.363 . S
O1011 C971 1.283 . S
O1011 Eu988 2.363 . S
O1012 C968 1.283 . S
O1012 Eu987 2.363 . S
O1013 C970 1.283 . S
O1013 Eu987 2.363 . S
O1014 C979 1.283 . S
O1014 Eu983 2.363 . S
O1015 C977 1.283 . S
O1015 Eu983 2.363 . S
O1016 C978 1.283 . S
O1016 Eu984 2.363 . S
O1017 C976 1.283 . S
O1017 Eu984 2.363 . S
C1018 O1044 1.283 . S
C1018 O1062 1.283 . S
C1019 O1045 1.283 . S
C1019 O1060 1.283 . S
C1020 O1046 1.283 . S
C1020 O1063 1.283 . S
C1021 O1047 1.283 . S
C1021 O1061 1.283 . S
C1022 O1048 1.283 . S
C1022 O1057 1.283 . S
C1023 O1049 1.283 . S
C1023 O1059 1.283 . S
C1024 O1050 1.283 . S
C1024 O1056 1.283 . S
C1025 O1051 1.283 . S
C1025 O1058 1.283 . S
C1026 O1052 1.283 . S
C1026 O1067 1.283 . S
C1027 O1053 1.283 . S
C1027 O1065 1.283 . S
C1028 O1054 1.283 . S
C1028 O1066 1.283 . S
C1029 O1055 1.283 . S
C1029 O1064 1.283 . S
Eu1030 O1031 2.370 . S
Eu1030 O1032 2.370 . S
Eu1030 O1035 2.370 . S
Eu1030 O1036 2.370 . S
Eu1030 O1044 2.363 . S
Eu1030 O1045 2.363 . S
Eu1030 O1058 2.363 . S
Eu1030 O1059 2.363 . S
O1031 Eu1030 2.370 . S
O1031 Eu1033 2.340 1_565 S
O1031 Eu1038 2.340 1_565 S
O1032 Eu1030 2.370 . S
O1032 Eu1034 2.340 1_565 S
O1032 Eu1037 2.340 1_565 S
Eu1033 O1031 2.340 1_545 S
Eu1033 O1035 2.340 1_545 S
Eu1033 O1039 2.401 . S
Eu1033 O1040 2.401 . S
Eu1033 O1048 2.415 . S
Eu1033 O1049 2.311 1_545 S
Eu1033 O1064 2.363 . S
Eu1033 O1065 2.363 . S
Eu1034 O1032 2.340 1_545 S
Eu1034 O1036 2.340 1_545 S
Eu1034 O1041 2.401 . S
Eu1034 O1042 2.401 . S
Eu1034 O1050 2.415 . S
Eu1034 O1051 2.311 1_545 S
Eu1034 O1066 2.363 . S
Eu1034 O1067 2.363 . S
O1035 Eu1030 2.370 . S
O1035 Eu1033 2.340 1_565 S
O1035 Eu1037 2.340 1_565 S
O1036 Eu1030 2.370 . S
O1036 Eu1034 2.340 1_565 S
O1036 Eu1038 2.340 1_565 S
Eu1037 O1032 2.340 1_545 S
Eu1037 O1035 2.340 1_545 S
Eu1037 O1039 2.401 . S
Eu1037 O1042 2.401 . S
Eu1037 O1054 2.363 . S
Eu1037 O1055 2.363 . S
Eu1037 O1062 2.311 1_545 S
Eu1037 O1063 2.415 . S
Eu1038 O1031 2.340 1_545 S
Eu1038 O1036 2.340 1_545 S
Eu1038 O1040 2.401 . S
Eu1038 O1041 2.401 . S
Eu1038 O1052 2.363 . S
Eu1038 O1053 2.363 . S
Eu1038 O1060 2.311 1_545 S
Eu1038 O1061 2.415 . S
O1039 Eu1033 2.401 . S
O1039 Eu1037 2.401 . S
O1039 Eu1043 2.370 . S
O1040 Eu1033 2.401 . S
O1040 Eu1038 2.401 . S
O1040 Eu1043 2.370 . S
O1041 Eu1034 2.401 . S
O1041 Eu1038 2.401 . S
O1041 Eu1043 2.370 . S
O1042 Eu1034 2.401 . S
O1042 Eu1037 2.401 . S
O1042 Eu1043 2.370 . S
Eu1043 O1039 2.370 . S
Eu1043 O1040 2.370 . S
Eu1043 O1041 2.370 . S
Eu1043 O1042 2.370 . S
Eu1043 O1046 2.363 . S
Eu1043 O1047 2.363 . S
Eu1043 O1056 2.363 . S
Eu1043 O1057 2.363 . S
O1044 C1018 1.283 . S
O1044 Eu1030 2.363 . S
O1045 C1019 1.283 . S
O1045 Eu1030 2.363 . S
O1046 C1020 1.283 . S
O1046 Eu1043 2.363 . S
O1047 C1021 1.283 . S
O1047 Eu1043 2.363 . S
O1048 C1022 1.283 . S
O1048 Eu1033 2.415 . S
O1049 C1023 1.283 . S
O1049 Eu1033 2.311 1_565 S
O1050 C1024 1.283 . S
O1050 Eu1034 2.415 . S
O1051 C1025 1.283 . S
O1051 Eu1034 2.311 1_565 S
O1052 C1026 1.283 . S
O1052 Eu1038 2.363 . S
O1053 C1027 1.283 . S
O1053 Eu1038 2.363 . S
O1054 C1028 1.283 . S
O1054 Eu1037 2.363 . S
O1055 C1029 1.283 . S
O1055 Eu1037 2.363 . S
O1056 C1024 1.283 . S
O1056 Eu1043 2.363 . S
O1057 C1022 1.283 . S
O1057 Eu1043 2.363 . S
O1058 C1025 1.283 . S
O1058 Eu1030 2.363 . S
O1059 C1023 1.283 . S
O1059 Eu1030 2.363 . S
O1060 C1019 1.283 . S
O1060 Eu1038 2.311 1_565 S
O1061 C1021 1.283 . S
O1061 Eu1038 2.415 . S
O1062 C1018 1.283 . S
O1062 Eu1037 2.311 1_565 S
O1063 C1020 1.283 . S
O1063 Eu1037 2.415 . S
O1064 C1029 1.283 . S
O1064 Eu1033 2.363 . S
O1065 C1027 1.283 . S
O1065 Eu1033 2.363 . S
O1066 C1028 1.283 . S
O1066 Eu1034 2.363 . S
O1067 C1026 1.283 . S
O1067 Eu1034 2.363 . S
C1068 C1069 1.349 . S
C1068 C1070 1.327 . S
C1068 H1093 0.950 . S
C1069 C1068 1.349 . S
C1069 C1085 1.349 . S
C1070 C1068 1.327 . S
C1070 C1089 1.429 . S
C1070 H1094 0.950 . S
C1071 C1088 1.574 . S
C1071 C1090 1.368 . S
C1071 H1095 0.949 . S
H1072 C1076 0.949 . S
C1073 C1074 1.349 . S
C1073 C1075 1.327 . S
C1073 H1096 0.950 . S
C1074 C1073 1.349 . S
C1074 C1086 1.349 . S
C1075 C1073 1.327 . S
C1075 C1091 1.429 . S
C1075 H1097 0.950 . S
C1076 H1072 0.949 . S
C1076 C1084 1.574 . S
C1076 C1092 1.368 . S
H1077 C1085 0.950 . S
H1078 C1083 0.950 . S
H1079 C1084 0.949 . S
H1080 C1086 0.950 . S
H1081 C1087 0.950 . S
H1082 C1088 0.949 . S
C1083 H1078 0.950 . S
C1083 C1085 1.327 . S
C1083 C1089 1.429 . S
C1084 C1076 1.574 . S
C1084 H1079 0.949 . S
C1084 C1090 1.368 . S
C1085 C1069 1.349 . S
C1085 H1077 0.950 . S
C1085 C1083 1.327 . S
C1086 C1074 1.349 . S
C1086 H1080 0.950 . S
C1086 C1087 1.327 . S
C1087 H1081 0.950 . S
C1087 C1086 1.327 . S
C1087 C1091 1.429 . S
C1088 C1071 1.574 . S
C1088 H1082 0.949 . S
C1088 C1092 1.368 . S
C1089 C1070 1.429 . S
C1089 C1083 1.429 . S
C1089 C1090 1.523 . S
C1090 C1071 1.368 . S
C1090 C1084 1.368 . S
C1090 C1089 1.523 . S
C1091 C1075 1.429 . S
C1091 C1087 1.429 . S
C1091 C1092 1.523 . S
C1092 C1076 1.368 . S
C1092 C1088 1.368 . S
C1092 C1091 1.523 . S
H1093 C1068 0.950 . S
H1094 C1070 0.950 . S
H1095 C1071 0.949 . S
H1096 C1073 0.950 . S
H1097 C1075 0.950 . S
C1098 C1099 1.349 . S
C1098 C1100 1.327 . S
C1098 H1123 0.950 . S
C1099 C1098 1.349 . S
C1099 C1115 1.349 . S
C1100 C1098 1.327 . S
C1100 C1119 1.429 . S
C1100 H1124 0.950 . S
C1101 C1118 1.574 . S
C1101 C1120 1.368 . S
C1101 H1125 0.949 . S
H1102 C1106 0.949 . S
C1103 C1104 1.349 . S
C1103 C1105 1.327 . S
C1103 H1126 0.950 . S
C1104 C1103 1.349 . S
C1104 C1116 1.349 . S
C1105 C1103 1.327 . S
C1105 C1121 1.429 . S
C1105 H1127 0.950 . S
C1106 H1102 0.949 . S
C1106 C1114 1.574 . S
C1106 C1122 1.368 . S
H1107 C1115 0.950 . S
H1108 C1113 0.950 . S
H1109 C1114 0.949 . S
H1110 C1116 0.950 . S
H1111 C1117 0.950 . S
H1112 C1118 0.949 . S
C1113 H1108 0.950 . S
C1113 C1115 1.327 . S
C1113 C1119 1.429 . S
C1114 C1106 1.574 . S
C1114 H1109 0.949 . S
C1114 C1120 1.368 . S
C1115 C1099 1.349 . S
C1115 H1107 0.950 . S
C1115 C1113 1.327 . S
C1116 C1104 1.349 . S
C1116 H1110 0.950 . S
C1116 C1117 1.327 . S
C1117 H1111 0.950 . S
C1117 C1116 1.327 . S
C1117 C1121 1.429 . S
C1118 C1101 1.574 . S
C1118 H1112 0.949 . S
C1118 C1122 1.368 . S
C1119 C1100 1.429 . S
C1119 C1113 1.429 . S
C1119 C1120 1.523 . S
C1120 C1101 1.368 . S
C1120 C1114 1.368 . S
C1120 C1119 1.523 . S
C1121 C1105 1.429 . S
C1121 C1117 1.429 . S
C1121 C1122 1.523 . S
C1122 C1106 1.368 . S
C1122 C1118 1.368 . S
C1122 C1121 1.523 . S
H1123 C1098 0.950 . S
H1124 C1100 0.950 . S
H1125 C1101 0.949 . S
H1126 C1103 0.950 . S
H1127 C1105 0.950 . S
C1128 C1129 1.349 . S
C1128 C1130 1.327 . S
C1128 H1153 0.950 . S
C1129 C1128 1.349 . S
C1129 C1145 1.349 . S
C1130 C1128 1.327 . S
C1130 C1149 1.429 . S
C1130 H1154 0.950 . S
C1131 C1148 1.574 . S
C1131 C1150 1.368 . S
C1131 H1155 0.949 . S
H1132 C1136 0.949 . S
C1133 C1134 1.349 . S
C1133 C1135 1.327 . S
C1133 H1156 0.950 . S
C1134 C1133 1.349 . S
C1134 C1146 1.349 . S
C1135 C1133 1.327 . S
C1135 C1151 1.429 . S
C1135 H1157 0.950 . S
C1136 H1132 0.949 . S
C1136 C1144 1.574 . S
C1136 C1152 1.368 . S
H1137 C1145 0.950 . S
H1138 C1143 0.950 . S
H1139 C1144 0.949 . S
H1140 C1146 0.950 . S
H1141 C1147 0.950 . S
H1142 C1148 0.949 . S
C1143 H1138 0.950 . S
C1143 C1145 1.327 . S
C1143 C1149 1.429 . S
C1144 C1136 1.574 . S
C1144 H1139 0.949 . S
C1144 C1150 1.368 . S
C1145 C1129 1.349 . S
C1145 H1137 0.950 . S
C1145 C1143 1.327 . S
C1146 C1134 1.349 . S
C1146 H1140 0.950 . S
C1146 C1147 1.327 . S
C1147 H1141 0.950 . S
C1147 C1146 1.327 . S
C1147 C1151 1.429 . S
C1148 C1131 1.574 . S
C1148 H1142 0.949 . S
C1148 C1152 1.368 . S
C1149 C1130 1.429 . S
C1149 C1143 1.429 . S
C1149 C1150 1.523 . S
C1150 C1131 1.368 . S
C1150 C1144 1.368 . S
C1150 C1149 1.523 . S
C1151 C1135 1.429 . S
C1151 C1147 1.429 . S
C1151 C1152 1.523 . S
C1152 C1136 1.368 . S
C1152 C1148 1.368 . S
C1152 C1151 1.523 . S
H1153 C1128 0.950 . S
H1154 C1130 0.950 . S
H1155 C1131 0.949 . S
H1156 C1133 0.950 . S
H1157 C1135 0.950 . S
C1158 C1159 1.349 . S
C1158 C1160 1.327 . S
C1158 H1183 0.950 . S
C1159 C1158 1.349 . S
C1159 C1175 1.349 . S
C1160 C1158 1.327 . S
C1160 C1179 1.429 . S
C1160 H1184 0.950 . S
C1161 C1178 1.574 . S
C1161 C1180 1.368 . S
C1161 H1185 0.949 . S
H1162 C1166 0.949 . S
C1163 C1164 1.349 . S
C1163 C1165 1.327 . S
C1163 H1186 0.950 . S
C1164 C1163 1.349 . S
C1164 C1176 1.349 . S
C1165 C1163 1.327 . S
C1165 C1181 1.429 . S
C1165 H1187 0.950 . S
C1166 H1162 0.949 . S
C1166 C1174 1.574 . S
C1166 C1182 1.368 . S
H1167 C1175 0.950 . S
H1168 C1173 0.950 . S
H1169 C1174 0.949 . S
H1170 C1176 0.950 . S
H1171 C1177 0.950 . S
H1172 C1178 0.949 . S
C1173 H1168 0.950 . S
C1173 C1175 1.327 . S
C1173 C1179 1.429 . S
C1174 C1166 1.574 . S
C1174 H1169 0.949 . S
C1174 C1180 1.368 . S
C1175 C1159 1.349 . S
C1175 H1167 0.950 . S
C1175 C1173 1.327 . S
C1176 C1164 1.349 . S
C1176 H1170 0.950 . S
C1176 C1177 1.327 . S
C1177 H1171 0.950 . S
C1177 C1176 1.327 . S
C1177 C1181 1.429 . S
C1178 C1161 1.574 . S
C1178 H1172 0.949 . S
C1178 C1182 1.368 . S
C1179 C1160 1.429 . S
C1179 C1173 1.429 . S
C1179 C1180 1.523 . S
C1180 C1161 1.368 . S
C1180 C1174 1.368 . S
C1180 C1179 1.523 . S
C1181 C1165 1.429 . S
C1181 C1177 1.429 . S
C1181 C1182 1.523 . S
C1182 C1166 1.368 . S
C1182 C1178 1.368 . S
C1182 C1181 1.523 . S
H1183 C1158 0.950 . S
H1184 C1160 0.950 . S
H1185 C1161 0.949 . S
H1186 C1163 0.950 . S
H1187 C1165 0.950 . S
C1188 C1189 1.349 . S
C1188 C1190 1.327 . S
C1188 H1213 0.950 . S
C1189 C1188 1.349 . S
C1189 C1205 1.349 . S
C1190 C1188 1.327 . S
C1190 C1209 1.429 . S
C1190 H1214 0.950 . S
C1191 C1208 1.574 . S
C1191 C1210 1.368 . S
C1191 H1215 0.949 . S
H1192 C1196 0.949 . S
C1193 C1194 1.349 . S
C1193 C1195 1.327 . S
C1193 H1216 0.950 . S
C1194 C1193 1.349 . S
C1194 C1206 1.349 . S
C1195 C1193 1.327 . S
C1195 C1211 1.429 . S
C1195 H1217 0.950 . S
C1196 H1192 0.949 . S
C1196 C1204 1.574 . S
C1196 C1212 1.368 . S
H1197 C1205 0.950 . S
H1198 C1203 0.950 . S
H1199 C1204 0.949 . S
H1200 C1206 0.950 . S
H1201 C1207 0.950 . S
H1202 C1208 0.949 . S
C1203 H1198 0.950 . S
C1203 C1205 1.327 . S
C1203 C1209 1.429 . S
C1204 C1196 1.574 . S
C1204 H1199 0.949 . S
C1204 C1210 1.368 . S
C1205 C1189 1.349 . S
C1205 H1197 0.950 . S
C1205 C1203 1.327 . S
C1206 C1194 1.349 . S
C1206 H1200 0.950 . S
C1206 C1207 1.327 . S
C1207 H1201 0.950 . S
C1207 C1206 1.327 . S
C1207 C1211 1.429 . S
C1208 C1191 1.574 . S
C1208 H1202 0.949 . S
C1208 C1212 1.368 . S
C1209 C1190 1.429 . S
C1209 C1203 1.429 . S
C1209 C1210 1.523 . S
C1210 C1191 1.368 . S
C1210 C1204 1.368 . S
C1210 C1209 1.523 . S
C1211 C1195 1.429 . S
C1211 C1207 1.429 . S
C1211 C1212 1.523 . S
C1212 C1196 1.368 . S
C1212 C1208 1.368 . S
C1212 C1211 1.523 . S
H1213 C1188 0.950 . S
H1214 C1190 0.950 . S
H1215 C1191 0.949 . S
H1216 C1193 0.950 . S
H1217 C1195 0.950 . S
C1218 C1219 1.349 . S
C1218 C1220 1.327 . S
C1218 H1243 0.950 . S
C1219 C1218 1.349 . S
C1219 C1235 1.349 . S
C1220 C1218 1.327 . S
C1220 C1239 1.429 . S
C1220 H1244 0.950 . S
C1221 C1238 1.574 . S
C1221 C1240 1.368 . S
C1221 H1245 0.949 . S
H1222 C1226 0.949 . S
C1223 C1224 1.349 . S
C1223 C1225 1.327 . S
C1223 H1246 0.950 . S
C1224 C1223 1.349 . S
C1224 C1236 1.349 . S
C1225 C1223 1.327 . S
C1225 C1241 1.429 . S
C1225 H1247 0.950 . S
C1226 H1222 0.949 . S
C1226 C1234 1.574 . S
C1226 C1242 1.368 . S
H1227 C1235 0.950 . S
H1228 C1233 0.950 . S
H1229 C1234 0.949 . S
H1230 C1236 0.950 . S
H1231 C1237 0.950 . S
H1232 C1238 0.949 . S
C1233 H1228 0.950 . S
C1233 C1235 1.327 . S
C1233 C1239 1.429 . S
C1234 C1226 1.574 . S
C1234 H1229 0.949 . S
C1234 C1240 1.368 . S
C1235 C1219 1.349 . S
C1235 H1227 0.950 . S
C1235 C1233 1.327 . S
C1236 C1224 1.349 . S
C1236 H1230 0.950 . S
C1236 C1237 1.327 . S
C1237 H1231 0.950 . S
C1237 C1236 1.327 . S
C1237 C1241 1.429 . S
C1238 C1221 1.574 . S
C1238 H1232 0.949 . S
C1238 C1242 1.368 . S
C1239 C1220 1.429 . S
C1239 C1233 1.429 . S
C1239 C1240 1.523 . S
C1240 C1221 1.368 . S
C1240 C1234 1.368 . S
C1240 C1239 1.523 . S
C1241 C1225 1.429 . S
C1241 C1237 1.429 . S
C1241 C1242 1.523 . S
C1242 C1226 1.368 . S
C1242 C1238 1.368 . S
C1242 C1241 1.523 . S
H1243 C1218 0.950 . S
H1244 C1220 0.950 . S
H1245 C1221 0.949 . S
H1246 C1223 0.950 . S
H1247 C1225 0.950 . S
C1248 C1249 1.349 . S
C1248 C1250 1.327 . S
C1248 H1273 0.950 . S
C1249 C1248 1.349 . S
C1249 C1265 1.349 . S
C1250 C1248 1.327 . S
C1250 C1269 1.429 . S
C1250 H1274 0.950 . S
C1251 C1268 1.574 . S
C1251 C1270 1.368 . S
C1251 H1275 0.949 . S
H1252 C1256 0.949 . S
C1253 C1254 1.349 . S
C1253 C1255 1.327 . S
C1253 H1276 0.950 . S
C1254 C1253 1.349 . S
C1254 C1266 1.349 . S
C1255 C1253 1.327 . S
C1255 C1271 1.429 . S
C1255 H1277 0.950 . S
C1256 H1252 0.949 . S
C1256 C1264 1.574 . S
C1256 C1272 1.368 . S
H1257 C1265 0.950 . S
H1258 C1263 0.950 . S
H1259 C1264 0.949 . S
H1260 C1266 0.950 . S
H1261 C1267 0.950 . S
H1262 C1268 0.949 . S
C1263 H1258 0.950 . S
C1263 C1265 1.327 . S
C1263 C1269 1.429 . S
C1264 C1256 1.574 . S
C1264 H1259 0.949 . S
C1264 C1270 1.368 . S
C1265 C1249 1.349 . S
C1265 H1257 0.950 . S
C1265 C1263 1.327 . S
C1266 C1254 1.349 . S
C1266 H1260 0.950 . S
C1266 C1267 1.327 . S
C1267 H1261 0.950 . S
C1267 C1266 1.327 . S
C1267 C1271 1.429 . S
C1268 C1251 1.574 . S
C1268 H1262 0.949 . S
C1268 C1272 1.368 . S
C1269 C1250 1.429 . S
C1269 C1263 1.429 . S
C1269 C1270 1.523 . S
C1270 C1251 1.368 . S
C1270 C1264 1.368 . S
C1270 C1269 1.523 . S
C1271 C1255 1.429 . S
C1271 C1267 1.429 . S
C1271 C1272 1.523 . S
C1272 C1256 1.368 . S
C1272 C1268 1.368 . S
C1272 C1271 1.523 . S
H1273 C1248 0.950 . S
H1274 C1250 0.950 . S
H1275 C1251 0.949 . S
H1276 C1253 0.950 . S
H1277 C1255 0.950 . S
C1278 C1279 1.349 . S
C1278 C1280 1.327 . S
C1278 H1303 0.950 . S
C1279 C1278 1.349 . S
C1279 C1295 1.349 . S
C1280 C1278 1.327 . S
C1280 C1299 1.429 . S
C1280 H1304 0.950 . S
C1281 C1298 1.574 . S
C1281 C1300 1.368 . S
C1281 H1305 0.949 . S
H1282 C1286 0.949 . S
C1283 C1284 1.349 . S
C1283 C1285 1.327 . S
C1283 H1306 0.950 . S
C1284 C1283 1.349 . S
C1284 C1296 1.349 . S
C1285 C1283 1.327 . S
C1285 C1301 1.429 . S
C1285 H1307 0.950 . S
C1286 H1282 0.949 . S
C1286 C1294 1.574 . S
C1286 C1302 1.368 . S
H1287 C1295 0.950 . S
H1288 C1293 0.950 . S
H1289 C1294 0.949 . S
H1290 C1296 0.950 . S
H1291 C1297 0.950 . S
H1292 C1298 0.949 . S
C1293 H1288 0.950 . S
C1293 C1295 1.327 . S
C1293 C1299 1.429 . S
C1294 C1286 1.574 . S
C1294 H1289 0.949 . S
C1294 C1300 1.368 . S
C1295 C1279 1.349 . S
C1295 H1287 0.950 . S
C1295 C1293 1.327 . S
C1296 C1284 1.349 . S
C1296 H1290 0.950 . S
C1296 C1297 1.327 . S
C1297 H1291 0.950 . S
C1297 C1296 1.327 . S
C1297 C1301 1.429 . S
C1298 C1281 1.574 . S
C1298 H1292 0.949 . S
C1298 C1302 1.368 . S
C1299 C1280 1.429 . S
C1299 C1293 1.429 . S
C1299 C1300 1.523 . S
C1300 C1281 1.368 . S
C1300 C1294 1.368 . S
C1300 C1299 1.523 . S
C1301 C1285 1.429 . S
C1301 C1297 1.429 . S
C1301 C1302 1.523 . S
C1302 C1286 1.368 . S
C1302 C1298 1.368 . S
C1302 C1301 1.523 . S
H1303 C1278 0.950 . S
H1304 C1280 0.950 . S
H1305 C1281 0.949 . S
H1306 C1283 0.950 . S
H1307 C1285 0.950 . S
C1308 C1309 1.349 . S
C1308 C1310 1.327 . S
C1308 H1333 0.950 . S
C1309 C1308 1.349 . S
C1309 C1325 1.349 . S
C1310 C1308 1.327 . S
C1310 C1329 1.429 . S
C1310 H1334 0.950 . S
C1311 C1328 1.574 . S
C1311 C1330 1.368 . S
C1311 H1335 0.949 . S
H1312 C1316 0.949 . S
C1313 C1314 1.349 . S
C1313 C1315 1.327 . S
C1313 H1336 0.950 . S
C1314 C1313 1.349 . S
C1314 C1326 1.349 . S
C1315 C1313 1.327 . S
C1315 C1331 1.429 . S
C1315 H1337 0.950 . S
C1316 H1312 0.949 . S
C1316 C1324 1.574 . S
C1316 C1332 1.368 . S
H1317 C1325 0.950 . S
H1318 C1323 0.950 . S
H1319 C1324 0.949 . S
H1320 C1326 0.950 . S
H1321 C1327 0.950 . S
H1322 C1328 0.949 . S
C1323 H1318 0.950 . S
C1323 C1325 1.327 . S
C1323 C1329 1.429 . S
C1324 C1316 1.574 . S
C1324 H1319 0.949 . S
C1324 C1330 1.368 . S
C1325 C1309 1.349 . S
C1325 H1317 0.950 . S
C1325 C1323 1.327 . S
C1326 C1314 1.349 . S
C1326 H1320 0.950 . S
C1326 C1327 1.327 . S
C1327 H1321 0.950 . S
C1327 C1326 1.327 . S
C1327 C1331 1.429 . S
C1328 C1311 1.574 . S
C1328 H1322 0.949 . S
C1328 C1332 1.368 . S
C1329 C1310 1.429 . S
C1329 C1323 1.429 . S
C1329 C1330 1.523 . S
C1330 C1311 1.368 . S
C1330 C1324 1.368 . S
C1330 C1329 1.523 . S
C1331 C1315 1.429 . S
C1331 C1327 1.429 . S
C1331 C1332 1.523 . S
C1332 C1316 1.368 . S
C1332 C1328 1.368 . S
C1332 C1331 1.523 . S
H1333 C1308 0.950 . S
H1334 C1310 0.950 . S
H1335 C1311 0.949 . S
H1336 C1313 0.950 . S
H1337 C1315 0.950 . S
C1338 C1339 1.349 . S
C1338 C1340 1.327 . S
C1338 H1363 0.950 . S
C1339 C1338 1.349 . S
C1339 C1355 1.349 . S
C1340 C1338 1.327 . S
C1340 C1359 1.429 . S
C1340 H1364 0.950 . S
C1341 C1358 1.574 . S
C1341 C1360 1.368 . S
C1341 H1365 0.949 . S
H1342 C1346 0.949 . S
C1343 C1344 1.349 . S
C1343 C1345 1.327 . S
C1343 H1366 0.950 . S
C1344 C1343 1.349 . S
C1344 C1356 1.349 . S
C1345 C1343 1.327 . S
C1345 C1361 1.429 . S
C1345 H1367 0.950 . S
C1346 H1342 0.949 . S
C1346 C1354 1.574 . S
C1346 C1362 1.368 . S
H1347 C1355 0.950 . S
H1348 C1353 0.950 . S
H1349 C1354 0.949 . S
H1350 C1356 0.950 . S
H1351 C1357 0.950 . S
H1352 C1358 0.949 . S
C1353 H1348 0.950 . S
C1353 C1355 1.327 . S
C1353 C1359 1.429 . S
C1354 C1346 1.574 . S
C1354 H1349 0.949 . S
C1354 C1360 1.368 . S
C1355 C1339 1.349 . S
C1355 H1347 0.950 . S
C1355 C1353 1.327 . S
C1356 C1344 1.349 . S
C1356 H1350 0.950 . S
C1356 C1357 1.327 . S
C1357 H1351 0.950 . S
C1357 C1356 1.327 . S
C1357 C1361 1.429 . S
C1358 C1341 1.574 . S
C1358 H1352 0.949 . S
C1358 C1362 1.368 . S
C1359 C1340 1.429 . S
C1359 C1353 1.429 . S
C1359 C1360 1.523 . S
C1360 C1341 1.368 . S
C1360 C1354 1.368 . S
C1360 C1359 1.523 . S
C1361 C1345 1.429 . S
C1361 C1357 1.429 . S
C1361 C1362 1.523 . S
C1362 C1346 1.368 . S
C1362 C1358 1.368 . S
C1362 C1361 1.523 . S
H1363 C1338 0.950 . S
H1364 C1340 0.950 . S
H1365 C1341 0.949 . S
H1366 C1343 0.950 . S
H1367 C1345 0.950 . S
C1368 C1369 1.349 . S
C1368 C1370 1.327 . S
C1368 H1393 0.950 . S
C1369 C1368 1.349 . S
C1369 C1385 1.349 . S
C1370 C1368 1.327 . S
C1370 C1389 1.429 . S
C1370 H1394 0.950 . S
C1371 C1388 1.574 . S
C1371 C1390 1.368 . S
C1371 H1395 0.949 . S
H1372 C1376 0.949 . S
C1373 C1374 1.349 . S
C1373 C1375 1.327 . S
C1373 H1396 0.950 . S
C1374 C1373 1.349 . S
C1374 C1386 1.349 . S
C1375 C1373 1.327 . S
C1375 C1391 1.429 . S
C1375 H1397 0.950 . S
C1376 H1372 0.949 . S
C1376 C1384 1.574 . S
C1376 C1392 1.368 . S
H1377 C1385 0.950 . S
H1378 C1383 0.950 . S
H1379 C1384 0.949 . S
H1380 C1386 0.950 . S
H1381 C1387 0.950 . S
H1382 C1388 0.949 . S
C1383 H1378 0.950 . S
C1383 C1385 1.327 . S
C1383 C1389 1.429 . S
C1384 C1376 1.574 . S
C1384 H1379 0.949 . S
C1384 C1390 1.368 . S
C1385 C1369 1.349 . S
C1385 H1377 0.950 . S
C1385 C1383 1.327 . S
C1386 C1374 1.349 . S
C1386 H1380 0.950 . S
C1386 C1387 1.327 . S
C1387 H1381 0.950 . S
C1387 C1386 1.327 . S
C1387 C1391 1.429 . S
C1388 C1371 1.574 . S
C1388 H1382 0.949 . S
C1388 C1392 1.368 . S
C1389 C1370 1.429 . S
C1389 C1383 1.429 . S
C1389 C1390 1.523 . S
C1390 C1371 1.368 . S
C1390 C1384 1.368 . S
C1390 C1389 1.523 . S
C1391 C1375 1.429 . S
C1391 C1387 1.429 . S
C1391 C1392 1.523 . S
C1392 C1376 1.368 . S
C1392 C1388 1.368 . S
C1392 C1391 1.523 . S
H1393 C1368 0.950 . S
H1394 C1370 0.950 . S
H1395 C1371 0.949 . S
H1396 C1373 0.950 . S
H1397 C1375 0.950 . S
C1398 C1399 1.349 . S
C1398 C1400 1.327 . S
C1398 H1423 0.950 . S
C1399 C1398 1.349 . S
C1399 C1415 1.349 . S
C1400 C1398 1.327 . S
C1400 C1419 1.429 . S
C1400 H1424 0.950 . S
C1401 C1418 1.574 . S
C1401 C1420 1.368 . S
C1401 H1425 0.949 . S
H1402 C1406 0.949 . S
C1403 C1404 1.349 . S
C1403 C1405 1.327 . S
C1403 H1426 0.950 . S
C1404 C1403 1.349 . S
C1404 C1416 1.349 . S
C1405 C1403 1.327 . S
C1405 C1421 1.429 . S
C1405 H1427 0.950 . S
C1406 H1402 0.949 . S
C1406 C1414 1.574 . S
C1406 C1422 1.368 . S
H1407 C1415 0.950 . S
H1408 C1413 0.950 . S
H1409 C1414 0.949 . S
H1410 C1416 0.950 . S
H1411 C1417 0.950 . S
H1412 C1418 0.949 . S
C1413 H1408 0.950 . S
C1413 C1415 1.327 . S
C1413 C1419 1.429 . S
C1414 C1406 1.574 . S
C1414 H1409 0.949 . S
C1414 C1420 1.368 . S
C1415 C1399 1.349 . S
C1415 H1407 0.950 . S
C1415 C1413 1.327 . S
C1416 C1404 1.349 . S
C1416 H1410 0.950 . S
C1416 C1417 1.327 . S
C1417 H1411 0.950 . S
C1417 C1416 1.327 . S
C1417 C1421 1.429 . S
C1418 C1401 1.574 . S
C1418 H1412 0.949 . S
C1418 C1422 1.368 . S
C1419 C1400 1.429 . S
C1419 C1413 1.429 . S
C1419 C1420 1.523 . S
C1420 C1401 1.368 . S
C1420 C1414 1.368 . S
C1420 C1419 1.523 . S
C1421 C1405 1.429 . S
C1421 C1417 1.429 . S
C1421 C1422 1.523 . S
C1422 C1406 1.368 . S
C1422 C1418 1.368 . S
C1422 C1421 1.523 . S
H1423 C1398 0.950 . S
H1424 C1400 0.950 . S
H1425 C1401 0.949 . S
H1426 C1403 0.950 . S
H1427 C1405 0.950 . S
C1428 C1429 1.359 . S
C1428 C1430 1.327 . S
C1428 H1453 0.950 . S
C1429 C1428 1.359 . S
C1429 C1445 1.339 1_554 S
C1430 C1428 1.327 . S
C1430 C1449 1.440 . S
C1430 H1454 0.950 . S
C1431 C1448 1.574 . S
C1431 C1450 1.355 1_556 S
C1431 H1455 0.949 . S
H1432 C1436 0.949 . S
C1433 C1434 1.333 1_556 S
C1433 C1435 1.327 . S
C1433 H1456 0.950 . S
C1434 C1433 1.333 1_554 S
C1434 C1446 1.365 . S
C1435 C1433 1.327 . S
C1435 C1451 1.415 1_556 S
C1435 H1457 0.950 . S
C1436 H1432 0.949 . S
C1436 C1444 1.574 . S
C1436 C1452 1.383 . S
H1437 C1445 0.950 . S
H1438 C1443 0.950 . S
H1439 C1444 0.949 . S
H1440 C1446 0.950 . S
H1441 C1447 0.950 . S
H1442 C1448 0.949 . S
C1443 H1438 0.950 . S
C1443 C1445 1.327 . S
C1443 C1449 1.418 1_556 S
C1444 C1436 1.574 . S
C1444 H1439 0.949 . S
C1444 C1450 1.381 . S
C1445 C1429 1.339 1_556 S
C1445 H1437 0.950 . S
C1445 C1443 1.327 . S
C1446 C1434 1.365 . S
C1446 H1440 0.950 . S
C1446 C1447 1.327 . S
C1447 H1441 0.950 . S
C1447 C1446 1.327 . S
C1447 C1451 1.443 . S
C1448 C1431 1.574 . S
C1448 H1442 0.949 . S
C1448 C1452 1.354 1_556 S
C1449 C1430 1.440 . S
C1449 C1443 1.418 1_554 S
C1449 C1450 1.523 . S
C1450 C1431 1.355 1_554 S
C1450 C1444 1.381 . S
C1450 C1449 1.523 . S
C1451 C1435 1.415 1_554 S
C1451 C1447 1.443 . S
C1451 C1452 1.523 . S
C1452 C1436 1.383 . S
C1452 C1448 1.354 1_554 S
C1452 C1451 1.523 . S
H1453 C1428 0.950 . S
H1454 C1430 0.950 . S
H1455 C1431 0.949 . S
H1456 C1433 0.950 . S
H1457 C1435 0.950 . S
C1458 C1459 1.363 . S
C1458 C1460 1.327 . S
C1458 H1483 0.950 . S
C1459 C1458 1.363 . S
C1459 C1475 1.335 1_554 S
C1460 C1458 1.327 . S
C1460 C1479 1.442 . S
C1460 H1484 0.950 . S
C1461 C1478 1.574 . S
C1461 C1480 1.353 1_556 S
C1461 H1485 0.949 . S
H1462 C1466 0.949 . S
C1463 C1464 1.333 1_556 S
C1463 C1465 1.327 . S
C1463 H1486 0.950 . S
C1464 C1463 1.333 1_554 S
C1464 C1476 1.365 . S
C1465 C1463 1.327 . S
C1465 C1481 1.414 1_556 S
C1465 H1487 0.950 . S
C1466 H1462 0.949 . S
C1466 C1474 1.574 . S
C1466 C1482 1.384 . S
H1467 C1475 0.950 . S
H1468 C1473 0.950 . S
H1469 C1474 0.949 . S
H1470 C1476 0.950 . S
H1471 C1477 0.950 . S
H1472 C1478 0.949 . S
C1473 H1468 0.950 . S
C1473 C1475 1.327 . S
C1473 C1479 1.415 1_556 S
C1474 C1466 1.574 . S
C1474 H1469 0.949 . S
C1474 C1480 1.384 . S
C1475 C1459 1.335 1_556 S
C1475 H1467 0.950 . S
C1475 C1473 1.327 . S
C1476 C1464 1.365 . S
C1476 H1470 0.950 . S
C1476 C1477 1.327 . S
C1477 H1471 0.950 . S
C1477 C1476 1.327 . S
C1477 C1481 1.444 . S
C1478 C1461 1.574 . S
C1478 H1472 0.949 . S
C1478 C1482 1.352 1_556 S
C1479 C1460 1.442 . S
C1479 C1473 1.415 1_554 S
C1479 C1480 1.523 . S
C1480 C1461 1.353 1_554 S
C1480 C1474 1.384 . S
C1480 C1479 1.523 . S
C1481 C1465 1.414 1_554 S
C1481 C1477 1.444 . S
C1481 C1482 1.523 . S
C1482 C1466 1.384 . S
C1482 C1478 1.352 1_554 S
C1482 C1481 1.523 . S
H1483 C1458 0.950 . S
H1484 C1460 0.950 . S
H1485 C1461 0.949 . S
H1486 C1463 0.950 . S
H1487 C1465 0.950 . S
C1488 C1489 1.363 . S
C1488 C1490 1.327 . S
C1488 H1513 0.950 . S
C1489 C1488 1.363 . S
C1489 C1505 1.335 1_554 S
C1490 C1488 1.327 . S
C1490 C1509 1.442 . S
C1490 H1514 0.950 . S
C1491 C1508 1.574 . S
C1491 C1510 1.353 1_556 S
C1491 H1515 0.949 . S
H1492 C1496 0.949 . S
C1493 C1494 1.333 1_556 S
C1493 C1495 1.327 . S
C1493 H1516 0.950 . S
C1494 C1493 1.333 1_554 S
C1494 C1506 1.365 . S
C1495 C1493 1.327 . S
C1495 C1511 1.414 1_556 S
C1495 H1517 0.950 . S
C1496 H1492 0.949 . S
C1496 C1504 1.574 . S
C1496 C1512 1.384 . S
H1497 C1505 0.950 . S
H1498 C1503 0.950 . S
H1499 C1504 0.949 . S
H1500 C1506 0.950 . S
H1501 C1507 0.950 . S
H1502 C1508 0.949 . S
C1503 H1498 0.950 . S
C1503 C1505 1.327 . S
C1503 C1509 1.415 1_556 S
C1504 C1496 1.574 . S
C1504 H1499 0.949 . S
C1504 C1510 1.384 . S
C1505 C1489 1.335 1_556 S
C1505 H1497 0.950 . S
C1505 C1503 1.327 . S
C1506 C1494 1.365 . S
C1506 H1500 0.950 . S
C1506 C1507 1.327 . S
C1507 H1501 0.950 . S
C1507 C1506 1.327 . S
C1507 C1511 1.444 . S
C1508 C1491 1.574 . S
C1508 H1502 0.949 . S
C1508 C1512 1.352 1_556 S
C1509 C1490 1.442 . S
C1509 C1503 1.415 1_554 S
C1509 C1510 1.523 . S
C1510 C1491 1.353 1_554 S
C1510 C1504 1.384 . S
C1510 C1509 1.523 . S
C1511 C1495 1.414 1_554 S
C1511 C1507 1.444 . S
C1511 C1512 1.523 . S
C1512 C1496 1.384 . S
C1512 C1508 1.352 1_554 S
C1512 C1511 1.523 . S
H1513 C1488 0.950 . S
H1514 C1490 0.950 . S
H1515 C1491 0.949 . S
H1516 C1493 0.950 . S
H1517 C1495 0.950 . S
C1518 C1519 1.359 . S
C1518 C1520 1.327 . S
C1518 H1543 0.950 . S
C1519 C1518 1.359 . S
C1519 C1535 1.339 1_554 S
C1520 C1518 1.327 . S
C1520 C1539 1.440 . S
C1520 H1544 0.950 . S
C1521 C1538 1.574 . S
C1521 C1540 1.355 1_556 S
C1521 H1545 0.949 . S
H1522 C1526 0.949 . S
C1523 C1524 1.333 1_556 S
C1523 C1525 1.327 . S
C1523 H1546 0.950 . S
C1524 C1523 1.333 1_554 S
C1524 C1536 1.365 . S
C1525 C1523 1.327 . S
C1525 C1541 1.415 1_556 S
C1525 H1547 0.950 . S
C1526 H1522 0.949 . S
C1526 C1534 1.574 . S
C1526 C1542 1.383 . S
H1527 C1535 0.950 . S
H1528 C1533 0.950 . S
H1529 C1534 0.949 . S
H1530 C1536 0.950 . S
H1531 C1537 0.950 . S
H1532 C1538 0.949 . S
C1533 H1528 0.950 . S
C1533 C1535 1.327 . S
C1533 C1539 1.418 1_556 S
C1534 C1526 1.574 . S
C1534 H1529 0.949 . S
C1534 C1540 1.381 . S
C1535 C1519 1.339 1_556 S
C1535 H1527 0.950 . S
C1535 C1533 1.327 . S
C1536 C1524 1.365 . S
C1536 H1530 0.950 . S
C1536 C1537 1.327 . S
C1537 H1531 0.950 . S
C1537 C1536 1.327 . S
C1537 C1541 1.443 . S
C1538 C1521 1.574 . S
C1538 H1532 0.949 . S
C1538 C1542 1.354 1_556 S
C1539 C1520 1.440 . S
C1539 C1533 1.418 1_554 S
C1539 C1540 1.523 . S
C1540 C1521 1.355 1_554 S
C1540 C1534 1.381 . S
C1540 C1539 1.523 . S
C1541 C1525 1.415 1_554 S
C1541 C1537 1.443 . S
C1541 C1542 1.523 . S
C1542 C1526 1.383 . S
C1542 C1538 1.354 1_554 S
C1542 C1541 1.523 . S
H1543 C1518 0.950 . S
H1544 C1520 0.950 . S
H1545 C1521 0.949 . S
H1546 C1523 0.950 . S
H1547 C1525 0.950 . S
C1548 C1549 1.349 1_655 S
C1548 C1550 1.327 . S
C1548 H1573 0.950 . S
C1549 C1548 1.349 1_455 S
C1549 C1565 1.349 . S
C1550 C1548 1.327 . S
C1550 C1569 1.429 1_655 S
C1550 H1574 0.950 . S
C1551 C1568 1.574 . S
C1551 C1570 1.368 . S
C1551 H1575 0.949 . S
H1552 C1556 0.949 . S
C1553 C1554 1.349 . S
C1553 C1555 1.327 . S
C1553 H1576 0.950 . S
C1554 C1553 1.349 . S
C1554 C1566 1.349 1_455 S
C1555 C1553 1.327 . S
C1555 C1571 1.429 . S
C1555 H1577 0.950 . S
C1556 H1552 0.949 . S
C1556 C1564 1.574 . S
C1556 C1572 1.368 1_655 S
H1557 C1565 0.950 . S
H1558 C1563 0.950 . S
H1559 C1564 0.949 . S
H1560 C1566 0.950 . S
H1561 C1567 0.950 . S
H1562 C1568 0.949 . S
C1563 H1558 0.950 . S
C1563 C1565 1.327 . S
C1563 C1569 1.429 . S
C1564 C1556 1.574 . S
C1564 H1559 0.949 . S
C1564 C1570 1.368 1_655 S
C1565 C1549 1.349 . S
C1565 H1557 0.950 . S
C1565 C1563 1.327 . S
C1566 C1554 1.349 1_655 S
C1566 H1560 0.950 . S
C1566 C1567 1.327 . S
C1567 H1561 0.950 . S
C1567 C1566 1.327 . S
C1567 C1571 1.429 1_655 S
C1568 C1551 1.574 . S
C1568 H1562 0.949 . S
C1568 C1572 1.368 . S
C1569 C1550 1.429 1_455 S
C1569 C1563 1.429 . S
C1569 C1570 1.523 . S
C1570 C1551 1.368 . S
C1570 C1564 1.368 1_455 S
C1570 C1569 1.523 . S
C1571 C1555 1.429 . S
C1571 C1567 1.429 1_455 S
C1571 C1572 1.523 . S
C1572 C1556 1.368 1_455 S
C1572 C1568 1.368 . S
C1572 C1571 1.523 . S
H1573 C1548 0.950 . S
H1574 C1550 0.950 . S
H1575 C1551 0.949 . S
H1576 C1553 0.950 . S
H1577 C1555 0.950 . S
C1578 C1579 1.390 . S
C1578 C1580 1.327 . S
C1578 H1603 0.950 . S
C1579 C1578 1.390 . S
C1579 C1595 1.309 1_545 S
C1580 C1578 1.327 . S
C1580 C1599 1.469 . S
C1580 H1604 0.950 . S
C1581 C1598 1.574 . S
C1581 C1600 1.326 1_565 S
C1581 H1605 0.949 . S
H1582 C1586 0.949 . S
C1583 C1584 1.309 1_565 S
C1583 C1585 1.327 . S
C1583 H1606 0.950 . S
C1584 C1583 1.309 1_545 S
C1584 C1596 1.390 . S
C1585 C1583 1.327 . S
C1585 C1601 1.390 1_565 S
C1585 H1607 0.950 . S
C1586 H1582 0.949 . S
C1586 C1594 1.574 . S
C1586 C1602 1.412 . S
H1587 C1595 0.950 . S
H1588 C1593 0.950 . S
H1589 C1594 0.949 . S
H1590 C1596 0.950 . S
H1591 C1597 0.950 . S
H1592 C1598 0.949 . S
C1593 H1588 0.950 . S
C1593 C1595 1.327 . S
C1593 C1599 1.390 1_565 S
C1594 C1586 1.574 . S
C1594 H1589 0.949 . S
C1594 C1600 1.412 . S
C1595 C1579 1.309 1_565 S
C1595 H1587 0.950 . S
C1595 C1593 1.327 . S
C1596 C1584 1.390 . S
C1596 H1590 0.950 . S
C1596 C1597 1.327 . S
C1597 H1591 0.950 . S
C1597 C1596 1.327 . S
C1597 C1601 1.468 . S
C1598 C1581 1.574 . S
C1598 H1592 0.949 . S
C1598 C1602 1.326 1_565 S
C1599 C1580 1.469 . S
C1599 C1593 1.390 1_545 S
C1599 C1600 1.523 . S
C1600 C1581 1.326 1_545 S
C1600 C1594 1.412 . S
C1600 C1599 1.523 . S
C1601 C1585 1.390 1_545 S
C1601 C1597 1.468 . S
C1601 C1602 1.523 . S
C1602 C1586 1.412 . S
C1602 C1598 1.326 1_545 S
C1602 C1601 1.523 . S
H1603 C1578 0.950 . S
H1604 C1580 0.950 . S
H1605 C1581 0.949 . S
H1606 C1583 0.950 . S
H1607 C1585 0.950 . S
C1608 C1609 1.349 . S
C1608 C1610 1.327 . S
C1608 H1633 0.950 . S
C1609 C1608 1.349 . S
C1609 C1625 1.349 1_455 S
C1610 C1608 1.327 . S
C1610 C1629 1.429 . S
C1610 H1634 0.950 . S
C1611 C1628 1.574 . S
C1611 C1630 1.368 1_655 S
C1611 H1635 0.949 . S
H1612 C1616 0.949 . S
C1613 C1614 1.349 1_655 S
C1613 C1615 1.327 . S
C1613 H1636 0.950 . S
C1614 C1613 1.349 1_455 S
C1614 C1626 1.349 . S
C1615 C1613 1.327 . S
C1615 C1631 1.429 1_655 S
C1615 H1637 0.950 . S
C1616 H1612 0.949 . S
C1616 C1624 1.574 . S
C1616 C1632 1.368 . S
H1617 C1625 0.950 . S
H1618 C1623 0.950 . S
H1619 C1624 0.949 . S
H1620 C1626 0.950 . S
H1621 C1627 0.950 . S
H1622 C1628 0.949 . S
C1623 H1618 0.950 . S
C1623 C1625 1.327 . S
C1623 C1629 1.429 1_655 S
C1624 C1616 1.574 . S
C1624 H1619 0.949 . S
C1624 C1630 1.368 . S
C1625 C1609 1.349 1_655 S
C1625 H1617 0.950 . S
C1625 C1623 1.327 . S
C1626 C1614 1.349 . S
C1626 H1620 0.950 . S
C1626 C1627 1.327 . S
C1627 H1621 0.950 . S
C1627 C1626 1.327 . S
C1627 C1631 1.429 . S
C1628 C1611 1.574 . S
C1628 H1622 0.949 . S
C1628 C1632 1.368 1_655 S
C1629 C1610 1.429 . S
C1629 C1623 1.429 1_455 S
C1629 C1630 1.523 . S
C1630 C1611 1.368 1_455 S
C1630 C1624 1.368 . S
C1630 C1629 1.523 . S
C1631 C1615 1.429 1_455 S
C1631 C1627 1.429 . S
C1631 C1632 1.523 . S
C1632 C1616 1.368 . S
C1632 C1628 1.368 1_455 S
C1632 C1631 1.523 . S
H1633 C1608 0.950 . S
H1634 C1610 0.950 . S
H1635 C1611 0.949 . S
H1636 C1613 0.950 . S
H1637 C1615 0.950 . S
C1638 C1639 1.310 1_565 S
C1638 C1640 1.327 . S
C1638 H1663 0.950 . S
C1639 C1638 1.310 1_545 S
C1639 C1655 1.389 . S
C1640 C1638 1.327 . S
C1640 C1659 1.391 1_565 S
C1640 H1664 0.950 . S
C1641 C1658 1.574 . S
C1641 C1660 1.411 . S
C1641 H1665 0.949 . S
H1642 C1646 0.949 . S
C1643 C1644 1.390 . S
C1643 C1645 1.327 . S
C1643 H1666 0.950 . S
C1644 C1643 1.390 . S
C1644 C1656 1.309 1_545 S
C1645 C1643 1.327 . S
C1645 C1661 1.468 . S
C1645 H1667 0.950 . S
C1646 H1642 0.949 . S
C1646 C1654 1.574 . S
C1646 C1662 1.326 1_565 S
H1647 C1655 0.950 . S
H1648 C1653 0.950 . S
H1649 C1654 0.949 . S
H1650 C1656 0.950 . S
H1651 C1657 0.950 . S
H1652 C1658 0.949 . S
C1653 H1648 0.950 . S
C1653 C1655 1.327 . S
C1653 C1659 1.468 . S
C1654 C1646 1.574 . S
C1654 H1649 0.949 . S
C1654 C1660 1.326 1_565 S
C1655 C1639 1.389 . S
C1655 H1647 0.950 . S
C1655 C1653 1.327 . S
C1656 C1644 1.309 1_565 S
C1656 H1650 0.950 . S
C1656 C1657 1.327 . S
C1657 H1651 0.950 . S
C1657 C1656 1.327 . S
C1657 C1661 1.390 1_565 S
C1658 C1641 1.574 . S
C1658 H1652 0.949 . S
C1658 C1662 1.411 . S
C1659 C1640 1.391 1_545 S
C1659 C1653 1.468 . S
C1659 C1660 1.523 . S
C1660 C1641 1.411 . S
C1660 C1654 1.326 1_545 S
C1660 C1659 1.523 . S
C1661 C1645 1.468 . S
C1661 C1657 1.390 1_545 S
C1661 C1662 1.523 . S
C1662 C1646 1.326 1_545 S
C1662 C1658 1.411 . S
C1662 C1661 1.523 . S
H1663 C1638 0.950 . S
H1664 C1640 0.950 . S
H1665 C1641 0.949 . S
H1666 C1643 0.950 . S
H1667 C1645 0.950 . S
C1668 C1669 1.349 . S
C1668 C1670 1.327 . S
C1668 H1693 0.950 . S
C1669 C1668 1.349 . S
C1669 C1685 1.349 1_455 S
C1670 C1668 1.327 . S
C1670 C1689 1.429 . S
C1670 H1694 0.950 . S
C1671 C1688 1.574 . S
C1671 C1690 1.368 1_655 S
C1671 H1695 0.949 . S
H1672 C1676 0.949 . S
C1673 C1674 1.349 1_655 S
C1673 C1675 1.327 . S
C1673 H1696 0.950 . S
C1674 C1673 1.349 1_455 S
C1674 C1686 1.349 . S
C1675 C1673 1.327 . S
C1675 C1691 1.429 1_655 S
C1675 H1697 0.950 . S
C1676 H1672 0.949 . S
C1676 C1684 1.574 . S
C1676 C1692 1.368 . S
H1677 C1685 0.950 . S
H1678 C1683 0.950 . S
H1679 C1684 0.949 . S
H1680 C1686 0.950 . S
H1681 C1687 0.950 . S
H1682 C1688 0.949 . S
C1683 H1678 0.950 . S
C1683 C1685 1.327 . S
C1683 C1689 1.429 1_655 S
C1684 C1676 1.574 . S
C1684 H1679 0.949 . S
C1684 C1690 1.368 . S
C1685 C1669 1.349 1_655 S
C1685 H1677 0.950 . S
C1685 C1683 1.327 . S
C1686 C1674 1.349 . S
C1686 H1680 0.950 . S
C1686 C1687 1.327 . S
C1687 H1681 0.950 . S
C1687 C1686 1.327 . S
C1687 C1691 1.429 . S
C1688 C1671 1.574 . S
C1688 H1682 0.949 . S
C1688 C1692 1.368 1_655 S
C1689 C1670 1.429 . S
C1689 C1683 1.429 1_455 S
C1689 C1690 1.523 . S
C1690 C1671 1.368 1_455 S
C1690 C1684 1.368 . S
C1690 C1689 1.523 . S
C1691 C1675 1.429 1_455 S
C1691 C1687 1.429 . S
C1691 C1692 1.523 . S
C1692 C1676 1.368 . S
C1692 C1688 1.368 1_455 S
C1692 C1691 1.523 . S
H1693 C1668 0.950 . S
H1694 C1670 0.950 . S
H1695 C1671 0.949 . S
H1696 C1673 0.950 . S
H1697 C1675 0.950 . S
C1698 C1699 1.310 1_565 S
C1698 C1700 1.327 . S
C1698 H1723 0.950 . S
C1699 C1698 1.310 1_545 S
C1699 C1715 1.389 . S
C1700 C1698 1.327 . S
C1700 C1719 1.391 1_565 S
C1700 H1724 0.950 . S
C1701 C1718 1.574 . S
C1701 C1720 1.411 . S
C1701 H1725 0.949 . S
H1702 C1706 0.949 . S
C1703 C1704 1.390 . S
C1703 C1705 1.327 . S
C1703 H1726 0.950 . S
C1704 C1703 1.390 . S
C1704 C1716 1.309 1_545 S
C1705 C1703 1.327 . S
C1705 C1721 1.468 . S
C1705 H1727 0.950 . S
C1706 H1702 0.949 . S
C1706 C1714 1.574 . S
C1706 C1722 1.326 1_565 S
H1707 C1715 0.950 . S
H1708 C1713 0.950 . S
H1709 C1714 0.949 . S
H1710 C1716 0.950 . S
H1711 C1717 0.950 . S
H1712 C1718 0.949 . S
C1713 H1708 0.950 . S
C1713 C1715 1.327 . S
C1713 C1719 1.468 . S
C1714 C1706 1.574 . S
C1714 H1709 0.949 . S
C1714 C1720 1.326 1_565 S
C1715 C1699 1.389 . S
C1715 H1707 0.950 . S
C1715 C1713 1.327 . S
C1716 C1704 1.309 1_565 S
C1716 H1710 0.950 . S
C1716 C1717 1.327 . S
C1717 H1711 0.950 . S
C1717 C1716 1.327 . S
C1717 C1721 1.390 1_565 S
C1718 C1701 1.574 . S
C1718 H1712 0.949 . S
C1718 C1722 1.411 . S
C1719 C1700 1.391 1_545 S
C1719 C1713 1.468 . S
C1719 C1720 1.523 . S
C1720 C1701 1.411 . S
C1720 C1714 1.326 1_545 S
C1720 C1719 1.523 . S
C1721 C1705 1.468 . S
C1721 C1717 1.390 1_545 S
C1721 C1722 1.523 . S
C1722 C1706 1.326 1_545 S
C1722 C1718 1.411 . S
C1722 C1721 1.523 . S
H1723 C1698 0.950 . S
H1724 C1700 0.950 . S
H1725 C1701 0.949 . S
H1726 C1703 0.950 . S
H1727 C1705 0.950 . S
C1728 C1729 1.349 1_655 S
C1728 C1730 1.327 . S
C1728 H1753 0.950 . S
C1729 C1728 1.349 1_455 S
C1729 C1745 1.349 . S
C1730 C1728 1.327 . S
C1730 C1749 1.429 1_655 S
C1730 H1754 0.950 . S
C1731 C1748 1.574 . S
C1731 C1750 1.368 . S
C1731 H1755 0.949 . S
H1732 C1736 0.949 . S
C1733 C1734 1.349 . S
C1733 C1735 1.327 . S
C1733 H1756 0.950 . S
C1734 C1733 1.349 . S
C1734 C1746 1.349 1_455 S
C1735 C1733 1.327 . S
C1735 C1751 1.429 . S
C1735 H1757 0.950 . S
C1736 H1732 0.949 . S
C1736 C1744 1.574 . S
C1736 C1752 1.368 1_655 S
H1737 C1745 0.950 . S
H1738 C1743 0.950 . S
H1739 C1744 0.949 . S
H1740 C1746 0.950 . S
H1741 C1747 0.950 . S
H1742 C1748 0.949 . S
C1743 H1738 0.950 . S
C1743 C1745 1.327 . S
C1743 C1749 1.429 . S
C1744 C1736 1.574 . S
C1744 H1739 0.949 . S
C1744 C1750 1.368 1_655 S
C1745 C1729 1.349 . S
C1745 H1737 0.950 . S
C1745 C1743 1.327 . S
C1746 C1734 1.349 1_655 S
C1746 H1740 0.950 . S
C1746 C1747 1.327 . S
C1747 H1741 0.950 . S
C1747 C1746 1.327 . S
C1747 C1751 1.429 1_655 S
C1748 C1731 1.574 . S
C1748 H1742 0.949 . S
C1748 C1752 1.368 . S
C1749 C1730 1.429 1_455 S
C1749 C1743 1.429 . S
C1749 C1750 1.523 . S
C1750 C1731 1.368 . S
C1750 C1744 1.368 1_455 S
C1750 C1749 1.523 . S
C1751 C1735 1.429 . S
C1751 C1747 1.429 1_455 S
C1751 C1752 1.523 . S
C1752 C1736 1.368 1_455 S
C1752 C1748 1.368 . S
C1752 C1751 1.523 . S
H1753 C1728 0.950 . S
H1754 C1730 0.950 . S
H1755 C1731 0.949 . S
H1756 C1733 0.950 . S
H1757 C1735 0.950 . S
C1758 C1759 1.309 1_565 S
C1758 C1760 1.327 . S
C1758 H1783 0.950 . S
C1759 C1758 1.309 1_545 S
C1759 C1775 1.390 . S
C1760 C1758 1.327 . S
C1760 C1779 1.390 1_565 S
C1760 H1784 0.950 . S
C1761 C1778 1.574 . S
C1761 C1780 1.412 . S
C1761 H1785 0.949 . S
H1762 C1766 0.949 . S
C1763 C1764 1.390 . S
C1763 C1765 1.327 . S
C1763 H1786 0.950 . S
C1764 C1763 1.390 . S
C1764 C1776 1.309 1_545 S
C1765 C1763 1.327 . S
C1765 C1781 1.468 . S
C1765 H1787 0.950 . S
C1766 H1762 0.949 . S
C1766 C1774 1.574 . S
C1766 C1782 1.326 1_565 S
H1767 C1775 0.950 . S
H1768 C1773 0.950 . S
H1769 C1774 0.949 . S
H1770 C1776 0.950 . S
H1771 C1777 0.950 . S
H1772 C1778 0.949 . S
C1773 H1768 0.950 . S
C1773 C1775 1.327 . S
C1773 C1779 1.469 . S
C1774 C1766 1.574 . S
C1774 H1769 0.949 . S
C1774 C1780 1.326 1_565 S
C1775 C1759 1.390 . S
C1775 H1767 0.950 . S
C1775 C1773 1.327 . S
C1776 C1764 1.309 1_565 S
C1776 H1770 0.950 . S
C1776 C1777 1.327 . S
C1777 H1771 0.950 . S
C1777 C1776 1.327 . S
C1777 C1781 1.390 1_565 S
C1778 C1761 1.574 . S
C1778 H1772 0.949 . S
C1778 C1782 1.412 . S
C1779 C1760 1.390 1_545 S
C1779 C1773 1.469 . S
C1779 C1780 1.523 . S
C1780 C1761 1.412 . S
C1780 C1774 1.326 1_545 S
C1780 C1779 1.523 . S
C1781 C1765 1.468 . S
C1781 C1777 1.390 1_545 S
C1781 C1782 1.523 . S
C1782 C1766 1.326 1_545 S
C1782 C1778 1.412 . S
C1782 C1781 1.523 . S
H1783 C1758 0.950 . S
H1784 C1760 0.950 . S
H1785 C1761 0.949 . S
H1786 C1763 0.950 . S
H1787 C1765 0.950 . S
C1788 C1789 1.349 1_655 S
C1788 C1790 1.327 . S
C1788 H1813 0.950 . S
C1789 C1788 1.349 1_455 S
C1789 C1805 1.349 . S
C1790 C1788 1.327 . S
C1790 C1809 1.429 1_655 S
C1790 H1814 0.950 . S
C1791 C1808 1.574 . S
C1791 C1810 1.368 . S
C1791 H1815 0.949 . S
H1792 C1796 0.949 . S
C1793 C1794 1.349 . S
C1793 C1795 1.327 . S
C1793 H1816 0.950 . S
C1794 C1793 1.349 . S
C1794 C1806 1.349 1_455 S
C1795 C1793 1.327 . S
C1795 C1811 1.429 . S
C1795 H1817 0.950 . S
C1796 H1792 0.949 . S
C1796 C1804 1.574 . S
C1796 C1812 1.368 1_655 S
H1797 C1805 0.950 . S
H1798 C1803 0.950 . S
H1799 C1804 0.949 . S
H1800 C1806 0.950 . S
H1801 C1807 0.950 . S
H1802 C1808 0.949 . S
C1803 H1798 0.950 . S
C1803 C1805 1.327 . S
C1803 C1809 1.429 . S
C1804 C1796 1.574 . S
C1804 H1799 0.949 . S
C1804 C1810 1.368 1_655 S
C1805 C1789 1.349 . S
C1805 H1797 0.950 . S
C1805 C1803 1.327 . S
C1806 C1794 1.349 1_655 S
C1806 H1800 0.950 . S
C1806 C1807 1.327 . S
C1807 H1801 0.950 . S
C1807 C1806 1.327 . S
C1807 C1811 1.429 1_655 S
C1808 C1791 1.574 . S
C1808 H1802 0.949 . S
C1808 C1812 1.368 . S
C1809 C1790 1.429 1_455 S
C1809 C1803 1.429 . S
C1809 C1810 1.523 . S
C1810 C1791 1.368 . S
C1810 C1804 1.368 1_455 S
C1810 C1809 1.523 . S
C1811 C1795 1.429 . S
C1811 C1807 1.429 1_455 S
C1811 C1812 1.523 . S
C1812 C1796 1.368 1_455 S
C1812 C1808 1.368 . S
C1812 C1811 1.523 . S
H1813 C1788 0.950 . S
H1814 C1790 0.950 . S
H1815 C1791 0.949 . S
H1816 C1793 0.950 . S
H1817 C1795 0.950 . S
C1818 C1819 1.385 . S
C1818 C1820 1.327 . S
C1818 H1843 0.950 . S
C1819 C1818 1.385 . S
C1819 C1835 1.314 1_545 S
C1820 C1818 1.327 . S
C1820 C1839 1.461 . S
C1820 H1844 0.950 . S
C1821 C1838 1.574 . S
C1821 C1840 1.335 1_565 S
C1821 H1845 0.949 . S
H1822 C1826 0.949 . S
C1823 C1824 1.324 1_565 S
C1823 C1825 1.327 . S
C1823 H1846 0.950 . S
C1824 C1823 1.324 1_545 S
C1824 C1836 1.375 . S
C1825 C1823 1.327 . S
C1825 C1841 1.402 1_565 S
C1825 H1847 0.950 . S
C1826 H1822 0.949 . S
C1826 C1834 1.574 . S
C1826 C1842 1.400 . S
H1827 C1835 0.950 . S
H1828 C1833 0.950 . S
H1829 C1834 0.949 . S
H1830 C1836 0.950 . S
H1831 C1837 0.950 . S
H1832 C1838 0.949 . S
C1833 H1828 0.950 . S
C1833 C1835 1.327 . S
C1833 C1839 1.397 1_565 S
C1834 C1826 1.574 . S
C1834 H1829 0.949 . S
C1834 C1840 1.402 . S
C1835 C1819 1.314 1_565 S
C1835 H1827 0.950 . S
C1835 C1833 1.327 . S
C1836 C1824 1.375 . S
C1836 H1830 0.950 . S
C1836 C1837 1.327 . S
C1837 H1831 0.950 . S
C1837 C1836 1.327 . S
C1837 C1841 1.456 . S
C1838 C1821 1.574 . S
C1838 H1832 0.949 . S
C1838 C1842 1.337 1_565 S
C1839 C1820 1.461 . S
C1839 C1833 1.397 1_545 S
C1839 C1840 1.523 . S
C1840 C1821 1.335 1_545 S
C1840 C1834 1.402 . S
C1840 C1839 1.523 . S
C1841 C1825 1.402 1_545 S
C1841 C1837 1.456 . S
C1841 C1842 1.523 . S
C1842 C1826 1.400 . S
C1842 C1838 1.337 1_545 S
C1842 C1841 1.523 . S
H1843 C1818 0.950 . S
H1844 C1820 0.950 . S
H1845 C1821 0.949 . S
H1846 C1823 0.950 . S
H1847 C1825 0.950 . S
C1848 C1849 1.349 . S
C1848 C1850 1.327 . S
C1848 H1873 0.950 . S
C1849 C1848 1.349 . S
C1849 C1865 1.352 . S
C1850 C1848 1.327 . S
C1850 C1869 1.429 . S
C1850 H1874 0.950 . S
C1851 C1868 1.574 . S
C1851 C1870 1.373 . S
C1851 H1875 0.947 1_455 S
H1852 C1856 0.949 . S
C1853 C1854 1.349 . S
C1853 C1855 1.327 . S
C1853 H1876 0.951 . S
C1854 C1853 1.349 . S
C1854 C1866 1.349 . S
C1855 C1853 1.327 . S
C1855 C1871 1.429 . S
C1855 H1877 0.950 . S
C1856 H1852 0.949 . S
C1856 C1864 1.574 . S
C1856 C1872 1.368 . S
H1857 C1865 0.948 1_655 S
H1858 C1863 0.948 1_655 S
H1859 C1864 0.949 . S
H1860 C1866 0.950 . S
H1861 C1867 0.950 . S
H1862 C1868 0.947 . S
C1863 H1858 0.948 1_455 S
C1863 C1865 1.327 . S
C1863 C1869 1.432 . S
C1864 C1856 1.574 . S
C1864 H1859 0.949 . S
C1864 C1870 1.368 . S
C1865 C1849 1.352 . S
C1865 H1857 0.948 1_455 S
C1865 C1863 1.327 . S
C1866 C1854 1.349 . S
C1866 H1860 0.950 . S
C1866 C1867 1.327 . S
C1867 H1861 0.950 . S
C1867 C1866 1.327 . S
C1867 C1871 1.429 . S
C1868 C1851 1.574 . S
C1868 H1862 0.947 . S
C1868 C1872 1.373 . S
C1869 C1850 1.429 . S
C1869 C1863 1.432 . S
C1869 C1870 1.523 . S
C1870 C1851 1.373 . S
C1870 C1864 1.368 . S
C1870 C1869 1.523 . S
C1871 C1855 1.429 . S
C1871 C1867 1.429 . S
C1871 C1872 1.523 . S
C1872 C1856 1.368 . S
C1872 C1868 1.373 . S
C1872 C1871 1.523 . S
H1873 C1848 0.950 . S
H1874 C1850 0.950 . S
H1875 C1851 0.947 1_655 S
H1876 C1853 0.951 . S
H1877 C1855 0.950 . S
C1878 C1879 1.312 1_565 S
C1878 C1880 1.327 . S
C1878 H1903 0.950 . S
C1879 C1878 1.312 1_545 S
C1879 C1895 1.386 . S
C1880 C1878 1.327 . S
C1880 C1899 1.395 1_565 S
C1880 H1904 0.950 . S
C1881 C1898 1.574 . S
C1881 C1900 1.404 . S
C1881 H1905 0.949 . S
H1882 C1886 0.949 . S
C1883 C1884 1.376 . S
C1883 C1885 1.327 . S
C1883 H1906 0.950 . S
C1884 C1883 1.376 . S
C1884 C1896 1.322 1_545 S
C1885 C1883 1.327 . S
C1885 C1901 1.457 . S
C1885 H1907 0.950 . S
C1886 H1882 0.949 . S
C1886 C1894 1.574 . S
C1886 C1902 1.336 1_565 S
H1887 C1895 0.950 . S
H1888 C1893 0.950 . S
H1889 C1894 0.949 . S
H1890 C1896 0.950 . S
H1891 C1897 0.950 . S
H1892 C1898 0.949 . S
C1893 H1888 0.950 . S
C1893 C1895 1.327 . S
C1893 C1899 1.463 . S
C1894 C1886 1.574 . S
C1894 H1889 0.949 . S
C1894 C1900 1.333 1_565 S
C1895 C1879 1.386 . S
C1895 H1887 0.950 . S
C1895 C1893 1.327 . S
C1896 C1884 1.322 1_565 S
C1896 H1890 0.950 . S
C1896 C1897 1.327 . S
C1897 H1891 0.950 . S
C1897 C1896 1.327 . S
C1897 C1901 1.400 1_565 S
C1898 C1881 1.574 . S
C1898 H1892 0.949 . S
C1898 C1902 1.401 . S
C1899 C1880 1.395 1_545 S
C1899 C1893 1.463 . S
C1899 C1900 1.523 . S
C1900 C1881 1.404 . S
C1900 C1894 1.333 1_545 S
C1900 C1899 1.523 . S
C1901 C1885 1.457 . S
C1901 C1897 1.400 1_545 S
C1901 C1902 1.523 . S
C1902 C1886 1.336 1_545 S
C1902 C1898 1.401 . S
C1902 C1901 1.523 . S
H1903 C1878 0.950 . S
H1904 C1880 0.950 . S
H1905 C1881 0.949 . S
H1906 C1883 0.950 . S
H1907 C1885 0.950 . S
C1908 C1909 1.349 1_655 S
C1908 C1910 1.327 . S
C1908 H1933 0.950 . S
C1909 C1908 1.349 1_455 S
C1909 C1925 1.349 . S
C1910 C1908 1.327 . S
C1910 C1929 1.429 1_655 S
C1910 H1934 0.950 . S
C1911 C1928 1.574 . S
C1911 C1930 1.368 . S
C1911 H1935 0.949 . S
H1912 C1916 0.949 . S
C1913 C1914 1.349 . S
C1913 C1915 1.327 . S
C1913 H1936 0.950 . S
C1914 C1913 1.349 . S
C1914 C1926 1.349 1_455 S
C1915 C1913 1.327 . S
C1915 C1931 1.429 . S
C1915 H1937 0.950 . S
C1916 H1912 0.949 . S
C1916 C1924 1.574 . S
C1916 C1932 1.368 1_655 S
H1917 C1925 0.950 . S
H1918 C1923 0.950 . S
H1919 C1924 0.949 . S
H1920 C1926 0.950 . S
H1921 C1927 0.950 . S
H1922 C1928 0.949 . S
C1923 H1918 0.950 . S
C1923 C1925 1.327 . S
C1923 C1929 1.429 . S
C1924 C1916 1.574 . S
C1924 H1919 0.949 . S
C1924 C1930 1.368 1_655 S
C1925 C1909 1.349 . S
C1925 H1917 0.950 . S
C1925 C1923 1.327 . S
C1926 C1914 1.349 1_655 S
C1926 H1920 0.950 . S
C1926 C1927 1.327 . S
C1927 H1921 0.950 . S
C1927 C1926 1.327 . S
C1927 C1931 1.429 1_655 S
C1928 C1911 1.574 . S
C1928 H1922 0.949 . S
C1928 C1932 1.368 . S
C1929 C1910 1.429 1_455 S
C1929 C1923 1.429 . S
C1929 C1930 1.523 . S
C1930 C1911 1.368 . S
C1930 C1924 1.368 1_455 S
C1930 C1929 1.523 . S
C1931 C1915 1.429 . S
C1931 C1927 1.429 1_455 S
C1931 C1932 1.523 . S
C1932 C1916 1.368 1_455 S
C1932 C1928 1.368 . S
C1932 C1931 1.523 . S
H1933 C1908 0.950 . S
H1934 C1910 0.950 . S
H1935 C1911 0.949 . S
H1936 C1913 0.950 . S
H1937 C1915 0.950 . S
C1938 C1939 1.386 . S
C1938 C1940 1.327 . S
C1938 H1963 0.950 . S
C1939 C1938 1.386 . S
C1939 C1955 1.312 1_545 S
C1940 C1938 1.327 . S
C1940 C1959 1.462 . S
C1940 H1964 0.950 . S
C1941 C1958 1.574 . S
C1941 C1960 1.333 1_565 S
C1941 H1965 0.949 . S
H1942 C1946 0.949 . S
C1943 C1944 1.322 1_565 S
C1943 C1945 1.327 . S
C1943 H1966 0.950 . S
C1944 C1943 1.322 1_545 S
C1944 C1956 1.376 . S
C1945 C1943 1.327 . S
C1945 C1961 1.400 1_565 S
C1945 H1967 0.950 . S
C1946 H1942 0.949 . S
C1946 C1954 1.574 . S
C1946 C1962 1.401 . S
H1947 C1955 0.950 . S
H1948 C1953 0.950 . S
H1949 C1954 0.949 . S
H1950 C1956 0.950 . S
H1951 C1957 0.950 . S
H1952 C1958 0.949 . S
C1953 H1948 0.950 . S
C1953 C1955 1.327 . S
C1953 C1959 1.396 1_565 S
C1954 C1946 1.574 . S
C1954 H1949 0.949 . S
C1954 C1960 1.404 . S
C1955 C1939 1.312 1_565 S
C1955 H1947 0.950 . S
C1955 C1953 1.327 . S
C1956 C1944 1.376 . S
C1956 H1950 0.950 . S
C1956 C1957 1.327 . S
C1957 H1951 0.950 . S
C1957 C1956 1.327 . S
C1957 C1961 1.457 . S
C1958 C1941 1.574 . S
C1958 H1952 0.949 . S
C1958 C1962 1.336 1_565 S
C1959 C1940 1.462 . S
C1959 C1953 1.396 1_545 S
C1959 C1960 1.523 . S
C1960 C1941 1.333 1_545 S
C1960 C1954 1.404 . S
C1960 C1959 1.523 . S
C1961 C1945 1.400 1_545 S
C1961 C1957 1.457 . S
C1961 C1962 1.523 . S
C1962 C1946 1.401 . S
C1962 C1958 1.336 1_545 S
C1962 C1961 1.523 . S
H1963 C1938 0.950 . S
H1964 C1940 0.950 . S
H1965 C1941 0.949 . S
H1966 C1943 0.950 . S
H1967 C1945 0.950 . S
C1968 C1969 1.349 . S
C1968 C1970 1.327 . S
C1968 H1993 0.950 . S
C1969 C1968 1.349 . S
C1969 C1985 1.349 1_455 S
C1970 C1968 1.327 . S
C1970 C1989 1.429 . S
C1970 H1994 0.950 . S
C1971 C1988 1.574 . S
C1971 C1990 1.368 1_655 S
C1971 H1995 0.949 . S
H1972 C1976 0.949 . S
C1973 C1974 1.349 1_655 S
C1973 C1975 1.327 . S
C1973 H1996 0.950 . S
C1974 C1973 1.349 1_455 S
C1974 C1986 1.349 . S
C1975 C1973 1.327 . S
C1975 C1991 1.429 1_655 S
C1975 H1997 0.950 . S
C1976 H1972 0.949 . S
C1976 C1984 1.574 . S
C1976 C1992 1.368 . S
H1977 C1985 0.950 . S
H1978 C1983 0.950 . S
H1979 C1984 0.949 . S
H1980 C1986 0.950 . S
H1981 C1987 0.950 . S
H1982 C1988 0.949 . S
C1983 H1978 0.950 . S
C1983 C1985 1.327 . S
C1983 C1989 1.429 1_655 S
C1984 C1976 1.574 . S
C1984 H1979 0.949 . S
C1984 C1990 1.368 . S
C1985 C1969 1.349 1_655 S
C1985 H1977 0.950 . S
C1985 C1983 1.327 . S
C1986 C1974 1.349 . S
C1986 H1980 0.950 . S
C1986 C1987 1.327 . S
C1987 H1981 0.950 . S
C1987 C1986 1.327 . S
C1987 C1991 1.429 . S
C1988 C1971 1.574 . S
C1988 H1982 0.949 . S
C1988 C1992 1.368 1_655 S
C1989 C1970 1.429 . S
C1989 C1983 1.429 1_455 S
C1989 C1990 1.523 . S
C1990 C1971 1.368 1_455 S
C1990 C1984 1.368 . S
C1990 C1989 1.523 . S
C1991 C1975 1.429 1_455 S
C1991 C1987 1.429 . S
C1991 C1992 1.523 . S
C1992 C1976 1.368 . S
C1992 C1988 1.368 1_455 S
C1992 C1991 1.523 . S
H1993 C1968 0.950 . S
H1994 C1970 0.950 . S
H1995 C1971 0.949 . S
H1996 C1973 0.950 . S
H1997 C1975 0.950 . S
C1998 C1999 1.385 . S
C1998 C2000 1.327 . S
C1998 H2023 0.950 . S
C1999 C1998 1.385 . S
C1999 C2015 1.314 1_545 S
C2000 C1998 1.327 . S
C2000 C2019 1.461 . S
C2000 H2024 0.950 . S
C2001 C2018 1.574 . S
C2001 C2020 1.335 1_565 S
C2001 H2025 0.949 . S
H2002 C2006 0.949 . S
C2003 C2004 1.323 1_565 S
C2003 C2005 1.327 . S
C2003 H2026 0.950 . S
C2004 C2003 1.323 1_545 S
C2004 C2016 1.375 . S
C2005 C2003 1.327 . S
C2005 C2021 1.402 1_565 S
C2005 H2027 0.950 . S
C2006 H2002 0.949 . S
C2006 C2014 1.574 . S
C2006 C2022 1.400 . S
H2007 C2015 0.950 . S
H2008 C2013 0.950 . S
H2009 C2014 0.949 . S
H2010 C2016 0.950 . S
H2011 C2017 0.950 . S
H2012 C2018 0.949 . S
C2013 H2008 0.950 . S
C2013 C2015 1.327 . S
C2013 C2019 1.397 1_565 S
C2014 C2006 1.574 . S
C2014 H2009 0.949 . S
C2014 C2020 1.402 . S
C2015 C1999 1.314 1_565 S
C2015 H2007 0.950 . S
C2015 C2013 1.327 . S
C2016 C2004 1.375 . S
C2016 H2010 0.950 . S
C2016 C2017 1.327 . S
C2017 H2011 0.950 . S
C2017 C2016 1.327 . S
C2017 C2021 1.456 . S
C2018 C2001 1.574 . S
C2018 H2012 0.949 . S
C2018 C2022 1.337 1_565 S
C2019 C2000 1.461 . S
C2019 C2013 1.397 1_545 S
C2019 C2020 1.523 . S
C2020 C2001 1.335 1_545 S
C2020 C2014 1.402 . S
C2020 C2019 1.523 . S
C2021 C2005 1.402 1_545 S
C2021 C2017 1.456 . S
C2021 C2022 1.523 . S
C2022 C2006 1.400 . S
C2022 C2018 1.337 1_545 S
C2022 C2021 1.523 . S
H2023 C1998 0.950 . S
H2024 C2000 0.950 . S
H2025 C2001 0.949 . S
H2026 C2003 0.950 . S
H2027 C2005 0.950 . S
C2028 C2029 1.349 . S
C2028 C2030 1.327 . S
C2028 H2053 0.950 . S
C2029 C2028 1.349 . S
C2029 C2045 1.349 1_545 S
C2030 C2028 1.327 . S
C2030 C2049 1.429 . S
C2030 H2054 0.950 . S
C2031 C2048 1.574 . S
C2031 C2050 1.368 1_565 S
C2031 H2055 0.949 . S
H2032 C2036 0.949 . S
C2033 C2034 1.349 1_565 S
C2033 C2035 1.327 . S
C2033 H2056 0.950 . S
C2034 C2033 1.349 1_545 S
C2034 C2046 1.349 . S
C2035 C2033 1.327 . S
C2035 C2051 1.429 1_565 S
C2035 H2057 0.950 . S
C2036 H2032 0.949 . S
C2036 C2044 1.574 . S
C2036 C2052 1.368 . S
H2037 C2045 0.950 . S
H2038 C2043 0.950 . S
H2039 C2044 0.949 . S
H2040 C2046 0.950 . S
H2041 C2047 0.950 . S
H2042 C2048 0.949 . S
C2043 H2038 0.950 . S
C2043 C2045 1.327 . S
C2043 C2049 1.429 1_565 S
C2044 C2036 1.574 . S
C2044 H2039 0.949 . S
C2044 C2050 1.368 . S
C2045 C2029 1.349 1_565 S
C2045 H2037 0.950 . S
C2045 C2043 1.327 . S
C2046 C2034 1.349 . S
C2046 H2040 0.950 . S
C2046 C2047 1.327 . S
C2047 H2041 0.950 . S
C2047 C2046 1.327 . S
C2047 C2051 1.429 . S
C2048 C2031 1.574 . S
C2048 H2042 0.949 . S
C2048 C2052 1.368 1_565 S
C2049 C2030 1.429 . S
C2049 C2043 1.429 1_545 S
C2049 C2050 1.523 . S
C2050 C2031 1.368 1_545 S
C2050 C2044 1.368 . S
C2050 C2049 1.523 . S
C2051 C2035 1.429 1_545 S
C2051 C2047 1.429 . S
C2051 C2052 1.523 . S
C2052 C2036 1.368 . S
C2052 C2048 1.368 1_545 S
C2052 C2051 1.523 . S
H2053 C2028 0.950 . S
H2054 C2030 0.950 . S
H2055 C2031 0.949 . S
H2056 C2033 0.950 . S
H2057 C2035 0.950 . S
C2058 C2059 1.349 . S
C2058 C2060 1.327 . S
C2058 H2083 0.950 . S
C2059 C2058 1.349 . S
C2059 C2075 1.349 1_455 S
C2060 C2058 1.327 . S
C2060 C2079 1.429 . S
C2060 H2084 0.950 . S
C2061 C2078 1.574 . S
C2061 C2080 1.368 1_655 S
C2061 H2085 0.949 . S
H2062 C2066 0.949 . S
C2063 C2064 1.349 1_655 S
C2063 C2065 1.327 . S
C2063 H2086 0.950 . S
C2064 C2063 1.349 1_455 S
C2064 C2076 1.349 . S
C2065 C2063 1.327 . S
C2065 C2081 1.429 1_655 S
C2065 H2087 0.950 . S
C2066 H2062 0.949 . S
C2066 C2074 1.574 . S
C2066 C2082 1.368 . S
H2067 C2075 0.950 . S
H2068 C2073 0.950 . S
H2069 C2074 0.949 . S
H2070 C2076 0.950 . S
H2071 C2077 0.950 . S
H2072 C2078 0.949 . S
C2073 H2068 0.950 . S
C2073 C2075 1.327 . S
C2073 C2079 1.429 1_655 S
C2074 C2066 1.574 . S
C2074 H2069 0.949 . S
C2074 C2080 1.368 . S
C2075 C2059 1.349 1_655 S
C2075 H2067 0.950 . S
C2075 C2073 1.327 . S
C2076 C2064 1.349 . S
C2076 H2070 0.950 . S
C2076 C2077 1.327 . S
C2077 H2071 0.950 . S
C2077 C2076 1.327 . S
C2077 C2081 1.429 . S
C2078 C2061 1.574 . S
C2078 H2072 0.949 . S
C2078 C2082 1.368 1_655 S
C2079 C2060 1.429 . S
C2079 C2073 1.429 1_455 S
C2079 C2080 1.523 . S
C2080 C2061 1.368 1_455 S
C2080 C2074 1.368 . S
C2080 C2079 1.523 . S
C2081 C2065 1.429 1_455 S
C2081 C2077 1.429 . S
C2081 C2082 1.523 . S
C2082 C2066 1.368 . S
C2082 C2078 1.368 1_455 S
C2082 C2081 1.523 . S
H2083 C2058 0.950 . S
H2084 C2060 0.950 . S
H2085 C2061 0.949 . S
H2086 C2063 0.950 . S
H2087 C2065 0.950 . S
C2088 C2089 1.349 . S
C2088 C2090 1.327 . S
C2088 H2113 0.950 . S
C2089 C2088 1.349 . S
C2089 C2105 1.349 1_545 S
C2090 C2088 1.327 . S
C2090 C2109 1.429 . S
C2090 H2114 0.950 . S
C2091 C2108 1.574 . S
C2091 C2110 1.368 1_565 S
C2091 H2115 0.949 . S
H2092 C2096 0.949 . S
C2093 C2094 1.349 1_565 S
C2093 C2095 1.327 . S
C2093 H2116 0.950 . S
C2094 C2093 1.349 1_545 S
C2094 C2106 1.349 . S
C2095 C2093 1.327 . S
C2095 C2111 1.429 1_565 S
C2095 H2117 0.950 . S
C2096 H2092 0.949 . S
C2096 C2104 1.574 . S
C2096 C2112 1.368 . S
H2097 C2105 0.950 . S
H2098 C2103 0.950 . S
H2099 C2104 0.949 . S
H2100 C2106 0.950 . S
H2101 C2107 0.950 . S
H2102 C2108 0.949 . S
C2103 H2098 0.950 . S
C2103 C2105 1.327 . S
C2103 C2109 1.429 1_565 S
C2104 C2096 1.574 . S
C2104 H2099 0.949 . S
C2104 C2110 1.368 . S
C2105 C2089 1.349 1_565 S
C2105 H2097 0.950 . S
C2105 C2103 1.327 . S
C2106 C2094 1.349 . S
C2106 H2100 0.950 . S
C2106 C2107 1.327 . S
C2107 H2101 0.950 . S
C2107 C2106 1.327 . S
C2107 C2111 1.429 . S
C2108 C2091 1.574 . S
C2108 H2102 0.949 . S
C2108 C2112 1.368 1_565 S
C2109 C2090 1.429 . S
C2109 C2103 1.429 1_545 S
C2109 C2110 1.523 . S
C2110 C2091 1.368 1_545 S
C2110 C2104 1.368 . S
C2110 C2109 1.523 . S
C2111 C2095 1.429 1_545 S
C2111 C2107 1.429 . S
C2111 C2112 1.523 . S
C2112 C2096 1.368 . S
C2112 C2108 1.368 1_545 S
C2112 C2111 1.523 . S
H2113 C2088 0.950 . S
H2114 C2090 0.950 . S
H2115 C2091 0.949 . S
H2116 C2093 0.950 . S
H2117 C2095 0.950 . S
C2118 C2119 1.349 . S
C2118 C2120 1.327 . S
C2118 H2143 0.950 . S
C2119 C2118 1.349 . S
C2119 C2135 1.349 1_455 S
C2120 C2118 1.327 . S
C2120 C2139 1.429 . S
C2120 H2144 0.950 . S
C2121 C2138 1.574 . S
C2121 C2140 1.368 1_655 S
C2121 H2145 0.949 . S
H2122 C2126 0.949 . S
C2123 C2124 1.349 1_655 S
C2123 C2125 1.327 . S
C2123 H2146 0.950 . S
C2124 C2123 1.349 1_455 S
C2124 C2136 1.349 . S
C2125 C2123 1.327 . S
C2125 C2141 1.429 1_655 S
C2125 H2147 0.950 . S
C2126 H2122 0.949 . S
C2126 C2134 1.574 . S
C2126 C2142 1.368 . S
H2127 C2135 0.950 . S
H2128 C2133 0.950 . S
H2129 C2134 0.949 . S
H2130 C2136 0.950 . S
H2131 C2137 0.950 . S
H2132 C2138 0.949 . S
C2133 H2128 0.950 . S
C2133 C2135 1.327 . S
C2133 C2139 1.429 1_655 S
C2134 C2126 1.574 . S
C2134 H2129 0.949 . S
C2134 C2140 1.368 . S
C2135 C2119 1.349 1_655 S
C2135 H2127 0.950 . S
C2135 C2133 1.327 . S
C2136 C2124 1.349 . S
C2136 H2130 0.950 . S
C2136 C2137 1.327 . S
C2137 H2131 0.950 . S
C2137 C2136 1.327 . S
C2137 C2141 1.429 . S
C2138 C2121 1.574 . S
C2138 H2132 0.949 . S
C2138 C2142 1.368 1_655 S
C2139 C2120 1.429 . S
C2139 C2133 1.429 1_455 S
C2139 C2140 1.523 . S
C2140 C2121 1.368 1_455 S
C2140 C2134 1.368 . S
C2140 C2139 1.523 . S
C2141 C2125 1.429 1_455 S
C2141 C2137 1.429 . S
C2141 C2142 1.523 . S
C2142 C2126 1.368 . S
C2142 C2138 1.368 1_455 S
C2142 C2141 1.523 . S
H2143 C2118 0.950 . S
H2144 C2120 0.950 . S
H2145 C2121 0.949 . S
H2146 C2123 0.950 . S
H2147 C2125 0.950 . S
C2148 C2149 1.349 1_565 S
C2148 C2150 1.327 . S
C2148 H2173 0.950 . S
C2149 C2148 1.349 1_545 S
C2149 C2165 1.349 . S
C2150 C2148 1.327 . S
C2150 C2169 1.429 1_565 S
C2150 H2174 0.950 . S
C2151 C2168 1.574 . S
C2151 C2170 1.368 . S
C2151 H2175 0.949 . S
H2152 C2156 0.949 . S
C2153 C2154 1.349 . S
C2153 C2155 1.327 . S
C2153 H2176 0.950 . S
C2154 C2153 1.349 . S
C2154 C2166 1.349 1_545 S
C2155 C2153 1.327 . S
C2155 C2171 1.429 . S
C2155 H2177 0.950 . S
C2156 H2152 0.949 . S
C2156 C2164 1.574 . S
C2156 C2172 1.368 1_565 S
H2157 C2165 0.950 . S
H2158 C2163 0.950 . S
H2159 C2164 0.949 . S
H2160 C2166 0.950 . S
H2161 C2167 0.950 . S
H2162 C2168 0.949 . S
C2163 H2158 0.950 . S
C2163 C2165 1.327 . S
C2163 C2169 1.429 . S
C2164 C2156 1.574 . S
C2164 H2159 0.949 . S
C2164 C2170 1.368 1_565 S
C2165 C2149 1.349 . S
C2165 H2157 0.950 . S
C2165 C2163 1.327 . S
C2166 C2154 1.349 1_565 S
C2166 H2160 0.950 . S
C2166 C2167 1.327 . S
C2167 H2161 0.950 . S
C2167 C2166 1.327 . S
C2167 C2171 1.429 1_565 S
C2168 C2151 1.574 . S
C2168 H2162 0.949 . S
C2168 C2172 1.368 . S
C2169 C2150 1.429 1_545 S
C2169 C2163 1.429 . S
C2169 C2170 1.523 . S
C2170 C2151 1.368 . S
C2170 C2164 1.368 1_545 S
C2170 C2169 1.523 . S
C2171 C2155 1.429 . S
C2171 C2167 1.429 1_545 S
C2171 C2172 1.523 . S
C2172 C2156 1.368 1_545 S
C2172 C2168 1.368 . S
C2172 C2171 1.523 . S
H2173 C2148 0.950 . S
H2174 C2150 0.950 . S
H2175 C2151 0.949 . S
H2176 C2153 0.950 . S
H2177 C2155 0.950 . S
C2178 C2179 1.349 1_655 S
C2178 C2180 1.327 . S
C2178 H2203 0.950 . S
C2179 C2178 1.349 1_455 S
C2179 C2195 1.349 . S
C2180 C2178 1.327 . S
C2180 C2199 1.429 1_655 S
C2180 H2204 0.950 . S
C2181 C2198 1.574 . S
C2181 C2200 1.368 . S
C2181 H2205 0.949 . S
H2182 C2186 0.949 . S
C2183 C2184 1.349 . S
C2183 C2185 1.327 . S
C2183 H2206 0.950 . S
C2184 C2183 1.349 . S
C2184 C2196 1.349 1_455 S
C2185 C2183 1.327 . S
C2185 C2201 1.429 . S
C2185 H2207 0.950 . S
C2186 H2182 0.949 . S
C2186 C2194 1.574 . S
C2186 C2202 1.368 1_655 S
H2187 C2195 0.950 . S
H2188 C2193 0.950 . S
H2189 C2194 0.949 . S
H2190 C2196 0.950 . S
H2191 C2197 0.950 . S
H2192 C2198 0.949 . S
C2193 H2188 0.950 . S
C2193 C2195 1.327 . S
C2193 C2199 1.429 . S
C2194 C2186 1.574 . S
C2194 H2189 0.949 . S
C2194 C2200 1.368 1_655 S
C2195 C2179 1.349 . S
C2195 H2187 0.950 . S
C2195 C2193 1.327 . S
C2196 C2184 1.349 1_655 S
C2196 H2190 0.950 . S
C2196 C2197 1.327 . S
C2197 H2191 0.950 . S
C2197 C2196 1.327 . S
C2197 C2201 1.429 1_655 S
C2198 C2181 1.574 . S
C2198 H2192 0.949 . S
C2198 C2202 1.368 . S
C2199 C2180 1.429 1_455 S
C2199 C2193 1.429 . S
C2199 C2200 1.523 . S
C2200 C2181 1.368 . S
C2200 C2194 1.368 1_455 S
C2200 C2199 1.523 . S
C2201 C2185 1.429 . S
C2201 C2197 1.429 1_455 S
C2201 C2202 1.523 . S
C2202 C2186 1.368 1_455 S
C2202 C2198 1.368 . S
C2202 C2201 1.523 . S
H2203 C2178 0.950 . S
H2204 C2180 0.950 . S
H2205 C2181 0.949 . S
H2206 C2183 0.950 . S
H2207 C2185 0.950 . S
C2208 C2209 1.349 . S
C2208 C2210 1.327 . S
C2208 H2233 0.950 . S
C2209 C2208 1.349 . S
C2209 C2225 1.349 1_545 S
C2210 C2208 1.327 . S
C2210 C2229 1.429 . S
C2210 H2234 0.950 . S
C2211 C2228 1.574 . S
C2211 C2230 1.368 1_565 S
C2211 H2235 0.949 . S
H2212 C2216 0.949 . S
C2213 C2214 1.349 1_565 S
C2213 C2215 1.327 . S
C2213 H2236 0.950 . S
C2214 C2213 1.349 1_545 S
C2214 C2226 1.349 . S
C2215 C2213 1.327 . S
C2215 C2231 1.429 1_565 S
C2215 H2237 0.950 . S
C2216 H2212 0.949 . S
C2216 C2224 1.574 . S
C2216 C2232 1.368 . S
H2217 C2225 0.950 . S
H2218 C2223 0.950 . S
H2219 C2224 0.949 . S
H2220 C2226 0.950 . S
H2221 C2227 0.950 . S
H2222 C2228 0.949 . S
C2223 H2218 0.950 . S
C2223 C2225 1.327 . S
C2223 C2229 1.429 1_565 S
C2224 C2216 1.574 . S
C2224 H2219 0.949 . S
C2224 C2230 1.368 . S
C2225 C2209 1.349 1_565 S
C2225 H2217 0.950 . S
C2225 C2223 1.327 . S
C2226 C2214 1.349 . S
C2226 H2220 0.950 . S
C2226 C2227 1.327 . S
C2227 H2221 0.950 . S
C2227 C2226 1.327 . S
C2227 C2231 1.429 . S
C2228 C2211 1.574 . S
C2228 H2222 0.949 . S
C2228 C2232 1.368 1_565 S
C2229 C2210 1.429 . S
C2229 C2223 1.429 1_545 S
C2229 C2230 1.523 . S
C2230 C2211 1.368 1_545 S
C2230 C2224 1.368 . S
C2230 C2229 1.523 . S
C2231 C2215 1.429 1_545 S
C2231 C2227 1.429 . S
C2231 C2232 1.523 . S
C2232 C2216 1.368 . S
C2232 C2228 1.368 1_545 S
C2232 C2231 1.523 . S
H2233 C2208 0.950 . S
H2234 C2210 0.950 . S
H2235 C2211 0.949 . S
H2236 C2213 0.950 . S
H2237 C2215 0.950 . S
C2238 C2239 1.349 . S
C2238 C2240 1.327 . S
C2238 H2263 0.950 . S
C2239 C2238 1.349 . S
C2239 C2255 1.349 1_455 S
C2240 C2238 1.327 . S
C2240 C2259 1.429 . S
C2240 H2264 0.950 . S
C2241 C2258 1.574 . S
C2241 C2260 1.368 1_655 S
C2241 H2265 0.949 . S
H2242 C2246 0.949 . S
C2243 C2244 1.349 1_655 S
C2243 C2245 1.327 . S
C2243 H2266 0.950 . S
C2244 C2243 1.349 1_455 S
C2244 C2256 1.349 . S
C2245 C2243 1.327 . S
C2245 C2261 1.429 1_655 S
C2245 H2267 0.950 . S
C2246 H2242 0.949 . S
C2246 C2254 1.574 . S
C2246 C2262 1.368 . S
H2247 C2255 0.950 . S
H2248 C2253 0.950 . S
H2249 C2254 0.949 . S
H2250 C2256 0.950 . S
H2251 C2257 0.950 . S
H2252 C2258 0.949 . S
C2253 H2248 0.950 . S
C2253 C2255 1.327 . S
C2253 C2259 1.429 1_655 S
C2254 C2246 1.574 . S
C2254 H2249 0.949 . S
C2254 C2260 1.368 . S
C2255 C2239 1.349 1_655 S
C2255 H2247 0.950 . S
C2255 C2253 1.327 . S
C2256 C2244 1.349 . S
C2256 H2250 0.950 . S
C2256 C2257 1.327 . S
C2257 H2251 0.950 . S
C2257 C2256 1.327 . S
C2257 C2261 1.429 . S
C2258 C2241 1.574 . S
C2258 H2252 0.949 . S
C2258 C2262 1.368 1_655 S
C2259 C2240 1.429 . S
C2259 C2253 1.429 1_455 S
C2259 C2260 1.523 . S
C2260 C2241 1.368 1_455 S
C2260 C2254 1.368 . S
C2260 C2259 1.523 . S
C2261 C2245 1.429 1_455 S
C2261 C2257 1.429 . S
C2261 C2262 1.523 . S
C2262 C2246 1.368 . S
C2262 C2258 1.368 1_455 S
C2262 C2261 1.523 . S
H2263 C2238 0.950 . S
H2264 C2240 0.950 . S
H2265 C2241 0.949 . S
H2266 C2243 0.950 . S
H2267 C2245 0.950 . S
C2268 C2269 1.337 1_556 S
C2268 C2270 1.327 . S
C2268 H2293 0.950 . S
C2269 C2268 1.337 1_554 S
C2269 C2285 1.361 . S
C2270 C2268 1.327 . S
C2270 C2289 1.417 1_556 S
C2270 H2294 0.950 . S
C2271 C2288 1.574 . S
C2271 C2290 1.381 . S
C2271 H2295 0.949 . S
H2272 C2276 0.949 . S
C2273 C2274 1.362 . S
C2273 C2275 1.327 . S
C2273 H2296 0.950 . S
C2274 C2273 1.362 . S
C2274 C2286 1.336 1_554 S
C2275 C2273 1.327 . S
C2275 C2291 1.441 . S
C2275 H2297 0.950 . S
C2276 H2272 0.949 . S
C2276 C2284 1.574 . S
C2276 C2292 1.355 1_556 S
H2277 C2285 0.950 . S
H2278 C2283 0.950 . S
H2279 C2284 0.949 . S
H2280 C2286 0.950 . S
H2281 C2287 0.950 . S
H2282 C2288 0.949 . S
C2283 H2278 0.950 . S
C2283 C2285 1.327 . S
C2283 C2289 1.440 . S
C2284 C2276 1.574 . S
C2284 H2279 0.949 . S
C2284 C2290 1.355 1_556 S
C2285 C2269 1.361 . S
C2285 H2277 0.950 . S
C2285 C2283 1.327 . S
C2286 C2274 1.336 1_556 S
C2286 H2280 0.950 . S
C2286 C2287 1.327 . S
C2287 H2281 0.950 . S
C2287 C2286 1.327 . S
C2287 C2291 1.416 1_556 S
C2288 C2271 1.574 . S
C2288 H2282 0.949 . S
C2288 C2292 1.382 . S
C2289 C2270 1.417 1_554 S
C2289 C2283 1.440 . S
C2289 C2290 1.523 . S
C2290 C2271 1.381 . S
C2290 C2284 1.355 1_554 S
C2290 C2289 1.523 . S
C2291 C2275 1.441 . S
C2291 C2287 1.416 1_554 S
C2291 C2292 1.523 . S
C2292 C2276 1.355 1_554 S
C2292 C2288 1.382 . S
C2292 C2291 1.523 . S
H2293 C2268 0.950 . S
H2294 C2270 0.950 . S
H2295 C2271 0.949 . S
H2296 C2273 0.950 . S
H2297 C2275 0.950 . S
C2298 C2299 1.337 1_556 S
C2298 C2300 1.327 . S
C2298 H2323 0.950 . S
C2299 C2298 1.337 1_554 S
C2299 C2315 1.361 . S
C2300 C2298 1.327 . S
C2300 C2319 1.417 1_556 S
C2300 H2324 0.950 . S
C2301 C2318 1.574 . S
C2301 C2320 1.382 . S
C2301 H2325 0.949 . S
H2302 C2306 0.949 . S
C2303 C2304 1.362 . S
C2303 C2305 1.327 . S
C2303 H2326 0.950 . S
C2304 C2303 1.362 . S
C2304 C2316 1.336 1_554 S
C2305 C2303 1.327 . S
C2305 C2321 1.441 . S
C2305 H2327 0.950 . S
C2306 H2302 0.949 . S
C2306 C2314 1.574 . S
C2306 C2322 1.355 1_556 S
H2307 C2315 0.950 . S
H2308 C2313 0.950 . S
H2309 C2314 0.949 . S
H2310 C2316 0.950 . S
H2311 C2317 0.950 . S
H2312 C2318 0.949 . S
C2313 H2308 0.950 . S
C2313 C2315 1.327 . S
C2313 C2319 1.440 . S
C2314 C2306 1.574 . S
C2314 H2309 0.949 . S
C2314 C2320 1.355 1_556 S
C2315 C2299 1.361 . S
C2315 H2307 0.950 . S
C2315 C2313 1.327 . S
C2316 C2304 1.336 1_556 S
C2316 H2310 0.950 . S
C2316 C2317 1.327 . S
C2317 H2311 0.950 . S
C2317 C2316 1.327 . S
C2317 C2321 1.416 1_556 S
C2318 C2301 1.574 . S
C2318 H2312 0.949 . S
C2318 C2322 1.382 . S
C2319 C2300 1.417 1_554 S
C2319 C2313 1.440 . S
C2319 C2320 1.523 . S
C2320 C2301 1.382 . S
C2320 C2314 1.355 1_554 S
C2320 C2319 1.523 . S
C2321 C2305 1.441 . S
C2321 C2317 1.416 1_554 S
C2321 C2322 1.523 . S
C2322 C2306 1.355 1_554 S
C2322 C2318 1.382 . S
C2322 C2321 1.523 . S
H2323 C2298 0.950 . S
H2324 C2300 0.950 . S
H2325 C2301 0.949 . S
H2326 C2303 0.950 . S
H2327 C2305 0.950 . S
C2328 C2329 1.358 . S
C2328 C2330 1.327 . S
C2328 H2353 0.950 . S
C2329 C2328 1.358 . S
C2329 C2345 1.340 1_554 S
C2330 C2328 1.327 . S
C2330 C2349 1.436 . S
C2330 H2354 0.950 . S
C2331 C2348 1.574 . S
C2331 C2350 1.362 1_556 S
C2331 H2355 0.949 . S
H2332 C2336 0.949 . S
C2333 C2334 1.348 1_556 S
C2333 C2335 1.327 . S
C2333 H2356 0.950 . S
C2334 C2333 1.348 1_554 S
C2334 C2346 1.350 . S
C2335 C2333 1.327 . S
C2335 C2351 1.426 1_556 S
C2335 H2357 0.950 . S
C2336 H2332 0.949 . S
C2336 C2344 1.574 . S
C2336 C2352 1.373 . S
H2337 C2345 0.950 . S
H2338 C2343 0.950 . S
H2339 C2344 0.949 . S
H2340 C2346 0.950 . S
H2341 C2347 0.950 . S
H2342 C2348 0.949 . S
C2343 H2338 0.950 . S
C2343 C2345 1.327 . S
C2343 C2349 1.422 1_556 S
C2344 C2336 1.574 . S
C2344 H2339 0.949 . S
C2344 C2350 1.375 . S
C2345 C2329 1.340 1_556 S
C2345 H2337 0.950 . S
C2345 C2343 1.327 . S
C2346 C2334 1.350 . S
C2346 H2340 0.950 . S
C2346 C2347 1.327 . S
C2347 H2341 0.950 . S
C2347 C2346 1.327 . S
C2347 C2351 1.431 . S
C2348 C2331 1.574 . S
C2348 H2342 0.949 . S
C2348 C2352 1.364 1_556 S
C2349 C2330 1.436 . S
C2349 C2343 1.422 1_554 S
C2349 C2350 1.523 . S
C2350 C2331 1.362 1_554 S
C2350 C2344 1.375 . S
C2350 C2349 1.523 . S
C2351 C2335 1.426 1_554 S
C2351 C2347 1.431 . S
C2351 C2352 1.523 . S
C2352 C2336 1.373 . S
C2352 C2348 1.364 1_554 S
C2352 C2351 1.523 . S
H2353 C2328 0.950 . S
H2354 C2330 0.950 . S
H2355 C2331 0.949 . S
H2356 C2333 0.950 . S
H2357 C2335 0.950 . S
C2358 C2359 1.357 . S
C2358 C2360 1.327 . S
C2358 H2383 0.950 . S
C2359 C2358 1.357 . S
C2359 C2375 1.341 1_554 S
C2360 C2358 1.327 . S
C2360 C2379 1.438 . S
C2360 H2384 0.950 . S
C2361 C2378 1.574 . S
C2361 C2380 1.358 1_556 S
C2361 H2385 0.949 . S
H2362 C2366 0.949 . S
C2363 C2364 1.336 1_556 S
C2363 C2365 1.327 . S
C2363 H2386 0.950 . S
C2364 C2363 1.336 1_554 S
C2364 C2376 1.361 . S
C2365 C2363 1.327 . S
C2365 C2381 1.418 1_556 S
C2365 H2387 0.950 . S
C2366 H2362 0.949 . S
C2366 C2374 1.574 . S
C2366 C2382 1.380 . S
H2367 C2375 0.950 . S
H2368 C2373 0.950 . S
H2369 C2374 0.949 . S
H2370 C2376 0.950 . S
H2371 C2377 0.950 . S
H2372 C2378 0.949 . S
C2373 H2368 0.950 . S
C2373 C2375 1.327 . S
C2373 C2379 1.420 1_556 S
C2374 C2366 1.574 . S
C2374 H2369 0.949 . S
C2374 C2380 1.379 . S
C2375 C2359 1.341 1_556 S
C2375 H2367 0.950 . S
C2375 C2373 1.327 . S
C2376 C2364 1.361 . S
C2376 H2370 0.950 . S
C2376 C2377 1.327 . S
C2377 H2371 0.950 . S
C2377 C2376 1.327 . S
C2377 C2381 1.440 . S
C2378 C2361 1.574 . S
C2378 H2372 0.949 . S
C2378 C2382 1.357 1_556 S
C2379 C2360 1.438 . S
C2379 C2373 1.420 1_554 S
C2379 C2380 1.523 . S
C2380 C2361 1.358 1_554 S
C2380 C2374 1.379 . S
C2380 C2379 1.523 . S
C2381 C2365 1.418 1_554 S
C2381 C2377 1.440 . S
C2381 C2382 1.523 . S
C2382 C2366 1.380 . S
C2382 C2378 1.357 1_554 S
C2382 C2381 1.523 . S
H2383 C2358 0.950 . S
H2384 C2360 0.950 . S
H2385 C2361 0.949 . S
H2386 C2363 0.950 . S
H2387 C2365 0.950 . S
C2388 C2389 1.344 1_556 S
C2388 C2390 1.327 . S
C2388 H2413 0.950 . S
C2389 C2388 1.344 1_554 S
C2389 C2405 1.354 . S
C2390 C2388 1.327 . S
C2390 C2409 1.425 1_556 S
C2390 H2414 0.950 . S
C2391 C2408 1.574 . S
C2391 C2410 1.371 . S
C2391 H2415 0.949 . S
H2392 C2396 0.949 . S
C2393 C2394 1.348 . S
C2393 C2395 1.327 . S
C2393 H2416 0.950 . S
C2394 C2393 1.348 . S
C2394 C2406 1.349 1_554 S
C2395 C2393 1.327 . S
C2395 C2411 1.429 . S
C2395 H2417 0.950 . S
C2396 H2392 0.949 . S
C2396 C2404 1.574 . S
C2396 C2412 1.367 1_556 S
H2397 C2405 0.950 . S
H2398 C2403 0.950 . S
H2399 C2404 0.949 . S
H2400 C2406 0.950 . S
H2401 C2407 0.950 . S
H2402 C2408 0.949 . S
C2403 H2398 0.950 . S
C2403 C2405 1.327 . S
C2403 C2409 1.432 . S
C2404 C2396 1.574 . S
C2404 H2399 0.949 . S
C2404 C2410 1.365 1_556 S
C2405 C2389 1.354 . S
C2405 H2397 0.950 . S
C2405 C2403 1.327 . S
C2406 C2394 1.349 1_556 S
C2406 H2400 0.950 . S
C2406 C2407 1.327 . S
C2407 H2401 0.950 . S
C2407 C2406 1.327 . S
C2407 C2411 1.428 1_556 S
C2408 C2391 1.574 . S
C2408 H2402 0.949 . S
C2408 C2412 1.370 . S
C2409 C2390 1.425 1_554 S
C2409 C2403 1.432 . S
C2409 C2410 1.523 . S
C2410 C2391 1.371 . S
C2410 C2404 1.365 1_554 S
C2410 C2409 1.523 . S
C2411 C2395 1.429 . S
C2411 C2407 1.428 1_554 S
C2411 C2412 1.523 . S
C2412 C2396 1.367 1_554 S
C2412 C2408 1.370 . S
C2412 C2411 1.523 . S
H2413 C2388 0.950 . S
H2414 C2390 0.950 . S
H2415 C2391 0.949 . S
H2416 C2393 0.950 . S
H2417 C2395 0.950 . S
C2418 C2419 1.357 . S
C2418 C2420 1.327 . S
C2418 H2443 0.950 . S
C2419 C2418 1.357 . S
C2419 C2435 1.341 1_554 S
C2420 C2418 1.327 . S
C2420 C2439 1.438 . S
C2420 H2444 0.950 . S
C2421 C2438 1.574 . S
C2421 C2440 1.358 1_556 S
C2421 H2445 0.949 . S
H2422 C2426 0.949 . S
C2423 C2424 1.336 1_556 S
C2423 C2425 1.327 . S
C2423 H2446 0.950 . S
C2424 C2423 1.336 1_554 S
C2424 C2436 1.361 . S
C2425 C2423 1.327 . S
C2425 C2441 1.418 1_556 S
C2425 H2447 0.950 . S
C2426 H2422 0.949 . S
C2426 C2434 1.574 . S
C2426 C2442 1.380 . S
H2427 C2435 0.950 . S
H2428 C2433 0.950 . S
H2429 C2434 0.949 . S
H2430 C2436 0.950 . S
H2431 C2437 0.950 . S
H2432 C2438 0.949 . S
C2433 H2428 0.950 . S
C2433 C2435 1.327 . S
C2433 C2439 1.420 1_556 S
C2434 C2426 1.574 . S
C2434 H2429 0.949 . S
C2434 C2440 1.379 . S
C2435 C2419 1.341 1_556 S
C2435 H2427 0.950 . S
C2435 C2433 1.327 . S
C2436 C2424 1.361 . S
C2436 H2430 0.950 . S
C2436 C2437 1.327 . S
C2437 H2431 0.950 . S
C2437 C2436 1.327 . S
C2437 C2441 1.440 . S
C2438 C2421 1.574 . S
C2438 H2432 0.949 . S
C2438 C2442 1.357 1_556 S
C2439 C2420 1.438 . S
C2439 C2433 1.420 1_554 S
C2439 C2440 1.523 . S
C2440 C2421 1.358 1_554 S
C2440 C2434 1.379 . S
C2440 C2439 1.523 . S
C2441 C2425 1.418 1_554 S
C2441 C2437 1.440 . S
C2441 C2442 1.523 . S
C2442 C2426 1.380 . S
C2442 C2438 1.357 1_554 S
C2442 C2441 1.523 . S
H2443 C2418 0.950 . S
H2444 C2420 0.950 . S
H2445 C2421 0.949 . S
H2446 C2423 0.950 . S
H2447 C2425 0.950 . S
C2448 C2449 1.340 1_556 S
C2448 C2450 1.327 . S
C2448 H2473 0.950 . S
C2449 C2448 1.340 1_554 S
C2449 C2465 1.358 . S
C2450 C2448 1.327 . S
C2450 C2469 1.422 1_556 S
C2450 H2474 0.950 . S
C2451 C2468 1.574 . S
C2451 C2470 1.375 . S
C2451 H2475 0.949 . S
H2452 C2456 0.949 . S
C2453 C2454 1.350 . S
C2453 C2455 1.327 . S
C2453 H2476 0.950 . S
C2454 C2453 1.350 . S
C2454 C2466 1.348 1_554 S
C2455 C2453 1.327 . S
C2455 C2471 1.431 . S
C2455 H2477 0.950 . S
C2456 H2452 0.949 . S
C2456 C2464 1.574 . S
C2456 C2472 1.364 1_556 S
H2457 C2465 0.950 . S
H2458 C2463 0.950 . S
H2459 C2464 0.949 . S
H2460 C2466 0.950 . S
H2461 C2467 0.950 . S
H2462 C2468 0.949 . S
C2463 H2458 0.950 . S
C2463 C2465 1.327 . S
C2463 C2469 1.436 . S
C2464 C2456 1.574 . S
C2464 H2459 0.949 . S
C2464 C2470 1.362 1_556 S
C2465 C2449 1.358 . S
C2465 H2457 0.950 . S
C2465 C2463 1.327 . S
C2466 C2454 1.348 1_556 S
C2466 H2460 0.950 . S
C2466 C2467 1.327 . S
C2467 H2461 0.950 . S
C2467 C2466 1.327 . S
C2467 C2471 1.426 1_556 S
C2468 C2451 1.574 . S
C2468 H2462 0.949 . S
C2468 C2472 1.373 . S
C2469 C2450 1.422 1_554 S
C2469 C2463 1.436 . S
C2469 C2470 1.523 . S
C2470 C2451 1.375 . S
C2470 C2464 1.362 1_554 S
C2470 C2469 1.523 . S
C2471 C2455 1.431 . S
C2471 C2467 1.426 1_554 S
C2471 C2472 1.523 . S
C2472 C2456 1.364 1_554 S
C2472 C2468 1.373 . S
C2472 C2471 1.523 . S
H2473 C2448 0.950 . S
H2474 C2450 0.950 . S
H2475 C2451 0.949 . S
H2476 C2453 0.950 . S
H2477 C2455 0.950 . S
C2478 C2479 1.355 . S
C2478 C2480 1.327 . S
C2478 H2503 0.950 . S
C2479 C2478 1.355 . S
C2479 C2495 1.343 1_554 S
C2480 C2478 1.327 . S
C2480 C2499 1.433 . S
C2480 H2504 0.950 . S
C2481 C2498 1.574 . S
C2481 C2500 1.364 1_556 S
C2481 H2505 0.949 . S
H2482 C2486 0.949 . S
C2483 C2484 1.348 1_556 S
C2483 C2485 1.327 . S
C2483 H2506 0.950 . S
C2484 C2483 1.348 1_554 S
C2484 C2496 1.349 . S
C2485 C2483 1.327 . S
C2485 C2501 1.427 1_556 S
C2485 H2507 0.950 . S
C2486 H2482 0.949 . S
C2486 C2494 1.574 . S
C2486 C2502 1.371 . S
H2487 C2495 0.950 . S
H2488 C2493 0.950 . S
H2489 C2494 0.949 . S
H2490 C2496 0.950 . S
H2491 C2497 0.950 . S
H2492 C2498 0.949 . S
C2493 H2488 0.950 . S
C2493 C2495 1.327 . S
C2493 C2499 1.424 1_556 S
C2494 C2486 1.574 . S
C2494 H2489 0.949 . S
C2494 C2500 1.372 . S
C2495 C2479 1.343 1_556 S
C2495 H2487 0.950 . S
C2495 C2493 1.327 . S
C2496 C2484 1.349 . S
C2496 H2490 0.950 . S
C2496 C2497 1.327 . S
C2497 H2491 0.950 . S
C2497 C2496 1.327 . S
C2497 C2501 1.430 . S
C2498 C2481 1.574 . S
C2498 H2492 0.949 . S
C2498 C2502 1.366 1_556 S
C2499 C2480 1.433 . S
C2499 C2493 1.424 1_554 S
C2499 C2500 1.523 . S
C2500 C2481 1.364 1_554 S
C2500 C2494 1.372 . S
C2500 C2499 1.523 . S
C2501 C2485 1.427 1_554 S
C2501 C2497 1.430 . S
C2501 C2502 1.523 . S
C2502 C2486 1.371 . S
C2502 C2498 1.366 1_554 S
C2502 C2501 1.523 . S
H2503 C2478 0.950 . S
H2504 C2480 0.950 . S
H2505 C2481 0.949 . S
H2506 C2483 0.950 . S
H2507 C2485 0.950 . S
C2508 C2509 1.349 . S
C2508 C2510 1.327 . S
C2508 H2533 0.950 . S
C2509 C2508 1.349 . S
C2509 C2525 1.349 . S
C2510 C2508 1.327 . S
C2510 C2529 1.429 . S
C2510 H2534 0.950 . S
C2511 C2528 1.574 . S
C2511 C2530 1.368 . S
C2511 H2535 0.949 . S
H2512 C2516 0.949 . S
C2513 C2514 1.349 . S
C2513 C2515 1.327 . S
C2513 H2536 0.950 . S
C2514 C2513 1.349 . S
C2514 C2526 1.349 . S
C2515 C2513 1.327 . S
C2515 C2531 1.429 . S
C2515 H2537 0.950 . S
C2516 H2512 0.949 . S
C2516 C2524 1.574 . S
C2516 C2532 1.368 . S
H2517 C2525 0.950 . S
H2518 C2523 0.950 . S
H2519 C2524 0.949 . S
H2520 C2526 0.950 . S
H2521 C2527 0.950 . S
H2522 C2528 0.949 . S
C2523 H2518 0.950 . S
C2523 C2525 1.327 . S
C2523 C2529 1.429 . S
C2524 C2516 1.574 . S
C2524 H2519 0.949 . S
C2524 C2530 1.368 . S
C2525 C2509 1.349 . S
C2525 H2517 0.950 . S
C2525 C2523 1.327 . S
C2526 C2514 1.349 . S
C2526 H2520 0.950 . S
C2526 C2527 1.327 . S
C2527 H2521 0.950 . S
C2527 C2526 1.327 . S
C2527 C2531 1.429 . S
C2528 C2511 1.574 . S
C2528 H2522 0.949 . S
C2528 C2532 1.368 . S
C2529 C2510 1.429 . S
C2529 C2523 1.429 . S
C2529 C2530 1.523 . S
C2530 C2511 1.368 . S
C2530 C2524 1.368 . S
C2530 C2529 1.523 . S
C2531 C2515 1.429 . S
C2531 C2527 1.429 . S
C2531 C2532 1.523 . S
C2532 C2516 1.368 . S
C2532 C2528 1.368 . S
C2532 C2531 1.523 . S
H2533 C2508 0.950 . S
H2534 C2510 0.950 . S
H2535 C2511 0.949 . S
H2536 C2513 0.950 . S
H2537 C2515 0.950 . S
C2538 C2539 1.349 . S
C2538 C2540 1.327 . S
C2538 H2563 0.950 . S
C2539 C2538 1.349 . S
C2539 C2555 1.349 . S
C2540 C2538 1.327 . S
C2540 C2559 1.429 . S
C2540 H2564 0.950 . S
C2541 C2558 1.574 . S
C2541 C2560 1.368 . S
C2541 H2565 0.949 . S
H2542 C2546 0.949 . S
C2543 C2544 1.349 . S
C2543 C2545 1.327 . S
C2543 H2566 0.950 . S
C2544 C2543 1.349 . S
C2544 C2556 1.349 . S
C2545 C2543 1.327 . S
C2545 C2561 1.429 . S
C2545 H2567 0.950 . S
C2546 H2542 0.949 . S
C2546 C2554 1.574 . S
C2546 C2562 1.368 . S
H2547 C2555 0.950 . S
H2548 C2553 0.950 . S
H2549 C2554 0.949 . S
H2550 C2556 0.950 . S
H2551 C2557 0.950 . S
H2552 C2558 0.949 . S
C2553 H2548 0.950 . S
C2553 C2555 1.327 . S
C2553 C2559 1.429 . S
C2554 C2546 1.574 . S
C2554 H2549 0.949 . S
C2554 C2560 1.368 . S
C2555 C2539 1.349 . S
C2555 H2547 0.950 . S
C2555 C2553 1.327 . S
C2556 C2544 1.349 . S
C2556 H2550 0.950 . S
C2556 C2557 1.327 . S
C2557 H2551 0.950 . S
C2557 C2556 1.327 . S
C2557 C2561 1.429 . S
C2558 C2541 1.574 . S
C2558 H2552 0.949 . S
C2558 C2562 1.368 . S
C2559 C2540 1.429 . S
C2559 C2553 1.429 . S
C2559 C2560 1.523 . S
C2560 C2541 1.368 . S
C2560 C2554 1.368 . S
C2560 C2559 1.523 . S
C2561 C2545 1.429 . S
C2561 C2557 1.429 . S
C2561 C2562 1.523 . S
C2562 C2546 1.368 . S
C2562 C2558 1.368 . S
C2562 C2561 1.523 . S
H2563 C2538 0.950 . S
H2564 C2540 0.950 . S
H2565 C2541 0.949 . S
H2566 C2543 0.950 . S
H2567 C2545 0.950 . S
C2568 C2569 1.349 . S
C2568 C2570 1.327 . S
C2568 H2593 0.950 . S
C2569 C2568 1.349 . S
C2569 C2585 1.349 . S
C2570 C2568 1.327 . S
C2570 C2589 1.429 . S
C2570 H2594 0.950 . S
C2571 C2588 1.574 . S
C2571 C2590 1.368 . S
C2571 H2595 0.949 . S
H2572 C2576 0.949 . S
C2573 C2574 1.349 . S
C2573 C2575 1.327 . S
C2573 H2596 0.950 . S
C2574 C2573 1.349 . S
C2574 C2586 1.349 . S
C2575 C2573 1.327 . S
C2575 C2591 1.429 . S
C2575 H2597 0.950 . S
C2576 H2572 0.949 . S
C2576 C2584 1.574 . S
C2576 C2592 1.368 . S
H2577 C2585 0.950 . S
H2578 C2583 0.950 . S
H2579 C2584 0.949 . S
H2580 C2586 0.950 . S
H2581 C2587 0.950 . S
H2582 C2588 0.949 . S
C2583 H2578 0.950 . S
C2583 C2585 1.327 . S
C2583 C2589 1.429 . S
C2584 C2576 1.574 . S
C2584 H2579 0.949 . S
C2584 C2590 1.368 . S
C2585 C2569 1.349 . S
C2585 H2577 0.950 . S
C2585 C2583 1.327 . S
C2586 C2574 1.349 . S
C2586 H2580 0.950 . S
C2586 C2587 1.327 . S
C2587 H2581 0.950 . S
C2587 C2586 1.327 . S
C2587 C2591 1.429 . S
C2588 C2571 1.574 . S
C2588 H2582 0.949 . S
C2588 C2592 1.368 . S
C2589 C2570 1.429 . S
C2589 C2583 1.429 . S
C2589 C2590 1.523 . S
C2590 C2571 1.368 . S
C2590 C2584 1.368 . S
C2590 C2589 1.523 . S
C2591 C2575 1.429 . S
C2591 C2587 1.429 . S
C2591 C2592 1.523 . S
C2592 C2576 1.368 . S
C2592 C2588 1.368 . S
C2592 C2591 1.523 . S
H2593 C2568 0.950 . S
H2594 C2570 0.950 . S
H2595 C2571 0.949 . S
H2596 C2573 0.950 . S
H2597 C2575 0.950 . S
C2598 C2599 1.349 . S
C2598 C2600 1.327 . S
C2598 H2623 0.950 . S
C2599 C2598 1.349 . S
C2599 C2615 1.349 . S
C2600 C2598 1.327 . S
C2600 C2619 1.429 . S
C2600 H2624 0.950 . S
C2601 C2618 1.574 . S
C2601 C2620 1.368 . S
C2601 H2625 0.949 . S
H2602 C2606 0.949 . S
C2603 C2604 1.349 . S
C2603 C2605 1.327 . S
C2603 H2626 0.950 . S
C2604 C2603 1.349 . S
C2604 C2616 1.349 . S
C2605 C2603 1.327 . S
C2605 C2621 1.429 . S
C2605 H2627 0.950 . S
C2606 H2602 0.949 . S
C2606 C2614 1.574 . S
C2606 C2622 1.368 . S
H2607 C2615 0.950 . S
H2608 C2613 0.950 . S
H2609 C2614 0.949 . S
H2610 C2616 0.950 . S
H2611 C2617 0.950 . S
H2612 C2618 0.949 . S
C2613 H2608 0.950 . S
C2613 C2615 1.327 . S
C2613 C2619 1.429 . S
C2614 C2606 1.574 . S
C2614 H2609 0.949 . S
C2614 C2620 1.368 . S
C2615 C2599 1.349 . S
C2615 H2607 0.950 . S
C2615 C2613 1.327 . S
C2616 C2604 1.349 . S
C2616 H2610 0.950 . S
C2616 C2617 1.327 . S
C2617 H2611 0.950 . S
C2617 C2616 1.327 . S
C2617 C2621 1.429 . S
C2618 C2601 1.574 . S
C2618 H2612 0.949 . S
C2618 C2622 1.368 . S
C2619 C2600 1.429 . S
C2619 C2613 1.429 . S
C2619 C2620 1.523 . S
C2620 C2601 1.368 . S
C2620 C2614 1.368 . S
C2620 C2619 1.523 . S
C2621 C2605 1.429 . S
C2621 C2617 1.429 . S
C2621 C2622 1.523 . S
C2622 C2606 1.368 . S
C2622 C2618 1.368 . S
C2622 C2621 1.523 . S
H2623 C2598 0.950 . S
H2624 C2600 0.950 . S
H2625 C2601 0.949 . S
H2626 C2603 0.950 . S
H2627 C2605 0.950 . S
C2628 C2629 1.349 . S
C2628 C2630 1.327 . S
C2628 H2653 0.950 . S
C2629 C2628 1.349 . S
C2629 C2645 1.349 . S
C2630 C2628 1.327 . S
C2630 C2649 1.429 . S
C2630 H2654 0.950 . S
C2631 C2648 1.574 . S
C2631 C2650 1.368 . S
C2631 H2655 0.949 . S
H2632 C2636 0.949 . S
C2633 C2634 1.349 . S
C2633 C2635 1.327 . S
C2633 H2656 0.950 . S
C2634 C2633 1.349 . S
C2634 C2646 1.349 . S
C2635 C2633 1.327 . S
C2635 C2651 1.429 . S
C2635 H2657 0.950 . S
C2636 H2632 0.949 . S
C2636 C2644 1.574 . S
C2636 C2652 1.368 . S
H2637 C2645 0.950 . S
H2638 C2643 0.950 . S
H2639 C2644 0.949 . S
H2640 C2646 0.950 . S
H2641 C2647 0.950 . S
H2642 C2648 0.949 . S
C2643 H2638 0.950 . S
C2643 C2645 1.327 . S
C2643 C2649 1.429 . S
C2644 C2636 1.574 . S
C2644 H2639 0.949 . S
C2644 C2650 1.368 . S
C2645 C2629 1.349 . S
C2645 H2637 0.950 . S
C2645 C2643 1.327 . S
C2646 C2634 1.349 . S
C2646 H2640 0.950 . S
C2646 C2647 1.327 . S
C2647 H2641 0.950 . S
C2647 C2646 1.327 . S
C2647 C2651 1.429 . S
C2648 C2631 1.574 . S
C2648 H2642 0.949 . S
C2648 C2652 1.368 . S
C2649 C2630 1.429 . S
C2649 C2643 1.429 . S
C2649 C2650 1.523 . S
C2650 C2631 1.368 . S
C2650 C2644 1.368 . S
C2650 C2649 1.523 . S
C2651 C2635 1.429 . S
C2651 C2647 1.429 . S
C2651 C2652 1.523 . S
C2652 C2636 1.368 . S
C2652 C2648 1.368 . S
C2652 C2651 1.523 . S
H2653 C2628 0.950 . S
H2654 C2630 0.950 . S
H2655 C2631 0.949 . S
H2656 C2633 0.950 . S
H2657 C2635 0.950 . S
C2658 C2659 1.349 . S
C2658 C2660 1.327 . S
C2658 H2683 0.950 . S
C2659 C2658 1.349 . S
C2659 C2675 1.349 . S
C2660 C2658 1.327 . S
C2660 C2679 1.429 . S
C2660 H2684 0.950 . S
C2661 C2678 1.574 . S
C2661 C2680 1.368 . S
C2661 H2685 0.949 . S
H2662 C2666 0.949 . S
C2663 C2664 1.349 . S
C2663 C2665 1.327 . S
C2663 H2686 0.950 . S
C2664 C2663 1.349 . S
C2664 C2676 1.349 . S
C2665 C2663 1.327 . S
C2665 C2681 1.429 . S
C2665 H2687 0.950 . S
C2666 H2662 0.949 . S
C2666 C2674 1.574 . S
C2666 C2682 1.368 . S
H2667 C2675 0.950 . S
H2668 C2673 0.950 . S
H2669 C2674 0.949 . S
H2670 C2676 0.950 . S
H2671 C2677 0.950 . S
H2672 C2678 0.949 . S
C2673 H2668 0.950 . S
C2673 C2675 1.327 . S
C2673 C2679 1.429 . S
C2674 C2666 1.574 . S
C2674 H2669 0.949 . S
C2674 C2680 1.368 . S
C2675 C2659 1.349 . S
C2675 H2667 0.950 . S
C2675 C2673 1.327 . S
C2676 C2664 1.349 . S
C2676 H2670 0.950 . S
C2676 C2677 1.327 . S
C2677 H2671 0.950 . S
C2677 C2676 1.327 . S
C2677 C2681 1.429 . S
C2678 C2661 1.574 . S
C2678 H2672 0.949 . S
C2678 C2682 1.368 . S
C2679 C2660 1.429 . S
C2679 C2673 1.429 . S
C2679 C2680 1.523 . S
C2680 C2661 1.368 . S
C2680 C2674 1.368 . S
C2680 C2679 1.523 . S
C2681 C2665 1.429 . S
C2681 C2677 1.429 . S
C2681 C2682 1.523 . S
C2682 C2666 1.368 . S
C2682 C2678 1.368 . S
C2682 C2681 1.523 . S
H2683 C2658 0.950 . S
H2684 C2660 0.950 . S
H2685 C2661 0.949 . S
H2686 C2663 0.950 . S
H2687 C2665 0.950 . S
C2688 C2689 1.349 . S
C2688 C2690 1.327 . S
C2688 H2713 0.950 . S
C2689 C2688 1.349 . S
C2689 C2705 1.349 . S
C2690 C2688 1.327 . S
C2690 C2709 1.429 . S
C2690 H2714 0.950 . S
C2691 C2708 1.574 . S
C2691 C2710 1.368 . S
C2691 H2715 0.949 . S
H2692 C2696 0.949 . S
C2693 C2694 1.349 . S
C2693 C2695 1.327 . S
C2693 H2716 0.950 . S
C2694 C2693 1.349 . S
C2694 C2706 1.349 . S
C2695 C2693 1.327 . S
C2695 C2711 1.429 . S
C2695 H2717 0.950 . S
C2696 H2692 0.949 . S
C2696 C2704 1.574 . S
C2696 C2712 1.368 . S
H2697 C2705 0.950 . S
H2698 C2703 0.950 . S
H2699 C2704 0.949 . S
H2700 C2706 0.950 . S
H2701 C2707 0.950 . S
H2702 C2708 0.949 . S
C2703 H2698 0.950 . S
C2703 C2705 1.327 . S
C2703 C2709 1.429 . S
C2704 C2696 1.574 . S
C2704 H2699 0.949 . S
C2704 C2710 1.368 . S
C2705 C2689 1.349 . S
C2705 H2697 0.950 . S
C2705 C2703 1.327 . S
C2706 C2694 1.349 . S
C2706 H2700 0.950 . S
C2706 C2707 1.327 . S
C2707 H2701 0.950 . S
C2707 C2706 1.327 . S
C2707 C2711 1.429 . S
C2708 C2691 1.574 . S
C2708 H2702 0.949 . S
C2708 C2712 1.368 . S
C2709 C2690 1.429 . S
C2709 C2703 1.429 . S
C2709 C2710 1.523 . S
C2710 C2691 1.368 . S
C2710 C2704 1.368 . S
C2710 C2709 1.523 . S
C2711 C2695 1.429 . S
C2711 C2707 1.429 . S
C2711 C2712 1.523 . S
C2712 C2696 1.368 . S
C2712 C2708 1.368 . S
C2712 C2711 1.523 . S
H2713 C2688 0.950 . S
H2714 C2690 0.950 . S
H2715 C2691 0.949 . S
H2716 C2693 0.950 . S
H2717 C2695 0.950 . S
C2718 C2719 1.349 . S
C2718 C2720 1.327 . S
C2718 H2743 0.950 . S
C2719 C2718 1.349 . S
C2719 C2735 1.349 . S
C2720 C2718 1.327 . S
C2720 C2739 1.429 . S
C2720 H2744 0.950 . S
C2721 C2738 1.574 . S
C2721 C2740 1.368 . S
C2721 H2745 0.949 . S
H2722 C2726 0.949 . S
C2723 C2724 1.349 . S
C2723 C2725 1.327 . S
C2723 H2746 0.950 . S
C2724 C2723 1.349 . S
C2724 C2736 1.349 . S
C2725 C2723 1.327 . S
C2725 C2741 1.429 . S
C2725 H2747 0.950 . S
C2726 H2722 0.949 . S
C2726 C2734 1.574 . S
C2726 C2742 1.368 . S
H2727 C2735 0.950 . S
H2728 C2733 0.950 . S
H2729 C2734 0.949 . S
H2730 C2736 0.950 . S
H2731 C2737 0.950 . S
H2732 C2738 0.949 . S
C2733 H2728 0.950 . S
C2733 C2735 1.327 . S
C2733 C2739 1.429 . S
C2734 C2726 1.574 . S
C2734 H2729 0.949 . S
C2734 C2740 1.368 . S
C2735 C2719 1.349 . S
C2735 H2727 0.950 . S
C2735 C2733 1.327 . S
C2736 C2724 1.349 . S
C2736 H2730 0.950 . S
C2736 C2737 1.327 . S
C2737 H2731 0.950 . S
C2737 C2736 1.327 . S
C2737 C2741 1.429 . S
C2738 C2721 1.574 . S
C2738 H2732 0.949 . S
C2738 C2742 1.368 . S
C2739 C2720 1.429 . S
C2739 C2733 1.429 . S
C2739 C2740 1.523 . S
C2740 C2721 1.368 . S
C2740 C2734 1.368 . S
C2740 C2739 1.523 . S
C2741 C2725 1.429 . S
C2741 C2737 1.429 . S
C2741 C2742 1.523 . S
C2742 C2726 1.368 . S
C2742 C2738 1.368 . S
C2742 C2741 1.523 . S
H2743 C2718 0.950 . S
H2744 C2720 0.950 . S
H2745 C2721 0.949 . S
H2746 C2723 0.950 . S
H2747 C2725 0.950 . S
C2748 C2749 1.349 . S
C2748 C2750 1.327 . S
C2748 H2773 0.950 . S
C2749 C2748 1.349 . S
C2749 C2765 1.349 . S
C2750 C2748 1.327 . S
C2750 C2769 1.429 . S
C2750 H2774 0.950 . S
C2751 C2768 1.574 . S
C2751 C2770 1.368 . S
C2751 H2775 0.949 . S
H2752 C2756 0.949 . S
C2753 C2754 1.349 . S
C2753 C2755 1.327 . S
C2753 H2776 0.950 . S
C2754 C2753 1.349 . S
C2754 C2766 1.349 . S
C2755 C2753 1.327 . S
C2755 C2771 1.429 . S
C2755 H2777 0.950 . S
C2756 H2752 0.949 . S
C2756 C2764 1.574 . S
C2756 C2772 1.368 . S
H2757 C2765 0.950 . S
H2758 C2763 0.950 . S
H2759 C2764 0.949 . S
H2760 C2766 0.950 . S
H2761 C2767 0.950 . S
H2762 C2768 0.949 . S
C2763 H2758 0.950 . S
C2763 C2765 1.327 . S
C2763 C2769 1.429 . S
C2764 C2756 1.574 . S
C2764 H2759 0.949 . S
C2764 C2770 1.368 . S
C2765 C2749 1.349 . S
C2765 H2757 0.950 . S
C2765 C2763 1.327 . S
C2766 C2754 1.349 . S
C2766 H2760 0.950 . S
C2766 C2767 1.327 . S
C2767 H2761 0.950 . S
C2767 C2766 1.327 . S
C2767 C2771 1.429 . S
C2768 C2751 1.574 . S
C2768 H2762 0.949 . S
C2768 C2772 1.368 . S
C2769 C2750 1.429 . S
C2769 C2763 1.429 . S
C2769 C2770 1.523 . S
C2770 C2751 1.368 . S
C2770 C2764 1.368 . S
C2770 C2769 1.523 . S
C2771 C2755 1.429 . S
C2771 C2767 1.429 . S
C2771 C2772 1.523 . S
C2772 C2756 1.368 . S
C2772 C2768 1.368 . S
C2772 C2771 1.523 . S
H2773 C2748 0.950 . S
H2774 C2750 0.950 . S
H2775 C2751 0.949 . S
H2776 C2753 0.950 . S
H2777 C2755 0.950 . S
C2778 C2779 1.349 . S
C2778 C2780 1.327 . S
C2778 H2803 0.950 . S
C2779 C2778 1.349 . S
C2779 C2795 1.349 . S
C2780 C2778 1.327 . S
C2780 C2799 1.429 . S
C2780 H2804 0.950 . S
C2781 C2798 1.574 . S
C2781 C2800 1.368 . S
C2781 H2805 0.949 . S
H2782 C2786 0.949 . S
C2783 C2784 1.349 . S
C2783 C2785 1.327 . S
C2783 H2806 0.950 . S
C2784 C2783 1.349 . S
C2784 C2796 1.349 . S
C2785 C2783 1.327 . S
C2785 C2801 1.429 . S
C2785 H2807 0.950 . S
C2786 H2782 0.949 . S
C2786 C2794 1.574 . S
C2786 C2802 1.368 . S
H2787 C2795 0.950 . S
H2788 C2793 0.950 . S
H2789 C2794 0.949 . S
H2790 C2796 0.950 . S
H2791 C2797 0.950 . S
H2792 C2798 0.949 . S
C2793 H2788 0.950 . S
C2793 C2795 1.327 . S
C2793 C2799 1.429 . S
C2794 C2786 1.574 . S
C2794 H2789 0.949 . S
C2794 C2800 1.368 . S
C2795 C2779 1.349 . S
C2795 H2787 0.950 . S
C2795 C2793 1.327 . S
C2796 C2784 1.349 . S
C2796 H2790 0.950 . S
C2796 C2797 1.327 . S
C2797 H2791 0.950 . S
C2797 C2796 1.327 . S
C2797 C2801 1.429 . S
C2798 C2781 1.574 . S
C2798 H2792 0.949 . S
C2798 C2802 1.368 . S
C2799 C2780 1.429 . S
C2799 C2793 1.429 . S
C2799 C2800 1.523 . S
C2800 C2781 1.368 . S
C2800 C2794 1.368 . S
C2800 C2799 1.523 . S
C2801 C2785 1.429 . S
C2801 C2797 1.429 . S
C2801 C2802 1.523 . S
C2802 C2786 1.368 . S
C2802 C2798 1.368 . S
C2802 C2801 1.523 . S
H2803 C2778 0.950 . S
H2804 C2780 0.950 . S
H2805 C2781 0.949 . S
H2806 C2783 0.950 . S
H2807 C2785 0.950 . S
C2808 C2809 1.349 . S
C2808 C2810 1.327 . S
C2808 H2833 0.950 . S
C2809 C2808 1.349 . S
C2809 C2825 1.349 . S
C2810 C2808 1.327 . S
C2810 C2829 1.429 . S
C2810 H2834 0.950 . S
C2811 C2828 1.574 . S
C2811 C2830 1.368 . S
C2811 H2835 0.949 . S
H2812 C2816 0.949 . S
C2813 C2814 1.349 . S
C2813 C2815 1.327 . S
C2813 H2836 0.950 . S
C2814 C2813 1.349 . S
C2814 C2826 1.349 . S
C2815 C2813 1.327 . S
C2815 C2831 1.429 . S
C2815 H2837 0.950 . S
C2816 H2812 0.949 . S
C2816 C2824 1.574 . S
C2816 C2832 1.368 . S
H2817 C2825 0.950 . S
H2818 C2823 0.950 . S
H2819 C2824 0.949 . S
H2820 C2826 0.950 . S
H2821 C2827 0.950 . S
H2822 C2828 0.949 . S
C2823 H2818 0.950 . S
C2823 C2825 1.327 . S
C2823 C2829 1.429 . S
C2824 C2816 1.574 . S
C2824 H2819 0.949 . S
C2824 C2830 1.368 . S
C2825 C2809 1.349 . S
C2825 H2817 0.950 . S
C2825 C2823 1.327 . S
C2826 C2814 1.349 . S
C2826 H2820 0.950 . S
C2826 C2827 1.327 . S
C2827 H2821 0.950 . S
C2827 C2826 1.327 . S
C2827 C2831 1.429 . S
C2828 C2811 1.574 . S
C2828 H2822 0.949 . S
C2828 C2832 1.368 . S
C2829 C2810 1.429 . S
C2829 C2823 1.429 . S
C2829 C2830 1.523 . S
C2830 C2811 1.368 . S
C2830 C2824 1.368 . S
C2830 C2829 1.523 . S
C2831 C2815 1.429 . S
C2831 C2827 1.429 . S
C2831 C2832 1.523 . S
C2832 C2816 1.368 . S
C2832 C2828 1.368 . S
C2832 C2831 1.523 . S
H2833 C2808 0.950 . S
H2834 C2810 0.950 . S
H2835 C2811 0.949 . S
H2836 C2813 0.950 . S
H2837 C2815 0.950 . S
C2838 C2839 1.349 . S
C2838 C2840 1.327 . S
C2838 H2863 0.950 . S
C2839 C2838 1.349 . S
C2839 C2855 1.349 . S
C2840 C2838 1.327 . S
C2840 C2859 1.429 . S
C2840 H2864 0.950 . S
C2841 C2858 1.574 . S
C2841 C2860 1.368 . S
C2841 H2865 0.949 . S
H2842 C2846 0.949 . S
C2843 C2844 1.349 . S
C2843 C2845 1.327 . S
C2843 H2866 0.950 . S
C2844 C2843 1.349 . S
C2844 C2856 1.349 . S
C2845 C2843 1.327 . S
C2845 C2861 1.429 . S
C2845 H2867 0.950 . S
C2846 H2842 0.949 . S
C2846 C2854 1.574 . S
C2846 C2862 1.368 . S
H2847 C2855 0.950 . S
H2848 C2853 0.950 . S
H2849 C2854 0.949 . S
H2850 C2856 0.950 . S
H2851 C2857 0.950 . S
H2852 C2858 0.949 . S
C2853 H2848 0.950 . S
C2853 C2855 1.327 . S
C2853 C2859 1.429 . S
C2854 C2846 1.574 . S
C2854 H2849 0.949 . S
C2854 C2860 1.368 . S
C2855 C2839 1.349 . S
C2855 H2847 0.950 . S
C2855 C2853 1.327 . S
C2856 C2844 1.349 . S
C2856 H2850 0.950 . S
C2856 C2857 1.327 . S
C2857 H2851 0.950 . S
C2857 C2856 1.327 . S
C2857 C2861 1.429 . S
C2858 C2841 1.574 . S
C2858 H2852 0.949 . S
C2858 C2862 1.368 . S
C2859 C2840 1.429 . S
C2859 C2853 1.429 . S
C2859 C2860 1.523 . S
C2860 C2841 1.368 . S
C2860 C2854 1.368 . S
C2860 C2859 1.523 . S
C2861 C2845 1.429 . S
C2861 C2857 1.429 . S
C2861 C2862 1.523 . S
C2862 C2846 1.368 . S
C2862 C2858 1.368 . S
C2862 C2861 1.523 . S
H2863 C2838 0.950 . S
H2864 C2840 0.950 . S
H2865 C2841 0.949 . S
H2866 C2843 0.950 . S
H2867 C2845 0.950 . S
C2868 C2869 1.349 . S
C2868 C2870 1.327 . S
C2868 H2893 0.950 . S
C2869 C2868 1.349 . S
C2869 C2885 1.349 . S
C2870 C2868 1.327 . S
C2870 C2889 1.429 . S
C2870 H2894 0.950 . S
C2871 C2888 1.574 . S
C2871 C2890 1.368 . S
C2871 H2895 0.949 . S
H2872 C2876 0.949 . S
C2873 C2874 1.349 . S
C2873 C2875 1.327 . S
C2873 H2896 0.950 . S
C2874 C2873 1.349 . S
C2874 C2886 1.349 . S
C2875 C2873 1.327 . S
C2875 C2891 1.429 . S
C2875 H2897 0.950 . S
C2876 H2872 0.949 . S
C2876 C2884 1.574 . S
C2876 C2892 1.368 . S
H2877 C2885 0.950 . S
H2878 C2883 0.950 . S
H2879 C2884 0.949 . S
H2880 C2886 0.950 . S
H2881 C2887 0.950 . S
H2882 C2888 0.949 . S
C2883 H2878 0.950 . S
C2883 C2885 1.327 . S
C2883 C2889 1.429 . S
C2884 C2876 1.574 . S
C2884 H2879 0.949 . S
C2884 C2890 1.368 . S
C2885 C2869 1.349 . S
C2885 H2877 0.950 . S
C2885 C2883 1.327 . S
C2886 C2874 1.349 . S
C2886 H2880 0.950 . S
C2886 C2887 1.327 . S
C2887 H2881 0.950 . S
C2887 C2886 1.327 . S
C2887 C2891 1.429 . S
C2888 C2871 1.574 . S
C2888 H2882 0.949 . S
C2888 C2892 1.368 . S
C2889 C2870 1.429 . S
C2889 C2883 1.429 . S
C2889 C2890 1.523 . S
C2890 C2871 1.368 . S
C2890 C2884 1.368 . S
C2890 C2889 1.523 . S
C2891 C2875 1.429 . S
C2891 C2887 1.429 . S
C2891 C2892 1.523 . S
C2892 C2876 1.368 . S
C2892 C2888 1.368 . S
C2892 C2891 1.523 . S
H2893 C2868 0.950 . S
H2894 C2870 0.950 . S
H2895 C2871 0.949 . S
H2896 C2873 0.950 . S
H2897 C2875 0.950 . S
C2898 C2899 1.349 . S
C2898 C2900 1.327 . S
C2898 H2923 0.950 . S
C2899 C2898 1.349 . S
C2899 C2915 1.349 . S
C2900 C2898 1.327 . S
C2900 C2919 1.429 . S
C2900 H2924 0.950 . S
C2901 C2918 1.574 . S
C2901 C2920 1.368 . S
C2901 H2925 0.949 . S
H2902 C2906 0.949 . S
C2903 C2904 1.349 . S
C2903 C2905 1.327 . S
C2903 H2926 0.950 . S
C2904 C2903 1.349 . S
C2904 C2916 1.349 . S
C2905 C2903 1.327 . S
C2905 C2921 1.429 . S
C2905 H2927 0.950 . S
C2906 H2902 0.949 . S
C2906 C2914 1.574 . S
C2906 C2922 1.368 . S
H2907 C2915 0.950 . S
H2908 C2913 0.950 . S
H2909 C2914 0.949 . S
H2910 C2916 0.950 . S
H2911 C2917 0.950 . S
H2912 C2918 0.949 . S
C2913 H2908 0.950 . S
C2913 C2915 1.327 . S
C2913 C2919 1.429 . S
C2914 C2906 1.574 . S
C2914 H2909 0.949 . S
C2914 C2920 1.368 . S
C2915 C2899 1.349 . S
C2915 H2907 0.950 . S
C2915 C2913 1.327 . S
C2916 C2904 1.349 . S
C2916 H2910 0.950 . S
C2916 C2917 1.327 . S
C2917 H2911 0.950 . S
C2917 C2916 1.327 . S
C2917 C2921 1.429 . S
C2918 C2901 1.574 . S
C2918 H2912 0.949 . S
C2918 C2922 1.368 . S
C2919 C2900 1.429 . S
C2919 C2913 1.429 . S
C2919 C2920 1.523 . S
C2920 C2901 1.368 . S
C2920 C2914 1.368 . S
C2920 C2919 1.523 . S
C2921 C2905 1.429 . S
C2921 C2917 1.429 . S
C2921 C2922 1.523 . S
C2922 C2906 1.368 . S
C2922 C2918 1.368 . S
C2922 C2921 1.523 . S
H2923 C2898 0.950 . S
H2924 C2900 0.950 . S
H2925 C2901 0.949 . S
H2926 C2903 0.950 . S
H2927 C2905 0.950 . S
C2928 C2929 1.349 . S
C2928 C2930 1.327 . S
C2928 H2953 0.950 . S
C2929 C2928 1.349 . S
C2929 C2945 1.349 . S
C2930 C2928 1.327 . S
C2930 C2949 1.429 . S
C2930 H2954 0.950 . S
C2931 C2948 1.574 . S
C2931 C2950 1.368 . S
C2931 H2955 0.949 . S
H2932 C2936 0.949 . S
C2933 C2934 1.349 . S
C2933 C2935 1.327 . S
C2933 H2956 0.950 . S
C2934 C2933 1.349 . S
C2934 C2946 1.349 . S
C2935 C2933 1.327 . S
C2935 C2951 1.429 . S
C2935 H2957 0.950 . S
C2936 H2932 0.949 . S
C2936 C2944 1.574 . S
C2936 C2952 1.368 . S
H2937 C2945 0.950 . S
H2938 C2943 0.950 . S
H2939 C2944 0.949 . S
H2940 C2946 0.950 . S
H2941 C2947 0.950 . S
H2942 C2948 0.949 . S
C2943 H2938 0.950 . S
C2943 C2945 1.327 . S
C2943 C2949 1.429 . S
C2944 C2936 1.574 . S
C2944 H2939 0.949 . S
C2944 C2950 1.368 . S
C2945 C2929 1.349 . S
C2945 H2937 0.950 . S
C2945 C2943 1.327 . S
C2946 C2934 1.349 . S
C2946 H2940 0.950 . S
C2946 C2947 1.327 . S
C2947 H2941 0.950 . S
C2947 C2946 1.327 . S
C2947 C2951 1.429 . S
C2948 C2931 1.574 . S
C2948 H2942 0.949 . S
C2948 C2952 1.368 . S
C2949 C2930 1.429 . S
C2949 C2943 1.429 . S
C2949 C2950 1.523 . S
C2950 C2931 1.368 . S
C2950 C2944 1.368 . S
C2950 C2949 1.523 . S
C2951 C2935 1.429 . S
C2951 C2947 1.429 . S
C2951 C2952 1.523 . S
C2952 C2936 1.368 . S
C2952 C2948 1.368 . S
C2952 C2951 1.523 . S
H2953 C2928 0.950 . S
H2954 C2930 0.950 . S
H2955 C2931 0.949 . S
H2956 C2933 0.950 . S
H2957 C2935 0.950 . S
C2958 C2959 1.349 . S
C2958 C2960 1.327 . S
C2958 H2983 0.950 . S
C2959 C2958 1.349 . S
C2959 C2975 1.349 . S
C2960 C2958 1.327 . S
C2960 C2979 1.429 . S
C2960 H2984 0.950 . S
C2961 C2978 1.574 . S
C2961 C2980 1.368 . S
C2961 H2985 0.949 . S
H2962 C2966 0.949 . S
C2963 C2964 1.349 . S
C2963 C2965 1.327 . S
C2963 H2986 0.950 . S
C2964 C2963 1.349 . S
C2964 C2976 1.349 . S
C2965 C2963 1.327 . S
C2965 C2981 1.429 . S
C2965 H2987 0.950 . S
C2966 H2962 0.949 . S
C2966 C2974 1.574 . S
C2966 C2982 1.368 . S
H2967 C2975 0.950 . S
H2968 C2973 0.950 . S
H2969 C2974 0.949 . S
H2970 C2976 0.950 . S
H2971 C2977 0.950 . S
H2972 C2978 0.949 . S
C2973 H2968 0.950 . S
C2973 C2975 1.327 . S
C2973 C2979 1.429 . S
C2974 C2966 1.574 . S
C2974 H2969 0.949 . S
C2974 C2980 1.368 . S
C2975 C2959 1.349 . S
C2975 H2967 0.950 . S
C2975 C2973 1.327 . S
C2976 C2964 1.349 . S
C2976 H2970 0.950 . S
C2976 C2977 1.327 . S
C2977 H2971 0.950 . S
C2977 C2976 1.327 . S
C2977 C2981 1.429 . S
C2978 C2961 1.574 . S
C2978 H2972 0.949 . S
C2978 C2982 1.368 . S
C2979 C2960 1.429 . S
C2979 C2973 1.429 . S
C2979 C2980 1.523 . S
C2980 C2961 1.368 . S
C2980 C2974 1.368 . S
C2980 C2979 1.523 . S
C2981 C2965 1.429 . S
C2981 C2977 1.429 . S
C2981 C2982 1.523 . S
C2982 C2966 1.368 . S
C2982 C2978 1.368 . S
C2982 C2981 1.523 . S
H2983 C2958 0.950 . S
H2984 C2960 0.950 . S
H2985 C2961 0.949 . S
H2986 C2963 0.950 . S
H2987 C2965 0.950 . S
C2988 C2989 1.349 . S
C2988 C2990 1.327 . S
C2988 H3013 0.950 . S
C2989 C2988 1.349 . S
C2989 C3005 1.349 . S
C2990 C2988 1.327 . S
C2990 C3009 1.429 . S
C2990 H3014 0.950 . S
C2991 C3008 1.574 . S
C2991 C3010 1.368 . S
C2991 H3015 0.949 . S
H2992 C2996 0.949 . S
C2993 C2994 1.349 . S
C2993 C2995 1.327 . S
C2993 H3016 0.950 . S
C2994 C2993 1.349 . S
C2994 C3006 1.349 . S
C2995 C2993 1.327 . S
C2995 C3011 1.429 . S
C2995 H3017 0.950 . S
C2996 H2992 0.949 . S
C2996 C3004 1.574 . S
C2996 C3012 1.368 . S
H2997 C3005 0.950 . S
H2998 C3003 0.950 . S
H2999 C3004 0.949 . S
H3000 C3006 0.950 . S
H3001 C3007 0.950 . S
H3002 C3008 0.949 . S
C3003 H2998 0.950 . S
C3003 C3005 1.327 . S
C3003 C3009 1.429 . S
C3004 C2996 1.574 . S
C3004 H2999 0.949 . S
C3004 C3010 1.368 . S
C3005 C2989 1.349 . S
C3005 H2997 0.950 . S
C3005 C3003 1.327 . S
C3006 C2994 1.349 . S
C3006 H3000 0.950 . S
C3006 C3007 1.327 . S
C3007 H3001 0.950 . S
C3007 C3006 1.327 . S
C3007 C3011 1.429 . S
C3008 C2991 1.574 . S
C3008 H3002 0.949 . S
C3008 C3012 1.368 . S
C3009 C2990 1.429 . S
C3009 C3003 1.429 . S
C3009 C3010 1.523 . S
C3010 C2991 1.368 . S
C3010 C3004 1.368 . S
C3010 C3009 1.523 . S
C3011 C2995 1.429 . S
C3011 C3007 1.429 . S
C3011 C3012 1.523 . S
C3012 C2996 1.368 . S
C3012 C3008 1.368 . S
C3012 C3011 1.523 . S
H3013 C2988 0.950 . S
H3014 C2990 0.950 . S
H3015 C2991 0.949 . S
H3016 C2993 0.950 . S
H3017 C2995 0.950 . S
C3018 C3019 1.349 . S
C3018 C3020 1.327 . S
C3018 H3043 0.950 . S
C3019 C3018 1.349 . S
C3019 C3035 1.349 . S
C3020 C3018 1.327 . S
C3020 C3039 1.429 . S
C3020 H3044 0.950 . S
C3021 C3038 1.574 . S
C3021 C3040 1.368 . S
C3021 H3045 0.949 . S
H3022 C3026 0.949 . S
C3023 C3024 1.349 . S
C3023 C3025 1.327 . S
C3023 H3046 0.950 . S
C3024 C3023 1.349 . S
C3024 C3036 1.349 . S
C3025 C3023 1.327 . S
C3025 C3041 1.429 . S
C3025 H3047 0.950 . S
C3026 H3022 0.949 . S
C3026 C3034 1.574 . S
C3026 C3042 1.368 . S
H3027 C3035 0.950 . S
H3028 C3033 0.950 . S
H3029 C3034 0.949 . S
H3030 C3036 0.950 . S
H3031 C3037 0.950 . S
H3032 C3038 0.949 . S
C3033 H3028 0.950 . S
C3033 C3035 1.327 . S
C3033 C3039 1.429 . S
C3034 C3026 1.574 . S
C3034 H3029 0.949 . S
C3034 C3040 1.368 . S
C3035 C3019 1.349 . S
C3035 H3027 0.950 . S
C3035 C3033 1.327 . S
C3036 C3024 1.349 . S
C3036 H3030 0.950 . S
C3036 C3037 1.327 . S
C3037 H3031 0.950 . S
C3037 C3036 1.327 . S
C3037 C3041 1.429 . S
C3038 C3021 1.574 . S
C3038 H3032 0.949 . S
C3038 C3042 1.368 . S
C3039 C3020 1.429 . S
C3039 C3033 1.429 . S
C3039 C3040 1.523 . S
C3040 C3021 1.368 . S
C3040 C3034 1.368 . S
C3040 C3039 1.523 . S
C3041 C3025 1.429 . S
C3041 C3037 1.429 . S
C3041 C3042 1.523 . S
C3042 C3026 1.368 . S
C3042 C3038 1.368 . S
C3042 C3041 1.523 . S
H3043 C3018 0.950 . S
H3044 C3020 0.950 . S
H3045 C3021 0.949 . S
H3046 C3023 0.950 . S
H3047 C3025 0.950 . S
C3048 C3049 1.349 . S
C3048 C3050 1.327 . S
C3048 H3073 0.950 . S
C3049 C3048 1.349 . S
C3049 C3065 1.349 . S
C3050 C3048 1.327 . S
C3050 C3069 1.429 . S
C3050 H3074 0.950 . S
C3051 C3068 1.574 . S
C3051 C3070 1.368 . S
C3051 H3075 0.949 . S
H3052 C3056 0.949 . S
C3053 C3054 1.349 . S
C3053 C3055 1.327 . S
C3053 H3076 0.950 . S
C3054 C3053 1.349 . S
C3054 C3066 1.349 . S
C3055 C3053 1.327 . S
C3055 C3071 1.429 . S
C3055 H3077 0.950 . S
C3056 H3052 0.949 . S
C3056 C3064 1.574 . S
C3056 C3072 1.368 . S
H3057 C3065 0.950 . S
H3058 C3063 0.950 . S
H3059 C3064 0.949 . S
H3060 C3066 0.950 . S
H3061 C3067 0.950 . S
H3062 C3068 0.949 . S
C3063 H3058 0.950 . S
C3063 C3065 1.327 . S
C3063 C3069 1.429 . S
C3064 C3056 1.574 . S
C3064 H3059 0.949 . S
C3064 C3070 1.368 . S
C3065 C3049 1.349 . S
C3065 H3057 0.950 . S
C3065 C3063 1.327 . S
C3066 C3054 1.349 . S
C3066 H3060 0.950 . S
C3066 C3067 1.327 . S
C3067 H3061 0.950 . S
C3067 C3066 1.327 . S
C3067 C3071 1.429 . S
C3068 C3051 1.574 . S
C3068 H3062 0.949 . S
C3068 C3072 1.368 . S
C3069 C3050 1.429 . S
C3069 C3063 1.429 . S
C3069 C3070 1.523 . S
C3070 C3051 1.368 . S
C3070 C3064 1.368 . S
C3070 C3069 1.523 . S
C3071 C3055 1.429 . S
C3071 C3067 1.429 . S
C3071 C3072 1.523 . S
C3072 C3056 1.368 . S
C3072 C3068 1.368 . S
C3072 C3071 1.523 . S
H3073 C3048 0.950 . S
H3074 C3050 0.950 . S
H3075 C3051 0.949 . S
H3076 C3053 0.950 . S
H3077 C3055 0.950 . S
C3078 C3079 1.349 . S
C3078 C3080 1.327 . S
C3078 H3103 0.950 . S
C3079 C3078 1.349 . S
C3079 C3095 1.349 . S
C3080 C3078 1.327 . S
C3080 C3099 1.429 . S
C3080 H3104 0.950 . S
C3081 C3098 1.574 . S
C3081 C3100 1.368 . S
C3081 H3105 0.949 . S
H3082 C3086 0.949 . S
C3083 C3084 1.349 . S
C3083 C3085 1.327 . S
C3083 H3106 0.950 . S
C3084 C3083 1.349 . S
C3084 C3096 1.349 . S
C3085 C3083 1.327 . S
C3085 C3101 1.429 . S
C3085 H3107 0.950 . S
C3086 H3082 0.949 . S
C3086 C3094 1.574 . S
C3086 C3102 1.368 . S
H3087 C3095 0.950 . S
H3088 C3093 0.950 . S
H3089 C3094 0.949 . S
H3090 C3096 0.950 . S
H3091 C3097 0.950 . S
H3092 C3098 0.949 . S
C3093 H3088 0.950 . S
C3093 C3095 1.327 . S
C3093 C3099 1.429 . S
C3094 C3086 1.574 . S
C3094 H3089 0.949 . S
C3094 C3100 1.368 . S
C3095 C3079 1.349 . S
C3095 H3087 0.950 . S
C3095 C3093 1.327 . S
C3096 C3084 1.349 . S
C3096 H3090 0.950 . S
C3096 C3097 1.327 . S
C3097 H3091 0.950 . S
C3097 C3096 1.327 . S
C3097 C3101 1.429 . S
C3098 C3081 1.574 . S
C3098 H3092 0.949 . S
C3098 C3102 1.368 . S
C3099 C3080 1.429 . S
C3099 C3093 1.429 . S
C3099 C3100 1.523 . S
C3100 C3081 1.368 . S
C3100 C3094 1.368 . S
C3100 C3099 1.523 . S
C3101 C3085 1.429 . S
C3101 C3097 1.429 . S
C3101 C3102 1.523 . S
C3102 C3086 1.368 . S
C3102 C3098 1.368 . S
C3102 C3101 1.523 . S
H3103 C3078 0.950 . S
H3104 C3080 0.950 . S
H3105 C3081 0.949 . S
H3106 C3083 0.950 . S
H3107 C3085 0.950 . S
C3108 C3109 1.349 . S
C3108 C3110 1.327 . S
C3108 H3133 0.950 . S
C3109 C3108 1.349 . S
C3109 C3125 1.349 . S
C3110 C3108 1.327 . S
C3110 C3129 1.429 . S
C3110 H3134 0.950 . S
C3111 C3128 1.574 . S
C3111 C3130 1.368 . S
C3111 H3135 0.949 . S
H3112 C3116 0.949 . S
C3113 C3114 1.349 . S
C3113 C3115 1.327 . S
C3113 H3136 0.950 . S
C3114 C3113 1.349 . S
C3114 C3126 1.349 . S
C3115 C3113 1.327 . S
C3115 C3131 1.429 . S
C3115 H3137 0.950 . S
C3116 H3112 0.949 . S
C3116 C3124 1.574 . S
C3116 C3132 1.368 . S
H3117 C3125 0.950 . S
H3118 C3123 0.950 . S
H3119 C3124 0.949 . S
H3120 C3126 0.950 . S
H3121 C3127 0.950 . S
H3122 C3128 0.949 . S
C3123 H3118 0.950 . S
C3123 C3125 1.327 . S
C3123 C3129 1.429 . S
C3124 C3116 1.574 . S
C3124 H3119 0.949 . S
C3124 C3130 1.368 . S
C3125 C3109 1.349 . S
C3125 H3117 0.950 . S
C3125 C3123 1.327 . S
C3126 C3114 1.349 . S
C3126 H3120 0.950 . S
C3126 C3127 1.327 . S
C3127 H3121 0.950 . S
C3127 C3126 1.327 . S
C3127 C3131 1.429 . S
C3128 C3111 1.574 . S
C3128 H3122 0.949 . S
C3128 C3132 1.368 . S
C3129 C3110 1.429 . S
C3129 C3123 1.429 . S
C3129 C3130 1.523 . S
C3130 C3111 1.368 . S
C3130 C3124 1.368 . S
C3130 C3129 1.523 . S
C3131 C3115 1.429 . S
C3131 C3127 1.429 . S
C3131 C3132 1.523 . S
C3132 C3116 1.368 . S
C3132 C3128 1.368 . S
C3132 C3131 1.523 . S
H3133 C3108 0.950 . S
H3134 C3110 0.950 . S
H3135 C3111 0.949 . S
H3136 C3113 0.950 . S
H3137 C3115 0.950 . S
C3138 C3139 1.349 . S
C3138 C3140 1.327 . S
C3138 H3163 0.950 . S
C3139 C3138 1.349 . S
C3139 C3155 1.349 . S
C3140 C3138 1.327 . S
C3140 C3159 1.429 . S
C3140 H3164 0.950 . S
C3141 C3158 1.574 . S
C3141 C3160 1.368 . S
C3141 H3165 0.949 . S
H3142 C3146 0.949 . S
C3143 C3144 1.349 . S
C3143 C3145 1.327 . S
C3143 H3166 0.950 . S
C3144 C3143 1.349 . S
C3144 C3156 1.349 . S
C3145 C3143 1.327 . S
C3145 C3161 1.429 . S
C3145 H3167 0.950 . S
C3146 H3142 0.949 . S
C3146 C3154 1.574 . S
C3146 C3162 1.368 . S
H3147 C3155 0.950 . S
H3148 C3153 0.950 . S
H3149 C3154 0.949 . S
H3150 C3156 0.950 . S
H3151 C3157 0.950 . S
H3152 C3158 0.949 . S
C3153 H3148 0.950 . S
C3153 C3155 1.327 . S
C3153 C3159 1.429 . S
C3154 C3146 1.574 . S
C3154 H3149 0.949 . S
C3154 C3160 1.368 . S
C3155 C3139 1.349 . S
C3155 H3147 0.950 . S
C3155 C3153 1.327 . S
C3156 C3144 1.349 . S
C3156 H3150 0.950 . S
C3156 C3157 1.327 . S
C3157 H3151 0.950 . S
C3157 C3156 1.327 . S
C3157 C3161 1.429 . S
C3158 C3141 1.574 . S
C3158 H3152 0.949 . S
C3158 C3162 1.368 . S
C3159 C3140 1.429 . S
C3159 C3153 1.429 . S
C3159 C3160 1.523 . S
C3160 C3141 1.368 . S
C3160 C3154 1.368 . S
C3160 C3159 1.523 . S
C3161 C3145 1.429 . S
C3161 C3157 1.429 . S
C3161 C3162 1.523 . S
C3162 C3146 1.368 . S
C3162 C3158 1.368 . S
C3162 C3161 1.523 . S
H3163 C3138 0.950 . S
H3164 C3140 0.950 . S
H3165 C3141 0.949 . S
H3166 C3143 0.950 . S
H3167 C3145 0.950 . S
C3168 C3169 1.349 . S
C3168 C3170 1.327 . S
C3168 H3193 0.950 . S
C3169 C3168 1.349 . S
C3169 C3185 1.349 . S
C3170 C3168 1.327 . S
C3170 C3189 1.429 . S
C3170 H3194 0.950 . S
C3171 C3188 1.574 . S
C3171 C3190 1.368 . S
C3171 H3195 0.949 . S
H3172 C3176 0.949 . S
C3173 C3174 1.349 . S
C3173 C3175 1.327 . S
C3173 H3196 0.950 . S
C3174 C3173 1.349 . S
C3174 C3186 1.349 . S
C3175 C3173 1.327 . S
C3175 C3191 1.429 . S
C3175 H3197 0.950 . S
C3176 H3172 0.949 . S
C3176 C3184 1.574 . S
C3176 C3192 1.368 . S
H3177 C3185 0.950 . S
H3178 C3183 0.950 . S
H3179 C3184 0.949 . S
H3180 C3186 0.950 . S
H3181 C3187 0.950 . S
H3182 C3188 0.949 . S
C3183 H3178 0.950 . S
C3183 C3185 1.327 . S
C3183 C3189 1.429 . S
C3184 C3176 1.574 . S
C3184 H3179 0.949 . S
C3184 C3190 1.368 . S
C3185 C3169 1.349 . S
C3185 H3177 0.950 . S
C3185 C3183 1.327 . S
C3186 C3174 1.349 . S
C3186 H3180 0.950 . S
C3186 C3187 1.327 . S
C3187 H3181 0.950 . S
C3187 C3186 1.327 . S
C3187 C3191 1.429 . S
C3188 C3171 1.574 . S
C3188 H3182 0.949 . S
C3188 C3192 1.368 . S
C3189 C3170 1.429 . S
C3189 C3183 1.429 . S
C3189 C3190 1.523 . S
C3190 C3171 1.368 . S
C3190 C3184 1.368 . S
C3190 C3189 1.523 . S
C3191 C3175 1.429 . S
C3191 C3187 1.429 . S
C3191 C3192 1.523 . S
C3192 C3176 1.368 . S
C3192 C3188 1.368 . S
C3192 C3191 1.523 . S
H3193 C3168 0.950 . S
H3194 C3170 0.950 . S
H3195 C3171 0.949 . S
H3196 C3173 0.950 . S
H3197 C3175 0.950 . S
C3198 C3199 1.349 . S
C3198 C3200 1.327 . S
C3198 H3223 0.950 . S
C3199 C3198 1.349 . S
C3199 C3215 1.349 . S
C3200 C3198 1.327 . S
C3200 C3219 1.429 . S
C3200 H3224 0.950 . S
C3201 C3218 1.574 . S
C3201 C3220 1.368 . S
C3201 H3225 0.949 . S
H3202 C3206 0.949 . S
C3203 C3204 1.349 . S
C3203 C3205 1.327 . S
C3203 H3226 0.950 . S
C3204 C3203 1.349 . S
C3204 C3216 1.349 . S
C3205 C3203 1.327 . S
C3205 C3221 1.429 . S
C3205 H3227 0.950 . S
C3206 H3202 0.949 . S
C3206 C3214 1.574 . S
C3206 C3222 1.368 . S
H3207 C3215 0.950 . S
H3208 C3213 0.950 . S
H3209 C3214 0.949 . S
H3210 C3216 0.950 . S
H3211 C3217 0.950 . S
H3212 C3218 0.949 . S
C3213 H3208 0.950 . S
C3213 C3215 1.327 . S
C3213 C3219 1.429 . S
C3214 C3206 1.574 . S
C3214 H3209 0.949 . S
C3214 C3220 1.368 . S
C3215 C3199 1.349 . S
C3215 H3207 0.950 . S
C3215 C3213 1.327 . S
C3216 C3204 1.349 . S
C3216 H3210 0.950 . S
C3216 C3217 1.327 . S
C3217 H3211 0.950 . S
C3217 C3216 1.327 . S
C3217 C3221 1.429 . S
C3218 C3201 1.574 . S
C3218 H3212 0.949 . S
C3218 C3222 1.368 . S
C3219 C3200 1.429 . S
C3219 C3213 1.429 . S
C3219 C3220 1.523 . S
C3220 C3201 1.368 . S
C3220 C3214 1.368 . S
C3220 C3219 1.523 . S
C3221 C3205 1.429 . S
C3221 C3217 1.429 . S
C3221 C3222 1.523 . S
C3222 C3206 1.368 . S
C3222 C3218 1.368 . S
C3222 C3221 1.523 . S
H3223 C3198 0.950 . S
H3224 C3200 0.950 . S
H3225 C3201 0.949 . S
H3226 C3203 0.950 . S
H3227 C3205 0.950 . S
C1074 C774 1.038 . S
C1069 C765 1.019 . S
C1099 C701 1.038 . S
C1104 C772 1.057 . S
C1134 C773 1.047 . S
C1129 C669 1.028 . S
C1159 C733 1.009 . S
C1164 C775 1.027 . S
C1194 C819 1.038 . S
C1189 C541 1.019 . S
C1224 C879 1.014 . S
C1219 C573 0.997 . S
C1249 C605 1.029 . S
C1254 C818 1.047 . S
C1284 C878 1.047 . S
C1279 C637 1.028 . S
C1309 C413 1.018 . S
C1314 C820 1.037 . S
C1344 C876 1.045 . S
C1339 C445 1.027 . S
C1369 C477 1.008 . S
C1374 C821 1.027 . S
C1399 C509 0.995 . S
C1404 C877 1.012 . S
C1434 C927 1.030 . S
C1429 C381 1.016 . S
C1459 C317 1.038 1_554 S
C1464 C926 1.063 . S
C1489 C285 1.028 1_554 S
C1494 C928 1.052 . S
C1524 C929 1.019 . S
C1519 C349 0.998 1_554 S
C1549 C157 1.014 1_455 S
C1554 C970 1.032 . S
C1579 C189 0.981 1_545 S
C1584 C1029 1.014 . S
C1609 C221 1.024 . S
C1614 C968 1.042 . S
C1639 C253 1.033 . S
C1644 C1028 1.033 . S
C1674 C969 1.044 . S
C1669 C29 1.025 1_455 S
C1704 C1026 1.046 . S
C1699 C61 1.012 1_545 S
C1729 C93 1.015 . S
C1734 C971 1.034 . S
C1764 C1027 1.026 . S
C1759 C125 0.993 1_545 S
C1794 C771 1.721 . S
C1789 C23 1.632 1_455 S
C1819 C55 1.609 1_545 S
C1824 C777 1.706 . S
C1849 C87 1.621 . S
C1854 C769 1.711 . S
C1879 C113 1.619 1_545 S
C1884 C776 1.702 . S
C1909 C151 1.622 1_455 S
C1914 C768 1.712 . S
C1944 C778 1.686 . S
C1939 C183 1.589 1_545 S
C1969 C215 1.633 . S
C1974 C770 1.722 . S
C2004 C779 1.702 . S
C1999 C247 1.622 . S
C2034 C825 1.691 . S
C2029 C119 1.601 1_545 S
C2059 C17 1.639 1_455 S
C2064 C868 1.716 . S
C2094 C823 1.711 . S
C2089 C49 1.634 1_545 S
C2124 C870 1.714 . S
C2119 C81 1.638 . S
C2149 C177 1.621 1_545 S
C2154 C824 1.697 . S
C2184 C869 1.715 . S
C2179 C209 1.639 . S
C2214 C822 1.704 . S
C2209 C241 1.629 . S
C2244 C871 1.714 . S
C2239 C145 1.637 1_455 S
C2274 C875 1.726 . S
C2269 C279 1.633 1_554 S
C2299 C305 1.664 1_554 S
C2304 C874 1.743 . S
C2334 C826 1.736 . S
C2329 C273 1.657 1_554 S
C2364 C873 1.710 . S
C2359 C337 1.631 1_554 S
C2389 C375 1.633 . S
C2394 C829 1.721 . S
C2419 C369 1.640 . S
C2424 C872 1.715 . S
C2454 C828 1.730 . S
C2449 C311 1.638 1_554 S
C2484 C827 1.716 . S
C2479 C343 1.625 1_554 S
C2514 C921 1.721 . S
C2509 C407 1.631 . S
C2544 C924 1.709 . S
C2539 C439 1.620 . S
C2569 C471 1.620 . S
C2574 C920 1.710 . S
C2604 C922 1.697 . S
C2599 C497 1.621 . S
C2634 C918 1.711 . S
C2629 C535 1.622 . S
C2659 C561 1.621 . S
C2664 C923 1.697 . S
C2689 C599 1.632 . S
C2694 C919 1.722 . S
C2724 C925 1.708 . S
C2719 C631 1.619 . S
C2754 C979 1.685 . S
C2749 C503 1.596 . S
C2779 C401 1.634 . S
C2784 C1018 1.711 . S
C2814 C978 1.708 . S
C2809 C433 1.632 . S
C2844 C1020 1.709 . S
C2839 C465 1.632 . S
C2874 C977 1.686 . S
C2869 C567 1.596 . S
C2899 C593 1.646 . S
C2904 C1019 1.722 . S
C2934 C976 1.709 . S
C2929 C625 1.633 . S
C2964 C1021 1.720 . S
C2959 C529 1.644 . S
C2994 C1025 1.719 . S
C2989 C663 1.629 . S
C3019 C689 1.660 . S
C3024 C1024 1.736 . S
C3054 C972 1.736 . S
C3049 C657 1.660 . S
C3079 C721 1.639 . S
C3084 C1023 1.715 . S
C3114 C975 1.722 . S
C3109 C759 1.632 . S
C3144 C1022 1.721 . S
C3139 C753 1.644 . S
C3174 C973 1.730 . S
C3169 C695 1.640 . S
C3199 C727 1.627 . S
C3204 C974 1.717 . S
