# Generated by pormake.
# Topology anh, (6,3)-cn, num edge types: 1
# Building blocks:
#     Node 0, Type 0, BuildingBlock: INOVEN_clean_sbu_0, # of connection points: 6
#     Node 1, Type 0, BuildingBlock: INOVEN_clean_sbu_0, # of connection points: 6
#     Node 2, Type 0, BuildingBlock: INOVEN_clean_sbu_0, # of connection points: 6
#     Node 3, Type 1, BuildingBlock: CUQRIR_clean_linker_1, # of connection points: 3
#     Node 4, Type 1, BuildingBlock: CUQRIR_clean_linker_1, # of connection points: 3
#     Node 5, Type 1, BuildingBlock: CUQRIR_clean_linker_1, # of connection points: 3
#     Node 6, Type 1, BuildingBlock: CUQRIR_clean_linker_1, # of connection points: 3
#     Node 7, Type 1, BuildingBlock: CUQRIR_clean_linker_1, # of connection points: 3
#     Node 8, Type 1, BuildingBlock: CUQRIR_clean_linker_1, # of connection points: 3
#     Edge 9, Type (0, 1), BuildingBlock: ZUJKAS_clean_linker_0, # of connection points: 2
#     Edge 10, Type (0, 1), BuildingBlock: ZUJKAS_clean_linker_0, # of connection points: 2
#     Edge 11, Type (0, 1), BuildingBlock: ZUJKAS_clean_linker_0, # of connection points: 2
#     Edge 12, Type (0, 1), BuildingBlock: ZUJKAS_clean_linker_0, # of connection points: 2
#     Edge 13, Type (0, 1), BuildingBlock: ZUJKAS_clean_linker_0, # of connection points: 2
#     Edge 14, Type (0, 1), BuildingBlock: ZUJKAS_clean_linker_0, # of connection points: 2
#     Edge 15, Type (0, 1), BuildingBlock: ZUJKAS_clean_linker_0, # of connection points: 2
#     Edge 16, Type (0, 1), BuildingBlock: ZUJKAS_clean_linker_0, # of connection points: 2
#     Edge 17, Type (0, 1), BuildingBlock: ZUJKAS_clean_linker_0, # of connection points: 2
#     Edge 18, Type (0, 1), BuildingBlock: ZUJKAS_clean_linker_0, # of connection points: 2
#     Edge 19, Type (0, 1), BuildingBlock: ZUJKAS_clean_linker_0, # of connection points: 2
#     Edge 20, Type (0, 1), BuildingBlock: ZUJKAS_clean_linker_0, # of connection points: 2
#     Edge 21, Type (0, 1), BuildingBlock: ZUJKAS_clean_linker_0, # of connection points: 2
#     Edge 22, Type (0, 1), BuildingBlock: ZUJKAS_clean_linker_0, # of connection points: 2
#     Edge 23, Type (0, 1), BuildingBlock: ZUJKAS_clean_linker_0, # of connection points: 2
#     Edge 24, Type (0, 1), BuildingBlock: ZUJKAS_clean_linker_0, # of connection points: 2
#     Edge 25, Type (0, 1), BuildingBlock: ZUJKAS_clean_linker_0, # of connection points: 2
#     Edge 26, Type (0, 1), BuildingBlock: ZUJKAS_clean_linker_0, # of connection points: 2
# Relax obj value: 0.168
# Max RMSD: 0.212
# Mean RMSD: 0.163
data_MOF--net-anh--node1-INOVEN_clean_sbu_0--node2-CUQRIR_clean_linker_1--edge1-ZUJKAS_clean_linker_0
_symmetry_space_group_name_H-M    P1
_symmetry_Int_Tables_number       1
_symmetry_cell_setting            triclinic
loop_
_symmetry_equiv_pos_as_xyz
'x, y, z'
_cell_length_a     38.409555
_cell_length_b     44.362226
_cell_length_c     61.417139
_cell_angle_alpha  89.102183
_cell_angle_beta   90.045577
_cell_angle_gamma 128.41489
loop_
_atom_site_label
_atom_site_type_symbol
_atom_site_fract_x
_atom_site_fract_y
_atom_site_fract_z
_atom_type_partial_charge
Gd0 Gd 0.09979 0.49575 0.15306 0.0
Gd1 Gd 1.0464 0.52079 0.16068 0.0
C2 C 0.1492 0.58762 0.16095 0.0
C3 C 0.1612 0.49185 0.14164 0.0
C4 C 0.20611 0.51204 0.15076 0.0
C5 C 0.21316 0.49343 0.16674 0.0
C6 C 0.24094 0.55087 0.14538 0.0
C7 C 0.28782 0.55233 0.17264 0.0
C8 C 0.28159 0.5708 0.15617 0.0
C9 C 0.25339 0.51339 0.17764 0.0
C10 C 0.07886 0.49225 0.19549 0.0
C11 C 0.99702 0.42935 0.15413 0.0
C12 C 0.98493 0.52352 0.17399 0.0
C13 C 0.93657 0.49397 0.17302 0.0
C14 C 0.91759 0.46748 0.15606 0.0
C15 C 0.90933 0.49039 0.1897 0.0
C16 C 0.84403 0.43555 0.17164 0.0
C17 C 0.86337 0.46136 0.18904 0.0
C18 C 0.87177 0.43864 0.15533 0.0
C19 C 0.06899 0.52479 0.11837 0.0
O20 O 0.15167 0.56141 0.15296 0.0
O21 O 0.11096 0.57782 0.16805 0.0
O22 O 0.12836 0.46651 0.15471 0.0
O23 O 0.15358 0.51297 0.13094 0.0
O24 O 0.08071 0.46731 0.18625 0.0
O25 O 0.09079 0.51917 0.18227 0.0
O26 O 0.99599 0.45563 0.16313 0.0
O27 O 1.03406 0.43937 0.14504 0.0
O28 O 1.00548 0.53821 0.15525 0.0
O29 O 1.00485 0.51502 0.18692 0.0
O30 O 0.06879 0.55067 0.12774 0.0
O31 O 0.05561 0.4973 0.13144 0.0
H32 H 0.18721 0.4635 0.17114 0.0
H33 H 0.23665 0.56605 0.13308 0.0
H34 H 0.30798 0.60062 0.15176 0.0
H35 H 0.25787 0.49804 0.18973 0.0
H36 H 0.93819 0.46924 0.14324 0.0
H37 H 0.92359 0.51007 0.20317 0.0
H38 H 0.8429 0.45942 0.20199 0.0
H39 H 0.85803 0.41965 0.14155 0.0
Gd40 Gd 0.66372 0.04311 0.4817 0.0
Gd41 Gd 0.60382 0.06836 0.47103 0.0
C42 C 0.55573 0.97786 0.47598 0.0
C43 C 0.69988 0.01338 0.49634 0.0
C44 C 0.68786 0.97671 0.50477 0.0
C45 C 0.7207 0.97204 0.50558 0.0
C46 C 0.64426 0.94606 0.51133 0.0
C47 C 0.66661 0.90613 0.51921 0.0
C48 C 0.63369 0.91101 0.51846 0.0
C49 C 0.71026 0.93719 0.51272 0.0
C50 C 0.66009 0.05991 0.43974 0.0
C51 C 0.71149 0.13278 0.4774 0.0
C52 C 0.56803 0.09569 0.45277 0.0
C53 C 0.56708 0.12784 0.45787 0.0
C54 C 0.53755 0.12325 0.47369 0.0
C55 C 0.59679 0.16394 0.4474 0.0
C56 C 0.56942 0.19073 0.46942 0.0
C57 C 0.59802 0.19501 0.45313 0.0
C58 C 0.53877 0.1543 0.4794 0.0
C59 C 0.61575 0.06803 0.51487 0.0
O60 O 0.59326 0.98674 0.48388 0.0
O61 O 0.55319 1.00425 0.46775 0.0
O62 O 0.69206 0.01437 0.47571 0.0
O63 O 0.69032 0.03125 0.50867 0.0
O64 O 0.69578 0.06843 0.44871 0.0
O65 O 0.62788 0.04181 0.45302 0.0
O66 O 0.67481 0.12339 0.46809 0.0
O67 O 0.71343 0.10689 0.48702 0.0
O68 O 0.54618 0.06571 0.46612 0.0
O69 O 0.60651 0.10537 0.44648 0.0
O70 O 0.592 0.07651 0.50619 0.0
O71 O 0.63087 0.06061 0.49968 0.0
H72 H 0.75447 0.9953 0.50044 0.0
H73 H 0.61847 0.94918 0.51084 0.0
H74 H 0.59984 0.88784 0.5235 0.0
H75 H 0.7363 0.93434 0.51269 0.0
H76 H 0.51381 0.09578 0.48192 0.0
H77 H 0.61975 0.16841 0.43502 0.0
H78 H 0.62228 0.22268 0.4452 0.0
H79 H 0.51564 0.14973 0.4917 0.0
Gd80 Gd 0.61814 0.60726 0.84698 0.0
Gd81 Gd 0.55665 0.52213 0.85252 0.0
C82 C 0.50866 0.56248 0.85223 0.0
C83 C 0.65928 0.67796 0.83416 0.0
C84 C 0.64989 0.70479 0.82847 0.0
C85 C 0.67473 0.7409 0.83826 0.0
C86 C 0.61803 0.69576 0.81285 0.0
C87 C 0.63709 0.75912 0.81655 0.0
C88 C 0.61184 0.72274 0.8069 0.0
C89 C 0.66832 0.76772 0.83244 0.0
C90 C 0.60557 0.58138 0.88833 0.0
C91 C 0.66694 0.5676 0.84967 0.0
C92 C 0.51825 0.45144 0.86417 0.0
C93 C 0.52692 0.4238 0.86024 0.0
C94 C 0.4921 0.38641 0.85366 0.0
C95 C 0.56984 0.43469 0.86201 0.0
C96 C 0.54313 0.37142 0.85009 0.0
C97 C 0.57785 0.40879 0.85702 0.0
C98 C 0.50007 0.36049 0.84863 0.0
C99 C 0.56956 0.54694 0.81063 0.0
O100 O 0.54839 0.59332 0.84476 0.0
O101 O 0.50477 0.53172 0.85899 0.0
O102 O 0.65481 0.66759 0.85466 0.0
O103 O 0.64505 0.64975 0.82087 0.0
O104 O 0.64387 0.61068 0.88061 0.0
O105 O 0.57585 0.56834 0.87422 0.0
O106 O 0.62606 0.53572 0.85479 0.0
O107 O 0.67217 0.59938 0.84398 0.0
O108 O 0.50635 0.46102 0.84716 0.0
O109 O 0.5464 0.48079 0.87647 0.0
O110 O 0.53244 0.51643 0.81838 0.0
O111 O 0.59918 0.56094 0.82493 0.0
H112 H 0.69965 0.7486 0.85024 0.0
H113 H 0.59821 0.66805 0.80508 0.0
H114 H 0.58719 0.7151 0.79478 0.0
H115 H 0.68867 0.79561 0.84001 0.0
H116 H 0.45878 0.37743 0.85205 0.0
H117 H 0.59734 0.46331 0.86706 0.0
H118 H 0.61129 0.41808 0.85865 0.0
H119 H 0.47262 0.33219 0.84306 0.0
C120 C 0.56944 0.01275 0.17896 0.0
N121 N 0.59793 0.04105 0.19305 0.0
N122 N 0.53396 0.98154 0.18979 0.0
C123 C 0.57613 0.01559 0.15473 0.0
C124 C 0.5421 0.99178 0.21092 0.0
N125 N 0.58081 0.02781 0.21294 0.0
C126 C 0.51374 0.9654 0.22975 0.0
H127 H 0.59192 0.04529 0.14875 0.0
H128 H 0.54411 0.9949 0.14635 0.0
H129 H 0.5987 0.00877 0.15075 0.0
H130 H 0.52096 0.94506 0.23278 0.0
H131 H 0.47796 0.94823 0.22596 0.0
H132 H 0.52056 0.98173 0.24479 0.0
C133 C 0.6019 0.53555 0.5461 0.0
N134 N 0.60579 0.5573 0.56269 0.0
N135 N 0.60104 0.50633 0.5538 0.0
C136 C 0.59939 0.54296 0.5224 0.0
C137 C 0.6049 0.51115 0.57561 0.0
N138 N 0.60835 0.54242 0.58103 0.0
C139 C 0.60443 0.48484 0.59162 0.0
H140 H 0.61108 0.53073 0.51187 0.0
H141 H 0.61946 0.57429 0.51891 0.0
H142 H 0.56429 0.52904 0.51833 0.0
H143 H 0.63916 0.49761 0.59578 0.0
H144 H 0.58855 0.45605 0.5848 0.0
H145 H 0.58667 0.48153 0.60683 0.0
C146 C 0.08973 0.56648 0.85786 0.0
N147 N 0.11635 0.56362 0.87171 0.0
N148 N 0.05614 0.56376 0.86885 0.0
C149 C 0.09795 0.57407 0.83386 0.0
C150 C 0.06324 0.55838 0.88969 0.0
N151 N 0.09891 0.55891 0.89144 0.0
C152 C 1.03355 0.55056 0.90869 0.0
H153 H 0.13411 0.59269 0.83019 0.0
H154 H 0.08361 0.58773 0.82748 0.0
H155 H 0.0818 0.5463 0.82558 0.0
H156 H 0.99919 0.53694 0.90331 0.0
H157 H 1.04706 0.57813 0.91659 0.0
H158 H 1.03229 0.53136 0.92103 0.0
C159 C 0.13751 0.55293 0.45763 0.0
N160 N 0.10877 0.52517 0.44322 0.0
N161 N 0.1716 0.58547 0.44698 0.0
C162 C 0.13455 0.5475 0.48194 0.0
C163 C 0.16253 0.57668 0.42571 0.0
N164 N 0.12488 0.54026 0.42342 0.0
C165 C 0.18946 0.60436 0.40705 0.0
H166 H 0.11381 0.55473 0.48868 0.0
H167 H 0.16797 0.56682 0.48932 0.0
H168 H 0.11899 0.51721 0.48649 0.0
H169 H 0.21485 0.60134 0.40196 0.0
H170 H 0.20667 0.63454 0.41192 0.0
H171 H 0.16811 0.59804 0.39285 0.0
C172 C 0.61608 0.08434 0.77825 0.0
N173 N 0.62268 0.06732 0.76239 0.0
N174 N 0.62093 0.11538 0.77014 0.0
C175 C 0.60838 0.07262 0.80195 0.0
C176 C 0.63085 0.11671 0.74881 0.0
N177 N 0.63244 0.08786 0.74418 0.0
C178 C 0.63525 0.14418 0.73212 0.0
H179 H 0.57219 0.05046 0.80501 0.0
H180 H 0.62078 0.09756 0.81241 0.0
H181 H 0.62514 0.0602 0.8065 0.0
H182 H 0.67079 0.16969 0.7305 0.0
H183 H 0.61601 0.15396 0.73709 0.0
H184 H 0.62358 0.13061 0.71596 0.0
C185 C 0.53054 0.44324 0.14247 0.0
N186 N 0.53214 0.43182 0.12247 0.0
N187 N 0.52045 0.46752 0.14096 0.0
C188 C 0.54279 0.43337 0.16317 0.0
C189 C 0.51572 0.47005 0.11923 0.0
N190 N 0.52331 0.44866 0.10802 0.0
C191 C 0.50354 0.49322 0.10876 0.0
H192 H 0.51229 0.40705 0.17065 0.0
H193 H 0.55789 0.45705 0.17496 0.0
H194 H 0.56638 0.4274 0.15993 0.0
H195 H 0.53438 0.5223 0.10436 0.0
H196 H 0.48313 0.49608 0.11996 0.0
H197 H 0.48473 0.47957 0.09359 0.0
H198 H 0.36857 0.59158 0.15273 0.0
H199 H 0.43187 0.59838 0.1676 0.0
H200 H 0.36862 0.56192 0.23093 0.0
H201 H 0.30482 0.55484 0.21606 0.0
H202 H 0.49211 0.62072 0.20775 0.0
H203 H 0.34421 0.46587 0.20035 0.0
H204 H 0.34353 0.5031 0.18891 0.0
H205 H 0.3412 0.49618 0.21792 0.0
C206 C 0.3692 0.58711 0.17007 0.0
C207 C 0.33135 0.57143 0.18312 0.0
C208 C 0.40558 0.59123 0.17862 0.0
C209 C 0.40424 0.57966 0.20021 0.0
C210 C 0.36997 0.57063 0.21417 0.0
H211 H 0.47746 0.43779 0.17964 0.0
H212 H 0.46379 0.4696 0.20633 0.0
C213 C 0.3334 0.56625 0.20561 0.0
C214 C 0.42861 0.56467 0.20506 0.0
H215 H 0.41339 0.48162 0.19738 0.0
C216 C 0.47509 0.59016 0.20623 0.0
C217 C 0.4062 0.52469 0.2036 0.0
C218 C 0.35608 0.4957 0.20258 0.0
C219 C 0.49995 0.57691 0.20395 0.0
C220 C 0.47763 0.53766 0.19924 0.0
C221 C 0.43102 0.5118 0.2007 0.0
C222 C 0.49983 0.52383 0.18832 0.0
C223 C 0.54976 0.60543 0.20587 0.0
C224 C 0.52769 0.5444 0.17016 0.0
C225 C 0.53756 0.52678 0.15561 0.0
C226 C 0.5178 0.48768 0.1582 0.0
C227 C 0.49294 0.46794 0.17718 0.0
C228 C 0.48495 0.48615 0.19237 0.0
H229 H 0.5588 0.62488 0.21968 0.0
H230 H 0.56496 0.59104 0.20844 0.0
H231 H 0.56404 0.62374 0.19088 0.0
H232 H 0.53901 0.57303 0.16608 0.0
H233 H 0.55835 0.54307 0.14155 0.0
H234 H 0.78443 0.17158 0.50403 0.0
H235 H 0.85123 0.23906 0.50073 0.0
H236 H 0.79903 0.25257 0.44243 0.0
H237 H 0.73157 0.1862 0.44638 0.0
H238 H 0.91449 0.2774 0.47293 0.0
H239 H 0.83312 0.34496 0.47221 0.0
H240 H 0.8029 0.29456 0.47853 0.0
H241 H 0.81231 0.31136 0.45059 0.0
C242 C 0.78707 0.18914 0.49066 0.0
C243 C 0.75235 0.17361 0.47566 0.0
C244 C 0.82535 0.22776 0.48874 0.0
C245 C 0.83007 0.25163 0.47162 0.0
C246 C 0.79582 0.23563 0.45631 0.0
H247 H 0.08626 0.45943 0.42579 0.0
H248 H 1.01874 0.39385 0.43281 0.0
C249 C 0.75724 0.19739 0.45849 0.0
C250 C 0.87134 0.29263 0.46924 0.0
H251 H 0.90831 0.3843 0.45876 0.0
C252 C 0.91302 0.30078 0.47007 0.0
C253 C 0.87004 0.32366 0.46597 0.0
C254 C 0.82718 0.31823 0.46703 0.0
C255 C 0.95297 0.33849 0.46716 0.0
C256 C 0.95148 0.36907 0.4623 0.0
C257 C 0.90985 0.36107 0.46207 0.0
C258 C 0.99244 0.40943 0.45748 0.0
C259 C 0.99625 0.34504 0.46991 0.0
C260 C 0.99965 0.44081 0.46803 0.0
C261 C 1.03749 0.47865 0.46326 0.0
C262 C 0.06938 0.4861 0.44801 0.0
C263 C 0.06212 0.4548 0.4374 0.0
C264 C 1.02384 0.41707 0.44179 0.0
H265 H 0.99211 0.3229 0.48094 0.0
H266 H 1.00764 0.34281 0.45386 0.0
H267 H 1.02246 0.37385 0.4766 0.0
H268 H 0.97599 0.43606 0.48005 0.0
H269 H 1.0417 0.50216 0.47139 0.0
H270 H 0.63283 0.80623 0.84264 0.0
H271 H 0.62752 0.85642 0.83148 0.0
H272 H 0.62534 0.82936 0.7641 0.0
H273 H 0.63009 0.77878 0.77519 0.0
H274 H 0.68471 0.92029 0.80721 0.0
H275 H 0.52118 0.83056 0.7666 0.0
H276 H 0.5405 0.81014 0.78353 0.0
H277 H 0.55995 0.82462 0.75582 0.0
C278 C 0.63105 0.81088 0.82545 0.0
C279 C 0.63175 0.78843 0.80981 0.0
C280 C 0.62791 0.83952 0.81908 0.0
C281 C 0.62542 0.84639 0.79695 0.0
C282 C 0.62607 0.824 0.78129 0.0
H283 H 0.68606 0.06208 0.7498 0.0
H284 H 0.68661 1.00763 0.75635 0.0
C285 C 0.62888 0.79513 0.78765 0.0
C286 C 0.62411 0.87811 0.79035 0.0
H287 H 0.56388 0.89835 0.76213 0.0
C288 C 0.65824 0.91546 0.79738 0.0
C289 C 0.58933 0.87178 0.7777 0.0
C290 C 0.55042 0.83206 0.77064 0.0
C291 C 0.65866 0.94662 0.7921 0.0
C292 C 0.62458 0.94051 0.77893 0.0
C293 C 0.5903 0.90312 0.77198 0.0
C294 C 0.62286 0.97224 0.77308 0.0
C295 C 0.69496 0.98555 0.80124 0.0
C296 C 0.58595 0.96975 0.77929 0.0
C297 C 0.58532 1.0005 0.77516 0.0
C298 C 0.62161 0.03434 0.76481 0.0
C299 C 0.65772 0.03626 0.75779 0.0
C300 C 0.65824 1.00538 0.76177 0.0
H301 H 0.71109 0.98321 0.81547 0.0
H302 H 0.72089 1.00345 0.78853 0.0
H303 H 0.68175 1.00065 0.80633 0.0
H304 H 0.55807 0.94438 0.78783 0.0
H305 H 0.55679 0.99817 0.78034 0.0
H306 H 0.79192 0.36094 0.15721 0.0
H307 H 0.71384 0.32232 0.14619 0.0
H308 H 0.70861 0.41102 0.16887 0.0
H309 H 0.78568 0.44945 0.17961 0.0
H310 H 0.6295 0.33514 0.17685 0.0
H311 H 0.68888 0.35912 0.09075 0.0
H312 H 0.69889 0.33415 0.10987 0.0
H313 H 0.72828 0.38493 0.11234 0.0
C314 C 0.77376 0.37183 0.16012 0.0
C315 C 0.79514 0.4085 0.16903 0.0
C316 C 0.72922 0.34969 0.15388 0.0
C317 C 0.70572 0.36407 0.15646 0.0
C318 C 0.7261 0.39927 0.16684 0.0
H319 H 0.61411 0.45792 0.11212 0.0
H320 H 0.64147 0.42092 0.11466 0.0
C321 C 0.77028 0.42126 0.17305 0.0
C322 C 0.66239 0.34635 0.14607 0.0
H323 H 0.62671 0.35578 0.09753 0.0
C324 C 0.62759 0.33785 0.15939 0.0
C325 C 0.65991 0.3493 0.12324 0.0
C326 C 0.69583 0.35734 0.10808 0.0
C327 C 0.59444 0.33894 0.15098 0.0
C328 C 0.59584 0.3477 0.12856 0.0
C329 C 0.6262 0.34956 0.11474 0.0
C330 C 0.57657 0.36622 0.12091 0.0
C331 C 0.56213 0.33599 0.16667 0.0
C332 C 0.53081 0.34745 0.12235 0.0
C333 C 0.51541 0.36888 0.12096 0.0
C334 C 0.54551 0.40889 0.1177 0.0
C335 C 0.59051 0.42696 0.11415 0.0
C336 C 0.60597 0.40577 0.11569 0.0
H337 H 0.56711 0.33088 0.18375 0.0
H338 H 0.56583 0.36288 0.16601 0.0
H339 H 0.52761 0.31183 0.16206 0.0
H340 H 0.50754 0.31692 0.12607 0.0
H341 H 0.48057 0.35481 0.12394 0.0
H342 H 0.47239 0.94792 0.46164 0.0
H343 H 0.40643 0.88043 0.46056 0.0
H344 H 0.48077 0.84643 0.48821 0.0
H345 H 0.54693 0.91394 0.48958 0.0
H346 H 0.39513 0.82208 0.43815 0.0
H347 H 0.36902 0.78613 0.52654 0.0
H348 H 0.40528 0.83509 0.51617 0.0
H349 H 0.42385 0.80656 0.51682 0.0
C350 C 0.47482 0.92621 0.46766 0.0
C351 C 0.51522 0.93664 0.47577 0.0
C352 C 0.43692 0.88752 0.46702 0.0
C353 C 0.43827 0.85822 0.47459 0.0
C354 C 0.47849 0.86846 0.48272 0.0
H355 H 0.25735 0.61815 0.4392 0.0
H356 H 0.32218 0.6841 0.44768 0.0
C357 C 0.51648 0.90719 0.48336 0.0
C358 C 0.39822 0.817 0.47289 0.0
H359 H 0.32539 0.7336 0.50241 0.0
C360 C 0.37986 0.80284 0.45224 0.0
C361 C 0.37785 0.79183 0.49127 0.0
C362 C 0.39468 0.80566 0.51399 0.0
C363 C 0.34247 0.76425 0.44941 0.0
C364 C 0.32296 0.73881 0.46767 0.0
C365 C 0.34061 0.75302 0.4884 0.0
C366 C 0.2845 0.69734 0.46523 0.0
C367 C 0.32384 0.75099 0.42685 0.0
C368 C 0.24201 0.68225 0.4731 0.0
C369 C 0.20493 0.64445 0.46826 0.0
C370 C 0.2099 0.62126 0.45557 0.0
C371 C 0.25278 0.63565 0.44891 0.0
C372 C 0.28969 0.67328 0.45367 0.0
H373 H 0.33623 0.77558 0.41549 0.0
H374 H 0.33398 0.7343 0.42026 0.0
H375 H 0.28696 0.73193 0.4273 0.0
H376 H 0.23725 0.70026 0.4821 0.0
H377 H 0.17213 0.63401 0.47342 0.0
H378 H 0.61515 0.38764 0.82782 0.0
H379 H 0.62836 0.34276 0.81677 0.0
H380 H 0.50435 0.24885 0.84689 0.0
H381 H 0.49109 0.29355 0.85833 0.0
H382 H 0.63307 0.29109 0.84269 0.0
H383 H 0.49458 0.21403 0.78363 0.0
H384 H 0.51591 0.2602 0.79439 0.0
H385 H 0.47942 0.21719 0.81068 0.0
C386 C 0.59086 0.35753 0.83235 0.0
C387 C 0.55189 0.34426 0.8439 0.0
C388 C 0.5984 0.33188 0.82591 0.0
C389 C 0.56705 0.2924 0.83074 0.0
C390 C 0.52858 0.2791 0.84262 0.0
H391 H 0.54941 0.09407 0.79374 0.0
H392 H 0.53712 0.13673 0.81055 0.0
C393 C 0.52102 0.30472 0.84911 0.0
C394 C 0.57456 0.26518 0.8232 0.0
H395 H 0.53347 0.18941 0.7896 0.0
C396 C 0.61134 0.26885 0.83107 0.0
C397 C 0.54608 0.23612 0.8081 0.0
C398 C 0.50696 0.23168 0.79852 0.0
C399 C 0.62017 0.24399 0.82441 0.0
C400 C 0.59198 0.21521 0.80909 0.0
C401 C 0.555 0.21138 0.80137 0.0
C402 C 0.60078 0.18941 0.80035 0.0
C403 C 0.65917 0.24839 0.83412 0.0
C404 C 0.64061 0.20477 0.78909 0.0
C405 C 0.64769 0.18043 0.77971 0.0
C406 C 0.61493 0.14031 0.78121 0.0
C407 C 0.57531 0.12491 0.79264 0.0
C408 C 0.56824 0.14924 0.80209 0.0
H409 H 0.66887 0.26326 0.84996 0.0
H410 H 0.6516 0.22001 0.83663 0.0
H411 H 0.68813 0.266 0.82284 0.0
H412 H 0.66581 0.2356 0.78709 0.0
H413 H 0.67848 0.19285 0.77097 0.0
H414 H 0.71595 0.89436 0.54474 0.0
H415 H 0.7012 0.83342 0.55362 0.0
H416 H 0.57738 0.77206 0.51915 0.0
H417 H 0.59257 0.83303 0.50954 0.0
H418 H 0.63113 0.76741 0.57598 0.0
H419 H 0.64052 0.73545 0.49007 0.0
H420 H 0.65911 0.78215 0.49835 0.0
H421 H 0.60084 0.74348 0.49508 0.0
C422 C 0.68568 0.86794 0.53891 0.0
C423 C 0.65573 0.86872 0.52618 0.0
C424 C 0.67715 0.83309 0.54415 0.0
C425 C 0.63859 0.79821 0.53673 0.0
C426 C 0.60779 0.79868 0.52471 0.0
H427 H 0.54638 0.5624 0.54358 0.0
H428 H 0.55248 0.62055 0.53853 0.0
C429 C 0.61629 0.83356 0.51943 0.0
C430 C 0.63123 0.76158 0.54125 0.0
H431 H 0.61987 0.68751 0.51648 0.0
C432 C 0.62866 0.74992 0.56299 0.0
C433 C 0.62813 0.73882 0.52428 0.0
C434 C 0.63267 0.75067 0.50063 0.0
C435 C 0.62257 0.71591 0.56819 0.0
C436 C 0.61969 0.69328 0.5512 0.0
C437 C 0.62197 0.70482 0.52949 0.0
C438 C 0.61486 0.65775 0.55548 0.0
C439 C 0.61854 0.70417 0.59181 0.0
C440 C 0.64785 0.65928 0.56669 0.0
C441 C 0.64441 0.62611 0.56946 0.0
C442 C 0.60815 0.59099 0.56093 0.0
C443 C 0.57488 0.58933 0.55003 0.0
C444 C 0.57828 0.62243 0.54724 0.0
H445 H 0.60938 0.71846 0.60234 0.0
H446 H 0.5933 0.67251 0.59407 0.0
H447 H 0.651 0.7127 0.59737 0.0
H448 H 0.67681 0.68631 0.57281 0.0
H449 H 0.67058 0.628 0.57775 0.0
H450 H 0.75211 0.61858 0.83035 0.0
H451 H 0.81525 0.61747 0.83109 0.0
H452 H 0.74007 0.5168 0.87298 0.0
H453 H 0.67644 0.51672 0.87111 0.0
H454 H 0.87361 0.6279 0.85365 0.0
H455 H 0.78317 0.47387 0.83969 0.0
H456 H 0.75604 0.49531 0.8376 0.0
H457 H 0.76218 0.47998 0.86379 0.0
C458 C 0.74851 0.59577 0.83957 0.0
C459 C 0.70748 0.56739 0.85036 0.0
C460 C 0.78544 0.59515 0.84008 0.0
C461 C 0.78415 0.56635 0.85161 0.0
C462 C 0.74339 0.53867 0.86292 0.0
H463 H 1.04374 0.61351 0.88518 0.0
H464 H 0.98056 0.61341 0.88124 0.0
C465 C 0.70622 0.53886 0.86206 0.0
C466 C 0.8252 0.56627 0.85226 0.0
H467 H 0.85697 0.50799 0.85276 0.0
C468 C 0.86923 0.60131 0.85332 0.0
C469 C 0.82232 0.53244 0.85133 0.0
C470 C 0.77847 0.49336 0.84779 0.0
C471 C 0.90824 0.60352 0.85387 0.0
C472 C 0.90518 0.56957 0.85441 0.0
C473 C 0.86126 0.53455 0.85284 0.0
C474 C 0.94625 0.56976 0.85659 0.0
C475 C 0.9527 0.6431 0.85286 0.0
C476 C 0.95026 0.5444 0.84496 0.0
C477 C 0.98707 0.54377 0.84773 0.0
C478 C 1.02222 0.56859 0.86227 0.0
C479 C 1.0185 0.5942 0.87353 0.0
C480 C 0.98168 0.5944 0.87105 0.0
H481 H 0.95034 0.66396 0.84421 0.0
H482 H 0.96389 0.6536 0.86965 0.0
H483 H 0.97815 0.64304 0.84438 0.0
H484 H 0.92446 0.52446 0.8337 0.0
H485 H 0.98712 0.52279 0.839 0.0
H486 H 0.156 0.64997 0.17393 0.0
H487 H 0.22284 0.71701 0.17591 0.0
H488 H 0.30232 0.68532 0.15352 0.0
H489 H 0.23544 0.61823 0.1511 0.0
H490 H 0.29642 0.74895 0.20037 0.0
H491 H 0.34537 0.77539 0.11302 0.0
H492 H 0.29156 0.73358 0.12254 0.0
H493 H 0.33935 0.73516 0.12494 0.0
C494 C 0.18762 0.65718 0.16931 0.0
C495 C 0.19012 0.62852 0.16225 0.0
C496 C 0.22592 0.69565 0.17046 0.0
C497 C 0.26774 0.70659 0.16452 0.0
C498 C 0.27044 0.67798 0.15767 0.0
H499 H 0.53666 0.92682 0.17353 0.0
H500 H 0.47222 0.85969 0.16598 0.0
C501 C 0.23209 0.63946 0.15644 0.0
C502 C 0.30843 0.74764 0.16631 0.0
H503 H 0.39654 0.82476 0.13738 0.0
C504 C 0.31815 0.76549 0.18655 0.0
C505 C 0.33712 0.7694 0.14832 0.0
C506 C 0.32772 0.75259 0.12593 0.0
C507 C 0.35561 0.80411 0.18935 0.0
C508 C 0.38403 0.82595 0.17136 0.0
C509 C 0.37475 0.80809 0.15116 0.0
C510 C 0.42316 0.86745 0.17333 0.0
C511 C 0.36484 0.82106 0.21172 0.0
C512 C 0.41715 0.8945 0.17908 0.0
C513 C 0.4538 0.93264 0.18322 0.0
C514 C 0.49719 0.94457 0.18161 0.0
C515 C 0.50344 0.9182 0.17469 0.0
C516 C 0.4667 0.87993 0.17051 0.0
H517 H 0.34688 0.79837 0.22467 0.0
H518 H 0.40096 0.83989 0.2152 0.0
H519 H 0.35359 0.83879 0.2125 0.0
H520 H 0.38399 0.88582 0.18099 0.0
H521 H 0.44838 0.95259 0.18856 0.0
H522 H 0.58212 0.24838 0.44388 0.0
H523 H 0.58936 0.3045 0.45577 0.0
H524 H 0.56915 0.26459 0.52246 0.0
H525 H 0.56342 0.20926 0.51086 0.0
H526 H 0.5299 0.30881 0.47814 0.0
H527 H 0.68376 0.3749 0.52553 0.0
H528 H 0.66384 0.33667 0.50662 0.0
H529 H 0.63995 0.32589 0.53354 0.0
C530 C 0.57968 0.25175 0.46111 0.0
C531 C 0.57238 0.22432 0.47641 0.0
C532 C 0.58354 0.28371 0.46785 0.0
C533 C 0.5805 0.28909 0.49003 0.0
C534 C 0.57245 0.26146 0.5053 0.0
H535 H 0.52902 0.43205 0.55191 0.0
H536 H 0.52403 0.38002 0.53444 0.0
C537 C 0.56861 0.22953 0.49859 0.0
C538 C 0.58527 0.32331 0.49726 0.0
H539 H 0.64509 0.40034 0.53084 0.0
C540 C 0.55527 0.329 0.48954 0.0
C541 C 0.61885 0.35003 0.51186 0.0
C542 C 0.65373 0.34687 0.51972 0.0
C543 C 0.55708 0.35997 0.49656 0.0
C544 C 0.5893 0.38559 0.51199 0.0
C545 C 0.62013 0.38054 0.51918 0.0
C546 C 0.59115 0.41732 0.52131 0.0
C547 C 0.5247 0.36512 0.48721 0.0
C548 C 0.63063 0.45549 0.52004 0.0
C549 C 0.63345 0.48497 0.53019 0.0
C550 C 0.59693 0.47673 0.54179 0.0
C551 C 0.55729 0.43882 0.54281 0.0
C552 C 0.55446 0.40929 0.53275 0.0
H553 H 0.51204 0.35105 0.4712 0.0
H554 H 0.4958 0.35161 0.49848 0.0
H555 H 0.54023 0.39606 0.48515 0.0
H556 H 0.65944 0.46236 0.51144 0.0
H557 H 0.66435 0.51409 0.52945 0.0
H558 H 0.49832 0.61594 0.83524 0.0
H559 H 0.43423 0.61573 0.83691 0.0
H560 H 0.36184 0.51057 0.87501 0.0
H561 H 0.42495 0.50988 0.87242 0.0
H562 H 0.39001 0.6238 0.86186 0.0
H563 H 0.26016 0.47339 0.8395 0.0
H564 H 0.28788 0.47543 0.86353 0.0
H565 H 0.31816 0.49487 0.83803 0.0
C566 C 0.46868 0.59237 0.84384 0.0
C567 C 0.46809 0.56269 0.85344 0.0
C568 C 0.43126 0.59228 0.84489 0.0
C569 C 0.39061 0.56257 0.85564 0.0
C570 C 0.39061 0.53341 0.86568 0.0
H571 H 0.13055 0.52719 0.84043 0.0
H572 H 0.19503 0.52802 0.83589 0.0
C573 C 0.42778 0.53325 0.86441 0.0
C574 C 0.34975 0.56288 0.85679 0.0
H575 H 0.23456 0.50572 0.85448 0.0
C576 C 0.35622 0.59765 0.86014 0.0
C577 C 0.30418 0.52968 0.85414 0.0
C578 C 0.29211 0.49135 0.84836 0.0
C579 C 0.32055 0.60007 0.86131 0.0
C580 C 0.27485 0.56652 0.85992 0.0
C581 C 0.26839 0.53188 0.85606 0.0
C582 C 0.23409 0.56675 0.86224 0.0
C583 C 0.33316 0.63959 0.86317 0.0
C584 C 0.23177 0.58787 0.87852 0.0
C585 C 0.19483 0.58802 0.88081 0.0
C586 C 0.15674 0.56628 0.86738 0.0
C587 C 0.15862 0.54494 0.85108 0.0
C588 C 0.19604 0.54511 0.84864 0.0
H589 H 0.36667 0.66204 0.85603 0.0
H590 H 0.30901 0.64158 0.8548 0.0
H591 H 0.33437 0.64621 0.88063 0.0
H592 H 0.25844 0.60408 0.89006 0.0
H593 H 0.19632 0.6055 0.89343 0.0
H594 H 0.91465 0.40055 0.16958 0.0
H595 H 0.84871 0.33346 0.17365 0.0
H596 H 0.91987 0.29719 0.14562 0.0
H597 H 0.98648 0.36467 0.1415 0.0
H598 H 0.79907 0.27587 0.14293 0.0
H599 H 0.87229 0.23547 0.20324 0.0
H600 H 0.89783 0.28492 0.1962 0.0
H601 H 0.90294 0.2564 0.17811 0.0
C602 C 0.91645 0.37846 0.16413 0.0
C603 C 0.95619 0.38825 0.15523 0.0
C604 C 0.87854 0.33995 0.16651 0.0
C605 C 0.87932 0.31005 0.1603 0.0
C606 C 0.91858 0.31963 0.15095 0.0
H607 H 0.67378 0.05877 0.17613 0.0
H608 H 0.74256 0.12353 0.16671 0.0
C609 C 0.95661 0.35831 0.14844 0.0
C610 C 0.83896 0.26908 0.16374 0.0
H611 H 0.79913 0.18606 0.19203 0.0
C612 C 0.79916 0.25622 0.15362 0.0
C613 C 0.8389 0.24326 0.17765 0.0
C614 C 0.88011 0.25563 0.1896 0.0
C615 C 0.75954 0.21847 0.15697 0.0
C616 C 0.75919 0.19288 0.17129 0.0
C617 C 0.7992 0.20552 0.18109 0.0
C618 C 0.71747 0.15344 0.17683 0.0
C619 C 0.71856 0.20627 0.14484 0.0
C620 C 0.68053 0.14847 0.18588 0.0
C621 C 0.64144 0.11161 0.19109 0.0
C622 C 0.63859 0.07893 0.18779 0.0
C623 C 0.67541 0.08367 0.17888 0.0
C624 C 0.7146 0.1206 0.17356 0.0
H625 H 0.72731 0.22399 0.12979 0.0
H626 H 0.6979 0.17553 0.14033 0.0
H627 H 0.69831 0.21025 0.1554 0.0
H628 H 0.68193 0.17316 0.18898 0.0
H629 H 0.61311 0.10853 0.19745 0.0
H630 H 0.05989 0.46842 0.09473 0.0
H631 H 0.07594 0.47056 0.05573 0.0
H632 H 0.11853 0.58613 0.05061 0.0
H633 H 0.10244 0.58411 0.08939 0.0
H634 H 1.03721 0.48419 0.02079 0.0
H635 H 0.22062 0.59376 0.02082 0.0
H636 H 0.18855 0.56775 0.04516 0.0
H637 H 0.19209 0.60785 0.03507 0.0
C638 C 0.07295 0.49434 0.08528 0.0
C639 C 0.07983 0.52608 0.09507 0.0
C640 C 0.08214 0.49554 0.06304 0.0
C641 C 0.09905 0.52871 0.05032 0.0
C642 C 0.10631 0.56051 0.06017 0.0
H643 H 0.13982 0.61301 0.92165 0.0
H644 H 0.14552 0.60249 0.96031 0.0
C645 C 0.0968 0.55922 0.08231 0.0
C646 C 0.10651 0.52954 0.02648 0.0
H647 H 0.18516 0.58075 0.98631 0.0
C648 C 0.06966 0.50477 0.01322 0.0
C649 C 0.14888 0.55647 0.01667 0.0
C650 C 0.18992 0.58277 0.03016 0.0
C651 C 0.07351 0.50774 0.99037 0.0
C652 C 0.11571 0.53561 0.98049 0.0
C653 C 0.1529 0.55928 0.99382 0.0
C654 C 0.12072 0.54374 0.95658 0.0
C655 C 1.03185 0.48264 0.97707 0.0
C656 C 0.10739 0.51504 0.94136 0.0
C657 C 0.10434 0.52124 0.91919 0.0
C658 C 0.11505 0.55631 0.912 0.0
C659 C 0.13205 0.586 0.92691 0.0
C660 C 0.13499 0.57985 0.94897 0.0
H661 H 1.00125 0.46829 0.98722 0.0
H662 H 1.03108 0.4998 0.964 0.0
H663 H 1.03122 0.45991 0.96928 0.0
H664 H 0.09707 0.4872 0.94677 0.0
H665 H 0.09059 0.49787 0.90795 0.0
H666 H 0.58679 0.01592 0.41457 0.0
H667 H 0.58238 0.02087 0.37512 0.0
H668 H 0.71963 0.12315 0.37313 0.0
H669 H 0.72486 0.11629 0.41242 0.0
H670 H 0.58864 0.06782 0.34851 0.0
H671 H 0.7277 0.06582 0.32828 0.0
H672 H 0.70642 0.05785 0.35563 0.0
H673 H 0.7452 0.10608 0.34458 0.0
C674 C 0.61598 0.0394 0.40565 0.0
C675 C 0.65634 0.06538 0.41637 0.0
C676 C 0.61349 0.0423 0.3831 0.0
C677 C 0.65104 0.0718 0.37088 0.0
C678 C 0.69069 0.09919 0.3819 0.0
H679 H 0.59342 0.08722 0.23371 0.0
H680 H 0.619 0.10658 0.27121 0.0
C681 C 0.69357 0.09553 0.40439 0.0
C682 C 0.64832 0.07327 0.34668 0.0
H683 H 0.69661 0.07663 0.29901 0.0
C684 C 0.61226 0.06968 0.3377 0.0
C685 C 0.67887 0.07537 0.33245 0.0
C686 C 0.71642 0.07609 0.34072 0.0
C687 C 0.60496 0.06679 0.31515 0.0
C688 C 0.63611 0.06985 0.30089 0.0
C689 C 0.67299 0.07474 0.30983 0.0
C690 C 0.6287 0.06392 0.27697 0.0
C691 C 0.56253 0.05826 0.3071 0.0
C692 C 0.62945 0.036 0.26702 0.0
C693 C 0.61726 0.02658 0.24529 0.0
C694 C 0.60349 0.04443 0.23314 0.0
C695 C 0.60497 0.07376 0.24259 0.0
C696 C 0.61846 0.08406 0.26421 0.0
H697 H 0.5371 0.04619 0.32029 0.0
H698 H 0.56966 0.08532 0.30109 0.0
H699 H 0.54809 0.03745 0.29361 0.0
H700 H 0.63732 0.02005 0.27634 0.0
H701 H 0.61578 1.00356 0.23828 0.0
H702 H 0.55832 0.49625 0.78187 0.0
H703 H 0.57004 0.50483 0.74238 0.0
H704 H 0.61022 0.61956 0.7468 0.0
H705 H 0.60007 0.61131 0.78649 0.0
H706 H 0.52859 0.51504 0.71344 0.0
H707 H 0.70741 0.64107 0.70832 0.0
H708 H 0.6808 0.61505 0.73352 0.0
H709 H 0.67473 0.64988 0.72348 0.0
C710 C 0.57034 0.52348 0.77437 0.0
C711 C 0.57907 0.55339 0.78711 0.0
C712 C 0.57691 0.52837 0.75183 0.0
C713 C 0.59167 0.56307 0.74154 0.0
C714 C 0.60015 0.59297 0.75434 0.0
H715 H 0.55344 0.55344 0.59968 0.0
H716 H 0.55103 0.56565 0.63832 0.0
C717 C 0.5943 0.58827 0.77701 0.0
C718 C 0.59577 0.5667 0.71736 0.0
H719 H 0.6681 0.6198 0.67512 0.0
C720 C 0.55912 0.53801 0.70507 0.0
C721 C 0.63566 0.59657 0.70641 0.0
C722 C 0.67703 0.62719 0.71859 0.0
C723 C 0.56149 0.53763 0.68229 0.0
C724 C 0.60115 0.56777 0.67129 0.0
C725 C 0.63754 0.59699 0.68352 0.0
C726 C 0.60678 0.56735 0.64735 0.0
C727 C 0.52211 0.50383 0.67042 0.0
C728 C 0.64088 0.56723 0.63927 0.0
C729 C 0.643 0.56147 0.61718 0.0
C730 C 0.61077 0.55524 0.6028 0.0
C731 C 0.5785 0.55802 0.61053 0.0
C732 C 0.5768 0.56445 0.63261 0.0
H733 H 0.49935 0.47886 0.68158 0.0
H734 H 0.50293 0.51233 0.66302 0.0
H735 H 0.533 0.49442 0.65724 0.0
H736 H 0.66474 0.56985 0.65021 0.0
H737 H 0.66874 0.56028 0.61142 0.0
H738 H 0.6775 0.06635 0.53619 0.0
H739 H 0.68608 0.06484 0.57578 0.0
H740 H 0.57379 0.06314 0.58614 0.0
H741 H 0.56552 0.06496 0.54686 0.0
H742 H 0.64604 0.1184 0.60935 0.0
H743 H 0.61205 0.97777 0.62132 0.0
H744 H 0.65439 0.0099 0.60146 0.0
H745 H 0.59785 0.99038 0.59662 0.0
C746 C 0.65422 0.06484 0.54696 0.0
C747 C 0.62062 0.06536 0.5385 0.0
C748 C 0.65909 0.06397 0.56956 0.0
C749 C 0.63018 0.06336 0.58394 0.0
C750 C 0.59638 0.06347 0.57539 0.0
H751 H 0.57189 0.02493 0.72125 0.0
H752 H 0.57607 0.01707 0.68197 0.0
C753 C 0.59172 0.06455 0.55293 0.0
C754 C 0.6364 0.06522 0.60789 0.0
H755 H 0.63288 0.01618 0.65248 0.0
C756 C 0.64341 0.09615 0.61876 0.0
C757 C 0.63257 0.03598 0.62015 0.0
C758 C 0.62344 1.00141 0.60939 0.0
C759 C 0.64596 0.0984 0.64151 0.0
C760 C 0.64258 0.0694 0.65381 0.0
C761 C 0.63598 0.03858 0.64299 0.0
C762 C 0.64334 0.06993 0.67796 0.0
C763 C 0.65055 0.13114 0.6522 0.0
C764 C 0.68044 0.10115 0.68886 0.0
C765 C 0.67782 0.10567 0.71111 0.0
C766 C 0.63839 0.07872 0.72283 0.0
C767 C 0.60262 0.0458 0.7124 0.0
C768 C 0.60504 0.04142 0.69006 0.0
H769 H 0.64207 0.14549 0.64093 0.0
H770 H 0.6288 0.12083 0.66688 0.0
H771 H 0.68546 0.153 0.65734 0.0
H772 H 0.71056 0.12312 0.67992 0.0
H773 H 0.70567 0.13119 0.719 0.0
H774 H 0.52679 0.52116 0.90662 0.0
H775 H 0.51402 0.49388 0.94348 0.0
H776 H 0.65422 0.57602 0.95639 0.0
H777 H 0.66717 0.60363 0.91962 0.0
H778 H 0.55134 0.46198 0.96466 0.0
H779 H 0.59442 0.59186 0.00566 0.0
H780 H 0.58287 0.58409 0.97693 0.0
H781 H 0.63601 0.60079 0.98699 0.0
C782 C 0.55486 0.53338 0.91735 0.0
C783 C 0.59792 0.5647 0.9104 0.0
C784 C 0.54754 0.5177 0.93833 0.0
C785 C 0.5831 0.53324 0.9527 0.0
C786 C 0.62626 0.56403 0.94563 0.0
H787 H 0.60316 0.49764 0.08921 0.0
H788 H 0.61876 0.51401 0.05026 0.0
C789 C 0.63361 0.57972 0.92466 0.0
C790 C 0.57493 0.5178 0.97524 0.0
H791 H 0.58194 0.5424 0.0283 0.0
C792 C 0.55795 0.47946 0.97861 0.0
C793 C 0.58345 0.54071 0.99334 0.0
C794 C 0.59982 0.58155 0.99065 0.0
C795 C 0.55004 0.46361 -0.00027 0.0
C796 C 0.55879 0.48663 0.01782 0.0
C797 C 0.57559 0.5249 0.01439 0.0
C798 C 0.5503 0.47187 0.04056 0.0
C799 C 0.53321 0.4227 0.00254 0.0
C800 C 0.50686 0.44213 0.04793 0.0
C801 C 0.49823 0.43253 0.07014 0.0
C802 C 0.53285 0.45265 0.08513 0.0
C803 C 0.57638 0.48126 0.0777 0.0
C804 C 0.58511 0.49076 0.05557 0.0
H805 H 0.5391 0.41241 0.98768 0.0
H806 H 0.54939 0.41989 0.01655 0.0
H807 H 0.49688 0.40366 0.00582 0.0
H808 H 0.47937 0.42781 0.03671 0.0
H809 H 0.46436 0.41095 0.0758 0.0
H810 H 0.08345 0.54685 0.21865 0.0
H811 H 0.07973 0.5498 0.25839 0.0
H812 H 0.0591 0.44281 0.26542 0.0
H813 H 0.06195 0.43936 0.22584 0.0
H814 H 1.00601 0.4479 0.29398 0.0
H815 H 0.1835 0.57793 0.29631 0.0
H816 H 0.14885 0.58255 0.27938 0.0
H817 H 0.15868 0.54924 0.27229 0.0
C818 C 0.07776 0.52385 0.2287 0.0
C819 C 0.07357 0.49314 0.21922 0.0
C820 C 0.07576 0.5256 0.25137 0.0
C821 C 0.06984 0.49682 0.26487 0.0
C822 C 0.06381 0.46536 0.25533 0.0
H823 H 0.15866 0.51862 0.39564 0.0
H824 H 0.13877 0.50274 0.35728 0.0
C825 C 0.06566 0.46354 0.23272 0.0
C826 C 0.07262 0.50037 0.2889 0.0
H827 H 0.1445 0.55506 0.3297 0.0
C828 C 1.03617 0.4714 0.30184 0.0
C829 C 0.11223 0.5308 0.29909 0.0
C830 C 0.15323 0.56176 0.28612 0.0
C831 C 1.03842 0.472 0.32472 0.0
C832 C 0.07799 0.50253 0.33484 0.0
C833 C 0.11416 0.53166 0.32188 0.0
C834 C 0.08384 0.50462 0.3588 0.0
C835 C 0.99904 0.43945 0.33785 0.0
C836 C 0.05852 0.5095 0.37258 0.0
C837 C 0.06962 0.51802 0.39459 0.0
C838 C 0.10626 0.52203 0.40291 0.0
C839 C 0.12993 0.51508 0.38945 0.0
C840 C 0.11875 0.50632 0.3676 0.0
H841 H 0.97515 0.41417 0.32765 0.0
H842 H 1.00997 0.43026 0.35137 0.0
H843 H 0.98137 0.44939 0.34508 0.0
H844 H 1.03197 0.50901 0.36607 0.0
H845 H 1.05167 0.5241 0.40472 0.0
loop_
_geom_bond_atom_site_label_1
_geom_bond_atom_site_label_2
_geom_bond_distance
_geom_bond_site_symmetry_2
_ccdc_geom_bond_type
Gd0 C3 2.818 . S
Gd0 O20 2.377 . S
Gd0 O22 2.448 . S
Gd0 O23 2.506 . S
Gd0 O24 2.435 . S
Gd0 O25 2.717 1_455 S
Gd0 O27 2.395 1_455 S
Gd0 O31 2.327 . S
Gd1 C12 2.818 . S
Gd1 O21 2.395 1_655 S
Gd1 O25 2.327 . S
Gd1 O26 2.377 . S
Gd1 O28 2.448 . S
Gd1 O29 2.506 . S
Gd1 O30 2.435 . S
Gd1 O31 2.717 1_655 S
C2 O20 1.240 . S
C2 O21 1.240 . S
C3 Gd0 2.818 . S
C3 C4 1.510 . S
C3 O22 1.249 . S
C3 O23 1.252 . S
C4 C3 1.510 . S
C4 C5 1.404 . S
C4 C6 1.352 . S
C5 C4 1.404 . S
C5 C9 1.389 . S
C5 H32 0.930 . S
C6 C4 1.352 . S
C6 C8 1.374 . S
C6 H33 0.931 . S
C7 C8 1.359 . S
C7 C9 1.364 . S
C8 C6 1.374 . S
C8 C7 1.359 . S
C8 H34 0.931 . S
C9 C5 1.389 . S
C9 C7 1.364 . S
C9 H35 0.931 . S
C10 O24 1.291 . S
C10 O25 1.240 1_455 S
C11 O26 1.240 . S
C11 O27 1.240 . S
C12 Gd1 2.818 . S
C12 C13 1.510 . S
C12 O28 1.249 . S
C12 O29 1.252 . S
C13 C12 1.510 . S
C13 C14 1.404 . S
C13 C15 1.352 . S
C14 C13 1.404 . S
C14 C18 1.389 . S
C14 H36 0.930 . S
C15 C13 1.352 . S
C15 C17 1.374 . S
C15 H37 0.931 . S
C16 C17 1.359 . S
C16 C18 1.364 . S
C17 C15 1.374 . S
C17 C16 1.359 . S
C17 H38 0.931 . S
C18 C14 1.389 . S
C18 C16 1.364 . S
C18 H39 0.931 . S
C19 O30 1.256 1_455 S
C19 O31 1.257 . S
O20 Gd0 2.377 . S
O20 C2 1.240 . S
O21 Gd1 2.395 1_455 S
O21 C2 1.240 . S
O22 Gd0 2.448 . S
O22 C3 1.249 . S
O23 Gd0 2.506 . S
O23 C3 1.252 . S
O24 Gd0 2.435 . S
O24 C10 1.291 . S
O25 Gd0 2.717 1_655 S
O25 Gd1 2.327 . S
O25 C10 1.240 1_655 S
O26 Gd1 2.377 . S
O26 C11 1.240 . S
O27 Gd0 2.395 1_655 S
O27 C11 1.240 . S
O28 Gd1 2.448 . S
O28 C12 1.249 . S
O29 Gd1 2.506 . S
O29 C12 1.252 . S
O30 Gd1 2.435 . S
O30 C19 1.256 1_655 S
O31 Gd0 2.327 . S
O31 Gd1 2.717 1_455 S
O31 C19 1.257 . S
H32 C5 0.930 . S
H33 C6 0.931 . S
H34 C8 0.931 . S
H35 C9 0.931 . S
H36 C14 0.930 . S
H37 C15 0.931 . S
H38 C17 0.931 . S
H39 C18 0.931 . S
Gd40 C43 2.818 1_545 S
Gd40 O60 2.377 1_545 S
Gd40 O62 2.448 1_545 S
Gd40 O63 2.506 1_545 S
Gd40 O64 2.435 . S
Gd40 O65 2.717 . S
Gd40 O67 2.395 . S
Gd40 O71 2.327 . S
Gd41 C52 2.818 . S
Gd41 O61 2.395 1_545 S
Gd41 O65 2.327 . S
Gd41 O66 2.377 . S
Gd41 O68 2.448 . S
Gd41 O69 2.506 . S
Gd41 O70 2.435 . S
Gd41 O71 2.717 . S
C42 O60 1.240 . S
C42 O61 1.240 . S
C43 Gd40 2.818 1_565 S
C43 C44 1.510 . S
C43 O62 1.249 . S
C43 O63 1.252 . S
C44 C43 1.510 . S
C44 C45 1.404 . S
C44 C46 1.352 . S
C45 C44 1.404 . S
C45 C49 1.389 . S
C45 H72 0.930 . S
C46 C44 1.352 . S
C46 C48 1.374 . S
C46 H73 0.931 . S
C47 C48 1.359 . S
C47 C49 1.364 . S
C48 C46 1.374 . S
C48 C47 1.359 . S
C48 H74 0.931 . S
C49 C45 1.389 . S
C49 C47 1.364 . S
C49 H75 0.931 . S
C50 O64 1.256 . S
C50 O65 1.257 . S
C51 O66 1.240 . S
C51 O67 1.240 . S
C52 Gd41 2.818 . S
C52 C53 1.510 . S
C52 O68 1.249 . S
C52 O69 1.252 . S
C53 C52 1.510 . S
C53 C54 1.404 . S
C53 C55 1.352 . S
C54 C53 1.404 . S
C54 C58 1.389 . S
C54 H76 0.930 . S
C55 C53 1.352 . S
C55 C57 1.374 . S
C55 H77 0.931 . S
C56 C57 1.359 . S
C56 C58 1.364 . S
C57 C55 1.374 . S
C57 C56 1.359 . S
C57 H78 0.931 . S
C58 C54 1.389 . S
C58 C56 1.364 . S
C58 H79 0.931 . S
C59 O70 1.256 . S
C59 O71 1.257 . S
O60 Gd40 2.377 1_565 S
O60 C42 1.240 . S
O61 Gd41 2.395 1_565 S
O61 C42 1.240 . S
O62 Gd40 2.448 1_565 S
O62 C43 1.249 . S
O63 Gd40 2.506 1_565 S
O63 C43 1.252 . S
O64 Gd40 2.435 . S
O64 C50 1.256 . S
O65 Gd40 2.717 . S
O65 Gd41 2.327 . S
O65 C50 1.257 . S
O66 Gd41 2.377 . S
O66 C51 1.240 . S
O67 Gd40 2.395 . S
O67 C51 1.240 . S
O68 Gd41 2.448 . S
O68 C52 1.249 . S
O69 Gd41 2.506 . S
O69 C52 1.252 . S
O70 Gd41 2.435 . S
O70 C59 1.256 . S
O71 Gd40 2.327 . S
O71 Gd41 2.717 . S
O71 C59 1.257 . S
H72 C45 0.930 . S
H73 C46 0.931 . S
H74 C48 0.931 . S
H75 C49 0.931 . S
H76 C54 0.930 . S
H77 C55 0.931 . S
H78 C57 0.931 . S
H79 C58 0.931 . S
Gd80 C83 2.818 . S
Gd80 O100 2.377 . S
Gd80 O102 2.448 . S
Gd80 O103 2.506 . S
Gd80 O104 2.435 . S
Gd80 O105 2.717 . S
Gd80 O107 2.395 . S
Gd80 O111 2.327 . S
Gd81 C92 2.818 . S
Gd81 O101 2.395 . S
Gd81 O105 2.327 . S
Gd81 O106 2.377 . S
Gd81 O108 2.448 . S
Gd81 O109 2.506 . S
Gd81 O110 2.435 . S
Gd81 O111 2.717 . S
C82 O100 1.240 . S
C82 O101 1.240 . S
C83 Gd80 2.818 . S
C83 C84 1.510 . S
C83 O102 1.249 . S
C83 O103 1.252 . S
C84 C83 1.510 . S
C84 C85 1.404 . S
C84 C86 1.352 . S
C85 C84 1.404 . S
C85 C89 1.389 . S
C85 H112 0.930 . S
C86 C84 1.352 . S
C86 C88 1.374 . S
C86 H113 0.931 . S
C87 C88 1.359 . S
C87 C89 1.364 . S
C88 C86 1.374 . S
C88 C87 1.359 . S
C88 H114 0.931 . S
C89 C85 1.389 . S
C89 C87 1.364 . S
C89 H115 0.931 . S
C90 O104 1.256 . S
C90 O105 1.257 . S
C91 O106 1.240 . S
C91 O107 1.240 . S
C92 Gd81 2.818 . S
C92 C93 1.510 . S
C92 O108 1.249 . S
C92 O109 1.252 . S
C93 C92 1.510 . S
C93 C94 1.404 . S
C93 C95 1.352 . S
C94 C93 1.404 . S
C94 C98 1.389 . S
C94 H116 0.930 . S
C95 C93 1.352 . S
C95 C97 1.374 . S
C95 H117 0.931 . S
C96 C97 1.359 . S
C96 C98 1.364 . S
C97 C95 1.374 . S
C97 C96 1.359 . S
C97 H118 0.931 . S
C98 C94 1.389 . S
C98 C96 1.364 . S
C98 H119 0.931 . S
C99 O110 1.256 . S
C99 O111 1.257 . S
O100 Gd80 2.377 . S
O100 C82 1.240 . S
O101 Gd81 2.395 . S
O101 C82 1.240 . S
O102 Gd80 2.448 . S
O102 C83 1.249 . S
O103 Gd80 2.506 . S
O103 C83 1.252 . S
O104 Gd80 2.435 . S
O104 C90 1.256 . S
O105 Gd80 2.717 . S
O105 Gd81 2.327 . S
O105 C90 1.257 . S
O106 Gd81 2.377 . S
O106 C91 1.240 . S
O107 Gd80 2.395 . S
O107 C91 1.240 . S
O108 Gd81 2.448 . S
O108 C92 1.249 . S
O109 Gd81 2.506 . S
O109 C92 1.252 . S
O110 Gd81 2.435 . S
O110 C99 1.256 . S
O111 Gd80 2.327 . S
O111 Gd81 2.717 . S
O111 C99 1.257 . S
H112 C85 0.930 . S
H113 C86 0.931 . S
H114 C88 0.931 . S
H115 C89 0.931 . S
H116 C94 0.930 . S
H117 C95 0.931 . S
H118 C97 0.931 . S
H119 C98 0.931 . S
C120 N121 1.317 1_565 S
C120 N122 1.348 . S
C120 C123 1.485 1_565 S
N121 C120 1.317 1_545 S
N121 N125 1.370 . S
N122 C120 1.348 . S
N122 C124 1.346 . S
C123 C120 1.485 1_545 S
C123 H127 0.960 . S
C123 H128 0.961 1_545 S
C123 H129 0.960 . S
C124 N122 1.346 . S
C124 N125 1.307 1_565 S
C124 C126 1.486 . S
N125 N121 1.370 . S
N125 C124 1.307 1_545 S
C126 C124 1.486 . S
C126 H130 0.960 . S
C126 H131 0.960 . S
C126 H132 0.959 . S
H127 C123 0.960 . S
H128 C123 0.961 1_565 S
H129 C123 0.960 . S
H130 C126 0.960 . S
H131 C126 0.960 . S
H132 C126 0.959 . S
C133 N134 1.317 . S
C133 N135 1.348 . S
C133 C136 1.485 . S
N134 C133 1.317 . S
N134 N138 1.370 . S
N135 C133 1.348 . S
N135 C137 1.346 . S
C136 C133 1.485 . S
C136 H140 0.960 . S
C136 H141 0.961 . S
C136 H142 0.960 . S
C137 N135 1.346 . S
C137 N138 1.307 . S
C137 C139 1.486 . S
N138 N134 1.370 . S
N138 C137 1.307 . S
C139 C137 1.486 . S
C139 H143 0.960 . S
C139 H144 0.960 . S
C139 H145 0.959 . S
H140 C136 0.960 . S
H141 C136 0.961 . S
H142 C136 0.960 . S
H143 C139 0.960 . S
H144 C139 0.960 . S
H145 C139 0.959 . S
C146 N147 1.317 . S
C146 N148 1.348 . S
C146 C149 1.485 . S
N147 C146 1.317 . S
N147 N151 1.370 . S
N148 C146 1.348 . S
N148 C150 1.346 . S
C149 C146 1.485 . S
C149 H153 0.960 . S
C149 H154 0.961 . S
C149 H155 0.960 . S
C150 N148 1.346 . S
C150 N151 1.307 . S
C150 C152 1.486 . S
N151 N147 1.370 . S
N151 C150 1.307 . S
C152 C150 1.486 . S
C152 H156 0.960 1_455 S
C152 H157 0.984 . S
C152 H158 0.959 . S
H153 C149 0.960 . S
H154 C149 0.961 . S
H155 C149 0.960 . S
H156 C152 0.960 1_655 S
H157 C152 0.984 . S
H158 C152 0.959 . S
C159 N160 1.317 . S
C159 N161 1.348 . S
C159 C162 1.485 . S
N160 C159 1.317 . S
N160 N164 1.370 . S
N161 C159 1.348 . S
N161 C163 1.346 . S
C162 C159 1.485 . S
C162 H166 0.960 . S
C162 H167 0.961 . S
C162 H168 0.960 . S
C163 N161 1.346 . S
C163 N164 1.307 . S
C163 C165 1.486 . S
N164 N160 1.370 . S
N164 C163 1.307 . S
C165 C163 1.486 . S
C165 H169 0.960 . S
C165 H170 0.960 . S
C165 H171 0.959 . S
H166 C162 0.960 . S
H167 C162 0.961 . S
H168 C162 0.960 . S
H169 C165 0.960 . S
H170 C165 0.960 . S
H171 C165 0.959 . S
C172 N173 1.317 . S
C172 N174 1.348 . S
C172 C175 1.485 . S
N173 C172 1.317 . S
N173 N177 1.370 . S
N174 C172 1.348 . S
N174 C176 1.346 . S
C175 C172 1.485 . S
C175 H179 0.960 . S
C175 H180 0.961 . S
C175 H181 0.960 . S
C176 N174 1.346 . S
C176 N177 1.307 . S
C176 C178 1.486 . S
N177 N173 1.370 . S
N177 C176 1.307 . S
C178 C176 1.486 . S
C178 H182 0.960 . S
C178 H183 0.960 . S
C178 H184 0.959 . S
H179 C175 0.960 . S
H180 C175 0.961 . S
H181 C175 0.960 . S
H182 C178 0.960 . S
H183 C178 0.960 . S
H184 C178 0.959 . S
C185 N186 1.317 . S
C185 N187 1.348 . S
C185 C188 1.485 . S
N186 C185 1.317 . S
N186 N190 1.370 . S
N187 C185 1.348 . S
N187 C189 1.346 . S
C188 C185 1.485 . S
C188 H192 0.960 . S
C188 H193 0.961 . S
C188 H194 0.960 . S
C189 N187 1.346 . S
C189 N190 1.307 . S
C189 C191 1.486 . S
N190 N186 1.370 . S
N190 C189 1.307 . S
C191 C189 1.486 . S
C191 H195 0.960 . S
C191 H196 0.960 . S
C191 H197 0.959 . S
H192 C188 0.960 . S
H193 C188 0.961 . S
H194 C188 0.960 . S
H195 C191 0.960 . S
H196 C191 0.960 . S
H197 C191 0.959 . S
H198 C206 0.929 . S
H199 C208 0.930 . S
H200 C210 0.930 . S
H201 C213 0.929 . S
H202 C216 0.930 . S
H203 C218 0.960 . S
H204 C218 0.960 . S
H205 C218 0.960 . S
C206 H198 0.929 . S
C206 C207 1.377 . S
C206 C208 1.384 . S
C207 C206 1.377 . S
C207 C213 1.390 . S
C208 H199 0.930 . S
C208 C206 1.384 . S
C208 C209 1.372 . S
C209 C208 1.372 . S
C209 C210 1.400 . S
C209 C214 1.490 . S
C210 H200 0.930 . S
C210 C209 1.400 . S
C210 C213 1.386 . S
H211 C227 0.930 . S
H212 C228 0.931 . S
C213 H201 0.929 . S
C213 C207 1.390 . S
C213 C210 1.386 . S
C214 C209 1.490 . S
C214 C216 1.395 . S
C214 C217 1.403 . S
H215 C221 0.930 . S
C216 H202 0.930 . S
C216 C214 1.395 . S
C216 C219 1.403 . S
C217 C214 1.403 . S
C217 C218 1.524 . S
C217 C221 1.400 . S
C218 H203 0.960 . S
C218 H204 0.960 . S
C218 H205 0.960 . S
C218 C217 1.524 . S
C219 C216 1.403 . S
C219 C220 1.392 . S
C219 C223 1.495 . S
C220 C219 1.392 . S
C220 C221 1.385 . S
C220 C222 1.478 . S
C221 H215 0.930 . S
C221 C217 1.400 . S
C221 C220 1.385 . S
C222 C220 1.478 . S
C222 C224 1.381 . S
C222 C228 1.383 . S
C223 C219 1.495 . S
C223 H229 0.959 . S
C223 H230 0.961 . S
C223 H231 0.960 . S
C224 C222 1.381 . S
C224 C225 1.394 . S
C224 H232 0.930 . S
C225 C224 1.394 . S
C225 C226 1.383 . S
C225 H233 0.929 . S
C226 C225 1.383 . S
C226 C227 1.377 . S
C227 H211 0.930 . S
C227 C226 1.377 . S
C227 C228 1.379 . S
C228 H212 0.931 . S
C228 C222 1.383 . S
C228 C227 1.379 . S
H229 C223 0.959 . S
H230 C223 0.961 . S
H231 C223 0.960 . S
H232 C224 0.930 . S
H233 C225 0.929 . S
H234 C242 0.929 . S
H235 C244 0.930 . S
H236 C246 0.930 . S
H237 C249 0.929 . S
H238 C252 0.930 . S
H239 C254 0.960 . S
H240 C254 0.960 . S
H241 C254 0.960 . S
C242 H234 0.929 . S
C242 C243 1.377 . S
C242 C244 1.384 . S
C243 C242 1.377 . S
C243 C249 1.390 . S
C244 H235 0.930 . S
C244 C242 1.384 . S
C244 C245 1.372 . S
C245 C244 1.372 . S
C245 C246 1.400 . S
C245 C250 1.490 . S
C246 H236 0.930 . S
C246 C245 1.400 . S
C246 C249 1.386 . S
H247 C263 0.930 . S
H248 C264 0.931 . S
C249 H237 0.929 . S
C249 C243 1.390 . S
C249 C246 1.386 . S
C250 C245 1.490 . S
C250 C252 1.395 . S
C250 C253 1.403 . S
H251 C257 0.930 . S
C252 H238 0.930 . S
C252 C250 1.395 . S
C252 C255 1.403 . S
C253 C250 1.403 . S
C253 C254 1.524 . S
C253 C257 1.400 . S
C254 H239 0.960 . S
C254 H240 0.960 . S
C254 H241 0.960 . S
C254 C253 1.524 . S
C255 C252 1.403 . S
C255 C256 1.392 . S
C255 C259 1.495 . S
C256 C255 1.392 . S
C256 C257 1.385 . S
C256 C258 1.478 . S
C257 H251 0.930 . S
C257 C253 1.400 . S
C257 C256 1.385 . S
C258 C256 1.478 . S
C258 C260 1.381 . S
C258 C264 1.383 . S
C259 C255 1.495 . S
C259 H265 0.959 . S
C259 H266 0.961 . S
C259 H267 0.960 . S
C260 C258 1.381 . S
C260 C261 1.394 . S
C260 H268 0.930 . S
C261 C260 1.394 . S
C261 C262 1.383 . S
C261 H269 0.929 . S
C262 C261 1.383 . S
C262 C263 1.377 . S
C263 H247 0.930 . S
C263 C262 1.377 . S
C263 C264 1.379 . S
C264 H248 0.931 . S
C264 C258 1.383 . S
C264 C263 1.379 . S
H265 C259 0.959 . S
H266 C259 0.961 . S
H267 C259 0.960 . S
H268 C260 0.930 . S
H269 C261 0.929 . S
H270 C278 0.929 . S
H271 C280 0.930 . S
H272 C282 0.930 . S
H273 C285 0.929 . S
H274 C288 0.930 . S
H275 C290 0.960 . S
H276 C290 0.960 . S
H277 C290 0.960 . S
C278 H270 0.929 . S
C278 C279 1.377 . S
C278 C280 1.384 . S
C279 C278 1.377 . S
C279 C285 1.390 . S
C280 H271 0.930 . S
C280 C278 1.384 . S
C280 C281 1.372 . S
C281 C280 1.372 . S
C281 C282 1.400 . S
C281 C286 1.490 . S
C282 H272 0.930 . S
C282 C281 1.400 . S
C282 C285 1.386 . S
H283 C299 0.932 . S
H284 C300 0.931 . S
C285 H273 0.929 . S
C285 C279 1.390 . S
C285 C282 1.386 . S
C286 C281 1.490 . S
C286 C288 1.395 . S
C286 C289 1.403 . S
H287 C293 0.930 . S
C288 H274 0.930 . S
C288 C286 1.395 . S
C288 C291 1.403 . S
C289 C286 1.403 . S
C289 C290 1.524 . S
C289 C293 1.400 . S
C290 H275 0.960 . S
C290 H276 0.960 . S
C290 H277 0.960 . S
C290 C289 1.524 . S
C291 C288 1.403 . S
C291 C292 1.392 . S
C291 C295 1.495 . S
C292 C291 1.392 . S
C292 C293 1.385 . S
C292 C294 1.478 . S
C293 H287 0.930 . S
C293 C289 1.400 . S
C293 C292 1.385 . S
C294 C292 1.478 . S
C294 C296 1.381 . S
C294 C300 1.383 . S
C295 C291 1.495 . S
C295 H301 0.959 . S
C295 H302 0.961 1_565 S
C295 H303 0.960 . S
C296 C294 1.381 . S
C296 C297 1.394 1_565 S
C296 H304 0.930 . S
C297 C296 1.394 1_545 S
C297 C298 1.383 . S
C297 H305 0.929 . S
C298 C297 1.383 . S
C298 C299 1.377 1_545 S
C299 H283 0.932 . S
C299 C298 1.377 1_565 S
C299 C300 1.379 . S
C300 H284 0.931 . S
C300 C294 1.383 . S
C300 C299 1.379 . S
H301 C295 0.959 . S
H302 C295 0.961 1_545 S
H303 C295 0.960 . S
H304 C296 0.930 . S
H305 C297 0.929 . S
H306 C314 0.929 . S
H307 C316 0.930 . S
H308 C318 0.930 . S
H309 C321 0.929 . S
H310 C324 0.930 . S
H311 C326 0.960 . S
H312 C326 0.960 . S
H313 C326 0.960 . S
C314 H306 0.929 . S
C314 C315 1.377 . S
C314 C316 1.384 . S
C315 C314 1.377 . S
C315 C321 1.390 . S
C316 H307 0.930 . S
C316 C314 1.384 . S
C316 C317 1.372 . S
C317 C316 1.372 . S
C317 C318 1.400 . S
C317 C322 1.490 . S
C318 H308 0.930 . S
C318 C317 1.400 . S
C318 C321 1.386 . S
H319 C335 0.930 . S
H320 C336 0.931 . S
C321 H309 0.929 . S
C321 C315 1.390 . S
C321 C318 1.386 . S
C322 C317 1.490 . S
C322 C324 1.395 . S
C322 C325 1.403 . S
H323 C329 0.930 . S
C324 H310 0.930 . S
C324 C322 1.395 . S
C324 C327 1.403 . S
C325 C322 1.403 . S
C325 C326 1.524 . S
C325 C329 1.400 . S
C326 H311 0.960 . S
C326 H312 0.960 . S
C326 H313 0.960 . S
C326 C325 1.524 . S
C327 C324 1.403 . S
C327 C328 1.392 . S
C327 C331 1.495 . S
C328 C327 1.392 . S
C328 C329 1.385 . S
C328 C330 1.478 . S
C329 H323 0.930 . S
C329 C325 1.400 . S
C329 C328 1.385 . S
C330 C328 1.478 . S
C330 C332 1.381 . S
C330 C336 1.383 . S
C331 C327 1.495 . S
C331 H337 0.959 . S
C331 H338 0.961 . S
C331 H339 0.960 . S
C332 C330 1.381 . S
C332 C333 1.394 . S
C332 H340 0.930 . S
C333 C332 1.394 . S
C333 C334 1.383 . S
C333 H341 0.929 . S
C334 C333 1.383 . S
C334 C335 1.377 . S
C335 H319 0.930 . S
C335 C334 1.377 . S
C335 C336 1.379 . S
C336 H320 0.931 . S
C336 C330 1.383 . S
C336 C335 1.379 . S
H337 C331 0.959 . S
H338 C331 0.961 . S
H339 C331 0.960 . S
H340 C332 0.930 . S
H341 C333 0.929 . S
H342 C350 0.929 . S
H343 C352 0.930 . S
H344 C354 0.930 . S
H345 C357 0.929 . S
H346 C360 0.930 . S
H347 C362 0.960 . S
H348 C362 0.960 . S
H349 C362 0.960 . S
C350 H342 0.929 . S
C350 C351 1.377 . S
C350 C352 1.384 . S
C351 C350 1.377 . S
C351 C357 1.390 . S
C352 H343 0.930 . S
C352 C350 1.384 . S
C352 C353 1.372 . S
C353 C352 1.372 . S
C353 C354 1.400 . S
C353 C358 1.490 . S
C354 H344 0.930 . S
C354 C353 1.400 . S
C354 C357 1.386 . S
H355 C371 0.930 . S
H356 C372 0.931 . S
C357 H345 0.929 . S
C357 C351 1.390 . S
C357 C354 1.386 . S
C358 C353 1.490 . S
C358 C360 1.395 . S
C358 C361 1.403 . S
H359 C365 0.930 . S
C360 H346 0.930 . S
C360 C358 1.395 . S
C360 C363 1.403 . S
C361 C358 1.403 . S
C361 C362 1.524 . S
C361 C365 1.400 . S
C362 H347 0.960 . S
C362 H348 0.960 . S
C362 H349 0.960 . S
C362 C361 1.524 . S
C363 C360 1.403 . S
C363 C364 1.392 . S
C363 C367 1.495 . S
C364 C363 1.392 . S
C364 C365 1.385 . S
C364 C366 1.478 . S
C365 H359 0.930 . S
C365 C361 1.400 . S
C365 C364 1.385 . S
C366 C364 1.478 . S
C366 C368 1.381 . S
C366 C372 1.383 . S
C367 C363 1.495 . S
C367 H373 0.959 . S
C367 H374 0.961 . S
C367 H375 0.960 . S
C368 C366 1.381 . S
C368 C369 1.394 . S
C368 H376 0.930 . S
C369 C368 1.394 . S
C369 C370 1.383 . S
C369 H377 0.929 . S
C370 C369 1.383 . S
C370 C371 1.377 . S
C371 H355 0.930 . S
C371 C370 1.377 . S
C371 C372 1.379 . S
C372 H356 0.931 . S
C372 C366 1.383 . S
C372 C371 1.379 . S
H373 C367 0.959 . S
H374 C367 0.961 . S
H375 C367 0.960 . S
H376 C368 0.930 . S
H377 C369 0.929 . S
H378 C386 0.929 . S
H379 C388 0.930 . S
H380 C390 0.930 . S
H381 C393 0.929 . S
H382 C396 0.930 . S
H383 C398 0.960 . S
H384 C398 0.960 . S
H385 C398 0.960 . S
C386 H378 0.929 . S
C386 C387 1.377 . S
C386 C388 1.384 . S
C387 C386 1.377 . S
C387 C393 1.390 . S
C388 H379 0.930 . S
C388 C386 1.384 . S
C388 C389 1.372 . S
C389 C388 1.372 . S
C389 C390 1.400 . S
C389 C394 1.490 . S
C390 H380 0.930 . S
C390 C389 1.400 . S
C390 C393 1.386 . S
H391 C407 0.930 . S
H392 C408 0.931 . S
C393 H381 0.929 . S
C393 C387 1.390 . S
C393 C390 1.386 . S
C394 C389 1.490 . S
C394 C396 1.395 . S
C394 C397 1.403 . S
H395 C401 0.930 . S
C396 H382 0.930 . S
C396 C394 1.395 . S
C396 C399 1.403 . S
C397 C394 1.403 . S
C397 C398 1.524 . S
C397 C401 1.400 . S
C398 H383 0.960 . S
C398 H384 0.960 . S
C398 H385 0.960 . S
C398 C397 1.524 . S
C399 C396 1.403 . S
C399 C400 1.392 . S
C399 C403 1.495 . S
C400 C399 1.392 . S
C400 C401 1.385 . S
C400 C402 1.478 . S
C401 H395 0.930 . S
C401 C397 1.400 . S
C401 C400 1.385 . S
C402 C400 1.478 . S
C402 C404 1.381 . S
C402 C408 1.383 . S
C403 C399 1.495 . S
C403 H409 0.959 . S
C403 H410 0.961 . S
C403 H411 0.960 . S
C404 C402 1.381 . S
C404 C405 1.394 . S
C404 H412 0.930 . S
C405 C404 1.394 . S
C405 C406 1.383 . S
C405 H413 0.929 . S
C406 C405 1.383 . S
C406 C407 1.377 . S
C407 H391 0.930 . S
C407 C406 1.377 . S
C407 C408 1.379 . S
C408 H392 0.931 . S
C408 C402 1.383 . S
C408 C407 1.379 . S
H409 C403 0.959 . S
H410 C403 0.961 . S
H411 C403 0.960 . S
H412 C404 0.930 . S
H413 C405 0.929 . S
H414 C422 0.929 . S
H415 C424 0.930 . S
H416 C426 0.930 . S
H417 C429 0.929 . S
H418 C432 0.930 . S
H419 C434 0.960 . S
H420 C434 0.960 . S
H421 C434 0.960 . S
C422 H414 0.929 . S
C422 C423 1.377 . S
C422 C424 1.384 . S
C423 C422 1.377 . S
C423 C429 1.390 . S
C424 H415 0.930 . S
C424 C422 1.384 . S
C424 C425 1.372 . S
C425 C424 1.372 . S
C425 C426 1.400 . S
C425 C430 1.490 . S
C426 H416 0.930 . S
C426 C425 1.400 . S
C426 C429 1.386 . S
H427 C443 0.930 . S
H428 C444 0.931 . S
C429 H417 0.929 . S
C429 C423 1.390 . S
C429 C426 1.386 . S
C430 C425 1.490 . S
C430 C432 1.395 . S
C430 C433 1.403 . S
H431 C437 0.930 . S
C432 H418 0.930 . S
C432 C430 1.395 . S
C432 C435 1.403 . S
C433 C430 1.403 . S
C433 C434 1.524 . S
C433 C437 1.400 . S
C434 H419 0.960 . S
C434 H420 0.960 . S
C434 H421 0.960 . S
C434 C433 1.524 . S
C435 C432 1.403 . S
C435 C436 1.392 . S
C435 C439 1.495 . S
C436 C435 1.392 . S
C436 C437 1.385 . S
C436 C438 1.478 . S
C437 H431 0.930 . S
C437 C433 1.400 . S
C437 C436 1.385 . S
C438 C436 1.478 . S
C438 C440 1.381 . S
C438 C444 1.383 . S
C439 C435 1.495 . S
C439 H445 0.959 . S
C439 H446 0.961 . S
C439 H447 0.960 . S
C440 C438 1.381 . S
C440 C441 1.394 . S
C440 H448 0.930 . S
C441 C440 1.394 . S
C441 C442 1.383 . S
C441 H449 0.929 . S
C442 C441 1.383 . S
C442 C443 1.377 . S
C443 H427 0.930 . S
C443 C442 1.377 . S
C443 C444 1.379 . S
C444 H428 0.931 . S
C444 C438 1.383 . S
C444 C443 1.379 . S
H445 C439 0.959 . S
H446 C439 0.961 . S
H447 C439 0.960 . S
H448 C440 0.930 . S
H449 C441 0.929 . S
H450 C458 0.929 . S
H451 C460 0.930 . S
H452 C462 0.930 . S
H453 C465 0.929 . S
H454 C468 0.930 . S
H455 C470 0.960 . S
H456 C470 0.960 . S
H457 C470 0.960 . S
C458 H450 0.929 . S
C458 C459 1.377 . S
C458 C460 1.384 . S
C459 C458 1.377 . S
C459 C465 1.390 . S
C460 H451 0.930 . S
C460 C458 1.384 . S
C460 C461 1.372 . S
C461 C460 1.372 . S
C461 C462 1.400 . S
C461 C466 1.490 . S
C462 H452 0.930 . S
C462 C461 1.400 . S
C462 C465 1.386 . S
H463 C479 0.930 . S
H464 C480 0.931 . S
C465 H453 0.929 . S
C465 C459 1.390 . S
C465 C462 1.386 . S
C466 C461 1.490 . S
C466 C468 1.395 . S
C466 C469 1.403 . S
H467 C473 0.930 . S
C468 H454 0.930 . S
C468 C466 1.395 . S
C468 C471 1.403 . S
C469 C466 1.403 . S
C469 C470 1.524 . S
C469 C473 1.400 . S
C470 H455 0.960 . S
C470 H456 0.960 . S
C470 H457 0.960 . S
C470 C469 1.524 . S
C471 C468 1.403 . S
C471 C472 1.392 . S
C471 C475 1.495 . S
C472 C471 1.392 . S
C472 C473 1.385 . S
C472 C474 1.478 . S
C473 H467 0.930 . S
C473 C469 1.400 . S
C473 C472 1.385 . S
C474 C472 1.478 . S
C474 C476 1.381 . S
C474 C480 1.383 . S
C475 C471 1.495 . S
C475 H481 0.959 . S
C475 H482 0.961 . S
C475 H483 0.960 . S
C476 C474 1.381 . S
C476 C477 1.394 . S
C476 H484 0.930 . S
C477 C476 1.394 . S
C477 C478 1.383 . S
C477 H485 0.929 . S
C478 C477 1.383 . S
C478 C479 1.377 . S
C479 H463 0.930 . S
C479 C478 1.377 . S
C479 C480 1.379 . S
C480 H464 0.931 . S
C480 C474 1.383 . S
C480 C479 1.379 . S
H481 C475 0.959 . S
H482 C475 0.961 . S
H483 C475 0.960 . S
H484 C476 0.930 . S
H485 C477 0.929 . S
H486 C494 0.929 . S
H487 C496 0.930 . S
H488 C498 0.930 . S
H489 C501 0.929 . S
H490 C504 0.930 . S
H491 C506 0.960 . S
H492 C506 0.960 . S
H493 C506 0.960 . S
C494 H486 0.929 . S
C494 C495 1.377 . S
C494 C496 1.384 . S
C495 C494 1.377 . S
C495 C501 1.390 . S
C496 H487 0.930 . S
C496 C494 1.384 . S
C496 C497 1.372 . S
C497 C496 1.372 . S
C497 C498 1.400 . S
C497 C502 1.490 . S
C498 H488 0.930 . S
C498 C497 1.400 . S
C498 C501 1.386 . S
H499 C515 0.930 . S
H500 C516 0.931 . S
C501 H489 0.929 . S
C501 C495 1.390 . S
C501 C498 1.386 . S
C502 C497 1.490 . S
C502 C504 1.395 . S
C502 C505 1.403 . S
H503 C509 0.930 . S
C504 H490 0.930 . S
C504 C502 1.395 . S
C504 C507 1.403 . S
C505 C502 1.403 . S
C505 C506 1.524 . S
C505 C509 1.400 . S
C506 H491 0.960 . S
C506 H492 0.960 . S
C506 H493 0.960 . S
C506 C505 1.524 . S
C507 C504 1.403 . S
C507 C508 1.392 . S
C507 C511 1.495 . S
C508 C507 1.392 . S
C508 C509 1.385 . S
C508 C510 1.478 . S
C509 H503 0.930 . S
C509 C505 1.400 . S
C509 C508 1.385 . S
C510 C508 1.478 . S
C510 C512 1.381 . S
C510 C516 1.383 . S
C511 C507 1.495 . S
C511 H517 0.959 . S
C511 H518 0.961 . S
C511 H519 0.960 . S
C512 C510 1.381 . S
C512 C513 1.394 . S
C512 H520 0.930 . S
C513 C512 1.394 . S
C513 C514 1.383 . S
C513 H521 0.929 . S
C514 C513 1.383 . S
C514 C515 1.377 . S
C515 H499 0.930 . S
C515 C514 1.377 . S
C515 C516 1.379 . S
C516 H500 0.931 . S
C516 C510 1.383 . S
C516 C515 1.379 . S
H517 C511 0.959 . S
H518 C511 0.961 . S
H519 C511 0.960 . S
H520 C512 0.930 . S
H521 C513 0.929 . S
H522 C530 0.929 . S
H523 C532 0.930 . S
H524 C534 0.930 . S
H525 C537 0.929 . S
H526 C540 0.930 . S
H527 C542 0.960 . S
H528 C542 0.960 . S
H529 C542 0.960 . S
C530 H522 0.929 . S
C530 C531 1.377 . S
C530 C532 1.384 . S
C531 C530 1.377 . S
C531 C537 1.390 . S
C532 H523 0.930 . S
C532 C530 1.384 . S
C532 C533 1.372 . S
C533 C532 1.372 . S
C533 C534 1.400 . S
C533 C538 1.490 . S
C534 H524 0.930 . S
C534 C533 1.400 . S
C534 C537 1.386 . S
H535 C551 0.930 . S
H536 C552 0.931 . S
C537 H525 0.929 . S
C537 C531 1.390 . S
C537 C534 1.386 . S
C538 C533 1.490 . S
C538 C540 1.395 . S
C538 C541 1.403 . S
H539 C545 0.930 . S
C540 H526 0.930 . S
C540 C538 1.395 . S
C540 C543 1.403 . S
C541 C538 1.403 . S
C541 C542 1.524 . S
C541 C545 1.400 . S
C542 H527 0.960 . S
C542 H528 0.960 . S
C542 H529 0.960 . S
C542 C541 1.524 . S
C543 C540 1.403 . S
C543 C544 1.392 . S
C543 C547 1.495 . S
C544 C543 1.392 . S
C544 C545 1.385 . S
C544 C546 1.478 . S
C545 H539 0.930 . S
C545 C541 1.400 . S
C545 C544 1.385 . S
C546 C544 1.478 . S
C546 C548 1.381 . S
C546 C552 1.383 . S
C547 C543 1.495 . S
C547 H553 0.959 . S
C547 H554 0.961 . S
C547 H555 0.960 . S
C548 C546 1.381 . S
C548 C549 1.394 . S
C548 H556 0.930 . S
C549 C548 1.394 . S
C549 C550 1.383 . S
C549 H557 0.929 . S
C550 C549 1.383 . S
C550 C551 1.377 . S
C551 H535 0.930 . S
C551 C550 1.377 . S
C551 C552 1.379 . S
C552 H536 0.931 . S
C552 C546 1.383 . S
C552 C551 1.379 . S
H553 C547 0.959 . S
H554 C547 0.961 . S
H555 C547 0.960 . S
H556 C548 0.930 . S
H557 C549 0.929 . S
H558 C566 0.929 . S
H559 C568 0.930 . S
H560 C570 0.930 . S
H561 C573 0.929 . S
H562 C576 0.930 . S
H563 C578 0.960 . S
H564 C578 0.960 . S
H565 C578 0.960 . S
C566 H558 0.929 . S
C566 C567 1.377 . S
C566 C568 1.384 . S
C567 C566 1.377 . S
C567 C573 1.390 . S
C568 H559 0.930 . S
C568 C566 1.384 . S
C568 C569 1.372 . S
C569 C568 1.372 . S
C569 C570 1.400 . S
C569 C574 1.490 . S
C570 H560 0.930 . S
C570 C569 1.400 . S
C570 C573 1.386 . S
H571 C587 0.930 . S
H572 C588 0.931 . S
C573 H561 0.929 . S
C573 C567 1.390 . S
C573 C570 1.386 . S
C574 C569 1.490 . S
C574 C576 1.395 . S
C574 C577 1.403 . S
H575 C581 0.930 . S
C576 H562 0.930 . S
C576 C574 1.395 . S
C576 C579 1.403 . S
C577 C574 1.403 . S
C577 C578 1.524 . S
C577 C581 1.400 . S
C578 H563 0.960 . S
C578 H564 0.960 . S
C578 H565 0.960 . S
C578 C577 1.524 . S
C579 C576 1.403 . S
C579 C580 1.392 . S
C579 C583 1.495 . S
C580 C579 1.392 . S
C580 C581 1.385 . S
C580 C582 1.478 . S
C581 H575 0.930 . S
C581 C577 1.400 . S
C581 C580 1.385 . S
C582 C580 1.478 . S
C582 C584 1.381 . S
C582 C588 1.383 . S
C583 C579 1.495 . S
C583 H589 0.959 . S
C583 H590 0.961 . S
C583 H591 0.960 . S
C584 C582 1.381 . S
C584 C585 1.394 . S
C584 H592 0.930 . S
C585 C584 1.394 . S
C585 C586 1.383 . S
C585 H593 0.929 . S
C586 C585 1.383 . S
C586 C587 1.377 . S
C587 H571 0.930 . S
C587 C586 1.377 . S
C587 C588 1.379 . S
C588 H572 0.931 . S
C588 C582 1.383 . S
C588 C587 1.379 . S
H589 C583 0.959 . S
H590 C583 0.961 . S
H591 C583 0.960 . S
H592 C584 0.930 . S
H593 C585 0.929 . S
H594 C602 0.929 . S
H595 C604 0.930 . S
H596 C606 0.930 . S
H597 C609 0.929 . S
H598 C612 0.930 . S
H599 C614 0.960 . S
H600 C614 0.960 . S
H601 C614 0.960 . S
C602 H594 0.929 . S
C602 C603 1.377 . S
C602 C604 1.384 . S
C603 C602 1.377 . S
C603 C609 1.390 . S
C604 H595 0.930 . S
C604 C602 1.384 . S
C604 C605 1.372 . S
C605 C604 1.372 . S
C605 C606 1.400 . S
C605 C610 1.490 . S
C606 H596 0.930 . S
C606 C605 1.400 . S
C606 C609 1.386 . S
H607 C623 0.930 . S
H608 C624 0.931 . S
C609 H597 0.929 . S
C609 C603 1.390 . S
C609 C606 1.386 . S
C610 C605 1.490 . S
C610 C612 1.395 . S
C610 C613 1.403 . S
H611 C617 0.930 . S
C612 H598 0.930 . S
C612 C610 1.395 . S
C612 C615 1.403 . S
C613 C610 1.403 . S
C613 C614 1.524 . S
C613 C617 1.400 . S
C614 H599 0.960 . S
C614 H600 0.960 . S
C614 H601 0.960 . S
C614 C613 1.524 . S
C615 C612 1.403 . S
C615 C616 1.392 . S
C615 C619 1.495 . S
C616 C615 1.392 . S
C616 C617 1.385 . S
C616 C618 1.478 . S
C617 H611 0.930 . S
C617 C613 1.400 . S
C617 C616 1.385 . S
C618 C616 1.478 . S
C618 C620 1.381 . S
C618 C624 1.383 . S
C619 C615 1.495 . S
C619 H625 0.959 . S
C619 H626 0.961 . S
C619 H627 0.960 . S
C620 C618 1.381 . S
C620 C621 1.394 . S
C620 H628 0.930 . S
C621 C620 1.394 . S
C621 C622 1.383 . S
C621 H629 0.929 . S
C622 C621 1.383 . S
C622 C623 1.377 . S
C623 H607 0.930 . S
C623 C622 1.377 . S
C623 C624 1.379 . S
C624 H608 0.931 . S
C624 C618 1.383 . S
C624 C623 1.379 . S
H625 C619 0.959 . S
H626 C619 0.961 . S
H627 C619 0.960 . S
H628 C620 0.930 . S
H629 C621 0.929 . S
H630 C638 0.929 . S
H631 C640 0.930 . S
H632 C642 0.930 . S
H633 C645 0.929 . S
H634 C648 0.929 . S
H635 C650 0.960 . S
H636 C650 0.960 . S
H637 C650 0.960 . S
C638 H630 0.929 . S
C638 C639 1.377 . S
C638 C640 1.384 . S
C639 C638 1.377 . S
C639 C645 1.390 . S
C640 H631 0.930 . S
C640 C638 1.384 . S
C640 C641 1.372 . S
C641 C640 1.372 . S
C641 C642 1.400 . S
C641 C646 1.490 . S
C642 H632 0.930 . S
C642 C641 1.400 . S
C642 C645 1.386 . S
H643 C659 0.930 . S
H644 C660 0.931 . S
C645 H633 0.929 . S
C645 C639 1.390 . S
C645 C642 1.386 . S
C646 C641 1.490 . S
C646 C648 1.395 1_455 S
C646 C649 1.403 . S
H647 C653 0.946 . S
C648 H634 0.929 . S
C648 C646 1.395 1_655 S
C648 C651 1.403 1_654 S
C649 C646 1.403 . S
C649 C650 1.524 . S
C649 C653 1.363 1_554 S
C650 H635 0.960 . S
C650 H636 0.960 . S
C650 H637 0.960 . S
C650 C649 1.524 . S
C651 C648 1.403 1_456 S
C651 C652 1.392 . S
C651 C655 1.495 1_455 S
C652 C651 1.392 . S
C652 C653 1.407 . S
C652 C654 1.478 . S
C653 H647 0.946 . S
C653 C649 1.363 1_556 S
C653 C652 1.407 . S
C654 C652 1.478 . S
C654 C656 1.381 . S
C654 C660 1.383 . S
C655 C651 1.495 1_655 S
C655 H661 0.959 . S
C655 H662 0.961 . S
C655 H663 0.960 . S
C656 C654 1.381 . S
C656 C657 1.394 . S
C656 H664 0.930 . S
C657 C656 1.394 . S
C657 C658 1.383 . S
C657 H665 0.929 . S
C658 C657 1.383 . S
C658 C659 1.377 . S
C659 H643 0.930 . S
C659 C658 1.377 . S
C659 C660 1.379 . S
C660 H644 0.931 . S
C660 C654 1.383 . S
C660 C659 1.379 . S
H661 C655 0.959 . S
H662 C655 0.961 . S
H663 C655 0.960 . S
H664 C656 0.930 . S
H665 C657 0.929 . S
H666 C674 0.929 1_565 S
H667 C676 0.930 . S
H668 C678 0.930 . S
H669 C681 0.929 . S
H670 C684 0.930 . S
H671 C686 0.960 . S
H672 C686 0.960 . S
H673 C686 0.960 . S
C674 H666 0.929 1_545 S
C674 C675 1.377 . S
C674 C676 1.384 1_545 S
C675 C674 1.377 . S
C675 C681 1.390 . S
C676 H667 0.930 . S
C676 C674 1.384 1_565 S
C676 C677 1.372 1_565 S
C677 C676 1.372 1_545 S
C677 C678 1.400 . S
C677 C682 1.490 . S
C678 H668 0.930 . S
C678 C677 1.400 . S
C678 C681 1.386 . S
H679 C695 0.930 . S
H680 C696 0.931 . S
C681 H669 0.929 . S
C681 C675 1.390 . S
C681 C678 1.386 . S
C682 C677 1.490 . S
C682 C684 1.395 . S
C682 C685 1.403 . S
H683 C689 0.930 . S
C684 H670 0.930 . S
C684 C682 1.395 . S
C684 C687 1.403 . S
C685 C682 1.403 . S
C685 C686 1.524 . S
C685 C689 1.400 . S
C686 H671 0.960 . S
C686 H672 0.960 . S
C686 H673 0.960 . S
C686 C685 1.524 . S
C687 C684 1.403 . S
C687 C688 1.392 . S
C687 C691 1.495 . S
C688 C687 1.392 . S
C688 C689 1.385 . S
C688 C690 1.478 . S
C689 H683 0.930 . S
C689 C685 1.400 . S
C689 C688 1.385 . S
C690 C688 1.478 . S
C690 C692 1.381 1_545 S
C690 C696 1.383 . S
C691 C687 1.495 . S
C691 H697 0.959 1_545 S
C691 H698 0.961 . S
C691 H699 0.960 1_545 S
C692 C690 1.381 1_565 S
C692 C693 1.394 . S
C692 H700 0.930 . S
C693 C692 1.394 . S
C693 C694 1.383 1_565 S
C693 H701 0.929 . S
C694 C693 1.383 1_545 S
C694 C695 1.377 . S
C695 H679 0.930 . S
C695 C694 1.377 . S
C695 C696 1.379 . S
C696 H680 0.931 . S
C696 C690 1.383 . S
C696 C695 1.379 . S
H697 C691 0.959 1_565 S
H698 C691 0.961 . S
H699 C691 0.960 1_565 S
H700 C692 0.930 . S
H701 C693 0.929 . S
H702 C710 0.929 . S
H703 C712 0.930 . S
H704 C714 0.930 . S
H705 C717 0.929 . S
H706 C720 0.930 . S
H707 C722 0.960 . S
H708 C722 0.960 . S
H709 C722 0.960 . S
C710 H702 0.929 . S
C710 C711 1.377 . S
C710 C712 1.384 . S
C711 C710 1.377 . S
C711 C717 1.390 . S
C712 H703 0.930 . S
C712 C710 1.384 . S
C712 C713 1.372 . S
C713 C712 1.372 . S
C713 C714 1.400 . S
C713 C718 1.490 . S
C714 H704 0.930 . S
C714 C713 1.400 . S
C714 C717 1.386 . S
H715 C731 0.930 . S
H716 C732 0.931 . S
C717 H705 0.929 . S
C717 C711 1.390 . S
C717 C714 1.386 . S
C718 C713 1.490 . S
C718 C720 1.395 . S
C718 C721 1.403 . S
H719 C725 0.930 . S
C720 H706 0.930 . S
C720 C718 1.395 . S
C720 C723 1.403 . S
C721 C718 1.403 . S
C721 C722 1.524 . S
C721 C725 1.400 . S
C722 H707 0.960 . S
C722 H708 0.960 . S
C722 H709 0.960 . S
C722 C721 1.524 . S
C723 C720 1.403 . S
C723 C724 1.392 . S
C723 C727 1.495 . S
C724 C723 1.392 . S
C724 C725 1.385 . S
C724 C726 1.478 . S
C725 H719 0.930 . S
C725 C721 1.400 . S
C725 C724 1.385 . S
C726 C724 1.478 . S
C726 C728 1.381 . S
C726 C732 1.383 . S
C727 C723 1.495 . S
C727 H733 0.959 . S
C727 H734 0.961 . S
C727 H735 0.960 . S
C728 C726 1.381 . S
C728 C729 1.394 . S
C728 H736 0.930 . S
C729 C728 1.394 . S
C729 C730 1.383 . S
C729 H737 0.929 . S
C730 C729 1.383 . S
C730 C731 1.377 . S
C731 H715 0.930 . S
C731 C730 1.377 . S
C731 C732 1.379 . S
C732 H716 0.931 . S
C732 C726 1.383 . S
C732 C731 1.379 . S
H733 C727 0.959 . S
H734 C727 0.961 . S
H735 C727 0.960 . S
H736 C728 0.930 . S
H737 C729 0.929 . S
H738 C746 0.929 . S
H739 C748 0.930 . S
H740 C750 0.930 . S
H741 C753 0.929 . S
H742 C756 0.930 . S
H743 C758 0.960 . S
H744 C758 0.960 . S
H745 C758 0.960 . S
C746 H738 0.929 . S
C746 C747 1.377 . S
C746 C748 1.384 . S
C747 C746 1.377 . S
C747 C753 1.390 . S
C748 H739 0.930 . S
C748 C746 1.384 . S
C748 C749 1.372 . S
C749 C748 1.372 . S
C749 C750 1.400 . S
C749 C754 1.490 . S
C750 H740 0.930 . S
C750 C749 1.400 . S
C750 C753 1.386 . S
H751 C767 0.930 . S
H752 C768 0.931 . S
C753 H741 0.929 . S
C753 C747 1.390 . S
C753 C750 1.386 . S
C754 C749 1.490 . S
C754 C756 1.395 . S
C754 C757 1.403 . S
H755 C761 0.930 1_565 S
C756 H742 0.930 . S
C756 C754 1.395 . S
C756 C759 1.403 . S
C757 C754 1.403 . S
C757 C758 1.524 1_545 S
C757 C761 1.400 . S
C758 H743 0.960 . S
C758 H744 0.960 . S
C758 H745 0.960 . S
C758 C757 1.524 1_565 S
C759 C756 1.403 . S
C759 C760 1.392 . S
C759 C763 1.495 . S
C760 C759 1.392 . S
C760 C761 1.385 . S
C760 C762 1.478 . S
C761 H755 0.930 1_545 S
C761 C757 1.400 . S
C761 C760 1.385 . S
C762 C760 1.478 . S
C762 C764 1.381 . S
C762 C768 1.383 . S
C763 C759 1.495 . S
C763 H769 0.959 . S
C763 H770 0.961 . S
C763 H771 0.960 . S
C764 C762 1.381 . S
C764 C765 1.394 . S
C764 H772 0.930 . S
C765 C764 1.394 . S
C765 C766 1.383 . S
C765 H773 0.929 . S
C766 C765 1.383 . S
C766 C767 1.377 . S
C767 H751 0.930 . S
C767 C766 1.377 . S
C767 C768 1.379 . S
C768 H752 0.931 . S
C768 C762 1.383 . S
C768 C767 1.379 . S
H769 C763 0.959 . S
H770 C763 0.961 . S
H771 C763 0.960 . S
H772 C764 0.930 . S
H773 C765 0.929 . S
H774 C782 0.929 . S
H775 C784 0.930 . S
H776 C786 0.930 . S
H777 C789 0.929 . S
H778 C792 0.930 . S
H779 C794 0.960 . S
H780 C794 0.960 . S
H781 C794 0.960 . S
C782 H774 0.929 . S
C782 C783 1.377 . S
C782 C784 1.384 . S
C783 C782 1.377 . S
C783 C789 1.390 . S
C784 H775 0.930 . S
C784 C782 1.384 . S
C784 C785 1.372 . S
C785 C784 1.372 . S
C785 C786 1.400 . S
C785 C790 1.490 . S
C786 H776 0.930 . S
C786 C785 1.400 . S
C786 C789 1.386 . S
H787 C803 0.930 . S
H788 C804 0.931 . S
C789 H777 0.929 . S
C789 C783 1.390 . S
C789 C786 1.386 . S
C790 C785 1.490 . S
C790 C792 1.395 . S
C790 C793 1.403 . S
H791 C797 0.930 . S
C792 H778 0.930 . S
C792 C790 1.395 . S
C792 C795 1.403 . S
C793 C790 1.403 . S
C793 C794 1.524 . S
C793 C797 1.400 1_556 S
C794 H779 0.960 . S
C794 H780 0.960 . S
C794 H781 0.960 . S
C794 C793 1.524 . S
C795 C792 1.403 . S
C795 C796 1.392 1_556 S
C795 C799 1.495 1_556 S
C796 C795 1.392 1_554 S
C796 C797 1.385 . S
C796 C798 1.478 . S
C797 H791 0.930 . S
C797 C793 1.400 1_554 S
C797 C796 1.385 . S
C798 C796 1.478 . S
C798 C800 1.381 . S
C798 C804 1.383 . S
C799 C795 1.495 1_554 S
C799 H805 0.959 1_554 S
C799 H806 0.961 . S
C799 H807 0.960 . S
C800 C798 1.381 . S
C800 C801 1.394 . S
C800 H808 0.930 . S
C801 C800 1.394 . S
C801 C802 1.383 . S
C801 H809 0.929 . S
C802 C801 1.383 . S
C802 C803 1.377 . S
C803 H787 0.930 . S
C803 C802 1.377 . S
C803 C804 1.379 . S
C804 H788 0.931 . S
C804 C798 1.383 . S
C804 C803 1.379 . S
H805 C799 0.959 1_556 S
H806 C799 0.961 . S
H807 C799 0.960 . S
H808 C800 0.930 . S
H809 C801 0.929 . S
H810 C818 0.929 . S
H811 C820 0.930 . S
H812 C822 0.930 . S
H813 C825 0.929 . S
H814 C828 0.930 . S
H815 C830 0.960 . S
H816 C830 0.960 . S
H817 C830 0.960 . S
C818 H810 0.929 . S
C818 C819 1.377 1_455 S
C818 C820 1.384 . S
C819 C818 1.377 1_655 S
C819 C825 1.390 . S
C820 H811 0.930 . S
C820 C818 1.384 . S
C820 C821 1.372 . S
C821 C820 1.372 . S
C821 C822 1.400 1_455 S
C821 C826 1.490 . S
C822 H812 0.930 . S
C822 C821 1.400 1_655 S
C822 C825 1.386 . S
H823 C839 0.930 1_655 S
H824 C840 0.931 1_655 S
C825 H813 0.929 . S
C825 C819 1.390 . S
C825 C822 1.386 . S
C826 C821 1.490 . S
C826 C828 1.395 1_455 S
C826 C829 1.403 . S
H827 C833 0.930 . S
C828 H814 0.930 . S
C828 C826 1.395 1_655 S
C828 C831 1.403 . S
C829 C826 1.403 . S
C829 C830 1.524 . S
C829 C833 1.400 . S
C830 H815 0.960 . S
C830 H816 0.960 . S
C830 H817 0.960 . S
C830 C829 1.524 . S
C831 C828 1.403 . S
C831 C832 1.392 1_655 S
C831 C835 1.495 . S
C832 C831 1.392 1_455 S
C832 C833 1.385 . S
C832 C834 1.478 . S
C833 H827 0.930 . S
C833 C829 1.400 . S
C833 C832 1.385 . S
C834 C832 1.478 . S
C834 C836 1.381 . S
C834 C840 1.383 . S
C835 C831 1.495 . S
C835 H841 0.959 . S
C835 H842 0.961 . S
C835 H843 0.960 . S
C836 C834 1.381 . S
C836 C837 1.394 . S
C836 H844 0.930 . S
C837 C836 1.394 . S
C837 C838 1.383 . S
C837 H845 0.929 . S
C838 C837 1.383 . S
C838 C839 1.377 . S
C839 H823 0.930 1_455 S
C839 C838 1.377 . S
C839 C840 1.379 . S
C840 H824 0.931 1_455 S
C840 C834 1.383 . S
C840 C839 1.379 . S
H841 C835 0.959 . S
H842 C835 0.961 . S
H843 C835 0.960 . S
H844 C836 0.930 . S
H845 C837 0.929 . S
C207 C7 0.263 . S
C226 N187 0.219 . S
C243 C51 1.757 . S
C262 N160 1.743 1_655 S
C279 C87 1.076 . S
C298 N173 1.056 . S
C315 C16 0.613 . S
C334 N186 0.578 . S
C370 N161 1.997 . S
C351 C42 2.000 . S
C406 N174 1.334 . S
C387 C96 1.326 . S
C423 C47 1.023 . S
C442 N134 1.021 . S
C459 C91 2.739 . S
C478 N148 2.692 1_655 S
C495 C2 2.011 . S
C514 N122 2.002 . S
C550 N135 1.390 . S
C531 C56 1.370 . S
C586 N147 3.277 . S
C567 C82 3.249 . S
C603 C11 1.751 . S
C622 N121 1.754 . S
C658 N151 1.718 . S
C639 C19 1.711 . S
C675 C50 1.468 . S
C694 N125 1.479 . S
C711 C99 1.516 . S
C730 N138 1.589 . S
C766 N177 1.527 . S
C747 C59 1.492 . S
C802 N190 1.322 . S
C783 C90 1.311 . S
C819 C10 1.443 1_655 S
C838 N164 1.485 . S
