# Generated by pormake.
# Topology anh, (6,3)-cn, num edge types: 1
# Building blocks:
#     Node 0, Type 0, BuildingBlock: PAMTOO_clean_sbu_0, # of connection points: 6
#     Node 1, Type 0, BuildingBlock: PAMTOO_clean_sbu_0, # of connection points: 6
#     Node 2, Type 0, BuildingBlock: PAMTOO_clean_sbu_0, # of connection points: 6
#     Node 3, Type 1, BuildingBlock: VETTIZ_charged_linker_0, # of connection points: 3
#     Node 4, Type 1, BuildingBlock: VETTIZ_charged_linker_0, # of connection points: 3
#     Node 5, Type 1, BuildingBlock: VETTIZ_charged_linker_0, # of connection points: 3
#     Node 6, Type 1, BuildingBlock: VETTIZ_charged_linker_0, # of connection points: 3
#     Node 7, Type 1, BuildingBlock: VETTIZ_charged_linker_0, # of connection points: 3
#     Node 8, Type 1, BuildingBlock: VETTIZ_charged_linker_0, # of connection points: 3
#     Edge 9, Type (0, 1), None
#     Edge 10, Type (0, 1), None
#     Edge 11, Type (0, 1), None
#     Edge 12, Type (0, 1), None
#     Edge 13, Type (0, 1), None
#     Edge 14, Type (0, 1), None
#     Edge 15, Type (0, 1), None
#     Edge 16, Type (0, 1), None
#     Edge 17, Type (0, 1), None
#     Edge 18, Type (0, 1), None
#     Edge 19, Type (0, 1), None
#     Edge 20, Type (0, 1), None
#     Edge 21, Type (0, 1), None
#     Edge 22, Type (0, 1), None
#     Edge 23, Type (0, 1), None
#     Edge 24, Type (0, 1), None
#     Edge 25, Type (0, 1), None
#     Edge 26, Type (0, 1), None
# Relax obj value: 0.297
# Max RMSD: 0.243
# Mean RMSD: 0.184
data_MOF--net-anh--node1-PAMTOO_clean_sbu_0--node2-VETTIZ_charged_linker_0--edge1-none
_symmetry_space_group_name_H-M    P1
_symmetry_Int_Tables_number       1
_symmetry_cell_setting            triclinic
loop_
_symmetry_equiv_pos_as_xyz
'x, y, z'
_cell_length_a     19.572503
_cell_length_b     18.346264
_cell_length_c     37.795212
_cell_angle_alpha  88.730431
_cell_angle_beta   95.760221
_cell_angle_gamma 92.507124
loop_
_atom_site_label
_atom_site_type_symbol
_atom_site_fract_x
_atom_site_fract_y
_atom_site_fract_z
_atom_type_partial_charge
Dy0 Dy 0.1328 0.74323 0.14462 0.0
Dy1 Dy 1.10674 0.57241 0.13027 0.0
C2 C 1.11589 0.68886 0.06781 0.0
O3 O 1.01406 0.72566 0.13061 0.0
O4 O 1.00019 0.60465 0.14437 0.0
O5 O 1.12801 0.85393 0.12359 0.0
O6 O 0.16386 0.83367 0.17884 0.0
O7 O 1.12713 0.57802 0.18915 0.0
O8 O 1.10809 0.69843 0.19703 0.0
O9 O 0.22226 0.59502 0.12145 0.0
O10 O 0.24373 0.70191 0.15147 0.0
O11 O 0.13003 0.45968 0.14258 0.0
O12 O 1.05444 0.4854 0.09909 0.0
C13 C 0.97204 0.66847 0.13732 0.0
O14 O 0.15923 0.72461 0.09005 0.0
O15 O 1.07868 0.63396 0.07928 0.0
C16 C 0.22019 0.92886 0.14995 0.0
C17 C 0.34944 1.00342 0.15859 0.0
C18 C 0.3397 0.94149 0.13721 0.0
C19 C 0.27547 0.90415 0.13305 0.0
C20 C 0.22861 0.99378 0.16898 0.0
C21 C 0.29277 1.03073 0.17333 0.0
C22 C 0.15816 0.88172 0.15291 0.0
C23 C 1.11767 0.63236 0.20968 0.0
C24 C 0.26768 0.64546 0.13578 0.0
C25 C 1.02995 0.38218 0.13577 0.0
C26 C 0.93767 0.28898 0.17072 0.0
C27 C 1.00844 0.27632 0.17382 0.0
C28 C 1.05398 0.32224 0.15643 0.0
C29 C 0.95897 0.39397 0.13204 0.0
C30 C 0.9134 0.34773 0.14918 0.0
C31 C 1.07965 0.43441 0.12047 0.0
H32 H 0.3829 0.9187 0.12615 0.0
H33 H 0.27017 0.85353 0.1186 0.0
H34 H 0.1868 1.0133 0.18245 0.0
H35 H 0.29934 0.07799 0.19023 0.0
H36 H 1.02874 0.2311 0.18989 0.0
H37 H 1.10833 0.31184 0.15978 0.0
H38 H 0.93861 0.43996 0.11657 0.0
H39 H 0.85937 0.35955 0.14654 0.0
Dy40 Dy 0.63218 0.97684 0.50784 0.0
Dy41 Dy 0.79853 1.0033 0.5102 0.0
C42 C 0.72358 0.99053 0.58088 0.0
O43 O 0.65498 0.09487 0.52042 0.0
O44 O 0.75905 0.11603 0.4981 0.0
O45 O 0.54061 0.97525 0.53564 0.0
O46 O 0.53337 0.95243 0.47937 0.0
O47 O 0.76106 0.99379 0.45241 0.0
O48 O 0.65015 1.02616 0.45535 0.0
O49 O 0.77595 0.8865 0.52851 0.0
O50 O 0.67236 0.8678 0.49645 0.0
O51 O 0.89419 0.97137 0.4923 0.0
O52 O 0.89444 0.05518 0.53166 0.0
C53 C 0.7036 0.14033 0.51015 0.0
O54 O 0.67547 0.95075 0.56301 0.0
O55 O 0.77059 1.02763 0.5648 0.0
C56 C 0.4523 0.89266 0.51247 0.0
C57 C 0.35664 0.7744 0.5045 0.0
C58 C 0.42704 0.76193 0.51165 0.0
C59 C 0.47481 0.82095 0.51552 0.0
C60 C 0.38187 0.90485 0.50889 0.0
C61 C 0.33426 0.84608 0.50496 0.0
C62 C 0.5007 0.95442 0.50772 0.0
C63 C 0.70211 1.01543 0.4371 0.0
C64 C 0.72635 0.8412 0.51488 0.0
C65 C 0.96887 0.07432 0.48759 0.0
C66 C 1.03755 0.18499 0.45021 0.0
C67 C 0.96927 0.16281 0.43892 0.0
C68 C 0.93526 0.10819 0.45748 0.0
C69 C 1.03748 0.09454 0.49846 0.0
C70 C 1.07168 0.14947 0.47988 0.0
C71 C 0.92982 1.02373 0.50936 0.0
H72 H 0.44549 0.7072 0.51098 0.0
H73 H 0.52924 0.8108 0.51834 0.0
H74 H 0.36379 0.95992 0.50657 0.0
H75 H 0.28021 0.85685 0.49937 0.0
H76 H 0.94097 0.18979 0.41663 0.0
H77 H 0.88186 0.09409 0.44904 0.0
H78 H 1.06393 0.0693 0.52183 0.0
H79 H 1.12441 0.16494 0.48906 0.0
Dy80 Dy 0.66065 0.43253 0.83381 0.0
Dy81 Dy 0.50007 0.45888 0.8297 0.0
C82 C 0.57165 0.45004 0.7608 0.0
O83 O 0.64704 0.54883 0.81542 0.0
O84 O 0.54765 0.57275 0.83842 0.0
O85 O 0.76691 0.44767 0.85525 0.0
O86 O 0.74149 0.38994 0.80617 0.0
O87 O 0.53251 0.43122 0.8864 0.0
O88 O 0.64376 0.47339 0.88743 0.0
O89 O 0.51231 0.33817 0.81925 0.0
O90 O 0.61643 0.3246 0.85137 0.0
O91 O 0.4098 0.47933 0.8557 0.0
O92 O 0.4017 0.46747 0.79849 0.0
C93 C 0.60338 0.59619 0.82437 0.0
O94 O 0.61121 0.40554 0.77979 0.0
O95 O 0.53188 0.49158 0.7763 0.0
C96 C 0.8255 0.48505 0.80692 0.0
C97 C 0.87439 0.62751 0.79396 0.0
C98 C 0.81129 0.60309 0.77692 0.0
C99 C 0.7873 0.53148 0.78292 0.0
C100 C 0.89261 0.50648 0.81974 0.0
C101 C 0.91744 0.57717 0.81271 0.0
C102 C 0.78875 0.42705 0.82569 0.0
C103 C 0.58879 0.45817 0.90386 0.0
C104 C 0.55964 0.29541 0.83501 0.0
C105 C 0.35464 0.57011 0.8218 0.0
C106 C 0.33966 0.71986 0.83088 0.0
C107 C 0.38928 0.69717 0.80988 0.0
C108 C 0.39686 0.6225 0.80543 0.0
C109 C 0.30315 0.59332 0.84141 0.0
C110 C 0.29561 0.66754 0.84584 0.0
C111 C 0.37473 0.49399 0.82542 0.0
H112 H 0.77816 0.641 0.76199 0.0
H113 H 0.73574 0.5153 0.772 0.0
H114 H 0.92285 0.47169 0.83818 0.0
H115 H 0.96685 0.59538 0.82582 0.0
H116 H 0.42293 0.73671 0.79777 0.0
H117 H 0.43785 0.60571 0.79058 0.0
H118 H 0.27112 0.55409 0.85478 0.0
H119 H 0.25602 0.68436 0.86165 0.0
C120 C 0.82415 0.2206 0.17545 0.0
C121 C 0.88973 0.24339 0.19115 0.0
C122 C 0.90842 0.22448 0.22711 0.0
C123 C 0.79652 0.16443 0.23145 0.0
C124 C 0.77865 0.18121 0.19595 0.0
C125 C 0.70698 0.15302 0.18342 0.0
H126 H 0.40338 0.99909 0.22629 0.0
C127 C 0.7367 0.12614 0.24571 0.0
C128 C 0.68384 0.1194 0.21757 0.0
H129 H 0.4542 0.0623 0.12119 0.0
H130 H 0.57008 0.10089 0.14558 0.0
H131 H 0.53645 0.91725 0.24605 0.0
H132 H 0.47516 0.13151 0.26777 0.0
H133 H 0.52405 0.10367 0.30671 0.0
H134 H 0.44676 0.05166 0.29127 0.0
H135 H 0.48165 0.93401 0.28 0.0
H136 H 0.57401 0.93472 0.28922 0.0
C137 C 0.71205 0.0948 0.15489 0.0
C138 C 0.6638 0.21858 0.1701 0.0
C139 C 0.74283 0.05389 0.37782 0.0
C140 C 0.69108 1.02492 0.39814 0.0
C141 C 0.62542 1.00735 0.38112 0.0
C142 C 0.61075 1.0187 0.34466 0.0
C143 C 0.66191 0.04896 0.32464 0.0
C144 C 0.72672 0.06625 0.34104 0.0
C145 C 0.77283 0.10137 0.31513 0.0
C146 C 0.72502 0.10061 0.2806 0.0
C147 C 0.66046 0.06967 0.28668 0.0
C148 C 0.83463 0.05239 0.31315 0.0
C149 C 0.79292 0.17996 0.32763 0.0
C150 C 0.43915 1.02227 0.20855 0.0
C151 C 0.41966 1.02943 0.17206 0.0
C152 C 0.46823 0.0573 0.14956 0.0
C153 C 0.53524 0.07936 0.16378 0.0
C154 C 0.55381 0.07202 0.2007 0.0
C155 C 0.5059 0.04276 0.22209 0.0
C156 C 0.53421 1.03377 0.26008 0.0
C157 C 0.60722 0.06332 0.25851 0.0
C158 C 0.61873 0.0868 0.22392 0.0
C159 C 0.53122 0.95093 0.2697 0.0
C160 C 0.49298 0.08199 0.28291 0.0
H161 H 0.87953 0.17321 0.27452 0.0
H162 H 0.80856 0.23313 0.14776 0.0
H163 H 0.67237 0.26413 0.1892 0.0
H164 H 0.60806 0.20547 0.16756 0.0
H165 H 0.67832 0.23923 0.14391 0.0
H166 H 0.75902 0.06297 0.16103 0.0
H167 H 0.71451 0.12053 0.12814 0.0
H168 H 0.66896 0.05373 0.15377 0.0
H169 H 0.79353 0.06886 0.39038 0.0
H170 H 0.58493 0.98465 0.39616 0.0
H171 H 0.55954 1.00415 0.33368 0.0
H172 H 0.81763 0.99372 0.31337 0.0
H173 H 0.87369 0.06129 0.33625 0.0
H174 H 0.85952 0.06094 0.28837 0.0
H175 H 0.74931 0.20481 0.33901 0.0
H176 H 0.80538 0.2174 0.30573 0.0
H177 H 0.83712 0.18027 0.34852 0.0
H178 H 0.95826 0.24173 0.24 0.0
C179 C 0.86234 0.18521 0.24726 0.0
C180 C 0.7247 0.70014 0.51632 0.0
C181 C 0.71676 0.76815 0.53247 0.0
C182 C 0.694 0.76761 0.56651 0.0
C183 C 0.68628 0.63558 0.56843 0.0
C184 C 0.70962 0.63401 0.53509 0.0
C185 C 0.71607 0.55529 0.52385 0.0
H186 H 0.64513 0.19179 0.5644 0.0
C187 C 0.67186 0.56005 0.58088 0.0
C188 C 0.68852 0.51136 0.55485 0.0
H189 H 0.75362 0.26782 0.47595 0.0
H190 H 0.74267 0.39498 0.49372 0.0
H191 H 0.73111 0.27737 0.6163 0.0
H192 H 0.53331 0.31094 0.56147 0.0
H193 H 0.52717 0.33928 0.60504 0.0
H194 H 0.54915 0.24672 0.59754 0.0
H195 H 0.65451 0.23982 0.63298 0.0
H196 H 0.69166 0.3278 0.64664 0.0
C197 C 0.79262 0.54231 0.52126 0.0
C198 C 0.67133 0.54169 0.48857 0.0
C199 C 0.58671 0.51615 0.70335 0.0
C200 C 0.57264 0.45109 0.72214 0.0
C201 C 0.5694 0.3843 0.70465 0.0
C202 C 0.58339 0.38137 0.66932 0.0
C203 C 0.60313 0.44579 0.65147 0.0
C204 C 0.60276 0.51202 0.66805 0.0
C205 C 0.6261 0.57419 0.64475 0.0
C206 C 0.64369 0.53344 0.61223 0.0
C207 C 0.63003 0.4587 0.61665 0.0
C208 C 0.69059 0.61256 0.66466 0.0
C209 C 0.56439 0.62401 0.63583 0.0
C210 C 0.66588 0.23521 0.54818 0.0
C211 C 0.69907 0.21925 0.51845 0.0
C212 C 0.72741 0.27838 0.4991 0.0
C213 C 0.72119 0.35197 0.50947 0.0
C214 C 0.68813 0.36626 0.54004 0.0
C215 C 0.66231 0.30712 0.55869 0.0
C216 C 0.63501 0.32751 0.59222 0.0
C217 C 0.64637 0.40926 0.59096 0.0
C218 C 0.67661 0.43389 0.56022 0.0
C219 C 0.67969 0.29123 0.62375 0.0
C220 C 0.55725 0.30469 0.5893 0.0
H221 H 0.66135 0.70742 0.61014 0.0
H222 H 0.74196 0.6986 0.49003 0.0
H223 H 0.61757 0.55688 0.49082 0.0
H224 H 0.66971 0.4837 0.48114 0.0
H225 H 0.6914 0.57479 0.46661 0.0
H226 H 0.82428 0.56152 0.54563 0.0
H227 H 0.81118 0.57251 0.49802 0.0
H228 H 0.80246 0.48403 0.51882 0.0
H229 H 0.5895 0.56821 0.71643 0.0
H230 H 0.55797 0.33388 0.71875 0.0
H231 H 0.58058 0.32836 0.65791 0.0
H232 H 0.72365 0.57201 0.67953 0.0
H233 H 0.67594 0.65189 0.68422 0.0
H234 H 0.72437 0.64117 0.64667 0.0
H235 H 0.5145 0.59249 0.63587 0.0
H236 H 0.56297 0.6486 0.6088 0.0
H237 H 0.56444 0.66797 0.65557 0.0
H238 H 0.68608 0.81817 0.57919 0.0
C239 C 0.67883 0.7026 0.58441 0.0
C240 C 0.2716 0.82516 0.8172 0.0
C241 C 0.32922 0.79734 0.837 0.0
C242 C 0.34526 0.82106 0.87212 0.0
C243 C 0.22765 0.85429 0.87256 0.0
C244 C 0.21797 0.84681 0.83603 0.0
C245 C 0.14306 0.84246 0.82244 0.0
H246 H 0.84656 0.69064 0.85289 0.0
C247 C 0.15985 0.84731 0.88652 0.0
C248 C 1.10971 0.84237 0.85716 0.0
H249 H 0.93486 0.73656 0.75461 0.0
H250 H 1.0089 0.83207 0.7832 0.0
H251 H 0.95364 0.64752 0.88584 0.0
H252 H 0.89075 0.86587 0.89627 0.0
H253 H 0.92217 0.83348 0.93886 0.0
H254 H 0.85101 0.78504 0.91421 0.0
H255 H 0.90495 0.67088 0.92125 0.0
H256 H 0.99764 0.67345 0.92565 0.0
C257 C 1.12668 0.76985 0.80158 0.0
C258 C 1.12747 0.91259 0.80016 0.0
C259 C 0.15382 0.75407 0.01399 0.0
C260 C 1.10135 0.71876 0.03153 0.0
C261 C 1.03367 0.71665 0.01504 0.0
C262 C 1.01841 0.74881 0.98145 0.0
C263 C 1.07204 0.7792 0.96304 0.0
C264 C 0.13832 0.78232 0.97945 0.0
C265 C 0.18916 0.81326 0.95518 0.0
C266 C 0.14211 0.82708 0.92113 0.0
C267 C 1.07369 0.80652 0.92606 0.0
C268 C 0.2431 0.75474 0.95087 0.0
C269 C 0.22068 0.88563 0.97097 0.0
C270 C 0.88028 0.72382 0.83737 0.0
C271 C 0.88751 0.70502 0.80222 0.0
C272 C 0.93019 0.74893 0.78214 0.0
C273 C 0.97467 0.80221 0.79911 0.0
C274 C 0.98066 0.80481 0.83653 0.0
C275 C 0.931 0.76959 0.85497 0.0
C276 C 0.95107 0.7677 0.89449 0.0
C277 C 1.02277 0.80362 0.8965 0.0
C278 C 1.04005 0.82446 0.86242 0.0
C279 C 0.9515 0.68635 0.90779 0.0
C280 C 0.90106 0.81505 0.91217 0.0
H281 H 0.30599 0.86305 0.91762 0.0
H282 H 0.26069 0.81084 0.78947 0.0
H283 H 0.15542 0.96102 0.81274 0.0
H284 H 1.07252 0.92539 0.7982 0.0
H285 H 0.1438 0.90816 0.773 0.0
H286 H 0.17034 0.73296 0.80313 0.0
H287 H 1.11165 0.78048 0.77288 0.0
H288 H 1.08634 0.73481 0.8127 0.0
H289 H 0.2063 0.75701 0.02629 0.0
H290 H 0.99233 0.69083 0.0283 0.0
H291 H 0.96577 0.74609 0.97047 0.0
H292 H 0.23488 0.7043 0.96701 0.0
H293 H 0.29623 0.77525 0.95948 0.0
H294 H 0.24078 0.73572 0.92312 0.0
H295 H 0.18019 0.91886 0.98048 0.0
H296 H 0.24522 0.92026 0.95111 0.0
H297 H 0.25923 0.87498 -0.00606 0.0
H298 H 0.3919 0.80423 0.88743 0.0
C299 C 0.29423 0.85129 0.89002 0.0
C300 C 1.10885 0.30232 0.4528 0.0
C301 C 1.0706 0.24839 0.43247 0.0
C302 C 1.05946 0.25854 0.39527 0.0
C303 C 1.11802 0.37744 0.39968 0.0
C304 C 0.13178 0.3663 0.43595 0.0
C305 C 0.17025 0.43073 0.45372 0.0
H306 H 0.28773 0.78209 0.44 0.0
C307 C 0.14249 0.45218 0.3909 0.0
C308 C 0.17262 0.48405 0.42253 0.0
H309 H 0.32476 0.63612 0.53035 0.0
H310 H 0.25657 0.53955 0.49836 0.0
H311 H 0.32572 0.67127 0.38698 0.0
H312 H 0.1306 0.73406 0.41605 0.0
H313 H 1.11806 0.71868 0.37014 0.0
H314 H 0.17953 0.78903 0.38701 0.0
H315 H 0.28851 0.75587 0.37258 0.0
H316 H 0.27136 0.67385 0.34732 0.0
C317 C 0.24292 0.40703 0.46831 0.0
C318 C 1.1276 0.45898 0.4825 0.0
C319 C 1.11147 0.55022 0.26334 0.0
C320 C 1.12312 0.6202 0.24851 0.0
C321 C 0.14356 0.67874 0.27117 0.0
C322 C 0.15542 0.66739 0.30787 0.0
C323 C 0.14644 0.59681 0.32225 0.0
C324 C 1.12262 0.54003 0.30033 0.0
C325 C 1.111 0.47019 0.32108 0.0
C326 C 0.1363 0.49378 0.35866 0.0
C327 C 0.15765 0.56762 0.35888 0.0
C328 C 0.1564 0.4115 0.30788 0.0
C329 C 1.03288 0.44956 0.3169 0.0
C330 C 0.27957 0.72993 0.4533 0.0
C331 C 0.30982 0.71683 0.4879 0.0
C332 C 0.30088 0.64734 0.5038 0.0
C333 C 0.26189 0.59155 0.48511 0.0
C334 C 0.23328 0.60532 0.45 0.0
C335 C 0.24299 0.67364 0.43476 0.0
C336 C 0.21627 0.67727 0.39625 0.0
C337 C 0.18831 0.59981 0.39063 0.0
C338 C 0.1971 0.55805 0.42221 0.0
C339 C 0.27809 0.69598 0.3744 0.0
C340 C 0.15841 0.7329 0.3918 0.0
H341 H 1.07201 0.32758 0.3505 0.0
H342 H 1.11812 0.29643 0.48143 0.0
H343 H 1.07299 0.4639 0.47165 0.0
H344 H 0.14557 0.51358 0.49201 0.0
H345 H 1.12893 0.42097 0.50582 0.0
H346 H 0.25994 0.36159 0.45272 0.0
H347 H 0.24404 0.38797 0.49646 0.0
H348 H 0.28273 0.45114 0.46615 0.0
H349 H 1.09421 0.50455 0.24657 0.0
H350 H 0.15267 0.73314 0.26042 0.0
H351 H 0.17244 0.71394 0.32354 0.0
H352 H 0.20895 0.43484 0.3048 0.0
H353 H 0.13436 0.39054 0.28163 0.0
H354 H 0.16345 0.36488 0.32667 0.0
H355 H 1.00163 0.49813 0.31025 0.0
H356 H 1.0144 0.42729 0.34184 0.0
H357 H 1.01968 0.40959 0.29538 0.0
H358 H 1.03141 0.21728 0.3789 0.0
C359 C 1.08296 0.32265 0.3788 0.0
C360 C 0.58903 0.73733 0.8247 0.0
C361 C 0.61001 0.67249 0.80931 0.0
C362 C 0.63924 0.67922 0.7769 0.0
C363 C 0.62816 0.80998 0.7751 0.0
C364 C 0.5996 0.80631 0.8071 0.0
C365 C 0.58602 0.88344 0.8189 0.0
H366 H 0.59161 0.25316 0.77202 0.0
C367 C 0.63313 0.88674 0.76263 0.0
C368 C 0.60877 0.93195 0.78791 0.0
H369 H 0.53878 0.1636 0.87242 0.0
H370 H 0.5565 1.03968 0.85228 0.0
H371 H 0.72051 0.16798 0.77245 0.0
H372 H 0.51731 0.12913 0.72056 0.0
H373 H 0.5746 0.10936 0.68952 0.0
H374 H 0.5757 0.19999 0.70692 0.0
H375 H 0.69039 0.21592 0.73243 0.0
H376 H 0.7323 0.13032 0.7314 0.0
C377 C 0.63129 0.89901 0.85385 0.0
C378 C 0.50889 0.88884 0.82278 0.0
C379 C 0.71281 0.93437 0.6403 0.0
C380 C 0.7195 0.99746 0.61921 0.0
C381 C 0.71044 0.0659 0.63372 0.0
C382 C 0.69087 0.07077 0.66833 0.0
C383 C 0.68078 1.00641 0.68864 0.0
C384 C 0.69377 0.9401 0.67475 0.0
C385 C 0.68084 0.87738 0.69961 0.0
C386 C 0.65602 0.91657 0.73068 0.0
C387 C 0.65559 0.99177 0.72403 0.0
C388 C 0.75062 0.84108 0.70997 0.0
C389 C 0.62345 0.8266 0.68065 0.0
C390 C 0.58224 0.20701 0.78951 0.0
C391 C 0.56196 0.21823 0.82332 0.0
C392 C 0.55323 0.15642 0.84584 0.0
C393 C 0.56415 0.08475 0.83429 0.0
C394 C 0.5862 0.07495 0.80031 0.0
C395 C 0.59506 0.13653 0.77893 0.0
C396 C 0.62401 0.11991 0.74508 0.0
C397 C 0.63062 1.03825 0.74882 0.0
C398 C 0.60768 1.00995 0.78098 0.0
C399 C 0.69526 0.16078 0.74495 0.0
C400 C 0.57072 0.14092 0.71371 0.0
H401 H 0.67067 0.74517 0.73544 0.0
H402 H 0.5666 0.73453 0.84975 0.0
H403 H 0.47779 0.87276 0.79771 0.0
H404 H 0.49582 0.94495 0.82869 0.0
H405 H 0.4932 0.85201 0.84454 0.0
H406 H 0.68558 0.8864 0.85115 0.0
H407 H 0.61332 0.86488 0.87603 0.0
H408 H 0.63137 0.95681 0.86126 0.0
H409 H 0.72011 0.88119 0.62986 0.0
H410 H 0.7146 0.11515 0.61757 0.0
H411 H 0.68211 0.12425 0.6774 0.0
H412 H 0.79519 0.87957 0.70669 0.0
H413 H 0.75631 0.7931 0.69325 0.0
H414 H 0.75746 0.82413 0.73838 0.0
H415 H 0.58547 0.85875 0.66365 0.0
H416 H 0.59233 0.7958 0.69918 0.0
H417 H 0.64528 0.78762 0.66321 0.0
H418 H 0.65475 0.63157 0.76387 0.0
C419 C 0.64832 0.74631 0.76002 0.0
C420 C 0.8343 0.66006 0.14578 0.0
C421 C 0.89326 0.67021 0.12486 0.0
C422 C 0.87684 0.6808 0.08816 0.0
C423 C 0.75343 0.65744 0.09193 0.0
C424 C 0.76362 0.657 0.12841 0.0
C425 C 0.69045 0.65216 0.14266 0.0
H426 H 0.33153 0.56581 0.08832 0.0
C427 C 0.67952 0.63956 0.07993 0.0
C428 C 0.63796 0.64215 0.1086 0.0
H429 H 0.38822 0.71697 0.17257 0.0
H430 H 0.51143 0.70993 0.16206 0.0
H431 H 0.41056 0.65205 0.03836 0.0
H432 H 0.46217 0.45997 0.10013 0.0
H433 H 0.49518 0.44806 0.05929 0.0
H434 H 0.4038 0.45739 0.06041 0.0
H435 H 0.37432 0.56317 0.02696 0.0
H436 H 0.45222 0.59867 0.01025 0.0
C437 C 0.67878 0.72315 0.16148 0.0
C438 C 0.68489 0.58621 0.16807 0.0
C439 C 0.64241 0.51986 0.95906 0.0
C440 C 0.5872 0.47922 0.94143 0.0
C441 C 0.52769 0.46479 0.959 0.0
C442 C 0.5224 0.49254 -0.00715 0.0
C443 C 0.57694 0.53591 0.00956 0.0
C444 C 0.63636 0.54685 -0.00698 0.0
C445 C 0.68941 0.5935 0.01448 0.0
C446 C 0.65291 0.60628 0.0476 0.0
C447 C 0.58608 0.57526 0.04387 0.0
C448 C 0.69956 0.66586 -0.00683 0.0
C449 C 0.75594 0.54964 0.02228 0.0
C450 C 0.36942 0.59621 0.10565 0.0
C451 C 0.34686 0.64038 0.13194 0.0
C452 C 0.40136 0.68083 0.15227 0.0
C453 C 0.47356 0.67631 0.1465 0.0
C454 C 0.49434 0.63139 0.11964 0.0
C455 C 0.44033 0.59473 0.09935 0.0
C456 C 0.46463 0.56155 0.06738 0.0
C457 C 0.54026 0.58603 0.07008 0.0
C458 C 0.56267 0.62309 0.10212 0.0
C459 C 0.42341 0.59469 0.03388 0.0
C460 C 0.45568 0.47741 0.07163 0.0
H461 H 0.80246 0.68384 0.0439 0.0
H462 H 0.84292 0.65501 0.17443 0.0
H463 H 0.69444 0.53512 0.15442 0.0
H464 H 0.63268 0.58107 0.17727 0.0
H465 H 0.72319 0.59213 0.19171 0.0
H466 H 0.67991 0.77036 0.14256 0.0
H467 H 0.71955 0.73297 0.18372 0.0
H468 H 0.62846 0.72031 0.17259 0.0
H469 H 0.68885 0.53244 0.94637 0.0
H470 H 0.48418 0.43363 0.94618 0.0
H471 H 0.4749 0.48096 0.0041 0.0
H472 H 0.65084 0.6815 0.97767 0.0
H473 H 0.73857 0.66082 0.97404 0.0
H474 H 0.71422 0.71284 0.01059 0.0
H475 H 0.75326 0.49723 0.00789 0.0
H476 H 0.76567 0.5345 0.05089 0.0
H477 H 0.80192 0.58015 0.01385 0.0
H478 H 0.91761 0.69178 0.07126 0.0
C479 C 0.80911 0.67474 0.072 0.0
loop_
_geom_bond_atom_site_label_1
_geom_bond_atom_site_label_2
_geom_bond_distance
_geom_bond_site_symmetry_2
_ccdc_geom_bond_type
Dy0 O3 2.307 1_455 S
Dy0 O5 2.395 . S
Dy0 O6 2.379 . S
Dy0 O8 2.339 . S
Dy0 O10 2.298 . S
Dy0 O14 2.275 . S
Dy0 C22 2.738 . S
Dy1 O4 2.298 . S
Dy1 O7 2.275 . S
Dy1 O9 2.307 1_655 S
Dy1 O11 2.395 . S
Dy1 O12 2.379 . S
Dy1 O15 2.339 . S
Dy1 C31 2.738 . S
C2 O14 1.254 . S
C2 O15 1.257 1_455 S
O3 Dy0 2.307 1_655 S
O3 C13 1.266 . S
O4 Dy1 2.298 . S
O4 C13 1.236 . S
O5 Dy0 2.395 . S
O5 C22 1.255 . S
O6 Dy0 2.379 . S
O6 C22 1.249 . S
O7 Dy1 2.275 . S
O7 C23 1.254 1_655 S
O8 Dy0 2.339 . S
O8 C23 1.257 . S
O9 Dy1 2.307 1_455 S
O9 C24 1.266 . S
O10 Dy0 2.298 . S
O10 C24 1.236 . S
O11 Dy1 2.395 . S
O11 C31 1.255 . S
O12 Dy1 2.379 . S
O12 C31 1.249 . S
C13 O3 1.266 . S
C13 O4 1.236 . S
O14 Dy0 2.275 . S
O14 C2 1.254 . S
O15 Dy1 2.339 . S
O15 C2 1.257 1_655 S
C16 C19 1.344 . S
C16 C20 1.328 . S
C16 C22 1.516 . S
C17 C18 1.304 . S
C17 C21 1.323 . S
C18 C17 1.304 . S
C18 C19 1.371 . S
C18 H32 0.930 . S
C19 C16 1.344 . S
C19 C18 1.371 . S
C19 H33 0.931 . S
C20 C16 1.328 . S
C20 C21 1.433 . S
C20 H34 0.931 . S
C21 C17 1.323 . S
C21 C20 1.433 . S
C21 H35 0.933 . S
C22 Dy0 2.738 . S
C22 O5 1.255 . S
C22 O6 1.249 . S
C22 C16 1.516 . S
C23 O7 1.254 1_455 S
C23 O8 1.257 . S
C24 O9 1.266 . S
C24 O10 1.236 . S
C25 C28 1.344 . S
C25 C29 1.328 . S
C25 C31 1.516 . S
C26 C27 1.304 . S
C26 C30 1.323 . S
C27 C26 1.304 . S
C27 C28 1.371 . S
C27 H36 0.930 . S
C28 C25 1.344 . S
C28 C27 1.371 . S
C28 H37 0.931 . S
C29 C25 1.328 . S
C29 C30 1.433 . S
C29 H38 0.931 . S
C30 C26 1.323 . S
C30 C29 1.433 . S
C30 H39 0.933 . S
C31 Dy1 2.738 . S
C31 O11 1.255 . S
C31 O12 1.249 . S
C31 C25 1.516 . S
H32 C18 0.930 . S
H33 C19 0.931 . S
H34 C20 0.931 . S
H35 C21 0.933 . S
H36 C27 0.930 . S
H37 C28 0.931 . S
H38 C29 0.931 . S
H39 C30 0.933 . S
Dy40 O43 2.307 1_565 S
Dy40 O45 2.395 . S
Dy40 O46 2.379 . S
Dy40 O48 2.339 . S
Dy40 O50 2.298 . S
Dy40 O54 2.275 1_565 S
Dy40 C62 2.738 . S
Dy41 O44 2.298 . S
Dy41 O47 2.275 . S
Dy41 O49 2.307 1_545 S
Dy41 O51 2.395 . S
Dy41 O52 2.379 . S
Dy41 O55 2.339 . S
Dy41 C71 2.738 . S
C42 O54 1.254 . S
C42 O55 1.257 . S
O43 Dy40 2.307 1_545 S
O43 C53 1.266 . S
O44 Dy41 2.298 . S
O44 C53 1.236 . S
O45 Dy40 2.395 . S
O45 C62 1.255 . S
O46 Dy40 2.379 . S
O46 C62 1.249 . S
O47 Dy41 2.275 . S
O47 C63 1.254 . S
O48 Dy40 2.339 . S
O48 C63 1.257 1_565 S
O49 Dy41 2.307 1_565 S
O49 C64 1.266 . S
O50 Dy40 2.298 . S
O50 C64 1.236 . S
O51 Dy41 2.395 . S
O51 C71 1.255 . S
O52 Dy41 2.379 . S
O52 C71 1.249 . S
C53 O43 1.266 . S
C53 O44 1.236 . S
O54 Dy40 2.275 1_545 S
O54 C42 1.254 . S
O55 Dy41 2.339 . S
O55 C42 1.257 . S
C56 C59 1.344 . S
C56 C60 1.328 . S
C56 C62 1.516 . S
C57 C58 1.304 . S
C57 C61 1.323 . S
C58 C57 1.304 . S
C58 C59 1.371 . S
C58 H72 0.930 . S
C59 C56 1.344 . S
C59 C58 1.371 . S
C59 H73 0.931 . S
C60 C56 1.328 . S
C60 C61 1.433 . S
C60 H74 0.931 . S
C61 C57 1.323 . S
C61 C60 1.433 . S
C61 H75 0.933 . S
C62 Dy40 2.738 . S
C62 O45 1.255 . S
C62 O46 1.249 . S
C62 C56 1.516 . S
C63 O47 1.254 . S
C63 O48 1.257 1_545 S
C64 O49 1.266 . S
C64 O50 1.236 . S
C65 C68 1.344 . S
C65 C69 1.328 . S
C65 C71 1.516 . S
C66 C67 1.304 . S
C66 C70 1.323 . S
C67 C66 1.304 . S
C67 C68 1.371 . S
C67 H76 0.930 . S
C68 C65 1.344 . S
C68 C67 1.371 . S
C68 H77 0.931 . S
C69 C65 1.328 . S
C69 C70 1.433 . S
C69 H78 0.931 . S
C70 C66 1.323 . S
C70 C69 1.433 . S
C70 H79 0.933 . S
C71 Dy41 2.738 . S
C71 O51 1.255 . S
C71 O52 1.249 . S
C71 C65 1.516 . S
H72 C58 0.930 . S
H73 C59 0.931 . S
H74 C60 0.931 . S
H75 C61 0.933 . S
H76 C67 0.930 . S
H77 C68 0.931 . S
H78 C69 0.931 . S
H79 C70 0.933 . S
Dy80 O83 2.307 . S
Dy80 O85 2.395 . S
Dy80 O86 2.379 . S
Dy80 O88 2.339 . S
Dy80 O90 2.298 . S
Dy80 O94 2.275 . S
Dy80 C102 2.738 . S
Dy81 O84 2.298 . S
Dy81 O87 2.275 . S
Dy81 O89 2.307 . S
Dy81 O91 2.395 . S
Dy81 O92 2.379 . S
Dy81 O95 2.339 . S
Dy81 C111 2.738 . S
C82 O94 1.254 . S
C82 O95 1.257 . S
O83 Dy80 2.307 . S
O83 C93 1.266 . S
O84 Dy81 2.298 . S
O84 C93 1.236 . S
O85 Dy80 2.395 . S
O85 C102 1.255 . S
O86 Dy80 2.379 . S
O86 C102 1.249 . S
O87 Dy81 2.275 . S
O87 C103 1.254 . S
O88 Dy80 2.339 . S
O88 C103 1.257 . S
O89 Dy81 2.307 . S
O89 C104 1.266 . S
O90 Dy80 2.298 . S
O90 C104 1.236 . S
O91 Dy81 2.395 . S
O91 C111 1.255 . S
O92 Dy81 2.379 . S
O92 C111 1.249 . S
C93 O83 1.266 . S
C93 O84 1.236 . S
O94 Dy80 2.275 . S
O94 C82 1.254 . S
O95 Dy81 2.339 . S
O95 C82 1.257 . S
C96 C99 1.344 . S
C96 C100 1.328 . S
C96 C102 1.516 . S
C97 C98 1.304 . S
C97 C101 1.323 . S
C98 C97 1.304 . S
C98 C99 1.371 . S
C98 H112 0.930 . S
C99 C96 1.344 . S
C99 C98 1.371 . S
C99 H113 0.931 . S
C100 C96 1.328 . S
C100 C101 1.433 . S
C100 H114 0.931 . S
C101 C97 1.323 . S
C101 C100 1.433 . S
C101 H115 0.933 . S
C102 Dy80 2.738 . S
C102 O85 1.255 . S
C102 O86 1.249 . S
C102 C96 1.516 . S
C103 O87 1.254 . S
C103 O88 1.257 . S
C104 O89 1.266 . S
C104 O90 1.236 . S
C105 C108 1.344 . S
C105 C109 1.328 . S
C105 C111 1.516 . S
C106 C107 1.304 . S
C106 C110 1.323 . S
C107 C106 1.304 . S
C107 C108 1.371 . S
C107 H116 0.930 . S
C108 C105 1.344 . S
C108 C107 1.371 . S
C108 H117 0.931 . S
C109 C105 1.328 . S
C109 C110 1.433 . S
C109 H118 0.931 . S
C110 C106 1.323 . S
C110 C109 1.433 . S
C110 H119 0.933 . S
C111 Dy81 2.738 . S
C111 O91 1.255 . S
C111 O92 1.249 . S
C111 C105 1.516 . S
H112 C98 0.930 . S
H113 C99 0.931 . S
H114 C100 0.931 . S
H115 C101 0.933 . S
H116 C107 0.930 . S
H117 C108 0.931 . S
H118 C109 0.931 . S
H119 C110 0.933 . S
C120 C121 1.391 . S
C120 C124 1.391 . S
C120 H162 0.948 . S
C121 C120 1.391 . S
C121 C122 1.391 . S
C122 C121 1.391 . S
C122 H178 0.947 . S
C122 C179 1.392 . S
C123 C124 1.391 . S
C123 C127 1.397 . S
C123 C179 1.419 . S
C124 C120 1.391 . S
C124 C123 1.391 . S
C124 C125 1.399 . S
C125 C124 1.399 . S
C125 C128 1.396 . S
C125 C137 1.453 . S
C125 C138 1.684 . S
H126 C150 0.948 . S
C127 C123 1.397 . S
C127 C128 1.394 . S
C127 C146 1.723 . S
C128 C125 1.396 . S
C128 C127 1.394 . S
C128 C158 1.723 . S
H129 C152 0.947 . S
H130 C153 0.948 1_545 S
H131 C159 0.982 . S
H132 C160 0.979 . S
H133 C160 0.980 . S
H134 C160 0.983 . S
H135 C159 0.979 . S
H136 C159 0.977 . S
C137 C125 1.453 . S
C137 H166 0.982 . S
C137 H167 0.979 . S
C137 H168 0.977 . S
C138 C125 1.684 . S
C138 H163 0.979 . S
C138 H164 0.980 . S
C138 H165 0.983 . S
C139 C140 1.391 . S
C139 C144 1.391 . S
C139 H169 0.948 . S
C140 C139 1.391 . S
C140 C141 1.391 1_545 S
C141 C140 1.391 1_565 S
C141 C142 1.392 . S
C141 H170 0.947 . S
C142 C141 1.392 . S
C142 C143 1.419 1_565 S
C142 H171 0.948 . S
C143 C142 1.419 1_545 S
C143 C144 1.391 . S
C143 C147 1.397 . S
C144 C139 1.391 . S
C144 C143 1.391 . S
C144 C145 1.399 . S
C145 C144 1.399 . S
C145 C146 1.396 . S
C145 C148 1.453 . S
C145 C149 1.684 . S
C146 C127 1.723 . S
C146 C145 1.396 . S
C146 C147 1.394 . S
C147 C143 1.397 . S
C147 C146 1.394 . S
C147 C157 1.723 1_545 S
C148 C145 1.453 . S
C148 H172 0.982 . S
C148 H173 0.979 . S
C148 H174 0.977 . S
C149 C145 1.684 . S
C149 H175 0.979 . S
C149 H176 0.980 . S
C149 H177 0.983 . S
C150 H126 0.948 . S
C150 C151 1.391 . S
C150 C155 1.391 . S
C151 C150 1.391 . S
C151 C152 1.391 . S
C152 H129 0.947 . S
C152 C151 1.391 . S
C152 C153 1.392 . S
C153 H130 0.948 1_565 S
C153 C152 1.392 . S
C153 C154 1.419 . S
C154 C153 1.419 . S
C154 C155 1.391 . S
C154 C158 1.397 1_565 S
C155 C150 1.391 . S
C155 C154 1.391 . S
C155 C156 1.399 . S
C156 C155 1.399 . S
C156 C157 1.396 . S
C156 C159 1.453 . S
C156 C160 1.684 . S
C157 C147 1.723 1_565 S
C157 C156 1.396 . S
C157 C158 1.394 1_565 S
C158 C128 1.723 . S
C158 C154 1.397 1_545 S
C158 C157 1.394 1_545 S
C159 H131 0.982 . S
C159 H135 0.979 . S
C159 H136 0.977 . S
C159 C156 1.453 . S
C160 H132 0.979 . S
C160 H133 0.980 . S
C160 H134 0.983 . S
C160 C156 1.684 . S
H161 C179 0.948 . S
H162 C120 0.948 . S
H163 C138 0.979 . S
H164 C138 0.980 . S
H165 C138 0.983 . S
H166 C137 0.982 . S
H167 C137 0.979 . S
H168 C137 0.977 . S
H169 C139 0.948 . S
H170 C141 0.947 . S
H171 C142 0.948 . S
H172 C148 0.982 . S
H173 C148 0.979 . S
H174 C148 0.977 . S
H175 C149 0.979 . S
H176 C149 0.980 . S
H177 C149 0.983 . S
H178 C122 0.947 . S
C179 C122 1.392 . S
C179 C123 1.419 . S
C179 H161 0.948 . S
C180 C181 1.391 . S
C180 C184 1.391 . S
C180 H222 0.948 . S
C181 C180 1.391 . S
C181 C182 1.391 . S
C182 C181 1.391 . S
C182 H238 0.947 . S
C182 C239 1.392 . S
C183 C184 1.391 . S
C183 C187 1.397 . S
C183 C239 1.419 . S
C184 C180 1.391 . S
C184 C183 1.391 . S
C184 C185 1.399 . S
C185 C184 1.399 . S
C185 C188 1.396 . S
C185 C197 1.453 . S
C185 C198 1.684 . S
H186 C210 0.948 . S
C187 C183 1.397 . S
C187 C188 1.394 . S
C187 C206 1.723 . S
C188 C185 1.396 . S
C188 C187 1.394 . S
C188 C218 1.723 . S
H189 C212 0.947 . S
H190 C213 0.948 . S
H191 C219 0.982 . S
H192 C220 0.979 . S
H193 C220 0.980 . S
H194 C220 0.983 . S
H195 C219 0.979 . S
H196 C219 0.977 . S
C197 C185 1.453 . S
C197 H226 0.982 . S
C197 H227 0.979 . S
C197 H228 0.977 . S
C198 C185 1.684 . S
C198 H223 0.979 . S
C198 H224 0.980 . S
C198 H225 0.983 . S
C199 C200 1.391 . S
C199 C204 1.391 . S
C199 H229 0.948 . S
C200 C199 1.391 . S
C200 C201 1.391 . S
C201 C200 1.391 . S
C201 C202 1.392 . S
C201 H230 0.947 . S
C202 C201 1.392 . S
C202 C203 1.419 . S
C202 H231 0.948 . S
C203 C202 1.419 . S
C203 C204 1.391 . S
C203 C207 1.397 . S
C204 C199 1.391 . S
C204 C203 1.391 . S
C204 C205 1.399 . S
C205 C204 1.399 . S
C205 C206 1.396 . S
C205 C208 1.453 . S
C205 C209 1.684 . S
C206 C187 1.723 . S
C206 C205 1.396 . S
C206 C207 1.394 . S
C207 C203 1.397 . S
C207 C206 1.394 . S
C207 C217 1.723 . S
C208 C205 1.453 . S
C208 H232 0.982 . S
C208 H233 0.979 . S
C208 H234 0.977 . S
C209 C205 1.684 . S
C209 H235 0.979 . S
C209 H236 0.980 . S
C209 H237 0.983 . S
C210 H186 0.948 . S
C210 C211 1.391 . S
C210 C215 1.391 . S
C211 C210 1.391 . S
C211 C212 1.391 . S
C212 H189 0.947 . S
C212 C211 1.391 . S
C212 C213 1.392 . S
C213 H190 0.948 . S
C213 C212 1.392 . S
C213 C214 1.419 . S
C214 C213 1.419 . S
C214 C215 1.391 . S
C214 C218 1.397 . S
C215 C210 1.391 . S
C215 C214 1.391 . S
C215 C216 1.399 . S
C216 C215 1.399 . S
C216 C217 1.396 . S
C216 C219 1.453 . S
C216 C220 1.684 . S
C217 C207 1.723 . S
C217 C216 1.396 . S
C217 C218 1.394 . S
C218 C188 1.723 . S
C218 C214 1.397 . S
C218 C217 1.394 . S
C219 H191 0.982 . S
C219 H195 0.979 . S
C219 H196 0.977 . S
C219 C216 1.453 . S
C220 H192 0.979 . S
C220 H193 0.980 . S
C220 H194 0.983 . S
C220 C216 1.684 . S
H221 C239 0.948 . S
H222 C180 0.948 . S
H223 C198 0.979 . S
H224 C198 0.980 . S
H225 C198 0.983 . S
H226 C197 0.982 . S
H227 C197 0.979 . S
H228 C197 0.977 . S
H229 C199 0.948 . S
H230 C201 0.947 . S
H231 C202 0.948 . S
H232 C208 0.982 . S
H233 C208 0.979 . S
H234 C208 0.977 . S
H235 C209 0.979 . S
H236 C209 0.980 . S
H237 C209 0.983 . S
H238 C182 0.947 . S
C239 C182 1.392 . S
C239 C183 1.419 . S
C239 H221 0.948 . S
C240 C241 1.391 . S
C240 C244 1.391 . S
C240 H282 0.948 . S
C241 C240 1.391 . S
C241 C242 1.391 . S
C242 C241 1.391 . S
C242 H298 0.947 . S
C242 C299 1.392 . S
C243 C244 1.391 . S
C243 C247 1.397 . S
C243 C299 1.419 . S
C244 C240 1.391 . S
C244 C243 1.391 . S
C244 C245 1.399 . S
C245 C244 1.399 . S
C245 C248 1.396 . S
C245 C257 1.453 . S
C245 C258 1.684 . S
H246 C270 0.948 . S
C247 C243 1.397 . S
C247 C248 1.394 . S
C247 C266 1.723 . S
C248 C245 1.396 . S
C248 C247 1.394 . S
C248 C278 1.723 1_455 S
H249 C272 0.947 . S
H250 C273 0.948 . S
H251 C279 0.982 . S
H252 C280 0.979 . S
H253 C280 0.980 . S
H254 C280 0.983 . S
H255 C279 0.979 . S
H256 C279 0.977 . S
C257 C245 1.453 . S
C257 H286 0.982 . S
C257 H287 0.979 . S
C257 H288 0.977 1_455 S
C258 C245 1.684 . S
C258 H283 0.979 . S
C258 H284 0.980 . S
C258 H285 0.983 . S
C259 C260 1.391 . S
C259 C264 1.391 . S
C259 H289 0.948 . S
C260 C259 1.391 . S
C260 C261 1.391 1_455 S
C261 C260 1.391 1_655 S
C261 C262 1.392 . S
C261 H290 0.947 . S
C262 C261 1.392 . S
C262 C263 1.419 1_655 S
C262 H291 0.948 . S
C263 C262 1.419 1_455 S
C263 C264 1.391 . S
C263 C267 1.397 1_554 S
C264 C259 1.391 . S
C264 C263 1.391 . S
C264 C265 1.399 1_554 S
C265 C264 1.399 1_556 S
C265 C266 1.396 . S
C265 C268 1.453 . S
C265 C269 1.684 1_556 S
C266 C247 1.723 . S
C266 C265 1.396 . S
C266 C267 1.394 . S
C267 C263 1.397 1_556 S
C267 C266 1.394 . S
C267 C277 1.723 1_455 S
C268 C265 1.453 . S
C268 H292 0.982 . S
C268 H293 0.979 1_556 S
C268 H294 0.977 . S
C269 C265 1.684 1_554 S
C269 H295 0.978 1_554 S
C269 H296 0.972 1_554 S
C269 H297 0.991 . S
C270 H246 0.948 . S
C270 C271 1.391 . S
C270 C275 1.391 . S
C271 C270 1.391 . S
C271 C272 1.391 . S
C272 H249 0.947 . S
C272 C271 1.391 . S
C272 C273 1.392 . S
C273 H250 0.948 . S
C273 C272 1.392 . S
C273 C274 1.419 . S
C274 C273 1.419 . S
C274 C275 1.391 . S
C274 C278 1.397 . S
C275 C270 1.391 . S
C275 C274 1.391 . S
C275 C276 1.399 . S
C276 C275 1.399 . S
C276 C277 1.396 . S
C276 C279 1.453 . S
C276 C280 1.684 . S
C277 C267 1.723 1_655 S
C277 C276 1.396 . S
C277 C278 1.394 . S
C278 C248 1.723 1_655 S
C278 C274 1.397 . S
C278 C277 1.394 . S
C279 H251 0.982 . S
C279 H255 0.979 . S
C279 H256 0.977 . S
C279 C276 1.453 . S
C280 H252 0.979 . S
C280 H253 0.980 . S
C280 H254 0.983 . S
C280 C276 1.684 . S
H281 C299 0.948 . S
H282 C240 0.948 . S
H283 C258 0.979 . S
H284 C258 0.980 . S
H285 C258 0.983 . S
H286 C257 0.982 . S
H287 C257 0.979 . S
H288 C257 0.977 1_655 S
H289 C259 0.948 . S
H290 C261 0.947 . S
H291 C262 0.948 . S
H292 C268 0.982 . S
H293 C268 0.979 1_554 S
H294 C268 0.977 . S
H295 C269 0.978 1_556 S
H296 C269 0.972 1_556 S
H297 C269 0.991 . S
H298 C242 0.947 . S
C299 C242 1.392 . S
C299 C243 1.419 . S
C299 H281 0.948 . S
C300 C301 1.391 . S
C300 C304 1.391 . S
C300 H342 0.948 . S
C301 C300 1.391 . S
C301 C302 1.391 . S
C302 C301 1.391 . S
C302 H358 0.947 . S
C302 C359 1.392 . S
C303 C304 1.391 . S
C303 C307 1.397 . S
C303 C359 1.419 . S
C304 C300 1.391 . S
C304 C303 1.391 . S
C304 C305 1.399 . S
C305 C304 1.399 . S
C305 C308 1.405 . S
C305 C317 1.453 1_655 S
C305 C318 1.684 . S
H306 C330 0.948 . S
C307 C303 1.397 . S
C307 C308 1.403 . S
C307 C326 1.723 . S
C308 C305 1.405 . S
C308 C307 1.403 . S
C308 C338 1.711 1_655 S
H309 C332 0.947 . S
H310 C333 0.948 . S
H311 C339 0.982 . S
H312 C340 0.979 . S
H313 C340 0.980 . S
H314 C340 0.983 . S
H315 C339 0.979 . S
H316 C339 0.977 . S
C317 C305 1.453 1_455 S
C317 H346 0.982 . S
C317 H347 0.979 . S
C317 H348 0.977 . S
C318 C305 1.684 . S
C318 H343 0.979 . S
C318 H344 0.980 1_655 S
C318 H345 0.983 . S
C319 C320 1.391 . S
C319 C324 1.391 . S
C319 H349 0.948 . S
C320 C319 1.391 . S
C320 C321 1.391 1_655 S
C321 C320 1.391 1_455 S
C321 C322 1.392 . S
C321 H350 0.947 . S
C322 C321 1.392 . S
C322 C323 1.419 . S
C322 H351 0.948 . S
C323 C322 1.419 . S
C323 C324 1.391 1_455 S
C323 C327 1.397 . S
C324 C319 1.391 . S
C324 C323 1.391 1_655 S
C324 C325 1.399 . S
C325 C324 1.399 . S
C325 C326 1.396 . S
C325 C328 1.453 . S
C325 C329 1.684 . S
C326 C307 1.723 . S
C326 C325 1.396 . S
C326 C327 1.394 1_655 S
C327 C323 1.397 . S
C327 C326 1.394 1_455 S
C327 C337 1.723 . S
C328 C325 1.453 . S
C328 H352 0.982 . S
C328 H353 0.979 . S
C328 H354 0.977 . S
C329 C325 1.684 . S
C329 H355 0.979 . S
C329 H356 0.980 . S
C329 H357 0.983 . S
C330 H306 0.948 . S
C330 C331 1.391 . S
C330 C335 1.391 . S
C331 C330 1.391 . S
C331 C332 1.391 . S
C332 H309 0.947 . S
C332 C331 1.391 . S
C332 C333 1.392 . S
C333 H310 0.948 . S
C333 C332 1.392 . S
C333 C334 1.419 . S
C334 C333 1.419 . S
C334 C335 1.391 . S
C334 C338 1.397 . S
C335 C330 1.391 . S
C335 C334 1.391 . S
C335 C336 1.399 . S
C336 C335 1.399 . S
C336 C337 1.396 . S
C336 C339 1.453 . S
C336 C340 1.684 . S
C337 C327 1.723 . S
C337 C336 1.396 . S
C337 C338 1.394 . S
C338 C308 1.711 1_455 S
C338 C334 1.397 . S
C338 C337 1.394 . S
C339 H311 0.982 . S
C339 H315 0.979 . S
C339 H316 0.977 . S
C339 C336 1.453 . S
C340 H312 0.979 . S
C340 H313 0.980 . S
C340 H314 0.983 . S
C340 C336 1.684 . S
H341 C359 0.948 . S
H342 C300 0.948 . S
H343 C318 0.979 . S
H344 C318 0.980 1_455 S
H345 C318 0.983 . S
H346 C317 0.982 . S
H347 C317 0.979 . S
H348 C317 0.977 . S
H349 C319 0.948 . S
H350 C321 0.947 . S
H351 C322 0.948 . S
H352 C328 0.982 . S
H353 C328 0.979 . S
H354 C328 0.977 . S
H355 C329 0.979 . S
H356 C329 0.980 . S
H357 C329 0.983 . S
H358 C302 0.947 . S
C359 C302 1.392 . S
C359 C303 1.419 . S
C359 H341 0.948 . S
C360 C361 1.391 . S
C360 C364 1.391 . S
C360 H402 0.948 . S
C361 C360 1.391 . S
C361 C362 1.391 . S
C362 C361 1.391 . S
C362 H418 0.947 . S
C362 C419 1.392 . S
C363 C364 1.391 . S
C363 C367 1.397 . S
C363 C419 1.419 . S
C364 C360 1.391 . S
C364 C363 1.391 . S
C364 C365 1.399 . S
C365 C364 1.399 . S
C365 C368 1.396 . S
C365 C377 1.453 . S
C365 C378 1.684 . S
H366 C390 0.948 . S
C367 C363 1.397 . S
C367 C368 1.394 . S
C367 C386 1.723 . S
C368 C365 1.396 . S
C368 C367 1.394 . S
C368 C398 1.723 1_565 S
H369 C392 0.947 . S
H370 C393 0.948 . S
H371 C399 0.982 . S
H372 C400 0.979 . S
H373 C400 0.980 . S
H374 C400 0.983 . S
H375 C399 0.979 . S
H376 C399 0.977 . S
C377 C365 1.453 . S
C377 H406 0.982 . S
C377 H407 0.979 . S
C377 H408 0.977 1_565 S
C378 C365 1.684 . S
C378 H403 0.979 . S
C378 H404 0.980 1_565 S
C378 H405 0.983 . S
C379 C380 1.391 1_565 S
C379 C384 1.391 . S
C379 H409 0.948 . S
C380 C379 1.391 1_545 S
C380 C381 1.391 . S
C381 C380 1.391 . S
C381 C382 1.392 . S
C381 H410 0.947 . S
C382 C381 1.392 . S
C382 C383 1.419 . S
C382 H411 0.948 . S
C383 C382 1.419 . S
C383 C384 1.391 1_545 S
C383 C387 1.397 . S
C384 C379 1.391 . S
C384 C383 1.391 1_565 S
C384 C385 1.399 . S
C385 C384 1.399 . S
C385 C386 1.396 . S
C385 C388 1.453 . S
C385 C389 1.684 . S
C386 C367 1.723 . S
C386 C385 1.396 . S
C386 C387 1.394 1_565 S
C387 C383 1.397 . S
C387 C386 1.394 1_545 S
C387 C397 1.723 . S
C388 C385 1.453 . S
C388 H412 0.982 . S
C388 H413 0.979 . S
C388 H414 0.977 . S
C389 C385 1.684 . S
C389 H415 0.979 . S
C389 H416 0.980 . S
C389 H417 0.983 . S
C390 H366 0.948 . S
C390 C391 1.391 . S
C390 C395 1.391 . S
C391 C390 1.391 . S
C391 C392 1.391 . S
C392 H369 0.947 . S
C392 C391 1.391 . S
C392 C393 1.392 . S
C393 H370 0.948 . S
C393 C392 1.392 . S
C393 C394 1.419 . S
C394 C393 1.419 . S
C394 C395 1.391 . S
C394 C398 1.397 . S
C395 C390 1.391 . S
C395 C394 1.391 . S
C395 C396 1.399 . S
C396 C395 1.399 . S
C396 C397 1.396 . S
C396 C399 1.453 . S
C396 C400 1.684 . S
C397 C387 1.723 . S
C397 C396 1.396 . S
C397 C398 1.394 . S
C398 C368 1.723 1_545 S
C398 C394 1.397 . S
C398 C397 1.394 . S
C399 H371 0.982 . S
C399 H375 0.979 . S
C399 H376 0.977 . S
C399 C396 1.453 . S
C400 H372 0.979 . S
C400 H373 0.980 . S
C400 H374 0.983 . S
C400 C396 1.684 . S
H401 C419 0.948 . S
H402 C360 0.948 . S
H403 C378 0.979 . S
H404 C378 0.980 1_545 S
H405 C378 0.983 . S
H406 C377 0.982 . S
H407 C377 0.979 . S
H408 C377 0.977 1_545 S
H409 C379 0.948 . S
H410 C381 0.947 . S
H411 C382 0.948 . S
H412 C388 0.982 . S
H413 C388 0.979 . S
H414 C388 0.977 . S
H415 C389 0.979 . S
H416 C389 0.980 . S
H417 C389 0.983 . S
H418 C362 0.947 . S
C419 C362 1.392 . S
C419 C363 1.419 . S
C419 H401 0.948 . S
C420 C421 1.391 . S
C420 C424 1.391 . S
C420 H462 0.948 . S
C421 C420 1.391 . S
C421 C422 1.391 . S
C422 C421 1.391 . S
C422 H478 0.947 . S
C422 C479 1.392 . S
C423 C424 1.391 . S
C423 C427 1.397 . S
C423 C479 1.419 . S
C424 C420 1.391 . S
C424 C423 1.391 . S
C424 C425 1.399 . S
C425 C424 1.399 . S
C425 C428 1.396 . S
C425 C437 1.453 . S
C425 C438 1.684 . S
H426 C450 0.948 . S
C427 C423 1.397 . S
C427 C428 1.394 . S
C427 C446 1.723 . S
C428 C425 1.396 . S
C428 C427 1.394 . S
C428 C458 1.723 . S
H429 C452 0.947 . S
H430 C453 0.948 . S
H431 C459 0.982 . S
H432 C460 0.979 . S
H433 C460 0.980 . S
H434 C460 0.983 . S
H435 C459 0.979 . S
H436 C459 0.977 . S
C437 C425 1.453 . S
C437 H466 0.982 . S
C437 H467 0.979 . S
C437 H468 0.977 . S
C438 C425 1.684 . S
C438 H463 0.979 . S
C438 H464 0.980 . S
C438 H465 0.983 . S
C439 C440 1.391 . S
C439 C444 1.391 . S
C439 H469 0.948 . S
C440 C439 1.391 . S
C440 C441 1.391 . S
C441 C440 1.391 . S
C441 C442 1.392 . S
C441 H470 0.947 . S
C442 C441 1.392 . S
C442 C443 1.419 1_556 S
C442 H471 0.943 1_556 S
C443 C442 1.419 1_554 S
C443 C444 1.391 1_554 S
C443 C447 1.397 . S
C444 C439 1.391 . S
C444 C443 1.391 1_556 S
C444 C445 1.399 1_556 S
C445 C444 1.399 1_554 S
C445 C446 1.396 . S
C445 C448 1.453 . S
C445 C449 1.684 . S
C446 C427 1.723 . S
C446 C445 1.396 . S
C446 C447 1.394 . S
C447 C443 1.397 . S
C447 C446 1.394 . S
C447 C457 1.723 . S
C448 C445 1.453 . S
C448 H472 0.982 . S
C448 H473 0.979 . S
C448 H474 0.977 . S
C449 C445 1.684 . S
C449 H475 0.979 . S
C449 H476 0.980 . S
C449 H477 0.983 1_554 S
C450 H426 0.948 . S
C450 C451 1.391 . S
C450 C455 1.391 . S
C451 C450 1.391 . S
C451 C452 1.391 . S
C452 H429 0.947 . S
C452 C451 1.391 . S
C452 C453 1.392 . S
C453 H430 0.948 . S
C453 C452 1.392 . S
C453 C454 1.419 . S
C454 C453 1.419 . S
C454 C455 1.391 . S
C454 C458 1.397 . S
C455 C450 1.391 . S
C455 C454 1.391 . S
C455 C456 1.399 . S
C456 C455 1.399 . S
C456 C457 1.396 . S
C456 C459 1.453 . S
C456 C460 1.684 . S
C457 C447 1.723 . S
C457 C456 1.396 . S
C457 C458 1.394 . S
C458 C428 1.723 . S
C458 C454 1.397 . S
C458 C457 1.394 . S
C459 H431 0.982 . S
C459 H435 0.979 . S
C459 H436 0.977 . S
C459 C456 1.453 . S
C460 H432 0.979 . S
C460 H433 0.980 . S
C460 H434 0.983 . S
C460 C456 1.684 . S
H461 C479 0.948 . S
H462 C420 0.948 . S
H463 C438 0.979 . S
H464 C438 0.980 . S
H465 C438 0.983 . S
H466 C437 0.982 . S
H467 C437 0.979 . S
H468 C437 0.977 . S
H469 C439 0.948 . S
H470 C441 0.947 . S
H471 C442 0.943 1_554 S
H472 C448 0.982 . S
H473 C448 0.979 . S
H474 C448 0.977 . S
H475 C449 0.979 . S
H476 C449 0.980 . S
H477 C449 0.983 1_556 S
H478 C422 0.947 . S
C479 C422 1.392 . S
C479 C423 1.419 . S
C479 H461 0.948 . S
C24 C451 4.907 . S
C66 C301 2.157 . S
C93 C361 2.671 . S
C13 C421 4.905 . S
C331 C57 1.641 . S
C391 C104 3.314 . S
C64 C181 2.734 . S
C97 C271 3.017 . S
C17 C151 2.039 . S
C211 C53 3.070 . S
C241 C106 2.202 . S
C26 C121 2.387 . S
C260 C2 1.436 . S
C63 C140 1.325 . S
C82 C200 1.192 . S
C380 C42 1.428 . S
C440 C103 2.128 . S
C23 C320 1.406 1_455 S
