# Generated by pormake.
# Topology anh, (6,3)-cn, num edge types: 1
# Building blocks:
#     Node 0, Type 0, BuildingBlock: INOVEN_clean_sbu_0, # of connection points: 6
#     Node 1, Type 0, BuildingBlock: INOVEN_clean_sbu_0, # of connection points: 6
#     Node 2, Type 0, BuildingBlock: INOVEN_clean_sbu_0, # of connection points: 6
#     Node 3, Type 1, BuildingBlock: ESEHIV_clean_linker_0, # of connection points: 3
#     Node 4, Type 1, BuildingBlock: ESEHIV_clean_linker_0, # of connection points: 3
#     Node 5, Type 1, BuildingBlock: ESEHIV_clean_linker_0, # of connection points: 3
#     Node 6, Type 1, BuildingBlock: ESEHIV_clean_linker_0, # of connection points: 3
#     Node 7, Type 1, BuildingBlock: ESEHIV_clean_linker_0, # of connection points: 3
#     Node 8, Type 1, BuildingBlock: ESEHIV_clean_linker_0, # of connection points: 3
#     Edge 9, Type (0, 1), BuildingBlock: ZUJKAS_clean_linker_0, # of connection points: 2
#     Edge 10, Type (0, 1), BuildingBlock: ZUJKAS_clean_linker_0, # of connection points: 2
#     Edge 11, Type (0, 1), BuildingBlock: ZUJKAS_clean_linker_0, # of connection points: 2
#     Edge 12, Type (0, 1), BuildingBlock: ZUJKAS_clean_linker_0, # of connection points: 2
#     Edge 13, Type (0, 1), BuildingBlock: ZUJKAS_clean_linker_0, # of connection points: 2
#     Edge 14, Type (0, 1), BuildingBlock: ZUJKAS_clean_linker_0, # of connection points: 2
#     Edge 15, Type (0, 1), BuildingBlock: ZUJKAS_clean_linker_0, # of connection points: 2
#     Edge 16, Type (0, 1), BuildingBlock: ZUJKAS_clean_linker_0, # of connection points: 2
#     Edge 17, Type (0, 1), BuildingBlock: ZUJKAS_clean_linker_0, # of connection points: 2
#     Edge 18, Type (0, 1), BuildingBlock: ZUJKAS_clean_linker_0, # of connection points: 2
#     Edge 19, Type (0, 1), BuildingBlock: ZUJKAS_clean_linker_0, # of connection points: 2
#     Edge 20, Type (0, 1), BuildingBlock: ZUJKAS_clean_linker_0, # of connection points: 2
#     Edge 21, Type (0, 1), BuildingBlock: ZUJKAS_clean_linker_0, # of connection points: 2
#     Edge 22, Type (0, 1), BuildingBlock: ZUJKAS_clean_linker_0, # of connection points: 2
#     Edge 23, Type (0, 1), BuildingBlock: ZUJKAS_clean_linker_0, # of connection points: 2
#     Edge 24, Type (0, 1), BuildingBlock: ZUJKAS_clean_linker_0, # of connection points: 2
#     Edge 25, Type (0, 1), BuildingBlock: ZUJKAS_clean_linker_0, # of connection points: 2
#     Edge 26, Type (0, 1), BuildingBlock: ZUJKAS_clean_linker_0, # of connection points: 2
# Relax obj value: 0.178
# Max RMSD: 0.212
# Mean RMSD: 0.157
data_MOF--net-anh--node1-INOVEN_clean_sbu_0--node2-ESEHIV_clean_linker_0--edge1-ZUJKAS_clean_linker_0
_symmetry_space_group_name_H-M    P1
_symmetry_Int_Tables_number       1
_symmetry_cell_setting            triclinic
loop_
_symmetry_equiv_pos_as_xyz
'x, y, z'
_cell_length_a     38.756476
_cell_length_b     44.217197
_cell_length_c     67.993991
_cell_angle_alpha  93.033236
_cell_angle_beta   89.401955
_cell_angle_gamma 128.55404
loop_
_atom_site_label
_atom_site_type_symbol
_atom_site_fract_x
_atom_site_fract_y
_atom_site_fract_z
_atom_type_partial_charge
Gd0 Gd 0.08753 0.49286 0.15718 0.0
Gd1 Gd 0.04518 0.52866 0.15605 0.0
C2 C 0.14915 0.58763 0.15858 0.0
C3 C 0.14099 0.47834 0.15273 0.0
C4 C 0.18817 0.50642 0.15757 0.0
C5 C 0.20349 0.52047 0.17717 0.0
C6 C 0.21784 0.5233 0.14226 0.0
C7 C 0.27861 0.56291 0.16613 0.0
C8 C 0.26256 0.55156 0.14645 0.0
C9 C 0.2484 0.54877 0.18139 0.0
C10 C 0.06084 0.49948 0.19266 0.0
C11 C 0.9838 0.43494 0.15532 0.0
C12 C 1.00425 0.55192 0.17019 0.0
C13 C 0.95744 0.52503 0.17426 0.0
C14 C 0.92679 0.50102 0.15887 0.0
C15 C 0.94404 0.51818 0.19384 0.0
C16 C 0.86854 0.46939 0.18235 0.0
C17 C 0.89983 0.48995 0.1979 0.0
C18 C 0.88272 0.47319 0.1629 0.0
C19 C 0.05191 0.51368 0.11754 0.0
O20 O 0.14728 0.55717 0.1613 0.0
O21 O 0.11334 0.58366 0.15487 0.0
O22 O 0.1148 0.46626 0.16766 0.0
O23 O 0.12773 0.48686 0.13791 0.0
O24 O 0.05656 0.4692 0.18622 0.0
O25 O 0.08022 0.52514 0.1801 0.0
O26 O 0.98663 0.46581 0.16005 0.0
O27 O 1.019 0.43868 0.14993 0.0
O28 O 1.01457 0.55531 0.1516 0.0
O29 O 1.02856 0.54832 0.18133 0.0
O30 O 1.03303 0.52821 0.12367 0.0
O31 O 0.06501 0.50602 0.13209 0.0
H32 H 0.18107 0.50914 0.18931 0.0
H33 H 0.20655 0.51404 0.12702 0.0
H34 H 0.28461 0.56161 0.13421 0.0
H35 H 0.25979 0.5573 0.19665 0.0
H36 H 0.93645 0.50424 0.14364 0.0
H37 H 0.96765 0.53513 0.20597 0.0
H38 H 0.88941 0.48727 0.21298 0.0
H39 H 0.85934 0.45785 0.15056 0.0
Gd40 Gd 0.57629 1.00341 0.47618 0.0
Gd41 Gd 0.52404 0.03015 0.47436 0.0
C42 C 0.46826 0.94033 0.47219 0.0
C43 C 0.60583 0.96623 0.4829 0.0
C44 C 0.58693 0.92513 0.48263 0.0
C45 C 0.60433 0.91181 0.47001 0.0
C46 C 0.55252 0.89917 0.49501 0.0
C47 C 0.55693 0.84848 0.48375 0.0
C48 C 0.53764 0.86119 0.49554 0.0
C49 C 0.58948 0.87388 0.47053 0.0
C50 C 0.56591 0.01777 0.43972 0.0
C51 C 0.63203 0.09357 0.47578 0.0
C52 C 0.49681 0.06908 0.46753 0.0
C53 C 0.51651 0.11041 0.4707 0.0
C54 C 0.5182 0.12614 0.48955 0.0
C55 C 0.53328 0.13446 0.45473 0.0
C56 C 0.55017 0.18811 0.47612 0.0
C57 C 0.54975 0.17297 0.4574 0.0
C58 C 0.53511 0.16472 0.49223 0.0
C59 C 0.53494 0.01674 0.51121 0.0
O60 O 0.50532 0.94794 0.47844 0.0
O61 O 0.46768 0.96803 0.46655 0.0
O62 O 0.60826 0.97949 0.4658 0.0
O63 O 0.59366 0.97902 0.4969 0.0
O64 O 0.6028 0.02765 0.44669 0.0
O65 O 0.53575 0.99998 0.45202 0.0
O66 O 0.59384 0.08491 0.4708 0.0
O67 O 0.63392 0.06663 0.48163 0.0
O68 O 0.48657 0.04948 0.48324 0.0
O69 O 0.5146 0.06082 0.45409 0.0
O70 O 0.49855 0.00782 0.50417 0.0
O71 O 0.56489 0.03368 0.49867 0.0
H72 H 0.63049 0.93117 0.46015 0.0
H73 H 0.53777 0.90836 0.50462 0.0
H74 H 0.51185 0.8421 0.50558 0.0
H75 H 0.60527 0.86522 0.46131 0.0
H76 H 0.50565 0.10852 0.5022 0.0
H77 H 0.53274 0.12326 0.44008 0.0
H78 H 0.56122 0.19067 0.44481 0.0
H79 H 0.53462 0.17581 0.50674 0.0
Gd80 Gd 0.62884 0.58373 0.82708 0.0
Gd81 Gd 0.56934 0.4992 0.82898 0.0
C82 C 0.51908 0.53747 0.83349 0.0
C83 C 0.66302 0.65333 0.8186 0.0
C84 C 0.64654 0.67593 0.81912 0.0
C85 C 0.65177 0.69784 0.83629 0.0
C86 C 0.62557 0.67596 0.80241 0.0
C87 C 0.617 0.72052 0.81971 0.0
C88 C 0.61096 0.69794 0.80271 0.0
C89 C 0.63703 0.71977 0.83659 0.0
C90 C 0.61757 0.55959 0.86284 0.0
C91 C 0.67991 0.54634 0.83068 0.0
C92 C 0.53413 0.42845 0.83569 0.0
C93 C 0.54687 0.4032 0.832 0.0
C94 C 0.53821 0.38345 0.8135 0.0
C95 C 0.56667 0.39765 0.84712 0.0
C96 C 0.56661 0.3519 0.82567 0.0
C97 C 0.57646 0.37218 0.84397 0.0
C98 C 0.54801 0.35807 0.8104 0.0
C99 C 0.57878 0.5234 0.79244 0.0
O100 O 0.55846 0.56907 0.82787 0.0
O101 O 0.51611 0.50646 0.83715 0.0
O102 O 0.66924 0.64483 0.83564 0.0
O103 O 0.64536 0.62457 0.80521 0.0
O104 O 0.65533 0.58972 0.85725 0.0
O105 O 0.58741 0.54559 0.85008 0.0
O106 O 0.63868 0.51339 0.83208 0.0
O107 O 0.68516 0.57845 0.82703 0.0
O108 O 0.52377 0.43806 0.82025 0.0
O109 O 0.55754 0.45718 0.84901 0.0
O110 O 0.5417 0.49468 0.79935 0.0
O111 O 0.61012 0.53759 0.80488 0.0
H112 H 0.66763 0.69838 0.84947 0.0
H113 H 0.62103 0.65947 0.78895 0.0
H114 H 0.59634 0.69826 0.78932 0.0
H115 H 0.64172 0.73645 0.85 0.0
H116 H 0.52299 0.38692 0.80151 0.0
H117 H 0.57373 0.41235 0.86153 0.0
H118 H 0.59048 0.36745 0.85597 0.0
H119 H 0.53986 0.34234 0.79622 0.0
H120 H 0.50443 0.96651 0.22797 0.0
H121 H 0.61886 0.08602 0.22675 0.0
H122 H 0.56059 0.01586 0.17246 0.0
C123 C 0.52962 0.99108 0.21977 0.0
C124 C 0.52911 0.98638 0.19918 0.0
C125 C 0.56216 0.02644 0.22995 0.0
C126 C 0.59312 0.05852 0.21911 0.0
C127 C 0.59242 0.0553 0.19842 0.0
C128 C 0.56049 0.01891 0.18837 0.0
H129 H 0.57833 0.58475 0.58172 0.0
H130 H 0.5773 0.48733 0.57997 0.0
H131 H 0.56446 0.52605 0.52592 0.0
C132 C 0.5755 0.56195 0.5731 0.0
C133 C 0.5708 0.5589 0.5524 0.0
C134 C 0.57693 0.53578 0.58298 0.0
C135 C 0.57572 0.50729 0.57224 0.0
C136 C 0.5721 0.50425 0.55159 0.0
C137 C 0.56859 0.52944 0.54181 0.0
H138 H 1.03786 0.53465 0.90266 0.0
H139 H 0.14891 0.53633 0.90255 0.0
H140 H 0.0979 0.54088 0.8471 0.0
C141 C 0.06264 0.53621 0.89414 0.0
C142 C 0.06324 0.5397 0.87351 0.0
C143 C 0.09321 0.53525 0.9045 0.0
C144 C 0.12555 0.53648 0.89405 0.0
C145 C 0.12831 0.53702 0.87325 0.0
C146 C 0.09662 0.53936 0.86295 0.0
H147 H 0.97389 0.45434 0.40673 0.0
H148 H 0.09598 0.56873 0.40534 0.0
H149 H 0.04283 0.51878 0.46137 0.0
C150 C 1.00133 0.48063 0.41464 0.0
C151 C 1.00334 0.48299 0.43538 0.0
C152 C 1.03521 0.51108 0.4039 0.0
C153 C 0.07105 0.54481 0.41395 0.0
C154 C 0.07495 0.54832 0.43468 0.0
C155 C 0.0406 0.51695 0.44543 0.0
H156 H 0.55973 0.06017 0.72418 0.0
H157 H 0.56368 0.96507 0.723 0.0
H158 H 0.56234 0.01619 0.77852 0.0
C159 C 0.56009 0.0395 0.73188 0.0
C160 C 0.56102 0.04127 0.75255 0.0
C161 C 0.56069 0.01188 0.72112 0.0
C162 C 0.56234 0.98593 0.73128 0.0
C163 C 0.56286 0.98713 0.75202 0.0
C164 C 0.56178 0.01477 0.76254 0.0
H165 H 0.45311 0.42458 0.05712 0.0
H166 H 0.58242 0.45582 0.05927 0.0
H167 H 0.51759 0.44442 0.11284 0.0
C168 C 0.4797 0.42903 0.06556 0.0
C169 C 0.48051 0.43285 0.08611 0.0
C170 C 0.51695 0.43849 0.05592 0.0
C171 C 0.5527 0.447 0.06664 0.0
C172 C 0.55184 0.44767 0.08705 0.0
C173 C 0.51578 0.44022 0.09691 0.0
H174 H 0.30539 0.53807 0.19323 0.0
H175 H 0.35635 0.5262 0.18397 0.0
H176 H 0.40468 0.60585 0.13784 0.0
H177 H 0.35447 0.61931 0.14756 0.0
H178 H 0.32715 0.49602 0.14091 0.0
H179 H 0.50878 0.60315 0.15617 0.0
H180 H 0.46952 0.5999 0.17247 0.0
H181 H 0.4789 0.61997 0.14897 0.0
C182 C 0.32911 0.55563 0.18216 0.0
C183 C 0.32419 0.57785 0.17024 0.0
C184 C 0.35801 0.54834 0.17675 0.0
C185 C 0.38289 0.56428 0.15993 0.0
C186 C 0.38522 0.59315 0.15082 0.0
H187 H 0.47086 0.48383 0.07349 0.0
H188 H 0.44448 0.51354 0.09226 0.0
C189 C 0.35667 0.60091 0.15646 0.0
C190 C 0.39526 0.54313 0.14908 0.0
H191 H 0.4825 0.54666 0.13611 0.0
C192 C 0.36105 0.50681 0.13999 0.0
C193 C 0.43943 0.55804 0.14767 0.0
C194 C 0.47651 0.59738 0.15685 0.0
C195 C 0.3702 0.4846 0.12963 0.0
C196 C 0.41431 0.49912 0.12869 0.0
C197 C 0.44859 0.53562 0.13745 0.0
C198 C 0.42577 0.47816 0.1171 0.0
C199 C 0.33325 0.44626 0.11935 0.0
C200 C 0.42215 0.44762 0.12488 0.0
C201 C 0.4367 0.43003 0.11407 0.0
C202 C 0.45459 0.44299 0.0955 0.0
C203 C 0.45593 0.47239 0.0875 0.0
C204 C 0.44167 0.4899 0.09829 0.0
H205 H 0.30089 0.44026 0.12043 0.0
H206 H 0.34059 0.44593 0.10354 0.0
H207 H 0.33072 0.42254 0.12596 0.0
H208 H 0.40963 0.43846 0.13948 0.0
H209 H 0.43603 0.4078 0.12053 0.0
H210 H 0.64043 0.14899 0.45528 0.0
H211 H 0.70591 0.21558 0.45156 0.0
H212 H 0.78186 0.19762 0.48767 0.0
H213 H 0.71615 0.13003 0.49106 0.0
H214 H 0.75384 0.27355 0.47938 0.0
H215 H 0.86185 0.24806 0.44143 0.0
H216 H 0.80337 0.21017 0.44377 0.0
H217 H 0.84078 0.22473 0.46421 0.0
C218 C 0.67101 0.15901 0.46246 0.0
C219 C 0.67285 0.13406 0.47361 0.0
C220 C 0.70858 0.19725 0.46026 0.0
C221 C 0.74914 0.21181 0.46917 0.0
C222 C 0.75126 0.18699 0.48029 0.0
H223 H 1.00794 0.44329 0.46381 0.0
H224 H 0.94673 0.37901 0.47494 0.0
C225 C 0.71358 0.14838 0.48235 0.0
C226 C 0.78831 0.25336 0.46734 0.0
H227 H 0.89379 0.31304 0.45078 0.0
C228 C 0.78449 0.28213 0.47319 0.0
C229 C 0.82839 0.26479 0.45922 0.0
C230 C 0.83391 0.23538 0.45161 0.0
C231 C 0.81936 0.32172 0.47119 0.0
C232 C 0.85934 0.33318 0.4629 0.0
C233 C 0.86346 0.30447 0.45735 0.0
C234 C 0.89591 0.37427 0.45844 0.0
C235 C 0.81288 0.35084 0.47806 0.0
C236 C 0.88784 0.39358 0.44588 0.0
C237 C 0.92254 0.43028 0.43975 0.0
C238 C 0.96648 0.44859 0.44574 0.0
C239 C 0.97448 0.4302 0.45909 0.0
C240 C 0.93953 0.39327 0.46528 0.0
H241 H 0.78784 0.33938 0.48967 0.0
H242 H 0.84423 0.37839 0.48391 0.0
H243 H 0.80075 0.35714 0.46545 0.0
H244 H 0.85487 0.37951 0.44002 0.0
H245 H 0.91524 0.44364 0.42946 0.0
H246 H 0.66379 0.79467 0.83595 0.0
H247 H 0.65087 0.84114 0.83076 0.0
H248 H 0.53341 0.75372 0.7959 0.0
H249 H 0.5448 0.70655 0.80184 0.0
H250 H 0.65249 0.86461 0.79488 0.0
H251 H 0.49156 0.80418 0.82771 0.0
H252 H 0.5227 0.78786 0.83359 0.0
H253 H 0.48855 0.76925 0.81147 0.0
C254 C 0.63436 0.7849 0.82774 0.0
C255 C 0.60554 0.74692 0.81915 0.0
C256 C 0.62722 0.81163 0.82468 0.0
C257 C 0.59107 0.8009 0.81303 0.0
C258 C 0.56109 0.76253 0.80524 0.0
H259 H 0.51785 0.90952 0.74378 0.0
H260 H 0.52585 0.86629 0.7604 0.0
C261 C 0.56803 0.73572 0.8084 0.0
C262 C 0.58759 0.83068 0.80703 0.0
H263 H 0.51607 0.85085 0.80326 0.0
C264 C 0.62297 0.86199 0.79703 0.0
C265 C 0.54902 0.82715 0.8098 0.0
C266 C 0.511 0.7955 0.82141 0.0
C267 C 0.62008 0.88892 0.78899 0.0
C268 C 0.58089 0.88452 0.79112 0.0
C269 C 0.54596 0.85391 0.80158 0.0
C270 C 0.57495 0.9105 0.78179 0.0
C271 C 0.65822 0.921 0.77758 0.0
C272 C 0.5996 0.94948 0.7885 0.0
C273 C 0.5952 0.97425 0.77902 0.0
C274 C 0.56609 0.96042 0.76264 0.0
C275 C 0.54091 0.92113 0.7562 0.0
C276 C 0.5452 0.89637 0.76574 0.0
H277 H 0.68341 0.91692 0.77478 0.0
H278 H 0.64626 0.92272 0.76323 0.0
H279 H 0.67438 0.94912 0.78606 0.0
H280 H 0.62253 0.9608 0.80095 0.0
H281 H 0.61535 1.00443 0.78423 0.0
H282 H 0.85178 0.51418 0.19982 0.0
H283 H 0.79841 0.51838 0.18592 0.0
H284 H 0.73278 0.40646 0.15527 0.0
H285 H 0.78879 0.40307 0.16844 0.0
H286 H 0.76919 0.4668 0.13077 0.0
H287 H 0.6735 0.47684 0.1885 0.0
H288 H 0.73154 0.50656 0.19411 0.0
H289 H 0.6991 0.45469 0.19235 0.0
C290 C 0.82426 0.48899 0.19134 0.0
C291 C 0.8247 0.45853 0.18488 0.0
C292 C 0.79382 0.4917 0.18323 0.0
C293 C 0.76206 0.46287 0.16956 0.0
C294 C 0.75756 0.42905 0.16579 0.0
H295 H 0.55786 0.40149 0.10741 0.0
H296 H 0.62254 0.41935 0.12575 0.0
C297 C 0.78886 0.42672 0.17359 0.0
C298 C 0.73994 0.47178 0.15672 0.0
H299 H 0.67228 0.49598 0.15695 0.0
C300 C 0.74796 0.47317 0.13646 0.0
C301 C 0.71395 0.48158 0.16442 0.0
C302 C 0.70369 0.47958 0.18601 0.0
C303 C 0.72766 0.48144 0.12345 0.0
C304 C 0.69946 0.48869 0.13111 0.0
C305 C 0.69477 0.49092 0.15143 0.0
C306 C 0.66354 0.47969 0.11887 0.0
C307 C 0.73319 0.47923 0.10155 0.0
C308 C 0.6663 0.50814 0.10912 0.0
C309 C 0.62947 0.49779 0.09852 0.0
C310 C 0.59036 0.45932 0.09809 0.0
C311 C 0.58796 0.43121 0.10786 0.0
C312 C 0.62461 0.44133 0.11812 0.0
H313 H 0.76144 0.47945 0.09811 0.0
H314 H 0.70267 0.45209 0.09481 0.0
H315 H 0.73818 0.50387 0.09465 0.0
H316 H 0.6964 0.53787 0.10984 0.0
H317 H 0.63118 0.51957 0.09087 0.0
H318 H 0.40679 0.90267 0.50029 0.0
H319 H 0.33891 0.83477 0.49842 0.0
H320 H 0.3696 0.81979 0.43931 0.0
H321 H 0.43746 0.88747 0.44129 0.0
H322 H 0.26553 0.79518 0.47056 0.0
H323 H 0.35132 0.7312 0.46813 0.0
H324 H 0.37907 0.78137 0.47576 0.0
H325 H 0.36866 0.76597 0.45004 0.0
C326 C 0.39884 0.8847 0.48695 0.0
C327 C 0.42718 0.89992 0.47097 0.0
C328 C 0.36014 0.84604 0.48586 0.0
C329 C 0.34939 0.82195 0.46883 0.0
C330 C 0.37753 0.83754 0.45273 0.0
H331 H 0.15961 0.59088 0.42198 0.0
H332 H 0.22236 0.6561 0.4326 0.0
C333 C 0.41614 0.87616 0.45382 0.0
C334 C 0.3089 0.78054 0.46779 0.0
H335 H 0.27435 0.68828 0.46111 0.0
C336 C 0.26725 0.77165 0.4686 0.0
C337 C 0.31124 0.74991 0.4654 0.0
C338 C 0.35495 0.75743 0.46495 0.0
C339 C 0.2279 0.73317 0.46588 0.0
C340 C 0.23017 0.70236 0.46296 0.0
C341 C 0.27208 0.71147 0.46317 0.0
C342 C 0.19059 0.66124 0.45748 0.0
C343 C 0.18468 0.72645 0.46516 0.0
C344 C 0.15119 0.64098 0.46807 0.0
C345 C 0.11383 0.60351 0.46138 0.0
C346 C 0.11547 0.58517 0.44421 0.0
C347 C 0.15614 0.60438 0.43477 0.0
C348 C 0.19262 0.64186 0.44104 0.0
H349 H 0.18953 0.75346 0.46258 0.0
H350 H 0.16218 0.70427 0.45336 0.0
H351 H 0.16842 0.7162 0.4795 0.0
H352 H 0.14894 0.65424 0.48132 0.0
H353 H 0.08339 0.5896 0.46923 0.0
H354 H 0.50357 0.27617 0.83108 0.0
H355 H 0.50601 0.22285 0.82296 0.0
H356 H 0.64084 0.30481 0.80526 0.0
H357 H 0.63836 0.35837 0.81352 0.0
H358 H 0.52301 0.20907 0.78416 0.0
H359 H 0.64162 0.22938 0.83945 0.0
H360 H 0.61372 0.25001 0.84324 0.0
H361 H 0.65954 0.27183 0.82712 0.0
C362 C 0.53393 0.2827 0.82583 0.0
C363 C 0.57081 0.32105 0.82297 0.0
C364 C 0.53532 0.25237 0.82119 0.0
C365 C 0.57369 0.25991 0.81368 0.0
C366 C 0.61117 0.29845 0.81136 0.0
H367 H 0.62672 0.11846 0.75191 0.0
H368 H 0.63004 0.17079 0.76871 0.0
C369 C 0.60973 0.32892 0.81599 0.0
C370 C 0.5726 0.22714 0.8064 0.0
H371 H 0.61761 0.18205 0.81318 0.0
C372 C 0.54345 0.20299 0.7906 0.0
C373 C 0.59941 0.21941 0.81481 0.0
C374 C 0.63017 0.24377 0.8322 0.0
C375 C 0.54086 0.17164 0.78278 0.0
C376 C 0.56777 0.164 0.79111 0.0
C377 C 0.59688 0.188 0.80694 0.0
C378 C 0.56741 0.13227 0.78275 0.0
C379 C 0.51013 0.14733 0.76535 0.0
C380 C 0.53139 0.0934 0.78543 0.0
C381 C 0.52968 0.06354 0.77601 0.0
C382 C 0.56365 0.07232 0.7636 0.0
C383 C 0.60004 0.11118 0.7613 0.0
C384 C 0.60206 0.14095 0.77093 0.0
H385 H 0.49583 0.16012 0.75902 0.0
H386 H 0.52789 0.14393 0.75364 0.0
H387 H 0.48269 0.11799 0.77002 0.0
H388 H 0.50434 0.08626 0.7945 0.0
H389 H 0.50134 0.03369 0.77795 0.0
H390 H 0.54904 0.79668 0.45595 0.0
H391 H 0.54518 0.74046 0.46215 0.0
H392 H 0.53897 0.75911 0.52451 0.0
H393 H 0.54434 0.81574 0.51866 0.0
H394 H 0.61319 0.75037 0.49132 0.0
H395 H 0.4368 0.6386 0.5087 0.0
H396 H 0.45523 0.67769 0.49303 0.0
H397 H 0.46326 0.68678 0.51927 0.0
C398 C 0.5465 0.78862 0.47097 0.0
C399 C 0.54715 0.81084 0.48682 0.0
C400 C 0.54411 0.75646 0.47444 0.0
C401 C 0.54163 0.74579 0.49375 0.0
C402 C 0.54029 0.76675 0.50948 0.0
H403 H 0.53547 0.59392 0.56575 0.0
H404 H 0.53204 0.63922 0.5493 0.0
C405 C 0.54306 0.79898 0.50607 0.0
C406 C 0.5443 0.71495 0.49798 0.0
H407 H 0.48658 0.62755 0.51832 0.0
C408 C 0.58548 0.72312 0.49693 0.0
C409 C 0.50805 0.67984 0.50535 0.0
C410 C 0.46316 0.66988 0.50657 0.0
C411 C 0.59214 0.69801 0.50432 0.0
C412 C 0.55606 0.66326 0.51237 0.0
C413 C 0.51429 0.65427 0.51231 0.0
C414 C 0.56115 0.63723 0.52241 0.0
C415 C 0.63823 0.71022 0.50452 0.0
C416 C 0.57921 0.62122 0.51291 0.0
C417 C 0.58323 0.59649 0.5227 0.0
C418 C 0.5678 0.58611 0.54197 0.0
C419 C 0.54894 0.60176 0.55121 0.0
C420 C 0.54625 0.62735 0.54165 0.0
H421 H 0.6636 0.74176 0.50265 0.0
H422 H 0.64579 0.70325 0.51849 0.0
H423 H 0.64102 0.69456 0.49213 0.0
H424 H 0.58995 0.62758 0.49789 0.0
H425 H 0.59864 0.58574 0.5151 0.0
H426 H 0.7493 0.58702 0.85949 0.0
H427 H 0.81113 0.58564 0.86532 0.0
H428 H 0.76733 0.50557 0.81504 0.0
H429 H 0.70459 0.50576 0.80973 0.0
H430 H 0.81929 0.52661 0.8737 0.0
H431 H 0.89992 0.58539 0.80306 0.0
H432 H 0.85925 0.58944 0.81266 0.0
H433 H 0.84211 0.54467 0.80066 0.0
C434 C 0.75263 0.56916 0.84947 0.0
C435 C 0.72068 0.54692 0.83383 0.0
C436 C 0.78867 0.56822 0.85293 0.0
C437 C 0.79637 0.54593 0.84062 0.0
C438 C 0.76444 0.52383 0.82494 0.0
H439 H 1.00526 0.50695 0.83852 0.0
H440 H 0.94365 0.50793 0.83038 0.0
C441 C 0.72766 0.52386 0.82185 0.0
C442 C 0.8365 0.54541 0.84421 0.0
H443 H 0.9285 0.56213 0.82239 0.0
C444 C 0.84293 0.5346 0.86232 0.0
C445 C 0.86912 0.5555 0.8299 0.0
C446 C 0.86783 0.56977 0.81052 0.0
C447 C 0.87837 0.53286 0.86614 0.0
C448 C 0.91114 0.54305 0.85184 0.0
C449 C 0.90468 0.55384 0.83372 0.0
C450 C 0.95219 0.54389 0.85585 0.0
C451 C 0.87933 0.51862 0.88562 0.0
C452 C 0.98117 0.56482 0.87244 0.0
C453 C 1.01746 0.56507 0.87685 0.0
C454 C 1.02802 0.54392 0.86532 0.0
C455 C 1.0001 0.52401 0.84815 0.0
C456 C 0.96375 0.52431 0.84351 0.0
H457 H 0.84629 0.50088 0.8923 0.0
H458 H 0.8907 0.50098 0.88395 0.0
H459 H 0.90248 0.54387 0.896 0.0
H460 H 0.97593 0.58158 0.88229 0.0
H461 H 1.03734 0.582 0.88995 0.0
H462 H 0.2238 0.61496 0.18068 0.0
H463 H 0.28956 0.68304 0.18696 0.0
H464 H 0.23522 0.71861 0.14803 0.0
H465 H 0.1695 0.65146 0.14227 0.0
H466 H 0.35095 0.73603 0.16291 0.0
H467 H 0.26576 0.7903 0.19495 0.0
H468 H 0.23876 0.73928 0.1911 0.0
H469 H 0.24326 0.76652 0.17106 0.0
C470 C 0.22612 0.63735 0.1734 0.0
C471 C 0.19135 0.62779 0.16103 0.0
C472 C 0.26356 0.67628 0.17709 0.0
C473 C 0.26698 0.70627 0.16839 0.0
C474 C 0.2329 0.6964 0.1555 0.0
H475 H 0.46631 0.96009 0.16958 0.0
H476 H 0.40364 0.89186 0.16033 0.0
C477 C 0.19546 0.6578 0.15203 0.0
C478 C 0.30678 0.74773 0.17198 0.0
H479 H 0.33991 0.83829 0.18525 0.0
C480 C 0.34849 0.75831 0.16792 0.0
C481 C 0.3038 0.77705 0.17849 0.0
C482 C 0.26053 0.76769 0.18434 0.0
C483 C 0.38698 0.7972 0.16968 0.0
C484 C 0.384 0.82658 0.17595 0.0
C485 C 0.34229 0.81602 0.18012 0.0
C486 C 0.42399 0.8679 0.17972 0.0
C487 C 0.43041 0.8064 0.16442 0.0
C488 C 0.45664 0.87723 0.19337 0.0
C489 C 0.49251 0.91579 0.19831 0.0
C490 C 0.4964 0.94634 0.1901 0.0
C491 C 0.46459 0.93723 0.17592 0.0
C492 C 0.42854 0.89828 0.17083 0.0
H493 H 0.42557 0.78378 0.15397 0.0
H494 H 0.45272 0.83486 0.15776 0.0
H495 H 0.44684 0.80738 0.17799 0.0
H496 H 0.45356 0.85467 0.20086 0.0
H497 H 0.51629 0.92185 0.20939 0.0
H498 H 0.61592 0.25099 0.49909 0.0
H499 H 0.62485 0.31048 0.5072 0.0
H500 H 0.51549 0.26931 0.46769 0.0
H501 H 0.50706 0.21035 0.4593 0.0
H502 H 0.62893 0.36865 0.48 0.0
H503 H 0.48404 0.27948 0.52786 0.0
H504 H 0.51684 0.26512 0.52003 0.0
H505 H 0.47848 0.26041 0.50301 0.0
C506 C 0.59463 0.25527 0.49182 0.0
C507 C 0.5609 0.22645 0.47858 0.0
C508 C 0.59976 0.2891 0.4964 0.0
C509 C 0.57067 0.29396 0.48806 0.0
C510 C 0.53832 0.266 0.47415 0.0
H511 H 0.51544 0.45273 0.52177 0.0
H512 H 0.51624 0.4034 0.5039 0.0
C513 C 0.53361 0.23252 0.46936 0.0
C514 C 0.57068 0.32585 0.49555 0.0
H515 H 0.51445 0.34474 0.52567 0.0
C516 C 0.60394 0.36356 0.48994 0.0
C517 C 0.53793 0.31883 0.50851 0.0
C518 C 0.50236 0.27886 0.51538 0.0
C519 C 0.60521 0.39466 0.49706 0.0
C520 C 0.57265 0.3876 0.51014 0.0
C521 C 0.53913 0.34982 0.51551 0.0
C522 C 0.57426 0.4193 0.51953 0.0
C523 C 0.64113 0.43482 0.49059 0.0
C524 C 0.60646 0.44415 0.53421 0.0
C525 C 0.60578 0.47187 0.54453 0.0
C526 C 0.57297 0.47526 0.54026 0.0
C527 C 0.54119 0.45079 0.52526 0.0
C528 C 0.54162 0.42273 0.51507 0.0
H529 H 0.65889 0.43437 0.47778 0.0
H530 H 0.62708 0.44928 0.48661 0.0
H531 H 0.66537 0.45243 0.50295 0.0
H532 H 0.63151 0.44148 0.53799 0.0
H533 H 0.63089 0.49066 0.55589 0.0
H534 H 0.50102 0.58498 0.81816 0.0
H535 H 0.43734 0.58441 0.82263 0.0
H536 H 0.37894 0.48972 0.8604 0.0
H537 H 0.44183 0.48953 0.8555 0.0
H538 H 0.34349 0.53064 0.8148 0.0
H539 H 0.36722 0.56091 0.8954 0.0
H540 H 0.40961 0.56787 0.88 0.0
H541 H 0.36418 0.52011 0.88688 0.0
C542 C 0.47483 0.56382 0.82747 0.0
C543 C 0.47841 0.53736 0.83638 0.0
C544 C 0.43751 0.56344 0.83005 0.0
C545 C 0.40149 0.53737 0.84221 0.0
C546 C 0.40515 0.51097 0.85114 0.0
H547 H 0.15181 0.49196 0.8847 0.0
H548 H 0.21474 0.49413 0.87712 0.0
C549 C 0.44191 0.51073 0.84819 0.0
C550 C 0.36106 0.53775 0.84553 0.0
H551 H 0.30124 0.54427 0.88166 0.0
C552 C 0.3349 0.53395 0.82954 0.0
C553 C 0.34751 0.54184 0.86453 0.0
C554 C 0.37365 0.54828 0.88273 0.0
C555 C 0.29701 0.53307 0.83191 0.0
C556 C 0.28346 0.53717 0.85094 0.0
C557 C 0.30982 0.54112 0.86689 0.0
C558 C 0.24191 0.53587 0.85481 0.0
C559 C 0.27048 0.52596 0.81373 0.0
C560 C 0.23259 0.55815 0.84506 0.0
C561 C 0.19549 0.55754 0.8498 0.0
C562 C 0.1648 0.53435 0.86454 0.0
C563 C 0.17363 0.51117 0.87355 0.0
C564 C 0.21067 0.51229 0.86911 0.0
H565 H 0.27655 0.51274 0.80123 0.0
H566 H 0.2346 0.50659 0.81661 0.0
H567 H 0.28006 0.55397 0.80923 0.0
H568 H 0.25501 0.57742 0.83408 0.0
H569 H 0.19198 0.57653 0.84232 0.0
H570 H 0.90155 0.41395 0.16242 0.0
H571 H 0.83353 0.34942 0.16898 0.0
H572 H 0.90278 0.30238 0.16225 0.0
H573 H 0.97064 0.36647 0.15558 0.0
H574 H 0.78846 0.27979 0.14425 0.0
H575 H 0.84173 0.26357 0.21561 0.0
H576 H 0.86954 0.30988 0.20502 0.0
H577 H 0.87997 0.27729 0.19621 0.0
C578 C 0.90229 0.38985 0.16221 0.0
C579 C 0.94163 0.39549 0.15822 0.0
C580 C 0.86335 0.35296 0.16604 0.0
C581 C 0.86304 0.32101 0.16633 0.0
C582 C 0.90223 0.32658 0.16237 0.0
H583 H 0.66817 0.07358 0.18301 0.0
H584 H 0.73321 0.138 0.17385 0.0
C585 C 0.94098 0.36328 0.15834 0.0
C586 C 0.82154 0.28156 0.17002 0.0
H587 H 0.77589 0.20683 0.20054 0.0
C588 C 0.78561 0.26394 0.15663 0.0
C589 C 0.81769 0.26082 0.1862 0.0
C590 C 0.85407 0.2789 0.20171 0.0
C591 C 0.74656 0.2259 0.15866 0.0
C592 C 0.74301 0.20491 0.17462 0.0
C593 C 0.77874 0.22269 0.18816 0.0
C594 C 0.70212 0.16487 0.17788 0.0
C595 C 0.70969 0.20805 0.14345 0.0
C596 C 0.66271 0.15828 0.18281 0.0
C597 C 0.62566 0.12155 0.18799 0.0
C598 C 0.62705 0.09055 0.18815 0.0
C599 C 0.66586 0.09671 0.18248 0.0
C600 C 0.70313 0.13359 0.17747 0.0
H601 H 0.72101 0.22453 0.12991 0.0
H602 H 0.69552 0.17761 0.13935 0.0
H603 H 0.68301 0.20787 0.14971 0.0
H604 H 0.66125 0.18198 0.18357 0.0
H605 H 0.59654 0.11779 0.19283 0.0
H606 H 0.98966 0.47219 0.08817 0.0
H607 H 1.00039 0.47435 0.05254 0.0
H608 H 0.14145 0.55376 0.0629 0.0
H609 H 0.13042 0.5496 0.09862 0.0
H610 H 1.03308 0.53183 0.03064 0.0
H611 H 0.1388 0.48815 0.02017 0.0
H612 H 0.11133 0.48199 0.04294 0.0
H613 H 0.16183 0.52859 0.03763 0.0
C614 C 1.02297 0.48908 0.08281 0.0
C615 C 0.05914 0.50991 0.09623 0.0
C616 C 1.02918 0.49065 0.06237 0.0
C617 C 0.07183 0.51387 0.05462 0.0
C618 C 0.10815 0.53452 0.06814 0.0
H619 H 0.16135 0.57648 0.9325 0.0
H620 H 0.1573 0.57224 0.96842 0.0
C621 C 0.10187 0.5322 0.08867 0.0
C622 C 0.07753 0.51834 0.03262 0.0
H623 H 0.12896 0.51319 0.99262 0.0
C624 C 0.05388 0.52743 0.02241 0.0
C625 C 0.1051 0.51327 0.02155 0.0
C626 C 0.1304 0.50212 0.03108 0.0
C627 C 0.05685 0.53152 0.00185 0.0
C628 C 0.08374 0.5258 0.99074 0.0
C629 C 0.10813 0.51746 0.00093 0.0
C630 C 0.08641 0.52787 0.9686 0.0
C631 C 1.03172 0.54286 0.9923 0.0
C632 C 0.04817 0.50404 0.95637 0.0
C633 C 0.05039 0.50653 0.93577 0.0
C634 C 0.09103 0.5326 0.92664 0.0
C635 C 0.12945 0.55588 0.93887 0.0
C636 C 0.12716 0.55352 0.95951 0.0
H637 H 1.02364 0.55712 0.00318 0.0
H638 H 0.05083 0.56281 0.98038 0.0
H639 H 1.00018 0.51646 0.9858 0.0
H640 H 1.01637 0.48316 0.96274 0.0
H641 H 1.02017 0.48754 0.92694 0.0
H642 H 0.61177 0.08243 0.41949 0.0
H643 H 0.60728 0.08679 0.38395 0.0
H644 H 0.50389 0.96299 0.37763 0.0
H645 H 0.50645 0.95924 0.41339 0.0
H646 H 0.62648 0.05711 0.35642 0.0
H647 H 0.45256 0.99574 0.34296 0.0
H648 H 0.47708 0.009 0.36745 0.0
H649 H 0.45687 0.96332 0.35524 0.0
C650 C 0.58735 0.05642 0.41048 0.0
C651 C 0.55913 0.02061 0.41897 0.0
C652 C 0.58489 0.05884 0.39022 0.0
C653 C 0.55489 0.0253 0.37807 0.0
C654 C 0.52628 0.98946 0.38669 0.0
H655 H 0.54537 0.97142 0.25424 0.0
H656 H 0.54434 0.97335 0.29011 0.0
C657 C 0.52788 0.98724 0.40708 0.0
C658 C 0.55643 0.02759 0.35632 0.0
H659 H 0.49306 1.0016 0.3146 0.0
C660 C 0.59734 0.04541 0.34735 0.0
C661 C 0.5184 0.01217 0.34439 0.0
C662 C 0.47387 0.99434 0.35303 0.0
C663 C 0.60107 0.04763 0.32685 0.0
C664 C 0.56298 0.03154 0.31504 0.0
C665 C 0.52216 0.01395 0.32385 0.0
C666 C 0.56463 0.0313 0.29337 0.0
C667 C 0.64541 0.06645 0.31779 0.0
C668 C 0.5766 0.06346 0.28345 0.0
C669 C 0.57634 0.06226 0.26284 0.0
C670 C 0.5643 0.02888 0.25189 0.0
C671 C 0.55357 0.9972 0.26209 0.0
C672 C 0.55334 0.99829 0.28261 0.0
H673 H 0.67168 0.0763 0.32899 0.0
H674 H 0.6433 0.04573 0.30687 0.0
H675 H 0.65494 0.0918 0.30979 0.0
H676 H 0.58551 0.08921 0.29166 0.0
H677 H 0.58458 0.08709 0.25553 0.0
H678 H 0.51282 0.50057 0.76675 0.0
H679 H 0.51752 0.5101 0.7315 0.0
H680 H 0.65909 0.57827 0.73583 0.0
H681 H 0.65454 0.56866 0.77138 0.0
H682 H 0.56368 0.57676 0.70919 0.0
H683 H 0.61809 0.48731 0.69536 0.0
H684 H 0.59525 0.48843 0.71839 0.0
H685 H 0.6514 0.52775 0.71302 0.0
C686 C 0.54504 0.51785 0.76024 0.0
C687 C 0.58329 0.53336 0.7717 0.0
C688 C 0.54765 0.52339 0.74011 0.0
C689 C 0.58853 0.5443 0.731 0.0
C690 C 0.62714 0.5615 0.74257 0.0
H691 H 0.65059 0.57715 0.6066 0.0
H692 H 0.65439 0.58135 0.64285 0.0
C693 C 0.62456 0.55614 0.76283 0.0
C694 C 0.58994 0.54585 0.70926 0.0
H695 H 0.61181 0.51396 0.66781 0.0
C696 C 0.57445 0.56327 0.70013 0.0
C697 C 0.60332 0.52763 0.69749 0.0
C698 C 0.61761 0.50639 0.70647 0.0
C699 C 0.57241 0.56323 0.67951 0.0
C700 C 0.58599 0.54516 0.6678 0.0
C701 C 0.60173 0.528 0.6769 0.0
C702 C 0.58356 0.54322 0.64602 0.0
C703 C 0.55593 0.58258 0.67033 0.0
C704 C 0.54248 0.52006 0.63592 0.0
C705 C 0.54036 0.51755 0.61533 0.0
C706 C 0.57927 0.5381 0.60464 0.0
C707 C 0.62031 0.56111 0.61469 0.0
C708 C 0.62244 0.56353 0.63528 0.0
H709 H 0.55426 0.60114 0.6813 0.0
H710 H 0.57763 0.60057 0.65827 0.0
H711 H 0.52231 0.56006 0.66385 0.0
H712 H 0.51214 0.50372 0.64397 0.0
H713 H 0.50843 0.49957 0.60773 0.0
H714 H 0.60962 0.03666 0.53026 0.0
H715 H 0.61906 0.03312 0.56564 0.0
H716 H 0.48498 0.98873 0.57487 0.0
H717 H 0.47513 0.99128 0.53986 0.0
H718 H 0.61184 0.07005 0.5977 0.0
H719 H 0.48761 0.91141 0.60229 0.0
H720 H 0.50831 0.93382 0.5791 0.0
H721 H 0.46499 0.93152 0.59094 0.0
C722 C 0.58215 0.02584 0.53987 0.0
C723 C 0.5416 0.01414 0.53229 0.0
C724 C 0.58756 0.02386 0.56005 0.0
C725 C 0.55244 0.00997 0.57289 0.0
C726 C 0.51217 0.99854 0.56524 0.0
H727 H 0.50345 0.00835 0.69619 0.0
H728 H 0.50449 0.00795 0.66004 0.0
C729 C 0.5067 1.0003 0.5452 0.0
C730 C 0.55781 0.00885 0.59442 0.0
H731 H 0.50901 0.94967 0.63285 0.0
C732 C 0.58988 0.04361 0.60534 0.0
C733 C 0.52917 0.97432 0.60445 0.0
C734 C 0.4959 0.9356 0.59355 0.0
C735 C 0.59263 0.04501 0.62603 0.0
C736 C 0.56269 0.01084 0.636 0.0
C737 C 0.53163 0.9759 0.62512 0.0
C738 C 0.5623 0.01102 0.6578 0.0
C739 C 0.62639 0.08318 0.63725 0.0
C740 C 0.59418 0.01244 0.66841 0.0
C741 C 0.59332 0.0122 0.68899 0.0
C742 C 0.56085 0.01097 0.69928 0.0
C743 C 0.52898 0.00956 0.6886 0.0
C744 C 0.5295 0.00927 0.66801 0.0
H745 H 0.645 0.10772 0.62743 0.0
H746 H 0.60993 0.08904 0.6485 0.0
H747 H 0.65017 0.08168 0.64514 0.0
H748 H 0.61965 0.01368 0.66075 0.0
H749 H 0.61845 0.0136 0.6969 0.0
H750 H 0.57642 0.57498 0.88793 0.0
H751 H 0.55903 0.55606 0.92206 0.0
H752 H 0.61761 0.4991 0.91533 0.0
H753 H 0.63645 0.51937 0.88136 0.0
H754 H 0.50837 0.48144 0.93549 0.0
H755 H 0.68244 0.57554 0.96372 0.0
H756 H 0.66647 0.58141 0.94025 0.0
H757 H 0.67121 0.54387 0.94274 0.0
C758 C 0.5859 0.55884 0.89401 0.0
C759 C 0.60849 0.54917 0.88281 0.0
C760 C 0.57585 0.54796 0.91322 0.0
C761 C 0.58801 0.52707 0.92098 0.0
C762 C 0.60925 0.51618 0.90947 0.0
H763 H 0.54345 0.4155 0.02577 0.0
H764 H 0.56339 0.44156 0.99297 0.0
C765 C 0.61994 0.52764 0.89033 0.0
C766 C 0.57852 0.51677 0.94127 0.0
H767 H 0.62748 0.52964 0.98542 0.0
C768 C 0.53424 0.49207 0.9465 0.0
C769 C 0.61285 0.53151 0.95532 0.0
C770 C 0.66094 0.55986 0.95032 0.0
C771 C 0.52316 0.48045 0.96566 0.0
C772 C 0.55742 0.49398 0.97948 0.0
C773 C 0.60171 0.51944 0.97443 0.0
C774 C 0.54742 0.48005 -0.00094 0.0
C775 C 0.47518 0.45324 0.971 0.0
C776 C 0.5322 0.49362 0.01274 0.0
C777 C 0.52037 0.47857 0.03112 0.0
C778 C 0.52383 0.44997 0.03579 0.0
C779 C 0.5397 0.43687 0.02209 0.0
C780 C 0.55144 0.45191 0.00366 0.0
H781 H 0.45262 0.44209 0.9579 0.0
H782 H 0.4681 0.42829 0.97853 0.0
H783 H 0.46796 0.46873 0.98142 0.0
H784 H 0.52957 0.51574 0.00918 0.0
H785 H 0.50982 0.49007 0.04187 0.0
H786 H 0.99648 0.49512 0.21256 0.0
H787 H 0.99047 0.49936 0.24853 0.0
H788 H 0.11517 0.52215 0.25663 0.0
H789 H 0.12133 0.51843 0.22078 0.0
H790 H 0.98759 0.45227 0.2755 0.0
H791 H 0.13074 0.60603 0.29337 0.0
H792 H 0.10803 0.58766 0.26862 0.0
H793 H 0.14447 0.57997 0.27884 0.0
C794 C 1.0231 0.50215 0.22207 0.0
C795 C 0.05989 0.50744 0.21398 0.0
C796 C 1.0195 0.5042 0.2426 0.0
C797 C 0.05268 0.51165 0.25536 0.0
C798 C 0.08965 0.51731 0.24717 0.0
H799 H 0.09837 0.5209 0.38054 0.0
H800 H 0.09954 0.51861 0.34448 0.0
C801 C 0.09317 0.51517 0.2267 0.0
C802 C 0.04763 0.51123 0.27717 0.0
H803 H 0.09833 0.56529 0.32028 0.0
C804 C 1.01154 0.47712 0.28528 0.0
C805 C 0.079 0.54354 0.29 0.0
C806 C 0.11754 0.5815 0.28229 0.0
C807 C 1.00672 0.47409 0.30582 0.0
C808 C 1.03838 0.50631 0.31861 0.0
C809 C 0.07411 0.54054 0.31049 0.0
C810 C 1.03584 0.50511 0.34047 0.0
C811 C 0.96869 0.43598 0.31365 0.0
C812 C 0.99948 0.49799 0.35029 0.0
C813 C 0.99856 0.49884 0.37092 0.0
C814 C 1.03437 0.50757 0.38207 0.0
C815 C 0.07051 0.5144 0.37225 0.0
C816 C 0.07118 0.51308 0.35168 0.0
H817 H 0.9538 0.41172 0.30225 0.0
H818 H 0.97952 0.4291 0.32655 0.0
H819 H 0.94266 0.43792 0.31847 0.0
H820 H 0.97227 0.49267 0.34203 0.0
H821 H 0.97055 0.49385 0.37818 0.0
loop_
_geom_bond_atom_site_label_1
_geom_bond_atom_site_label_2
_geom_bond_distance
_geom_bond_site_symmetry_2
_ccdc_geom_bond_type
Gd0 C3 2.818 . S
Gd0 O20 2.377 . S
Gd0 O22 2.448 . S
Gd0 O23 2.506 . S
Gd0 O24 2.435 . S
Gd0 O25 2.717 . S
Gd0 O27 2.395 1_455 S
Gd0 O31 2.327 . S
Gd1 C12 2.818 1_455 S
Gd1 O21 2.395 . S
Gd1 O25 2.327 . S
Gd1 O26 2.377 1_455 S
Gd1 O28 2.448 1_455 S
Gd1 O29 2.506 1_455 S
Gd1 O30 2.435 . S
Gd1 O31 2.717 . S
C2 O20 1.240 . S
C2 O21 1.240 . S
C3 Gd0 2.818 . S
C3 C4 1.510 . S
C3 O22 1.249 . S
C3 O23 1.252 . S
C4 C3 1.510 . S
C4 C5 1.404 . S
C4 C6 1.352 . S
C5 C4 1.404 . S
C5 C9 1.389 . S
C5 H32 0.930 . S
C6 C4 1.352 . S
C6 C8 1.374 . S
C6 H33 0.931 . S
C7 C8 1.359 . S
C7 C9 1.364 . S
C8 C6 1.374 . S
C8 C7 1.359 . S
C8 H34 0.931 . S
C9 C5 1.389 . S
C9 C7 1.364 . S
C9 H35 0.931 . S
C10 O24 1.256 . S
C10 O25 1.257 . S
C11 O26 1.240 . S
C11 O27 1.240 . S
C12 Gd1 2.818 1_655 S
C12 C13 1.510 . S
C12 O28 1.249 . S
C12 O29 1.252 . S
C13 C12 1.510 . S
C13 C14 1.404 . S
C13 C15 1.352 . S
C14 C13 1.404 . S
C14 C18 1.389 . S
C14 H36 0.930 . S
C15 C13 1.352 . S
C15 C17 1.374 . S
C15 H37 0.931 . S
C16 C17 1.359 . S
C16 C18 1.364 . S
C17 C15 1.374 . S
C17 C16 1.359 . S
C17 H38 0.931 . S
C18 C14 1.389 . S
C18 C16 1.364 . S
C18 H39 0.931 . S
C19 O30 1.256 . S
C19 O31 1.257 . S
O20 Gd0 2.377 . S
O20 C2 1.240 . S
O21 Gd1 2.395 . S
O21 C2 1.240 . S
O22 Gd0 2.448 . S
O22 C3 1.249 . S
O23 Gd0 2.506 . S
O23 C3 1.252 . S
O24 Gd0 2.435 . S
O24 C10 1.256 . S
O25 Gd0 2.717 . S
O25 Gd1 2.327 . S
O25 C10 1.257 . S
O26 Gd1 2.377 1_655 S
O26 C11 1.240 . S
O27 Gd0 2.395 1_655 S
O27 C11 1.240 . S
O28 Gd1 2.448 1_655 S
O28 C12 1.249 . S
O29 Gd1 2.506 1_655 S
O29 C12 1.252 . S
O30 Gd1 2.435 . S
O30 C19 1.256 . S
O31 Gd0 2.327 . S
O31 Gd1 2.717 . S
O31 C19 1.257 . S
H32 C5 0.930 . S
H33 C6 0.931 . S
H34 C8 0.931 . S
H35 C9 0.931 . S
H36 C14 0.930 . S
H37 C15 0.931 . S
H38 C17 0.931 . S
H39 C18 0.931 . S
Gd40 C43 2.818 . S
Gd40 O60 2.377 . S
Gd40 O62 2.448 . S
Gd40 O63 2.506 . S
Gd40 O64 2.435 . S
Gd40 O65 2.717 1_565 S
Gd40 O67 2.395 1_565 S
Gd40 O71 2.327 1_565 S
Gd41 C52 2.818 . S
Gd41 O61 2.395 1_545 S
Gd41 O65 2.327 . S
Gd41 O66 2.377 . S
Gd41 O68 2.448 . S
Gd41 O69 2.506 . S
Gd41 O70 2.435 . S
Gd41 O71 2.717 . S
C42 O60 1.240 . S
C42 O61 1.240 . S
C43 Gd40 2.818 . S
C43 C44 1.510 . S
C43 O62 1.249 . S
C43 O63 1.252 . S
C44 C43 1.510 . S
C44 C45 1.404 . S
C44 C46 1.352 . S
C45 C44 1.404 . S
C45 C49 1.389 . S
C45 H72 0.930 . S
C46 C44 1.352 . S
C46 C48 1.374 . S
C46 H73 0.931 . S
C47 C48 1.359 . S
C47 C49 1.364 . S
C48 C46 1.374 . S
C48 C47 1.359 . S
C48 H74 0.931 . S
C49 C45 1.389 . S
C49 C47 1.364 . S
C49 H75 0.931 . S
C50 O64 1.256 1_545 S
C50 O65 1.257 . S
C51 O66 1.240 . S
C51 O67 1.240 . S
C52 Gd41 2.818 . S
C52 C53 1.510 . S
C52 O68 1.249 . S
C52 O69 1.252 . S
C53 C52 1.510 . S
C53 C54 1.404 . S
C53 C55 1.352 . S
C54 C53 1.404 . S
C54 C58 1.389 . S
C54 H76 0.930 . S
C55 C53 1.352 . S
C55 C57 1.374 . S
C55 H77 0.931 . S
C56 C57 1.359 . S
C56 C58 1.364 . S
C57 C55 1.374 . S
C57 C56 1.359 . S
C57 H78 0.931 . S
C58 C54 1.389 . S
C58 C56 1.364 . S
C58 H79 0.931 . S
C59 O70 1.256 . S
C59 O71 1.257 . S
O60 Gd40 2.377 . S
O60 C42 1.240 . S
O61 Gd41 2.395 1_565 S
O61 C42 1.240 . S
O62 Gd40 2.448 . S
O62 C43 1.249 . S
O63 Gd40 2.506 . S
O63 C43 1.252 . S
O64 Gd40 2.435 . S
O64 C50 1.256 1_565 S
O65 Gd40 2.717 1_545 S
O65 Gd41 2.327 . S
O65 C50 1.257 . S
O66 Gd41 2.377 . S
O66 C51 1.240 . S
O67 Gd40 2.395 1_545 S
O67 C51 1.240 . S
O68 Gd41 2.448 . S
O68 C52 1.249 . S
O69 Gd41 2.506 . S
O69 C52 1.252 . S
O70 Gd41 2.435 . S
O70 C59 1.256 . S
O71 Gd40 2.327 1_545 S
O71 Gd41 2.717 . S
O71 C59 1.257 . S
H72 C45 0.930 . S
H73 C46 0.931 . S
H74 C48 0.931 . S
H75 C49 0.931 . S
H76 C54 0.930 . S
H77 C55 0.931 . S
H78 C57 0.931 . S
H79 C58 0.931 . S
Gd80 C83 2.818 . S
Gd80 O100 2.377 . S
Gd80 O102 2.448 . S
Gd80 O103 2.506 . S
Gd80 O104 2.435 . S
Gd80 O105 2.717 . S
Gd80 O107 2.395 . S
Gd80 O111 2.327 . S
Gd81 C92 2.818 . S
Gd81 O101 2.395 . S
Gd81 O105 2.327 . S
Gd81 O106 2.377 . S
Gd81 O108 2.448 . S
Gd81 O109 2.506 . S
Gd81 O110 2.435 . S
Gd81 O111 2.717 . S
C82 O100 1.240 . S
C82 O101 1.240 . S
C83 Gd80 2.818 . S
C83 C84 1.510 . S
C83 O102 1.249 . S
C83 O103 1.252 . S
C84 C83 1.510 . S
C84 C85 1.404 . S
C84 C86 1.352 . S
C85 C84 1.404 . S
C85 C89 1.389 . S
C85 H112 0.930 . S
C86 C84 1.352 . S
C86 C88 1.374 . S
C86 H113 0.931 . S
C87 C88 1.359 . S
C87 C89 1.364 . S
C88 C86 1.374 . S
C88 C87 1.359 . S
C88 H114 0.931 . S
C89 C85 1.389 . S
C89 C87 1.364 . S
C89 H115 0.931 . S
C90 O104 1.256 . S
C90 O105 1.257 . S
C91 O106 1.240 . S
C91 O107 1.240 . S
C92 Gd81 2.818 . S
C92 C93 1.510 . S
C92 O108 1.249 . S
C92 O109 1.252 . S
C93 C92 1.510 . S
C93 C94 1.404 . S
C93 C95 1.352 . S
C94 C93 1.404 . S
C94 C98 1.389 . S
C94 H116 0.930 . S
C95 C93 1.352 . S
C95 C97 1.374 . S
C95 H117 0.931 . S
C96 C97 1.359 . S
C96 C98 1.364 . S
C97 C95 1.374 . S
C97 C96 1.359 . S
C97 H118 0.931 . S
C98 C94 1.389 . S
C98 C96 1.364 . S
C98 H119 0.931 . S
C99 O110 1.256 . S
C99 O111 1.257 . S
O100 Gd80 2.377 . S
O100 C82 1.240 . S
O101 Gd81 2.395 . S
O101 C82 1.240 . S
O102 Gd80 2.448 . S
O102 C83 1.249 . S
O103 Gd80 2.506 . S
O103 C83 1.252 . S
O104 Gd80 2.435 . S
O104 C90 1.256 . S
O105 Gd80 2.717 . S
O105 Gd81 2.327 . S
O105 C90 1.257 . S
O106 Gd81 2.377 . S
O106 C91 1.240 . S
O107 Gd80 2.395 . S
O107 C91 1.240 . S
O108 Gd81 2.448 . S
O108 C92 1.249 . S
O109 Gd81 2.506 . S
O109 C92 1.252 . S
O110 Gd81 2.435 . S
O110 C99 1.256 . S
O111 Gd80 2.327 . S
O111 Gd81 2.717 . S
O111 C99 1.257 . S
H112 C85 0.930 . S
H113 C86 0.931 . S
H114 C88 0.931 . S
H115 C89 0.931 . S
H116 C94 0.930 . S
H117 C95 0.931 . S
H118 C97 0.931 . S
H119 C98 0.931 . S
H120 C123 0.931 . S
H121 C126 0.928 . S
H122 C128 0.930 . S
C123 H120 0.931 . S
C123 C124 1.413 . S
C123 C125 1.360 1_565 S
C124 C123 1.413 . S
C124 C128 1.429 1_565 S
C125 C123 1.360 1_545 S
C125 C126 1.372 . S
C126 H121 0.928 . S
C126 C125 1.372 . S
C126 C127 1.404 . S
C127 C126 1.404 . S
C127 C128 1.391 . S
C128 H122 0.930 . S
C128 C124 1.429 1_545 S
C128 C127 1.391 . S
H129 C132 0.931 . S
H130 C135 0.928 . S
H131 C137 0.930 . S
C132 H129 0.931 . S
C132 C133 1.413 . S
C132 C134 1.360 . S
C133 C132 1.413 . S
C133 C137 1.429 . S
C134 C132 1.360 . S
C134 C135 1.372 . S
C135 H130 0.928 . S
C135 C134 1.372 . S
C135 C136 1.404 . S
C136 C135 1.404 . S
C136 C137 1.391 . S
C137 H131 0.930 . S
C137 C133 1.429 . S
C137 C136 1.391 . S
H138 C141 0.931 . S
H139 C144 0.928 . S
H140 C146 0.930 . S
C141 H138 0.931 . S
C141 C142 1.413 . S
C141 C143 1.360 . S
C142 C141 1.413 . S
C142 C146 1.429 . S
C143 C141 1.360 . S
C143 C144 1.372 . S
C144 H139 0.928 . S
C144 C143 1.372 . S
C144 C145 1.404 . S
C145 C144 1.404 . S
C145 C146 1.391 . S
C146 H140 0.930 . S
C146 C142 1.429 . S
C146 C145 1.391 . S
H147 C150 0.931 . S
H148 C153 0.928 . S
H149 C155 0.930 . S
C150 H147 0.931 . S
C150 C151 1.413 . S
C150 C152 1.360 . S
C151 C150 1.413 . S
C151 C155 1.429 1_655 S
C152 C150 1.360 . S
C152 C153 1.372 1_655 S
C153 H148 0.928 . S
C153 C152 1.372 1_455 S
C153 C154 1.404 . S
C154 C153 1.404 . S
C154 C155 1.391 . S
C155 H149 0.930 . S
C155 C151 1.429 1_455 S
C155 C154 1.391 . S
H156 C159 0.931 . S
H157 C162 0.928 . S
H158 C164 0.930 . S
C159 H156 0.931 . S
C159 C160 1.413 . S
C159 C161 1.392 . S
C160 C159 1.413 . S
C160 C164 1.429 . S
C161 C159 1.392 . S
C161 C162 1.339 1_545 S
C162 H157 0.928 . S
C162 C161 1.339 1_565 S
C162 C163 1.404 . S
C163 C162 1.404 . S
C163 C164 1.391 1_565 S
C164 H158 0.930 . S
C164 C160 1.429 . S
C164 C163 1.391 1_545 S
H165 C168 0.931 . S
H166 C171 0.928 . S
H167 C173 0.930 . S
C168 H165 0.931 . S
C168 C169 1.413 . S
C168 C170 1.360 . S
C169 C168 1.413 . S
C169 C173 1.429 . S
C170 C168 1.360 . S
C170 C171 1.372 . S
C171 H166 0.928 . S
C171 C170 1.372 . S
C171 C172 1.404 . S
C172 C171 1.404 . S
C172 C173 1.391 . S
C173 H167 0.930 . S
C173 C169 1.429 . S
C173 C172 1.391 . S
H174 C182 0.929 . S
H175 C184 0.930 . S
H176 C186 0.930 . S
H177 C189 0.929 . S
H178 C192 0.930 . S
H179 C194 0.960 . S
H180 C194 0.960 . S
H181 C194 0.960 . S
C182 H174 0.929 . S
C182 C183 1.377 . S
C182 C184 1.384 . S
C183 C182 1.377 . S
C183 C189 1.390 . S
C184 H175 0.930 . S
C184 C182 1.384 . S
C184 C185 1.372 . S
C185 C184 1.372 . S
C185 C186 1.400 . S
C185 C190 1.490 . S
C186 H176 0.930 . S
C186 C185 1.400 . S
C186 C189 1.386 . S
H187 C203 0.930 . S
H188 C204 0.931 . S
C189 H177 0.929 . S
C189 C183 1.390 . S
C189 C186 1.386 . S
C190 C185 1.490 . S
C190 C192 1.395 . S
C190 C193 1.403 . S
H191 C197 0.930 . S
C192 H178 0.930 . S
C192 C190 1.395 . S
C192 C195 1.403 . S
C193 C190 1.403 . S
C193 C194 1.524 . S
C193 C197 1.400 . S
C194 H179 0.960 . S
C194 H180 0.960 . S
C194 H181 0.960 . S
C194 C193 1.524 . S
C195 C192 1.403 . S
C195 C196 1.392 . S
C195 C199 1.495 . S
C196 C195 1.392 . S
C196 C197 1.385 . S
C196 C198 1.478 . S
C197 H191 0.930 . S
C197 C193 1.400 . S
C197 C196 1.385 . S
C198 C196 1.478 . S
C198 C200 1.381 . S
C198 C204 1.383 . S
C199 C195 1.495 . S
C199 H205 0.959 . S
C199 H206 0.961 . S
C199 H207 0.960 . S
C200 C198 1.381 . S
C200 C201 1.394 . S
C200 H208 0.930 . S
C201 C200 1.394 . S
C201 C202 1.383 . S
C201 H209 0.929 . S
C202 C201 1.383 . S
C202 C203 1.377 . S
C203 H187 0.930 . S
C203 C202 1.377 . S
C203 C204 1.379 . S
C204 H188 0.931 . S
C204 C198 1.383 . S
C204 C203 1.379 . S
H205 C199 0.959 . S
H206 C199 0.961 . S
H207 C199 0.960 . S
H208 C200 0.930 . S
H209 C201 0.929 . S
H210 C218 0.929 . S
H211 C220 0.930 . S
H212 C222 0.930 . S
H213 C225 0.929 . S
H214 C228 0.930 . S
H215 C230 0.960 . S
H216 C230 0.960 . S
H217 C230 0.960 . S
C218 H210 0.929 . S
C218 C219 1.377 . S
C218 C220 1.384 . S
C219 C218 1.377 . S
C219 C225 1.390 . S
C220 H211 0.930 . S
C220 C218 1.384 . S
C220 C221 1.372 . S
C221 C220 1.372 . S
C221 C222 1.400 . S
C221 C226 1.490 . S
C222 H212 0.930 . S
C222 C221 1.400 . S
C222 C225 1.386 . S
H223 C239 0.930 . S
H224 C240 0.931 . S
C225 H213 0.929 . S
C225 C219 1.390 . S
C225 C222 1.386 . S
C226 C221 1.490 . S
C226 C228 1.395 . S
C226 C229 1.403 . S
H227 C233 0.930 . S
C228 H214 0.930 . S
C228 C226 1.395 . S
C228 C231 1.403 . S
C229 C226 1.403 . S
C229 C230 1.524 . S
C229 C233 1.400 . S
C230 H215 0.960 . S
C230 H216 0.960 . S
C230 H217 0.960 . S
C230 C229 1.524 . S
C231 C228 1.403 . S
C231 C232 1.392 . S
C231 C235 1.495 . S
C232 C231 1.392 . S
C232 C233 1.385 . S
C232 C234 1.478 . S
C233 H227 0.930 . S
C233 C229 1.400 . S
C233 C232 1.385 . S
C234 C232 1.478 . S
C234 C236 1.381 . S
C234 C240 1.383 . S
C235 C231 1.495 . S
C235 H241 0.959 . S
C235 H242 0.961 . S
C235 H243 0.960 . S
C236 C234 1.381 . S
C236 C237 1.394 . S
C236 H244 0.930 . S
C237 C236 1.394 . S
C237 C238 1.383 . S
C237 H245 0.929 . S
C238 C237 1.383 . S
C238 C239 1.377 . S
C239 H223 0.930 . S
C239 C238 1.377 . S
C239 C240 1.379 . S
C240 H224 0.931 . S
C240 C234 1.383 . S
C240 C239 1.379 . S
H241 C235 0.959 . S
H242 C235 0.961 . S
H243 C235 0.960 . S
H244 C236 0.930 . S
H245 C237 0.929 . S
H246 C254 0.929 . S
H247 C256 0.930 . S
H248 C258 0.930 . S
H249 C261 0.929 . S
H250 C264 0.930 . S
H251 C266 0.960 . S
H252 C266 0.960 . S
H253 C266 0.960 . S
C254 H246 0.929 . S
C254 C255 1.377 . S
C254 C256 1.384 . S
C255 C254 1.377 . S
C255 C261 1.390 . S
C256 H247 0.930 . S
C256 C254 1.384 . S
C256 C257 1.372 . S
C257 C256 1.372 . S
C257 C258 1.400 . S
C257 C262 1.490 . S
C258 H248 0.930 . S
C258 C257 1.400 . S
C258 C261 1.386 . S
H259 C275 0.930 . S
H260 C276 0.931 . S
C261 H249 0.929 . S
C261 C255 1.390 . S
C261 C258 1.386 . S
C262 C257 1.490 . S
C262 C264 1.395 . S
C262 C265 1.403 . S
H263 C269 0.930 . S
C264 H250 0.930 . S
C264 C262 1.395 . S
C264 C267 1.403 . S
C265 C262 1.403 . S
C265 C266 1.524 . S
C265 C269 1.400 . S
C266 H251 0.960 . S
C266 H252 0.960 . S
C266 H253 0.960 . S
C266 C265 1.524 . S
C267 C264 1.403 . S
C267 C268 1.392 . S
C267 C271 1.495 . S
C268 C267 1.392 . S
C268 C269 1.385 . S
C268 C270 1.478 . S
C269 H263 0.930 . S
C269 C265 1.400 . S
C269 C268 1.385 . S
C270 C268 1.478 . S
C270 C272 1.381 . S
C270 C276 1.383 . S
C271 C267 1.495 . S
C271 H277 0.959 . S
C271 H278 0.961 . S
C271 H279 0.960 . S
C272 C270 1.381 . S
C272 C273 1.394 . S
C272 H280 0.930 . S
C273 C272 1.394 . S
C273 C274 1.383 . S
C273 H281 0.929 . S
C274 C273 1.383 . S
C274 C275 1.377 . S
C275 H259 0.930 . S
C275 C274 1.377 . S
C275 C276 1.379 . S
C276 H260 0.931 . S
C276 C270 1.383 . S
C276 C275 1.379 . S
H277 C271 0.959 . S
H278 C271 0.961 . S
H279 C271 0.960 . S
H280 C272 0.930 . S
H281 C273 0.929 . S
H282 C290 0.929 . S
H283 C292 0.930 . S
H284 C294 0.930 . S
H285 C297 0.929 . S
H286 C300 0.930 . S
H287 C302 0.960 . S
H288 C302 0.960 . S
H289 C302 0.960 . S
C290 H282 0.929 . S
C290 C291 1.377 . S
C290 C292 1.384 . S
C291 C290 1.377 . S
C291 C297 1.390 . S
C292 H283 0.930 . S
C292 C290 1.384 . S
C292 C293 1.372 . S
C293 C292 1.372 . S
C293 C294 1.400 . S
C293 C298 1.490 . S
C294 H284 0.930 . S
C294 C293 1.400 . S
C294 C297 1.386 . S
H295 C311 0.930 . S
H296 C312 0.931 . S
C297 H285 0.929 . S
C297 C291 1.390 . S
C297 C294 1.386 . S
C298 C293 1.490 . S
C298 C300 1.395 . S
C298 C301 1.403 . S
H299 C305 0.930 . S
C300 H286 0.930 . S
C300 C298 1.395 . S
C300 C303 1.403 . S
C301 C298 1.403 . S
C301 C302 1.524 . S
C301 C305 1.400 . S
C302 H287 0.960 . S
C302 H288 0.960 . S
C302 H289 0.960 . S
C302 C301 1.524 . S
C303 C300 1.403 . S
C303 C304 1.392 . S
C303 C307 1.495 . S
C304 C303 1.392 . S
C304 C305 1.385 . S
C304 C306 1.478 . S
C305 H299 0.930 . S
C305 C301 1.400 . S
C305 C304 1.385 . S
C306 C304 1.478 . S
C306 C308 1.381 . S
C306 C312 1.383 . S
C307 C303 1.495 . S
C307 H313 0.959 . S
C307 H314 0.961 . S
C307 H315 0.960 . S
C308 C306 1.381 . S
C308 C309 1.394 . S
C308 H316 0.930 . S
C309 C308 1.394 . S
C309 C310 1.383 . S
C309 H317 0.929 . S
C310 C309 1.383 . S
C310 C311 1.377 . S
C311 H295 0.930 . S
C311 C310 1.377 . S
C311 C312 1.379 . S
C312 H296 0.931 . S
C312 C306 1.383 . S
C312 C311 1.379 . S
H313 C307 0.959 . S
H314 C307 0.961 . S
H315 C307 0.960 . S
H316 C308 0.930 . S
H317 C309 0.929 . S
H318 C326 0.929 . S
H319 C328 0.930 . S
H320 C330 0.930 . S
H321 C333 0.929 . S
H322 C336 0.930 . S
H323 C338 0.960 . S
H324 C338 0.960 . S
H325 C338 0.960 . S
C326 H318 0.929 . S
C326 C327 1.377 . S
C326 C328 1.384 . S
C327 C326 1.377 . S
C327 C333 1.390 . S
C328 H319 0.930 . S
C328 C326 1.384 . S
C328 C329 1.372 . S
C329 C328 1.372 . S
C329 C330 1.400 . S
C329 C334 1.490 . S
C330 H320 0.930 . S
C330 C329 1.400 . S
C330 C333 1.386 . S
H331 C347 0.930 . S
H332 C348 0.931 . S
C333 H321 0.929 . S
C333 C327 1.390 . S
C333 C330 1.386 . S
C334 C329 1.490 . S
C334 C336 1.395 . S
C334 C337 1.403 . S
H335 C341 0.930 . S
C336 H322 0.930 . S
C336 C334 1.395 . S
C336 C339 1.403 . S
C337 C334 1.403 . S
C337 C338 1.524 . S
C337 C341 1.400 . S
C338 H323 0.960 . S
C338 H324 0.960 . S
C338 H325 0.960 . S
C338 C337 1.524 . S
C339 C336 1.403 . S
C339 C340 1.392 . S
C339 C343 1.495 . S
C340 C339 1.392 . S
C340 C341 1.385 . S
C340 C342 1.478 . S
C341 H335 0.930 . S
C341 C337 1.400 . S
C341 C340 1.385 . S
C342 C340 1.478 . S
C342 C344 1.381 . S
C342 C348 1.383 . S
C343 C339 1.495 . S
C343 H349 0.959 . S
C343 H350 0.961 . S
C343 H351 0.960 . S
C344 C342 1.381 . S
C344 C345 1.394 . S
C344 H352 0.930 . S
C345 C344 1.394 . S
C345 C346 1.383 . S
C345 H353 0.929 . S
C346 C345 1.383 . S
C346 C347 1.377 . S
C347 H331 0.930 . S
C347 C346 1.377 . S
C347 C348 1.379 . S
C348 H332 0.931 . S
C348 C342 1.383 . S
C348 C347 1.379 . S
H349 C343 0.959 . S
H350 C343 0.961 . S
H351 C343 0.960 . S
H352 C344 0.930 . S
H353 C345 0.929 . S
H354 C362 0.929 . S
H355 C364 0.930 . S
H356 C366 0.930 . S
H357 C369 0.929 . S
H358 C372 0.930 . S
H359 C374 0.960 . S
H360 C374 0.960 . S
H361 C374 0.960 . S
C362 H354 0.929 . S
C362 C363 1.377 . S
C362 C364 1.384 . S
C363 C362 1.377 . S
C363 C369 1.390 . S
C364 H355 0.930 . S
C364 C362 1.384 . S
C364 C365 1.372 . S
C365 C364 1.372 . S
C365 C366 1.400 . S
C365 C370 1.490 . S
C366 H356 0.930 . S
C366 C365 1.400 . S
C366 C369 1.386 . S
H367 C383 0.930 . S
H368 C384 0.931 . S
C369 H357 0.929 . S
C369 C363 1.390 . S
C369 C366 1.386 . S
C370 C365 1.490 . S
C370 C372 1.395 . S
C370 C373 1.403 . S
H371 C377 0.930 . S
C372 H358 0.930 . S
C372 C370 1.395 . S
C372 C375 1.403 . S
C373 C370 1.403 . S
C373 C374 1.524 . S
C373 C377 1.400 . S
C374 H359 0.960 . S
C374 H360 0.960 . S
C374 H361 0.960 . S
C374 C373 1.524 . S
C375 C372 1.403 . S
C375 C376 1.392 . S
C375 C379 1.495 . S
C376 C375 1.392 . S
C376 C377 1.385 . S
C376 C378 1.478 . S
C377 H371 0.930 . S
C377 C373 1.400 . S
C377 C376 1.385 . S
C378 C376 1.478 . S
C378 C380 1.381 . S
C378 C384 1.383 . S
C379 C375 1.495 . S
C379 H385 0.959 . S
C379 H386 0.961 . S
C379 H387 0.960 . S
C380 C378 1.381 . S
C380 C381 1.394 . S
C380 H388 0.930 . S
C381 C380 1.394 . S
C381 C382 1.383 . S
C381 H389 0.929 . S
C382 C381 1.383 . S
C382 C383 1.377 . S
C383 H367 0.930 . S
C383 C382 1.377 . S
C383 C384 1.379 . S
C384 H368 0.931 . S
C384 C378 1.383 . S
C384 C383 1.379 . S
H385 C379 0.959 . S
H386 C379 0.961 . S
H387 C379 0.960 . S
H388 C380 0.930 . S
H389 C381 0.929 . S
H390 C398 0.929 . S
H391 C400 0.930 . S
H392 C402 0.930 . S
H393 C405 0.929 . S
H394 C408 0.930 . S
H395 C410 0.960 . S
H396 C410 0.960 . S
H397 C410 0.960 . S
C398 H390 0.929 . S
C398 C399 1.377 . S
C398 C400 1.384 . S
C399 C398 1.377 . S
C399 C405 1.390 . S
C400 H391 0.930 . S
C400 C398 1.384 . S
C400 C401 1.372 . S
C401 C400 1.372 . S
C401 C402 1.400 . S
C401 C406 1.490 . S
C402 H392 0.930 . S
C402 C401 1.400 . S
C402 C405 1.386 . S
H403 C419 0.930 . S
H404 C420 0.931 . S
C405 H393 0.929 . S
C405 C399 1.390 . S
C405 C402 1.386 . S
C406 C401 1.490 . S
C406 C408 1.395 . S
C406 C409 1.403 . S
H407 C413 0.930 . S
C408 H394 0.930 . S
C408 C406 1.395 . S
C408 C411 1.403 . S
C409 C406 1.403 . S
C409 C410 1.524 . S
C409 C413 1.400 . S
C410 H395 0.960 . S
C410 H396 0.960 . S
C410 H397 0.960 . S
C410 C409 1.524 . S
C411 C408 1.403 . S
C411 C412 1.392 . S
C411 C415 1.495 . S
C412 C411 1.392 . S
C412 C413 1.385 . S
C412 C414 1.478 . S
C413 H407 0.930 . S
C413 C409 1.400 . S
C413 C412 1.385 . S
C414 C412 1.478 . S
C414 C416 1.381 . S
C414 C420 1.383 . S
C415 C411 1.495 . S
C415 H421 0.959 . S
C415 H422 0.961 . S
C415 H423 0.960 . S
C416 C414 1.381 . S
C416 C417 1.394 . S
C416 H424 0.930 . S
C417 C416 1.394 . S
C417 C418 1.383 . S
C417 H425 0.929 . S
C418 C417 1.383 . S
C418 C419 1.377 . S
C419 H403 0.930 . S
C419 C418 1.377 . S
C419 C420 1.379 . S
C420 H404 0.931 . S
C420 C414 1.383 . S
C420 C419 1.379 . S
H421 C415 0.959 . S
H422 C415 0.961 . S
H423 C415 0.960 . S
H424 C416 0.930 . S
H425 C417 0.929 . S
H426 C434 0.929 . S
H427 C436 0.930 . S
H428 C438 0.930 . S
H429 C441 0.929 . S
H430 C444 0.930 . S
H431 C446 0.960 . S
H432 C446 0.960 . S
H433 C446 0.960 . S
C434 H426 0.929 . S
C434 C435 1.377 . S
C434 C436 1.384 . S
C435 C434 1.377 . S
C435 C441 1.390 . S
C436 H427 0.930 . S
C436 C434 1.384 . S
C436 C437 1.372 . S
C437 C436 1.372 . S
C437 C438 1.400 . S
C437 C442 1.490 . S
C438 H428 0.930 . S
C438 C437 1.400 . S
C438 C441 1.386 . S
H439 C455 0.930 . S
H440 C456 0.931 . S
C441 H429 0.929 . S
C441 C435 1.390 . S
C441 C438 1.386 . S
C442 C437 1.490 . S
C442 C444 1.395 . S
C442 C445 1.403 . S
H443 C449 0.930 . S
C444 H430 0.930 . S
C444 C442 1.395 . S
C444 C447 1.403 . S
C445 C442 1.403 . S
C445 C446 1.524 . S
C445 C449 1.400 . S
C446 H431 0.960 . S
C446 H432 0.960 . S
C446 H433 0.960 . S
C446 C445 1.524 . S
C447 C444 1.403 . S
C447 C448 1.392 . S
C447 C451 1.495 . S
C448 C447 1.392 . S
C448 C449 1.385 . S
C448 C450 1.478 . S
C449 H443 0.930 . S
C449 C445 1.400 . S
C449 C448 1.385 . S
C450 C448 1.478 . S
C450 C452 1.381 . S
C450 C456 1.383 . S
C451 C447 1.495 . S
C451 H457 0.959 . S
C451 H458 0.961 . S
C451 H459 0.960 . S
C452 C450 1.381 . S
C452 C453 1.394 . S
C452 H460 0.930 . S
C453 C452 1.394 . S
C453 C454 1.383 . S
C453 H461 0.929 . S
C454 C453 1.383 . S
C454 C455 1.377 . S
C455 H439 0.930 . S
C455 C454 1.377 . S
C455 C456 1.379 . S
C456 H440 0.931 . S
C456 C450 1.383 . S
C456 C455 1.379 . S
H457 C451 0.959 . S
H458 C451 0.961 . S
H459 C451 0.960 . S
H460 C452 0.930 . S
H461 C453 0.929 . S
H462 C470 0.929 . S
H463 C472 0.930 . S
H464 C474 0.930 . S
H465 C477 0.929 . S
H466 C480 0.930 . S
H467 C482 0.960 . S
H468 C482 0.960 . S
H469 C482 0.960 . S
C470 H462 0.929 . S
C470 C471 1.377 . S
C470 C472 1.384 . S
C471 C470 1.377 . S
C471 C477 1.390 . S
C472 H463 0.930 . S
C472 C470 1.384 . S
C472 C473 1.372 . S
C473 C472 1.372 . S
C473 C474 1.400 . S
C473 C478 1.490 . S
C474 H464 0.930 . S
C474 C473 1.400 . S
C474 C477 1.386 . S
H475 C491 0.930 . S
H476 C492 0.931 . S
C477 H465 0.929 . S
C477 C471 1.390 . S
C477 C474 1.386 . S
C478 C473 1.490 . S
C478 C480 1.395 . S
C478 C481 1.403 . S
H479 C485 0.930 . S
C480 H466 0.930 . S
C480 C478 1.395 . S
C480 C483 1.403 . S
C481 C478 1.403 . S
C481 C482 1.524 . S
C481 C485 1.400 . S
C482 H467 0.960 . S
C482 H468 0.960 . S
C482 H469 0.960 . S
C482 C481 1.524 . S
C483 C480 1.403 . S
C483 C484 1.392 . S
C483 C487 1.495 . S
C484 C483 1.392 . S
C484 C485 1.385 . S
C484 C486 1.478 . S
C485 H479 0.930 . S
C485 C481 1.400 . S
C485 C484 1.385 . S
C486 C484 1.478 . S
C486 C488 1.381 . S
C486 C492 1.383 . S
C487 C483 1.495 . S
C487 H493 0.959 . S
C487 H494 0.961 . S
C487 H495 0.960 . S
C488 C486 1.381 . S
C488 C489 1.394 . S
C488 H496 0.930 . S
C489 C488 1.394 . S
C489 C490 1.383 . S
C489 H497 0.929 . S
C490 C489 1.383 . S
C490 C491 1.377 . S
C491 H475 0.930 . S
C491 C490 1.377 . S
C491 C492 1.379 . S
C492 H476 0.931 . S
C492 C486 1.383 . S
C492 C491 1.379 . S
H493 C487 0.959 . S
H494 C487 0.961 . S
H495 C487 0.960 . S
H496 C488 0.930 . S
H497 C489 0.929 . S
H498 C506 0.929 . S
H499 C508 0.930 . S
H500 C510 0.930 . S
H501 C513 0.929 . S
H502 C516 0.930 . S
H503 C518 0.960 . S
H504 C518 0.960 . S
H505 C518 0.960 . S
C506 H498 0.929 . S
C506 C507 1.377 . S
C506 C508 1.384 . S
C507 C506 1.377 . S
C507 C513 1.390 . S
C508 H499 0.930 . S
C508 C506 1.384 . S
C508 C509 1.372 . S
C509 C508 1.372 . S
C509 C510 1.400 . S
C509 C514 1.490 . S
C510 H500 0.930 . S
C510 C509 1.400 . S
C510 C513 1.386 . S
H511 C527 0.930 . S
H512 C528 0.931 . S
C513 H501 0.929 . S
C513 C507 1.390 . S
C513 C510 1.386 . S
C514 C509 1.490 . S
C514 C516 1.395 . S
C514 C517 1.403 . S
H515 C521 0.930 . S
C516 H502 0.930 . S
C516 C514 1.395 . S
C516 C519 1.403 . S
C517 C514 1.403 . S
C517 C518 1.524 . S
C517 C521 1.400 . S
C518 H503 0.960 . S
C518 H504 0.960 . S
C518 H505 0.960 . S
C518 C517 1.524 . S
C519 C516 1.403 . S
C519 C520 1.392 . S
C519 C523 1.495 . S
C520 C519 1.392 . S
C520 C521 1.385 . S
C520 C522 1.478 . S
C521 H515 0.930 . S
C521 C517 1.400 . S
C521 C520 1.385 . S
C522 C520 1.478 . S
C522 C524 1.381 . S
C522 C528 1.383 . S
C523 C519 1.495 . S
C523 H529 0.959 . S
C523 H530 0.961 . S
C523 H531 0.960 . S
C524 C522 1.381 . S
C524 C525 1.394 . S
C524 H532 0.930 . S
C525 C524 1.394 . S
C525 C526 1.383 . S
C525 H533 0.929 . S
C526 C525 1.383 . S
C526 C527 1.377 . S
C527 H511 0.930 . S
C527 C526 1.377 . S
C527 C528 1.379 . S
C528 H512 0.931 . S
C528 C522 1.383 . S
C528 C527 1.379 . S
H529 C523 0.959 . S
H530 C523 0.961 . S
H531 C523 0.960 . S
H532 C524 0.930 . S
H533 C525 0.929 . S
H534 C542 0.929 . S
H535 C544 0.930 . S
H536 C546 0.930 . S
H537 C549 0.929 . S
H538 C552 0.930 . S
H539 C554 0.960 . S
H540 C554 0.960 . S
H541 C554 0.960 . S
C542 H534 0.929 . S
C542 C543 1.377 . S
C542 C544 1.384 . S
C543 C542 1.377 . S
C543 C549 1.390 . S
C544 H535 0.930 . S
C544 C542 1.384 . S
C544 C545 1.372 . S
C545 C544 1.372 . S
C545 C546 1.400 . S
C545 C550 1.490 . S
C546 H536 0.930 . S
C546 C545 1.400 . S
C546 C549 1.386 . S
H547 C563 0.930 . S
H548 C564 0.931 . S
C549 H537 0.929 . S
C549 C543 1.390 . S
C549 C546 1.386 . S
C550 C545 1.490 . S
C550 C552 1.395 . S
C550 C553 1.403 . S
H551 C557 0.930 . S
C552 H538 0.930 . S
C552 C550 1.395 . S
C552 C555 1.403 . S
C553 C550 1.403 . S
C553 C554 1.524 . S
C553 C557 1.400 . S
C554 H539 0.960 . S
C554 H540 0.960 . S
C554 H541 0.960 . S
C554 C553 1.524 . S
C555 C552 1.403 . S
C555 C556 1.392 . S
C555 C559 1.495 . S
C556 C555 1.392 . S
C556 C557 1.385 . S
C556 C558 1.478 . S
C557 H551 0.930 . S
C557 C553 1.400 . S
C557 C556 1.385 . S
C558 C556 1.478 . S
C558 C560 1.381 . S
C558 C564 1.383 . S
C559 C555 1.495 . S
C559 H565 0.959 . S
C559 H566 0.961 . S
C559 H567 0.960 . S
C560 C558 1.381 . S
C560 C561 1.394 . S
C560 H568 0.930 . S
C561 C560 1.394 . S
C561 C562 1.383 . S
C561 H569 0.929 . S
C562 C561 1.383 . S
C562 C563 1.377 . S
C563 H547 0.930 . S
C563 C562 1.377 . S
C563 C564 1.379 . S
C564 H548 0.931 . S
C564 C558 1.383 . S
C564 C563 1.379 . S
H565 C559 0.959 . S
H566 C559 0.961 . S
H567 C559 0.960 . S
H568 C560 0.930 . S
H569 C561 0.929 . S
H570 C578 0.929 . S
H571 C580 0.930 . S
H572 C582 0.930 . S
H573 C585 0.929 . S
H574 C588 0.930 . S
H575 C590 0.960 . S
H576 C590 0.960 . S
H577 C590 0.960 . S
C578 H570 0.929 . S
C578 C579 1.377 . S
C578 C580 1.384 . S
C579 C578 1.377 . S
C579 C585 1.390 . S
C580 H571 0.930 . S
C580 C578 1.384 . S
C580 C581 1.372 . S
C581 C580 1.372 . S
C581 C582 1.400 . S
C581 C586 1.490 . S
C582 H572 0.930 . S
C582 C581 1.400 . S
C582 C585 1.386 . S
H583 C599 0.930 . S
H584 C600 0.931 . S
C585 H573 0.929 . S
C585 C579 1.390 . S
C585 C582 1.386 . S
C586 C581 1.490 . S
C586 C588 1.395 . S
C586 C589 1.403 . S
H587 C593 0.930 . S
C588 H574 0.930 . S
C588 C586 1.395 . S
C588 C591 1.403 . S
C589 C586 1.403 . S
C589 C590 1.524 . S
C589 C593 1.400 . S
C590 H575 0.960 . S
C590 H576 0.960 . S
C590 H577 0.960 . S
C590 C589 1.524 . S
C591 C588 1.403 . S
C591 C592 1.392 . S
C591 C595 1.495 . S
C592 C591 1.392 . S
C592 C593 1.385 . S
C592 C594 1.478 . S
C593 H587 0.930 . S
C593 C589 1.400 . S
C593 C592 1.385 . S
C594 C592 1.478 . S
C594 C596 1.381 . S
C594 C600 1.383 . S
C595 C591 1.495 . S
C595 H601 0.959 . S
C595 H602 0.961 . S
C595 H603 0.960 . S
C596 C594 1.381 . S
C596 C597 1.394 . S
C596 H604 0.930 . S
C597 C596 1.394 . S
C597 C598 1.383 . S
C597 H605 0.929 . S
C598 C597 1.383 . S
C598 C599 1.377 . S
C599 H583 0.930 . S
C599 C598 1.377 . S
C599 C600 1.379 . S
C600 H584 0.931 . S
C600 C594 1.383 . S
C600 C599 1.379 . S
H601 C595 0.959 . S
H602 C595 0.961 . S
H603 C595 0.960 . S
H604 C596 0.930 . S
H605 C597 0.929 . S
H606 C614 0.930 . S
H607 C616 0.930 1_655 S
H608 C618 0.930 . S
H609 C621 0.929 . S
H610 C624 0.930 . S
H611 C626 0.960 . S
H612 C626 0.960 . S
H613 C626 0.960 . S
C614 H606 0.930 . S
C614 C615 1.377 1_655 S
C614 C616 1.384 1_655 S
C615 C614 1.377 1_455 S
C615 C621 1.390 . S
C616 H607 0.930 1_455 S
C616 C614 1.384 1_455 S
C616 C617 1.372 . S
C617 C616 1.372 . S
C617 C618 1.400 . S
C617 C622 1.490 . S
C618 H608 0.930 . S
C618 C617 1.400 . S
C618 C621 1.386 . S
H619 C635 0.930 . S
H620 C636 0.931 . S
C621 H609 0.929 . S
C621 C615 1.390 . S
C621 C618 1.386 . S
C622 C617 1.490 . S
C622 C624 1.395 . S
C622 C625 1.403 . S
H623 C629 0.930 . S
C624 H610 0.930 . S
C624 C622 1.395 . S
C624 C627 1.403 . S
C625 C622 1.403 . S
C625 C626 1.524 . S
C625 C629 1.400 . S
C626 H611 0.960 . S
C626 H612 0.960 . S
C626 H613 0.960 . S
C626 C625 1.524 . S
C627 C624 1.403 . S
C627 C628 1.419 . S
C627 C631 1.495 1_455 S
C628 C627 1.419 . S
C628 C629 1.408 . S
C628 C630 1.430 1_554 S
C629 H623 0.930 . S
C629 C625 1.400 . S
C629 C628 1.408 . S
C630 C628 1.430 1_556 S
C630 C632 1.381 . S
C630 C636 1.383 . S
C631 C627 1.495 1_655 S
C631 H637 0.959 . S
C631 H638 0.961 1_654 S
C631 H639 0.960 1_554 S
C632 C630 1.381 . S
C632 C633 1.394 . S
C632 H640 0.930 1_455 S
C633 C632 1.394 . S
C633 C634 1.383 . S
C633 H641 0.929 1_455 S
C634 C633 1.383 . S
C634 C635 1.377 . S
C635 H619 0.930 . S
C635 C634 1.377 . S
C635 C636 1.379 . S
C636 H620 0.931 . S
C636 C630 1.383 . S
C636 C635 1.379 . S
H637 C631 0.959 . S
H638 C631 0.961 1_456 S
H639 C631 0.960 1_556 S
H640 C632 0.930 1_655 S
H641 C633 0.929 1_655 S
H642 C650 0.929 . S
H643 C652 0.930 . S
H644 C654 0.930 . S
H645 C657 0.929 . S
H646 C660 0.930 . S
H647 C662 0.960 . S
H648 C662 0.960 1_545 S
H649 C662 0.960 . S
C650 H642 0.929 . S
C650 C651 1.377 . S
C650 C652 1.384 . S
C651 C650 1.377 . S
C651 C657 1.390 1_545 S
C652 H643 0.930 . S
C652 C650 1.384 . S
C652 C653 1.372 . S
C653 C652 1.372 . S
C653 C654 1.400 1_545 S
C653 C658 1.490 . S
C654 H644 0.930 . S
C654 C653 1.400 1_565 S
C654 C657 1.386 . S
H655 C671 0.930 . S
H656 C672 0.931 . S
C657 H645 0.929 . S
C657 C651 1.390 1_565 S
C657 C654 1.386 . S
C658 C653 1.490 . S
C658 C660 1.395 . S
C658 C661 1.403 . S
H659 C665 0.930 1_565 S
C660 H646 0.930 . S
C660 C658 1.395 . S
C660 C663 1.403 . S
C661 C658 1.403 . S
C661 C662 1.524 1_545 S
C661 C665 1.400 . S
C662 H647 0.960 . S
C662 H648 0.960 1_565 S
C662 H649 0.960 . S
C662 C661 1.524 1_565 S
C663 C660 1.403 . S
C663 C664 1.392 . S
C663 C667 1.495 . S
C664 C663 1.392 . S
C664 C665 1.385 . S
C664 C666 1.478 . S
C665 H659 0.930 1_545 S
C665 C661 1.400 . S
C665 C664 1.385 . S
C666 C664 1.478 . S
C666 C668 1.381 . S
C666 C672 1.383 1_545 S
C667 C663 1.495 . S
C667 H673 0.959 . S
C667 H674 0.961 . S
C667 H675 0.960 . S
C668 C666 1.381 . S
C668 C669 1.394 . S
C668 H676 0.930 . S
C669 C668 1.394 . S
C669 C670 1.383 . S
C669 H677 0.929 . S
C670 C669 1.383 . S
C670 C671 1.377 1_545 S
C671 H655 0.930 . S
C671 C670 1.377 1_565 S
C671 C672 1.379 . S
C672 H656 0.931 . S
C672 C666 1.383 1_565 S
C672 C671 1.379 . S
H673 C667 0.959 . S
H674 C667 0.961 . S
H675 C667 0.960 . S
H676 C668 0.930 . S
H677 C669 0.929 . S
H678 C686 0.929 . S
H679 C688 0.930 . S
H680 C690 0.930 . S
H681 C693 0.929 . S
H682 C696 0.930 . S
H683 C698 0.960 . S
H684 C698 0.960 . S
H685 C698 0.960 . S
C686 H678 0.929 . S
C686 C687 1.377 . S
C686 C688 1.384 . S
C687 C686 1.377 . S
C687 C693 1.390 . S
C688 H679 0.930 . S
C688 C686 1.384 . S
C688 C689 1.372 . S
C689 C688 1.372 . S
C689 C690 1.400 . S
C689 C694 1.490 . S
C690 H680 0.930 . S
C690 C689 1.400 . S
C690 C693 1.386 . S
H691 C707 0.930 . S
H692 C708 0.931 . S
C693 H681 0.929 . S
C693 C687 1.390 . S
C693 C690 1.386 . S
C694 C689 1.490 . S
C694 C696 1.395 . S
C694 C697 1.403 . S
H695 C701 0.930 . S
C696 H682 0.930 . S
C696 C694 1.395 . S
C696 C699 1.403 . S
C697 C694 1.403 . S
C697 C698 1.524 . S
C697 C701 1.400 . S
C698 H683 0.960 . S
C698 H684 0.960 . S
C698 H685 0.960 . S
C698 C697 1.524 . S
C699 C696 1.403 . S
C699 C700 1.392 . S
C699 C703 1.495 . S
C700 C699 1.392 . S
C700 C701 1.385 . S
C700 C702 1.478 . S
C701 H695 0.930 . S
C701 C697 1.400 . S
C701 C700 1.385 . S
C702 C700 1.478 . S
C702 C704 1.381 . S
C702 C708 1.383 . S
C703 C699 1.495 . S
C703 H709 0.959 . S
C703 H710 0.961 . S
C703 H711 0.960 . S
C704 C702 1.381 . S
C704 C705 1.394 . S
C704 H712 0.930 . S
C705 C704 1.394 . S
C705 C706 1.383 . S
C705 H713 0.929 . S
C706 C705 1.383 . S
C706 C707 1.377 . S
C707 H691 0.930 . S
C707 C706 1.377 . S
C707 C708 1.379 . S
C708 H692 0.931 . S
C708 C702 1.383 . S
C708 C707 1.379 . S
H709 C703 0.959 . S
H710 C703 0.961 . S
H711 C703 0.960 . S
H712 C704 0.930 . S
H713 C705 0.929 . S
H714 C722 0.929 . S
H715 C724 0.930 . S
H716 C726 0.930 . S
H717 C729 0.929 . S
H718 C732 0.930 . S
H719 C734 0.960 . S
H720 C734 0.960 . S
H721 C734 0.960 . S
C722 H714 0.929 . S
C722 C723 1.377 . S
C722 C724 1.384 . S
C723 C722 1.377 . S
C723 C729 1.390 1_545 S
C724 H715 0.930 . S
C724 C722 1.384 . S
C724 C725 1.372 . S
C725 C724 1.372 . S
C725 C726 1.400 1_545 S
C725 C730 1.490 . S
C726 H716 0.930 . S
C726 C725 1.400 1_565 S
C726 C729 1.386 . S
H727 C743 0.929 . S
H728 C744 0.918 . S
C729 H717 0.929 . S
C729 C723 1.390 1_565 S
C729 C726 1.386 . S
C730 C725 1.490 . S
C730 C732 1.395 . S
C730 C733 1.403 1_545 S
H731 C737 0.930 . S
C732 H718 0.930 . S
C732 C730 1.395 . S
C732 C735 1.403 . S
C733 C730 1.403 1_565 S
C733 C734 1.524 . S
C733 C737 1.400 . S
C734 H719 0.960 . S
C734 H720 0.960 . S
C734 H721 0.960 . S
C734 C733 1.524 . S
C735 C732 1.403 . S
C735 C736 1.392 . S
C735 C739 1.495 . S
C736 C735 1.392 . S
C736 C737 1.385 1_545 S
C736 C738 1.478 . S
C737 H731 0.930 . S
C737 C733 1.400 . S
C737 C736 1.385 1_565 S
C738 C736 1.478 . S
C738 C740 1.381 . S
C738 C744 1.383 . S
C739 C735 1.495 . S
C739 H745 0.959 . S
C739 H746 0.961 . S
C739 H747 0.960 . S
C740 C738 1.381 . S
C740 C741 1.394 . S
C740 H748 0.930 . S
C741 C740 1.394 . S
C741 C742 1.383 . S
C741 H749 0.929 . S
C742 C741 1.383 . S
C742 C743 1.378 1_545 S
C743 H727 0.929 . S
C743 C742 1.378 1_565 S
C743 C744 1.379 1_565 S
C744 H728 0.918 . S
C744 C738 1.383 . S
C744 C743 1.379 1_545 S
H745 C739 0.959 . S
H746 C739 0.961 . S
H747 C739 0.960 . S
H748 C740 0.930 . S
H749 C741 0.929 . S
H750 C758 0.929 . S
H751 C760 0.930 . S
H752 C762 0.930 . S
H753 C765 0.929 . S
H754 C768 0.930 . S
H755 C770 0.960 . S
H756 C770 0.960 . S
H757 C770 0.960 . S
C758 H750 0.929 . S
C758 C759 1.377 . S
C758 C760 1.384 . S
C759 C758 1.377 . S
C759 C765 1.390 . S
C760 H751 0.930 . S
C760 C758 1.384 . S
C760 C761 1.372 . S
C761 C760 1.372 . S
C761 C762 1.400 . S
C761 C766 1.490 . S
C762 H752 0.930 . S
C762 C761 1.400 . S
C762 C765 1.386 . S
H763 C779 0.930 . S
H764 C780 0.931 . S
C765 H753 0.929 . S
C765 C759 1.390 . S
C765 C762 1.386 . S
C766 C761 1.490 . S
C766 C768 1.395 . S
C766 C769 1.403 . S
H767 C773 0.930 . S
C768 H754 0.930 . S
C768 C766 1.395 . S
C768 C771 1.403 . S
C769 C766 1.403 . S
C769 C770 1.524 . S
C769 C773 1.400 . S
C770 H755 0.960 . S
C770 H756 0.960 . S
C770 H757 0.960 . S
C770 C769 1.524 . S
C771 C768 1.403 . S
C771 C772 1.392 . S
C771 C775 1.495 . S
C772 C771 1.392 . S
C772 C773 1.385 . S
C772 C774 1.478 1_556 S
C773 H767 0.930 . S
C773 C769 1.400 . S
C773 C772 1.385 . S
C774 C772 1.478 1_554 S
C774 C776 1.381 . S
C774 C780 1.383 . S
C775 C771 1.495 . S
C775 H781 0.959 . S
C775 H782 0.961 . S
C775 H783 0.960 . S
C776 C774 1.381 . S
C776 C777 1.394 . S
C776 H784 0.930 . S
C777 C776 1.394 . S
C777 C778 1.383 . S
C777 H785 0.929 . S
C778 C777 1.383 . S
C778 C779 1.377 . S
C779 H763 0.930 . S
C779 C778 1.377 . S
C779 C780 1.379 . S
C780 H764 0.931 . S
C780 C774 1.383 . S
C780 C779 1.379 . S
H781 C775 0.959 . S
H782 C775 0.961 . S
H783 C775 0.960 . S
H784 C776 0.930 . S
H785 C777 0.929 . S
H786 C794 0.929 . S
H787 C796 0.930 . S
H788 C798 0.930 . S
H789 C801 0.929 . S
H790 C804 0.930 . S
H791 C806 0.960 . S
H792 C806 0.960 . S
H793 C806 0.960 . S
C794 H786 0.929 . S
C794 C795 1.377 1_655 S
C794 C796 1.384 . S
C795 C794 1.377 1_455 S
C795 C801 1.390 . S
C796 H787 0.930 . S
C796 C794 1.384 . S
C796 C797 1.372 1_655 S
C797 C796 1.372 1_455 S
C797 C798 1.400 . S
C797 C802 1.490 . S
C798 H788 0.930 . S
C798 C797 1.400 . S
C798 C801 1.386 . S
H799 C815 0.930 . S
H800 C816 0.931 . S
C801 H789 0.929 . S
C801 C795 1.390 . S
C801 C798 1.386 . S
C802 C797 1.490 . S
C802 C804 1.395 1_455 S
C802 C805 1.403 . S
H803 C809 0.930 . S
C804 H790 0.930 . S
C804 C802 1.395 1_655 S
C804 C807 1.403 . S
C805 C802 1.403 . S
C805 C806 1.524 . S
C805 C809 1.400 . S
C806 H791 0.960 . S
C806 H792 0.960 . S
C806 H793 0.960 . S
C806 C805 1.524 . S
C807 C804 1.403 . S
C807 C808 1.392 . S
C807 C811 1.495 . S
C808 C807 1.392 . S
C808 C809 1.385 1_655 S
C808 C810 1.478 . S
C809 H803 0.930 . S
C809 C805 1.400 . S
C809 C808 1.385 1_455 S
C810 C808 1.478 . S
C810 C812 1.381 . S
C810 C816 1.383 1_655 S
C811 C807 1.495 . S
C811 H817 0.959 . S
C811 H818 0.961 . S
C811 H819 0.960 . S
C812 C810 1.381 . S
C812 C813 1.394 . S
C812 H820 0.930 . S
C813 C812 1.394 . S
C813 C814 1.383 . S
C813 H821 0.929 . S
C814 C813 1.383 . S
C814 C815 1.377 1_655 S
C815 H799 0.930 . S
C815 C814 1.377 1_455 S
C815 C816 1.379 . S
C816 H800 0.931 . S
C816 C810 1.383 1_455 S
C816 C815 1.379 . S
H817 C811 0.959 . S
H818 C811 0.961 . S
H819 C811 0.960 . S
H820 C812 0.930 . S
H821 C813 0.929 . S
C183 C7 0.547 . S
C202 C169 0.518 . S
C219 C51 1.760 . S
C238 C151 1.745 . S
C255 C87 1.176 . S
C274 C163 1.181 . S
C291 C16 0.417 . S
C310 C172 0.285 . S
C346 C154 1.800 . S
C327 C42 1.815 . S
C382 C160 1.300 . S
C363 C96 1.297 . S
C399 C47 1.167 . S
C418 C133 1.183 . S
C435 C91 2.950 . S
C454 C142 2.905 1_655 S
C471 C2 1.854 . S
C490 C124 1.860 . S
C526 C136 1.281 . S
C507 C56 1.256 . S
C562 C145 2.807 . S
C543 C82 2.806 . S
C579 C11 1.739 . S
C598 C127 1.730 . S
C634 C143 1.770 . S
C615 C19 1.709 . S
C651 C50 1.339 . S
C670 C125 1.376 . S
C687 C99 1.453 . S
C706 C134 1.513 . S
C742 C161 1.485 . S
C723 C59 1.448 . S
C778 C170 1.112 . S
C759 C90 1.085 . S
C795 C10 1.336 . S
C814 C152 1.368 . S
