# Generated by pormake.
# Topology anh, (6,3)-cn, num edge types: 1
# Building blocks:
#     Node 0, Type 0, BuildingBlock: PAMTOO_clean_sbu_0, # of connection points: 6
#     Node 1, Type 0, BuildingBlock: PAMTOO_clean_sbu_0, # of connection points: 6
#     Node 2, Type 0, BuildingBlock: PAMTOO_clean_sbu_0, # of connection points: 6
#     Node 3, Type 1, BuildingBlock: PAMTOO_clean_linker_0, # of connection points: 3
#     Node 4, Type 1, BuildingBlock: PAMTOO_clean_linker_0, # of connection points: 3
#     Node 5, Type 1, BuildingBlock: PAMTOO_clean_linker_0, # of connection points: 3
#     Node 6, Type 1, BuildingBlock: PAMTOO_clean_linker_0, # of connection points: 3
#     Node 7, Type 1, BuildingBlock: PAMTOO_clean_linker_0, # of connection points: 3
#     Node 8, Type 1, BuildingBlock: PAMTOO_clean_linker_0, # of connection points: 3
#     Edge 9, Type (0, 1), BuildingBlock: XIVTED_clean_linker_0, # of connection points: 2
#     Edge 10, Type (0, 1), BuildingBlock: XIVTED_clean_linker_0, # of connection points: 2
#     Edge 11, Type (0, 1), BuildingBlock: XIVTED_clean_linker_0, # of connection points: 2
#     Edge 12, Type (0, 1), BuildingBlock: XIVTED_clean_linker_0, # of connection points: 2
#     Edge 13, Type (0, 1), BuildingBlock: XIVTED_clean_linker_0, # of connection points: 2
#     Edge 14, Type (0, 1), BuildingBlock: XIVTED_clean_linker_0, # of connection points: 2
#     Edge 15, Type (0, 1), BuildingBlock: XIVTED_clean_linker_0, # of connection points: 2
#     Edge 16, Type (0, 1), BuildingBlock: XIVTED_clean_linker_0, # of connection points: 2
#     Edge 17, Type (0, 1), BuildingBlock: XIVTED_clean_linker_0, # of connection points: 2
#     Edge 18, Type (0, 1), BuildingBlock: XIVTED_clean_linker_0, # of connection points: 2
#     Edge 19, Type (0, 1), BuildingBlock: XIVTED_clean_linker_0, # of connection points: 2
#     Edge 20, Type (0, 1), BuildingBlock: XIVTED_clean_linker_0, # of connection points: 2
#     Edge 21, Type (0, 1), BuildingBlock: XIVTED_clean_linker_0, # of connection points: 2
#     Edge 22, Type (0, 1), BuildingBlock: XIVTED_clean_linker_0, # of connection points: 2
#     Edge 23, Type (0, 1), BuildingBlock: XIVTED_clean_linker_0, # of connection points: 2
#     Edge 24, Type (0, 1), BuildingBlock: XIVTED_clean_linker_0, # of connection points: 2
#     Edge 25, Type (0, 1), BuildingBlock: XIVTED_clean_linker_0, # of connection points: 2
#     Edge 26, Type (0, 1), BuildingBlock: XIVTED_clean_linker_0, # of connection points: 2
# Relax obj value: 0.162
# Max RMSD: 0.159
# Mean RMSD: 0.118
data_MOF--net-anh--node1-PAMTOO_clean_sbu_0--node2-PAMTOO_clean_linker_0--edge1-XIVTED_clean_linker_0
_symmetry_space_group_name_H-M    P1
_symmetry_Int_Tables_number       1
_symmetry_cell_setting            triclinic
loop_
_symmetry_equiv_pos_as_xyz
'x, y, z'
_cell_length_a     30.050024
_cell_length_b     29.582703
_cell_length_c     49.472072
_cell_angle_alpha  85.133286
_cell_angle_beta   98.062445
_cell_angle_gamma 100.62387
loop_
_atom_site_label
_atom_site_type_symbol
_atom_site_fract_x
_atom_site_fract_y
_atom_site_fract_z
_atom_type_partial_charge
Dy0 Dy 0.14363 0.61755 0.15342 0.0
Dy1 Dy 0.1236 0.50578 0.14451 0.0
C2 C 0.13037 0.57991 0.09507 0.0
O3 O 1.07011 0.59535 0.1602 0.0
O4 O 1.05472 0.52734 0.1386 0.0
O5 O 0.16068 0.68653 0.13556 0.0
O6 O 0.14884 0.67593 0.17797 0.0
O7 O 0.11689 0.51495 0.18797 0.0
O8 O 0.16679 0.5828 0.19316 0.0
O9 O 0.20037 0.52243 0.15185 0.0
O10 O 0.21156 0.60188 0.14667 0.0
O11 O 0.12959 0.43583 0.15888 0.0
O12 O 0.09068 0.44947 0.11969 0.0
C13 C 1.04093 0.56039 0.14974 0.0
O14 O 0.11418 0.60568 0.1102 0.0
O15 O 0.14474 0.54234 0.1058 0.0
C16 C 0.20536 0.73812 0.166 0.0
C17 C 0.28756 0.80149 0.17513 0.0
C18 C 0.28793 0.75386 0.17657 0.0
C19 C 0.24714 0.72244 0.17212 0.0
C20 C 0.20463 0.78541 0.16514 0.0
C21 C 0.24539 0.81689 0.16978 0.0
C22 C 0.16302 0.70561 0.15863 0.0
C23 C 0.14423 0.54471 0.20362 0.0
C24 C 0.22736 0.56276 0.14938 0.0
C25 C 1.06172 0.38431 0.14655 0.0
C26 C 0.98684 0.31979 0.16234 0.0
C27 C 0.98953 0.36718 0.16525 0.0
C28 C 1.02666 0.39904 0.15755 0.0
C29 C 1.05924 0.33727 0.14336 0.0
C30 C 1.02211 0.30522 0.1512 0.0
C31 C 0.10075 0.41818 0.13865 0.0
H32 H 0.31978 0.74088 0.18098 0.0
H33 H 0.24821 0.68596 0.17293 0.0
H34 H 0.17265 0.79806 0.16027 0.0
H35 H 0.244 0.85335 0.16826 0.0
H36 H 0.96273 0.37982 0.1733 0.0
H37 H 1.02806 0.43527 0.16019 0.0
H38 H 1.08613 0.32532 0.13498 0.0
H39 H 1.02145 0.26899 0.14896 0.0
Dy40 Dy 0.60939 0.01112 0.51244 0.0
Dy41 Dy 0.72152 0.03079 0.52061 0.0
C42 C 0.66652 0.01378 0.57083 0.0
O43 O 0.62784 0.08699 0.50404 0.0
O44 O 0.7015 0.09874 0.52582 0.0
O45 O 0.54645 0.98971 0.52987 0.0
O46 O 0.54475 0.00983 0.48672 0.0
O47 O 0.69818 0.05324 0.47776 0.0
O48 O 0.63304 0.99969 0.473 0.0
O49 O 0.70193 0.95604 0.51175 0.0
O50 O 0.62878 0.942 0.52298 0.0
O51 O 0.7855 0.02563 0.50715 0.0
O52 O 0.7849 0.05739 0.54506 0.0
C53 C 0.66463 0.11449 0.51438 0.0
O54 O 0.63396 0.03126 0.55534 0.0
O55 O 0.69839 0.99985 0.55984 0.0
C56 C 0.4882 0.9492 0.50012 0.0
C57 C 0.4249 0.86713 0.49184 0.0
C58 C 0.47206 0.86684 0.49445 0.0
C59 C 0.50344 0.90758 0.49848 0.0
C60 C 0.4413 0.94992 0.49702 0.0
C61 C 0.40982 0.9092 0.49282 0.0
C62 C 0.52113 0.99132 0.50628 0.0
C63 C 0.6655 0.0284 0.46219 0.0
C64 C 0.66503 0.92734 0.51751 0.0
C65 C 0.8445 0.08827 0.51905 0.0
C66 C 0.91106 0.16374 0.50517 0.0
C67 C 0.87355 0.14791 0.48594 0.0
C68 C 0.84039 0.11067 0.49286 0.0
C69 C 0.88194 0.10395 0.53826 0.0
C70 C 0.91487 0.14151 0.53144 0.0
C71 C 0.80964 0.0494 0.52691 0.0
H72 H 0.48471 0.8351 0.49344 0.0
H73 H 0.53961 0.90651 0.50071 0.0
H74 H 0.42904 0.98179 0.49833 0.0
H75 H 0.37373 0.91042 0.49114 0.0
H76 H 0.86947 0.16481 0.46567 0.0
H77 H 0.81147 0.09962 0.47777 0.0
H78 H 0.88559 0.08721 0.5586 0.0
H79 H 0.9436 0.15283 0.54658 0.0
Dy80 Dy 0.69027 0.46648 0.84415 0.0
Dy81 Dy 0.57913 0.44984 0.82836 0.0
C82 C 0.64527 0.46161 0.7824 0.0
O83 O 0.66967 0.53397 0.84985 0.0
O84 O 0.60321 0.52516 0.82035 0.0
O85 O 0.7555 0.5114 0.84879 0.0
O86 O 0.75153 0.43811 0.8585 0.0
O87 O 0.59373 0.474 0.87095 0.0
O88 O 0.66138 0.44822 0.88336 0.0
O89 O 0.59616 0.38088 0.84295 0.0
O90 O 0.66848 0.39402 0.83109 0.0
O91 O 0.51119 0.42971 0.84016 0.0
O92 O 0.52021 0.45114 0.79807 0.0
C93 C 0.63667 0.55147 0.83468 0.0
O94 O 0.67774 0.48349 0.79952 0.0
O95 O 0.60811 0.43711 0.79086 0.0
C96 C 0.81767 0.4787 0.84083 0.0
C97 C 0.89798 0.49487 0.81562 0.0
C98 C 0.85571 0.49889 0.80015 0.0
C99 C 0.81578 0.49078 0.81267 0.0
C100 C 0.85904 0.47156 0.85586 0.0
C101 C 0.89884 0.47947 0.84339 0.0
C102 C 0.77818 0.47772 0.8554 0.0
C103 C 0.62599 0.46309 0.8898 0.0
C104 C 0.6321 0.36547 0.83769 0.0
C105 C 0.46227 0.47767 0.81668 0.0
C106 C 0.41141 0.54633 0.82305 0.0
C107 C 0.44988 0.55692 0.80901 0.0
C108 C 0.47516 0.52302 0.80595 0.0
C109 C 0.42308 0.46663 0.82999 0.0
C110 C 0.39787 0.50071 0.83321 0.0
C111 C 0.49188 0.44321 0.81632 0.0
H112 H 0.85384 0.51029 0.77869 0.0
H113 H 0.78388 0.49602 0.80068 0.0
H114 H 0.86103 0.46218 0.8776 0.0
H115 H 0.93075 0.47667 0.85609 0.0
H116 H 0.4616 0.59187 0.80133 0.0
H117 H 0.50558 0.53273 0.79589 0.0
H118 H 0.41272 0.43196 0.83855 0.0
H119 H 0.36817 0.49153 0.84397 0.0
H120 H 0.74166 0.10472 0.2643 0.0
H121 H 0.61265 0.01407 0.24702 0.0
H122 H 0.68605 0.07581 0.18124 0.0
H123 H 0.5814 0.04983 0.16083 0.0
C124 C 0.57619 0.03749 0.1822 0.0
O125 O 0.61369 0.01915 0.19438 0.0
H126 H 0.57201 0.06781 0.19294 0.0
C127 C 0.71453 0.08801 0.24977 0.0
C128 C 0.71842 0.0948 0.22164 0.0
C129 C 0.67652 0.05917 0.25938 0.0
C130 C 0.64261 0.03605 0.24035 0.0
C131 C 0.64648 0.04184 0.21237 0.0
C132 C 0.68418 0.07105 0.20303 0.0
H133 H 0.6677 0.5994 0.58814 0.0
H134 H 0.67859 0.46178 0.57145 0.0
H135 H 0.67703 0.56706 0.50607 0.0
H136 H 0.6362 0.46609 0.48499 0.0
C137 C 0.64334 0.45174 0.50633 0.0
O138 O 0.68131 0.47949 0.51909 0.0
H139 H 0.6127 0.45146 0.51673 0.0
C140 C 0.67071 0.57476 0.57377 0.0
C141 C 0.67188 0.58898 0.54602 0.0
C142 C 0.67322 0.52908 0.58319 0.0
C143 C 0.67668 0.49719 0.56451 0.0
C144 C 0.67813 0.51086 0.5368 0.0
C145 C 0.67615 0.55681 0.52756 0.0
H146 H 0.14946 0.63697 0.88913 0.0
H147 H 0.22084 0.77002 0.91349 0.0
H148 H 0.19138 0.74322 0.82832 0.0
H149 H 0.29251 0.8276 0.88524 0.0
C150 C 0.2778 0.81621 0.86452 0.0
O151 O 0.2308 0.80402 0.86359 0.0
H152 H 0.28552 0.84632 0.84987 0.0
C153 C 0.16736 0.6712 0.88388 0.0
C154 C 0.16881 0.68601 0.85623 0.0
C155 C 0.18557 0.70113 0.90476 0.0
C156 C 0.20613 0.74641 0.89772 0.0
C157 C 0.20896 0.7611 0.87023 0.0
C158 C 0.1899 0.73115 0.84953 0.0
H159 H 0.11033 0.4265 0.40322 0.0
H160 H 0.21017 0.54908 0.41901 0.0
H161 H 0.16116 0.46186 0.48591 0.0
H162 H 0.1871 0.56157 0.50308 0.0
C163 C 0.19563 0.5729 0.48214 0.0
O164 O 0.21297 0.53865 0.47198 0.0
H165 H 0.16345 0.57946 0.46946 0.0
C166 C 0.13299 0.44879 0.41746 0.0
C167 C 0.13275 0.43853 0.44572 0.0
C168 C 0.16101 0.48828 0.40737 0.0
C169 C 0.18812 0.51843 0.42608 0.0
C170 C 0.18748 0.509 0.45423 0.0
C171 C 0.16044 0.46896 0.46402 0.0
H172 H 0.6524 0.88214 0.76704 0.0
H173 H 0.66232 0.02367 0.78496 0.0
H174 H 0.64936 0.91704 0.84946 0.0
H175 H 0.60678 1.00453 0.86125 0.0
C176 C 0.61706 0.02132 0.84157 0.0
O177 O 0.65632 1.00652 0.837 0.0
H178 H 0.58844 0.01096 0.82516 0.0
C179 C 0.65356 0.90779 0.78166 0.0
C180 C 0.65029 0.89367 0.80925 0.0
C181 C 0.65806 0.9545 0.77265 0.0
C182 C 0.65894 0.98748 0.79157 0.0
C183 C 0.6558 0.97407 0.81917 0.0
C184 C 0.65197 0.92722 0.8281 0.0
H185 H 0.71719 0.5289 0.0881 0.0
H186 H 0.57592 0.53485 0.09124 0.0
H187 H 0.67302 0.55182 0.164 0.0
H188 H 0.57267 0.60857 0.12492 0.0
C189 C 0.56786 0.58651 0.14403 0.0
O190 O 0.58506 0.54623 0.14336 0.0
H191 H 0.58741 0.60593 0.16146 0.0
C192 C 0.6902 0.5338 0.09941 0.0
C193 C 0.70084 0.54099 0.12737 0.0
C194 C 0.64565 0.53232 0.08591 0.0
C195 C 0.61064 0.5364 0.10114 0.0
C196 C 0.62016 0.54363 0.12919 0.0
C197 C 0.66559 0.54657 0.14232 0.0
H198 H 0.29581 0.63837 0.15388 0.0
H199 H 0.49941 0.51017 0.13087 0.0
H200 H 0.27421 0.49187 0.14481 0.0
H201 H 0.5201 0.6451 0.16208 0.0
H202 H 0.41692 0.5028 0.13296 0.0
H203 H 0.37747 0.64182 0.15371 0.0
C204 C 0.30809 0.6068 0.15185 0.0
C205 C 0.27761 0.56471 0.14943 0.0
C206 C 0.43961 0.53379 0.13964 0.0
C207 C 0.37217 0.56859 0.14899 0.0
C208 C 0.48679 0.53794 0.13857 0.0
C209 C 0.51706 0.57793 0.14701 0.0
C210 C 0.42233 0.57032 0.14855 0.0
C211 C 0.49828 0.61331 0.15593 0.0
C212 C 0.355 0.60882 0.15182 0.0
C213 C 0.29618 0.5251 0.14685 0.0
N214 N 0.45244 0.60875 0.1564 0.0
N215 N 0.34208 0.52804 0.14655 0.0
H216 H 0.94885 0.2384 0.53496 0.0
H217 H 0.11469 0.35272 0.4254 0.0
H218 H 0.95255 0.17931 0.4587 0.0
H219 H 1.08308 0.42809 0.48921 0.0
H220 H 1.06244 0.28514 0.44063 0.0
H221 H 1.00545 0.30449 0.52184 0.0
C222 C 0.96183 0.23925 0.51554 0.0
C223 C 0.94596 0.20348 0.49783 0.0
C224 C 1.067 0.31646 0.45131 0.0
C225 C 1.0105 0.27874 0.48272 0.0
C226 C 0.09668 0.35517 0.44257 0.0
C227 C 0.10303 0.39641 0.45586 0.0
C228 C 1.04366 0.31873 0.47368 0.0
C229 C 1.0796 0.39701 0.47846 0.0
C230 C 0.99388 0.27702 0.50801 0.0
C231 C 0.96353 0.20643 0.4728 0.0
N232 N 1.05087 0.35878 0.48662 0.0
N233 N 0.99493 0.24337 0.46601 0.0
H234 H 0.57359 0.59865 0.80565 0.0
H235 H 0.69996 0.84918 0.85081 0.0
H236 H 0.6989 0.61949 0.8612 0.0
H237 H 0.58804 0.82436 0.78605 0.0
H238 H 0.6952 0.76531 0.85966 0.0
H239 H 0.57387 0.68112 0.80278 0.0
C240 C 0.60123 0.6205 0.81732 0.0
C241 C 0.63649 0.60186 0.83354 0.0
C242 C 0.67148 0.7783 0.84367 0.0
C243 C 0.63696 0.69719 0.83031 0.0
C244 C 0.67397 0.82607 0.83878 0.0
C245 C 0.64454 0.84364 0.81755 0.0
C246 C 0.63904 0.74807 0.82737 0.0
C247 C 0.6117 0.81226 0.80242 0.0
C248 C 0.60135 0.66781 0.81565 0.0
C249 C 0.67115 0.63226 0.84829 0.0
N250 N 0.60997 0.76619 0.80755 0.0
N251 N 0.67061 0.67845 0.84625 0.0
H252 H 0.99533 0.62629 0.16412 0.0
H253 H 0.74728 0.4696 0.13259 0.0
H254 H 0.97134 0.48822 0.13674 0.0
H255 H 0.76516 0.61345 0.14755 0.0
H256 H 0.83002 0.47359 0.14116 0.0
H257 H 0.91262 0.62068 0.16393 0.0
C258 C 0.97286 0.59474 0.15816 0.0
C259 C 0.99074 0.55778 0.15028 0.0
C260 C 0.81606 0.50424 0.14305 0.0
C261 C 0.89564 0.55101 0.1503 0.0
C262 C 0.76869 0.50178 0.13849 0.0
C263 C 0.74918 0.54108 0.13972 0.0
C264 C 0.84472 0.54651 0.14867 0.0
C265 C 0.7787 0.58216 0.14686 0.0
C266 C 0.92554 0.59159 0.15807 0.0
C267 C 0.95956 0.51781 0.14282 0.0
N268 N 0.82497 0.58394 0.15083 0.0
N269 N 0.91389 0.51557 0.14302 0.0
H270 H 0.34431 0.85091 0.45757 0.0
H271 H 0.27323 0.59192 0.51825 0.0
H272 H 0.42964 0.78407 0.51995 0.0
H273 H 0.19782 0.65123 0.44783 0.0
H274 H 0.3302 0.66291 0.51994 0.0
H275 H 0.289 0.77901 0.45447 0.0
C276 C 0.35136 0.82111 0.47063 0.0
C277 C 0.39163 0.82347 0.48904 0.0
C278 C 0.30121 0.66048 0.50411 0.0
C279 C 0.32862 0.74111 0.48559 0.0
C280 C 0.26877 0.6201 0.50322 0.0
C281 C 0.23066 0.61627 0.48316 0.0
C282 C 0.29542 0.69725 0.48476 0.0
C283 C 0.22651 0.65326 0.46384 0.0
C284 C 0.31992 0.78002 0.46876 0.0
C285 C 0.39929 0.78366 0.50525 0.0
N286 N 0.25838 0.69238 0.46521 0.0
N287 N 0.368 0.74421 0.50323 0.0
H288 H 0.56842 0.29683 0.85743 0.0
H289 H 0.67787 0.08929 0.81644 0.0
H290 H 0.69358 0.31866 0.82094 0.0
H291 H 0.57009 0.07122 0.86752 0.0
H292 H 0.68297 0.17298 0.81614 0.0
H293 H 0.56694 0.21391 0.85937 0.0
C294 C 0.59561 0.28424 0.84977 0.0
C295 C 0.63115 0.31494 0.83895 0.0
C296 C 0.65855 0.15071 0.82766 0.0
C297 C 0.62958 0.21952 0.84109 0.0
C298 C 0.65571 0.10289 0.82792 0.0
C299 C 0.62419 0.07319 0.84261 0.0
C300 C 0.62899 0.16898 0.84169 0.0
C301 C 0.59548 0.09289 0.85642 0.0
C302 C 0.59481 0.23677 0.85098 0.0
C303 C 0.66552 0.29637 0.82947 0.0
N304 N 0.59852 0.13941 0.8556 0.0
N305 N 0.66378 0.2499 0.83065 0.0
H306 H 0.59656 0.85832 0.53138 0.0
H307 H 0.72737 0.65098 0.51526 0.0
H308 H 0.73105 0.88076 0.50593 0.0
H309 H 0.60805 0.63721 0.55661 0.0
H310 H 0.72457 0.73348 0.50535 0.0
H311 H 0.59586 0.7757 0.53458 0.0
C312 C 0.62599 0.84597 0.52637 0.0
C313 C 0.66411 0.87682 0.51856 0.0
C314 C 0.69885 0.71226 0.51642 0.0
C315 C 0.66341 0.78153 0.52221 0.0
C316 C 0.70025 0.66522 0.52188 0.0
C317 C 0.66807 0.63742 0.53692 0.0
C318 C 0.66471 0.73132 0.52582 0.0
C319 C 0.63381 0.65756 0.54521 0.0
C320 C 0.62554 0.79861 0.52824 0.0
C321 C 0.70104 0.85838 0.51222 0.0
N322 N 0.63312 0.70317 0.53962 0.0
N323 N 0.69983 0.81193 0.51425 0.0
H324 H 0.91786 0.57362 0.78305 0.0
H325 H 0.17005 0.59475 0.85134 0.0
H326 H 0.97823 0.4604 0.82368 0.0
H327 H 0.10742 0.70806 0.81329 0.0
H328 H 0.10967 0.54117 0.82641 0.0
H329 H 0.99382 0.61662 0.77829 0.0
C330 C 0.94698 0.55704 0.79016 0.0
C331 C 0.94166 0.51389 0.80468 0.0
C332 C 0.10975 0.57781 0.82287 0.0
C333 C 1.02896 0.56376 0.80007 0.0
C334 C 0.14425 0.60838 0.83709 0.0
C335 C 0.14281 0.6557 0.83497 0.0
C336 C 1.07325 0.59475 0.80685 0.0
C337 C 0.10937 0.67174 0.81583 0.0
C338 C 0.99054 0.58189 0.78762 0.0
C339 C 0.98084 0.49431 0.81327 0.0
N340 N 1.07514 0.64121 0.80305 0.0
N341 N 1.0229 0.51987 0.81152 0.0
H342 H 0.30811 0.87999 0.20359 0.0
H343 H 0.55308 0.96134 0.15211 0.0
H344 H 0.36586 0.79977 0.1531 0.0
H345 H 0.50455 0.03069 0.21231 0.0
H346 H 0.48395 0.90236 0.15151 0.0
H347 H 0.37893 0.93652 0.20632 0.0
C348 C 0.33569 0.87427 0.19308 0.0
C349 C 0.33103 0.8351 0.17808 0.0
C350 C 0.48837 0.93042 0.16489 0.0
C351 C 0.41221 0.89963 0.18113 0.0
C352 C 0.5277 0.96402 0.16516 0.0
C353 C 0.53405 1.00101 0.18202 0.0
C354 C 0.45511 0.93394 0.18158 0.0
C355 C 0.50058 1.00289 0.19881 0.0
C356 C 0.37619 0.90643 0.19476 0.0
C357 C 0.36811 0.82919 0.16514 0.0
N358 N 0.46239 0.96996 0.19805 0.0
N359 N 0.40699 0.86121 0.16684 0.0
H360 H 0.72649 0.18244 0.54076 0.0
H361 H 0.59915 0.38679 0.47155 0.0
H362 H 0.60183 0.16139 0.48466 0.0
H363 H 0.70171 0.40402 0.54193 0.0
H364 H 0.60564 0.30536 0.47277 0.0
H365 H 0.72379 0.26507 0.53828 0.0
C366 C 0.69863 0.19512 0.52788 0.0
C367 C 0.66423 0.16476 0.51298 0.0
C368 C 0.62701 0.32699 0.48783 0.0
C369 C 0.66115 0.25932 0.50994 0.0
C370 C 0.62349 0.3735 0.48703 0.0
C371 C 0.65058 0.40249 0.50624 0.0
C372 C 0.65778 0.30906 0.50812 0.0
C373 C 0.68077 0.38323 0.52634 0.0
C374 C 0.69707 0.24228 0.52654 0.0
C375 C 0.62898 0.18329 0.49665 0.0
N376 N 0.68371 0.33778 0.52668 0.0
N377 N 0.62843 0.22925 0.49553 0.0
H378 H 0.38251 0.5612 0.871 0.0
H379 H 0.28851 0.79175 0.81374 0.0
H380 H 0.38681 0.61665 0.78768 0.0
H381 H 0.31314 0.75102 0.89944 0.0
H382 H 0.31805 0.72431 0.8028 0.0
H383 H 0.34896 0.62633 0.88074 0.0
C384 C 0.37583 0.58678 0.85466 0.0
C385 C 0.38752 0.58357 0.8285 0.0
C386 C 0.31736 0.73035 0.82401 0.0
C387 C 0.34978 0.65854 0.8396 0.0
C388 C 0.30084 0.76886 0.8302 0.0
C389 C 0.29954 0.77726 0.8575 0.0
C390 C 0.33199 0.69977 0.8453 0.0
C391 C 0.31456 0.74608 0.87817 0.0
C392 C 0.3571 0.62418 0.8603 0.0
C393 C 0.37874 0.61809 0.80821 0.0
N394 N 0.33013 0.70865 0.87165 0.0
N395 N 0.36043 0.65419 0.81419 0.0
H396 H 0.9435 0.32064 0.20748 0.0
H397 H 0.76754 0.08585 0.17988 0.0
H398 H 0.94074 0.2414 0.13769 0.0
H399 H 0.75909 0.17845 0.24116 0.0
H400 H 0.83277 0.14006 0.165 0.0
H401 H 0.87815 0.26631 0.22124 0.0
C402 C 0.92901 0.29199 0.19491 0.0
C403 C 0.94762 0.28592 0.17124 0.0
C404 C 0.81658 0.14844 0.1817 0.0
C405 C 0.87281 0.22283 0.18722 0.0
C406 C 0.77918 0.11761 0.19012 0.0
C407 C 0.75782 0.12737 0.21194 0.0
C408 C 0.83286 0.1893 0.19521 0.0
C409 C 0.77488 0.16891 0.22462 0.0
C410 C 0.89174 0.26076 0.20289 0.0
C411 C 0.92789 0.24733 0.15622 0.0
N412 N 0.81133 0.19817 0.21612 0.0
N413 N 0.89154 0.21729 0.16444 0.0
H414 H 0.16317 0.53646 0.05723 0.0
H415 H 0.15972 0.74698 0.94419 0.0
H416 H 0.11214 0.66023 0.06778 0.0
H417 H 0.19957 0.61861 0.93084 0.0
H418 H 0.14566 0.71721 0.99046 0.0
H419 H 0.1784 0.56655 0.01126 0.0
C420 C 0.15485 0.5698 0.04983 0.0
C421 C 0.13632 0.59582 0.06642 0.0
C422 C 0.15761 0.69559 0.97744 0.0
C423 C 0.15416 0.63072 0.0139 0.0
C424 C 0.16605 0.71275 0.95112 0.0
C425 C 0.18072 0.68519 0.93363 0.0
C426 C 0.16406 0.65059 0.98637 0.0
C427 C 0.18776 0.64081 0.94355 0.0
C428 C 0.1637 0.58704 0.0236 0.0
C429 C 0.12636 0.63888 0.05574 0.0
N430 N 0.17929 0.62488 0.96923 0.0
N431 N 0.13557 0.65503 0.03022 0.0
H432 H 0.71557 0.09631 0.43267 0.0
H433 H 0.64205 0.98125 0.28975 0.0
H434 H 0.61597 0.97142 0.42344 0.0
H435 H 0.70096 0.12502 0.29717 0.0
H436 H 0.63695 0.97368 0.33892 0.0
H437 H 0.71645 0.10374 0.38328 0.0
C438 C 0.69387 0.07039 0.42026 0.0
C439 C 0.66563 0.03316 0.43221 0.0
C440 C 0.65087 1.00685 0.32969 0.0
C441 C 0.6667 0.04141 0.37557 0.0
C442 C 0.65364 0.01131 0.30159 0.0
C443 C 0.67228 0.05381 0.28918 0.0
C444 C 0.66728 0.045 0.34556 0.0
C445 C 0.68732 0.09131 0.30579 0.0
C446 C 0.69427 0.07478 0.39203 0.0
C447 C 0.63813 1.00074 0.41505 0.0
N448 N 0.68473 0.08593 0.33308 0.0
N449 N 0.63955 1.00546 0.38756 0.0
H450 H 0.58808 0.42008 0.73954 0.0
H451 H 0.72412 0.57234 0.62657 0.0
H452 H 0.71495 0.51415 0.75807 0.0
H453 H 0.6199 0.45472 0.6065 0.0
H454 H 0.71904 0.55239 0.67506 0.0
H455 H 0.59688 0.4327 0.69076 0.0
C456 C 0.61784 0.44314 0.73342 0.0
C457 C 0.65066 0.46629 0.75295 0.0
C458 C 0.69744 0.53069 0.66012 0.0
C459 C 0.66073 0.48101 0.69734 0.0
C460 C 0.70022 0.5422 0.63246 0.0
C461 C 0.67224 0.51524 0.61259 0.0
C462 C 0.66601 0.49219 0.66805 0.0
C463 C 0.64218 0.47625 0.62126 0.0
C464 C 0.62286 0.45024 0.70559 0.0
C465 C 0.68861 0.49567 0.74382 0.0
N466 N 0.63952 0.46609 0.64841 0.0
N467 N 0.69238 0.5024 0.71672 0.0
H468 H 0.72611 0.97428 0.60801 0.0
H469 H 0.61235 0.01425 0.73899 0.0
H470 H 0.60891 0.04154 0.60226 0.0
H471 H 0.71192 0.92592 0.73988 0.0
H472 H 0.61589 0.03241 0.6899 0.0
H473 H 0.72636 0.96386 0.65731 0.0
C474 C 0.70042 0.987 0.6171 0.0
C475 C 0.66725 0.00862 0.60089 0.0
C476 C 0.63702 0.00918 0.70089 0.0
C477 C 0.66742 0.99674 0.65761 0.0
C478 C 0.63523 0.99905 0.72889 0.0
C479 C 0.66166 0.96829 0.74342 0.0
C480 C 0.66576 0.98869 0.68748 0.0
C481 C 0.6905 0.94928 0.72936 0.0
C482 C 0.70058 0.98096 0.64533 0.0
C483 C 0.63497 0.02448 0.61394 0.0
N484 N 0.69173 0.95976 0.7022 0.0
N485 N 0.63581 0.01815 0.64158 0.0
H486 H 0.6992 0.48012 0.92866 0.0
H487 H 0.5711 0.48072 0.05651 0.0
H488 H 0.55252 0.46843 0.91635 0.0
H489 H 0.69952 0.5701 0.04671 0.0
H490 H 0.56242 0.4652 0.0078 0.0
H491 H 0.70001 0.49974 0.97558 0.0
C492 C 0.66705 0.48124 0.93591 0.0
C493 C 0.62568 0.47255 0.9186 0.0
C494 C 0.59221 0.48844 0.01646 0.0
C495 C 0.62652 0.49491 0.97239 0.0
C496 C 0.59717 0.4975 0.04416 0.0
C497 C 0.63662 0.52604 0.05596 0.0
C498 C 0.62725 0.50748 0.00073 0.0
C499 C 0.66929 0.54664 0.03887 0.0
C500 C 0.66763 0.49283 0.96262 0.0
C501 C 0.58513 0.47501 0.92908 0.0
N502 N 0.66422 0.5364 0.01231 0.0
N503 N 0.58646 0.48563 0.95549 0.0
H504 H 0.11865 0.46334 0.23259 0.0
H505 H 0.16745 0.57199 0.37783 0.0
H506 H 0.17953 0.60587 0.24295 0.0
H507 H 0.15563 0.42626 0.36828 0.0
H508 H 0.16588 0.58597 0.32832 0.0
H509 H 0.12483 0.44979 0.28231 0.0
C510 C 0.13334 0.49178 0.24532 0.0
C511 C 0.14862 0.5358 0.23362 0.0
C512 C 0.16379 0.55098 0.33715 0.0
C513 C 0.15547 0.52058 0.29046 0.0
C514 C 0.16492 0.54295 0.36544 0.0
C515 C 0.16143 0.4978 0.37737 0.0
C516 C 0.15862 0.51362 0.3206 0.0
C517 C 0.15742 0.46155 0.36006 0.0
C518 C 0.13701 0.48397 0.27368 0.0
C519 C 0.16749 0.57134 0.25111 0.0
N520 N 0.15583 0.47022 0.33258 0.0
N521 N 0.17011 0.56303 0.27868 0.0
loop_
_geom_bond_atom_site_label_1
_geom_bond_atom_site_label_2
_geom_bond_distance
_geom_bond_site_symmetry_2
_ccdc_geom_bond_type
Dy0 O3 2.307 1_455 S
Dy0 O5 2.395 . S
Dy0 O6 2.379 . S
Dy0 O8 2.339 . S
Dy0 O10 2.298 . S
Dy0 O14 2.275 . S
Dy0 C22 2.738 . S
Dy1 O4 2.298 . S
Dy1 O7 2.275 1_655 S
Dy1 O9 2.307 1_655 S
Dy1 O11 2.395 . S
Dy1 O12 2.379 . S
Dy1 O15 2.339 . S
Dy1 C31 2.738 . S
C2 O14 1.254 . S
C2 O15 1.257 1_455 S
O3 Dy0 2.307 1_655 S
O3 C13 1.266 . S
O4 Dy1 2.298 . S
O4 C13 1.236 . S
O5 Dy0 2.395 . S
O5 C22 1.255 . S
O6 Dy0 2.379 . S
O6 C22 1.249 . S
O7 Dy1 2.275 1_455 S
O7 C23 1.254 . S
O8 Dy0 2.339 . S
O8 C23 1.257 . S
O9 Dy1 2.307 1_455 S
O9 C24 1.266 . S
O10 Dy0 2.298 . S
O10 C24 1.236 . S
O11 Dy1 2.395 . S
O11 C31 1.255 . S
O12 Dy1 2.379 . S
O12 C31 1.249 . S
C13 O3 1.266 . S
C13 O4 1.236 . S
O14 Dy0 2.275 . S
O14 C2 1.254 . S
O15 Dy1 2.339 . S
O15 C2 1.257 1_655 S
C16 C19 1.344 . S
C16 C20 1.328 . S
C16 C22 1.516 . S
C17 C18 1.304 . S
C17 C21 1.323 . S
C18 C17 1.304 . S
C18 C19 1.371 . S
C18 H32 0.930 . S
C19 C16 1.344 . S
C19 C18 1.371 . S
C19 H33 0.931 . S
C20 C16 1.328 . S
C20 C21 1.433 . S
C20 H34 0.931 . S
C21 C17 1.323 . S
C21 C20 1.433 . S
C21 H35 0.933 . S
C22 Dy0 2.738 . S
C22 O5 1.255 . S
C22 O6 1.249 . S
C22 C16 1.516 . S
C23 O7 1.254 . S
C23 O8 1.257 . S
C24 O9 1.266 . S
C24 O10 1.236 . S
C25 C28 1.344 . S
C25 C29 1.328 . S
C25 C31 1.516 . S
C26 C27 1.304 . S
C26 C30 1.323 . S
C27 C26 1.304 . S
C27 C28 1.371 . S
C27 H36 0.930 . S
C28 C25 1.344 . S
C28 C27 1.371 . S
C28 H37 0.931 . S
C29 C25 1.328 . S
C29 C30 1.433 . S
C29 H38 0.931 . S
C30 C26 1.323 . S
C30 C29 1.433 . S
C30 H39 0.933 . S
C31 Dy1 2.738 . S
C31 O11 1.255 . S
C31 O12 1.249 . S
C31 C25 1.516 . S
H32 C18 0.930 . S
H33 C19 0.931 . S
H34 C20 0.931 . S
H35 C21 0.933 . S
H36 C27 0.930 . S
H37 C28 0.931 . S
H38 C29 0.931 . S
H39 C30 0.933 . S
Dy40 O43 2.307 1_565 S
Dy40 O45 2.395 . S
Dy40 O46 2.379 . S
Dy40 O48 2.339 1_565 S
Dy40 O50 2.298 . S
Dy40 O54 2.275 1_565 S
Dy40 C62 2.738 . S
Dy41 O44 2.298 . S
Dy41 O47 2.275 . S
Dy41 O49 2.307 1_545 S
Dy41 O51 2.395 . S
Dy41 O52 2.379 . S
Dy41 O55 2.339 . S
Dy41 C71 2.738 . S
C42 O54 1.254 . S
C42 O55 1.257 . S
O43 Dy40 2.307 1_545 S
O43 C53 1.266 . S
O44 Dy41 2.298 . S
O44 C53 1.236 . S
O45 Dy40 2.395 . S
O45 C62 1.255 . S
O46 Dy40 2.379 . S
O46 C62 1.249 . S
O47 Dy41 2.275 . S
O47 C63 1.254 . S
O48 Dy40 2.339 1_545 S
O48 C63 1.257 . S
O49 Dy41 2.307 1_565 S
O49 C64 1.266 . S
O50 Dy40 2.298 . S
O50 C64 1.236 . S
O51 Dy41 2.395 . S
O51 C71 1.255 . S
O52 Dy41 2.379 . S
O52 C71 1.249 . S
C53 O43 1.266 . S
C53 O44 1.236 . S
O54 Dy40 2.275 1_545 S
O54 C42 1.254 . S
O55 Dy41 2.339 . S
O55 C42 1.257 . S
C56 C59 1.344 . S
C56 C60 1.328 . S
C56 C62 1.516 . S
C57 C58 1.304 . S
C57 C61 1.323 . S
C58 C57 1.304 . S
C58 C59 1.371 . S
C58 H72 0.930 . S
C59 C56 1.344 . S
C59 C58 1.371 . S
C59 H73 0.931 . S
C60 C56 1.328 . S
C60 C61 1.433 . S
C60 H74 0.931 . S
C61 C57 1.323 . S
C61 C60 1.433 . S
C61 H75 0.933 . S
C62 Dy40 2.738 . S
C62 O45 1.255 . S
C62 O46 1.249 . S
C62 C56 1.516 . S
C63 O47 1.254 . S
C63 O48 1.257 . S
C64 O49 1.266 . S
C64 O50 1.236 . S
C65 C68 1.344 . S
C65 C69 1.328 . S
C65 C71 1.516 . S
C66 C67 1.304 . S
C66 C70 1.323 . S
C67 C66 1.304 . S
C67 C68 1.371 . S
C67 H76 0.930 . S
C68 C65 1.344 . S
C68 C67 1.371 . S
C68 H77 0.931 . S
C69 C65 1.328 . S
C69 C70 1.433 . S
C69 H78 0.931 . S
C70 C66 1.323 . S
C70 C69 1.433 . S
C70 H79 0.933 . S
C71 Dy41 2.738 . S
C71 O51 1.255 . S
C71 O52 1.249 . S
C71 C65 1.516 . S
H72 C58 0.930 . S
H73 C59 0.931 . S
H74 C60 0.931 . S
H75 C61 0.933 . S
H76 C67 0.930 . S
H77 C68 0.931 . S
H78 C69 0.931 . S
H79 C70 0.933 . S
Dy80 O83 2.307 . S
Dy80 O85 2.395 . S
Dy80 O86 2.379 . S
Dy80 O88 2.339 . S
Dy80 O90 2.298 . S
Dy80 O94 2.275 . S
Dy80 C102 2.738 . S
Dy81 O84 2.298 . S
Dy81 O87 2.275 . S
Dy81 O89 2.307 . S
Dy81 O91 2.395 . S
Dy81 O92 2.379 . S
Dy81 O95 2.339 . S
Dy81 C111 2.738 . S
C82 O94 1.254 . S
C82 O95 1.257 . S
O83 Dy80 2.307 . S
O83 C93 1.266 . S
O84 Dy81 2.298 . S
O84 C93 1.236 . S
O85 Dy80 2.395 . S
O85 C102 1.255 . S
O86 Dy80 2.379 . S
O86 C102 1.249 . S
O87 Dy81 2.275 . S
O87 C103 1.254 . S
O88 Dy80 2.339 . S
O88 C103 1.257 . S
O89 Dy81 2.307 . S
O89 C104 1.266 . S
O90 Dy80 2.298 . S
O90 C104 1.236 . S
O91 Dy81 2.395 . S
O91 C111 1.255 . S
O92 Dy81 2.379 . S
O92 C111 1.249 . S
C93 O83 1.266 . S
C93 O84 1.236 . S
O94 Dy80 2.275 . S
O94 C82 1.254 . S
O95 Dy81 2.339 . S
O95 C82 1.257 . S
C96 C99 1.344 . S
C96 C100 1.328 . S
C96 C102 1.516 . S
C97 C98 1.304 . S
C97 C101 1.323 . S
C98 C97 1.304 . S
C98 C99 1.371 . S
C98 H112 0.930 . S
C99 C96 1.344 . S
C99 C98 1.371 . S
C99 H113 0.931 . S
C100 C96 1.328 . S
C100 C101 1.433 . S
C100 H114 0.931 . S
C101 C97 1.323 . S
C101 C100 1.433 . S
C101 H115 0.933 . S
C102 Dy80 2.738 . S
C102 O85 1.255 . S
C102 O86 1.249 . S
C102 C96 1.516 . S
C103 O87 1.254 . S
C103 O88 1.257 . S
C104 O89 1.266 . S
C104 O90 1.236 . S
C105 C108 1.344 . S
C105 C109 1.328 . S
C105 C111 1.516 . S
C106 C107 1.304 . S
C106 C110 1.323 . S
C107 C106 1.304 . S
C107 C108 1.371 . S
C107 H116 0.930 . S
C108 C105 1.344 . S
C108 C107 1.371 . S
C108 H117 0.931 . S
C109 C105 1.328 . S
C109 C110 1.433 . S
C109 H118 0.931 . S
C110 C106 1.323 . S
C110 C109 1.433 . S
C110 H119 0.933 . S
C111 Dy81 2.738 . S
C111 O91 1.255 . S
C111 O92 1.249 . S
C111 C105 1.516 . S
H112 C98 0.930 . S
H113 C99 0.931 . S
H114 C100 0.931 . S
H115 C101 0.933 . S
H116 C107 0.930 . S
H117 C108 0.931 . S
H118 C109 0.931 . S
H119 C110 0.933 . S
H120 C127 0.929 . S
H121 C130 0.928 1_565 S
H122 C132 0.929 . S
H123 C124 0.969 . S
C124 H123 0.969 . S
C124 O125 1.550 . S
C124 H126 0.973 . S
O125 C124 1.550 . S
O125 C131 1.412 1_565 S
H126 C124 0.973 . S
C127 H120 0.929 . S
C127 C128 1.400 . S
C127 C129 1.364 . S
C128 C127 1.400 . S
C128 C132 1.377 . S
C129 C127 1.364 . S
C129 C130 1.374 . S
C130 H121 0.928 1_545 S
C130 C129 1.374 . S
C130 C131 1.383 . S
C131 O125 1.412 1_545 S
C131 C130 1.383 . S
C131 C132 1.394 . S
C132 H122 0.929 . S
C132 C128 1.377 . S
C132 C131 1.394 . S
H133 C140 0.929 . S
H134 C143 0.930 . S
H135 C145 0.929 . S
H136 C137 0.969 . S
C137 H136 0.969 . S
C137 O138 1.550 . S
C137 H139 0.973 . S
O138 C137 1.550 . S
O138 C144 1.412 . S
H139 C137 0.973 . S
C140 H133 0.929 . S
C140 C141 1.400 . S
C140 C142 1.364 . S
C141 C140 1.400 . S
C141 C145 1.377 . S
C142 C140 1.364 . S
C142 C143 1.374 . S
C143 H134 0.930 . S
C143 C142 1.374 . S
C143 C144 1.383 . S
C144 O138 1.412 . S
C144 C143 1.383 . S
C144 C145 1.394 . S
C145 H135 0.929 . S
C145 C141 1.377 . S
C145 C144 1.394 . S
H146 C153 0.929 1_655 S
H147 C156 0.930 . S
H148 C158 0.929 . S
H149 C150 0.969 . S
C150 H149 0.969 . S
C150 O151 1.550 . S
C150 H152 0.973 . S
O151 C150 1.550 . S
O151 C157 1.412 . S
H152 C150 0.973 . S
C153 H146 0.929 1_455 S
C153 C154 1.400 . S
C153 C155 1.364 . S
C154 C153 1.400 . S
C154 C158 1.377 . S
C155 C153 1.364 . S
C155 C156 1.374 . S
C156 H147 0.930 . S
C156 C155 1.374 . S
C156 C157 1.383 . S
C157 O151 1.412 . S
C157 C156 1.383 . S
C157 C158 1.394 . S
C158 H148 0.929 . S
C158 C154 1.377 . S
C158 C157 1.394 . S
H159 C166 0.929 1_655 S
H160 C169 0.930 . S
H161 C171 0.929 . S
H162 C163 0.969 . S
C163 H162 0.969 . S
C163 O164 1.550 . S
C163 H165 0.973 . S
O164 C163 1.550 . S
O164 C170 1.412 . S
H165 C163 0.973 . S
C166 H159 0.929 1_455 S
C166 C167 1.400 . S
C166 C168 1.364 . S
C167 C166 1.400 . S
C167 C171 1.377 . S
C168 C166 1.364 . S
C168 C169 1.374 . S
C169 H160 0.930 . S
C169 C168 1.374 . S
C169 C170 1.383 . S
C170 O164 1.412 . S
C170 C169 1.383 . S
C170 C171 1.394 . S
C171 H161 0.929 . S
C171 C167 1.377 . S
C171 C170 1.394 . S
H172 C179 0.929 . S
H173 C182 0.930 . S
H174 C184 0.929 . S
H175 C176 0.969 . S
C176 H175 0.969 . S
C176 O177 1.550 . S
C176 H178 0.973 . S
O177 C176 1.550 . S
O177 C183 1.412 . S
H178 C176 0.973 . S
C179 H172 0.929 . S
C179 C180 1.400 . S
C179 C181 1.364 1_565 S
C180 C179 1.400 . S
C180 C184 1.377 . S
C181 C179 1.364 1_545 S
C181 C182 1.374 . S
C182 H173 0.930 . S
C182 C181 1.374 . S
C182 C183 1.383 . S
C183 O177 1.412 . S
C183 C182 1.383 . S
C183 C184 1.394 1_545 S
C184 H174 0.929 . S
C184 C180 1.377 . S
C184 C183 1.394 1_565 S
H185 C192 0.929 . S
H186 C195 0.930 . S
H187 C197 0.929 . S
H188 C189 0.969 . S
C189 H188 0.969 . S
C189 O190 1.550 . S
C189 H191 0.973 . S
O190 C189 1.550 . S
O190 C196 1.412 . S
H191 C189 0.973 . S
C192 H185 0.929 . S
C192 C193 1.400 . S
C192 C194 1.364 . S
C193 C192 1.400 . S
C193 C197 1.377 . S
C194 C192 1.364 . S
C194 C195 1.374 . S
C195 H186 0.930 . S
C195 C194 1.374 . S
C195 C196 1.383 . S
C196 O190 1.412 . S
C196 C195 1.383 . S
C196 C197 1.394 . S
C197 H187 0.929 . S
C197 C193 1.377 . S
C197 C196 1.394 . S
H198 C204 0.930 . S
H199 C208 0.930 . S
H200 C213 0.929 . S
H201 C211 0.929 . S
H202 C206 0.929 . S
H203 C212 0.929 . S
C204 H198 0.930 . S
C204 C205 1.367 . S
C204 C212 1.378 . S
C205 C204 1.367 . S
C205 C213 1.433 . S
C206 H202 0.929 . S
C206 C208 1.378 . S
C206 C210 1.350 . S
C207 C210 1.463 . S
C207 C212 1.350 . S
C207 N215 1.427 . S
C208 H199 0.930 . S
C208 C206 1.378 . S
C208 C209 1.367 . S
C209 C208 1.367 . S
C209 C211 1.433 . S
C210 C206 1.350 . S
C210 C207 1.463 . S
C210 N214 1.427 . S
C211 H201 0.929 . S
C211 C209 1.433 . S
C211 N214 1.384 . S
C212 H203 0.929 . S
C212 C204 1.378 . S
C212 C207 1.350 . S
C213 H200 0.929 . S
C213 C205 1.433 . S
C213 N215 1.384 . S
N214 C210 1.427 . S
N214 C211 1.384 . S
N215 C207 1.427 . S
N215 C213 1.384 . S
H216 C222 0.930 . S
H217 C226 0.930 . S
H218 C231 0.929 . S
H219 C229 0.929 1_455 S
H220 C224 0.929 . S
H221 C230 0.929 . S
C222 H216 0.930 . S
C222 C223 1.367 . S
C222 C230 1.378 . S
C223 C222 1.367 . S
C223 C231 1.433 . S
C224 H220 0.929 . S
C224 C226 1.378 . S
C224 C228 1.350 . S
C225 C228 1.463 . S
C225 C230 1.350 . S
C225 N233 1.427 . S
C226 H217 0.930 . S
C226 C224 1.378 . S
C226 C227 1.367 . S
C227 C226 1.367 . S
C227 C229 1.433 . S
C228 C224 1.350 . S
C228 C225 1.463 . S
C228 N232 1.427 . S
C229 H219 0.929 1_655 S
C229 C227 1.433 . S
C229 N232 1.384 . S
C230 H221 0.929 . S
C230 C222 1.378 . S
C230 C225 1.350 . S
C231 H218 0.929 . S
C231 C223 1.433 . S
C231 N233 1.384 . S
N232 C228 1.427 . S
N232 C229 1.384 . S
N233 C225 1.427 . S
N233 C231 1.384 . S
H234 C240 0.930 . S
H235 C244 0.930 . S
H236 C249 0.929 . S
H237 C247 0.929 . S
H238 C242 0.929 . S
H239 C248 0.929 . S
C240 H234 0.930 . S
C240 C241 1.367 . S
C240 C248 1.378 . S
C241 C240 1.367 . S
C241 C249 1.433 . S
C242 H238 0.929 . S
C242 C244 1.378 . S
C242 C246 1.350 . S
C243 C246 1.463 . S
C243 C248 1.350 . S
C243 N251 1.427 . S
C244 H235 0.930 . S
C244 C242 1.378 . S
C244 C245 1.367 . S
C245 C244 1.367 . S
C245 C247 1.433 . S
C246 C242 1.350 . S
C246 C243 1.463 . S
C246 N250 1.427 . S
C247 H237 0.929 . S
C247 C245 1.433 . S
C247 N250 1.384 . S
C248 H239 0.929 . S
C248 C240 1.378 . S
C248 C243 1.350 . S
C249 H236 0.929 . S
C249 C241 1.433 . S
C249 N251 1.384 . S
N250 C246 1.427 . S
N250 C247 1.384 . S
N251 C243 1.427 . S
N251 C249 1.384 . S
H252 C258 0.930 . S
H253 C262 0.930 . S
H254 C267 0.929 . S
H255 C265 0.929 . S
H256 C260 0.929 . S
H257 C266 0.929 . S
C258 H252 0.930 . S
C258 C259 1.367 . S
C258 C266 1.378 . S
C259 C258 1.367 . S
C259 C267 1.433 . S
C260 H256 0.929 . S
C260 C262 1.378 . S
C260 C264 1.350 . S
C261 C264 1.463 . S
C261 C266 1.350 . S
C261 N269 1.427 . S
C262 H253 0.930 . S
C262 C260 1.378 . S
C262 C263 1.367 . S
C263 C262 1.367 . S
C263 C265 1.433 . S
C264 C260 1.350 . S
C264 C261 1.463 . S
C264 N268 1.427 . S
C265 H255 0.929 . S
C265 C263 1.433 . S
C265 N268 1.384 . S
C266 H257 0.929 . S
C266 C258 1.378 . S
C266 C261 1.350 . S
C267 H254 0.929 . S
C267 C259 1.433 . S
C267 N269 1.384 . S
N268 C264 1.427 . S
N268 C265 1.384 . S
N269 C261 1.427 . S
N269 C267 1.384 . S
H270 C276 0.930 . S
H271 C280 0.930 . S
H272 C285 0.929 . S
H273 C283 0.929 . S
H274 C278 0.929 . S
H275 C284 0.929 . S
C276 H270 0.930 . S
C276 C277 1.367 . S
C276 C284 1.378 . S
C277 C276 1.367 . S
C277 C285 1.433 . S
C278 H274 0.929 . S
C278 C280 1.378 . S
C278 C282 1.350 . S
C279 C282 1.463 . S
C279 C284 1.350 . S
C279 N287 1.427 . S
C280 H271 0.930 . S
C280 C278 1.378 . S
C280 C281 1.367 . S
C281 C280 1.367 . S
C281 C283 1.433 . S
C282 C278 1.350 . S
C282 C279 1.463 . S
C282 N286 1.427 . S
C283 H273 0.929 . S
C283 C281 1.433 . S
C283 N286 1.384 . S
C284 H275 0.929 . S
C284 C276 1.378 . S
C284 C279 1.350 . S
C285 H272 0.929 . S
C285 C277 1.433 . S
C285 N287 1.384 . S
N286 C282 1.427 . S
N286 C283 1.384 . S
N287 C279 1.427 . S
N287 C285 1.384 . S
H288 C294 0.930 . S
H289 C298 0.930 . S
H290 C303 0.929 . S
H291 C301 0.929 . S
H292 C296 0.929 . S
H293 C302 0.929 . S
C294 H288 0.930 . S
C294 C295 1.367 . S
C294 C302 1.378 . S
C295 C294 1.367 . S
C295 C303 1.433 . S
C296 H292 0.929 . S
C296 C298 1.378 . S
C296 C300 1.350 . S
C297 C300 1.463 . S
C297 C302 1.350 . S
C297 N305 1.427 . S
C298 H289 0.930 . S
C298 C296 1.378 . S
C298 C299 1.367 . S
C299 C298 1.367 . S
C299 C301 1.433 . S
C300 C296 1.350 . S
C300 C297 1.463 . S
C300 N304 1.427 . S
C301 H291 0.929 . S
C301 C299 1.433 . S
C301 N304 1.384 . S
C302 H293 0.929 . S
C302 C294 1.378 . S
C302 C297 1.350 . S
C303 H290 0.929 . S
C303 C295 1.433 . S
C303 N305 1.384 . S
N304 C300 1.427 . S
N304 C301 1.384 . S
N305 C297 1.427 . S
N305 C303 1.384 . S
H306 C312 0.930 . S
H307 C316 0.930 . S
H308 C321 0.929 . S
H309 C319 0.929 . S
H310 C314 0.929 . S
H311 C320 0.929 . S
C312 H306 0.930 . S
C312 C313 1.367 . S
C312 C320 1.378 . S
C313 C312 1.367 . S
C313 C321 1.433 . S
C314 H310 0.929 . S
C314 C316 1.378 . S
C314 C318 1.350 . S
C315 C318 1.463 . S
C315 C320 1.350 . S
C315 N323 1.427 . S
C316 H307 0.930 . S
C316 C314 1.378 . S
C316 C317 1.367 . S
C317 C316 1.367 . S
C317 C319 1.433 . S
C318 C314 1.350 . S
C318 C315 1.463 . S
C318 N322 1.427 . S
C319 H309 0.929 . S
C319 C317 1.433 . S
C319 N322 1.384 . S
C320 H311 0.929 . S
C320 C312 1.378 . S
C320 C315 1.350 . S
C321 H308 0.929 . S
C321 C313 1.433 . S
C321 N323 1.384 . S
N322 C318 1.427 . S
N322 C319 1.384 . S
N323 C315 1.427 . S
N323 C321 1.384 . S
H324 C330 0.930 . S
H325 C334 0.930 . S
H326 C339 0.929 . S
H327 C337 0.929 1_455 S
H328 C332 0.929 . S
H329 C338 0.929 . S
C330 H324 0.930 . S
C330 C331 1.367 . S
C330 C338 1.378 . S
C331 C330 1.367 . S
C331 C339 1.433 . S
C332 H328 0.929 . S
C332 C334 1.378 . S
C332 C336 1.350 . S
C333 C336 1.463 . S
C333 C338 1.350 . S
C333 N341 1.427 . S
C334 H325 0.930 . S
C334 C332 1.378 . S
C334 C335 1.367 1_655 S
C335 C334 1.367 1_455 S
C335 C337 1.433 1_455 S
C336 C332 1.350 . S
C336 C333 1.463 . S
C336 N340 1.427 . S
C337 H327 0.929 1_655 S
C337 C335 1.433 1_655 S
C337 N340 1.384 . S
C338 H329 0.929 . S
C338 C330 1.378 . S
C338 C333 1.350 . S
C339 H326 0.929 . S
C339 C331 1.433 . S
C339 N341 1.384 . S
N340 C336 1.427 . S
N340 C337 1.384 . S
N341 C333 1.427 . S
N341 C339 1.384 . S
H342 C348 0.930 . S
H343 C352 0.930 . S
H344 C357 0.929 . S
H345 C355 0.929 . S
H346 C350 0.929 . S
H347 C356 0.929 . S
C348 H342 0.930 . S
C348 C349 1.367 . S
C348 C356 1.378 . S
C349 C348 1.367 . S
C349 C357 1.433 . S
C350 H346 0.929 . S
C350 C352 1.378 . S
C350 C354 1.350 . S
C351 C354 1.463 . S
C351 C356 1.350 . S
C351 N359 1.427 . S
C352 H343 0.930 . S
C352 C350 1.378 . S
C352 C353 1.367 . S
C353 C352 1.367 . S
C353 C355 1.433 . S
C354 C350 1.350 . S
C354 C351 1.463 . S
C354 N358 1.427 . S
C355 H345 0.929 . S
C355 C353 1.433 . S
C355 N358 1.384 . S
C356 H347 0.929 . S
C356 C348 1.378 . S
C356 C351 1.350 . S
C357 H344 0.929 . S
C357 C349 1.433 . S
C357 N359 1.384 . S
N358 C354 1.427 . S
N358 C355 1.384 . S
N359 C351 1.427 . S
N359 C357 1.384 . S
H360 C366 0.930 . S
H361 C370 0.930 . S
H362 C375 0.929 . S
H363 C373 0.929 . S
H364 C368 0.929 . S
H365 C374 0.929 . S
C366 H360 0.930 . S
C366 C367 1.367 . S
C366 C374 1.378 . S
C367 C366 1.367 . S
C367 C375 1.433 . S
C368 H364 0.929 . S
C368 C370 1.378 . S
C368 C372 1.350 . S
C369 C372 1.463 . S
C369 C374 1.350 . S
C369 N377 1.427 . S
C370 H361 0.930 . S
C370 C368 1.378 . S
C370 C371 1.367 . S
C371 C370 1.367 . S
C371 C373 1.433 . S
C372 C368 1.350 . S
C372 C369 1.463 . S
C372 N376 1.427 . S
C373 H363 0.929 . S
C373 C371 1.433 . S
C373 N376 1.384 . S
C374 H365 0.929 . S
C374 C366 1.378 . S
C374 C369 1.350 . S
C375 H362 0.929 . S
C375 C367 1.433 . S
C375 N377 1.384 . S
N376 C372 1.427 . S
N376 C373 1.384 . S
N377 C369 1.427 . S
N377 C375 1.384 . S
H378 C384 0.930 . S
H379 C388 0.930 . S
H380 C393 0.929 . S
H381 C391 0.929 . S
H382 C386 0.929 . S
H383 C392 0.929 . S
C384 H378 0.930 . S
C384 C385 1.367 . S
C384 C392 1.378 . S
C385 C384 1.367 . S
C385 C393 1.433 . S
C386 H382 0.929 . S
C386 C388 1.378 . S
C386 C390 1.350 . S
C387 C390 1.463 . S
C387 C392 1.350 . S
C387 N395 1.427 . S
C388 H379 0.930 . S
C388 C386 1.378 . S
C388 C389 1.367 . S
C389 C388 1.367 . S
C389 C391 1.433 . S
C390 C386 1.350 . S
C390 C387 1.463 . S
C390 N394 1.427 . S
C391 H381 0.929 . S
C391 C389 1.433 . S
C391 N394 1.384 . S
C392 H383 0.929 . S
C392 C384 1.378 . S
C392 C387 1.350 . S
C393 H380 0.929 . S
C393 C385 1.433 . S
C393 N395 1.384 . S
N394 C390 1.427 . S
N394 C391 1.384 . S
N395 C387 1.427 . S
N395 C393 1.384 . S
H396 C402 0.930 . S
H397 C406 0.930 . S
H398 C411 0.929 . S
H399 C409 0.929 . S
H400 C404 0.929 . S
H401 C410 0.929 . S
C402 H396 0.930 . S
C402 C403 1.367 . S
C402 C410 1.378 . S
C403 C402 1.367 . S
C403 C411 1.433 . S
C404 H400 0.929 . S
C404 C406 1.378 . S
C404 C408 1.350 . S
C405 C408 1.463 . S
C405 C410 1.350 . S
C405 N413 1.427 . S
C406 H397 0.930 . S
C406 C404 1.378 . S
C406 C407 1.367 . S
C407 C406 1.367 . S
C407 C409 1.433 . S
C408 C404 1.350 . S
C408 C405 1.463 . S
C408 N412 1.427 . S
C409 H399 0.929 . S
C409 C407 1.433 . S
C409 N412 1.384 . S
C410 H401 0.929 . S
C410 C402 1.378 . S
C410 C405 1.350 . S
C411 H398 0.929 . S
C411 C403 1.433 . S
C411 N413 1.384 . S
N412 C408 1.427 . S
N412 C409 1.384 . S
N413 C405 1.427 . S
N413 C411 1.384 . S
H414 C420 0.930 . S
H415 C424 0.930 . S
H416 C429 0.929 . S
H417 C427 0.929 . S
H418 C422 0.929 1_554 S
H419 C428 0.929 1_655 S
C420 H414 0.930 . S
C420 C421 1.367 1_655 S
C420 C428 1.378 1_655 S
C421 C420 1.367 1_455 S
C421 C429 1.433 . S
C422 H418 0.929 1_556 S
C422 C424 1.378 . S
C422 C426 1.350 1_556 S
C423 C426 1.463 . S
C423 C428 1.350 . S
C423 N431 1.427 . S
C424 H415 0.930 . S
C424 C422 1.378 . S
C424 C425 1.367 . S
C425 C424 1.367 . S
C425 C427 1.433 . S
C426 C422 1.350 1_554 S
C426 C423 1.463 . S
C426 N430 1.427 1_554 S
C427 H417 0.929 . S
C427 C425 1.433 . S
C427 N430 1.384 . S
C428 H419 0.929 1_455 S
C428 C420 1.378 1_455 S
C428 C423 1.350 . S
C429 H416 0.929 . S
C429 C421 1.433 . S
C429 N431 1.384 . S
N430 C426 1.427 1_556 S
N430 C427 1.384 . S
N431 C423 1.427 . S
N431 C429 1.384 . S
H432 C438 0.930 . S
H433 C442 0.930 1_565 S
H434 C447 0.929 1_565 S
H435 C445 0.929 . S
H436 C440 0.929 1_565 S
H437 C446 0.929 . S
C438 H432 0.930 . S
C438 C439 1.367 . S
C438 C446 1.378 . S
C439 C438 1.367 . S
C439 C447 1.433 . S
C440 H436 0.929 1_545 S
C440 C442 1.378 . S
C440 C444 1.350 . S
C441 C444 1.463 . S
C441 C446 1.350 . S
C441 N449 1.427 . S
C442 H433 0.930 1_545 S
C442 C440 1.378 . S
C442 C443 1.367 . S
C443 C442 1.367 . S
C443 C445 1.433 . S
C444 C440 1.350 . S
C444 C441 1.463 . S
C444 N448 1.427 . S
C445 H435 0.929 . S
C445 C443 1.433 . S
C445 N448 1.384 . S
C446 H437 0.929 . S
C446 C438 1.378 . S
C446 C441 1.350 . S
C447 H434 0.929 1_545 S
C447 C439 1.433 . S
C447 N449 1.384 . S
N448 C444 1.427 . S
N448 C445 1.384 . S
N449 C441 1.427 . S
N449 C447 1.384 . S
H450 C456 0.930 . S
H451 C460 0.930 . S
H452 C465 0.929 . S
H453 C463 0.929 . S
H454 C458 0.929 . S
H455 C464 0.929 . S
C456 H450 0.930 . S
C456 C457 1.367 . S
C456 C464 1.378 . S
C457 C456 1.367 . S
C457 C465 1.433 . S
C458 H454 0.929 . S
C458 C460 1.378 . S
C458 C462 1.350 . S
C459 C462 1.463 . S
C459 C464 1.350 . S
C459 N467 1.427 . S
C460 H451 0.930 . S
C460 C458 1.378 . S
C460 C461 1.367 . S
C461 C460 1.367 . S
C461 C463 1.433 . S
C462 C458 1.350 . S
C462 C459 1.463 . S
C462 N466 1.427 . S
C463 H453 0.929 . S
C463 C461 1.433 . S
C463 N466 1.384 . S
C464 H455 0.929 . S
C464 C456 1.378 . S
C464 C459 1.350 . S
C465 H452 0.929 . S
C465 C457 1.433 . S
C465 N467 1.384 . S
N466 C462 1.427 . S
N466 C463 1.384 . S
N467 C459 1.427 . S
N467 C465 1.384 . S
H468 C474 0.930 . S
H469 C478 0.930 . S
H470 C483 0.929 . S
H471 C481 0.929 . S
H472 C476 0.929 . S
H473 C482 0.929 . S
C474 H468 0.930 . S
C474 C475 1.367 1_565 S
C474 C482 1.378 . S
C475 C474 1.367 1_545 S
C475 C483 1.433 . S
C476 H472 0.929 . S
C476 C478 1.378 . S
C476 C480 1.350 . S
C477 C480 1.463 . S
C477 C482 1.350 1_545 S
C477 N485 1.427 . S
C478 H469 0.930 . S
C478 C476 1.378 . S
C478 C479 1.367 . S
C479 C478 1.367 . S
C479 C481 1.433 1_545 S
C480 C476 1.350 . S
C480 C477 1.463 . S
C480 N484 1.427 1_545 S
C481 H471 0.929 . S
C481 C479 1.433 1_565 S
C481 N484 1.384 . S
C482 H473 0.929 . S
C482 C474 1.378 . S
C482 C477 1.350 1_565 S
C483 H470 0.929 . S
C483 C475 1.433 . S
C483 N485 1.384 . S
N484 C480 1.427 1_565 S
N484 C481 1.384 . S
N485 C477 1.427 . S
N485 C483 1.384 . S
H486 C492 0.930 . S
H487 C496 0.930 . S
H488 C501 0.929 . S
H489 C499 0.929 . S
H490 C494 0.929 1_556 S
H491 C500 0.929 . S
C492 H486 0.930 . S
C492 C493 1.367 . S
C492 C500 1.378 . S
C493 C492 1.367 . S
C493 C501 1.433 . S
C494 H490 0.929 1_554 S
C494 C496 1.378 . S
C494 C498 1.351 1_554 S
C495 C498 1.460 . S
C495 C500 1.350 . S
C495 N503 1.427 . S
C496 H487 0.930 . S
C496 C494 1.378 . S
C496 C497 1.367 . S
C497 C496 1.367 . S
C497 C499 1.433 . S
C498 C494 1.351 1_556 S
C498 C495 1.460 . S
C498 N502 1.429 1_556 S
C499 H489 0.929 . S
C499 C497 1.433 . S
C499 N502 1.384 . S
C500 H491 0.929 . S
C500 C492 1.378 . S
C500 C495 1.350 . S
C501 H488 0.929 . S
C501 C493 1.433 . S
C501 N503 1.384 . S
N502 C498 1.429 1_554 S
N502 C499 1.384 . S
N503 C495 1.427 . S
N503 C501 1.384 . S
H504 C510 0.930 . S
H505 C514 0.930 . S
H506 C519 0.929 . S
H507 C517 0.929 . S
H508 C512 0.929 . S
H509 C518 0.929 . S
C510 H504 0.930 . S
C510 C511 1.367 . S
C510 C518 1.378 . S
C511 C510 1.367 . S
C511 C519 1.433 . S
C512 H508 0.929 . S
C512 C514 1.378 . S
C512 C516 1.350 . S
C513 C516 1.463 . S
C513 C518 1.350 . S
C513 N521 1.427 . S
C514 H505 0.930 . S
C514 C512 1.378 . S
C514 C515 1.367 . S
C515 C514 1.367 . S
C515 C517 1.433 . S
C516 C512 1.350 . S
C516 C513 1.463 . S
C516 N520 1.427 . S
C517 H507 0.929 . S
C517 C515 1.433 . S
C517 N520 1.384 . S
C518 H509 0.929 . S
C518 C510 1.378 . S
C518 C513 1.350 . S
C519 H506 0.929 . S
C519 C511 1.433 . S
C519 N521 1.384 . S
N520 C516 1.427 . S
N520 C517 1.384 . S
N521 C513 1.427 . S
N521 C519 1.384 . S
C205 C24 3.030 . S
C209 C189 2.831 . S
C223 C66 1.100 . S
C227 C167 1.107 1_655 S
C241 C93 1.723 . S
C245 C180 1.704 . S
C259 C13 3.008 . S
C263 C193 2.969 . S
C281 C163 1.268 . S
C277 C57 1.321 . S
C299 C176 1.838 . S
C295 C104 1.998 . S
C313 C64 1.854 . S
C317 C141 1.816 . S
C331 C97 0.277 . S
C335 C154 0.251 . S
C349 C17 1.315 . S
C353 C124 1.268 . S
C371 C137 1.703 . S
C367 C53 1.843 . S
C389 C150 0.418 . S
C385 C106 0.407 . S
C403 C26 1.098 . S
C407 C128 1.122 . S
C425 C155 1.213 . S
C421 C2 1.193 . S
C439 C63 1.514 . S
C443 C129 1.591 . S
C457 C82 1.422 . S
C461 C142 1.445 . S
C479 C181 1.539 . S
C475 C42 1.519 . S
C497 C194 1.729 . S
C493 C103 1.700 . S
C511 C23 1.522 . S
C515 C168 1.579 . S
