# Generated by pormake.
# Topology anh, (6,3)-cn, num edge types: 1
# Building blocks:
#     Node 0, Type 0, BuildingBlock: CUWYAW_clean_sbu_0, # of connection points: 6
#     Node 1, Type 0, BuildingBlock: CUWYAW_clean_sbu_0, # of connection points: 6
#     Node 2, Type 0, BuildingBlock: CUWYAW_clean_sbu_0, # of connection points: 6
#     Node 3, Type 1, BuildingBlock: CUQRIR_clean_linker_1, # of connection points: 3
#     Node 4, Type 1, BuildingBlock: CUQRIR_clean_linker_1, # of connection points: 3
#     Node 5, Type 1, BuildingBlock: CUQRIR_clean_linker_1, # of connection points: 3
#     Node 6, Type 1, BuildingBlock: CUQRIR_clean_linker_1, # of connection points: 3
#     Node 7, Type 1, BuildingBlock: CUQRIR_clean_linker_1, # of connection points: 3
#     Node 8, Type 1, BuildingBlock: CUQRIR_clean_linker_1, # of connection points: 3
#     Edge 9, Type (0, 1), BuildingBlock: KIFKEQ_clean_linker_1, # of connection points: 2
#     Edge 10, Type (0, 1), BuildingBlock: KIFKEQ_clean_linker_1, # of connection points: 2
#     Edge 11, Type (0, 1), BuildingBlock: KIFKEQ_clean_linker_1, # of connection points: 2
#     Edge 12, Type (0, 1), BuildingBlock: KIFKEQ_clean_linker_1, # of connection points: 2
#     Edge 13, Type (0, 1), BuildingBlock: KIFKEQ_clean_linker_1, # of connection points: 2
#     Edge 14, Type (0, 1), BuildingBlock: KIFKEQ_clean_linker_1, # of connection points: 2
#     Edge 15, Type (0, 1), BuildingBlock: KIFKEQ_clean_linker_1, # of connection points: 2
#     Edge 16, Type (0, 1), BuildingBlock: KIFKEQ_clean_linker_1, # of connection points: 2
#     Edge 17, Type (0, 1), BuildingBlock: KIFKEQ_clean_linker_1, # of connection points: 2
#     Edge 18, Type (0, 1), BuildingBlock: KIFKEQ_clean_linker_1, # of connection points: 2
#     Edge 19, Type (0, 1), BuildingBlock: KIFKEQ_clean_linker_1, # of connection points: 2
#     Edge 20, Type (0, 1), BuildingBlock: KIFKEQ_clean_linker_1, # of connection points: 2
#     Edge 21, Type (0, 1), BuildingBlock: KIFKEQ_clean_linker_1, # of connection points: 2
#     Edge 22, Type (0, 1), BuildingBlock: KIFKEQ_clean_linker_1, # of connection points: 2
#     Edge 23, Type (0, 1), BuildingBlock: KIFKEQ_clean_linker_1, # of connection points: 2
#     Edge 24, Type (0, 1), BuildingBlock: KIFKEQ_clean_linker_1, # of connection points: 2
#     Edge 25, Type (0, 1), BuildingBlock: KIFKEQ_clean_linker_1, # of connection points: 2
#     Edge 26, Type (0, 1), BuildingBlock: KIFKEQ_clean_linker_1, # of connection points: 2
# Relax obj value: 0.294
# Max RMSD: 0.202
# Mean RMSD: 0.154
data_MOF--net-anh--node1-CUWYAW_clean_sbu_0--node2-CUQRIR_clean_linker_1--edge1-KIFKEQ_clean_linker_1
_symmetry_space_group_name_H-M    P1
_symmetry_Int_Tables_number       1
_symmetry_cell_setting            triclinic
loop_
_symmetry_equiv_pos_as_xyz
'x, y, z'
_cell_length_a     28.22383
_cell_length_b     28.03838
_cell_length_c     48.26017
_cell_angle_alpha  85.130912
_cell_angle_beta   90.610654
_cell_angle_gamma 120.27057
loop_
_atom_site_label
_atom_site_type_symbol
_atom_site_fract_x
_atom_site_fract_y
_atom_site_fract_z
_atom_type_partial_charge
C0 C 1.07149 0.41002 0.14706 0.0
Eu1 Eu 1.13566 0.51538 0.15066 0.0
C2 C 1.01474 0.37501 0.15863 0.0
C3 C 0.97056 0.37065 0.14306 0.0
C4 C 0.91986 0.35275 0.15622 0.0
C5 C 0.9125 0.33863 0.1851 0.0
C6 C 0.9548 0.33758 0.20013 0.0
C7 C 1.00541 0.35521 0.18697 0.0
C8 C 0.15606 0.55311 0.20233 0.0
C9 C 1.05641 0.57073 0.14604 0.0
C10 C 0.23785 0.73795 0.15667 0.0
Eu11 Eu 0.18643 0.63346 0.14838 0.0
C12 C 0.284 0.79507 0.15103 0.0
C13 C 0.28542 0.82812 0.12705 0.0
C14 C 0.31862 0.88573 0.12559 0.0
C15 C 0.35101 0.91112 0.14802 0.0
C16 C 0.35321 0.87769 0.17085 0.0
C17 C 0.31984 0.82018 0.17238 0.0
C18 C 0.16404 0.59405 0.09752 0.0
C19 C 0.26694 0.57939 0.14424 0.0
O20 O 1.07872 0.44764 0.12694 0.0
O21 O 1.10968 0.42985 0.16533 0.0
O22 O 0.16614 0.51632 0.19417 0.0
O23 O 1.13595 0.56947 0.18278 0.0
O24 O 1.0619 0.52809 0.14073 0.0
O25 O 1.09898 0.61472 0.15499 0.0
O26 O 0.2443 0.70121 0.17231 0.0
O27 O 0.20315 0.71672 0.13701 0.0
O28 O 0.15764 0.63419 0.10417 0.0
O29 O 0.18439 0.57902 0.11713 0.0
O30 O 0.26367 0.62331 0.15012 0.0
O31 O 0.22138 0.53293 0.13975 0.0
H32 H 0.97625 0.38506 0.12114 0.0
H33 H 0.88773 0.3537 0.14413 0.0
H34 H 0.94954 0.32555 0.22232 0.0
H35 H 1.0383 0.35711 0.19949 0.0
H36 H 0.25812 0.81 0.11022 0.0
H37 H 0.31673 0.91053 0.1076 0.0
H38 H 0.3774 0.89604 0.18861 0.0
H39 H 0.31907 0.79581 0.19122 0.0
C40 C 0.6213 0.21498 0.49992 0.0
Eu41 Eu 0.65012 0.14155 0.49482 0.0
C42 C 0.6546 0.27599 0.49494 0.0
C43 C 0.66912 0.3072 0.518 0.0
C44 C 0.71469 0.36055 0.5162 0.0
C45 C 0.74596 0.38391 0.49117 0.0
C46 C 0.72709 0.35589 0.46713 0.0
C47 C 0.68183 0.30195 0.46904 0.0
C48 C 0.66101 1.08417 0.54083 0.0
C49 C 0.78533 0.21472 0.4834 0.0
C50 C 0.76118 1.02719 0.48937 0.0
Eu51 Eu 0.70869 1.08126 0.48372 0.0
C52 C 0.80258 1.02412 0.50727 0.0
C53 C 0.78483 0.98099 0.52868 0.0
C54 C 0.82254 0.97425 0.54481 0.0
C55 C 0.87923 1.01026 0.5399 0.0
C56 C 0.89725 1.05427 0.51882 0.0
C57 C 0.85921 1.0612 0.50263 0.0
C58 C 0.67018 0.11022 0.43746 0.0
C59 C 0.57454 1.01457 0.48257 0.0
O60 O 0.60923 0.18615 0.47829 0.0
O61 O 0.63751 0.19416 0.52063 0.0
O62 O 0.61589 1.08294 0.5341 0.0
O63 O 0.69779 0.11358 0.52222 0.0
O64 O 0.7386 0.21469 0.48658 0.0
O65 O 0.78504 0.16729 0.48349 0.0
O66 O 0.77685 1.07052 0.47126 0.0
O67 O 0.71362 1.01074 0.50171 0.0
O68 O 0.67294 1.06527 0.44036 0.0
O69 O 0.69162 0.13838 0.45758 0.0
O70 O 0.61862 1.01104 0.489 0.0
O71 O 0.57791 1.06365 0.47976 0.0
H72 H 0.64843 0.28848 0.53811 0.0
H73 H 0.72767 0.38216 0.53486 0.0
H74 H 0.75021 0.37348 0.44753 0.0
H75 H 0.67108 0.27943 0.45073 0.0
H76 H 0.74154 0.95125 0.53255 0.0
H77 H 0.80704 0.93899 0.5603 0.0
H78 H 0.94068 1.08266 0.51451 0.0
H79 H 0.87419 1.09476 0.4862 0.0
C80 C 0.93072 0.74137 0.7974 0.0
Eu81 Eu 0.82907 0.698 0.81436 0.0
C82 C 0.9599 0.71563 0.78614 0.0
C83 C 1.00386 0.71733 0.80059 0.0
C84 C 1.02324 0.68218 0.79484 0.0
C85 C 0.99956 0.64498 0.77415 0.0
C86 C 0.95928 0.64762 0.75775 0.0
C87 C 0.93922 0.68217 0.76388 0.0
C88 C 0.79131 0.67914 0.86818 0.0
C89 C 0.76872 0.56129 0.81229 0.0
C90 C 0.60541 0.57036 0.84121 0.0
Eu91 Eu 0.70621 0.6281 0.82189 0.0
C92 C 0.56198 0.56545 0.85963 0.0
C93 C 0.55012 0.60812 0.86096 0.0
C94 C 0.50489 0.59888 0.87717 0.0
C95 C 0.47105 0.54686 0.89208 0.0
C96 C 0.48504 0.50545 0.89156 0.0
C97 C 0.53004 0.51474 0.87552 0.0
C98 C 0.74566 0.64685 0.7687 0.0
C99 C 0.76349 0.76487 0.8141 0.0
O100 O 0.89325 0.74317 0.78193 0.0
O101 O 0.91444 0.72608 0.82358 0.0
O102 O 0.83137 0.72626 0.85734 0.0
O103 O 0.7739 0.64412 0.85033 0.0
O104 O 0.81345 0.61071 0.80647 0.0
O105 O 0.72277 0.55746 0.82111 0.0
O106 O 0.64656 0.56952 0.8534 0.0
O107 O 0.61973 0.6034 0.81811 0.0
O108 O 0.70351 0.60016 0.77842 0.0
O109 O 0.76155 0.68074 0.78678 0.0
O110 O 0.72008 0.71668 0.82388 0.0
O111 O 0.81006 0.7675 0.80699 0.0
H112 H 1.0204 0.74275 0.81783 0.0
H113 H 1.05372 0.68129 0.80831 0.0
H114 H 0.94091 0.62072 0.74123 0.0
H115 H 0.90529 0.68001 0.75229 0.0
H116 H 0.57479 0.64781 0.84903 0.0
H117 H 0.49549 0.63183 0.87739 0.0
H118 H 0.45953 0.46464 0.9023 0.0
H119 H 0.53877 0.48139 0.87475 0.0
C120 C 0.53735 0.29293 0.23743 0.0
N121 N 0.56325 0.28863 0.26041 0.0
N122 N 0.48561 0.24897 0.2369 0.0
C123 C 0.56569 0.33589 0.21314 0.0
C124 C 0.47817 0.22332 0.26299 0.0
N125 N 0.52532 0.24652 0.27701 0.0
C126 C 0.42513 0.1733 0.274 0.0
H127 H 0.5857 0.3778 0.22068 0.0
H128 H 0.53601 0.33277 0.1971 0.0
H129 H 0.59853 0.33109 0.20369 0.0
H130 H 0.41987 0.13601 0.26482 0.0
H131 H 0.39013 0.17889 0.26794 0.0
H132 H 0.42411 0.16666 0.29702 0.0
C133 C 1.03416 0.75749 0.56407 0.0
N134 N 1.01805 0.76677 0.58842 0.0
N135 N 1.02216 0.70414 0.56432 0.0
C136 C 1.05282 0.79767 0.53832 0.0
C137 C 0.99992 0.68198 0.59026 0.0
N138 N 0.99596 0.71931 0.60464 0.0
C139 C 0.97598 0.62158 0.60019 0.0
H140 H 1.06394 0.78133 0.5209 0.0
H141 H 1.08917 0.83751 0.54283 0.0
H142 H 1.01968 0.80617 0.53195 0.0
H143 H 0.96886 0.61426 0.62311 0.0
H144 H 1.00422 0.60715 0.59427 0.0
H145 H 0.93655 0.59667 0.58999 0.0
C146 C 1.06259 0.36036 0.89262 0.0
N147 N 1.07586 0.37438 0.9189 0.0
N148 N 1.02178 0.36932 0.88355 0.0
C149 C 1.0936 0.34289 0.87473 0.0
C150 C 1.00729 0.38457 0.90657 0.0
N151 N 1.04014 0.38782 0.92783 0.0
C152 C 0.96476 0.4019 0.90741 0.0
H153 H 1.13619 0.3778 0.87033 0.0
H154 H 1.07297 0.32893 0.85488 0.0
H155 H 1.09637 0.30842 0.88619 0.0
H156 H 0.92552 0.36931 0.89975 0.0
H157 H 0.97871 0.44077 0.89369 0.0
H158 H 0.95658 0.4083 0.92879 0.0
C159 C 0.1776 0.61936 0.44993 0.0
N160 N 1.14428 0.58243 0.43176 0.0
N161 N 0.2231 0.66325 0.43653 0.0
C162 C 0.16513 0.61317 0.48064 0.0
C163 C 0.21625 0.65135 0.40963 0.0
N164 N 0.16907 0.60294 0.40663 0.0
C165 C 0.25649 0.68689 0.38607 0.0
H166 H 1.1367 0.62867 0.48429 0.0
H167 H 0.20278 0.63749 0.4922 0.0
H168 H 1.14474 0.56887 0.48883 0.0
H169 H 0.25569 0.66138 0.36951 0.0
H170 H 0.29886 0.71017 0.39358 0.0
H171 H 0.24502 0.71713 0.37686 0.0
C172 C 0.75452 0.15942 0.7816 0.0
N173 N 0.74447 0.11854 0.76475 0.0
N174 N 0.74633 0.19949 0.76823 0.0
C175 C 0.76843 0.15846 0.81168 0.0
C176 C 0.73126 0.18161 0.74264 0.0
N177 N 0.72957 0.13277 0.74053 0.0
C178 C 0.72147 0.21389 0.71896 0.0
H179 H 0.75468 0.18206 0.82333 0.0
H180 H 0.81362 0.17819 0.81309 0.0
H181 H 0.74921 0.11521 0.82143 0.0
H182 H 0.74396 0.25893 0.72158 0.0
H183 H 0.67693 0.1993 0.71846 0.0
H184 H 0.7346 0.20739 0.69872 0.0
C185 C 0.67 0.58757 0.11617 0.0
N186 N 0.70886 0.59054 0.09804 0.0
N187 N 0.62926 0.59149 0.1024 0.0
C188 C 0.66916 0.57639 0.14719 0.0
C189 C 0.64495 0.59724 0.07532 0.0
N190 N 0.69215 0.59595 0.07255 0.0
C191 C 0.61567 0.60771 0.05135 0.0
H192 H 0.68819 0.55079 0.15287 0.0
H193 H 0.6265 0.55495 0.15605 0.0
H194 H 0.69282 0.61645 0.15646 0.0
H195 H 0.64514 0.63484 0.03412 0.0
H196 H 0.59268 0.62753 0.05799 0.0
H197 H 0.58615 0.56759 0.04334 0.0
H198 H 0.37376 0.67028 0.14335 0.0
H199 H 0.28532 0.49369 0.13767 0.0
H200 H 0.46072 0.67239 0.13572 0.0
H201 H 0.37115 0.49523 0.13104 0.0
H202 H 0.52595 0.51831 0.08875 0.0
H203 H 0.4413 0.51704 0.09964 0.0
H204 H 0.5304 0.65263 0.15066 0.0
H205 H 0.61603 0.65463 0.13854 0.0
C206 C 0.37264 0.63176 0.14072 0.0
C207 C 0.32167 0.5819 0.14095 0.0
C208 C 0.42291 0.63284 0.13646 0.0
C209 C 0.4242 0.58406 0.13234 0.0
C210 C 0.37304 0.53421 0.1333 0.0
C211 C 0.32314 0.53322 0.13737 0.0
C212 C 0.52741 0.5475 0.10253 0.0
C213 C 0.57809 0.58637 0.11278 0.0
C214 C 0.47844 0.54672 0.10902 0.0
C215 C 0.47765 0.58468 0.12625 0.0
C216 C 0.52849 0.62296 0.13708 0.0
C217 C 0.5778 0.62371 0.13049 0.0
H218 H 0.89129 0.23387 0.47728 0.0
H219 H 0.8014 0.32051 0.47551 0.0
H220 H 0.97614 0.32137 0.46553 0.0
H221 H 0.88537 0.40786 0.46236 0.0
H222 H 1.05314 0.56809 0.45905 0.0
H223 H 0.96865 0.48117 0.47295 0.0
H224 H 1.03141 0.39142 0.43254 0.0
H225 H 1.11691 0.47805 0.42068 0.0
C226 C 0.88936 0.27156 0.47432 0.0
C227 C 0.83864 0.26935 0.47743 0.0
C228 C 0.93843 0.3223 0.4672 0.0
C229 C 0.93895 0.37313 0.46257 0.0
C230 C 0.88806 0.37071 0.46601 0.0
C231 C 0.83919 0.32004 0.47342 0.0
C232 C 1.04889 0.52971 0.45323 0.0
C233 C 1.09211 0.53068 0.43832 0.0
C234 C 0.99983 0.47938 0.461 0.0
C235 C 0.99176 0.42778 0.45406 0.0
C236 C 1.03516 0.42925 0.43886 0.0
C237 C 1.08432 0.47954 0.43135 0.0
H238 H 0.84596 0.87077 0.79711 0.0
H239 H 0.67247 0.77818 0.81829 0.0
H240 H 0.84066 0.95389 0.78526 0.0
H241 H 0.66721 0.86228 0.8068 0.0
H242 H 0.66629 1.01187 0.75739 0.0
H243 H 0.66975 0.92705 0.76994 0.0
H244 H 0.83114 1.02529 0.80192 0.0
H245 H 0.82791 0.10962 0.78843 0.0
C246 C 0.80653 0.86801 0.79957 0.0
C247 C 0.75971 0.81695 0.80888 0.0
C248 C 0.80353 0.9163 0.79282 0.0
C249 C 0.75349 0.9159 0.79495 0.0
C250 C 0.70655 0.86485 0.80446 0.0
C251 C 0.70963 0.81636 0.81137 0.0
C252 C 0.70271 1.01531 0.76683 0.0
C253 C 0.74684 1.06793 0.77182 0.0
C254 C 0.70452 0.9664 0.77443 0.0
C255 C 0.75074 0.96829 0.78715 0.0
C256 C 0.79493 1.02127 0.79195 0.0
C257 C 0.79298 1.07 0.78445 0.0
H258 H 0.95656 0.48731 0.12849 0.0
H259 H 1.03571 0.6562 0.14971 0.0
H260 H 0.87353 0.49101 0.11735 0.0
H261 H 0.95411 0.66078 0.13782 0.0
H262 H 0.78564 0.64598 0.13585 0.0
H263 H 0.86572 0.63859 0.14854 0.0
H264 H 0.82719 0.52199 0.08712 0.0
H265 H 0.74521 0.52744 0.07573 0.0
C266 C 0.95646 0.52533 0.13085 0.0
C267 C 1.00356 0.57128 0.14029 0.0
C268 C 0.90858 0.52775 0.12415 0.0
C269 C 0.90573 0.57631 0.12648 0.0
C270 C 0.95302 0.62203 0.13606 0.0
C271 C 1.0006 0.61951 0.14285 0.0
C272 C 0.79383 0.61827 0.12524 0.0
C273 C 0.75819 0.58726 0.10476 0.0
C274 C 0.84067 0.61446 0.13227 0.0
C275 C 0.85444 0.57969 0.11899 0.0
C276 C 0.81867 0.54882 0.09833 0.0
C277 C 0.77161 0.55253 0.09138 0.0
H278 H 0.47255 1.00261 0.47232 0.0
H279 H 0.55381 0.90723 0.48219 0.0
H280 H 0.38655 0.91878 0.46419 0.0
H281 H 0.46852 0.82368 0.47314 0.0
H282 H 0.29818 0.66906 0.47421 0.0
H283 H 0.38045 0.7526 0.48737 0.0
H284 H 0.33613 0.85377 0.4333 0.0
H285 H 0.25319 0.77023 0.42145 0.0
C286 C 0.47231 0.96381 0.47271 0.0
C287 C 0.52085 0.96243 0.47802 0.0
C288 C 0.42263 0.91528 0.46779 0.0
C289 C 0.41938 0.86323 0.4678 0.0
C290 C 0.46807 0.86201 0.47331 0.0
C291 C 0.51764 0.91049 0.47837 0.0
C292 C 0.30544 0.70931 0.46578 0.0
C293 C 0.2684 0.71277 0.44712 0.0
C294 C 0.35335 0.75758 0.47292 0.0
C295 C 0.36626 0.81116 0.46145 0.0
C296 C 0.32824 0.81418 0.44314 0.0
C297 C 0.28038 0.76601 0.43616 0.0
H298 H 0.68368 0.45424 0.82303 0.0
H299 H 0.8516 0.5462 0.79133 0.0
H300 H 0.67915 0.3678 0.81495 0.0
H301 H 0.84653 0.45858 0.78275 0.0
H302 H 0.83438 0.2868 0.78955 0.0
H303 H 0.84145 0.37386 0.80135 0.0
H304 H 0.67288 0.31177 0.77988 0.0
H305 H 0.66596 0.22514 0.76878 0.0
C306 C 0.71991 0.45632 0.81427 0.0
C307 C 0.76806 0.50811 0.80785 0.0
C308 C 0.71711 0.40616 0.80941 0.0
C309 C 0.76234 0.40528 0.79787 0.0
C310 C 0.81093 0.45703 0.79186 0.0
C311 C 0.81376 0.50756 0.79668 0.0
C312 C 0.79868 0.29157 0.78787 0.0
C313 C 0.74946 0.24868 0.77836 0.0
C314 C 0.80289 0.34188 0.79429 0.0
C315 C 0.75797 0.35087 0.79165 0.0
C316 C 0.70846 0.30706 0.78269 0.0
C317 C 0.70438 0.25712 0.77616 0.0
H318 H 0.8752 0.97454 0.59492 0.0
H319 H 0.97059 1.0144 0.5182 0.0
H320 H 0.92035 0.92544 0.61487 0.0
H321 H 1.01698 0.96716 0.53867 0.0
H322 H 1.09298 0.87593 0.5874 0.0
H323 H 1.07348 0.95253 0.58218 0.0
H324 H 0.89992 0.8336 0.59067 0.0
H325 H 0.91931 0.75816 0.59372 0.0
C326 C 0.90703 0.97441 0.58263 0.0
C327 C 0.91818 0.99698 0.55469 0.0
C328 C 0.9331 0.94673 0.59417 0.0
C329 C 0.97156 0.94217 0.57816 0.0
C330 C 0.98767 0.9705 0.55147 0.0
C331 C 0.96103 0.99757 0.53976 0.0
C332 C 1.05087 0.8667 0.58871 0.0
C333 C 1.00763 0.81139 0.59139 0.0
C334 C 1.03979 0.91022 0.58584 0.0
C335 C 0.98529 0.89877 0.58642 0.0
C336 C 0.94233 0.84355 0.59084 0.0
C337 C 0.95337 0.8003 0.59283 0.0
H338 H 1.09564 0.64512 0.78418 0.0
H339 H 0.92819 0.53788 0.7619 0.0
H340 H 1.10224 0.56576 0.80072 0.0
H341 H 0.93653 0.45737 0.77551 0.0
H342 H 0.93051 0.35007 0.85545 0.0
H343 H 0.92911 0.41073 0.81702 0.0
H344 H 1.10538 0.4887 0.80578 0.0
H345 H 1.10733 0.43703 0.84758 0.0
C346 C 1.06055 0.60439 0.78206 0.0
C347 C 1.01029 0.59819 0.7734 0.0
C348 C 1.06454 0.55809 0.79115 0.0
C349 C 1.01882 0.50407 0.79086 0.0
C350 C 0.97165 0.49802 0.77763 0.0
C351 C 0.96718 0.54456 0.76929 0.0
C352 C 0.96885 0.38052 0.84482 0.0
C353 C 1.01894 0.38986 0.85542 0.0
C354 C 0.96812 0.41465 0.82212 0.0
C355 C 1.01747 0.45685 0.80857 0.0
C356 C 1.06665 0.45921 0.81641 0.0
C357 C 1.06765 0.42787 0.84012 0.0
H358 H 0.30567 0.97596 0.13497 0.0
H359 H 0.45265 0.98204 0.1658 0.0
H360 H 0.33975 1.0705 0.14694 0.0
H361 H 0.48531 1.0745 0.17909 0.0
H362 H 0.54856 0.23586 0.19982 0.0
H363 H 0.51843 0.16791 0.16692 0.0
H364 H 0.34957 0.112 0.18979 0.0
H365 H 0.38048 0.18706 0.2202 0.0
C366 C 0.34591 0.99804 0.14364 0.0
C367 C 0.37644 0.97156 0.14968 0.0
C368 C 0.36504 1.0519 0.15084 0.0
C369 C 0.415 1.08014 0.16419 0.0
C370 C 0.44699 1.05469 0.16846 0.0
C371 C 0.42807 1.00124 0.16114 0.0
C372 C 0.50498 0.21198 0.19669 0.0
C373 C 0.46691 0.21726 0.21293 0.0
C374 C 0.48761 0.17162 0.17818 0.0
C375 C 0.4317 0.13293 0.17652 0.0
C376 C 0.39316 0.14092 0.1907 0.0
C377 C 0.41074 0.18339 0.20847 0.0
H378 H 0.79067 0.47992 0.45611 0.0
H379 H 0.82622 0.39865 0.52635 0.0
H380 H 0.87751 0.56587 0.46171 0.0
H381 H 0.91152 0.4836 0.53236 0.0
H382 H 1.05492 0.63486 0.54798 0.0
H383 H 1.00274 0.55966 0.51811 0.0
H384 H 0.8954 0.62531 0.49902 0.0
H385 H 0.94726 0.69919 0.52849 0.0
C386 C 0.81754 0.4803 0.47238 0.0
C387 C 0.80115 0.43361 0.49144 0.0
C388 C 0.86719 0.52923 0.47556 0.0
C389 C 0.90116 0.53183 0.49769 0.0
C390 C 0.88676 0.48326 0.515 0.0
C391 C 0.83728 0.43479 0.51193 0.0
C392 C 1.02154 0.63408 0.53638 0.0
C393 C 1.00465 0.6722 0.54061 0.0
C394 C 0.99159 0.59118 0.51939 0.0
C395 C 0.94423 0.58588 0.50663 0.0
C396 C 0.93176 0.62816 0.50828 0.0
C397 C 0.9615 0.67068 0.52522 0.0
H398 H 0.42159 0.48324 0.94114 0.0
H399 H 0.39844 0.57655 0.8717 0.0
H400 H 0.32565 0.4441 0.95641 0.0
H401 H 0.30396 0.53852 0.88706 0.0
H402 H 1.13669 0.32708 0.93438 0.0
H403 H 0.23736 0.37646 0.93588 0.0
H404 H 0.24147 0.5329 0.92258 0.0
H405 H 1.14259 0.48359 0.91894 0.0
C406 C 0.3964 0.4962 0.92945 0.0
C407 C 0.41757 0.5327 0.90505 0.0
C408 C 0.34159 0.47377 0.93821 0.0
C409 C 0.30724 0.48802 0.92291 0.0
C410 C 0.32951 0.52731 0.89963 0.0
C411 C 0.38397 0.54937 0.89081 0.0
C412 C 0.15943 0.37197 0.93259 0.0
C413 C 1.13216 0.40167 0.92692 0.0
C414 C 0.2168 0.4003 0.9336 0.0
C415 C 0.24727 0.45861 0.92903 0.0
C416 C 0.21923 0.48803 0.92584 0.0
C417 C 0.16247 0.45985 0.9243 0.0
H418 H 0.9072 0.38449 0.23167 0.0
H419 H 0.80629 0.27486 0.17098 0.0
H420 H 0.82508 0.37407 0.25463 0.0
H421 H 0.72463 0.26514 0.1936 0.0
H422 H 0.66038 0.38617 0.25751 0.0
H423 H 0.74958 0.39929 0.24202 0.0
H424 H 0.67522 0.22213 0.23987 0.0
H425 H 0.58729 0.20983 0.2541 0.0
C426 C 0.86738 0.35768 0.22348 0.0
C427 C 0.86278 0.3299 0.19976 0.0
C428 C 0.82069 0.35233 0.2364 0.0
C429 C 0.76877 0.31864 0.22595 0.0
C430 C 0.76426 0.29083 0.20228 0.0
C431 C 0.81084 0.29652 0.18926 0.0
C432 C 0.66405 0.35037 0.2544 0.0
C433 C 0.61765 0.29705 0.25734 0.0
C434 C 0.71464 0.35767 0.24558 0.0
C435 C 0.71877 0.31163 0.23949 0.0
C436 C 0.67295 0.25828 0.24411 0.0
C437 C 0.62292 0.25116 0.25271 0.0
H438 H 0.18448 0.51718 0.07928 0.0
H439 H 1.09553 0.60302 0.0599 0.0
H440 H 1.14779 0.46504 0.03892 0.0
H441 H 1.05671 0.5492 0.01996 0.0
H442 H 1.04196 0.34511 0.97926 0.0
H443 H 1.06658 0.39342 0.02161 0.0
H444 H 1.08177 0.53932 0.97477 0.0
H445 H 1.05533 0.48985 0.93299 0.0
C446 C 0.15685 0.52468 0.06636 0.0
C447 C 1.14307 0.56428 0.0725 0.0
C448 C 1.13525 0.49434 0.04341 0.0
C449 C 1.09879 0.50245 0.02627 0.0
C450 C 1.08509 0.54228 0.03251 0.0
C451 C 1.10724 0.57309 0.05536 0.0
C452 C 1.04915 0.38697 0.97845 0.0
C453 C 1.04574 0.41346 0.95322 0.0
C454 C 1.06394 0.41497 0.00248 0.0
C455 C 1.07673 0.47055 0.00158 0.0
C456 C 1.07139 0.49635 0.9764 0.0
C457 C 1.05597 0.46803 0.95248 0.0
H458 H 0.63016 1.0608 0.38906 0.0
H459 H 0.65919 0.20023 0.43269 0.0
H460 H 0.59306 1.09278 0.35061 0.0
H461 H 0.61632 0.22869 0.39669 0.0
H462 H 0.59112 0.3045 0.31648 0.0
H463 H 0.62741 0.27132 0.35423 0.0
H464 H 0.52416 1.10316 0.33235 0.0
H465 H 0.49409 0.13822 0.29248 0.0
C466 C 0.62759 1.09775 0.39062 0.0
C467 C 0.64686 0.1278 0.41399 0.0
C468 C 0.60564 0.11588 0.36875 0.0
C469 C 0.60118 0.16361 0.37021 0.0
C470 C 0.61991 0.1927 0.39406 0.0
C471 C 0.64353 0.17572 0.41521 0.0
C472 C 0.57584 0.26039 0.3201 0.0
C473 C 0.53829 0.22397 0.3021 0.0
C474 C 0.59628 0.24098 0.34193 0.0
C475 C 0.57846 0.18401 0.34696 0.0
C476 C 0.53962 0.1473 0.32924 0.0
C477 C 0.5207 0.16717 0.30676 0.0
H478 H 0.81957 0.74533 0.7417 0.0
H479 H 0.7464 0.56866 0.73882 0.0
H480 H 0.88102 0.76183 0.70227 0.0
H481 H 0.80845 0.58495 0.69946 0.0
H482 H 1.02229 0.7703 0.65203 0.0
H483 H 0.96019 0.75129 0.69207 0.0
H484 H 0.82675 0.62217 0.65034 0.0
H485 H 0.8888 0.64144 0.61078 0.0
C486 C 0.81655 0.71004 0.73247 0.0
C487 C 0.77837 0.65576 0.7432 0.0
C488 C 0.85201 0.71946 0.71007 0.0
C489 C 0.85002 0.67473 0.69791 0.0
C490 C 0.81075 0.6203 0.70826 0.0
C491 C 0.77513 0.6109 0.7307 0.0
C492 C 0.9798 0.73756 0.65179 0.0
C493 C 0.96052 0.70635 0.62882 0.0
C494 C 0.94419 0.72687 0.67447 0.0
C495 C 0.88854 0.685 0.6744 0.0
C496 C 0.86952 0.65385 0.65132 0.0
C497 C 0.90504 0.66462 0.62875 0.0
H498 H 0.58756 1.01606 0.58238 0.0
H499 H 0.75994 0.13286 0.56633 0.0
H500 H 0.60271 1.01153 0.63211 0.0
H501 H 0.77508 0.13113 0.61618 0.0
H502 H 0.79678 0.11641 0.708 0.0
H503 H 0.78059 1.09125 0.65985 0.0
H504 H 0.61676 1.0659 0.6679 0.0
H505 H 0.63298 1.08851 0.71587 0.0
C506 C 0.62888 1.04044 0.58952 0.0
C507 C 0.6724 1.07512 0.57041 0.0
C508 C 0.63762 1.03837 0.61816 0.0
C509 C 0.69004 1.07185 0.62865 0.0
C510 C 0.73416 0.10427 0.60923 0.0
C511 C 0.7255 0.10555 0.5805 0.0
C512 C 0.75673 1.10314 0.6996 0.0
C513 C 0.71593 0.10392 0.71559 0.0
C514 C 0.7476 1.08973 0.67184 0.0
C515 C 0.69749 1.07714 0.65943 0.0
C516 C 0.65563 1.07445 0.67637 0.0
C517 C 0.66474 1.08742 0.70401 0.0
H518 H 0.81702 0.74938 0.90898 0.0
H519 H 0.74125 0.57589 0.89656 0.0
H520 H 0.8 0.72603 0.95908 0.0
H521 H 0.72724 0.55216 0.94665 0.0
H522 H 0.64919 0.52414 0.03379 0.0
H523 H 0.67566 0.5429 0.98463 0.0
H524 H 0.82016 0.69709 0.00144 0.0
H525 H 0.7905 0.67874 0.05072 0.0
C526 C 0.79707 0.70616 0.91704 0.0
C527 C 0.78007 0.66453 0.89874 0.0
C528 C 0.78787 0.69262 0.94593 0.0
C529 C 0.76224 0.63694 0.9575 0.0
C530 C 0.74603 0.59543 0.93895 0.0
C531 C 0.75426 0.60899 0.91005 0.0
C532 C 0.68745 0.56121 0.02696 0.0
C533 C 0.71785 0.59985 0.04601 0.0
C534 C 0.70286 0.57228 -0.00137 0.0
C535 C 0.74993 0.62218 0.98843 0.0
C536 C 0.78282 0.6589 0.00806 0.0
C537 C 0.76671 0.648 0.03649 0.0
H538 H 1.09003 0.58195 0.22978 0.0
H539 H 0.21682 0.54057 0.24285 0.0
H540 H 1.08191 0.58496 0.27999 0.0
H541 H 0.21187 0.54701 0.2924 0.0
H542 H 0.17747 0.52389 0.38274 0.0
H543 H 0.16664 0.50703 0.3338 0.0
H544 H 1.11682 0.62962 0.31943 0.0
H545 H 1.123 0.64174 0.36909 0.0
C546 C 1.11684 0.57446 0.24337 0.0
C547 C 0.154 0.56092 0.23234 0.0
C548 C 1.11234 0.57622 0.27229 0.0
C549 C 1.14562 0.56546 0.2909 0.0
C550 C 0.18391 0.55365 0.27938 0.0
C551 C 0.18749 0.55076 0.25071 0.0
C552 C 0.16089 0.54447 0.36938 0.0
C553 C 0.14866 0.5822 0.38001 0.0
C554 C 0.15648 0.53645 0.34093 0.0
C555 C 1.14197 0.5678 0.32194 0.0
C556 C 1.12748 0.60395 0.33297 0.0
C557 C 1.13064 0.61082 0.36158 0.0
loop_
_geom_bond_atom_site_label_1
_geom_bond_atom_site_label_2
_geom_bond_distance
_geom_bond_site_symmetry_2
_ccdc_geom_bond_type
C0 Eu1 2.835 . S
C0 C2 1.500 . S
C0 O20 1.257 . S
C0 O21 1.260 . S
Eu1 C0 2.835 . S
Eu1 O20 2.473 . S
Eu1 O21 2.480 . S
Eu1 O22 2.430 1_655 S
Eu1 O23 2.670 1_655 S
Eu1 O24 2.394 . S
Eu1 O29 2.355 1_655 S
Eu1 O31 2.374 1_655 S
C2 C0 1.500 . S
C2 C3 1.377 . S
C2 C7 1.377 . S
C3 C2 1.377 . S
C3 C4 1.395 . S
C3 H32 0.931 . S
C4 C3 1.395 . S
C4 C5 1.383 . S
C4 H33 0.931 . S
C5 C4 1.383 . S
C5 C6 1.394 . S
C6 C5 1.394 . S
C6 C7 1.378 . S
C6 H34 0.931 . S
C7 C2 1.377 . S
C7 C6 1.378 . S
C7 H35 0.931 . S
C8 O22 1.259 . S
C8 O23 1.270 . S
C9 O24 1.251 . S
C9 O25 1.251 . S
C10 Eu11 2.835 . S
C10 C12 1.500 . S
C10 O26 1.257 . S
C10 O27 1.260 . S
Eu11 C10 2.835 . S
Eu11 O23 2.355 . S
Eu11 O25 2.374 1_455 S
Eu11 O26 2.473 . S
Eu11 O27 2.480 . S
Eu11 O28 2.430 . S
Eu11 O29 2.670 . S
Eu11 O30 2.394 . S
C12 C10 1.500 . S
C12 C13 1.377 . S
C12 C17 1.377 . S
C13 C12 1.377 . S
C13 C14 1.395 . S
C13 H36 0.931 . S
C14 C13 1.395 . S
C14 C15 1.383 . S
C14 H37 0.931 . S
C15 C14 1.383 . S
C15 C16 1.394 . S
C16 C15 1.394 . S
C16 C17 1.378 . S
C16 H38 0.931 . S
C17 C12 1.377 . S
C17 C16 1.378 . S
C17 H39 0.931 . S
C18 O28 1.259 . S
C18 O29 1.270 . S
C19 O30 1.251 . S
C19 O31 1.251 . S
O20 C0 1.257 . S
O20 Eu1 2.473 . S
O21 C0 1.260 . S
O21 Eu1 2.480 . S
O22 Eu1 2.430 1_455 S
O22 C8 1.259 . S
O23 Eu1 2.670 1_455 S
O23 C8 1.270 . S
O23 Eu11 2.355 . S
O24 Eu1 2.394 . S
O24 C9 1.251 . S
O25 C9 1.251 . S
O25 Eu11 2.374 1_655 S
O26 C10 1.257 . S
O26 Eu11 2.473 . S
O27 C10 1.260 . S
O27 Eu11 2.480 . S
O28 Eu11 2.430 . S
O28 C18 1.259 . S
O29 Eu1 2.355 1_455 S
O29 Eu11 2.670 . S
O29 C18 1.270 . S
O30 Eu11 2.394 . S
O30 C19 1.251 . S
O31 Eu1 2.374 1_455 S
O31 C19 1.251 . S
H32 C3 0.931 . S
H33 C4 0.931 . S
H34 C6 0.931 . S
H35 C7 0.931 . S
H36 C13 0.931 . S
H37 C14 0.931 . S
H38 C16 0.931 . S
H39 C17 0.931 . S
C40 Eu41 2.835 . S
C40 C42 1.500 . S
C40 O60 1.257 . S
C40 O61 1.260 . S
Eu41 C40 2.835 . S
Eu41 O60 2.473 . S
Eu41 O61 2.480 . S
Eu41 O62 2.430 . S
Eu41 O63 2.670 . S
Eu41 O64 2.394 . S
Eu41 O69 2.355 . S
Eu41 O71 2.374 1_545 S
C42 C40 1.500 . S
C42 C43 1.377 . S
C42 C47 1.377 . S
C43 C42 1.377 . S
C43 C44 1.395 . S
C43 H72 0.931 . S
C44 C43 1.395 . S
C44 C45 1.383 . S
C44 H73 0.931 . S
C45 C44 1.383 . S
C45 C46 1.394 . S
C46 C45 1.394 . S
C46 C47 1.378 . S
C46 H74 0.931 . S
C47 C42 1.377 . S
C47 C46 1.378 . S
C47 H75 0.931 . S
C48 O62 1.259 . S
C48 O63 1.270 . S
C49 O64 1.251 . S
C49 O65 1.251 . S
C50 Eu51 2.857 . S
C50 C52 1.500 . S
C50 O66 1.257 . S
C50 O67 1.260 . S
Eu51 C50 2.857 . S
Eu51 O63 2.344 1_565 S
Eu51 O65 2.356 1_565 S
Eu51 O66 2.491 . S
Eu51 O67 2.501 . S
Eu51 O68 2.426 1_565 S
Eu51 O69 2.652 1_565 S
Eu51 O70 2.397 . S
C52 C50 1.500 . S
C52 C53 1.377 . S
C52 C57 1.377 . S
C53 C52 1.377 . S
C53 C54 1.395 . S
C53 H76 0.931 . S
C54 C53 1.395 . S
C54 C55 1.383 . S
C54 H77 0.931 . S
C55 C54 1.383 . S
C55 C56 1.394 . S
C56 C55 1.394 . S
C56 C57 1.378 . S
C56 H78 0.931 . S
C57 C52 1.377 . S
C57 C56 1.378 . S
C57 H79 0.931 . S
C58 O68 1.259 . S
C58 O69 1.270 . S
C59 O70 1.251 . S
C59 O71 1.251 . S
O60 C40 1.257 . S
O60 Eu41 2.473 . S
O61 C40 1.260 . S
O61 Eu41 2.480 . S
O62 Eu41 2.430 . S
O62 C48 1.259 . S
O63 Eu41 2.670 . S
O63 C48 1.270 . S
O63 Eu51 2.344 1_545 S
O64 Eu41 2.394 . S
O64 C49 1.251 . S
O65 C49 1.251 . S
O65 Eu51 2.356 1_545 S
O66 C50 1.257 . S
O66 Eu51 2.491 . S
O67 C50 1.260 . S
O67 Eu51 2.501 . S
O68 Eu51 2.426 1_545 S
O68 C58 1.259 . S
O69 Eu41 2.355 . S
O69 Eu51 2.652 1_545 S
O69 C58 1.270 . S
O70 Eu51 2.397 . S
O70 C59 1.251 . S
O71 Eu41 2.374 1_565 S
O71 C59 1.251 . S
H72 C43 0.931 . S
H73 C44 0.931 . S
H74 C46 0.931 . S
H75 C47 0.931 . S
H76 C53 0.931 . S
H77 C54 0.931 . S
H78 C56 0.931 . S
H79 C57 0.931 . S
C80 Eu81 2.835 . S
C80 C82 1.500 . S
C80 O100 1.257 . S
C80 O101 1.260 . S
Eu81 C80 2.835 . S
Eu81 O100 2.473 . S
Eu81 O101 2.480 . S
Eu81 O102 2.430 . S
Eu81 O103 2.670 . S
Eu81 O104 2.394 . S
Eu81 O109 2.355 . S
Eu81 O111 2.374 . S
C82 C80 1.500 . S
C82 C83 1.377 . S
C82 C87 1.377 . S
C83 C82 1.377 . S
C83 C84 1.395 . S
C83 H112 0.931 . S
C84 C83 1.395 . S
C84 C85 1.383 . S
C84 H113 0.931 . S
C85 C84 1.383 . S
C85 C86 1.394 . S
C86 C85 1.394 . S
C86 C87 1.378 . S
C86 H114 0.931 . S
C87 C82 1.377 . S
C87 C86 1.378 . S
C87 H115 0.931 . S
C88 O102 1.259 . S
C88 O103 1.270 . S
C89 O104 1.251 . S
C89 O105 1.251 . S
C90 Eu91 2.835 . S
C90 C92 1.500 . S
C90 O106 1.257 . S
C90 O107 1.260 . S
Eu91 C90 2.835 . S
Eu91 O103 2.355 . S
Eu91 O105 2.374 . S
Eu91 O106 2.473 . S
Eu91 O107 2.480 . S
Eu91 O108 2.430 . S
Eu91 O109 2.670 . S
Eu91 O110 2.394 . S
C92 C90 1.500 . S
C92 C93 1.377 . S
C92 C97 1.377 . S
C93 C92 1.377 . S
C93 C94 1.395 . S
C93 H116 0.931 . S
C94 C93 1.395 . S
C94 C95 1.383 . S
C94 H117 0.931 . S
C95 C94 1.383 . S
C95 C96 1.394 . S
C96 C95 1.394 . S
C96 C97 1.378 . S
C96 H118 0.931 . S
C97 C92 1.377 . S
C97 C96 1.378 . S
C97 H119 0.931 . S
C98 O108 1.259 . S
C98 O109 1.270 . S
C99 O110 1.251 . S
C99 O111 1.251 . S
O100 C80 1.257 . S
O100 Eu81 2.473 . S
O101 C80 1.260 . S
O101 Eu81 2.480 . S
O102 Eu81 2.430 . S
O102 C88 1.259 . S
O103 Eu81 2.670 . S
O103 C88 1.270 . S
O103 Eu91 2.355 . S
O104 Eu81 2.394 . S
O104 C89 1.251 . S
O105 C89 1.251 . S
O105 Eu91 2.374 . S
O106 C90 1.257 . S
O106 Eu91 2.473 . S
O107 C90 1.260 . S
O107 Eu91 2.480 . S
O108 Eu91 2.430 . S
O108 C98 1.259 . S
O109 Eu81 2.355 . S
O109 Eu91 2.670 . S
O109 C98 1.270 . S
O110 Eu91 2.394 . S
O110 C99 1.251 . S
O111 Eu81 2.374 . S
O111 C99 1.251 . S
H112 C83 0.931 . S
H113 C84 0.931 . S
H114 C86 0.931 . S
H115 C87 0.931 . S
H116 C93 0.931 . S
H117 C94 0.931 . S
H118 C96 0.931 . S
H119 C97 0.931 . S
C120 N121 1.317 . S
C120 N122 1.348 1_545 S
C120 C123 1.485 . S
N121 C120 1.317 . S
N121 N125 1.370 . S
N122 C120 1.348 1_565 S
N122 C124 1.346 . S
C123 C120 1.485 . S
C123 H127 0.960 . S
C123 H128 0.961 . S
C123 H129 0.960 . S
C124 N122 1.346 . S
C124 N125 1.307 1_565 S
C124 C126 1.486 . S
N125 N121 1.370 . S
N125 C124 1.307 1_545 S
C126 C124 1.486 . S
C126 H130 0.960 . S
C126 H131 0.960 . S
C126 H132 0.959 . S
H127 C123 0.960 . S
H128 C123 0.961 . S
H129 C123 0.960 . S
H130 C126 0.960 . S
H131 C126 0.960 . S
H132 C126 0.959 . S
C133 N134 1.317 . S
C133 N135 1.348 . S
C133 C136 1.485 . S
N134 C133 1.317 . S
N134 N138 1.370 . S
N135 C133 1.348 . S
N135 C137 1.346 . S
C136 C133 1.485 . S
C136 H140 0.960 . S
C136 H141 0.961 . S
C136 H142 0.960 . S
C137 N135 1.346 . S
C137 N138 1.307 . S
C137 C139 1.486 . S
N138 N134 1.370 . S
N138 C137 1.307 . S
C139 C137 1.486 . S
C139 H143 0.960 . S
C139 H144 0.960 . S
C139 H145 0.959 . S
H140 C136 0.960 . S
H141 C136 0.961 . S
H142 C136 0.960 . S
H143 C139 0.960 . S
H144 C139 0.960 . S
H145 C139 0.959 . S
C146 N147 1.317 . S
C146 N148 1.348 1_455 S
C146 C149 1.485 . S
N147 C146 1.317 . S
N147 N151 1.370 . S
N148 C146 1.348 1_655 S
N148 C150 1.346 . S
C149 C146 1.485 . S
C149 H153 0.960 . S
C149 H154 0.961 1_455 S
C149 H155 0.960 . S
C150 N148 1.346 . S
C150 N151 1.307 1_655 S
C150 C152 1.486 . S
N151 N147 1.370 . S
N151 C150 1.307 1_455 S
C152 C150 1.486 . S
C152 H156 0.960 . S
C152 H157 0.960 . S
C152 H158 0.959 . S
H153 C149 0.960 . S
H154 C149 0.961 1_655 S
H155 C149 0.960 . S
H156 C152 0.960 . S
H157 C152 0.960 . S
H158 C152 0.959 . S
C159 N160 1.317 . S
C159 N161 1.348 . S
C159 C162 1.485 . S
N160 C159 1.317 . S
N160 N164 1.370 . S
N161 C159 1.348 . S
N161 C163 1.346 . S
C162 C159 1.485 . S
C162 H166 0.960 . S
C162 H167 0.961 . S
C162 H168 0.960 . S
C163 N161 1.346 . S
C163 N164 1.307 . S
C163 C165 1.486 . S
N164 N160 1.370 . S
N164 C163 1.307 . S
C165 C163 1.486 . S
C165 H169 0.960 . S
C165 H170 0.960 . S
C165 H171 0.959 . S
H166 C162 0.960 . S
H167 C162 0.961 . S
H168 C162 0.960 . S
H169 C165 0.960 . S
H170 C165 0.960 . S
H171 C165 0.959 . S
C172 N173 1.317 . S
C172 N174 1.348 . S
C172 C175 1.485 . S
N173 C172 1.317 . S
N173 N177 1.370 . S
N174 C172 1.348 . S
N174 C176 1.346 . S
C175 C172 1.485 . S
C175 H179 0.960 . S
C175 H180 0.961 . S
C175 H181 0.959 . S
C176 N174 1.346 . S
C176 N177 1.307 . S
C176 C178 1.486 . S
N177 N173 1.370 . S
N177 C176 1.307 . S
C178 C176 1.486 . S
C178 H182 0.960 . S
C178 H183 0.960 . S
C178 H184 0.959 . S
H179 C175 0.960 . S
H180 C175 0.961 . S
H181 C175 0.959 . S
H182 C178 0.960 . S
H183 C178 0.960 . S
H184 C178 0.959 . S
C185 N186 1.317 . S
C185 N187 1.348 . S
C185 C188 1.485 . S
N186 C185 1.317 . S
N186 N190 1.370 . S
N187 C185 1.348 . S
N187 C189 1.346 . S
C188 C185 1.485 . S
C188 H192 0.960 . S
C188 H193 0.961 . S
C188 H194 0.960 . S
C189 N187 1.346 . S
C189 N190 1.307 . S
C189 C191 1.486 . S
N190 N186 1.370 . S
N190 C189 1.307 . S
C191 C189 1.486 . S
C191 H195 0.960 . S
C191 H196 0.960 . S
C191 H197 0.959 . S
H192 C188 0.960 . S
H193 C188 0.961 . S
H194 C188 0.960 . S
H195 C191 0.960 . S
H196 C191 0.960 . S
H197 C191 0.959 . S
H198 C206 0.950 . S
H199 C211 0.950 . S
H200 C208 0.950 . S
H201 C210 0.950 . S
H202 C212 0.950 . S
H203 C214 0.950 . S
H204 C216 0.950 . S
H205 C217 0.950 . S
C206 H198 0.950 . S
C206 C207 1.386 . S
C206 C208 1.391 . S
C207 C206 1.386 . S
C207 C211 1.393 . S
C208 H200 0.950 . S
C208 C206 1.391 . S
C208 C209 1.400 . S
C209 C208 1.400 . S
C209 C210 1.398 . S
C209 C215 1.491 . S
C210 H201 0.950 . S
C210 C209 1.398 . S
C210 C211 1.391 . S
C211 H199 0.950 . S
C211 C207 1.393 . S
C211 C210 1.391 . S
C212 H202 0.950 . S
C212 C213 1.386 . S
C212 C214 1.391 . S
C213 C212 1.386 . S
C213 C217 1.393 . S
C214 H203 0.950 . S
C214 C212 1.391 . S
C214 C215 1.400 . S
C215 C209 1.491 . S
C215 C214 1.400 . S
C215 C216 1.398 . S
C216 H204 0.950 . S
C216 C215 1.398 . S
C216 C217 1.391 . S
C217 H205 0.950 . S
C217 C213 1.393 . S
C217 C216 1.391 . S
H218 C226 0.950 . S
H219 C231 0.950 . S
H220 C228 0.950 . S
H221 C230 0.950 . S
H222 C232 0.950 . S
H223 C234 0.950 . S
H224 C236 0.950 . S
H225 C237 0.950 1_455 S
C226 H218 0.950 . S
C226 C227 1.386 . S
C226 C228 1.391 . S
C227 C226 1.386 . S
C227 C231 1.393 . S
C228 H220 0.950 . S
C228 C226 1.391 . S
C228 C229 1.400 . S
C229 C228 1.400 . S
C229 C230 1.398 . S
C229 C235 1.491 . S
C230 H221 0.950 . S
C230 C229 1.398 . S
C230 C231 1.391 . S
C231 H219 0.950 . S
C231 C227 1.393 . S
C231 C230 1.391 . S
C232 H222 0.950 . S
C232 C233 1.386 . S
C232 C234 1.391 . S
C233 C232 1.386 . S
C233 C237 1.393 . S
C234 H223 0.950 . S
C234 C232 1.391 . S
C234 C235 1.400 . S
C235 C229 1.491 . S
C235 C234 1.400 . S
C235 C236 1.398 . S
C236 H224 0.950 . S
C236 C235 1.398 . S
C236 C237 1.391 . S
C237 H225 0.950 1_655 S
C237 C233 1.393 . S
C237 C236 1.391 . S
H238 C246 0.950 . S
H239 C251 0.950 . S
H240 C248 0.950 . S
H241 C250 0.950 . S
H242 C252 0.950 . S
H243 C254 0.950 . S
H244 C256 0.950 . S
H245 C257 0.950 . S
C246 H238 0.950 . S
C246 C247 1.386 . S
C246 C248 1.391 . S
C247 C246 1.386 . S
C247 C251 1.393 . S
C248 H240 0.950 . S
C248 C246 1.391 . S
C248 C249 1.400 . S
C249 C248 1.400 . S
C249 C250 1.398 . S
C249 C255 1.491 . S
C250 H241 0.950 . S
C250 C249 1.398 . S
C250 C251 1.391 . S
C251 H239 0.950 . S
C251 C247 1.393 . S
C251 C250 1.391 . S
C252 H242 0.950 . S
C252 C253 1.386 . S
C252 C254 1.391 . S
C253 C252 1.386 . S
C253 C257 1.393 . S
C254 H243 0.950 . S
C254 C252 1.391 . S
C254 C255 1.400 . S
C255 C249 1.491 . S
C255 C254 1.400 . S
C255 C256 1.398 . S
C256 H244 0.950 . S
C256 C255 1.398 . S
C256 C257 1.391 . S
C257 H245 0.950 . S
C257 C253 1.393 . S
C257 C256 1.391 . S
H258 C266 0.950 . S
H259 C271 0.950 . S
H260 C268 0.950 . S
H261 C270 0.950 . S
H262 C272 0.950 . S
H263 C274 0.950 . S
H264 C276 0.950 . S
H265 C277 0.950 . S
C266 H258 0.950 . S
C266 C267 1.386 . S
C266 C268 1.391 . S
C267 C266 1.386 . S
C267 C271 1.393 . S
C268 H260 0.950 . S
C268 C266 1.391 . S
C268 C269 1.400 . S
C269 C268 1.400 . S
C269 C270 1.398 . S
C269 C275 1.491 . S
C270 H261 0.950 . S
C270 C269 1.398 . S
C270 C271 1.391 . S
C271 H259 0.950 . S
C271 C267 1.393 . S
C271 C270 1.391 . S
C272 H262 0.950 . S
C272 C273 1.386 . S
C272 C274 1.391 . S
C273 C272 1.386 . S
C273 C277 1.393 . S
C274 H263 0.950 . S
C274 C272 1.391 . S
C274 C275 1.400 . S
C275 C269 1.491 . S
C275 C274 1.400 . S
C275 C276 1.398 . S
C276 H264 0.950 . S
C276 C275 1.398 . S
C276 C277 1.391 . S
C277 H265 0.950 . S
C277 C273 1.393 . S
C277 C276 1.391 . S
H278 C286 0.950 . S
H279 C291 0.950 . S
H280 C288 0.950 . S
H281 C290 0.950 . S
H282 C292 0.950 . S
H283 C294 0.950 . S
H284 C296 0.950 . S
H285 C297 0.950 . S
C286 H278 0.950 . S
C286 C287 1.386 . S
C286 C288 1.391 . S
C287 C286 1.386 . S
C287 C291 1.393 . S
C288 H280 0.950 . S
C288 C286 1.391 . S
C288 C289 1.400 . S
C289 C288 1.400 . S
C289 C290 1.398 . S
C289 C295 1.491 . S
C290 H281 0.950 . S
C290 C289 1.398 . S
C290 C291 1.391 . S
C291 H279 0.950 . S
C291 C287 1.393 . S
C291 C290 1.391 . S
C292 H282 0.950 . S
C292 C293 1.386 . S
C292 C294 1.391 . S
C293 C292 1.386 . S
C293 C297 1.393 . S
C294 H283 0.950 . S
C294 C292 1.391 . S
C294 C295 1.400 . S
C295 C289 1.491 . S
C295 C294 1.400 . S
C295 C296 1.398 . S
C296 H284 0.950 . S
C296 C295 1.398 . S
C296 C297 1.391 . S
C297 H285 0.950 . S
C297 C293 1.393 . S
C297 C296 1.391 . S
H298 C306 0.950 . S
H299 C311 0.950 . S
H300 C308 0.950 . S
H301 C310 0.950 . S
H302 C312 0.950 . S
H303 C314 0.950 . S
H304 C316 0.950 . S
H305 C317 0.950 . S
C306 H298 0.950 . S
C306 C307 1.386 . S
C306 C308 1.391 . S
C307 C306 1.386 . S
C307 C311 1.393 . S
C308 H300 0.950 . S
C308 C306 1.391 . S
C308 C309 1.400 . S
C309 C308 1.400 . S
C309 C310 1.398 . S
C309 C315 1.491 . S
C310 H301 0.950 . S
C310 C309 1.398 . S
C310 C311 1.391 . S
C311 H299 0.950 . S
C311 C307 1.393 . S
C311 C310 1.391 . S
C312 H302 0.950 . S
C312 C313 1.386 . S
C312 C314 1.391 . S
C313 C312 1.386 . S
C313 C317 1.393 . S
C314 H303 0.950 . S
C314 C312 1.391 . S
C314 C315 1.400 . S
C315 C309 1.491 . S
C315 C314 1.400 . S
C315 C316 1.398 . S
C316 H304 0.950 . S
C316 C315 1.398 . S
C316 C317 1.391 . S
C317 H305 0.950 . S
C317 C313 1.393 . S
C317 C316 1.391 . S
H318 C326 0.950 . S
H319 C331 0.950 . S
H320 C328 0.950 . S
H321 C330 0.950 . S
H322 C332 0.950 . S
H323 C334 0.950 . S
H324 C336 0.950 . S
H325 C337 0.950 . S
C326 H318 0.950 . S
C326 C327 1.386 . S
C326 C328 1.391 . S
C327 C326 1.386 . S
C327 C331 1.393 . S
C328 H320 0.950 . S
C328 C326 1.391 . S
C328 C329 1.400 . S
C329 C328 1.400 . S
C329 C330 1.398 . S
C329 C335 1.491 . S
C330 H321 0.950 . S
C330 C329 1.398 . S
C330 C331 1.391 . S
C331 H319 0.950 . S
C331 C327 1.393 . S
C331 C330 1.391 . S
C332 H322 0.950 . S
C332 C333 1.386 . S
C332 C334 1.391 . S
C333 C332 1.386 . S
C333 C337 1.393 . S
C334 H323 0.950 . S
C334 C332 1.391 . S
C334 C335 1.400 . S
C335 C329 1.491 . S
C335 C334 1.400 . S
C335 C336 1.398 . S
C336 H324 0.950 . S
C336 C335 1.398 . S
C336 C337 1.391 . S
C337 H325 0.950 . S
C337 C333 1.393 . S
C337 C336 1.391 . S
H338 C346 0.950 . S
H339 C351 0.950 . S
H340 C348 0.950 . S
H341 C350 0.950 . S
H342 C352 0.950 . S
H343 C354 0.950 . S
H344 C356 0.950 . S
H345 C357 0.950 . S
C346 H338 0.950 . S
C346 C347 1.386 . S
C346 C348 1.391 . S
C347 C346 1.386 . S
C347 C351 1.393 . S
C348 H340 0.950 . S
C348 C346 1.391 . S
C348 C349 1.400 . S
C349 C348 1.400 . S
C349 C350 1.398 . S
C349 C355 1.491 . S
C350 H341 0.950 . S
C350 C349 1.398 . S
C350 C351 1.391 . S
C351 H339 0.950 . S
C351 C347 1.393 . S
C351 C350 1.391 . S
C352 H342 0.950 . S
C352 C353 1.386 . S
C352 C354 1.391 . S
C353 C352 1.386 . S
C353 C357 1.393 . S
C354 H343 0.950 . S
C354 C352 1.391 . S
C354 C355 1.400 . S
C355 C349 1.491 . S
C355 C354 1.400 . S
C355 C356 1.398 . S
C356 H344 0.950 . S
C356 C355 1.398 . S
C356 C357 1.391 . S
C357 H345 0.950 . S
C357 C353 1.393 . S
C357 C356 1.391 . S
H358 C366 0.950 . S
H359 C371 0.950 . S
H360 C368 0.950 . S
H361 C370 0.950 . S
H362 C372 0.950 . S
H363 C374 0.950 . S
H364 C376 0.950 . S
H365 C377 0.950 . S
C366 H358 0.950 . S
C366 C367 1.386 . S
C366 C368 1.391 . S
C367 C366 1.386 . S
C367 C371 1.393 . S
C368 H360 0.950 . S
C368 C366 1.391 . S
C368 C369 1.400 . S
C369 C368 1.400 . S
C369 C370 1.398 . S
C369 C375 1.491 . S
C370 H361 0.950 . S
C370 C369 1.398 . S
C370 C371 1.391 . S
C371 H359 0.950 . S
C371 C367 1.393 . S
C371 C370 1.391 . S
C372 H362 0.950 . S
C372 C373 1.386 . S
C372 C374 1.391 . S
C373 C372 1.386 . S
C373 C377 1.393 . S
C374 H363 0.950 . S
C374 C372 1.391 . S
C374 C375 1.400 . S
C375 C369 1.491 . S
C375 C374 1.400 . S
C375 C376 1.398 . S
C376 H364 0.950 . S
C376 C375 1.398 . S
C376 C377 1.391 . S
C377 H365 0.950 . S
C377 C373 1.393 . S
C377 C376 1.391 . S
H378 C386 0.950 . S
H379 C391 0.950 . S
H380 C388 0.950 . S
H381 C390 0.950 . S
H382 C392 0.950 . S
H383 C394 0.950 . S
H384 C396 0.950 . S
H385 C397 0.950 . S
C386 H378 0.950 . S
C386 C387 1.386 . S
C386 C388 1.391 . S
C387 C386 1.386 . S
C387 C391 1.393 . S
C388 H380 0.950 . S
C388 C386 1.391 . S
C388 C389 1.400 . S
C389 C388 1.400 . S
C389 C390 1.398 . S
C389 C395 1.491 . S
C390 H381 0.950 . S
C390 C389 1.398 . S
C390 C391 1.391 . S
C391 H379 0.950 . S
C391 C387 1.393 . S
C391 C390 1.391 . S
C392 H382 0.950 . S
C392 C393 1.386 . S
C392 C394 1.391 . S
C393 C392 1.386 . S
C393 C397 1.393 . S
C394 H383 0.950 . S
C394 C392 1.391 . S
C394 C395 1.400 . S
C395 C389 1.491 . S
C395 C394 1.400 . S
C395 C396 1.398 . S
C396 H384 0.950 . S
C396 C395 1.398 . S
C396 C397 1.391 . S
C397 H385 0.950 . S
C397 C393 1.393 . S
C397 C396 1.391 . S
H398 C406 0.950 . S
H399 C411 0.950 . S
H400 C408 0.950 . S
H401 C410 0.950 . S
H402 C412 0.950 . S
H403 C414 0.950 . S
H404 C416 0.950 . S
H405 C417 0.950 . S
C406 H398 0.950 . S
C406 C407 1.386 . S
C406 C408 1.391 . S
C407 C406 1.386 . S
C407 C411 1.393 . S
C408 H400 0.950 . S
C408 C406 1.391 . S
C408 C409 1.400 . S
C409 C408 1.400 . S
C409 C410 1.398 . S
C409 C415 1.491 . S
C410 H401 0.950 . S
C410 C409 1.398 . S
C410 C411 1.391 . S
C411 H399 0.950 . S
C411 C407 1.393 . S
C411 C410 1.391 . S
C412 H402 0.950 . S
C412 C413 1.386 . S
C412 C414 1.391 . S
C413 C412 1.386 . S
C413 C417 1.393 . S
C414 H403 0.950 . S
C414 C412 1.391 . S
C414 C415 1.400 . S
C415 C409 1.491 . S
C415 C414 1.400 . S
C415 C416 1.398 . S
C416 H404 0.950 . S
C416 C415 1.398 . S
C416 C417 1.391 . S
C417 H405 0.950 . S
C417 C413 1.393 . S
C417 C416 1.391 . S
H418 C426 0.950 . S
H419 C431 0.950 . S
H420 C428 0.950 . S
H421 C430 0.950 . S
H422 C432 0.950 . S
H423 C434 0.950 . S
H424 C436 0.950 . S
H425 C437 0.950 . S
C426 H418 0.950 . S
C426 C427 1.386 . S
C426 C428 1.391 . S
C427 C426 1.386 . S
C427 C431 1.393 . S
C428 H420 0.950 . S
C428 C426 1.391 . S
C428 C429 1.400 . S
C429 C428 1.400 . S
C429 C430 1.398 . S
C429 C435 1.491 . S
C430 H421 0.950 . S
C430 C429 1.398 . S
C430 C431 1.391 . S
C431 H419 0.950 . S
C431 C427 1.393 . S
C431 C430 1.391 . S
C432 H422 0.950 . S
C432 C433 1.386 . S
C432 C434 1.391 . S
C433 C432 1.386 . S
C433 C437 1.393 . S
C434 H423 0.950 . S
C434 C432 1.391 . S
C434 C435 1.400 . S
C435 C429 1.491 . S
C435 C434 1.400 . S
C435 C436 1.398 . S
C436 H424 0.950 . S
C436 C435 1.398 . S
C436 C437 1.391 . S
C437 H425 0.950 . S
C437 C433 1.393 . S
C437 C436 1.391 . S
H438 C446 0.950 . S
H439 C451 0.950 . S
H440 C448 0.950 . S
H441 C450 0.950 . S
H442 C452 0.950 . S
H443 C454 0.950 . S
H444 C456 0.950 . S
H445 C457 0.950 . S
C446 H438 0.950 . S
C446 C447 1.386 . S
C446 C448 1.391 . S
C447 C446 1.386 . S
C447 C451 1.393 1_455 S
C448 H440 0.950 . S
C448 C446 1.391 . S
C448 C449 1.400 . S
C449 C448 1.400 . S
C449 C450 1.398 1_455 S
C449 C455 1.491 . S
C450 H441 0.950 . S
C450 C449 1.398 1_655 S
C450 C451 1.391 . S
C451 H439 0.950 . S
C451 C447 1.393 1_655 S
C451 C450 1.391 . S
C452 H442 0.950 . S
C452 C453 1.386 1_655 S
C452 C454 1.391 . S
C453 C452 1.386 1_455 S
C453 C457 1.393 . S
C454 H443 0.950 . S
C454 C452 1.391 . S
C454 C455 1.400 1_656 S
C455 C449 1.491 . S
C455 C454 1.400 1_454 S
C455 C456 1.398 1_554 S
C456 H444 0.950 . S
C456 C455 1.398 1_556 S
C456 C457 1.391 . S
C457 H445 0.950 . S
C457 C453 1.393 . S
C457 C456 1.391 . S
H458 C466 0.950 . S
H459 C471 0.950 . S
H460 C468 0.950 . S
H461 C470 0.950 . S
H462 C472 0.950 . S
H463 C474 0.950 . S
H464 C476 0.950 . S
H465 C477 0.950 . S
C466 H458 0.950 . S
C466 C467 1.386 . S
C466 C468 1.391 . S
C467 C466 1.386 . S
C467 C471 1.393 . S
C468 H460 0.950 . S
C468 C466 1.391 . S
C468 C469 1.400 . S
C469 C468 1.400 . S
C469 C470 1.398 . S
C469 C475 1.491 . S
C470 H461 0.950 . S
C470 C469 1.398 . S
C470 C471 1.391 . S
C471 H459 0.950 . S
C471 C467 1.393 . S
C471 C470 1.391 . S
C472 H462 0.950 . S
C472 C473 1.386 . S
C472 C474 1.391 . S
C473 C472 1.386 . S
C473 C477 1.393 . S
C474 H463 0.950 . S
C474 C472 1.391 . S
C474 C475 1.400 . S
C475 C469 1.491 . S
C475 C474 1.400 . S
C475 C476 1.398 . S
C476 H464 0.950 . S
C476 C475 1.398 . S
C476 C477 1.391 . S
C477 H465 0.950 . S
C477 C473 1.393 . S
C477 C476 1.391 . S
H478 C486 0.950 . S
H479 C491 0.950 . S
H480 C488 0.950 . S
H481 C490 0.950 . S
H482 C492 0.950 . S
H483 C494 0.950 . S
H484 C496 0.950 . S
H485 C497 0.950 . S
C486 H478 0.950 . S
C486 C487 1.386 . S
C486 C488 1.391 . S
C487 C486 1.386 . S
C487 C491 1.393 . S
C488 H480 0.950 . S
C488 C486 1.391 . S
C488 C489 1.400 . S
C489 C488 1.400 . S
C489 C490 1.398 . S
C489 C495 1.491 . S
C490 H481 0.950 . S
C490 C489 1.398 . S
C490 C491 1.391 . S
C491 H479 0.950 . S
C491 C487 1.393 . S
C491 C490 1.391 . S
C492 H482 0.950 . S
C492 C493 1.386 . S
C492 C494 1.391 . S
C493 C492 1.386 . S
C493 C497 1.393 . S
C494 H483 0.950 . S
C494 C492 1.391 . S
C494 C495 1.400 . S
C495 C489 1.491 . S
C495 C494 1.400 . S
C495 C496 1.398 . S
C496 H484 0.950 . S
C496 C495 1.398 . S
C496 C497 1.391 . S
C497 H485 0.950 . S
C497 C493 1.393 . S
C497 C496 1.391 . S
H498 C506 0.950 . S
H499 C511 0.950 . S
H500 C508 0.950 . S
H501 C510 0.950 . S
H502 C512 0.950 . S
H503 C514 0.950 . S
H504 C516 0.950 1_565 S
H505 C517 0.950 1_565 S
C506 H498 0.950 . S
C506 C507 1.386 1_565 S
C506 C508 1.391 . S
C507 C506 1.386 1_545 S
C507 C511 1.393 . S
C508 H500 0.950 . S
C508 C506 1.391 . S
C508 C509 1.400 1_565 S
C509 C508 1.400 1_545 S
C509 C510 1.398 . S
C509 C515 1.491 . S
C510 H501 0.950 . S
C510 C509 1.398 . S
C510 C511 1.391 . S
C511 H499 0.950 . S
C511 C507 1.393 . S
C511 C510 1.391 . S
C512 H502 0.950 . S
C512 C513 1.386 . S
C512 C514 1.391 . S
C513 C512 1.386 . S
C513 C517 1.393 . S
C514 H503 0.950 . S
C514 C512 1.391 . S
C514 C515 1.400 . S
C515 C509 1.491 . S
C515 C514 1.400 . S
C515 C516 1.398 . S
C516 H504 0.950 1_545 S
C516 C515 1.398 . S
C516 C517 1.391 . S
C517 H505 0.950 1_545 S
C517 C513 1.393 . S
C517 C516 1.391 . S
H518 C526 0.950 . S
H519 C531 0.950 . S
H520 C528 0.950 . S
H521 C530 0.950 . S
H522 C532 0.950 . S
H523 C534 0.950 . S
H524 C536 0.950 . S
H525 C537 0.950 . S
C526 H518 0.950 . S
C526 C527 1.386 . S
C526 C528 1.391 . S
C527 C526 1.386 . S
C527 C531 1.393 . S
C528 H520 0.950 . S
C528 C526 1.391 . S
C528 C529 1.400 . S
C529 C528 1.400 . S
C529 C530 1.398 . S
C529 C535 1.491 1_556 S
C530 H521 0.950 . S
C530 C529 1.398 . S
C530 C531 1.391 . S
C531 H519 0.950 . S
C531 C527 1.393 . S
C531 C530 1.391 . S
C532 H522 0.950 . S
C532 C533 1.386 . S
C532 C534 1.391 . S
C533 C532 1.386 . S
C533 C537 1.393 . S
C534 H523 0.950 . S
C534 C532 1.391 . S
C534 C535 1.400 . S
C535 C529 1.491 1_554 S
C535 C534 1.400 . S
C535 C536 1.398 . S
C536 H524 0.950 . S
C536 C535 1.398 . S
C536 C537 1.391 . S
C537 H525 0.950 . S
C537 C533 1.393 . S
C537 C536 1.391 . S
H538 C546 0.933 1_655 S
H539 C551 0.950 . S
H540 C548 0.950 1_655 S
H541 C550 0.950 . S
H542 C552 0.950 . S
H543 C554 0.950 . S
H544 C556 0.950 1_655 S
H545 C557 0.950 . S
C546 H538 0.933 1_455 S
C546 C547 1.400 . S
C546 C548 1.394 . S
C547 C546 1.400 . S
C547 C551 1.393 . S
C548 H540 0.950 1_455 S
C548 C546 1.394 . S
C548 C549 1.400 . S
C549 C548 1.400 . S
C549 C550 1.398 . S
C549 C555 1.491 . S
C550 H541 0.950 . S
C550 C549 1.398 . S
C550 C551 1.391 . S
C551 H539 0.950 . S
C551 C547 1.393 . S
C551 C550 1.391 . S
C552 H542 0.950 . S
C552 C553 1.386 . S
C552 C554 1.391 . S
C553 C552 1.386 . S
C553 C557 1.393 . S
C554 H543 0.950 . S
C554 C552 1.391 . S
C554 C555 1.400 . S
C555 C549 1.491 . S
C555 C554 1.400 . S
C555 C556 1.398 . S
C556 H544 0.950 1_455 S
C556 C555 1.398 . S
C556 C557 1.391 . S
C557 H545 0.950 . S
C557 C553 1.393 . S
C557 C556 1.391 . S
C207 C19 2.715 . S
C213 N187 2.677 . S
C227 C49 2.952 . S
C233 N160 2.951 1_655 S
C247 C99 2.872 . S
C253 N173 2.899 1_565 S
C267 C9 3.320 . S
C273 N186 3.326 . S
C293 N161 3.037 . S
C287 C59 3.023 . S
C313 N174 3.097 . S
C307 C89 3.124 . S
C327 C55 0.245 . S
C333 N134 0.231 . S
C347 C85 0.365 . S
C353 N148 0.119 . S
C367 C15 0.512 . S
C373 N122 0.525 . S
C393 N135 0.418 . S
C387 C45 0.514 . S
C413 N147 0.699 . S
C407 C95 0.703 . S
C427 C5 0.361 . S
C433 N121 0.301 . S
C453 N151 1.190 . S
C447 C18 1.196 . S
C467 C58 1.274 . S
C473 N125 1.284 . S
C487 C98 1.174 . S
C493 N138 1.189 . S
C513 N177 1.818 . S
C507 C48 1.718 . S
C533 N190 1.733 . S
C527 C88 1.701 . S
C547 C8 1.685 . S
C553 N164 1.730 . S
