# Generated by pormake.
# Topology hwx, (6,3)-cn, num edge types: 1
# Building blocks:
#     Node 0, Type 0, BuildingBlock: IZENUY_clean_sbu_0, # of connection points: 6
#     Node 1, Type 0, BuildingBlock: IZENUY_clean_sbu_0, # of connection points: 6
#     Node 2, Type 0, BuildingBlock: IZENUY_clean_sbu_0, # of connection points: 6
#     Node 3, Type 0, BuildingBlock: IZENUY_clean_sbu_0, # of connection points: 6
#     Node 4, Type 1, BuildingBlock: PAMTOO_clean_linker_0, # of connection points: 3
#     Node 5, Type 1, BuildingBlock: PAMTOO_clean_linker_0, # of connection points: 3
#     Node 6, Type 1, BuildingBlock: PAMTOO_clean_linker_0, # of connection points: 3
#     Node 7, Type 1, BuildingBlock: PAMTOO_clean_linker_0, # of connection points: 3
#     Node 8, Type 1, BuildingBlock: PAMTOO_clean_linker_0, # of connection points: 3
#     Node 9, Type 1, BuildingBlock: PAMTOO_clean_linker_0, # of connection points: 3
#     Node 10, Type 1, BuildingBlock: PAMTOO_clean_linker_0, # of connection points: 3
#     Node 11, Type 1, BuildingBlock: PAMTOO_clean_linker_0, # of connection points: 3
#     Edge 12, Type (0, 1), BuildingBlock: CIFDUS_clean_linker_0, # of connection points: 2
#     Edge 13, Type (0, 1), BuildingBlock: CIFDUS_clean_linker_0, # of connection points: 2
#     Edge 14, Type (0, 1), BuildingBlock: CIFDUS_clean_linker_0, # of connection points: 2
#     Edge 15, Type (0, 1), BuildingBlock: CIFDUS_clean_linker_0, # of connection points: 2
#     Edge 16, Type (0, 1), BuildingBlock: CIFDUS_clean_linker_0, # of connection points: 2
#     Edge 17, Type (0, 1), BuildingBlock: CIFDUS_clean_linker_0, # of connection points: 2
#     Edge 18, Type (0, 1), BuildingBlock: CIFDUS_clean_linker_0, # of connection points: 2
#     Edge 19, Type (0, 1), BuildingBlock: CIFDUS_clean_linker_0, # of connection points: 2
#     Edge 20, Type (0, 1), BuildingBlock: CIFDUS_clean_linker_0, # of connection points: 2
#     Edge 21, Type (0, 1), BuildingBlock: CIFDUS_clean_linker_0, # of connection points: 2
#     Edge 22, Type (0, 1), BuildingBlock: CIFDUS_clean_linker_0, # of connection points: 2
#     Edge 23, Type (0, 1), BuildingBlock: CIFDUS_clean_linker_0, # of connection points: 2
#     Edge 24, Type (0, 1), BuildingBlock: CIFDUS_clean_linker_0, # of connection points: 2
#     Edge 25, Type (0, 1), BuildingBlock: CIFDUS_clean_linker_0, # of connection points: 2
#     Edge 26, Type (0, 1), BuildingBlock: CIFDUS_clean_linker_0, # of connection points: 2
#     Edge 27, Type (0, 1), BuildingBlock: CIFDUS_clean_linker_0, # of connection points: 2
#     Edge 28, Type (0, 1), BuildingBlock: CIFDUS_clean_linker_0, # of connection points: 2
#     Edge 29, Type (0, 1), BuildingBlock: CIFDUS_clean_linker_0, # of connection points: 2
#     Edge 30, Type (0, 1), BuildingBlock: CIFDUS_clean_linker_0, # of connection points: 2
#     Edge 31, Type (0, 1), BuildingBlock: CIFDUS_clean_linker_0, # of connection points: 2
#     Edge 32, Type (0, 1), BuildingBlock: CIFDUS_clean_linker_0, # of connection points: 2
#     Edge 33, Type (0, 1), BuildingBlock: CIFDUS_clean_linker_0, # of connection points: 2
#     Edge 34, Type (0, 1), BuildingBlock: CIFDUS_clean_linker_0, # of connection points: 2
#     Edge 35, Type (0, 1), BuildingBlock: CIFDUS_clean_linker_0, # of connection points: 2
# Relax obj value: 0.004
# Max RMSD: 0.060
# Mean RMSD: 0.048
data_MOF--net-hwx--node1-IZENUY_clean_sbu_0--node2-PAMTOO_clean_linker_0--edge1-CIFDUS_clean_linker_0
_symmetry_space_group_name_H-M    P1
_symmetry_Int_Tables_number       1
_symmetry_cell_setting            triclinic
loop_
_symmetry_equiv_pos_as_xyz
'x, y, z'
_cell_length_a     44.58787
_cell_length_b     44.888614
_cell_length_c     18.110494
_cell_angle_alpha  88.448731
_cell_angle_beta   91.52131
_cell_angle_gamma 89.934201
loop_
_atom_site_label
_atom_site_type_symbol
_atom_site_fract_x
_atom_site_fract_y
_atom_site_fract_z
_atom_type_partial_charge
Fe0 Fe 0.26654 0.25086 0.10536 0.0
Fe1 Fe 0.26544 0.24816 0.93655 0.0
O2 O 0.25041 0.23698 0.02273 0.0
Fe3 Fe 0.21956 0.21195 0.02624 0.0
O4 O 0.20273 0.22877 0.1069 0.0
O5 O 0.23126 0.26748 0.13081 0.0
O6 O 0.27667 0.28697 0.06461 0.0
C7 C 0.26686 0.30113 0.00769 0.0
C8 C 0.25481 0.19081 0.14305 0.0
O9 O 0.25693 0.28741 0.95205 0.0
C10 C 0.25612 0.18848 0.91536 0.0
O11 O 0.30303 0.23516 0.08622 0.0
O12 O 0.30428 0.25231 0.97185 0.0
O13 O 0.24074 0.18504 0.08389 0.0
O14 O 0.25953 0.21737 0.16122 0.0
C15 C 0.20271 0.24489 0.90328 0.0
O16 O 0.27473 0.20977 0.9156 0.0
O17 O 0.23118 0.19069 0.94682 0.0
C18 C 0.31759 0.2414 0.02906 0.0
O19 O 0.22984 0.24558 0.88471 0.0
O20 O 0.19581 0.23657 0.96776 0.0
C21 C 0.20682 0.25358 0.13741 0.0
Fe22 Fe 0.26756 0.75211 0.58296 0.0
Fe23 Fe 0.3034 0.70575 0.50138 0.0
O24 O 0.27783 0.73622 0.4989 0.0
Fe25 Fe 0.26292 0.75073 0.41362 0.0
O26 O 0.27678 0.7879 0.43149 0.0
O27 O 0.26243 0.79022 0.54579 0.0
O28 O 0.30617 0.76189 0.60456 0.0
C29 C 0.32715 0.74308 0.61115 0.0
C30 C 0.21309 0.75061 0.50984 0.0
O31 O 0.32388 0.71731 0.5853 0.0
C32 C 0.26369 0.69139 0.38231 0.0
O33 O 0.27022 0.71696 0.63624 0.0
O34 O 0.27764 0.68267 0.55432 0.0
O35 O 0.22537 0.759 0.45013 0.0
O36 O 0.22867 0.74325 0.56643 0.0
C37 C 0.32484 0.74026 0.38759 0.0
O38 O 0.28848 0.68882 0.41719 0.0
O39 O 0.24805 0.71464 0.38706 0.0
C40 C 0.2672 0.69048 0.61503 0.0
O41 O 0.33032 0.72697 0.44883 0.0
O42 O 0.29806 0.74514 0.36423 0.0
C43 C 0.27199 0.80279 0.48786 0.0
Fe44 Fe 0.75796 0.77653 0.95049 0.0
Fe45 Fe 0.76315 0.77098 0.11961 0.0
O46 O 0.77553 0.78679 0.03509 0.0
Fe47 Fe 0.8054 0.81305 0.03573 0.0
O48 O 0.79156 0.83435 0.95419 0.0
O49 O 0.74758 0.81489 0.92708 0.0
O50 O 0.72012 0.77198 0.98848 0.0
C51 C 0.70919 0.78137 0.04754 0.0
C52 C 0.82005 0.77951 0.91764 0.0
O53 O 0.72578 0.78559 0.10359 0.0
C54 C 0.82331 0.77097 0.14889 0.0
O55 O 0.76728 0.73745 0.96701 0.0
O56 O 0.75296 0.73477 0.0819 0.0
O57 O 0.82841 0.78954 0.97946 0.0
O58 O 0.79254 0.77925 0.89785 0.0
C59 C 0.77247 0.83134 0.15184 0.0
O60 O 0.79989 0.75546 0.14207 0.0
O61 O 0.8248 0.79657 0.11793 0.0
C62 C 0.76098 0.7222 0.02396 0.0
O63 O 0.77074 0.80431 0.17286 0.0
O64 O 0.7842 0.83853 0.09126 0.0
C65 C 0.76577 0.83637 0.9236 0.0
Fe66 Fe 0.7183 0.31541 0.49028 0.0
Fe67 Fe 0.75721 0.26975 0.58095 0.0
O68 O 0.74529 0.28607 0.49474 0.0
Fe69 Fe 0.76036 0.27282 0.41203 0.0
O70 O 0.75748 0.30845 0.36133 0.0
O71 O 0.74375 0.34075 0.4427 0.0
O72 O 0.73073 0.33214 0.57725 0.0
C73 C 0.75415 0.32876 0.6177 0.0
C74 C 0.70085 0.27851 0.37226 0.0
O75 O 0.7697 0.30532 0.61555 0.0
C76 C 0.75456 0.2197 0.49784 0.0
O77 O 0.69055 0.29275 0.53693 0.0
O78 O 0.72061 0.2731 0.62371 0.0
O79 O 0.72337 0.26138 0.37889 0.0
O80 O 0.70086 0.30357 0.40295 0.0
C81 C 0.81102 0.27521 0.50085 0.0
O82 O 0.74559 0.23263 0.55406 0.0
O83 O 0.76639 0.23449 0.44602 0.0
C84 C 0.69453 0.27834 0.59713 0.0
O85 O 0.79609 0.26368 0.55302 0.0
O86 O 0.79815 0.28354 0.44074 0.0
C87 C 0.7561 0.33492 0.38287 0.0
H88 H 0.2361 0.61097 0.99098 0.0
H89 H 0.23417 0.52589 0.8874 0.0
H90 H 0.23495 0.5299 0.12382 0.0
H91 H 0.27575 0.48404 0.05725 0.0
C92 C 0.26204 0.47957 0.0065 0.0
O93 O 0.23505 0.49455 0.01031 0.0
H94 H 0.27458 0.48782 0.95773 0.0
C95 C 0.23519 0.58688 0.99539 0.0
C96 C 0.23506 0.57281 0.06581 0.0
C97 C 0.2353 0.57032 0.93058 0.0
C98 C 0.23409 0.53914 0.93653 0.0
C99 C 0.23393 0.52468 0.00598 0.0
C100 C 0.2343 0.54143 0.07048 0.0
H101 H 0.90519 0.76781 0.54058 0.0
H102 H 0.98893 0.76489 0.42886 0.0
H103 H 0.98898 0.76715 0.66552 0.0
H104 H 0.04017 0.80278 0.59651 0.0
C105 C 0.03922 0.79172 0.54232 0.0
O106 O 0.02257 0.76588 0.54854 0.0
H107 H 0.02836 0.80743 0.50104 0.0
C108 C 0.92947 0.76645 0.5431 0.0
C109 C 0.94485 0.767 0.612 0.0
C110 C 0.94508 0.76572 0.47682 0.0
C111 C 0.97652 0.76544 0.47947 0.0
C112 C 0.99223 0.7661 0.54731 0.0
C113 C 0.97649 0.76686 0.61343 0.0
H114 H 0.75899 0.41559 0.99889 0.0
H115 H 0.76136 0.50108 0.10123 0.0
H116 H 0.75905 0.49624 0.86472 0.0
H117 H 0.80045 0.54019 0.92348 0.0
C118 C 0.78798 0.54739 0.97239 0.0
O119 O 0.76124 0.53205 0.97629 0.0
H120 H 0.80218 0.54221 0.02258 0.0
C121 C 0.75998 0.4397 0.99425 0.0
C122 C 0.75922 0.45367 0.92384 0.0
C123 C 0.76062 0.45647 0.05876 0.0
C124 C 0.76071 0.48774 0.05224 0.0
C125 C 0.76047 0.50196 0.98227 0.0
C126 C 0.75938 0.48497 0.91841 0.0
H127 H 0.12164 0.2701 0.51092 0.0
H128 H 0.03763 0.27426 0.62257 0.0
H129 H 0.03841 0.27492 0.38549 0.0
H130 H 0.9978 0.31839 0.45351 0.0
C131 C 0.98894 0.30355 0.49811 0.0
O132 O 1.00437 0.27685 0.50079 0.0
H133 H 0.99237 0.31501 0.55138 0.0
C134 C 0.09737 0.27175 0.50908 0.0
C135 C 0.08214 0.2726 0.44017 0.0
C136 C 0.08172 0.27193 0.57557 0.0
C137 C 0.05023 0.27428 0.57225 0.0
C138 C 0.03472 0.27559 0.50367 0.0
C139 C 0.05065 0.2744 0.43801 0.0
H140 H 0.7394 0.91101 0.51466 0.0
H141 H 0.73171 0.98994 0.64172 0.0
H142 H 0.7483 0.99764 0.40923 0.0
H143 H 0.78409 0.03765 0.50903 0.0
C144 C 0.76643 0.0422 0.54958 0.0
O145 O 0.74051 0.02716 0.53057 0.0
H146 H 0.77496 0.03415 0.60493 0.0
C147 C 0.73867 0.93512 0.51701 0.0
C148 C 0.7437 0.95252 0.45284 0.0
C149 C 0.73426 0.94825 0.5852 0.0
C150 C 0.7349 0.97941 0.58936 0.0
C151 C 0.73995 0.99714 0.52592 0.0
C152 C 0.74443 0.98373 0.45785 0.0
H153 H 0.62792 0.22567 0.98543 0.0
H154 H 0.54587 0.23045 0.10373 0.0
H155 H 0.54329 0.23153 0.86586 0.0
H156 H 0.50277 0.27439 0.94394 0.0
C157 C 0.49551 0.25881 0.98891 0.0
O158 O 0.51068 0.2321 0.98497 0.0
H159 H 0.5011 0.26933 0.04248 0.0
C160 C 0.60359 0.22631 0.98511 0.0
C161 C 0.58754 0.22787 0.91746 0.0
C162 C 0.58894 0.22741 0.05238 0.0
C163 C 0.55752 0.22953 0.05208 0.0
C164 C 0.54102 0.23071 0.98483 0.0
C165 C 0.55608 0.23025 0.91755 0.0
H166 H 0.27912 0.11061 0.51976 0.0
H167 H 0.26792 0.02407 0.42619 0.0
H168 H 0.28216 0.03195 0.66066 0.0
H169 H 0.31424 0.98093 0.59851 0.0
C170 C 0.29952 0.97717 0.54909 0.0
O171 O 0.27409 0.9946 0.55242 0.0
H172 H 0.31238 0.98359 0.49923 0.0
C173 C 0.27865 0.08652 0.52634 0.0
C174 C 0.2818 0.07356 0.5974 0.0
C175 C 0.27357 0.06904 0.46412 0.0
C176 C 0.27167 0.03797 0.47354 0.0
C177 C 0.27519 0.02462 0.54422 0.0
C178 C 0.27981 0.04241 0.60619 0.0
H179 H 0.39663 0.792 0.9926 0.0
H180 H 0.48228 0.78493 0.89156 0.0
H181 H 0.47725 0.78522 0.12849 0.0
H182 H 0.52745 0.82188 0.06479 0.0
C183 C 0.53132 0.80875 0.01467 0.0
O184 O 0.51353 0.78361 0.01632 0.0
H185 H 0.52517 0.82311 0.96549 0.0
C186 C 0.4209 0.79091 0.99806 0.0
C187 C 0.43467 0.78914 0.06857 0.0
C188 C 0.43776 0.78937 0.93422 0.0
C189 C 0.46901 0.78633 0.94063 0.0
C190 C 0.48327 0.7855 0.01066 0.0
C191 C 0.4661 0.78647 0.0746 0.0
H192 H 0.15031 0.23225 0.15882 0.0
H193 H 0.21287 0.29876 0.23533 0.0
H194 H 0.17864 0.31215 0.33196 0.0
H195 H 0.13285 0.30221 0.4013 0.0
H196 H 0.07042 0.23564 0.32562 0.0
H197 H 0.10241 0.22544 0.22156 0.0
C198 C 0.15638 0.24988 0.19615 0.0
C199 C 0.18439 0.26416 0.19016 0.0
C200 C 0.1366 0.25745 0.25197 0.0
C201 C 0.19161 0.28722 0.23863 0.0
C202 C 0.17206 0.29487 0.29418 0.0
C203 C 0.12616 0.28564 0.36163 0.0
C204 C 0.09941 0.26953 0.37155 0.0
C205 C 0.14481 0.27969 0.30239 0.0
C206 C 0.09079 0.24847 0.31907 0.0
C207 C 0.1092 0.24246 0.25987 0.0
H208 H 0.28226 0.63179 0.63843 0.0
H209 H 0.22242 0.70057 0.70795 0.0
H210 H 0.204 0.66765 0.80579 0.0
H211 H 0.20864 0.62157 0.87962 0.0
H212 H 0.27157 0.55406 0.81853 0.0
H213 H 0.28431 0.58365 0.70856 0.0
C214 C 0.26483 0.63925 0.67428 0.0
C215 C 0.25387 0.66857 0.66659 0.0
C216 C 0.25495 0.62046 0.73219 0.0
C217 C 0.2314 0.67815 0.7135 0.0
C218 C 0.22085 0.65937 0.76943 0.0
C219 C 0.22506 0.61325 0.8421 0.0
C220 C 0.23937 0.58583 0.85791 0.0
C221 C 0.23311 0.63084 0.78069 0.0
C222 C 0.26004 0.57504 0.80762 0.0
C223 C 0.26759 0.59209 0.74502 0.0
H224 H 0.87752 0.79699 0.17505 0.0
H225 H 0.82094 0.72506 0.25123 0.0
H226 H 0.85492 0.71577 0.35711 0.0
H227 H 0.898 0.73127 0.43462 0.0
H228 H 0.95454 0.80303 0.35864 0.0
H229 H 0.92343 0.80903 0.24591 0.0
C230 C 0.87279 0.77901 0.21425 0.0
C231 C 0.84643 0.76208 0.20563 0.0
C232 C 0.8923 0.77391 0.27545 0.0
C233 C 0.84093 0.73861 0.25653 0.0
C234 C 0.86029 0.73334 0.31742 0.0
C235 C 0.90358 0.74804 0.39297 0.0
C236 C 0.92828 0.76689 0.40506 0.0
C237 C 0.88556 0.7514 0.32851 0.0
C238 C 0.93565 0.78823 0.35036 0.0
C239 C 0.91779 0.79176 0.28615 0.0
H240 H 0.72749 0.38276 0.63559 0.0
H241 H 0.79709 0.32498 0.72847 0.0
H242 H 0.8058 0.35929 0.82892 0.0
H243 H 0.79173 0.40422 0.89464 0.0
H244 H 0.72211 0.4619 0.80246 0.0
H245 H 0.71566 0.42934 0.69712 0.0
C246 C 0.74472 0.37773 0.67746 0.0
C247 C 0.76136 0.35109 0.67461 0.0
C248 C 0.7496 0.39754 0.73539 0.0
C249 C 0.78381 0.34518 0.72916 0.0
C250 C 0.78879 0.36478 0.78688 0.0
C251 C 0.77519 0.40967 0.85136 0.0
C252 C 0.75727 0.43533 0.85668 0.0
C253 C 0.77148 0.39075 0.79123 0.0
C254 C 0.7363 0.4424 0.79953 0.0
C255 C 0.73247 0.42368 0.73951 0.0
H256 H 0.69323 0.22825 0.29185 0.0
H257 H 0.65043 0.31153 0.34084 0.0
H258 H 0.60965 0.30097 0.2534 0.0
H259 H 0.58838 0.27036 0.15433 0.0
H260 H 0.63197 0.18821 0.10174 0.0
H261 H 0.66976 0.19572 0.19994 0.0
C262 C 0.67491 0.24402 0.28378 0.0
C263 C 0.67525 0.27085 0.32222 0.0
C264 C 0.65151 0.23794 0.23283 0.0
C265 C 0.65106 0.29084 0.3115 0.0
C266 C 0.62761 0.28481 0.26153 0.0
C267 C 0.6057 0.25376 0.16592 0.0
C268 C 0.60743 0.22875 0.12134 0.0
C269 C 0.62786 0.25872 0.22087 0.0
C270 C 0.63025 0.2076 0.13574 0.0
C271 C 0.65194 0.212 0.19143 0.0
H272 H 0.29891 0.18056 0.8118 0.0
H273 H 0.22452 0.13659 0.91658 0.0
H274 H 0.22834 0.09519 0.83321 0.0
H275 H 0.24928 0.07377 0.72209 0.0
H276 H 0.32231 0.11838 0.61424 0.0
H277 H 0.32282 0.15681 0.70741 0.0
C278 C 0.28381 0.16175 0.81709 0.0
C279 C 0.26123 0.16198 0.86989 0.0
C280 C 0.28579 0.13805 0.76804 0.0
C281 C 0.2419 0.13729 0.8759 0.0
C282 C 0.24406 0.1135 0.82823 0.0
C283 C 0.26576 0.09151 0.72019 0.0
C284 C 0.28563 0.09333 0.66138 0.0
C285 C 0.26542 0.11396 0.77291 0.0
C286 C 0.30665 0.11665 0.6589 0.0
C287 C 0.30689 0.13868 0.71198 0.0
H288 H 0.32753 0.78577 0.28683 0.0
H289 H 0.37893 0.71206 0.38131 0.0
H290 H 0.41941 0.72271 0.29602 0.0
H291 H 0.43815 0.7504 0.18707 0.0
H292 H 0.38722 0.82509 0.09593 0.0
H293 H 0.34891 0.81696 0.18804 0.0
C294 C 0.34766 0.77213 0.2888 0.0
C295 C 0.35006 0.74789 0.3393 0.0
C296 C 0.37098 0.77861 0.24034 0.0
C297 C 0.3765 0.73076 0.34253 0.0
C298 C 0.39965 0.73683 0.29378 0.0
C299 C 0.41907 0.76535 0.18867 0.0
C300 C 0.41533 0.78805 0.13413 0.0
C301 C 0.39694 0.76041 0.24158 0.0
C302 C 0.39036 0.80716 0.13667 0.0
C303 C 0.3684 0.80249 0.18915 0.0
H304 H 0.72206 0.84208 0.81555 0.0
H305 H 0.79462 0.88979 0.92141 0.0
H306 H 0.78849 0.93075 0.83113 0.0
H307 H 0.7665 0.95046 0.71387 0.0
H308 H 0.69583 0.90174 0.6043 0.0
H309 H 0.69694 0.86403 0.70442 0.0
C310 C 0.7362 0.86165 0.81959 0.0
C311 C 0.759 0.86265 0.87465 0.0
C312 C 0.73301 0.88493 0.76644 0.0
C313 C 0.77713 0.88822 0.87902 0.0
C314 C 0.77365 0.91172 0.82741 0.0
C315 C 0.75086 0.93197 0.71303 0.0
C316 C 0.73119 0.92877 0.65195 0.0
C317 C 0.75224 0.90996 0.76969 0.0
C318 C 0.71128 0.90451 0.65079 0.0
C319 C 0.71198 0.88292 0.70783 0.0
H320 H 0.87788 0.79932 0.90394 0.0
H321 H 0.81228 0.7401 0.80824 0.0
H322 H 0.8463 0.72884 0.70954 0.0
H323 H 0.89296 0.73831 0.64541 0.0
H324 H 0.95754 0.80015 0.73456 0.0
H325 H 0.92614 0.8072 0.84143 0.0
C326 C 0.87126 0.78365 0.86202 0.0
C327 C 0.84249 0.77072 0.86323 0.0
C328 C 0.89074 0.77776 0.80403 0.0
C329 C 0.83416 0.75059 0.80821 0.0
C330 C 0.85361 0.74411 0.75172 0.0
C331 C 0.9002 0.75343 0.68803 0.0
C332 C 0.92749 0.76891 0.68118 0.0
C333 C 0.88165 0.75806 0.74814 0.0
C334 C 0.93679 0.78776 0.73827 0.0
C335 C 0.91868 0.79201 0.79924 0.0
H336 H 0.73148 0.39061 0.36094 0.0
H337 H 0.80077 0.33242 0.2858 0.0
H338 H 0.8105 0.36674 0.18275 0.0
H339 H 0.79547 0.41004 0.10588 0.0
H340 H 0.72504 0.46781 0.17596 0.0
H341 H 0.71992 0.43736 0.28936 0.0
C342 C 0.74916 0.38588 0.32295 0.0
C343 C 0.7652 0.3589 0.33054 0.0
C344 C 0.75419 0.40548 0.26234 0.0
C345 C 0.78792 0.35291 0.28063 0.0
C346 C 0.79346 0.37248 0.22156 0.0
C347 C 0.77918 0.41609 0.14635 0.0
C348 C 0.7604 0.44085 0.13217 0.0
C349 C 0.77606 0.39827 0.21048 0.0
C350 C 0.73978 0.44882 0.18566 0.0
C351 C 0.73672 0.43131 0.25028 0.0
H352 H 0.15013 0.27725 0.88787 0.0
H353 H 0.20451 0.21198 0.78281 0.0
H354 H 0.17058 0.21285 0.67533 0.0
H355 H 0.12747 0.2338 0.60791 0.0
H356 H 0.07378 0.30153 0.70531 0.0
H357 H 0.1048 0.29765 0.81925 0.0
C358 C 0.1542 0.26309 0.8416 0.0
C359 C 0.17984 0.24473 0.84283 0.0
C360 C 0.1348 0.26419 0.77851 0.0
C361 C 0.18506 0.22652 0.78261 0.0
C362 C 0.16567 0.22695 0.72117 0.0
C363 C 0.1226 0.24793 0.65377 0.0
C364 C 0.09865 0.2683 0.64744 0.0
C365 C 0.14086 0.24608 0.71789 0.0
C366 C 0.09212 0.28567 0.70856 0.0
C367 C 0.10997 0.28357 0.77359 0.0
H368 H 0.22877 0.6414 0.36869 0.0
H369 H 0.28969 0.69917 0.25225 0.0
H370 H 0.28709 0.66716 0.14542 0.0
H371 H 0.26887 0.62244 0.08649 0.0
H372 H 0.20639 0.56459 0.198 0.0
H373 H 0.2089 0.59629 0.3061 0.0
C374 C 0.24108 0.64699 0.31938 0.0
C375 C 0.2591 0.67269 0.31747 0.0
C376 C 0.23958 0.62827 0.25791 0.0
C377 C 0.27542 0.67963 0.25417 0.0
C378 C 0.27407 0.66128 0.19336 0.0
C379 C 0.25532 0.6169 0.13375 0.0
C380 C 0.23716 0.59125 0.13334 0.0
C381 C 0.25637 0.63551 0.19473 0.0
C382 C 0.2207 0.58405 0.19664 0.0
C383 C 0.22194 0.60234 0.25833 0.0
H384 H 0.34002 0.79461 0.68109 0.0
H385 H 0.37414 0.70597 0.6486 0.0
H386 H 0.41484 0.71448 0.73818 0.0
H387 H 0.43704 0.74484 0.83688 0.0
H388 H 0.40114 0.83216 0.87367 0.0
H389 H 0.36523 0.82672 0.77041 0.0
C390 C 0.35651 0.77723 0.69298 0.0
C391 C 0.35365 0.7495 0.65913 0.0
C392 C 0.37962 0.78208 0.74533 0.0
C393 C 0.37552 0.72741 0.67452 0.0
C394 C 0.39885 0.73224 0.72576 0.0
C395 C 0.42192 0.76294 0.82056 0.0
C396 C 0.42164 0.78887 0.8621 0.0
C397 C 0.40065 0.75918 0.76297 0.0
C398 C 0.40169 0.81208 0.84183 0.0
C399 C 0.38105 0.80887 0.78334 0.0
H400 H 0.79473 0.88735 0.17729 0.0
H401 H 0.72436 0.82611 0.23732 0.0
H402 H 0.70661 0.86047 0.32823 0.0
H403 H 0.71357 0.90538 0.39841 0.0
H404 H 0.78635 0.96525 0.34938 0.0
H405 H 0.80007 0.93466 0.24525 0.0
C406 C 0.77532 0.88183 0.20978 0.0
C407 C 0.76103 0.85414 0.20123 0.0
C408 C 0.76567 0.90144 0.26396 0.0
C409 C 0.73595 0.84713 0.24366 0.0
C410 C 0.72573 0.86678 0.29554 0.0
C411 C 0.73242 0.91183 0.36485 0.0
C412 C 0.74918 0.93729 0.38242 0.0
C413 C 0.74086 0.89359 0.30745 0.0
C414 C 0.77301 0.94578 0.33705 0.0
C415 C 0.78105 0.92811 0.27794 0.0
H416 H 0.68975 0.22993 0.68752 0.0
H417 H 0.64083 0.30744 0.60598 0.0
H418 H 0.60061 0.29641 0.69222 0.0
H419 H 0.58259 0.26789 0.80146 0.0
H420 H 0.6317 0.18996 0.87995 0.0
H421 H 0.66827 0.19762 0.78347 0.0
C422 C 0.6701 0.24421 0.68815 0.0
C423 C 0.66844 0.26971 0.64157 0.0
C424 C 0.64711 0.23764 0.73739 0.0
C425 C 0.64264 0.28774 0.6417 0.0
C426 C 0.6197 0.28149 0.69114 0.0
C427 C 0.60081 0.25215 0.79592 0.0
C428 C 0.60471 0.22864 0.84831 0.0
C429 C 0.62206 0.25691 0.74065 0.0
C430 C 0.62848 0.20844 0.84076 0.0
C431 C 0.64947 0.21286 0.78586 0.0
H432 H 0.22803 0.13698 0.17299 0.0
H433 H 0.30458 0.19127 0.23008 0.0
H434 H 0.31951 0.15575 0.32816 0.0
H435 H 0.30806 0.11252 0.4061 0.0
H436 H 0.22993 0.05938 0.35761 0.0
H437 H 0.21879 0.09052 0.24682 0.0
C438 C 0.2482 0.14065 0.20627 0.0
C439 C 0.26498 0.16684 0.19513 0.0
C440 C 0.25631 0.12041 0.26424 0.0
C441 C 0.29107 0.17148 0.23851 0.0
C442 C 0.29967 0.15117 0.29449 0.0
C443 C 0.28872 0.1076 0.37089 0.0
C444 C 0.2696 0.08404 0.39047 0.0
C445 C 0.28199 0.12609 0.30924 0.0
C446 C 0.245 0.07744 0.34359 0.0
C447 C 0.23849 0.09541 0.28066 0.0
H448 H 0.23109 0.34414 0.93884 0.0
H449 H 0.31147 0.33158 0.07432 0.0
H450 H 0.31656 0.38511 0.0863 0.0
H451 H 0.29764 0.43551 0.06276 0.0
H452 H 0.21764 0.44982 0.928 0.0
H453 H 0.21279 0.39591 0.91153 0.0
C454 C 0.24986 0.35325 0.97005 0.0
C455 C 0.27078 0.33388 0.00583 0.0
C456 C 0.25247 0.38438 0.97797 0.0
C457 C 0.2949 0.34597 0.0467 0.0
C458 C 0.29786 0.37661 0.05376 0.0
C459 C 0.27895 0.42677 0.0305 0.0
C460 C 0.25748 0.44645 0.9989 0.0
C461 C 0.27655 0.39598 0.02076 0.0
C462 C 0.23395 0.43497 0.95491 0.0
C463 C 0.23132 0.40418 0.94501 0.0
H464 H 0.17172 0.78215 0.42397 0.0
H465 H 0.18022 0.72289 0.61522 0.0
H466 H 0.1273 0.72933 0.63993 0.0
H467 H 0.07911 0.75428 0.61269 0.0
H468 H 0.06992 0.81383 0.42293 0.0
H469 H 0.12228 0.80487 0.39225 0.0
C470 C 0.16188 0.77034 0.47037 0.0
C471 C 0.18008 0.75229 0.51794 0.0
C472 C 0.13126 0.7744 0.48503 0.0
C473 C 0.1669 0.73721 0.57806 0.0
C474 C 0.13657 0.74086 0.59239 0.0
C475 C 0.08858 0.76498 0.5642 0.0
C476 C 0.07076 0.78458 0.52009 0.0
C477 C 0.11866 0.75981 0.54716 0.0
C478 C 0.08323 0.79856 0.45764 0.0
C479 C 0.11316 0.79346 0.44013 0.0
H480 H 0.77618 0.68676 0.91004 0.0
H481 H 0.74922 0.68306 0.13745 0.0
H482 H 0.7541 0.62901 0.1404 0.0
H483 H 0.76791 0.5826 0.08026 0.0
H484 H 0.79482 0.58592 0.85353 0.0
H485 H 0.78793 0.64009 0.84828 0.0
C486 C 0.77117 0.67414 0.96011 0.0
C487 C 0.76239 0.68912 0.02341 0.0
C488 C 0.77411 0.6429 0.96169 0.0
C489 C 0.75602 0.67227 0.08779 0.0
C490 C 0.75884 0.64127 0.08969 0.0
C491 C 0.77208 0.59529 0.02975 0.0
C492 C 0.78211 0.58048 0.96768 0.0
C493 C 0.76815 0.62637 0.02727 0.0
C494 C 0.78728 0.59695 0.90218 0.0
C495 C 0.78337 0.62789 0.8992 0.0
H496 H 0.85181 0.29288 0.39785 0.0
H497 H 0.84504 0.26305 0.62555 0.0
H498 H 0.89906 0.26827 0.64382 0.0
H499 H 0.94846 0.2826 0.59656 0.0
H500 H 0.95566 0.31201 0.36941 0.0
H501 H 0.90153 0.30548 0.34937 0.0
C502 C 0.86214 0.28741 0.45141 0.0
C503 C 0.84419 0.27761 0.51015 0.0
C504 C 0.89341 0.29043 0.46175 0.0
C505 C 0.85813 0.27059 0.57913 0.0
C506 C 0.88911 0.2736 0.58981 0.0
C507 C 0.93807 0.28746 0.54273 0.0
C508 C 0.95584 0.29813 0.48485 0.0
C509 C 0.90696 0.28368 0.53173 0.0
C510 C 0.94232 0.30406 0.41499 0.0
C511 C 0.9114 0.30034 0.40357 0.0
H512 H 0.74351 0.17893 0.60944 0.0
H513 H 0.7657 0.18606 0.37893 0.0
H514 H 0.76982 0.1321 0.37383 0.0
H515 H 0.76985 0.08278 0.43594 0.0
H516 H 0.74849 0.07498 0.66611 0.0
H517 H 0.74107 0.12907 0.67021 0.0
C518 C 0.74902 0.16867 0.55798 0.0
C519 C 0.75458 0.18666 0.49493 0.0
C520 C 0.75168 0.13743 0.55544 0.0
C521 C 0.76161 0.17288 0.42863 0.0
C522 C 0.76397 0.14195 0.42552 0.0
C523 C 0.76352 0.09303 0.48683 0.0
C524 C 0.76032 0.0752 0.55099 0.0
C525 C 0.75954 0.12404 0.48877 0.0
C526 C 0.75154 0.08848 0.61638 0.0
C527 C 0.7473 0.11934 0.61868 0.0
H528 H 0.35585 0.25243 0.91666 0.0
H529 H 0.3546 0.2272 0.14834 0.0
H530 H 0.40936 0.22893 0.1554 0.0
H531 H 0.45775 0.24038 0.09727 0.0
H532 H 0.45872 0.2655 0.86607 0.0
H533 H 0.40405 0.26085 0.85714 0.0
C534 C 0.36749 0.24714 0.96871 0.0
C535 C 0.35096 0.23999 0.03202 0.0
C536 C 0.39902 0.24829 0.97252 0.0
C537 C 0.36661 0.23293 0.09873 0.0
C538 C 0.39799 0.23396 0.1029 0.0
C539 C 0.44588 0.24467 0.045 0.0
C540 C 0.46207 0.2538 0.98272 0.0
C541 C 0.41442 0.24205 0.04045 0.0
C542 C 0.44663 0.25885 0.91492 0.0
C543 C 0.41541 0.2562 0.90986 0.0
H544 H 0.26366 0.84169 0.59863 0.0
H545 H 0.29171 0.83768 0.37266 0.0
H546 H 0.30157 0.89117 0.37076 0.0
H547 H 0.30364 0.93901 0.43435 0.0
H548 H 0.27642 0.9429 0.66038 0.0
H549 H 0.2646 0.88957 0.6611 0.0
C550 C 0.27179 0.85248 0.54876 0.0
C551 C 0.2769 0.83554 0.48589 0.0
C552 C 0.2776 0.88326 0.54811 0.0
C553 C 0.28751 0.85005 0.42189 0.0
C554 C 0.2932 0.88068 0.42073 0.0
C555 C 0.29502 0.92813 0.48358 0.0
C556 C 0.29106 0.94467 0.54747 0.0
C557 C 0.28853 0.89747 0.48364 0.0
C558 C 0.27973 0.93046 0.61081 0.0
C559 C 0.27303 0.90003 0.61118 0.0
H560 H 0.66499 0.77322 0.94171 0.0
H561 H 0.67939 0.80093 0.1665 0.0
H562 H 0.62605 0.8106 0.17688 0.0
H563 H 0.57521 0.81257 0.12188 0.0
H564 H 0.56002 0.7856 0.89761 0.0
H565 H 0.61354 0.77398 0.88747 0.0
C566 C 0.65645 0.78126 0.99303 0.0
C567 C 0.67637 0.78633 0.05308 0.0
C568 C 0.62552 0.78691 0.99883 0.0
C569 C 0.66477 0.79679 0.11919 0.0
C570 C 0.63417 0.80236 0.12535 0.0
C571 C 0.58366 0.80404 0.07095 0.0
C572 C 0.5639 0.80012 0.01035 0.0
C573 C 0.61437 0.79769 0.0655 0.0
C574 C 0.57499 0.78888 0.94477 0.0
C575 C 0.60553 0.78232 0.939 0.0
loop_
_geom_bond_atom_site_label_1
_geom_bond_atom_site_label_2
_geom_bond_distance
_geom_bond_site_symmetry_2
_ccdc_geom_bond_type
Fe0 O2 1.918 . S
Fe0 O5 1.997 . S
Fe0 O6 2.002 . S
Fe0 O11 1.976 . S
Fe0 O14 1.996 . S
Fe1 O2 1.918 1_556 S
Fe1 O9 1.997 . S
Fe1 O12 1.996 . S
Fe1 O16 1.976 . S
Fe1 O19 2.002 . S
O2 Fe0 1.918 . S
O2 Fe1 1.918 1_554 S
O2 Fe3 1.918 . S
Fe3 O2 1.918 . S
Fe3 O4 2.002 . S
Fe3 O13 1.976 . S
Fe3 O17 1.996 1_554 S
Fe3 O20 1.997 1_554 S
O4 Fe3 2.002 . S
O4 C21 1.295 . S
O5 Fe0 1.997 . S
O5 C21 1.235 . S
O6 Fe0 2.002 . S
O6 C7 1.295 . S
C7 O6 1.295 . S
C7 O9 1.235 1_554 S
C8 O13 1.287 . S
C8 O14 1.255 . S
O9 Fe1 1.997 . S
O9 C7 1.235 1_556 S
C10 O16 1.287 . S
C10 O17 1.255 . S
O11 Fe0 1.976 . S
O11 C18 1.287 . S
O12 Fe1 1.996 . S
O12 C18 1.255 1_556 S
O13 Fe3 1.976 . S
O13 C8 1.287 . S
O14 Fe0 1.996 . S
O14 C8 1.255 . S
C15 O19 1.295 . S
C15 O20 1.235 . S
O16 Fe1 1.976 . S
O16 C10 1.287 . S
O17 Fe3 1.996 1_556 S
O17 C10 1.255 . S
C18 O11 1.287 . S
C18 O12 1.255 1_554 S
O19 Fe1 2.002 . S
O19 C15 1.295 . S
O20 Fe3 1.997 1_556 S
O20 C15 1.235 . S
C21 O4 1.295 . S
C21 O5 1.235 . S
Fe22 O24 1.918 . S
Fe22 O27 1.997 . S
Fe22 O28 2.002 . S
Fe22 O33 1.976 . S
Fe22 O36 1.996 . S
Fe23 O24 1.918 . S
Fe23 O31 1.997 . S
Fe23 O34 1.996 . S
Fe23 O38 1.976 . S
Fe23 O41 2.002 . S
O24 Fe22 1.918 . S
O24 Fe23 1.918 . S
O24 Fe25 1.918 . S
Fe25 O24 1.918 . S
Fe25 O26 2.002 . S
Fe25 O35 1.976 . S
Fe25 O39 1.996 . S
Fe25 O42 1.997 . S
O26 Fe25 2.002 . S
O26 C43 1.295 . S
O27 Fe22 1.997 . S
O27 C43 1.235 . S
O28 Fe22 2.002 . S
O28 C29 1.295 . S
C29 O28 1.295 . S
C29 O31 1.235 . S
C30 O35 1.287 . S
C30 O36 1.255 . S
O31 Fe23 1.997 . S
O31 C29 1.235 . S
C32 O38 1.287 . S
C32 O39 1.255 . S
O33 Fe22 1.976 . S
O33 C40 1.287 . S
O34 Fe23 1.996 . S
O34 C40 1.255 . S
O35 Fe25 1.976 . S
O35 C30 1.287 . S
O36 Fe22 1.996 . S
O36 C30 1.255 . S
C37 O41 1.295 . S
C37 O42 1.235 . S
O38 Fe23 1.976 . S
O38 C32 1.287 . S
O39 Fe25 1.996 . S
O39 C32 1.255 . S
C40 O33 1.287 . S
C40 O34 1.255 . S
O41 Fe23 2.002 . S
O41 C37 1.295 . S
O42 Fe25 1.997 . S
O42 C37 1.235 . S
C43 O26 1.295 . S
C43 O27 1.235 . S
Fe44 O46 1.918 1_556 S
Fe44 O49 1.997 . S
Fe44 O50 2.002 . S
Fe44 O55 1.976 . S
Fe44 O58 1.996 . S
Fe45 O46 1.918 . S
Fe45 O53 1.997 . S
Fe45 O56 1.996 . S
Fe45 O60 1.976 . S
Fe45 O63 2.002 . S
O46 Fe44 1.918 1_554 S
O46 Fe45 1.918 . S
O46 Fe47 1.918 . S
Fe47 O46 1.918 . S
Fe47 O48 2.002 1_554 S
Fe47 O57 1.976 1_554 S
Fe47 O61 1.996 . S
Fe47 O64 1.997 . S
O48 Fe47 2.002 1_556 S
O48 C65 1.295 . S
O49 Fe44 1.997 . S
O49 C65 1.235 . S
O50 Fe44 2.002 . S
O50 C51 1.295 1_556 S
C51 O50 1.295 1_554 S
C51 O53 1.235 . S
C52 O57 1.287 . S
C52 O58 1.255 . S
O53 Fe45 1.997 . S
O53 C51 1.235 . S
C54 O60 1.287 . S
C54 O61 1.255 . S
O55 Fe44 1.976 . S
O55 C62 1.287 1_556 S
O56 Fe45 1.996 . S
O56 C62 1.255 . S
O57 Fe47 1.976 1_556 S
O57 C52 1.287 . S
O58 Fe44 1.996 . S
O58 C52 1.255 . S
C59 O63 1.295 . S
C59 O64 1.235 . S
O60 Fe45 1.976 . S
O60 C54 1.287 . S
O61 Fe47 1.996 . S
O61 C54 1.255 . S
C62 O55 1.287 1_554 S
C62 O56 1.255 . S
O63 Fe45 2.002 . S
O63 C59 1.295 . S
O64 Fe47 1.997 . S
O64 C59 1.235 . S
C65 O48 1.295 . S
C65 O49 1.235 . S
Fe66 O68 1.918 . S
Fe66 O71 1.997 . S
Fe66 O72 2.002 . S
Fe66 O77 1.976 . S
Fe66 O80 1.996 . S
Fe67 O68 1.918 . S
Fe67 O75 1.997 . S
Fe67 O78 1.996 . S
Fe67 O82 1.976 . S
Fe67 O85 2.002 . S
O68 Fe66 1.918 . S
O68 Fe67 1.918 . S
O68 Fe69 1.918 . S
Fe69 O68 1.918 . S
Fe69 O70 2.002 . S
Fe69 O79 1.976 . S
Fe69 O83 1.996 . S
Fe69 O86 1.997 . S
O70 Fe69 2.002 . S
O70 C87 1.295 . S
O71 Fe66 1.997 . S
O71 C87 1.235 . S
O72 Fe66 2.002 . S
O72 C73 1.295 . S
C73 O72 1.295 . S
C73 O75 1.235 . S
C74 O79 1.287 . S
C74 O80 1.255 . S
O75 Fe67 1.997 . S
O75 C73 1.235 . S
C76 O82 1.287 . S
C76 O83 1.255 . S
O77 Fe66 1.976 . S
O77 C84 1.287 . S
O78 Fe67 1.996 . S
O78 C84 1.255 . S
O79 Fe69 1.976 . S
O79 C74 1.287 . S
O80 Fe66 1.996 . S
O80 C74 1.255 . S
C81 O85 1.295 . S
C81 O86 1.235 . S
O82 Fe67 1.976 . S
O82 C76 1.287 . S
O83 Fe69 1.996 . S
O83 C76 1.255 . S
C84 O77 1.287 . S
C84 O78 1.255 . S
O85 Fe67 2.002 . S
O85 C81 1.295 . S
O86 Fe69 1.997 . S
O86 C81 1.235 . S
C87 O70 1.295 . S
C87 O71 1.235 . S
H88 C95 0.929 . S
H89 C98 0.930 . S
H90 C100 0.929 . S
H91 C92 0.969 . S
C92 H91 0.969 . S
C92 O93 1.550 1_556 S
C92 H94 0.973 . S
O93 C92 1.550 1_554 S
O93 C99 1.412 . S
H94 C92 0.973 . S
C95 H88 0.929 . S
C95 C96 1.400 . S
C95 C97 1.364 1_554 S
C96 C95 1.400 . S
C96 C100 1.377 . S
C97 C95 1.364 1_556 S
C97 C98 1.374 . S
C98 H89 0.930 . S
C98 C97 1.374 . S
C98 C99 1.383 1_556 S
C99 O93 1.412 . S
C99 C98 1.383 1_554 S
C99 C100 1.394 . S
C100 H90 0.929 . S
C100 C96 1.377 . S
C100 C99 1.394 . S
H101 C108 0.929 . S
H102 C111 0.939 . S
H103 C113 0.929 . S
H104 C105 0.969 . S
C105 H104 0.969 . S
C105 O106 1.550 . S
C105 H107 0.973 . S
O106 C105 1.550 . S
O106 C112 1.447 . S
H107 C105 0.973 . S
C108 H101 0.929 . S
C108 C109 1.400 . S
C108 C110 1.364 . S
C109 C108 1.400 . S
C109 C113 1.377 . S
C110 C108 1.364 . S
C110 C111 1.374 . S
C111 H102 0.939 . S
C111 C110 1.374 . S
C111 C112 1.368 1_655 S
C112 O106 1.447 . S
C112 C111 1.368 1_455 S
C112 C113 1.371 1_455 S
C113 H103 0.929 . S
C113 C109 1.377 . S
C113 C112 1.371 1_655 S
H114 C121 0.929 . S
H115 C124 0.930 . S
H116 C126 0.929 . S
H117 C118 0.969 . S
C118 H117 0.969 . S
C118 O119 1.550 1_554 S
C118 H120 0.973 . S
O119 C118 1.550 1_556 S
O119 C125 1.412 . S
H120 C118 0.973 . S
C121 H114 0.929 . S
C121 C122 1.400 1_554 S
C121 C123 1.364 . S
C122 C121 1.400 1_556 S
C122 C126 1.377 . S
C123 C121 1.364 . S
C123 C124 1.374 . S
C124 H115 0.930 . S
C124 C123 1.374 . S
C124 C125 1.383 1_554 S
C125 O119 1.412 . S
C125 C124 1.383 1_556 S
C125 C126 1.394 . S
C126 H116 0.929 . S
C126 C122 1.377 . S
C126 C125 1.394 . S
H127 C134 0.929 . S
H128 C137 0.909 1_655 S
H129 C139 0.929 . S
H130 C131 0.969 . S
C131 H130 0.969 . S
C131 O132 1.550 . S
C131 H133 0.973 . S
O132 C131 1.550 . S
O132 C138 1.412 . S
H133 C131 0.973 . S
C134 H127 0.929 . S
C134 C135 1.400 . S
C134 C136 1.364 . S
C135 C134 1.400 . S
C135 C139 1.377 . S
C136 C134 1.364 . S
C136 C137 1.374 . S
C137 H128 0.909 1_455 S
C137 C136 1.374 . S
C137 C138 1.383 1_455 S
C138 O132 1.412 . S
C138 C137 1.383 1_655 S
C138 C139 1.394 1_655 S
C139 H129 0.929 . S
C139 C135 1.377 . S
C139 C138 1.394 1_455 S
H140 C147 0.929 . S
H141 C150 0.930 1_545 S
H142 C152 0.929 . S
H143 C144 0.969 . S
C144 H143 0.969 . S
C144 O145 1.550 . S
C144 H146 0.973 . S
O145 C144 1.550 . S
O145 C151 1.412 . S
H146 C144 0.973 . S
C147 H140 0.929 . S
C147 C148 1.400 . S
C147 C149 1.364 . S
C148 C147 1.400 . S
C148 C152 1.377 . S
C149 C147 1.364 . S
C149 C150 1.374 . S
C150 H141 0.930 1_565 S
C150 C149 1.374 . S
C150 C151 1.383 1_565 S
C151 O145 1.412 . S
C151 C150 1.383 1_545 S
C151 C152 1.394 1_545 S
C152 H142 0.929 . S
C152 C148 1.377 . S
C152 C151 1.394 1_565 S
H153 C160 0.929 1_554 S
H154 C163 0.930 . S
H155 C165 0.929 . S
H156 C157 0.969 . S
C157 H156 0.969 . S
C157 O158 1.550 1_554 S
C157 H159 0.973 . S
O158 C157 1.550 1_556 S
O158 C164 1.412 . S
H159 C157 0.973 . S
C160 H153 0.929 1_556 S
C160 C161 1.400 . S
C160 C162 1.364 1_556 S
C161 C160 1.400 . S
C161 C165 1.377 . S
C162 C160 1.364 1_554 S
C162 C163 1.374 . S
C163 H154 0.930 . S
C163 C162 1.374 . S
C163 C164 1.383 1_554 S
C164 O158 1.412 . S
C164 C163 1.383 1_556 S
C164 C165 1.394 . S
C165 H155 0.929 . S
C165 C161 1.377 . S
C165 C164 1.394 . S
H166 C173 0.929 . S
H167 C176 0.926 1_565 S
H168 C178 0.929 . S
H169 C170 0.969 . S
C170 H169 0.969 . S
C170 O171 1.550 . S
C170 H172 0.973 . S
O171 C170 1.550 . S
O171 C177 1.412 . S
H172 C170 0.973 . S
C173 H166 0.929 . S
C173 C174 1.400 . S
C173 C175 1.364 . S
C174 C173 1.400 . S
C174 C178 1.377 . S
C175 C173 1.364 . S
C175 C176 1.374 . S
C176 H167 0.926 1_545 S
C176 C175 1.374 . S
C176 C177 1.383 1_545 S
C177 O171 1.412 . S
C177 C176 1.383 1_565 S
C177 C178 1.394 1_565 S
C178 H168 0.929 . S
C178 C174 1.377 . S
C178 C177 1.394 1_545 S
H179 C186 0.929 . S
H180 C189 0.930 . S
H181 C191 0.929 . S
H182 C183 0.969 . S
C183 H182 0.969 . S
C183 O184 1.550 1_556 S
C183 H185 0.973 . S
O184 C183 1.550 1_554 S
O184 C190 1.412 . S
H185 C183 0.973 . S
C186 H179 0.929 . S
C186 C187 1.400 . S
C186 C188 1.364 1_554 S
C187 C186 1.400 . S
C187 C191 1.377 . S
C188 C186 1.364 1_556 S
C188 C189 1.374 . S
C189 H180 0.930 . S
C189 C188 1.374 . S
C189 C190 1.383 1_556 S
C190 O184 1.412 . S
C190 C189 1.383 1_554 S
C190 C191 1.394 . S
C191 H181 0.929 . S
C191 C187 1.377 . S
C191 C190 1.394 . S
H192 C198 0.930 . S
H193 C201 0.930 . S
H194 C202 0.930 . S
H195 C203 0.930 . S
H196 C206 0.930 . S
H197 C207 0.930 . S
C198 H192 0.930 . S
C198 C199 1.355 . S
C198 C200 1.415 . S
C199 C198 1.355 . S
C199 C201 1.419 . S
C200 C198 1.415 . S
C200 C205 1.425 . S
C200 C207 1.409 . S
C201 H193 0.930 . S
C201 C199 1.419 . S
C201 C202 1.362 . S
C202 H194 0.930 . S
C202 C201 1.362 . S
C202 C205 1.409 . S
C203 H195 0.930 . S
C203 C204 1.355 . S
C203 C205 1.415 . S
C204 C203 1.355 . S
C204 C206 1.419 . S
C205 C200 1.425 . S
C205 C202 1.409 . S
C205 C203 1.415 . S
C206 H196 0.930 . S
C206 C204 1.419 . S
C206 C207 1.362 . S
C207 H197 0.930 . S
C207 C200 1.409 . S
C207 C206 1.362 . S
H208 C214 0.930 . S
H209 C217 0.930 . S
H210 C218 0.930 . S
H211 C219 0.930 . S
H212 C222 0.930 . S
H213 C223 0.930 . S
C214 H208 0.930 . S
C214 C215 1.355 . S
C214 C216 1.415 . S
C215 C214 1.355 . S
C215 C217 1.419 . S
C216 C214 1.415 . S
C216 C221 1.425 . S
C216 C223 1.409 . S
C217 H209 0.930 . S
C217 C215 1.419 . S
C217 C218 1.362 . S
C218 H210 0.930 . S
C218 C217 1.362 . S
C218 C221 1.409 . S
C219 H211 0.930 . S
C219 C220 1.355 . S
C219 C221 1.415 . S
C220 C219 1.355 . S
C220 C222 1.419 . S
C221 C216 1.425 . S
C221 C218 1.409 . S
C221 C219 1.415 . S
C222 H212 0.930 . S
C222 C220 1.419 . S
C222 C223 1.362 . S
C223 H213 0.930 . S
C223 C216 1.409 . S
C223 C222 1.362 . S
H224 C230 0.930 . S
H225 C233 0.930 . S
H226 C234 0.930 . S
H227 C235 0.930 . S
H228 C238 0.930 . S
H229 C239 0.930 . S
C230 H224 0.930 . S
C230 C231 1.355 . S
C230 C232 1.415 . S
C231 C230 1.355 . S
C231 C233 1.419 . S
C232 C230 1.415 . S
C232 C237 1.425 . S
C232 C239 1.409 . S
C233 H225 0.930 . S
C233 C231 1.419 . S
C233 C234 1.362 . S
C234 H226 0.930 . S
C234 C233 1.362 . S
C234 C237 1.409 . S
C235 H227 0.930 . S
C235 C236 1.355 . S
C235 C237 1.415 . S
C236 C235 1.355 . S
C236 C238 1.419 . S
C237 C232 1.425 . S
C237 C234 1.409 . S
C237 C235 1.415 . S
C238 H228 0.930 . S
C238 C236 1.419 . S
C238 C239 1.362 . S
C239 H229 0.930 . S
C239 C232 1.409 . S
C239 C238 1.362 . S
H240 C246 0.930 . S
H241 C249 0.930 . S
H242 C250 0.930 . S
H243 C251 0.930 . S
H244 C254 0.930 . S
H245 C255 0.930 . S
C246 H240 0.930 . S
C246 C247 1.355 . S
C246 C248 1.415 . S
C247 C246 1.355 . S
C247 C249 1.419 . S
C248 C246 1.415 . S
C248 C253 1.425 . S
C248 C255 1.409 . S
C249 H241 0.930 . S
C249 C247 1.419 . S
C249 C250 1.362 . S
C250 H242 0.930 . S
C250 C249 1.362 . S
C250 C253 1.409 . S
C251 H243 0.930 . S
C251 C252 1.355 . S
C251 C253 1.415 . S
C252 C251 1.355 . S
C252 C254 1.419 . S
C253 C248 1.425 . S
C253 C250 1.409 . S
C253 C251 1.415 . S
C254 H244 0.930 . S
C254 C252 1.419 . S
C254 C255 1.362 . S
C255 H245 0.930 . S
C255 C248 1.409 . S
C255 C254 1.362 . S
H256 C262 0.930 . S
H257 C265 0.930 . S
H258 C266 0.930 . S
H259 C267 0.930 . S
H260 C270 0.930 . S
H261 C271 0.930 . S
C262 H256 0.930 . S
C262 C263 1.355 . S
C262 C264 1.415 . S
C263 C262 1.355 . S
C263 C265 1.419 . S
C264 C262 1.415 . S
C264 C269 1.425 . S
C264 C271 1.409 . S
C265 H257 0.930 . S
C265 C263 1.419 . S
C265 C266 1.362 . S
C266 H258 0.930 . S
C266 C265 1.362 . S
C266 C269 1.409 . S
C267 H259 0.930 . S
C267 C268 1.355 . S
C267 C269 1.415 . S
C268 C267 1.355 . S
C268 C270 1.419 . S
C269 C264 1.425 . S
C269 C266 1.409 . S
C269 C267 1.415 . S
C270 H260 0.930 . S
C270 C268 1.419 . S
C270 C271 1.362 . S
C271 H261 0.930 . S
C271 C264 1.409 . S
C271 C270 1.362 . S
H272 C278 0.930 . S
H273 C281 0.930 . S
H274 C282 0.930 . S
H275 C283 0.930 . S
H276 C286 0.930 . S
H277 C287 0.930 . S
C278 H272 0.930 . S
C278 C279 1.355 . S
C278 C280 1.415 . S
C279 C278 1.355 . S
C279 C281 1.419 . S
C280 C278 1.415 . S
C280 C285 1.425 . S
C280 C287 1.409 . S
C281 H273 0.930 . S
C281 C279 1.419 . S
C281 C282 1.362 . S
C282 H274 0.930 . S
C282 C281 1.362 . S
C282 C285 1.409 . S
C283 H275 0.930 . S
C283 C284 1.355 . S
C283 C285 1.415 . S
C284 C283 1.355 . S
C284 C286 1.419 . S
C285 C280 1.425 . S
C285 C282 1.409 . S
C285 C283 1.415 . S
C286 H276 0.930 . S
C286 C284 1.419 . S
C286 C287 1.362 . S
C287 H277 0.930 . S
C287 C280 1.409 . S
C287 C286 1.362 . S
H288 C294 0.930 . S
H289 C297 0.930 . S
H290 C298 0.930 . S
H291 C299 0.930 . S
H292 C302 0.930 . S
H293 C303 0.930 . S
C294 H288 0.930 . S
C294 C295 1.355 . S
C294 C296 1.415 . S
C295 C294 1.355 . S
C295 C297 1.419 . S
C296 C294 1.415 . S
C296 C301 1.425 . S
C296 C303 1.409 . S
C297 H289 0.930 . S
C297 C295 1.419 . S
C297 C298 1.362 . S
C298 H290 0.930 . S
C298 C297 1.362 . S
C298 C301 1.409 . S
C299 H291 0.930 . S
C299 C300 1.355 . S
C299 C301 1.415 . S
C300 C299 1.355 . S
C300 C302 1.419 . S
C301 C296 1.425 . S
C301 C298 1.409 . S
C301 C299 1.415 . S
C302 H292 0.930 . S
C302 C300 1.419 . S
C302 C303 1.362 . S
C303 H293 0.930 . S
C303 C296 1.409 . S
C303 C302 1.362 . S
H304 C310 0.930 . S
H305 C313 0.930 . S
H306 C314 0.930 . S
H307 C315 0.930 . S
H308 C318 0.930 . S
H309 C319 0.930 . S
C310 H304 0.930 . S
C310 C311 1.355 . S
C310 C312 1.415 . S
C311 C310 1.355 . S
C311 C313 1.419 . S
C312 C310 1.415 . S
C312 C317 1.425 . S
C312 C319 1.409 . S
C313 H305 0.930 . S
C313 C311 1.419 . S
C313 C314 1.362 . S
C314 H306 0.930 . S
C314 C313 1.362 . S
C314 C317 1.409 . S
C315 H307 0.930 . S
C315 C316 1.355 . S
C315 C317 1.415 . S
C316 C315 1.355 . S
C316 C318 1.419 . S
C317 C312 1.425 . S
C317 C314 1.409 . S
C317 C315 1.415 . S
C318 H308 0.930 . S
C318 C316 1.419 . S
C318 C319 1.362 . S
C319 H309 0.930 . S
C319 C312 1.409 . S
C319 C318 1.362 . S
H320 C326 0.930 . S
H321 C329 0.930 . S
H322 C330 0.930 . S
H323 C331 0.930 . S
H324 C334 0.930 . S
H325 C335 0.930 . S
C326 H320 0.930 . S
C326 C327 1.355 . S
C326 C328 1.415 . S
C327 C326 1.355 . S
C327 C329 1.419 . S
C328 C326 1.415 . S
C328 C333 1.425 . S
C328 C335 1.409 . S
C329 H321 0.930 . S
C329 C327 1.419 . S
C329 C330 1.362 . S
C330 H322 0.930 . S
C330 C329 1.362 . S
C330 C333 1.409 . S
C331 H323 0.930 . S
C331 C332 1.355 . S
C331 C333 1.415 . S
C332 C331 1.355 . S
C332 C334 1.419 . S
C333 C328 1.425 . S
C333 C330 1.409 . S
C333 C331 1.415 . S
C334 H324 0.930 . S
C334 C332 1.419 . S
C334 C335 1.362 . S
C335 H325 0.930 . S
C335 C328 1.409 . S
C335 C334 1.362 . S
H336 C342 0.930 . S
H337 C345 0.930 . S
H338 C346 0.930 . S
H339 C347 0.930 . S
H340 C350 0.930 . S
H341 C351 0.930 . S
C342 H336 0.930 . S
C342 C343 1.355 . S
C342 C344 1.415 . S
C343 C342 1.355 . S
C343 C345 1.419 . S
C344 C342 1.415 . S
C344 C349 1.425 . S
C344 C351 1.409 . S
C345 H337 0.930 . S
C345 C343 1.419 . S
C345 C346 1.362 . S
C346 H338 0.930 . S
C346 C345 1.362 . S
C346 C349 1.409 . S
C347 H339 0.930 . S
C347 C348 1.355 . S
C347 C349 1.415 . S
C348 C347 1.355 . S
C348 C350 1.419 . S
C349 C344 1.425 . S
C349 C346 1.409 . S
C349 C347 1.415 . S
C350 H340 0.930 . S
C350 C348 1.419 . S
C350 C351 1.362 . S
C351 H341 0.930 . S
C351 C344 1.409 . S
C351 C350 1.362 . S
H352 C358 0.930 . S
H353 C361 0.930 . S
H354 C362 0.930 . S
H355 C363 0.930 . S
H356 C366 0.930 . S
H357 C367 0.930 . S
C358 H352 0.930 . S
C358 C359 1.355 . S
C358 C360 1.415 . S
C359 C358 1.355 . S
C359 C361 1.419 . S
C360 C358 1.415 . S
C360 C365 1.425 . S
C360 C367 1.409 . S
C361 H353 0.930 . S
C361 C359 1.419 . S
C361 C362 1.362 . S
C362 H354 0.930 . S
C362 C361 1.362 . S
C362 C365 1.409 . S
C363 H355 0.930 . S
C363 C364 1.355 . S
C363 C365 1.415 . S
C364 C363 1.355 . S
C364 C366 1.419 . S
C365 C360 1.425 . S
C365 C362 1.409 . S
C365 C363 1.415 . S
C366 H356 0.930 . S
C366 C364 1.419 . S
C366 C367 1.362 . S
C367 H357 0.930 . S
C367 C360 1.409 . S
C367 C366 1.362 . S
H368 C374 0.930 . S
H369 C377 0.930 . S
H370 C378 0.930 . S
H371 C379 0.930 . S
H372 C382 0.930 . S
H373 C383 0.930 . S
C374 H368 0.930 . S
C374 C375 1.355 . S
C374 C376 1.415 . S
C375 C374 1.355 . S
C375 C377 1.419 . S
C376 C374 1.415 . S
C376 C381 1.425 . S
C376 C383 1.409 . S
C377 H369 0.930 . S
C377 C375 1.419 . S
C377 C378 1.362 . S
C378 H370 0.930 . S
C378 C377 1.362 . S
C378 C381 1.409 . S
C379 H371 0.930 . S
C379 C380 1.355 . S
C379 C381 1.415 . S
C380 C379 1.355 . S
C380 C382 1.419 . S
C381 C376 1.425 . S
C381 C378 1.409 . S
C381 C379 1.415 . S
C382 H372 0.930 . S
C382 C380 1.419 . S
C382 C383 1.362 . S
C383 H373 0.930 . S
C383 C376 1.409 . S
C383 C382 1.362 . S
H384 C390 0.930 . S
H385 C393 0.930 . S
H386 C394 0.930 . S
H387 C395 0.930 . S
H388 C398 0.930 . S
H389 C399 0.930 . S
C390 H384 0.930 . S
C390 C391 1.355 . S
C390 C392 1.415 . S
C391 C390 1.355 . S
C391 C393 1.419 . S
C392 C390 1.415 . S
C392 C397 1.425 . S
C392 C399 1.409 . S
C393 H385 0.930 . S
C393 C391 1.419 . S
C393 C394 1.362 . S
C394 H386 0.930 . S
C394 C393 1.362 . S
C394 C397 1.409 . S
C395 H387 0.930 . S
C395 C396 1.355 . S
C395 C397 1.415 . S
C396 C395 1.355 . S
C396 C398 1.419 . S
C397 C392 1.425 . S
C397 C394 1.409 . S
C397 C395 1.415 . S
C398 H388 0.930 . S
C398 C396 1.419 . S
C398 C399 1.362 . S
C399 H389 0.930 . S
C399 C392 1.409 . S
C399 C398 1.362 . S
H400 C406 0.930 . S
H401 C409 0.930 . S
H402 C410 0.930 . S
H403 C411 0.930 . S
H404 C414 0.930 . S
H405 C415 0.930 . S
C406 H400 0.930 . S
C406 C407 1.355 . S
C406 C408 1.415 . S
C407 C406 1.355 . S
C407 C409 1.419 . S
C408 C406 1.415 . S
C408 C413 1.425 . S
C408 C415 1.409 . S
C409 H401 0.930 . S
C409 C407 1.419 . S
C409 C410 1.362 . S
C410 H402 0.930 . S
C410 C409 1.362 . S
C410 C413 1.409 . S
C411 H403 0.930 . S
C411 C412 1.355 . S
C411 C413 1.415 . S
C412 C411 1.355 . S
C412 C414 1.419 . S
C413 C408 1.425 . S
C413 C410 1.409 . S
C413 C411 1.415 . S
C414 H404 0.930 . S
C414 C412 1.419 . S
C414 C415 1.362 . S
C415 H405 0.930 . S
C415 C408 1.409 . S
C415 C414 1.362 . S
H416 C422 0.930 . S
H417 C425 0.930 . S
H418 C426 0.930 . S
H419 C427 0.930 . S
H420 C430 0.930 . S
H421 C431 0.930 . S
C422 H416 0.930 . S
C422 C423 1.355 . S
C422 C424 1.415 . S
C423 C422 1.355 . S
C423 C425 1.419 . S
C424 C422 1.415 . S
C424 C429 1.425 . S
C424 C431 1.409 . S
C425 H417 0.930 . S
C425 C423 1.419 . S
C425 C426 1.362 . S
C426 H418 0.930 . S
C426 C425 1.362 . S
C426 C429 1.409 . S
C427 H419 0.930 . S
C427 C428 1.355 . S
C427 C429 1.415 . S
C428 C427 1.355 . S
C428 C430 1.419 . S
C429 C424 1.425 . S
C429 C426 1.409 . S
C429 C427 1.415 . S
C430 H420 0.930 . S
C430 C428 1.419 . S
C430 C431 1.362 . S
C431 H421 0.930 . S
C431 C424 1.409 . S
C431 C430 1.362 . S
H432 C438 0.930 . S
H433 C441 0.930 . S
H434 C442 0.930 . S
H435 C443 0.930 . S
H436 C446 0.930 . S
H437 C447 0.930 . S
C438 H432 0.930 . S
C438 C439 1.355 . S
C438 C440 1.415 . S
C439 C438 1.355 . S
C439 C441 1.419 . S
C440 C438 1.415 . S
C440 C445 1.425 . S
C440 C447 1.409 . S
C441 H433 0.930 . S
C441 C439 1.419 . S
C441 C442 1.362 . S
C442 H434 0.930 . S
C442 C441 1.362 . S
C442 C445 1.409 . S
C443 H435 0.930 . S
C443 C444 1.355 . S
C443 C445 1.415 . S
C444 C443 1.355 . S
C444 C446 1.419 . S
C445 C440 1.425 . S
C445 C442 1.409 . S
C445 C443 1.415 . S
C446 H436 0.930 . S
C446 C444 1.419 . S
C446 C447 1.362 . S
C447 H437 0.930 . S
C447 C440 1.409 . S
C447 C446 1.362 . S
H448 C454 0.930 . S
H449 C457 0.930 . S
H450 C458 0.930 . S
H451 C459 0.930 . S
H452 C462 0.930 . S
H453 C463 0.930 . S
C454 H448 0.930 . S
C454 C455 1.355 1_556 S
C454 C456 1.415 . S
C455 C454 1.355 1_554 S
C455 C457 1.419 . S
C456 C454 1.415 . S
C456 C461 1.425 1_556 S
C456 C463 1.409 . S
C457 H449 0.930 . S
C457 C455 1.419 . S
C457 C458 1.362 . S
C458 H450 0.930 . S
C458 C457 1.362 . S
C458 C461 1.409 . S
C459 H451 0.930 . S
C459 C460 1.355 . S
C459 C461 1.415 . S
C460 C459 1.355 . S
C460 C462 1.419 1_554 S
C461 C456 1.425 1_554 S
C461 C458 1.409 . S
C461 C459 1.415 . S
C462 H452 0.930 . S
C462 C460 1.419 1_556 S
C462 C463 1.362 . S
C463 H453 0.930 . S
C463 C456 1.409 . S
C463 C462 1.362 . S
H464 C470 0.930 . S
H465 C473 0.930 . S
H466 C474 0.930 . S
H467 C475 0.930 . S
H468 C478 0.930 . S
H469 C479 0.930 . S
C470 H464 0.930 . S
C470 C471 1.355 . S
C470 C472 1.415 . S
C471 C470 1.355 . S
C471 C473 1.419 . S
C472 C470 1.415 . S
C472 C477 1.425 . S
C472 C479 1.409 . S
C473 H465 0.930 . S
C473 C471 1.419 . S
C473 C474 1.362 . S
C474 H466 0.930 . S
C474 C473 1.362 . S
C474 C477 1.409 . S
C475 H467 0.930 . S
C475 C476 1.355 . S
C475 C477 1.415 . S
C476 C475 1.355 . S
C476 C478 1.419 . S
C477 C472 1.425 . S
C477 C474 1.409 . S
C477 C475 1.415 . S
C478 H468 0.930 . S
C478 C476 1.419 . S
C478 C479 1.362 . S
C479 H469 0.930 . S
C479 C472 1.409 . S
C479 C478 1.362 . S
H480 C486 0.930 . S
H481 C489 0.930 . S
H482 C490 0.930 . S
H483 C491 0.930 . S
H484 C494 0.930 . S
H485 C495 0.930 . S
C486 H480 0.930 . S
C486 C487 1.355 1_556 S
C486 C488 1.415 . S
C487 C486 1.355 1_554 S
C487 C489 1.419 . S
C488 C486 1.415 . S
C488 C493 1.425 1_556 S
C488 C495 1.409 . S
C489 H481 0.930 . S
C489 C487 1.419 . S
C489 C490 1.362 . S
C490 H482 0.930 . S
C490 C489 1.362 . S
C490 C493 1.409 . S
C491 H483 0.930 . S
C491 C492 1.355 . S
C491 C493 1.415 . S
C492 C491 1.355 . S
C492 C494 1.419 1_554 S
C493 C488 1.425 1_554 S
C493 C490 1.409 . S
C493 C491 1.415 . S
C494 H484 0.930 . S
C494 C492 1.419 1_556 S
C494 C495 1.362 . S
C495 H485 0.930 . S
C495 C488 1.409 . S
C495 C494 1.362 . S
H496 C502 0.930 . S
H497 C505 0.930 . S
H498 C506 0.930 . S
H499 C507 0.930 . S
H500 C510 0.930 . S
H501 C511 0.930 . S
C502 H496 0.930 . S
C502 C503 1.355 . S
C502 C504 1.415 . S
C503 C502 1.355 . S
C503 C505 1.419 . S
C504 C502 1.415 . S
C504 C509 1.425 . S
C504 C511 1.409 . S
C505 H497 0.930 . S
C505 C503 1.419 . S
C505 C506 1.362 . S
C506 H498 0.930 . S
C506 C505 1.362 . S
C506 C509 1.409 . S
C507 H499 0.930 . S
C507 C508 1.355 . S
C507 C509 1.415 . S
C508 C507 1.355 . S
C508 C510 1.419 . S
C509 C504 1.425 . S
C509 C506 1.409 . S
C509 C507 1.415 . S
C510 H500 0.930 . S
C510 C508 1.419 . S
C510 C511 1.362 . S
C511 H501 0.930 . S
C511 C504 1.409 . S
C511 C510 1.362 . S
H512 C518 0.930 . S
H513 C521 0.930 . S
H514 C522 0.930 . S
H515 C523 0.930 . S
H516 C526 0.930 . S
H517 C527 0.930 . S
C518 H512 0.930 . S
C518 C519 1.355 . S
C518 C520 1.415 . S
C519 C518 1.355 . S
C519 C521 1.419 . S
C520 C518 1.415 . S
C520 C525 1.425 . S
C520 C527 1.409 . S
C521 H513 0.930 . S
C521 C519 1.419 . S
C521 C522 1.362 . S
C522 H514 0.930 . S
C522 C521 1.362 . S
C522 C525 1.409 . S
C523 H515 0.930 . S
C523 C524 1.355 . S
C523 C525 1.415 . S
C524 C523 1.355 . S
C524 C526 1.419 . S
C525 C520 1.425 . S
C525 C522 1.409 . S
C525 C523 1.415 . S
C526 H516 0.930 . S
C526 C524 1.419 . S
C526 C527 1.362 . S
C527 H517 0.930 . S
C527 C520 1.409 . S
C527 C526 1.362 . S
H528 C534 0.930 . S
H529 C537 0.930 . S
H530 C538 0.930 . S
H531 C539 0.930 . S
H532 C542 0.930 . S
H533 C543 0.930 . S
C534 H528 0.930 . S
C534 C535 1.355 1_556 S
C534 C536 1.415 . S
C535 C534 1.355 1_554 S
C535 C537 1.419 . S
C536 C534 1.415 . S
C536 C541 1.425 1_556 S
C536 C543 1.409 . S
C537 H529 0.930 . S
C537 C535 1.419 . S
C537 C538 1.362 . S
C538 H530 0.930 . S
C538 C537 1.362 . S
C538 C541 1.409 . S
C539 H531 0.930 . S
C539 C540 1.355 . S
C539 C541 1.415 . S
C540 C539 1.355 . S
C540 C542 1.419 1_554 S
C541 C536 1.425 1_554 S
C541 C538 1.409 . S
C541 C539 1.415 . S
C542 H532 0.930 . S
C542 C540 1.419 1_556 S
C542 C543 1.362 . S
C543 H533 0.930 . S
C543 C536 1.409 . S
C543 C542 1.362 . S
H544 C550 0.930 . S
H545 C553 0.930 . S
H546 C554 0.930 . S
H547 C555 0.930 . S
H548 C558 0.930 . S
H549 C559 0.930 . S
C550 H544 0.930 . S
C550 C551 1.355 . S
C550 C552 1.415 . S
C551 C550 1.355 . S
C551 C553 1.419 . S
C552 C550 1.415 . S
C552 C557 1.425 . S
C552 C559 1.409 . S
C553 H545 0.930 . S
C553 C551 1.419 . S
C553 C554 1.362 . S
C554 H546 0.930 . S
C554 C553 1.362 . S
C554 C557 1.409 . S
C555 H547 0.930 . S
C555 C556 1.355 . S
C555 C557 1.415 . S
C556 C555 1.355 . S
C556 C558 1.419 . S
C557 C552 1.425 . S
C557 C554 1.409 . S
C557 C555 1.415 . S
C558 H548 0.930 . S
C558 C556 1.419 . S
C558 C559 1.362 . S
C559 H549 0.930 . S
C559 C552 1.409 . S
C559 C558 1.362 . S
H560 C566 0.930 . S
H561 C569 0.930 . S
H562 C570 0.930 . S
H563 C571 0.930 . S
H564 C574 0.930 . S
H565 C575 0.930 . S
C566 H560 0.930 . S
C566 C567 1.355 1_556 S
C566 C568 1.415 . S
C567 C566 1.355 1_554 S
C567 C569 1.419 . S
C568 C566 1.415 . S
C568 C573 1.425 1_556 S
C568 C575 1.409 . S
C569 H561 0.930 . S
C569 C567 1.419 . S
C569 C570 1.362 . S
C570 H562 0.930 . S
C570 C569 1.362 . S
C570 C573 1.409 . S
C571 H563 0.930 . S
C571 C572 1.355 . S
C571 C573 1.415 . S
C572 C571 1.355 . S
C572 C574 1.419 1_554 S
C573 C568 1.425 1_554 S
C573 C570 1.409 . S
C573 C571 1.415 . S
C574 H564 0.930 . S
C574 C572 1.419 1_556 S
C574 C575 1.362 . S
C575 H565 0.930 . S
C575 C568 1.409 . S
C575 C574 1.362 . S
C199 C21 1.501 . S
C204 C135 1.503 . S
C215 C40 1.515 . S
C220 C97 1.454 . S
C236 C110 1.426 . S
C231 C54 1.472 . S
C247 C73 1.497 . S
C252 C122 1.506 . S
C268 C162 1.456 . S
C263 C74 1.464 . S
C284 C174 1.492 . S
C279 C10 1.489 . S
C300 C187 1.474 . S
C295 C37 1.486 . S
C316 C149 1.527 . S
C311 C65 1.508 . S
C327 C52 1.456 . S
C332 C109 1.440 . S
C343 C87 1.525 . S
C348 C123 1.524 . S
C359 C15 1.481 . S
C364 C136 1.505 . S
C380 C96 1.482 . S
C375 C32 1.470 . S
C391 C29 1.529 . S
C396 C188 1.478 . S
C412 C148 1.490 . S
C407 C59 1.525 . S
C428 C161 1.423 . S
C423 C84 1.442 . S
C439 C8 1.495 . S
C444 C175 1.475 . S
C460 C92 1.479 1_554 S
C455 C7 1.513 . S
C476 C105 1.415 . S
C471 C30 1.484 . S
C487 C62 1.530 . S
C492 C118 1.519 . S
C503 C81 1.483 . S
C508 C131 1.417 . S
C524 C144 1.463 . S
C519 C76 1.529 . S
C535 C18 1.493 . S
C540 C157 1.451 . S
C551 C43 1.514 . S
C556 C170 1.499 . S
C567 C51 1.497 . S
C572 C183 1.421 1_554 S
