# Generated by pormake.
# Topology rtl, (3,6)-cn, num edge types: 1
# Building blocks:
#     Node 0, Type 0, BuildingBlock: VETTIZ_charged_linker_0, # of connection points: 3
#     Node 1, Type 0, BuildingBlock: VETTIZ_charged_linker_0, # of connection points: 3
#     Node 2, Type 0, BuildingBlock: VETTIZ_charged_linker_0, # of connection points: 3
#     Node 3, Type 0, BuildingBlock: VETTIZ_charged_linker_0, # of connection points: 3
#     Node 4, Type 1, BuildingBlock: KUMBOL_clean_sbu_1, # of connection points: 6
#     Node 5, Type 1, BuildingBlock: KUMBOL_clean_sbu_1, # of connection points: 6
#     Edge 6, Type (0, 1), None
#     Edge 7, Type (0, 1), None
#     Edge 8, Type (0, 1), None
#     Edge 9, Type (0, 1), None
#     Edge 10, Type (0, 1), None
#     Edge 11, Type (0, 1), None
#     Edge 12, Type (0, 1), None
#     Edge 13, Type (0, 1), None
#     Edge 14, Type (0, 1), None
#     Edge 15, Type (0, 1), None
#     Edge 16, Type (0, 1), None
#     Edge 17, Type (0, 1), None
# Relax obj value: 0.019
# Max RMSD: 0.145
# Mean RMSD: 0.087
data_MOF--net-rtl--node1-KUMBOL_clean_sbu_1--node2-VETTIZ_charged_linker_0--edge1-none
_symmetry_space_group_name_H-M    P1
_symmetry_Int_Tables_number       1
_symmetry_cell_setting            triclinic
loop_
_symmetry_equiv_pos_as_xyz
'x, y, z'
_cell_length_a     21.139343
_cell_length_b     22.388023
_cell_length_c     21.05157
_cell_angle_alpha  71.890088
_cell_angle_beta   98.150898
_cell_angle_gamma 90.867115
loop_
_atom_site_label
_atom_site_type_symbol
_atom_site_fract_x
_atom_site_fract_y
_atom_site_fract_z
_atom_type_partial_charge
C0 C 0.16878 0.93694 0.77484 0.0
C1 C 0.10776 0.96612 0.75376 0.0
C2 C 0.07343 0.97618 0.80248 0.0
C3 C 0.15794 0.92353 0.89173 0.0
C4 C 0.19207 0.91459 0.84398 0.0
C5 C 0.25204 0.87513 0.87562 0.0
H6 H 0.39915 0.64762 0.14244 0.0
C7 C 0.19247 0.88957 0.95915 0.0
C8 C 0.24704 0.86021 0.95025 0.0
H9 H 0.43792 0.71013 0.93604 0.0
H10 H 0.36782 0.8002 0.91122 0.0
H11 H 0.39853 0.79444 0.15335 0.0
H12 H 0.24524 0.67522 0.11371 0.0
H13 H 0.23158 0.70639 0.17857 0.0
H14 H 0.30017 0.65582 0.19116 0.0
H15 H 0.37185 0.73224 0.22017 0.0
H16 H 0.3331 0.80935 0.18978 0.0
C17 C 0.30974 0.91682 0.85607 0.0
C18 C 0.24924 0.81515 0.85305 0.0
C19 C 0.09708 0.88922 0.16624 0.0
C20 C 0.11489 0.85956 0.23562 0.0
C21 C 0.16991 0.81946 0.25778 0.0
C22 C 0.2062 0.80868 0.21117 0.0
C23 C 0.18736 0.8385 0.14179 0.0
C24 C 0.13391 0.87843 0.12061 0.0
C25 C 0.12074 0.90656 0.04534 0.0
C26 C 0.1768 0.87928 0.02482 0.0
C27 C 0.21519 0.83839 0.0812 0.0
C28 C 0.12338 0.97907 0.02744 0.0
C29 C 0.05563 0.88237 0.02014 0.0
C30 C 0.39235 0.68111 0.09207 0.0
C31 C 0.42248 0.67101 0.0405 0.0
C32 C 0.41369 0.71593 0.97591 0.0
C33 C 0.37241 0.76788 0.96119 0.0
C34 C 0.33795 0.77442 0.01084 0.0
C35 C 0.34987 0.73337 0.07589 0.0
C36 C 0.30996 0.75102 0.12195 0.0
C37 C 0.26865 0.80556 0.07198 0.0
C38 C 0.28535 0.81824 0.00698 0.0
C39 C 0.35535 0.77255 0.17455 0.0
C40 C 0.26955 0.6942 0.15347 0.0
H41 H 0.06996 0.96517 0.90532 0.0
H42 H 0.19664 0.92874 0.73896 0.0
H43 H 0.20397 0.81272 0.82007 0.0
H44 H 0.25151 0.77127 0.89635 0.0
H45 H 0.28888 0.81317 0.82456 0.0
H46 H 0.30142 0.96501 0.85838 0.0
H47 H 0.31763 0.92116 0.80374 0.0
H48 H 0.35434 0.89894 0.89103 0.0
H49 H 0.05556 0.92087 0.1477 0.0
H50 H 0.18433 0.79579 0.31114 0.0
H51 H 0.24711 0.77722 0.23071 0.0
H52 H 0.16421 0.99254 0.05925 0.0
H53 H 0.07888 0.99912 0.03623 0.0
H54 H 0.13102 1.0025 0.97472 0.0
H55 H 0.04222 0.83837 0.05733 0.0
H56 H 0.05676 0.86957 0.97357 0.0
H57 H 1.01629 0.91769 0.01108 0.0
H58 H 0.02642 0.99897 0.78777 0.0
C59 C 0.09859 0.95603 0.87104 0.0
C60 C 0.63972 0.64394 0.87825 0.0
C61 C 0.59563 0.59529 0.8926 0.0
C62 C 0.57441 0.56588 0.84402 0.0
C63 C 0.64156 0.6313 0.76826 0.0
C64 C 0.66182 0.66163 0.81515 0.0
C65 C 0.70797 0.71292 0.78893 0.0
H66 H 0.87864 0.86077 0.53421 0.0
C67 C 0.67485 0.6576 0.70942 0.0
C68 C 0.71409 0.7057 0.72034 0.0
H69 H 0.87858 0.90116 0.72202 0.0
H70 H 0.80232 0.81899 0.75604 0.0
H71 H 0.89392 0.71983 0.5999 0.0
H72 H 0.72494 0.83487 0.5036 0.0
H73 H 0.72553 0.77038 0.47225 0.0
H74 H 0.78975 0.82448 0.46089 0.0
H75 H 0.87138 0.74348 0.51011 0.0
H76 H 0.84256 0.67233 0.56494 0.0
C77 C 0.77213 0.69879 0.83697 0.0
C78 C 0.6762 0.77683 0.78172 0.0
C79 C 0.64165 0.55642 0.5239 0.0
C80 C 0.67122 0.56337 0.46656 0.0
C81 C 0.71834 0.60911 0.45128 0.0
C82 C 0.73479 0.64773 0.49174 0.0
C83 C 0.70474 0.64 0.54893 0.0
C84 C 0.65969 0.59441 0.56449 0.0
C85 C 0.63623 0.58934 0.62972 0.0
C86 C 0.67444 0.6398 0.65059 0.0
C87 C 0.71358 0.67006 0.6027 0.0
C88 C 0.65463 0.52221 0.6791 0.0
C89 C 0.56344 0.60598 0.61414 0.0
C90 C 0.86181 0.85271 0.58238 0.0
C91 C 0.88418 0.88833 0.62487 0.0
C92 C 0.8613 0.87536 0.68756 0.0
C93 C 0.81725 0.82747 0.7074 0.0
C94 C 0.79608 0.79186 0.66431 0.0
C95 C 0.81885 0.80485 0.60312 0.0
C96 C 0.79512 0.76039 0.5651 0.0
C97 C 0.75203 0.72002 0.61194 0.0
C98 C 0.75246 0.73819 0.67034 0.0
C99 C 0.85343 0.72212 0.55907 0.0
C100 C 0.75701 0.79919 0.49656 0.0
H101 H 0.57848 0.55903 0.74749 0.0
H102 H 0.65552 0.66821 0.91437 0.0
H103 H 0.62581 0.77972 0.7567 0.0
H104 H 0.7 0.81709 0.75016 0.0
H105 H 0.67573 0.783 0.83204 0.0
H106 H 0.78272 0.64729 0.85795 0.0
H107 H 0.77075 0.71734 0.8798 0.0
H108 H 0.81319 0.71884 0.81121 0.0
H109 H 0.60515 0.52216 0.53729 0.0
H110 H 0.74331 0.6147 0.40839 0.0
H111 H 0.77061 0.68171 0.47719 0.0
H112 H 0.69691 0.50174 0.66631 0.0
H113 H 0.61479 0.48952 0.67766 0.0
H114 H 0.66937 0.52165 0.73183 0.0
H115 H 0.55113 0.64235 0.56402 0.0
H116 H 0.54675 0.62683 0.65027 0.0
H117 H 0.535 0.56406 0.61323 0.0
H118 H 0.54095 0.52814 0.85456 0.0
C119 C 0.59677 0.5837 0.78198 0.0
C120 C 0.87459 0.1016 0.35636 0.0
C121 C 0.93211 0.06645 0.38031 0.0
C122 C 0.96527 0.0498 0.33465 0.0
C123 C 0.88539 0.10603 0.24163 0.0
C124 C 0.85224 0.12091 0.28701 0.0
C125 C 0.79245 0.15959 0.25283 0.0
H126 H 0.64705 0.37892 0.97932 0.0
C127 C 0.85217 0.1381 0.17286 0.0
C128 C 0.79839 0.17036 0.17903 0.0
H129 H 0.6018 0.31742 0.18349 0.0
H130 H 0.67558 0.23022 0.21258 0.0
H131 H 0.80027 0.354 0.01343 0.0
H132 H 0.6565 0.22503 0.97403 0.0
H133 H 0.72173 0.22262 0.93122 0.0
H134 H 0.67402 0.29423 0.90879 0.0
H135 H 0.75027 0.36968 0.93313 0.0
H136 H 0.8208 0.3198 0.95352 0.0
C137 C 0.79432 0.22183 0.27125 0.0
C138 C 0.73484 0.11808 0.27389 0.0
C139 C 0.95157 0.12713 0.97195 0.0
C140 C 0.94073 0.15998 0.90246 0.0
C141 C 0.88902 0.20432 0.87764 0.0
C142 C 0.84991 0.21626 0.92152 0.0
C143 C 0.86282 0.18401 0.99113 0.0
C144 C 0.91315 0.14036 0.01498 0.0
C145 C 0.92352 0.11341 0.09047 0.0
C146 C 0.86885 0.14526 0.1081 0.0
C147 C 0.83313 0.18692 0.04996 0.0
C148 C 0.98998 0.13383 0.1174 0.0
C149 C 0.91607 0.04128 0.10982 0.0
C150 C 0.65282 0.3459 0.02992 0.0
C151 C 0.62001 0.35599 0.07985 0.0
C152 C 0.62778 0.3117 0.14479 0.0
C153 C 0.67099 0.2611 0.16191 0.0
C154 C 0.70765 0.2545 0.11401 0.0
C155 C 0.69658 0.29421 0.04833 0.0
C156 C 0.73908 0.27595 0.00464 0.0
C157 C 0.77979 0.22188 0.05654 0.0
C158 C 0.76134 0.21109 0.12056 0.0
C159 C 0.77978 0.33277 0.97404 0.0
C160 C 0.69594 0.25356 0.95136 0.0
H161 H 0.96962 0.055 0.23316 0.0
H162 H 0.84767 0.11406 0.3907 0.0
H163 H 0.74503 0.06821 0.27827 0.0
H164 H 0.69133 0.13192 0.23609 0.0
H165 H 0.72396 0.11901 0.3237 0.0
H166 H 0.84028 0.22708 0.30159 0.0
H167 H 0.75565 0.22445 0.30079 0.0
H168 H 0.78982 0.26415 0.22604 0.0
H169 H 0.99005 0.09218 0.99316 0.0
H170 H 0.87977 0.23114 0.82456 0.0
H171 H 0.81212 0.25118 0.89991 0.0
H172 H 1.00702 0.17573 0.08008 0.0
H173 H 0.02687 0.09566 0.12909 0.0
H174 H 0.98896 0.1486 0.16277 0.0
H175 H 0.8741 0.02963 0.07796 0.0
H176 H 0.9074 0.01992 0.16256 0.0
H177 H 0.95909 0.01784 0.10227 0.0
H178 H 1.01033 0.02381 0.3522 0.0
C179 C 0.94202 0.06892 0.26546 0.0
C180 C 0.3983 0.38611 0.24227 0.0
C181 C 0.44317 0.43406 0.22732 0.0
C182 C 0.46318 0.46546 0.27445 0.0
C183 C 0.39351 0.40337 0.34978 0.0
C184 C 0.37445 0.37103 0.30444 0.0
C185 C 0.32776 0.32045 0.3314 0.0
H186 H 0.14604 0.18671 0.58089 0.0
C187 C 0.35834 0.37965 0.40775 0.0
C188 C 0.31922 0.33098 0.39791 0.0
H189 H 0.15981 0.12923 0.40526 0.0
H190 H 0.23417 0.21273 0.36772 0.0
H191 H 0.29635 0.20835 0.6162 0.0
H192 H 0.13465 0.32871 0.50648 0.0
H193 H 0.18505 0.3753 0.54374 0.0
H194 H 0.15155 0.30603 0.59678 0.0
H195 H 0.23192 0.22684 0.65474 0.0
H196 H 0.29998 0.27607 0.64199 0.0
C197 C 0.36018 0.25581 0.34304 0.0
C198 C 0.26474 0.33264 0.28169 0.0
C199 C 0.38933 0.48519 0.59051 0.0
C200 C 0.35924 0.47884 0.64751 0.0
C201 C 0.30968 0.43564 0.66084 0.0
C202 C 0.29197 0.39805 0.61962 0.0
C203 C 0.32347 0.40397 0.56374 0.0
C204 C 0.37035 0.4478 0.54931 0.0
C205 C 0.39568 0.45045 0.48549 0.0
C206 C 0.35693 0.40009 0.46475 0.0
C207 C 0.31556 0.37242 0.51123 0.0
C208 C 0.46802 0.43203 0.50377 0.0
C209 C 0.37985 0.51723 0.43434 0.0
C210 C 0.16501 0.19144 0.53445 0.0
C211 C 0.14694 0.15078 0.49641 0.0
C212 C 0.1731 0.1595 0.43601 0.0
C213 C 0.21645 0.2078 0.4144 0.0
C214 C 0.23428 0.24765 0.45375 0.0
C215 C 0.20824 0.23878 0.5126 0.0
C216 C 0.23126 0.28497 0.54854 0.0
C217 C 0.27684 0.32236 0.50282 0.0
C218 C 0.27862 0.30103 0.44678 0.0
C219 C 0.26648 0.24757 0.61933 0.0
C220 C 0.17291 0.3258 0.5496 0.0
H221 H 0.45621 0.47653 0.36881 0.0
H222 H 0.38308 0.36048 0.20724 0.0
H223 H 0.25317 0.3839 0.25954 0.0
H224 H 0.22331 0.31181 0.3063 0.0
H225 H 0.26849 0.31333 0.23988 0.0
H226 H 0.41027 0.25412 0.36851 0.0
H227 H 0.36157 0.24672 0.29426 0.0
H228 H 0.33628 0.21669 0.37617 0.0
H229 H 0.42743 0.51785 0.5785 0.0
H230 H 0.28427 0.43088 0.70326 0.0
H231 H 0.2545 0.36575 0.63305 0.0
H232 H 0.47803 0.39495 0.5537 0.0
H233 H 0.49712 0.47307 0.50668 0.0
H234 H 0.48581 0.41145 0.46801 0.0
H235 H 0.33789 0.5398 0.44526 0.0
H236 H 0.3659 0.51658 0.3819 0.0
H237 H 0.42071 0.54879 0.43583 0.0
H238 H 0.49706 0.50277 0.26343 0.0
C239 C 0.43886 0.45039 0.33546 0.0
C240 C 0.87144 0.18201 0.48672 0.0
C241 C 0.765 0.14584 0.50557 0.0
C242 C 0.83208 0.13691 0.52092 0.0
C243 C 0.73843 0.20032 0.45529 0.0
C244 C 0.84501 0.23758 0.43749 0.0
C245 C 0.77834 0.24646 0.42204 0.0
N246 N 0.93571 0.1726 0.50335 0.0
C247 C 0.97628 0.21818 0.47554 0.0
C248 C 0.88644 0.2832 0.40627 0.0
C249 C 0.9524 0.27354 0.42564 0.0
Gd250 Gd 0.071 0.95304 0.54113 0.0
Gd251 Gd 0.97192 0.08255 0.59293 0.0
N252 N 0.85926 0.08622 0.57162 0.0
C253 C 0.72658 0.101 0.5431 0.0
C254 C 0.82181 0.04499 0.61148 0.0
C255 C 0.75517 0.05073 0.59678 0.0
H256 H 0.84273 1.00872 0.65618 0.0
H257 H 0.72589 0.01727 0.62802 0.0
H258 H 0.21014 0.02637 0.53347 0.0
H259 H 0.02703 0.21189 0.49223 0.0
H260 H 0.32366 1.00125 0.5803 0.0
H261 H 0.67491 0.10607 0.53274 0.0
H262 H 0.68705 0.20799 0.44297 0.0
H263 H 0.9903 0.82156 0.6114 0.0
H264 H 0.86796 0.32642 0.36807 0.0
H265 H 0.98479 0.30913 0.40295 0.0
H266 H 0.32549 0.78646 0.72025 0.0
H267 H 0.75715 0.28891 0.38448 0.0
H268 H 0.12558 0.68548 0.74611 0.0
H269 H 1.01412 0.71744 0.69373 0.0
N270 N 0.08506 0.85387 0.62444 0.0
C271 C 0.14701 0.83676 0.65187 0.0
C272 C 0.03802 0.81112 0.63779 0.0
C273 C 0.11483 0.73284 0.71235 0.0
C274 C 0.05184 0.7508 0.68317 0.0
C275 C 0.16352 0.77538 0.69563 0.0
H276 H 0.24158 0.7105 0.75265 0.0
N277 N 0.17794 0.93839 0.59089 0.0
C278 C 0.19472 0.87978 0.63382 0.0
C279 C 0.30607 0.90707 0.64053 0.0
C280 C 0.2595 0.8624 0.65915 0.0
C281 C 0.22332 0.98134 0.57046 0.0
C282 C 0.28786 0.96683 0.5961 0.0
O283 O 0.96479 0.09232 0.48196 0.0
O284 O 0.97392 0.98949 0.48461 0.0
O285 O 0.10651 0.96817 0.44529 0.0
O286 O 0.08444 0.87469 0.50443 0.0
O287 O 0.94266 0.98037 0.6339 0.0
O288 O 0.96794 0.93046 0.55848 0.0
O289 O 0.11024 0.97781 0.6357 0.0
O290 O 1.01598 0.99442 0.66894 0.0
O291 O 0.93102 0.11703 0.66498 0.0
O292 O 0.02422 0.14613 0.6386 0.0
O293 O 0.09366 0.05503 0.49252 0.0
O294 O 0.07487 0.09869 0.57425 0.0
C295 C 0.95863 0.04865 0.45215 0.0
C296 C 0.93348 0.93602 0.60438 0.0
C297 C 0.0691 0.89667 0.38733 0.0
C298 C 0.07611 0.87108 0.28425 0.0
C299 C 0.97232 0.88199 0.31755 0.0
C300 C 1.0022 0.8946 0.37529 0.0
C301 C 1.00892 0.8704 0.27212 0.0
C302 C 0.10586 0.88445 0.34212 0.0
C303 C 0.1013 0.90941 0.44793 0.0
C304 C 0.27591 0.80088 0.70111 0.0
C305 C 0.22809 0.75764 0.71965 0.0
H306 H 0.35626 0.89559 0.65934 0.0
C307 C 0.07756 0.98266 0.68258 0.0
C308 C 0.10098 0.10028 0.52045 0.0
C309 C 1.00538 0.14164 0.74848 0.0
C310 C 0.98516 0.14948 0.85744 0.0
C311 C 0.09292 0.12698 0.84054 0.0
C312 C 0.07059 0.12944 0.77425 0.0
C313 C 0.05088 0.13731 0.88169 0.0
C314 C 0.96292 0.15158 0.79035 0.0
C315 C 0.98169 0.14763 0.67718 0.0
H316 H 0.92069 0.88101 0.30807 0.0
H317 H 0.97321 0.90315 0.41028 0.0
H318 H 0.98473 0.8602 0.22791 0.0
H319 H 0.15754 0.88606 0.35166 0.0
H320 H 0.14321 0.11756 0.85997 0.0
H321 H 0.10452 0.1218 0.74331 0.0
H322 H 0.07035 0.13668 0.93232 0.0
H323 H 0.91261 0.16067 0.77058 0.0
C324 C 0.72684 0.57705 0.0718 0.0
C325 C 0.72325 0.69115 0.02877 0.0
C326 C 0.69309 0.63407 0.05599 0.0
C327 C 0.78711 0.69018 0.01762 0.0
C328 C 0.79046 0.57598 0.05905 0.0
C329 C 0.82039 0.63281 0.03205 0.0
N330 N 0.69702 0.52262 0.09859 0.0
C331 C 0.72833 0.4658 0.11514 0.0
C332 C 0.82227 0.51773 0.07414 0.0
C333 C 0.79106 0.46242 0.10238 0.0
Gd334 Gd 0.44807 0.49088 0.99906 0.0
Gd335 Gd 0.59343 0.53417 0.12122 0.0
N336 N 0.63086 0.63368 0.06661 0.0
C337 C 0.68828 0.74765 0.01337 0.0
C338 C 0.59774 0.68882 0.05466 0.0
C339 C 0.62539 0.74643 0.02668 0.0
H340 H 0.55092 0.68923 0.06863 0.0
H341 H 0.59856 0.78997 0.01672 0.0
H342 H 0.49595 0.33815 0.03484 0.0
H343 H 0.70576 0.42319 0.1402 0.0
H344 H 0.45547 0.23367 0.08537 0.0
H345 H 0.70965 0.79242 0.99211 0.0
H346 H 0.81099 0.73362 0.99696 0.0
H347 H 0.3328 0.59339 0.99535 0.0
H348 H 0.8711 0.51498 0.06486 0.0
H349 H 0.81562 0.41722 0.11534 0.0
H350 H 0.246 0.27444 0.12687 0.0
H351 H 0.86935 0.63292 0.02224 0.0
H352 H 0.17526 0.4887 0.07504 0.0
H353 H 0.22456 0.59083 0.02714 0.0
N354 N 0.34631 0.49403 0.02957 0.0
C355 C 0.32 0.4373 0.05512 0.0
C356 C 0.31268 0.54872 0.01862 0.0
C357 C 0.22328 0.4896 0.06242 0.0
C358 C 0.251 0.54736 0.0356 0.0
C359 C 0.25755 0.43367 0.07203 0.0
H360 H 0.1832 0.37087 0.11064 0.0
N361 N 0.41715 0.3876 0.05018 0.0
C362 C 0.35635 0.38272 0.06569 0.0
C363 C 0.36672 0.26931 0.10048 0.0
C364 C 0.32978 0.32335 0.09159 0.0
C365 C 0.45144 0.33494 0.0545 0.0
C366 C 0.42756 0.27518 0.08127 0.0
O367 O 0.6088 0.54974 0.01302 0.0
O368 O 0.50754 0.57367 0.95426 0.0
O369 O 0.44357 0.45329 0.91506 0.0
O370 O 0.37346 0.52342 0.91348 0.0
O371 O 0.4989 0.58781 0.10609 0.0
O372 O 0.45543 0.59141 0.99796 0.0
O373 O 0.43219 0.47814 0.10673 0.0
O374 O 0.53268 0.45237 0.16689 0.0
O375 O 0.59499 0.57637 0.2014 0.0
O376 O 0.66565 0.50428 0.20914 0.0
O377 O 0.54394 0.43964 0.01265 0.0
O378 O 0.58301 0.43423 0.12189 0.0
C379 C 0.56988 0.57432 0.95681 0.0
C380 C 0.45878 0.61228 0.05021 0.0
C381 C 0.39832 0.52117 0.80885 0.0
C382 C 0.38016 0.51548 0.69418 0.0
C383 C 0.41653 0.61218 0.71533 0.0
C384 C 0.41593 0.58398 0.78451 0.0
C385 C 0.39848 0.57835 0.6702 0.0
C386 C 0.38144 0.48719 0.76391 0.0
C387 C 0.39502 0.48979 0.88045 0.0
C388 C 0.26709 0.31966 0.10707 0.0
C389 C 0.23123 0.37461 0.09769 0.0
H390 H 0.34808 0.2229 0.12043 0.0
C391 C 0.47015 0.45288 0.16353 0.0
C392 C 0.58282 0.41453 0.06928 0.0
C393 C 0.6378 0.51211 0.31035 0.0
C394 C 0.65287 0.52366 0.42249 0.0
C395 C 0.62085 0.42358 0.40686 0.0
C396 C 0.62193 0.44909 0.33749 0.0
C397 C 0.6367 0.46036 0.44937 0.0
C398 C 0.65203 0.54917 0.35255 0.0
C399 C 0.64287 0.54037 0.23878 0.0
H400 H 0.43035 0.66056 0.69655 0.0
H401 H 0.42923 0.61097 0.8188 0.0
H402 H 0.39784 0.60172 0.61669 0.0
H403 H 0.36914 0.43834 0.7837 0.0
H404 H 0.6086 0.37497 0.42787 0.0
H405 H 0.6106 0.41981 0.30524 0.0
H406 H 0.63735 0.43884 0.50317 0.0
H407 H 0.6628 0.59814 0.33043 0.0
loop_
_geom_bond_atom_site_label_1
_geom_bond_atom_site_label_2
_geom_bond_distance
_geom_bond_site_symmetry_2
_ccdc_geom_bond_type
C0 C1 1.391 . S
C0 C4 1.391 . S
C0 H42 0.948 . S
C1 C0 1.391 . S
C1 C2 1.391 1_565 S
C2 C1 1.391 1_545 S
C2 H58 0.947 . S
C2 C59 1.392 1_545 S
C3 C4 1.391 . S
C3 C7 1.397 . S
C3 C59 1.419 . S
C4 C0 1.391 . S
C4 C3 1.391 . S
C4 C5 1.399 . S
C5 C4 1.399 . S
C5 C8 1.396 . S
C5 C17 1.453 . S
C5 C18 1.684 . S
H6 C30 0.948 . S
C7 C3 1.397 . S
C7 C8 1.394 . S
C7 C26 1.723 1_556 S
C8 C5 1.396 . S
C8 C7 1.394 . S
C8 C38 1.723 1_556 S
H9 C32 0.947 . S
H10 C33 0.948 . S
H11 C39 0.982 . S
H12 C40 0.979 . S
H13 C40 0.980 . S
H14 C40 0.983 . S
H15 C39 0.979 . S
H16 C39 0.977 . S
C17 C5 1.453 . S
C17 H46 0.982 . S
C17 H47 0.979 . S
C17 H48 0.977 . S
C18 C5 1.684 . S
C18 H43 0.979 . S
C18 H44 0.980 . S
C18 H45 0.983 . S
C19 C20 1.391 . S
C19 C24 1.391 . S
C19 H49 0.948 . S
C20 C19 1.391 . S
C20 C21 1.391 . S
C21 C20 1.391 . S
C21 C22 1.392 . S
C21 H50 0.947 . S
C22 C21 1.392 . S
C22 C23 1.419 . S
C22 H51 0.948 . S
C23 C22 1.419 . S
C23 C24 1.391 . S
C23 C27 1.397 . S
C24 C19 1.391 . S
C24 C23 1.391 . S
C24 C25 1.399 . S
C25 C24 1.399 . S
C25 C26 1.396 . S
C25 C28 1.453 1_565 S
C25 C29 1.684 . S
C26 C7 1.723 1_554 S
C26 C25 1.396 . S
C26 C27 1.394 . S
C27 C23 1.397 . S
C27 C26 1.394 . S
C27 C37 1.723 . S
C28 C25 1.453 1_545 S
C28 H52 0.982 . S
C28 H53 0.979 . S
C28 H54 0.977 1_554 S
C29 C25 1.684 . S
C29 H55 0.979 . S
C29 H56 0.980 1_554 S
C29 H57 0.983 . S
C30 H6 0.948 . S
C30 C31 1.391 . S
C30 C35 1.391 . S
C31 C30 1.391 . S
C31 C32 1.391 1_554 S
C32 H9 0.947 . S
C32 C31 1.391 1_556 S
C32 C33 1.392 . S
C33 H10 0.948 . S
C33 C32 1.392 . S
C33 C34 1.419 1_556 S
C34 C33 1.419 1_554 S
C34 C35 1.391 . S
C34 C38 1.397 . S
C35 C30 1.391 . S
C35 C34 1.391 . S
C35 C36 1.399 . S
C36 C35 1.399 . S
C36 C37 1.396 . S
C36 C39 1.453 . S
C36 C40 1.684 . S
C37 C27 1.723 . S
C37 C36 1.396 . S
C37 C38 1.394 . S
C38 C8 1.723 1_554 S
C38 C34 1.397 . S
C38 C37 1.394 . S
C39 H11 0.982 . S
C39 H15 0.979 . S
C39 H16 0.977 . S
C39 C36 1.453 . S
C40 H12 0.979 . S
C40 H13 0.980 . S
C40 H14 0.983 . S
C40 C36 1.684 . S
H41 C59 0.948 . S
H42 C0 0.948 . S
H43 C18 0.979 . S
H44 C18 0.980 . S
H45 C18 0.983 . S
H46 C17 0.982 . S
H47 C17 0.979 . S
H48 C17 0.977 . S
H49 C19 0.948 . S
H50 C21 0.947 . S
H51 C22 0.948 . S
H52 C28 0.982 . S
H53 C28 0.979 . S
H54 C28 0.977 1_556 S
H55 C29 0.979 . S
H56 C29 0.980 1_556 S
H57 C29 0.983 . S
H58 C2 0.947 . S
C59 C2 1.392 1_565 S
C59 C3 1.419 . S
C59 H41 0.948 . S
C60 C61 1.391 . S
C60 C64 1.391 . S
C60 H102 0.948 . S
C61 C60 1.391 . S
C61 C62 1.391 . S
C62 C61 1.391 . S
C62 H118 0.947 . S
C62 C119 1.392 . S
C63 C64 1.391 . S
C63 C67 1.397 . S
C63 C119 1.419 . S
C64 C60 1.391 . S
C64 C63 1.391 . S
C64 C65 1.399 . S
C65 C64 1.399 . S
C65 C68 1.396 . S
C65 C77 1.453 . S
C65 C78 1.684 . S
H66 C90 0.948 . S
C67 C63 1.397 . S
C67 C68 1.394 . S
C67 C86 1.723 . S
C68 C65 1.396 . S
C68 C67 1.394 . S
C68 C98 1.723 . S
H69 C92 0.947 . S
H70 C93 0.948 . S
H71 C99 0.982 . S
H72 C100 0.979 . S
H73 C100 0.980 . S
H74 C100 0.983 . S
H75 C99 0.979 . S
H76 C99 0.977 . S
C77 C65 1.453 . S
C77 H106 0.982 . S
C77 H107 0.979 . S
C77 H108 0.977 . S
C78 C65 1.684 . S
C78 H103 0.979 . S
C78 H104 0.980 . S
C78 H105 0.983 . S
C79 C80 1.391 . S
C79 C84 1.391 . S
C79 H109 0.948 . S
C80 C79 1.391 . S
C80 C81 1.391 . S
C81 C80 1.391 . S
C81 C82 1.392 . S
C81 H110 0.947 . S
C82 C81 1.392 . S
C82 C83 1.419 . S
C82 H111 0.948 . S
C83 C82 1.419 . S
C83 C84 1.391 . S
C83 C87 1.397 . S
C84 C79 1.391 . S
C84 C83 1.391 . S
C84 C85 1.399 . S
C85 C84 1.399 . S
C85 C86 1.396 . S
C85 C88 1.453 . S
C85 C89 1.684 . S
C86 C67 1.723 . S
C86 C85 1.396 . S
C86 C87 1.394 . S
C87 C83 1.397 . S
C87 C86 1.394 . S
C87 C97 1.723 . S
C88 C85 1.453 . S
C88 H112 0.982 . S
C88 H113 0.979 . S
C88 H114 0.977 . S
C89 C85 1.684 . S
C89 H115 0.979 . S
C89 H116 0.980 . S
C89 H117 0.983 . S
C90 H66 0.948 . S
C90 C91 1.391 . S
C90 C95 1.391 . S
C91 C90 1.391 . S
C91 C92 1.391 . S
C92 H69 0.947 . S
C92 C91 1.391 . S
C92 C93 1.392 . S
C93 H70 0.948 . S
C93 C92 1.392 . S
C93 C94 1.419 . S
C94 C93 1.419 . S
C94 C95 1.391 . S
C94 C98 1.397 . S
C95 C90 1.391 . S
C95 C94 1.391 . S
C95 C96 1.399 . S
C96 C95 1.399 . S
C96 C97 1.396 . S
C96 C99 1.453 . S
C96 C100 1.684 . S
C97 C87 1.723 . S
C97 C96 1.396 . S
C97 C98 1.394 . S
C98 C68 1.723 . S
C98 C94 1.397 . S
C98 C97 1.394 . S
C99 H71 0.982 . S
C99 H75 0.979 . S
C99 H76 0.977 . S
C99 C96 1.453 . S
C100 H72 0.979 . S
C100 H73 0.980 . S
C100 H74 0.983 . S
C100 C96 1.684 . S
H101 C119 0.948 . S
H102 C60 0.948 . S
H103 C78 0.979 . S
H104 C78 0.980 . S
H105 C78 0.983 . S
H106 C77 0.982 . S
H107 C77 0.979 . S
H108 C77 0.977 . S
H109 C79 0.948 . S
H110 C81 0.947 . S
H111 C82 0.948 . S
H112 C88 0.982 . S
H113 C88 0.979 . S
H114 C88 0.977 . S
H115 C89 0.979 . S
H116 C89 0.980 . S
H117 C89 0.983 . S
H118 C62 0.947 . S
C119 C62 1.392 . S
C119 C63 1.419 . S
C119 H101 0.948 . S
C120 C121 1.391 . S
C120 C124 1.391 . S
C120 H162 0.948 . S
C121 C120 1.391 . S
C121 C122 1.391 1_545 S
C122 C121 1.391 1_565 S
C122 H178 0.947 . S
C122 C179 1.392 1_565 S
C123 C124 1.391 . S
C123 C127 1.397 . S
C123 C179 1.419 . S
C124 C120 1.391 . S
C124 C123 1.391 . S
C124 C125 1.399 . S
C125 C124 1.399 . S
C125 C128 1.396 . S
C125 C137 1.453 . S
C125 C138 1.684 . S
H126 C150 0.948 1_556 S
C127 C123 1.397 . S
C127 C128 1.394 . S
C127 C146 1.723 . S
C128 C125 1.396 . S
C128 C127 1.394 . S
C128 C158 1.723 . S
H129 C152 0.947 . S
H130 C153 0.948 . S
H131 C159 0.982 . S
H132 C160 0.979 . S
H133 C160 0.980 . S
H134 C160 0.983 . S
H135 C159 0.979 . S
H136 C159 0.977 . S
C137 C125 1.453 . S
C137 H166 0.982 . S
C137 H167 0.979 . S
C137 H168 0.977 . S
C138 C125 1.684 . S
C138 H163 0.979 . S
C138 H164 0.980 . S
C138 H165 0.983 . S
C139 C140 1.391 . S
C139 C144 1.391 1_556 S
C139 H169 0.948 . S
C140 C139 1.391 . S
C140 C141 1.391 . S
C141 C140 1.391 . S
C141 C142 1.392 . S
C141 H170 0.947 . S
C142 C141 1.392 . S
C142 C143 1.419 . S
C142 H171 0.948 . S
C143 C142 1.419 . S
C143 C144 1.391 1_556 S
C143 C147 1.397 1_556 S
C144 C139 1.391 1_554 S
C144 C143 1.391 1_554 S
C144 C145 1.399 . S
C145 C144 1.399 . S
C145 C146 1.396 . S
C145 C148 1.453 . S
C145 C149 1.684 1_545 S
C146 C127 1.723 . S
C146 C145 1.396 . S
C146 C147 1.394 . S
C147 C143 1.397 1_554 S
C147 C146 1.394 . S
C147 C157 1.723 . S
C148 C145 1.453 . S
C148 H172 0.982 . S
C148 H173 0.979 . S
C148 H174 0.977 . S
C149 C145 1.684 1_565 S
C149 H175 0.979 . S
C149 H176 0.980 . S
C149 H177 0.983 . S
C150 H126 0.948 1_554 S
C150 C151 1.391 . S
C150 C155 1.391 . S
C151 C150 1.391 . S
C151 C152 1.391 . S
C152 H129 0.947 . S
C152 C151 1.391 . S
C152 C153 1.392 . S
C153 H130 0.948 . S
C153 C152 1.392 . S
C153 C154 1.419 . S
C154 C153 1.419 . S
C154 C155 1.391 . S
C154 C158 1.397 . S
C155 C150 1.391 . S
C155 C154 1.391 . S
C155 C156 1.399 . S
C156 C155 1.399 . S
C156 C157 1.396 . S
C156 C159 1.453 1_554 S
C156 C160 1.684 1_554 S
C157 C147 1.723 . S
C157 C156 1.396 . S
C157 C158 1.394 . S
C158 C128 1.723 . S
C158 C154 1.397 . S
C158 C157 1.394 . S
C159 H131 0.982 . S
C159 H135 0.979 . S
C159 H136 0.977 . S
C159 C156 1.453 1_556 S
C160 H132 0.979 . S
C160 H133 0.980 . S
C160 H134 0.983 . S
C160 C156 1.684 1_556 S
H161 C179 0.948 1_565 S
H162 C120 0.948 . S
H163 C138 0.979 . S
H164 C138 0.980 . S
H165 C138 0.983 . S
H166 C137 0.982 . S
H167 C137 0.979 . S
H168 C137 0.977 . S
H169 C139 0.948 . S
H170 C141 0.947 . S
H171 C142 0.948 . S
H172 C148 0.982 . S
H173 C148 0.979 . S
H174 C148 0.977 . S
H175 C149 0.979 . S
H176 C149 0.980 . S
H177 C149 0.983 . S
H178 C122 0.947 . S
C179 C122 1.392 1_545 S
C179 C123 1.419 . S
C179 H161 0.948 1_545 S
C180 C181 1.391 . S
C180 C184 1.391 . S
C180 H222 0.948 . S
C181 C180 1.391 . S
C181 C182 1.391 . S
C182 C181 1.391 . S
C182 H238 0.947 . S
C182 C239 1.392 . S
C183 C184 1.391 . S
C183 C187 1.397 . S
C183 C239 1.419 . S
C184 C180 1.391 . S
C184 C183 1.391 . S
C184 C185 1.399 . S
C185 C184 1.399 . S
C185 C188 1.396 . S
C185 C197 1.453 . S
C185 C198 1.684 . S
H186 C210 0.948 . S
C187 C183 1.397 . S
C187 C188 1.394 . S
C187 C206 1.723 . S
C188 C185 1.396 . S
C188 C187 1.394 . S
C188 C218 1.723 . S
H189 C212 0.947 . S
H190 C213 0.948 . S
H191 C219 0.982 . S
H192 C220 0.979 . S
H193 C220 0.980 . S
H194 C220 0.983 . S
H195 C219 0.979 . S
H196 C219 0.977 . S
C197 C185 1.453 . S
C197 H226 0.982 . S
C197 H227 0.979 . S
C197 H228 0.977 . S
C198 C185 1.684 . S
C198 H223 0.979 . S
C198 H224 0.980 . S
C198 H225 0.983 . S
C199 C200 1.391 . S
C199 C204 1.391 . S
C199 H229 0.948 . S
C200 C199 1.391 . S
C200 C201 1.391 . S
C201 C200 1.391 . S
C201 C202 1.392 . S
C201 H230 0.947 . S
C202 C201 1.392 . S
C202 C203 1.419 . S
C202 H231 0.948 . S
C203 C202 1.419 . S
C203 C204 1.391 . S
C203 C207 1.397 . S
C204 C199 1.391 . S
C204 C203 1.391 . S
C204 C205 1.399 . S
C205 C204 1.399 . S
C205 C206 1.396 . S
C205 C208 1.453 . S
C205 C209 1.684 . S
C206 C187 1.723 . S
C206 C205 1.396 . S
C206 C207 1.394 . S
C207 C203 1.397 . S
C207 C206 1.394 . S
C207 C217 1.723 . S
C208 C205 1.453 . S
C208 H232 0.982 . S
C208 H233 0.979 . S
C208 H234 0.977 . S
C209 C205 1.684 . S
C209 H235 0.979 . S
C209 H236 0.980 . S
C209 H237 0.983 . S
C210 H186 0.948 . S
C210 C211 1.391 . S
C210 C215 1.391 . S
C211 C210 1.391 . S
C211 C212 1.391 . S
C212 H189 0.947 . S
C212 C211 1.391 . S
C212 C213 1.392 . S
C213 H190 0.948 . S
C213 C212 1.392 . S
C213 C214 1.419 . S
C214 C213 1.419 . S
C214 C215 1.391 . S
C214 C218 1.397 . S
C215 C210 1.391 . S
C215 C214 1.391 . S
C215 C216 1.399 . S
C216 C215 1.399 . S
C216 C217 1.396 . S
C216 C219 1.453 . S
C216 C220 1.684 . S
C217 C207 1.723 . S
C217 C216 1.396 . S
C217 C218 1.394 . S
C218 C188 1.723 . S
C218 C214 1.397 . S
C218 C217 1.394 . S
C219 H191 0.982 . S
C219 H195 0.979 . S
C219 H196 0.977 . S
C219 C216 1.453 . S
C220 H192 0.979 . S
C220 H193 0.980 . S
C220 H194 0.983 . S
C220 C216 1.684 . S
H221 C239 0.948 . S
H222 C180 0.948 . S
H223 C198 0.979 . S
H224 C198 0.980 . S
H225 C198 0.983 . S
H226 C197 0.982 . S
H227 C197 0.979 . S
H228 C197 0.977 . S
H229 C199 0.948 . S
H230 C201 0.947 . S
H231 C202 0.948 . S
H232 C208 0.982 . S
H233 C208 0.979 . S
H234 C208 0.977 . S
H235 C209 0.979 . S
H236 C209 0.980 . S
H237 C209 0.983 . S
H238 C182 0.947 . S
C239 C182 1.392 . S
C239 C183 1.419 . S
C239 H221 0.948 . S
C240 C242 1.422 . S
C240 C244 1.415 . S
C240 N246 1.369 . S
C241 C242 1.421 . S
C241 C243 1.417 . S
C241 C253 1.422 . S
C242 C240 1.422 . S
C242 C241 1.421 . S
C242 N252 1.359 . S
C243 C241 1.417 . S
C243 C245 1.329 . S
C243 H262 0.930 . S
C244 C240 1.415 . S
C244 C245 1.437 . S
C244 C248 1.413 . S
C245 C243 1.329 . S
C245 C244 1.437 . S
C245 H267 0.929 . S
N246 C240 1.369 . S
N246 C247 1.338 . S
N246 Gd251 2.622 . S
C247 N246 1.338 . S
C247 C249 1.378 . S
C247 H259 0.929 1_655 S
C248 C244 1.413 . S
C248 C249 1.348 . S
C248 H264 0.931 . S
C249 C247 1.378 . S
C249 C248 1.348 . S
C249 H265 0.930 1_655 S
Gd250 N270 2.622 . S
Gd250 N277 2.570 . S
Gd250 O284 2.353 1_465 S
Gd250 O285 2.468 . S
Gd250 O286 2.427 . S
Gd250 O288 2.388 1_455 S
Gd250 O289 2.386 . S
Gd250 O293 2.307 1_565 S
Gd250 C303 2.805 . S
Gd251 N246 2.622 . S
Gd251 N252 2.570 . S
Gd251 O283 2.386 . S
Gd251 O287 2.307 1_545 S
Gd251 O290 2.353 1_655 S
Gd251 O291 2.468 . S
Gd251 O292 2.427 . S
Gd251 O294 2.388 1_655 S
Gd251 C315 2.805 . S
N252 C242 1.359 . S
N252 Gd251 2.570 . S
N252 C254 1.343 . S
C253 C241 1.422 . S
C253 C255 1.321 . S
C253 H261 0.931 . S
C254 N252 1.343 . S
C254 C255 1.390 . S
C254 H256 0.931 . S
C255 C253 1.321 . S
C255 C254 1.390 . S
C255 H257 0.930 . S
H256 C254 0.931 . S
H257 C255 0.930 . S
H258 C281 0.931 . S
H259 C247 0.929 1_455 S
H260 C282 0.930 . S
H261 C253 0.931 . S
H262 C243 0.930 . S
H263 C272 0.929 1_655 S
H264 C248 0.931 . S
H265 C249 0.930 1_455 S
H266 C304 0.930 . S
H267 C245 0.929 . S
H268 C273 0.931 . S
H269 C274 0.930 1_655 S
N270 Gd250 2.622 . S
N270 C271 1.369 . S
N270 C272 1.338 . S
C271 N270 1.369 . S
C271 C275 1.415 . S
C271 C278 1.422 . S
C272 H263 0.929 1_455 S
C272 N270 1.338 . S
C272 C274 1.378 . S
C273 H268 0.931 . S
C273 C274 1.348 . S
C273 C275 1.413 . S
C274 H269 0.930 1_455 S
C274 C272 1.378 . S
C274 C273 1.348 . S
C275 C271 1.415 . S
C275 C273 1.413 . S
C275 C305 1.437 . S
H276 C305 0.929 . S
N277 Gd250 2.570 . S
N277 C278 1.359 . S
N277 C281 1.343 . S
C278 C271 1.422 . S
C278 N277 1.359 . S
C278 C280 1.421 . S
C279 C280 1.422 . S
C279 C282 1.321 . S
C279 H306 0.931 . S
C280 C278 1.421 . S
C280 C279 1.422 . S
C280 C304 1.417 . S
C281 H258 0.931 . S
C281 N277 1.343 . S
C281 C282 1.390 . S
C282 H260 0.930 . S
C282 C279 1.321 . S
C282 C281 1.390 . S
O283 Gd251 2.386 . S
O283 C295 1.265 . S
O284 Gd250 2.353 1_645 S
O284 C295 1.242 . S
O285 Gd250 2.468 . S
O285 C303 1.263 . S
O286 Gd250 2.427 . S
O286 C303 1.252 . S
O287 Gd251 2.307 1_565 S
O287 C296 1.261 . S
O288 Gd250 2.388 1_655 S
O288 C296 1.252 . S
O289 Gd250 2.386 . S
O289 C307 1.265 . S
O290 Gd251 2.353 1_455 S
O290 C307 1.242 1_545 S
O291 Gd251 2.468 . S
O291 C315 1.263 . S
O292 Gd251 2.427 . S
O292 C315 1.252 . S
O293 Gd250 2.307 1_545 S
O293 C308 1.261 . S
O294 Gd251 2.388 1_455 S
O294 C308 1.252 . S
C295 O283 1.265 . S
C295 O284 1.242 . S
C296 O287 1.261 . S
C296 O288 1.252 . S
C297 C300 1.394 . S
C297 C302 1.370 . S
C297 C303 1.500 . S
C298 C301 1.383 . S
C298 C302 1.395 . S
C299 C300 1.396 . S
C299 C301 1.365 . S
C299 H316 0.929 . S
C300 C297 1.394 . S
C300 C299 1.396 . S
C300 H317 0.930 . S
C301 C298 1.383 . S
C301 C299 1.365 . S
C301 H318 0.931 . S
C302 C297 1.370 . S
C302 C298 1.395 . S
C302 H319 0.930 . S
C303 Gd250 2.805 . S
C303 O285 1.263 . S
C303 O286 1.252 . S
C303 C297 1.500 . S
C304 H266 0.930 . S
C304 C280 1.417 . S
C304 C305 1.329 . S
C305 C275 1.437 . S
C305 H276 0.929 . S
C305 C304 1.329 . S
H306 C279 0.931 . S
C307 O289 1.265 . S
C307 O290 1.242 1_565 S
C308 O293 1.261 . S
C308 O294 1.252 . S
C309 C312 1.394 . S
C309 C314 1.370 . S
C309 C315 1.500 . S
C310 C313 1.383 . S
C310 C314 1.395 . S
C311 C312 1.396 . S
C311 C313 1.365 . S
C311 H320 0.929 . S
C312 C309 1.394 . S
C312 C311 1.396 . S
C312 H321 0.930 . S
C313 C310 1.383 . S
C313 C311 1.365 . S
C313 H322 0.931 . S
C314 C309 1.370 . S
C314 C310 1.395 . S
C314 H323 0.930 . S
C315 Gd251 2.805 . S
C315 O291 1.263 . S
C315 O292 1.252 . S
C315 C309 1.500 . S
H316 C299 0.929 . S
H317 C300 0.930 . S
H318 C301 0.931 . S
H319 C302 0.930 . S
H320 C311 0.929 . S
H321 C312 0.930 . S
H322 C313 0.931 . S
H323 C314 0.930 . S
C324 C326 1.422 . S
C324 C328 1.415 . S
C324 N330 1.369 . S
C325 C326 1.421 . S
C325 C327 1.417 . S
C325 C337 1.422 . S
C326 C324 1.422 . S
C326 C325 1.421 . S
C326 N336 1.359 . S
C327 C325 1.417 . S
C327 C329 1.329 . S
C327 H346 0.930 . S
C328 C324 1.415 . S
C328 C329 1.437 . S
C328 C332 1.413 . S
C329 C327 1.329 . S
C329 C328 1.437 . S
C329 H351 0.929 . S
N330 C324 1.369 . S
N330 C331 1.338 . S
N330 Gd335 2.622 . S
C331 N330 1.338 . S
C331 C333 1.378 . S
C331 H343 0.929 . S
C332 C328 1.413 . S
C332 C333 1.348 . S
C332 H348 0.931 . S
C333 C331 1.378 . S
C333 C332 1.348 . S
C333 H349 0.930 . S
Gd334 N354 2.621 1_556 S
Gd334 N361 2.570 1_556 S
Gd334 O368 2.353 . S
Gd334 O369 2.468 . S
Gd334 O370 2.427 . S
Gd334 O372 2.389 . S
Gd334 O373 2.386 1_556 S
Gd334 O377 2.307 1_556 S
Gd334 C387 2.805 . S
Gd335 N330 2.622 . S
Gd335 N336 2.570 . S
Gd335 O367 2.386 . S
Gd335 O371 2.307 . S
Gd335 O374 2.353 . S
Gd335 O375 2.468 . S
Gd335 O376 2.427 . S
Gd335 O378 2.388 . S
Gd335 C399 2.805 . S
N336 C326 1.359 . S
N336 Gd335 2.570 . S
N336 C338 1.343 . S
C337 C325 1.422 . S
C337 C339 1.321 . S
C337 H345 0.931 . S
C338 N336 1.343 . S
C338 C339 1.390 . S
C338 H340 0.931 . S
C339 C337 1.321 . S
C339 C338 1.390 . S
C339 H341 0.930 . S
H340 C338 0.931 . S
H341 C339 0.930 . S
H342 C365 0.931 . S
H343 C331 0.929 . S
H344 C366 0.930 . S
H345 C337 0.931 . S
H346 C327 0.930 . S
H347 C356 0.929 . S
H348 C332 0.931 . S
H349 C333 0.930 . S
H350 C388 0.930 . S
H351 C329 0.929 . S
H352 C357 0.931 . S
H353 C358 0.930 . S
N354 Gd334 2.621 1_554 S
N354 C355 1.370 . S
N354 C356 1.338 1_554 S
C355 N354 1.370 . S
C355 C359 1.415 . S
C355 C362 1.422 . S
C356 H347 0.929 . S
C356 N354 1.338 1_556 S
C356 C358 1.378 . S
C357 H352 0.931 . S
C357 C358 1.348 1_554 S
C357 C359 1.413 . S
C358 H353 0.930 . S
C358 C356 1.378 . S
C358 C357 1.348 1_556 S
C359 C355 1.415 . S
C359 C357 1.413 . S
C359 C389 1.437 . S
H360 C389 0.929 . S
N361 Gd334 2.570 1_554 S
N361 C362 1.359 . S
N361 C365 1.343 . S
C362 C355 1.422 . S
C362 N361 1.359 . S
C362 C364 1.421 . S
C363 C364 1.422 . S
C363 C366 1.321 . S
C363 H390 0.931 . S
C364 C362 1.421 . S
C364 C363 1.422 . S
C364 C388 1.417 . S
C365 H342 0.931 . S
C365 N361 1.343 . S
C365 C366 1.390 . S
C366 H344 0.930 . S
C366 C363 1.321 . S
C366 C365 1.390 . S
O367 Gd335 2.386 . S
O367 C379 1.265 1_554 S
O368 Gd334 2.353 . S
O368 C379 1.242 . S
O369 Gd334 2.468 . S
O369 C387 1.263 . S
O370 Gd334 2.427 . S
O370 C387 1.252 . S
O371 Gd335 2.307 . S
O371 C380 1.261 . S
O372 Gd334 2.389 . S
O372 C380 1.248 1_556 S
O373 Gd334 2.386 1_554 S
O373 C391 1.265 . S
O374 Gd335 2.353 . S
O374 C391 1.242 . S
O375 Gd335 2.468 . S
O375 C399 1.263 . S
O376 Gd335 2.427 . S
O376 C399 1.252 . S
O377 Gd334 2.307 1_554 S
O377 C392 1.261 . S
O378 Gd335 2.388 . S
O378 C392 1.252 . S
C379 O367 1.265 1_556 S
C379 O368 1.242 . S
C380 O371 1.261 . S
C380 O372 1.248 1_554 S
C381 C384 1.394 . S
C381 C386 1.370 . S
C381 C387 1.500 . S
C382 C385 1.383 . S
C382 C386 1.395 . S
C383 C384 1.396 . S
C383 C385 1.365 . S
C383 H400 0.929 . S
C384 C381 1.394 . S
C384 C383 1.396 . S
C384 H401 0.930 . S
C385 C382 1.383 . S
C385 C383 1.365 . S
C385 H402 0.931 . S
C386 C381 1.370 . S
C386 C382 1.395 . S
C386 H403 0.930 . S
C387 Gd334 2.805 . S
C387 O369 1.263 . S
C387 O370 1.252 . S
C387 C381 1.500 . S
C388 H350 0.930 . S
C388 C364 1.417 . S
C388 C389 1.329 . S
C389 C359 1.437 . S
C389 H360 0.929 . S
C389 C388 1.329 . S
H390 C363 0.931 . S
C391 O373 1.265 . S
C391 O374 1.242 . S
C392 O377 1.261 . S
C392 O378 1.252 . S
C393 C396 1.394 . S
C393 C398 1.370 . S
C393 C399 1.500 . S
C394 C397 1.383 . S
C394 C398 1.395 . S
C395 C396 1.396 . S
C395 C397 1.365 . S
C395 H404 0.929 . S
C396 C393 1.394 . S
C396 C395 1.396 . S
C396 H405 0.930 . S
C397 C394 1.383 . S
C397 C395 1.365 . S
C397 H406 0.931 . S
C398 C393 1.370 . S
C398 C394 1.395 . S
C398 H407 0.930 . S
C399 Gd335 2.805 . S
C399 O375 1.263 . S
C399 O376 1.252 . S
C399 C393 1.500 . S
H400 C383 0.929 . S
H401 C384 0.930 . S
H402 C385 0.931 . S
H403 C386 0.930 . S
H404 C395 0.929 . S
H405 C396 0.930 . S
H406 C397 0.931 . S
H407 C398 0.930 . S
C308 C211 2.174 . S
C31 C380 1.912 . S
C91 C296 2.267 . S
C151 C392 2.110 . S
C298 C20 1.466 . S
C379 C61 1.836 . S
C121 C295 2.283 . S
C200 C382 1.347 . S
C394 C80 1.504 . S
C310 C140 1.654 . S
C391 C181 1.709 . S
C1 C307 2.070 . S
