# Generated by pormake.
# Topology anh, (6,3)-cn, num edge types: 1
# Building blocks:
#     Node 0, Type 0, BuildingBlock: MIFKUJ_clean_sbu_0, # of connection points: 6
#     Node 1, Type 0, BuildingBlock: MIFKUJ_clean_sbu_0, # of connection points: 6
#     Node 2, Type 0, BuildingBlock: MIFKUJ_clean_sbu_0, # of connection points: 6
#     Node 3, Type 1, BuildingBlock: BETDAH_clean_linker_0, # of connection points: 3
#     Node 4, Type 1, BuildingBlock: BETDAH_clean_linker_0, # of connection points: 3
#     Node 5, Type 1, BuildingBlock: BETDAH_clean_linker_0, # of connection points: 3
#     Node 6, Type 1, BuildingBlock: BETDAH_clean_linker_0, # of connection points: 3
#     Node 7, Type 1, BuildingBlock: BETDAH_clean_linker_0, # of connection points: 3
#     Node 8, Type 1, BuildingBlock: BETDAH_clean_linker_0, # of connection points: 3
#     Edge 9, Type (0, 1), BuildingBlock: EZIPEK_clean_linker_0, # of connection points: 2
#     Edge 10, Type (0, 1), BuildingBlock: EZIPEK_clean_linker_0, # of connection points: 2
#     Edge 11, Type (0, 1), BuildingBlock: EZIPEK_clean_linker_0, # of connection points: 2
#     Edge 12, Type (0, 1), BuildingBlock: EZIPEK_clean_linker_0, # of connection points: 2
#     Edge 13, Type (0, 1), BuildingBlock: EZIPEK_clean_linker_0, # of connection points: 2
#     Edge 14, Type (0, 1), BuildingBlock: EZIPEK_clean_linker_0, # of connection points: 2
#     Edge 15, Type (0, 1), BuildingBlock: EZIPEK_clean_linker_0, # of connection points: 2
#     Edge 16, Type (0, 1), BuildingBlock: EZIPEK_clean_linker_0, # of connection points: 2
#     Edge 17, Type (0, 1), BuildingBlock: EZIPEK_clean_linker_0, # of connection points: 2
#     Edge 18, Type (0, 1), BuildingBlock: EZIPEK_clean_linker_0, # of connection points: 2
#     Edge 19, Type (0, 1), BuildingBlock: EZIPEK_clean_linker_0, # of connection points: 2
#     Edge 20, Type (0, 1), BuildingBlock: EZIPEK_clean_linker_0, # of connection points: 2
#     Edge 21, Type (0, 1), BuildingBlock: EZIPEK_clean_linker_0, # of connection points: 2
#     Edge 22, Type (0, 1), BuildingBlock: EZIPEK_clean_linker_0, # of connection points: 2
#     Edge 23, Type (0, 1), BuildingBlock: EZIPEK_clean_linker_0, # of connection points: 2
#     Edge 24, Type (0, 1), BuildingBlock: EZIPEK_clean_linker_0, # of connection points: 2
#     Edge 25, Type (0, 1), BuildingBlock: EZIPEK_clean_linker_0, # of connection points: 2
#     Edge 26, Type (0, 1), BuildingBlock: EZIPEK_clean_linker_0, # of connection points: 2
# Relax obj value: 0.068
# Max RMSD: 0.137
# Mean RMSD: 0.099
data_MOF--net-anh--node1-MIFKUJ_clean_sbu_0--node2-BETDAH_clean_linker_0--edge1-EZIPEK_clean_linker_0
_symmetry_space_group_name_H-M    P1
_symmetry_Int_Tables_number       1
_symmetry_cell_setting            triclinic
loop_
_symmetry_equiv_pos_as_xyz
'x, y, z'
_cell_length_a     24.360242
_cell_length_b     24.577454
_cell_length_c     33.273927
_cell_angle_alpha  96.47601
_cell_angle_beta   93.315868
_cell_angle_gamma 120.31709
loop_
_atom_site_label
_atom_site_type_symbol
_atom_site_fract_x
_atom_site_fract_y
_atom_site_fract_z
_atom_type_partial_charge
Zn0 Zn 0.07398 0.59637 0.16377 0.0
Zn1 Zn 0.89102 0.47366 0.15192 0.0
C2 C 0.18837 0.59225 0.16991 0.0
O3 O 0.20409 0.64282 0.19686 0.0
C4 C 0.79657 0.50372 0.12681 0.0
O5 O 0.77876 0.45335 0.09915 0.0
O6 O 0.13374 0.69077 0.17391 0.0
O7 O 0.01107 0.57921 0.1153 0.0
O8 O 0.93506 0.47782 0.10213 0.0
C9 C 0.14789 0.72389 0.14542 0.0
O10 O 0.11528 0.69841 0.10877 0.0
O11 O 0.13166 0.56034 0.15056 0.0
C12 C 0.79471 0.36349 0.17882 0.0
O13 O 0.80986 0.40451 0.21241 0.0
O14 O 0.82274 0.38202 0.14785 0.0
O15 O 0.93983 0.49444 0.20709 0.0
O16 O 0.04295 0.57056 0.21707 0.0
O17 O 0.84624 0.52446 0.15248 0.0
C18 C 0.98012 0.52673 0.09089 0.0
C19 C -0.00744 0.53002 0.23011 0.0
Zn20 Zn 0.56452 0.10177 0.50486 0.0
Zn21 Zn 0.50784 0.92224 0.49418 0.0
C22 C 0.69014 0.20888 0.51242 0.0
O23 O 0.66391 0.22863 0.5393 0.0
C24 C 0.37713 0.82165 0.46716 0.0
O25 O 0.40334 0.80906 0.43688 0.0
O26 O 0.5386 0.16723 0.51182 0.0
O27 O 0.50539 0.03903 0.45609 0.0
O28 O 0.52848 0.96327 0.44365 0.0
C29 C 0.52398 0.18637 0.48134 0.0
O30 O 0.51967 0.15884 0.44414 0.0
O31 O 0.65734 0.1517 0.49324 0.0
C32 C 0.53585 0.83176 0.52044 0.0
O33 O 0.51482 0.84471 0.55352 0.0
O34 O 0.53814 0.85987 0.49026 0.0
O35 O 0.54319 0.97309 0.5502 0.0
O36 O 0.56326 0.07284 0.55911 0.0
O37 O 0.41175 0.86983 0.49469 0.0
C38 C 0.51811 0.00486 0.43157 0.0
C39 C 0.55873 0.02491 0.57306 0.0
Zn40 Zn 0.57247 0.47601 0.83648 0.0
Zn41 Zn 0.49101 0.59247 0.83202 0.0
C42 C 0.52615 0.34835 0.7993 0.0
O43 O 0.5481 0.37516 0.76734 0.0
C44 C 0.52744 0.71775 0.82536 0.0
O45 O 0.48767 0.68678 0.79148 0.0
O46 O 0.66389 0.49804 0.8351 0.0
O47 O 0.54498 0.51316 0.79205 0.0
O48 O 0.50302 0.57042 0.77469 0.0
C49 C 0.69031 0.49799 0.80328 0.0
O50 O 0.66049 0.49048 0.76713 0.0
O51 O 0.52088 0.38056 0.82965 0.0
C52 C 0.37865 0.56719 0.86895 0.0
O53 O 0.41964 0.59741 0.9024 0.0
O54 O 0.3982 0.55834 0.83569 0.0
O55 O 0.52572 0.55233 0.86366 0.0
O56 O 0.56381 0.50378 0.8943 0.0
O57 O 0.53971 0.68713 0.849 0.0
C58 C 0.52768 0.53654 0.76505 0.0
C59 C 0.53828 0.5375 0.89647 0.0
H60 H 0.38634 0.91712 0.2582 0.0
H61 H 0.57837 0.06153 0.2443 0.0
H62 H 0.44008 0.9463 0.13842 0.0
C63 C 0.42217 0.94305 0.23889 0.0
C64 C 0.40578 0.92817 0.19651 0.0
C65 C 0.4844 -0.00894 0.25648 0.0
C66 C 0.53019 0.0244 0.23096 0.0
C67 C 0.51443 0.00685 0.18824 0.0
C68 C 0.4523 0.95915 0.17131 0.0
N69 N 0.56039 0.03493 0.16149 0.0
C70 C 0.60877 0.09847 0.16962 0.0
H71 H 0.53566 0.40444 0.59532 0.0
H72 H 0.59655 0.60008 0.58787 0.0
H73 H 0.59329 0.47694 0.48375 0.0
C74 C 0.55232 0.44333 0.57785 0.0
C75 C 0.56203 0.43356 0.53725 0.0
C76 C 0.56466 0.50327 0.59613 0.0
C77 C 0.5866 0.55366 0.57353 0.0
C78 C 0.5974 0.54419 0.53291 0.0
C79 C 0.58493 0.48419 0.51504 0.0
N80 N 0.62217 0.59427 0.50955 0.0
C81 C 0.60985 0.64365 0.51467 0.0
H82 H 0.89337 0.5083 0.91392 0.0
H83 H 0.06628 0.50247 0.90871 0.0
H84 H 0.9533 0.48382 0.79775 0.0
C85 C 0.92729 0.50364 0.89627 0.0
C86 C 0.91782 0.49673 0.85371 0.0
C87 C 0.98081 0.50586 0.91628 0.0
C88 C 0.02489 0.50062 0.89318 0.0
C89 C 0.01418 0.49124 0.85021 0.0
C90 C 0.96092 0.48981 0.83077 0.0
N91 N 0.05569 0.48274 0.82562 0.0
C92 C 0.11727 0.49898 0.8405 0.0
H93 H 0.12024 0.62129 0.39265 0.0
H94 H 0.95129 0.45878 0.42034 0.0
H95 H 0.10462 0.58768 0.51652 0.0
C96 C 0.09325 0.59295 0.41494 0.0
C97 C 0.11932 0.6114 0.45604 0.0
C98 C 0.03293 0.53831 0.40212 0.0
C99 C -0.00189 0.50058 0.4306 0.0
C100 C 0.02451 0.51763 0.47204 0.0
C101 C 0.08437 0.57399 0.48462 0.0
N102 N -0.00631 0.47942 0.50196 0.0
C103 C 0.93645 0.42042 0.49532 0.0
H104 H 0.55608 0.13399 0.73013 0.0
H105 H 0.60237 0.00126 0.77211 0.0
H106 H 0.57429 0.12694 0.85837 0.0
C107 C 0.5654 0.11356 0.75504 0.0
C108 C 0.5629 0.13557 0.79505 0.0
C109 C 0.57909 0.06501 0.74673 0.0
C110 C 0.59152 0.03866 0.77886 0.0
C111 C 0.59075 0.06184 0.81947 0.0
C112 C 0.57551 0.10952 0.82722 0.0
N113 N 0.60604 0.03923 0.85321 0.0
C114 C 0.6015 0.98035 0.85011 0.0
H115 H 0.60845 0.55966 0.05149 0.0
H116 H 0.45375 0.5849 0.08378 0.0
H117 H 0.57567 0.5721 0.1768 0.0
C118 C 0.58162 0.56585 0.07468 0.0
C119 C 0.59909 0.56611 0.1155 0.0
C120 C 0.52955 0.57275 0.06327 0.0
C121 C 0.49348 0.57899 0.09289 0.0
C122 C 0.50896 0.57693 0.13391 0.0
C123 C 0.56309 0.57274 0.14515 0.0
N124 N 0.47095 0.57753 0.1646 0.0
C125 C 0.41032 0.57018 0.15804 0.0
C126 C 0.25359 0.56061 0.12627 0.0
C127 C 0.23657 0.57245 0.16512 0.0
C128 C 0.33173 0.57761 0.19882 0.0
C129 C 0.34838 0.56528 0.16016 0.0
N130 N 0.3143 0.5238 0.08846 0.0
N131 N 0.24718 0.56941 0.23722 0.0
C132 C 0.30585 0.55 0.12423 0.0
C133 C 0.27194 0.57385 0.20107 0.0
N134 N 0.22246 0.5626 0.09149 0.0
N135 N 0.37352 0.59429 0.23348 0.0
H136 H 0.20186 0.56317 0.23949 0.0
H137 H 0.26801 0.56446 0.26373 0.0
H138 H 0.41683 0.59526 0.23347 0.0
H139 H 0.36716 0.61132 0.26189 0.0
H140 H 0.23815 0.56187 0.06307 0.0
H141 H 0.18376 0.56963 0.09122 0.0
H142 H 0.28179 0.50683 0.06189 0.0
H143 H 0.34976 0.51204 0.08686 0.0
C144 C 0.77537 0.26681 0.46687 0.0
C145 C 0.75764 0.25406 0.50632 0.0
C146 C 0.85984 0.34884 0.53792 0.0
C147 C 0.87791 0.361 0.49868 0.0
N148 N 0.86257 0.32064 0.42709 0.0
N149 N 0.79224 0.27054 0.57829 0.0
C150 C 0.83876 0.31648 0.46348 0.0
C151 C 0.80288 0.29133 0.54152 0.0
N152 N 0.73133 0.23432 0.43276 0.0
N153 N 0.89621 0.3928 0.57186 0.0
H154 H 0.75247 0.22696 0.58158 0.0
H155 H 0.82611 0.2926 0.60433 0.0
H156 H 0.93961 0.43456 0.57091 0.0
H157 H 0.88108 0.38993 0.60061 0.0
H158 H 0.73985 0.24721 0.40399 0.0
H159 H 0.68454 0.19757 0.43337 0.0
H160 H 0.83822 0.28635 0.40103 0.0
H161 H 0.90984 0.35439 0.42443 0.0
C162 C 0.59917 0.82906 0.81242 0.0
C163 C 0.55493 0.78724 0.83632 0.0
C164 C 0.54641 0.87482 0.87201 0.0
C165 C 0.5903 0.91638 0.84798 0.0
N166 N 0.66973 0.93862 0.80251 0.0
N167 N 0.49743 0.77209 0.89479 0.0
C168 C 0.62033 0.89522 0.8204 0.0
C169 C 0.53231 0.81079 0.8682 0.0
N170 N 0.62007 0.80519 0.78176 0.0
N171 N 0.51633 0.89595 0.89734 0.0
H172 H 0.48461 0.72442 0.89251 0.0
H173 H 0.48544 0.78833 0.92117 0.0
H174 H 0.52733 0.94328 0.9022 0.0
H175 H 0.47782 0.86606 0.9117 0.0
H176 H 0.64612 0.83136 0.76007 0.0
H177 H 0.60889 0.7578 0.77685 0.0
H178 H 0.69766 0.92739 0.78487 0.0
H179 H 0.68641 0.98746 0.80816 0.0
C180 C 0.69567 0.49182 0.14897 0.0
C181 C 0.75266 0.52842 0.13197 0.0
C182 C 0.71581 0.60081 0.11663 0.0
C183 C 0.65388 0.55676 0.12598 0.0
N184 N 0.58275 0.45463 0.146 0.0
N185 N 0.81792 0.61761 0.09872 0.0
C186 C 0.64329 0.50103 0.14131 0.0
C187 C 0.76339 0.58339 0.11588 0.0
N188 N 0.692 0.44885 0.17294 0.0
N189 N 0.7292 0.65951 0.10908 0.0
H190 H 0.85452 0.60724 0.09906 0.0
H191 H 0.82516 0.65375 0.08221 0.0
H192 H 0.69579 0.67413 0.11037 0.0
H193 H 0.77488 0.69569 0.10546 0.0
H194 H 0.65354 0.42458 0.18903 0.0
H195 H 0.73082 0.44322 0.18037 0.0
H196 H 0.57201 0.41026 0.1529 0.0
H197 H 0.54218 0.45763 0.13919 0.0
C198 C 0.25857 0.78017 0.45918 0.0
C199 C 0.31085 0.77371 0.47269 0.0
C200 C 0.23731 0.66316 0.48108 0.0
C201 C 0.18451 0.66924 0.46778 0.0
N202 N 0.14384 0.73783 0.45477 0.0
N203 N 0.34928 0.71805 0.50955 0.0
C204 C 0.19491 0.7294 0.46035 0.0
C205 C 0.2999 0.71807 0.48797 0.0
N206 N 0.26973 0.83374 0.444 0.0
N207 N 0.22867 0.60451 0.48453 0.0
H208 H 0.39512 0.75851 0.51625 0.0
H209 H 0.34309 0.68074 0.52457 0.0
H210 H 0.18401 0.56244 0.47885 0.0
H211 H 0.26663 0.59681 0.48959 0.0
H212 H 0.23365 0.83826 0.42933 0.0
H213 H 0.31588 0.87253 0.44409 0.0
H214 H 0.14851 0.78187 0.45259 0.0
H215 H 0.09688 0.70173 0.45622 0.0
C216 C 0.58275 0.29812 0.82909 0.0
C217 C 0.52852 0.29086 0.80506 0.0
C218 C 0.48883 0.17709 0.78497 0.0
C219 C 0.5485 0.18736 0.80258 0.0
N220 N 0.65614 0.26004 0.83707 0.0
N221 N 0.43033 0.22442 0.75908 0.0
C222 C 0.59628 0.24828 0.82399 0.0
C223 C 0.4814 0.23046 0.78282 0.0
N224 N 0.62198 0.35272 0.85638 0.0
N225 N 0.43914 0.11623 0.77102 0.0
H226 H 0.42191 0.26198 0.7585 0.0
H227 H 0.3984 0.18339 0.73842 0.0
H228 H 0.44278 0.07608 0.77307 0.0
H229 H 0.39281 0.1052 0.76108 0.0
H230 H 0.65781 0.35737 0.87764 0.0
H231 H 0.61518 0.39129 0.86097 0.0
H232 H 0.69456 0.30527 0.84945 0.0
H233 H 0.66963 0.22604 0.83232 0.0
C234 C 0.52389 0.72846 0.48805 0.0
C235 C 0.55609 0.78415 0.51835 0.0
C236 C 0.62134 0.74488 0.54805 0.0
C237 C 0.59222 0.69178 0.51607 0.0
N238 N 0.52314 0.63657 0.45224 0.0
N239 N 0.64274 0.85131 0.57279 0.0
C240 C 0.54569 0.68464 0.48504 0.0
C241 C 0.60672 0.79395 0.5473 0.0
N242 N 0.47063 0.71586 0.46334 0.0
N243 N 0.66224 0.74795 0.57935 0.0
H244 H 0.63442 0.88896 0.57256 0.0
H245 H 0.68436 0.86387 0.59164 0.0
H246 H 0.67577 0.71395 0.58001 0.0
H247 H 0.6793 0.78156 0.60594 0.0
H248 H 0.44033 0.67232 0.44439 0.0
H249 H 0.45345 0.74697 0.46404 0.0
H250 H 0.49499 0.63338 0.42628 0.0
H251 H 0.53654 0.60229 0.44945 0.0
C252 C 0.75361 0.44351 0.79768 0.0
C253 C 0.75235 0.50064 0.80754 0.0
C254 C 0.86521 0.55783 0.83741 0.0
C255 C 0.86318 0.49875 0.83358 0.0
N256 N 0.80714 0.38504 0.8104 0.0
N257 N 0.80568 0.6125 0.8357 0.0
C258 C 0.80814 0.44153 0.81319 0.0
C259 C 0.80808 0.55811 0.82677 0.0
N260 N 0.70233 0.3911 0.7741 0.0
N261 N 0.92223 0.6136 0.85053 0.0
H262 H 0.76584 0.61531 0.82588 0.0
H263 H 0.84183 0.654 0.85418 0.0
H264 H 0.96506 0.61489 0.8582 0.0
H265 H 0.92854 0.65875 0.8505 0.0
H266 H 0.70178 0.34955 0.76293 0.0
H267 H 0.66127 0.39054 0.76286 0.0
H268 H 0.76725 0.34061 0.79853 0.0
H269 H 0.8459 0.38172 0.82185 0.0
C270 C 0.22471 0.84 0.17067 0.0
C271 C 0.21279 0.78043 0.15063 0.0
C272 C 0.32736 0.81824 0.15934 0.0
C273 C 0.33972 0.87852 0.1785 0.0
N274 N 0.30302 0.95201 0.19486 0.0
N275 N 0.2521 0.71725 0.11674 0.0
C276 C 0.28917 0.89111 0.18178 0.0
C277 C 0.26404 0.77121 0.14174 0.0
N278 N 0.17445 0.84694 0.18002 0.0
N279 N 0.37529 0.80454 0.16009 0.0
H280 H 0.2061 0.68109 0.10369 0.0
H281 H 0.2881 0.7109 0.10593 0.0
H282 H 0.42244 0.83745 0.17314 0.0
H283 H 0.3673 0.75888 0.15101 0.0
H284 H 0.17989 0.88665 0.19883 0.0
H285 H 0.1267 0.81112 0.17044 0.0
H286 H 0.26871 0.96537 0.19439 0.0
H287 H 0.34987 -0.00943 0.20307 0.0
C288 C 0.47735 0.25486 0.49922 0.0
C289 C 0.52975 0.24932 0.48813 0.0
C290 C 0.60295 0.36416 0.50868 0.0
C291 C 0.55032 0.3705 0.51843 0.0
N292 N 0.43582 0.32505 0.51462 0.0
N293 N 0.63798 0.29937 0.47152 0.0
C294 C 0.48684 0.31671 0.51111 0.0
C295 C 0.59108 0.30433 0.48918 0.0
N296 N 0.41913 0.20104 0.49923 0.0
N297 N 0.6645 0.4141 0.5202 0.0
H298 H 0.63073 0.25614 0.45673 0.0
H299 H 0.68174 0.33876 0.468 0.0
H300 H 0.67569 0.45848 0.53571 0.0
H301 H 0.70462 0.40975 0.51789 0.0
H302 H 0.38099 0.20155 0.51149 0.0
H303 H 0.41012 0.15524 0.48878 0.0
H304 H 0.38826 0.28849 0.50607 0.0
H305 H 0.44115 0.36988 0.52277 0.0
C306 C 0.26519 0.49998 0.88227 0.0
C307 C 0.31258 0.55447 0.86774 0.0
C308 C 0.23177 0.57935 0.84447 0.0
C309 C 0.18359 0.52014 0.85348 0.0
N310 N 0.15154 0.42356 0.88113 0.0
N311 N 0.34287 0.64654 0.83486 0.0
C312 C 0.19944 0.4805 0.87287 0.0
C313 C 0.29647 0.59465 0.84908 0.0
N314 N 0.28329 0.46723 0.90496 0.0
N315 N 0.21561 0.62132 0.83215 0.0
H316 H 0.39141 0.66163 0.83992 0.0
H317 H 0.33327 0.67296 0.81634 0.0
H318 H 0.16843 0.61135 0.82832 0.0
H319 H 0.24901 0.66799 0.82902 0.0
H320 H 0.252 0.43038 0.91956 0.0
H321 H 0.33107 0.48012 0.91175 0.0
H322 H 0.15912 0.38904 0.89123 0.0
H323 H 0.10312 0.40938 0.87603 0.0
C324 C 0.68436 0.26969 0.15625 0.0
C325 C 0.74669 0.29555 0.17751 0.0
C326 C 0.71823 0.1904 0.19379 0.0
C327 C 0.65506 0.16591 0.17459 0.0
N328 N 0.57349 0.18307 0.14495 0.0
N329 N 0.82231 0.28395 0.22039 0.0
C330 C 0.63671 0.20585 0.1581 0.0
C331 C 0.76341 0.25694 0.19764 0.0
N332 N 0.67114 0.30552 0.13336 0.0
N333 N 0.73527 0.14974 0.2073 0.0
H334 H 0.85779 0.33189 0.22225 0.0
H335 H 0.83501 0.26005 0.23933 0.0
H336 H 0.70255 0.10112 0.20614 0.0
H337 H 0.78225 0.16308 0.21747 0.0
H338 H 0.62871 0.28714 0.1137 0.0
H339 H 0.70479 0.35257 0.13127 0.0
H340 H 0.5562 0.21191 0.13683 0.0
H341 H 0.53716 0.13617 0.14553 0.0
C342 C -0.00623 0.47578 0.02563 0.0
C343 C -0.01303 0.52507 0.04683 0.0
C344 C -0.0045 0.57041 0.98407 0.0
C345 C -0.00983 0.51501 0.96164 0.0
N346 N 0.97494 0.4097 0.96079 0.0
N347 N 0.96839 0.61261 0.04359 0.0
C348 C -0.01273 0.46631 0.98231 0.0
C349 C 0.98488 0.57108 0.0255 0.0
N350 N 0.00791 0.43893 0.04685 0.0
N351 N 0.01108 0.62259 0.96584 0.0
H352 H 0.95555 0.6122 0.07291 0.0
H353 H 0.96027 0.64267 0.02774 0.0
H354 H 0.02064 0.62421 0.93569 0.0
H355 H 0.0212 0.66625 0.98192 0.0
H356 H 0.01951 0.40654 0.03298 0.0
H357 H 0.01464 0.44549 0.07867 0.0
H358 H 0.96566 0.37034 0.97451 0.0
H359 H 0.96814 0.39985 0.92901 0.0
C360 C 0.46166 0.0106 0.36734 0.0
C361 C 0.5132 0.00773 0.38721 0.0
C362 C 0.54813 -0.00447 0.32097 0.0
C363 C 0.50028 0.00442 0.30175 0.0
N364 N 0.42534 0.04056 0.30924 0.0
N365 N 0.61685 0.0181 0.3835 0.0
C366 C 0.46178 0.01889 0.32588 0.0
C367 C 0.56011 0.00671 0.36423 0.0
N368 N 0.41021 0.00084 0.3867 0.0
N369 N 0.57969 0.97293 0.29843 0.0
H370 H 0.62891 0.02964 0.41514 0.0
H371 H 0.65465 0.02335 0.36783 0.0
H372 H 0.57055 0.96095 0.26674 0.0
H373 H 0.61033 0.95993 0.31163 0.0
H374 H 0.36929 -0.0029 0.37184 0.0
H375 H 0.40457 -0.01144 0.41576 0.0
H376 H 0.40058 0.05678 0.32658 0.0
H377 H 0.42575 0.04886 0.27914 0.0
C378 C 0.6006 0.55681 0.71132 0.0
C379 C 0.53757 0.52614 0.72215 0.0
C380 C 0.49251 0.48709 0.64999 0.0
C381 C 0.55554 0.51296 0.63946 0.0
N382 N 0.66942 0.56311 0.66007 0.0
N383 N 0.42381 0.45387 0.7031 0.0
C384 C 0.60964 0.54524 0.67013 0.0
C385 C 0.48352 0.48896 0.69182 0.0
N386 N 0.65159 0.59898 0.74005 0.0
N387 N 0.44144 0.46236 0.61998 0.0
H388 H 0.41552 0.4539 0.73352 0.0
H389 H 0.38343 0.42054 0.68268 0.0
H390 H 0.44625 0.46015 0.58897 0.0
H391 H 0.3951 0.44901 0.62573 0.0
H392 H 0.69768 0.62819 0.73305 0.0
H393 H 0.64706 0.60836 0.77065 0.0
H394 H 0.70956 0.58017 0.68166 0.0
H395 H 0.67813 0.55604 0.63016 0.0
C396 C 0.51291 0.98722 0.63689 0.0
C397 C 0.56666 0.02747 0.61778 0.0
C398 C 0.63352 0.07595 0.68444 0.0
C399 C 0.57802 0.04195 0.70348 0.0
N400 N 0.4658 0.96406 0.6998 0.0
N401 N 0.67855 0.10801 0.62196 0.0
C402 C 0.51823 -0.00387 0.68021 0.0
C403 C 0.62735 0.0709 0.64119 0.0
N404 N 0.45638 0.94155 0.61366 0.0
N405 N 0.69188 0.11289 0.70807 0.0
H406 H 0.67672 0.1027 0.59027 0.0
H407 H 0.72236 0.14558 0.63701 0.0
H408 H 0.69723 0.11695 0.7398 0.0
H409 H 0.73544 0.13568 0.69658 0.0
H410 H 0.41828 0.90554 0.62523 0.0
H411 H 0.44777 0.93743 0.58213 0.0
H412 H 0.41888 0.9361 0.68524 0.0
H413 H 0.46897 0.96719 0.73147 0.0
C414 C 0.55796 0.61524 0.95903 0.0
C415 C 0.51985 0.55343 0.93553 0.0
C416 C 0.46972 0.50998 0.9949 0.0
C417 C 0.51275 0.57008 0.01931 0.0
N418 N 0.5832 0.68338 0.02464 0.0
N419 N 0.42631 0.44816 0.92665 0.0
C420 C 0.55158 0.62416 0.00112 0.0
C421 C 0.47092 0.5029 0.95209 0.0
N422 N 0.60266 0.66398 0.94166 0.0
N423 N 0.43103 0.45898 0.01305 0.0
H424 H 0.4263 0.44261 0.89507 0.0
H425 H 0.38625 0.41106 0.93605 0.0
H426 H 0.42743 0.46336 0.04419 0.0
H427 H 0.40427 0.4121 -0.00224 0.0
H428 H 0.63684 0.70865 0.95791 0.0
H429 H 0.60685 0.65887 0.91063 0.0
H430 H 0.60924 0.72574 0.01319 0.0
H431 H 0.57874 0.69019 0.05556 0.0
C432 C 0.96171 0.54375 0.29947 0.0
C433 C -0.00492 0.52384 0.27374 0.0
C434 C 0.03413 0.49333 0.33159 0.0
C435 C 0.00865 0.52168 0.35801 0.0
N436 N 0.94908 0.57465 0.36869 0.0
N437 N 0.06294 0.47947 0.2642 0.0
C438 C 0.97162 0.54606 0.34232 0.0
C439 C 0.03094 0.4981 0.28945 0.0
N440 N 0.92132 0.56128 0.28303 0.0
N441 N 0.06101 0.4616 0.34708 0.0
H442 H 0.05869 0.47862 0.23273 0.0
H443 H 0.09619 0.46772 0.27446 0.0
H444 H 0.06356 0.45732 0.37789 0.0
H445 H 0.07572 0.43496 0.32926 0.0
H446 H 0.88996 0.56894 0.29931 0.0
H447 H 0.91609 0.56466 0.25225 0.0
H448 H 0.92893 0.60081 0.35997 0.0
H449 H 0.95327 0.57477 0.40008 0.0
loop_
_geom_bond_atom_site_label_1
_geom_bond_atom_site_label_2
_geom_bond_distance
_geom_bond_site_symmetry_2
_ccdc_geom_bond_type
Zn0 O6 1.969 . S
Zn0 O7 1.965 . S
Zn0 O11 2.024 . S
Zn0 O16 1.969 . S
Zn1 O8 1.969 . S
Zn1 O14 1.969 . S
Zn1 O15 1.965 . S
Zn1 O17 2.024 . S
C2 O3 1.229 . S
C2 O11 1.058 . S
O3 C2 1.229 . S
C4 O5 1.229 . S
C4 O17 1.058 . S
O5 C4 1.229 . S
O6 Zn0 1.969 . S
O6 C9 1.267 . S
O7 Zn0 1.965 . S
O7 C18 1.260 . S
O8 Zn1 1.969 . S
O8 C18 1.258 1_655 S
C9 O6 1.267 . S
C9 O10 1.228 . S
O10 C9 1.228 . S
O11 Zn0 2.024 . S
O11 C2 1.058 . S
C12 O13 1.228 . S
C12 O14 1.267 . S
O13 C12 1.228 . S
O14 Zn1 1.969 . S
O14 C12 1.267 . S
O15 Zn1 1.965 . S
O15 C19 1.260 1_655 S
O16 Zn0 1.969 . S
O16 C19 1.258 . S
O17 Zn1 2.024 . S
O17 C4 1.058 . S
C18 O7 1.260 . S
C18 O8 1.258 1_455 S
C19 O15 1.260 1_455 S
C19 O16 1.258 . S
Zn20 O26 1.969 . S
Zn20 O27 1.965 . S
Zn20 O31 2.024 . S
Zn20 O36 1.969 . S
Zn21 O28 1.969 . S
Zn21 O34 1.969 . S
Zn21 O35 1.965 1_565 S
Zn21 O37 2.024 . S
C22 O23 1.229 . S
C22 O31 1.058 . S
O23 C22 1.229 . S
C24 O25 1.229 . S
C24 O37 1.058 . S
O25 C24 1.229 . S
O26 Zn20 1.969 . S
O26 C29 1.267 . S
O27 Zn20 1.965 . S
O27 C38 1.260 . S
O28 Zn21 1.969 . S
O28 C38 1.258 1_565 S
C29 O26 1.267 . S
C29 O30 1.228 . S
O30 C29 1.228 . S
O31 Zn20 2.024 . S
O31 C22 1.058 . S
C32 O33 1.228 . S
C32 O34 1.267 . S
O33 C32 1.228 . S
O34 Zn21 1.969 . S
O34 C32 1.267 . S
O35 Zn21 1.965 1_545 S
O35 C39 1.260 . S
O36 Zn20 1.969 . S
O36 C39 1.258 . S
O37 Zn21 2.024 . S
O37 C24 1.058 . S
C38 O27 1.260 . S
C38 O28 1.258 1_545 S
C39 O35 1.260 . S
C39 O36 1.258 . S
Zn40 O46 1.969 . S
Zn40 O47 1.965 . S
Zn40 O51 2.024 . S
Zn40 O56 1.969 . S
Zn41 O48 1.969 . S
Zn41 O54 1.969 . S
Zn41 O55 1.965 . S
Zn41 O57 2.024 . S
C42 O43 1.229 . S
C42 O51 1.058 . S
O43 C42 1.229 . S
C44 O45 1.229 . S
C44 O57 1.058 . S
O45 C44 1.229 . S
O46 Zn40 1.969 . S
O46 C49 1.267 . S
O47 Zn40 1.965 . S
O47 C58 1.260 . S
O48 Zn41 1.969 . S
O48 C58 1.258 . S
C49 O46 1.267 . S
C49 O50 1.228 . S
O50 C49 1.228 . S
O51 Zn40 2.024 . S
O51 C42 1.058 . S
C52 O53 1.228 . S
C52 O54 1.267 . S
O53 C52 1.228 . S
O54 Zn41 1.969 . S
O54 C52 1.267 . S
O55 Zn41 1.965 . S
O55 C59 1.260 . S
O56 Zn40 1.969 . S
O56 C59 1.258 . S
O57 Zn41 2.024 . S
O57 C44 1.058 . S
C58 O47 1.260 . S
C58 O48 1.258 . S
C59 O55 1.260 . S
C59 O56 1.258 . S
H60 C63 0.929 . S
H61 C66 0.929 . S
H62 C68 0.929 1_565 S
C63 H60 0.929 . S
C63 C64 1.398 . S
C63 C65 1.396 1_565 S
C64 C63 1.398 . S
C64 C68 1.407 1_565 S
C65 C63 1.396 1_545 S
C65 C66 1.394 . S
C66 H61 0.929 . S
C66 C65 1.394 . S
C66 C67 1.382 . S
C67 C66 1.382 . S
C67 C68 1.392 . S
C67 N69 1.420 . S
C68 H62 0.929 1_545 S
C68 C64 1.407 1_545 S
C68 C67 1.392 . S
N69 C67 1.420 . S
N69 C70 1.244 . S
C70 N69 1.244 . S
H71 C74 0.929 . S
H72 C77 0.929 . S
H73 C79 0.930 . S
C74 H71 0.929 . S
C74 C75 1.398 . S
C74 C76 1.396 . S
C75 C74 1.398 . S
C75 C79 1.407 . S
C76 C74 1.396 . S
C76 C77 1.394 . S
C77 H72 0.929 . S
C77 C76 1.394 . S
C77 C78 1.382 . S
C78 C77 1.382 . S
C78 C79 1.392 . S
C78 N80 1.420 . S
C79 H73 0.930 . S
C79 C75 1.407 . S
C79 C78 1.392 . S
N80 C78 1.420 . S
N80 C81 1.244 . S
C81 N80 1.244 . S
H82 C85 0.929 . S
H83 C88 0.929 . S
H84 C90 0.930 . S
C85 H82 0.929 . S
C85 C86 1.398 . S
C85 C87 1.396 1_655 S
C86 C85 1.398 . S
C86 C90 1.407 1_655 S
C87 C85 1.396 1_455 S
C87 C88 1.394 . S
C88 H83 0.929 . S
C88 C87 1.394 . S
C88 C89 1.382 . S
C89 C88 1.382 . S
C89 C90 1.392 . S
C89 N91 1.420 . S
C90 H84 0.930 . S
C90 C86 1.407 1_455 S
C90 C89 1.392 . S
N91 C89 1.420 . S
N91 C92 1.244 . S
C92 N91 1.244 . S
H93 C96 0.929 . S
H94 C99 0.929 1_655 S
H95 C101 0.930 . S
C96 H93 0.929 . S
C96 C97 1.398 . S
C96 C98 1.396 . S
C97 C96 1.398 . S
C97 C101 1.407 . S
C98 C96 1.396 . S
C98 C99 1.394 . S
C99 H94 0.929 1_455 S
C99 C98 1.394 . S
C99 C100 1.382 . S
C100 C99 1.382 . S
C100 C101 1.392 . S
C100 N102 1.420 1_455 S
C101 H95 0.930 . S
C101 C97 1.407 . S
C101 C100 1.392 . S
N102 C100 1.420 1_655 S
N102 C103 1.244 . S
C103 N102 1.244 . S
H104 C107 0.929 . S
H105 C110 0.929 1_565 S
H106 C112 0.930 . S
C107 H104 0.929 . S
C107 C108 1.398 . S
C107 C109 1.396 . S
C108 C107 1.398 . S
C108 C112 1.407 . S
C109 C107 1.396 . S
C109 C110 1.394 . S
C110 H105 0.929 1_545 S
C110 C109 1.394 . S
C110 C111 1.382 . S
C111 C110 1.382 . S
C111 C112 1.392 . S
C111 N113 1.420 1_545 S
C112 H106 0.930 . S
C112 C108 1.407 . S
C112 C111 1.392 . S
N113 C111 1.420 1_565 S
N113 C114 1.244 . S
C114 N113 1.244 . S
H115 C118 0.929 . S
H116 C121 0.929 . S
H117 C123 0.930 . S
C118 H115 0.929 . S
C118 C119 1.398 . S
C118 C120 1.396 . S
C119 C118 1.398 . S
C119 C123 1.407 . S
C120 C118 1.396 . S
C120 C121 1.394 . S
C121 H116 0.929 . S
C121 C120 1.394 . S
C121 C122 1.382 . S
C122 C121 1.382 . S
C122 C123 1.392 . S
C122 N124 1.420 . S
C123 H117 0.930 . S
C123 C119 1.407 . S
C123 C122 1.392 . S
N124 C122 1.420 . S
N124 C125 1.244 . S
C125 N124 1.244 . S
C126 C127 1.363 . S
C126 C132 1.379 . S
C126 N134 1.356 . S
C127 C126 1.363 . S
C127 C133 1.363 . S
C128 C129 1.363 . S
C128 C133 1.379 . S
C128 N135 1.356 . S
C129 C128 1.363 . S
C129 C132 1.363 . S
N130 C132 1.356 . S
N130 H142 0.984 . S
N130 H143 0.985 . S
N131 C133 1.356 . S
N131 H136 0.984 . S
N131 H137 0.985 . S
C132 C126 1.379 . S
C132 C129 1.363 . S
C132 N130 1.356 . S
C133 C127 1.363 . S
C133 C128 1.379 . S
C133 N131 1.356 . S
N134 C126 1.356 . S
N134 H140 0.984 . S
N134 H141 0.984 . S
N135 C128 1.356 . S
N135 H138 0.984 . S
N135 H139 0.985 . S
H136 N131 0.984 . S
H137 N131 0.985 . S
H138 N135 0.984 . S
H139 N135 0.985 . S
H140 N134 0.984 . S
H141 N134 0.984 . S
H142 N130 0.984 . S
H143 N130 0.985 . S
C144 C145 1.363 . S
C144 C150 1.379 . S
C144 N152 1.356 . S
C145 C144 1.363 . S
C145 C151 1.363 . S
C146 C147 1.363 . S
C146 C151 1.379 . S
C146 N153 1.356 . S
C147 C146 1.363 . S
C147 C150 1.363 . S
N148 C150 1.356 . S
N148 H160 0.984 . S
N148 H161 0.985 . S
N149 C151 1.356 . S
N149 H154 0.984 . S
N149 H155 0.985 . S
C150 C144 1.379 . S
C150 C147 1.363 . S
C150 N148 1.356 . S
C151 C145 1.363 . S
C151 C146 1.379 . S
C151 N149 1.356 . S
N152 C144 1.356 . S
N152 H158 0.984 . S
N152 H159 0.984 . S
N153 C146 1.356 . S
N153 H156 0.984 . S
N153 H157 0.985 . S
H154 N149 0.984 . S
H155 N149 0.985 . S
H156 N153 0.984 . S
H157 N153 0.985 . S
H158 N152 0.984 . S
H159 N152 0.984 . S
H160 N148 0.984 . S
H161 N148 0.985 . S
C162 C163 1.363 . S
C162 C168 1.379 . S
C162 N170 1.356 . S
C163 C162 1.363 . S
C163 C169 1.363 . S
C164 C165 1.363 . S
C164 C169 1.379 . S
C164 N171 1.356 . S
C165 C164 1.363 . S
C165 C168 1.363 . S
N166 C168 1.356 . S
N166 H178 0.984 . S
N166 H179 0.985 . S
N167 C169 1.356 . S
N167 H172 0.984 . S
N167 H173 0.985 . S
C168 C162 1.379 . S
C168 C165 1.363 . S
C168 N166 1.356 . S
C169 C163 1.363 . S
C169 C164 1.379 . S
C169 N167 1.356 . S
N170 C162 1.356 . S
N170 H176 0.984 . S
N170 H177 0.984 . S
N171 C164 1.356 . S
N171 H174 0.984 . S
N171 H175 0.985 . S
H172 N167 0.984 . S
H173 N167 0.985 . S
H174 N171 0.984 . S
H175 N171 0.985 . S
H176 N170 0.984 . S
H177 N170 0.984 . S
H178 N166 0.984 . S
H179 N166 0.985 . S
C180 C181 1.363 . S
C180 C186 1.379 . S
C180 N188 1.356 . S
C181 C180 1.363 . S
C181 C187 1.363 . S
C182 C183 1.363 . S
C182 C187 1.379 . S
C182 N189 1.356 . S
C183 C182 1.363 . S
C183 C186 1.363 . S
N184 C186 1.356 . S
N184 H196 0.984 . S
N184 H197 0.985 . S
N185 C187 1.356 . S
N185 H190 0.984 . S
N185 H191 0.985 . S
C186 C180 1.379 . S
C186 C183 1.363 . S
C186 N184 1.356 . S
C187 C181 1.363 . S
C187 C182 1.379 . S
C187 N185 1.356 . S
N188 C180 1.356 . S
N188 H194 0.984 . S
N188 H195 0.984 . S
N189 C182 1.356 . S
N189 H192 0.984 . S
N189 H193 0.985 . S
H190 N185 0.984 . S
H191 N185 0.985 . S
H192 N189 0.984 . S
H193 N189 0.985 . S
H194 N188 0.984 . S
H195 N188 0.984 . S
H196 N184 0.984 . S
H197 N184 0.985 . S
C198 C199 1.363 . S
C198 C204 1.379 . S
C198 N206 1.356 . S
C199 C198 1.363 . S
C199 C205 1.363 . S
C200 C201 1.363 . S
C200 C205 1.379 . S
C200 N207 1.356 . S
C201 C200 1.363 . S
C201 C204 1.363 . S
N202 C204 1.356 . S
N202 H214 0.984 . S
N202 H215 0.985 . S
N203 C205 1.356 . S
N203 H208 0.984 . S
N203 H209 0.985 . S
C204 C198 1.379 . S
C204 C201 1.363 . S
C204 N202 1.356 . S
C205 C199 1.363 . S
C205 C200 1.379 . S
C205 N203 1.356 . S
N206 C198 1.356 . S
N206 H212 0.984 . S
N206 H213 0.984 . S
N207 C200 1.356 . S
N207 H210 0.984 . S
N207 H211 0.985 . S
H208 N203 0.984 . S
H209 N203 0.985 . S
H210 N207 0.984 . S
H211 N207 0.985 . S
H212 N206 0.984 . S
H213 N206 0.984 . S
H214 N202 0.984 . S
H215 N202 0.985 . S
C216 C217 1.363 . S
C216 C222 1.379 . S
C216 N224 1.356 . S
C217 C216 1.363 . S
C217 C223 1.363 . S
C218 C219 1.363 . S
C218 C223 1.379 . S
C218 N225 1.356 . S
C219 C218 1.363 . S
C219 C222 1.363 . S
N220 C222 1.356 . S
N220 H232 0.984 . S
N220 H233 0.985 . S
N221 C223 1.356 . S
N221 H226 0.984 . S
N221 H227 0.985 . S
C222 C216 1.379 . S
C222 C219 1.363 . S
C222 N220 1.356 . S
C223 C217 1.363 . S
C223 C218 1.379 . S
C223 N221 1.356 . S
N224 C216 1.356 . S
N224 H230 0.984 . S
N224 H231 0.984 . S
N225 C218 1.356 . S
N225 H228 0.984 . S
N225 H229 0.985 . S
H226 N221 0.984 . S
H227 N221 0.985 . S
H228 N225 0.984 . S
H229 N225 0.985 . S
H230 N224 0.984 . S
H231 N224 0.984 . S
H232 N220 0.984 . S
H233 N220 0.985 . S
C234 C235 1.363 . S
C234 C240 1.379 . S
C234 N242 1.356 . S
C235 C234 1.363 . S
C235 C241 1.363 . S
C236 C237 1.363 . S
C236 C241 1.379 . S
C236 N243 1.356 . S
C237 C236 1.363 . S
C237 C240 1.363 . S
N238 C240 1.356 . S
N238 H250 0.984 . S
N238 H251 0.985 . S
N239 C241 1.356 . S
N239 H244 0.984 . S
N239 H245 0.985 . S
C240 C234 1.379 . S
C240 C237 1.363 . S
C240 N238 1.356 . S
C241 C235 1.363 . S
C241 C236 1.379 . S
C241 N239 1.356 . S
N242 C234 1.356 . S
N242 H248 0.984 . S
N242 H249 0.984 . S
N243 C236 1.356 . S
N243 H246 0.984 . S
N243 H247 0.985 . S
H244 N239 0.984 . S
H245 N239 0.985 . S
H246 N243 0.984 . S
H247 N243 0.985 . S
H248 N242 0.984 . S
H249 N242 0.984 . S
H250 N238 0.984 . S
H251 N238 0.985 . S
C252 C253 1.363 . S
C252 C258 1.379 . S
C252 N260 1.356 . S
C253 C252 1.363 . S
C253 C259 1.363 . S
C254 C255 1.363 . S
C254 C259 1.379 . S
C254 N261 1.356 . S
C255 C254 1.363 . S
C255 C258 1.363 . S
N256 C258 1.356 . S
N256 H268 0.984 . S
N256 H269 0.985 . S
N257 C259 1.356 . S
N257 H262 0.984 . S
N257 H263 0.985 . S
C258 C252 1.379 . S
C258 C255 1.363 . S
C258 N256 1.356 . S
C259 C253 1.363 . S
C259 C254 1.379 . S
C259 N257 1.356 . S
N260 C252 1.356 . S
N260 H266 0.984 . S
N260 H267 0.984 . S
N261 C254 1.356 . S
N261 H264 0.984 1_655 S
N261 H265 0.985 . S
H262 N257 0.984 . S
H263 N257 0.985 . S
H264 N261 0.984 1_455 S
H265 N261 0.985 . S
H266 N260 0.984 . S
H267 N260 0.984 . S
H268 N256 0.984 . S
H269 N256 0.985 . S
C270 C271 1.363 . S
C270 C276 1.379 . S
C270 N278 1.356 . S
C271 C270 1.363 . S
C271 C277 1.363 . S
C272 C273 1.363 . S
C272 C277 1.379 . S
C272 N279 1.356 . S
C273 C272 1.363 . S
C273 C276 1.363 . S
N274 C276 1.356 . S
N274 H286 0.984 . S
N274 H287 0.985 1_565 S
N275 C277 1.356 . S
N275 H280 0.984 . S
N275 H281 0.985 . S
C276 C270 1.379 . S
C276 C273 1.363 . S
C276 N274 1.356 . S
C277 C271 1.363 . S
C277 C272 1.379 . S
C277 N275 1.356 . S
N278 C270 1.356 . S
N278 H284 0.984 . S
N278 H285 0.984 . S
N279 C272 1.356 . S
N279 H282 0.984 . S
N279 H283 0.985 . S
H280 N275 0.984 . S
H281 N275 0.985 . S
H282 N279 0.984 . S
H283 N279 0.985 . S
H284 N278 0.984 . S
H285 N278 0.984 . S
H286 N274 0.984 . S
H287 N274 0.985 1_545 S
C288 C289 1.363 . S
C288 C294 1.379 . S
C288 N296 1.356 . S
C289 C288 1.363 . S
C289 C295 1.363 . S
C290 C291 1.363 . S
C290 C295 1.379 . S
C290 N297 1.356 . S
C291 C290 1.363 . S
C291 C294 1.363 . S
N292 C294 1.356 . S
N292 H304 0.984 . S
N292 H305 0.985 . S
N293 C295 1.356 . S
N293 H298 0.984 . S
N293 H299 0.985 . S
C294 C288 1.379 . S
C294 C291 1.363 . S
C294 N292 1.356 . S
C295 C289 1.363 . S
C295 C290 1.379 . S
C295 N293 1.356 . S
N296 C288 1.356 . S
N296 H302 0.984 . S
N296 H303 0.984 . S
N297 C290 1.356 . S
N297 H300 0.984 . S
N297 H301 0.985 . S
H298 N293 0.984 . S
H299 N293 0.985 . S
H300 N297 0.984 . S
H301 N297 0.985 . S
H302 N296 0.984 . S
H303 N296 0.984 . S
H304 N292 0.984 . S
H305 N292 0.985 . S
C306 C307 1.363 . S
C306 C312 1.379 . S
C306 N314 1.356 . S
C307 C306 1.363 . S
C307 C313 1.363 . S
C308 C309 1.363 . S
C308 C313 1.379 . S
C308 N315 1.356 . S
C309 C308 1.363 . S
C309 C312 1.363 . S
N310 C312 1.356 . S
N310 H322 0.984 . S
N310 H323 0.985 . S
N311 C313 1.356 . S
N311 H316 0.984 . S
N311 H317 0.985 . S
C312 C306 1.379 . S
C312 C309 1.363 . S
C312 N310 1.356 . S
C313 C307 1.363 . S
C313 C308 1.379 . S
C313 N311 1.356 . S
N314 C306 1.356 . S
N314 H320 0.984 . S
N314 H321 0.984 . S
N315 C308 1.356 . S
N315 H318 0.984 . S
N315 H319 0.985 . S
H316 N311 0.984 . S
H317 N311 0.985 . S
H318 N315 0.984 . S
H319 N315 0.985 . S
H320 N314 0.984 . S
H321 N314 0.984 . S
H322 N310 0.984 . S
H323 N310 0.985 . S
C324 C325 1.363 . S
C324 C330 1.379 . S
C324 N332 1.356 . S
C325 C324 1.363 . S
C325 C331 1.363 . S
C326 C327 1.363 . S
C326 C331 1.379 . S
C326 N333 1.356 . S
C327 C326 1.363 . S
C327 C330 1.363 . S
N328 C330 1.356 . S
N328 H340 0.984 . S
N328 H341 0.985 . S
N329 C331 1.356 . S
N329 H334 0.984 . S
N329 H335 0.985 . S
C330 C324 1.379 . S
C330 C327 1.363 . S
C330 N328 1.356 . S
C331 C325 1.363 . S
C331 C326 1.379 . S
C331 N329 1.356 . S
N332 C324 1.356 . S
N332 H338 0.984 . S
N332 H339 0.984 . S
N333 C326 1.356 . S
N333 H336 0.984 . S
N333 H337 0.985 . S
H334 N329 0.984 . S
H335 N329 0.985 . S
H336 N333 0.984 . S
H337 N333 0.985 . S
H338 N332 0.984 . S
H339 N332 0.984 . S
H340 N328 0.984 . S
H341 N328 0.985 . S
C342 C343 1.363 . S
C342 C348 1.379 . S
C342 N350 1.356 . S
C343 C342 1.363 . S
C343 C349 1.363 . S
C344 C345 1.363 . S
C344 C349 1.379 1_556 S
C344 N351 1.356 . S
C345 C344 1.363 . S
C345 C348 1.363 1_556 S
N346 C348 1.356 1_556 S
N346 H358 0.984 . S
N346 H359 0.985 . S
N347 C349 1.356 . S
N347 H352 0.984 . S
N347 H353 0.986 . S
C348 C342 1.379 . S
C348 C345 1.363 1_554 S
C348 N346 1.356 1_554 S
C349 C343 1.363 . S
C349 C344 1.379 1_554 S
C349 N347 1.356 . S
N350 C342 1.356 . S
N350 H356 0.984 . S
N350 H357 0.984 . S
N351 C344 1.356 . S
N351 H354 0.984 . S
N351 H355 0.985 . S
H352 N347 0.984 . S
H353 N347 0.986 . S
H354 N351 0.984 . S
H355 N351 0.985 . S
H356 N350 0.984 . S
H357 N350 0.984 . S
H358 N346 0.984 . S
H359 N346 0.985 . S
C360 C361 1.363 . S
C360 C366 1.379 . S
C360 N368 1.356 . S
C361 C360 1.363 . S
C361 C367 1.363 . S
C362 C363 1.363 . S
C362 C367 1.379 . S
C362 N369 1.356 . S
C363 C362 1.363 . S
C363 C366 1.363 . S
N364 C366 1.356 . S
N364 H376 0.984 . S
N364 H377 0.985 . S
N365 C367 1.356 . S
N365 H370 0.984 . S
N365 H371 0.985 1_545 S
C366 C360 1.379 . S
C366 C363 1.363 . S
C366 N364 1.356 . S
C367 C361 1.363 . S
C367 C362 1.379 . S
C367 N365 1.356 . S
N368 C360 1.356 . S
N368 H374 0.984 . S
N368 H375 0.984 . S
N369 C362 1.356 . S
N369 H372 0.984 . S
N369 H373 1.000 . S
H370 N365 0.984 . S
H371 N365 0.985 1_565 S
H372 N369 0.984 . S
H373 N369 1.000 . S
H374 N368 0.984 . S
H375 N368 0.984 . S
H376 N364 0.984 . S
H377 N364 0.985 . S
C378 C379 1.363 . S
C378 C384 1.379 . S
C378 N386 1.356 . S
C379 C378 1.363 . S
C379 C385 1.363 . S
C380 C381 1.363 . S
C380 C385 1.379 . S
C380 N387 1.356 . S
C381 C380 1.363 . S
C381 C384 1.363 . S
N382 C384 1.356 . S
N382 H394 0.984 . S
N382 H395 0.985 . S
N383 C385 1.356 . S
N383 H388 0.984 . S
N383 H389 0.985 . S
C384 C378 1.379 . S
C384 C381 1.363 . S
C384 N382 1.356 . S
C385 C379 1.363 . S
C385 C380 1.379 . S
C385 N383 1.356 . S
N386 C378 1.356 . S
N386 H392 0.984 . S
N386 H393 0.984 . S
N387 C380 1.356 . S
N387 H390 0.984 . S
N387 H391 0.985 . S
H388 N383 0.984 . S
H389 N383 0.985 . S
H390 N387 0.984 . S
H391 N387 0.985 . S
H392 N386 0.984 . S
H393 N386 0.984 . S
H394 N382 0.984 . S
H395 N382 0.985 . S
C396 C397 1.363 1_565 S
C396 C402 1.379 . S
C396 N404 1.356 . S
C397 C396 1.363 1_545 S
C397 C403 1.363 . S
C398 C399 1.363 . S
C398 C403 1.379 . S
C398 N405 1.356 . S
C399 C398 1.363 . S
C399 C402 1.363 1_545 S
N400 C402 1.356 . S
N400 H412 0.984 . S
N400 H413 0.985 . S
N401 C403 1.356 . S
N401 H406 0.984 . S
N401 H407 0.985 . S
C402 C396 1.379 . S
C402 C399 1.363 1_565 S
C402 N400 1.356 . S
C403 C397 1.363 . S
C403 C398 1.379 . S
C403 N401 1.356 . S
N404 C396 1.356 . S
N404 H410 0.984 . S
N404 H411 0.984 . S
N405 C398 1.356 . S
N405 H408 0.984 . S
N405 H409 0.985 . S
H406 N401 0.984 . S
H407 N401 0.985 . S
H408 N405 0.984 . S
H409 N405 0.985 . S
H410 N404 0.984 . S
H411 N404 0.984 . S
H412 N400 0.984 . S
H413 N400 0.985 . S
C414 C415 1.363 . S
C414 C420 1.379 1_556 S
C414 N422 1.356 . S
C415 C414 1.363 . S
C415 C421 1.363 . S
C416 C417 1.363 1_556 S
C416 C421 1.379 . S
C416 N423 1.356 1_556 S
C417 C416 1.363 1_554 S
C417 C420 1.363 . S
N418 C420 1.356 . S
N418 H430 0.984 . S
N418 H431 0.985 . S
N419 C421 1.356 . S
N419 H424 0.984 . S
N419 H425 0.985 . S
C420 C414 1.379 1_554 S
C420 C417 1.363 . S
C420 N418 1.356 . S
C421 C415 1.363 . S
C421 C416 1.379 . S
C421 N419 1.356 . S
N422 C414 1.356 . S
N422 H428 0.984 . S
N422 H429 0.984 . S
N423 C416 1.356 1_554 S
N423 H426 0.984 . S
N423 H427 0.985 . S
H424 N419 0.984 . S
H425 N419 0.985 . S
H426 N423 0.984 . S
H427 N423 0.985 . S
H428 N422 0.984 . S
H429 N422 0.984 . S
H430 N418 0.984 . S
H431 N418 0.985 . S
C432 C433 1.363 1_655 S
C432 C438 1.379 . S
C432 N440 1.356 . S
C433 C432 1.363 1_455 S
C433 C439 1.363 . S
C434 C435 1.363 . S
C434 C439 1.379 . S
C434 N441 1.356 . S
C435 C434 1.363 . S
C435 C438 1.363 1_455 S
N436 C438 1.356 . S
N436 H448 0.984 . S
N436 H449 0.985 . S
N437 C439 1.356 . S
N437 H442 0.984 . S
N437 H443 0.985 . S
C438 C432 1.379 . S
C438 C435 1.363 1_655 S
C438 N436 1.356 . S
C439 C433 1.363 . S
C439 C434 1.379 . S
C439 N437 1.356 . S
N440 C432 1.356 . S
N440 H446 0.984 . S
N440 H447 0.984 . S
N441 C434 1.356 . S
N441 H444 0.984 . S
N441 H445 0.985 . S
H442 N437 0.984 . S
H443 N437 0.985 . S
H444 N441 0.984 . S
H445 N441 0.985 . S
H446 N440 0.984 . S
H447 N440 0.984 . S
H448 N436 0.984 . S
H449 N436 0.985 . S
C127 C2 1.499 . S
C129 C125 1.553 . S
C145 C22 1.497 . S
C147 C103 1.564 . S
C163 C44 1.498 . S
C165 C114 1.558 . S
C181 C4 1.445 . S
C183 C119 1.546 . S
C201 C97 1.540 . S
C199 C24 1.460 . S
C219 C108 1.528 . S
C217 C42 1.434 . S
C235 C32 1.428 . S
C237 C81 1.400 . S
C253 C49 1.225 . S
C255 C86 1.248 . S
C271 C9 1.207 . S
C273 C64 1.240 . S
C291 C75 1.282 . S
C289 C29 1.213 . S
C309 C92 1.357 . S
C307 C52 1.327 . S
C325 C12 1.338 . S
C327 C70 1.356 . S
C345 C87 1.487 . S
C343 C18 1.495 . S
C361 C38 1.471 . S
C363 C65 1.468 . S
C379 C58 1.458 . S
C381 C76 1.491 . S
C399 C109 1.521 . S
C397 C39 1.507 . S
C417 C120 1.526 . S
C415 C59 1.517 . S
C433 C19 1.506 . S
C435 C98 1.537 . S
