# Generated by pormake.
# Topology anh, (6,3)-cn, num edge types: 1
# Building blocks:
#     Node 0, Type 0, BuildingBlock: BETDEL_clean_sbu_0, # of connection points: 6
#     Node 1, Type 0, BuildingBlock: BETDEL_clean_sbu_0, # of connection points: 6
#     Node 2, Type 0, BuildingBlock: BETDEL_clean_sbu_0, # of connection points: 6
#     Node 3, Type 1, BuildingBlock: ESEHIV_clean_linker_0, # of connection points: 3
#     Node 4, Type 1, BuildingBlock: ESEHIV_clean_linker_0, # of connection points: 3
#     Node 5, Type 1, BuildingBlock: ESEHIV_clean_linker_0, # of connection points: 3
#     Node 6, Type 1, BuildingBlock: ESEHIV_clean_linker_0, # of connection points: 3
#     Node 7, Type 1, BuildingBlock: ESEHIV_clean_linker_0, # of connection points: 3
#     Node 8, Type 1, BuildingBlock: ESEHIV_clean_linker_0, # of connection points: 3
#     Edge 9, Type (0, 1), BuildingBlock: EZIPEK_clean_linker_0, # of connection points: 2
#     Edge 10, Type (0, 1), BuildingBlock: EZIPEK_clean_linker_0, # of connection points: 2
#     Edge 11, Type (0, 1), BuildingBlock: EZIPEK_clean_linker_0, # of connection points: 2
#     Edge 12, Type (0, 1), BuildingBlock: EZIPEK_clean_linker_0, # of connection points: 2
#     Edge 13, Type (0, 1), BuildingBlock: EZIPEK_clean_linker_0, # of connection points: 2
#     Edge 14, Type (0, 1), BuildingBlock: EZIPEK_clean_linker_0, # of connection points: 2
#     Edge 15, Type (0, 1), BuildingBlock: EZIPEK_clean_linker_0, # of connection points: 2
#     Edge 16, Type (0, 1), BuildingBlock: EZIPEK_clean_linker_0, # of connection points: 2
#     Edge 17, Type (0, 1), BuildingBlock: EZIPEK_clean_linker_0, # of connection points: 2
#     Edge 18, Type (0, 1), BuildingBlock: EZIPEK_clean_linker_0, # of connection points: 2
#     Edge 19, Type (0, 1), BuildingBlock: EZIPEK_clean_linker_0, # of connection points: 2
#     Edge 20, Type (0, 1), BuildingBlock: EZIPEK_clean_linker_0, # of connection points: 2
#     Edge 21, Type (0, 1), BuildingBlock: EZIPEK_clean_linker_0, # of connection points: 2
#     Edge 22, Type (0, 1), BuildingBlock: EZIPEK_clean_linker_0, # of connection points: 2
#     Edge 23, Type (0, 1), BuildingBlock: EZIPEK_clean_linker_0, # of connection points: 2
#     Edge 24, Type (0, 1), BuildingBlock: EZIPEK_clean_linker_0, # of connection points: 2
#     Edge 25, Type (0, 1), BuildingBlock: EZIPEK_clean_linker_0, # of connection points: 2
#     Edge 26, Type (0, 1), BuildingBlock: EZIPEK_clean_linker_0, # of connection points: 2
# Relax obj value: 0.168
# Max RMSD: 0.169
# Mean RMSD: 0.141
data_MOF--net-anh--node1-BETDEL_clean_sbu_0--node2-ESEHIV_clean_linker_0--edge1-EZIPEK_clean_linker_0
_symmetry_space_group_name_H-M    P1
_symmetry_Int_Tables_number       1
_symmetry_cell_setting            triclinic
loop_
_symmetry_equiv_pos_as_xyz
'x, y, z'
_cell_length_a     19.464576
_cell_length_b     19.565837
_cell_length_c     35.804462
_cell_angle_alpha  89.791455
_cell_angle_beta   90.672938
_cell_angle_gamma 119.63211
loop_
_atom_site_label
_atom_site_type_symbol
_atom_site_fract_x
_atom_site_fract_y
_atom_site_fract_z
_atom_type_partial_charge
Dy0 Dy 0.10693 0.52272 0.1496 0.0
C1 C 0.91345 0.66098 0.18066 0.0
C2 C 0.19364 0.46247 0.12106 0.0
Dy3 Dy 1.00607 0.60067 0.15784 0.0
O4 O 0.19269 0.47941 0.1559 0.0
O5 O 0.14303 0.47377 0.10193 0.0
O6 O 0.1524 0.54802 0.20806 0.0
O7 O 0.04148 0.53555 0.19461 0.0
C8 C 0.09467 0.55761 0.21953 0.0
C9 C 1.02797 0.56822 0.08773 0.0
O10 O 0.12657 0.70724 0.16698 0.0
O11 O 0.20256 0.65161 0.14964 0.0
O12 O 0.94896 0.67451 0.1487 0.0
O13 O 0.93356 0.61828 0.20076 0.0
O14 O 0.96243 0.56346 0.09877 0.0
O15 O 0.07863 0.59424 0.11365 0.0
O16 O 0.98367 0.41383 0.14853 0.0
O17 O 0.9109 0.474 0.16445 0.0
C18 C 0.19677 0.71378 0.16044 0.0
C19 C 0.91529 0.40956 0.15774 0.0
Dy20 Dy 0.48988 0.04263 0.49559 0.0
C21 C 0.81169 0.22122 0.49172 0.0
C22 C 0.33145 0.94771 0.48879 0.0
Dy23 Dy 0.65336 0.117 0.4898 0.0
O24 O 0.36646 0.99347 0.51697 0.0
O25 O 0.38314 0.95438 0.46443 0.0
O26 O 0.49923 0.09763 0.55121 0.0
O27 O 0.58101 0.06177 0.53769 0.0
C28 C 0.5624 0.09641 0.5617 0.0
C29 C 0.58509 0.07006 0.42195 0.0
O30 O 0.63966 1.00073 0.50851 0.0
O31 O 0.50604 0.93456 0.49796 0.0
O32 O 0.77858 0.15393 0.47479 0.0
O33 O 0.75815 0.22735 0.51003 0.0
O34 O 0.64572 0.0657 0.43358 0.0
O35 O 0.56357 0.10097 0.44691 0.0
O36 O 0.50364 0.16021 0.48091 0.0
O37 O 0.63308 0.22168 0.49915 0.0
C38 C 0.57227 0.9332 0.5058 0.0
C39 C 0.56799 0.2252 0.4913 0.0
Dy40 Dy 0.63074 0.6095 0.82672 0.0
C41 C 0.4938 0.28675 0.84629 0.0
C42 C 0.68663 0.76436 0.81229 0.0
Dy43 Dy 0.54034 0.43912 0.82807 0.0
O44 O 0.67279 0.73326 0.84525 0.0
O45 O 0.67171 0.71103 0.78725 0.0
O46 O 0.69055 0.61287 0.88037 0.0
O47 O 0.57324 0.5256 0.87211 0.0
C48 C 0.63262 0.54869 0.89364 0.0
C49 C 0.53945 0.49733 0.76032 0.0
O50 O 0.44225 0.45824 0.84825 0.0
O51 O 0.50386 0.58606 0.8276 0.0
O52 O 0.462 0.30875 0.82019 0.0
O53 O 0.55085 0.3487 0.86183 0.0
O54 O 0.48108 0.43409 0.77396 0.0
O55 O 0.59918 0.52276 0.78198 0.0
O56 O 0.73652 0.59388 0.81977 0.0
O57 O 0.66524 0.45874 0.8247 0.0
C58 C 0.44013 0.52329 0.84042 0.0
C59 C 0.73392 0.52519 0.82301 0.0
H60 H 0.44791 0.95848 0.25614 0.0
H61 H 0.67195 0.1702 0.25535 0.0
H62 H 0.55448 0.06458 0.15084 0.0
C63 C 0.49567 1.00453 0.24032 0.0
C64 C 0.49162 1.00301 0.20101 0.0
C65 C 0.55946 0.06478 0.25985 0.0
C66 C 0.62231 0.12431 0.23997 0.0
C67 C 0.62262 0.12512 0.20063 0.0
C68 C 0.55603 0.06426 0.18108 0.0
H69 H 0.55801 0.66651 0.60146 0.0
H70 H 0.57147 0.45566 0.58805 0.0
H71 H 0.57708 0.5886 0.49207 0.0
C72 C 0.55677 0.62098 0.58411 0.0
C73 C 0.5674 0.63624 0.54538 0.0
C74 C 0.54723 0.55046 0.60013 0.0
C75 C 0.56422 0.50292 0.57671 0.0
C76 C 0.57078 0.51278 0.53789 0.0
C77 C 0.57205 0.57997 0.52201 0.0
H78 H 0.98157 0.55646 0.92032 0.0
H79 H 0.19372 0.54356 0.9334 0.0
H80 H 0.09464 0.529 0.82304 0.0
C81 C 1.02971 0.55213 0.90769 0.0
C82 C 1.02952 0.54166 0.8689 0.0
C83 C 0.08752 0.5514 0.93089 0.0
C84 C 0.14914 0.54414 0.91516 0.0
C85 C 0.15455 0.53891 0.87617 0.0
C86 C 0.0933 0.53632 0.85294 0.0
H87 H 1.01985 0.47575 0.37418 0.0
H88 H 0.14749 0.72683 0.38691 0.0
H89 H 0.05019 0.57846 0.48324 0.0
C90 C 0.04409 0.52745 0.39199 0.0
C91 C 1.0308 0.51882 0.43042 0.0
C92 C 0.08346 0.60229 0.37612 0.0
C93 C 0.11462 0.66871 0.3991 0.0
C94 C 0.10527 0.65986 0.4379 0.0
C95 C 0.06025 0.58507 0.45339 0.0
H96 H 0.57903 0.16676 0.73447 0.0
H97 H 0.68049 1.02083 0.71006 0.0
H98 H 0.62676 0.04708 0.82316 0.0
C99 C 0.60524 0.13208 0.74414 0.0
C100 C 0.60351 0.11409 0.78223 0.0
C101 C 0.63309 0.09854 0.71811 0.0
C102 C 0.66326 0.0505 0.73032 0.0
C103 C 0.66159 0.03272 0.76823 0.0
C104 C 0.63267 0.06519 0.79414 0.0
H105 H 0.47868 0.47953 0.0346 0.0
H106 H 0.71154 0.54455 0.07621 0.0
H107 H 0.53471 0.53568 0.1504 0.0
C108 C 0.52063 0.49456 0.05757 0.0
C109 C 0.49701 0.49978 0.0935 0.0
C110 C 0.59792 0.51073 0.05078 0.0
C111 C 0.65142 0.5318 0.08094 0.0
C112 C 0.62956 0.5437 0.11661 0.0
C113 C 0.55164 0.52578 0.12307 0.0
C114 C 0.27868 0.40167 0.11546 0.0
C115 C 0.26305 0.46279 0.10542 0.0
C116 C 0.40139 0.54857 0.08929 0.0
C117 C 0.4167 0.48694 0.09853 0.0
N118 N 0.36994 0.35094 0.11372 0.0
N119 N 0.30433 0.58747 0.07455 0.0
C120 C 0.3552 0.41202 0.10949 0.0
C121 C 0.32258 0.53378 0.08941 0.0
N122 N 0.22078 0.33484 0.13165 0.0
N123 N 0.46273 0.62221 0.0819 0.0
H124 H 0.24785 0.58057 0.07427 0.0
H125 H 0.34387 0.63597 0.05907 0.0
H126 H 0.52157 0.63539 0.08108 0.0
H127 H 0.45643 0.67192 0.07973 0.0
H128 H 0.23066 0.29202 0.14383 0.0
H129 H 0.16278 0.32378 0.13417 0.0
H130 H 0.32597 0.29299 0.11795 0.0
H131 H 0.42604 0.35731 0.11056 0.0
C132 C 0.84869 0.32273 0.44339 0.0
C133 C 0.87289 0.29106 0.47318 0.0
C134 C 1.00583 0.40399 0.47105 0.0
C135 C 0.97753 0.44045 0.44557 0.0
N136 N 0.86784 0.44127 0.41363 0.0
N137 N 0.97162 0.30173 0.51749 0.0
C138 C 0.89787 0.40157 0.43325 0.0
C139 C 0.95084 0.33164 0.48767 0.0
N140 N 0.77849 0.27808 0.42492 0.0
N141 N 0.08496 0.43713 0.47833 0.0
H142 H 0.933 0.24712 0.52912 0.0
H143 H 1.02522 0.33281 0.53185 0.0
H144 H 0.12676 0.48901 0.46567 0.0
H145 H 0.10959 0.40972 0.49416 0.0
H146 H 0.76362 0.29591 0.40011 0.0
H147 H 0.73754 0.22087 0.43231 0.0
H148 H 0.80843 0.41684 0.40615 0.0
H149 H 0.90024 0.50136 0.40822 0.0
C150 C 0.61006 0.8337 0.80561 0.0
C151 C 0.68402 0.83623 0.80373 0.0
C152 C 0.74641 0.97168 0.78127 0.0
C153 C 0.67074 0.96549 0.77967 0.0
N154 N 0.52833 0.88463 0.78185 0.0
N155 N 0.82121 0.90285 0.78649 0.0
C156 C 0.60193 0.89483 0.78942 0.0
C157 C 0.75201 0.90389 0.79051 0.0
N158 N 0.54739 0.77354 0.82329 0.0
N159 N 0.81245 0.04249 0.7749 0.0
H160 H 0.82763 0.85492 0.79446 0.0
H161 H 0.87064 0.94733 0.77336 0.0
H162 H 0.80984 0.09294 0.7678 0.0
H163 H 0.86975 0.05267 0.77919 0.0
H164 H 0.49551 0.77428 0.8293 0.0
H165 H 0.54948 0.72641 0.83536 0.0
H166 H 0.47665 0.83056 0.78398 0.0
H167 H 0.51869 0.92785 0.77002 0.0
C168 C 0.81949 0.70262 0.15834 0.0
C169 C 0.83563 0.65656 0.18347 0.0
C170 C 0.70292 0.54577 0.17529 0.0
C171 C 0.6917 0.58644 0.14514 0.0
N172 N 0.72395 0.71074 0.11691 0.0
N173 N 0.78133 0.55665 0.23057 0.0
C174 C 0.74474 0.66797 0.13995 0.0
C175 C 0.77275 0.5858 0.19729 0.0
N176 N 0.87819 0.7769 0.15038 0.0
N177 N 0.65002 0.46829 0.18132 0.0
H178 H 0.83157 0.58826 0.24737 0.0
H179 H 0.73591 0.50689 0.24309 0.0
H180 H 0.59785 0.43758 0.16576 0.0
H181 H 0.66016 0.4337 0.20032 0.0
H182 H 0.87452 0.81203 0.12945 0.0
H183 H 0.93191 0.80244 0.16508 0.0
H184 H 0.75812 0.77122 0.1133 0.0
H185 H 0.66904 0.6861 0.1034 0.0
C186 C 0.25879 0.80871 0.50353 0.0
C187 C 0.25559 0.87559 0.4913 0.0
C188 C 0.13191 0.79232 0.45848 0.0
C189 C 0.14783 0.72922 0.46211 0.0
N190 N 0.23263 0.67982 0.48555 0.0
N191 N 0.18741 0.93408 0.46053 0.0
C192 C 0.21161 0.73696 0.48484 0.0
C193 C 0.19047 0.86823 0.47043 0.0
N194 N 0.3106 0.81532 0.53121 0.0
N195 N 0.06206 0.77948 0.443 0.0
H196 H 0.22889 0.9897 0.47052 0.0
H197 H 0.14594 0.93378 0.44178 0.0
H198 H 1.01822 0.72369 0.43438 0.0
H199 H 0.04499 0.82218 0.44181 0.0
H200 H 0.31162 0.767 0.54295 0.0
H201 H 0.34629 0.86831 0.54507 0.0
H202 H 0.28422 0.68738 0.49845 0.0
H203 H 0.20355 0.62795 0.4702 0.0
C204 C 0.44613 0.15397 0.81927 0.0
C205 C 0.49153 0.21032 0.84668 0.0
C206 C 0.59905 0.1829 0.84076 0.0
C207 C 0.56041 0.13674 0.80867 0.0
N208 N 0.43564 0.05118 0.77788 0.0
N209 N 0.58268 0.24012 0.89771 0.0
C210 C 0.47952 0.11278 0.80142 0.0
C211 C 0.55757 0.20991 0.86277 0.0
N212 N 0.37359 0.14338 0.80948 0.0
N213 N 0.67648 0.20657 0.84848 0.0
H214 H 0.55108 0.25971 0.91362 0.0
H215 H 0.6286 0.23782 0.91183 0.0
H216 H 0.71141 0.19309 0.83162 0.0
H217 H 0.70777 0.24516 0.87016 0.0
H218 H 0.34051 0.10987 0.78671 0.0
H219 H 0.34741 0.16985 0.82464 0.0
H220 H 0.37537 0.02828 0.77307 0.0
H221 H 0.45842 1.01829 0.76578 0.0
C222 C 0.51889 0.78423 0.49513 0.0
C223 C 0.57057 0.85582 0.51451 0.0
C224 C 0.63114 0.7853 0.54594 0.0
C225 C 0.57262 0.71199 0.53088 0.0
N226 N 0.44979 0.64138 0.49647 0.0
N227 N 0.65831 0.91289 0.56787 0.0
C228 C 0.51347 0.71138 0.50688 0.0
C229 C 0.62219 0.85327 0.54243 0.0
N230 N 0.47667 0.78516 0.46462 0.0
N231 N 0.69595 0.79041 0.56374 0.0
H232 H 0.64653 0.95924 0.56964 0.0
H233 H 0.69111 0.91042 0.59054 0.0
H234 H 0.70553 0.74257 0.5661 0.0
H235 H 0.74373 0.84381 0.5724 0.0
H236 H 0.44466 0.73629 0.44746 0.0
H237 H 0.4799 0.83612 0.45401 0.0
H238 H 0.4005 0.63745 0.48269 0.0
H239 H 0.44279 0.58713 0.50463 0.0
C240 C 0.88081 0.57516 0.81031 0.0
C241 C 0.80982 0.52274 0.82932 0.0
C242 C 0.88283 0.46491 0.86018 0.0
C243 C 0.95587 0.52752 0.84782 0.0
N244 N 1.02461 0.64737 0.81257 0.0
N245 N 0.75296 0.43152 0.88105 0.0
C246 C 0.95504 0.58385 0.82294 0.0
C247 C 0.81295 0.47039 0.85629 0.0
N248 N 0.87744 0.61509 0.77965 0.0
N249 N 0.88109 0.40155 0.8772 0.0
H250 H 0.7055 0.44158 0.88349 0.0
H251 H 0.75613 0.39792 0.90296 0.0
H252 H 0.93127 0.39537 0.8795 0.0
H253 H 0.82895 0.35223 0.88536 0.0
H254 H 0.92627 0.64911 0.76302 0.0
H255 H 0.82424 0.60708 0.76846 0.0
H256 H 1.02749 0.69484 0.79794 0.0
H257 H 0.07946 0.65474 0.82076 0.0
C258 C 0.34251 0.81466 0.14636 0.0
C259 C 0.27182 0.79293 0.16677 0.0
C260 C 0.3424 0.92407 0.19648 0.0
C261 C 0.41646 0.93736 0.1831 0.0
N262 N 0.48603 0.88546 0.14821 0.0
N263 N 0.21675 0.82565 0.22003 0.0
C264 C 0.41635 0.88008 0.15865 0.0
C265 C 0.2747 0.84755 0.19402 0.0
N266 N 0.33941 0.77564 0.1143 0.0
N267 N 0.33681 0.98445 0.21234 0.0
H268 H 0.17116 0.76821 0.22347 0.0
H269 H 0.22066 0.86245 0.24193 0.0
H270 H 0.38472 0.0416 0.21373 0.0
H271 H 0.2829 0.97921 0.22004 0.0
H272 H 0.38828 0.79286 0.09724 0.0
H273 H 0.28642 0.73336 0.10214 0.0
H274 H 0.48866 0.84085 0.13358 0.0
H275 H 0.5409 0.93097 0.15695 0.0
C276 C 0.63256 0.37603 0.48905 0.0
C277 C 0.56562 0.30127 0.49724 0.0
C278 C 0.4959 0.37206 0.51669 0.0
C279 C 0.56708 0.4452 0.51571 0.0
N280 N 0.70624 0.51616 0.50317 0.0
N281 N 0.43742 0.23281 0.52723 0.0
C282 C 0.63627 0.44707 0.50227 0.0
C283 C 0.49776 0.30037 0.5128 0.0
N284 N 0.69141 0.37978 0.46736 0.0
N285 N 0.42615 0.37105 0.52243 0.0
H286 H 0.43752 0.17988 0.52873 0.0
H287 H 0.39124 0.23157 0.54221 0.0
H288 H 0.42313 0.42254 0.5255 0.0
H289 H 0.37127 0.32015 0.52004 0.0
H290 H 0.73847 0.43259 0.45815 0.0
H291 H 0.68801 0.33018 0.45491 0.0
H292 H 0.76052 0.51976 0.49802 0.0
H293 H 0.71016 0.56914 0.51131 0.0
C294 C 0.29118 0.46934 0.83311 0.0
C295 C 0.36609 0.52783 0.84736 0.0
C296 C 0.30273 0.60165 0.87022 0.0
C297 C 0.22649 0.53781 0.86133 0.0
N298 N 0.1484 0.40457 0.83887 0.0
N299 N 0.43758 0.64067 0.88766 0.0
C300 C 0.22072 0.46996 0.84382 0.0
C301 C 0.37044 0.59186 0.86796 0.0
N302 N 0.28718 0.41456 0.80833 0.0
N303 N 0.31068 0.67235 0.88059 0.0
H304 H 0.48675 0.63277 0.88896 0.0
H305 H 0.44116 0.68362 0.90598 0.0
H306 H 0.26276 0.68228 0.88159 0.0
H307 H 0.36547 0.72292 0.88412 0.0
H308 H 0.23537 0.37555 0.7942 0.0
H309 H 0.33708 0.4133 0.79902 0.0
H310 H 0.14125 0.35069 0.83012 0.0
H311 H 0.09575 0.40224 0.84647 0.0
C312 C 0.76624 0.31827 0.14944 0.0
C313 C 0.84076 0.3304 0.16307 0.0
C314 C 0.77043 0.19599 0.18938 0.0
C315 C 0.6957 0.19004 0.18182 0.0
N316 N 0.62391 0.25211 0.15783 0.0
N317 N 0.90925 0.28269 0.20291 0.0
C318 C 0.69397 0.25277 0.16241 0.0
C319 C 0.84183 0.26933 0.1845 0.0
N320 N 0.76427 0.36816 0.12321 0.0
N321 N 0.77322 0.13114 0.20151 0.0
H322 H 0.96151 0.33645 0.20264 0.0
H323 H 0.9108 0.24309 0.22197 0.0
H324 H 0.72237 0.07663 0.20493 0.0
H325 H 0.82575 0.12951 0.20422 0.0
H326 H 0.71242 0.35872 0.10988 0.0
H327 H 0.81535 0.41407 0.11174 0.0
H328 H 0.62012 0.30033 0.14798 0.0
H329 H 0.57011 0.20556 0.16656 0.0
C330 C 1.00681 0.48953 0.02931 0.0
C331 C 0.0466 0.563 0.04812 0.0
C332 C 0.12442 0.62509 -0.00805 0.0
C333 C 0.07936 0.55348 0.97215 0.0
N334 N 0.97702 0.41745 0.97082 0.0
N335 N 0.13618 0.70307 0.04666 0.0
C336 C 1.02055 0.48555 -0.00939 0.0
C337 C 0.10428 0.63131 0.02942 0.0
N338 N 0.95778 0.4231 0.04883 0.0
N339 N 0.18634 0.68726 0.97483 0.0
H340 H 0.12166 0.71079 0.07365 0.0
H341 H 0.17197 0.7562 0.03331 0.0
H342 H 0.20046 0.68622 0.94692 0.0
H343 H 0.22745 0.73784 0.98886 0.0
H344 H 0.93373 0.36638 0.03815 0.0
H345 H 0.94489 0.42403 0.07692 0.0
H346 H 0.92625 0.36903 0.98082 0.0
H347 H 0.98997 0.4102 0.94343 0.0
C348 C 0.55995 1.00049 0.36072 0.0
C349 C 0.56707 0.06603 0.38104 0.0
C350 C 0.55559 0.12421 0.32187 0.0
C351 C 0.56057 0.06455 0.30163 0.0
N352 N 0.58084 0.95245 0.30215 0.0
N353 N 0.58689 0.19859 0.37933 0.0
C354 C 0.56607 1.00422 0.32116 0.0
C355 C 0.56834 0.13005 0.36131 0.0
N356 N 0.54608 0.93378 0.37926 0.0
N357 N 0.53722 0.17456 0.30355 0.0
H358 H 0.5997 0.20786 0.40773 0.0
H359 H 0.59742 0.24956 0.3653 0.0
H360 H 0.52691 0.1718 0.27479 0.0
H361 H 0.52465 0.21382 0.31736 0.0
H362 H 0.53224 0.88134 0.36578 0.0
H363 H 0.54049 0.92855 0.40818 0.0
H364 H 0.59388 0.91264 0.31537 0.0
H365 H 0.58772 0.95421 0.27326 0.0
C366 C 0.52997 0.5744 0.70583 0.0
C367 C 0.54274 0.51329 0.71954 0.0
C368 C 0.51906 0.45821 0.65648 0.0
C369 C 0.52721 0.52914 0.64145 0.0
N370 N 0.47313 0.61316 0.65546 0.0
N371 N 0.55365 0.39792 0.7066 0.0
C372 C 0.51477 0.57752 0.66693 0.0
C373 C 0.5389 0.4557 0.69443 0.0
N374 N 0.53028 0.6284 0.72992 0.0
N375 N 0.47839 0.38961 0.63693 0.0
H376 H 0.56953 0.39435 0.73418 0.0
H377 H 0.55709 0.35836 0.6883 0.0
H378 H 0.44903 0.38678 0.61187 0.0
H379 H 0.46453 0.33501 0.64808 0.0
H380 H 0.53027 0.67917 0.72098 0.0
H381 H 0.53565 0.62472 0.75871 0.0
H382 H 0.45609 0.64389 0.67332 0.0
H383 H 0.44444 0.6005 0.6295 0.0
C384 C 0.63994 0.16877 0.61839 0.0
C385 C 0.58213 0.09771 0.60142 0.0
C386 C 0.55189 0.03132 0.66163 0.0
C387 C 0.61531 0.09976 0.67801 0.0
N388 N 0.72599 0.23074 0.67199 0.0
N389 N 0.49099 0.95804 0.60517 0.0
C390 C 0.66119 0.16791 0.65641 0.0
C391 C 0.54066 0.02788 0.6225 0.0
N392 N 0.67308 0.23714 0.59842 0.0
N393 N 0.5 0.97098 0.68367 0.0
H394 H 0.47812 0.95307 0.57665 0.0
H395 H 0.4672 0.90386 0.61859 0.0
H396 H 0.50475 0.97195 0.71265 0.0
H397 H 0.4478 0.92354 0.67363 0.0
H398 H 0.70935 0.29225 0.61024 0.0
H399 H 0.65952 0.23949 0.57038 0.0
H400 H 0.76667 0.27893 0.6567 0.0
H401 H 0.74238 0.23217 0.69995 0.0
C402 C 0.56597 0.45641 0.94952 0.0
C403 C 0.63243 0.52163 0.93287 0.0
C404 C 0.68658 0.57313 -0.00541 0.0
C405 C 0.6206 0.50857 0.01138 0.0
N406 N 0.51972 0.37288 0.00414 0.0
N407 N 0.77331 0.60842 0.942 0.0
C408 C 0.56803 0.44451 0.98852 0.0
C409 C 0.69886 0.56882 0.95611 0.0
N410 N 0.49995 0.40713 0.92943 0.0
N411 N 0.73413 0.64089 0.01373 0.0
H412 H 0.78593 0.59864 0.91494 0.0
H413 H 0.823 0.64078 0.95897 0.0
H414 H 0.72345 0.65143 0.0409 0.0
H415 H 0.77917 0.69028 0.00068 0.0
H416 H 0.44766 0.36574 0.942 0.0
H417 H 0.49509 0.40904 0.90073 0.0
H418 H 0.48456 0.32265 0.98826 0.0
H419 H 0.52204 0.36249 0.03263 0.0
C420 C 0.16224 0.63137 0.27776 0.0
C421 C 0.09026 0.58166 0.25821 0.0
C422 C 1.01767 0.57744 0.31403 0.0
C423 C 0.08868 0.60904 0.33512 0.0
N424 N 0.22982 0.65992 0.33744 0.0
N425 N 0.94769 0.49513 0.26165 0.0
C426 C 0.16165 0.63521 0.31715 0.0
C427 C 1.01699 0.55217 0.27704 0.0
N428 N 0.23091 0.67614 0.25895 0.0
N429 N 0.95072 0.57009 0.32966 0.0
H430 H 0.94386 0.46677 0.23665 0.0
H431 H 0.89474 0.46835 0.27625 0.0
H432 H 0.95066 0.59034 0.35658 0.0
H433 H 0.89868 0.55279 0.31443 0.0
H434 H 0.28276 0.71813 0.2721 0.0
H435 H 0.23388 0.67879 0.22996 0.0
H436 H 0.28288 0.67108 0.32541 0.0
H437 H 0.23216 0.66312 0.36652 0.0
loop_
_geom_bond_atom_site_label_1
_geom_bond_atom_site_label_2
_geom_bond_distance
_geom_bond_site_symmetry_2
_ccdc_geom_bond_type
Dy0 O4 2.398 . S
Dy0 O5 2.491 . S
Dy0 O6 2.403 . S
Dy0 O7 2.664 . S
Dy0 O11 2.326 . S
Dy0 O15 2.310 . S
Dy0 O16 2.351 1_455 S
C1 O12 1.185 . S
C1 O13 1.355 . S
C2 O4 1.185 . S
C2 O5 1.355 . S
Dy3 O7 2.310 1_655 S
Dy3 O10 2.351 1_655 S
Dy3 O12 2.398 . S
Dy3 O13 2.491 . S
Dy3 O14 2.403 . S
Dy3 O15 2.664 1_655 S
Dy3 O17 2.326 . S
O4 Dy0 2.398 . S
O4 C2 1.185 . S
O5 Dy0 2.491 . S
O5 C2 1.355 . S
O6 Dy0 2.403 . S
O6 C8 1.254 . S
O7 Dy0 2.664 . S
O7 Dy3 2.310 1_455 S
O7 C8 1.268 . S
C8 O6 1.254 . S
C8 O7 1.268 . S
C9 O14 1.254 1_455 S
C9 O15 1.268 . S
O10 Dy3 2.351 1_455 S
O10 C18 1.249 . S
O11 Dy0 2.326 . S
O11 C18 1.267 . S
O12 C1 1.185 . S
O12 Dy3 2.398 . S
O13 C1 1.355 . S
O13 Dy3 2.491 . S
O14 Dy3 2.403 . S
O14 C9 1.254 1_655 S
O15 Dy0 2.310 . S
O15 Dy3 2.664 1_455 S
O15 C9 1.268 . S
O16 Dy0 2.351 1_655 S
O16 C19 1.249 . S
O17 Dy3 2.326 . S
O17 C19 1.267 . S
C18 O10 1.249 . S
C18 O11 1.267 . S
C19 O16 1.249 . S
C19 O17 1.267 . S
Dy20 O24 2.398 . S
Dy20 O25 2.491 . S
Dy20 O26 2.403 . S
Dy20 O27 2.664 1_565 S
Dy20 O31 2.326 . S
Dy20 O35 2.310 1_565 S
Dy20 O36 2.351 1_565 S
C21 O32 1.185 . S
C21 O33 1.355 . S
C22 O24 1.185 . S
C22 O25 1.355 . S
Dy23 O27 2.310 . S
Dy23 O30 2.351 1_545 S
Dy23 O32 2.398 . S
Dy23 O33 2.491 . S
Dy23 O34 2.403 . S
Dy23 O35 2.664 . S
Dy23 O37 2.326 . S
O24 Dy20 2.398 . S
O24 C22 1.185 . S
O25 Dy20 2.491 . S
O25 C22 1.355 . S
O26 Dy20 2.403 . S
O26 C28 1.254 1_565 S
O27 Dy20 2.664 1_545 S
O27 Dy23 2.310 . S
O27 C28 1.268 . S
C28 O26 1.254 1_545 S
C28 O27 1.268 . S
C29 O34 1.254 . S
C29 O35 1.268 . S
O30 Dy23 2.351 1_565 S
O30 C38 1.249 . S
O31 Dy20 2.326 . S
O31 C38 1.267 . S
O32 C21 1.185 . S
O32 Dy23 2.398 . S
O33 C21 1.355 . S
O33 Dy23 2.491 . S
O34 Dy23 2.403 . S
O34 C29 1.254 . S
O35 Dy20 2.310 1_545 S
O35 Dy23 2.664 . S
O35 C29 1.268 . S
O36 Dy20 2.351 1_545 S
O36 C39 1.249 . S
O37 Dy23 2.326 . S
O37 C39 1.267 . S
C38 O30 1.249 . S
C38 O31 1.267 . S
C39 O36 1.249 . S
C39 O37 1.267 . S
Dy40 O44 2.398 . S
Dy40 O45 2.491 . S
Dy40 O46 2.403 . S
Dy40 O47 2.664 . S
Dy40 O51 2.326 . S
Dy40 O55 2.310 . S
Dy40 O56 2.351 . S
C41 O52 1.185 . S
C41 O53 1.355 . S
C42 O44 1.185 . S
C42 O45 1.355 . S
Dy43 O47 2.310 . S
Dy43 O50 2.351 . S
Dy43 O52 2.398 . S
Dy43 O53 2.491 . S
Dy43 O54 2.403 . S
Dy43 O55 2.664 . S
Dy43 O57 2.326 . S
O44 Dy40 2.398 . S
O44 C42 1.185 . S
O45 Dy40 2.491 . S
O45 C42 1.355 . S
O46 Dy40 2.403 . S
O46 C48 1.254 . S
O47 Dy40 2.664 . S
O47 Dy43 2.310 . S
O47 C48 1.268 . S
C48 O46 1.254 . S
C48 O47 1.268 . S
C49 O54 1.254 . S
C49 O55 1.268 . S
O50 Dy43 2.351 . S
O50 C58 1.249 . S
O51 Dy40 2.326 . S
O51 C58 1.267 . S
O52 C41 1.185 . S
O52 Dy43 2.398 . S
O53 C41 1.355 . S
O53 Dy43 2.491 . S
O54 Dy43 2.403 . S
O54 C49 1.254 . S
O55 Dy40 2.310 . S
O55 Dy43 2.664 . S
O55 C49 1.268 . S
O56 Dy40 2.351 . S
O56 C59 1.249 . S
O57 Dy43 2.326 . S
O57 C59 1.267 . S
C58 O50 1.249 . S
C58 O51 1.267 . S
C59 O56 1.249 . S
C59 O57 1.267 . S
H60 C63 0.931 . S
H61 C66 0.928 . S
H62 C68 0.930 . S
C63 H60 0.931 . S
C63 C64 1.413 . S
C63 C65 1.360 1_565 S
C64 C63 1.413 . S
C64 C68 1.429 1_565 S
C65 C63 1.360 1_545 S
C65 C66 1.372 . S
C66 H61 0.928 . S
C66 C65 1.372 . S
C66 C67 1.404 . S
C67 C66 1.404 . S
C67 C68 1.391 . S
C68 H62 0.930 . S
C68 C64 1.429 1_545 S
C68 C67 1.391 . S
H69 C72 0.931 . S
H70 C75 0.928 . S
H71 C77 0.930 . S
C72 H69 0.931 . S
C72 C73 1.413 . S
C72 C74 1.360 . S
C73 C72 1.413 . S
C73 C77 1.429 . S
C74 C72 1.360 . S
C74 C75 1.372 . S
C75 H70 0.928 . S
C75 C74 1.372 . S
C75 C76 1.404 . S
C76 C75 1.404 . S
C76 C77 1.391 . S
C77 H71 0.930 . S
C77 C73 1.429 . S
C77 C76 1.391 . S
H78 C81 0.931 . S
H79 C84 0.928 . S
H80 C86 0.930 . S
C81 H78 0.931 . S
C81 C82 1.413 . S
C81 C83 1.360 1_655 S
C82 C81 1.413 . S
C82 C86 1.429 1_655 S
C83 C81 1.360 1_455 S
C83 C84 1.372 . S
C84 H79 0.928 . S
C84 C83 1.372 . S
C84 C85 1.404 . S
C85 C84 1.404 . S
C85 C86 1.391 . S
C86 H80 0.930 . S
C86 C82 1.429 1_455 S
C86 C85 1.391 . S
H87 C90 0.931 . S
H88 C93 0.928 . S
H89 C95 0.930 . S
C90 H87 0.931 . S
C90 C91 1.413 . S
C90 C92 1.360 1_655 S
C91 C90 1.413 . S
C91 C95 1.429 1_655 S
C92 C90 1.360 1_455 S
C92 C93 1.372 . S
C93 H88 0.928 . S
C93 C92 1.372 . S
C93 C94 1.404 . S
C94 C93 1.404 . S
C94 C95 1.391 . S
C95 H89 0.930 . S
C95 C91 1.429 1_455 S
C95 C94 1.391 . S
H96 C99 0.931 . S
H97 C102 0.928 . S
H98 C104 0.930 . S
C99 H96 0.931 . S
C99 C100 1.413 . S
C99 C101 1.360 . S
C100 C99 1.413 . S
C100 C104 1.429 . S
C101 C99 1.360 . S
C101 C102 1.372 1_545 S
C102 H97 0.928 . S
C102 C101 1.372 1_565 S
C102 C103 1.404 . S
C103 C102 1.404 . S
C103 C104 1.391 1_565 S
C104 H98 0.930 . S
C104 C100 1.429 . S
C104 C103 1.391 1_545 S
H105 C108 0.931 . S
H106 C111 0.928 . S
H107 C113 0.930 . S
C108 H105 0.931 . S
C108 C109 1.413 . S
C108 C110 1.360 . S
C109 C108 1.413 . S
C109 C113 1.429 . S
C110 C108 1.360 . S
C110 C111 1.372 . S
C111 H106 0.928 . S
C111 C110 1.372 . S
C111 C112 1.404 . S
C112 C111 1.404 . S
C112 C113 1.391 . S
C113 H107 0.930 . S
C113 C109 1.429 . S
C113 C112 1.391 . S
C114 C115 1.363 . S
C114 C120 1.379 . S
C114 N122 1.356 . S
C115 C114 1.363 . S
C115 C121 1.363 . S
C116 C117 1.363 . S
C116 C121 1.379 . S
C116 N123 1.356 . S
C117 C116 1.363 . S
C117 C120 1.363 . S
N118 C120 1.356 . S
N118 H130 0.984 . S
N118 H131 0.985 . S
N119 C121 1.356 . S
N119 H124 0.984 . S
N119 H125 0.985 . S
C120 C114 1.379 . S
C120 C117 1.363 . S
C120 N118 1.356 . S
C121 C115 1.363 . S
C121 C116 1.379 . S
C121 N119 1.356 . S
N122 C114 1.356 . S
N122 H128 0.984 . S
N122 H129 0.984 . S
N123 C116 1.356 . S
N123 H126 0.984 . S
N123 H127 0.985 . S
H124 N119 0.984 . S
H125 N119 0.985 . S
H126 N123 0.984 . S
H127 N123 0.985 . S
H128 N122 0.984 . S
H129 N122 0.984 . S
H130 N118 0.984 . S
H131 N118 0.985 . S
C132 C133 1.363 . S
C132 C138 1.379 . S
C132 N140 1.356 . S
C133 C132 1.363 . S
C133 C139 1.363 . S
C134 C135 1.363 . S
C134 C139 1.379 . S
C134 N141 1.356 . S
C135 C134 1.363 . S
C135 C138 1.363 . S
N136 C138 1.356 . S
N136 H148 0.984 . S
N136 H149 0.985 . S
N137 C139 1.356 . S
N137 H142 0.984 . S
N137 H143 0.985 . S
C138 C132 1.379 . S
C138 C135 1.363 . S
C138 N136 1.356 . S
C139 C133 1.363 . S
C139 C134 1.379 . S
C139 N137 1.356 . S
N140 C132 1.356 . S
N140 H146 0.984 . S
N140 H147 0.984 . S
N141 C134 1.356 . S
N141 H144 0.984 1_655 S
N141 H145 0.985 . S
H142 N137 0.984 . S
H143 N137 0.985 . S
H144 N141 0.984 1_455 S
H145 N141 0.985 . S
H146 N140 0.984 . S
H147 N140 0.984 . S
H148 N136 0.984 . S
H149 N136 0.985 . S
C150 C151 1.363 . S
C150 C156 1.379 . S
C150 N158 1.356 . S
C151 C150 1.363 . S
C151 C157 1.363 . S
C152 C153 1.363 . S
C152 C157 1.379 . S
C152 N159 1.356 1_565 S
C153 C152 1.363 . S
C153 C156 1.363 . S
N154 C156 1.356 . S
N154 H166 0.984 . S
N154 H167 0.985 . S
N155 C157 1.356 . S
N155 H160 0.984 . S
N155 H161 0.985 . S
C156 C150 1.379 . S
C156 C153 1.363 . S
C156 N154 1.356 . S
C157 C151 1.363 . S
C157 C152 1.379 . S
C157 N155 1.356 . S
N158 C150 1.356 . S
N158 H164 0.984 . S
N158 H165 0.984 . S
N159 C152 1.356 1_545 S
N159 H162 0.984 . S
N159 H163 0.985 . S
H160 N155 0.984 . S
H161 N155 0.985 . S
H162 N159 0.984 . S
H163 N159 0.985 . S
H164 N158 0.984 . S
H165 N158 0.984 . S
H166 N154 0.984 . S
H167 N154 0.985 . S
C168 C169 1.363 . S
C168 C174 1.379 . S
C168 N176 1.356 . S
C169 C168 1.363 . S
C169 C175 1.363 . S
C170 C171 1.363 . S
C170 C175 1.379 . S
C170 N177 1.356 . S
C171 C170 1.363 . S
C171 C174 1.363 . S
N172 C174 1.356 . S
N172 H184 0.984 . S
N172 H185 0.985 . S
N173 C175 1.356 . S
N173 H178 0.984 . S
N173 H179 0.985 . S
C174 C168 1.379 . S
C174 C171 1.363 . S
C174 N172 1.356 . S
C175 C169 1.363 . S
C175 C170 1.379 . S
C175 N173 1.356 . S
N176 C168 1.356 . S
N176 H182 0.984 . S
N176 H183 0.984 . S
N177 C170 1.356 . S
N177 H180 0.984 . S
N177 H181 0.985 . S
H178 N173 0.984 . S
H179 N173 0.985 . S
H180 N177 0.984 . S
H181 N177 0.985 . S
H182 N176 0.984 . S
H183 N176 0.984 . S
H184 N172 0.984 . S
H185 N172 0.985 . S
C186 C187 1.363 . S
C186 C192 1.379 . S
C186 N194 1.356 . S
C187 C186 1.363 . S
C187 C193 1.363 . S
C188 C189 1.363 . S
C188 C193 1.379 . S
C188 N195 1.356 . S
C189 C188 1.363 . S
C189 C192 1.363 . S
N190 C192 1.356 . S
N190 H202 0.984 . S
N190 H203 0.985 . S
N191 C193 1.356 . S
N191 H196 0.984 . S
N191 H197 0.985 . S
C192 C186 1.379 . S
C192 C189 1.363 . S
C192 N190 1.356 . S
C193 C187 1.363 . S
C193 C188 1.379 . S
C193 N191 1.356 . S
N194 C186 1.356 . S
N194 H200 0.984 . S
N194 H201 0.984 . S
N195 C188 1.356 . S
N195 H198 0.984 . S
N195 H199 0.985 . S
H196 N191 0.984 . S
H197 N191 0.985 . S
H198 N195 0.984 . S
H199 N195 0.985 . S
H200 N194 0.984 . S
H201 N194 0.984 . S
H202 N190 0.984 . S
H203 N190 0.985 . S
C204 C205 1.363 . S
C204 C210 1.379 . S
C204 N212 1.356 . S
C205 C204 1.363 . S
C205 C211 1.363 . S
C206 C207 1.363 . S
C206 C211 1.379 . S
C206 N213 1.356 . S
C207 C206 1.363 . S
C207 C210 1.363 . S
N208 C210 1.356 . S
N208 H220 0.984 . S
N208 H221 0.985 . S
N209 C211 1.356 . S
N209 H214 0.984 . S
N209 H215 0.985 . S
C210 C204 1.379 . S
C210 C207 1.363 . S
C210 N208 1.356 . S
C211 C205 1.363 . S
C211 C206 1.379 . S
C211 N209 1.356 . S
N212 C204 1.356 . S
N212 H218 0.984 . S
N212 H219 0.984 . S
N213 C206 1.356 . S
N213 H216 0.984 . S
N213 H217 0.985 . S
H214 N209 0.984 . S
H215 N209 0.985 . S
H216 N213 0.984 . S
H217 N213 0.985 . S
H218 N212 0.984 . S
H219 N212 0.984 . S
H220 N208 0.984 . S
H221 N208 0.985 . S
C222 C223 1.363 . S
C222 C228 1.379 . S
C222 N230 1.356 . S
C223 C222 1.363 . S
C223 C229 1.363 . S
C224 C225 1.363 . S
C224 C229 1.379 . S
C224 N231 1.356 . S
C225 C224 1.363 . S
C225 C228 1.363 . S
N226 C228 1.356 . S
N226 H238 0.984 . S
N226 H239 0.985 . S
N227 C229 1.356 . S
N227 H232 0.984 . S
N227 H233 0.985 . S
C228 C222 1.379 . S
C228 C225 1.363 . S
C228 N226 1.356 . S
C229 C223 1.363 . S
C229 C224 1.379 . S
C229 N227 1.356 . S
N230 C222 1.356 . S
N230 H236 0.984 . S
N230 H237 0.984 . S
N231 C224 1.356 . S
N231 H234 0.984 . S
N231 H235 0.985 . S
H232 N227 0.984 . S
H233 N227 0.985 . S
H234 N231 0.984 . S
H235 N231 0.985 . S
H236 N230 0.984 . S
H237 N230 0.984 . S
H238 N226 0.984 . S
H239 N226 0.985 . S
C240 C241 1.363 . S
C240 C246 1.379 . S
C240 N248 1.356 . S
C241 C240 1.363 . S
C241 C247 1.363 . S
C242 C243 1.363 . S
C242 C247 1.379 . S
C242 N249 1.356 . S
C243 C242 1.363 . S
C243 C246 1.363 . S
N244 C246 1.356 . S
N244 H256 0.986 1_655 S
N244 H257 0.985 1_655 S
N245 C247 1.356 . S
N245 H250 0.984 . S
N245 H251 0.985 . S
C246 C240 1.379 . S
C246 C243 1.363 . S
C246 N244 1.356 . S
C247 C241 1.363 . S
C247 C242 1.379 . S
C247 N245 1.356 . S
N248 C240 1.356 . S
N248 H254 0.984 . S
N248 H255 0.984 . S
N249 C242 1.356 . S
N249 H252 0.984 . S
N249 H253 0.985 . S
H250 N245 0.984 . S
H251 N245 0.985 . S
H252 N249 0.984 . S
H253 N249 0.985 . S
H254 N248 0.984 . S
H255 N248 0.984 . S
H256 N244 0.986 1_455 S
H257 N244 0.985 1_455 S
C258 C259 1.363 . S
C258 C264 1.379 . S
C258 N266 1.356 . S
C259 C258 1.363 . S
C259 C265 1.363 . S
C260 C261 1.363 . S
C260 C265 1.379 . S
C260 N267 1.356 . S
C261 C260 1.363 . S
C261 C264 1.363 . S
N262 C264 1.356 . S
N262 H274 0.984 . S
N262 H275 0.985 . S
N263 C265 1.356 . S
N263 H268 0.984 . S
N263 H269 0.985 . S
C264 C258 1.379 . S
C264 C261 1.363 . S
C264 N262 1.356 . S
C265 C259 1.363 . S
C265 C260 1.379 . S
C265 N263 1.356 . S
N266 C258 1.356 . S
N266 H272 0.984 . S
N266 H273 0.984 . S
N267 C260 1.356 . S
N267 H270 0.984 . S
N267 H271 0.985 . S
H268 N263 0.984 . S
H269 N263 0.985 . S
H270 N267 0.984 . S
H271 N267 0.985 . S
H272 N266 0.984 . S
H273 N266 0.984 . S
H274 N262 0.984 . S
H275 N262 0.985 . S
C276 C277 1.363 . S
C276 C282 1.379 . S
C276 N284 1.356 . S
C277 C276 1.363 . S
C277 C283 1.363 . S
C278 C279 1.363 . S
C278 C283 1.379 . S
C278 N285 1.356 . S
C279 C278 1.363 . S
C279 C282 1.363 . S
N280 C282 1.356 . S
N280 H292 0.984 . S
N280 H293 0.985 . S
N281 C283 1.356 . S
N281 H286 0.984 . S
N281 H287 0.985 . S
C282 C276 1.379 . S
C282 C279 1.363 . S
C282 N280 1.356 . S
C283 C277 1.363 . S
C283 C278 1.379 . S
C283 N281 1.356 . S
N284 C276 1.356 . S
N284 H290 0.984 . S
N284 H291 0.984 . S
N285 C278 1.356 . S
N285 H288 0.984 . S
N285 H289 0.985 . S
H286 N281 0.984 . S
H287 N281 0.985 . S
H288 N285 0.984 . S
H289 N285 0.985 . S
H290 N284 0.984 . S
H291 N284 0.984 . S
H292 N280 0.984 . S
H293 N280 0.985 . S
C294 C295 1.363 . S
C294 C300 1.379 . S
C294 N302 1.356 . S
C295 C294 1.363 . S
C295 C301 1.363 . S
C296 C297 1.363 . S
C296 C301 1.379 . S
C296 N303 1.356 . S
C297 C296 1.363 . S
C297 C300 1.363 . S
N298 C300 1.356 . S
N298 H310 0.984 . S
N298 H311 0.985 . S
N299 C301 1.356 . S
N299 H304 0.984 . S
N299 H305 0.985 . S
C300 C294 1.379 . S
C300 C297 1.363 . S
C300 N298 1.356 . S
C301 C295 1.363 . S
C301 C296 1.379 . S
C301 N299 1.356 . S
N302 C294 1.356 . S
N302 H308 0.984 . S
N302 H309 0.984 . S
N303 C296 1.356 . S
N303 H306 0.984 . S
N303 H307 0.985 . S
H304 N299 0.984 . S
H305 N299 0.985 . S
H306 N303 0.984 . S
H307 N303 0.985 . S
H308 N302 0.984 . S
H309 N302 0.984 . S
H310 N298 0.984 . S
H311 N298 0.985 . S
C312 C313 1.363 . S
C312 C318 1.379 . S
C312 N320 1.356 . S
C313 C312 1.363 . S
C313 C319 1.363 . S
C314 C315 1.363 . S
C314 C319 1.379 . S
C314 N321 1.356 . S
C315 C314 1.363 . S
C315 C318 1.363 . S
N316 C318 1.356 . S
N316 H328 0.984 . S
N316 H329 0.985 . S
N317 C319 1.356 . S
N317 H322 0.984 . S
N317 H323 0.985 . S
C318 C312 1.379 . S
C318 C315 1.363 . S
C318 N316 1.356 . S
C319 C313 1.363 . S
C319 C314 1.379 . S
C319 N317 1.356 . S
N320 C312 1.356 . S
N320 H326 0.984 . S
N320 H327 0.984 . S
N321 C314 1.356 . S
N321 H324 0.984 . S
N321 H325 0.985 . S
H322 N317 0.984 . S
H323 N317 0.985 . S
H324 N321 0.984 . S
H325 N321 0.985 . S
H326 N320 0.984 . S
H327 N320 0.984 . S
H328 N316 0.984 . S
H329 N316 0.985 . S
C330 C331 1.363 . S
C330 C336 1.379 1_554 S
C330 N338 1.356 . S
C331 C330 1.363 . S
C331 C337 1.363 . S
C332 C333 1.361 . S
C332 C337 1.382 1_556 S
C332 N339 1.354 . S
C333 C332 1.361 . S
C333 C336 1.363 . S
N334 C336 1.356 . S
N334 H346 0.984 . S
N334 H347 0.985 . S
N335 C337 1.356 . S
N335 H340 0.984 . S
N335 H341 0.985 . S
C336 C330 1.379 1_556 S
C336 C333 1.363 . S
C336 N334 1.356 . S
C337 C331 1.363 . S
C337 C332 1.382 1_554 S
C337 N335 1.356 . S
N338 C330 1.356 . S
N338 H344 0.984 . S
N338 H345 0.984 . S
N339 C332 1.354 . S
N339 H342 0.984 . S
N339 H343 0.985 . S
H340 N335 0.984 . S
H341 N335 0.985 . S
H342 N339 0.984 . S
H343 N339 0.985 . S
H344 N338 0.984 . S
H345 N338 0.984 . S
H346 N334 0.984 . S
H347 N334 0.985 . S
C348 C349 1.363 1_565 S
C348 C354 1.379 . S
C348 N356 1.356 . S
C349 C348 1.363 1_545 S
C349 C355 1.363 . S
C350 C351 1.363 . S
C350 C355 1.379 . S
C350 N357 1.356 . S
C351 C350 1.363 . S
C351 C354 1.363 1_545 S
N352 C354 1.356 . S
N352 H364 0.984 . S
N352 H365 0.985 . S
N353 C355 1.356 . S
N353 H358 0.984 . S
N353 H359 0.985 . S
C354 C348 1.379 . S
C354 C351 1.363 1_565 S
C354 N352 1.356 . S
C355 C349 1.363 . S
C355 C350 1.379 . S
C355 N353 1.356 . S
N356 C348 1.356 . S
N356 H362 0.984 . S
N356 H363 0.984 . S
N357 C350 1.356 . S
N357 H360 0.984 . S
N357 H361 0.985 . S
H358 N353 0.984 . S
H359 N353 0.985 . S
H360 N357 0.984 . S
H361 N357 0.985 . S
H362 N356 0.984 . S
H363 N356 0.984 . S
H364 N352 0.984 . S
H365 N352 0.985 . S
C366 C367 1.363 . S
C366 C372 1.379 . S
C366 N374 1.356 . S
C367 C366 1.363 . S
C367 C373 1.363 . S
C368 C369 1.363 . S
C368 C373 1.379 . S
C368 N375 1.356 . S
C369 C368 1.363 . S
C369 C372 1.363 . S
N370 C372 1.356 . S
N370 H382 0.984 . S
N370 H383 0.985 . S
N371 C373 1.356 . S
N371 H376 0.984 . S
N371 H377 0.985 . S
C372 C366 1.379 . S
C372 C369 1.363 . S
C372 N370 1.356 . S
C373 C367 1.363 . S
C373 C368 1.379 . S
C373 N371 1.356 . S
N374 C366 1.356 . S
N374 H380 0.984 . S
N374 H381 0.984 . S
N375 C368 1.356 . S
N375 H378 0.984 . S
N375 H379 0.985 . S
H376 N371 0.984 . S
H377 N371 0.985 . S
H378 N375 0.984 . S
H379 N375 0.985 . S
H380 N374 0.984 . S
H381 N374 0.984 . S
H382 N370 0.984 . S
H383 N370 0.985 . S
C384 C385 1.363 . S
C384 C390 1.379 . S
C384 N392 1.356 . S
C385 C384 1.363 . S
C385 C391 1.363 1_545 S
C386 C387 1.363 1_565 S
C386 C391 1.379 . S
C386 N393 1.356 . S
C387 C386 1.363 1_545 S
C387 C390 1.363 . S
N388 C390 1.356 . S
N388 H400 0.984 . S
N388 H401 0.985 . S
N389 C391 1.356 . S
N389 H394 0.984 . S
N389 H395 0.985 . S
C390 C384 1.379 . S
C390 C387 1.363 . S
C390 N388 1.356 . S
C391 C385 1.363 1_565 S
C391 C386 1.379 . S
C391 N389 1.356 . S
N392 C384 1.356 . S
N392 H398 0.984 . S
N392 H399 0.984 . S
N393 C386 1.356 . S
N393 H396 0.984 . S
N393 H397 0.985 . S
H394 N389 0.984 . S
H395 N389 0.985 . S
H396 N393 0.984 . S
H397 N393 0.985 . S
H398 N392 0.984 . S
H399 N392 0.984 . S
H400 N388 0.984 . S
H401 N388 0.985 . S
C402 C403 1.363 . S
C402 C408 1.379 1_556 S
C402 N410 1.356 . S
C403 C402 1.363 . S
C403 C409 1.363 . S
C404 C405 1.363 . S
C404 C409 1.379 1_554 S
C404 N411 1.356 . S
C405 C404 1.363 . S
C405 C408 1.363 . S
N406 C408 1.356 . S
N406 H418 0.984 . S
N406 H419 0.985 . S
N407 C409 1.356 . S
N407 H412 0.984 . S
N407 H413 0.985 . S
C408 C402 1.379 1_554 S
C408 C405 1.363 . S
C408 N406 1.356 . S
C409 C403 1.363 . S
C409 C404 1.379 1_556 S
C409 N407 1.356 . S
N410 C402 1.356 . S
N410 H416 0.984 . S
N410 H417 0.984 . S
N411 C404 1.356 . S
N411 H414 0.984 . S
N411 H415 0.985 . S
H412 N407 0.984 . S
H413 N407 0.985 . S
H414 N411 0.984 . S
H415 N411 0.985 . S
H416 N410 0.984 . S
H417 N410 0.984 . S
H418 N406 0.984 . S
H419 N406 0.985 . S
C420 C421 1.363 . S
C420 C426 1.379 . S
C420 N428 1.356 . S
C421 C420 1.363 . S
C421 C427 1.363 1_455 S
C422 C423 1.363 1_655 S
C422 C427 1.379 . S
C422 N429 1.356 . S
C423 C422 1.363 1_455 S
C423 C426 1.363 . S
N424 C426 1.356 . S
N424 H436 0.984 . S
N424 H437 0.985 . S
N425 C427 1.356 . S
N425 H430 0.984 . S
N425 H431 0.985 . S
C426 C420 1.379 . S
C426 C423 1.363 . S
C426 N424 1.356 . S
C427 C421 1.363 1_655 S
C427 C422 1.379 . S
C427 N425 1.356 . S
N428 C420 1.356 . S
N428 H434 0.984 . S
N428 H435 0.984 . S
N429 C422 1.356 . S
N429 H432 0.984 . S
N429 H433 0.985 . S
H430 N425 0.984 . S
H431 N425 0.985 . S
H432 N429 0.984 . S
H433 N429 0.985 . S
H434 N428 0.984 . S
H435 N428 0.984 . S
H436 N424 0.984 . S
H437 N424 0.985 . S
C115 C2 1.082 . S
C117 C109 1.099 . S
C133 C21 1.051 . S
C135 C91 1.087 . S
C151 C42 1.073 . S
C153 C103 1.087 . S
C169 C1 1.043 . S
C171 C112 1.075 . S
C189 C94 1.087 . S
C187 C22 1.073 . S
C207 C100 1.087 . S
C205 C41 1.051 . S
C223 C38 1.854 . S
C225 C73 1.866 . S
C241 C59 1.917 . S
C243 C82 1.893 . S
C259 C18 1.853 . S
C261 C64 1.866 . S
C279 C76 1.876 . S
C277 C39 1.907 . S
C297 C85 1.849 . S
C295 C58 1.844 . S
C313 C19 1.907 . S
C315 C67 1.876 . S
C333 C83 1.585 . S
C331 C9 1.514 . S
C349 C29 1.515 . S
C351 C65 1.584 . S
C367 C49 1.515 . S
C369 C74 1.584 . S
C387 C101 1.385 . S
C385 C28 1.360 . S
C405 C110 1.386 . S
C403 C48 1.360 . S
C421 C8 1.359 . S
C423 C92 1.385 . S
