# Generated by pormake.
# Topology anh, (6,3)-cn, num edge types: 1
# Building blocks:
#     Node 0, Type 0, BuildingBlock: BETFAJ_clean_sbu_0, # of connection points: 6
#     Node 1, Type 0, BuildingBlock: BETFAJ_clean_sbu_0, # of connection points: 6
#     Node 2, Type 0, BuildingBlock: BETFAJ_clean_sbu_0, # of connection points: 6
#     Node 3, Type 1, BuildingBlock: VETTIZ_charged_linker_0, # of connection points: 3
#     Node 4, Type 1, BuildingBlock: VETTIZ_charged_linker_0, # of connection points: 3
#     Node 5, Type 1, BuildingBlock: VETTIZ_charged_linker_0, # of connection points: 3
#     Node 6, Type 1, BuildingBlock: VETTIZ_charged_linker_0, # of connection points: 3
#     Node 7, Type 1, BuildingBlock: VETTIZ_charged_linker_0, # of connection points: 3
#     Node 8, Type 1, BuildingBlock: VETTIZ_charged_linker_0, # of connection points: 3
#     Edge 9, Type (0, 1), BuildingBlock: UVAHIK_clean_linker_0, # of connection points: 2
#     Edge 10, Type (0, 1), BuildingBlock: UVAHIK_clean_linker_0, # of connection points: 2
#     Edge 11, Type (0, 1), BuildingBlock: UVAHIK_clean_linker_0, # of connection points: 2
#     Edge 12, Type (0, 1), BuildingBlock: UVAHIK_clean_linker_0, # of connection points: 2
#     Edge 13, Type (0, 1), BuildingBlock: UVAHIK_clean_linker_0, # of connection points: 2
#     Edge 14, Type (0, 1), BuildingBlock: UVAHIK_clean_linker_0, # of connection points: 2
#     Edge 15, Type (0, 1), BuildingBlock: UVAHIK_clean_linker_0, # of connection points: 2
#     Edge 16, Type (0, 1), BuildingBlock: UVAHIK_clean_linker_0, # of connection points: 2
#     Edge 17, Type (0, 1), BuildingBlock: UVAHIK_clean_linker_0, # of connection points: 2
#     Edge 18, Type (0, 1), BuildingBlock: UVAHIK_clean_linker_0, # of connection points: 2
#     Edge 19, Type (0, 1), BuildingBlock: UVAHIK_clean_linker_0, # of connection points: 2
#     Edge 20, Type (0, 1), BuildingBlock: UVAHIK_clean_linker_0, # of connection points: 2
#     Edge 21, Type (0, 1), BuildingBlock: UVAHIK_clean_linker_0, # of connection points: 2
#     Edge 22, Type (0, 1), BuildingBlock: UVAHIK_clean_linker_0, # of connection points: 2
#     Edge 23, Type (0, 1), BuildingBlock: UVAHIK_clean_linker_0, # of connection points: 2
#     Edge 24, Type (0, 1), BuildingBlock: UVAHIK_clean_linker_0, # of connection points: 2
#     Edge 25, Type (0, 1), BuildingBlock: UVAHIK_clean_linker_0, # of connection points: 2
#     Edge 26, Type (0, 1), BuildingBlock: UVAHIK_clean_linker_0, # of connection points: 2
# Relax obj value: 0.169
# Max RMSD: 0.201
# Mean RMSD: 0.153
data_MOF--net-anh--node1-BETFAJ_clean_sbu_0--node2-VETTIZ_charged_linker_0--edge1-UVAHIK_clean_linker_0
_symmetry_space_group_name_H-M    P1
_symmetry_Int_Tables_number       1
_symmetry_cell_setting            triclinic
loop_
_symmetry_equiv_pos_as_xyz
'x, y, z'
_cell_length_a     45.888294
_cell_length_b     52.227038
_cell_length_c     82.318212
_cell_angle_alpha  92.233162
_cell_angle_beta   89.468722
_cell_angle_gamma 127.16505
loop_
_atom_site_label
_atom_site_type_symbol
_atom_site_fract_x
_atom_site_fract_y
_atom_site_fract_z
_atom_type_partial_charge
Sm0 Sm 0.08875 0.50083 0.14952 0.0
Sm1 Sm 0.04248 0.52504 0.16328 0.0
C2 C 0.13475 0.49332 0.13499 0.0
C3 C 0.17391 0.50961 0.138 0.0
C4 C 0.19708 0.54235 0.14286 0.0
C5 C 0.23295 0.55682 0.14799 0.0
C6 C 0.24614 0.53865 0.14854 0.0
C7 C 0.22325 0.50607 0.14321 0.0
C8 C 0.18739 0.49167 0.13798 0.0
C9 C 0.08252 0.50321 0.18261 0.0
C10 C 0.12883 0.57997 0.15561 0.0
C11 C 1.00392 0.5329 0.18384 0.0
C12 C 0.96434 0.51465 0.18542 0.0
C13 C 0.94942 0.52035 0.19871 0.0
C14 C 0.91143 0.50135 0.20045 0.0
C15 C 0.88809 0.47623 0.189 0.0
C16 C 0.90343 0.47064 0.17577 0.0
C17 C 0.94118 0.48971 0.17399 0.0
C18 C 1.03445 0.51426 0.12979 0.0
C19 C 1.00157 0.44773 0.15393 0.0
O20 O 0.12588 0.5108 0.12916 0.0
O21 O 0.11343 0.47524 0.14668 0.0
O22 O 0.08702 0.5234 0.17298 0.0
O23 O 0.08364 0.48163 0.17498 0.0
O24 O 0.13062 0.55679 0.14985 0.0
O25 O 0.09892 0.57397 0.16222 0.0
O26 O 1.01621 0.51659 0.18712 0.0
O27 O 1.01788 0.54943 0.17064 0.0
O28 O 0.05197 0.51026 0.13955 0.0
O29 O 1.01878 0.52458 0.13798 0.0
O30 O 1.00299 0.46953 0.16346 0.0
O31 O 1.02968 0.45495 0.145 0.0
H32 H 0.18709 0.55652 0.14327 0.0
H33 H 0.24984 0.58186 0.15214 0.0
H34 H 0.23293 0.49161 0.14331 0.0
H35 H 0.16983 0.46631 0.13442 0.0
H36 H 0.96708 0.53932 0.20774 0.0
H37 H 0.90031 0.50617 0.21075 0.0
H38 H 0.88621 0.45197 0.16655 0.0
H39 H 0.95237 0.48495 0.16369 0.0
Sm40 Sm 0.58058 0.01191 0.48648 0.0
Sm41 Sm 0.53419 0.03289 0.4782 0.0
C42 C 0.60818 0.98477 0.49923 0.0
C43 C 0.59853 0.95238 0.50091 0.0
C44 C 0.59412 0.94064 0.51649 0.0
C45 C 0.58587 0.91046 0.51847 0.0
C46 C 0.58212 0.89141 0.5049 0.0
C47 C 0.58649 0.90314 0.48928 0.0
C48 C 0.5945 0.93328 0.48729 0.0
C49 C 0.5759 0.0183 0.45386 0.0
C50 C 0.49115 0.95695 0.48015 0.0
C51 C 0.50657 0.06083 0.46656 0.0
C52 C 0.51431 0.09241 0.46929 0.0
C53 C 0.50063 0.10291 0.45842 0.0
C54 C 0.50745 0.13274 0.46117 0.0
C55 C 0.52803 0.15254 0.47488 0.0
C56 C 0.54197 0.14188 0.48565 0.0
C57 C 0.53531 0.11218 0.48284 0.0
C58 C 0.5403 0.02753 0.51088 0.0
C59 C 0.6241 0.08804 0.48372 0.0
O60 O 0.58881 0.99135 0.50752 0.0
O61 O 0.61622 0.99649 0.48473 0.0
O62 O 0.54959 0.00575 0.46354 0.0
O63 O 0.60559 0.02645 0.46107 0.0
O64 O 0.52098 0.96472 0.48774 0.0
O65 O 0.49103 0.97889 0.47278 0.0
O66 O 0.53199 0.06087 0.45921 0.0
O67 O 0.49284 0.04198 0.47887 0.0
O68 O 0.566 0.03993 0.50093 0.0
O69 O 0.51015 0.01866 0.50389 0.0
O70 O 0.59343 0.08023 0.47704 0.0
O71 O 0.62538 0.06619 0.49045 0.0
H72 H 0.59735 0.95497 0.52719 0.0
H73 H 0.5832 0.90233 0.53068 0.0
H74 H 0.58347 0.88891 0.47859 0.0
H75 H 0.59767 0.94161 0.47509 0.0
H76 H 0.48459 0.08801 0.44783 0.0
H77 H 0.49678 0.14034 0.45248 0.0
H78 H 0.55745 0.15616 0.49646 0.0
H79 H 0.54623 0.10448 0.49134 0.0
Sm80 Sm 0.58435 0.55235 0.84045 0.0
Sm81 Sm 0.53567 0.48168 0.84572 0.0
C82 C 0.61504 0.61083 0.83003 0.0
C83 C 0.606 0.6335 0.82826 0.0
C84 C 0.59164 0.63438 0.81346 0.0
C85 C 0.58403 0.65628 0.81153 0.0
C86 C 0.5908 0.67802 0.8243 0.0
C87 C 0.60531 0.67725 0.83909 0.0
C88 C 0.61288 0.65528 0.84104 0.0
C89 C 0.57629 0.53655 0.87236 0.0
C90 C 0.49359 0.51471 0.84438 0.0
C91 C 0.50642 0.42341 0.85595 0.0
C92 C 0.51416 0.4001 0.85299 0.0
C93 C 0.50176 0.37547 0.86377 0.0
C94 C 0.50891 0.35315 0.86091 0.0
C95 C 0.52854 0.35504 0.84715 0.0
C96 C 0.54115 0.38007 0.83646 0.0
C97 C 0.53419 0.40244 0.83939 0.0
C98 C 0.54398 0.4963 0.81355 0.0
C99 C 0.62692 0.51985 0.84234 0.0
O100 O 0.59751 0.5849 0.82045 0.0
O101 O 0.61991 0.6054 0.84478 0.0
O102 O 0.55092 0.52358 0.86185 0.0
O103 O 0.60741 0.55962 0.86639 0.0
O104 O 0.52541 0.53984 0.83891 0.0
O105 O 0.49125 0.48986 0.84973 0.0
O106 O 0.53141 0.44976 0.86428 0.0
O107 O 0.49367 0.42879 0.84345 0.0
O108 O 0.56928 0.51031 0.82415 0.0
O109 O 0.51352 0.47248 0.81957 0.0
O110 O 0.59459 0.49407 0.84697 0.0
O111 O 0.62982 0.54529 0.83757 0.0
H112 H 0.58656 0.61831 0.80328 0.0
H113 H 0.57353 0.6566 0.79987 0.0
H114 H 0.61062 0.69351 0.84921 0.0
H115 H 0.62427 0.6555 0.85255 0.0
H116 H 0.48654 0.3735 0.87441 0.0
H117 H 0.49929 0.33458 0.86955 0.0
H118 H 0.55586 0.3821 0.82562 0.0
H119 H 0.54419 0.42144 0.83096 0.0
C120 C 0.65063 0.1018 0.17623 0.0
C121 C 0.67793 0.13163 0.18413 0.0
C122 C 0.67849 0.13445 0.2012 0.0
C123 C 0.62481 0.0791 0.20248 0.0
C124 C 0.62403 0.07584 0.1857 0.0
C125 C 0.59161 0.04254 0.17972 0.0
H126 H 0.43494 0.89668 0.19948 0.0
C127 C 0.59324 0.04862 0.2089 0.0
C128 C 0.5732 0.02684 0.19568 0.0
H129 H 0.47745 0.92616 0.15128 0.0
H130 H 0.53024 0.97775 0.1626 0.0
H131 H 0.50924 0.9213 0.21554 0.0
H132 H 0.45187 0.96225 0.21248 0.0
H133 H 0.4698 0.97095 0.23237 0.0
H134 H 0.43768 0.9296 0.22524 0.0
H135 H 0.47112 0.90897 0.22817 0.0
H136 H 0.5174 0.94193 0.23426 0.0
C137 C 0.60621 0.0258 0.17095 0.0
C138 C 0.56705 0.046 0.16884 0.0
C139 C 0.57554 0.0396 0.27013 0.0
C140 C 0.54851 0.01477 0.27986 0.0
C141 C 0.51901 0.98573 0.27224 0.0
C142 C 0.51656 0.98139 0.25529 0.0
C143 C 0.54387 0.00633 0.24572 0.0
C144 C 0.57263 0.03485 0.25317 0.0
C145 C 0.59884 0.05877 0.24104 0.0
C146 C 0.58138 0.03963 0.22509 0.0
C147 C 0.54928 0.00904 0.22794 0.0
C148 C 0.63664 0.06631 0.24417 0.0
C149 C 0.59862 0.08838 0.24268 0.0
C150 C 0.45535 0.91432 0.19128 0.0
C151 C 0.45168 0.90757 0.17447 0.0
C152 C 0.47957 0.93088 0.16431 0.0
C153 C 0.51006 0.96081 0.1709 0.0
C154 C 0.51284 0.96731 0.18783 0.0
C155 C 0.48577 0.94384 0.19763 0.0
C156 C 0.49305 0.95356 0.21533 0.0
C157 C 0.52866 0.98706 0.21472 0.0
C158 C 0.54044 0.9955 0.19862 0.0
C159 C 0.49773 0.93026 0.2239 0.0
C160 C 0.46149 0.95398 0.22185 0.0
H161 H 0.65451 0.11254 0.2233 0.0
H162 H 0.64954 0.09908 0.1631 0.0
H163 H 0.56298 0.06319 0.17466 0.0
H164 H 0.53948 0.02321 0.16681 0.0
H165 H 0.57972 0.05523 0.15684 0.0
H166 H 0.62959 0.03015 0.17791 0.0
H167 H 0.61593 0.03517 0.15862 0.0
H168 H 0.5856 0.99945 0.16984 0.0
H169 H 0.59833 0.06237 0.27558 0.0
H170 H 0.49807 0.96604 0.27943 0.0
H171 H 0.49348 0.95865 0.25031 0.0
H172 H 0.63341 0.04427 0.24747 0.0
H173 H 0.65167 0.08448 0.25433 0.0
H174 H 0.65404 0.07474 0.23333 0.0
H175 H 0.57215 0.08169 0.24742 0.0
H176 H 0.60138 0.09897 0.23086 0.0
H177 H 0.62058 0.10726 0.25116 0.0
H178 H 0.69934 0.15706 0.2075 0.0
C179 C 0.65234 0.1085 0.21037 0.0
C180 C 0.55661 0.59341 0.5418 0.0
C181 C 0.55574 0.61638 0.55087 0.0
C182 C 0.55898 0.61788 0.56795 0.0
C183 C 0.56327 0.57392 0.56679 0.0
C184 C 0.56016 0.5723 0.55003 0.0
C185 C 0.56041 0.54563 0.5425 0.0
H186 H 0.57491 0.42522 0.55309 0.0
C187 C 0.5663 0.54871 0.57167 0.0
C188 C 0.56459 0.5319 0.55751 0.0
H189 H 0.55766 0.45391 0.50788 0.0
H190 H 0.55762 0.49526 0.5224 0.0
H191 H 0.63353 0.49738 0.56959 0.0
H192 H 0.51714 0.42556 0.57202 0.0
H193 H 0.5311 0.44488 0.59135 0.0
H194 H 0.54824 0.42342 0.58378 0.0
H195 H 0.61227 0.45983 0.57923 0.0
H196 H 0.62126 0.49458 0.59013 0.0
C197 C 0.59395 0.56082 0.53137 0.0
C198 C 0.52324 0.52104 0.53361 0.0
C199 C 0.57814 0.53601 0.63166 0.0
C200 C 0.57932 0.51365 0.63998 0.0
C201 C 0.5795 0.49024 0.631 0.0
C202 C 0.57817 0.48887 0.61397 0.0
C203 C 0.57627 0.51097 0.60579 0.0
C204 C 0.5763 0.53403 0.61463 0.0
C205 C 0.57267 0.55465 0.6039 0.0
C206 C 0.57036 0.5401 0.58718 0.0
C207 C 0.57275 0.51472 0.58837 0.0
C208 C 0.60783 0.58974 0.60615 0.0
C209 C 0.53674 0.5499 0.60825 0.0
C210 C 0.57161 0.44071 0.5463 0.0
C211 C 0.56681 0.4367 0.52934 0.0
C212 C 0.5615 0.45667 0.52096 0.0
C213 C 0.56155 0.48064 0.52941 0.0
C214 C 0.56648 0.48436 0.54643 0.0
C215 C 0.57108 0.46431 0.55455 0.0
C216 C 0.57409 0.47035 0.57265 0.0
C217 C 0.57127 0.49778 0.57412 0.0
C218 C 0.56704 0.50614 0.55875 0.0
C219 C 0.61212 0.48091 0.57835 0.0
C220 C 0.54121 0.43953 0.58048 0.0
H221 H 0.56514 0.59943 0.58892 0.0
H222 H 0.55397 0.59157 0.52867 0.0
H223 H 0.50066 0.51889 0.54024 0.0
H224 H 0.51539 0.49645 0.53295 0.0
H225 H 0.52348 0.52849 0.52112 0.0
H226 H 0.61843 0.58294 0.53737 0.0
H227 H 0.58886 0.56766 0.51972 0.0
H228 H 0.60178 0.54489 0.52869 0.0
H229 H 0.57743 0.55397 0.63827 0.0
H230 H 0.58062 0.47291 0.63719 0.0
H231 H 0.57833 0.47045 0.60786 0.0
H232 H 0.63232 0.59033 0.60764 0.0
H233 H 0.60628 0.60188 0.61714 0.0
H234 H 0.61371 0.60432 0.59552 0.0
H235 H 0.51568 0.52528 0.61251 0.0
H236 H 0.52367 0.55194 0.59768 0.0
H237 H 0.54149 0.56727 0.61809 0.0
H238 H 0.55897 0.63566 0.57519 0.0
C239 C 0.56278 0.59691 0.57592 0.0
C240 C 0.14556 0.51605 0.85183 0.0
C241 C 0.17127 0.51404 0.86045 0.0
C242 C 0.16862 0.51253 0.87743 0.0
C243 C 0.11729 0.51504 0.8774 0.0
C244 C 0.11838 0.51633 0.86065 0.0
C245 C 0.08712 0.51714 0.8545 0.0
H246 H 0.94663 0.52728 0.87929 0.0
C247 C 0.08751 0.51622 0.88358 0.0
C248 C 0.06898 0.51767 0.87037 0.0
H249 H 0.96711 0.51708 0.82919 0.0
H250 H 1.01802 0.51593 0.83788 0.0
H251 H 0.94875 0.47475 0.89096 0.0
H252 H 1.02786 0.57703 0.89067 0.0
H253 H 1.03564 0.56669 0.90926 0.0
H254 H 0.99154 0.55737 0.905 0.0
H255 H 0.9486 0.50116 0.90547 0.0
H256 H 0.97292 0.48481 0.90931 0.0
C257 C 0.06016 0.4865 0.84397 0.0
C258 C 0.10308 0.54764 0.84503 0.0
C259 C 0.06958 0.51307 0.945 0.0
C260 C 0.04648 0.51592 0.955 0.0
C261 C 1.02374 0.52207 0.94767 0.0
C262 C 1.02284 0.52402 0.93082 0.0
C263 C 0.04517 0.52012 0.92093 0.0
C264 C 0.06861 0.51551 0.9281 0.0
C265 C 0.0918 0.51381 0.91575 0.0
C266 C 0.07729 0.51683 0.89989 0.0
C267 C 0.04979 0.52014 0.90305 0.0
C268 C 0.08353 0.48036 0.91671 0.0
C269 C 0.1323 0.54305 0.91936 0.0
C270 C 0.96195 0.52522 0.86994 0.0
C271 C 0.9525 0.52286 0.85352 0.0
C272 C 0.97331 0.51907 0.84203 0.0
C273 C 1.00289 0.51843 0.84705 0.0
C274 C 1.01167 0.52094 0.86378 0.0
C275 C 0.99045 0.52397 0.87465 0.0
C276 C 1.00026 0.52469 0.8919 0.0
C277 C 1.03075 0.52152 0.8901 0.0
C278 C 0.03903 0.51981 0.87362 0.0
C279 C 0.96603 0.49509 0.89997 0.0
C280 C 1.01432 0.55796 0.89976 0.0
H281 H 0.1427 0.51156 0.89867 0.0
H282 H 0.14628 0.51688 0.83871 0.0
H283 H 0.12326 0.56944 0.85273 0.0
H284 H 0.0813 0.54941 0.84119 0.0
H285 H 0.11714 0.54756 0.83399 0.0
H286 H 0.05011 0.46475 0.85085 0.0
H287 H 0.07364 0.48594 0.83282 0.0
H288 H 1.0361 0.48506 0.84024 0.0
H289 H 0.08763 0.50852 0.95011 0.0
H290 H 1.00655 0.52557 0.95496 0.0
H291 H 1.00443 0.52828 0.92622 0.0
H292 H 0.05422 0.46153 0.91942 0.0
H293 H 0.10016 0.48046 0.92647 0.0
H294 H 0.08791 0.47184 0.90511 0.0
H295 H 0.13446 0.56304 0.92611 0.0
H296 H 0.14789 0.55405 0.90815 0.0
H297 H 0.14654 0.53629 0.92682 0.0
H298 H 0.18732 0.51093 0.88443 0.0
C299 C 0.14236 0.51302 0.88578 0.0
C300 C 0.96761 0.43541 0.46046 0.0
C301 C 0.93704 0.40706 0.45274 0.0
C302 C 0.93419 0.4049 0.43567 0.0
C303 C 0.99082 0.45858 0.43406 0.0
C304 C 0.99405 0.46111 0.45084 0.0
C305 C 1.02766 0.49394 0.45662 0.0
H306 H 0.17312 0.64501 0.4358 0.0
C307 C 1.02176 0.48915 0.42745 0.0
C308 C 0.0436 0.51041 0.44055 0.0
H309 H 0.14435 0.60994 0.48434 0.0
H310 H 0.09321 0.5571 0.47338 0.0
H311 H 0.16448 0.58534 0.42075 0.0
H312 H 0.09285 0.61243 0.42236 0.0
H313 H 0.08872 0.59639 0.40263 0.0
H314 H 0.13259 0.63152 0.4099 0.0
H315 H 0.16956 0.61404 0.40739 0.0
H316 H 0.14074 0.57151 0.40206 0.0
C317 C 0.05351 0.48942 0.46565 0.0
C318 C 1.01511 0.51059 0.46721 0.0
C319 C 1.03288 0.49951 0.36608 0.0
C320 C 0.05828 0.52485 0.35616 0.0
C321 C 0.08694 0.55459 0.36357 0.0
C322 C 0.09047 0.55895 0.38052 0.0
C323 C 0.06511 0.53332 0.39027 0.0
C324 C 1.03683 0.50429 0.38302 0.0
C325 C 1.01233 0.4799 0.39533 0.0
C326 C 1.0311 0.49891 0.41117 0.0
C327 C 0.06186 0.53008 0.4081 0.0
C328 C 1.01379 0.45111 0.39284 0.0
C329 C 0.97364 0.47121 0.3933 0.0
C330 C 0.15562 0.62612 0.44414 0.0
C331 C 0.16234 0.63181 0.46094 0.0
C332 C 0.13955 0.60617 0.47132 0.0
C333 C 0.10984 0.57562 0.46493 0.0
C334 C 0.10316 0.5706 0.448 0.0
C335 C 0.12643 0.59574 0.43799 0.0
C336 C 0.11703 0.58653 0.42033 0.0
C337 C 0.0837 0.55187 0.42119 0.0
C338 C 0.07512 0.54229 0.43739 0.0
C339 C 0.14955 0.58964 0.41207 0.0
C340 C 0.1075 0.60783 0.41329 0.0
H341 H 0.95674 0.42683 0.41342 0.0
H342 H 0.97034 0.43771 0.47359 0.0
H343 H 0.99165 0.50786 0.46126 0.0
H344 H 1.03659 0.53668 0.46903 0.0
H345 H 1.00617 0.4998 0.47931 0.0
H346 H 0.05532 0.47156 0.4589 0.0
H347 H 0.04338 0.48054 0.47801 0.0
H348 H 0.08178 0.51173 0.46671 0.0
H349 H 1.01026 0.47648 0.36079 0.0
H350 H 0.10718 0.57439 0.35624 0.0
H351 H 0.11301 0.58213 0.38533 0.0
H352 H 0.04202 0.45964 0.38996 0.0
H353 H 0.99551 0.43474 0.38262 0.0
H354 H 1.00662 0.43706 0.40383 0.0
H355 H 0.97486 0.49103 0.38788 0.0
H356 H 0.95999 0.46758 0.40506 0.0
H357 H 0.95579 0.44939 0.38524 0.0
H358 H 0.91116 0.38328 0.42948 0.0
C359 C 0.9608 0.43029 0.42634 0.0
C360 C 0.55506 0.94265 0.78524 0.0
C361 C 0.55118 0.91685 0.77666 0.0
C362 C 0.54922 0.91529 0.75954 0.0
C363 C 0.5557 0.96485 0.7597 0.0
C364 C 0.55694 0.96621 0.77651 0.0
C365 C 0.5598 0.99481 0.78352 0.0
H366 H 0.57764 0.13131 0.77025 0.0
C367 C 0.55947 0.99328 0.75425 0.0
C368 C 0.56187 0.01105 0.76812 0.0
H369 H 0.56236 0.08788 0.81622 0.0
H370 H 0.56088 0.04508 0.80255 0.0
H371 H 0.63403 0.12061 0.75548 0.0
H372 H 0.51708 0.06532 0.75088 0.0
H373 H 0.53413 0.06705 0.73143 0.0
H374 H 0.54831 0.10374 0.74209 0.0
H375 H 0.61291 0.13203 0.74242 0.0
H376 H 0.62249 0.10463 0.73541 0.0
C377 C 0.59543 0.0161 0.79387 0.0
C378 C 0.52457 0.98226 0.79311 0.0
C379 C 0.56313 0.01108 0.69376 0.0
C380 C 0.56958 0.03653 0.68498 0.0
C381 C 0.5767 0.06375 0.69348 0.0
C382 C 0.57661 0.0653 0.71052 0.0
C383 C 0.56962 0.03947 0.71917 0.0
C384 C 0.5637 0.01322 0.71078 0.0
C385 C 0.55899 0.98895 0.72199 0.0
C386 C 0.56203 0.00454 0.73849 0.0
C387 C 0.5678 0.03389 0.73675 0.0
C388 C 0.59092 0.98677 0.71912 0.0
C389 C 0.52034 0.95689 0.71885 0.0
C390 C 0.57444 0.1128 0.7774 0.0
C391 C 0.57041 0.11305 0.79432 0.0
C392 C 0.56544 0.08811 0.80315 0.0
C393 C 0.56458 0.06333 0.7952 0.0
C394 C 0.56821 0.06325 0.77821 0.0
C395 C 0.5729 0.08771 0.76963 0.0
C396 C 0.57457 0.08313 0.75161 0.0
C397 C 0.56977 0.05174 0.75071 0.0
C398 C 0.56645 0.04028 0.76632 0.0
C399 C 0.61279 0.11158 0.74578 0.0
C400 C 0.54207 0.07981 0.74343 0.0
H401 H 0.55009 0.93651 0.73804 0.0
H402 H 0.55618 0.94422 0.79841 0.0
H403 H 0.50071 0.95875 0.78783 0.0
H404 H 0.51646 0.99829 0.79259 0.0
H405 H 0.52771 0.97876 0.80602 0.0
H406 H 0.61861 0.01925 0.78727 0.0
H407 H 0.59256 0.00492 0.80557 0.0
H408 H 0.60372 0.04056 0.79651 0.0
H409 H 0.55825 0.99013 0.6875 0.0
H410 H 0.58171 0.0836 0.68691 0.0
H411 H 0.58182 0.08651 0.71629 0.0
H412 H 0.61601 0.0101 0.71529 0.0
H413 H 0.58376 0.9683 0.70946 0.0
H414 H 0.59949 0.98162 0.73026 0.0
H415 H 0.50008 0.96144 0.71634 0.0
H416 H 0.50961 0.9415 0.72946 0.0
H417 H 0.52011 0.94306 0.70819 0.0
H418 H 0.54656 0.89583 0.75267 0.0
C419 C 0.55152 0.93909 0.75105 0.0
C420 C 0.54422 0.38447 0.13778 0.0
C421 C 0.55146 0.36572 0.12855 0.0
C422 C 0.54247 0.36002 0.11179 0.0
C423 C 0.52615 0.39634 0.11333 0.0
C424 C 0.53185 0.3996 0.12997 0.0
C425 C 0.52731 0.42343 0.1378 0.0
H426 H 0.50566 0.53904 0.12966 0.0
C427 C 0.51868 0.41896 0.10873 0.0
C428 C 0.51894 0.43461 0.12307 0.0
H429 H 0.51645 0.50411 0.17421 0.0
H430 H 0.51961 0.46549 0.15875 0.0
H431 H 0.5659 0.53531 0.10808 0.0
H432 H 0.44926 0.47472 0.11381 0.0
H433 H 0.4563 0.46644 0.0939 0.0
H434 H 0.47109 0.50644 0.09973 0.0
H435 H 0.5366 0.54558 0.10226 0.0
H436 H 0.54446 0.52265 0.08872 0.0
C437 C 0.56413 0.45093 0.14621 0.0
C438 C 0.49441 0.40521 0.14938 0.0
C439 C 0.5172 0.44095 0.04916 0.0
C440 C 0.51267 0.46195 0.04139 0.0
C441 C 0.5031 0.47889 0.05086 0.0
C442 C 0.50056 0.47671 0.06775 0.0
C443 C 0.50748 0.4573 0.07538 0.0
C444 C 0.51416 0.43881 0.0661 0.0
C445 C 0.5187 0.41817 0.07639 0.0
C446 C 0.51491 0.42829 0.09338 0.0
C447 C 0.50924 0.45179 0.09265 0.0
C448 C 0.55748 0.4277 0.07359 0.0
C449 C 0.48724 0.38239 0.07204 0.0
C450 C 0.50978 0.5237 0.13607 0.0
C451 C 0.5117 0.52505 0.15313 0.0
C452 C 0.51536 0.50369 0.16105 0.0
C453 C 0.51694 0.4812 0.15205 0.0
C454 C 0.51463 0.47997 0.13496 0.0
C455 C 0.51099 0.50095 0.12728 0.0
C456 C 0.50714 0.4953 0.10914 0.0
C457 C 0.50946 0.46757 0.10713 0.0
C458 C 0.51416 0.45893 0.12226 0.0
C459 C 0.54004 0.52625 0.10151 0.0
C460 C 0.46916 0.48541 0.10374 0.0
H461 H 0.52484 0.371 0.09126 0.0
H462 H 0.55115 0.38975 0.15063 0.0
H463 H 0.4732 0.38017 0.14465 0.0
H464 H 0.48001 0.41614 0.15055 0.0
H465 H 0.50311 0.40377 0.16165 0.0
H466 H 0.58765 0.45651 0.13886 0.0
H467 H 0.56689 0.44413 0.15841 0.0
H468 H 0.56793 0.47387 0.14753 0.0
H469 H 0.52425 0.42731 0.04233 0.0
H470 H 0.49798 0.49425 0.04522 0.0
H471 H 0.49393 0.49072 0.07424 0.0
H472 H 0.57808 0.45433 0.07374 0.0
H473 H 0.55888 0.41793 0.06163 0.0
H474 H 0.56661 0.41958 0.08309 0.0
H475 H 0.46235 0.37932 0.06772 0.0
H476 H 0.47813 0.3671 0.08268 0.0
H477 H 0.49527 0.37263 0.06225 0.0
H478 H 0.54721 0.34524 0.10443 0.0
C479 C 0.52973 0.37516 0.10414 0.0
C480 C 0.28858 0.53635 0.16606 0.0
C481 C 0.28319 0.55326 0.15521 0.0
C482 C 0.32364 0.54904 0.17166 0.0
C483 C 0.41589 0.59849 0.15701 0.0
H484 H 0.43544 0.57665 0.19792 0.0
C485 C 0.5214 0.57735 0.15765 0.0
C486 C 0.50496 0.54583 0.16234 0.0
C487 C 0.50719 0.59351 0.1628 0.0
C488 C 0.43071 0.58336 0.18651 0.0
H489 H 0.30995 0.59746 0.14234 0.0
H490 H 0.37154 0.61966 0.15208 0.0
H491 H 0.38229 0.57637 0.19516 0.0
H492 H 0.46384 0.50798 0.1776 0.0
H493 H 0.43849 0.53556 0.18629 0.0
H494 H 0.46214 0.60289 0.14783 0.0
C495 C 0.34857 0.59655 0.15622 0.0
C496 C 0.40029 0.58317 0.18493 0.0
C497 C 0.31337 0.58387 0.15067 0.0
C498 C 0.47703 0.53227 0.1738 0.0
C499 C 0.46259 0.54827 0.17883 0.0
C500 C 0.44615 0.59857 0.15856 0.0
C501 C 0.35414 0.57892 0.16649 0.0
C502 C 0.39139 0.58881 0.16986 0.0
C503 C 0.47597 0.57817 0.17254 0.0
C504 C 0.45257 0.589 0.173 0.0
H505 H 0.26571 0.51299 0.17002 0.0
H506 H 0.32698 0.53459 0.17936 0.0
H507 H 0.40981 0.60289 0.14521 0.0
H508 H 0.54347 0.58854 0.14903 0.0
H509 H 0.5187 0.61686 0.15807 0.0
C510 C 0.69115 0.13134 0.48989 0.0
C511 C 0.65741 0.12215 0.48374 0.0
C512 C 0.72256 0.1634 0.4895 0.0
C513 C 0.75276 0.24695 0.48489 0.0
H514 H 0.84428 0.26447 0.47156 0.0
C515 C 0.87087 0.36739 0.4589 0.0
C516 C 0.90723 0.37931 0.46188 0.0
C517 C 0.84177 0.33778 0.46469 0.0
C518 C 0.81916 0.2601 0.47561 0.0
H519 H 0.63042 0.13984 0.47252 0.0
H520 H 0.68494 0.19532 0.47171 0.0
H521 H 0.79088 0.20913 0.47531 0.0
H522 H 0.94176 0.37019 0.47379 0.0
H523 H 0.89069 0.31817 0.48411 0.0
H524 H 0.78079 0.29784 0.48482 0.0
C525 C 0.68717 0.17791 0.47703 0.0
C526 C 0.78843 0.22828 0.47773 0.0
C527 C 0.65585 0.14592 0.47738 0.0
C528 C 0.91397 0.36168 0.47147 0.0
C529 C 0.88473 0.33176 0.47719 0.0
C530 C 0.78343 0.27872 0.48276 0.0
C531 C 0.72103 0.18713 0.48302 0.0
C532 C 0.7546 0.2212 0.48209 0.0
C533 C 0.84822 0.3191 0.47354 0.0
C534 C 0.81689 0.28572 0.47778 0.0
H535 H 0.69341 0.11374 0.49492 0.0
H536 H 0.74803 0.16962 0.49439 0.0
H537 H 0.72744 0.24255 0.48861 0.0
H538 H 0.86493 0.38043 0.45144 0.0
H539 H 0.81417 0.32879 0.46147 0.0
C540 C 0.60815 0.73382 0.82794 0.0
C541 C 0.5834 0.70177 0.822 0.0
C542 C 0.60216 0.75651 0.8249 0.0
C543 C 0.5548 0.77192 0.79567 0.0
H544 H 0.5741 0.83727 0.82762 0.0
C545 C 0.52341 0.85913 0.78066 0.0
C546 C 0.54993 0.89171 0.78518 0.0
C547 C 0.52495 0.83551 0.78691 0.0
C548 C 0.56887 0.81933 0.81853 0.0
H549 H 0.53202 0.66818 0.80888 0.0
H550 H 0.5217 0.70772 0.80353 0.0
H551 H 0.58189 0.79686 0.83519 0.0
H552 H 0.59796 0.92503 0.80032 0.0
H553 H 0.60114 0.88374 0.8111 0.0
H554 H 0.54254 0.79448 0.7789 0.0
C555 C 0.54608 0.71545 0.8103 0.0
C556 C 0.57331 0.79618 0.82287 0.0
C557 C 0.55202 0.69279 0.81335 0.0
C558 C 0.57705 0.90005 0.79671 0.0
C559 C 0.57881 0.87637 0.80288 0.0
C560 C 0.55052 0.79505 0.79132 0.0
C561 C 0.57133 0.74768 0.81583 0.0
C562 C 0.56624 0.77216 0.81148 0.0
C563 C 0.55331 0.84388 0.79771 0.0
C564 C 0.55737 0.81902 0.80268 0.0
H565 H 0.63279 0.74164 0.8345 0.0
H566 H 0.62233 0.7812 0.8292 0.0
H567 H 0.54988 0.75421 0.7865 0.0
H568 H 0.50187 0.85199 0.77197 0.0
H569 H 0.50426 0.81067 0.78299 0.0
C570 C 0.83184 0.47297 0.19269 0.0
C571 C 0.84783 0.45728 0.18991 0.0
C572 C 0.79441 0.45648 0.18999 0.0
C573 C 0.7056 0.37746 0.18049 0.0
H574 H 0.69602 0.42611 0.14948 0.0
C575 C 0.57251 0.35138 0.15227 0.0
C576 C 0.5751 0.35839 0.13573 0.0
C577 C 0.60179 0.35536 0.16035 0.0
C578 C 0.69831 0.41219 0.15808 0.0
H579 H 0.83674 0.41128 0.184 0.0
H580 H 0.77134 0.38259 0.17901 0.0
H581 H 0.75418 0.45081 0.16343 0.0
H582 H 0.60853 0.37098 0.1143 0.0
H583 H 0.65887 0.37725 0.1283 0.0
H584 H 0.64916 0.33868 0.17485 0.0
C585 C 0.78769 0.40757 0.18325 0.0
C586 C 0.73142 0.42649 0.16626 0.0
C587 C 0.82516 0.42408 0.18593 0.0
C588 C 0.60542 0.36532 0.127 0.0
C589 C 0.63451 0.36923 0.13505 0.0
C590 C 0.67201 0.36319 0.17241 0.0
C591 C 0.77235 0.42404 0.18449 0.0
C592 C 0.73561 0.40926 0.17743 0.0
C593 C 0.63384 0.36625 0.15194 0.0
C594 C 0.66846 0.38035 0.16091 0.0
H595 H 0.84858 0.49851 0.19577 0.0
H596 H 0.78309 0.4696 0.19123 0.0
H597 H 0.70824 0.36367 0.18903 0.0
H598 H 0.54917 0.34538 0.15926 0.0
H599 H 0.60063 0.35275 0.17338 0.0
C600 C 0.42538 0.9144 0.47188 0.0
C601 C 0.45734 0.92306 0.47984 0.0
C602 C 0.3933 0.88273 0.47183 0.0
C603 C 0.3585 0.79849 0.47776 0.0
H604 H 0.2652 0.78386 0.4811 0.0
C605 C 0.22046 0.66961 0.47758 0.0
C606 C 0.19325 0.66465 0.46715 0.0
C607 C 0.25214 0.70088 0.48133 0.0
C608 C 0.29099 0.78748 0.48008 0.0
H609 H 0.48041 0.90483 0.49398 0.0
H610 H 0.42438 0.84965 0.49398 0.0
H611 H 0.32168 0.83859 0.48297 0.0
H612 H 0.17703 0.68857 0.45316 0.0
H613 H 0.23175 0.74272 0.45968 0.0
H614 H 0.32762 0.74728 0.47467 0.0
C615 C 0.42423 0.86734 0.48763 0.0
C616 C 0.32346 0.81894 0.4811 0.0
C617 C 0.45638 0.89909 0.48769 0.0
C618 C 0.19759 0.69161 0.46119 0.0
C619 C 0.22893 0.72272 0.46501 0.0
C620 C 0.32596 0.76696 0.47675 0.0
C621 C 0.39217 0.85874 0.47976 0.0
C622 C 0.35769 0.82497 0.47968 0.0
C623 C 0.25701 0.72783 0.47488 0.0
C624 C 0.29173 0.76106 0.47763 0.0
H625 H 0.42503 0.9321 0.46566 0.0
H626 H 0.36943 0.87698 0.46539 0.0
H627 H 0.38426 0.80214 0.47647 0.0
H628 H 0.21797 0.64928 0.48227 0.0
H629 H 0.27304 0.70395 0.4891 0.0
C630 C 0.50851 0.29818 0.84695 0.0
C631 C 0.53537 0.33081 0.84376 0.0
C632 C 0.51435 0.27527 0.84309 0.0
C633 C 0.5662 0.26057 0.81542 0.0
H634 H 0.54099 0.19375 0.84466 0.0
C635 C 0.59661 0.17104 0.79875 0.0
C636 C 0.57009 0.13875 0.80246 0.0
C637 C 0.59445 0.19503 0.80511 0.0
C638 C 0.5478 0.21201 0.83626 0.0
H639 H 0.59009 0.3649 0.83458 0.0
H640 H 0.5998 0.32484 0.82755 0.0
H641 H 0.53277 0.23432 0.8532 0.0
H642 H 0.52092 0.10629 0.816 0.0
H643 H 0.51652 0.14801 0.82686 0.0
H644 H 0.58021 0.23803 0.79828 0.0
C645 C 0.57411 0.31701 0.8329 0.0
C646 C 0.54318 0.2353 0.84119 0.0
C647 C 0.56844 0.33995 0.83689 0.0
C648 C 0.54193 0.13104 0.81306 0.0
C649 C 0.5395 0.15502 0.8193 0.0
C650 C 0.57049 0.23716 0.81043 0.0
C651 C 0.54702 0.28439 0.83584 0.0
C652 C 0.55237 0.25985 0.83082 0.0
C653 C 0.56541 0.18729 0.81519 0.0
C654 C 0.56141 0.21255 0.82077 0.0
H655 H 0.48251 0.29011 0.852 0.0
H656 H 0.4928 0.25026 0.84534 0.0
H657 H 0.57296 0.27886 0.80704 0.0
H658 H 0.61889 0.17771 0.79076 0.0
H659 H 0.61545 0.21966 0.802 0.0
C660 C 0.54874 0.83877 0.51858 0.0
C661 C 0.57444 0.85976 0.50717 0.0
C662 C 0.54322 0.80999 0.52156 0.0
C663 C 0.55999 0.75251 0.50545 0.0
H664 H 0.55181 0.73199 0.5508 0.0
C665 C 0.57399 0.657 0.52979 0.0
C666 C 0.55186 0.63919 0.54288 0.0
C667 C 0.57365 0.68161 0.52384 0.0
C668 C 0.55349 0.73703 0.53805 0.0
H669 H 0.61394 0.86663 0.48965 0.0
H670 H 0.60456 0.81645 0.49495 0.0
H671 H 0.55699 0.77913 0.54348 0.0
H672 H 0.51002 0.63138 0.55915 0.0
H673 H 0.50906 0.67386 0.54869 0.0
H674 H 0.55705 0.71043 0.50015 0.0
C675 C 0.58829 0.82205 0.50145 0.0
C676 C 0.55645 0.76412 0.53384 0.0
C677 C 0.59371 0.85083 0.49843 0.0
C678 C 0.5279 0.64517 0.54926 0.0
C679 C 0.52745 0.66956 0.5433 0.0
C680 C 0.55706 0.72531 0.50969 0.0
C681 C 0.56339 0.80152 0.51325 0.0
C682 C 0.55965 0.77221 0.5175 0.0
C683 C 0.55107 0.68873 0.53085 0.0
C684 C 0.55367 0.71722 0.52605 0.0
H685 H 0.53296 0.84468 0.52529 0.0
H686 H 0.52324 0.79443 0.53047 0.0
H687 H 0.56211 0.7579 0.49273 0.0
H688 H 0.59282 0.65298 0.52469 0.0
H689 H 0.59228 0.696 0.51427 0.0
C690 C 0.65823 0.4931 0.84704 0.0
C691 C 0.66041 0.52 0.84237 0.0
C692 C 0.6894 0.49338 0.84718 0.0
C693 C 0.79398 0.55009 0.84621 0.0
H694 H 0.78397 0.47137 0.83904 0.0
C695 C 0.9177 0.54651 0.85801 0.0
C696 C 0.92111 0.52451 0.84935 0.0
C697 C 0.88678 0.54607 0.85617 0.0
C698 C 0.78771 0.4938 0.84095 0.0
H699 H 0.69862 0.56839 0.83404 0.0
H700 H 0.75211 0.56883 0.83412 0.0
H701 H 0.73001 0.4702 0.83777 0.0
H702 H 0.89321 0.4849 0.83149 0.0
H703 H 0.83957 0.48432 0.82804 0.0
H704 H 0.85161 0.57383 0.84911 0.0
C705 C 0.7264 0.54742 0.83796 0.0
C706 C 0.75623 0.49308 0.84043 0.0
C707 C 0.69525 0.5471 0.8378 0.0
C708 C 0.89226 0.5025 0.83834 0.0
C709 C 0.86097 0.50192 0.83654 0.0
C710 C 0.82536 0.5508 0.84677 0.0
C711 C 0.72442 0.5206 0.8427 0.0
C712 C 0.75847 0.52121 0.84309 0.0
C713 C 0.85727 0.52355 0.84555 0.0
C714 C 0.82315 0.52268 0.84425 0.0
H715 H 0.63228 0.47163 0.85068 0.0
H716 H 0.68593 0.47218 0.85113 0.0
H717 H 0.79778 0.57247 0.84854 0.0
H718 H 0.93898 0.56407 0.86658 0.0
H719 H 0.88573 0.56304 0.86359 0.0
C720 C 0.19338 0.62234 0.14666 0.0
C721 C 0.16214 0.61408 0.1551 0.0
C722 C 0.22484 0.65438 0.14647 0.0
C723 C 0.25678 0.73856 0.15349 0.0
H724 H 0.35213 0.75819 0.15963 0.0
C725 C 0.38387 0.86489 0.17377 0.0
C726 C 0.41852 0.87612 0.16803 0.0
C727 C 0.35294 0.83369 0.16974 0.0
C728 C 0.32581 0.75317 0.15761 0.0
H729 H 0.13973 0.63354 0.16986 0.0
H730 H 0.19436 0.68911 0.16958 0.0
H731 H 0.29769 0.70222 0.15763 0.0
H732 H 0.44762 0.86368 0.15303 0.0
H733 H 0.39327 0.8089 0.1458 0.0
H734 H 0.28474 0.78943 0.1537 0.0
C735 C 0.19449 0.67085 0.16295 0.0
C736 C 0.29452 0.72101 0.1565 0.0
C737 C 0.16311 0.63885 0.16318 0.0
C738 C 0.42126 0.85576 0.15757 0.0
C739 C 0.39019 0.82429 0.15359 0.0
C740 C 0.28801 0.77066 0.15458 0.0
C741 C 0.22586 0.67909 0.15463 0.0
C742 C 0.25949 0.71326 0.15471 0.0
C743 C 0.3557 0.81268 0.15986 0.0
C744 C 0.32293 0.77846 0.15695 0.0
H745 H 0.19355 0.60413 0.14006 0.0
H746 H 0.24825 0.65982 0.13975 0.0
H747 H 0.2304 0.73356 0.15175 0.0
H748 H 0.38083 0.88005 0.1818 0.0
H749 H 0.32706 0.82564 0.17496 0.0
C750 C 0.50666 0.1871 0.47507 0.0
C751 C 0.53438 0.18385 0.47818 0.0
C752 C 0.51205 0.21603 0.47893 0.0
C753 C 0.56505 0.28687 0.50667 0.0
H754 H 0.53541 0.32462 0.47783 0.0
C755 C 0.59411 0.40787 0.52401 0.0
C756 C 0.56658 0.41114 0.52069 0.0
C757 C 0.5921 0.38185 0.51733 0.0
C758 C 0.54348 0.31423 0.4861 0.0
H759 H 0.59011 0.20918 0.4872 0.0
H760 H 0.5991 0.25931 0.49423 0.0
H761 H 0.52781 0.27562 0.46902 0.0
H762 H 0.51587 0.39032 0.50744 0.0
H763 H 0.51173 0.34428 0.49601 0.0
H764 H 0.57972 0.32458 0.52395 0.0
C765 C 0.57309 0.23931 0.48893 0.0
C766 C 0.53921 0.2862 0.48103 0.0
C767 C 0.56785 0.21051 0.48495 0.0
C768 C 0.5376 0.38847 0.51008 0.0
C769 C 0.53532 0.36214 0.50353 0.0
C770 C 0.569 0.31463 0.5118 0.0
C771 C 0.54514 0.24229 0.48611 0.0
C772 C 0.55003 0.27228 0.49126 0.0
C773 C 0.56221 0.35816 0.50733 0.0
C774 C 0.55838 0.32879 0.50159 0.0
H775 H 0.48035 0.167 0.47008 0.0
H776 H 0.48986 0.21751 0.47676 0.0
H777 H 0.57303 0.27639 0.51494 0.0
H778 H 0.617 0.42527 0.53199 0.0
H779 H 0.61384 0.38013 0.52019 0.0
C780 C 0.46238 0.54173 0.84025 0.0
C781 C 0.46024 0.5148 0.8448 0.0
C782 C 0.43144 0.5418 0.84068 0.0
C783 C 0.32711 0.48622 0.84293 0.0
H784 H 0.33889 0.56503 0.85312 0.0
C785 C 0.19945 0.48501 0.85532 0.0
C786 C 0.20084 0.51243 0.85308 0.0
C787 C 0.23031 0.48536 0.85298 0.0
C788 C 0.33465 0.54268 0.84999 0.0
H789 H 0.42227 0.46662 0.85342 0.0
H790 H 0.36906 0.46667 0.85419 0.0
H791 H 0.39241 0.56559 0.85203 0.0
H792 H 0.2375 0.56214 0.84661 0.0
H793 H 0.29079 0.56265 0.84188 0.0
H794 H 0.26953 0.46327 0.84076 0.0
C795 C 0.39464 0.48791 0.85009 0.0
C796 C 0.36587 0.54301 0.84939 0.0
C797 C 0.42561 0.48792 0.84975 0.0
C798 C 0.23455 0.54014 0.84798 0.0
C799 C 0.26564 0.54055 0.84562 0.0
C800 C 0.29596 0.48591 0.84345 0.0
C801 C 0.39666 0.51485 0.84557 0.0
C802 C 0.36295 0.51473 0.84595 0.0
C803 C 0.26458 0.51331 0.84839 0.0
C804 C 0.29873 0.51407 0.84712 0.0
H805 H 0.48816 0.56303 0.83632 0.0
H806 H 0.43486 0.56306 0.83688 0.0
H807 H 0.3229 0.46385 0.83988 0.0
H808 H 0.17464 0.46347 0.85978 0.0
H809 H 0.22746 0.46383 0.85561 0.0
C810 C 0.96558 0.38794 0.14734 0.0
C811 C 0.96715 0.41414 0.15375 0.0
C812 C 0.9334 0.35628 0.14839 0.0
C813 C 0.84843 0.30927 0.17254 0.0
H814 H 0.81359 0.24225 0.13891 0.0
C815 C 0.70787 0.18862 0.17771 0.0
C816 C 0.70573 0.16078 0.17521 0.0
C817 C 0.73845 0.21837 0.1728 0.0
C818 C 0.82311 0.26068 0.14845 0.0
H819 H 0.93528 0.42744 0.16555 0.0
H820 H 0.87968 0.37304 0.16701 0.0
H821 H 0.86994 0.29647 0.13489 0.0
H822 H 0.73302 0.14187 0.16487 0.0
H823 H 0.78692 0.19421 0.15617 0.0
H824 H 0.80199 0.2739 0.18611 0.0
C825 C 0.90342 0.37657 0.16162 0.0
C826 C 0.85547 0.29175 0.14617 0.0
C827 C 0.93544 0.40797 0.16068 0.0
C828 C 0.73383 0.16294 0.16675 0.0
C829 C 0.76471 0.19292 0.16184 0.0
C830 C 0.81623 0.27847 0.17476 0.0
C831 C 0.90205 0.35015 0.15581 0.0
C832 C 0.86834 0.31659 0.15814 0.0
C833 C 0.76796 0.22119 0.16538 0.0
C834 C 0.80282 0.25379 0.16271 0.0
H835 H 0.98946 0.39178 0.14192 0.0
H836 H 0.93348 0.33659 0.14384 0.0
H837 H 0.85788 0.32734 0.18226 0.0
H838 H 0.68657 0.18759 0.18423 0.0
H839 H 0.73957 0.23945 0.17538 0.0
C840 C 0.06307 0.51245 0.10428 0.0
C841 C 1.03483 0.51125 0.11192 0.0
C842 C 0.06462 0.51127 0.08733 0.0
C843 C 1.00963 0.4827 0.05031 0.0
H844 H 0.09728 0.55236 0.02947 0.0
C845 C 1.01268 0.4984 0.98135 0.0
C846 C 0.04562 0.51248 0.97296 0.0
C847 C 1.01184 0.4967 -0.00176 0.0
C848 C 0.07284 0.53232 0.03502 0.0
H849 H 0.98565 0.50731 0.10796 0.0
H850 H 0.98763 0.50415 0.07818 0.0
H851 H 0.09465 0.5518 0.05906 0.0
H852 H 0.10346 0.53493 0.97596 0.0
H853 H 0.10162 0.5303 0.00531 0.0
H854 H 0.98801 0.46248 0.02647 0.0
C855 C 1.00877 0.50634 0.08535 0.0
C856 C 0.07131 0.53219 0.05199 0.0
C857 C 1.00769 0.50824 0.10233 0.0
C858 C 0.07751 0.52376 0.98193 0.0
C859 C 0.07655 0.52156 -0.00114 0.0
C860 C 1.01138 0.48244 0.03334 0.0
C861 C 1.03748 0.5082 0.07772 0.0
C862 C 0.03953 0.5076 0.05977 0.0
C863 C 0.04376 0.50837 0.00729 0.0
C864 C 0.04282 0.50751 0.02542 0.0
H865 H 0.08445 0.5151 0.11139 0.0
H866 H 0.08696 0.51266 0.08171 0.0
H867 H 0.98498 0.46326 0.05605 0.0
H868 H 0.98731 0.48871 0.9749 0.0
H869 H 0.98611 0.48679 0.00419 0.0
C870 C 0.53879 0.00916 0.42919 0.0
C871 C 0.57257 0.02052 0.43626 0.0
C872 C 0.53562 0.01063 0.41243 0.0
C873 C 0.59003 0.05091 0.37589 0.0
H874 H 0.50693 0.97595 0.35268 0.0
C875 C 0.58489 0.03303 0.30599 0.0
C876 C 0.55122 0.01869 0.29789 0.0
C877 C 0.58707 0.03517 0.32298 0.0
C878 C 0.53004 0.99728 0.35899 0.0
H879 H 0.6296 0.04279 0.43149 0.0
H880 H 0.62407 0.04512 0.40223 0.0
H881 H 0.51131 0.97622 0.38216 0.0
H882 H 0.4937 0.99649 0.30126 0.0
H883 H 0.49751 1.00031 0.33089 0.0
H884 H 0.60892 0.07186 0.35268 0.0
C885 C 0.60008 0.03535 0.4096 0.0
C886 C 0.53254 0.99742 0.3759 0.0
C887 C 0.60321 0.03382 0.42634 0.0
C888 C 0.51993 0.00717 0.30715 0.0
C889 C 0.52211 0.00935 0.32413 0.0
C890 C 0.5875 0.05079 0.35897 0.0
C891 C 0.56621 0.02359 0.40243 0.0
C892 C 0.56272 0.02413 0.38454 0.0
C893 C 0.55563 0.02307 0.33225 0.0
C894 C 0.55762 0.02387 0.3503 0.0
H895 H 0.51477 0.99897 0.43659 0.0
H896 H 0.50925 1.00173 0.40731 0.0
H897 H 0.61334 0.07206 0.38221 0.0
H898 H 0.60941 0.04177 0.29922 0.0
H899 H 0.61322 0.04549 0.32884 0.0
C900 C 0.52268 0.47782 0.78483 0.0
C901 C 0.54997 0.50093 0.79594 0.0
C902 C 0.52866 0.48107 0.76815 0.0
C903 C 0.57817 0.53798 0.73667 0.0
H904 H 0.56234 0.46583 0.71179 0.0
C905 C 0.60281 0.54233 0.6673 0.0
C906 C 0.57875 0.51377 0.65796 0.0
C907 C 0.60199 0.54218 0.6843 0.0
C908 C 0.56638 0.48606 0.71847 0.0
H909 H 0.60453 0.54595 0.7984 0.0
H910 H 0.61456 0.55214 0.769 0.0
H911 H 0.55517 0.46324 0.74115 0.0
H912 H 0.53432 0.46293 0.65895 0.0
H913 H 0.53184 0.46272 0.68846 0.0
H914 H 0.58782 0.56034 0.71399 0.0
C915 C 0.58877 0.53138 0.7733 0.0
C916 C 0.56251 0.4846 0.73531 0.0
C917 C 0.58305 0.52781 0.79006 0.0
C918 C 0.55359 0.48518 0.66589 0.0
C919 C 0.55236 0.48509 0.68283 0.0
C920 C 0.58144 0.53925 0.71974 0.0
C921 C 0.56177 0.50777 0.76224 0.0
C922 C 0.56803 0.51039 0.74453 0.0
C923 C 0.57668 0.51353 0.6923 0.0
C924 C 0.57518 0.51313 0.71039 0.0
H925 H 0.4969 0.45687 0.78902 0.0
H926 H 0.50732 0.46271 0.75982 0.0
H927 H 0.58236 0.5581 0.74355 0.0
H928 H 0.62262 0.56467 0.66146 0.0
H929 H 0.62149 0.56446 0.69114 0.0
C930 C 0.57994 0.04587 0.53578 0.0
C931 C 0.5449 0.02684 0.5285 0.0
C932 C 0.58411 0.04625 0.55261 0.0
C933 C 0.54172 0.99982 0.58858 0.0
H934 H 0.59322 0.08198 0.61242 0.0
C935 C 0.53807 0.00795 0.65856 0.0
C936 C 0.56854 0.03463 0.667 0.0
C937 C 0.53643 0.00658 0.64158 0.0
C938 C 0.57939 0.05885 0.606 0.0
H939 H 0.48691 0.99254 0.53288 0.0
H940 H 0.49432 0.99252 0.56232 0.0
H941 H 0.58889 0.07994 0.58287 0.0
H942 H 0.62167 0.0803 0.66445 0.0
H943 H 0.61977 0.07741 0.6348 0.0
H944 H 0.533 0.97861 0.6115 0.0
C945 C 0.51842 0.00739 0.55502 0.0
C946 C 0.57677 0.05775 0.58906 0.0
C947 C 0.5142 0.00753 0.53824 0.0
C948 C 0.59769 0.05963 0.65818 0.0
C949 C 0.59642 0.058 0.64119 0.0
C950 C 0.54494 1.00094 0.60551 0.0
C951 C 0.55338 0.02705 0.56236 0.0
C952 C 0.5576 0.02821 0.58022 0.0
C953 C 0.56558 0.0316 0.63263 0.0
C954 C 0.56348 0.03045 0.6145 0.0
H955 H 0.60405 0.06095 0.52851 0.0
H956 H 0.61134 0.06147 0.55801 0.0
H957 H 0.52707 0.97677 0.58198 0.0
H958 H 0.51509 0.98851 0.66513 0.0
H959 H 0.51189 0.98616 0.63553 0.0
C960 C 0.60102 0.53778 0.89949 0.0
C961 C 0.57092 0.52689 0.88933 0.0
C962 C 0.5958 0.52857 0.9156 0.0
C963 C 0.57956 0.52281 0.95143 0.0
H964 H 0.49304 0.44006 0.96387 0.0
C965 C 0.53626 0.49847 0.01795 0.0
C966 C 0.51956 0.46755 0.02371 0.0
C967 C 0.54323 0.50423 0.00146 0.0
C968 C 0.51764 0.4631 0.96063 0.0
H969 H 0.51181 0.49779 0.88788 0.0
H970 H 0.50261 0.48284 0.91613 0.0
H971 H 0.50464 0.45188 0.93525 0.0
H972 H 0.49722 0.41839 0.01647 0.0
H973 H 0.51094 0.42878 0.98775 0.0
H974 H 0.59335 0.5336 0.97672 0.0
C975 C 0.53026 0.49769 0.91165 0.0
C976 C 0.52402 0.4701 0.94418 0.0
C977 C 0.5355 0.50649 0.89548 0.0
C978 C 0.51038 0.44256 0.01251 0.0
C979 C 0.51783 0.44845 0.99599 0.0
C980 C 0.57347 0.51564 0.96783 0.0
C981 C 0.56034 0.50867 0.92196 0.0
C982 C 0.55476 0.50026 0.93937 0.0
C983 C 0.53436 0.47939 0.99026 0.0
C984 C 0.54208 0.48593 0.97268 0.0
H985 H 0.62861 0.55324 0.89495 0.0
H986 H 0.61959 0.537 0.92304 0.0
H987 H 0.60334 0.54641 0.94828 0.0
H988 H 0.54444 0.51851 0.02619 0.0
H989 H 0.55536 0.52823 -0.00248 0.0
C990 C 0.06774 0.47822 0.20955 0.0
C991 C 0.07713 0.50408 0.20024 0.0
C992 C 0.06289 0.47898 0.22629 0.0
C993 C 0.04568 0.51915 0.25874 0.0
H994 H 0.08643 0.4898 0.2869 0.0
C995 C 0.06254 0.54465 0.32829 0.0
C996 C 0.05568 0.52025 0.33817 0.0
C997 C 0.06224 0.54111 0.31137 0.0
C998 C 0.07442 0.49766 0.2792 0.0
H999 H 0.089 0.55105 0.20101 0.0
H1000 H 0.08087 0.55258 0.23032 0.0
H1001 H 0.09183 0.48686 0.25755 0.0
H1002 H 0.04252 0.47276 0.33802 0.0
H1003 H 0.04142 0.46637 0.30846 0.0
H1004 H 1.02865 0.53027 0.28046 0.0
C1005 C 0.07668 0.53148 0.22467 0.0
C1006 C 0.07754 0.49599 0.26237 0.0
C1007 C 0.08152 0.5307 0.20792 0.0
C1008 C 0.04766 0.49191 0.33075 0.0
C1009 C 0.04743 0.4884 0.31382 0.0
C1010 C 0.04259 0.52084 0.27559 0.0
C1011 C 0.06745 0.50567 0.23406 0.0
C1012 C 0.06334 0.50684 0.25194 0.0
C1013 C 0.05512 0.51311 0.30395 0.0
C1014 C 0.05707 0.51024 0.28602 0.0
H1015 H 0.06403 0.45733 0.2039 0.0
H1016 H 0.05531 0.45852 0.23312 0.0
H1017 H 1.03397 0.52726 0.25103 0.0
H1018 H 0.06837 0.56661 0.33364 0.0
H1019 H 0.06855 0.5607 0.30412 0.0
loop_
_geom_bond_atom_site_label_1
_geom_bond_atom_site_label_2
_geom_bond_distance
_geom_bond_site_symmetry_2
_ccdc_geom_bond_type
Sm0 C2 2.846 . S
Sm0 O20 2.543 . S
Sm0 O21 2.450 . S
Sm0 O22 2.681 . S
Sm0 O23 2.464 . S
Sm0 O24 2.396 . S
Sm0 O28 2.386 . S
Sm0 O31 2.408 1_455 S
Sm1 C11 2.846 . S
Sm1 O22 2.386 1_655 S
Sm1 O25 2.408 1_655 S
Sm1 O26 2.543 . S
Sm1 O27 2.450 . S
Sm1 O28 2.681 1_655 S
Sm1 O29 2.461 1_655 S
Sm1 O30 2.396 . S
C2 Sm0 2.846 . S
C2 C3 1.506 . S
C2 O20 1.261 . S
C2 O21 1.242 . S
C3 C2 1.506 . S
C3 C4 1.358 . S
C3 C8 1.382 . S
C4 C3 1.358 . S
C4 C5 1.385 . S
C4 H32 0.930 . S
C5 C4 1.385 . S
C5 C6 1.395 . S
C5 H33 0.929 . S
C6 C5 1.395 . S
C6 C7 1.335 . S
C7 C6 1.335 . S
C7 C8 1.398 . S
C7 H34 0.930 . S
C8 C3 1.382 . S
C8 C7 1.398 . S
C8 H35 0.929 . S
C9 O22 1.271 . S
C9 O23 1.251 . S
C10 O24 1.252 . S
C10 O25 1.272 . S
C11 Sm1 2.846 . S
C11 C12 1.506 . S
C11 O26 1.261 . S
C11 O27 1.242 . S
C12 C11 1.506 . S
C12 C13 1.358 . S
C12 C17 1.382 . S
C13 C12 1.358 . S
C13 C14 1.385 . S
C13 H36 0.930 . S
C14 C13 1.385 . S
C14 C15 1.395 . S
C14 H37 0.929 . S
C15 C14 1.395 . S
C15 C16 1.335 . S
C16 C15 1.335 . S
C16 C17 1.398 . S
C16 H38 0.930 . S
C17 C12 1.382 . S
C17 C16 1.398 . S
C17 H39 0.929 . S
C18 O28 1.271 . S
C18 O29 1.265 . S
C19 O30 1.252 . S
C19 O31 1.272 . S
O20 Sm0 2.543 . S
O20 C2 1.261 . S
O21 Sm0 2.450 . S
O21 C2 1.242 . S
O22 Sm0 2.681 . S
O22 Sm1 2.386 1_455 S
O22 C9 1.271 . S
O23 Sm0 2.464 . S
O23 C9 1.251 . S
O24 Sm0 2.396 . S
O24 C10 1.252 . S
O25 Sm1 2.408 1_455 S
O25 C10 1.272 . S
O26 Sm1 2.543 . S
O26 C11 1.261 . S
O27 Sm1 2.450 . S
O27 C11 1.242 . S
O28 Sm0 2.386 . S
O28 Sm1 2.681 1_455 S
O28 C18 1.271 . S
O29 Sm1 2.461 1_455 S
O29 C18 1.265 . S
O30 Sm1 2.396 . S
O30 C19 1.252 . S
O31 Sm0 2.408 1_655 S
O31 C19 1.272 . S
H32 C4 0.930 . S
H33 C5 0.929 . S
H34 C7 0.930 . S
H35 C8 0.929 . S
H36 C13 0.930 . S
H37 C14 0.929 . S
H38 C16 0.930 . S
H39 C17 0.929 . S
Sm40 C42 2.846 . S
Sm40 O60 2.543 . S
Sm40 O61 2.450 . S
Sm40 O62 2.681 1_565 S
Sm40 O63 2.464 . S
Sm40 O64 2.396 . S
Sm40 O68 2.375 1_565 S
Sm40 O71 2.408 1_565 S
Sm41 C51 2.846 . S
Sm41 O62 2.386 . S
Sm41 O65 2.408 1_545 S
Sm41 O66 2.543 . S
Sm41 O67 2.450 . S
Sm41 O68 2.698 . S
Sm41 O69 2.464 . S
Sm41 O70 2.396 . S
C42 Sm40 2.846 . S
C42 C43 1.506 . S
C42 O60 1.261 . S
C42 O61 1.242 . S
C43 C42 1.506 . S
C43 C44 1.358 . S
C43 C48 1.382 . S
C44 C43 1.358 . S
C44 C45 1.385 . S
C44 H72 0.930 . S
C45 C44 1.385 . S
C45 C46 1.395 . S
C45 H73 0.929 . S
C46 C45 1.395 . S
C46 C47 1.335 . S
C47 C46 1.335 . S
C47 C48 1.398 . S
C47 H74 0.930 . S
C48 C43 1.382 . S
C48 C47 1.398 . S
C48 H75 0.929 . S
C49 O62 1.271 . S
C49 O63 1.251 1_545 S
C50 O64 1.252 . S
C50 O65 1.272 . S
C51 Sm41 2.846 . S
C51 C52 1.506 . S
C51 O66 1.261 . S
C51 O67 1.242 . S
C52 C51 1.506 . S
C52 C53 1.358 . S
C52 C57 1.382 . S
C53 C52 1.358 . S
C53 C54 1.385 . S
C53 H76 0.930 . S
C54 C53 1.385 . S
C54 C55 1.395 . S
C54 H77 0.929 . S
C55 C54 1.395 . S
C55 C56 1.335 . S
C56 C55 1.335 . S
C56 C57 1.398 . S
C56 H78 0.930 . S
C57 C52 1.382 . S
C57 C56 1.398 . S
C57 H79 0.929 . S
C58 O68 1.281 . S
C58 O69 1.251 . S
C59 O70 1.252 . S
C59 O71 1.272 . S
O60 Sm40 2.543 . S
O60 C42 1.261 . S
O61 Sm40 2.450 . S
O61 C42 1.242 . S
O62 Sm40 2.681 1_545 S
O62 Sm41 2.386 . S
O62 C49 1.271 . S
O63 Sm40 2.464 . S
O63 C49 1.251 1_565 S
O64 Sm40 2.396 . S
O64 C50 1.252 . S
O65 Sm41 2.408 1_565 S
O65 C50 1.272 . S
O66 Sm41 2.543 . S
O66 C51 1.261 . S
O67 Sm41 2.450 . S
O67 C51 1.242 . S
O68 Sm40 2.375 1_545 S
O68 Sm41 2.698 . S
O68 C58 1.281 . S
O69 Sm41 2.464 . S
O69 C58 1.251 . S
O70 Sm41 2.396 . S
O70 C59 1.252 . S
O71 Sm40 2.408 1_545 S
O71 C59 1.272 . S
H72 C44 0.930 . S
H73 C45 0.929 . S
H74 C47 0.930 . S
H75 C48 0.929 . S
H76 C53 0.930 . S
H77 C54 0.929 . S
H78 C56 0.930 . S
H79 C57 0.929 . S
Sm80 C82 2.846 . S
Sm80 O100 2.543 . S
Sm80 O101 2.450 . S
Sm80 O102 2.681 . S
Sm80 O103 2.464 . S
Sm80 O104 2.396 . S
Sm80 O108 2.386 . S
Sm80 O111 2.408 . S
Sm81 C91 2.846 . S
Sm81 O102 2.386 . S
Sm81 O105 2.408 . S
Sm81 O106 2.543 . S
Sm81 O107 2.450 . S
Sm81 O108 2.681 . S
Sm81 O109 2.464 . S
Sm81 O110 2.396 . S
C82 Sm80 2.846 . S
C82 C83 1.506 . S
C82 O100 1.261 . S
C82 O101 1.242 . S
C83 C82 1.506 . S
C83 C84 1.358 . S
C83 C88 1.382 . S
C84 C83 1.358 . S
C84 C85 1.385 . S
C84 H112 0.930 . S
C85 C84 1.385 . S
C85 C86 1.395 . S
C85 H113 0.929 . S
C86 C85 1.395 . S
C86 C87 1.335 . S
C87 C86 1.335 . S
C87 C88 1.398 . S
C87 H114 0.930 . S
C88 C83 1.382 . S
C88 C87 1.398 . S
C88 H115 0.929 . S
C89 O102 1.271 . S
C89 O103 1.251 . S
C90 O104 1.252 . S
C90 O105 1.272 . S
C91 Sm81 2.846 . S
C91 C92 1.506 . S
C91 O106 1.261 . S
C91 O107 1.242 . S
C92 C91 1.506 . S
C92 C93 1.358 . S
C92 C97 1.382 . S
C93 C92 1.358 . S
C93 C94 1.385 . S
C93 H116 0.930 . S
C94 C93 1.385 . S
C94 C95 1.395 . S
C94 H117 0.929 . S
C95 C94 1.395 . S
C95 C96 1.335 . S
C96 C95 1.335 . S
C96 C97 1.398 . S
C96 H118 0.930 . S
C97 C92 1.382 . S
C97 C96 1.398 . S
C97 H119 0.929 . S
C98 O108 1.271 . S
C98 O109 1.251 . S
C99 O110 1.252 . S
C99 O111 1.272 . S
O100 Sm80 2.543 . S
O100 C82 1.261 . S
O101 Sm80 2.450 . S
O101 C82 1.242 . S
O102 Sm80 2.681 . S
O102 Sm81 2.386 . S
O102 C89 1.271 . S
O103 Sm80 2.464 . S
O103 C89 1.251 . S
O104 Sm80 2.396 . S
O104 C90 1.252 . S
O105 Sm81 2.408 . S
O105 C90 1.272 . S
O106 Sm81 2.543 . S
O106 C91 1.261 . S
O107 Sm81 2.450 . S
O107 C91 1.242 . S
O108 Sm80 2.386 . S
O108 Sm81 2.681 . S
O108 C98 1.271 . S
O109 Sm81 2.464 . S
O109 C98 1.251 . S
O110 Sm81 2.396 . S
O110 C99 1.252 . S
O111 Sm80 2.408 . S
O111 C99 1.272 . S
H112 C84 0.930 . S
H113 C85 0.929 . S
H114 C87 0.930 . S
H115 C88 0.929 . S
H116 C93 0.930 . S
H117 C94 0.929 . S
H118 C96 0.930 . S
H119 C97 0.929 . S
C120 C121 1.391 . S
C120 C124 1.391 . S
C120 H162 0.948 . S
C121 C120 1.391 . S
C121 C122 1.391 . S
C122 C121 1.391 . S
C122 H178 0.947 . S
C122 C179 1.392 . S
C123 C124 1.391 . S
C123 C127 1.397 . S
C123 C179 1.419 . S
C124 C120 1.391 . S
C124 C123 1.391 . S
C124 C125 1.399 . S
C125 C124 1.399 . S
C125 C128 1.396 . S
C125 C137 1.453 . S
C125 C138 1.684 . S
H126 C150 0.948 . S
C127 C123 1.397 . S
C127 C128 1.394 . S
C127 C146 1.723 . S
C128 C125 1.396 . S
C128 C127 1.394 . S
C128 C158 1.723 1_545 S
H129 C152 0.947 . S
H130 C153 0.948 . S
H131 C159 0.982 . S
H132 C160 0.979 . S
H133 C160 0.980 . S
H134 C160 0.983 . S
H135 C159 0.979 . S
H136 C159 0.977 . S
C137 C125 1.453 . S
C137 H166 0.982 . S
C137 H167 0.979 . S
C137 H168 0.961 1_545 S
C138 C125 1.684 . S
C138 H163 0.979 . S
C138 H164 0.980 . S
C138 H165 0.983 . S
C139 C140 1.391 . S
C139 C144 1.391 . S
C139 H169 0.948 . S
C140 C139 1.391 . S
C140 C141 1.391 1_545 S
C141 C140 1.391 1_565 S
C141 C142 1.392 . S
C141 H170 0.947 . S
C142 C141 1.392 . S
C142 C143 1.419 1_565 S
C142 H171 0.948 . S
C143 C142 1.419 1_545 S
C143 C144 1.391 . S
C143 C147 1.397 . S
C144 C139 1.391 . S
C144 C143 1.391 . S
C144 C145 1.399 . S
C145 C144 1.399 . S
C145 C146 1.396 . S
C145 C148 1.453 . S
C145 C149 1.684 . S
C146 C127 1.723 . S
C146 C145 1.396 . S
C146 C147 1.394 . S
C147 C143 1.397 . S
C147 C146 1.394 . S
C147 C157 1.723 1_545 S
C148 C145 1.453 . S
C148 H172 0.982 . S
C148 H173 0.979 . S
C148 H174 0.977 . S
C149 C145 1.684 . S
C149 H175 0.979 . S
C149 H176 0.980 . S
C149 H177 0.983 . S
C150 H126 0.948 . S
C150 C151 1.391 . S
C150 C155 1.391 . S
C151 C150 1.391 . S
C151 C152 1.391 . S
C152 H129 0.947 . S
C152 C151 1.391 . S
C152 C153 1.392 . S
C153 H130 0.948 . S
C153 C152 1.392 . S
C153 C154 1.419 . S
C154 C153 1.419 . S
C154 C155 1.391 . S
C154 C158 1.397 . S
C155 C150 1.391 . S
C155 C154 1.391 . S
C155 C156 1.399 . S
C156 C155 1.399 . S
C156 C157 1.396 . S
C156 C159 1.453 . S
C156 C160 1.684 . S
C157 C147 1.723 1_565 S
C157 C156 1.396 . S
C157 C158 1.394 . S
C158 C128 1.723 1_565 S
C158 C154 1.397 . S
C158 C157 1.394 . S
C159 H131 0.982 . S
C159 H135 0.979 . S
C159 H136 0.977 . S
C159 C156 1.453 . S
C160 H132 0.979 . S
C160 H133 0.980 . S
C160 H134 0.983 . S
C160 C156 1.684 . S
H161 C179 0.948 . S
H162 C120 0.948 . S
H163 C138 0.979 . S
H164 C138 0.980 . S
H165 C138 0.983 . S
H166 C137 0.982 . S
H167 C137 0.979 . S
H168 C137 0.961 1_565 S
H169 C139 0.948 . S
H170 C141 0.947 . S
H171 C142 0.948 . S
H172 C148 0.982 . S
H173 C148 0.979 . S
H174 C148 0.977 . S
H175 C149 0.979 . S
H176 C149 0.980 . S
H177 C149 0.983 . S
H178 C122 0.947 . S
C179 C122 1.392 . S
C179 C123 1.419 . S
C179 H161 0.948 . S
C180 C181 1.391 . S
C180 C184 1.391 . S
C180 H222 0.948 . S
C181 C180 1.391 . S
C181 C182 1.391 . S
C182 C181 1.391 . S
C182 H238 0.947 . S
C182 C239 1.392 . S
C183 C184 1.391 . S
C183 C187 1.397 . S
C183 C239 1.419 . S
C184 C180 1.391 . S
C184 C183 1.391 . S
C184 C185 1.399 . S
C185 C184 1.399 . S
C185 C188 1.396 . S
C185 C197 1.453 . S
C185 C198 1.684 . S
H186 C210 0.948 . S
C187 C183 1.397 . S
C187 C188 1.394 . S
C187 C206 1.723 . S
C188 C185 1.396 . S
C188 C187 1.394 . S
C188 C218 1.723 . S
H189 C212 0.947 . S
H190 C213 0.948 . S
H191 C219 0.982 . S
H192 C220 0.979 . S
H193 C220 0.980 . S
H194 C220 0.983 . S
H195 C219 0.979 . S
H196 C219 0.977 . S
C197 C185 1.453 . S
C197 H226 0.982 . S
C197 H227 0.979 . S
C197 H228 0.977 . S
C198 C185 1.684 . S
C198 H223 0.979 . S
C198 H224 0.980 . S
C198 H225 0.983 . S
C199 C200 1.391 . S
C199 C204 1.391 . S
C199 H229 0.948 . S
C200 C199 1.391 . S
C200 C201 1.391 . S
C201 C200 1.391 . S
C201 C202 1.392 . S
C201 H230 0.947 . S
C202 C201 1.392 . S
C202 C203 1.419 . S
C202 H231 0.948 . S
C203 C202 1.419 . S
C203 C204 1.391 . S
C203 C207 1.397 . S
C204 C199 1.391 . S
C204 C203 1.391 . S
C204 C205 1.399 . S
C205 C204 1.399 . S
C205 C206 1.396 . S
C205 C208 1.453 . S
C205 C209 1.684 . S
C206 C187 1.723 . S
C206 C205 1.396 . S
C206 C207 1.394 . S
C207 C203 1.397 . S
C207 C206 1.394 . S
C207 C217 1.723 . S
C208 C205 1.453 . S
C208 H232 0.982 . S
C208 H233 0.979 . S
C208 H234 0.977 . S
C209 C205 1.684 . S
C209 H235 0.979 . S
C209 H236 0.980 . S
C209 H237 0.983 . S
C210 H186 0.948 . S
C210 C211 1.391 . S
C210 C215 1.391 . S
C211 C210 1.391 . S
C211 C212 1.391 . S
C212 H189 0.947 . S
C212 C211 1.391 . S
C212 C213 1.392 . S
C213 H190 0.948 . S
C213 C212 1.392 . S
C213 C214 1.419 . S
C214 C213 1.419 . S
C214 C215 1.391 . S
C214 C218 1.397 . S
C215 C210 1.391 . S
C215 C214 1.391 . S
C215 C216 1.399 . S
C216 C215 1.399 . S
C216 C217 1.396 . S
C216 C219 1.453 . S
C216 C220 1.684 . S
C217 C207 1.723 . S
C217 C216 1.396 . S
C217 C218 1.394 . S
C218 C188 1.723 . S
C218 C214 1.397 . S
C218 C217 1.394 . S
C219 H191 0.982 . S
C219 H195 0.979 . S
C219 H196 0.977 . S
C219 C216 1.453 . S
C220 H192 0.979 . S
C220 H193 0.980 . S
C220 H194 0.983 . S
C220 C216 1.684 . S
H221 C239 0.948 . S
H222 C180 0.948 . S
H223 C198 0.979 . S
H224 C198 0.980 . S
H225 C198 0.983 . S
H226 C197 0.982 . S
H227 C197 0.979 . S
H228 C197 0.977 . S
H229 C199 0.948 . S
H230 C201 0.947 . S
H231 C202 0.948 . S
H232 C208 0.982 . S
H233 C208 0.979 . S
H234 C208 0.977 . S
H235 C209 0.979 . S
H236 C209 0.980 . S
H237 C209 0.983 . S
H238 C182 0.947 . S
C239 C182 1.392 . S
C239 C183 1.419 . S
C239 H221 0.948 . S
C240 C241 1.391 . S
C240 C244 1.391 . S
C240 H282 0.948 . S
C241 C240 1.391 . S
C241 C242 1.391 . S
C242 C241 1.391 . S
C242 H298 0.947 . S
C242 C299 1.392 . S
C243 C244 1.391 . S
C243 C247 1.397 . S
C243 C299 1.419 . S
C244 C240 1.391 . S
C244 C243 1.391 . S
C244 C245 1.399 . S
C245 C244 1.399 . S
C245 C248 1.396 . S
C245 C257 1.453 . S
C245 C258 1.684 . S
H246 C270 0.948 . S
C247 C243 1.397 . S
C247 C248 1.394 . S
C247 C266 1.723 . S
C248 C245 1.396 . S
C248 C247 1.394 . S
C248 C278 1.723 . S
H249 C272 0.947 . S
H250 C273 0.914 1_455 S
H251 C279 0.982 . S
H252 C280 0.975 1_455 S
H253 C280 0.980 . S
H254 C280 0.983 . S
H255 C279 0.979 . S
H256 C279 0.977 . S
C257 C245 1.453 . S
C257 H286 0.982 . S
C257 H287 0.979 . S
C257 H288 0.977 . S
C258 C245 1.684 . S
C258 H283 0.979 . S
C258 H284 0.980 . S
C258 H285 0.983 . S
C259 C260 1.391 . S
C259 C264 1.391 . S
C259 H289 0.948 . S
C260 C259 1.391 . S
C260 C261 1.391 . S
C261 C260 1.391 . S
C261 C262 1.392 . S
C261 H290 0.947 1_455 S
C262 C261 1.392 . S
C262 C263 1.419 . S
C262 H291 0.948 1_455 S
C263 C262 1.419 . S
C263 C264 1.391 . S
C263 C267 1.397 . S
C264 C259 1.391 . S
C264 C263 1.391 . S
C264 C265 1.399 . S
C265 C264 1.399 . S
C265 C266 1.396 . S
C265 C268 1.453 . S
C265 C269 1.684 . S
C266 C247 1.723 . S
C266 C265 1.396 . S
C266 C267 1.394 . S
C267 C263 1.397 . S
C267 C266 1.394 . S
C267 C277 1.723 . S
C268 C265 1.453 . S
C268 H292 0.982 . S
C268 H293 0.979 . S
C268 H294 0.977 . S
C269 C265 1.684 . S
C269 H295 0.979 . S
C269 H296 0.980 . S
C269 H297 0.983 . S
C270 H246 0.948 . S
C270 C271 1.391 . S
C270 C275 1.391 . S
C271 C270 1.391 . S
C271 C272 1.391 . S
C272 H249 0.947 . S
C272 C271 1.391 . S
C272 C273 1.430 . S
C273 H250 0.914 1_655 S
C273 C272 1.430 . S
C273 C274 1.416 . S
C274 C273 1.416 . S
C274 C275 1.391 . S
C274 C278 1.397 1_655 S
C275 C270 1.391 . S
C275 C274 1.391 . S
C275 C276 1.399 . S
C276 C275 1.399 . S
C276 C277 1.396 1_655 S
C276 C279 1.453 . S
C276 C280 1.684 . S
C277 C267 1.723 . S
C277 C276 1.396 1_455 S
C277 C278 1.394 . S
C278 C248 1.723 . S
C278 C274 1.397 1_455 S
C278 C277 1.394 . S
C279 H251 0.982 . S
C279 H255 0.979 . S
C279 H256 0.977 . S
C279 C276 1.453 . S
C280 H252 0.975 1_655 S
C280 H253 0.980 . S
C280 H254 0.983 . S
C280 C276 1.684 . S
H281 C299 0.948 . S
H282 C240 0.948 . S
H283 C258 0.979 . S
H284 C258 0.980 . S
H285 C258 0.983 . S
H286 C257 0.982 . S
H287 C257 0.979 . S
H288 C257 0.977 . S
H289 C259 0.948 . S
H290 C261 0.947 1_655 S
H291 C262 0.948 1_655 S
H292 C268 0.982 . S
H293 C268 0.979 . S
H294 C268 0.977 . S
H295 C269 0.979 . S
H296 C269 0.980 . S
H297 C269 0.983 . S
H298 C242 0.947 . S
C299 C242 1.392 . S
C299 C243 1.419 . S
C299 H281 0.948 . S
C300 C301 1.391 . S
C300 C304 1.391 . S
C300 H342 0.948 . S
C301 C300 1.391 . S
C301 C302 1.391 . S
C302 C301 1.391 . S
C302 H358 0.947 . S
C302 C359 1.392 . S
C303 C304 1.391 . S
C303 C307 1.397 . S
C303 C359 1.419 . S
C304 C300 1.391 . S
C304 C303 1.391 . S
C304 C305 1.399 . S
C305 C304 1.399 . S
C305 C308 1.396 . S
C305 C317 1.453 . S
C305 C318 1.684 . S
H306 C330 0.948 . S
C307 C303 1.397 . S
C307 C308 1.394 . S
C307 C326 1.723 . S
C308 C305 1.396 . S
C308 C307 1.394 . S
C308 C338 1.723 1_655 S
H309 C332 0.947 . S
H310 C333 0.948 . S
H311 C339 0.982 . S
H312 C340 0.979 . S
H313 C340 0.980 . S
H314 C340 0.983 . S
H315 C339 0.979 . S
H316 C339 0.977 . S
C317 C305 1.453 . S
C317 H346 0.982 1_655 S
C317 H347 0.979 . S
C317 H348 0.977 1_655 S
C318 C305 1.684 . S
C318 H343 0.979 . S
C318 H344 0.980 . S
C318 H345 0.983 . S
C319 C320 1.391 1_655 S
C319 C324 1.391 . S
C319 H349 0.948 . S
C320 C319 1.391 1_455 S
C320 C321 1.391 . S
C321 C320 1.391 . S
C321 C322 1.392 . S
C321 H350 0.947 . S
C322 C321 1.392 . S
C322 C323 1.419 . S
C322 H351 0.948 . S
C323 C322 1.419 . S
C323 C324 1.391 1_455 S
C323 C327 1.397 . S
C324 C319 1.391 . S
C324 C323 1.391 1_655 S
C324 C325 1.399 . S
C325 C324 1.399 . S
C325 C326 1.396 . S
C325 C328 1.453 . S
C325 C329 1.684 . S
C326 C307 1.723 . S
C326 C325 1.396 . S
C326 C327 1.394 1_655 S
C327 C323 1.397 . S
C327 C326 1.394 1_455 S
C327 C337 1.723 . S
C328 C325 1.453 . S
C328 H352 0.982 . S
C328 H353 0.979 . S
C328 H354 0.977 . S
C329 C325 1.684 . S
C329 H355 0.979 . S
C329 H356 0.980 . S
C329 H357 0.983 . S
C330 H306 0.948 . S
C330 C331 1.391 . S
C330 C335 1.391 . S
C331 C330 1.391 . S
C331 C332 1.391 . S
C332 H309 0.947 . S
C332 C331 1.391 . S
C332 C333 1.392 . S
C333 H310 0.948 . S
C333 C332 1.392 . S
C333 C334 1.419 . S
C334 C333 1.419 . S
C334 C335 1.391 . S
C334 C338 1.397 . S
C335 C330 1.391 . S
C335 C334 1.391 . S
C335 C336 1.399 . S
C336 C335 1.399 . S
C336 C337 1.396 . S
C336 C339 1.453 . S
C336 C340 1.684 . S
C337 C327 1.723 . S
C337 C336 1.396 . S
C337 C338 1.394 . S
C338 C308 1.723 1_455 S
C338 C334 1.397 . S
C338 C337 1.394 . S
C339 H311 0.982 . S
C339 H315 0.979 . S
C339 H316 0.977 . S
C339 C336 1.453 . S
C340 H312 0.979 . S
C340 H313 0.980 . S
C340 H314 0.983 . S
C340 C336 1.684 . S
H341 C359 0.948 . S
H342 C300 0.948 . S
H343 C318 0.979 . S
H344 C318 0.980 . S
H345 C318 0.983 . S
H346 C317 0.982 1_455 S
H347 C317 0.979 . S
H348 C317 0.977 1_455 S
H349 C319 0.948 . S
H350 C321 0.947 . S
H351 C322 0.948 . S
H352 C328 0.982 . S
H353 C328 0.979 . S
H354 C328 0.977 . S
H355 C329 0.979 . S
H356 C329 0.980 . S
H357 C329 0.983 . S
H358 C302 0.947 . S
C359 C302 1.392 . S
C359 C303 1.419 . S
C359 H341 0.948 . S
C360 C361 1.391 . S
C360 C364 1.391 . S
C360 H402 0.948 . S
C361 C360 1.391 . S
C361 C362 1.391 . S
C362 C361 1.391 . S
C362 H418 0.947 . S
C362 C419 1.392 . S
C363 C364 1.391 . S
C363 C367 1.397 . S
C363 C419 1.419 . S
C364 C360 1.391 . S
C364 C363 1.391 . S
C364 C365 1.399 . S
C365 C364 1.399 . S
C365 C368 1.396 . S
C365 C377 1.453 1_565 S
C365 C378 1.684 . S
H366 C390 0.948 . S
C367 C363 1.397 . S
C367 C368 1.394 . S
C367 C386 1.723 . S
C368 C365 1.396 . S
C368 C367 1.394 . S
C368 C398 1.723 1_565 S
H369 C392 0.947 . S
H370 C393 0.948 . S
H371 C399 0.982 . S
H372 C400 0.979 . S
H373 C400 0.980 . S
H374 C400 0.983 . S
H375 C399 0.979 . S
H376 C399 0.977 . S
C377 C365 1.453 1_545 S
C377 H406 0.982 . S
C377 H407 0.979 1_545 S
C377 H408 0.977 . S
C378 C365 1.684 . S
C378 H403 0.979 . S
C378 H404 0.980 . S
C378 H405 0.983 . S
C379 C380 1.378 1_565 S
C379 C384 1.391 . S
C379 H409 0.948 . S
C380 C379 1.378 1_545 S
C380 C381 1.406 . S
C381 C380 1.406 . S
C381 C382 1.392 . S
C381 H410 0.947 . S
C382 C381 1.392 . S
C382 C383 1.419 . S
C382 H411 0.948 . S
C383 C382 1.419 . S
C383 C384 1.391 1_545 S
C383 C387 1.397 . S
C384 C379 1.391 . S
C384 C383 1.391 1_565 S
C384 C385 1.399 . S
C385 C384 1.399 . S
C385 C386 1.396 . S
C385 C388 1.453 . S
C385 C389 1.684 . S
C386 C367 1.723 . S
C386 C385 1.396 . S
C386 C387 1.394 1_565 S
C387 C383 1.397 . S
C387 C386 1.394 1_545 S
C387 C397 1.723 . S
C388 C385 1.453 . S
C388 H412 0.982 . S
C388 H413 0.979 . S
C388 H414 0.977 . S
C389 C385 1.684 . S
C389 H415 0.979 . S
C389 H416 0.980 . S
C389 H417 0.983 . S
C390 H366 0.948 . S
C390 C391 1.391 . S
C390 C395 1.391 . S
C391 C390 1.391 . S
C391 C392 1.391 . S
C392 H369 0.947 . S
C392 C391 1.391 . S
C392 C393 1.392 . S
C393 H370 0.948 . S
C393 C392 1.392 . S
C393 C394 1.419 . S
C394 C393 1.419 . S
C394 C395 1.391 . S
C394 C398 1.397 . S
C395 C390 1.391 . S
C395 C394 1.391 . S
C395 C396 1.399 . S
C396 C395 1.399 . S
C396 C397 1.396 . S
C396 C399 1.453 . S
C396 C400 1.684 . S
C397 C387 1.723 . S
C397 C396 1.396 . S
C397 C398 1.394 . S
C398 C368 1.723 1_545 S
C398 C394 1.397 . S
C398 C397 1.394 . S
C399 H371 0.982 . S
C399 H375 0.979 . S
C399 H376 0.977 . S
C399 C396 1.453 . S
C400 H372 0.979 . S
C400 H373 0.980 . S
C400 H374 0.983 . S
C400 C396 1.684 . S
H401 C419 0.948 . S
H402 C360 0.948 . S
H403 C378 0.979 . S
H404 C378 0.980 . S
H405 C378 0.983 . S
H406 C377 0.982 . S
H407 C377 0.979 1_565 S
H408 C377 0.977 . S
H409 C379 0.948 . S
H410 C381 0.947 . S
H411 C382 0.948 . S
H412 C388 0.982 . S
H413 C388 0.979 . S
H414 C388 0.977 . S
H415 C389 0.979 . S
H416 C389 0.980 . S
H417 C389 0.983 . S
H418 C362 0.947 . S
C419 C362 1.392 . S
C419 C363 1.419 . S
C419 H401 0.948 . S
C420 C421 1.391 . S
C420 C424 1.391 . S
C420 H462 0.948 . S
C421 C420 1.391 . S
C421 C422 1.391 . S
C422 C421 1.391 . S
C422 H478 0.947 . S
C422 C479 1.392 . S
C423 C424 1.391 . S
C423 C427 1.397 . S
C423 C479 1.419 . S
C424 C420 1.391 . S
C424 C423 1.391 . S
C424 C425 1.399 . S
C425 C424 1.399 . S
C425 C428 1.396 . S
C425 C437 1.453 . S
C425 C438 1.684 . S
H426 C450 0.948 . S
C427 C423 1.397 . S
C427 C428 1.394 . S
C427 C446 1.723 . S
C428 C425 1.396 . S
C428 C427 1.394 . S
C428 C458 1.723 . S
H429 C452 0.947 . S
H430 C453 0.948 . S
H431 C459 0.982 . S
H432 C460 0.979 . S
H433 C460 0.980 . S
H434 C460 0.983 . S
H435 C459 0.979 . S
H436 C459 0.977 . S
C437 C425 1.453 . S
C437 H466 0.982 . S
C437 H467 0.979 . S
C437 H468 0.977 . S
C438 C425 1.684 . S
C438 H463 0.979 . S
C438 H464 0.980 . S
C438 H465 0.983 . S
C439 C440 1.391 . S
C439 C444 1.391 . S
C439 H469 0.948 . S
C440 C439 1.391 . S
C440 C441 1.391 . S
C441 C440 1.391 . S
C441 C442 1.392 . S
C441 H470 0.947 . S
C442 C441 1.392 . S
C442 C443 1.419 . S
C442 H471 0.948 . S
C443 C442 1.419 . S
C443 C444 1.391 . S
C443 C447 1.397 . S
C444 C439 1.391 . S
C444 C443 1.391 . S
C444 C445 1.399 . S
C445 C444 1.399 . S
C445 C446 1.396 . S
C445 C448 1.453 . S
C445 C449 1.684 . S
C446 C427 1.723 . S
C446 C445 1.396 . S
C446 C447 1.394 . S
C447 C443 1.397 . S
C447 C446 1.394 . S
C447 C457 1.723 . S
C448 C445 1.453 . S
C448 H472 0.982 . S
C448 H473 0.979 . S
C448 H474 0.977 . S
C449 C445 1.684 . S
C449 H475 0.979 . S
C449 H476 0.980 . S
C449 H477 0.983 . S
C450 H426 0.948 . S
C450 C451 1.391 . S
C450 C455 1.391 . S
C451 C450 1.391 . S
C451 C452 1.391 . S
C452 H429 0.947 . S
C452 C451 1.391 . S
C452 C453 1.392 . S
C453 H430 0.948 . S
C453 C452 1.392 . S
C453 C454 1.419 . S
C454 C453 1.419 . S
C454 C455 1.391 . S
C454 C458 1.397 . S
C455 C450 1.391 . S
C455 C454 1.391 . S
C455 C456 1.399 . S
C456 C455 1.399 . S
C456 C457 1.396 . S
C456 C459 1.453 . S
C456 C460 1.684 . S
C457 C447 1.723 . S
C457 C456 1.396 . S
C457 C458 1.394 . S
C458 C428 1.723 . S
C458 C454 1.397 . S
C458 C457 1.394 . S
C459 H431 0.982 . S
C459 H435 0.979 . S
C459 H436 0.977 . S
C459 C456 1.453 . S
C460 H432 0.979 . S
C460 H433 0.980 . S
C460 H434 0.983 . S
C460 C456 1.684 . S
H461 C479 0.948 . S
H462 C420 0.948 . S
H463 C438 0.979 . S
H464 C438 0.980 . S
H465 C438 0.983 . S
H466 C437 0.982 . S
H467 C437 0.979 . S
H468 C437 0.977 . S
H469 C439 0.948 . S
H470 C441 0.947 . S
H471 C442 0.948 . S
H472 C448 0.982 . S
H473 C448 0.979 . S
H474 C448 0.977 . S
H475 C449 0.979 . S
H476 C449 0.980 . S
H477 C449 0.983 . S
H478 C422 0.947 . S
C479 C422 1.392 . S
C479 C423 1.419 . S
C479 H461 0.948 . S
C480 C481 1.349 . S
C480 C482 1.327 . S
C480 H505 0.950 . S
C481 C480 1.349 . S
C481 C497 1.349 . S
C482 C480 1.327 . S
C482 C501 1.429 . S
C482 H506 0.950 . S
C483 C500 1.574 . S
C483 C502 1.368 . S
C483 H507 0.949 . S
H484 C488 0.949 . S
C485 C486 1.349 . S
C485 C487 1.327 . S
C485 H508 0.950 . S
C486 C485 1.349 . S
C486 C498 1.349 . S
C487 C485 1.327 . S
C487 C503 1.429 . S
C487 H509 0.950 . S
C488 H484 0.949 . S
C488 C496 1.574 . S
C488 C504 1.368 . S
H489 C497 0.950 . S
H490 C495 0.950 . S
H491 C496 0.949 . S
H492 C498 0.950 . S
H493 C499 0.950 . S
H494 C500 0.949 . S
C495 H490 0.950 . S
C495 C497 1.327 . S
C495 C501 1.429 . S
C496 C488 1.574 . S
C496 H491 0.949 . S
C496 C502 1.368 . S
C497 C481 1.349 . S
C497 H489 0.950 . S
C497 C495 1.327 . S
C498 C486 1.349 . S
C498 H492 0.950 . S
C498 C499 1.327 . S
C499 H493 0.950 . S
C499 C498 1.327 . S
C499 C503 1.429 . S
C500 C483 1.574 . S
C500 H494 0.949 . S
C500 C504 1.368 . S
C501 C482 1.429 . S
C501 C495 1.429 . S
C501 C502 1.523 . S
C502 C483 1.368 . S
C502 C496 1.368 . S
C502 C501 1.523 . S
C503 C487 1.429 . S
C503 C499 1.429 . S
C503 C504 1.523 . S
C504 C488 1.368 . S
C504 C500 1.368 . S
C504 C503 1.523 . S
H505 C480 0.950 . S
H506 C482 0.950 . S
H507 C483 0.949 . S
H508 C485 0.950 . S
H509 C487 0.950 . S
C510 C511 1.349 . S
C510 C512 1.327 . S
C510 H535 0.950 . S
C511 C510 1.349 . S
C511 C527 1.349 . S
C512 C510 1.327 . S
C512 C531 1.429 . S
C512 H536 0.950 . S
C513 C530 1.574 . S
C513 C532 1.368 . S
C513 H537 0.949 . S
H514 C518 0.949 . S
C515 C516 1.349 . S
C515 C517 1.327 . S
C515 H538 0.950 . S
C516 C515 1.349 . S
C516 C528 1.349 . S
C517 C515 1.327 . S
C517 C533 1.429 . S
C517 H539 0.950 . S
C518 H514 0.949 . S
C518 C526 1.574 . S
C518 C534 1.368 . S
H519 C527 0.950 . S
H520 C525 0.950 . S
H521 C526 0.949 . S
H522 C528 0.950 . S
H523 C529 0.950 . S
H524 C530 0.949 . S
C525 H520 0.950 . S
C525 C527 1.327 . S
C525 C531 1.429 . S
C526 C518 1.574 . S
C526 H521 0.949 . S
C526 C532 1.368 . S
C527 C511 1.349 . S
C527 H519 0.950 . S
C527 C525 1.327 . S
C528 C516 1.349 . S
C528 H522 0.950 . S
C528 C529 1.327 . S
C529 H523 0.950 . S
C529 C528 1.327 . S
C529 C533 1.429 . S
C530 C513 1.574 . S
C530 H524 0.949 . S
C530 C534 1.368 . S
C531 C512 1.429 . S
C531 C525 1.429 . S
C531 C532 1.523 . S
C532 C513 1.368 . S
C532 C526 1.368 . S
C532 C531 1.523 . S
C533 C517 1.429 . S
C533 C529 1.429 . S
C533 C534 1.523 . S
C534 C518 1.368 . S
C534 C530 1.368 . S
C534 C533 1.523 . S
H535 C510 0.950 . S
H536 C512 0.950 . S
H537 C513 0.949 . S
H538 C515 0.950 . S
H539 C517 0.950 . S
C540 C541 1.349 . S
C540 C542 1.327 . S
C540 H565 0.950 . S
C541 C540 1.349 . S
C541 C557 1.349 . S
C542 C540 1.327 . S
C542 C561 1.429 . S
C542 H566 0.950 . S
C543 C560 1.574 . S
C543 C562 1.368 . S
C543 H567 0.949 . S
H544 C548 0.949 . S
C545 C546 1.349 . S
C545 C547 1.327 . S
C545 H568 0.950 . S
C546 C545 1.349 . S
C546 C558 1.349 . S
C547 C545 1.327 . S
C547 C563 1.429 . S
C547 H569 0.950 . S
C548 H544 0.949 . S
C548 C556 1.574 . S
C548 C564 1.368 . S
H549 C557 0.950 . S
H550 C555 0.950 . S
H551 C556 0.949 . S
H552 C558 0.950 . S
H553 C559 0.950 . S
H554 C560 0.949 . S
C555 H550 0.950 . S
C555 C557 1.327 . S
C555 C561 1.429 . S
C556 C548 1.574 . S
C556 H551 0.949 . S
C556 C562 1.368 . S
C557 C541 1.349 . S
C557 H549 0.950 . S
C557 C555 1.327 . S
C558 C546 1.349 . S
C558 H552 0.950 . S
C558 C559 1.327 . S
C559 H553 0.950 . S
C559 C558 1.327 . S
C559 C563 1.429 . S
C560 C543 1.574 . S
C560 H554 0.949 . S
C560 C564 1.368 . S
C561 C542 1.429 . S
C561 C555 1.429 . S
C561 C562 1.523 . S
C562 C543 1.368 . S
C562 C556 1.368 . S
C562 C561 1.523 . S
C563 C547 1.429 . S
C563 C559 1.429 . S
C563 C564 1.523 . S
C564 C548 1.368 . S
C564 C560 1.368 . S
C564 C563 1.523 . S
H565 C540 0.950 . S
H566 C542 0.950 . S
H567 C543 0.949 . S
H568 C545 0.950 . S
H569 C547 0.950 . S
C570 C571 1.349 . S
C570 C572 1.327 . S
C570 H595 0.950 . S
C571 C570 1.349 . S
C571 C587 1.349 . S
C572 C570 1.327 . S
C572 C591 1.429 . S
C572 H596 0.950 . S
C573 C590 1.574 . S
C573 C592 1.368 . S
C573 H597 0.949 . S
H574 C578 0.949 . S
C575 C576 1.349 . S
C575 C577 1.327 . S
C575 H598 0.950 . S
C576 C575 1.349 . S
C576 C588 1.349 . S
C577 C575 1.327 . S
C577 C593 1.429 . S
C577 H599 0.950 . S
C578 H574 0.949 . S
C578 C586 1.574 . S
C578 C594 1.368 . S
H579 C587 0.950 . S
H580 C585 0.950 . S
H581 C586 0.949 . S
H582 C588 0.950 . S
H583 C589 0.950 . S
H584 C590 0.949 . S
C585 H580 0.950 . S
C585 C587 1.327 . S
C585 C591 1.429 . S
C586 C578 1.574 . S
C586 H581 0.949 . S
C586 C592 1.368 . S
C587 C571 1.349 . S
C587 H579 0.950 . S
C587 C585 1.327 . S
C588 C576 1.349 . S
C588 H582 0.950 . S
C588 C589 1.327 . S
C589 H583 0.950 . S
C589 C588 1.327 . S
C589 C593 1.429 . S
C590 C573 1.574 . S
C590 H584 0.949 . S
C590 C594 1.368 . S
C591 C572 1.429 . S
C591 C585 1.429 . S
C591 C592 1.523 . S
C592 C573 1.368 . S
C592 C586 1.368 . S
C592 C591 1.523 . S
C593 C577 1.429 . S
C593 C589 1.429 . S
C593 C594 1.523 . S
C594 C578 1.368 . S
C594 C590 1.368 . S
C594 C593 1.523 . S
H595 C570 0.950 . S
H596 C572 0.950 . S
H597 C573 0.949 . S
H598 C575 0.950 . S
H599 C577 0.950 . S
C600 C601 1.349 . S
C600 C602 1.327 . S
C600 H625 0.950 . S
C601 C600 1.349 . S
C601 C617 1.349 . S
C602 C600 1.327 . S
C602 C621 1.429 . S
C602 H626 0.950 . S
C603 C620 1.574 . S
C603 C622 1.368 . S
C603 H627 0.949 . S
H604 C608 0.949 . S
C605 C606 1.349 . S
C605 C607 1.327 . S
C605 H628 0.950 . S
C606 C605 1.349 . S
C606 C618 1.349 . S
C607 C605 1.327 . S
C607 C623 1.429 . S
C607 H629 0.950 . S
C608 H604 0.949 . S
C608 C616 1.574 . S
C608 C624 1.368 . S
H609 C617 0.950 . S
H610 C615 0.950 . S
H611 C616 0.949 . S
H612 C618 0.950 . S
H613 C619 0.950 . S
H614 C620 0.949 . S
C615 H610 0.950 . S
C615 C617 1.327 . S
C615 C621 1.429 . S
C616 C608 1.574 . S
C616 H611 0.949 . S
C616 C622 1.368 . S
C617 C601 1.349 . S
C617 H609 0.950 . S
C617 C615 1.327 . S
C618 C606 1.349 . S
C618 H612 0.950 . S
C618 C619 1.327 . S
C619 H613 0.950 . S
C619 C618 1.327 . S
C619 C623 1.429 . S
C620 C603 1.574 . S
C620 H614 0.949 . S
C620 C624 1.368 . S
C621 C602 1.429 . S
C621 C615 1.429 . S
C621 C622 1.523 . S
C622 C603 1.368 . S
C622 C616 1.368 . S
C622 C621 1.523 . S
C623 C607 1.429 . S
C623 C619 1.429 . S
C623 C624 1.523 . S
C624 C608 1.368 . S
C624 C620 1.368 . S
C624 C623 1.523 . S
H625 C600 0.950 . S
H626 C602 0.950 . S
H627 C603 0.949 . S
H628 C605 0.950 . S
H629 C607 0.950 . S
C630 C631 1.349 . S
C630 C632 1.327 . S
C630 H655 0.950 . S
C631 C630 1.349 . S
C631 C647 1.349 . S
C632 C630 1.327 . S
C632 C651 1.429 . S
C632 H656 0.950 . S
C633 C650 1.574 . S
C633 C652 1.368 . S
C633 H657 0.949 . S
H634 C638 0.949 . S
C635 C636 1.349 . S
C635 C637 1.327 . S
C635 H658 0.950 . S
C636 C635 1.349 . S
C636 C648 1.349 . S
C637 C635 1.327 . S
C637 C653 1.429 . S
C637 H659 0.950 . S
C638 H634 0.949 . S
C638 C646 1.574 . S
C638 C654 1.368 . S
H639 C647 0.950 . S
H640 C645 0.950 . S
H641 C646 0.949 . S
H642 C648 0.950 . S
H643 C649 0.950 . S
H644 C650 0.949 . S
C645 H640 0.950 . S
C645 C647 1.327 . S
C645 C651 1.429 . S
C646 C638 1.574 . S
C646 H641 0.949 . S
C646 C652 1.368 . S
C647 C631 1.349 . S
C647 H639 0.950 . S
C647 C645 1.327 . S
C648 C636 1.349 . S
C648 H642 0.950 . S
C648 C649 1.327 . S
C649 H643 0.950 . S
C649 C648 1.327 . S
C649 C653 1.429 . S
C650 C633 1.574 . S
C650 H644 0.949 . S
C650 C654 1.368 . S
C651 C632 1.429 . S
C651 C645 1.429 . S
C651 C652 1.523 . S
C652 C633 1.368 . S
C652 C646 1.368 . S
C652 C651 1.523 . S
C653 C637 1.429 . S
C653 C649 1.429 . S
C653 C654 1.523 . S
C654 C638 1.368 . S
C654 C650 1.368 . S
C654 C653 1.523 . S
H655 C630 0.950 . S
H656 C632 0.950 . S
H657 C633 0.949 . S
H658 C635 0.950 . S
H659 C637 0.950 . S
C660 C661 1.349 . S
C660 C662 1.327 . S
C660 H685 0.950 . S
C661 C660 1.349 . S
C661 C677 1.349 . S
C662 C660 1.327 . S
C662 C681 1.429 . S
C662 H686 0.950 . S
C663 C680 1.574 . S
C663 C682 1.368 . S
C663 H687 0.949 . S
H664 C668 0.949 . S
C665 C666 1.349 . S
C665 C667 1.327 . S
C665 H688 0.950 . S
C666 C665 1.349 . S
C666 C678 1.349 . S
C667 C665 1.327 . S
C667 C683 1.429 . S
C667 H689 0.950 . S
C668 H664 0.949 . S
C668 C676 1.574 . S
C668 C684 1.368 . S
H669 C677 0.950 . S
H670 C675 0.950 . S
H671 C676 0.949 . S
H672 C678 0.950 . S
H673 C679 0.950 . S
H674 C680 0.949 . S
C675 H670 0.950 . S
C675 C677 1.327 . S
C675 C681 1.429 . S
C676 C668 1.574 . S
C676 H671 0.949 . S
C676 C682 1.368 . S
C677 C661 1.349 . S
C677 H669 0.950 . S
C677 C675 1.327 . S
C678 C666 1.349 . S
C678 H672 0.950 . S
C678 C679 1.327 . S
C679 H673 0.950 . S
C679 C678 1.327 . S
C679 C683 1.429 . S
C680 C663 1.574 . S
C680 H674 0.949 . S
C680 C684 1.368 . S
C681 C662 1.429 . S
C681 C675 1.429 . S
C681 C682 1.523 . S
C682 C663 1.368 . S
C682 C676 1.368 . S
C682 C681 1.523 . S
C683 C667 1.429 . S
C683 C679 1.429 . S
C683 C684 1.523 . S
C684 C668 1.368 . S
C684 C680 1.368 . S
C684 C683 1.523 . S
H685 C660 0.950 . S
H686 C662 0.950 . S
H687 C663 0.949 . S
H688 C665 0.950 . S
H689 C667 0.950 . S
C690 C691 1.349 . S
C690 C692 1.327 . S
C690 H715 0.950 . S
C691 C690 1.349 . S
C691 C707 1.349 . S
C692 C690 1.327 . S
C692 C711 1.429 . S
C692 H716 0.950 . S
C693 C710 1.574 . S
C693 C712 1.368 . S
C693 H717 0.949 . S
H694 C698 0.949 . S
C695 C696 1.349 . S
C695 C697 1.327 . S
C695 H718 0.950 . S
C696 C695 1.349 . S
C696 C708 1.349 . S
C697 C695 1.327 . S
C697 C713 1.429 . S
C697 H719 0.950 . S
C698 H694 0.949 . S
C698 C706 1.574 . S
C698 C714 1.368 . S
H699 C707 0.950 . S
H700 C705 0.950 . S
H701 C706 0.949 . S
H702 C708 0.950 . S
H703 C709 0.950 . S
H704 C710 0.949 . S
C705 H700 0.950 . S
C705 C707 1.327 . S
C705 C711 1.429 . S
C706 C698 1.574 . S
C706 H701 0.949 . S
C706 C712 1.368 . S
C707 C691 1.349 . S
C707 H699 0.950 . S
C707 C705 1.327 . S
C708 C696 1.349 . S
C708 H702 0.950 . S
C708 C709 1.327 . S
C709 H703 0.950 . S
C709 C708 1.327 . S
C709 C713 1.429 . S
C710 C693 1.574 . S
C710 H704 0.949 . S
C710 C714 1.368 . S
C711 C692 1.429 . S
C711 C705 1.429 . S
C711 C712 1.523 . S
C712 C693 1.368 . S
C712 C706 1.368 . S
C712 C711 1.523 . S
C713 C697 1.429 . S
C713 C709 1.429 . S
C713 C714 1.523 . S
C714 C698 1.368 . S
C714 C710 1.368 . S
C714 C713 1.523 . S
H715 C690 0.950 . S
H716 C692 0.950 . S
H717 C693 0.949 . S
H718 C695 0.950 . S
H719 C697 0.950 . S
C720 C721 1.349 . S
C720 C722 1.327 . S
C720 H745 0.950 . S
C721 C720 1.349 . S
C721 C737 1.349 . S
C722 C720 1.327 . S
C722 C741 1.429 . S
C722 H746 0.950 . S
C723 C740 1.574 . S
C723 C742 1.368 . S
C723 H747 0.949 . S
H724 C728 0.949 . S
C725 C726 1.349 . S
C725 C727 1.327 . S
C725 H748 0.950 . S
C726 C725 1.349 . S
C726 C738 1.349 . S
C727 C725 1.327 . S
C727 C743 1.429 . S
C727 H749 0.950 . S
C728 H724 0.949 . S
C728 C736 1.574 . S
C728 C744 1.368 . S
H729 C737 0.950 . S
H730 C735 0.950 . S
H731 C736 0.949 . S
H732 C738 0.950 . S
H733 C739 0.950 . S
H734 C740 0.949 . S
C735 H730 0.950 . S
C735 C737 1.327 . S
C735 C741 1.429 . S
C736 C728 1.574 . S
C736 H731 0.949 . S
C736 C742 1.368 . S
C737 C721 1.349 . S
C737 H729 0.950 . S
C737 C735 1.327 . S
C738 C726 1.349 . S
C738 H732 0.950 . S
C738 C739 1.327 . S
C739 H733 0.950 . S
C739 C738 1.327 . S
C739 C743 1.429 . S
C740 C723 1.574 . S
C740 H734 0.949 . S
C740 C744 1.368 . S
C741 C722 1.429 . S
C741 C735 1.429 . S
C741 C742 1.523 . S
C742 C723 1.368 . S
C742 C736 1.368 . S
C742 C741 1.523 . S
C743 C727 1.429 . S
C743 C739 1.429 . S
C743 C744 1.523 . S
C744 C728 1.368 . S
C744 C740 1.368 . S
C744 C743 1.523 . S
H745 C720 0.950 . S
H746 C722 0.950 . S
H747 C723 0.949 . S
H748 C725 0.950 . S
H749 C727 0.950 . S
C750 C751 1.349 . S
C750 C752 1.327 . S
C750 H775 0.950 . S
C751 C750 1.349 . S
C751 C767 1.349 . S
C752 C750 1.327 . S
C752 C771 1.429 . S
C752 H776 0.950 . S
C753 C770 1.574 . S
C753 C772 1.368 . S
C753 H777 0.949 . S
H754 C758 0.949 . S
C755 C756 1.349 . S
C755 C757 1.327 . S
C755 H778 0.950 . S
C756 C755 1.349 . S
C756 C768 1.349 . S
C757 C755 1.327 . S
C757 C773 1.429 . S
C757 H779 0.950 . S
C758 H754 0.949 . S
C758 C766 1.574 . S
C758 C774 1.368 . S
H759 C767 0.950 . S
H760 C765 0.950 . S
H761 C766 0.949 . S
H762 C768 0.950 . S
H763 C769 0.950 . S
H764 C770 0.949 . S
C765 H760 0.950 . S
C765 C767 1.327 . S
C765 C771 1.429 . S
C766 C758 1.574 . S
C766 H761 0.949 . S
C766 C772 1.368 . S
C767 C751 1.349 . S
C767 H759 0.950 . S
C767 C765 1.327 . S
C768 C756 1.349 . S
C768 H762 0.950 . S
C768 C769 1.327 . S
C769 H763 0.950 . S
C769 C768 1.327 . S
C769 C773 1.429 . S
C770 C753 1.574 . S
C770 H764 0.949 . S
C770 C774 1.368 . S
C771 C752 1.429 . S
C771 C765 1.429 . S
C771 C772 1.523 . S
C772 C753 1.368 . S
C772 C766 1.368 . S
C772 C771 1.523 . S
C773 C757 1.429 . S
C773 C769 1.429 . S
C773 C774 1.523 . S
C774 C758 1.368 . S
C774 C770 1.368 . S
C774 C773 1.523 . S
H775 C750 0.950 . S
H776 C752 0.950 . S
H777 C753 0.949 . S
H778 C755 0.950 . S
H779 C757 0.950 . S
C780 C781 1.349 . S
C780 C782 1.327 . S
C780 H805 0.950 . S
C781 C780 1.349 . S
C781 C797 1.349 . S
C782 C780 1.327 . S
C782 C801 1.429 . S
C782 H806 0.950 . S
C783 C800 1.574 . S
C783 C802 1.368 . S
C783 H807 0.949 . S
H784 C788 0.949 . S
C785 C786 1.349 . S
C785 C787 1.327 . S
C785 H808 0.950 . S
C786 C785 1.349 . S
C786 C798 1.349 . S
C787 C785 1.327 . S
C787 C803 1.429 . S
C787 H809 0.950 . S
C788 H784 0.949 . S
C788 C796 1.574 . S
C788 C804 1.368 . S
H789 C797 0.950 . S
H790 C795 0.950 . S
H791 C796 0.949 . S
H792 C798 0.950 . S
H793 C799 0.950 . S
H794 C800 0.949 . S
C795 H790 0.950 . S
C795 C797 1.327 . S
C795 C801 1.429 . S
C796 C788 1.574 . S
C796 H791 0.949 . S
C796 C802 1.368 . S
C797 C781 1.349 . S
C797 H789 0.950 . S
C797 C795 1.327 . S
C798 C786 1.349 . S
C798 H792 0.950 . S
C798 C799 1.327 . S
C799 H793 0.950 . S
C799 C798 1.327 . S
C799 C803 1.429 . S
C800 C783 1.574 . S
C800 H794 0.949 . S
C800 C804 1.368 . S
C801 C782 1.429 . S
C801 C795 1.429 . S
C801 C802 1.523 . S
C802 C783 1.368 . S
C802 C796 1.368 . S
C802 C801 1.523 . S
C803 C787 1.429 . S
C803 C799 1.429 . S
C803 C804 1.523 . S
C804 C788 1.368 . S
C804 C800 1.368 . S
C804 C803 1.523 . S
H805 C780 0.950 . S
H806 C782 0.950 . S
H807 C783 0.949 . S
H808 C785 0.950 . S
H809 C787 0.950 . S
C810 C811 1.349 . S
C810 C812 1.327 . S
C810 H835 0.950 . S
C811 C810 1.349 . S
C811 C827 1.349 . S
C812 C810 1.327 . S
C812 C831 1.429 . S
C812 H836 0.950 . S
C813 C830 1.574 . S
C813 C832 1.368 . S
C813 H837 0.949 . S
H814 C818 0.949 . S
C815 C816 1.349 . S
C815 C817 1.327 . S
C815 H838 0.950 . S
C816 C815 1.349 . S
C816 C828 1.349 . S
C817 C815 1.327 . S
C817 C833 1.429 . S
C817 H839 0.950 . S
C818 H814 0.949 . S
C818 C826 1.574 . S
C818 C834 1.368 . S
H819 C827 0.950 . S
H820 C825 0.950 . S
H821 C826 0.949 . S
H822 C828 0.950 . S
H823 C829 0.950 . S
H824 C830 0.949 . S
C825 H820 0.950 . S
C825 C827 1.327 . S
C825 C831 1.429 . S
C826 C818 1.574 . S
C826 H821 0.949 . S
C826 C832 1.368 . S
C827 C811 1.349 . S
C827 H819 0.950 . S
C827 C825 1.327 . S
C828 C816 1.349 . S
C828 H822 0.950 . S
C828 C829 1.327 . S
C829 H823 0.950 . S
C829 C828 1.327 . S
C829 C833 1.429 . S
C830 C813 1.574 . S
C830 H824 0.949 . S
C830 C834 1.368 . S
C831 C812 1.429 . S
C831 C825 1.429 . S
C831 C832 1.523 . S
C832 C813 1.368 . S
C832 C826 1.368 . S
C832 C831 1.523 . S
C833 C817 1.429 . S
C833 C829 1.429 . S
C833 C834 1.523 . S
C834 C818 1.368 . S
C834 C830 1.368 . S
C834 C833 1.523 . S
H835 C810 0.950 . S
H836 C812 0.950 . S
H837 C813 0.949 . S
H838 C815 0.950 . S
H839 C817 0.950 . S
C840 C841 1.349 . S
C840 C842 1.327 . S
C840 H865 0.950 . S
C841 C840 1.349 . S
C841 C857 1.349 1_455 S
C842 C840 1.327 . S
C842 C861 1.429 . S
C842 H866 0.950 . S
C843 C860 1.574 1_655 S
C843 C862 1.368 1_655 S
C843 H867 0.949 . S
H844 C848 0.949 . S
C845 C846 1.349 . S
C845 C847 1.327 1_556 S
C845 H868 0.950 1_455 S
C846 C845 1.349 . S
C846 C858 1.349 . S
C847 C845 1.327 1_554 S
C847 C863 1.429 . S
C847 H869 0.950 1_455 S
C848 H844 0.949 . S
C848 C856 1.574 . S
C848 C864 1.368 . S
H849 C857 0.950 . S
H850 C855 0.950 . S
H851 C856 0.949 . S
H852 C858 0.950 . S
H853 C859 0.950 . S
H854 C860 0.948 1_655 S
C855 H850 0.950 . S
C855 C857 1.327 . S
C855 C861 1.429 1_655 S
C856 C848 1.574 . S
C856 H851 0.949 . S
C856 C862 1.368 . S
C857 C841 1.349 1_655 S
C857 H849 0.950 . S
C857 C855 1.327 . S
C858 C846 1.349 . S
C858 H852 0.950 . S
C858 C859 1.327 1_556 S
C859 H853 0.950 . S
C859 C858 1.327 1_554 S
C859 C863 1.429 . S
C860 C843 1.574 1_455 S
C860 H854 0.948 1_455 S
C860 C864 1.370 . S
C861 C842 1.429 . S
C861 C855 1.429 1_455 S
C861 C862 1.523 . S
C862 C843 1.368 1_455 S
C862 C856 1.368 . S
C862 C861 1.523 . S
C863 C847 1.429 . S
C863 C859 1.429 . S
C863 C864 1.523 . S
C864 C848 1.368 . S
C864 C860 1.370 . S
C864 C863 1.523 . S
H865 C840 0.950 . S
H866 C842 0.950 . S
H867 C843 0.949 . S
H868 C845 0.950 1_655 S
H869 C847 0.950 1_655 S
C870 C871 1.349 1_565 S
C870 C872 1.327 . S
C870 H895 0.950 . S
C871 C870 1.349 1_545 S
C871 C887 1.349 . S
C872 C870 1.327 . S
C872 C891 1.429 1_565 S
C872 H896 0.950 . S
C873 C890 1.574 . S
C873 C892 1.368 . S
C873 H897 0.949 . S
H874 C878 0.949 . S
C875 C876 1.349 . S
C875 C877 1.327 . S
C875 H898 0.950 . S
C876 C875 1.349 . S
C876 C888 1.349 1_545 S
C877 C875 1.327 . S
C877 C893 1.429 . S
C877 H899 0.950 . S
C878 H874 0.949 . S
C878 C886 1.574 . S
C878 C894 1.368 1_565 S
H879 C887 0.950 . S
H880 C885 0.950 . S
H881 C886 0.949 . S
H882 C888 0.950 . S
H883 C889 0.950 . S
H884 C890 0.949 . S
C885 H880 0.950 . S
C885 C887 1.327 . S
C885 C891 1.429 . S
C886 C878 1.574 . S
C886 H881 0.949 . S
C886 C892 1.368 1_565 S
C887 C871 1.349 . S
C887 H879 0.950 . S
C887 C885 1.327 . S
C888 C876 1.349 1_565 S
C888 H882 0.950 . S
C888 C889 1.327 . S
C889 H883 0.950 . S
C889 C888 1.327 . S
C889 C893 1.429 1_565 S
C890 C873 1.574 . S
C890 H884 0.949 . S
C890 C894 1.368 . S
C891 C872 1.429 1_545 S
C891 C885 1.429 . S
C891 C892 1.523 . S
C892 C873 1.368 . S
C892 C886 1.368 1_545 S
C892 C891 1.523 . S
C893 C877 1.429 . S
C893 C889 1.429 1_545 S
C893 C894 1.523 . S
C894 C878 1.368 1_545 S
C894 C890 1.368 . S
C894 C893 1.523 . S
H895 C870 0.950 . S
H896 C872 0.950 . S
H897 C873 0.949 . S
H898 C875 0.950 . S
H899 C877 0.950 . S
C900 C901 1.349 . S
C900 C902 1.327 . S
C900 H925 0.950 . S
C901 C900 1.349 . S
C901 C917 1.349 . S
C902 C900 1.327 . S
C902 C921 1.429 . S
C902 H926 0.950 . S
C903 C920 1.574 . S
C903 C922 1.368 . S
C903 H927 0.949 . S
H904 C908 0.949 . S
C905 C906 1.349 . S
C905 C907 1.327 . S
C905 H928 0.950 . S
C906 C905 1.349 . S
C906 C918 1.349 . S
C907 C905 1.327 . S
C907 C923 1.429 . S
C907 H929 0.950 . S
C908 H904 0.949 . S
C908 C916 1.574 . S
C908 C924 1.368 . S
H909 C917 0.950 . S
H910 C915 0.950 . S
H911 C916 0.949 . S
H912 C918 0.950 . S
H913 C919 0.950 . S
H914 C920 0.949 . S
C915 H910 0.950 . S
C915 C917 1.327 . S
C915 C921 1.429 . S
C916 C908 1.574 . S
C916 H911 0.949 . S
C916 C922 1.368 . S
C917 C901 1.349 . S
C917 H909 0.950 . S
C917 C915 1.327 . S
C918 C906 1.349 . S
C918 H912 0.950 . S
C918 C919 1.327 . S
C919 H913 0.950 . S
C919 C918 1.327 . S
C919 C923 1.429 . S
C920 C903 1.574 . S
C920 H914 0.949 . S
C920 C924 1.368 . S
C921 C902 1.429 . S
C921 C915 1.429 . S
C921 C922 1.523 . S
C922 C903 1.368 . S
C922 C916 1.368 . S
C922 C921 1.523 . S
C923 C907 1.429 . S
C923 C919 1.429 . S
C923 C924 1.523 . S
C924 C908 1.368 . S
C924 C920 1.368 . S
C924 C923 1.523 . S
H925 C900 0.950 . S
H926 C902 0.950 . S
H927 C903 0.949 . S
H928 C905 0.950 . S
H929 C907 0.950 . S
C930 C931 1.349 . S
C930 C932 1.327 . S
C930 H955 0.950 . S
C931 C930 1.349 . S
C931 C947 1.349 1_545 S
C932 C930 1.327 . S
C932 C951 1.429 . S
C932 H956 0.950 . S
C933 C950 1.574 . S
C933 C952 1.368 1_565 S
C933 H957 0.949 . S
H934 C938 0.949 . S
C935 C936 1.349 . S
C935 C937 1.327 . S
C935 H958 0.950 . S
C936 C935 1.349 . S
C936 C948 1.349 1_565 S
C937 C935 1.327 . S
C937 C953 1.427 . S
C937 H959 0.950 . S
C938 H934 0.949 . S
C938 C946 1.574 . S
C938 C954 1.368 . S
H939 C947 0.950 . S
H940 C945 0.950 . S
H941 C946 0.949 . S
H942 C948 0.950 . S
H943 C949 0.950 . S
H944 C950 0.949 . S
C945 H940 0.950 . S
C945 C947 1.327 . S
C945 C951 1.429 1_565 S
C946 C938 1.574 . S
C946 H941 0.949 . S
C946 C952 1.368 . S
C947 C931 1.349 1_565 S
C947 H939 0.950 . S
C947 C945 1.327 . S
C948 C936 1.349 1_545 S
C948 H942 0.950 . S
C948 C949 1.327 . S
C949 H943 0.950 . S
C949 C948 1.327 . S
C949 C953 1.430 1_545 S
C950 C933 1.574 . S
C950 H944 0.949 . S
C950 C954 1.368 1_565 S
C951 C932 1.429 . S
C951 C945 1.429 1_545 S
C951 C952 1.523 . S
C952 C933 1.368 1_545 S
C952 C946 1.368 . S
C952 C951 1.523 . S
C953 C937 1.427 . S
C953 C949 1.430 1_565 S
C953 C954 1.523 1_565 S
C954 C938 1.368 . S
C954 C950 1.368 1_545 S
C954 C953 1.523 1_545 S
H955 C930 0.950 . S
H956 C932 0.950 . S
H957 C933 0.949 . S
H958 C935 0.950 . S
H959 C937 0.950 . S
C960 C961 1.349 . S
C960 C962 1.327 . S
C960 H985 0.950 . S
C961 C960 1.349 . S
C961 C977 1.349 . S
C962 C960 1.327 . S
C962 C981 1.429 . S
C962 H986 0.950 . S
C963 C980 1.574 . S
C963 C982 1.368 . S
C963 H987 0.949 . S
H964 C968 0.949 . S
C965 C966 1.349 . S
C965 C967 1.327 1_554 S
C965 H988 0.950 . S
C966 C965 1.349 . S
C966 C978 1.349 . S
C967 C965 1.327 1_556 S
C967 C983 1.429 . S
C967 H989 0.950 . S
C968 H964 0.949 . S
C968 C976 1.574 . S
C968 C984 1.368 . S
H969 C977 0.950 . S
H970 C975 0.950 . S
H971 C976 0.949 . S
H972 C978 0.950 . S
H973 C979 0.950 . S
H974 C980 0.949 . S
C975 H970 0.950 . S
C975 C977 1.327 . S
C975 C981 1.429 . S
C976 C968 1.574 . S
C976 H971 0.949 . S
C976 C982 1.368 . S
C977 C961 1.349 . S
C977 H969 0.950 . S
C977 C975 1.327 . S
C978 C966 1.349 . S
C978 H972 0.950 . S
C978 C979 1.327 1_554 S
C979 H973 0.950 . S
C979 C978 1.327 1_556 S
C979 C983 1.429 . S
C980 C963 1.574 . S
C980 H974 0.949 . S
C980 C984 1.368 . S
C981 C962 1.429 . S
C981 C975 1.429 . S
C981 C982 1.523 . S
C982 C963 1.368 . S
C982 C976 1.368 . S
C982 C981 1.523 . S
C983 C967 1.429 . S
C983 C979 1.429 . S
C983 C984 1.523 . S
C984 C968 1.368 . S
C984 C980 1.368 . S
C984 C983 1.523 . S
H985 C960 0.950 . S
H986 C962 0.950 . S
H987 C963 0.949 . S
H988 C965 0.950 . S
H989 C967 0.950 . S
C990 C991 1.349 . S
C990 C992 1.327 . S
C990 H1015 0.950 . S
C991 C990 1.349 . S
C991 C1007 1.349 . S
C992 C990 1.327 . S
C992 C1011 1.429 . S
C992 H1016 0.950 . S
C993 C1010 1.574 . S
C993 C1012 1.368 . S
C993 H1017 0.949 . S
H994 C998 0.949 . S
C995 C996 1.348 . S
C995 C997 1.326 1_655 S
C995 H1018 0.965 . S
C996 C995 1.348 . S
C996 C1008 1.335 1_655 S
C997 C995 1.326 1_455 S
C997 C1013 1.454 . S
C997 H1019 0.948 . S
C998 H994 0.949 . S
C998 C1006 1.574 . S
C998 C1014 1.368 . S
H999 C1007 0.950 . S
H1000 C1005 0.950 . S
H1001 C1006 0.949 . S
H1002 C1008 0.950 . S
H1003 C1009 0.950 . S
H1004 C1010 0.949 . S
C1005 H1000 0.950 . S
C1005 C1007 1.327 . S
C1005 C1011 1.429 . S
C1006 C998 1.574 . S
C1006 H1001 0.949 . S
C1006 C1012 1.368 . S
C1007 C991 1.349 . S
C1007 H999 0.950 . S
C1007 C1005 1.327 . S
C1008 C996 1.335 1_455 S
C1008 H1002 0.950 . S
C1008 C1009 1.327 . S
C1009 H1003 0.950 . S
C1009 C1008 1.327 . S
C1009 C1013 1.429 . S
C1010 C993 1.574 . S
C1010 H1004 0.949 . S
C1010 C1014 1.368 . S
C1011 C992 1.429 . S
C1011 C1005 1.429 . S
C1011 C1012 1.523 . S
C1012 C993 1.368 . S
C1012 C1006 1.368 . S
C1012 C1011 1.523 . S
C1013 C997 1.454 . S
C1013 C1009 1.429 . S
C1013 C1014 1.523 . S
C1014 C998 1.368 . S
C1014 C1010 1.368 . S
C1014 C1013 1.523 . S
H1015 C990 0.950 . S
H1016 C992 0.950 . S
H1017 C993 0.949 . S
H1018 C995 0.965 . S
H1019 C997 0.948 . S
C481 C6 0.447 . S
C486 C451 0.391 . S
C511 C59 1.858 . S
C516 C301 1.740 . S
C541 C86 1.152 . S
C546 C361 1.119 . S
C571 C15 0.341 . S
C576 C421 0.412 . S
C606 C331 1.971 . S
C601 C50 1.955 . S
C636 C391 1.275 . S
C631 C95 1.264 . S
C661 C46 1.154 . S
C666 C181 1.114 . S
C691 C99 3.049 . S
C696 C271 3.044 . S
C721 C10 1.983 . S
C726 C151 2.007 . S
C756 C211 1.257 . S
C751 C55 1.242 . S
C786 C241 2.801 . S
C781 C90 2.925 . S
C811 C19 1.850 . S
C816 C121 1.736 . S
C846 C260 1.735 . S
C841 C18 1.694 . S
C871 C49 1.334 . S
C876 C140 1.355 . S
C901 C98 1.453 . S
C906 C200 1.478 . S
C936 C380 1.459 1_565 S
C931 C58 1.442 . S
C966 C440 1.098 . S
C961 C89 1.088 . S
C991 C9 1.330 . S
C996 C320 1.348 1_655 S
