# Generated by pormake.
# Topology ptr, (4,4)-cn, num edge types: 1
# Building blocks:
#     Node 0, Type 0, BuildingBlock: GALJAG_clean_sbu_0, # of connection points: 4
#     Node 1, Type 0, BuildingBlock: GALJAG_clean_sbu_0, # of connection points: 4
#     Node 2, Type 0, BuildingBlock: GALJAG_clean_sbu_0, # of connection points: 4
#     Node 3, Type 0, BuildingBlock: GALJAG_clean_sbu_0, # of connection points: 4
#     Node 4, Type 0, BuildingBlock: GALJAG_clean_sbu_0, # of connection points: 4
#     Node 5, Type 0, BuildingBlock: GALJAG_clean_sbu_0, # of connection points: 4
#     Node 6, Type 0, BuildingBlock: GALJAG_clean_sbu_0, # of connection points: 4
#     Node 7, Type 0, BuildingBlock: GALJAG_clean_sbu_0, # of connection points: 4
#     Node 8, Type 0, BuildingBlock: GALJAG_clean_sbu_0, # of connection points: 4
#     Node 9, Type 0, BuildingBlock: GALJAG_clean_sbu_0, # of connection points: 4
#     Node 10, Type 0, BuildingBlock: GALJAG_clean_sbu_0, # of connection points: 4
#     Node 11, Type 0, BuildingBlock: GALJAG_clean_sbu_0, # of connection points: 4
#     Node 12, Type 0, BuildingBlock: GALJAG_clean_sbu_0, # of connection points: 4
#     Node 13, Type 0, BuildingBlock: GALJAG_clean_sbu_0, # of connection points: 4
#     Node 14, Type 0, BuildingBlock: GALJAG_clean_sbu_0, # of connection points: 4
#     Node 15, Type 0, BuildingBlock: GALJAG_clean_sbu_0, # of connection points: 4
#     Node 16, Type 0, BuildingBlock: GALJAG_clean_sbu_0, # of connection points: 4
#     Node 17, Type 0, BuildingBlock: GALJAG_clean_sbu_0, # of connection points: 4
#     Node 18, Type 1, BuildingBlock: AZAVOO_clean_linker_0, # of connection points: 4
#     Node 19, Type 1, BuildingBlock: AZAVOO_clean_linker_0, # of connection points: 4
#     Node 20, Type 1, BuildingBlock: AZAVOO_clean_linker_0, # of connection points: 4
#     Node 21, Type 1, BuildingBlock: AZAVOO_clean_linker_0, # of connection points: 4
#     Node 22, Type 1, BuildingBlock: AZAVOO_clean_linker_0, # of connection points: 4
#     Node 23, Type 1, BuildingBlock: AZAVOO_clean_linker_0, # of connection points: 4
#     Node 24, Type 1, BuildingBlock: AZAVOO_clean_linker_0, # of connection points: 4
#     Node 25, Type 1, BuildingBlock: AZAVOO_clean_linker_0, # of connection points: 4
#     Node 26, Type 1, BuildingBlock: AZAVOO_clean_linker_0, # of connection points: 4
#     Node 27, Type 1, BuildingBlock: AZAVOO_clean_linker_0, # of connection points: 4
#     Node 28, Type 1, BuildingBlock: AZAVOO_clean_linker_0, # of connection points: 4
#     Node 29, Type 1, BuildingBlock: AZAVOO_clean_linker_0, # of connection points: 4
#     Node 30, Type 1, BuildingBlock: AZAVOO_clean_linker_0, # of connection points: 4
#     Node 31, Type 1, BuildingBlock: AZAVOO_clean_linker_0, # of connection points: 4
#     Node 32, Type 1, BuildingBlock: AZAVOO_clean_linker_0, # of connection points: 4
#     Node 33, Type 1, BuildingBlock: AZAVOO_clean_linker_0, # of connection points: 4
#     Node 34, Type 1, BuildingBlock: AZAVOO_clean_linker_0, # of connection points: 4
#     Node 35, Type 1, BuildingBlock: AZAVOO_clean_linker_0, # of connection points: 4
#     Edge 36, Type (0, 1), BuildingBlock: EZIPEK_clean_linker_0, # of connection points: 2
#     Edge 37, Type (0, 1), BuildingBlock: EZIPEK_clean_linker_0, # of connection points: 2
#     Edge 38, Type (0, 1), BuildingBlock: EZIPEK_clean_linker_0, # of connection points: 2
#     Edge 39, Type (0, 1), BuildingBlock: EZIPEK_clean_linker_0, # of connection points: 2
#     Edge 40, Type (0, 1), BuildingBlock: EZIPEK_clean_linker_0, # of connection points: 2
#     Edge 41, Type (0, 1), BuildingBlock: EZIPEK_clean_linker_0, # of connection points: 2
#     Edge 42, Type (0, 1), BuildingBlock: EZIPEK_clean_linker_0, # of connection points: 2
#     Edge 43, Type (0, 1), BuildingBlock: EZIPEK_clean_linker_0, # of connection points: 2
#     Edge 44, Type (0, 1), BuildingBlock: EZIPEK_clean_linker_0, # of connection points: 2
#     Edge 45, Type (0, 1), BuildingBlock: EZIPEK_clean_linker_0, # of connection points: 2
#     Edge 46, Type (0, 1), BuildingBlock: EZIPEK_clean_linker_0, # of connection points: 2
#     Edge 47, Type (0, 1), BuildingBlock: EZIPEK_clean_linker_0, # of connection points: 2
#     Edge 48, Type (0, 1), BuildingBlock: EZIPEK_clean_linker_0, # of connection points: 2
#     Edge 49, Type (0, 1), BuildingBlock: EZIPEK_clean_linker_0, # of connection points: 2
#     Edge 50, Type (0, 1), BuildingBlock: EZIPEK_clean_linker_0, # of connection points: 2
#     Edge 51, Type (0, 1), BuildingBlock: EZIPEK_clean_linker_0, # of connection points: 2
#     Edge 52, Type (0, 1), BuildingBlock: EZIPEK_clean_linker_0, # of connection points: 2
#     Edge 53, Type (0, 1), BuildingBlock: EZIPEK_clean_linker_0, # of connection points: 2
#     Edge 54, Type (0, 1), BuildingBlock: EZIPEK_clean_linker_0, # of connection points: 2
#     Edge 55, Type (0, 1), BuildingBlock: EZIPEK_clean_linker_0, # of connection points: 2
#     Edge 56, Type (0, 1), BuildingBlock: EZIPEK_clean_linker_0, # of connection points: 2
#     Edge 57, Type (0, 1), BuildingBlock: EZIPEK_clean_linker_0, # of connection points: 2
#     Edge 58, Type (0, 1), BuildingBlock: EZIPEK_clean_linker_0, # of connection points: 2
#     Edge 59, Type (0, 1), BuildingBlock: EZIPEK_clean_linker_0, # of connection points: 2
#     Edge 60, Type (0, 1), BuildingBlock: EZIPEK_clean_linker_0, # of connection points: 2
#     Edge 61, Type (0, 1), BuildingBlock: EZIPEK_clean_linker_0, # of connection points: 2
#     Edge 62, Type (0, 1), BuildingBlock: EZIPEK_clean_linker_0, # of connection points: 2
#     Edge 63, Type (0, 1), BuildingBlock: EZIPEK_clean_linker_0, # of connection points: 2
#     Edge 64, Type (0, 1), BuildingBlock: EZIPEK_clean_linker_0, # of connection points: 2
#     Edge 65, Type (0, 1), BuildingBlock: EZIPEK_clean_linker_0, # of connection points: 2
#     Edge 66, Type (0, 1), BuildingBlock: EZIPEK_clean_linker_0, # of connection points: 2
#     Edge 67, Type (0, 1), BuildingBlock: EZIPEK_clean_linker_0, # of connection points: 2
#     Edge 68, Type (0, 1), BuildingBlock: EZIPEK_clean_linker_0, # of connection points: 2
#     Edge 69, Type (0, 1), BuildingBlock: EZIPEK_clean_linker_0, # of connection points: 2
#     Edge 70, Type (0, 1), BuildingBlock: EZIPEK_clean_linker_0, # of connection points: 2
#     Edge 71, Type (0, 1), BuildingBlock: EZIPEK_clean_linker_0, # of connection points: 2
#     Edge 72, Type (0, 1), BuildingBlock: EZIPEK_clean_linker_0, # of connection points: 2
#     Edge 73, Type (0, 1), BuildingBlock: EZIPEK_clean_linker_0, # of connection points: 2
#     Edge 74, Type (0, 1), BuildingBlock: EZIPEK_clean_linker_0, # of connection points: 2
#     Edge 75, Type (0, 1), BuildingBlock: EZIPEK_clean_linker_0, # of connection points: 2
#     Edge 76, Type (0, 1), BuildingBlock: EZIPEK_clean_linker_0, # of connection points: 2
#     Edge 77, Type (0, 1), BuildingBlock: EZIPEK_clean_linker_0, # of connection points: 2
#     Edge 78, Type (0, 1), BuildingBlock: EZIPEK_clean_linker_0, # of connection points: 2
#     Edge 79, Type (0, 1), BuildingBlock: EZIPEK_clean_linker_0, # of connection points: 2
#     Edge 80, Type (0, 1), BuildingBlock: EZIPEK_clean_linker_0, # of connection points: 2
#     Edge 81, Type (0, 1), BuildingBlock: EZIPEK_clean_linker_0, # of connection points: 2
#     Edge 82, Type (0, 1), BuildingBlock: EZIPEK_clean_linker_0, # of connection points: 2
#     Edge 83, Type (0, 1), BuildingBlock: EZIPEK_clean_linker_0, # of connection points: 2
#     Edge 84, Type (0, 1), BuildingBlock: EZIPEK_clean_linker_0, # of connection points: 2
#     Edge 85, Type (0, 1), BuildingBlock: EZIPEK_clean_linker_0, # of connection points: 2
#     Edge 86, Type (0, 1), BuildingBlock: EZIPEK_clean_linker_0, # of connection points: 2
#     Edge 87, Type (0, 1), BuildingBlock: EZIPEK_clean_linker_0, # of connection points: 2
#     Edge 88, Type (0, 1), BuildingBlock: EZIPEK_clean_linker_0, # of connection points: 2
#     Edge 89, Type (0, 1), BuildingBlock: EZIPEK_clean_linker_0, # of connection points: 2
#     Edge 90, Type (0, 1), BuildingBlock: EZIPEK_clean_linker_0, # of connection points: 2
#     Edge 91, Type (0, 1), BuildingBlock: EZIPEK_clean_linker_0, # of connection points: 2
#     Edge 92, Type (0, 1), BuildingBlock: EZIPEK_clean_linker_0, # of connection points: 2
#     Edge 93, Type (0, 1), BuildingBlock: EZIPEK_clean_linker_0, # of connection points: 2
#     Edge 94, Type (0, 1), BuildingBlock: EZIPEK_clean_linker_0, # of connection points: 2
#     Edge 95, Type (0, 1), BuildingBlock: EZIPEK_clean_linker_0, # of connection points: 2
#     Edge 96, Type (0, 1), BuildingBlock: EZIPEK_clean_linker_0, # of connection points: 2
#     Edge 97, Type (0, 1), BuildingBlock: EZIPEK_clean_linker_0, # of connection points: 2
#     Edge 98, Type (0, 1), BuildingBlock: EZIPEK_clean_linker_0, # of connection points: 2
#     Edge 99, Type (0, 1), BuildingBlock: EZIPEK_clean_linker_0, # of connection points: 2
#     Edge 100, Type (0, 1), BuildingBlock: EZIPEK_clean_linker_0, # of connection points: 2
#     Edge 101, Type (0, 1), BuildingBlock: EZIPEK_clean_linker_0, # of connection points: 2
#     Edge 102, Type (0, 1), BuildingBlock: EZIPEK_clean_linker_0, # of connection points: 2
#     Edge 103, Type (0, 1), BuildingBlock: EZIPEK_clean_linker_0, # of connection points: 2
#     Edge 104, Type (0, 1), BuildingBlock: EZIPEK_clean_linker_0, # of connection points: 2
#     Edge 105, Type (0, 1), BuildingBlock: EZIPEK_clean_linker_0, # of connection points: 2
#     Edge 106, Type (0, 1), BuildingBlock: EZIPEK_clean_linker_0, # of connection points: 2
#     Edge 107, Type (0, 1), BuildingBlock: EZIPEK_clean_linker_0, # of connection points: 2
# Relax obj value: 0.036
# Max RMSD: 0.161
# Mean RMSD: 0.100
data_MOF--net-ptr--node1-GALJAG_clean_sbu_0--node2-AZAVOO_clean_linker_0--edge1-EZIPEK_clean_linker_0
_symmetry_space_group_name_H-M    P1
_symmetry_Int_Tables_number       1
_symmetry_cell_setting            triclinic
loop_
_symmetry_equiv_pos_as_xyz
'x, y, z'
_cell_length_a     62.694744
_cell_length_b     61.488708
_cell_length_c     55.927469
_cell_angle_alpha  93.093391
_cell_angle_beta   92.74542
_cell_angle_gamma 120.12901
loop_
_atom_site_label
_atom_site_type_symbol
_atom_site_fract_x
_atom_site_fract_y
_atom_site_fract_z
_atom_type_partial_charge
In0 In 0.00424 0.3647 0.01613 0.0
O1 O 0.97726 0.36806 0.03976 0.0
O2 O 0.01407 0.39951 0.04088 0.0
C3 C 0.97185 0.31896 0.99392 0.0
C4 C 0.0348 0.35463 0.04285 0.0
C5 C 0.01551 0.39585 0.98092 0.0
O6 O 0.96587 0.32957 0.01001 0.0
O7 O 0.99413 0.33116 0.98923 0.0
O8 O 0.03209 0.39539 0.99424 0.0
O9 O 0.99358 0.38068 0.98519 0.0
C10 C 0.99295 0.39012 0.04869 0.0
O11 O 0.03842 0.36048 0.02153 0.0
O12 O 0.01586 0.35378 0.05049 0.0
In13 In 0.62961 0.61785 0.06046 0.0
O14 O 0.6256 0.59015 0.08812 0.0
O15 O 0.59622 0.59766 0.08199 0.0
C16 C 0.66929 0.62415 0.03837 0.0
C17 C 0.64701 0.66254 0.08621 0.0
C18 C 0.59835 0.60089 0.02038 0.0
O19 O 0.6584 0.6066 0.05185 0.0
O20 O 0.66056 0.63856 0.03654 0.0
O21 O 0.6046 0.62165 0.03206 0.0
O22 O 0.60684 0.58815 0.0295 0.0
C23 C 0.60471 0.58622 0.09355 0.0
O24 O 0.62992 0.65452 0.06947 0.0
O25 O 0.65544 0.64813 0.09003 0.0
In26 In 0.38577 0.99785 0.01833 0.0
O27 O 0.3877 0.03518 0.01215 0.0
O28 O 0.3547 0.00102 0.99942 0.0
C29 C 0.41827 0.01013 0.05681 0.0
C30 C 0.40671 0.99309 0.97883 0.0
C31 C 0.34785 0.96322 0.04026 0.0
O32 O 0.41175 0.02524 0.04962 0.0
O33 O 0.40959 0.98959 0.04383 0.0
O34 O 0.35672 0.95684 0.02319 0.0
O35 O 0.35783 0.98663 0.04582 0.0
C36 C 0.36628 0.0248 0.00135 0.0
O37 O 0.3862 0.97547 0.9843 0.0
O38 O 0.41685 0.01251 0.99351 0.0
In39 In 0.00054 0.6359 0.04186 0.0
O40 O 0.02732 0.63374 0.017 0.0
O41 O 0.99101 0.60168 0.01629 0.0
C42 C 0.03141 0.68069 0.06665 0.0
C43 C 0.97092 0.64575 0.01368 0.0
C44 C 0.98916 0.60522 0.07751 0.0
O45 O 0.03893 0.66935 0.0531 0.0
O46 O 0.00827 0.66962 0.06762 0.0
O47 O 0.97341 0.60951 0.06731 0.0
O48 O 0.01028 0.61617 0.06977 0.0
C49 C 0.01191 0.61166 0.00801 0.0
O50 O 0.96291 0.63124 0.03029 0.0
O51 O 0.99377 0.65549 0.01151 0.0
In52 In 0.37194 0.38157 0.00285 0.0
O53 O 0.37589 0.40921 0.97506 0.0
O54 O 0.40463 0.40062 0.98029 0.0
C55 C 0.33379 0.37674 0.02672 0.0
C56 C 0.35252 0.33584 0.97836 0.0
C57 C 0.40388 0.39887 0.04236 0.0
O58 O 0.34333 0.393 0.0117 0.0
O59 O 0.3431 0.36289 0.02917 0.0
O60 O 0.39721 0.37784 0.03098 0.0
O61 O 0.39545 0.41163 0.0332 0.0
C62 C 0.39649 0.41263 0.96923 0.0
O63 O 0.37213 0.34549 0.99222 0.0
O64 O 0.34261 0.34925 0.97671 0.0
In65 In 0.61487 -0.00035 0.04543 0.0
O66 O 0.61777 0.02565 0.07793 0.0
O67 O 0.58502 0.98965 0.07117 0.0
C68 C 0.65479 0.02896 0.02234 0.0
C69 C 0.62795 0.96809 0.06341 0.0
C70 C 0.58211 0.99036 0.00804 0.0
O71 O 0.64698 0.03822 0.03803 0.0
O72 O 0.64294 0.00519 0.01893 0.0
O73 O 0.58367 0.97285 0.01726 0.0
O74 O 0.59581 0.01211 0.01862 0.0
C75 C 0.59702 0.00988 0.08467 0.0
O76 O 0.60983 0.96049 0.04783 0.0
O77 O 0.63943 0.99146 0.06977 0.0
In78 In 0.6686 0.70351 0.35441 0.0
O79 O 0.6524 0.70568 0.38937 0.0
O80 O 0.65713 0.73251 0.36469 0.0
C81 C 0.6354 0.65785 0.33199 0.0
C82 C 0.70197 0.6979 0.3816 0.0
C83 C 0.68785 0.73745 0.32185 0.0
O84 O 0.62902 0.67072 0.34481 0.0
O85 O 0.65834 0.66755 0.33094 0.0
O86 O 0.7006 0.73867 0.34063 0.0
O87 O 0.66587 0.71925 0.31955 0.0
C88 C 0.65077 0.72472 0.38501 0.0
O89 O 0.70277 0.69912 0.35918 0.0
O90 O 0.68486 0.70003 0.39019 0.0
In91 In 0.29677 0.94805 0.39569 0.0
O92 O 0.29444 0.92125 0.42369 0.0
O93 O 0.26409 0.92734 0.41784 0.0
C94 C 0.33495 0.95378 0.37121 0.0
C95 C 0.3145 0.99293 0.42109 0.0
C96 C 0.26388 0.93091 0.35697 0.0
O97 O 0.32467 0.93628 0.38487 0.0
O98 O 0.32651 0.96852 0.37053 0.0
O99 O 0.27035 0.95159 0.36893 0.0
O100 O 0.27293 0.91831 0.36524 0.0
C101 C 0.27342 0.91665 0.42941 0.0
O102 O 0.297 0.98458 0.40476 0.0
O103 O 0.32331 0.97878 0.42466 0.0
In104 In 0.05442 0.33065 0.3522 0.0
O105 O 0.06598 0.37174 0.34813 0.0
O106 O 0.03206 0.34289 0.32946 0.0
C107 C 0.08322 0.33913 0.39301 0.0
C108 C 0.07234 0.3205 0.31287 0.0
C109 C 0.01152 0.29766 0.3691 0.0
O110 O 0.07557 0.35377 0.3874 0.0
O111 O 0.07744 0.3209 0.3776 0.0
O112 O 0.0238 0.29043 0.35721 0.0
O113 O 0.02048 0.32119 0.37193 0.0
C114 C 0.04711 0.36618 0.33428 0.0
O115 O 0.05097 0.3055 0.31884 0.0
O116 O 0.08505 0.33994 0.32729 0.0
In117 In 0.66027 0.96489 0.38165 0.0
O118 O 0.68625 0.96221 0.35585 0.0
O119 O 0.64976 0.93063 0.35574 0.0
C120 C 0.69223 0.00904 0.40683 0.0
C121 C 0.63198 0.9762 0.35297 0.0
C122 C 0.64795 0.93494 0.41799 0.0
O123 O 0.69925 0.99646 0.39427 0.0
O124 O 0.66907 0.99941 0.40662 0.0
O125 O 0.63404 0.94266 0.40978 0.0
O126 O 0.66776 0.94233 0.40805 0.0
C127 C 0.67039 0.94021 0.34697 0.0
O128 O 0.62281 0.95722 0.36507 0.0
O129 O 0.65522 0.9898 0.35597 0.0
In130 In 0.04027 0.72061 0.33634 0.0
O131 O 0.0396 0.74352 0.30573 0.0
O132 O 0.07339 0.74444 0.31589 0.0
C133 C 0.99777 0.70778 0.35662 0.0
C134 C 0.0317 0.67795 0.31162 0.0
C135 C 0.07081 0.74312 0.37655 0.0
O136 O 0.00987 0.72856 0.34761 0.0
O137 O 0.0062 0.69315 0.35398 0.0
O138 O 0.06493 0.7212 0.36804 0.0
O139 O 0.06238 0.75411 0.36417 0.0
C140 C 0.06201 0.75153 0.30206 0.0
O141 O 0.04474 0.68619 0.33152 0.0
O142 O 0.02322 0.69139 0.30421 0.0
In143 In 0.28177 0.33312 0.37872 0.0
O144 O 0.27314 0.29261 0.38037 0.0
O145 O 0.30406 0.32205 0.40264 0.0
C146 C 0.25079 0.32806 0.34113 0.0
C147 C 0.26336 0.34058 0.41875 0.0
C148 C 0.32332 0.36282 0.35771 0.0
O149 O 0.25644 0.31142 0.3448 0.0
O150 O 0.25951 0.34637 0.35707 0.0
O151 O 0.31338 0.37199 0.37088 0.0
O152 O 0.31311 0.33913 0.35638 0.0
C153 C 0.29103 0.29877 0.39593 0.0
O154 O 0.2843 0.35705 0.4128 0.0
O155 O 0.25165 0.32111 0.40417 0.0
In156 In 0.33891 0.03535 0.68917 0.0
O157 O 0.37768 0.04642 0.7047 0.0
O158 O 0.34737 0.01277 0.71516 0.0
C159 C 0.35155 0.06689 0.65412 0.0
C160 C 0.32349 0.05623 0.72244 0.0
C161 C 0.30817 0.99056 0.66428 0.0
O162 O 0.36468 0.0578 0.66096 0.0
O163 O 0.33243 0.0604 0.66505 0.0
O164 O 0.30176 0.99903 0.68183 0.0
O165 O 0.33023 0.00442 0.65941 0.0
C166 C 0.37042 0.02782 0.71712 0.0
O167 O 0.34608 0.06499 0.71944 0.0
O168 O 0.30855 0.03717 0.70846 0.0
In169 In 0.96191 0.27765 0.72662 0.0
O170 O 0.95657 0.31142 0.73333 0.0
O171 O 0.98577 0.31114 0.7541 0.0
C172 C 0.93219 0.26378 0.68546 0.0
C173 C 0.94064 0.24729 0.76162 0.0
C174 C 0.99974 0.27682 0.70658 0.0
O175 O 0.95228 0.28453 0.68899 0.0
O176 O 0.92643 0.25065 0.70314 0.0
O177 O 0.9801 0.25678 0.70997 0.0
O178 O 0.00084 0.29695 0.71451 0.0
C179 C 0.97424 0.32254 0.74953 0.0
O180 O 0.96185 0.25267 0.75574 0.0
O181 O 0.9303 0.25682 0.74975 0.0
In182 In 0.71716 0.66364 0.68487 0.0
O183 O 0.72215 0.70274 0.6812 0.0
O184 O 0.69009 0.67044 0.66332 0.0
C185 C 0.74735 0.6694 0.72353 0.0
C186 C 0.73823 0.66003 0.64523 0.0
C187 C 0.67633 0.63099 0.7049 0.0
O188 O 0.74069 0.68532 0.71978 0.0
O189 O 0.74018 0.65172 0.70709 0.0
O190 O 0.68745 0.6234 0.69146 0.0
O191 O 0.68533 0.65455 0.70732 0.0
C192 C 0.70221 0.69413 0.6678 0.0
O193 O 0.71699 0.64273 0.64965 0.0
O194 O 0.74899 0.67845 0.66109 0.0
In195 In 0.33108 0.29738 0.71368 0.0
O196 O 0.35964 0.29735 0.68992 0.0
O197 O 0.32342 0.26485 0.68664 0.0
C198 C 0.35993 0.34258 0.73877 0.0
C199 C 0.30058 0.30489 0.68437 0.0
C200 C 0.31947 0.26663 0.74936 0.0
O201 O 0.36861 0.33093 0.72738 0.0
O202 O 0.33663 0.33165 0.73731 0.0
O203 O 0.30438 0.27232 0.74009 0.0
O204 O 0.34014 0.27626 0.74069 0.0
C205 C 0.34484 0.27574 0.67948 0.0
O206 O 0.29265 0.28915 0.69999 0.0
O207 O 0.32378 0.31703 0.68378 0.0
In208 In 0.70734 0.05041 0.6671 0.0
O209 O 0.71122 0.07758 0.63879 0.0
O210 O 0.74039 0.06979 0.64498 0.0
C211 C 0.66997 0.04718 0.69142 0.0
C212 C 0.68766 0.0047 0.64254 0.0
C213 C 0.73924 0.06632 0.70654 0.0
O214 O 0.67996 0.06343 0.67649 0.0
O215 O 0.67833 0.03248 0.6935 0.0
O216 O 0.73137 0.045 0.69525 0.0
O217 O 0.73207 0.08009 0.69731 0.0
C218 C 0.73207 0.08134 0.63341 0.0
O219 O 0.70746 0.01441 0.65609 0.0
O220 O 0.67764 0.01803 0.64121 0.0
In221 In 0.94619 0.66833 0.71091 0.0
O222 O 0.94009 0.62843 0.71092 0.0
O223 O 0.96838 0.65735 0.73549 0.0
C224 C 0.91488 0.66161 0.67303 0.0
C225 C 0.92691 0.67842 0.74911 0.0
C226 C 0.98869 0.69787 0.69117 0.0
O227 O 0.91538 0.64338 0.68187 0.0
O228 O 0.92916 0.68305 0.68406 0.0
O229 O 0.98344 0.70498 0.71052 0.0
O230 O 0.97269 0.67605 0.68217 0.0
C231 C 0.95707 0.63448 0.72738 0.0
O232 O 0.94719 0.69476 0.742 0.0
O233 O 0.91599 0.65754 0.73652 0.0
H234 H 0.16864 0.38683 0.00886 0.0
H235 H 0.31219 0.32513 0.20356 0.0
H236 H 0.1485 0.37175 0.14796 0.0
H237 H 0.11602 0.37482 0.12485 0.0
H238 H 0.08724 0.29918 0.09194 0.0
H239 H 0.11898 0.29566 0.11611 0.0
H240 H 0.18906 0.38382 0.11141 0.0
H241 H 0.18393 0.39275 0.07005 0.0
H242 H 0.15281 0.3137 0.04646 0.0
H243 H 0.15828 0.30515 0.0879 0.0
H244 H 0.23854 0.38623 0.1314 0.0
H245 H 0.27134 0.39726 0.10394 0.0
H246 H 0.23686 0.31902 0.07658 0.0
H247 H 0.20399 0.30806 0.10395 0.0
H248 H 0.24042 0.37553 0.18822 0.0
H249 H 0.2789 0.37912 0.20518 0.0
H250 H 0.25713 0.30596 0.16941 0.0
H251 H 0.21872 0.30265 0.15256 0.0
H252 H 0.19344 0.3639 0.21473 0.0
H253 H 0.20593 0.36136 0.2563 0.0
H254 H 0.1992 0.28945 0.23557 0.0
H255 H 0.1861 0.2917 0.19405 0.0
H256 H 0.15214 0.3639 0.18946 0.0
H257 H 0.12708 0.35782 0.22355 0.0
H258 H 0.10667 0.27945 0.22024 0.0
H259 H 0.13134 0.28539 0.18566 0.0
O260 O 0.17082 0.38294 0.02502 0.0
O261 O 0.1556 0.34225 0.01369 0.0
O262 O 0.30928 0.36335 0.21212 0.0
O263 O 0.29767 0.32468 0.19621 0.0
C264 C 0.15846 0.33367 0.1434 0.0
C265 C 0.17707 0.33863 0.12764 0.0
C266 C 0.19923 0.33985 0.13598 0.0
C267 C 0.20296 0.33619 0.16011 0.0
C268 C 0.18435 0.33103 0.17588 0.0
C269 C 0.16207 0.32982 0.16759 0.0
C270 C 0.13574 0.33328 0.13412 0.0
C271 C 0.13445 0.35539 0.13672 0.0
C272 C 0.11616 0.35725 0.1233 0.0
C273 C 0.09936 0.33728 0.10662 0.0
C274 C 0.09997 0.31474 0.1048 0.0
C275 C 0.11793 0.31268 0.11864 0.0
C276 C 0.17393 0.34386 0.10255 0.0
C277 C 0.18118 0.36851 0.09724 0.0
C278 C 0.17826 0.37353 0.07362 0.0
C279 C 0.16789 0.35392 0.05495 0.0
C280 C 0.16079 0.32922 0.06041 0.0
C281 C 0.16386 0.32427 0.08403 0.0
C282 C 0.21908 0.34636 0.11966 0.0
C283 C 0.23811 0.37152 0.11947 0.0
C284 C 0.25666 0.37778 0.10382 0.0
C285 C 0.25639 0.35892 0.0883 0.0
C286 C 0.23726 0.33377 0.08843 0.0
C287 C 0.21866 0.32753 0.10401 0.0
C288 C 0.22685 0.33883 0.16921 0.0
C289 C 0.24411 0.36039 0.18396 0.0
C290 C 0.26605 0.36238 0.19361 0.0
C291 C 0.27104 0.34276 0.18874 0.0
C292 C 0.25383 0.32136 0.1736 0.0
C293 C 0.23193 0.31945 0.16388 0.0
C294 C 0.18887 0.32797 0.20144 0.0
C295 C 0.19399 0.34728 0.21928 0.0
C296 C 0.20112 0.34586 0.2429 0.0
C297 C 0.20339 0.32519 0.24887 0.0
C298 C 0.19732 0.3054 0.23125 0.0
C299 C 0.19 0.30675 0.20765 0.0
C300 C 0.1431 0.32496 0.18469 0.0
C301 C 0.14143 0.34517 0.19536 0.0
C302 C 0.12743 0.34179 0.21497 0.0
C303 C 0.11513 0.31822 0.22431 0.0
C304 C 0.11598 0.29773 0.21314 0.0
C305 C 0.12987 0.30108 0.19339 0.0
C306 C 0.16438 0.35925 0.02996 0.0
C307 C 0.29387 0.34435 0.1997 0.0
H308 H 0.63676 0.77844 0.02104 0.0
H309 H 0.68502 0.99539 0.20214 0.0
H310 H 0.6419 0.78488 0.15443 0.0
H311 H 0.63618 0.74451 0.13744 0.0
H312 H 0.71538 0.77669 0.14116 0.0
H313 H 0.72112 0.81731 0.15839 0.0
H314 H 0.63641 0.81637 0.11913 0.0
H315 H 0.62914 0.79809 0.07752 0.0
H316 H 0.70755 0.82601 0.07588 0.0
H317 H 0.71455 0.84438 0.11744 0.0
H318 H 0.63265 0.85422 0.14304 0.0
H319 H 0.61992 0.87827 0.11836 0.0
H320 H 0.69502 0.92392 0.10002 0.0
H321 H 0.70771 0.89954 0.12455 0.0
H322 H 0.64409 0.8718 0.19776 0.0
H323 H 0.63806 0.90742 0.20815 0.0
H324 H 0.70926 0.95835 0.18327 0.0
H325 H 0.71498 0.92251 0.17287 0.0
H326 H 0.65804 0.83572 0.23005 0.0
H327 H 0.65664 0.85366 0.26972 0.0
H328 H 0.72101 0.92436 0.25778 0.0
H329 H 0.72364 0.90579 0.21884 0.0
H330 H 0.65551 0.79324 0.2037 0.0
H331 H 0.66125 0.77109 0.23632 0.0
H332 H 0.73771 0.8301 0.24957 0.0
H333 H 0.73197 0.85236 0.21671 0.0
O334 O 0.6401 0.7862 0.03733 0.0
O335 O 0.68054 0.80079 0.03751 0.0
O336 O 0.65101 0.95414 0.21183 0.0
O337 O 0.687 0.981 0.19833 0.0
C338 C 0.68478 0.82882 0.16462 0.0
C339 C 0.68028 0.84177 0.14679 0.0
C340 C 0.67908 0.86347 0.15347 0.0
C341 C 0.68324 0.87285 0.17786 0.0
C342 C 0.68866 0.86046 0.19572 0.0
C343 C 0.68933 0.8383 0.18904 0.0
C344 C 0.6819 0.80388 0.15762 0.0
C345 C 0.65801 0.78308 0.15202 0.0
C346 C 0.65476 0.76017 0.14235 0.0
C347 C 0.67536 0.75782 0.13807 0.0
C348 C 0.69933 0.77831 0.14447 0.0
C349 C 0.70259 0.80131 0.15429 0.0
C350 C 0.67603 0.83194 0.12114 0.0
C351 C 0.65202 0.81883 0.10962 0.0
C352 C 0.64791 0.80827 0.0859 0.0
C353 C 0.66777 0.8106 0.07336 0.0
C354 C 0.69185 0.82392 0.08499 0.0
C355 C 0.69592 0.83447 0.10869 0.0
C356 C 0.67103 0.87517 0.13542 0.0
C357 C 0.6462 0.86896 0.13316 0.0
C358 C 0.63898 0.88263 0.11919 0.0
C359 C 0.65658 0.90279 0.10751 0.0
C360 C 0.68124 0.9083 0.10887 0.0
C361 C 0.68843 0.89445 0.12275 0.0
C362 C 0.68001 0.89464 0.1847 0.0
C363 C 0.65839 0.89069 0.19467 0.0
C364 C 0.65499 0.91105 0.20055 0.0
C365 C 0.67324 0.93576 0.19663 0.0
C366 C 0.69489 0.9396 0.18661 0.0
C367 C 0.69821 0.91919 0.18064 0.0
C368 C 0.69094 0.86944 0.22147 0.0
C369 C 0.6726 0.85464 0.23642 0.0
C370 C 0.67168 0.86491 0.25896 0.0
C371 C 0.68855 0.89037 0.26644 0.0
C372 C 0.70783 0.90469 0.25223 0.0
C373 C 0.70925 0.89414 0.23004 0.0
C374 C 0.69339 0.82428 0.20775 0.0
C375 C 0.67361 0.8012 0.21333 0.0
C376 C 0.67683 0.78867 0.23195 0.0
C377 C 0.69985 0.79907 0.24527 0.0
C378 C 0.71983 0.82189 0.23942 0.0
C379 C 0.71657 0.8345 0.22078 0.0
C380 C 0.6633 0.79896 0.04833 0.0
C381 C 0.66966 0.95744 0.20277 0.0
H382 H 0.16077 0.82886 0.00299 0.0
H383 H 0.34231 0.96453 0.23488 0.0
H384 H 0.13093 0.83763 0.12626 0.0
H385 H 0.09441 0.79959 0.10615 0.0
H386 H 0.11944 0.75304 0.13796 0.0
H387 H 0.15564 0.79092 0.15821 0.0
H388 H 0.18178 0.87677 0.10116 0.0
H389 H 0.17299 0.86304 0.05814 0.0
H390 H 0.1745 0.79536 0.07234 0.0
H391 H 0.18359 0.80948 0.11526 0.0
H392 H 0.23127 0.91957 0.13112 0.0
H393 H 0.26444 0.93902 0.10395 0.0
H394 H 0.26956 0.87158 0.09884 0.0
H395 H 0.23641 0.85213 0.12596 0.0
H396 H 0.22751 0.92725 0.19031 0.0
H397 H 0.26677 0.95999 0.21138 0.0
H398 H 0.29884 0.91322 0.19667 0.0
H399 H 0.25943 0.88057 0.17578 0.0
H400 H 0.17777 0.88988 0.21525 0.0
H401 H 0.18925 0.90484 0.25823 0.0
H402 H 0.24058 0.87754 0.26013 0.0
H403 H 0.22857 0.86188 0.21754 0.0
H404 H 0.13218 0.8489 0.18517 0.0
H405 H 0.10207 0.82689 0.21464 0.0
H406 H 0.14369 0.79198 0.23716 0.0
H407 H 0.17386 0.81417 0.20802 0.0
O408 O 0.16451 0.83406 0.02004 0.0
O409 O 0.16498 0.79934 0.02837 0.0
O410 O 0.31215 0.97861 0.22732 0.0
O411 O 0.32716 0.95264 0.22528 0.0
C412 C 0.16941 0.83959 0.15309 0.0
C413 C 0.18803 0.85228 0.13741 0.0
C414 C 0.21143 0.87255 0.14663 0.0
C415 C 0.216 0.88055 0.17142 0.0
C416 C 0.19729 0.86781 0.18705 0.0
C417 C 0.17406 0.8473 0.17788 0.0
C418 C 0.1458 0.81691 0.14365 0.0
C419 C 0.1282 0.81918 0.12924 0.0
C420 C 0.10752 0.79761 0.11781 0.0
C421 C 0.10447 0.77366 0.12051 0.0
C422 C 0.12157 0.7714 0.13571 0.0
C423 C 0.14209 0.79291 0.14727 0.0
C424 C 0.18314 0.84404 0.11129 0.0
C425 C 0.18028 0.85903 0.09491 0.0
C426 C 0.17522 0.85112 0.07037 0.0
C427 C 0.17295 0.82805 0.06181 0.0
C428 C 0.17608 0.81319 0.07833 0.0
C429 C 0.18119 0.82116 0.10285 0.0
C430 C 0.23149 0.88449 0.13043 0.0
C431 C 0.23956 0.90903 0.12413 0.0
C432 C 0.25832 0.92003 0.10865 0.0
C433 C 0.26923 0.9066 0.09943 0.0
C434 C 0.26121 0.88209 0.10577 0.0
C435 C 0.24241 0.87107 0.12116 0.0
C436 C 0.24066 0.9016 0.18144 0.0
C437 C 0.24315 0.92429 0.19135 0.0
C438 C 0.26557 0.94291 0.20342 0.0
C439 C 0.28588 0.93911 0.20586 0.0
C440 C 0.28352 0.91666 0.19524 0.0
C441 C 0.2611 0.89808 0.18312 0.0
C442 C 0.2026 0.87511 0.21329 0.0
C443 C 0.19117 0.88677 0.22507 0.0
C444 C 0.19766 0.89525 0.24945 0.0
C445 C 0.21583 0.89236 0.26209 0.0
C446 C 0.22658 0.87993 0.25053 0.0
C447 C 0.21985 0.87117 0.22631 0.0
C448 C 0.15512 0.83307 0.19455 0.0
C449 C 0.13465 0.83636 0.19637 0.0
C450 C 0.1176 0.82393 0.21311 0.0
C451 C 0.12076 0.80786 0.22792 0.0
C452 C 0.141 0.80427 0.22578 0.0
C453 C 0.15813 0.81687 0.20924 0.0
C454 C 0.16726 0.81954 0.03577 0.0
C455 C 0.30919 0.95809 0.22002 0.0
H456 H 0.3058 0.18005 0.05439 0.0
H457 H 0.33309 0.01602 0.85449 0.0
H458 H 0.2762 0.17477 0.92704 0.0
H459 H 0.28337 0.21608 0.94355 0.0
H460 H 0.35545 0.25258 0.91643 0.0
H461 H 0.34837 0.21143 0.90007 0.0
H462 H 0.2778 0.13046 0.95653 0.0
H463 H 0.28273 0.14553 0.99898 0.0
H464 H 0.35655 0.20623 0.9898 0.0
H465 H 0.35144 0.19083 0.94747 0.0
H466 H 0.27908 0.08175 0.93112 0.0
H467 H 0.29078 0.05626 0.95496 0.0
H468 H 0.36602 0.11843 0.96535 0.0
H469 H 0.35443 0.14377 0.94138 0.0
H470 H 0.26868 0.07325 0.87734 0.0
H471 H 0.26953 0.03511 0.86393 0.0
H472 H 0.34943 0.07677 0.87559 0.0
H473 H 0.34824 0.1146 0.88935 0.0
H474 H 0.26666 0.10842 0.84071 0.0
H475 H 0.26665 0.08952 0.80064 0.0
H476 H 0.34603 0.12383 0.81095 0.0
H477 H 0.34601 0.14259 0.85077 0.0
H478 H 0.26942 0.16516 0.86613 0.0
H479 H 0.26941 0.19163 0.83452 0.0
H480 H 0.3441 0.21144 0.82182 0.0
H481 H 0.34424 0.18539 0.85349 0.0
O482 O 0.30433 0.17426 0.03763 0.0
O483 O 0.34198 0.20539 0.03183 0.0
O484 O 0.29111 0.01027 0.85381 0.0
O485 O 0.33218 0.03074 0.8599 0.0
C486 C 0.30905 0.16532 0.9052 0.0
C487 C 0.31086 0.15075 0.92309 0.0
C488 C 0.31045 0.12809 0.91634 0.0
C489 C 0.30783 0.11981 0.89179 0.0
C490 C 0.30628 0.13447 0.874 0.0
C491 C 0.30691 0.15722 0.88064 0.0
C492 C 0.31175 0.19019 0.91233 0.0
C493 C 0.29332 0.19174 0.9243 0.0
C494 C 0.29739 0.21517 0.93367 0.0
C495 C 0.31996 0.2372 0.93121 0.0
C496 C 0.33794 0.23573 0.91841 0.0
C497 C 0.33386 0.21235 0.90903 0.0
C498 C 0.31417 0.15968 0.94893 0.0
C499 C 0.29503 0.14696 0.96377 0.0
C500 C 0.29789 0.15564 0.98798 0.0
C501 C 0.32 0.17716 0.99776 0.0
C502 C 0.33926 0.18965 0.98284 0.0
C503 C 0.33637 0.18095 0.95864 0.0
C504 C 0.31593 0.11456 0.93458 0.0
C505 C 0.29792 0.09007 0.9391 0.0
C506 C 0.30455 0.0756 0.95264 0.0
C507 C 0.32923 0.08558 0.96179 0.0
C508 C 0.34688 0.11058 0.9585 0.0
C509 C 0.34027 0.12499 0.94494 0.0
C510 C 0.30837 0.09653 0.88446 0.0
C511 C 0.2863 0.07399 0.87716 0.0
C512 C 0.28686 0.05229 0.86947 0.0
C513 C 0.30956 0.05289 0.86873 0.0
C514 C 0.33164 0.07564 0.87596 0.0
C515 C 0.33103 0.09724 0.8839 0.0
C516 C 0.30634 0.12682 0.84848 0.0
C517 C 0.28405 0.11235 0.83399 0.0
C518 C 0.28404 0.10161 0.81129 0.0
C519 C 0.30635 0.10534 0.80306 0.0
C520 C 0.32871 0.1209 0.81707 0.0
C521 C 0.3287 0.13157 0.83967 0.0
C522 C 0.30674 0.17321 0.86185 0.0
C523 C 0.28574 0.17523 0.85649 0.0
C524 C 0.28571 0.19019 0.83854 0.0
C525 C 0.30669 0.2032 0.82584 0.0
C526 C 0.32773 0.20134 0.83137 0.0
C527 C 0.32777 0.18648 0.84931 0.0
C528 C 0.32287 0.18652 0.02341 0.0
C529 C 0.31029 0.02997 0.86036 0.0
H530 H 0.82157 0.19276 0.05409 0.0
H531 H 0.67286 0.99309 0.84631 0.0
H532 H 0.83608 0.20122 0.92466 0.0
H533 H 0.87191 0.23999 0.94412 0.0
H534 H 0.91668 0.20509 0.93955 0.0
H535 H 0.88068 0.16613 0.91991 0.0
H536 H 0.79234 0.1642 0.95123 0.0
H537 H 0.79935 0.17827 0.9941 0.0
H538 H 0.85403 0.15538 0.00229 0.0
H539 H 0.8465 0.14097 0.95946 0.0
H540 H 0.75063 0.12492 0.91873 0.0
H541 H 0.71734 0.10343 0.94528 0.0
H542 H 0.75549 0.06789 0.97551 0.0
H543 H 0.789 0.08974 0.94918 0.0
H544 H 0.75364 0.11687 0.86298 0.0
H545 H 0.71425 0.08171 0.84461 0.0
H546 H 0.73001 0.02923 0.87867 0.0
H547 H 0.76949 0.06459 0.89677 0.0
H548 H 0.80062 0.15255 0.84093 0.0
H549 H 0.78763 0.13705 0.79835 0.0
H550 H 0.79189 0.07071 0.81107 0.0
H551 H 0.80482 0.0862 0.85376 0.0
H552 H 0.84487 0.19649 0.87317 0.0
H553 H 0.8746 0.21939 0.84394 0.0
H554 H 0.88827 0.15762 0.83317 0.0
H555 H 0.85878 0.13482 0.86275 0.0
O556 O 0.81891 0.18684 0.03723 0.0
O557 O 0.84715 0.17514 0.04039 0.0
O558 O 0.6824 0.03493 0.83437 0.0
O559 O 0.6882 0.00734 0.85361 0.0
C560 C 0.83361 0.15719 0.911 0.0
C561 C 0.81486 0.14331 0.92617 0.0
C562 C 0.79233 0.12219 0.91639 0.0
C563 C 0.78869 0.11464 0.89155 0.0
C564 C 0.80782 0.12801 0.87654 0.0
C565 C 0.83029 0.14937 0.88624 0.0
C566 C 0.85588 0.18097 0.92097 0.0
C567 C 0.85367 0.20201 0.92767 0.0
C568 C 0.87399 0.224 0.93873 0.0
C569 C 0.89672 0.22517 0.94326 0.0
C570 C 0.89916 0.20434 0.93615 0.0
C571 C 0.87878 0.1823 0.92495 0.0
C572 C 0.81876 0.15137 0.95231 0.0
C573 C 0.80562 0.16199 0.96238 0.0
C574 C 0.80976 0.17013 0.98685 0.0
C575 C 0.82725 0.16794 0.00164 0.0
C576 C 0.8404 0.1573 0.99143 0.0
C577 C 0.83615 0.14907 0.96698 0.0
C578 C 0.77207 0.10873 0.93203 0.0
C579 C 0.75175 0.11246 0.93106 0.0
C580 C 0.73291 0.10035 0.94619 0.0
C581 C 0.73407 0.08416 0.96229 0.0
C582 C 0.75438 0.08038 0.96321 0.0
C583 C 0.77336 0.09271 0.94823 0.0
C584 C 0.76446 0.09324 0.88106 0.0
C585 C 0.74856 0.09776 0.86642 0.0
C586 C 0.72605 0.07765 0.856 0.0
C587 C 0.71903 0.05264 0.86008 0.0
C588 C 0.73488 0.04824 0.8751 0.0
C589 C 0.75741 0.06839 0.88549 0.0
C590 C 0.80353 0.12041 0.85036 0.0
C591 C 0.79931 0.13497 0.83442 0.0
C592 C 0.79193 0.12616 0.81023 0.0
C593 C 0.78877 0.10276 0.80174 0.0
C594 C 0.79433 0.08885 0.81739 0.0
C595 C 0.80159 0.0976 0.84163 0.0
C596 C 0.84979 0.16406 0.87016 0.0
C597 C 0.85464 0.18811 0.86489 0.0
C598 C 0.87148 0.2011 0.84823 0.0
C599 C 0.88354 0.19013 0.83653 0.0
C600 C 0.87915 0.16634 0.84216 0.0
C601 C 0.86238 0.15339 0.85892 0.0
C602 C 0.83177 0.17682 0.02758 0.0
C603 C 0.69542 0.03119 0.84856 0.0
H604 H 0.87015 0.67394 0.06777 0.0
H605 H 0.66315 0.61149 0.87587 0.0
H606 H 0.89108 0.70646 0.93463 0.0
H607 H 0.92478 0.70324 0.95556 0.0
H608 H 0.88133 0.62208 0.94338 0.0
H609 H 0.84787 0.62532 0.9225 0.0
H610 H 0.85651 0.70106 0.9719 0.0
H611 H 0.8662 0.69733 0.01388 0.0
H612 H 0.82229 0.61598 0.00111 0.0
H613 H 0.81267 0.62005 0.95919 0.0
H614 H 0.80323 0.69225 0.96593 0.0
H615 H 0.77065 0.68173 0.99358 0.0
H616 H 0.7325 0.60437 0.96283 0.0
H617 H 0.76495 0.61493 0.93512 0.0
H618 H 0.77962 0.69316 0.9186 0.0
H619 H 0.73663 0.68296 0.91142 0.0
H620 H 0.71856 0.61254 0.87198 0.0
H621 H 0.76153 0.62286 0.87951 0.0
H622 H 0.80854 0.70486 0.8721 0.0
H623 H 0.79422 0.70634 0.8308 0.0
H624 H 0.79455 0.63822 0.80874 0.0
H625 H 0.80816 0.63633 0.85008 0.0
H626 H 0.86515 0.71342 0.87382 0.0
H627 H 0.88887 0.71884 0.8386 0.0
H628 H 0.87572 0.64313 0.84095 0.0
H629 H 0.85178 0.63758 0.87592 0.0
O630 O 0.8659 0.67499 0.05118 0.0
O631 O 0.84272 0.63328 0.04382 0.0
O632 O 0.69114 0.65422 0.89596 0.0
O633 O 0.68057 0.61681 0.87747 0.0
C634 C 0.84476 0.66729 0.91989 0.0
C635 C 0.82786 0.66329 0.93731 0.0
C636 C 0.80483 0.66094 0.93065 0.0
C637 C 0.79881 0.66332 0.90666 0.0
C638 C 0.8161 0.66845 0.88937 0.0
C639 C 0.83917 0.67043 0.89599 0.0
C640 C 0.86721 0.66613 0.92688 0.0
C641 C 0.88926 0.68808 0.93573 0.0
C642 C 0.90832 0.68623 0.94775 0.0
C643 C 0.90536 0.6624 0.95106 0.0
C644 C 0.88391 0.64058 0.94092 0.0
C645 C 0.86495 0.64244 0.92892 0.0
C646 C 0.83397 0.66083 0.96261 0.0
C647 C 0.84905 0.68248 0.97824 0.0
C648 C 0.85448 0.68028 0.0022 0.0
C649 C 0.845 0.65635 0.01086 0.0
C650 C 0.82989 0.63468 0.99503 0.0
C651 C 0.82439 0.63693 0.97111 0.0
C652 C 0.78627 0.65436 0.94851 0.0
C653 C 0.78797 0.673 0.96537 0.0
C654 C 0.7695 0.66702 0.98108 0.0
C655 C 0.74928 0.6423 0.98014 0.0
C656 C 0.74803 0.6235 0.96378 0.0
C657 C 0.76641 0.62951 0.94801 0.0
C658 C 0.77365 0.65875 0.89958 0.0
C659 C 0.7664 0.6757 0.90816 0.0
C660 C 0.74184 0.6698 0.90407 0.0
C661 C 0.72411 0.64682 0.8913 0.0
C662 C 0.73169 0.63031 0.882 0.0
C663 C 0.75626 0.63623 0.88613 0.0
C664 C 0.8094 0.6705 0.86408 0.0
C665 C 0.80572 0.69038 0.85831 0.0
C666 C 0.79773 0.69131 0.83482 0.0
C667 C 0.79349 0.67245 0.81681 0.0
C668 C 0.79791 0.65301 0.82241 0.0
C669 C 0.80567 0.65195 0.84592 0.0
C670 C 0.85693 0.67518 0.87756 0.0
C671 C 0.86785 0.69821 0.86705 0.0
C672 C 0.88123 0.70126 0.84698 0.0
C673 C 0.88385 0.68132 0.83722 0.0
C674 C 0.87385 0.65869 0.84831 0.0
C675 C 0.86043 0.65562 0.86835 0.0
C676 C 0.85106 0.65407 0.03625 0.0
C677 C 0.69767 0.63966 0.88832 0.0
H678 H 0.83098 0.71999 0.34004 0.0
H679 H 0.96709 0.64552 0.54073 0.0
H680 H 0.8163 0.71023 0.48566 0.0
H681 H 0.78456 0.71606 0.46426 0.0
H682 H 0.75526 0.64325 0.42467 0.0
H683 H 0.78656 0.63719 0.44643 0.0
H684 H 0.85075 0.71887 0.4431 0.0
H685 H 0.84504 0.72685 0.40154 0.0
H686 H 0.8222 0.64947 0.37818 0.0
H687 H 0.82807 0.6418 0.41984 0.0
H688 H 0.90203 0.71959 0.4562 0.0
H689 H 0.93341 0.72704 0.42791 0.0
H690 H 0.90009 0.64668 0.41119 0.0
H691 H 0.86907 0.63924 0.44001 0.0
H692 H 0.91595 0.71059 0.50032 0.0
H693 H 0.95243 0.7097 0.51659 0.0
H694 H 0.90796 0.6287 0.51799 0.0
H695 H 0.87168 0.62988 0.50157 0.0
H696 H 0.88531 0.70572 0.54077 0.0
H697 H 0.89666 0.70144 0.58217 0.0
H698 H 0.84113 0.62233 0.5739 0.0
H699 H 0.82966 0.62664 0.53237 0.0
H700 H 0.83873 0.70556 0.53567 0.0
H701 H 0.81421 0.70121 0.56984 0.0
H702 H 0.75905 0.62613 0.54029 0.0
H703 H 0.78406 0.63027 0.50625 0.0
O704 O 0.83335 0.71648 0.35631 0.0
O705 O 0.82255 0.67678 0.3451 0.0
O706 O 0.9745 0.68819 0.53469 0.0
O707 O 0.95313 0.6463 0.53364 0.0
C708 C 0.82582 0.67221 0.47613 0.0
C709 C 0.84331 0.67508 0.45964 0.0
C710 C 0.86479 0.67461 0.46732 0.0
C711 C 0.86885 0.6711 0.49143 0.0
C712 C 0.85168 0.66873 0.50802 0.0
C713 C 0.83022 0.66946 0.50047 0.0
C714 C 0.80365 0.67327 0.4676 0.0
C715 C 0.8025 0.69519 0.47298 0.0
C716 C 0.7846 0.6986 0.46067 0.0
C717 C 0.76785 0.68019 0.44275 0.0
C718 C 0.76812 0.65766 0.4384 0.0
C719 C 0.78583 0.65416 0.45085 0.0
C720 C 0.83975 0.67976 0.4344 0.0
C721 C 0.84451 0.70369 0.42895 0.0
C722 C 0.84127 0.70819 0.40521 0.0
C723 C 0.83309 0.68878 0.38654 0.0
C724 C 0.82847 0.66482 0.39213 0.0
C725 C 0.83181 0.66038 0.41587 0.0
C726 C 0.88354 0.6789 0.45023 0.0
C727 C 0.90158 0.70362 0.44646 0.0
C728 C 0.91928 0.70785 0.43031 0.0
C729 C 0.91887 0.68739 0.41749 0.0
C730 C 0.90051 0.66264 0.4209 0.0
C731 C 0.88302 0.65841 0.43735 0.0
C732 C 0.89128 0.67028 0.49958 0.0
C733 C 0.91424 0.69264 0.50382 0.0
C734 C 0.93498 0.69209 0.51326 0.0
C735 C 0.93309 0.66912 0.51865 0.0
C736 C 0.91008 0.64669 0.51401 0.0
C737 C 0.88934 0.64729 0.5046 0.0
C738 C 0.85683 0.66644 0.53362 0.0
C739 C 0.87538 0.68755 0.548 0.0
C740 C 0.88172 0.68516 0.57155 0.0
C741 C 0.86963 0.66162 0.58094 0.0
C742 C 0.85048 0.64064 0.56687 0.0
C743 C 0.84404 0.64308 0.5433 0.0
C744 C 0.81316 0.66822 0.51853 0.0
C745 C 0.8212 0.6883 0.53637 0.0
C746 C 0.80732 0.68578 0.55587 0.0
C747 C 0.78502 0.66326 0.55767 0.0
C748 C 0.77632 0.64357 0.53924 0.0
C749 C 0.79041 0.646 0.51979 0.0
C750 C 0.82934 0.69355 0.36138 0.0
C751 C 0.95488 0.66854 0.52942 0.0
H752 H 0.29534 0.10545 0.35341 0.0
H753 H 0.35529 0.32869 0.53522 0.0
H754 H 0.30458 0.11346 0.48509 0.0
H755 H 0.30059 0.0735 0.46914 0.0
H756 H 0.38008 0.10795 0.4754 0.0
H757 H 0.38409 0.14812 0.49154 0.0
H758 H 0.29736 0.14525 0.4514 0.0
H759 H 0.28912 0.12624 0.40998 0.0
H760 H 0.36722 0.15335 0.40686 0.0
H761 H 0.37522 0.17251 0.44822 0.0
H762 H 0.29428 0.18296 0.47485 0.0
H763 H 0.28088 0.20667 0.45043 0.0
H764 H 0.35564 0.25304 0.43148 0.0
H765 H 0.36899 0.22902 0.45577 0.0
H766 H 0.30743 0.20379 0.52766 0.0
H767 H 0.30362 0.24074 0.53844 0.0
H768 H 0.37676 0.28923 0.51607 0.0
H769 H 0.3803 0.25207 0.50542 0.0
H770 H 0.31799 0.17238 0.55974 0.0
H771 H 0.32025 0.19335 0.59919 0.0
H772 H 0.39485 0.25182 0.59005 0.0
H773 H 0.39243 0.23097 0.55037 0.0
H774 H 0.31609 0.12435 0.53571 0.0
H775 H 0.32041 0.10125 0.56827 0.0
H776 H 0.3981 0.1569 0.5807 0.0
H777 H 0.39381 0.18 0.54786 0.0
O778 O 0.29906 0.1135 0.36962 0.0
O779 O 0.33936 0.12761 0.36906 0.0
O780 O 0.31904 0.28804 0.5429 0.0
O781 O 0.35634 0.31377 0.53118 0.0
C782 C 0.34669 0.15818 0.49609 0.0
C783 C 0.34175 0.1708 0.47819 0.0
C784 C 0.34095 0.19278 0.48476 0.0
C785 C 0.34616 0.20281 0.50898 0.0
C786 C 0.35167 0.19053 0.52678 0.0
C787 C 0.35159 0.16799 0.5204 0.0
C788 C 0.34461 0.13356 0.48934 0.0
C789 C 0.32111 0.11227 0.48339 0.0
C790 C 0.31884 0.08959 0.47436 0.0
C791 C 0.34005 0.08798 0.47112 0.0
C792 C 0.36358 0.109 0.47789 0.0
C793 C 0.36585 0.13175 0.48706 0.0
C794 C 0.33691 0.16052 0.45265 0.0
C795 C 0.3127 0.1474 0.4416 0.0
C796 C 0.30803 0.13641 0.41799 0.0
C797 C 0.32752 0.13829 0.40509 0.0
C798 C 0.3518 0.1516 0.41625 0.0
C799 C 0.35643 0.16261 0.43984 0.0
C800 C 0.33252 0.20427 0.46686 0.0
C801 C 0.3076 0.19776 0.46487 0.0
C802 C 0.3 0.21125 0.45106 0.0
C803 C 0.31733 0.2315 0.43928 0.0
C804 C 0.34208 0.23732 0.4404 0.0
C805 C 0.34965 0.22369 0.45414 0.0
C806 C 0.34418 0.22534 0.51588 0.0
C807 C 0.32263 0.22243 0.52521 0.0
C808 C 0.32049 0.24355 0.53128 0.0
C809 C 0.3399 0.26796 0.52813 0.0
C810 C 0.36148 0.27073 0.51876 0.0
C811 C 0.36358 0.24957 0.51267 0.0
C812 C 0.35505 0.20022 0.5523 0.0
C813 C 0.33506 0.18931 0.56656 0.0
C814 C 0.33633 0.20125 0.58895 0.0
C815 C 0.35765 0.22414 0.59733 0.0
C816 C 0.37829 0.23414 0.5838 0.0
C817 C 0.37693 0.22229 0.56128 0.0
C818 C 0.35469 0.15369 0.53937 0.0
C819 C 0.3341 0.13139 0.54524 0.0
C820 C 0.33653 0.11832 0.56378 0.0
C821 C 0.35954 0.12747 0.57675 0.0
C822 C 0.38024 0.14964 0.57078 0.0
C823 C 0.3778 0.16274 0.55216 0.0
C824 C 0.32245 0.1262 0.38018 0.0
C825 C 0.33771 0.29045 0.53454 0.0
H826 H 0.80912 0.14609 0.33326 0.0
H827 H 0.00674 0.33049 0.50526 0.0
H828 H 0.79127 0.16745 0.45795 0.0
H829 H 0.75483 0.12759 0.44097 0.0
H830 H 0.784 0.08585 0.47564 0.0
H831 H 0.82048 0.1257 0.49254 0.0
H832 H 0.83522 0.20333 0.42752 0.0
H833 H 0.82333 0.18503 0.38571 0.0
H834 H 0.83399 0.1236 0.40443 0.0
H835 H 0.84577 0.14207 0.44615 0.0
H836 H 0.88777 0.25278 0.45318 0.0
H837 H 0.92083 0.27283 0.42604 0.0
H838 H 0.9273 0.20617 0.42066 0.0
H839 H 0.89496 0.18651 0.44838 0.0
H840 H 0.88488 0.26319 0.51197 0.0
H841 H 0.92378 0.30358 0.5189 0.0
H842 H 0.96413 0.26622 0.49941 0.0
H843 H 0.9252 0.22587 0.4931 0.0
H844 H 0.84139 0.22233 0.54612 0.0
H845 H 0.85494 0.23612 0.58905 0.0
H846 H 0.91672 0.22449 0.58126 0.0
H847 H 0.90247 0.2094 0.53895 0.0
H848 H 0.79441 0.17757 0.51536 0.0
H849 H 0.76686 0.15367 0.5459 0.0
H850 H 0.82031 0.13416 0.57224 0.0
H851 H 0.84778 0.15788 0.54168 0.0
O852 O 0.81407 0.15311 0.34984 0.0
O853 O 0.81942 0.12173 0.36051 0.0
O854 O 0.97106 0.33175 0.52073 0.0
O855 O 0.99134 0.31453 0.50424 0.0
C856 C 0.83219 0.17317 0.48318 0.0
C857 C 0.84827 0.18502 0.46521 0.0
C858 C 0.87134 0.20713 0.47138 0.0
C859 C 0.87831 0.21765 0.49555 0.0
C860 C 0.8625 0.20544 0.51368 0.0
C861 C 0.83939 0.18314 0.50745 0.0
C862 C 0.80845 0.14939 0.47642 0.0
C863 C 0.78951 0.1497 0.4623 0.0
C864 C 0.76884 0.12708 0.45265 0.0
C865 C 0.76694 0.10395 0.45703 0.0
C866 C 0.78524 0.10359 0.47216 0.0
C867 C 0.80591 0.12623 0.48182 0.0
C868 C 0.84118 0.17392 0.43984 0.0
C869 C 0.83496 0.18592 0.42252 0.0
C870 C 0.82818 0.17543 0.39867 0.0
C871 C 0.82763 0.1528 0.39174 0.0
C872 C 0.83417 0.14101 0.40916 0.0
C873 C 0.84081 0.15145 0.43301 0.0
C874 C 0.88903 0.21823 0.45277 0.0
C875 C 0.89615 0.24243 0.44594 0.0
C876 C 0.91488 0.25379 0.43049 0.0
C877 C 0.92642 0.24092 0.42148 0.0
C878 C 0.91852 0.2163 0.42744 0.0
C879 C 0.90006 0.2051 0.44312 0.0
C880 C 0.90217 0.24165 0.50177 0.0
C881 C 0.90216 0.26371 0.50951 0.0
C882 C 0.9244 0.28676 0.51338 0.0
C883 C 0.94702 0.28815 0.5094 0.0
C884 C 0.94701 0.26585 0.50236 0.0
C885 C 0.9248 0.24278 0.49875 0.0
C886 C 0.87102 0.21497 0.53935 0.0
C887 C 0.8578 0.22269 0.55372 0.0
C888 C 0.86556 0.23065 0.57808 0.0
C889 C 0.88695 0.23153 0.58817 0.0
C890 C 0.90028 0.22411 0.57372 0.0
C891 C 0.89224 0.21565 0.5496 0.0
C892 C 0.82309 0.16949 0.52637 0.0
C893 C 0.8002 0.16821 0.52778 0.0
C894 C 0.78457 0.1547 0.54515 0.0
C895 C 0.79169 0.1423 0.56124 0.0
C896 C 0.81464 0.14372 0.55996 0.0
C897 C 0.83025 0.15723 0.54262 0.0
C898 C 0.82016 0.14154 0.36646 0.0
C899 C 0.97049 0.3128 0.51196 0.0
H900 H 0.01833 0.5347 0.38307 0.0
H901 H 0.01965 0.35922 0.1836 0.0
H902 H 0.97258 0.52078 0.26241 0.0
H903 H 0.97956 0.56128 0.28056 0.0
H904 H 0.04032 0.60078 0.23691 0.0
H905 H 0.03457 0.56033 0.22012 0.0
H906 H 0.97933 0.48 0.28785 0.0
H907 H 0.98945 0.49706 0.33002 0.0
H908 H 0.05786 0.5603 0.31149 0.0
H909 H 0.04771 0.54283 0.26947 0.0
H910 H 0.97436 0.43095 0.25771 0.0
H911 H 0.98567 0.40569 0.28227 0.0
H912 H 0.06108 0.46753 0.29256 0.0
H913 H 0.04995 0.49257 0.26748 0.0
H914 H 0.96043 0.42271 0.20206 0.0
H915 H 0.95929 0.38345 0.18908 0.0
H916 H 0.03867 0.42072 0.2047 0.0
H917 H 0.03953 0.45983 0.21767 0.0
H918 H 0.95529 0.46042 0.16957 0.0
H919 H 0.94989 0.4391 0.12921 0.0
H920 H 0.02714 0.46123 0.13501 0.0
H921 H 0.03264 0.48289 0.17485 0.0
H922 H 0.95752 0.51051 0.19938 0.0
H923 H 0.95136 0.53387 0.16788 0.0
H924 H 0.02258 0.55344 0.14355 0.0
H925 H 0.02871 0.53016 0.17489 0.0
O926 O 0.01478 0.5282 0.36633 0.0
O927 O 0.04961 0.56043 0.35581 0.0
O928 O 0.9789 0.35645 0.18012 0.0
O929 O 0.01955 0.37445 0.18878 0.0
C930 C 0.00179 0.51335 0.23245 0.0
C931 C 0.00637 0.49997 0.24993 0.0
C932 C 0.00555 0.47716 0.24288 0.0
C933 C 0.00064 0.46792 0.2184 0.0
C934 C 0.99694 0.48169 0.2009 0.0
C935 C 0.99719 0.50422 0.20789 0.0
C936 C 0.00312 0.53757 0.24002 0.0
C937 C 0.98727 0.53815 0.25661 0.0
C938 C 0.99121 0.56119 0.26691 0.0
C939 C 0.01057 0.58396 0.26018 0.0
C940 C 0.02536 0.58338 0.24238 0.0
C941 C 0.02192 0.56034 0.23264 0.0
C942 C 0.01275 0.5102 0.2756 0.0
C943 C 0.99656 0.49745 0.29297 0.0
C944 C 0.00236 0.50728 0.31703 0.0
C945 C 0.02445 0.53007 0.32413 0.0
C946 C 0.04069 0.54273 0.30665 0.0
C947 C 0.03492 0.53282 0.28262 0.0
C948 C 0.01136 0.46352 0.26078 0.0
C949 C 0.99322 0.43919 0.26559 0.0
C950 C 0.99962 0.42485 0.27955 0.0
C951 C 0.02417 0.43485 0.28906 0.0
C952 C 0.04205 0.45966 0.28536 0.0
C953 C 0.03569 0.4739 0.27118 0.0
C954 C 4e-05 0.44404 0.21087 0.0
C955 C 0.97753 0.42231 0.2027 0.0
C956 C 0.97694 0.39993 0.19532 0.0
C957 C 0.99891 0.39896 0.19583 0.0
C958 C 0.02143 0.42082 0.20406 0.0
C959 C 0.02198 0.44316 0.21154 0.0
C960 C 0.99429 0.47292 0.17513 0.0
C961 C 0.97115 0.46125 0.16179 0.0
C962 C 0.96808 0.44914 0.1389 0.0
C963 C 0.98811 0.4485 0.12942 0.0
C964 C 0.01152 0.46154 0.14216 0.0
C965 C 0.01463 0.47381 0.16481 0.0
C966 C 0.99352 0.51862 0.18931 0.0
C967 C 0.97179 0.51991 0.18728 0.0
C968 C 0.96828 0.53315 0.1694 0.0
C969 C 0.98657 0.54534 0.15354 0.0
C970 C 0.00833 0.54414 0.15569 0.0
C971 C 0.01178 0.53087 0.17345 0.0
C972 C 0.03046 0.54056 0.34967 0.0
C973 C 0.99841 0.3753 0.18776 0.0
H974 H 0.48992 0.53945 0.38623 0.0
H975 H 0.34799 0.32448 0.18374 0.0
H976 H 0.50156 0.54203 0.25538 0.0
H977 H 0.5366 0.58096 0.27567 0.0
H978 H 0.58139 0.54592 0.27595 0.0
H979 H 0.54631 0.50695 0.25527 0.0
H980 H 0.45833 0.50445 0.28454 0.0
H981 H 0.4661 0.52091 0.32682 0.0
H982 H 0.52251 0.50055 0.33653 0.0
H983 H 0.51433 0.48389 0.29429 0.0
H984 H 0.41485 0.45858 0.25296 0.0
H985 H 0.38256 0.43561 0.28005 0.0
H986 H 0.42863 0.41099 0.31491 0.0
H987 H 0.46092 0.43388 0.28768 0.0
H988 H 0.41734 0.45012 0.19901 0.0
H989 H 0.37956 0.41211 0.18171 0.0
H990 H 0.40316 0.36599 0.21716 0.0
H991 H 0.44095 0.40418 0.23424 0.0
H992 H 0.46252 0.48813 0.17538 0.0
H993 H 0.44914 0.47117 0.13315 0.0
H994 H 0.45991 0.40885 0.14697 0.0
H995 H 0.47316 0.42575 0.18932 0.0
H996 H 0.50783 0.53503 0.20556 0.0
H997 H 0.53625 0.55773 0.17527 0.0
H998 H 0.55244 0.49763 0.16542 0.0
H999 H 0.52441 0.47514 0.19615 0.0
O1000 O 0.48692 0.53254 0.36965 0.0
O1001 O 0.51604 0.5221 0.37357 0.0
O1002 O 0.35071 0.36441 0.17373 0.0
O1003 O 0.36234 0.33983 0.19101 0.0
C1004 C 0.49942 0.49757 0.24464 0.0
C1005 C 0.48152 0.48369 0.26057 0.0
C1006 C 0.45943 0.46146 0.2518 0.0
C1007 C 0.45538 0.45292 0.22716 0.0
C1008 C 0.47355 0.46657 0.21135 0.0
C1009 C 0.49561 0.48893 0.22007 0.0
C1010 C 0.52154 0.52183 0.25385 0.0
C1011 C 0.51908 0.54294 0.2594 0.0
C1012 C 0.53893 0.565 0.27097 0.0
C1013 C 0.56137 0.56609 0.27728 0.0
C1014 C 0.56412 0.54526 0.27113 0.0
C1015 C 0.54428 0.52321 0.25931 0.0
C1016 C 0.48573 0.49295 0.28641 0.0
C1017 C 0.47221 0.5034 0.29589 0.0
C1018 C 0.47675 0.51286 0.32002 0.0
C1019 C 0.49496 0.51209 0.33505 0.0
C1020 C 0.50836 0.50144 0.32546 0.0
C1021 C 0.50376 0.49194 0.30135 0.0
C1022 C 0.44009 0.44769 0.26829 0.0
C1023 C 0.41796 0.44822 0.26643 0.0
C1024 C 0.3997 0.43533 0.28191 0.0
C1025 C 0.40339 0.42181 0.29947 0.0
C1026 C 0.42562 0.42149 0.30154 0.0
C1027 C 0.4439 0.4344 0.28602 0.0
C1028 C 0.4319 0.42986 0.21774 0.0
C1029 C 0.41427 0.43178 0.20305 0.0
C1030 C 0.3927 0.41005 0.19323 0.0
C1031 C 0.38841 0.38599 0.19795 0.0
C1032 C 0.40594 0.3842 0.21308 0.0
C1033 C 0.4275 0.40597 0.22291 0.0
C1034 C 0.46866 0.45806 0.18534 0.0
C1035 C 0.46246 0.47109 0.16918 0.0
C1036 C 0.45486 0.46146 0.14519 0.0
C1037 C 0.45348 0.43876 0.13711 0.0
C1038 C 0.46092 0.42641 0.15298 0.0
C1039 C 0.46837 0.43597 0.17702 0.0
C1040 C 0.51423 0.50355 0.20319 0.0
C1041 C 0.51787 0.527 0.19725 0.0
C1042 C 0.53391 0.53983 0.17993 0.0
C1043 C 0.54632 0.52926 0.16822 0.0
C1044 C 0.54299 0.50601 0.17437 0.0
C1045 C 0.52709 0.49326 0.19183 0.0
C1046 C 0.5 0.5225 0.36058 0.0
C1047 C 0.36596 0.36284 0.18685 0.0
H1048 H 0.51575 0.98577 0.39906 0.0
H1049 H 0.34392 0.9695 0.17256 0.0
H1050 H 0.55139 0.03471 0.27204 0.0
H1051 H 0.5839 0.03186 0.2957 0.0
H1052 H 0.54545 0.95147 0.27677 0.0
H1053 H 0.51274 0.95427 0.25356 0.0
H1054 H 0.51527 0.02424 0.30574 0.0
H1055 H 0.51968 0.01558 0.34735 0.0
H1056 H 0.47325 0.93554 0.32673 0.0
H1057 H 0.46911 0.94452 0.28517 0.0
H1058 H 0.46558 0.02073 0.29462 0.0
H1059 H 0.4331 0.01008 0.32236 0.0
H1060 H 0.39234 0.93412 0.28804 0.0
H1061 H 0.42473 0.94489 0.26014 0.0
H1062 H 0.44843 0.02794 0.24526 0.0
H1063 H 0.41065 0.02612 0.22858 0.0
H1064 H 0.38949 0.95544 0.18778 0.0
H1065 H 0.42726 0.95749 0.20464 0.0
H1066 H 0.48465 0.04257 0.20506 0.0
H1067 H 0.47285 0.04885 0.16456 0.0
H1068 H 0.46105 0.9761 0.13817 0.0
H1069 H 0.47292 0.96985 0.17867 0.0
H1070 H 0.5351 0.04468 0.20888 0.0
H1071 H 0.56043 0.0502 0.17497 0.0
H1072 H 0.54203 0.97255 0.1746 0.0
H1073 H 0.51625 0.96683 0.20809 0.0
O1074 O 0.51365 0.98878 0.38254 0.0
O1075 O 0.4891 0.94788 0.37115 0.0
O1076 O 0.37029 0.0067 0.20133 0.0
O1077 O 0.35874 0.97047 0.1798 0.0
C1078 C 0.50773 0.99542 0.2518 0.0
C1079 C 0.48902 0.99037 0.26742 0.0
C1080 C 0.46717 0.98983 0.25909 0.0
C1081 C 0.46405 0.99462 0.23522 0.0
C1082 C 0.48304 0.00043 0.21975 0.0
C1083 C 0.50486 0.00063 0.22795 0.0
C1084 C 0.52994 0.99474 0.26088 0.0
C1085 C 0.55042 0.01664 0.27238 0.0
C1086 C 0.56879 0.01499 0.28595 0.0
C1087 C 0.56693 0.99145 0.28792 0.0
C1088 C 0.54717 0.96977 0.2753 0.0
C1089 C 0.52868 0.97139 0.26197 0.0
C1090 C 0.49197 0.985 0.29253 0.0
C1091 C 0.50616 0.00487 0.31027 0.0
C1092 C 0.50857 -0.00015 0.33402 0.0
C1093 C 0.49678 0.97486 0.34038 0.0
C1094 C 0.48254 0.955 0.32245 0.0
C1095 C 0.48017 0.96005 0.29872 0.0
C1096 C 0.44732 0.98359 0.27536 0.0
C1097 C 0.44959 0.00184 0.29307 0.0
C1098 C 0.43121 0.99576 0.30887 0.0
C1099 C 0.41046 0.97133 0.30719 0.0
C1100 C 0.40828 0.95304 0.28955 0.0
C1101 C 0.42659 0.95918 0.27365 0.0
C1102 C 0.44055 0.99288 0.2261 0.0
C1103 C 0.43549 0.012 0.23286 0.0
C1104 C 0.41395 0.01094 0.22325 0.0
C1105 C 0.39711 0.99069 0.20673 0.0
C1106 C 0.40207 0.97132 0.20039 0.0
C1107 C 0.42363 0.97244 0.20998 0.0
C1108 C 0.47952 0.00573 0.19475 0.0
C1109 C 0.48003 0.02825 0.19043 0.0
C1110 C 0.4734 0.03185 0.16742 0.0
C1111 C 0.46607 0.0129 0.14853 0.0
C1112 C 0.46675 0.99092 0.15258 0.0
C1113 C 0.47349 0.98737 0.17558 0.0
C1114 C 0.52396 0.00539 0.21104 0.0
C1115 C 0.53702 0.02903 0.20187 0.0
C1116 C 0.55136 0.03217 0.18256 0.0
C1117 C 0.553 0.01176 0.17241 0.0
C1118 C 0.54103 0.9885 0.18237 0.0
C1119 C 0.52652 0.98531 0.20154 0.0
C1120 C 0.49953 0.96959 0.36558 0.0
C1121 C 0.37461 0.98986 0.19585 0.0
H1122 H 0.50582 0.06318 0.67805 0.0
H1123 H 0.64757 0.99926 0.88476 0.0
H1124 H 0.48829 0.04945 0.82075 0.0
H1125 H 0.45455 0.05183 0.79901 0.0
H1126 H 0.42819 0.97794 0.76293 0.0
H1127 H 0.46198 0.97565 0.78452 0.0
H1128 H 0.52192 0.0603 0.78142 0.0
H1129 H 0.51675 0.06872 0.73991 0.0
H1130 H 0.50328 0.99469 0.71512 0.0
H1131 H 0.50847 0.98652 0.75676 0.0
H1132 H 0.57208 0.06358 0.78848 0.0
H1133 H 0.60352 0.0723 0.7599 0.0
H1134 H 0.58428 0.99423 0.75595 0.0
H1135 H 0.55288 0.98551 0.78459 0.0
H1136 H 0.5904 0.05566 0.83706 0.0
H1137 H 0.62817 0.05825 0.85472 0.0
H1138 H 0.58804 0.97755 0.85955 0.0
H1139 H 0.55044 0.97521 0.8417 0.0
H1140 H 0.55833 0.04365 0.88093 0.0
H1141 H 0.56728 0.03533 0.9216 0.0
H1142 H 0.51113 0.95688 0.90659 0.0
H1143 H 0.50223 0.96517 0.8658 0.0
H1144 H 0.50995 0.04337 0.87346 0.0
H1145 H 0.48336 0.0366 0.90636 0.0
H1146 H 0.43156 0.96163 0.87389 0.0
H1147 H 0.45848 0.96831 0.84098 0.0
O1148 O 0.50797 0.05952 0.69431 0.0
O1149 O 0.50189 0.02158 0.68243 0.0
O1150 O 0.65258 0.04018 0.87499 0.0
O1151 O 0.63317 0.9986 0.87683 0.0
C1152 C 0.50045 0.0131 0.81316 0.0
C1153 C 0.5189 0.01791 0.79723 0.0
C1154 C 0.54091 0.01856 0.80532 0.0
C1155 C 0.54443 0.01416 0.82929 0.0
C1156 C 0.52604 0.0095 0.84523 0.0
C1157 C 0.50421 0.00933 0.8373 0.0
C1158 C 0.47747 0.01236 0.8042 0.0
C1159 C 0.4748 0.03349 0.80869 0.0
C1160 C 0.45569 0.03489 0.79627 0.0
C1161 C 0.43906 0.0151 0.77935 0.0
C1162 C 0.44087 0.99333 0.77596 0.0
C1163 C 0.46002 0.992 0.78828 0.0
C1164 C 0.51542 0.02277 0.77204 0.0
C1165 C 0.51775 0.0459 0.76698 0.0
C1166 C 0.51489 0.05069 0.74326 0.0
C1167 C 0.50956 0.03236 0.72419 0.0
C1168 C 0.50733 0.00919 0.72938 0.0
C1169 C 0.51026 0.00446 0.75312 0.0
C1170 C 0.56029 0.02394 0.78858 0.0
C1171 C 0.57467 0.04838 0.78144 0.0
C1172 C 0.59247 0.05332 0.76518 0.0
C1173 C 0.59599 0.03384 0.75582 0.0
C1174 C 0.58164 0.0094 0.76296 0.0
C1175 C 0.56391 0.00449 0.7793 0.0
C1176 C 0.56772 0.01526 0.83808 0.0
C1177 C 0.5899 0.03853 0.84164 0.0
C1178 C 0.6114 0.03996 0.85186 0.0
C1179 C 0.61108 0.01812 0.85871 0.0
C1180 C 0.58893 0.99474 0.85455 0.0
C1181 C 0.56743 0.99334 0.84433 0.0
C1182 C 0.52982 0.00496 0.87044 0.0
C1183 C 0.54778 0.02474 0.88652 0.0
C1184 C 0.55276 0.02005 0.90964 0.0
C1185 C 0.53979 0.99554 0.91692 0.0
C1186 C 0.52117 0.97591 0.9012 0.0
C1187 C 0.51617 0.98062 0.87804 0.0
C1188 C 0.4861 0.00634 0.85485 0.0
C1189 C 0.49269 0.02562 0.87323 0.0
C1190 C 0.47764 0.02173 0.892 0.0
C1191 C 0.4557 0.99855 0.89261 0.0
C1192 C 0.44853 0.97957 0.87373 0.0
C1193 C 0.46371 0.98344 0.85494 0.0
C1194 C 0.50625 0.0374 0.69903 0.0
C1195 C 0.63359 0.01972 0.87058 0.0
H1196 H 0.96199 0.43413 0.68379 0.0
H1197 H 0.02773 0.66134 0.88307 0.0
H1198 H 0.96889 0.44253 0.83058 0.0
H1199 H 0.96259 0.4019 0.81342 0.0
H1200 H 0.03478 0.44026 0.7866 0.0
H1201 H 0.04096 0.481 0.80359 0.0
H1202 H 0.96199 0.46211 0.78538 0.0
H1203 H 0.9548 0.44494 0.74339 0.0
H1204 H 0.02779 0.50464 0.73025 0.0
H1205 H 0.03481 0.52148 0.77238 0.0
H1206 H 0.95881 0.51022 0.79201 0.0
H1207 H 0.94708 0.53541 0.76784 0.0
H1208 H 0.02339 0.59525 0.77287 0.0
H1209 H 0.03514 0.57006 0.79712 0.0
H1210 H 0.96757 0.53955 0.84191 0.0
H1211 H 0.96665 0.57757 0.85547 0.0
H1212 H 0.04664 0.61927 0.86552 0.0
H1213 H 0.04724 0.58098 0.85226 0.0
H1214 H 0.97438 0.5164 0.88248 0.0
H1215 H 0.97861 0.53822 0.92197 0.0
H1216 H 0.05717 0.56629 0.9276 0.0
H1217 H 0.05301 0.54482 0.88765 0.0
H1218 H 0.97635 0.46734 0.87807 0.0
H1219 H 0.98109 0.44346 0.90972 0.0
H1220 H 0.05736 0.47272 0.8956 0.0
H1221 H 0.05249 0.49638 0.86363 0.0
O1222 O 0.96511 0.44144 0.70024 0.0
O1223 O 0.00243 0.47302 0.69417 0.0
O1224 O 0.98653 0.62413 0.87083 0.0
O1225 O 0.02757 0.64612 0.87734 0.0
C1226 C 0.00736 0.48911 0.82541 0.0
C1227 C 0.00366 0.50266 0.8076 0.0
C1228 C 0.0039 0.5252 0.81434 0.0
C1229 C 0.00789 0.53425 0.83881 0.0
C1230 C 0.01133 0.52058 0.85657 0.0
C1231 C 0.0112 0.49809 0.84989 0.0
C1232 C 0.00539 0.46459 0.81834 0.0
C1233 C 0.98356 0.44209 0.82148 0.0
C1234 C 0.97994 0.41903 0.81164 0.0
C1235 C 0.99818 0.41823 0.7987 0.0
C1236 C 0.02053 0.44062 0.79654 0.0
C1237 C 0.02407 0.46373 0.80623 0.0
C1238 C 0.99897 0.49291 0.7819 0.0
C1239 C 0.9764 0.47142 0.77339 0.0
C1240 C 0.97233 0.46169 0.7494 0.0
C1241 C 0.99076 0.47336 0.73348 0.0
C1242 C 0.01324 0.49515 0.74204 0.0
C1243 C 0.01728 0.50484 0.76606 0.0
C1244 C 0.99781 0.53836 0.79621 0.0
C1245 C 0.97308 0.52845 0.78731 0.0
C1246 C 0.9664 0.54277 0.77364 0.0
C1247 C 0.98442 0.56705 0.76867 0.0
C1248 C 0.00935 0.57644 0.77647 0.0
C1249 C 0.01601 0.56214 0.79022 0.0
C1250 C 0.00747 0.55761 0.84606 0.0
C1251 C 0.98486 0.55696 0.84695 0.0
C1252 C 0.9844 0.57867 0.85477 0.0
C1253 C 0.00659 0.60147 0.8616 0.0
C1254 C 0.02922 0.60205 0.86037 0.0
C1255 C 0.02964 0.58025 0.85279 0.0
C1256 C 0.01343 0.52928 0.88223 0.0
C1257 C 0.99242 0.52679 0.89246 0.0
C1258 C 0.99481 0.53918 0.91489 0.0
C1259 C 0.0182 0.55391 0.92744 0.0
C1260 C 0.03901 0.55492 0.91805 0.0
C1261 C 0.03664 0.54271 0.89541 0.0
C1262 C 0.01407 0.48347 0.86863 0.0
C1263 C 0.99403 0.4685 0.88175 0.0
C1264 C 0.99672 0.45495 0.89971 0.0
C1265 C 0.01953 0.4564 0.90483 0.0
C1266 C 0.03964 0.47143 0.89176 0.0
C1267 C 0.03686 0.48482 0.87362 0.0
C1268 C 0.98654 0.4627 0.7081 0.0
C1269 C 0.00619 0.62453 0.87015 0.0
H1270 H 0.47707 0.47941 0.66934 0.0
H1271 H 0.67381 0.65914 0.84774 0.0
H1272 H 0.45753 0.50069 0.79434 0.0
H1273 H 0.42072 0.46179 0.77616 0.0
H1274 H 0.44765 0.41738 0.80923 0.0
H1275 H 0.48442 0.45624 0.82741 0.0
H1276 H 0.50203 0.53524 0.76422 0.0
H1277 H 0.49073 0.51762 0.7222 0.0
H1278 H 0.50037 0.45543 0.74043 0.0
H1279 H 0.51156 0.47324 0.78238 0.0
H1280 H 0.55364 0.58335 0.7903 0.0
H1281 H 0.58643 0.6035 0.76293 0.0
H1282 H 0.59429 0.53767 0.75826 0.0
H1283 H 0.56185 0.51769 0.78595 0.0
H1284 H 0.55121 0.59369 0.84951 0.0
H1285 H 0.59046 0.63347 0.85812 0.0
H1286 H 0.6301 0.5952 0.83915 0.0
H1287 H 0.59078 0.55541 0.83118 0.0
H1288 H 0.50765 0.55562 0.88085 0.0
H1289 H 0.52137 0.57162 0.92341 0.0
H1290 H 0.57921 0.55332 0.91992 0.0
H1291 H 0.56527 0.5369 0.87768 0.0
H1292 H 0.46008 0.5098 0.85176 0.0
H1293 H 0.43215 0.48621 0.88222 0.0
H1294 H 0.48376 0.46395 0.90771 0.0
H1295 H 0.51158 0.48737 0.87729 0.0
O1296 O 0.48178 0.48616 0.68601 0.0
O1297 O 0.48668 0.45443 0.6964 0.0
O1298 O 0.63789 0.66072 0.86209 0.0
O1299 O 0.65814 0.64342 0.84568 0.0
C1300 C 0.49762 0.50438 0.81939 0.0
C1301 C 0.51423 0.51615 0.80179 0.0
C1302 C 0.53749 0.53784 0.80844 0.0
C1303 C 0.54411 0.54804 0.83271 0.0
C1304 C 0.52775 0.53584 0.85044 0.0
C1305 C 0.5045 0.51395 0.84376 0.0
C1306 C 0.47357 0.48118 0.81212 0.0
C1307 C 0.45516 0.48254 0.79812 0.0
C1308 C 0.43428 0.46048 0.78779 0.0
C1309 C 0.43171 0.43689 0.79131 0.0
C1310 C 0.44942 0.43549 0.80639 0.0
C1311 C 0.47027 0.45755 0.81678 0.0
C1312 C 0.50745 0.50542 0.7763 0.0
C1313 C 0.50168 0.51782 0.75907 0.0
C1314 C 0.49524 0.5077 0.7351 0.0
C1315 C 0.49458 0.48507 0.72796 0.0
C1316 C 0.50066 0.47287 0.74532 0.0
C1317 C 0.50696 0.48293 0.76929 0.0
C1318 C 0.55545 0.54912 0.79011 0.0
C1319 C 0.56222 0.57317 0.78313 0.0
C1320 C 0.58075 0.58456 0.76752 0.0
C1321 C 0.59253 0.57191 0.75858 0.0
C1322 C 0.58517 0.54752 0.76486 0.0
C1323 C 0.56675 0.5362 0.78059 0.0
C1324 C 0.56811 0.57171 0.83949 0.0
C1325 C 0.5684 0.59387 0.8475 0.0
C1326 C 0.59084 0.61658 0.85234 0.0
C1327 C 0.6134 0.61754 0.84905 0.0
C1328 C 0.61305 0.59515 0.84163 0.0
C1329 C 0.59061 0.5724 0.83704 0.0
C1330 C 0.53558 0.54525 0.87617 0.0
C1331 C 0.52315 0.55489 0.88935 0.0
C1332 C 0.5309 0.56396 0.9135 0.0
C1333 C 0.55123 0.56355 0.92462 0.0
C1334 C 0.56346 0.5537 0.91154 0.0
C1335 C 0.55563 0.5445 0.88751 0.0
C1336 C 0.48783 0.50029 0.86239 0.0
C1337 C 0.46536 0.49989 0.86397 0.0
C1338 C 0.44954 0.48658 0.8813 0.0
C1339 C 0.45606 0.47352 0.89714 0.0
C1340 C 0.47857 0.47404 0.89564 0.0
C1341 C 0.49437 0.48736 0.87837 0.0
C1342 C 0.48747 0.47423 0.70254 0.0
C1343 C 0.63717 0.64187 0.85281 0.0
H1344 H 0.6528 0.85913 0.72003 0.0
H1345 H 0.65983 0.67788 0.52665 0.0
H1346 H 0.61114 0.84338 0.59379 0.0
H1347 H 0.61863 0.88499 0.60964 0.0
H1348 H 0.68891 0.92084 0.57893 0.0
H1349 H 0.6814 0.87935 0.56306 0.0
H1350 H 0.61642 0.80332 0.625 0.0
H1351 H 0.62499 0.82129 0.66687 0.0
H1352 H 0.69811 0.87883 0.65142 0.0
H1353 H 0.68932 0.86058 0.60967 0.0
H1354 H 0.61578 0.75523 0.60448 0.0
H1355 H 0.62866 0.73103 0.62904 0.0
H1356 H 0.70522 0.78732 0.62469 0.0
H1357 H 0.69235 0.81182 0.60088 0.0
H1358 H 0.60111 0.74212 0.54362 0.0
H1359 H 0.59969 0.70251 0.53149 0.0
H1360 H 0.67929 0.74006 0.54527 0.0
H1361 H 0.68042 0.77947 0.55733 0.0
H1362 H 0.59951 0.78236 0.50562 0.0
H1363 H 0.5977 0.76492 0.46425 0.0
H1364 H 0.67352 0.78299 0.47688 0.0
H1365 H 0.67562 0.80125 0.51745 0.0
H1366 H 0.60215 0.83406 0.53584 0.0
H1367 H 0.60068 0.86079 0.50525 0.0
H1368 H 0.67135 0.87479 0.48382 0.0
H1369 H 0.67304 0.84857 0.51455 0.0
O1370 O 0.6499 0.85215 0.70348 0.0
O1371 O 0.68714 0.88155 0.69449 0.0
O1372 O 0.61906 0.67507 0.52351 0.0
O1373 O 0.65985 0.69329 0.53122 0.0
C1374 C 0.64303 0.83348 0.57071 0.0
C1375 C 0.64666 0.8202 0.58884 0.0
C1376 C 0.64608 0.79741 0.58261 0.0
C1377 C 0.64157 0.78765 0.55831 0.0
C1378 C 0.63862 0.80124 0.54012 0.0
C1379 C 0.6392 0.82411 0.5463 0.0
C1380 C 0.64574 0.85845 0.57731 0.0
C1381 C 0.6279 0.86026 0.59009 0.0
C1382 C 0.63214 0.88387 0.59908 0.0
C1383 C 0.65436 0.90581 0.59548 0.0
C1384 C 0.67168 0.90405 0.5818 0.0
C1385 C 0.66738 0.88049 0.57273 0.0
C1386 C 0.65219 0.83076 0.61434 0.0
C1387 C 0.63429 0.81975 0.63075 0.0
C1388 C 0.63923 0.83008 0.65462 0.0
C1389 C 0.66221 0.85156 0.66247 0.0
C1390 C 0.68022 0.86232 0.64597 0.0
C1391 C 0.67524 0.85198 0.62211 0.0
C1392 C 0.65317 0.78519 0.60096 0.0
C1393 C 0.63527 0.76269 0.60951 0.0
C1394 C 0.64259 0.74897 0.62345 0.0
C1395 C 0.66786 0.75743 0.62846 0.0
C1396 C 0.68567 0.78061 0.621 0.0
C1397 C 0.67835 0.79453 0.6075 0.0
C1398 C 0.64081 0.76352 0.55167 0.0
C1399 C 0.61818 0.74167 0.54414 0.0
C1400 C 0.61744 0.71912 0.53717 0.0
C1401 C 0.63939 0.71809 0.53752 0.0
C1402 C 0.66205 0.74015 0.54488 0.0
C1403 C 0.66274 0.76264 0.55195 0.0
C1404 C 0.63757 0.79264 0.51459 0.0
C1405 C 0.61577 0.78282 0.49927 0.0
C1406 C 0.61471 0.77284 0.47583 0.0
C1407 C 0.63535 0.7723 0.46779 0.0
C1408 C 0.65734 0.783 0.48289 0.0
C1409 C 0.65851 0.79329 0.506 0.0
C1410 C 0.63759 0.83921 0.52722 0.0
C1411 C 0.61721 0.84279 0.52443 0.0
C1412 C 0.61635 0.85792 0.50706 0.0
C1413 C 0.63583 0.86951 0.49228 0.0
C1414 C 0.6561 0.8658 0.49499 0.0
C1415 C 0.65701 0.85082 0.5124 0.0
C1416 C 0.66727 0.86272 0.68775 0.0
C1417 C 0.63871 0.69416 0.53029 0.0
H1418 H 0.15711 0.86901 0.7234 0.0
H1419 H 0.01192 0.65953 0.52305 0.0
H1420 H 0.17194 0.87392 0.59571 0.0
H1421 H 0.20837 0.91267 0.61442 0.0
H1422 H 0.2528 0.87766 0.60698 0.0
H1423 H 0.21621 0.83872 0.58817 0.0
H1424 H 0.12612 0.83479 0.62152 0.0
H1425 H 0.13347 0.85067 0.66393 0.0
H1426 H 0.19253 0.83396 0.67273 0.0
H1427 H 0.18469 0.81773 0.63039 0.0
H1428 H 0.08182 0.78739 0.58639 0.0
H1429 H 0.0494 0.7641 0.61307 0.0
H1430 H 0.09911 0.74814 0.65427 0.0
H1431 H 0.131 0.7699 0.62649 0.0
H1432 H 0.0872 0.7845 0.53361 0.0
H1433 H 0.04878 0.74716 0.51648 0.0
H1434 H 0.06923 0.69967 0.55385 0.0
H1435 H 0.10778 0.73718 0.57063 0.0
H1436 H 0.13651 0.82796 0.51449 0.0
H1437 H 0.12293 0.8158 0.4716 0.0
H1438 H 0.12103 0.74531 0.47822 0.0
H1439 H 0.13543 0.75783 0.52114 0.0
H1440 H 0.1806 0.86909 0.54378 0.0
H1441 H 0.20926 0.89093 0.51339 0.0
H1442 H 0.21992 0.82734 0.50095 0.0
H1443 H 0.19155 0.80561 0.53167 0.0
O1444 O 0.15436 0.86242 0.70673 0.0
O1445 O 0.18482 0.85386 0.71019 0.0
O1446 O 0.01927 0.69958 0.50803 0.0
O1447 O 0.02688 0.67461 0.52978 0.0
C1448 C 0.16894 0.82968 0.58133 0.0
C1449 C 0.15066 0.81592 0.59699 0.0
C1450 C 0.12825 0.79406 0.58788 0.0
C1451 C 0.12408 0.78621 0.56299 0.0
C1452 C 0.14237 0.80017 0.54734 0.0
C1453 C 0.165 0.82159 0.55661 0.0
C1454 C 0.1915 0.85357 0.59074 0.0
C1455 C 0.18958 0.87468 0.59792 0.0
C1456 C 0.21025 0.89669 0.60851 0.0
C1457 C 0.23307 0.89782 0.61206 0.0
C1458 C 0.23524 0.87697 0.60432 0.0
C1459 C 0.2145 0.85491 0.59362 0.0
C1460 C 0.1548 0.82503 0.62291 0.0
C1461 C 0.14049 0.83439 0.63269 0.0
C1462 C 0.1448 0.84354 0.6569 0.0
C1463 C 0.16361 0.84361 0.67172 0.0
C1464 C 0.1779 0.83417 0.66182 0.0
C1465 C 0.17349 0.82492 0.63765 0.0
C1466 C 0.10871 0.78009 0.60427 0.0
C1467 C 0.08561 0.77849 0.60088 0.0
C1468 C 0.06722 0.76544 0.6162 0.0
C1469 C 0.07187 0.75438 0.63559 0.0
C1470 C 0.09516 0.75646 0.63934 0.0
C1471 C 0.11332 0.7689 0.62358 0.0
C1472 C 0.10038 0.76354 0.55319 0.0
C1473 C 0.0834 0.76602 0.538 0.0
C1474 C 0.06146 0.74466 0.52827 0.0
C1475 C 0.05601 0.72041 0.53369 0.0
C1476 C 0.07289 0.71805 0.54926 0.0
C1477 C 0.0949 0.73943 0.55889 0.0
C1478 C 0.13688 0.79373 0.52093 0.0
C1479 C 0.13384 0.81019 0.50659 0.0
C1480 C 0.12611 0.80329 0.4822 0.0
C1481 C 0.12103 0.77971 0.4719 0.0
C1482 C 0.12504 0.76365 0.48594 0.0
C1483 C 0.13307 0.77069 0.51034 0.0
C1484 C 0.18416 0.83586 0.54005 0.0
C1485 C 0.18954 0.8601 0.53491 0.0
C1486 C 0.2057 0.87245 0.51754 0.0
C1487 C 0.21654 0.86063 0.50502 0.0
C1488 C 0.21168 0.83667 0.51052 0.0
C1489 C 0.19559 0.82436 0.52798 0.0
C1490 C 0.16831 0.85357 0.69737 0.0
C1491 C 0.03292 0.69765 0.52304 0.0
H1492 H 0.18317 0.3159 0.73525 0.0
H1493 H 0.99756 0.28728 0.54058 0.0
H1494 H 0.21613 0.3604 0.60684 0.0
H1495 H 0.25 0.35838 0.62872 0.0
H1496 H 0.21463 0.27888 0.60602 0.0
H1497 H 0.18106 0.28103 0.58388 0.0
H1498 H 0.16987 0.34855 0.64216 0.0
H1499 H 0.17716 0.34193 0.68384 0.0
H1500 H 0.15879 0.26573 0.66103 0.0
H1501 H 0.15139 0.27257 0.61948 0.0
H1502 H 0.11725 0.34419 0.61678 0.0
H1503 H 0.08461 0.33223 0.6445 0.0
H1504 H 0.07357 0.25702 0.64198 0.0
H1505 H 0.10554 0.26867 0.61354 0.0
H1506 H 0.11995 0.35795 0.56571 0.0
H1507 H 0.08013 0.35489 0.55519 0.0
H1508 H 0.0439 0.2735 0.55268 0.0
H1509 H 0.0839 0.27685 0.56291 0.0
H1510 H 0.15863 0.37045 0.53848 0.0
H1511 H 0.14613 0.3771 0.49836 0.0
H1512 H 0.11009 0.2971 0.47799 0.0
H1513 H 0.12274 0.29049 0.51801 0.0
H1514 H 0.20035 0.37034 0.54471 0.0
H1515 H 0.22565 0.37643 0.51063 0.0
H1516 H 0.20343 0.29753 0.50594 0.0
H1517 H 0.17746 0.29125 0.53941 0.0
O1518 O 0.1801 0.31808 0.71868 0.0
O1519 O 0.17043 0.27903 0.70603 0.0
O1520 O 0.03302 0.33099 0.54678 0.0
O1521 O 0.01367 0.28903 0.54391 0.0
C1522 C 0.17322 0.32058 0.58601 0.0
C1523 C 0.15535 0.31514 0.60273 0.0
C1524 C 0.13297 0.31424 0.59585 0.0
C1525 C 0.12873 0.31953 0.57241 0.0
C1526 C 0.14685 0.32559 0.55586 0.0
C1527 C 0.16901 0.32581 0.56254 0.0
C1528 C 0.19629 0.32089 0.59369 0.0
C1529 C 0.21621 0.3428 0.60584 0.0
C1530 C 0.23537 0.34161 0.61839 0.0
C1531 C 0.23459 0.31843 0.6191 0.0
C1532 C 0.2155 0.2969 0.60563 0.0
C1533 C 0.19649 0.29816 0.59292 0.0
C1534 C 0.16033 0.31112 0.62785 0.0
C1535 C 0.16751 0.33048 0.64624 0.0
C1536 C 0.17161 0.32662 0.67001 0.0
C1537 C 0.16853 0.30329 0.67578 0.0
C1538 C 0.16131 0.28392 0.65722 0.0
C1539 C 0.15722 0.28781 0.63346 0.0
C1540 C 0.11375 0.3073 0.61315 0.0
C1541 C 0.10774 0.32512 0.62213 0.0
C1542 C 0.08927 0.31836 0.63796 0.0
C1543 C 0.07682 0.29379 0.64521 0.0
C1544 C 0.0831 0.27607 0.63659 0.0
C1545 C 0.1013 0.28273 0.62047 0.0
C1546 C 0.10478 0.31762 0.56494 0.0
C1547 C 0.10343 0.33949 0.56259 0.0
C1548 C 0.08065 0.33768 0.5567 0.0
C1549 C 0.05881 0.31394 0.55317 0.0
C1550 C 0.06034 0.29206 0.55528 0.0
C1551 C 0.08314 0.29391 0.56111 0.0
C1552 C 0.14163 0.33 0.53102 0.0
C1553 C 0.14844 0.35445 0.52519 0.0
C1554 C 0.14134 0.35823 0.50243 0.0
C1555 C 0.12725 0.33756 0.48536 0.0
C1556 C 0.12105 0.31322 0.49098 0.0
C1557 C 0.12823 0.30946 0.51369 0.0
C1558 C 0.18707 0.33035 0.54449 0.0
C1559 C 0.20118 0.35445 0.53651 0.0
C1560 C 0.21561 0.35793 0.51719 0.0
C1561 C 0.21637 0.33742 0.50591 0.0
C1562 C 0.20314 0.31357 0.51458 0.0
C1563 C 0.18845 0.31002 0.53367 0.0
C1564 C 0.17302 0.29929 0.70103 0.0
C1565 C 0.03446 0.31194 0.54769 0.0
C1566 C 0.99014 0.42726 0.06484 0.0
C1567 C 0.98774 0.40345 0.06825 0.0
C1568 C 0.97865 0.40685 0.10994 0.0
C1569 C 0.98451 0.43205 0.10747 0.0
N1570 N 0.99637 0.46695 0.08329 0.0
N1571 N 0.98235 0.37146 0.09458 0.0
C1572 C 0.99021 0.44241 0.08503 0.0
C1573 C 0.98231 0.39325 0.09083 0.0
N1574 N 0.99181 0.43505 0.04221 0.0
N1575 N 0.96976 0.39601 0.13066 0.0
H1576 H 0.98512 0.36087 0.08123 0.0
H1577 H 0.98164 0.36483 0.11143 0.0
H1578 H 0.96734 0.4056 0.14525 0.0
H1579 H 0.96271 0.37692 0.13266 0.0
H1580 H 0.99141 0.45115 0.03809 0.0
H1581 H 0.99149 0.42419 0.02705 0.0
H1582 H 0.00355 0.47667 0.0683 0.0
H1583 H 0.9954 0.47808 0.09747 0.0
C1584 C 0.60125 0.57627 0.13671 0.0
C1585 C 0.59108 0.56981 0.11239 0.0
C1586 C 0.55171 0.53631 0.12465 0.0
C1587 C 0.56213 0.54227 0.14884 0.0
N1588 N 0.59771 0.56444 0.17769 0.0
N1589 N 0.55895 0.54057 0.08248 0.0
C1590 C 0.58724 0.56115 0.15478 0.0
C1591 C 0.56695 0.54888 0.10614 0.0
N1592 N 0.62371 0.59762 0.14274 0.0
N1593 N 0.52707 0.51915 0.11947 0.0
H1594 H 0.56987 0.54905 0.0685 0.0
H1595 H 0.54254 0.52395 0.07671 0.0
H1596 H 0.51546 0.50903 0.13245 0.0
H1597 H 0.5177 0.5161 0.10264 0.0
H1598 H 0.6307 0.60509 0.16038 0.0
H1599 H 0.63478 0.60905 0.13011 0.0
H1600 H 0.61658 0.57594 0.18262 0.0
H1601 H 0.5878 0.5541 0.1915 0.0
C1602 C 0.45612 0.01759 0.08171 0.0
C1603 C 0.43201 0.01432 0.08044 0.0
C1604 C 0.43036 0.01017 0.12373 0.0
C1605 C 0.45493 0.01469 0.12524 0.0
N1606 N 0.493 0.02741 0.10702 0.0
N1607 N 0.39798 0.01243 0.10075 0.0
C1608 C 0.46838 0.01981 0.10459 0.0
C1609 C 0.41979 0.01236 0.10164 0.0
N1610 N 0.46714 0.01827 0.06104 0.0
N1611 N 0.4166 0.00245 0.14307 0.0
H1612 H 0.38889 0.01289 0.08489 0.0
H1613 H 0.38978 0.01399 0.11601 0.0
H1614 H 0.42359 0.00064 0.15966 0.0
H1615 H 0.39765 0.99573 0.14218 0.0
H1616 H 0.4834 0.01764 0.06047 0.0
H1617 H 0.45927 0.01813 0.04412 0.0
H1618 H 0.50449 0.03362 0.09307 0.0
H1619 H 0.50248 0.02955 0.12362 0.0
C1620 C 0.42807 0.97715 0.95225 0.0
C1621 C 0.41713 0.9923 0.95579 0.0
C1622 C 0.427 0.007 0.91567 0.0
C1623 C 0.4406 0.9944 0.9134 0.0
N1624 N 0.45639 0.9694 0.93021 0.0
N1625 N 0.40803 0.0236 0.94208 0.0
C1626 C 0.44158 0.97975 0.93177 0.0
C1627 C 0.41707 0.00775 0.93781 0.0
N1628 N 0.42573 0.96046 0.96855 0.0
N1629 N 0.42314 0.01778 0.89642 0.0
H1630 H 0.39986 0.02421 0.9577 0.0
H1631 H 0.41012 0.03743 0.93091 0.0
H1632 H 0.4301 0.01747 0.8799 0.0
H1633 H 0.41124 0.02498 0.89603 0.0
H1634 H 0.43096 0.94697 0.96576 0.0
H1635 H 0.4169 0.95885 0.98425 0.0
H1636 H 0.4602 0.96102 0.94419 0.0
H1637 H 0.46645 0.97076 0.91547 0.0
C1638 C 0.01695 0.40251 0.93725 0.0
C1639 C 0.02098 0.41274 0.96148 0.0
C1640 C 0.02683 0.45267 0.94848 0.0
C1641 C 0.02221 0.44222 0.92423 0.0
N1642 N 0.01669 0.40928 0.89483 0.0
N1643 N 0.03399 0.4483 0.99061 0.0
C1644 C 0.01855 0.41777 0.9184 0.0
C1645 C 0.02739 0.43816 0.96722 0.0
N1646 N 0.01104 0.37797 0.93243 0.0
N1647 N 0.02983 0.47612 0.9535 0.0
H1648 H 0.03408 0.43798 0.00477 0.0
H1649 H 0.04101 0.4673 0.99598 0.0
H1650 H 0.03065 0.48771 0.94019 0.0
H1651 H 0.03038 0.48381 0.97071 0.0
H1652 H 0.0049 0.36811 0.91549 0.0
H1653 H 0.01159 0.36698 0.94576 0.0
H1654 H 0.01626 0.39265 0.8892 0.0
H1655 H 0.01703 0.41968 0.88057 0.0
C1656 C 0.59398 0.60804 0.9771 0.0
C1657 C 0.58411 0.59297 0.99655 0.0
C1658 C 0.55101 0.55918 0.969 0.0
C1659 C 0.56069 0.57444 0.94973 0.0
N1660 N 0.58759 0.61508 0.93578 0.0
N1661 N 0.55063 0.55692 0.01221 0.0
C1662 C 0.58092 0.59948 0.95395 0.0
C1663 C 0.56179 0.56931 0.99285 0.0
N1664 N 0.6166 0.62971 0.98032 0.0
N1665 N 0.53204 0.53477 0.96437 0.0
H1666 H 0.5579 0.56412 0.0299 0.0
H1667 H 0.53319 0.54075 0.01097 0.0
H1668 H 0.52315 0.52706 0.94723 0.0
H1669 H 0.526 0.52172 0.97717 0.0
H1670 H 0.62613 0.63967 0.96621 0.0
H1671 H 0.62703 0.63681 0.99685 0.0
H1672 H 0.60042 0.63434 0.93834 0.0
H1673 H 0.57872 0.60926 0.91844 0.0
C1674 C 0.0216 0.60846 0.96551 0.0
C1675 C 0.01734 0.59868 0.98832 0.0
C1676 C 0.01635 0.56039 0.97181 0.0
C1677 C 0.02084 0.57029 0.9491 0.0
N1678 N 0.03279 0.60544 0.92509 0.0
N1679 N 0.01604 0.56845 0.01475 0.0
C1680 C 0.02522 0.59496 0.94626 0.0
C1681 C 0.01634 0.57553 0.99194 0.0
N1682 N 0.02069 0.62981 0.96182 0.0
N1683 N 0.01149 0.5363 0.97391 0.0
H1684 H 0.01658 0.57948 0.02988 0.0
H1685 H 0.01749 0.55294 0.01896 0.0
H1686 H 0.01252 0.5252 0.95974 0.0
H1687 H 0.0052 0.52682 0.98921 0.0
H1688 H 0.02036 0.63599 0.94492 0.0
H1689 H 0.01842 0.64053 0.97543 0.0
H1690 H 0.03883 0.62427 0.9227 0.0
H1691 H 0.03503 0.59588 0.91037 0.0
C1692 C 0.41014 0.41678 0.92759 0.0
C1693 C 0.40981 0.42852 0.95002 0.0
C1694 C 0.43944 0.47009 0.93761 0.0
C1695 C 0.43897 0.45839 0.91486 0.0
N1696 N 0.42067 0.42167 0.88626 0.0
N1697 N 0.4209 0.4662 0.97546 0.0
C1698 C 0.42329 0.43202 0.90926 0.0
C1699 C 0.42336 0.45519 0.95469 0.0
N1700 N 0.3984 0.39103 0.92403 0.0
N1701 N 0.45599 0.49524 0.94319 0.0
H1702 H 0.41001 0.45582 0.98875 0.0
H1703 H 0.42821 0.48557 0.97887 0.0
H1704 H 0.46766 0.50682 0.93095 0.0
H1705 H 0.45936 0.50438 0.96034 0.0
H1706 H 0.40034 0.38135 0.90922 0.0
H1707 H 0.38793 0.37921 0.93673 0.0
H1708 H 0.40754 0.40306 0.88034 0.0
H1709 H 0.43026 0.43224 0.87243 0.0
C1710 C 0.57511 0.98003 0.96346 0.0
C1711 C 0.56764 0.98661 0.98497 0.0
C1712 C 0.53783 0.99354 0.96147 0.0
C1713 C 0.54763 0.99018 0.94019 0.0
N1714 N 0.57635 0.98175 0.92031 0.0
N1715 N 0.54194 0.9992 0.00513 0.0
C1716 C 0.56623 0.98348 0.94098 0.0
C1717 C 0.54884 0.99306 0.98415 0.0
N1718 N 0.59093 0.9708 0.96445 0.0
N1719 N 0.51794 0.99704 0.95986 0.0
H1720 H 0.54837 0.99729 0.02199 0.0
H1721 H 0.53054 0.00695 0.00601 0.0
H1722 H 0.50991 0.99803 0.94348 0.0
H1723 H 0.50828 0.99728 0.97439 0.0
H1724 H 0.59466 0.96287 0.94948 0.0
H1725 H 0.59924 0.96939 0.98039 0.0
H1726 H 0.59228 0.98049 0.91995 0.0
H1727 H 0.56977 0.98321 0.90335 0.0
C1728 C 0.60083 0.01793 0.12976 0.0
C1729 C 0.58744 0.01399 0.10715 0.0
C1730 C 0.55165 0.00896 0.12744 0.0
C1731 C 0.56538 0.01396 0.14998 0.0
N1732 N 0.60423 0.02787 0.17288 0.0
N1733 N 0.55263 0.01172 0.08441 0.0
C1734 C 0.59041 0.02002 0.15121 0.0
C1735 C 0.56357 0.01128 0.10599 0.0
N1736 N 0.62277 0.01812 0.13088 0.0
N1737 N 0.52698 0.00116 0.12652 0.0
H1738 H 0.56114 0.01403 0.06841 0.0
H1739 H 0.53633 0.01234 0.0827 0.0
H1740 H 0.51768 -9e-05 0.14182 0.0
H1741 H 0.51532 0.99421 0.11069 0.0
H1742 H 0.63178 0.01776 0.14685 0.0
H1743 H 0.63116 0.01665 0.11574 0.0
H1744 H 0.62329 0.03518 0.17468 0.0
H1745 H 0.59696 0.02903 0.18899 0.0
C1746 C 0.97981 0.56354 0.09113 0.0
C1747 C 0.98348 0.58802 0.09669 0.0
C1748 C 0.98664 0.58361 0.13976 0.0
C1749 C 0.98305 0.55913 0.13423 0.0
N1750 N 0.97081 0.52344 0.10543 0.0
N1751 N 0.98454 0.61916 0.12548 0.0
C1752 C 0.9779 0.54834 0.11009 0.0
C1753 C 0.98488 0.59729 0.1208 0.0
N1754 N 0.97877 0.55515 0.06771 0.0
N1755 N 0.99301 0.59429 0.16298 0.0
H1756 H 0.98331 0.62955 0.1119 0.0
H1757 H 0.98326 0.62582 0.14254 0.0
H1758 H 0.99431 0.58481 0.17739 0.0
H1759 H 0.99868 0.6131 0.16785 0.0
H1760 H 0.97931 0.53893 0.06254 0.0
H1761 H 0.97845 0.56512 0.05332 0.0
H1762 H 0.96459 0.51373 0.08842 0.0
H1763 H 0.96917 0.5118 0.11897 0.0
C1764 C 0.4066 0.39435 0.08634 0.0
C1765 C 0.41818 0.40694 0.06611 0.0
C1766 C 0.45492 0.4375 0.0923 0.0
C1767 C 0.44203 0.42683 0.11262 0.0
N1768 N 0.40432 0.39745 0.12935 0.0
N1769 N 0.45265 0.44108 0.04934 0.0
C1770 C 0.4176 0.40571 0.10977 0.0
C1771 C 0.44219 0.42869 0.06894 0.0
N1772 N 0.38494 0.37164 0.08326 0.0
N1773 N 0.47945 0.45562 0.09538 0.0
H1774 H 0.4445 0.43429 0.03182 0.0
H1775 H 0.46875 0.45868 0.05047 0.0
H1776 H 0.48926 0.46225 0.11227 0.0
H1777 H 0.49059 0.4626 0.08127 0.0
H1778 H 0.37725 0.36027 0.09719 0.0
H1779 H 0.37544 0.3631 0.06655 0.0
H1780 H 0.38546 0.38427 0.12814 0.0
H1781 H 0.41155 0.40527 0.14689 0.0
C1782 C 0.65749 0.76424 0.40862 0.0
C1783 C 0.64337 0.73758 0.40321 0.0
C1784 C 0.62107 0.73368 0.43899 0.0
C1785 C 0.63453 0.76034 0.44375 0.0
N1786 N 0.65956 0.80104 0.42918 0.0
N1787 N 0.60657 0.69827 0.40897 0.0
C1788 C 0.65057 0.77561 0.42706 0.0
C1789 C 0.62343 0.72272 0.41701 0.0
N1790 N 0.67872 0.77858 0.39784 0.0
N1791 N 0.60721 0.71871 0.45591 0.0
H1792 H 0.6072 0.68996 0.39245 0.0
H1793 H 0.59051 0.68727 0.41736 0.0
H1794 H 0.60512 0.72586 0.47239 0.0
H1795 H 0.59941 0.69916 0.45434 0.0
H1796 H 0.6908 0.79766 0.40308 0.0
H1797 H 0.68588 0.77114 0.38562 0.0
H1798 H 0.66962 0.81281 0.41625 0.0
H1799 H 0.65467 0.80982 0.44257 0.0
C1800 C 0.23648 0.87894 0.44251 0.0
C1801 C 0.26045 0.90022 0.44845 0.0
C1802 C 0.25723 0.89217 0.49098 0.0
C1803 C 0.23216 0.87307 0.48536 0.0
N1804 N 0.1969 0.84915 0.45632 0.0
N1805 N 0.29322 0.92872 0.47839 0.0
C1806 C 0.22152 0.86655 0.46123 0.0
C1807 C 0.27089 0.90713 0.47267 0.0
N1808 N 0.22835 0.87019 0.41894 0.0
N1809 N 0.26802 0.89578 0.5138 0.0
H1810 H 0.30404 0.94004 0.46558 0.0
H1811 H 0.30031 0.93646 0.49595 0.0
H1812 H 0.25839 0.8854 0.52771 0.0
H1813 H 0.2869 0.90753 0.51851 0.0
H1814 H 0.21207 0.85334 0.41344 0.0
H1815 H 0.23908 0.87856 0.40481 0.0
H1816 H 0.18737 0.84568 0.4395 0.0
H1817 H 0.18542 0.83925 0.46947 0.0
C1818 C 0.12041 0.34681 0.4191 0.0
C1819 C 0.09556 0.34144 0.417 0.0
C1820 C 0.09342 0.33826 0.46048 0.0
C1821 C 0.11729 0.34096 0.46215 0.0
N1822 N 0.15398 0.34802 0.44392 0.0
N1823 N 0.05744 0.3302 0.43492 0.0
C1824 C 0.131 0.34545 0.44169 0.0
C1825 C 0.08188 0.33697 0.43754 0.0
N1826 N 0.13398 0.35388 0.3996 0.0
N1827 N 0.08194 0.33723 0.48096 0.0
H1828 H 0.04831 0.32949 0.41858 0.0
H1829 H 0.04558 0.32352 0.44853 0.0
H1830 H 0.08953 0.33744 0.49804 0.0
H1831 H 0.06583 0.33813 0.48139 0.0
H1832 H 0.15283 0.36022 0.40017 0.0
H1833 H 0.12671 0.3551 0.38288 0.0
H1834 H 0.16403 0.34854 0.42948 0.0
H1835 H 0.16278 0.34875 0.46049 0.0
C1836 C 0.06847 0.31368 0.26764 0.0
C1837 C 0.08164 0.31647 0.29011 0.0
C1838 C 0.11636 0.31921 0.2693 0.0
C1839 C 0.10289 0.31568 0.2469 0.0
N1840 N 0.06452 0.30433 0.22437 0.0
N1841 N 0.11525 0.31588 0.31229 0.0
C1842 C 0.07838 0.31117 0.24598 0.0
C1843 C 0.10477 0.31746 0.29092 0.0
N1844 N 0.04728 0.31494 0.26683 0.0
N1845 N 0.1405 0.32501 0.26993 0.0
H1846 H 0.10696 0.31396 0.32838 0.0
H1847 H 0.13084 0.31397 0.31373 0.0
H1848 H 0.14938 0.32563 0.25447 0.0
H1849 H 0.15224 0.33082 0.28566 0.0
H1850 H 0.03868 0.31625 0.25103 0.0
H1851 H 0.0392 0.31674 0.28208 0.0
H1852 H 0.04566 0.29808 0.22271 0.0
H1853 H 0.07141 0.3028 0.20814 0.0
C1854 C 0.70094 0.78035 0.30885 0.0
C1855 C 0.69733 0.75585 0.3036 0.0
C1856 C 0.703 0.7635 0.26119 0.0
C1857 C 0.70241 0.78607 0.26581 0.0
N1858 N 0.69965 0.81585 0.29352 0.0
N1859 N 0.69538 0.72378 0.27533 0.0
C1860 C 0.70151 0.79474 0.28958 0.0
C1861 C 0.69876 0.74743 0.27993 0.0
N1862 N 0.70341 0.78965 0.3322 0.0
N1863 N 0.7078 0.75764 0.2389 0.0
H1864 H 0.69395 0.71224 0.28892 0.0
H1865 H 0.69303 0.71516 0.25812 0.0
H1866 H 0.71101 0.76915 0.22487 0.0
H1867 H 0.71065 0.74263 0.23479 0.0
H1868 H 0.70845 0.80826 0.33732 0.0
H1869 H 0.70258 0.77941 0.34671 0.0
H1870 H 0.69586 0.82143 0.30992 0.0
H1871 H 0.70022 0.82706 0.27994 0.0
C1872 C 0.22678 0.89931 0.33024 0.0
C1873 C 0.24898 0.92306 0.33355 0.0
C1874 C 0.24523 0.92898 0.29087 0.0
C1875 C 0.22514 0.90381 0.28704 0.0
N1876 N 0.19669 0.86444 0.30226 0.0
N1877 N 0.28076 0.96002 0.31693 0.0
C1878 C 0.21571 0.88885 0.30655 0.0
C1879 C 0.25839 0.93802 0.31394 0.0
N1880 N 0.21609 0.88709 0.34985 0.0
N1881 N 0.25186 0.94414 0.27234 0.0
H1882 H 0.29119 0.96757 0.33341 0.0
H1883 H 0.29011 0.96994 0.30274 0.0
H1884 H 0.24327 0.93789 0.25493 0.0
H1885 H 0.26448 0.96346 0.27454 0.0
H1886 H 0.19877 0.87079 0.34894 0.0
H1887 H 0.22364 0.89454 0.36743 0.0
H1888 H 0.19075 0.85155 0.31521 0.0
H1889 H 0.18756 0.85658 0.28523 0.0
C1890 C 0.66098 0.92196 0.30415 0.0
C1891 C 0.67495 0.92713 0.3266 0.0
C1892 C 0.69865 0.9091 0.30946 0.0
C1893 C 0.68395 0.90294 0.28733 0.0
N1894 N 0.65007 0.90166 0.26355 0.0
N1895 N 0.70453 0.92289 0.35203 0.0
C1896 C 0.66478 0.90883 0.28469 0.0
C1897 C 0.69323 0.9201 0.32962 0.0
N1898 N 0.64475 0.93054 0.30117 0.0
N1899 N 0.71788 0.90455 0.31107 0.0
H1900 H 0.70086 0.93071 0.36719 0.0
H1901 H 0.71614 0.91585 0.35612 0.0
H1902 H 0.72149 0.89525 0.29709 0.0
H1903 H 0.73112 0.91113 0.32567 0.0
H1904 H 0.63649 0.93059 0.28461 0.0
H1905 H 0.64048 0.93916 0.31517 0.0
H1906 H 0.63377 0.9022 0.26138 0.0
H1907 H 0.65334 0.89383 0.24818 0.0
C1908 C 0.06792 0.75671 0.25827 0.0
C1909 C 0.07422 0.76744 0.28249 0.0
C1910 C 0.10959 0.80589 0.27049 0.0
C1911 C 0.10335 0.79513 0.2463 0.0
N1912 N 0.07443 0.76286 0.21612 0.0
N1913 N 0.09737 0.80359 0.31128 0.0
C1914 C 0.0817 0.77137 0.23985 0.0
C1915 C 0.09397 0.79251 0.28847 0.0
N1916 N 0.04971 0.73204 0.25308 0.0
N1917 N 0.13085 0.82859 0.27631 0.0
H1918 H 0.08607 0.79426 0.32476 0.0
H1919 H 0.10992 0.82256 0.31641 0.0
H1920 H 0.14206 0.83952 0.26345 0.0
H1921 H 0.13813 0.8361 0.29387 0.0
H1922 H 0.04624 0.7221 0.23633 0.0
H1923 H 0.03889 0.72081 0.26596 0.0
H1924 H 0.0575 0.74702 0.21003 0.0
H1925 H 0.08455 0.77274 0.20221 0.0
C1926 C 0.21262 0.30958 0.31229 0.0
C1927 C 0.23795 0.32793 0.3182 0.0
C1928 C 0.2408 0.34269 0.27805 0.0
C1929 C 0.21504 0.32584 0.2728 0.0
N1930 N 0.17549 0.29565 0.28562 0.0
N1931 N 0.27502 0.36524 0.30844 0.0
C1932 C 0.20064 0.30989 0.29012 0.0
C1933 C 0.25166 0.34557 0.30166 0.0
N1934 N 0.20009 0.29186 0.32784 0.0
N1935 N 0.25517 0.35508 0.26016 0.0
H1936 H 0.28431 0.3678 0.32521 0.0
H1937 H 0.28459 0.38022 0.29802 0.0
H1938 H 0.24804 0.35328 0.24246 0.0
H1939 H 0.27444 0.36521 0.26225 0.0
H1940 H 0.18247 0.27629 0.32349 0.0
H1941 H 0.2079 0.29196 0.34477 0.0
H1942 H 0.16363 0.2857 0.29845 0.0
H1943 H 0.16622 0.29525 0.26946 0.0
C1944 C 0.22846 0.33899 0.43984 0.0
C1945 C 0.25293 0.34324 0.44126 0.0
C1946 C 0.25479 0.3479 0.48535 0.0
C1947 C 0.22934 0.34038 0.48374 0.0
N1948 N 0.19084 0.32542 0.45959 0.0
N1949 N 0.28854 0.34854 0.46541 0.0
C1950 C 0.21586 0.33502 0.46102 0.0
C1951 C 0.26605 0.34715 0.46403 0.0
N1952 N 0.21756 0.33965 0.41833 0.0
N1953 N 0.26818 0.3557 0.50724 0.0
H1954 H 0.29745 0.34786 0.45038 0.0
H1955 H 0.29754 0.34829 0.48144 0.0
H1956 H 0.2603 0.35562 0.52328 0.0
H1957 H 0.28737 0.36404 0.50935 0.0
H1958 H 0.2007 0.33916 0.41662 0.0
H1959 H 0.22656 0.34339 0.40255 0.0
H1960 H 0.17962 0.31803 0.4435 0.0
H1961 H 0.18095 0.32302 0.47466 0.0
C1962 C 0.62354 0.89284 0.4343 0.0
C1963 C 0.64205 0.91875 0.43814 0.0
C1964 C 0.65171 0.91288 0.47944 0.0
C1965 C 0.63581 0.88648 0.47445 0.0
N1966 N 0.60775 0.85064 0.44689 0.0
N1967 N 0.67542 0.95335 0.46345 0.0
C1968 C 0.62176 0.87625 0.4519 0.0
C1969 C 0.65653 0.92879 0.46051 0.0
N1970 N 0.60792 0.88405 0.41372 0.0
N1971 N 0.66188 0.92271 0.50239 0.0
H1972 H 0.67919 0.96579 0.45023 0.0
H1973 H 0.68844 0.96094 0.47829 0.0
H1974 H 0.65864 0.91152 0.5167 0.0
H1975 H 0.6716 0.94198 0.50774 0.0
H1976 H 0.59242 0.86601 0.41096 0.0
H1977 H 0.60937 0.8954 0.39996 0.0
H1978 H 0.59939 0.84186 0.42988 0.0
H1979 H 0.60576 0.83793 0.45943 0.0
C1980 C 0.07201 0.75761 0.41954 0.0
C1981 C 0.08446 0.75405 0.40047 0.0
C1982 C 0.12202 0.76982 0.42784 0.0
C1983 C 0.10864 0.7707 0.44724 0.0
N1984 N 0.06975 0.76099 0.46252 0.0
N1985 N 0.12064 0.75498 0.38636 0.0
C1986 C 0.08333 0.76342 0.44335 0.0
C1987 C 0.10928 0.75954 0.40462 0.0
N1988 N 0.04945 0.75566 0.41503 0.0
N1989 N 0.14702 0.77957 0.4315 0.0
H1990 H 0.11251 0.74909 0.36876 0.0
H1991 H 0.13759 0.75577 0.38886 0.0
H1992 H 0.15682 0.78709 0.44832 0.0
H1993 H 0.15835 0.78199 0.41769 0.0
H1994 H 0.04105 0.76104 0.42784 0.0
H1995 H 0.03981 0.75059 0.39811 0.0
H1996 H 0.05057 0.75277 0.46092 0.0
H1997 H 0.07727 0.76497 0.48032 0.0
C1998 C 0.30577 0.05382 0.76193 0.0
C1999 C 0.31537 0.06723 0.74153 0.0
C2000 C 0.3131 0.10322 0.75949 0.0
C2001 C 0.30647 0.09106 0.78096 0.0
N2002 N 0.29759 0.05565 0.80371 0.0
N2003 N 0.32827 0.10429 0.72017 0.0
C2004 C 0.30273 0.06642 0.78237 0.0
C2005 C 0.31893 0.09181 0.74004 0.0
N2006 N 0.29986 0.02916 0.76186 0.0
N2007 N 0.31347 0.12551 0.75775 0.0
H2008 H 0.33109 0.09582 0.70493 0.0
H2009 H 0.33413 0.12328 0.71898 0.0
H2010 H 0.3093 0.13425 0.7718 0.0
H2011 H 0.31603 0.13445 0.74199 0.0
H2012 H 0.29013 0.01745 0.77493 0.0
H2013 H 0.30318 0.01965 0.74786 0.0
H2014 H 0.29777 0.03924 0.80695 0.0
H2015 H 0.2945 0.06393 0.8189 0.0
C2016 C 0.93787 0.23816 0.80504 0.0
C2017 C 0.92812 0.23062 0.78065 0.0
C2018 C 0.88957 0.19592 0.79288 0.0
C2019 C 0.89953 0.20299 0.81721 0.0
N2020 N 0.93441 0.22743 0.8464 0.0
N2021 N 0.89761 0.19918 0.75088 0.0
C2022 C 0.92415 0.22303 0.82326 0.0
C2023 C 0.90483 0.20849 0.77444 0.0
N2024 N 0.95953 0.26044 0.81091 0.0
N2025 N 0.86522 0.17791 0.78745 0.0
H2026 H 0.9086 0.20771 0.73695 0.0
H2027 H 0.88197 0.18177 0.74534 0.0
H2028 H 0.85346 0.16797 0.80041 0.0
H2029 H 0.85613 0.17412 0.77035 0.0
H2030 H 0.96604 0.26852 0.82847 0.0
H2031 H 0.97032 0.27185 0.79811 0.0
H2032 H 0.95305 0.24005 0.85156 0.0
H2033 H 0.9247 0.21691 0.8602 0.0
C2034 C 0.74704 0.65028 0.76208 0.0
C2035 C 0.75999 0.66967 0.74673 0.0
C2036 C 0.79626 0.68938 0.77631 0.0
C2037 C 0.78219 0.67168 0.79261 0.0
N2038 N 0.74265 0.63849 0.80289 0.0
N2039 N 0.79625 0.70883 0.73966 0.0
C2040 C 0.75717 0.65297 0.786 0.0
C2041 C 0.7844 0.68965 0.75403 0.0
N2042 N 0.72511 0.62913 0.75394 0.0
N2043 N 0.8211 0.70529 0.78179 0.0
H2044 H 0.78878 0.70886 0.7226 0.0
H2045 H 0.81285 0.72535 0.74515 0.0
H2046 H 0.83032 0.7055 0.79792 0.0
H2047 H 0.83294 0.71679 0.76967 0.0
H2048 H 0.71656 0.61324 0.76349 0.0
H2049 H 0.7162 0.62644 0.73694 0.0
H2050 H 0.72355 0.62666 0.79978 0.0
H2051 H 0.74917 0.64007 0.82078 0.0
C2052 C 0.75181 0.67738 0.60563 0.0
C2053 C 0.74918 0.65978 0.62237 0.0
C2054 C 0.77055 0.64449 0.59684 0.0
C2055 C 0.77114 0.66054 0.5792 0.0
N2056 N 0.75755 0.68808 0.56446 0.0
N2057 N 0.75302 0.62424 0.6327 0.0
C2058 C 0.7603 0.67572 0.58291 0.0
C2059 C 0.75742 0.64244 0.61748 0.0
N2060 N 0.74684 0.69615 0.61157 0.0
N2061 N 0.78366 0.63231 0.59453 0.0
H2062 H 0.74469 0.623 0.64867 0.0
H2063 H 0.75611 0.60936 0.62871 0.0
H2064 H 0.79374 0.63354 0.57986 0.0
H2065 H 0.7863 0.62271 0.60808 0.0
H2066 H 0.75103 0.71107 0.60109 0.0
H2067 H 0.7405 0.69817 0.62794 0.0
H2068 H 0.74744 0.69728 0.56529 0.0
H2069 H 0.76329 0.68702 0.54744 0.0
C2070 C 0.36131 0.10842 0.64004 0.0
C2071 C 0.3578 0.08397 0.63474 0.0
C2072 C 0.36172 0.09112 0.5921 0.0
C2073 C 0.36149 0.11386 0.59701 0.0
N2074 N 0.35925 0.14367 0.62516 0.0
N2075 N 0.35287 0.0509 0.60572 0.0
C2076 C 0.36103 0.12254 0.62089 0.0
C2077 C 0.35787 0.0751 0.6108 0.0
N2078 N 0.36551 0.11832 0.66343 0.0
N2079 N 0.36579 0.08501 0.56957 0.0
H2080 H 0.35027 0.03864 0.61889 0.0
H2081 H 0.34961 0.04232 0.58832 0.0
H2082 H 0.36849 0.0963 0.55544 0.0
H2083 H 0.36863 0.07 0.56536 0.0
H2084 H 0.3705 0.13693 0.66846 0.0
H2085 H 0.36639 0.10862 0.67784 0.0
H2086 H 0.35591 0.14926 0.6418 0.0
H2087 H 0.3594 0.15479 0.61166 0.0
C2088 C 0.90973 0.2298 0.65134 0.0
C2089 C 0.91782 0.25467 0.66161 0.0
C2090 C 0.90498 0.26458 0.62359 0.0
C2091 C 0.89521 0.23919 0.61412 0.0
N2092 N 0.88188 0.1961 0.62146 0.0
N2093 N 0.91712 0.29343 0.65945 0.0
C2094 C 0.89541 0.22128 0.62888 0.0
C2095 C 0.91359 0.27139 0.64833 0.0
N2096 N 0.91717 0.21488 0.6619 0.0
N2097 N 0.90713 0.28246 0.60883 0.0
H2098 H 0.92247 0.29858 0.67777 0.0
H2099 H 0.91217 0.30519 0.65111 0.0
H2100 H 0.90133 0.27835 0.59054 0.0
H2101 H 0.91661 0.3017 0.61433 0.0
H2102 H 0.91366 0.19765 0.65367 0.0
H2103 H 0.92924 0.22074 0.6774 0.0
H2104 H 0.8796 0.18212 0.63255 0.0
H2105 H 0.87082 0.18916 0.6052 0.0
C2106 C 0.35406 0.27446 0.63665 0.0
C2107 C 0.35142 0.26441 0.65928 0.0
C2108 C 0.3576 0.23064 0.64202 0.0
C2109 C 0.35716 0.23892 0.61892 0.0
N2110 N 0.3514 0.26642 0.59347 0.0
N2111 N 0.34941 0.23251 0.68385 0.0
C2112 C 0.35467 0.26037 0.61602 0.0
C2113 C 0.35287 0.24237 0.66208 0.0
N2114 N 0.35579 0.29737 0.63479 0.0
N2115 N 0.36307 0.21196 0.64477 0.0
H2116 H 0.34742 0.24143 0.69928 0.0
H2117 H 0.34727 0.21491 0.68644 0.0
H2118 H 0.36665 0.20308 0.63038 0.0
H2119 H 0.36603 0.20662 0.66138 0.0
H2120 H 0.36056 0.30694 0.61935 0.0
H2121 H 0.35437 0.3079 0.64921 0.0
H2122 H 0.34641 0.27985 0.59016 0.0
H2123 H 0.35158 0.25658 0.5778 0.0
C2124 C 0.74657 0.08533 0.5921 0.0
C2125 C 0.74549 0.09714 0.61417 0.0
C2126 C 0.77448 0.1388 0.60144 0.0
C2127 C 0.77478 0.127 0.57903 0.0
N2128 N 0.75789 0.08993 0.551 0.0
N2129 N 0.75515 0.13484 0.63883 0.0
C2130 C 0.75981 0.1005 0.57375 0.0
C2131 C 0.75835 0.12384 0.61846 0.0
N2132 N 0.73537 0.0596 0.58889 0.0
N2133 N 0.79034 0.16414 0.60675 0.0
H2134 H 0.74423 0.12446 0.6521 0.0
H2135 H 0.76187 0.15413 0.64188 0.0
H2136 H 0.80205 0.17573 0.59454 0.0
H2137 H 0.79315 0.17348 0.6237 0.0
H2138 H 0.73788 0.04994 0.57446 0.0
H2139 H 0.72468 0.04778 0.60151 0.0
H2140 H 0.74526 0.07114 0.54521 0.0
H2141 H 0.76756 0.10044 0.53717 0.0
C2142 C 0.88154 0.66391 0.6486 0.0
C2143 C 0.90118 0.65868 0.64967 0.0
C2144 C 0.89886 0.65367 0.60563 0.0
C2145 C 0.87905 0.65862 0.60458 0.0
N2146 N 0.8487 0.66449 0.62412 0.0
N2147 N 0.92647 0.64509 0.62975 0.0
C2148 C 0.86948 0.66249 0.62583 0.0
C2149 C 0.90907 0.65229 0.62834 0.0
N2150 N 0.87475 0.67061 0.66935 0.0
N2151 N 0.9086 0.65137 0.58488 0.0
H2152 H 0.93585 0.64552 0.6458 0.0
H2153 H 0.93069 0.63715 0.61515 0.0
H2154 H 0.90099 0.65115 0.56781 0.0
H2155 H 0.92506 0.65116 0.5844 0.0
H2156 H 0.86258 0.67745 0.66985 0.0
H2157 H 0.88218 0.67038 0.68636 0.0
H2158 H 0.83922 0.66491 0.63874 0.0
H2159 H 0.83979 0.66398 0.60767 0.0
C2160 C 0.93039 0.68511 0.7941 0.0
C2161 C 0.91737 0.68244 0.77162 0.0
C2162 C 0.8826 0.67988 0.79216 0.0
C2163 C 0.89602 0.6835 0.81463 0.0
N2164 N 0.9343 0.69467 0.8373 0.0
N2165 N 0.88363 0.68228 0.749 0.0
C2166 C 0.92047 0.68776 0.81568 0.0
C2167 C 0.89421 0.68134 0.77059 0.0
N2168 N 0.95149 0.68369 0.79492 0.0
N2169 N 0.85846 0.67412 0.79143 0.0
H2170 H 0.8918 0.68353 0.73292 0.0
H2171 H 0.86801 0.6841 0.74725 0.0
H2172 H 0.84943 0.67329 0.80683 0.0
H2173 H 0.8468 0.66847 0.77565 0.0
H2174 H 0.96009 0.68239 0.81073 0.0
H2175 H 0.95947 0.68179 0.7796 0.0
H2176 H 0.9531 0.70065 0.83901 0.0
H2177 H 0.92749 0.69654 0.85348 0.0
C2178 C 0.29775 0.224 0.76504 0.0
C2179 C 0.31388 0.25047 0.76946 0.0
C2180 C 0.32069 0.24588 0.81195 0.0
C2181 C 0.30714 0.2193 0.80687 0.0
N2182 N 0.28448 0.18256 0.7785 0.0
N2183 N 0.34268 0.28677 0.79629 0.0
C2184 C 0.29588 0.20817 0.78343 0.0
C2185 C 0.32586 0.26148 0.79271 0.0
N2186 N 0.28443 0.21402 0.74323 0.0
N2187 N 0.32821 0.25614 0.83524 0.0
H2188 H 0.3465 0.29895 0.78281 0.0
H2189 H 0.35412 0.29543 0.81209 0.0
H2190 H 0.32469 0.24519 0.84977 0.0
H2191 H 0.33595 0.27531 0.84042 0.0
H2192 H 0.2704 0.19525 0.73973 0.0
H2193 H 0.28617 0.2249 0.72897 0.0
H2194 H 0.27849 0.17347 0.76122 0.0
H2195 H 0.28247 0.17034 0.79157 0.0
C2196 C 0.74058 0.06157 0.75054 0.0
C2197 C 0.75314 0.07353 0.73045 0.0
C2198 C 0.79061 0.10154 0.75696 0.0
C2199 C 0.77705 0.09169 0.77714 0.0
N2200 N 0.73816 0.06498 0.7935 0.0
N2201 N 0.78942 0.10573 0.71407 0.0
C2202 C 0.75183 0.07224 0.77405 0.0
C2203 C 0.77801 0.09377 0.73352 0.0
N2204 N 0.71782 0.04009 0.74725 0.0
N2205 N 0.8156 0.11783 0.76027 0.0
H2206 H 0.7812 0.09962 0.6965 0.0
H2207 H 0.80645 0.12244 0.71539 0.0
H2208 H 0.8253 0.1236 0.77724 0.0
H2209 H 0.82702 0.12397 0.74626 0.0
H2210 H 0.70916 0.02899 0.76108 0.0
H2211 H 0.70824 0.03215 0.73046 0.0
H2212 H 0.719 0.05329 0.79211 0.0
H2213 H 0.74558 0.07229 0.8111 0.0
C2214 C 0.07751 0.36561 0.05933 0.0
C2215 C 0.05145 0.34933 0.05806 0.0
C2216 C 0.05664 0.32618 0.09006 0.0
C2217 C 0.08268 0.34088 0.08957 0.0
N2218 N 0.11754 0.37 0.06903 0.0
N2219 N 0.0168 0.30999 0.06785 0.0
C2220 C 0.09302 0.35919 0.07273 0.0
C2221 C 0.04114 0.32839 0.07218 0.0
N2222 N 0.08757 0.38794 0.049 0.0
N2223 N 0.04667 0.3107 0.10798 0.0
H2224 H 0.00512 0.31009 0.054 0.0
H2225 H 0.009 0.29323 0.07617 0.0
H2226 H 0.05744 0.30883 0.12161 0.0
H2227 H 0.02787 0.30157 0.11055 0.0
H2228 H 0.10634 0.40149 0.05155 0.0
H2229 H 0.077 0.39429 0.04013 0.0
H2230 H 0.12541 0.38154 0.05523 0.0
H2231 H 0.12942 0.36532 0.07805 0.0
C2232 C 0.65503 0.68874 0.12519 0.0
C2233 C 0.65668 0.68733 0.09998 0.0
C2234 C 0.67206 0.73264 0.09995 0.0
C2235 C 0.67143 0.73423 0.12528 0.0
N2236 N 0.66724 0.71542 0.1627 0.0
N2237 N 0.67197 0.70847 0.06423 0.0
C2238 C 0.66456 0.71276 0.13814 0.0
C2239 C 0.66675 0.70946 0.08759 0.0
N2240 N 0.64306 0.6671 0.13653 0.0
N2241 N 0.6768 0.75299 0.0876 0.0
H2242 H 0.66874 0.69189 0.0547 0.0
H2243 H 0.68163 0.72444 0.05501 0.0
H2244 H 0.68139 0.77052 0.09602 0.0
H2245 H 0.67451 0.75206 0.06893 0.0
H2246 H 0.63894 0.66683 0.15436 0.0
H2247 H 0.63525 0.64912 0.12757 0.0
H2248 H 0.66492 0.70097 0.17313 0.0
H2249 H 0.67396 0.73278 0.17267 0.0
C2250 C 0.33383 0.94357 0.07841 0.0
C2251 C 0.32798 0.94499 0.05396 0.0
C2252 C 0.28386 0.91711 0.05842 0.0
C2253 C 0.28955 0.91857 0.08354 0.0
N2254 N 0.31945 0.93429 0.11811 0.0
N2255 N 0.29782 0.93459 0.02051 0.0
C2256 C 0.31443 0.93197 0.09373 0.0
C2257 C 0.3031 0.93188 0.04378 0.0
N2258 N 0.35797 0.95288 0.08677 0.0
N2259 N 0.2601 0.90148 0.04862 0.0
H2260 H 0.3115 0.94476 0.00913 0.0
H2261 H 0.27996 0.92805 0.01283 0.0
H2262 H 0.24549 0.89084 0.05893 0.0
H2263 H 0.25513 0.89756 0.03021 0.0
H2264 H 0.36345 0.95054 0.10385 0.0
H2265 H 0.37251 0.961 0.07578 0.0
H2266 H 0.33694 0.94627 0.12688 0.0
H2267 H 0.30577 0.92548 0.12988 0.0
C2268 C 0.34913 0.03677 0.96632 0.0
C2269 C 0.35555 0.03941 0.99146 0.0
C2270 C 0.34148 0.06994 0.99746 0.0
C2271 C 0.33734 0.069 0.97221 0.0
N2272 N 0.34004 0.05433 0.93221 0.0
N2273 N 0.35867 0.05872 0.03121 0.0
C2274 C 0.34179 0.05306 0.95653 0.0
C2275 C 0.35203 0.05613 0.00711 0.0
N2276 N 0.34995 0.01866 0.95171 0.0
N2277 N 0.3346 0.08346 0.01215 0.0
H2278 H 0.36438 0.04739 0.03931 0.0
H2279 H 0.35953 0.07275 0.04317 0.0
H2280 H 0.32702 0.0939 0.00556 0.0
H2281 H 0.33469 0.08301 0.03072 0.0
H2282 H 0.34249 0.01371 0.9339 0.0
H2283 H 0.35652 0.00716 0.95762 0.0
H2284 H 0.34606 0.04569 0.91992 0.0
H2285 H 0.33428 0.06567 0.92428 0.0
C2286 C 0.94881 0.29291 0.95553 0.0
C2287 C 0.95377 0.29445 0.9808 0.0
C2288 C 0.9216 0.25011 0.98143 0.0
C2289 C 0.91771 0.24827 0.95603 0.0
N2290 N 0.93045 0.26597 0.91834 0.0
N2291 N 0.9486 0.27369 0.01725 0.0
C2292 C 0.93231 0.26907 0.94289 0.0
C2293 C 0.94121 0.27279 0.99363 0.0
N2294 N 0.95868 0.31441 0.94382 0.0
N2295 N 0.90609 0.23045 0.99393 0.0
H2296 H 0.96308 0.28993 0.02671 0.0
H2297 H 0.9419 0.25785 0.0269 0.0
H2298 H 0.89197 0.21323 0.98557 0.0
H2299 H 0.9061 0.23174 0.01257 0.0
H2300 H 0.95369 0.31476 0.92588 0.0
H2301 H 0.97013 0.33237 0.95255 0.0
H2302 H 0.94245 0.27972 0.90782 0.0
H2303 H 0.91824 0.24879 0.9085 0.0
C2304 C 0.71243 0.63196 0.03489 0.0
C2305 C 0.68926 0.62651 0.02374 0.0
C2306 C 0.70585 0.63258 0.98435 0.0
C2307 C 0.72854 0.63644 0.99522 0.0
N2308 N 0.75225 0.63542 0.02994 0.0
N2309 N 0.66202 0.61532 0.98759 0.0
C2310 C 0.73149 0.6348 0.02027 0.0
C2311 C 0.68542 0.62497 0.99836 0.0
N2312 N 0.71657 0.6355 0.05939 0.0
N2313 N 0.70406 0.63703 0.96084 0.0
H2314 H 0.64643 0.60857 0.99726 0.0
H2315 H 0.65773 0.61149 0.96906 0.0
H2316 H 0.71865 0.64277 0.94991 0.0
H2317 H 0.68883 0.6372 0.95276 0.0
H2318 H 0.73392 0.64229 0.06849 0.0
H2319 H 0.70302 0.63346 0.07066 0.0
H2320 H 0.75436 0.6317 0.04757 0.0
H2321 H 0.7666 0.63761 0.01975 0.0
C2322 C 0.94108 0.66122 0.00757 0.0
C2323 C 0.95472 0.65078 0.99764 0.0
C2324 C 0.93919 0.65218 0.95699 0.0
C2325 C 0.92347 0.6599 0.96704 0.0
N2326 N 0.90638 0.66795 0.00195 0.0
N2327 N 0.96361 0.63216 0.96322 0.0
C2328 C 0.92359 0.66343 0.99237 0.0
C2329 C 0.95306 0.64525 0.9724 0.0
N2330 N 0.94547 0.6699 0.03135 0.0
N2331 N 0.9411 0.65181 0.93274 0.0
H2332 H 0.97308 0.62586 0.97398 0.0
H2333 H 0.96095 0.62539 0.94521 0.0
H2334 H 0.9311 0.65671 0.92096 0.0
H2335 H 0.95414 0.64886 0.92459 0.0
H2336 H 0.938 0.68014 0.03899 0.0
H2337 H 0.95842 0.66899 0.04303 0.0
H2338 H 0.90373 0.66776 0.02019 0.0
H2339 H 0.8933 0.66983 0.99146 0.0
C2340 C 0.33741 0.28996 0.98028 0.0
C2341 C 0.34133 0.31 0.96626 0.0
C2342 C 0.32605 0.28062 0.92977 0.0
C2343 C 0.32569 0.26172 0.94346 0.0
N2344 N 0.33393 0.24903 0.98131 0.0
N2345 N 0.34122 0.32516 0.92729 0.0
C2346 C 0.33205 0.26649 0.96864 0.0
C2347 C 0.33589 0.30552 0.9409 0.0
N2348 N 0.33788 0.29305 0.00474 0.0
N2349 N 0.31666 0.27463 0.90624 0.0
H2350 H 0.34797 0.34358 0.93463 0.0
H2351 H 0.34057 0.32358 0.9086 0.0
H2352 H 0.30947 0.25658 0.89755 0.0
H2353 H 0.31402 0.28682 0.89594 0.0
H2354 H 0.33272 0.27832 0.01569 0.0
H2355 H 0.3408 0.30968 0.01392 0.0
H2356 H 0.3413 0.25272 0.99913 0.0
H2357 H 0.33002 0.23149 0.97353 0.0
C2358 C 0.6701 0.04046 0.98192 0.0
C2359 C 0.67489 0.04456 0.00732 0.0
C2360 C 0.71769 0.07732 0.00305 0.0
C2361 C 0.71367 0.07073 0.97785 0.0
N2362 N 0.68715 0.04303 0.94359 0.0
N2363 N 0.70405 0.06441 0.04233 0.0
C2364 C 0.69016 0.05145 0.96733 0.0
C2365 C 0.69889 0.06243 0.01802 0.0
N2366 N 0.64627 0.02696 0.97171 0.0
N2367 N 0.7392 0.09818 0.01259 0.0
H2368 H 0.69085 0.05368 0.05389 0.0
H2369 H 0.72187 0.07512 0.05081 0.0
H2370 H 0.75333 0.10963 0.00217 0.0
H2371 H 0.74211 0.10541 0.03048 0.0
H2372 H 0.64157 0.02539 0.95332 0.0
H2373 H 0.63098 0.01966 0.98181 0.0
H2374 H 0.67106 0.02722 0.93565 0.0
H2375 H 0.70148 0.05035 0.93229 0.0
C2376 C 0.63535 0.95002 0.09963 0.0
C2377 C 0.63472 0.95081 0.07433 0.0
C2378 C 0.64651 0.91843 0.07047 0.0
C2379 C 0.64955 0.91961 0.09587 0.0
N2380 N 0.65145 0.93985 0.13478 0.0
N2381 N 0.64347 0.93898 0.03575 0.0
C2382 C 0.64533 0.93641 0.11052 0.0
C2383 C 0.64125 0.93583 0.0597 0.0
N2384 N 0.62535 0.96129 0.11317 0.0
N2385 N 0.64807 0.90031 0.05668 0.0
H2386 H 0.64008 0.95177 0.02725 0.0
H2387 H 0.65072 0.93055 0.02473 0.0
H2388 H 0.65218 0.88745 0.06399 0.0
H2389 H 0.64338 0.89673 0.0382 0.0
H2390 H 0.62309 0.95919 0.13139 0.0
H2391 H 0.6169 0.97057 0.10573 0.0
H2392 H 0.65128 0.95386 0.14596 0.0
H2393 H 0.65888 0.93026 0.14347 0.0
C2394 C 0.04858 0.70817 0.10564 0.0
C2395 C 0.04863 0.70525 0.08028 0.0
C2396 C 0.0854 0.74728 0.08127 0.0
C2397 C 0.08427 0.7509 0.10636 0.0
N2398 N 0.06194 0.7372 0.14158 0.0
N2399 N 0.0632 0.7242 0.04337 0.0
C2400 C 0.06489 0.73209 0.11828 0.0
C2401 C 0.06589 0.72547 0.0679 0.0
N2402 N 0.03409 0.68781 0.11786 0.0
N2403 N 0.1056 0.76406 0.07036 0.0
H2404 H 0.04869 0.70882 0.03294 0.0
H2405 H 0.0738 0.73944 0.03356 0.0
H2406 H 0.12046 0.78023 0.07947 0.0
H2407 H 0.10864 0.76081 0.05271 0.0
H2408 H 0.03528 0.68831 0.13654 0.0
H2409 H 0.02252 0.66974 0.10943 0.0
H2410 H 0.04669 0.72511 0.15046 0.0
H2411 H 0.07356 0.7546 0.15133 0.0
C2412 C 0.29062 0.36813 0.03186 0.0
C2413 C 0.31457 0.3751 0.04209 0.0
C2414 C 0.30026 0.37103 0.08247 0.0
C2415 C 0.27664 0.36534 0.07241 0.0
N2416 N 0.25048 0.36327 0.03828 0.0
N2417 N 0.34388 0.38963 0.07705 0.0
C2418 C 0.27217 0.36539 0.04729 0.0
C2419 C 0.31989 0.37848 0.06741 0.0
N2420 N 0.28516 0.36298 0.00754 0.0
N2421 N 0.30372 0.3684 0.10624 0.0
H2422 H 0.35882 0.39624 0.0665 0.0
H2423 H 0.34916 0.39473 0.09536 0.0
H2424 H 0.28979 0.36291 0.11795 0.0
H2425 H 0.31977 0.36954 0.1139 0.0
H2426 H 0.2673 0.35504 0.99924 0.0
H2427 H 0.29821 0.36492 0.99567 0.0
H2428 H 0.24714 0.36574 0.0205 0.0
H2429 H 0.23655 0.36115 0.04907 0.0
C2430 C 0.70906 0.67327 0.41208 0.0
C2431 C 0.719 0.69319 0.39677 0.0
C2432 C 0.76092 0.70297 0.41001 0.0
C2433 C 0.75106 0.6851 0.42732 0.0
N2434 N 0.71608 0.65626 0.44773 0.0
N2435 N 0.75457 0.73005 0.38437 0.0
C2436 C 0.7252 0.67113 0.42922 0.0
C2437 C 0.745 0.70887 0.39653 0.0
N2438 N 0.68437 0.65563 0.40947 0.0
N2439 N 0.78534 0.71372 0.40586 0.0
H2440 H 0.74359 0.73545 0.37475 0.0
H2441 H 0.77335 0.74355 0.38571 0.0
H2442 H 0.79763 0.7099 0.41533 0.0
H2443 H 0.79287 0.72465 0.3916 0.0
H2444 H 0.6766 0.63934 0.41852 0.0
H2445 H 0.67202 0.65577 0.3964 0.0
H2446 H 0.69761 0.64774 0.45147 0.0
H2447 H 0.72739 0.65429 0.46069 0.0
C2448 C 0.32254 0.01956 0.45979 0.0
C2449 C 0.32418 0.01782 0.43459 0.0
C2450 C 0.33815 0.06274 0.43366 0.0
C2451 C 0.33724 0.06464 0.45894 0.0
N2452 N 0.33375 0.0468 0.49683 0.0
N2453 N 0.339 0.03845 0.39852 0.0
C2454 C 0.33118 0.04364 0.47227 0.0
C2455 C 0.33366 0.03966 0.42181 0.0
N2456 N 0.31138 0.99812 0.47152 0.0
N2457 N 0.34235 0.08268 0.42088 0.0
H2458 H 0.33633 0.0219 0.38939 0.0
H2459 H 0.34824 0.05426 0.389 0.0
H2460 H 0.3464 0.10017 0.42895 0.0
H2461 H 0.34019 0.08141 0.40219 0.0
H2462 H 0.30721 0.99796 0.48933 0.0
H2463 H 0.30438 0.9801 0.46294 0.0
H2464 H 0.332 0.03281 0.50762 0.0
H2465 H 0.33978 0.06421 0.50644 0.0
C2466 C 0.99238 0.27234 0.40331 0.0
C2467 C 0.98932 0.28026 0.38073 0.0
C2468 C 0.94447 0.25891 0.38321 0.0
C2469 C 0.94796 0.25387 0.4071 0.0
N2470 N 0.9756 0.25925 0.44144 0.0
N2471 N 0.96317 0.28302 0.34951 0.0
C2472 C 0.97201 0.26137 0.41756 0.0
C2473 C 0.96553 0.27406 0.37072 0.0
N2474 N 0.01473 0.27522 0.41111 0.0
N2475 N 0.92105 0.24868 0.37232 0.0
H2476 H 0.97808 0.29313 0.33934 0.0
H2477 H 0.94678 0.2817 0.34266 0.0
H2478 H 0.90523 0.23742 0.38096 0.0
H2479 H 0.91728 0.24956 0.35418 0.0
H2480 H 0.01741 0.26754 0.42632 0.0
H2481 H 0.03018 0.28342 0.40124 0.0
H2482 H 0.99305 0.26709 0.45067 0.0
H2483 H 0.96124 0.25167 0.45268 0.0
C2484 C 0.03628 0.4002 0.3375 0.0
C2485 C 0.04336 0.38543 0.3233 0.0
C2486 C 0.04038 0.4051 0.28727 0.0
C2487 C 0.03155 0.4185 0.30113 0.0
N2488 N 0.01964 0.42842 0.33864 0.0
N2489 N 0.05257 0.37331 0.28522 0.0
C2490 C 0.02925 0.41608 0.3261 0.0
C2491 C 0.04559 0.3878 0.29831 0.0
N2492 N 0.03639 0.39904 0.36187 0.0
N2493 N 0.04411 0.40931 0.26363 0.0
H2494 H 0.05875 0.36226 0.2931 0.0
H2495 H 0.05173 0.37155 0.26655 0.0
H2496 H 0.03975 0.42123 0.25473 0.0
H2497 H 0.05264 0.40213 0.25289 0.0
H2498 H 0.03387 0.41106 0.37368 0.0
H2499 H 0.04046 0.38687 0.37067 0.0
H2500 H 0.0149 0.42554 0.35623 0.0
H2501 H 0.01513 0.44086 0.33099 0.0
C2502 C 0.6009 0.61299 0.33034 0.0
C2503 C 0.61729 0.63386 0.3181 0.0
C2504 C 0.59952 0.60873 0.27932 0.0
C2505 C 0.58152 0.58881 0.29142 0.0
N2506 N 0.56321 0.57215 0.328 0.0
N2507 N 0.6303 0.6532 0.281 0.0
C2508 C 0.5817 0.59096 0.31684 0.0
C2509 C 0.61626 0.63213 0.29259 0.0
N2510 N 0.6043 0.6139 0.35479 0.0
N2511 N 0.60066 0.60518 0.25516 0.0
H2512 H 0.64254 0.67084 0.28999 0.0
H2513 H 0.62836 0.65381 0.2625 0.0
H2514 H 0.5882 0.5885 0.24475 0.0
H2515 H 0.61504 0.61791 0.24576 0.0
H2516 H 0.59465 0.5984 0.36458 0.0
H2517 H 0.61833 0.62966 0.36524 0.0
H2518 H 0.56056 0.57385 0.34608 0.0
H2519 H 0.54943 0.55525 0.31883 0.0
C2520 C 0.37715 0.96039 0.36441 0.0
C2521 C 0.35363 0.95558 0.355 0.0
C2522 C 0.36757 0.96171 0.31447 0.0
C2523 C 0.39065 0.96512 0.32358 0.0
N2524 N 0.41587 0.96274 0.35611 0.0
N2525 N 0.32432 0.9448 0.3206 0.0
C2526 C 0.39498 0.96293 0.34826 0.0
C2527 C 0.3482 0.95421 0.32986 0.0
N2528 N 0.38284 0.9636 0.38871 0.0
N2529 N 0.3644 0.96654 0.29139 0.0
H2530 H 0.30948 0.93803 0.33129 0.0
H2531 H 0.31888 0.94114 0.30225 0.0
H2532 H 0.37819 0.97228 0.2795 0.0
H2533 H 0.34887 0.96704 0.28468 0.0
H2534 H 0.40058 0.96995 0.39664 0.0
H2535 H 0.3702 0.96173 0.40107 0.0
H2536 H 0.41889 0.95865 0.37335 0.0
H2537 H 0.42929 0.96452 0.34476 0.0
C2538 C 0.62208 0.98677 0.31235 0.0
C2539 C 0.61654 0.98213 0.33662 0.0
C2540 C 0.57839 0.98342 0.3287 0.0
C2541 C 0.58446 0.98909 0.30483 0.0
N2542 N 0.61378 0.00057 0.27493 0.0
N2543 N 0.59299 0.98262 0.36933 0.0
C2544 C 0.60689 0.99219 0.297 0.0
C2545 C 0.59565 0.98225 0.3452 0.0
N2546 N 0.64107 0.9848 0.30351 0.0
N2547 N 0.55592 0.97879 0.3355 0.0
H2548 H 0.60583 0.98298 0.38214 0.0
H2549 H 0.57953 0.98529 0.37691 0.0
H2550 H 0.54317 0.98044 0.32424 0.0
H2551 H 0.54918 0.97156 0.35166 0.0
H2552 H 0.64385 0.9846 0.28531 0.0
H2553 H 0.65316 0.98151 0.31393 0.0
H2554 H 0.63123 0.00613 0.26926 0.0
H2555 H 0.60269 0.00385 0.26289 0.0
C2556 C 0.04548 0.64822 0.29609 0.0
C2557 C 0.02639 0.65408 0.29811 0.0
C2558 C 0.99822 0.61591 0.27186 0.0
C2559 C 0.01618 0.60836 0.27281 0.0
N2560 N 0.05495 0.61481 0.291 0.0
N2561 N 0.98259 0.63974 0.29261 0.0
C2562 C 0.03928 0.62377 0.28644 0.0
C2563 C 0.00216 0.63694 0.28725 0.0
N2564 N 0.06967 0.6662 0.3023 0.0
N2565 N 0.97766 0.60341 0.25595 0.0
H2566 H 0.98413 0.65372 0.30517 0.0
H2567 H 0.96431 0.62636 0.28675 0.0
H2568 H 0.97441 0.58827 0.24394 0.0
H2569 H 0.96521 0.60974 0.25302 0.0
H2570 H 0.08431 0.66328 0.29906 0.0
H2571 H 0.07533 0.68488 0.30797 0.0
H2572 H 0.0709 0.62454 0.3028 0.0
H2573 H 0.05074 0.59659 0.28511 0.0
C2574 C 0.36589 0.39981 0.35384 0.0
C2575 C 0.34399 0.37821 0.34304 0.0
C2576 C 0.36253 0.38376 0.30455 0.0
C2577 C 0.38324 0.40671 0.31472 0.0
N2578 N 0.4034 0.4388 0.34789 0.0
N2579 N 0.31956 0.35257 0.30676 0.0
C2580 C 0.38458 0.41541 0.33906 0.0
C2581 C 0.34178 0.37092 0.31803 0.0
N2582 N 0.3694 0.40476 0.37828 0.0
N2583 N 0.3629 0.37384 0.28218 0.0
H2584 H 0.30356 0.3428 0.31556 0.0
H2585 H 0.31627 0.34875 0.28815 0.0
H2586 H 0.37773 0.38271 0.27162 0.0
H2587 H 0.34953 0.35575 0.27498 0.0
H2588 H 0.38606 0.41871 0.38731 0.0
H2589 H 0.3565 0.39341 0.38978 0.0
H2590 H 0.4039 0.44733 0.36468 0.0
H2591 H 0.41757 0.45059 0.33766 0.0
C2592 C 0.29666 0.27926 0.43179 0.0
C2593 C 0.29605 0.28014 0.40651 0.0
C2594 C 0.30658 0.24683 0.40242 0.0
C2595 C 0.30997 0.24815 0.42781 0.0
N2596 N 0.31236 0.26851 0.46682 0.0
N2597 N 0.30374 0.26753 0.36774 0.0
C2598 C 0.30616 0.26519 0.44258 0.0
C2599 C 0.30176 0.26456 0.39173 0.0
N2600 N 0.28723 0.29106 0.44542 0.0
N2601 N 0.30751 0.22835 0.38859 0.0
H2602 H 0.30058 0.28046 0.35925 0.0
H2603 H 0.31051 0.25868 0.3566 0.0
H2604 H 0.31129 0.21525 0.39586 0.0
H2605 H 0.30258 0.22473 0.37015 0.0
H2606 H 0.28499 0.28904 0.46365 0.0
H2607 H 0.2792 0.30076 0.43801 0.0
H2608 H 0.31253 0.28268 0.47807 0.0
H2609 H 0.31947 0.25861 0.47547 0.0
C2610 C 0.7286 0.0526 0.40673 0.0
C2611 C 0.71001 0.03403 0.4196 0.0
C2612 C 0.72664 0.06313 0.45634 0.0
C2613 C 0.74691 0.08016 0.44409 0.0
N2614 N 0.76928 0.08987 0.40855 0.0
N2615 N 0.69225 0.02057 0.45727 0.0
C2616 C 0.74847 0.07457 0.41951 0.0
C2617 C 0.70911 0.03905 0.44456 0.0
N2618 N 0.72666 0.04983 0.38215 0.0
N2619 N 0.7239 0.0702 0.47907 0.0
H2620 H 0.67862 0.00295 0.44937 0.0
H2621 H 0.69275 0.02202 0.47594 0.0
H2622 H 0.73659 0.08757 0.48832 0.0
H2623 H 0.70814 0.05983 0.48804 0.0
H2624 H 0.73831 0.06396 0.37175 0.0
H2625 H 0.71178 0.03453 0.37199 0.0
H2626 H 0.77266 0.08518 0.39153 0.0
H2627 H 0.78419 0.10631 0.41721 0.0
C2628 C 0.97943 0.69714 0.39614 0.0
C2629 C 0.97722 0.70214 0.37186 0.0
C2630 C 0.93702 0.69843 0.37777 0.0
C2631 C 0.93863 0.69195 0.4015 0.0
N2632 N 0.95948 0.68196 0.43261 0.0
N2633 N 0.95263 0.70376 0.3383 0.0
C2634 C 0.95925 0.69029 0.41044 0.0
C2635 C 0.9557 0.70188 0.36233 0.0
N2636 N 0.0013 0.70023 0.40599 0.0
N2637 N 0.91773 0.70152 0.37012 0.0
H2638 H 0.96578 0.70599 0.32644 0.0
H2639 H 0.9363 0.70108 0.32968 0.0
H2640 H 0.90311 0.69795 0.3805 0.0
H2641 H 0.9169 0.70908 0.35412 0.0
H2642 H 0.00514 0.70014 0.42428 0.0
H2643 H 0.01667 0.70511 0.39639 0.0
H2644 H 0.97231 0.6771 0.43885 0.0
H2645 H 0.94583 0.67822 0.44434 0.0
C2646 C 0.40785 0.02341 0.72342 0.0
C2647 C 0.38768 0.02416 0.73306 0.0
C2648 C 0.39979 0.01642 0.77266 0.0
C2649 C 0.42124 0.01815 0.76351 0.0
N2650 N 0.44818 0.02784 0.7314 0.0
N2651 N 0.36689 0.02605 0.76772 0.0
C2652 C 0.426 0.02296 0.73922 0.0
C2653 C 0.38422 0.02185 0.75792 0.0
N2654 N 0.40911 0.02201 0.69909 0.0
N2655 N 0.39403 0.00906 0.79522 0.0
H2656 H 0.35554 0.03074 0.75773 0.0
H2657 H 0.36531 0.02722 0.78613 0.0
H2658 H 0.40515 0.00517 0.80657 0.0
H2659 H 0.37727 0.00479 0.80191 0.0
H2660 H 0.42196 0.01873 0.69095 0.0
H2661 H 0.39584 0.02162 0.68682 0.0
H2662 H 0.45381 0.03427 0.71469 0.0
H2663 H 0.46196 0.02761 0.74238 0.0
C2664 C 0.98547 0.36776 0.74864 0.0
C2665 C 0.98102 0.34722 0.76216 0.0
C2666 C 0.99153 0.37451 0.79958 0.0
C2667 C 0.99309 0.39406 0.7861 0.0
N2668 N 0.98705 0.40785 0.74802 0.0
N2669 N 0.97518 0.32961 0.80053 0.0
C2670 C 0.98881 0.3903 0.76067 0.0
C2671 C 0.98289 0.35019 0.78767 0.0
N2672 N 0.98756 0.36617 0.72447 0.0
N2673 N 0.99875 0.37931 0.82365 0.0
H2674 H 0.96778 0.31129 0.7925 0.0
H2675 H 0.97379 0.33032 0.81901 0.0
H2676 H 0.00524 0.39696 0.83294 0.0
H2677 H 0.00042 0.36652 0.83391 0.0
H2678 H 0.99332 0.38152 0.71423 0.0
H2679 H 0.98604 0.35029 0.71504 0.0
H2680 H 0.98125 0.40477 0.72976 0.0
H2681 H 0.9892 0.42458 0.75611 0.0
C2682 C 0.63263 0.59513 0.70601 0.0
C2683 C 0.65534 0.61406 0.71846 0.0
C2684 C 0.63758 0.60223 0.7571 0.0
C2685 C 0.61427 0.58531 0.74459 0.0
N2686 N 0.58849 0.56638 0.70755 0.0
N2687 N 0.67896 0.63755 0.75584 0.0
C2688 C 0.61151 0.58176 0.71913 0.0
C2689 C 0.65769 0.61814 0.744 0.0
N2690 N 0.63113 0.59019 0.68166 0.0
N2691 N 0.64063 0.6026 0.78155 0.0
H2692 H 0.69491 0.64881 0.74748 0.0
H2693 H 0.68046 0.64356 0.77392 0.0
H2694 H 0.62625 0.59136 0.79182 0.0
H2695 H 0.65777 0.61229 0.7915 0.0
H2696 H 0.61609 0.5748 0.6719 0.0
H2697 H 0.64556 0.6007 0.67117 0.0
H2698 H 0.58452 0.56503 0.68907 0.0
H2699 H 0.57279 0.55594 0.71664 0.0
C2700 C 0.691 0.72793 0.67354 0.0
C2701 C 0.69334 0.71037 0.65791 0.0
C2702 C 0.67586 0.72153 0.62373 0.0
C2703 C 0.67583 0.74075 0.63895 0.0
N2704 N 0.6858 0.76446 0.67759 0.0
N2705 N 0.69109 0.69272 0.61749 0.0
C2706 C 0.68421 0.74466 0.66364 0.0
C2707 C 0.68647 0.70767 0.63285 0.0
N2708 N 0.6938 0.72762 0.6979 0.0
N2709 N 0.66548 0.71633 0.60054 0.0
H2710 H 0.69833 0.68172 0.62315 0.0
H2711 H 0.68963 0.69268 0.59887 0.0
H2712 H 0.65853 0.72676 0.59274 0.0
H2713 H 0.66202 0.70052 0.58951 0.0
H2714 H 0.68979 0.7381 0.7102 0.0
H2715 H 0.69784 0.71505 0.70595 0.0
H2716 H 0.69455 0.77017 0.69494 0.0
H2717 H 0.67981 0.77631 0.67125 0.0
C2718 C 0.2792 0.94395 0.66236 0.0
C2719 C 0.29083 0.96628 0.65032 0.0
C2720 C 0.26825 0.94214 0.61222 0.0
C2721 C 0.25435 0.92069 0.62488 0.0
N2722 N 0.24445 0.90137 0.66228 0.0
N2723 N 0.29418 0.98764 0.61446 0.0
C2724 C 0.2593 0.92158 0.65004 0.0
C2725 C 0.28498 0.96565 0.62534 0.0
N2726 N 0.28772 0.94393 0.68533 0.0
N2727 N 0.2655 0.93995 0.58766 0.0
H2728 H 0.30591 0.00536 0.62354 0.0
H2729 H 0.28847 0.98859 0.59695 0.0
H2730 H 0.25314 0.92302 0.57754 0.0
H2731 H 0.27693 0.95424 0.57729 0.0
H2732 H 0.28164 0.92763 0.6942 0.0
H2733 H 0.30261 0.95986 0.69477 0.0
H2734 H 0.24526 0.902 0.68096 0.0
H2735 H 0.23004 0.88439 0.65382 0.0
C2736 C 0.01281 0.27122 0.66618 0.0
C2737 C 0.01862 0.27725 0.69141 0.0
C2738 C 0.06249 0.2927 0.68655 0.0
C2739 C 0.05664 0.28652 0.66136 0.0
N2740 N 0.02626 0.26618 0.62735 0.0
N2741 N 0.04747 0.28923 0.72626 0.0
C2742 C 0.03175 0.27446 0.65126 0.0
C2743 C 0.04306 0.28665 0.70179 0.0
N2744 N 0.98953 0.26387 0.6563 0.0
N2745 N 0.0867 0.30486 0.69575 0.0
H2746 H 0.0335 0.28476 0.73779 0.0
H2747 H 0.06433 0.2938 0.73518 0.0
H2748 H 0.10126 0.30846 0.68526 0.0
H2749 H 0.09261 0.31254 0.71348 0.0
H2750 H 0.9849 0.26241 0.63793 0.0
H2751 H 0.97491 0.26068 0.66648 0.0
H2752 H 0.00832 0.25462 0.61942 0.0
H2753 H 0.03972 0.26937 0.61554 0.0
C2754 C 0.28458 0.30519 0.64248 0.0
C2755 C 0.28393 0.30868 0.6677 0.0
C2756 C 0.24996 0.31707 0.66097 0.0
C2757 C 0.25223 0.31598 0.63584 0.0
N2758 N 0.27438 0.3133 0.60283 0.0
N2759 N 0.26946 0.32277 0.70103 0.0
C2760 C 0.27038 0.31134 0.62663 0.0
C2761 C 0.26756 0.31595 0.677 0.0
N2762 N 0.29775 0.29479 0.63366 0.0
N2763 N 0.23045 0.31824 0.66952 0.0
H2764 H 0.28241 0.32263 0.71335 0.0
H2765 H 0.25983 0.33084 0.70842 0.0
H2766 H 0.21709 0.31907 0.65843 0.0
H2767 H 0.22631 0.31617 0.68736 0.0
H2768 H 0.29697 0.28949 0.61549 0.0
H2769 H 0.30757 0.28908 0.64469 0.0
H2770 H 0.28908 0.3127 0.59554 0.0
H2771 H 0.26428 0.31778 0.59072 0.0
C2772 C 0.67085 0.97436 0.60512 0.0
C2773 C 0.67642 0.97886 0.63046 0.0
C2774 C 0.6673 0.93543 0.63279 0.0
C2775 C 0.66056 0.93052 0.60767 0.0
N2776 N 0.65116 0.94339 0.57058 0.0
N2777 N 0.6734 0.96201 0.66895 0.0
C2778 C 0.66083 0.94942 0.59403 0.0
C2779 C 0.67269 0.95888 0.64447 0.0
N2780 N 0.67622 0.99401 0.59151 0.0
N2781 N 0.66959 0.91813 0.64537 0.0
H2782 H 0.67639 0.97864 0.67816 0.0
H2783 H 0.66838 0.94729 0.67989 0.0
H2784 H 0.66588 0.90067 0.63756 0.0
H2785 H 0.6772 0.92194 0.66312 0.0
H2786 H 0.67539 0.99237 0.57282 0.0
H2787 H 0.68329 0.0125 0.59886 0.0
H2788 H 0.6485 0.95562 0.56036 0.0
H2789 H 0.6438 0.92531 0.56192 0.0
C2790 C 0.02025 0.73925 0.67635 0.0
C2791 C 0.01182 0.71349 0.67958 0.0
C2792 C 0.04233 0.71429 0.65334 0.0
C2793 C 0.05214 0.74053 0.65182 0.0
N2794 N 0.05462 0.77921 0.66729 0.0
N2795 N 0.02014 0.67911 0.67705 0.0
C2796 C 0.04244 0.75343 0.66509 0.0
C2797 C 0.02451 0.7018 0.66989 0.0
N2798 N 0.00645 0.74989 0.68253 0.0
N2799 N 0.04905 0.70095 0.63826 0.0
H2800 H 0.00829 0.67004 0.69024 0.0
H2801 H 0.03048 0.67089 0.67202 0.0
H2802 H 0.06138 0.70911 0.6252 0.0
H2803 H 0.04046 0.68132 0.63712 0.0
H2804 H 0.01069 0.76782 0.67818 0.0
H2805 H 0.98944 0.74005 0.6897 0.0
H2806 H 0.04956 0.78956 0.67865 0.0
H2807 H 0.07126 0.79025 0.65976 0.0
C2808 C 0.96045 0.61233 0.76211 0.0
C2809 C 0.96278 0.61607 0.73736 0.0
C2810 C 0.97679 0.58549 0.73253 0.0
C2811 C 0.97681 0.58374 0.75769 0.0
N2812 N 0.972 0.59781 0.79714 0.0
N2813 N 0.97615 0.6091 0.69941 0.0
C2814 C 0.96958 0.59783 0.7727 0.0
C2815 C 0.9716 0.60331 0.72258 0.0
N2816 N 0.94859 0.62179 0.77526 0.0
N2817 N 0.98141 0.56987 0.71816 0.0
H2818 H 0.97264 0.62209 0.69149 0.0
H2819 H 0.98517 0.60257 0.68858 0.0
H2820 H 0.98589 0.55706 0.72497 0.0
H2821 H 0.97904 0.56826 0.69947 0.0
H2822 H 0.94407 0.61752 0.79274 0.0
H2823 H 0.94109 0.63201 0.76799 0.0
H2824 H 0.96984 0.60999 0.80912 0.0
H2825 H 0.97809 0.58696 0.80558 0.0
C2826 C 0.3947 0.38699 0.73951 0.0
C2827 C 0.37615 0.36777 0.75184 0.0
C2828 C 0.39122 0.39612 0.78904 0.0
C2829 C 0.41175 0.41374 0.77744 0.0
N2830 N 0.43485 0.42506 0.74238 0.0
N2831 N 0.35732 0.35311 0.7888 0.0
C2832 C 0.41394 0.40901 0.75283 0.0
C2833 C 0.37433 0.37215 0.77669 0.0
N2834 N 0.3934 0.3846 0.71495 0.0
N2835 N 0.38772 0.40252 0.81171 0.0
H2836 H 0.34412 0.33552 0.78045 0.0
H2837 H 0.35723 0.35413 0.80744 0.0
H2838 H 0.39992 0.41985 0.8213 0.0
H2839 H 0.37178 0.39163 0.82025 0.0
H2840 H 0.405 0.39909 0.70485 0.0
H2841 H 0.37904 0.36911 0.70449 0.0
H2842 H 0.43877 0.421 0.72538 0.0
H2843 H 0.44931 0.44159 0.7514 0.0
C2844 C 0.62687 0.03789 0.69788 0.0
C2845 C 0.65153 0.04665 0.70728 0.0
C2846 C 0.63978 0.04713 0.74841 0.0
C2847 C 0.6153 0.03915 0.73903 0.0
N2848 N 0.58611 0.03092 0.70526 0.0
N2849 N 0.68286 0.0651 0.74063 0.0
C2850 C 0.60903 0.03582 0.71384 0.0
C2851 C 0.65839 0.05289 0.73233 0.0
N2852 N 0.62031 0.0305 0.6739 0.0
N2853 N 0.64508 0.04854 0.77265 0.0
H2854 H 0.69701 0.07022 0.72925 0.0
H2855 H 0.68935 0.07231 0.75842 0.0
H2856 H 0.63212 0.04522 0.78509 0.0
H2857 H 0.66177 0.05126 0.78038 0.0
H2858 H 0.6021 0.02123 0.66628 0.0
H2859 H 0.63301 0.03221 0.66167 0.0
H2860 H 0.58119 0.03087 0.68721 0.0
H2861 H 0.57243 0.02868 0.71645 0.0
loop_
_geom_bond_atom_site_label_1
_geom_bond_atom_site_label_2
_geom_bond_distance
_geom_bond_site_symmetry_2
_ccdc_geom_bond_type
In0 O1 2.287 1_455 S
In0 O2 2.326 . S
In0 O6 2.260 1_455 S
In0 O7 2.328 1_454 S
In0 O8 2.269 1_554 S
In0 O9 2.319 1_454 S
In0 O11 2.304 . S
In0 O12 2.331 . S
O1 In0 2.287 1_655 S
O1 C10 1.252 . S
O2 In0 2.326 . S
O2 C10 1.230 1_455 S
C3 O6 1.252 1_556 S
C3 O7 1.260 . S
C4 O11 1.240 . S
C4 O12 1.252 . S
C5 O8 1.252 . S
C5 O9 1.260 1_455 S
O6 In0 2.260 1_655 S
O6 C3 1.252 1_554 S
O7 In0 2.328 1_656 S
O7 C3 1.260 . S
O8 In0 2.269 1_556 S
O8 C5 1.252 . S
O9 In0 2.319 1_656 S
O9 C5 1.260 1_655 S
C10 O1 1.252 . S
C10 O2 1.230 1_655 S
O11 In0 2.304 . S
O11 C4 1.240 . S
O12 In0 2.331 . S
O12 C4 1.252 . S
In13 O14 2.294 . S
In13 O15 2.326 . S
In13 O19 2.266 . S
In13 O20 2.326 . S
In13 O21 2.266 . S
In13 O22 2.326 . S
In13 O24 2.294 . S
In13 O25 2.326 . S
O14 In13 2.294 . S
O14 C23 1.240 . S
O15 In13 2.326 . S
O15 C23 1.252 . S
C16 O19 1.252 . S
C16 O20 1.260 . S
C17 O24 1.240 . S
C17 O25 1.252 . S
C18 O21 1.252 . S
C18 O22 1.260 . S
O19 In13 2.266 . S
O19 C16 1.252 . S
O20 In13 2.326 . S
O20 C16 1.260 . S
O21 In13 2.266 . S
O21 C18 1.252 . S
O22 In13 2.326 . S
O22 C18 1.260 . S
C23 O14 1.240 . S
C23 O15 1.252 . S
O24 In13 2.294 . S
O24 C17 1.240 . S
O25 In13 2.326 . S
O25 C17 1.252 . S
In26 O27 2.311 . S
In26 O28 2.336 1_554 S
In26 O32 2.270 . S
In26 O33 2.313 1_545 S
In26 O34 2.256 1_545 S
In26 O35 2.329 1_545 S
In26 O37 2.284 1_544 S
In26 O38 2.327 1_554 S
O27 In26 2.311 . S
O27 C36 1.240 1_554 S
O28 In26 2.336 1_556 S
O28 C36 1.252 . S
C29 O32 1.252 . S
C29 O33 1.260 1_545 S
C30 O37 1.240 . S
C30 O38 1.252 1_565 S
C31 O34 1.252 . S
C31 O35 1.260 . S
O32 In26 2.270 . S
O32 C29 1.252 . S
O33 In26 2.313 1_565 S
O33 C29 1.260 1_565 S
O34 In26 2.256 1_565 S
O34 C31 1.252 . S
O35 In26 2.329 1_565 S
O35 C31 1.260 . S
C36 O27 1.240 1_556 S
C36 O28 1.252 . S
O37 In26 2.284 1_566 S
O37 C30 1.240 . S
O38 In26 2.327 1_556 S
O38 C30 1.252 1_545 S
In39 O40 2.292 . S
In39 O41 2.326 1_455 S
In39 O45 2.265 . S
In39 O46 2.326 . S
In39 O47 2.267 1_455 S
In39 O48 2.324 . S
In39 O50 2.296 1_455 S
In39 O51 2.327 1_455 S
O40 In39 2.292 . S
O40 C49 1.272 . S
O41 In39 2.326 1_655 S
O41 C49 1.240 1_655 S
C42 O45 1.252 . S
C42 O46 1.260 . S
C43 O50 1.240 . S
C43 O51 1.252 . S
C44 O47 1.252 . S
C44 O48 1.260 1_655 S
O45 In39 2.265 . S
O45 C42 1.252 . S
O46 In39 2.326 . S
O46 C42 1.260 . S
O47 In39 2.267 1_655 S
O47 C44 1.252 . S
O48 In39 2.324 . S
O48 C44 1.260 1_455 S
C49 O40 1.272 . S
C49 O41 1.240 1_455 S
O50 In39 2.296 1_655 S
O50 C43 1.240 . S
O51 In39 2.327 1_655 S
O51 C43 1.252 . S
In52 O53 2.294 1_554 S
In52 O54 2.326 1_554 S
In52 O58 2.266 . S
In52 O59 2.326 . S
In52 O60 2.266 . S
In52 O61 2.326 . S
In52 O63 2.294 1_554 S
In52 O64 2.326 1_554 S
O53 In52 2.294 1_556 S
O53 C62 1.240 . S
O54 In52 2.326 1_556 S
O54 C62 1.252 . S
C55 O58 1.252 . S
C55 O59 1.260 . S
C56 O63 1.240 . S
C56 O64 1.252 . S
C57 O60 1.252 . S
C57 O61 1.260 . S
O58 In52 2.266 . S
O58 C55 1.252 . S
O59 In52 2.326 . S
O59 C55 1.260 . S
O60 In52 2.266 . S
O60 C57 1.252 . S
O61 In52 2.326 . S
O61 C57 1.260 . S
C62 O53 1.240 . S
C62 O54 1.252 . S
O63 In52 2.294 1_556 S
O63 C56 1.240 . S
O64 In52 2.326 1_556 S
O64 C56 1.252 . S
In65 O66 2.293 . S
In65 O67 2.326 1_545 S
In65 O71 2.265 . S
In65 O72 2.326 . S
In65 O73 2.267 1_545 S
In65 O74 2.324 . S
In65 O76 2.296 1_545 S
In65 O77 2.327 1_545 S
O66 In65 2.293 . S
O66 C75 1.240 . S
O67 In65 2.326 1_565 S
O67 C75 1.252 1_565 S
C68 O71 1.252 . S
C68 O72 1.260 . S
C69 O76 1.240 . S
C69 O77 1.252 . S
C70 O73 1.252 . S
C70 O74 1.260 1_565 S
O71 In65 2.265 . S
O71 C68 1.252 . S
O72 In65 2.326 . S
O72 C68 1.260 . S
O73 In65 2.267 1_565 S
O73 C70 1.252 . S
O74 In65 2.324 . S
O74 C70 1.260 1_545 S
C75 O66 1.240 . S
C75 O67 1.252 1_545 S
O76 In65 2.296 1_565 S
O76 C69 1.240 . S
O77 In65 2.327 1_565 S
O77 C69 1.252 . S
In78 O79 2.294 . S
In78 O80 2.326 . S
In78 O84 2.266 . S
In78 O85 2.326 . S
In78 O86 2.266 . S
In78 O87 2.326 . S
In78 O89 2.294 . S
In78 O90 2.326 . S
O79 In78 2.294 . S
O79 C88 1.240 . S
O80 In78 2.326 . S
O80 C88 1.252 . S
C81 O84 1.252 . S
C81 O85 1.260 . S
C82 O89 1.240 . S
C82 O90 1.252 . S
C83 O86 1.252 . S
C83 O87 1.260 . S
O84 In78 2.266 . S
O84 C81 1.252 . S
O85 In78 2.326 . S
O85 C81 1.260 . S
O86 In78 2.266 . S
O86 C83 1.252 . S
O87 In78 2.326 . S
O87 C83 1.260 . S
C88 O79 1.240 . S
C88 O80 1.252 . S
O89 In78 2.294 . S
O89 C82 1.240 . S
O90 In78 2.326 . S
O90 C82 1.252 . S
In91 O92 2.294 . S
In91 O93 2.326 . S
In91 O97 2.266 . S
In91 O98 2.326 . S
In91 O99 2.266 . S
In91 O100 2.326 . S
In91 O102 2.294 . S
In91 O103 2.326 . S
O92 In91 2.294 . S
O92 C101 1.240 . S
O93 In91 2.326 . S
O93 C101 1.252 . S
C94 O97 1.252 . S
C94 O98 1.260 . S
C95 O102 1.240 . S
C95 O103 1.252 . S
C96 O99 1.252 . S
C96 O100 1.260 . S
O97 In91 2.266 . S
O97 C94 1.252 . S
O98 In91 2.326 . S
O98 C94 1.260 . S
O99 In91 2.266 . S
O99 C96 1.252 . S
O100 In91 2.326 . S
O100 C96 1.260 . S
C101 O92 1.240 . S
C101 O93 1.252 . S
O102 In91 2.294 . S
O102 C95 1.240 . S
O103 In91 2.326 . S
O103 C95 1.252 . S
In104 O105 2.294 . S
In104 O106 2.326 . S
In104 O110 2.266 . S
In104 O111 2.326 . S
In104 O112 2.266 . S
In104 O113 2.326 . S
In104 O115 2.294 . S
In104 O116 2.326 . S
O105 In104 2.294 . S
O105 C114 1.240 . S
O106 In104 2.326 . S
O106 C114 1.252 . S
C107 O110 1.252 . S
C107 O111 1.260 . S
C108 O115 1.240 . S
C108 O116 1.252 . S
C109 O112 1.252 . S
C109 O113 1.260 . S
O110 In104 2.266 . S
O110 C107 1.252 . S
O111 In104 2.326 . S
O111 C107 1.260 . S
O112 In104 2.266 . S
O112 C109 1.252 . S
O113 In104 2.326 . S
O113 C109 1.260 . S
C114 O105 1.240 . S
C114 O106 1.252 . S
O115 In104 2.294 . S
O115 C108 1.240 . S
O116 In104 2.326 . S
O116 C108 1.252 . S
In117 O118 2.294 . S
In117 O119 2.326 . S
In117 O123 2.266 . S
In117 O124 2.326 . S
In117 O125 2.266 . S
In117 O126 2.326 . S
In117 O128 2.294 . S
In117 O129 2.326 . S
O118 In117 2.294 . S
O118 C127 1.240 . S
O119 In117 2.326 . S
O119 C127 1.252 . S
C120 O123 1.252 1_545 S
C120 O124 1.260 1_545 S
C121 O128 1.240 . S
C121 O129 1.252 . S
C122 O125 1.252 . S
C122 O126 1.260 . S
O123 In117 2.266 . S
O123 C120 1.252 1_565 S
O124 In117 2.326 . S
O124 C120 1.260 1_565 S
O125 In117 2.266 . S
O125 C122 1.252 . S
O126 In117 2.326 . S
O126 C122 1.260 . S
C127 O118 1.240 . S
C127 O119 1.252 . S
O128 In117 2.294 . S
O128 C121 1.240 . S
O129 In117 2.326 . S
O129 C121 1.252 . S
In130 O131 2.294 . S
In130 O132 2.326 . S
In130 O136 2.266 . S
In130 O137 2.326 . S
In130 O138 2.266 . S
In130 O139 2.326 . S
In130 O141 2.294 . S
In130 O142 2.326 . S
O131 In130 2.294 . S
O131 C140 1.240 . S
O132 In130 2.326 . S
O132 C140 1.252 . S
C133 O136 1.252 . S
C133 O137 1.260 . S
C134 O141 1.240 . S
C134 O142 1.252 . S
C135 O138 1.252 . S
C135 O139 1.260 . S
O136 In130 2.266 . S
O136 C133 1.252 . S
O137 In130 2.326 . S
O137 C133 1.260 . S
O138 In130 2.266 . S
O138 C135 1.252 . S
O139 In130 2.326 . S
O139 C135 1.260 . S
C140 O131 1.240 . S
C140 O132 1.252 . S
O141 In130 2.294 . S
O141 C134 1.240 . S
O142 In130 2.326 . S
O142 C134 1.252 . S
In143 O144 2.294 . S
In143 O145 2.326 . S
In143 O149 2.266 . S
In143 O150 2.326 . S
In143 O151 2.266 . S
In143 O152 2.326 . S
In143 O154 2.294 . S
In143 O155 2.326 . S
O144 In143 2.294 . S
O144 C153 1.240 . S
O145 In143 2.326 . S
O145 C153 1.252 . S
C146 O149 1.252 . S
C146 O150 1.260 . S
C147 O154 1.240 . S
C147 O155 1.252 . S
C148 O151 1.252 . S
C148 O152 1.260 . S
O149 In143 2.266 . S
O149 C146 1.252 . S
O150 In143 2.326 . S
O150 C146 1.260 . S
O151 In143 2.266 . S
O151 C148 1.252 . S
O152 In143 2.326 . S
O152 C148 1.260 . S
C153 O144 1.240 . S
C153 O145 1.252 . S
O154 In143 2.294 . S
O154 C147 1.240 . S
O155 In143 2.326 . S
O155 C147 1.252 . S
In156 O157 2.294 . S
In156 O158 2.326 . S
In156 O162 2.266 . S
In156 O163 2.326 . S
In156 O164 2.266 . S
In156 O165 2.326 . S
In156 O167 2.294 . S
In156 O168 2.326 . S
O157 In156 2.294 . S
O157 C166 1.240 . S
O158 In156 2.326 . S
O158 C166 1.252 . S
C159 O162 1.252 . S
C159 O163 1.260 . S
C160 O167 1.240 . S
C160 O168 1.252 . S
C161 O164 1.252 1_565 S
C161 O165 1.260 1_565 S
O162 In156 2.266 . S
O162 C159 1.252 . S
O163 In156 2.326 . S
O163 C159 1.260 . S
O164 In156 2.266 . S
O164 C161 1.252 1_545 S
O165 In156 2.326 . S
O165 C161 1.260 1_545 S
C166 O157 1.240 . S
C166 O158 1.252 . S
O167 In156 2.294 . S
O167 C160 1.240 . S
O168 In156 2.326 . S
O168 C160 1.252 . S
In169 O170 2.294 . S
In169 O171 2.326 . S
In169 O175 2.266 . S
In169 O176 2.326 . S
In169 O177 2.266 . S
In169 O178 2.326 . S
In169 O180 2.294 . S
In169 O181 2.326 . S
O170 In169 2.294 . S
O170 C179 1.240 . S
O171 In169 2.326 . S
O171 C179 1.252 . S
C172 O175 1.252 . S
C172 O176 1.260 . S
C173 O180 1.240 . S
C173 O181 1.252 . S
C174 O177 1.252 . S
C174 O178 1.260 . S
O175 In169 2.266 . S
O175 C172 1.252 . S
O176 In169 2.326 . S
O176 C172 1.260 . S
O177 In169 2.266 . S
O177 C174 1.252 . S
O178 In169 2.326 . S
O178 C174 1.260 . S
C179 O170 1.240 . S
C179 O171 1.252 . S
O180 In169 2.294 . S
O180 C173 1.240 . S
O181 In169 2.326 . S
O181 C173 1.252 . S
In182 O183 2.294 . S
In182 O184 2.326 . S
In182 O188 2.266 . S
In182 O189 2.326 . S
In182 O190 2.266 . S
In182 O191 2.326 . S
In182 O193 2.294 . S
In182 O194 2.326 . S
O183 In182 2.294 . S
O183 C192 1.240 . S
O184 In182 2.326 . S
O184 C192 1.252 . S
C185 O188 1.252 . S
C185 O189 1.260 . S
C186 O193 1.240 . S
C186 O194 1.252 . S
C187 O190 1.252 . S
C187 O191 1.260 . S
O188 In182 2.266 . S
O188 C185 1.252 . S
O189 In182 2.326 . S
O189 C185 1.260 . S
O190 In182 2.266 . S
O190 C187 1.252 . S
O191 In182 2.326 . S
O191 C187 1.260 . S
C192 O183 1.240 . S
C192 O184 1.252 . S
O193 In182 2.294 . S
O193 C186 1.240 . S
O194 In182 2.326 . S
O194 C186 1.252 . S
In195 O196 2.294 . S
In195 O197 2.326 . S
In195 O201 2.266 . S
In195 O202 2.326 . S
In195 O203 2.266 . S
In195 O204 2.326 . S
In195 O206 2.294 . S
In195 O207 2.326 . S
O196 In195 2.294 . S
O196 C205 1.240 . S
O197 In195 2.326 . S
O197 C205 1.252 . S
C198 O201 1.252 . S
C198 O202 1.260 . S
C199 O206 1.240 . S
C199 O207 1.252 . S
C200 O203 1.252 . S
C200 O204 1.260 . S
O201 In195 2.266 . S
O201 C198 1.252 . S
O202 In195 2.326 . S
O202 C198 1.260 . S
O203 In195 2.266 . S
O203 C200 1.252 . S
O204 In195 2.326 . S
O204 C200 1.260 . S
C205 O196 1.240 . S
C205 O197 1.252 . S
O206 In195 2.294 . S
O206 C199 1.240 . S
O207 In195 2.326 . S
O207 C199 1.252 . S
In208 O209 2.294 . S
In208 O210 2.326 . S
In208 O214 2.266 . S
In208 O215 2.326 . S
In208 O216 2.266 . S
In208 O217 2.326 . S
In208 O219 2.294 . S
In208 O220 2.326 . S
O209 In208 2.294 . S
O209 C218 1.240 . S
O210 In208 2.326 . S
O210 C218 1.252 . S
C211 O214 1.252 . S
C211 O215 1.260 . S
C212 O219 1.240 . S
C212 O220 1.252 . S
C213 O216 1.252 . S
C213 O217 1.260 . S
O214 In208 2.266 . S
O214 C211 1.252 . S
O215 In208 2.326 . S
O215 C211 1.260 . S
O216 In208 2.266 . S
O216 C213 1.252 . S
O217 In208 2.326 . S
O217 C213 1.260 . S
C218 O209 1.240 . S
C218 O210 1.252 . S
O219 In208 2.294 . S
O219 C212 1.240 . S
O220 In208 2.326 . S
O220 C212 1.252 . S
In221 O222 2.294 . S
In221 O223 2.326 . S
In221 O227 2.266 . S
In221 O228 2.326 . S
In221 O229 2.266 . S
In221 O230 2.326 . S
In221 O232 2.294 . S
In221 O233 2.326 . S
O222 In221 2.294 . S
O222 C231 1.240 . S
O223 In221 2.326 . S
O223 C231 1.252 . S
C224 O227 1.252 . S
C224 O228 1.260 . S
C225 O232 1.240 . S
C225 O233 1.252 . S
C226 O229 1.252 . S
C226 O230 1.260 . S
O227 In221 2.266 . S
O227 C224 1.252 . S
O228 In221 2.326 . S
O228 C224 1.260 . S
O229 In221 2.266 . S
O229 C226 1.252 . S
O230 In221 2.326 . S
O230 C226 1.260 . S
C231 O222 1.240 . S
C231 O223 1.252 . S
O232 In221 2.294 . S
O232 C225 1.240 . S
O233 In221 2.326 . S
O233 C225 1.252 . S
H234 O260 0.871 . S
H235 O263 0.854 . S
H236 C271 0.930 . S
H237 C272 0.930 . S
H238 C274 0.930 . S
H239 C275 0.930 . S
H240 C277 0.931 . S
H241 C278 0.930 . S
H242 C280 0.930 . S
H243 C281 0.929 . S
H244 C283 0.930 . S
H245 C284 0.931 . S
H246 C286 0.930 . S
H247 C287 0.929 . S
H248 C289 0.931 . S
H249 C290 0.930 . S
H250 C292 0.930 . S
H251 C293 0.932 . S
H252 C295 0.930 . S
H253 C296 0.929 . S
H254 C298 0.931 . S
H255 C299 0.930 . S
H256 C301 0.929 . S
H257 C302 0.931 . S
H258 C304 0.930 . S
H259 C305 0.929 . S
O260 H234 0.871 . S
O260 C306 1.300 . S
O261 C306 1.209 . S
O262 C307 1.199 . S
O263 H235 0.854 . S
O263 C307 1.297 . S
C264 C265 1.404 . S
C264 C269 1.397 . S
C264 C270 1.492 . S
C265 C264 1.404 . S
C265 C266 1.396 . S
C265 C276 1.492 . S
C266 C265 1.396 . S
C266 C267 1.397 . S
C266 C282 1.509 . S
C267 C266 1.397 . S
C267 C268 1.412 . S
C267 C288 1.485 . S
C268 C267 1.412 . S
C268 C269 1.388 . S
C268 C294 1.490 . S
C269 C264 1.397 . S
C269 C268 1.388 . S
C269 C300 1.519 . S
C270 C264 1.492 . S
C270 C271 1.363 . S
C270 C275 1.390 . S
C271 H236 0.930 . S
C271 C270 1.363 . S
C271 C272 1.372 . S
C272 H237 0.930 . S
C272 C271 1.372 . S
C272 C273 1.383 . S
C273 C272 1.383 . S
C273 C274 1.395 . S
C274 H238 0.930 . S
C274 C273 1.395 . S
C274 C275 1.362 . S
C275 H239 0.930 . S
C275 C270 1.390 . S
C275 C274 1.362 . S
C276 C265 1.492 . S
C276 C277 1.377 . S
C276 C281 1.397 . S
C277 H240 0.931 . S
C277 C276 1.377 . S
C277 C278 1.376 . S
C278 H241 0.930 . S
C278 C277 1.376 . S
C278 C279 1.376 . S
C279 C278 1.376 . S
C279 C280 1.378 . S
C279 C306 1.486 . S
C280 H242 0.930 . S
C280 C279 1.378 . S
C280 C281 1.376 . S
C281 H243 0.929 . S
C281 C276 1.397 . S
C281 C280 1.376 . S
C282 C266 1.509 . S
C282 C283 1.391 . S
C282 C287 1.386 . S
C283 H244 0.930 . S
C283 C282 1.391 . S
C283 C284 1.375 . S
C284 H245 0.931 . S
C284 C283 1.375 . S
C284 C285 1.375 . S
C285 C284 1.375 . S
C285 C286 1.361 . S
C286 H246 0.930 . S
C286 C285 1.361 . S
C286 C287 1.399 . S
C287 H247 0.929 . S
C287 C282 1.386 . S
C287 C286 1.399 . S
C288 C267 1.485 . S
C288 C289 1.394 . S
C288 C293 1.360 . S
C289 H248 0.931 . S
C289 C288 1.394 . S
C289 C290 1.372 . S
C290 H249 0.930 . S
C290 C289 1.372 . S
C290 C291 1.397 . S
C291 C290 1.397 . S
C291 C292 1.390 . S
C291 C307 1.476 . S
C292 H250 0.930 . S
C292 C291 1.390 . S
C292 C293 1.366 . S
C293 H251 0.932 . S
C293 C288 1.360 . S
C293 C292 1.366 . S
C294 C268 1.490 . S
C294 C295 1.380 . S
C294 C299 1.386 . S
C295 H252 0.930 . S
C295 C294 1.380 . S
C295 C296 1.381 . S
C296 H253 0.929 . S
C296 C295 1.381 . S
C296 C297 1.371 . S
C297 C296 1.371 . S
C297 C298 1.380 . S
C298 H254 0.931 . S
C298 C297 1.380 . S
C298 C299 1.387 . S
C299 H255 0.930 . S
C299 C294 1.386 . S
C299 C298 1.387 . S
C300 C269 1.519 . S
C300 C301 1.377 . S
C300 C305 1.361 . S
C301 H256 0.929 . S
C301 C300 1.377 . S
C301 C302 1.386 . S
C302 H257 0.931 . S
C302 C301 1.386 . S
C302 C303 1.363 . S
C303 C302 1.363 . S
C303 C304 1.385 . S
C304 H258 0.930 . S
C304 C303 1.385 . S
C304 C305 1.396 . S
C305 H259 0.929 . S
C305 C300 1.361 . S
C305 C304 1.396 . S
C306 O260 1.300 . S
C306 O261 1.209 . S
C306 C279 1.486 . S
C307 O262 1.199 . S
C307 O263 1.297 . S
C307 C291 1.476 . S
H308 O334 0.856 . S
H309 O337 0.854 1_545 S
H310 C345 0.930 . S
H311 C346 0.930 . S
H312 C348 0.930 . S
H313 C349 0.930 . S
H314 C351 0.931 . S
H315 C352 0.930 . S
H316 C354 0.930 . S
H317 C355 0.929 . S
H318 C357 0.930 . S
H319 C358 0.931 . S
H320 C360 0.930 . S
H321 C361 0.929 . S
H322 C363 0.931 . S
H323 C364 0.930 . S
H324 C366 0.930 . S
H325 C367 0.932 . S
H326 C369 0.930 . S
H327 C370 0.929 . S
H328 C372 0.931 . S
H329 C373 0.930 . S
H330 C375 0.929 . S
H331 C376 0.931 . S
H332 C378 0.930 . S
H333 C379 0.929 . S
O334 H308 0.856 . S
O334 C380 1.300 . S
O335 C380 1.209 . S
O336 C381 1.199 . S
O337 H309 0.854 1_565 S
O337 C381 1.297 . S
C338 C339 1.404 . S
C338 C343 1.397 . S
C338 C344 1.492 . S
C339 C338 1.404 . S
C339 C340 1.396 . S
C339 C350 1.492 . S
C340 C339 1.396 . S
C340 C341 1.397 . S
C340 C356 1.509 . S
C341 C340 1.397 . S
C341 C342 1.412 . S
C341 C362 1.485 . S
C342 C341 1.412 . S
C342 C343 1.388 . S
C342 C368 1.490 . S
C343 C338 1.397 . S
C343 C342 1.388 . S
C343 C374 1.519 . S
C344 C338 1.492 . S
C344 C345 1.363 . S
C344 C349 1.390 . S
C345 H310 0.930 . S
C345 C344 1.363 . S
C345 C346 1.372 . S
C346 H311 0.930 . S
C346 C345 1.372 . S
C346 C347 1.383 . S
C347 C346 1.383 . S
C347 C348 1.395 . S
C348 H312 0.930 . S
C348 C347 1.395 . S
C348 C349 1.362 . S
C349 H313 0.930 . S
C349 C344 1.390 . S
C349 C348 1.362 . S
C350 C339 1.492 . S
C350 C351 1.377 . S
C350 C355 1.397 . S
C351 H314 0.931 . S
C351 C350 1.377 . S
C351 C352 1.376 . S
C352 H315 0.930 . S
C352 C351 1.376 . S
C352 C353 1.376 . S
C353 C352 1.376 . S
C353 C354 1.378 . S
C353 C380 1.486 . S
C354 H316 0.930 . S
C354 C353 1.378 . S
C354 C355 1.376 . S
C355 H317 0.929 . S
C355 C350 1.397 . S
C355 C354 1.376 . S
C356 C340 1.509 . S
C356 C357 1.391 . S
C356 C361 1.386 . S
C357 H318 0.930 . S
C357 C356 1.391 . S
C357 C358 1.375 . S
C358 H319 0.931 . S
C358 C357 1.375 . S
C358 C359 1.375 . S
C359 C358 1.375 . S
C359 C360 1.361 . S
C360 H320 0.930 . S
C360 C359 1.361 . S
C360 C361 1.399 . S
C361 H321 0.929 . S
C361 C356 1.386 . S
C361 C360 1.399 . S
C362 C341 1.485 . S
C362 C363 1.394 . S
C362 C367 1.360 . S
C363 H322 0.931 . S
C363 C362 1.394 . S
C363 C364 1.372 . S
C364 H323 0.930 . S
C364 C363 1.372 . S
C364 C365 1.397 . S
C365 C364 1.397 . S
C365 C366 1.390 . S
C365 C381 1.476 . S
C366 H324 0.930 . S
C366 C365 1.390 . S
C366 C367 1.366 . S
C367 H325 0.932 . S
C367 C362 1.360 . S
C367 C366 1.366 . S
C368 C342 1.490 . S
C368 C369 1.380 . S
C368 C373 1.386 . S
C369 H326 0.930 . S
C369 C368 1.380 . S
C369 C370 1.381 . S
C370 H327 0.929 . S
C370 C369 1.381 . S
C370 C371 1.371 . S
C371 C370 1.371 . S
C371 C372 1.380 . S
C372 H328 0.931 . S
C372 C371 1.380 . S
C372 C373 1.387 . S
C373 H329 0.930 . S
C373 C368 1.386 . S
C373 C372 1.387 . S
C374 C343 1.519 . S
C374 C375 1.377 . S
C374 C379 1.361 . S
C375 H330 0.929 . S
C375 C374 1.377 . S
C375 C376 1.386 . S
C376 H331 0.931 . S
C376 C375 1.386 . S
C376 C377 1.363 . S
C377 C376 1.363 . S
C377 C378 1.385 . S
C378 H332 0.930 . S
C378 C377 1.385 . S
C378 C379 1.396 . S
C379 H333 0.929 . S
C379 C374 1.361 . S
C379 C378 1.396 . S
C380 O334 1.300 . S
C380 O335 1.209 . S
C380 C353 1.486 . S
C381 O336 1.199 . S
C381 O337 1.297 . S
C381 C365 1.476 . S
H382 O408 0.856 . S
H383 O411 0.854 . S
H384 C419 0.930 . S
H385 C420 0.930 . S
H386 C422 0.930 . S
H387 C423 0.930 . S
H388 C425 0.931 . S
H389 C426 0.930 . S
H390 C428 0.930 . S
H391 C429 0.929 . S
H392 C431 0.930 . S
H393 C432 0.931 . S
H394 C434 0.930 . S
H395 C435 0.929 . S
H396 C437 0.931 . S
H397 C438 0.930 . S
H398 C440 0.930 . S
H399 C441 0.932 . S
H400 C443 0.930 . S
H401 C444 0.929 . S
H402 C446 0.931 . S
H403 C447 0.930 . S
H404 C449 0.929 . S
H405 C450 0.931 . S
H406 C452 0.930 . S
H407 C453 0.929 . S
O408 H382 0.856 . S
O408 C454 1.300 . S
O409 C454 1.209 . S
O410 C455 1.199 . S
O411 H383 0.854 . S
O411 C455 1.297 . S
C412 C413 1.404 . S
C412 C417 1.397 . S
C412 C418 1.492 . S
C413 C412 1.404 . S
C413 C414 1.396 . S
C413 C424 1.492 . S
C414 C413 1.396 . S
C414 C415 1.397 . S
C414 C430 1.509 . S
C415 C414 1.397 . S
C415 C416 1.412 . S
C415 C436 1.485 . S
C416 C415 1.412 . S
C416 C417 1.388 . S
C416 C442 1.490 . S
C417 C412 1.397 . S
C417 C416 1.388 . S
C417 C448 1.519 . S
C418 C412 1.492 . S
C418 C419 1.363 . S
C418 C423 1.390 . S
C419 H384 0.930 . S
C419 C418 1.363 . S
C419 C420 1.372 . S
C420 H385 0.930 . S
C420 C419 1.372 . S
C420 C421 1.383 . S
C421 C420 1.383 . S
C421 C422 1.395 . S
C422 H386 0.930 . S
C422 C421 1.395 . S
C422 C423 1.362 . S
C423 H387 0.930 . S
C423 C418 1.390 . S
C423 C422 1.362 . S
C424 C413 1.492 . S
C424 C425 1.377 . S
C424 C429 1.397 . S
C425 H388 0.931 . S
C425 C424 1.377 . S
C425 C426 1.376 . S
C426 H389 0.930 . S
C426 C425 1.376 . S
C426 C427 1.376 . S
C427 C426 1.376 . S
C427 C428 1.378 . S
C427 C454 1.486 . S
C428 H390 0.930 . S
C428 C427 1.378 . S
C428 C429 1.376 . S
C429 H391 0.929 . S
C429 C424 1.397 . S
C429 C428 1.376 . S
C430 C414 1.509 . S
C430 C431 1.391 . S
C430 C435 1.386 . S
C431 H392 0.930 . S
C431 C430 1.391 . S
C431 C432 1.375 . S
C432 H393 0.931 . S
C432 C431 1.375 . S
C432 C433 1.375 . S
C433 C432 1.375 . S
C433 C434 1.361 . S
C434 H394 0.930 . S
C434 C433 1.361 . S
C434 C435 1.399 . S
C435 H395 0.929 . S
C435 C430 1.386 . S
C435 C434 1.399 . S
C436 C415 1.485 . S
C436 C437 1.394 . S
C436 C441 1.360 . S
C437 H396 0.931 . S
C437 C436 1.394 . S
C437 C438 1.372 . S
C438 H397 0.930 . S
C438 C437 1.372 . S
C438 C439 1.397 . S
C439 C438 1.397 . S
C439 C440 1.390 . S
C439 C455 1.476 . S
C440 H398 0.930 . S
C440 C439 1.390 . S
C440 C441 1.366 . S
C441 H399 0.932 . S
C441 C436 1.360 . S
C441 C440 1.366 . S
C442 C416 1.490 . S
C442 C443 1.380 . S
C442 C447 1.386 . S
C443 H400 0.930 . S
C443 C442 1.380 . S
C443 C444 1.381 . S
C444 H401 0.929 . S
C444 C443 1.381 . S
C444 C445 1.371 . S
C445 C444 1.371 . S
C445 C446 1.380 . S
C446 H402 0.931 . S
C446 C445 1.380 . S
C446 C447 1.387 . S
C447 H403 0.930 . S
C447 C442 1.386 . S
C447 C446 1.387 . S
C448 C417 1.519 . S
C448 C449 1.377 . S
C448 C453 1.361 . S
C449 H404 0.929 . S
C449 C448 1.377 . S
C449 C450 1.386 . S
C450 H405 0.931 . S
C450 C449 1.386 . S
C450 C451 1.363 . S
C451 C450 1.363 . S
C451 C452 1.385 . S
C452 H406 0.930 . S
C452 C451 1.385 . S
C452 C453 1.396 . S
C453 H407 0.929 . S
C453 C448 1.361 . S
C453 C452 1.396 . S
C454 O408 1.300 . S
C454 O409 1.209 . S
C454 C427 1.486 . S
C455 O410 1.199 . S
C455 O411 1.297 . S
C455 C439 1.476 . S
H456 O482 0.856 . S
H457 O485 0.854 . S
H458 C493 0.930 . S
H459 C494 0.930 . S
H460 C496 0.930 . S
H461 C497 0.930 . S
H462 C499 0.931 . S
H463 C500 0.930 . S
H464 C502 0.930 . S
H465 C503 0.929 . S
H466 C505 0.930 . S
H467 C506 0.931 . S
H468 C508 0.930 . S
H469 C509 0.929 . S
H470 C511 0.931 . S
H471 C512 0.930 . S
H472 C514 0.930 . S
H473 C515 0.932 . S
H474 C517 0.930 . S
H475 C518 0.929 . S
H476 C520 0.931 . S
H477 C521 0.930 . S
H478 C523 0.929 . S
H479 C524 0.931 . S
H480 C526 0.930 . S
H481 C527 0.929 . S
O482 H456 0.856 . S
O482 C528 1.300 . S
O483 C528 1.209 . S
O484 C529 1.199 . S
O485 H457 0.854 . S
O485 C529 1.297 . S
C486 C487 1.404 . S
C486 C491 1.397 . S
C486 C492 1.492 . S
C487 C486 1.404 . S
C487 C488 1.396 . S
C487 C498 1.492 . S
C488 C487 1.396 . S
C488 C489 1.397 . S
C488 C504 1.509 . S
C489 C488 1.397 . S
C489 C490 1.412 . S
C489 C510 1.485 . S
C490 C489 1.412 . S
C490 C491 1.388 . S
C490 C516 1.490 . S
C491 C486 1.397 . S
C491 C490 1.388 . S
C491 C522 1.519 . S
C492 C486 1.492 . S
C492 C493 1.363 . S
C492 C497 1.390 . S
C493 H458 0.930 . S
C493 C492 1.363 . S
C493 C494 1.372 . S
C494 H459 0.930 . S
C494 C493 1.372 . S
C494 C495 1.383 . S
C495 C494 1.383 . S
C495 C496 1.395 . S
C496 H460 0.930 . S
C496 C495 1.395 . S
C496 C497 1.362 . S
C497 H461 0.930 . S
C497 C492 1.390 . S
C497 C496 1.362 . S
C498 C487 1.492 . S
C498 C499 1.377 . S
C498 C503 1.397 . S
C499 H462 0.931 . S
C499 C498 1.377 . S
C499 C500 1.376 . S
C500 H463 0.930 . S
C500 C499 1.376 . S
C500 C501 1.376 . S
C501 C500 1.376 . S
C501 C502 1.378 . S
C501 C528 1.486 1_556 S
C502 H464 0.930 . S
C502 C501 1.378 . S
C502 C503 1.376 . S
C503 H465 0.929 . S
C503 C498 1.397 . S
C503 C502 1.376 . S
C504 C488 1.509 . S
C504 C505 1.391 . S
C504 C509 1.386 . S
C505 H466 0.930 . S
C505 C504 1.391 . S
C505 C506 1.375 . S
C506 H467 0.931 . S
C506 C505 1.375 . S
C506 C507 1.375 . S
C507 C506 1.375 . S
C507 C508 1.361 . S
C508 H468 0.930 . S
C508 C507 1.361 . S
C508 C509 1.399 . S
C509 H469 0.929 . S
C509 C504 1.386 . S
C509 C508 1.399 . S
C510 C489 1.485 . S
C510 C511 1.394 . S
C510 C515 1.360 . S
C511 H470 0.931 . S
C511 C510 1.394 . S
C511 C512 1.372 . S
C512 H471 0.930 . S
C512 C511 1.372 . S
C512 C513 1.397 . S
C513 C512 1.397 . S
C513 C514 1.390 . S
C513 C529 1.476 . S
C514 H472 0.930 . S
C514 C513 1.390 . S
C514 C515 1.366 . S
C515 H473 0.932 . S
C515 C510 1.360 . S
C515 C514 1.366 . S
C516 C490 1.490 . S
C516 C517 1.380 . S
C516 C521 1.386 . S
C517 H474 0.930 . S
C517 C516 1.380 . S
C517 C518 1.381 . S
C518 H475 0.929 . S
C518 C517 1.381 . S
C518 C519 1.371 . S
C519 C518 1.371 . S
C519 C520 1.380 . S
C520 H476 0.931 . S
C520 C519 1.380 . S
C520 C521 1.387 . S
C521 H477 0.930 . S
C521 C516 1.386 . S
C521 C520 1.387 . S
C522 C491 1.519 . S
C522 C523 1.377 . S
C522 C527 1.361 . S
C523 H478 0.929 . S
C523 C522 1.377 . S
C523 C524 1.386 . S
C524 H479 0.931 . S
C524 C523 1.386 . S
C524 C525 1.363 . S
C525 C524 1.363 . S
C525 C526 1.385 . S
C526 H480 0.930 . S
C526 C525 1.385 . S
C526 C527 1.396 . S
C527 H481 0.929 . S
C527 C522 1.361 . S
C527 C526 1.396 . S
C528 O482 1.300 . S
C528 O483 1.209 . S
C528 C501 1.486 1_554 S
C529 O484 1.199 . S
C529 O485 1.297 . S
C529 C513 1.476 . S
H530 O556 0.856 . S
H531 O559 0.861 . S
H532 C567 0.930 . S
H533 C568 0.930 . S
H534 C570 0.930 . S
H535 C571 0.930 . S
H536 C573 0.931 . S
H537 C574 0.935 . S
H538 C576 0.930 . S
H539 C577 0.929 . S
H540 C579 0.930 . S
H541 C580 0.931 . S
H542 C582 0.930 . S
H543 C583 0.929 . S
H544 C585 0.931 . S
H545 C586 0.930 . S
H546 C588 0.930 . S
H547 C589 0.932 . S
H548 C591 0.930 . S
H549 C592 0.929 . S
H550 C594 0.931 . S
H551 C595 0.930 . S
H552 C597 0.929 . S
H553 C598 0.931 . S
H554 C600 0.930 . S
H555 C601 0.929 . S
O556 H530 0.856 . S
O556 C602 1.300 . S
O557 C602 1.209 . S
O558 C603 1.199 . S
O559 H531 0.861 . S
O559 C603 1.277 1_565 S
C560 C561 1.404 . S
C560 C565 1.397 . S
C560 C566 1.492 . S
C561 C560 1.404 . S
C561 C562 1.396 . S
C561 C572 1.492 . S
C562 C561 1.396 . S
C562 C563 1.397 . S
C562 C578 1.509 . S
C563 C562 1.397 . S
C563 C564 1.412 . S
C563 C584 1.485 . S
C564 C563 1.412 . S
C564 C565 1.388 . S
C564 C590 1.490 . S
C565 C560 1.397 . S
C565 C564 1.388 . S
C565 C596 1.519 . S
C566 C560 1.492 . S
C566 C567 1.363 . S
C566 C571 1.390 . S
C567 H532 0.930 . S
C567 C566 1.363 . S
C567 C568 1.372 . S
C568 H533 0.930 . S
C568 C567 1.372 . S
C568 C569 1.383 . S
C569 C568 1.383 . S
C569 C570 1.395 . S
C570 H534 0.930 . S
C570 C569 1.395 . S
C570 C571 1.362 . S
C571 H535 0.930 . S
C571 C566 1.390 . S
C571 C570 1.362 . S
C572 C561 1.492 . S
C572 C573 1.377 . S
C572 C577 1.397 . S
C573 H536 0.931 . S
C573 C572 1.377 . S
C573 C574 1.376 . S
C574 H537 0.935 . S
C574 C573 1.376 . S
C574 C575 1.376 1_556 S
C575 C574 1.376 1_554 S
C575 C576 1.378 1_554 S
C575 C602 1.486 . S
C576 H538 0.930 . S
C576 C575 1.378 1_556 S
C576 C577 1.376 . S
C577 H539 0.929 . S
C577 C572 1.397 . S
C577 C576 1.376 . S
C578 C562 1.509 . S
C578 C579 1.391 . S
C578 C583 1.386 . S
C579 H540 0.930 . S
C579 C578 1.391 . S
C579 C580 1.375 . S
C580 H541 0.931 . S
C580 C579 1.375 . S
C580 C581 1.375 . S
C581 C580 1.375 . S
C581 C582 1.361 . S
C582 H542 0.930 . S
C582 C581 1.361 . S
C582 C583 1.399 . S
C583 H543 0.929 . S
C583 C578 1.386 . S
C583 C582 1.399 . S
C584 C563 1.485 . S
C584 C585 1.394 . S
C584 C589 1.360 . S
C585 H544 0.931 . S
C585 C584 1.394 . S
C585 C586 1.372 . S
C586 H545 0.930 . S
C586 C585 1.372 . S
C586 C587 1.397 . S
C587 C586 1.397 . S
C587 C588 1.390 . S
C587 C603 1.476 . S
C588 H546 0.930 . S
C588 C587 1.390 . S
C588 C589 1.366 . S
C589 H547 0.932 . S
C589 C584 1.360 . S
C589 C588 1.366 . S
C590 C564 1.490 . S
C590 C591 1.380 . S
C590 C595 1.386 . S
C591 H548 0.930 . S
C591 C590 1.380 . S
C591 C592 1.381 . S
C592 H549 0.929 . S
C592 C591 1.381 . S
C592 C593 1.371 . S
C593 C592 1.371 . S
C593 C594 1.380 . S
C594 H550 0.931 . S
C594 C593 1.380 . S
C594 C595 1.387 . S
C595 H551 0.930 . S
C595 C590 1.386 . S
C595 C594 1.387 . S
C596 C565 1.519 . S
C596 C597 1.377 . S
C596 C601 1.361 . S
C597 H552 0.929 . S
C597 C596 1.377 . S
C597 C598 1.386 . S
C598 H553 0.931 . S
C598 C597 1.386 . S
C598 C599 1.363 . S
C599 C598 1.363 . S
C599 C600 1.385 . S
C600 H554 0.930 . S
C600 C599 1.385 . S
C600 C601 1.396 . S
C601 H555 0.929 . S
C601 C596 1.361 . S
C601 C600 1.396 . S
C602 O556 1.300 . S
C602 O557 1.209 . S
C602 C575 1.486 . S
C603 O558 1.199 . S
C603 O559 1.277 1_545 S
C603 C587 1.476 . S
H604 O630 0.856 . S
H605 O633 0.854 . S
H606 C641 0.930 . S
H607 C642 0.930 . S
H608 C644 0.930 . S
H609 C645 0.930 . S
H610 C647 0.931 . S
H611 C648 0.930 . S
H612 C650 0.930 . S
H613 C651 0.929 . S
H614 C653 0.930 . S
H615 C654 0.931 . S
H616 C656 0.930 . S
H617 C657 0.929 . S
H618 C659 0.931 . S
H619 C660 0.930 . S
H620 C662 0.930 . S
H621 C663 0.932 . S
H622 C665 0.930 . S
H623 C666 0.929 . S
H624 C668 0.931 . S
H625 C669 0.930 . S
H626 C671 0.929 . S
H627 C672 0.931 . S
H628 C674 0.930 . S
H629 C675 0.929 . S
O630 H604 0.856 . S
O630 C676 1.300 . S
O631 C676 1.209 . S
O632 C677 1.199 . S
O633 H605 0.854 . S
O633 C677 1.297 . S
C634 C635 1.404 . S
C634 C639 1.397 . S
C634 C640 1.492 . S
C635 C634 1.404 . S
C635 C636 1.396 . S
C635 C646 1.492 . S
C636 C635 1.396 . S
C636 C637 1.397 . S
C636 C652 1.509 . S
C637 C636 1.397 . S
C637 C638 1.412 . S
C637 C658 1.485 . S
C638 C637 1.412 . S
C638 C639 1.388 . S
C638 C664 1.490 . S
C639 C634 1.397 . S
C639 C638 1.388 . S
C639 C670 1.519 . S
C640 C634 1.492 . S
C640 C641 1.363 . S
C640 C645 1.390 . S
C641 H606 0.930 . S
C641 C640 1.363 . S
C641 C642 1.372 . S
C642 H607 0.930 . S
C642 C641 1.372 . S
C642 C643 1.383 . S
C643 C642 1.383 . S
C643 C644 1.395 . S
C644 H608 0.930 . S
C644 C643 1.395 . S
C644 C645 1.362 . S
C645 H609 0.930 . S
C645 C640 1.390 . S
C645 C644 1.362 . S
C646 C635 1.492 . S
C646 C647 1.377 . S
C646 C651 1.397 . S
C647 H610 0.931 . S
C647 C646 1.377 . S
C647 C648 1.376 1_556 S
C648 H611 0.930 . S
C648 C647 1.376 1_554 S
C648 C649 1.376 . S
C649 C648 1.376 . S
C649 C650 1.378 1_554 S
C649 C676 1.486 . S
C650 H612 0.930 . S
C650 C649 1.378 1_556 S
C650 C651 1.376 . S
C651 H613 0.929 . S
C651 C646 1.397 . S
C651 C650 1.376 . S
C652 C636 1.509 . S
C652 C653 1.391 . S
C652 C657 1.386 . S
C653 H614 0.930 . S
C653 C652 1.391 . S
C653 C654 1.375 . S
C654 H615 0.931 . S
C654 C653 1.375 . S
C654 C655 1.375 . S
C655 C654 1.375 . S
C655 C656 1.361 . S
C656 H616 0.930 . S
C656 C655 1.361 . S
C656 C657 1.399 . S
C657 H617 0.929 . S
C657 C652 1.386 . S
C657 C656 1.399 . S
C658 C637 1.485 . S
C658 C659 1.394 . S
C658 C663 1.360 . S
C659 H618 0.931 . S
C659 C658 1.394 . S
C659 C660 1.372 . S
C660 H619 0.930 . S
C660 C659 1.372 . S
C660 C661 1.397 . S
C661 C660 1.397 . S
C661 C662 1.390 . S
C661 C677 1.476 . S
C662 H620 0.930 . S
C662 C661 1.390 . S
C662 C663 1.366 . S
C663 H621 0.932 . S
C663 C658 1.360 . S
C663 C662 1.366 . S
C664 C638 1.490 . S
C664 C665 1.380 . S
C664 C669 1.386 . S
C665 H622 0.930 . S
C665 C664 1.380 . S
C665 C666 1.381 . S
C666 H623 0.929 . S
C666 C665 1.381 . S
C666 C667 1.371 . S
C667 C666 1.371 . S
C667 C668 1.380 . S
C668 H624 0.931 . S
C668 C667 1.380 . S
C668 C669 1.387 . S
C669 H625 0.930 . S
C669 C664 1.386 . S
C669 C668 1.387 . S
C670 C639 1.519 . S
C670 C671 1.377 . S
C670 C675 1.361 . S
C671 H626 0.929 . S
C671 C670 1.377 . S
C671 C672 1.386 . S
C672 H627 0.931 . S
C672 C671 1.386 . S
C672 C673 1.363 . S
C673 C672 1.363 . S
C673 C674 1.385 . S
C674 H628 0.930 . S
C674 C673 1.385 . S
C674 C675 1.396 . S
C675 H629 0.929 . S
C675 C670 1.361 . S
C675 C674 1.396 . S
C676 O630 1.300 . S
C676 O631 1.209 . S
C676 C649 1.486 . S
C677 O632 1.199 . S
C677 O633 1.297 . S
C677 C661 1.476 . S
H678 O704 0.856 . S
H679 O707 0.854 . S
H680 C715 0.930 . S
H681 C716 0.930 . S
H682 C718 0.930 . S
H683 C719 0.930 . S
H684 C721 0.931 . S
H685 C722 0.930 . S
H686 C724 0.930 . S
H687 C725 0.929 . S
H688 C727 0.930 . S
H689 C728 0.931 . S
H690 C730 0.930 . S
H691 C731 0.929 . S
H692 C733 0.931 . S
H693 C734 0.930 . S
H694 C736 0.930 . S
H695 C737 0.932 . S
H696 C739 0.930 . S
H697 C740 0.929 . S
H698 C742 0.931 . S
H699 C743 0.930 . S
H700 C745 0.929 . S
H701 C746 0.931 . S
H702 C748 0.930 . S
H703 C749 0.929 . S
O704 H678 0.856 . S
O704 C750 1.300 . S
O705 C750 1.209 . S
O706 C751 1.199 . S
O707 H679 0.854 . S
O707 C751 1.297 . S
C708 C709 1.404 . S
C708 C713 1.397 . S
C708 C714 1.492 . S
C709 C708 1.404 . S
C709 C710 1.396 . S
C709 C720 1.492 . S
C710 C709 1.396 . S
C710 C711 1.397 . S
C710 C726 1.509 . S
C711 C710 1.397 . S
C711 C712 1.412 . S
C711 C732 1.485 . S
C712 C711 1.412 . S
C712 C713 1.388 . S
C712 C738 1.490 . S
C713 C708 1.397 . S
C713 C712 1.388 . S
C713 C744 1.519 . S
C714 C708 1.492 . S
C714 C715 1.363 . S
C714 C719 1.390 . S
C715 H680 0.930 . S
C715 C714 1.363 . S
C715 C716 1.372 . S
C716 H681 0.930 . S
C716 C715 1.372 . S
C716 C717 1.383 . S
C717 C716 1.383 . S
C717 C718 1.395 . S
C718 H682 0.930 . S
C718 C717 1.395 . S
C718 C719 1.362 . S
C719 H683 0.930 . S
C719 C714 1.390 . S
C719 C718 1.362 . S
C720 C709 1.492 . S
C720 C721 1.377 . S
C720 C725 1.397 . S
C721 H684 0.931 . S
C721 C720 1.377 . S
C721 C722 1.376 . S
C722 H685 0.930 . S
C722 C721 1.376 . S
C722 C723 1.376 . S
C723 C722 1.376 . S
C723 C724 1.378 . S
C723 C750 1.486 . S
C724 H686 0.930 . S
C724 C723 1.378 . S
C724 C725 1.376 . S
C725 H687 0.929 . S
C725 C720 1.397 . S
C725 C724 1.376 . S
C726 C710 1.509 . S
C726 C727 1.391 . S
C726 C731 1.386 . S
C727 H688 0.930 . S
C727 C726 1.391 . S
C727 C728 1.375 . S
C728 H689 0.931 . S
C728 C727 1.375 . S
C728 C729 1.375 . S
C729 C728 1.375 . S
C729 C730 1.361 . S
C730 H690 0.930 . S
C730 C729 1.361 . S
C730 C731 1.399 . S
C731 H691 0.929 . S
C731 C726 1.386 . S
C731 C730 1.399 . S
C732 C711 1.485 . S
C732 C733 1.394 . S
C732 C737 1.360 . S
C733 H692 0.931 . S
C733 C732 1.394 . S
C733 C734 1.372 . S
C734 H693 0.930 . S
C734 C733 1.372 . S
C734 C735 1.397 . S
C735 C734 1.397 . S
C735 C736 1.390 . S
C735 C751 1.476 . S
C736 H694 0.930 . S
C736 C735 1.390 . S
C736 C737 1.366 . S
C737 H695 0.932 . S
C737 C732 1.360 . S
C737 C736 1.366 . S
C738 C712 1.490 . S
C738 C739 1.380 . S
C738 C743 1.386 . S
C739 H696 0.930 . S
C739 C738 1.380 . S
C739 C740 1.381 . S
C740 H697 0.929 . S
C740 C739 1.381 . S
C740 C741 1.371 . S
C741 C740 1.371 . S
C741 C742 1.380 . S
C742 H698 0.931 . S
C742 C741 1.380 . S
C742 C743 1.387 . S
C743 H699 0.930 . S
C743 C738 1.386 . S
C743 C742 1.387 . S
C744 C713 1.519 . S
C744 C745 1.377 . S
C744 C749 1.361 . S
C745 H700 0.929 . S
C745 C744 1.377 . S
C745 C746 1.386 . S
C746 H701 0.931 . S
C746 C745 1.386 . S
C746 C747 1.363 . S
C747 C746 1.363 . S
C747 C748 1.385 . S
C748 H702 0.930 . S
C748 C747 1.385 . S
C748 C749 1.396 . S
C749 H703 0.929 . S
C749 C744 1.361 . S
C749 C748 1.396 . S
C750 O704 1.300 . S
C750 O705 1.209 . S
C750 C723 1.486 . S
C751 O706 1.199 . S
C751 O707 1.297 . S
C751 C735 1.476 . S
H752 O778 0.856 . S
H753 O781 0.854 . S
H754 C789 0.930 . S
H755 C790 0.930 . S
H756 C792 0.930 . S
H757 C793 0.930 . S
H758 C795 0.931 . S
H759 C796 0.930 . S
H760 C798 0.930 . S
H761 C799 0.929 . S
H762 C801 0.930 . S
H763 C802 0.931 . S
H764 C804 0.930 . S
H765 C805 0.929 . S
H766 C807 0.931 . S
H767 C808 0.930 . S
H768 C810 0.930 . S
H769 C811 0.932 . S
H770 C813 0.930 . S
H771 C814 0.929 . S
H772 C816 0.931 . S
H773 C817 0.930 . S
H774 C819 0.929 . S
H775 C820 0.931 . S
H776 C822 0.930 . S
H777 C823 0.929 . S
O778 H752 0.856 . S
O778 C824 1.300 . S
O779 C824 1.209 . S
O780 C825 1.199 . S
O781 H753 0.854 . S
O781 C825 1.297 . S
C782 C783 1.404 . S
C782 C787 1.397 . S
C782 C788 1.492 . S
C783 C782 1.404 . S
C783 C784 1.396 . S
C783 C794 1.492 . S
C784 C783 1.396 . S
C784 C785 1.397 . S
C784 C800 1.509 . S
C785 C784 1.397 . S
C785 C786 1.412 . S
C785 C806 1.485 . S
C786 C785 1.412 . S
C786 C787 1.388 . S
C786 C812 1.490 . S
C787 C782 1.397 . S
C787 C786 1.388 . S
C787 C818 1.519 . S
C788 C782 1.492 . S
C788 C789 1.363 . S
C788 C793 1.390 . S
C789 H754 0.930 . S
C789 C788 1.363 . S
C789 C790 1.372 . S
C790 H755 0.930 . S
C790 C789 1.372 . S
C790 C791 1.383 . S
C791 C790 1.383 . S
C791 C792 1.395 . S
C792 H756 0.930 . S
C792 C791 1.395 . S
C792 C793 1.362 . S
C793 H757 0.930 . S
C793 C788 1.390 . S
C793 C792 1.362 . S
C794 C783 1.492 . S
C794 C795 1.377 . S
C794 C799 1.397 . S
C795 H758 0.931 . S
C795 C794 1.377 . S
C795 C796 1.376 . S
C796 H759 0.930 . S
C796 C795 1.376 . S
C796 C797 1.376 . S
C797 C796 1.376 . S
C797 C798 1.378 . S
C797 C824 1.486 . S
C798 H760 0.930 . S
C798 C797 1.378 . S
C798 C799 1.376 . S
C799 H761 0.929 . S
C799 C794 1.397 . S
C799 C798 1.376 . S
C800 C784 1.509 . S
C800 C801 1.391 . S
C800 C805 1.386 . S
C801 H762 0.930 . S
C801 C800 1.391 . S
C801 C802 1.375 . S
C802 H763 0.931 . S
C802 C801 1.375 . S
C802 C803 1.375 . S
C803 C802 1.375 . S
C803 C804 1.361 . S
C804 H764 0.930 . S
C804 C803 1.361 . S
C804 C805 1.399 . S
C805 H765 0.929 . S
C805 C800 1.386 . S
C805 C804 1.399 . S
C806 C785 1.485 . S
C806 C807 1.394 . S
C806 C811 1.360 . S
C807 H766 0.931 . S
C807 C806 1.394 . S
C807 C808 1.372 . S
C808 H767 0.930 . S
C808 C807 1.372 . S
C808 C809 1.397 . S
C809 C808 1.397 . S
C809 C810 1.390 . S
C809 C825 1.476 . S
C810 H768 0.930 . S
C810 C809 1.390 . S
C810 C811 1.366 . S
C811 H769 0.932 . S
C811 C806 1.360 . S
C811 C810 1.366 . S
C812 C786 1.490 . S
C812 C813 1.380 . S
C812 C817 1.386 . S
C813 H770 0.930 . S
C813 C812 1.380 . S
C813 C814 1.381 . S
C814 H771 0.929 . S
C814 C813 1.381 . S
C814 C815 1.371 . S
C815 C814 1.371 . S
C815 C816 1.380 . S
C816 H772 0.931 . S
C816 C815 1.380 . S
C816 C817 1.387 . S
C817 H773 0.930 . S
C817 C812 1.386 . S
C817 C816 1.387 . S
C818 C787 1.519 . S
C818 C819 1.377 . S
C818 C823 1.361 . S
C819 H774 0.929 . S
C819 C818 1.377 . S
C819 C820 1.386 . S
C820 H775 0.931 . S
C820 C819 1.386 . S
C820 C821 1.363 . S
C821 C820 1.363 . S
C821 C822 1.385 . S
C822 H776 0.930 . S
C822 C821 1.385 . S
C822 C823 1.396 . S
C823 H777 0.929 . S
C823 C818 1.361 . S
C823 C822 1.396 . S
C824 O778 1.300 . S
C824 O779 1.209 . S
C824 C797 1.486 . S
C825 O780 1.199 . S
C825 O781 1.297 . S
C825 C809 1.476 . S
H826 O852 0.856 . S
H827 O855 0.854 . S
H828 C863 0.930 . S
H829 C864 0.930 . S
H830 C866 0.930 . S
H831 C867 0.930 . S
H832 C869 0.931 . S
H833 C870 0.930 . S
H834 C872 0.930 . S
H835 C873 0.929 . S
H836 C875 0.930 . S
H837 C876 0.931 . S
H838 C878 0.930 . S
H839 C879 0.929 . S
H840 C881 0.931 . S
H841 C882 0.930 . S
H842 C884 0.930 . S
H843 C885 0.932 . S
H844 C887 0.930 . S
H845 C888 0.929 . S
H846 C890 0.931 . S
H847 C891 0.930 . S
H848 C893 0.929 . S
H849 C894 0.931 . S
H850 C896 0.930 . S
H851 C897 0.929 . S
O852 H826 0.856 . S
O852 C898 1.300 . S
O853 C898 1.209 . S
O854 C899 1.199 . S
O855 H827 0.854 . S
O855 C899 1.297 . S
C856 C857 1.404 . S
C856 C861 1.397 . S
C856 C862 1.492 . S
C857 C856 1.404 . S
C857 C858 1.396 . S
C857 C868 1.492 . S
C858 C857 1.396 . S
C858 C859 1.397 . S
C858 C874 1.509 . S
C859 C858 1.397 . S
C859 C860 1.412 . S
C859 C880 1.485 . S
C860 C859 1.412 . S
C860 C861 1.388 . S
C860 C886 1.490 . S
C861 C856 1.397 . S
C861 C860 1.388 . S
C861 C892 1.519 . S
C862 C856 1.492 . S
C862 C863 1.363 . S
C862 C867 1.390 . S
C863 H828 0.930 . S
C863 C862 1.363 . S
C863 C864 1.372 . S
C864 H829 0.930 . S
C864 C863 1.372 . S
C864 C865 1.383 . S
C865 C864 1.383 . S
C865 C866 1.395 . S
C866 H830 0.930 . S
C866 C865 1.395 . S
C866 C867 1.362 . S
C867 H831 0.930 . S
C867 C862 1.390 . S
C867 C866 1.362 . S
C868 C857 1.492 . S
C868 C869 1.377 . S
C868 C873 1.397 . S
C869 H832 0.931 . S
C869 C868 1.377 . S
C869 C870 1.376 . S
C870 H833 0.930 . S
C870 C869 1.376 . S
C870 C871 1.376 . S
C871 C870 1.376 . S
C871 C872 1.378 . S
C871 C898 1.486 . S
C872 H834 0.930 . S
C872 C871 1.378 . S
C872 C873 1.376 . S
C873 H835 0.929 . S
C873 C868 1.397 . S
C873 C872 1.376 . S
C874 C858 1.509 . S
C874 C875 1.391 . S
C874 C879 1.386 . S
C875 H836 0.930 . S
C875 C874 1.391 . S
C875 C876 1.375 . S
C876 H837 0.931 . S
C876 C875 1.375 . S
C876 C877 1.375 . S
C877 C876 1.375 . S
C877 C878 1.361 . S
C878 H838 0.930 . S
C878 C877 1.361 . S
C878 C879 1.399 . S
C879 H839 0.929 . S
C879 C874 1.386 . S
C879 C878 1.399 . S
C880 C859 1.485 . S
C880 C881 1.394 . S
C880 C885 1.360 . S
C881 H840 0.931 . S
C881 C880 1.394 . S
C881 C882 1.372 . S
C882 H841 0.930 . S
C882 C881 1.372 . S
C882 C883 1.397 . S
C883 C882 1.397 . S
C883 C884 1.390 . S
C883 C899 1.476 . S
C884 H842 0.930 . S
C884 C883 1.390 . S
C884 C885 1.366 . S
C885 H843 0.932 . S
C885 C880 1.360 . S
C885 C884 1.366 . S
C886 C860 1.490 . S
C886 C887 1.380 . S
C886 C891 1.386 . S
C887 H844 0.930 . S
C887 C886 1.380 . S
C887 C888 1.381 . S
C888 H845 0.929 . S
C888 C887 1.381 . S
C888 C889 1.371 . S
C889 C888 1.371 . S
C889 C890 1.380 . S
C890 H846 0.931 . S
C890 C889 1.380 . S
C890 C891 1.387 . S
C891 H847 0.930 . S
C891 C886 1.386 . S
C891 C890 1.387 . S
C892 C861 1.519 . S
C892 C893 1.377 . S
C892 C897 1.361 . S
C893 H848 0.929 . S
C893 C892 1.377 . S
C893 C894 1.386 . S
C894 H849 0.931 . S
C894 C893 1.386 . S
C894 C895 1.363 . S
C895 C894 1.363 . S
C895 C896 1.385 . S
C896 H850 0.930 . S
C896 C895 1.385 . S
C896 C897 1.396 . S
C897 H851 0.929 . S
C897 C892 1.361 . S
C897 C896 1.396 . S
C898 O852 1.300 . S
C898 O853 1.209 . S
C898 C871 1.486 . S
C899 O854 1.199 . S
C899 O855 1.297 . S
C899 C883 1.476 . S
H900 O926 0.856 . S
H901 O929 0.854 . S
H902 C937 0.930 . S
H903 C938 0.930 . S
H904 C940 0.930 . S
H905 C941 0.930 . S
H906 C943 0.931 . S
H907 C944 0.930 1_655 S
H908 C946 0.930 . S
H909 C947 0.929 . S
H910 C949 0.930 . S
H911 C950 0.931 1_655 S
H912 C952 0.930 . S
H913 C953 0.929 . S
H914 C955 0.931 . S
H915 C956 0.930 . S
H916 C958 0.930 . S
H917 C959 0.932 . S
H918 C961 0.930 . S
H919 C962 0.929 . S
H920 C964 0.931 . S
H921 C965 0.930 . S
H922 C967 0.929 . S
H923 C968 0.931 . S
H924 C970 0.930 . S
H925 C971 0.929 . S
O926 H900 0.856 . S
O926 C972 1.300 . S
O927 C972 1.209 . S
O928 C973 1.199 1_655 S
O929 H901 0.854 . S
O929 C973 1.297 . S
C930 C931 1.404 . S
C930 C935 1.394 . S
C930 C936 1.492 . S
C931 C930 1.404 . S
C931 C932 1.396 . S
C931 C942 1.492 . S
C932 C931 1.396 . S
C932 C933 1.397 . S
C932 C948 1.509 . S
C933 C932 1.397 . S
C933 C934 1.418 . S
C933 C954 1.485 . S
C934 C933 1.418 . S
C934 C935 1.409 . S
C934 C960 1.490 1_455 S
C935 C930 1.394 . S
C935 C934 1.409 . S
C935 C966 1.485 1_455 S
C936 C930 1.492 . S
C936 C937 1.363 1_455 S
C936 C941 1.390 . S
C937 H902 0.930 . S
C937 C936 1.363 1_655 S
C937 C938 1.372 . S
C938 H903 0.930 . S
C938 C937 1.372 . S
C938 C939 1.383 . S
C939 C938 1.383 . S
C939 C940 1.395 1_655 S
C940 H904 0.930 . S
C940 C939 1.395 1_455 S
C940 C941 1.362 . S
C941 H905 0.930 . S
C941 C936 1.390 . S
C941 C940 1.362 . S
C942 C931 1.492 . S
C942 C943 1.377 1_455 S
C942 C947 1.397 . S
C943 H906 0.931 . S
C943 C942 1.377 1_655 S
C943 C944 1.376 1_655 S
C944 H907 0.930 1_455 S
C944 C943 1.376 1_455 S
C944 C945 1.376 . S
C945 C944 1.376 . S
C945 C946 1.378 . S
C945 C972 1.486 . S
C946 H908 0.930 . S
C946 C945 1.378 . S
C946 C947 1.376 . S
C947 H909 0.929 . S
C947 C942 1.397 . S
C947 C946 1.376 . S
C948 C932 1.509 . S
C948 C949 1.391 1_455 S
C948 C953 1.386 . S
C949 H910 0.930 . S
C949 C948 1.391 1_655 S
C949 C950 1.375 1_655 S
C950 H911 0.931 1_455 S
C950 C949 1.375 1_455 S
C950 C951 1.375 . S
C951 C950 1.375 . S
C951 C952 1.361 . S
C952 H912 0.930 . S
C952 C951 1.361 . S
C952 C953 1.399 . S
C953 H913 0.929 . S
C953 C948 1.386 . S
C953 C952 1.399 . S
C954 C933 1.485 . S
C954 C955 1.394 1_455 S
C954 C959 1.360 . S
C955 H914 0.931 . S
C955 C954 1.394 1_655 S
C955 C956 1.372 . S
C956 H915 0.930 . S
C956 C955 1.372 . S
C956 C957 1.397 1_655 S
C957 C956 1.397 1_455 S
C957 C958 1.390 . S
C957 C973 1.476 . S
C958 H916 0.930 . S
C958 C957 1.390 . S
C958 C959 1.366 . S
C959 H917 0.932 . S
C959 C954 1.360 . S
C959 C958 1.366 . S
C960 C934 1.490 1_655 S
C960 C961 1.380 . S
C960 C965 1.386 1_655 S
C961 H918 0.930 . S
C961 C960 1.380 . S
C961 C962 1.381 . S
C962 H919 0.929 . S
C962 C961 1.381 . S
C962 C963 1.371 . S
C963 C962 1.371 . S
C963 C964 1.380 1_655 S
C964 H920 0.931 . S
C964 C963 1.380 1_455 S
C964 C965 1.387 . S
C965 H921 0.930 . S
C965 C960 1.386 1_455 S
C965 C964 1.387 . S
C966 C935 1.485 1_655 S
C966 C967 1.419 . S
C966 C971 1.333 1_655 S
C967 H922 0.929 . S
C967 C966 1.419 . S
C967 C968 1.386 . S
C968 H923 0.931 . S
C968 C967 1.386 . S
C968 C969 1.396 . S
C969 C968 1.396 . S
C969 C970 1.336 1_655 S
C970 H924 0.930 . S
C970 C969 1.336 1_455 S
C970 C971 1.396 . S
C971 H925 0.929 . S
C971 C966 1.333 1_455 S
C971 C970 1.396 . S
C972 O926 1.300 . S
C972 O927 1.209 . S
C972 C945 1.486 . S
C973 O928 1.199 1_455 S
C973 O929 1.297 . S
C973 C957 1.476 . S
H974 O1000 0.856 . S
H975 O1003 0.854 . S
H976 C1011 0.930 . S
H977 C1012 0.930 . S
H978 C1014 0.930 . S
H979 C1015 0.930 . S
H980 C1017 0.931 . S
H981 C1018 0.930 . S
H982 C1020 0.930 . S
H983 C1021 0.929 . S
H984 C1023 0.930 . S
H985 C1024 0.931 . S
H986 C1026 0.930 . S
H987 C1027 0.929 . S
H988 C1029 0.931 . S
H989 C1030 0.930 . S
H990 C1032 0.930 . S
H991 C1033 0.932 . S
H992 C1035 0.930 . S
H993 C1036 0.929 . S
H994 C1038 0.931 . S
H995 C1039 0.930 . S
H996 C1041 0.929 . S
H997 C1042 0.931 . S
H998 C1044 0.930 . S
H999 C1045 0.929 . S
O1000 H974 0.856 . S
O1000 C1046 1.300 . S
O1001 C1046 1.209 . S
O1002 C1047 1.199 . S
O1003 H975 0.854 . S
O1003 C1047 1.297 . S
C1004 C1005 1.404 . S
C1004 C1009 1.397 . S
C1004 C1010 1.492 . S
C1005 C1004 1.404 . S
C1005 C1006 1.396 . S
C1005 C1016 1.492 . S
C1006 C1005 1.396 . S
C1006 C1007 1.397 . S
C1006 C1022 1.509 . S
C1007 C1006 1.397 . S
C1007 C1008 1.412 . S
C1007 C1028 1.485 . S
C1008 C1007 1.412 . S
C1008 C1009 1.388 . S
C1008 C1034 1.490 . S
C1009 C1004 1.397 . S
C1009 C1008 1.388 . S
C1009 C1040 1.519 . S
C1010 C1004 1.492 . S
C1010 C1011 1.363 . S
C1010 C1015 1.390 . S
C1011 H976 0.930 . S
C1011 C1010 1.363 . S
C1011 C1012 1.372 . S
C1012 H977 0.930 . S
C1012 C1011 1.372 . S
C1012 C1013 1.383 . S
C1013 C1012 1.383 . S
C1013 C1014 1.395 . S
C1014 H978 0.930 . S
C1014 C1013 1.395 . S
C1014 C1015 1.362 . S
C1015 H979 0.930 . S
C1015 C1010 1.390 . S
C1015 C1014 1.362 . S
C1016 C1005 1.492 . S
C1016 C1017 1.377 . S
C1016 C1021 1.397 . S
C1017 H980 0.931 . S
C1017 C1016 1.377 . S
C1017 C1018 1.376 . S
C1018 H981 0.930 . S
C1018 C1017 1.376 . S
C1018 C1019 1.376 . S
C1019 C1018 1.376 . S
C1019 C1020 1.378 . S
C1019 C1046 1.486 . S
C1020 H982 0.930 . S
C1020 C1019 1.378 . S
C1020 C1021 1.376 . S
C1021 H983 0.929 . S
C1021 C1016 1.397 . S
C1021 C1020 1.376 . S
C1022 C1006 1.509 . S
C1022 C1023 1.391 . S
C1022 C1027 1.386 . S
C1023 H984 0.930 . S
C1023 C1022 1.391 . S
C1023 C1024 1.375 . S
C1024 H985 0.931 . S
C1024 C1023 1.375 . S
C1024 C1025 1.375 . S
C1025 C1024 1.375 . S
C1025 C1026 1.361 . S
C1026 H986 0.930 . S
C1026 C1025 1.361 . S
C1026 C1027 1.399 . S
C1027 H987 0.929 . S
C1027 C1022 1.386 . S
C1027 C1026 1.399 . S
C1028 C1007 1.485 . S
C1028 C1029 1.394 . S
C1028 C1033 1.360 . S
C1029 H988 0.931 . S
C1029 C1028 1.394 . S
C1029 C1030 1.372 . S
C1030 H989 0.930 . S
C1030 C1029 1.372 . S
C1030 C1031 1.397 . S
C1031 C1030 1.397 . S
C1031 C1032 1.390 . S
C1031 C1047 1.476 . S
C1032 H990 0.930 . S
C1032 C1031 1.390 . S
C1032 C1033 1.366 . S
C1033 H991 0.932 . S
C1033 C1028 1.360 . S
C1033 C1032 1.366 . S
C1034 C1008 1.490 . S
C1034 C1035 1.380 . S
C1034 C1039 1.386 . S
C1035 H992 0.930 . S
C1035 C1034 1.380 . S
C1035 C1036 1.381 . S
C1036 H993 0.929 . S
C1036 C1035 1.381 . S
C1036 C1037 1.371 . S
C1037 C1036 1.371 . S
C1037 C1038 1.380 . S
C1038 H994 0.931 . S
C1038 C1037 1.380 . S
C1038 C1039 1.387 . S
C1039 H995 0.930 . S
C1039 C1034 1.386 . S
C1039 C1038 1.387 . S
C1040 C1009 1.519 . S
C1040 C1041 1.377 . S
C1040 C1045 1.361 . S
C1041 H996 0.929 . S
C1041 C1040 1.377 . S
C1041 C1042 1.386 . S
C1042 H997 0.931 . S
C1042 C1041 1.386 . S
C1042 C1043 1.363 . S
C1043 C1042 1.363 . S
C1043 C1044 1.385 . S
C1044 H998 0.930 . S
C1044 C1043 1.385 . S
C1044 C1045 1.396 . S
C1045 H999 0.929 . S
C1045 C1040 1.361 . S
C1045 C1044 1.396 . S
C1046 O1000 1.300 . S
C1046 O1001 1.209 . S
C1046 C1019 1.486 . S
C1047 O1002 1.199 . S
C1047 O1003 1.297 . S
C1047 C1031 1.476 . S
H1048 O1074 0.856 . S
H1049 O1077 0.854 . S
H1050 C1085 0.930 . S
H1051 C1086 0.930 . S
H1052 C1088 0.930 . S
H1053 C1089 0.930 . S
H1054 C1091 0.931 . S
H1055 C1092 0.953 . S
H1056 C1094 0.930 . S
H1057 C1095 0.929 . S
H1058 C1097 0.930 . S
H1059 C1098 0.931 . S
H1060 C1100 0.930 . S
H1061 C1101 0.929 . S
H1062 C1103 0.931 . S
H1063 C1104 0.930 . S
H1064 C1106 0.930 . S
H1065 C1107 0.932 . S
H1066 C1109 0.930 . S
H1067 C1110 0.929 . S
H1068 C1112 0.931 . S
H1069 C1113 0.930 . S
H1070 C1115 0.929 . S
H1071 C1116 0.931 . S
H1072 C1118 0.930 . S
H1073 C1119 0.929 . S
O1074 H1048 0.856 . S
O1074 C1120 1.300 . S
O1075 C1120 1.209 . S
O1076 C1121 1.199 1_545 S
O1077 H1049 0.854 . S
O1077 C1121 1.297 . S
C1078 C1079 1.404 . S
C1078 C1083 1.413 . S
C1078 C1084 1.492 . S
C1079 C1078 1.404 . S
C1079 C1080 1.396 . S
C1079 C1090 1.492 . S
C1080 C1079 1.396 . S
C1080 C1081 1.397 . S
C1080 C1096 1.509 . S
C1081 C1080 1.397 . S
C1081 C1082 1.411 . S
C1081 C1102 1.485 . S
C1082 C1081 1.411 . S
C1082 C1083 1.367 . S
C1082 C1108 1.488 1_565 S
C1083 C1078 1.413 . S
C1083 C1082 1.367 . S
C1083 C1114 1.533 1_565 S
C1084 C1078 1.492 . S
C1084 C1085 1.363 1_565 S
C1084 C1089 1.390 . S
C1085 H1050 0.930 . S
C1085 C1084 1.363 1_545 S
C1085 C1086 1.372 . S
C1086 H1051 0.930 . S
C1086 C1085 1.372 . S
C1086 C1087 1.383 . S
C1087 C1086 1.383 . S
C1087 C1088 1.395 1_545 S
C1088 H1052 0.930 . S
C1088 C1087 1.395 1_565 S
C1088 C1089 1.362 . S
C1089 H1053 0.930 . S
C1089 C1084 1.390 . S
C1089 C1088 1.362 . S
C1090 C1079 1.492 . S
C1090 C1091 1.377 1_565 S
C1090 C1095 1.397 . S
C1091 H1054 0.931 . S
C1091 C1090 1.377 1_545 S
C1091 C1092 1.388 . S
C1092 H1055 0.953 . S
C1092 C1091 1.388 . S
C1092 C1093 1.341 1_545 S
C1093 C1092 1.341 1_565 S
C1093 C1094 1.378 . S
C1093 C1120 1.486 . S
C1094 H1056 0.930 . S
C1094 C1093 1.378 . S
C1094 C1095 1.376 . S
C1095 H1057 0.929 . S
C1095 C1090 1.397 . S
C1095 C1094 1.376 . S
C1096 C1080 1.509 . S
C1096 C1097 1.391 1_565 S
C1096 C1101 1.386 . S
C1097 H1058 0.930 . S
C1097 C1096 1.391 1_545 S
C1097 C1098 1.375 . S
C1098 H1059 0.931 . S
C1098 C1097 1.375 . S
C1098 C1099 1.375 1_545 S
C1099 C1098 1.375 1_565 S
C1099 C1100 1.361 . S
C1100 H1060 0.930 . S
C1100 C1099 1.361 . S
C1100 C1101 1.399 . S
C1101 H1061 0.929 . S
C1101 C1096 1.386 . S
C1101 C1100 1.399 . S
C1102 C1081 1.485 . S
C1102 C1103 1.394 1_565 S
C1102 C1107 1.360 . S
C1103 H1062 0.931 . S
C1103 C1102 1.394 1_545 S
C1103 C1104 1.372 . S
C1104 H1063 0.930 . S
C1104 C1103 1.372 . S
C1104 C1105 1.397 1_545 S
C1105 C1104 1.397 1_565 S
C1105 C1106 1.390 . S
C1105 C1121 1.476 . S
C1106 H1064 0.930 . S
C1106 C1105 1.390 . S
C1106 C1107 1.366 . S
C1107 H1065 0.932 . S
C1107 C1102 1.360 . S
C1107 C1106 1.366 . S
C1108 C1082 1.488 1_545 S
C1108 C1109 1.380 . S
C1108 C1113 1.386 1_545 S
C1109 H1066 0.930 . S
C1109 C1108 1.380 . S
C1109 C1110 1.381 . S
C1110 H1067 0.929 . S
C1110 C1109 1.381 . S
C1110 C1111 1.371 . S
C1111 C1110 1.371 . S
C1111 C1112 1.380 1_545 S
C1112 H1068 0.931 . S
C1112 C1111 1.380 1_565 S
C1112 C1113 1.387 . S
C1113 H1069 0.930 . S
C1113 C1108 1.386 1_565 S
C1113 C1112 1.387 . S
C1114 C1083 1.533 1_545 S
C1114 C1115 1.377 . S
C1114 C1119 1.360 1_545 S
C1115 H1070 0.929 . S
C1115 C1114 1.377 . S
C1115 C1116 1.386 . S
C1116 H1071 0.931 . S
C1116 C1115 1.386 . S
C1116 C1117 1.363 1_545 S
C1117 C1116 1.363 1_565 S
C1117 C1118 1.385 . S
C1118 H1072 0.930 . S
C1118 C1117 1.385 . S
C1118 C1119 1.396 . S
C1119 H1073 0.929 . S
C1119 C1114 1.360 1_565 S
C1119 C1118 1.396 . S
C1120 O1074 1.300 . S
C1120 O1075 1.209 . S
C1120 C1093 1.486 . S
C1121 O1076 1.199 1_565 S
C1121 O1077 1.297 . S
C1121 C1105 1.476 . S
H1122 O1148 0.856 . S
H1123 O1151 0.854 . S
H1124 C1159 0.930 . S
H1125 C1160 0.930 . S
H1126 C1162 0.930 . S
H1127 C1163 0.930 . S
H1128 C1165 0.931 . S
H1129 C1166 0.930 . S
H1130 C1168 0.930 . S
H1131 C1169 0.929 . S
H1132 C1171 0.930 . S
H1133 C1172 0.931 . S
H1134 C1174 0.930 . S
H1135 C1175 0.929 . S
H1136 C1177 0.931 . S
H1137 C1178 0.930 . S
H1138 C1180 0.930 . S
H1139 C1181 0.932 . S
H1140 C1183 0.930 . S
H1141 C1184 0.929 . S
H1142 C1186 0.931 . S
H1143 C1187 0.930 . S
H1144 C1189 0.929 . S
H1145 C1190 0.931 . S
H1146 C1192 0.930 . S
H1147 C1193 0.929 . S
O1148 H1122 0.856 . S
O1148 C1194 1.300 . S
O1149 C1194 1.209 1_565 S
O1150 C1195 1.199 1_545 S
O1151 H1123 0.854 . S
O1151 C1195 1.297 . S
C1152 C1153 1.404 . S
C1152 C1157 1.397 1_545 S
C1152 C1158 1.492 . S
C1153 C1152 1.404 . S
C1153 C1154 1.396 . S
C1153 C1164 1.492 . S
C1154 C1153 1.396 . S
C1154 C1155 1.396 1_545 S
C1154 C1170 1.509 . S
C1155 C1154 1.396 1_565 S
C1155 C1156 1.421 . S
C1155 C1176 1.488 . S
C1156 C1155 1.421 . S
C1156 C1157 1.372 . S
C1156 C1182 1.487 . S
C1157 C1152 1.397 1_565 S
C1157 C1156 1.372 . S
C1157 C1188 1.519 . S
C1158 C1152 1.492 . S
C1158 C1159 1.363 . S
C1158 C1163 1.390 1_545 S
C1159 H1124 0.930 . S
C1159 C1158 1.363 . S
C1159 C1160 1.372 . S
C1160 H1125 0.930 . S
C1160 C1159 1.372 . S
C1160 C1161 1.383 . S
C1161 C1160 1.383 . S
C1161 C1162 1.395 1_545 S
C1162 H1126 0.930 . S
C1162 C1161 1.395 1_565 S
C1162 C1163 1.362 . S
C1163 H1127 0.930 . S
C1163 C1158 1.390 1_565 S
C1163 C1162 1.362 . S
C1164 C1153 1.492 . S
C1164 C1165 1.377 . S
C1164 C1169 1.397 1_545 S
C1165 H1128 0.931 . S
C1165 C1164 1.377 . S
C1165 C1166 1.376 . S
C1166 H1129 0.930 . S
C1166 C1165 1.376 . S
C1166 C1167 1.376 . S
C1167 C1166 1.376 . S
C1167 C1168 1.378 1_545 S
C1167 C1194 1.486 . S
C1168 H1130 0.930 . S
C1168 C1167 1.378 1_565 S
C1168 C1169 1.376 . S
C1169 H1131 0.929 . S
C1169 C1164 1.397 1_565 S
C1169 C1168 1.376 . S
C1170 C1154 1.509 . S
C1170 C1171 1.391 . S
C1170 C1175 1.386 1_545 S
C1171 H1132 0.930 . S
C1171 C1170 1.391 . S
C1171 C1172 1.375 . S
C1172 H1133 0.931 . S
C1172 C1171 1.375 . S
C1172 C1173 1.375 . S
C1173 C1172 1.375 . S
C1173 C1174 1.361 1_545 S
C1174 H1134 0.930 . S
C1174 C1173 1.361 1_565 S
C1174 C1175 1.399 . S
C1175 H1135 0.929 . S
C1175 C1170 1.386 1_565 S
C1175 C1174 1.399 . S
C1176 C1155 1.488 . S
C1176 C1177 1.394 1_565 S
C1176 C1181 1.360 . S
C1177 H1136 0.931 . S
C1177 C1176 1.394 1_545 S
C1177 C1178 1.372 . S
C1178 H1137 0.930 . S
C1178 C1177 1.372 . S
C1178 C1179 1.397 1_545 S
C1179 C1178 1.397 1_565 S
C1179 C1180 1.390 . S
C1179 C1195 1.476 . S
C1180 H1138 0.930 . S
C1180 C1179 1.390 . S
C1180 C1181 1.366 . S
C1181 H1139 0.932 . S
C1181 C1176 1.360 . S
C1181 C1180 1.366 . S
C1182 C1156 1.487 . S
C1182 C1183 1.342 1_565 S
C1182 C1187 1.434 . S
C1183 H1140 0.930 . S
C1183 C1182 1.342 1_545 S
C1183 C1184 1.381 . S
C1184 H1141 0.929 . S
C1184 C1183 1.381 . S
C1184 C1185 1.380 . S
C1185 C1184 1.380 . S
C1185 C1186 1.373 1_545 S
C1186 H1142 0.931 . S
C1186 C1185 1.373 1_565 S
C1186 C1187 1.387 . S
C1187 H1143 0.930 . S
C1187 C1182 1.434 . S
C1187 C1186 1.387 . S
C1188 C1157 1.519 . S
C1188 C1189 1.377 1_565 S
C1188 C1193 1.361 . S
C1189 H1144 0.929 . S
C1189 C1188 1.377 1_545 S
C1189 C1190 1.386 . S
C1190 H1145 0.931 . S
C1190 C1189 1.386 . S
C1190 C1191 1.363 1_545 S
C1191 C1190 1.363 1_565 S
C1191 C1192 1.385 . S
C1192 H1146 0.930 . S
C1192 C1191 1.385 . S
C1192 C1193 1.396 . S
C1193 H1147 0.929 . S
C1193 C1188 1.361 . S
C1193 C1192 1.396 . S
C1194 O1148 1.300 . S
C1194 O1149 1.209 1_545 S
C1194 C1167 1.486 . S
C1195 O1150 1.199 1_565 S
C1195 O1151 1.297 . S
C1195 C1179 1.476 . S
H1196 O1222 0.856 . S
H1197 O1225 0.854 . S
H1198 C1233 0.930 . S
H1199 C1234 0.930 . S
H1200 C1236 0.930 . S
H1201 C1237 0.930 . S
H1202 C1239 0.931 . S
H1203 C1240 0.930 . S
H1204 C1242 0.930 . S
H1205 C1243 0.929 . S
H1206 C1245 0.930 . S
H1207 C1246 0.931 . S
H1208 C1248 0.930 . S
H1209 C1249 0.929 . S
H1210 C1251 0.931 . S
H1211 C1252 0.930 . S
H1212 C1254 0.930 . S
H1213 C1255 0.932 . S
H1214 C1257 0.930 . S
H1215 C1258 0.929 . S
H1216 C1260 0.931 . S
H1217 C1261 0.930 . S
H1218 C1263 0.929 . S
H1219 C1264 0.931 . S
H1220 C1266 0.930 . S
H1221 C1267 0.929 . S
O1222 H1196 0.856 . S
O1222 C1268 1.300 . S
O1223 C1268 1.209 1_455 S
O1224 C1269 1.199 1_655 S
O1225 H1197 0.854 . S
O1225 C1269 1.297 . S
C1226 C1227 1.404 . S
C1226 C1231 1.396 1_655 S
C1226 C1232 1.492 . S
C1227 C1226 1.404 . S
C1227 C1228 1.396 . S
C1227 C1238 1.492 . S
C1228 C1227 1.396 . S
C1228 C1229 1.397 . S
C1228 C1244 1.509 . S
C1229 C1228 1.397 . S
C1229 C1230 1.394 1_655 S
C1229 C1250 1.489 1_655 S
C1230 C1229 1.394 1_455 S
C1230 C1231 1.413 . S
C1230 C1256 1.484 . S
C1231 C1226 1.396 1_455 S
C1231 C1230 1.413 . S
C1231 C1262 1.517 . S
C1232 C1226 1.492 . S
C1232 C1233 1.363 . S
C1232 C1237 1.390 1_655 S
C1233 H1198 0.930 . S
C1233 C1232 1.363 . S
C1233 C1234 1.372 . S
C1234 H1199 0.930 . S
C1234 C1233 1.372 . S
C1234 C1235 1.383 . S
C1235 C1234 1.383 . S
C1235 C1236 1.395 1_655 S
C1236 H1200 0.930 . S
C1236 C1235 1.395 1_455 S
C1236 C1237 1.362 . S
C1237 H1201 0.930 . S
C1237 C1232 1.390 1_455 S
C1237 C1236 1.362 . S
C1238 C1227 1.492 . S
C1238 C1239 1.377 . S
C1238 C1243 1.397 1_655 S
C1239 H1202 0.931 . S
C1239 C1238 1.377 . S
C1239 C1240 1.376 . S
C1240 H1203 0.930 . S
C1240 C1239 1.376 . S
C1240 C1241 1.376 . S
C1241 C1240 1.376 . S
C1241 C1242 1.378 1_655 S
C1241 C1268 1.486 . S
C1242 H1204 0.930 . S
C1242 C1241 1.378 1_455 S
C1242 C1243 1.376 . S
C1243 H1205 0.929 . S
C1243 C1238 1.397 1_455 S
C1243 C1242 1.376 . S
C1244 C1228 1.509 . S
C1244 C1245 1.391 . S
C1244 C1249 1.386 1_655 S
C1245 H1206 0.930 . S
C1245 C1244 1.391 . S
C1245 C1246 1.375 . S
C1246 H1207 0.931 . S
C1246 C1245 1.375 . S
C1246 C1247 1.375 . S
C1247 C1246 1.375 . S
C1247 C1248 1.361 1_655 S
C1248 H1208 0.930 . S
C1248 C1247 1.361 1_455 S
C1248 C1249 1.399 . S
C1249 H1209 0.929 . S
C1249 C1244 1.386 1_455 S
C1249 C1248 1.399 . S
C1250 C1229 1.489 1_455 S
C1250 C1251 1.394 1_455 S
C1250 C1255 1.360 . S
C1251 H1210 0.931 . S
C1251 C1250 1.394 1_655 S
C1251 C1252 1.372 . S
C1252 H1211 0.930 . S
C1252 C1251 1.372 . S
C1252 C1253 1.397 1_655 S
C1253 C1252 1.397 1_455 S
C1253 C1254 1.390 . S
C1253 C1269 1.476 . S
C1254 H1212 0.930 . S
C1254 C1253 1.390 . S
C1254 C1255 1.366 . S
C1255 H1213 0.932 . S
C1255 C1250 1.360 . S
C1255 C1254 1.366 . S
C1256 C1230 1.484 . S
C1256 C1257 1.380 1_455 S
C1256 C1261 1.386 . S
C1257 H1214 0.930 . S
C1257 C1256 1.380 1_655 S
C1257 C1258 1.381 . S
C1258 H1215 0.929 . S
C1258 C1257 1.381 . S
C1258 C1259 1.371 1_655 S
C1259 C1258 1.371 1_455 S
C1259 C1260 1.380 . S
C1260 H1216 0.931 . S
C1260 C1259 1.380 . S
C1260 C1261 1.387 . S
C1261 H1217 0.930 . S
C1261 C1256 1.386 . S
C1261 C1260 1.387 . S
C1262 C1231 1.517 . S
C1262 C1263 1.377 1_455 S
C1262 C1267 1.361 . S
C1263 H1218 0.929 . S
C1263 C1262 1.377 1_655 S
C1263 C1264 1.386 . S
C1264 H1219 0.931 . S
C1264 C1263 1.386 . S
C1264 C1265 1.363 1_655 S
C1265 C1264 1.363 1_455 S
C1265 C1266 1.385 . S
C1266 H1220 0.930 . S
C1266 C1265 1.385 . S
C1266 C1267 1.396 . S
C1267 H1221 0.929 . S
C1267 C1262 1.361 . S
C1267 C1266 1.396 . S
C1268 O1222 1.300 . S
C1268 O1223 1.209 1_655 S
C1268 C1241 1.486 . S
C1269 O1224 1.199 1_455 S
C1269 O1225 1.297 . S
C1269 C1253 1.476 . S
H1270 O1296 0.856 . S
H1271 O1299 0.854 . S
H1272 C1307 0.930 . S
H1273 C1308 0.930 . S
H1274 C1310 0.930 . S
H1275 C1311 0.930 . S
H1276 C1313 0.931 . S
H1277 C1314 0.930 . S
H1278 C1316 0.930 . S
H1279 C1317 0.929 . S
H1280 C1319 0.930 . S
H1281 C1320 0.931 . S
H1282 C1322 0.930 . S
H1283 C1323 0.929 . S
H1284 C1325 0.931 . S
H1285 C1326 0.930 . S
H1286 C1328 0.930 . S
H1287 C1329 0.932 . S
H1288 C1331 0.930 . S
H1289 C1332 0.929 . S
H1290 C1334 0.931 . S
H1291 C1335 0.930 . S
H1292 C1337 0.929 . S
H1293 C1338 0.931 . S
H1294 C1340 0.930 . S
H1295 C1341 0.929 . S
O1296 H1270 0.856 . S
O1296 C1342 1.300 . S
O1297 C1342 1.209 . S
O1298 C1343 1.199 . S
O1299 H1271 0.854 . S
O1299 C1343 1.297 . S
C1300 C1301 1.404 . S
C1300 C1305 1.397 . S
C1300 C1306 1.492 . S
C1301 C1300 1.404 . S
C1301 C1302 1.396 . S
C1301 C1312 1.492 . S
C1302 C1301 1.396 . S
C1302 C1303 1.397 . S
C1302 C1318 1.509 . S
C1303 C1302 1.397 . S
C1303 C1304 1.412 . S
C1303 C1324 1.485 . S
C1304 C1303 1.412 . S
C1304 C1305 1.388 . S
C1304 C1330 1.490 . S
C1305 C1300 1.397 . S
C1305 C1304 1.388 . S
C1305 C1336 1.519 . S
C1306 C1300 1.492 . S
C1306 C1307 1.363 . S
C1306 C1311 1.390 . S
C1307 H1272 0.930 . S
C1307 C1306 1.363 . S
C1307 C1308 1.372 . S
C1308 H1273 0.930 . S
C1308 C1307 1.372 . S
C1308 C1309 1.383 . S
C1309 C1308 1.383 . S
C1309 C1310 1.395 . S
C1310 H1274 0.930 . S
C1310 C1309 1.395 . S
C1310 C1311 1.362 . S
C1311 H1275 0.930 . S
C1311 C1306 1.390 . S
C1311 C1310 1.362 . S
C1312 C1301 1.492 . S
C1312 C1313 1.377 . S
C1312 C1317 1.397 . S
C1313 H1276 0.931 . S
C1313 C1312 1.377 . S
C1313 C1314 1.376 . S
C1314 H1277 0.930 . S
C1314 C1313 1.376 . S
C1314 C1315 1.376 . S
C1315 C1314 1.376 . S
C1315 C1316 1.378 . S
C1315 C1342 1.486 . S
C1316 H1278 0.930 . S
C1316 C1315 1.378 . S
C1316 C1317 1.376 . S
C1317 H1279 0.929 . S
C1317 C1312 1.397 . S
C1317 C1316 1.376 . S
C1318 C1302 1.509 . S
C1318 C1319 1.391 . S
C1318 C1323 1.386 . S
C1319 H1280 0.930 . S
C1319 C1318 1.391 . S
C1319 C1320 1.375 . S
C1320 H1281 0.931 . S
C1320 C1319 1.375 . S
C1320 C1321 1.375 . S
C1321 C1320 1.375 . S
C1321 C1322 1.361 . S
C1322 H1282 0.930 . S
C1322 C1321 1.361 . S
C1322 C1323 1.399 . S
C1323 H1283 0.929 . S
C1323 C1318 1.386 . S
C1323 C1322 1.399 . S
C1324 C1303 1.485 . S
C1324 C1325 1.394 . S
C1324 C1329 1.360 . S
C1325 H1284 0.931 . S
C1325 C1324 1.394 . S
C1325 C1326 1.372 . S
C1326 H1285 0.930 . S
C1326 C1325 1.372 . S
C1326 C1327 1.397 . S
C1327 C1326 1.397 . S
C1327 C1328 1.390 . S
C1327 C1343 1.476 . S
C1328 H1286 0.930 . S
C1328 C1327 1.390 . S
C1328 C1329 1.366 . S
C1329 H1287 0.932 . S
C1329 C1324 1.360 . S
C1329 C1328 1.366 . S
C1330 C1304 1.490 . S
C1330 C1331 1.380 . S
C1330 C1335 1.386 . S
C1331 H1288 0.930 . S
C1331 C1330 1.380 . S
C1331 C1332 1.381 . S
C1332 H1289 0.929 . S
C1332 C1331 1.381 . S
C1332 C1333 1.371 . S
C1333 C1332 1.371 . S
C1333 C1334 1.380 . S
C1334 H1290 0.931 . S
C1334 C1333 1.380 . S
C1334 C1335 1.387 . S
C1335 H1291 0.930 . S
C1335 C1330 1.386 . S
C1335 C1334 1.387 . S
C1336 C1305 1.519 . S
C1336 C1337 1.377 . S
C1336 C1341 1.361 . S
C1337 H1292 0.929 . S
C1337 C1336 1.377 . S
C1337 C1338 1.386 . S
C1338 H1293 0.931 . S
C1338 C1337 1.386 . S
C1338 C1339 1.363 . S
C1339 C1338 1.363 . S
C1339 C1340 1.385 . S
C1340 H1294 0.930 . S
C1340 C1339 1.385 . S
C1340 C1341 1.396 . S
C1341 H1295 0.929 . S
C1341 C1336 1.361 . S
C1341 C1340 1.396 . S
C1342 O1296 1.300 . S
C1342 O1297 1.209 . S
C1342 C1315 1.486 . S
C1343 O1298 1.199 . S
C1343 O1299 1.297 . S
C1343 C1327 1.476 . S
H1344 O1370 0.856 . S
H1345 O1373 0.854 . S
H1346 C1381 0.930 . S
H1347 C1382 0.930 . S
H1348 C1384 0.930 . S
H1349 C1385 0.930 . S
H1350 C1387 0.931 . S
H1351 C1388 0.930 . S
H1352 C1390 0.930 . S
H1353 C1391 0.929 . S
H1354 C1393 0.930 . S
H1355 C1394 0.931 . S
H1356 C1396 0.930 . S
H1357 C1397 0.929 . S
H1358 C1399 0.931 . S
H1359 C1400 0.930 . S
H1360 C1402 0.930 . S
H1361 C1403 0.932 . S
H1362 C1405 0.930 . S
H1363 C1406 0.929 . S
H1364 C1408 0.931 . S
H1365 C1409 0.930 . S
H1366 C1411 0.929 . S
H1367 C1412 0.931 . S
H1368 C1414 0.930 . S
H1369 C1415 0.929 . S
O1370 H1344 0.856 . S
O1370 C1416 1.300 . S
O1371 C1416 1.209 . S
O1372 C1417 1.199 . S
O1373 H1345 0.854 . S
O1373 C1417 1.297 . S
C1374 C1375 1.404 . S
C1374 C1379 1.397 . S
C1374 C1380 1.492 . S
C1375 C1374 1.404 . S
C1375 C1376 1.396 . S
C1375 C1386 1.492 . S
C1376 C1375 1.396 . S
C1376 C1377 1.397 . S
C1376 C1392 1.509 . S
C1377 C1376 1.397 . S
C1377 C1378 1.412 . S
C1377 C1398 1.485 . S
C1378 C1377 1.412 . S
C1378 C1379 1.388 . S
C1378 C1404 1.490 . S
C1379 C1374 1.397 . S
C1379 C1378 1.388 . S
C1379 C1410 1.519 . S
C1380 C1374 1.492 . S
C1380 C1381 1.363 . S
C1380 C1385 1.390 . S
C1381 H1346 0.930 . S
C1381 C1380 1.363 . S
C1381 C1382 1.372 . S
C1382 H1347 0.930 . S
C1382 C1381 1.372 . S
C1382 C1383 1.383 . S
C1383 C1382 1.383 . S
C1383 C1384 1.395 . S
C1384 H1348 0.930 . S
C1384 C1383 1.395 . S
C1384 C1385 1.362 . S
C1385 H1349 0.930 . S
C1385 C1380 1.390 . S
C1385 C1384 1.362 . S
C1386 C1375 1.492 . S
C1386 C1387 1.377 . S
C1386 C1391 1.397 . S
C1387 H1350 0.931 . S
C1387 C1386 1.377 . S
C1387 C1388 1.376 . S
C1388 H1351 0.930 . S
C1388 C1387 1.376 . S
C1388 C1389 1.376 . S
C1389 C1388 1.376 . S
C1389 C1390 1.378 . S
C1389 C1416 1.486 . S
C1390 H1352 0.930 . S
C1390 C1389 1.378 . S
C1390 C1391 1.376 . S
C1391 H1353 0.929 . S
C1391 C1386 1.397 . S
C1391 C1390 1.376 . S
C1392 C1376 1.509 . S
C1392 C1393 1.391 . S
C1392 C1397 1.386 . S
C1393 H1354 0.930 . S
C1393 C1392 1.391 . S
C1393 C1394 1.375 . S
C1394 H1355 0.931 . S
C1394 C1393 1.375 . S
C1394 C1395 1.375 . S
C1395 C1394 1.375 . S
C1395 C1396 1.361 . S
C1396 H1356 0.930 . S
C1396 C1395 1.361 . S
C1396 C1397 1.399 . S
C1397 H1357 0.929 . S
C1397 C1392 1.386 . S
C1397 C1396 1.399 . S
C1398 C1377 1.485 . S
C1398 C1399 1.394 . S
C1398 C1403 1.360 . S
C1399 H1358 0.931 . S
C1399 C1398 1.394 . S
C1399 C1400 1.372 . S
C1400 H1359 0.930 . S
C1400 C1399 1.372 . S
C1400 C1401 1.397 . S
C1401 C1400 1.397 . S
C1401 C1402 1.390 . S
C1401 C1417 1.476 . S
C1402 H1360 0.930 . S
C1402 C1401 1.390 . S
C1402 C1403 1.366 . S
C1403 H1361 0.932 . S
C1403 C1398 1.360 . S
C1403 C1402 1.366 . S
C1404 C1378 1.490 . S
C1404 C1405 1.380 . S
C1404 C1409 1.386 . S
C1405 H1362 0.930 . S
C1405 C1404 1.380 . S
C1405 C1406 1.381 . S
C1406 H1363 0.929 . S
C1406 C1405 1.381 . S
C1406 C1407 1.371 . S
C1407 C1406 1.371 . S
C1407 C1408 1.380 . S
C1408 H1364 0.931 . S
C1408 C1407 1.380 . S
C1408 C1409 1.387 . S
C1409 H1365 0.930 . S
C1409 C1404 1.386 . S
C1409 C1408 1.387 . S
C1410 C1379 1.519 . S
C1410 C1411 1.377 . S
C1410 C1415 1.361 . S
C1411 H1366 0.929 . S
C1411 C1410 1.377 . S
C1411 C1412 1.386 . S
C1412 H1367 0.931 . S
C1412 C1411 1.386 . S
C1412 C1413 1.363 . S
C1413 C1412 1.363 . S
C1413 C1414 1.385 . S
C1414 H1368 0.930 . S
C1414 C1413 1.385 . S
C1414 C1415 1.396 . S
C1415 H1369 0.929 . S
C1415 C1410 1.361 . S
C1415 C1414 1.396 . S
C1416 O1370 1.300 . S
C1416 O1371 1.209 . S
C1416 C1389 1.486 . S
C1417 O1372 1.199 . S
C1417 O1373 1.297 . S
C1417 C1401 1.476 . S
H1418 O1444 0.856 . S
H1419 O1447 0.854 . S
H1420 C1455 0.930 . S
H1421 C1456 0.930 . S
H1422 C1458 0.930 . S
H1423 C1459 0.930 . S
H1424 C1461 0.931 . S
H1425 C1462 0.930 . S
H1426 C1464 0.930 . S
H1427 C1465 0.929 . S
H1428 C1467 0.930 . S
H1429 C1468 0.931 . S
H1430 C1470 0.930 . S
H1431 C1471 0.929 . S
H1432 C1473 0.931 . S
H1433 C1474 0.930 . S
H1434 C1476 0.930 . S
H1435 C1477 0.932 . S
H1436 C1479 0.930 . S
H1437 C1480 0.929 . S
H1438 C1482 0.931 . S
H1439 C1483 0.930 . S
H1440 C1485 0.929 . S
H1441 C1486 0.931 . S
H1442 C1488 0.930 . S
H1443 C1489 0.929 . S
O1444 H1418 0.856 . S
O1444 C1490 1.300 . S
O1445 C1490 1.209 . S
O1446 C1491 1.199 . S
O1447 H1419 0.854 . S
O1447 C1491 1.297 . S
C1448 C1449 1.404 . S
C1448 C1453 1.397 . S
C1448 C1454 1.492 . S
C1449 C1448 1.404 . S
C1449 C1450 1.396 . S
C1449 C1460 1.492 . S
C1450 C1449 1.396 . S
C1450 C1451 1.397 . S
C1450 C1466 1.509 . S
C1451 C1450 1.397 . S
C1451 C1452 1.412 . S
C1451 C1472 1.485 . S
C1452 C1451 1.412 . S
C1452 C1453 1.388 . S
C1452 C1478 1.490 . S
C1453 C1448 1.397 . S
C1453 C1452 1.388 . S
C1453 C1484 1.519 . S
C1454 C1448 1.492 . S
C1454 C1455 1.363 . S
C1454 C1459 1.390 . S
C1455 H1420 0.930 . S
C1455 C1454 1.363 . S
C1455 C1456 1.372 . S
C1456 H1421 0.930 . S
C1456 C1455 1.372 . S
C1456 C1457 1.383 . S
C1457 C1456 1.383 . S
C1457 C1458 1.395 . S
C1458 H1422 0.930 . S
C1458 C1457 1.395 . S
C1458 C1459 1.362 . S
C1459 H1423 0.930 . S
C1459 C1454 1.390 . S
C1459 C1458 1.362 . S
C1460 C1449 1.492 . S
C1460 C1461 1.377 . S
C1460 C1465 1.397 . S
C1461 H1424 0.931 . S
C1461 C1460 1.377 . S
C1461 C1462 1.376 . S
C1462 H1425 0.930 . S
C1462 C1461 1.376 . S
C1462 C1463 1.376 . S
C1463 C1462 1.376 . S
C1463 C1464 1.378 . S
C1463 C1490 1.486 . S
C1464 H1426 0.930 . S
C1464 C1463 1.378 . S
C1464 C1465 1.376 . S
C1465 H1427 0.929 . S
C1465 C1460 1.397 . S
C1465 C1464 1.376 . S
C1466 C1450 1.509 . S
C1466 C1467 1.391 . S
C1466 C1471 1.386 . S
C1467 H1428 0.930 . S
C1467 C1466 1.391 . S
C1467 C1468 1.375 . S
C1468 H1429 0.931 . S
C1468 C1467 1.375 . S
C1468 C1469 1.375 . S
C1469 C1468 1.375 . S
C1469 C1470 1.361 . S
C1470 H1430 0.930 . S
C1470 C1469 1.361 . S
C1470 C1471 1.399 . S
C1471 H1431 0.929 . S
C1471 C1466 1.386 . S
C1471 C1470 1.399 . S
C1472 C1451 1.485 . S
C1472 C1473 1.394 . S
C1472 C1477 1.360 . S
C1473 H1432 0.931 . S
C1473 C1472 1.394 . S
C1473 C1474 1.372 . S
C1474 H1433 0.930 . S
C1474 C1473 1.372 . S
C1474 C1475 1.397 . S
C1475 C1474 1.397 . S
C1475 C1476 1.390 . S
C1475 C1491 1.476 . S
C1476 H1434 0.930 . S
C1476 C1475 1.390 . S
C1476 C1477 1.366 . S
C1477 H1435 0.932 . S
C1477 C1472 1.360 . S
C1477 C1476 1.366 . S
C1478 C1452 1.490 . S
C1478 C1479 1.380 . S
C1478 C1483 1.386 . S
C1479 H1436 0.930 . S
C1479 C1478 1.380 . S
C1479 C1480 1.381 . S
C1480 H1437 0.929 . S
C1480 C1479 1.381 . S
C1480 C1481 1.371 . S
C1481 C1480 1.371 . S
C1481 C1482 1.380 . S
C1482 H1438 0.931 . S
C1482 C1481 1.380 . S
C1482 C1483 1.387 . S
C1483 H1439 0.930 . S
C1483 C1478 1.386 . S
C1483 C1482 1.387 . S
C1484 C1453 1.519 . S
C1484 C1485 1.377 . S
C1484 C1489 1.361 . S
C1485 H1440 0.929 . S
C1485 C1484 1.377 . S
C1485 C1486 1.386 . S
C1486 H1441 0.931 . S
C1486 C1485 1.386 . S
C1486 C1487 1.363 . S
C1487 C1486 1.363 . S
C1487 C1488 1.385 . S
C1488 H1442 0.930 . S
C1488 C1487 1.385 . S
C1488 C1489 1.396 . S
C1489 H1443 0.929 . S
C1489 C1484 1.361 . S
C1489 C1488 1.396 . S
C1490 O1444 1.300 . S
C1490 O1445 1.209 . S
C1490 C1463 1.486 . S
C1491 O1446 1.199 . S
C1491 O1447 1.297 . S
C1491 C1475 1.476 . S
H1492 O1518 0.856 . S
H1493 O1521 0.854 . S
H1494 C1529 0.930 . S
H1495 C1530 0.930 . S
H1496 C1532 0.930 . S
H1497 C1533 0.930 . S
H1498 C1535 0.931 . S
H1499 C1536 0.930 . S
H1500 C1538 0.930 . S
H1501 C1539 0.929 . S
H1502 C1541 0.930 . S
H1503 C1542 0.931 . S
H1504 C1544 0.930 . S
H1505 C1545 0.929 . S
H1506 C1547 0.931 . S
H1507 C1548 0.930 . S
H1508 C1550 0.930 . S
H1509 C1551 0.932 . S
H1510 C1553 0.930 . S
H1511 C1554 0.929 . S
H1512 C1556 0.931 . S
H1513 C1557 0.930 . S
H1514 C1559 0.929 . S
H1515 C1560 0.931 . S
H1516 C1562 0.930 . S
H1517 C1563 0.929 . S
O1518 H1492 0.856 . S
O1518 C1564 1.300 . S
O1519 C1564 1.209 . S
O1520 C1565 1.199 . S
O1521 H1493 0.854 . S
O1521 C1565 1.297 . S
C1522 C1523 1.404 . S
C1522 C1527 1.397 . S
C1522 C1528 1.492 . S
C1523 C1522 1.404 . S
C1523 C1524 1.396 . S
C1523 C1534 1.492 . S
C1524 C1523 1.396 . S
C1524 C1525 1.397 . S
C1524 C1540 1.509 . S
C1525 C1524 1.397 . S
C1525 C1526 1.412 . S
C1525 C1546 1.485 . S
C1526 C1525 1.412 . S
C1526 C1527 1.388 . S
C1526 C1552 1.490 . S
C1527 C1522 1.397 . S
C1527 C1526 1.388 . S
C1527 C1558 1.519 . S
C1528 C1522 1.492 . S
C1528 C1529 1.363 . S
C1528 C1533 1.390 . S
C1529 H1494 0.930 . S
C1529 C1528 1.363 . S
C1529 C1530 1.372 . S
C1530 H1495 0.930 . S
C1530 C1529 1.372 . S
C1530 C1531 1.383 . S
C1531 C1530 1.383 . S
C1531 C1532 1.395 . S
C1532 H1496 0.930 . S
C1532 C1531 1.395 . S
C1532 C1533 1.362 . S
C1533 H1497 0.930 . S
C1533 C1528 1.390 . S
C1533 C1532 1.362 . S
C1534 C1523 1.492 . S
C1534 C1535 1.377 . S
C1534 C1539 1.397 . S
C1535 H1498 0.931 . S
C1535 C1534 1.377 . S
C1535 C1536 1.376 . S
C1536 H1499 0.930 . S
C1536 C1535 1.376 . S
C1536 C1537 1.376 . S
C1537 C1536 1.376 . S
C1537 C1538 1.378 . S
C1537 C1564 1.486 . S
C1538 H1500 0.930 . S
C1538 C1537 1.378 . S
C1538 C1539 1.376 . S
C1539 H1501 0.929 . S
C1539 C1534 1.397 . S
C1539 C1538 1.376 . S
C1540 C1524 1.509 . S
C1540 C1541 1.391 . S
C1540 C1545 1.386 . S
C1541 H1502 0.930 . S
C1541 C1540 1.391 . S
C1541 C1542 1.375 . S
C1542 H1503 0.931 . S
C1542 C1541 1.375 . S
C1542 C1543 1.375 . S
C1543 C1542 1.375 . S
C1543 C1544 1.361 . S
C1544 H1504 0.930 . S
C1544 C1543 1.361 . S
C1544 C1545 1.399 . S
C1545 H1505 0.929 . S
C1545 C1540 1.386 . S
C1545 C1544 1.399 . S
C1546 C1525 1.485 . S
C1546 C1547 1.394 . S
C1546 C1551 1.360 . S
C1547 H1506 0.931 . S
C1547 C1546 1.394 . S
C1547 C1548 1.372 . S
C1548 H1507 0.930 . S
C1548 C1547 1.372 . S
C1548 C1549 1.397 . S
C1549 C1548 1.397 . S
C1549 C1550 1.390 . S
C1549 C1565 1.476 . S
C1550 H1508 0.930 . S
C1550 C1549 1.390 . S
C1550 C1551 1.366 . S
C1551 H1509 0.932 . S
C1551 C1546 1.360 . S
C1551 C1550 1.366 . S
C1552 C1526 1.490 . S
C1552 C1553 1.380 . S
C1552 C1557 1.386 . S
C1553 H1510 0.930 . S
C1553 C1552 1.380 . S
C1553 C1554 1.381 . S
C1554 H1511 0.929 . S
C1554 C1553 1.381 . S
C1554 C1555 1.371 . S
C1555 C1554 1.371 . S
C1555 C1556 1.380 . S
C1556 H1512 0.931 . S
C1556 C1555 1.380 . S
C1556 C1557 1.387 . S
C1557 H1513 0.930 . S
C1557 C1552 1.386 . S
C1557 C1556 1.387 . S
C1558 C1527 1.519 . S
C1558 C1559 1.377 . S
C1558 C1563 1.361 . S
C1559 H1514 0.929 . S
C1559 C1558 1.377 . S
C1559 C1560 1.386 . S
C1560 H1515 0.931 . S
C1560 C1559 1.386 . S
C1560 C1561 1.363 . S
C1561 C1560 1.363 . S
C1561 C1562 1.385 . S
C1562 H1516 0.930 . S
C1562 C1561 1.385 . S
C1562 C1563 1.396 . S
C1563 H1517 0.929 . S
C1563 C1558 1.361 . S
C1563 C1562 1.396 . S
C1564 O1518 1.300 . S
C1564 O1519 1.209 . S
C1564 C1537 1.486 . S
C1565 O1520 1.199 . S
C1565 O1521 1.297 . S
C1565 C1549 1.476 . S
C1566 C1567 1.363 1_455 S
C1566 C1572 1.379 . S
C1566 N1574 1.356 . S
C1567 C1566 1.363 1_655 S
C1567 C1573 1.363 . S
C1568 C1569 1.363 . S
C1568 C1573 1.379 . S
C1568 N1575 1.356 . S
C1569 C1568 1.363 . S
C1569 C1572 1.363 1_655 S
N1570 C1572 1.356 . S
N1570 H1582 0.984 . S
N1570 H1583 0.985 . S
N1571 C1573 1.356 . S
N1571 H1576 0.984 . S
N1571 H1577 0.985 . S
C1572 C1566 1.379 . S
C1572 C1569 1.363 1_455 S
C1572 N1570 1.356 . S
C1573 C1567 1.363 . S
C1573 C1568 1.379 . S
C1573 N1571 1.356 . S
N1574 C1566 1.356 . S
N1574 H1580 0.984 . S
N1574 H1581 0.984 . S
N1575 C1568 1.356 . S
N1575 H1578 0.984 . S
N1575 H1579 0.985 . S
H1576 N1571 0.984 . S
H1577 N1571 0.985 . S
H1578 N1575 0.984 . S
H1579 N1575 0.985 . S
H1580 N1574 0.984 . S
H1581 N1574 0.984 . S
H1582 N1570 0.984 . S
H1583 N1570 0.985 . S
C1584 C1585 1.363 . S
C1584 C1590 1.379 . S
C1584 N1592 1.356 . S
C1585 C1584 1.363 . S
C1585 C1591 1.363 . S
C1586 C1587 1.363 . S
C1586 C1591 1.379 . S
C1586 N1593 1.356 . S
C1587 C1586 1.363 . S
C1587 C1590 1.363 . S
N1588 C1590 1.356 . S
N1588 H1600 0.984 . S
N1588 H1601 0.985 . S
N1589 C1591 1.356 . S
N1589 H1594 0.984 . S
N1589 H1595 0.985 . S
C1590 C1584 1.379 . S
C1590 C1587 1.363 . S
C1590 N1588 1.356 . S
C1591 C1585 1.363 . S
C1591 C1586 1.379 . S
C1591 N1589 1.356 . S
N1592 C1584 1.356 . S
N1592 H1598 0.984 . S
N1592 H1599 0.984 . S
N1593 C1586 1.356 . S
N1593 H1596 0.984 . S
N1593 H1597 0.985 . S
H1594 N1589 0.984 . S
H1595 N1589 0.985 . S
H1596 N1593 0.984 . S
H1597 N1593 0.985 . S
H1598 N1592 0.984 . S
H1599 N1592 0.984 . S
H1600 N1588 0.984 . S
H1601 N1588 0.985 . S
C1602 C1603 1.363 . S
C1602 C1608 1.379 . S
C1602 N1610 1.356 . S
C1603 C1602 1.363 . S
C1603 C1609 1.363 . S
C1604 C1605 1.363 . S
C1604 C1609 1.379 . S
C1604 N1611 1.356 . S
C1605 C1604 1.363 . S
C1605 C1608 1.363 . S
N1606 C1608 1.356 . S
N1606 H1618 0.984 . S
N1606 H1619 0.985 . S
N1607 C1609 1.356 . S
N1607 H1612 0.984 . S
N1607 H1613 0.985 . S
C1608 C1602 1.379 . S
C1608 C1605 1.363 . S
C1608 N1606 1.356 . S
C1609 C1603 1.363 . S
C1609 C1604 1.379 . S
C1609 N1607 1.356 . S
N1610 C1602 1.356 . S
N1610 H1616 0.993 . S
N1610 H1617 0.999 1_545 S
N1611 C1604 1.356 . S
N1611 H1614 0.984 . S
N1611 H1615 0.985 . S
H1612 N1607 0.984 . S
H1613 N1607 0.985 . S
H1614 N1611 0.984 . S
H1615 N1611 0.985 . S
H1616 N1610 0.993 . S
H1617 N1610 0.999 1_565 S
H1618 N1606 0.984 . S
H1619 N1606 0.985 . S
C1620 C1621 1.363 . S
C1620 C1626 1.379 . S
C1620 N1628 1.356 . S
C1621 C1620 1.363 . S
C1621 C1627 1.363 1_565 S
C1622 C1623 1.363 1_545 S
C1622 C1627 1.379 . S
C1622 N1629 1.356 . S
C1623 C1622 1.363 1_565 S
C1623 C1626 1.363 . S
N1624 C1626 1.356 . S
N1624 H1636 0.984 . S
N1624 H1637 0.985 . S
N1625 C1627 1.356 . S
N1625 H1630 0.984 . S
N1625 H1631 0.985 . S
C1626 C1620 1.379 . S
C1626 C1623 1.363 . S
C1626 N1624 1.356 . S
C1627 C1621 1.363 1_545 S
C1627 C1622 1.379 . S
C1627 N1625 1.356 . S
N1628 C1620 1.356 . S
N1628 H1634 0.984 . S
N1628 H1635 0.984 . S
N1629 C1622 1.356 . S
N1629 H1632 0.984 . S
N1629 H1633 0.985 . S
H1630 N1625 0.984 . S
H1631 N1625 0.985 . S
H1632 N1629 0.984 . S
H1633 N1629 0.985 . S
H1634 N1628 0.984 . S
H1635 N1628 0.984 . S
H1636 N1624 0.984 . S
H1637 N1624 0.985 . S
C1638 C1639 1.363 1_655 S
C1638 C1644 1.379 1_655 S
C1638 N1646 1.356 . S
C1639 C1638 1.363 1_455 S
C1639 C1645 1.363 . S
C1640 C1641 1.363 . S
C1640 C1645 1.379 . S
C1640 N1647 1.356 . S
C1641 C1640 1.363 . S
C1641 C1644 1.363 . S
N1642 C1644 1.356 1_655 S
N1642 H1654 0.984 . S
N1642 H1655 0.985 1_655 S
N1643 C1645 1.356 . S
N1643 H1648 0.987 . S
N1643 H1649 1.001 . S
C1644 C1638 1.379 1_455 S
C1644 C1641 1.363 . S
C1644 N1642 1.356 1_455 S
C1645 C1639 1.363 . S
C1645 C1640 1.379 . S
C1645 N1643 1.356 . S
N1646 C1638 1.356 . S
N1646 H1652 0.984 . S
N1646 H1653 0.984 . S
N1647 C1640 1.356 . S
N1647 H1650 0.984 . S
N1647 H1651 0.985 . S
H1648 N1643 0.987 . S
H1649 N1643 1.001 . S
H1650 N1647 0.984 . S
H1651 N1647 0.985 . S
H1652 N1646 0.984 . S
H1653 N1646 0.984 . S
H1654 N1642 0.984 . S
H1655 N1642 0.985 1_455 S
C1656 C1657 1.363 . S
C1656 C1662 1.379 . S
C1656 N1664 1.356 . S
C1657 C1656 1.363 . S
C1657 C1663 1.363 . S
C1658 C1659 1.363 . S
C1658 C1663 1.379 . S
C1658 N1665 1.356 . S
C1659 C1658 1.363 . S
C1659 C1662 1.363 . S
N1660 C1662 1.356 . S
N1660 H1672 0.984 . S
N1660 H1673 0.985 . S
N1661 C1663 1.356 1_554 S
N1661 H1666 0.984 . S
N1661 H1667 0.985 . S
C1662 C1656 1.379 . S
C1662 C1659 1.363 . S
C1662 N1660 1.356 . S
C1663 C1657 1.363 . S
C1663 C1658 1.379 . S
C1663 N1661 1.356 1_556 S
N1664 C1656 1.356 . S
N1664 H1670 0.984 . S
N1664 H1671 0.984 1_556 S
N1665 C1658 1.356 . S
N1665 H1668 0.984 . S
N1665 H1669 0.985 . S
H1666 N1661 0.984 . S
H1667 N1661 0.985 . S
H1668 N1665 0.984 . S
H1669 N1665 0.985 . S
H1670 N1664 0.984 . S
H1671 N1664 0.984 1_554 S
H1672 N1660 0.984 . S
H1673 N1660 0.985 . S
C1674 C1675 1.363 . S
C1674 C1680 1.379 . S
C1674 N1682 1.356 . S
C1675 C1674 1.363 . S
C1675 C1681 1.363 . S
C1676 C1677 1.363 . S
C1676 C1681 1.379 . S
C1676 N1683 1.356 . S
C1677 C1676 1.363 . S
C1677 C1680 1.363 . S
N1678 C1680 1.356 . S
N1678 H1690 0.984 . S
N1678 H1691 0.985 . S
N1679 C1681 1.356 1_554 S
N1679 H1684 0.984 . S
N1679 H1685 0.985 . S
C1680 C1674 1.379 . S
C1680 C1677 1.363 . S
C1680 N1678 1.356 . S
C1681 C1675 1.363 . S
C1681 C1676 1.379 . S
C1681 N1679 1.356 1_556 S
N1682 C1674 1.356 . S
N1682 H1688 0.984 . S
N1682 H1689 0.984 . S
N1683 C1676 1.356 . S
N1683 H1686 0.984 . S
N1683 H1687 0.985 . S
H1684 N1679 0.984 . S
H1685 N1679 0.985 . S
H1686 N1683 0.984 . S
H1687 N1683 0.985 . S
H1688 N1682 0.984 . S
H1689 N1682 0.984 . S
H1690 N1678 0.984 . S
H1691 N1678 0.985 . S
C1692 C1693 1.363 . S
C1692 C1698 1.379 . S
C1692 N1700 1.356 . S
C1693 C1692 1.363 . S
C1693 C1699 1.363 . S
C1694 C1695 1.363 . S
C1694 C1699 1.379 . S
C1694 N1701 1.356 . S
C1695 C1694 1.363 . S
C1695 C1698 1.363 . S
N1696 C1698 1.356 . S
N1696 H1708 0.984 . S
N1696 H1709 0.985 . S
N1697 C1699 1.356 . S
N1697 H1702 0.984 . S
N1697 H1703 0.985 . S
C1698 C1692 1.379 . S
C1698 C1695 1.363 . S
C1698 N1696 1.356 . S
C1699 C1693 1.363 . S
C1699 C1694 1.379 . S
C1699 N1697 1.356 . S
N1700 C1692 1.356 . S
N1700 H1706 0.984 . S
N1700 H1707 0.984 . S
N1701 C1694 1.356 . S
N1701 H1704 0.984 . S
N1701 H1705 0.985 . S
H1702 N1697 0.984 . S
H1703 N1697 0.985 . S
H1704 N1701 0.984 . S
H1705 N1701 0.985 . S
H1706 N1700 0.984 . S
H1707 N1700 0.984 . S
H1708 N1696 0.984 . S
H1709 N1696 0.985 . S
C1710 C1711 1.363 . S
C1710 C1716 1.379 . S
C1710 N1718 1.356 . S
C1711 C1710 1.363 . S
C1711 C1717 1.363 1_565 S
C1712 C1713 1.368 . S
C1712 C1717 1.379 . S
C1712 N1719 1.356 . S
C1713 C1712 1.368 . S
C1713 C1716 1.354 1_545 S
N1714 C1716 1.356 . S
N1714 H1726 0.984 . S
N1714 H1727 0.985 . S
N1715 C1717 1.356 1_554 S
N1715 H1720 0.984 . S
N1715 H1721 0.985 . S
C1716 C1710 1.379 . S
C1716 C1713 1.354 1_565 S
C1716 N1714 1.356 . S
C1717 C1711 1.363 1_545 S
C1717 C1712 1.379 . S
C1717 N1715 1.356 1_556 S
N1718 C1710 1.356 . S
N1718 H1724 0.984 . S
N1718 H1725 0.984 . S
N1719 C1712 1.356 . S
N1719 H1722 0.984 . S
N1719 H1723 0.985 . S
H1720 N1715 0.984 . S
H1721 N1715 0.985 . S
H1722 N1719 0.984 . S
H1723 N1719 0.985 . S
H1724 N1718 0.984 . S
H1725 N1718 0.984 . S
H1726 N1714 0.984 . S
H1727 N1714 0.985 . S
C1728 C1729 1.363 . S
C1728 C1734 1.379 . S
C1728 N1736 1.356 . S
C1729 C1728 1.363 . S
C1729 C1735 1.363 1_545 S
C1730 C1731 1.364 1_565 S
C1730 C1735 1.379 . S
C1730 N1737 1.356 . S
C1731 C1730 1.364 1_545 S
C1731 C1734 1.363 . S
N1732 C1734 1.356 . S
N1732 H1744 0.984 . S
N1732 H1745 0.985 . S
N1733 C1735 1.356 . S
N1733 H1738 0.984 . S
N1733 H1739 0.985 . S
C1734 C1728 1.379 . S
C1734 C1731 1.363 . S
C1734 N1732 1.356 . S
C1735 C1729 1.363 1_565 S
C1735 C1730 1.379 . S
C1735 N1733 1.356 . S
N1736 C1728 1.356 . S
N1736 H1742 0.984 . S
N1736 H1743 0.984 . S
N1737 C1730 1.356 . S
N1737 H1740 0.984 . S
N1737 H1741 0.985 . S
H1738 N1733 0.984 . S
H1739 N1733 0.985 . S
H1740 N1737 0.984 . S
H1741 N1737 0.985 . S
H1742 N1736 0.984 . S
H1743 N1736 0.984 . S
H1744 N1732 0.984 . S
H1745 N1732 0.985 . S
C1746 C1747 1.363 1_455 S
C1746 C1752 1.379 . S
C1746 N1754 1.356 . S
C1747 C1746 1.363 1_655 S
C1747 C1753 1.363 . S
C1748 C1749 1.395 . S
C1748 C1753 1.379 . S
C1748 N1755 1.356 . S
C1749 C1748 1.395 . S
C1749 C1752 1.346 1_655 S
N1750 C1752 1.356 . S
N1750 H1762 0.984 . S
N1750 H1763 0.985 . S
N1751 C1753 1.356 . S
N1751 H1756 0.984 . S
N1751 H1757 0.985 . S
C1752 C1746 1.379 . S
C1752 C1749 1.346 1_455 S
C1752 N1750 1.356 . S
C1753 C1747 1.363 . S
C1753 C1748 1.379 . S
C1753 N1751 1.356 . S
N1754 C1746 1.356 . S
N1754 H1760 0.984 . S
N1754 H1761 0.984 . S
N1755 C1748 1.356 . S
N1755 H1758 0.984 . S
N1755 H1759 0.985 . S
H1756 N1751 0.984 . S
H1757 N1751 0.985 . S
H1758 N1755 0.984 . S
H1759 N1755 0.985 . S
H1760 N1754 0.984 . S
H1761 N1754 0.984 . S
H1762 N1750 0.984 . S
H1763 N1750 0.985 . S
C1764 C1765 1.363 . S
C1764 C1770 1.379 . S
C1764 N1772 1.356 . S
C1765 C1764 1.363 . S
C1765 C1771 1.363 . S
C1766 C1767 1.363 . S
C1766 C1771 1.379 . S
C1766 N1773 1.356 . S
C1767 C1766 1.363 . S
C1767 C1770 1.363 . S
N1768 C1770 1.356 . S
N1768 H1780 0.984 . S
N1768 H1781 0.985 . S
N1769 C1771 1.356 . S
N1769 H1774 0.984 . S
N1769 H1775 0.985 . S
C1770 C1764 1.379 . S
C1770 C1767 1.363 . S
C1770 N1768 1.356 . S
C1771 C1765 1.363 . S
C1771 C1766 1.379 . S
C1771 N1769 1.356 . S
N1772 C1764 1.356 . S
N1772 H1778 0.984 . S
N1772 H1779 0.984 . S
N1773 C1766 1.356 . S
N1773 H1776 0.984 . S
N1773 H1777 0.985 . S
H1774 N1769 0.984 . S
H1775 N1769 0.985 . S
H1776 N1773 0.984 . S
H1777 N1773 0.985 . S
H1778 N1772 0.984 . S
H1779 N1772 0.984 . S
H1780 N1768 0.984 . S
H1781 N1768 0.985 . S
C1782 C1783 1.363 . S
C1782 C1788 1.379 . S
C1782 N1790 1.356 . S
C1783 C1782 1.363 . S
C1783 C1789 1.363 . S
C1784 C1785 1.363 . S
C1784 C1789 1.379 . S
C1784 N1791 1.356 . S
C1785 C1784 1.363 . S
C1785 C1788 1.363 . S
N1786 C1788 1.356 . S
N1786 H1798 0.984 . S
N1786 H1799 0.985 . S
N1787 C1789 1.356 . S
N1787 H1792 0.984 . S
N1787 H1793 0.985 . S
C1788 C1782 1.379 . S
C1788 C1785 1.363 . S
C1788 N1786 1.356 . S
C1789 C1783 1.363 . S
C1789 C1784 1.379 . S
C1789 N1787 1.356 . S
N1790 C1782 1.356 . S
N1790 H1796 0.984 . S
N1790 H1797 0.984 . S
N1791 C1784 1.356 . S
N1791 H1794 0.984 . S
N1791 H1795 0.985 . S
H1792 N1787 0.984 . S
H1793 N1787 0.985 . S
H1794 N1791 0.984 . S
H1795 N1791 0.985 . S
H1796 N1790 0.984 . S
H1797 N1790 0.984 . S
H1798 N1786 0.984 . S
H1799 N1786 0.985 . S
C1800 C1801 1.363 . S
C1800 C1806 1.379 . S
C1800 N1808 1.356 . S
C1801 C1800 1.363 . S
C1801 C1807 1.363 . S
C1802 C1803 1.363 . S
C1802 C1807 1.379 . S
C1802 N1809 1.356 . S
C1803 C1802 1.363 . S
C1803 C1806 1.363 . S
N1804 C1806 1.356 . S
N1804 H1816 0.984 . S
N1804 H1817 0.985 . S
N1805 C1807 1.356 . S
N1805 H1810 0.984 . S
N1805 H1811 0.985 . S
C1806 C1800 1.379 . S
C1806 C1803 1.363 . S
C1806 N1804 1.356 . S
C1807 C1801 1.363 . S
C1807 C1802 1.379 . S
C1807 N1805 1.356 . S
N1808 C1800 1.356 . S
N1808 H1814 0.984 . S
N1808 H1815 0.984 . S
N1809 C1802 1.356 . S
N1809 H1812 0.984 . S
N1809 H1813 0.985 . S
H1810 N1805 0.984 . S
H1811 N1805 0.985 . S
H1812 N1809 0.984 . S
H1813 N1809 0.985 . S
H1814 N1808 0.984 . S
H1815 N1808 0.984 . S
H1816 N1804 0.984 . S
H1817 N1804 0.985 . S
C1818 C1819 1.363 . S
C1818 C1824 1.379 . S
C1818 N1826 1.356 . S
C1819 C1818 1.363 . S
C1819 C1825 1.363 . S
C1820 C1821 1.363 . S
C1820 C1825 1.379 . S
C1820 N1827 1.356 . S
C1821 C1820 1.363 . S
C1821 C1824 1.363 . S
N1822 C1824 1.356 . S
N1822 H1834 0.984 . S
N1822 H1835 0.985 . S
N1823 C1825 1.356 . S
N1823 H1828 0.984 . S
N1823 H1829 0.985 . S
C1824 C1818 1.379 . S
C1824 C1821 1.363 . S
C1824 N1822 1.356 . S
C1825 C1819 1.363 . S
C1825 C1820 1.379 . S
C1825 N1823 1.356 . S
N1826 C1818 1.356 . S
N1826 H1832 0.984 . S
N1826 H1833 0.984 . S
N1827 C1820 1.356 . S
N1827 H1830 0.984 . S
N1827 H1831 0.985 . S
H1828 N1823 0.984 . S
H1829 N1823 0.985 . S
H1830 N1827 0.984 . S
H1831 N1827 0.985 . S
H1832 N1826 0.984 . S
H1833 N1826 0.984 . S
H1834 N1822 0.984 . S
H1835 N1822 0.985 . S
C1836 C1837 1.363 . S
C1836 C1842 1.379 . S
C1836 N1844 1.356 . S
C1837 C1836 1.363 . S
C1837 C1843 1.363 . S
C1838 C1839 1.363 . S
C1838 C1843 1.379 . S
C1838 N1845 1.356 . S
C1839 C1838 1.363 . S
C1839 C1842 1.363 . S
N1840 C1842 1.356 . S
N1840 H1852 0.984 . S
N1840 H1853 0.985 . S
N1841 C1843 1.356 . S
N1841 H1846 0.984 . S
N1841 H1847 0.985 . S
C1842 C1836 1.379 . S
C1842 C1839 1.363 . S
C1842 N1840 1.356 . S
C1843 C1837 1.363 . S
C1843 C1838 1.379 . S
C1843 N1841 1.356 . S
N1844 C1836 1.356 . S
N1844 H1850 0.984 . S
N1844 H1851 0.984 . S
N1845 C1838 1.356 . S
N1845 H1848 0.984 . S
N1845 H1849 0.985 . S
H1846 N1841 0.984 . S
H1847 N1841 0.985 . S
H1848 N1845 0.984 . S
H1849 N1845 0.985 . S
H1850 N1844 0.984 . S
H1851 N1844 0.984 . S
H1852 N1840 0.984 . S
H1853 N1840 0.985 . S
C1854 C1855 1.363 . S
C1854 C1860 1.379 . S
C1854 N1862 1.356 . S
C1855 C1854 1.363 . S
C1855 C1861 1.363 . S
C1856 C1857 1.363 . S
C1856 C1861 1.379 . S
C1856 N1863 1.356 . S
C1857 C1856 1.363 . S
C1857 C1860 1.363 . S
N1858 C1860 1.356 . S
N1858 H1870 0.984 . S
N1858 H1871 0.985 . S
N1859 C1861 1.356 . S
N1859 H1864 0.984 . S
N1859 H1865 0.985 . S
C1860 C1854 1.379 . S
C1860 C1857 1.363 . S
C1860 N1858 1.356 . S
C1861 C1855 1.363 . S
C1861 C1856 1.379 . S
C1861 N1859 1.356 . S
N1862 C1854 1.356 . S
N1862 H1868 0.984 . S
N1862 H1869 0.984 . S
N1863 C1856 1.356 . S
N1863 H1866 0.984 . S
N1863 H1867 0.985 . S
H1864 N1859 0.984 . S
H1865 N1859 0.985 . S
H1866 N1863 0.984 . S
H1867 N1863 0.985 . S
H1868 N1862 0.984 . S
H1869 N1862 0.984 . S
H1870 N1858 0.984 . S
H1871 N1858 0.985 . S
C1872 C1873 1.363 . S
C1872 C1878 1.379 . S
C1872 N1880 1.356 . S
C1873 C1872 1.363 . S
C1873 C1879 1.363 . S
C1874 C1875 1.363 . S
C1874 C1879 1.379 . S
C1874 N1881 1.356 . S
C1875 C1874 1.363 . S
C1875 C1878 1.363 . S
N1876 C1878 1.356 . S
N1876 H1888 0.984 . S
N1876 H1889 0.985 . S
N1877 C1879 1.356 . S
N1877 H1882 0.984 . S
N1877 H1883 0.985 . S
C1878 C1872 1.379 . S
C1878 C1875 1.363 . S
C1878 N1876 1.356 . S
C1879 C1873 1.363 . S
C1879 C1874 1.379 . S
C1879 N1877 1.356 . S
N1880 C1872 1.356 . S
N1880 H1886 0.984 . S
N1880 H1887 0.984 . S
N1881 C1874 1.356 . S
N1881 H1884 0.984 . S
N1881 H1885 0.985 . S
H1882 N1877 0.984 . S
H1883 N1877 0.985 . S
H1884 N1881 0.984 . S
H1885 N1881 0.985 . S
H1886 N1880 0.984 . S
H1887 N1880 0.984 . S
H1888 N1876 0.984 . S
H1889 N1876 0.985 . S
C1890 C1891 1.363 . S
C1890 C1896 1.379 . S
C1890 N1898 1.356 . S
C1891 C1890 1.363 . S
C1891 C1897 1.363 . S
C1892 C1893 1.363 . S
C1892 C1897 1.379 . S
C1892 N1899 1.356 . S
C1893 C1892 1.363 . S
C1893 C1896 1.363 . S
N1894 C1896 1.356 . S
N1894 H1906 0.984 . S
N1894 H1907 0.985 . S
N1895 C1897 1.356 . S
N1895 H1900 0.984 . S
N1895 H1901 0.985 . S
C1896 C1890 1.379 . S
C1896 C1893 1.363 . S
C1896 N1894 1.356 . S
C1897 C1891 1.363 . S
C1897 C1892 1.379 . S
C1897 N1895 1.356 . S
N1898 C1890 1.356 . S
N1898 H1904 0.984 . S
N1898 H1905 0.984 . S
N1899 C1892 1.356 . S
N1899 H1902 0.984 . S
N1899 H1903 0.985 . S
H1900 N1895 0.984 . S
H1901 N1895 0.985 . S
H1902 N1899 0.984 . S
H1903 N1899 0.985 . S
H1904 N1898 0.984 . S
H1905 N1898 0.984 . S
H1906 N1894 0.984 . S
H1907 N1894 0.985 . S
C1908 C1909 1.363 . S
C1908 C1914 1.379 . S
C1908 N1916 1.356 . S
C1909 C1908 1.363 . S
C1909 C1915 1.363 . S
C1910 C1911 1.363 . S
C1910 C1915 1.379 . S
C1910 N1917 1.356 . S
C1911 C1910 1.363 . S
C1911 C1914 1.363 . S
N1912 C1914 1.356 . S
N1912 H1924 0.984 . S
N1912 H1925 0.985 . S
N1913 C1915 1.356 . S
N1913 H1918 0.984 . S
N1913 H1919 0.985 . S
C1914 C1908 1.379 . S
C1914 C1911 1.363 . S
C1914 N1912 1.356 . S
C1915 C1909 1.363 . S
C1915 C1910 1.379 . S
C1915 N1913 1.356 . S
N1916 C1908 1.356 . S
N1916 H1922 0.984 . S
N1916 H1923 0.984 . S
N1917 C1910 1.356 . S
N1917 H1920 0.984 . S
N1917 H1921 0.985 . S
H1918 N1913 0.984 . S
H1919 N1913 0.985 . S
H1920 N1917 0.984 . S
H1921 N1917 0.985 . S
H1922 N1916 0.984 . S
H1923 N1916 0.984 . S
H1924 N1912 0.984 . S
H1925 N1912 0.985 . S
C1926 C1927 1.363 . S
C1926 C1932 1.379 . S
C1926 N1934 1.356 . S
C1927 C1926 1.363 . S
C1927 C1933 1.363 . S
C1928 C1929 1.363 . S
C1928 C1933 1.379 . S
C1928 N1935 1.356 . S
C1929 C1928 1.363 . S
C1929 C1932 1.363 . S
N1930 C1932 1.356 . S
N1930 H1942 0.984 . S
N1930 H1943 0.985 . S
N1931 C1933 1.356 . S
N1931 H1936 0.984 . S
N1931 H1937 0.985 . S
C1932 C1926 1.379 . S
C1932 C1929 1.363 . S
C1932 N1930 1.356 . S
C1933 C1927 1.363 . S
C1933 C1928 1.379 . S
C1933 N1931 1.356 . S
N1934 C1926 1.356 . S
N1934 H1940 0.984 . S
N1934 H1941 0.984 . S
N1935 C1928 1.356 . S
N1935 H1938 0.984 . S
N1935 H1939 0.985 . S
H1936 N1931 0.984 . S
H1937 N1931 0.985 . S
H1938 N1935 0.984 . S
H1939 N1935 0.985 . S
H1940 N1934 0.984 . S
H1941 N1934 0.984 . S
H1942 N1930 0.984 . S
H1943 N1930 0.985 . S
C1944 C1945 1.363 . S
C1944 C1950 1.379 . S
C1944 N1952 1.356 . S
C1945 C1944 1.363 . S
C1945 C1951 1.363 . S
C1946 C1947 1.363 . S
C1946 C1951 1.379 . S
C1946 N1953 1.356 . S
C1947 C1946 1.363 . S
C1947 C1950 1.363 . S
N1948 C1950 1.356 . S
N1948 H1960 0.984 . S
N1948 H1961 0.985 . S
N1949 C1951 1.356 . S
N1949 H1954 0.984 . S
N1949 H1955 0.985 . S
C1950 C1944 1.379 . S
C1950 C1947 1.363 . S
C1950 N1948 1.356 . S
C1951 C1945 1.363 . S
C1951 C1946 1.379 . S
C1951 N1949 1.356 . S
N1952 C1944 1.356 . S
N1952 H1958 0.984 . S
N1952 H1959 0.984 . S
N1953 C1946 1.356 . S
N1953 H1956 0.984 . S
N1953 H1957 0.985 . S
H1954 N1949 0.984 . S
H1955 N1949 0.985 . S
H1956 N1953 0.984 . S
H1957 N1953 0.985 . S
H1958 N1952 0.984 . S
H1959 N1952 0.984 . S
H1960 N1948 0.984 . S
H1961 N1948 0.985 . S
C1962 C1963 1.363 . S
C1962 C1968 1.379 . S
C1962 N1970 1.356 . S
C1963 C1962 1.363 . S
C1963 C1969 1.363 . S
C1964 C1965 1.363 . S
C1964 C1969 1.379 . S
C1964 N1971 1.356 . S
C1965 C1964 1.363 . S
C1965 C1968 1.363 . S
N1966 C1968 1.356 . S
N1966 H1978 0.984 . S
N1966 H1979 0.985 . S
N1967 C1969 1.356 . S
N1967 H1972 0.984 . S
N1967 H1973 0.985 . S
C1968 C1962 1.379 . S
C1968 C1965 1.363 . S
C1968 N1966 1.356 . S
C1969 C1963 1.363 . S
C1969 C1964 1.379 . S
C1969 N1967 1.356 . S
N1970 C1962 1.356 . S
N1970 H1976 0.984 . S
N1970 H1977 0.984 . S
N1971 C1964 1.356 . S
N1971 H1974 0.984 . S
N1971 H1975 0.985 . S
H1972 N1967 0.984 . S
H1973 N1967 0.985 . S
H1974 N1971 0.984 . S
H1975 N1971 0.985 . S
H1976 N1970 0.984 . S
H1977 N1970 0.984 . S
H1978 N1966 0.984 . S
H1979 N1966 0.985 . S
C1980 C1981 1.363 . S
C1980 C1986 1.379 . S
C1980 N1988 1.356 . S
C1981 C1980 1.363 . S
C1981 C1987 1.363 . S
C1982 C1983 1.363 . S
C1982 C1987 1.379 . S
C1982 N1989 1.356 . S
C1983 C1982 1.363 . S
C1983 C1986 1.363 . S
N1984 C1986 1.356 . S
N1984 H1996 0.984 . S
N1984 H1997 0.985 . S
N1985 C1987 1.356 . S
N1985 H1990 0.984 . S
N1985 H1991 0.985 . S
C1986 C1980 1.379 . S
C1986 C1983 1.363 . S
C1986 N1984 1.356 . S
C1987 C1981 1.363 . S
C1987 C1982 1.379 . S
C1987 N1985 1.356 . S
N1988 C1980 1.356 . S
N1988 H1994 0.984 . S
N1988 H1995 0.984 . S
N1989 C1982 1.356 . S
N1989 H1992 0.984 . S
N1989 H1993 0.985 . S
H1990 N1985 0.984 . S
H1991 N1985 0.985 . S
H1992 N1989 0.984 . S
H1993 N1989 0.985 . S
H1994 N1988 0.984 . S
H1995 N1988 0.984 . S
H1996 N1984 0.984 . S
H1997 N1984 0.985 . S
C1998 C1999 1.363 . S
C1998 C2004 1.379 . S
C1998 N2006 1.356 . S
C1999 C1998 1.363 . S
C1999 C2005 1.363 . S
C2000 C2001 1.363 . S
C2000 C2005 1.379 . S
C2000 N2007 1.356 . S
C2001 C2000 1.363 . S
C2001 C2004 1.363 . S
N2002 C2004 1.356 . S
N2002 H2014 0.984 . S
N2002 H2015 0.985 . S
N2003 C2005 1.356 . S
N2003 H2008 0.984 . S
N2003 H2009 0.985 . S
C2004 C1998 1.379 . S
C2004 C2001 1.363 . S
C2004 N2002 1.356 . S
C2005 C1999 1.363 . S
C2005 C2000 1.379 . S
C2005 N2003 1.356 . S
N2006 C1998 1.356 . S
N2006 H2012 0.984 . S
N2006 H2013 0.984 . S
N2007 C2000 1.356 . S
N2007 H2010 0.984 . S
N2007 H2011 0.985 . S
H2008 N2003 0.984 . S
H2009 N2003 0.985 . S
H2010 N2007 0.984 . S
H2011 N2007 0.985 . S
H2012 N2006 0.984 . S
H2013 N2006 0.984 . S
H2014 N2002 0.984 . S
H2015 N2002 0.985 . S
C2016 C2017 1.363 . S
C2016 C2022 1.379 . S
C2016 N2024 1.356 . S
C2017 C2016 1.363 . S
C2017 C2023 1.363 . S
C2018 C2019 1.363 . S
C2018 C2023 1.379 . S
C2018 N2025 1.356 . S
C2019 C2018 1.363 . S
C2019 C2022 1.363 . S
N2020 C2022 1.356 . S
N2020 H2032 0.984 . S
N2020 H2033 0.985 . S
N2021 C2023 1.356 . S
N2021 H2026 0.984 . S
N2021 H2027 0.985 . S
C2022 C2016 1.379 . S
C2022 C2019 1.363 . S
C2022 N2020 1.356 . S
C2023 C2017 1.363 . S
C2023 C2018 1.379 . S
C2023 N2021 1.356 . S
N2024 C2016 1.356 . S
N2024 H2030 0.984 . S
N2024 H2031 0.984 . S
N2025 C2018 1.356 . S
N2025 H2028 0.984 . S
N2025 H2029 0.985 . S
H2026 N2021 0.984 . S
H2027 N2021 0.985 . S
H2028 N2025 0.984 . S
H2029 N2025 0.985 . S
H2030 N2024 0.984 . S
H2031 N2024 0.984 . S
H2032 N2020 0.984 . S
H2033 N2020 0.985 . S
C2034 C2035 1.363 . S
C2034 C2040 1.379 . S
C2034 N2042 1.356 . S
C2035 C2034 1.363 . S
C2035 C2041 1.363 . S
C2036 C2037 1.363 . S
C2036 C2041 1.379 . S
C2036 N2043 1.356 . S
C2037 C2036 1.363 . S
C2037 C2040 1.363 . S
N2038 C2040 1.356 . S
N2038 H2050 0.984 . S
N2038 H2051 0.985 . S
N2039 C2041 1.356 . S
N2039 H2044 0.984 . S
N2039 H2045 0.985 . S
C2040 C2034 1.379 . S
C2040 C2037 1.363 . S
C2040 N2038 1.356 . S
C2041 C2035 1.363 . S
C2041 C2036 1.379 . S
C2041 N2039 1.356 . S
N2042 C2034 1.356 . S
N2042 H2048 0.984 . S
N2042 H2049 0.984 . S
N2043 C2036 1.356 . S
N2043 H2046 0.984 . S
N2043 H2047 0.985 . S
H2044 N2039 0.984 . S
H2045 N2039 0.985 . S
H2046 N2043 0.984 . S
H2047 N2043 0.985 . S
H2048 N2042 0.984 . S
H2049 N2042 0.984 . S
H2050 N2038 0.984 . S
H2051 N2038 0.985 . S
C2052 C2053 1.363 . S
C2052 C2058 1.379 . S
C2052 N2060 1.356 . S
C2053 C2052 1.363 . S
C2053 C2059 1.363 . S
C2054 C2055 1.363 . S
C2054 C2059 1.379 . S
C2054 N2061 1.356 . S
C2055 C2054 1.363 . S
C2055 C2058 1.363 . S
N2056 C2058 1.356 . S
N2056 H2068 0.984 . S
N2056 H2069 0.985 . S
N2057 C2059 1.356 . S
N2057 H2062 0.984 . S
N2057 H2063 0.985 . S
C2058 C2052 1.379 . S
C2058 C2055 1.363 . S
C2058 N2056 1.356 . S
C2059 C2053 1.363 . S
C2059 C2054 1.379 . S
C2059 N2057 1.356 . S
N2060 C2052 1.356 . S
N2060 H2066 0.984 . S
N2060 H2067 0.984 . S
N2061 C2054 1.356 . S
N2061 H2064 0.984 . S
N2061 H2065 0.985 . S
H2062 N2057 0.984 . S
H2063 N2057 0.985 . S
H2064 N2061 0.984 . S
H2065 N2061 0.985 . S
H2066 N2060 0.984 . S
H2067 N2060 0.984 . S
H2068 N2056 0.984 . S
H2069 N2056 0.985 . S
C2070 C2071 1.363 . S
C2070 C2076 1.379 . S
C2070 N2078 1.356 . S
C2071 C2070 1.363 . S
C2071 C2077 1.363 . S
C2072 C2073 1.363 . S
C2072 C2077 1.379 . S
C2072 N2079 1.356 . S
C2073 C2072 1.363 . S
C2073 C2076 1.363 . S
N2074 C2076 1.356 . S
N2074 H2086 0.984 . S
N2074 H2087 0.985 . S
N2075 C2077 1.356 . S
N2075 H2080 0.984 . S
N2075 H2081 0.985 . S
C2076 C2070 1.379 . S
C2076 C2073 1.363 . S
C2076 N2074 1.356 . S
C2077 C2071 1.363 . S
C2077 C2072 1.379 . S
C2077 N2075 1.356 . S
N2078 C2070 1.356 . S
N2078 H2084 0.984 . S
N2078 H2085 0.984 . S
N2079 C2072 1.356 . S
N2079 H2082 0.984 . S
N2079 H2083 0.985 . S
H2080 N2075 0.984 . S
H2081 N2075 0.985 . S
H2082 N2079 0.984 . S
H2083 N2079 0.985 . S
H2084 N2078 0.984 . S
H2085 N2078 0.984 . S
H2086 N2074 0.984 . S
H2087 N2074 0.985 . S
C2088 C2089 1.363 . S
C2088 C2094 1.379 . S
C2088 N2096 1.356 . S
C2089 C2088 1.363 . S
C2089 C2095 1.363 . S
C2090 C2091 1.363 . S
C2090 C2095 1.379 . S
C2090 N2097 1.356 . S
C2091 C2090 1.363 . S
C2091 C2094 1.363 . S
N2092 C2094 1.356 . S
N2092 H2104 0.984 . S
N2092 H2105 0.985 . S
N2093 C2095 1.356 . S
N2093 H2098 0.984 . S
N2093 H2099 0.985 . S
C2094 C2088 1.379 . S
C2094 C2091 1.363 . S
C2094 N2092 1.356 . S
C2095 C2089 1.363 . S
C2095 C2090 1.379 . S
C2095 N2093 1.356 . S
N2096 C2088 1.356 . S
N2096 H2102 0.984 . S
N2096 H2103 0.984 . S
N2097 C2090 1.356 . S
N2097 H2100 0.984 . S
N2097 H2101 0.985 . S
H2098 N2093 0.984 . S
H2099 N2093 0.985 . S
H2100 N2097 0.984 . S
H2101 N2097 0.985 . S
H2102 N2096 0.984 . S
H2103 N2096 0.984 . S
H2104 N2092 0.984 . S
H2105 N2092 0.985 . S
C2106 C2107 1.363 . S
C2106 C2112 1.379 . S
C2106 N2114 1.356 . S
C2107 C2106 1.363 . S
C2107 C2113 1.363 . S
C2108 C2109 1.363 . S
C2108 C2113 1.379 . S
C2108 N2115 1.356 . S
C2109 C2108 1.363 . S
C2109 C2112 1.363 . S
N2110 C2112 1.356 . S
N2110 H2122 0.984 . S
N2110 H2123 0.985 . S
N2111 C2113 1.356 . S
N2111 H2116 0.984 . S
N2111 H2117 0.985 . S
C2112 C2106 1.379 . S
C2112 C2109 1.363 . S
C2112 N2110 1.356 . S
C2113 C2107 1.363 . S
C2113 C2108 1.379 . S
C2113 N2111 1.356 . S
N2114 C2106 1.356 . S
N2114 H2120 0.984 . S
N2114 H2121 0.984 . S
N2115 C2108 1.356 . S
N2115 H2118 0.984 . S
N2115 H2119 0.985 . S
H2116 N2111 0.984 . S
H2117 N2111 0.985 . S
H2118 N2115 0.984 . S
H2119 N2115 0.985 . S
H2120 N2114 0.984 . S
H2121 N2114 0.984 . S
H2122 N2110 0.984 . S
H2123 N2110 0.985 . S
C2124 C2125 1.363 . S
C2124 C2130 1.379 . S
C2124 N2132 1.356 . S
C2125 C2124 1.363 . S
C2125 C2131 1.363 . S
C2126 C2127 1.363 . S
C2126 C2131 1.379 . S
C2126 N2133 1.356 . S
C2127 C2126 1.363 . S
C2127 C2130 1.363 . S
N2128 C2130 1.356 . S
N2128 H2140 0.984 . S
N2128 H2141 0.985 . S
N2129 C2131 1.356 . S
N2129 H2134 0.984 . S
N2129 H2135 0.985 . S
C2130 C2124 1.379 . S
C2130 C2127 1.363 . S
C2130 N2128 1.356 . S
C2131 C2125 1.363 . S
C2131 C2126 1.379 . S
C2131 N2129 1.356 . S
N2132 C2124 1.356 . S
N2132 H2138 0.984 . S
N2132 H2139 0.984 . S
N2133 C2126 1.356 . S
N2133 H2136 0.984 . S
N2133 H2137 0.985 . S
H2134 N2129 0.984 . S
H2135 N2129 0.985 . S
H2136 N2133 0.984 . S
H2137 N2133 0.985 . S
H2138 N2132 0.984 . S
H2139 N2132 0.984 . S
H2140 N2128 0.984 . S
H2141 N2128 0.985 . S
C2142 C2143 1.363 . S
C2142 C2148 1.379 . S
C2142 N2150 1.356 . S
C2143 C2142 1.363 . S
C2143 C2149 1.363 . S
C2144 C2145 1.363 . S
C2144 C2149 1.379 . S
C2144 N2151 1.356 . S
C2145 C2144 1.363 . S
C2145 C2148 1.363 . S
N2146 C2148 1.356 . S
N2146 H2158 0.984 . S
N2146 H2159 0.985 . S
N2147 C2149 1.356 . S
N2147 H2152 0.984 . S
N2147 H2153 0.985 . S
C2148 C2142 1.379 . S
C2148 C2145 1.363 . S
C2148 N2146 1.356 . S
C2149 C2143 1.363 . S
C2149 C2144 1.379 . S
C2149 N2147 1.356 . S
N2150 C2142 1.356 . S
N2150 H2156 0.984 . S
N2150 H2157 0.984 . S
N2151 C2144 1.356 . S
N2151 H2154 0.984 . S
N2151 H2155 0.985 . S
H2152 N2147 0.984 . S
H2153 N2147 0.985 . S
H2154 N2151 0.984 . S
H2155 N2151 0.985 . S
H2156 N2150 0.984 . S
H2157 N2150 0.984 . S
H2158 N2146 0.984 . S
H2159 N2146 0.985 . S
C2160 C2161 1.363 . S
C2160 C2166 1.379 . S
C2160 N2168 1.356 . S
C2161 C2160 1.363 . S
C2161 C2167 1.363 . S
C2162 C2163 1.363 . S
C2162 C2167 1.379 . S
C2162 N2169 1.356 . S
C2163 C2162 1.363 . S
C2163 C2166 1.363 . S
N2164 C2166 1.356 . S
N2164 H2176 0.984 . S
N2164 H2177 0.985 . S
N2165 C2167 1.356 . S
N2165 H2170 0.984 . S
N2165 H2171 0.985 . S
C2166 C2160 1.379 . S
C2166 C2163 1.363 . S
C2166 N2164 1.356 . S
C2167 C2161 1.363 . S
C2167 C2162 1.379 . S
C2167 N2165 1.356 . S
N2168 C2160 1.356 . S
N2168 H2174 0.984 . S
N2168 H2175 0.984 . S
N2169 C2162 1.356 . S
N2169 H2172 0.984 . S
N2169 H2173 0.985 . S
H2170 N2165 0.984 . S
H2171 N2165 0.985 . S
H2172 N2169 0.984 . S
H2173 N2169 0.985 . S
H2174 N2168 0.984 . S
H2175 N2168 0.984 . S
H2176 N2164 0.984 . S
H2177 N2164 0.985 . S
C2178 C2179 1.363 . S
C2178 C2184 1.379 . S
C2178 N2186 1.356 . S
C2179 C2178 1.363 . S
C2179 C2185 1.363 . S
C2180 C2181 1.363 . S
C2180 C2185 1.379 . S
C2180 N2187 1.356 . S
C2181 C2180 1.363 . S
C2181 C2184 1.363 . S
N2182 C2184 1.356 . S
N2182 H2194 0.984 . S
N2182 H2195 0.985 . S
N2183 C2185 1.356 . S
N2183 H2188 0.984 . S
N2183 H2189 0.985 . S
C2184 C2178 1.379 . S
C2184 C2181 1.363 . S
C2184 N2182 1.356 . S
C2185 C2179 1.363 . S
C2185 C2180 1.379 . S
C2185 N2183 1.356 . S
N2186 C2178 1.356 . S
N2186 H2192 0.984 . S
N2186 H2193 0.984 . S
N2187 C2180 1.356 . S
N2187 H2190 0.984 . S
N2187 H2191 0.985 . S
H2188 N2183 0.984 . S
H2189 N2183 0.985 . S
H2190 N2187 0.984 . S
H2191 N2187 0.985 . S
H2192 N2186 0.984 . S
H2193 N2186 0.984 . S
H2194 N2182 0.984 . S
H2195 N2182 0.985 . S
C2196 C2197 1.363 . S
C2196 C2202 1.379 . S
C2196 N2204 1.356 . S
C2197 C2196 1.363 . S
C2197 C2203 1.363 . S
C2198 C2199 1.363 . S
C2198 C2203 1.379 . S
C2198 N2205 1.356 . S
C2199 C2198 1.363 . S
C2199 C2202 1.363 . S
N2200 C2202 1.356 . S
N2200 H2212 0.984 . S
N2200 H2213 0.985 . S
N2201 C2203 1.356 . S
N2201 H2206 0.984 . S
N2201 H2207 0.985 . S
C2202 C2196 1.379 . S
C2202 C2199 1.363 . S
C2202 N2200 1.356 . S
C2203 C2197 1.363 . S
C2203 C2198 1.379 . S
C2203 N2201 1.356 . S
N2204 C2196 1.356 . S
N2204 H2210 0.984 . S
N2204 H2211 0.984 . S
N2205 C2198 1.356 . S
N2205 H2208 0.984 . S
N2205 H2209 0.985 . S
H2206 N2201 0.984 . S
H2207 N2201 0.985 . S
H2208 N2205 0.984 . S
H2209 N2205 0.985 . S
H2210 N2204 0.984 . S
H2211 N2204 0.984 . S
H2212 N2200 0.984 . S
H2213 N2200 0.985 . S
C2214 C2215 1.363 . S
C2214 C2220 1.379 . S
C2214 N2222 1.356 . S
C2215 C2214 1.363 . S
C2215 C2221 1.363 . S
C2216 C2217 1.363 . S
C2216 C2221 1.379 . S
C2216 N2223 1.356 . S
C2217 C2216 1.363 . S
C2217 C2220 1.363 . S
N2218 C2220 1.356 . S
N2218 H2230 0.984 . S
N2218 H2231 0.985 . S
N2219 C2221 1.356 . S
N2219 H2224 0.984 . S
N2219 H2225 0.985 1_455 S
C2220 C2214 1.379 . S
C2220 C2217 1.363 . S
C2220 N2218 1.356 . S
C2221 C2215 1.363 . S
C2221 C2216 1.379 . S
C2221 N2219 1.356 . S
N2222 C2214 1.356 . S
N2222 H2228 0.984 . S
N2222 H2229 0.984 . S
N2223 C2216 1.356 . S
N2223 H2226 0.984 . S
N2223 H2227 0.985 . S
H2224 N2219 0.984 . S
H2225 N2219 0.985 1_655 S
H2226 N2223 0.984 . S
H2227 N2223 0.985 . S
H2228 N2222 0.984 . S
H2229 N2222 0.984 . S
H2230 N2218 0.984 . S
H2231 N2218 0.985 . S
C2232 C2233 1.363 . S
C2232 C2238 1.379 . S
C2232 N2240 1.356 . S
C2233 C2232 1.363 . S
C2233 C2239 1.363 . S
C2234 C2235 1.363 . S
C2234 C2239 1.379 . S
C2234 N2241 1.356 . S
C2235 C2234 1.363 . S
C2235 C2238 1.363 . S
N2236 C2238 1.356 . S
N2236 H2248 0.984 . S
N2236 H2249 0.985 . S
N2237 C2239 1.356 . S
N2237 H2242 0.984 . S
N2237 H2243 0.985 . S
C2238 C2232 1.379 . S
C2238 C2235 1.363 . S
C2238 N2236 1.356 . S
C2239 C2233 1.363 . S
C2239 C2234 1.379 . S
C2239 N2237 1.356 . S
N2240 C2232 1.356 . S
N2240 H2246 0.984 . S
N2240 H2247 0.984 . S
N2241 C2234 1.356 . S
N2241 H2244 0.984 . S
N2241 H2245 0.985 . S
H2242 N2237 0.984 . S
H2243 N2237 0.985 . S
H2244 N2241 0.984 . S
H2245 N2241 0.985 . S
H2246 N2240 0.984 . S
H2247 N2240 0.984 . S
H2248 N2236 0.984 . S
H2249 N2236 0.985 . S
C2250 C2251 1.363 . S
C2250 C2256 1.379 . S
C2250 N2258 1.356 . S
C2251 C2250 1.363 . S
C2251 C2257 1.363 . S
C2252 C2253 1.363 . S
C2252 C2257 1.379 . S
C2252 N2259 1.356 . S
C2253 C2252 1.363 . S
C2253 C2256 1.363 . S
N2254 C2256 1.356 . S
N2254 H2266 0.984 . S
N2254 H2267 0.985 . S
N2255 C2257 1.356 . S
N2255 H2260 0.984 . S
N2255 H2261 0.985 . S
C2256 C2250 1.379 . S
C2256 C2253 1.363 . S
C2256 N2254 1.356 . S
C2257 C2251 1.363 . S
C2257 C2252 1.379 . S
C2257 N2255 1.356 . S
N2258 C2250 1.356 . S
N2258 H2264 0.984 . S
N2258 H2265 0.984 . S
N2259 C2252 1.356 . S
N2259 H2262 0.984 . S
N2259 H2263 0.985 . S
H2260 N2255 0.984 . S
H2261 N2255 0.985 . S
H2262 N2259 0.984 . S
H2263 N2259 0.985 . S
H2264 N2258 0.984 . S
H2265 N2258 0.984 . S
H2266 N2254 0.984 . S
H2267 N2254 0.985 . S
C2268 C2269 1.363 . S
C2268 C2274 1.379 . S
C2268 N2276 1.356 . S
C2269 C2268 1.363 . S
C2269 C2275 1.363 1_556 S
C2270 C2271 1.363 . S
C2270 C2275 1.379 1_556 S
C2270 N2277 1.356 1_556 S
C2271 C2270 1.363 . S
C2271 C2274 1.363 . S
N2272 C2274 1.356 . S
N2272 H2284 0.984 . S
N2272 H2285 0.985 . S
N2273 C2275 1.356 . S
N2273 H2278 0.984 . S
N2273 H2279 0.985 . S
C2274 C2268 1.379 . S
C2274 C2271 1.363 . S
C2274 N2272 1.356 . S
C2275 C2269 1.363 1_554 S
C2275 C2270 1.379 1_554 S
C2275 N2273 1.356 . S
N2276 C2268 1.356 . S
N2276 H2282 0.984 . S
N2276 H2283 0.984 . S
N2277 C2270 1.356 1_554 S
N2277 H2280 0.965 1_554 S
N2277 H2281 0.985 . S
H2278 N2273 0.984 . S
H2279 N2273 0.985 . S
H2280 N2277 0.965 1_556 S
H2281 N2277 0.985 . S
H2282 N2276 0.984 . S
H2283 N2276 0.984 . S
H2284 N2272 0.984 . S
H2285 N2272 0.985 . S
C2286 C2287 1.363 . S
C2286 C2292 1.379 . S
C2286 N2294 1.356 . S
C2287 C2286 1.363 . S
C2287 C2293 1.363 . S
C2288 C2289 1.363 . S
C2288 C2293 1.379 . S
C2288 N2295 1.356 . S
C2289 C2288 1.363 . S
C2289 C2292 1.363 . S
N2290 C2292 1.356 . S
N2290 H2302 0.984 . S
N2290 H2303 0.985 . S
N2291 C2293 1.356 1_554 S
N2291 H2296 0.984 . S
N2291 H2297 0.985 . S
C2292 C2286 1.379 . S
C2292 C2289 1.363 . S
C2292 N2290 1.356 . S
C2293 C2287 1.363 . S
C2293 C2288 1.379 . S
C2293 N2291 1.356 1_556 S
N2294 C2286 1.356 . S
N2294 H2300 0.984 . S
N2294 H2301 0.984 . S
N2295 C2288 1.356 . S
N2295 H2298 0.984 . S
N2295 H2299 0.985 . S
H2296 N2291 0.984 . S
H2297 N2291 0.985 . S
H2298 N2295 0.984 . S
H2299 N2295 0.985 . S
H2300 N2294 0.984 . S
H2301 N2294 0.984 . S
H2302 N2290 0.984 . S
H2303 N2290 0.985 . S
C2304 C2305 1.363 . S
C2304 C2310 1.379 . S
C2304 N2312 1.356 . S
C2305 C2304 1.363 . S
C2305 C2311 1.363 1_554 S
C2306 C2307 1.363 . S
C2306 C2311 1.379 . S
C2306 N2313 1.356 . S
C2307 C2306 1.363 . S
C2307 C2310 1.363 1_556 S
N2308 C2310 1.356 . S
N2308 H2320 0.984 . S
N2308 H2321 0.985 . S
N2309 C2311 1.356 . S
N2309 H2314 0.984 1_556 S
N2309 H2315 0.985 . S
C2310 C2304 1.379 . S
C2310 C2307 1.363 1_554 S
C2310 N2308 1.356 . S
C2311 C2305 1.363 1_556 S
C2311 C2306 1.379 . S
C2311 N2309 1.356 . S
N2312 C2304 1.356 . S
N2312 H2318 0.984 . S
N2312 H2319 0.984 . S
N2313 C2306 1.356 . S
N2313 H2316 0.984 . S
N2313 H2317 0.985 . S
H2314 N2309 0.984 1_554 S
H2315 N2309 0.985 . S
H2316 N2313 0.984 . S
H2317 N2313 0.985 . S
H2318 N2312 0.984 . S
H2319 N2312 0.984 . S
H2320 N2308 0.984 . S
H2321 N2308 0.985 . S
C2322 C2323 1.363 1_554 S
C2322 C2328 1.379 1_554 S
C2322 N2330 1.356 . S
C2323 C2322 1.363 1_556 S
C2323 C2329 1.363 . S
C2324 C2325 1.363 . S
C2324 C2329 1.379 . S
C2324 N2331 1.356 . S
C2325 C2324 1.363 . S
C2325 C2328 1.363 . S
N2326 C2328 1.356 . S
N2326 H2338 0.984 1_556 S
N2326 H2339 0.985 . S
N2327 C2329 1.356 . S
N2327 H2332 0.984 . S
N2327 H2333 0.985 . S
C2328 C2322 1.379 1_556 S
C2328 C2325 1.363 . S
C2328 N2326 1.356 . S
C2329 C2323 1.363 . S
C2329 C2324 1.379 . S
C2329 N2327 1.356 . S
N2330 C2322 1.356 . S
N2330 H2336 0.984 . S
N2330 H2337 0.984 . S
N2331 C2324 1.356 . S
N2331 H2334 0.984 . S
N2331 H2335 0.985 . S
H2332 N2327 0.984 . S
H2333 N2327 0.985 . S
H2334 N2331 0.984 . S
H2335 N2331 0.985 . S
H2336 N2330 0.984 . S
H2337 N2330 0.984 . S
H2338 N2326 0.984 1_554 S
H2339 N2326 0.985 . S
C2340 C2341 1.363 . S
C2340 C2346 1.379 . S
C2340 N2348 1.356 . S
C2341 C2340 1.363 . S
C2341 C2347 1.363 . S
C2342 C2343 1.363 . S
C2342 C2347 1.379 . S
C2342 N2349 1.356 . S
C2343 C2342 1.363 . S
C2343 C2346 1.363 . S
N2344 C2346 1.356 . S
N2344 H2356 0.984 . S
N2344 H2357 0.985 . S
N2345 C2347 1.356 . S
N2345 H2350 0.984 . S
N2345 H2351 0.985 . S
C2346 C2340 1.379 . S
C2346 C2343 1.363 . S
C2346 N2344 1.356 . S
C2347 C2341 1.363 . S
C2347 C2342 1.379 . S
C2347 N2345 1.356 . S
N2348 C2340 1.356 . S
N2348 H2354 0.984 1_556 S
N2348 H2355 0.984 . S
N2349 C2342 1.356 . S
N2349 H2352 0.984 . S
N2349 H2353 0.985 . S
H2350 N2345 0.984 . S
H2351 N2345 0.985 . S
H2352 N2349 0.984 . S
H2353 N2349 0.985 . S
H2354 N2348 0.984 1_554 S
H2355 N2348 0.984 . S
H2356 N2344 0.984 . S
H2357 N2344 0.985 . S
C2358 C2359 1.363 1_556 S
C2358 C2364 1.379 . S
C2358 N2366 1.356 . S
C2359 C2358 1.363 1_554 S
C2359 C2365 1.363 . S
C2360 C2361 1.363 1_554 S
C2360 C2365 1.379 . S
C2360 N2367 1.356 . S
C2361 C2360 1.363 1_556 S
C2361 C2364 1.363 . S
N2362 C2364 1.356 . S
N2362 H2374 0.984 . S
N2362 H2375 0.985 . S
N2363 C2365 1.356 . S
N2363 H2368 0.984 . S
N2363 H2369 0.985 . S
C2364 C2358 1.379 . S
C2364 C2361 1.363 . S
C2364 N2362 1.356 . S
C2365 C2359 1.363 . S
C2365 C2360 1.379 . S
C2365 N2363 1.356 . S
N2366 C2358 1.356 . S
N2366 H2372 0.984 1_545 S
N2366 H2373 0.984 . S
N2367 C2360 1.356 . S
N2367 H2370 0.984 1_554 S
N2367 H2371 0.985 . S
H2368 N2363 0.984 . S
H2369 N2363 0.985 . S
H2370 N2367 0.984 1_556 S
H2371 N2367 0.985 . S
H2372 N2366 0.984 1_565 S
H2373 N2366 0.984 . S
H2374 N2362 0.984 . S
H2375 N2362 0.985 . S
C2376 C2377 1.363 . S
C2376 C2382 1.379 . S
C2376 N2384 1.356 . S
C2377 C2376 1.363 . S
C2377 C2383 1.363 . S
C2378 C2379 1.363 . S
C2378 C2383 1.379 . S
C2378 N2385 1.356 . S
C2379 C2378 1.363 . S
C2379 C2382 1.363 . S
N2380 C2382 1.356 . S
N2380 H2392 0.984 . S
N2380 H2393 0.985 . S
N2381 C2383 1.356 . S
N2381 H2386 0.984 . S
N2381 H2387 0.985 . S
C2382 C2376 1.379 . S
C2382 C2379 1.363 . S
C2382 N2380 1.356 . S
C2383 C2377 1.363 . S
C2383 C2378 1.379 . S
C2383 N2381 1.356 . S
N2384 C2376 1.356 . S
N2384 H2390 0.984 1_565 S
N2384 H2391 0.984 . S
N2385 C2378 1.356 . S
N2385 H2388 0.984 . S
N2385 H2389 0.985 . S
H2386 N2381 0.984 . S
H2387 N2381 0.985 . S
H2388 N2385 0.984 . S
H2389 N2385 0.985 . S
H2390 N2384 0.984 1_545 S
H2391 N2384 0.984 . S
H2392 N2380 0.984 . S
H2393 N2380 0.985 . S
C2394 C2395 1.363 . S
C2394 C2400 1.379 . S
C2394 N2402 1.356 . S
C2395 C2394 1.363 . S
C2395 C2401 1.363 . S
C2396 C2397 1.363 . S
C2396 C2401 1.379 . S
C2396 N2403 1.356 . S
C2397 C2396 1.363 . S
C2397 C2400 1.363 . S
N2398 C2400 1.356 . S
N2398 H2410 0.984 . S
N2398 H2411 0.985 . S
N2399 C2401 1.356 . S
N2399 H2404 0.984 . S
N2399 H2405 0.985 . S
C2400 C2394 1.379 . S
C2400 C2397 1.363 . S
C2400 N2398 1.356 . S
C2401 C2395 1.363 . S
C2401 C2396 1.379 . S
C2401 N2399 1.356 . S
N2402 C2394 1.356 . S
N2402 H2408 0.984 . S
N2402 H2409 0.984 . S
N2403 C2396 1.356 . S
N2403 H2406 0.984 . S
N2403 H2407 0.985 . S
H2404 N2399 0.984 . S
H2405 N2399 0.985 . S
H2406 N2403 0.984 . S
H2407 N2403 0.985 . S
H2408 N2402 0.984 . S
H2409 N2402 0.984 . S
H2410 N2398 0.984 . S
H2411 N2398 0.985 . S
C2412 C2413 1.363 . S
C2412 C2418 1.379 . S
C2412 N2420 1.356 . S
C2413 C2412 1.363 . S
C2413 C2419 1.363 . S
C2414 C2415 1.363 . S
C2414 C2419 1.379 . S
C2414 N2421 1.356 . S
C2415 C2414 1.363 . S
C2415 C2418 1.363 . S
N2416 C2418 1.356 . S
N2416 H2428 0.984 . S
N2416 H2429 0.985 . S
N2417 C2419 1.356 . S
N2417 H2422 0.984 . S
N2417 H2423 0.985 . S
C2418 C2412 1.379 . S
C2418 C2415 1.363 . S
C2418 N2416 1.356 . S
C2419 C2413 1.363 . S
C2419 C2414 1.379 . S
C2419 N2417 1.356 . S
N2420 C2412 1.356 . S
N2420 H2426 0.984 1_554 S
N2420 H2427 0.984 . S
N2421 C2414 1.356 . S
N2421 H2424 0.984 . S
N2421 H2425 0.985 . S
H2422 N2417 0.984 . S
H2423 N2417 0.985 . S
H2424 N2421 0.984 . S
H2425 N2421 0.985 . S
H2426 N2420 0.984 1_556 S
H2427 N2420 0.984 . S
H2428 N2416 0.984 . S
H2429 N2416 0.985 . S
C2430 C2431 1.363 . S
C2430 C2436 1.379 . S
C2430 N2438 1.356 . S
C2431 C2430 1.363 . S
C2431 C2437 1.363 . S
C2432 C2433 1.363 . S
C2432 C2437 1.379 . S
C2432 N2439 1.356 . S
C2433 C2432 1.363 . S
C2433 C2436 1.363 . S
N2434 C2436 1.356 . S
N2434 H2446 0.984 . S
N2434 H2447 0.985 . S
N2435 C2437 1.356 . S
N2435 H2440 0.984 . S
N2435 H2441 0.985 . S
C2436 C2430 1.379 . S
C2436 C2433 1.363 . S
C2436 N2434 1.356 . S
C2437 C2431 1.363 . S
C2437 C2432 1.379 . S
C2437 N2435 1.356 . S
N2438 C2430 1.356 . S
N2438 H2444 0.984 . S
N2438 H2445 0.984 . S
N2439 C2432 1.356 . S
N2439 H2442 0.984 . S
N2439 H2443 0.985 . S
H2440 N2435 0.984 . S
H2441 N2435 0.985 . S
H2442 N2439 0.984 . S
H2443 N2439 0.985 . S
H2444 N2438 0.984 . S
H2445 N2438 0.984 . S
H2446 N2434 0.984 . S
H2447 N2434 0.985 . S
C2448 C2449 1.363 . S
C2448 C2454 1.379 . S
C2448 N2456 1.356 . S
C2449 C2448 1.363 . S
C2449 C2455 1.363 . S
C2450 C2451 1.363 . S
C2450 C2455 1.379 . S
C2450 N2457 1.356 . S
C2451 C2450 1.363 . S
C2451 C2454 1.363 . S
N2452 C2454 1.356 . S
N2452 H2464 0.984 . S
N2452 H2465 0.985 . S
N2453 C2455 1.356 . S
N2453 H2458 0.984 . S
N2453 H2459 0.985 . S
C2454 C2448 1.379 . S
C2454 C2451 1.363 . S
C2454 N2452 1.356 . S
C2455 C2449 1.363 . S
C2455 C2450 1.379 . S
C2455 N2453 1.356 . S
N2456 C2448 1.356 . S
N2456 H2462 0.976 . S
N2456 H2463 0.984 1_545 S
N2457 C2450 1.356 . S
N2457 H2460 0.984 . S
N2457 H2461 0.985 . S
H2458 N2453 0.984 . S
H2459 N2453 0.985 . S
H2460 N2457 0.984 . S
H2461 N2457 0.985 . S
H2462 N2456 0.976 . S
H2463 N2456 0.984 1_565 S
H2464 N2452 0.984 . S
H2465 N2452 0.985 . S
C2466 C2467 1.363 . S
C2466 C2472 1.379 . S
C2466 N2474 1.356 1_655 S
C2467 C2466 1.363 . S
C2467 C2473 1.363 . S
C2468 C2469 1.363 . S
C2468 C2473 1.379 . S
C2468 N2475 1.356 . S
C2469 C2468 1.363 . S
C2469 C2472 1.363 . S
N2470 C2472 1.356 . S
N2470 H2482 0.984 . S
N2470 H2483 0.985 . S
N2471 C2473 1.356 . S
N2471 H2476 0.984 . S
N2471 H2477 0.985 . S
C2472 C2466 1.379 . S
C2472 C2469 1.363 . S
C2472 N2470 1.356 . S
C2473 C2467 1.363 . S
C2473 C2468 1.379 . S
C2473 N2471 1.356 . S
N2474 C2466 1.356 1_455 S
N2474 H2480 0.984 . S
N2474 H2481 0.984 . S
N2475 C2468 1.356 . S
N2475 H2478 0.984 . S
N2475 H2479 0.985 . S
H2476 N2471 0.984 . S
H2477 N2471 0.985 . S
H2478 N2475 0.984 . S
H2479 N2475 0.985 . S
H2480 N2474 0.984 . S
H2481 N2474 0.984 . S
H2482 N2470 0.984 . S
H2483 N2470 0.985 . S
C2484 C2485 1.363 . S
C2484 C2490 1.379 . S
C2484 N2492 1.356 . S
C2485 C2484 1.363 . S
C2485 C2491 1.363 . S
C2486 C2487 1.363 . S
C2486 C2491 1.379 . S
C2486 N2493 1.356 . S
C2487 C2486 1.363 . S
C2487 C2490 1.363 . S
N2488 C2490 1.356 . S
N2488 H2500 0.984 . S
N2488 H2501 0.985 . S
N2489 C2491 1.356 . S
N2489 H2494 0.984 . S
N2489 H2495 0.985 . S
C2490 C2484 1.379 . S
C2490 C2487 1.363 . S
C2490 N2488 1.356 . S
C2491 C2485 1.363 . S
C2491 C2486 1.379 . S
C2491 N2489 1.356 . S
N2492 C2484 1.356 . S
N2492 H2498 0.984 . S
N2492 H2499 0.984 . S
N2493 C2486 1.356 . S
N2493 H2496 0.984 . S
N2493 H2497 0.985 . S
H2494 N2489 0.984 . S
H2495 N2489 0.985 . S
H2496 N2493 0.984 . S
H2497 N2493 0.985 . S
H2498 N2492 0.984 . S
H2499 N2492 0.984 . S
H2500 N2488 0.984 . S
H2501 N2488 0.985 . S
C2502 C2503 1.363 . S
C2502 C2508 1.379 . S
C2502 N2510 1.356 . S
C2503 C2502 1.363 . S
C2503 C2509 1.363 . S
C2504 C2505 1.363 . S
C2504 C2509 1.379 . S
C2504 N2511 1.356 . S
C2505 C2504 1.363 . S
C2505 C2508 1.363 . S
N2506 C2508 1.356 . S
N2506 H2518 0.984 . S
N2506 H2519 0.985 . S
N2507 C2509 1.356 . S
N2507 H2512 0.984 . S
N2507 H2513 0.985 . S
C2508 C2502 1.379 . S
C2508 C2505 1.363 . S
C2508 N2506 1.356 . S
C2509 C2503 1.363 . S
C2509 C2504 1.379 . S
C2509 N2507 1.356 . S
N2510 C2502 1.356 . S
N2510 H2516 0.984 . S
N2510 H2517 0.984 . S
N2511 C2504 1.356 . S
N2511 H2514 0.984 . S
N2511 H2515 0.985 . S
H2512 N2507 0.984 . S
H2513 N2507 0.985 . S
H2514 N2511 0.984 . S
H2515 N2511 0.985 . S
H2516 N2510 0.984 . S
H2517 N2510 0.984 . S
H2518 N2506 0.984 . S
H2519 N2506 0.985 . S
C2520 C2521 1.363 . S
C2520 C2526 1.379 . S
C2520 N2528 1.356 . S
C2521 C2520 1.363 . S
C2521 C2527 1.363 . S
C2522 C2523 1.363 . S
C2522 C2527 1.379 . S
C2522 N2529 1.336 1_565 S
C2523 C2522 1.363 . S
C2523 C2526 1.363 . S
N2524 C2526 1.356 . S
N2524 H2536 0.984 . S
N2524 H2537 0.985 . S
N2525 C2527 1.356 . S
N2525 H2530 0.984 . S
N2525 H2531 0.985 1_565 S
C2526 C2520 1.379 . S
C2526 C2523 1.363 . S
C2526 N2524 1.356 . S
C2527 C2521 1.363 . S
C2527 C2522 1.379 . S
C2527 N2525 1.356 . S
N2528 C2520 1.356 . S
N2528 H2534 0.984 . S
N2528 H2535 0.984 . S
N2529 C2522 1.336 1_545 S
N2529 H2532 0.947 1_545 S
N2529 H2533 1.033 . S
H2530 N2525 0.984 . S
H2531 N2525 0.985 1_545 S
H2532 N2529 0.947 1_565 S
H2533 N2529 1.033 . S
H2534 N2528 0.984 . S
H2535 N2528 0.984 . S
H2536 N2524 0.984 . S
H2537 N2524 0.985 . S
C2538 C2539 1.363 . S
C2538 C2544 1.379 . S
C2538 N2546 1.356 . S
C2539 C2538 1.363 . S
C2539 C2545 1.389 . S
C2540 C2541 1.363 1_545 S
C2540 C2545 1.361 1_545 S
C2540 N2547 1.356 . S
C2541 C2540 1.363 1_565 S
C2541 C2544 1.363 . S
N2542 C2544 1.356 . S
N2542 H2554 0.984 . S
N2542 H2555 0.985 . S
N2543 C2545 1.357 1_545 S
N2543 H2548 0.984 1_545 S
N2543 H2549 0.985 . S
C2544 C2538 1.379 . S
C2544 C2541 1.363 . S
C2544 N2542 1.356 . S
C2545 C2539 1.389 . S
C2545 C2540 1.361 1_565 S
C2545 N2543 1.357 1_565 S
N2546 C2538 1.356 . S
N2546 H2552 0.984 . S
N2546 H2553 0.984 . S
N2547 C2540 1.356 . S
N2547 H2550 0.984 . S
N2547 H2551 0.985 . S
H2548 N2543 0.984 1_565 S
H2549 N2543 0.985 . S
H2550 N2547 0.984 . S
H2551 N2547 0.985 . S
H2552 N2546 0.984 . S
H2553 N2546 0.984 . S
H2554 N2542 0.984 . S
H2555 N2542 0.985 . S
C2556 C2557 1.363 . S
C2556 C2562 1.379 . S
C2556 N2564 1.356 . S
C2557 C2556 1.363 . S
C2557 C2563 1.335 1_455 S
C2558 C2559 1.363 1_655 S
C2558 C2563 1.376 . S
C2558 N2565 1.356 . S
C2559 C2558 1.363 1_455 S
C2559 C2562 1.363 . S
N2560 C2562 1.356 . S
N2560 H2572 0.984 . S
N2560 H2573 0.985 . S
N2561 C2563 1.382 . S
N2561 H2566 0.984 1_655 S
N2561 H2567 0.985 . S
C2562 C2556 1.379 . S
C2562 C2559 1.363 . S
C2562 N2560 1.356 . S
C2563 C2557 1.335 1_655 S
C2563 C2558 1.376 . S
C2563 N2561 1.382 . S
N2564 C2556 1.356 . S
N2564 H2570 0.984 . S
N2564 H2571 0.984 . S
N2565 C2558 1.356 . S
N2565 H2568 0.984 . S
N2565 H2569 0.985 . S
H2566 N2561 0.984 1_455 S
H2567 N2561 0.985 . S
H2568 N2565 0.984 . S
H2569 N2565 0.985 . S
H2570 N2564 0.984 . S
H2571 N2564 0.984 . S
H2572 N2560 0.984 . S
H2573 N2560 0.985 . S
C2574 C2575 1.363 . S
C2574 C2580 1.379 . S
C2574 N2582 1.356 . S
C2575 C2574 1.363 . S
C2575 C2581 1.363 . S
C2576 C2577 1.363 . S
C2576 C2581 1.379 . S
C2576 N2583 1.356 . S
C2577 C2576 1.363 . S
C2577 C2580 1.363 . S
N2578 C2580 1.356 . S
N2578 H2590 0.984 . S
N2578 H2591 0.985 . S
N2579 C2581 1.356 . S
N2579 H2584 0.984 . S
N2579 H2585 0.985 . S
C2580 C2574 1.379 . S
C2580 C2577 1.363 . S
C2580 N2578 1.356 . S
C2581 C2575 1.363 . S
C2581 C2576 1.379 . S
C2581 N2579 1.356 . S
N2582 C2574 1.356 . S
N2582 H2588 0.984 . S
N2582 H2589 0.984 . S
N2583 C2576 1.356 . S
N2583 H2586 0.984 . S
N2583 H2587 0.985 . S
H2584 N2579 0.984 . S
H2585 N2579 0.985 . S
H2586 N2583 0.984 . S
H2587 N2583 0.985 . S
H2588 N2582 0.984 . S
H2589 N2582 0.984 . S
H2590 N2578 0.984 . S
H2591 N2578 0.985 . S
C2592 C2593 1.363 . S
C2592 C2598 1.379 . S
C2592 N2600 1.356 . S
C2593 C2592 1.363 . S
C2593 C2599 1.363 . S
C2594 C2595 1.363 . S
C2594 C2599 1.379 . S
C2594 N2601 1.356 . S
C2595 C2594 1.363 . S
C2595 C2598 1.363 . S
N2596 C2598 1.356 . S
N2596 H2608 0.984 . S
N2596 H2609 0.985 . S
N2597 C2599 1.356 . S
N2597 H2602 0.984 . S
N2597 H2603 0.985 . S
C2598 C2592 1.379 . S
C2598 C2595 1.363 . S
C2598 N2596 1.356 . S
C2599 C2593 1.363 . S
C2599 C2594 1.379 . S
C2599 N2597 1.356 . S
N2600 C2592 1.356 . S
N2600 H2606 0.984 . S
N2600 H2607 0.984 . S
N2601 C2594 1.356 . S
N2601 H2604 0.984 . S
N2601 H2605 0.985 . S
H2602 N2597 0.984 . S
H2603 N2597 0.985 . S
H2604 N2601 0.984 . S
H2605 N2601 0.985 . S
H2606 N2600 0.984 . S
H2607 N2600 0.984 . S
H2608 N2596 0.984 . S
H2609 N2596 0.985 . S
C2610 C2611 1.363 . S
C2610 C2616 1.379 . S
C2610 N2618 1.356 . S
C2611 C2610 1.363 . S
C2611 C2617 1.363 . S
C2612 C2613 1.363 . S
C2612 C2617 1.379 . S
C2612 N2619 1.356 . S
C2613 C2612 1.363 . S
C2613 C2616 1.363 . S
N2614 C2616 1.356 . S
N2614 H2626 0.984 . S
N2614 H2627 0.985 . S
N2615 C2617 1.356 . S
N2615 H2620 0.997 . S
N2615 H2621 0.985 . S
C2616 C2610 1.379 . S
C2616 C2613 1.363 . S
C2616 N2614 1.356 . S
C2617 C2611 1.363 . S
C2617 C2612 1.379 . S
C2617 N2615 1.356 . S
N2618 C2610 1.356 . S
N2618 H2624 0.984 . S
N2618 H2625 0.984 . S
N2619 C2612 1.356 . S
N2619 H2622 0.984 . S
N2619 H2623 0.985 . S
H2620 N2615 0.997 . S
H2621 N2615 0.985 . S
H2622 N2619 0.984 . S
H2623 N2619 0.985 . S
H2624 N2618 0.984 . S
H2625 N2618 0.984 . S
H2626 N2614 0.984 . S
H2627 N2614 0.985 . S
C2628 C2629 1.363 . S
C2628 C2634 1.379 . S
C2628 N2636 1.356 . S
C2629 C2628 1.363 . S
C2629 C2635 1.363 . S
C2630 C2631 1.363 . S
C2630 C2635 1.379 . S
C2630 N2637 1.356 . S
C2631 C2630 1.363 . S
C2631 C2634 1.363 . S
N2632 C2634 1.356 . S
N2632 H2644 0.984 . S
N2632 H2645 0.985 . S
N2633 C2635 1.356 . S
N2633 H2638 0.984 . S
N2633 H2639 0.985 . S
C2634 C2628 1.379 . S
C2634 C2631 1.363 . S
C2634 N2632 1.356 . S
C2635 C2629 1.363 . S
C2635 C2630 1.379 . S
C2635 N2633 1.356 . S
N2636 C2628 1.356 . S
N2636 H2642 0.984 . S
N2636 H2643 0.984 1_655 S
N2637 C2630 1.356 . S
N2637 H2640 0.984 . S
N2637 H2641 0.985 . S
H2638 N2633 0.984 . S
H2639 N2633 0.985 . S
H2640 N2637 0.984 . S
H2641 N2637 0.985 . S
H2642 N2636 0.984 . S
H2643 N2636 0.984 1_455 S
H2644 N2632 0.984 . S
H2645 N2632 0.985 . S
C2646 C2647 1.363 . S
C2646 C2652 1.379 . S
C2646 N2654 1.356 . S
C2647 C2646 1.363 . S
C2647 C2653 1.363 . S
C2648 C2649 1.363 . S
C2648 C2653 1.379 . S
C2648 N2655 1.356 . S
C2649 C2648 1.363 . S
C2649 C2652 1.363 . S
N2650 C2652 1.356 . S
N2650 H2662 0.984 . S
N2650 H2663 0.985 . S
N2651 C2653 1.356 . S
N2651 H2656 0.984 . S
N2651 H2657 0.985 . S
C2652 C2646 1.379 . S
C2652 C2649 1.363 . S
C2652 N2650 1.356 . S
C2653 C2647 1.363 . S
C2653 C2648 1.379 . S
C2653 N2651 1.356 . S
N2654 C2646 1.356 . S
N2654 H2660 0.984 . S
N2654 H2661 0.984 . S
N2655 C2648 1.356 . S
N2655 H2658 0.984 . S
N2655 H2659 0.985 . S
H2656 N2651 0.984 . S
H2657 N2651 0.985 . S
H2658 N2655 0.984 . S
H2659 N2655 0.985 . S
H2660 N2654 0.984 . S
H2661 N2654 0.984 . S
H2662 N2650 0.984 . S
H2663 N2650 0.985 . S
C2664 C2665 1.363 . S
C2664 C2670 1.379 . S
C2664 N2672 1.355 . S
C2665 C2664 1.363 . S
C2665 C2671 1.363 . S
C2666 C2667 1.363 . S
C2666 C2671 1.379 . S
C2666 N2673 1.356 . S
C2667 C2666 1.363 . S
C2667 C2670 1.363 . S
N2668 C2670 1.356 1_455 S
N2668 H2680 0.984 . S
N2668 H2681 0.985 . S
N2669 C2671 1.356 . S
N2669 H2674 0.984 . S
N2669 H2675 0.985 . S
C2670 C2664 1.379 . S
C2670 C2667 1.363 . S
C2670 N2668 1.356 1_655 S
C2671 C2665 1.363 . S
C2671 C2666 1.379 . S
C2671 N2669 1.356 . S
N2672 C2664 1.355 . S
N2672 H2678 0.985 1_655 S
N2672 H2679 0.985 . S
N2673 C2666 1.356 . S
N2673 H2676 0.984 . S
N2673 H2677 0.985 . S
H2674 N2669 0.984 . S
H2675 N2669 0.985 . S
H2676 N2673 0.984 . S
H2677 N2673 0.985 . S
H2678 N2672 0.985 1_455 S
H2679 N2672 0.985 . S
H2680 N2668 0.984 . S
H2681 N2668 0.985 . S
C2682 C2683 1.363 . S
C2682 C2688 1.379 . S
C2682 N2690 1.356 . S
C2683 C2682 1.363 . S
C2683 C2689 1.363 . S
C2684 C2685 1.363 . S
C2684 C2689 1.379 . S
C2684 N2691 1.356 . S
C2685 C2684 1.363 . S
C2685 C2688 1.363 . S
N2686 C2688 1.356 . S
N2686 H2698 0.984 . S
N2686 H2699 0.985 . S
N2687 C2689 1.356 . S
N2687 H2692 0.984 . S
N2687 H2693 0.985 . S
C2688 C2682 1.379 . S
C2688 C2685 1.363 . S
C2688 N2686 1.356 . S
C2689 C2683 1.363 . S
C2689 C2684 1.379 . S
C2689 N2687 1.356 . S
N2690 C2682 1.356 . S
N2690 H2696 0.984 . S
N2690 H2697 0.984 . S
N2691 C2684 1.356 . S
N2691 H2694 0.984 . S
N2691 H2695 0.985 . S
H2692 N2687 0.984 . S
H2693 N2687 0.985 . S
H2694 N2691 0.984 . S
H2695 N2691 0.985 . S
H2696 N2690 0.984 . S
H2697 N2690 0.984 . S
H2698 N2686 0.984 . S
H2699 N2686 0.985 . S
C2700 C2701 1.363 . S
C2700 C2706 1.379 . S
C2700 N2708 1.356 . S
C2701 C2700 1.363 . S
C2701 C2707 1.363 . S
C2702 C2703 1.363 . S
C2702 C2707 1.379 . S
C2702 N2709 1.356 . S
C2703 C2702 1.363 . S
C2703 C2706 1.363 . S
N2704 C2706 1.356 . S
N2704 H2716 0.984 . S
N2704 H2717 0.985 . S
N2705 C2707 1.356 . S
N2705 H2710 0.984 . S
N2705 H2711 0.985 . S
C2706 C2700 1.379 . S
C2706 C2703 1.363 . S
C2706 N2704 1.356 . S
C2707 C2701 1.363 . S
C2707 C2702 1.379 . S
C2707 N2705 1.356 . S
N2708 C2700 1.356 . S
N2708 H2714 0.984 . S
N2708 H2715 0.984 . S
N2709 C2702 1.356 . S
N2709 H2712 0.984 . S
N2709 H2713 0.985 . S
H2710 N2705 0.984 . S
H2711 N2705 0.985 . S
H2712 N2709 0.984 . S
H2713 N2709 0.985 . S
H2714 N2708 0.984 . S
H2715 N2708 0.984 . S
H2716 N2704 0.984 . S
H2717 N2704 0.985 . S
C2718 C2719 1.363 . S
C2718 C2724 1.379 . S
C2718 N2726 1.356 . S
C2719 C2718 1.363 . S
C2719 C2725 1.363 . S
C2720 C2721 1.363 . S
C2720 C2725 1.379 . S
C2720 N2727 1.356 . S
C2721 C2720 1.363 . S
C2721 C2724 1.363 . S
N2722 C2724 1.356 . S
N2722 H2734 0.984 . S
N2722 H2735 0.985 . S
N2723 C2725 1.356 . S
N2723 H2728 0.984 1_565 S
N2723 H2729 0.985 . S
C2724 C2718 1.379 . S
C2724 C2721 1.363 . S
C2724 N2722 1.356 . S
C2725 C2719 1.363 . S
C2725 C2720 1.379 . S
C2725 N2723 1.356 . S
N2726 C2718 1.356 . S
N2726 H2732 0.984 . S
N2726 H2733 0.984 . S
N2727 C2720 1.356 . S
N2727 H2730 0.984 . S
N2727 H2731 0.985 . S
H2728 N2723 0.984 1_545 S
H2729 N2723 0.985 . S
H2730 N2727 0.984 . S
H2731 N2727 0.985 . S
H2732 N2726 0.984 . S
H2733 N2726 0.984 . S
H2734 N2722 0.984 . S
H2735 N2722 0.985 . S
C2736 C2737 1.363 . S
C2736 C2742 1.379 . S
C2736 N2744 1.356 . S
C2737 C2736 1.363 . S
C2737 C2743 1.363 . S
C2738 C2739 1.363 . S
C2738 C2743 1.379 . S
C2738 N2745 1.356 . S
C2739 C2738 1.363 . S
C2739 C2742 1.363 . S
N2740 C2742 1.356 . S
N2740 H2752 0.984 . S
N2740 H2753 0.985 . S
N2741 C2743 1.356 . S
N2741 H2746 0.984 . S
N2741 H2747 0.985 . S
C2742 C2736 1.379 . S
C2742 C2739 1.363 . S
C2742 N2740 1.356 . S
C2743 C2737 1.363 . S
C2743 C2738 1.379 . S
C2743 N2741 1.356 . S
N2744 C2736 1.356 . S
N2744 H2750 0.984 . S
N2744 H2751 0.984 1_455 S
N2745 C2738 1.356 . S
N2745 H2748 0.984 . S
N2745 H2749 0.985 . S
H2746 N2741 0.984 . S
H2747 N2741 0.985 . S
H2748 N2745 0.984 . S
H2749 N2745 0.985 . S
H2750 N2744 0.984 . S
H2751 N2744 0.984 1_655 S
H2752 N2740 0.984 . S
H2753 N2740 0.985 . S
C2754 C2755 1.363 . S
C2754 C2760 1.379 . S
C2754 N2762 1.356 . S
C2755 C2754 1.363 . S
C2755 C2761 1.363 . S
C2756 C2757 1.363 . S
C2756 C2761 1.379 . S
C2756 N2763 1.356 . S
C2757 C2756 1.363 . S
C2757 C2760 1.363 . S
N2758 C2760 1.356 . S
N2758 H2770 0.984 . S
N2758 H2771 0.985 . S
N2759 C2761 1.356 . S
N2759 H2764 0.984 . S
N2759 H2765 0.985 . S
C2760 C2754 1.379 . S
C2760 C2757 1.363 . S
C2760 N2758 1.356 . S
C2761 C2755 1.363 . S
C2761 C2756 1.379 . S
C2761 N2759 1.356 . S
N2762 C2754 1.356 . S
N2762 H2768 0.984 . S
N2762 H2769 0.984 . S
N2763 C2756 1.356 . S
N2763 H2766 0.984 . S
N2763 H2767 0.985 . S
H2764 N2759 0.984 . S
H2765 N2759 0.985 . S
H2766 N2763 0.984 . S
H2767 N2763 0.985 . S
H2768 N2762 0.984 . S
H2769 N2762 0.984 . S
H2770 N2758 0.984 . S
H2771 N2758 0.985 . S
C2772 C2773 1.363 . S
C2772 C2778 1.379 . S
C2772 N2780 1.356 . S
C2773 C2772 1.363 . S
C2773 C2779 1.363 . S
C2774 C2775 1.363 . S
C2774 C2779 1.379 . S
C2774 N2781 1.356 . S
C2775 C2774 1.363 . S
C2775 C2778 1.363 . S
N2776 C2778 1.356 . S
N2776 H2788 0.984 . S
N2776 H2789 0.985 . S
N2777 C2779 1.356 . S
N2777 H2782 0.984 . S
N2777 H2783 0.985 . S
C2778 C2772 1.379 . S
C2778 C2775 1.363 . S
C2778 N2776 1.356 . S
C2779 C2773 1.363 . S
C2779 C2774 1.379 . S
C2779 N2777 1.356 . S
N2780 C2772 1.356 . S
N2780 H2786 0.984 . S
N2780 H2787 0.984 1_565 S
N2781 C2774 1.356 . S
N2781 H2784 0.984 . S
N2781 H2785 0.985 . S
H2782 N2777 0.984 . S
H2783 N2777 0.985 . S
H2784 N2781 0.984 . S
H2785 N2781 0.985 . S
H2786 N2780 0.984 . S
H2787 N2780 0.984 1_545 S
H2788 N2776 0.984 . S
H2789 N2776 0.985 . S
C2790 C2791 1.363 . S
C2790 C2796 1.379 . S
C2790 N2798 1.356 . S
C2791 C2790 1.363 . S
C2791 C2797 1.363 . S
C2792 C2793 1.363 . S
C2792 C2797 1.379 . S
C2792 N2799 1.356 . S
C2793 C2792 1.363 . S
C2793 C2796 1.363 . S
N2794 C2796 1.356 . S
N2794 H2806 0.984 . S
N2794 H2807 0.985 . S
N2795 C2797 1.372 . S
N2795 H2800 0.954 1_455 S
N2795 H2801 1.005 1_455 S
C2796 C2790 1.379 . S
C2796 C2793 1.363 . S
C2796 N2794 1.356 . S
C2797 C2791 1.363 . S
C2797 C2792 1.379 . S
C2797 N2795 1.372 . S
N2798 C2790 1.356 . S
N2798 H2804 0.984 . S
N2798 H2805 0.984 . S
N2799 C2792 1.356 . S
N2799 H2802 0.984 . S
N2799 H2803 0.985 . S
H2800 N2795 0.954 1_655 S
H2801 N2795 1.005 1_655 S
H2802 N2799 0.984 . S
H2803 N2799 0.985 . S
H2804 N2798 0.984 . S
H2805 N2798 0.984 . S
H2806 N2794 0.984 . S
H2807 N2794 0.985 . S
C2808 C2809 1.363 . S
C2808 C2814 1.379 . S
C2808 N2816 1.356 . S
C2809 C2808 1.363 . S
C2809 C2815 1.363 . S
C2810 C2811 1.363 . S
C2810 C2815 1.379 . S
C2810 N2817 1.356 . S
C2811 C2810 1.363 . S
C2811 C2814 1.363 . S
N2812 C2814 1.356 1_455 S
N2812 H2824 0.984 . S
N2812 H2825 0.985 . S
N2813 C2815 1.356 . S
N2813 H2818 0.984 . S
N2813 H2819 0.985 . S
C2814 C2808 1.379 . S
C2814 C2811 1.363 . S
C2814 N2812 1.356 1_655 S
C2815 C2809 1.363 . S
C2815 C2810 1.379 . S
C2815 N2813 1.356 . S
N2816 C2808 1.356 . S
N2816 H2822 0.980 1_655 S
N2816 H2823 0.984 . S
N2817 C2810 1.356 . S
N2817 H2820 0.984 . S
N2817 H2821 0.985 . S
H2818 N2813 0.984 . S
H2819 N2813 0.985 . S
H2820 N2817 0.984 . S
H2821 N2817 0.985 . S
H2822 N2816 0.980 1_455 S
H2823 N2816 0.984 . S
H2824 N2812 0.984 . S
H2825 N2812 0.985 . S
C2826 C2827 1.363 . S
C2826 C2832 1.379 . S
C2826 N2834 1.356 . S
C2827 C2826 1.363 . S
C2827 C2833 1.363 . S
C2828 C2829 1.363 . S
C2828 C2833 1.379 . S
C2828 N2835 1.356 . S
C2829 C2828 1.363 . S
C2829 C2832 1.363 . S
N2830 C2832 1.356 . S
N2830 H2842 0.984 . S
N2830 H2843 0.985 . S
N2831 C2833 1.356 . S
N2831 H2836 0.984 . S
N2831 H2837 0.985 . S
C2832 C2826 1.379 . S
C2832 C2829 1.363 . S
C2832 N2830 1.356 . S
C2833 C2827 1.363 . S
C2833 C2828 1.379 . S
C2833 N2831 1.356 . S
N2834 C2826 1.356 . S
N2834 H2840 0.984 . S
N2834 H2841 0.984 . S
N2835 C2828 1.356 . S
N2835 H2838 0.984 . S
N2835 H2839 0.985 . S
H2836 N2831 0.984 . S
H2837 N2831 0.985 . S
H2838 N2835 0.984 . S
H2839 N2835 0.985 . S
H2840 N2834 0.984 . S
H2841 N2834 0.984 . S
H2842 N2830 0.984 . S
H2843 N2830 0.985 . S
C2844 C2845 1.363 . S
C2844 C2850 1.379 . S
C2844 N2852 1.356 . S
C2845 C2844 1.363 . S
C2845 C2851 1.363 . S
C2846 C2847 1.363 . S
C2846 C2851 1.379 . S
C2846 N2853 1.356 . S
C2847 C2846 1.363 . S
C2847 C2850 1.363 . S
N2848 C2850 1.356 1_565 S
N2848 H2860 0.984 . S
N2848 H2861 0.985 . S
N2849 C2851 1.356 . S
N2849 H2854 0.984 . S
N2849 H2855 0.985 . S
C2850 C2844 1.379 . S
C2850 C2847 1.363 . S
C2850 N2848 1.356 1_545 S
C2851 C2845 1.363 . S
C2851 C2846 1.379 . S
C2851 N2849 1.356 . S
N2852 C2844 1.356 . S
N2852 H2858 0.984 . S
N2852 H2859 0.984 . S
N2853 C2846 1.356 . S
N2853 H2856 0.984 . S
N2853 H2857 0.985 . S
H2854 N2849 0.984 . S
H2855 N2849 0.985 . S
H2856 N2853 0.984 . S
H2857 N2853 0.985 . S
H2858 N2852 0.984 . S
H2859 N2852 0.984 . S
H2860 N2848 0.984 . S
H2861 N2848 0.985 . S
C1567 C10 1.396 . S
C1569 C963 1.277 . S
C1585 C23 1.646 . S
C1587 C1043 1.588 . S
C1605 C1111 1.419 . S
C1603 C29 1.478 . S
C1621 C30 1.827 . S
C1623 C1191 1.777 . S
C1639 C5 1.634 . S
C1641 C1265 1.593 . S
C1657 C18 1.674 1_556 S
C1659 C1333 1.579 . S
C1675 C49 1.243 1_556 S
C1677 C1259 1.196 . S
C1695 C1339 1.502 . S
C1693 C62 1.507 . S
C1713 C1185 1.369 . S
C1711 C70 1.385 1_556 S
C1729 C75 1.759 . S
C1731 C1117 1.742 1_545 S
C1749 C969 1.535 . S
C1747 C44 1.537 . S
C1765 C57 1.479 . S
C1767 C1037 1.459 . S
C1783 C88 1.524 . S
C1785 C1407 1.391 . S
C1801 C101 1.683 . S
C1803 C1487 1.617 . S
C1821 C1555 1.527 . S
C1819 C107 1.620 . S
C1837 C108 1.942 . S
C1839 C303 1.861 . S
C1855 C83 1.749 . S
C1857 C377 1.678 . S
C1873 C96 1.695 . S
C1875 C445 1.597 . S
C1891 C127 1.266 . S
C1893 C371 1.217 . S
C1909 C140 1.528 . S
C1911 C451 1.521 . S
C1929 C297 1.405 . S
C1927 C146 1.421 . S
C1947 C1561 1.813 . S
C1945 C147 1.836 . S
C1965 C1413 1.575 . S
C1963 C122 1.585 . S
C1983 C1481 1.490 . S
C1981 C135 1.509 . S
C1999 C160 1.476 . S
C2001 C519 1.347 . S
C2017 C173 1.680 . S
C2019 C599 1.614 . S
C2035 C185 1.617 . S
C2037 C667 1.525 . S
C2053 C186 1.979 . S
C2055 C747 1.896 . S
C2073 C821 1.681 . S
C2071 C159 1.753 . S
C2091 C889 1.622 . S
C2089 C172 1.721 . S
C2109 C815 1.260 . S
C2107 C205 1.311 . S
C2127 C895 1.521 . S
C2125 C218 1.529 . S
C2143 C224 1.416 . S
C2145 C741 1.400 . S
C2163 C673 1.779 . S
C2161 C225 1.800 . S
C2179 C200 1.587 . S
C2181 C525 1.577 . S
C2199 C593 1.469 . S
C2197 C213 1.486 . S
C2217 C273 1.863 . S
C2215 C4 1.917 . S
C2233 C17 1.476 . S
C2235 C347 1.458 . S
C2253 C433 1.486 . S
C2251 C31 1.492 . S
C2271 C507 1.308 . S
C2269 C36 1.346 . S
C2289 C569 1.578 . S
C2287 C3 1.600 . S
C2307 C655 1.539 . S
C2305 C16 1.547 . S
C2323 C43 2.063 1_556 S
C2325 C643 1.951 . S
C2341 C56 1.657 . S
C2343 C495 1.571 . S
C2359 C68 1.696 . S
C2361 C581 1.648 . S
C2377 C69 1.587 . S
C2379 C359 1.498 . S
C2397 C421 1.694 . S
C2395 C42 1.784 . S
C2413 C55 1.752 . S
C2415 C285 1.698 . S
C2433 C717 1.851 . S
C2431 C82 1.904 . S
C2449 C95 1.536 1_545 S
C2451 C791 1.518 . S
C2467 C109 1.517 1_655 S
C2469 C877 1.505 . S
C2487 C951 1.253 . S
C2485 C114 1.283 . S
C2503 C81 1.581 . S
C2505 C1013 1.560 . S
C2521 C94 1.505 . S
C2523 C1099 1.500 . S
C2539 C121 1.925 . S
C2541 C1087 1.832 1_565 S
C2557 C134 1.547 . S
C2559 C939 1.490 1_455 S
C2577 C1025 1.619 . S
C2575 C148 1.668 . S
C2593 C153 1.594 . S
C2595 C803 1.497 . S
C2611 C120 1.801 . S
C2613 C865 1.712 . S
C2631 C729 1.728 . S
C2629 C133 1.786 1_655 S
C2649 C1161 1.796 . S
C2647 C166 1.846 . S
C2665 C179 1.435 . S
C2667 C1235 1.420 . S
C2683 C187 1.480 . S
C2685 C1321 1.471 . S
C2703 C1395 1.315 . S
C2701 C192 1.356 . S
C2721 C1457 1.602 . S
C2719 C161 1.623 . S
C2737 C174 1.586 1_455 S
C2739 C1543 1.575 . S
C2755 C199 2.050 . S
C2757 C1531 1.934 . S
C2773 C212 1.713 1_565 S
C2775 C1383 1.626 . S
C2793 C1469 1.657 . S
C2791 C226 1.712 1_455 S
C2811 C1247 1.368 . S
C2809 C231 1.435 . S
C2829 C1309 1.668 . S
C2827 C198 1.753 . S
C2845 C211 1.614 . S
C2847 C1173 1.584 . S
