# Generated by pormake.
# Topology zzz, (3,6)-cn, num edge types: 1
# Building blocks:
#     Node 0, Type 0, BuildingBlock: ESEHIV_clean_linker_0, # of connection points: 3
#     Node 1, Type 0, BuildingBlock: ESEHIV_clean_linker_0, # of connection points: 3
#     Node 2, Type 0, BuildingBlock: ESEHIV_clean_linker_0, # of connection points: 3
#     Node 3, Type 0, BuildingBlock: ESEHIV_clean_linker_0, # of connection points: 3
#     Node 4, Type 0, BuildingBlock: ESEHIV_clean_linker_0, # of connection points: 3
#     Node 5, Type 0, BuildingBlock: ESEHIV_clean_linker_0, # of connection points: 3
#     Node 6, Type 0, BuildingBlock: ESEHIV_clean_linker_0, # of connection points: 3
#     Node 7, Type 0, BuildingBlock: ESEHIV_clean_linker_0, # of connection points: 3
#     Node 8, Type 1, BuildingBlock: JUFBIX_clean_sbu_0, # of connection points: 6
#     Node 9, Type 1, BuildingBlock: JUFBIX_clean_sbu_0, # of connection points: 6
#     Node 10, Type 1, BuildingBlock: JUFBIX_clean_sbu_0, # of connection points: 6
#     Node 11, Type 1, BuildingBlock: JUFBIX_clean_sbu_0, # of connection points: 6
#     Edge 12, Type (0, 1), BuildingBlock: OJICUG_clean_linker_0, # of connection points: 2
#     Edge 13, Type (0, 1), BuildingBlock: OJICUG_clean_linker_0, # of connection points: 2
#     Edge 14, Type (0, 1), BuildingBlock: OJICUG_clean_linker_0, # of connection points: 2
#     Edge 15, Type (0, 1), BuildingBlock: OJICUG_clean_linker_0, # of connection points: 2
#     Edge 16, Type (0, 1), BuildingBlock: OJICUG_clean_linker_0, # of connection points: 2
#     Edge 17, Type (0, 1), BuildingBlock: OJICUG_clean_linker_0, # of connection points: 2
#     Edge 18, Type (0, 1), BuildingBlock: OJICUG_clean_linker_0, # of connection points: 2
#     Edge 19, Type (0, 1), BuildingBlock: OJICUG_clean_linker_0, # of connection points: 2
#     Edge 20, Type (0, 1), BuildingBlock: OJICUG_clean_linker_0, # of connection points: 2
#     Edge 21, Type (0, 1), BuildingBlock: OJICUG_clean_linker_0, # of connection points: 2
#     Edge 22, Type (0, 1), BuildingBlock: OJICUG_clean_linker_0, # of connection points: 2
#     Edge 23, Type (0, 1), BuildingBlock: OJICUG_clean_linker_0, # of connection points: 2
#     Edge 24, Type (0, 1), BuildingBlock: OJICUG_clean_linker_0, # of connection points: 2
#     Edge 25, Type (0, 1), BuildingBlock: OJICUG_clean_linker_0, # of connection points: 2
#     Edge 26, Type (0, 1), BuildingBlock: OJICUG_clean_linker_0, # of connection points: 2
#     Edge 27, Type (0, 1), BuildingBlock: OJICUG_clean_linker_0, # of connection points: 2
#     Edge 28, Type (0, 1), BuildingBlock: OJICUG_clean_linker_0, # of connection points: 2
#     Edge 29, Type (0, 1), BuildingBlock: OJICUG_clean_linker_0, # of connection points: 2
#     Edge 30, Type (0, 1), BuildingBlock: OJICUG_clean_linker_0, # of connection points: 2
#     Edge 31, Type (0, 1), BuildingBlock: OJICUG_clean_linker_0, # of connection points: 2
#     Edge 32, Type (0, 1), BuildingBlock: OJICUG_clean_linker_0, # of connection points: 2
#     Edge 33, Type (0, 1), BuildingBlock: OJICUG_clean_linker_0, # of connection points: 2
#     Edge 34, Type (0, 1), BuildingBlock: OJICUG_clean_linker_0, # of connection points: 2
#     Edge 35, Type (0, 1), BuildingBlock: OJICUG_clean_linker_0, # of connection points: 2
# Relax obj value: 0.268
# Max RMSD: 0.231
# Mean RMSD: 0.186
data_MOF--net-zzz--node1-JUFBIX_clean_sbu_0--node2-ESEHIV_clean_linker_0--edge1-OJICUG_clean_linker_0
_symmetry_space_group_name_H-M    P1
_symmetry_Int_Tables_number       1
_symmetry_cell_setting            triclinic
loop_
_symmetry_equiv_pos_as_xyz
'x, y, z'
_cell_length_a     32.232326
_cell_length_b     32.222526
_cell_length_c     13.227819
_cell_angle_alpha  78.336592
_cell_angle_beta   90.802359
_cell_angle_gamma 93.544679
loop_
_atom_site_label
_atom_site_type_symbol
_atom_site_fract_x
_atom_site_fract_y
_atom_site_fract_z
_atom_type_partial_charge
H0 H 0.9172 0.4405 0.41088 0.0
H1 H 0.84587 0.45639 0.1311 0.0
H2 H 0.80249 0.50365 0.3902 0.0
C3 C 0.88932 0.45055 0.36833 0.0
C4 C 0.86036 0.47196 0.41354 0.0
C5 C 0.88528 0.44593 0.26582 0.0
C6 C 0.84919 0.45908 0.21124 0.0
C7 C 0.81856 0.47889 0.25581 0.0
C8 C 0.8246 0.48622 0.35707 0.0
H9 H 0.07242 0.84088 0.34756 0.0
H10 H 0.09545 0.75139 0.15725 0.0
H11 H 1.01226 0.71626 0.41603 0.0
C12 C 0.06978 0.80893 0.33281 0.0
C13 C 0.04423 0.77836 0.39772 0.0
C14 C 0.08668 0.80039 0.24264 0.0
C15 C 0.08202 0.75876 0.22574 0.0
C16 C 0.05445 0.72852 0.28583 0.0
C17 C 0.03511 0.73852 0.37199 0.0
H18 H 0.71808 0.03698 0.24064 0.0
H19 H 0.80671 0.04612 -0.00287 0.0
H20 H 0.83956 0.99154 0.31128 0.0
C21 C 0.74949 0.03425 0.21533 0.0
C22 C 0.77802 0.01543 0.28828 0.0
C23 C 0.75888 0.04452 0.11022 0.0
C24 C 0.79894 0.03809 0.07851 0.0
C25 C 0.82854 0.01937 0.15005 0.0
C26 C 0.81786 1.00769 0.25588 0.0
H27 H 0.53464 0.64337 0.30897 0.0
H28 H 0.54975 0.77464 0.33177 0.0
H29 H 0.52876 0.73948 0.03485 0.0
C30 C 0.53563 0.67678 0.27222 0.0
C31 C 0.53118 0.68804 0.16577 0.0
C32 C 0.5424 0.7074 0.3324 0.0
C33 C 0.54391 0.75084 0.28519 0.0
C34 C 0.53915 0.76301 0.17658 0.0
C35 C 0.53222 0.73104 0.11797 0.0
H36 H 0.16576 0.57492 0.21212 0.0
H37 H 0.23708 0.55906 0.49192 0.0
H38 H 0.28046 0.51175 0.23289 0.0
C39 C 0.19364 0.56487 0.25469 0.0
C40 C 0.2226 0.54345 0.2095 0.0
C41 C 0.19767 0.5695 0.35719 0.0
C42 C 0.23376 0.55635 0.41179 0.0
C43 C 0.26439 0.53653 0.36725 0.0
C44 C 0.25835 0.52919 0.266 0.0
H45 H 1.01012 0.17468 0.27513 0.0
H46 H 0.98722 0.26415 0.46558 0.0
H47 H 0.07045 0.29922 0.20684 0.0
C48 C 1.0128 0.20661 0.28993 0.0
C49 C 0.03838 0.23716 0.22506 0.0
C50 C 0.99593 0.21515 0.38013 0.0
C51 C 1.00064 0.25677 0.39708 0.0
C52 C 0.02825 0.28699 0.33704 0.0
C53 C 0.04757 0.27698 0.25085 0.0
H54 H 0.36445 0.97841 0.38226 0.0
H55 H 0.27582 0.96931 0.62576 0.0
H56 H 0.24298 0.02386 0.31159 0.0
C57 C 0.33304 0.98115 0.40757 0.0
C58 C 0.30451 0.99995 0.3346 0.0
C59 C 0.32365 0.97089 0.51268 0.0
C60 C 0.28359 0.97733 0.54438 0.0
C61 C 0.254 0.99605 0.47282 0.0
C62 C 0.26468 0.00771 0.36699 0.0
H63 H 0.54826 0.37207 0.31443 0.0
H64 H 0.53303 0.24082 0.29146 0.0
H65 H 0.55401 0.27591 0.58848 0.0
C66 C 0.54724 0.33865 0.35114 0.0
C67 C 0.55166 0.32737 0.4576 0.0
C68 C 0.54045 0.30805 0.29092 0.0
C69 C 0.53889 0.26461 0.33808 0.0
C70 C 0.54362 0.25241 0.44669 0.0
C71 C 0.55058 0.28436 0.50535 0.0
Co72 Co 0.05848 0.02941 0.8543 0.0
C73 C 0.97999 1.00274 0.93603 0.0
Co74 Co 0.02404 0.9861 0.76841 0.0
C75 C 0.06826 0.10341 0.94298 0.0
C76 C 0.12633 0.07506 0.93962 0.0
N77 N 0.08574 0.07027 0.91596 0.0
N78 N 0.09612 0.12888 0.98263 0.0
C79 C 0.13279 0.11095 0.98108 0.0
H80 H 0.03533 0.10817 0.93539 0.0
H81 H 0.14969 0.0539 0.92731 0.0
C82 C 0.10253 0.01277 0.68668 0.0
N83 N 0.99678 0.94524 0.70675 0.0
C84 C 1.01427 0.9121 0.67974 0.0
C85 C 0.95619 0.94045 0.68306 0.0
N86 N 0.98641 0.88663 0.64008 0.0
C87 C 0.94975 0.90455 0.6416 0.0
C88 C 1.00769 0.06752 0.69051 0.0
O89 O 0.10392 0.03298 0.76018 0.0
O90 O 0.06975 0.99015 0.67485 0.0
O91 O 0.99872 0.03021 0.67605 0.0
O92 O 0.03295 0.0729 0.76196 0.0
O93 O 0.9786 0.98253 0.86253 0.0
H94 H 0.93283 0.9616 0.69535 0.0
H95 H 0.0472 0.90734 0.68735 0.0
O96 O 1.01277 0.02536 0.94786 0.0
O97 O 0.08379 0.9853 0.94665 0.0
O98 O 0.04957 0.94261 0.86076 0.0
C99 C 0.07483 0.948 0.93221 0.0
H100 H 0.16219 0.1228 0.00794 0.0
H101 H 0.92035 0.8927 0.61472 0.0
Co102 Co 0.52404 0.01937 0.87112 0.0
C103 C 0.54376 0.93583 0.93664 0.0
Co104 Co 0.5585 0.99599 0.75182 0.0
C105 C 0.45207 0.0222 -0.00341 0.0
C106 C 0.49359 0.07691 0.99151 0.0
N107 N 0.48969 0.03951 0.96076 0.0
N108 N 0.43184 0.04742 0.04745 0.0
C109 C 0.45838 0.08178 0.04494 0.0
H110 H 0.43944 0.99203 0.98256 0.0
H111 H 0.51979 0.09978 0.97352 0.0
C112 C 0.53879 0.07953 0.68632 0.0
N113 N 0.59285 0.97585 0.66217 0.0
C114 C 0.63046 0.99316 0.62632 0.0
C115 C 0.58895 0.93844 0.63144 0.0
N116 N 0.65069 0.96794 0.57546 0.0
C117 C 0.62416 0.93358 0.578 0.0
C118 C 0.47544 0.98091 0.73306 0.0
O119 O 0.52258 0.07247 0.7759 0.0
O120 O 0.55676 0.04976 0.65748 0.0
O121 O 0.50942 0.97561 0.6908 0.0
O122 O 0.4763 0.99922 0.80929 0.0
O123 O 0.55996 0.94288 0.84704 0.0
H124 H 0.56275 0.91557 0.64945 0.0
H125 H 0.64309 0.02334 0.64033 0.0
O126 O 0.52579 0.9656 0.96547 0.0
O127 O 0.57311 0.03975 0.93214 0.0
O128 O 0.60624 0.01614 0.81364 0.0
C129 C 0.6071 0.03446 0.88987 0.0
H130 H 0.45305 0.10882 0.07884 0.0
H131 H 0.62948 0.90653 0.54411 0.0
Co132 Co 0.57564 0.50954 0.82411 0.0
C133 C 0.53441 0.43777 0.94299 0.0
Co134 Co 0.50724 0.5059 0.79915 0.0
C135 C 0.64975 0.50723 0.95227 0.0
C136 C 0.66421 0.52537 0.79131 0.0
N137 N 0.63212 0.51374 0.85707 0.0
N138 N 0.69157 0.5146 0.94861 0.0
C139 C 0.70062 0.52593 0.84702 0.0
H140 H 0.63203 0.4979 0.02298 0.0
H141 H 0.6613 0.53307 0.70814 0.0
C142 C 0.54847 0.57769 0.68029 0.0
N143 N 0.45076 0.50171 0.76618 0.0
C144 C 0.43315 0.50821 0.67097 0.0
C145 C 0.41866 0.49007 0.83192 0.0
N146 N 0.39132 0.50084 0.67459 0.0
C147 C 0.38226 0.48951 0.77618 0.0
C148 C 0.52881 0.55196 0.94405 0.0
O149 O 0.5812 0.56176 0.72276 0.0
O150 O 0.51357 0.55728 0.70048 0.0
O151 O 0.49697 0.53847 0.89967 0.0
O152 O 0.56461 0.54133 0.92403 0.0
O153 O 0.50168 0.45369 0.9005 0.0
H154 H 0.42156 0.48238 0.91508 0.0
H155 H 0.45087 0.51754 0.60027 0.0
O156 O 0.56931 0.45817 0.92278 0.0
O157 O 0.58591 0.47697 0.72359 0.0
O158 O 0.51827 0.47412 0.69925 0.0
C159 C 0.55407 0.46348 0.67923 0.0
H160 H 0.73148 0.53346 0.81468 0.0
H161 H 0.3514 0.48199 0.80849 0.0
Co162 Co 0.03357 0.53853 0.82832 0.0
C163 C 0.11211 0.5116 0.90139 0.0
Co164 Co 0.0494 0.47688 0.7947 0.0
C165 C 0.02928 0.59143 0.9762 0.0
C166 C 0.99676 0.61772 0.83814 0.0
N167 N 1.01966 0.58501 0.88056 0.0
N168 N 1.01338 0.62673 0.99557 0.0
C169 C 0.99284 0.64344 0.90875 0.0
H170 H 0.04723 0.57017 0.03139 0.0
H171 H 0.98374 0.62249 0.76113 0.0
C172 C 0.97085 0.50381 0.72165 0.0
N173 N 0.0633 0.4304 0.74244 0.0
C174 C 0.05366 0.424 0.6468 0.0
C175 C 0.08618 0.39768 0.78484 0.0
N176 N 0.06952 0.38869 0.62741 0.0
C177 C 0.09007 0.37195 0.7142 0.0
C178 C 1.00992 0.46279 0.9736 0.0
O179 O 0.9804 0.53648 0.75944 0.0
O180 O 0.99661 0.47507 0.72903 0.0
O181 O 0.02589 0.44171 0.9144 0.0
O182 O 1.01062 0.50302 0.94849 0.0
O183 O 0.10257 0.47894 0.86358 0.0
H184 H 0.09921 0.39289 0.86184 0.0
H185 H 0.03571 0.44527 0.59163 0.0
O186 O 0.08635 0.54034 0.89401 0.0
O187 O 0.05707 0.5737 0.70862 0.0
O188 O 0.07234 0.51239 0.67453 0.0
C189 C 0.07304 0.55262 0.64942 0.0
H190 H 0.97699 0.67271 0.89619 0.0
H191 H 0.10589 0.34267 0.72674 0.0
C192 C 0.21392 0.03018 0.59085 0.0
C193 C 0.21375 1.00605 0.51337 0.0
H194 H 0.17921 0.05164 0.70498 0.0
C195 C 0.17583 0.98727 0.48624 0.0
H196 H 0.24276 0.04498 0.6133 0.0
C197 C 0.1392 0.99064 0.53986 0.0
C198 C 0.13981 0.01317 0.62095 0.0
H199 H 0.17492 0.9682 0.42747 0.0
H200 H 0.11074 0.97439 0.52012 0.0
C201 C 0.17745 0.03388 0.64356 0.0
C202 C 0.51707 0.19552 0.59411 0.0
C203 C 0.53967 0.20694 0.50141 0.0
H204 H 0.49897 0.14701 0.72393 0.0
C205 C 0.55994 0.17517 0.46589 0.0
H206 H 0.50033 0.21888 0.62283 0.0
C207 C 0.55906 0.13343 0.52429 0.0
C208 C 0.53771 0.12261 0.61913 0.0
H209 H 0.57768 0.18289 0.39493 0.0
H210 H 0.5759 0.10995 0.49638 0.0
C211 C 0.51615 0.1541 0.65207 0.0
C212 C 0.33987 0.54135 0.41788 0.0
C213 C 0.30007 0.5208 0.43358 0.0
H214 H 0.40023 0.55145 0.48273 0.0
C215 C 0.29233 0.49064 0.52501 0.0
H216 H 0.34639 0.56531 0.34889 0.0
C217 C 0.32283 0.48282 0.60163 0.0
C218 C 0.36195 0.50519 0.58945 0.0
H219 H 0.2618 0.47458 0.53937 0.0
H220 H 0.31524 0.46006 0.67189 0.0
C221 C 0.37058 0.53356 0.49497 0.0
C222 C 1.01513 0.35127 0.40691 0.0
C223 C 0.04344 0.32327 0.38297 0.0
H224 H 1.00135 0.39427 0.50403 0.0
C225 C 0.08283 0.32204 0.42979 0.0
H226 H 0.98431 0.35219 0.373 0.0
C227 C 0.09227 0.34529 0.50657 0.0
C228 C 0.06268 0.37059 0.5369 0.0
H229 H 0.10487 0.30011 0.41397 0.0
H230 H 0.12195 0.34189 0.54573 0.0
C231 C 0.02481 0.37503 0.4826 0.0
C232 C 0.86862 0.98526 0.03201 0.0
C233 C 0.86879 0.00939 0.10949 0.0
H234 H 0.90332 0.96382 0.91784 0.0
C235 C 0.9067 0.02819 0.13655 0.0
H236 H 0.83978 0.97044 0.0096 0.0
C237 C 0.94332 0.02485 0.08289 0.0
C238 C 0.94271 1.00232 0.00181 0.0
H239 H 0.9076 0.04727 0.19532 0.0
H240 H 0.97178 0.04112 0.10259 0.0
C241 C 0.90508 0.98158 0.97925 0.0
C242 C 0.56563 0.81989 0.02905 0.0
C243 C 0.54305 0.80847 0.12179 0.0
H244 H 0.58365 0.86838 0.89913 0.0
C245 C 0.52273 0.84024 0.15725 0.0
H246 H 0.5824 0.79654 0.00037 0.0
C247 C 0.52356 0.88196 0.09876 0.0
C248 C 0.54489 0.89277 0.00389 0.0
H249 H 0.50501 0.83251 0.22823 0.0
H250 H 0.50668 0.90543 0.12664 0.0
C251 C 0.56648 0.86129 0.97101 0.0
C252 C 0.74307 0.47407 0.20526 0.0
C253 C 0.78287 0.49462 0.18951 0.0
H254 H 0.68269 0.46399 0.14048 0.0
C255 C 0.7906 0.52478 0.09808 0.0
H256 H 0.73656 0.45012 0.27425 0.0
C257 C 0.76008 0.5326 0.0215 0.0
C258 C 0.72096 0.51024 0.03372 0.0
H259 H 0.82112 0.54084 0.08368 0.0
H260 H 0.76766 0.55537 0.95123 0.0
C261 C 0.71234 0.48188 0.1282 0.0
C262 C 0.06768 0.66424 0.21605 0.0
C263 C 0.03933 0.6922 0.23996 0.0
H264 H 0.08155 0.62125 0.11896 0.0
C265 C 0.99994 0.69336 0.19314 0.0
H266 H 0.0985 0.66338 0.24996 0.0
C267 C 0.99054 0.67009 0.11638 0.0
C268 C 1.02018 0.64484 0.08607 0.0
H269 H 0.97786 0.71526 0.20894 0.0
H270 H 0.96086 0.67344 0.07721 0.0
C271 C 0.05805 0.64046 0.14038 0.0
C272 C 0.96984 0.13921 0.44951 0.0
C273 C 0.98496 0.17911 0.46745 0.0
H274 H 0.96557 0.07181 0.50637 0.0
C275 C 0.99867 0.18183 0.5676 0.0
H276 H 0.95774 0.13595 0.37456 0.0
C277 C 1.00225 0.14539 0.64303 0.0
C278 C 0.99279 0.10521 0.62022 0.0
H279 H 1.01081 0.21147 0.58604 0.0
H280 H 1.01572 0.14871 0.71674 0.0
C281 C 0.9741 0.10242 0.52513 0.0
C282 C 0.39303 0.94109 0.56394 0.0
C283 C 0.35845 0.96221 0.58749 0.0
H284 H 0.45791 0.93134 0.58967 0.0
C285 C 0.36127 0.98286 0.67134 0.0
H286 H 0.39153 0.92376 0.50172 0.0
C287 C 0.39886 0.98626 0.72289 0.0
C288 C 0.43467 0.9697 0.69076 0.0
H289 H 0.33561 0.99969 0.69185 0.0
H290 H 0.40038 1.00461 0.78319 0.0
C291 C 0.43106 0.9454 0.61403 0.0
C292 C 0.58669 0.3677 0.5823 0.0
C293 C 0.55323 0.36157 0.51685 0.0
H294 H 0.61405 0.40626 0.68351 0.0
C295 C 0.52188 0.39055 0.50068 0.0
H296 H 0.61141 0.34592 0.59463 0.0
C297 C 0.52355 0.42488 0.54965 0.0
C298 C 0.55669 0.43112 0.61587 0.0
H299 H 0.49583 0.38646 0.45017 0.0
H300 H 0.49839 0.44616 0.53704 0.0
C301 C 0.58855 0.40253 0.63123 0.0
C302 C 0.12174 0.56002 0.39591 0.0
C303 C 0.16095 0.57921 0.4132 0.0
H304 H 0.06187 0.53771 0.45862 0.0
C305 C 0.16563 0.60033 0.49639 0.0
H306 H 0.11674 0.54315 0.33343 0.0
C307 C 0.13358 0.59723 0.56838 0.0
C308 C 0.09676 0.57297 0.55752 0.0
H309 H 0.19515 0.61609 0.51065 0.0
H310 H 0.13945 0.6095 0.63805 0.0
C311 C 0.09002 0.55687 0.46768 0.0
C312 C 0.08387 0.83369 0.05519 0.0
C313 C 0.09762 0.83643 0.1553 0.0
H314 H 0.06678 0.86679 0.90607 0.0
C315 C 0.11273 0.87634 0.17319 0.0
H316 H 0.07174 0.80404 0.03681 0.0
C317 C 0.10844 0.91312 0.09756 0.0
C318 C 0.08973 0.91031 0.0025 0.0
H319 H 0.12484 0.87961 0.24813 0.0
H320 H 0.11697 0.94374 0.11628 0.0
C321 C 0.08027 0.87012 0.97974 0.0
C322 C 0.6895 0.0743 0.05896 0.0
C323 C 0.72408 0.0532 0.03541 0.0
H324 H 0.62461 0.08403 0.03325 0.0
C325 C 0.72127 0.03254 0.95155 0.0
H326 H 0.69099 0.09163 0.12119 0.0
C327 C 0.68368 0.02913 0.90002 0.0
C328 C 0.64787 0.04568 0.93216 0.0
H329 H 0.74693 0.01572 0.93104 0.0
H330 H 0.68216 0.01078 0.83972 0.0
C331 C 0.65146 0.06998 0.00888 0.0
C332 C 0.56094 0.62482 0.1228 0.0
C333 C 0.52962 0.65383 0.10654 0.0
H334 H 0.58442 0.5692 0.08645 0.0
C335 C 0.49618 0.64773 0.04098 0.0
H336 H 0.58698 0.62888 0.17338 0.0
C337 C 0.49433 0.61291 0.99201 0.0
C338 C 0.52617 0.5843 0.00744 0.0
H339 H 0.47148 0.66953 0.02859 0.0
H340 H 0.46886 0.60921 0.93965 0.0
C341 C 0.55928 0.59051 0.07379 0.0
C342 C 0.91732 0.4151 0.12661 0.0
C343 C 0.92201 0.43623 0.2098 0.0
H344 H 0.94349 0.40592 0.98498 0.0
C345 C 0.96122 0.45541 0.22708 0.0
H346 H 0.88779 0.39935 0.11236 0.0
C347 C 0.99294 0.45855 0.15532 0.0
C348 C 0.98619 0.44244 0.06549 0.0
H349 H 0.96623 0.47228 0.28957 0.0
H350 H 1.02109 0.4777 0.16437 0.0
C351 C 0.94937 0.41819 0.05464 0.0
C352 C 0.0985 0.20469 0.16403 0.0
C353 C 0.06006 0.22276 0.14219 0.0
H354 H 0.14012 0.16006 0.1308 0.0
C355 C 0.03715 0.21482 0.05656 0.0
H356 H 0.11614 0.20961 0.23139 0.0
C357 C 0.0507 0.18639 -0.00107 0.0
C358 C 0.08708 0.16477 0.02706 0.0
H359 H 1.00707 0.22791 0.0395 0.0
H360 H 0.03136 0.17953 0.93611 0.0
C361 C 0.11196 0.17595 0.10686 0.0
C362 C 0.33627 0.98721 0.17547 0.0
C363 C 0.32163 0.0165 0.22996 0.0
H364 H 0.38281 0.97335 0.07685 0.0
C365 C 0.3387 0.05845 0.20744 0.0
H366 H 0.32417 0.95442 0.19288 0.0
C367 C 0.37316 0.06946 0.14183 0.0
C368 C 0.39145 0.03865 0.09756 0.0
H369 H 0.32851 0.0815 0.24965 0.0
H370 H 0.38686 0.10148 0.13176 0.0
C371 C 0.37077 0.99806 0.1103 0.0
C372 C 0.57055 0.33945 0.1211 0.0
C373 C 0.5347 0.32488 0.17962 0.0
H374 H 0.59863 0.3871 0.00143 0.0
C375 C 0.49686 0.34294 0.14726 0.0
H376 H 0.60025 0.32681 0.14583 0.0
C377 C 0.4959 0.37816 0.06537 0.0
C378 C 0.53289 0.39598 0.01533 0.0
H379 H 0.469 0.33301 0.19287 0.0
H380 H 0.46694 0.39341 0.04713 0.0
C381 C 0.56972 0.37477 0.04014 0.0
C382 C 0.1998 0.56472 0.0275 0.0
C383 C 0.21005 0.53197 0.10971 0.0
H384 H 0.16028 0.5837 0.89705 0.0
C385 C 0.1945 0.49026 0.10857 0.0
H386 H 0.21086 0.5972 0.0272 0.0
C387 C 0.16543 0.4824 0.03329 0.0
C388 C 0.15126 0.51629 0.95929 0.0
H389 H 0.20118 0.46458 0.17212 0.0
H390 H 0.15103 0.45071 0.03952 0.0
C391 C 0.17041 0.55704 0.95377 0.0
C392 C 0.04542 0.80069 0.5662 0.0
C393 C 0.02252 0.79276 0.48055 0.0
H394 H 0.05118 0.83598 0.68665 0.0
C395 C 0.98408 0.81082 0.45867 0.0
H396 H 0.07549 0.78761 0.58328 0.0
C397 C 0.9706 0.83955 0.51583 0.0
C398 C 0.99547 0.85074 0.59566 0.0
H399 H 0.96645 0.80589 0.3913 0.0
H400 H 0.94245 0.85544 0.49187 0.0
C401 C 0.03185 0.82912 0.62382 0.0
C402 C 0.7438 0.95694 0.41531 0.0
C403 C 0.7609 0.99888 0.39292 0.0
H404 H 0.69562 0.91391 0.49088 0.0
C405 C 0.74628 0.02814 0.44752 0.0
H406 H 0.75397 0.93391 0.37301 0.0
C407 C 0.71178 0.01728 0.51269 0.0
C408 C 0.69108 0.97671 0.52532 0.0
H409 H 0.75841 0.06092 0.43021 0.0
H410 H 0.69977 0.04198 0.54626 0.0
C411 C 0.70934 0.94591 0.48092 0.0
C412 C 0.51231 0.67602 0.50224 0.0
C413 C 0.54816 0.69059 0.4437 0.0
H414 H 0.48424 0.62835 0.62189 0.0
C415 C 0.586 0.67253 0.47605 0.0
H416 H 0.48261 0.68865 0.47753 0.0
C417 C 0.58697 0.63731 0.55792 0.0
C418 C 0.54999 0.61948 0.60796 0.0
H419 H 0.61386 0.68247 0.43044 0.0
H420 H 0.61593 0.62206 0.57615 0.0
C421 C 0.51315 0.64069 0.58319 0.0
C422 C 0.88846 0.52514 0.51447 0.0
C423 C 0.87291 0.48342 0.51335 0.0
H424 H 0.93192 0.5647 0.58348 0.0
C425 C 0.88316 0.45068 0.59556 0.0
H426 H 0.88177 0.55081 0.4509 0.0
C427 C 0.91256 0.45836 0.66928 0.0
C428 C 0.9317 0.49912 0.66375 0.0
H429 H 0.87211 0.4182 0.59588 0.0
H430 H 0.92269 0.43171 0.72602 0.0
C431 C 0.91753 0.533 0.58974 0.0
loop_
_geom_bond_atom_site_label_1
_geom_bond_atom_site_label_2
_geom_bond_distance
_geom_bond_site_symmetry_2
_ccdc_geom_bond_type
H0 C3 0.931 . S
H1 C6 0.928 . S
H2 C8 0.930 . S
C3 H0 0.931 . S
C3 C4 1.413 . S
C3 C5 1.360 . S
C4 C3 1.413 . S
C4 C8 1.429 . S
C5 C3 1.360 . S
C5 C6 1.372 . S
C6 H1 0.928 . S
C6 C5 1.372 . S
C6 C7 1.404 . S
C7 C6 1.404 . S
C7 C8 1.391 . S
C8 H2 0.930 . S
C8 C4 1.429 . S
C8 C7 1.391 . S
H9 C12 0.931 . S
H10 C15 0.928 . S
H11 C17 0.930 . S
C12 H9 0.931 . S
C12 C13 1.413 . S
C12 C14 1.363 . S
C13 C12 1.413 . S
C13 C17 1.429 . S
C14 C12 1.363 . S
C14 C15 1.370 1_554 S
C15 H10 0.928 . S
C15 C14 1.370 1_556 S
C15 C16 1.404 1_556 S
C16 C15 1.404 1_554 S
C16 C17 1.391 . S
C17 H11 0.930 . S
C17 C13 1.429 . S
C17 C16 1.391 . S
H18 C21 0.931 . S
H19 C24 0.928 . S
H20 C26 0.930 . S
C21 H18 0.931 . S
C21 C22 1.413 . S
C21 C23 1.360 1_554 S
C22 C21 1.413 . S
C22 C26 1.430 1_565 S
C23 C21 1.360 1_556 S
C23 C24 1.375 . S
C24 H19 0.928 . S
C24 C23 1.375 . S
C24 C25 1.406 1_556 S
C25 C24 1.406 1_554 S
C25 C26 1.387 1_565 S
C26 H20 0.930 . S
C26 C22 1.430 1_545 S
C26 C25 1.387 1_545 S
H27 C30 0.931 . S
H28 C33 0.928 . S
H29 C35 0.930 1_556 S
C30 H27 0.931 . S
C30 C31 1.413 . S
C30 C32 1.360 . S
C31 C30 1.413 . S
C31 C35 1.429 . S
C32 C30 1.360 . S
C32 C33 1.372 . S
C33 H28 0.928 . S
C33 C32 1.372 . S
C33 C34 1.404 . S
C34 C33 1.404 . S
C34 C35 1.391 . S
C35 H29 0.930 1_554 S
C35 C31 1.429 . S
C35 C34 1.391 . S
H36 C39 0.931 . S
H37 C42 0.928 . S
H38 C44 0.930 . S
C39 H36 0.931 . S
C39 C40 1.413 . S
C39 C41 1.360 . S
C40 C39 1.413 . S
C40 C44 1.429 . S
C41 C39 1.360 . S
C41 C42 1.372 . S
C42 H37 0.928 . S
C42 C41 1.372 . S
C42 C43 1.404 . S
C43 C42 1.404 . S
C43 C44 1.391 . S
C44 H38 0.930 . S
C44 C40 1.429 . S
C44 C43 1.391 . S
H45 C48 0.931 . S
H46 C51 0.928 . S
H47 C53 0.930 . S
C48 H45 0.931 . S
C48 C49 1.413 . S
C48 C50 1.360 . S
C49 C48 1.413 . S
C49 C53 1.429 . S
C50 C48 1.360 . S
C50 C51 1.372 . S
C51 H46 0.928 . S
C51 C50 1.372 . S
C51 C52 1.404 . S
C52 C51 1.404 . S
C52 C53 1.391 . S
C53 H47 0.930 . S
C53 C49 1.429 . S
C53 C52 1.391 . S
H54 C57 0.930 . S
H55 C60 0.928 . S
H56 C62 0.930 . S
C57 H54 0.930 . S
C57 C58 1.414 . S
C57 C59 1.360 . S
C58 C57 1.414 . S
C58 C62 1.428 1_565 S
C59 C57 1.360 . S
C59 C60 1.371 . S
C60 H55 0.928 . S
C60 C59 1.371 . S
C60 C61 1.403 . S
C61 C60 1.403 . S
C61 C62 1.394 1_565 S
C62 H56 0.930 . S
C62 C58 1.428 1_545 S
C62 C61 1.394 1_545 S
H63 C66 0.931 . S
H64 C69 0.928 . S
H65 C71 0.930 . S
C66 H63 0.931 . S
C66 C67 1.413 . S
C66 C68 1.360 . S
C67 C66 1.413 . S
C67 C71 1.429 . S
C68 C66 1.360 . S
C68 C69 1.372 . S
C69 H64 0.928 . S
C69 C68 1.372 . S
C69 C70 1.404 . S
C70 C69 1.404 . S
C70 C71 1.391 . S
C71 H65 0.930 . S
C71 C67 1.429 . S
C71 C70 1.391 . S
Co72 N77 2.057 1_556 S
Co72 O89 2.021 1_545 S
Co72 O92 2.062 . S
Co72 O96 2.117 1_455 S
Co72 O97 2.020 1_545 S
C73 O93 1.259 . S
C73 O96 1.258 . S
Co74 N83 2.057 1_455 S
Co74 O90 2.117 . S
Co74 O91 2.020 1_565 S
Co74 O93 2.021 1_465 S
Co74 O98 2.062 1_455 S
C75 N77 1.316 . S
C75 N78 1.347 . S
C75 H80 0.931 . S
C76 N77 1.375 . S
C76 C79 1.350 . S
C76 H81 0.930 1_455 S
N77 Co72 2.057 1_554 S
N77 C75 1.316 . S
N77 C76 1.375 . S
N78 C75 1.347 . S
N78 C79 1.373 . S
C79 C76 1.350 . S
C79 N78 1.373 . S
C79 H100 0.931 . S
H80 C75 0.931 . S
H81 C76 0.930 1_655 S
C82 O89 1.259 . S
C82 O90 1.258 . S
N83 Co74 2.057 1_655 S
N83 C84 1.316 . S
N83 C85 1.375 1_655 S
C84 N83 1.316 . S
C84 N86 1.347 . S
C84 H95 0.931 . S
C85 N83 1.375 1_455 S
C85 C87 1.350 . S
C85 H94 0.930 . S
N86 C84 1.347 . S
N86 C87 1.373 1_655 S
C87 C85 1.350 . S
C87 N86 1.373 1_455 S
C87 H101 0.931 . S
C88 O91 1.256 . S
C88 O92 1.255 . S
O89 Co72 2.021 1_565 S
O89 C82 1.259 . S
O90 Co74 2.117 . S
O90 C82 1.258 . S
O91 Co74 2.020 1_545 S
O91 C88 1.256 . S
O92 Co72 2.062 . S
O92 C88 1.255 . S
O93 C73 1.259 . S
O93 Co74 2.021 1_645 S
H94 C85 0.930 . S
H95 C84 0.931 . S
O96 Co72 2.117 1_655 S
O96 C73 1.258 . S
O97 Co72 2.020 1_565 S
O97 C99 1.256 1_455 S
O98 Co74 2.062 1_655 S
O98 C99 1.255 . S
C99 O97 1.256 1_655 S
C99 O98 1.255 . S
H100 C79 0.931 . S
H101 C87 0.931 . S
Co102 N107 2.057 1_546 S
Co102 O119 2.021 . S
Co102 O122 2.062 1_545 S
Co102 O126 2.117 1_545 S
Co102 O127 2.020 . S
C103 O123 1.259 . S
C103 O126 1.258 . S
Co104 N113 2.057 1_565 S
Co104 O120 2.117 1_565 S
Co104 O121 2.020 . S
Co104 O123 2.021 . S
Co104 O128 2.062 1_565 S
C105 N107 1.316 1_545 S
C105 N108 1.347 . S
C105 H110 0.931 . S
C106 N107 1.375 . S
C106 C109 1.350 . S
C106 H111 0.930 . S
N107 Co102 2.057 1_564 S
N107 C105 1.316 1_565 S
N107 C106 1.375 . S
N108 C105 1.347 . S
N108 C109 1.373 1_545 S
C109 C106 1.350 . S
C109 N108 1.373 1_565 S
C109 H130 0.931 . S
H110 C105 0.931 . S
H111 C106 0.930 . S
C112 O119 1.259 . S
C112 O120 1.258 . S
N113 Co104 2.057 1_545 S
N113 C114 1.316 1_545 S
N113 C115 1.375 . S
C114 N113 1.316 1_565 S
C114 N116 1.347 . S
C114 H125 0.931 . S
C115 N113 1.375 . S
C115 C117 1.350 . S
C115 H124 0.930 . S
N116 C114 1.347 . S
N116 C117 1.373 1_565 S
C117 C115 1.350 . S
C117 N116 1.373 1_545 S
C117 H131 0.931 . S
C118 O121 1.256 . S
C118 O122 1.255 . S
O119 Co102 2.021 . S
O119 C112 1.259 . S
O120 Co104 2.117 1_545 S
O120 C112 1.258 . S
O121 Co104 2.020 . S
O121 C118 1.256 . S
O122 Co102 2.062 1_565 S
O122 C118 1.255 . S
O123 C103 1.259 . S
O123 Co104 2.021 . S
H124 C115 0.930 . S
H125 C114 0.931 . S
O126 Co102 2.117 1_565 S
O126 C103 1.258 . S
O127 Co102 2.020 . S
O127 C129 1.256 . S
O128 Co104 2.062 1_545 S
O128 C129 1.255 . S
C129 O127 1.256 . S
C129 O128 1.255 . S
H130 C109 0.931 . S
H131 C117 0.931 . S
Co132 N137 2.057 . S
Co132 O149 2.021 . S
Co132 O152 2.062 . S
Co132 O156 2.117 . S
Co132 O157 2.020 . S
C133 O153 1.259 . S
C133 O156 1.258 . S
Co134 N143 2.057 . S
Co134 O150 2.117 . S
Co134 O151 2.020 . S
Co134 O153 2.021 . S
Co134 O158 2.062 . S
C135 N137 1.316 . S
C135 N138 1.347 . S
C135 H140 0.931 . S
C136 N137 1.375 . S
C136 C139 1.350 1_556 S
C136 H141 0.930 1_556 S
N137 Co132 2.057 . S
N137 C135 1.316 . S
N137 C136 1.375 . S
N138 C135 1.347 . S
N138 C139 1.373 1_556 S
C139 C136 1.350 1_554 S
C139 N138 1.373 1_554 S
C139 H160 0.931 . S
H140 C135 0.931 . S
H141 C136 0.930 1_554 S
C142 O149 1.259 . S
C142 O150 1.258 . S
N143 Co134 2.057 . S
N143 C144 1.316 . S
N143 C145 1.375 . S
C144 N143 1.316 . S
C144 N146 1.347 . S
C144 H155 0.931 . S
C145 N143 1.375 . S
C145 C147 1.350 . S
C145 H154 0.930 . S
N146 C144 1.347 . S
N146 C147 1.373 . S
C147 C145 1.350 . S
C147 N146 1.373 . S
C147 H161 0.931 . S
C148 O151 1.256 . S
C148 O152 1.255 . S
O149 Co132 2.021 . S
O149 C142 1.259 . S
O150 Co134 2.117 . S
O150 C142 1.258 . S
O151 Co134 2.020 . S
O151 C148 1.256 . S
O152 Co132 2.062 . S
O152 C148 1.255 . S
O153 C133 1.259 . S
O153 Co134 2.021 . S
H154 C145 0.930 . S
H155 C144 0.931 . S
O156 Co132 2.117 . S
O156 C133 1.258 . S
O157 Co132 2.020 . S
O157 C159 1.256 . S
O158 Co134 2.062 . S
O158 C159 1.255 . S
C159 O157 1.256 . S
C159 O158 1.255 . S
H160 C139 0.931 . S
H161 C147 0.931 . S
Co162 N167 2.057 . S
Co162 O179 2.021 1_455 S
Co162 O182 2.062 1_455 S
Co162 O186 2.117 . S
Co162 O187 2.020 . S
C163 O183 1.259 . S
C163 O186 1.258 . S
Co164 N173 2.057 . S
Co164 O180 2.117 1_455 S
Co164 O181 2.020 1_455 S
Co164 O183 2.021 . S
Co164 O188 2.062 . S
C165 N167 1.316 1_655 S
C165 N168 1.347 . S
C165 H170 0.931 . S
C166 N167 1.375 . S
C166 C169 1.350 . S
C166 H171 0.930 . S
N167 Co162 2.057 . S
N167 C165 1.316 1_455 S
N167 C166 1.375 . S
N168 C165 1.347 . S
N168 C169 1.373 1_655 S
C169 C166 1.350 . S
C169 N168 1.373 1_455 S
C169 H190 0.931 . S
H170 C165 0.931 . S
H171 C166 0.930 . S
C172 O179 1.259 . S
C172 O180 1.258 . S
N173 Co164 2.057 . S
N173 C174 1.316 . S
N173 C175 1.375 . S
C174 N173 1.316 . S
C174 N176 1.347 . S
C174 H185 0.931 . S
C175 N173 1.375 . S
C175 C177 1.350 . S
C175 H184 0.930 1_455 S
N176 C174 1.347 . S
N176 C177 1.373 . S
C177 C175 1.350 . S
C177 N176 1.373 . S
C177 H191 0.931 . S
C178 O181 1.256 . S
C178 O182 1.255 . S
O179 Co162 2.021 1_655 S
O179 C172 1.259 . S
O180 Co164 2.117 1_655 S
O180 C172 1.258 . S
O181 Co164 2.020 1_655 S
O181 C178 1.256 . S
O182 Co162 2.062 1_655 S
O182 C178 1.255 . S
O183 C163 1.259 . S
O183 Co164 2.021 . S
H184 C175 0.930 1_655 S
H185 C174 0.931 . S
O186 Co162 2.117 . S
O186 C163 1.258 . S
O187 Co162 2.020 . S
O187 C189 1.256 . S
O188 Co164 2.062 . S
O188 C189 1.255 . S
C189 O187 1.256 . S
C189 O188 1.255 . S
H190 C169 0.931 . S
H191 C177 0.931 . S
C192 C193 1.387 1_545 S
C192 H196 0.950 . S
C192 C201 1.390 . S
C193 C192 1.387 1_565 S
C193 C195 1.387 . S
H194 C201 0.950 . S
C195 C193 1.387 . S
C195 C197 1.390 . S
C195 H199 0.950 . S
H196 C192 0.950 . S
C197 C195 1.390 . S
C197 C198 1.387 . S
C197 H200 0.950 . S
C198 C197 1.387 . S
C198 C201 1.387 1_565 S
H199 C195 0.950 . S
H200 C197 0.950 . S
C201 C192 1.390 . S
C201 H194 0.950 . S
C201 C198 1.387 1_545 S
C202 C203 1.387 . S
C202 H206 0.950 . S
C202 C211 1.390 . S
C203 C202 1.387 . S
C203 C205 1.387 . S
H204 C211 0.950 . S
C205 C203 1.387 . S
C205 C207 1.390 . S
C205 H209 0.950 . S
H206 C202 0.950 . S
C207 C205 1.390 . S
C207 C208 1.387 . S
C207 H210 0.950 . S
C208 C207 1.387 . S
C208 C211 1.387 . S
H209 C205 0.950 . S
H210 C207 0.950 . S
C211 C202 1.390 . S
C211 H204 0.950 . S
C211 C208 1.387 . S
C212 C213 1.387 . S
C212 H216 0.950 . S
C212 C221 1.390 . S
C213 C212 1.387 . S
C213 C215 1.387 . S
H214 C221 0.950 . S
C215 C213 1.387 . S
C215 C217 1.390 . S
C215 H219 0.950 . S
H216 C212 0.950 . S
C217 C215 1.390 . S
C217 C218 1.387 . S
C217 H220 0.950 . S
C218 C217 1.387 . S
C218 C221 1.387 . S
H219 C215 0.950 . S
H220 C217 0.950 . S
C221 C212 1.390 . S
C221 H214 0.950 . S
C221 C218 1.387 . S
C222 C223 1.387 . S
C222 H226 0.950 . S
C222 C231 1.390 . S
C223 C222 1.387 . S
C223 C225 1.387 . S
H224 C231 0.950 . S
C225 C223 1.387 . S
C225 C227 1.390 . S
C225 H229 0.950 . S
H226 C222 0.950 . S
C227 C225 1.390 . S
C227 C228 1.387 . S
C227 H230 0.950 . S
C228 C227 1.387 . S
C228 C231 1.387 . S
H229 C225 0.950 . S
H230 C227 0.950 . S
C231 C222 1.390 . S
C231 H224 0.950 . S
C231 C228 1.387 . S
C232 C233 1.387 1_565 S
C232 H236 0.950 . S
C232 C241 1.390 . S
C233 C232 1.387 1_545 S
C233 C235 1.387 . S
H234 C241 0.950 . S
C235 C233 1.387 . S
C235 C237 1.390 . S
C235 H239 0.950 . S
H236 C232 0.950 . S
C237 C235 1.390 . S
C237 C238 1.387 . S
C237 H240 0.950 . S
C238 C237 1.387 . S
C238 C241 1.387 1_545 S
H239 C235 0.950 . S
H240 C237 0.950 . S
C241 C232 1.390 . S
C241 H234 0.950 . S
C241 C238 1.387 1_565 S
C242 C243 1.387 1_556 S
C242 H246 0.950 . S
C242 C251 1.390 . S
C243 C242 1.387 1_554 S
C243 C245 1.387 . S
H244 C251 0.950 . S
C245 C243 1.387 . S
C245 C247 1.390 . S
C245 H249 0.950 . S
H246 C242 0.950 . S
C247 C245 1.390 . S
C247 C248 1.387 1_554 S
C247 H250 0.950 . S
C248 C247 1.387 1_556 S
C248 C251 1.387 . S
H249 C245 0.950 . S
H250 C247 0.950 . S
C251 C242 1.390 . S
C251 H244 0.950 . S
C251 C248 1.387 . S
C252 C253 1.387 . S
C252 H256 0.950 . S
C252 C261 1.390 . S
C253 C252 1.387 . S
C253 C255 1.387 . S
H254 C261 0.950 . S
C255 C253 1.387 . S
C255 C257 1.390 . S
C255 H259 0.950 . S
H256 C252 0.950 . S
C257 C255 1.390 . S
C257 C258 1.387 1_554 S
C257 H260 0.950 . S
C258 C257 1.387 1_556 S
C258 C261 1.387 1_556 S
H259 C255 0.950 . S
H260 C257 0.950 . S
C261 C252 1.390 . S
C261 H254 0.950 . S
C261 C258 1.387 1_554 S
C262 C263 1.387 1_556 S
C262 H266 0.950 . S
C262 C271 1.390 . S
C263 C262 1.387 1_554 S
C263 C265 1.387 . S
H264 C271 0.950 . S
C265 C263 1.387 . S
C265 C267 1.390 1_554 S
C265 H269 0.950 . S
H266 C262 0.950 . S
C267 C265 1.390 1_556 S
C267 C268 1.387 . S
C267 H270 0.950 1_556 S
C268 C267 1.387 . S
C268 C271 1.387 . S
H269 C265 0.950 . S
H270 C267 0.950 1_554 S
C271 C262 1.390 . S
C271 H264 0.950 . S
C271 C268 1.387 . S
C272 C273 1.387 . S
C272 H276 0.950 . S
C272 C281 1.390 . S
C273 C272 1.387 . S
C273 C275 1.387 . S
H274 C281 0.950 . S
C275 C273 1.387 . S
C275 C277 1.390 . S
C275 H279 0.950 . S
H276 C272 0.950 . S
C277 C275 1.390 . S
C277 C278 1.387 . S
C277 H280 0.950 . S
C278 C277 1.387 . S
C278 C281 1.387 . S
H279 C275 0.950 . S
H280 C277 0.950 . S
C281 C272 1.390 . S
C281 H274 0.950 . S
C281 C278 1.387 . S
C282 C283 1.387 . S
C282 H286 0.950 . S
C282 C291 1.390 . S
C283 C282 1.387 . S
C283 C285 1.383 1_565 S
H284 C291 0.950 . S
C285 C283 1.383 1_545 S
C285 C287 1.385 1_545 S
C285 H289 0.961 . S
H286 C282 0.950 . S
C287 C285 1.385 1_565 S
C287 C288 1.387 . S
C287 H290 0.950 . S
C288 C287 1.387 . S
C288 C291 1.387 . S
H289 C285 0.961 . S
H290 C287 0.950 . S
C291 C282 1.390 . S
C291 H284 0.950 . S
C291 C288 1.387 . S
C292 C293 1.387 . S
C292 H296 0.950 . S
C292 C301 1.390 . S
C293 C292 1.387 . S
C293 C295 1.387 . S
H294 C301 0.950 . S
C295 C293 1.387 . S
C295 C297 1.390 . S
C295 H299 0.950 . S
H296 C292 0.950 . S
C297 C295 1.390 . S
C297 C298 1.387 . S
C297 H300 0.950 . S
C298 C297 1.387 . S
C298 C301 1.387 . S
H299 C295 0.950 . S
H300 C297 0.950 . S
C301 C292 1.390 . S
C301 H294 0.950 . S
C301 C298 1.387 . S
C302 C303 1.387 . S
C302 H306 0.950 . S
C302 C311 1.390 . S
C303 C302 1.387 . S
C303 C305 1.387 . S
H304 C311 0.950 . S
C305 C303 1.387 . S
C305 C307 1.390 . S
C305 H309 0.950 . S
H306 C302 0.950 . S
C307 C305 1.390 . S
C307 C308 1.387 . S
C307 H310 0.950 . S
C308 C307 1.387 . S
C308 C311 1.387 . S
H309 C305 0.950 . S
H310 C307 0.950 . S
C311 C302 1.390 . S
C311 H304 0.950 . S
C311 C308 1.387 . S
C312 C313 1.387 . S
C312 H316 0.950 . S
C312 C321 1.390 . S
C313 C312 1.387 . S
C313 C315 1.387 1_556 S
H314 C321 0.950 . S
C315 C313 1.387 1_554 S
C315 C317 1.390 . S
C315 H319 0.950 . S
H316 C312 0.950 . S
C317 C315 1.390 . S
C317 C318 1.387 1_554 S
C317 H320 0.950 . S
C318 C317 1.387 1_556 S
C318 C321 1.387 . S
H319 C315 0.950 . S
H320 C317 0.950 . S
C321 C312 1.390 . S
C321 H314 0.950 . S
C321 C318 1.387 . S
C322 C323 1.407 1_554 S
C322 H326 0.950 . S
C322 C331 1.390 1_554 S
C323 C322 1.407 1_556 S
C323 C325 1.374 1_545 S
H324 C331 0.950 1_554 S
C325 C323 1.374 1_565 S
C325 C327 1.390 . S
C325 H329 0.950 . S
H326 C322 0.950 . S
C327 C325 1.390 . S
C327 C328 1.387 1_565 S
C327 H330 0.950 . S
C328 C327 1.387 1_545 S
C328 C331 1.387 . S
H329 C325 0.950 . S
H330 C327 0.950 . S
C331 C322 1.390 1_556 S
C331 H324 0.950 1_556 S
C331 C328 1.387 . S
C332 C333 1.387 . S
C332 H336 0.950 . S
C332 C341 1.390 . S
C333 C332 1.387 . S
C333 C335 1.387 1_554 S
H334 C341 0.950 . S
C335 C333 1.387 1_556 S
C335 C337 1.390 . S
C335 H339 0.950 . S
H336 C332 0.950 . S
C337 C335 1.390 . S
C337 C338 1.387 . S
C337 H340 0.950 . S
C338 C337 1.387 . S
C338 C341 1.387 1_556 S
H339 C335 0.950 . S
H340 C337 0.950 . S
C341 C332 1.390 . S
C341 H334 0.950 . S
C341 C338 1.387 1_554 S
C342 C343 1.387 . S
C342 H346 0.950 . S
C342 C351 1.390 . S
C343 C342 1.387 . S
C343 C345 1.387 . S
H344 C351 0.950 . S
C345 C343 1.387 . S
C345 C347 1.390 . S
C345 H349 0.950 . S
H346 C342 0.950 . S
C347 C345 1.390 . S
C347 C348 1.387 1_554 S
C347 H350 0.950 1_554 S
C348 C347 1.387 1_556 S
C348 C351 1.387 1_556 S
H349 C345 0.950 . S
H350 C347 0.950 1_556 S
C351 C342 1.390 . S
C351 H344 0.950 . S
C351 C348 1.387 1_554 S
C352 C353 1.387 . S
C352 H356 0.950 . S
C352 C361 1.390 . S
C353 C352 1.387 . S
C353 C355 1.387 . S
H354 C361 0.950 . S
C355 C353 1.387 . S
C355 C357 1.390 . S
C355 H359 0.950 . S
H356 C352 0.950 . S
C357 C355 1.390 . S
C357 C358 1.387 . S
C357 H360 0.950 . S
C358 C357 1.387 . S
C358 C361 1.387 . S
H359 C355 0.950 . S
H360 C357 0.950 . S
C361 C352 1.390 . S
C361 H354 0.950 . S
C361 C358 1.387 . S
C362 C363 1.387 1_565 S
C362 H366 0.950 . S
C362 C371 1.390 . S
C363 C362 1.387 1_545 S
C363 C365 1.387 . S
H364 C371 0.950 . S
C365 C363 1.387 . S
C365 C367 1.390 . S
C365 H369 0.950 . S
H366 C362 0.950 . S
C367 C365 1.390 . S
C367 C368 1.387 . S
C367 H370 0.950 . S
C368 C367 1.387 . S
C368 C371 1.387 1_545 S
H369 C365 0.950 . S
H370 C367 0.950 . S
C371 C362 1.390 . S
C371 H364 0.950 . S
C371 C368 1.387 1_565 S
C372 C373 1.387 . S
C372 H376 0.950 . S
C372 C381 1.390 . S
C373 C372 1.387 . S
C373 C375 1.387 . S
H374 C381 0.950 . S
C375 C373 1.387 . S
C375 C377 1.390 . S
C375 H379 0.950 . S
H376 C372 0.950 . S
C377 C375 1.390 . S
C377 C378 1.387 . S
C377 H380 0.950 1_554 S
C378 C377 1.387 . S
C378 C381 1.387 . S
H379 C375 0.950 . S
H380 C377 0.950 1_556 S
C381 C372 1.390 . S
C381 H374 0.950 . S
C381 C378 1.387 . S
C382 C383 1.387 . S
C382 H386 0.950 . S
C382 C391 1.390 . S
C383 C382 1.387 . S
C383 C385 1.387 . S
H384 C391 0.950 1_556 S
C385 C383 1.387 . S
C385 C387 1.390 . S
C385 H389 0.950 . S
H386 C382 0.950 . S
C387 C385 1.390 . S
C387 C388 1.387 . S
C387 H390 0.950 . S
C388 C387 1.387 . S
C388 C391 1.387 . S
H389 C385 0.950 . S
H390 C387 0.950 . S
C391 C382 1.390 . S
C391 H384 0.950 1_554 S
C391 C388 1.387 . S
C392 C393 1.387 . S
C392 H396 0.950 . S
C392 C401 1.390 . S
C393 C392 1.387 . S
C393 C395 1.387 . S
H394 C401 0.950 . S
C395 C393 1.387 . S
C395 C397 1.390 . S
C395 H399 0.950 . S
H396 C392 0.950 . S
C397 C395 1.390 . S
C397 C398 1.387 . S
C397 H400 0.950 . S
C398 C397 1.387 . S
C398 C401 1.387 . S
H399 C395 0.950 . S
H400 C397 0.950 . S
C401 C392 1.390 . S
C401 H394 0.950 . S
C401 C398 1.387 . S
C402 C403 1.387 . S
C402 H406 0.950 . S
C402 C411 1.390 . S
C403 C402 1.387 . S
C403 C405 1.387 1_565 S
H404 C411 0.950 . S
C405 C403 1.387 1_545 S
C405 C407 1.390 . S
C405 H409 0.950 . S
H406 C402 0.950 . S
C407 C405 1.390 . S
C407 C408 1.387 1_545 S
C407 H410 0.950 . S
C408 C407 1.387 1_565 S
C408 C411 1.387 . S
H409 C405 0.950 . S
H410 C407 0.950 . S
C411 C402 1.390 . S
C411 H404 0.950 . S
C411 C408 1.387 . S
C412 C413 1.387 . S
C412 H416 0.950 . S
C412 C421 1.390 . S
C413 C412 1.387 . S
C413 C415 1.387 . S
H414 C421 0.950 . S
C415 C413 1.387 . S
C415 C417 1.390 . S
C415 H419 0.950 . S
H416 C412 0.950 . S
C417 C415 1.390 . S
C417 C418 1.387 . S
C417 H420 0.950 . S
C418 C417 1.387 . S
C418 C421 1.387 . S
H419 C415 0.950 . S
H420 C417 0.950 . S
C421 C412 1.390 . S
C421 H414 0.950 . S
C421 C418 1.387 . S
C422 C423 1.387 . S
C422 H426 0.950 . S
C422 C431 1.390 . S
C423 C422 1.387 . S
C423 C425 1.387 . S
H424 C431 0.950 . S
C425 C423 1.387 . S
C425 C427 1.390 . S
C425 H429 0.950 . S
H426 C422 0.950 . S
C427 C425 1.390 . S
C427 C428 1.387 . S
C427 H430 0.950 . S
C428 C427 1.387 . S
C428 C431 1.387 . S
H429 C425 0.950 . S
H430 C427 0.950 . S
C431 C422 1.390 . S
C431 H424 0.950 . S
C431 C428 1.387 . S
C193 C61 1.678 . S
C198 C82 1.666 . S
C208 C112 1.792 . S
C203 C70 1.766 . S
C218 N146 1.356 . S
C213 C43 1.408 . S
C228 N176 1.526 . S
C223 C52 1.512 . S
C238 C73 1.668 . S
C233 C25 1.683 1_546 S
C243 C34 1.764 . S
C248 C103 1.795 . S
C253 C7 1.403 . S
C258 N138 1.352 . S
C263 C16 1.522 . S
C268 N168 1.524 . S
C278 C88 0.803 . S
C273 C50 0.773 . S
C288 C118 0.907 . S
C283 C59 0.890 . S
C298 C159 1.198 . S
C293 C67 1.181 . S
C303 C41 0.693 . S
C308 C189 0.696 . S
C313 C14 0.778 1_556 S
C318 C99 0.805 . S
C328 C129 0.909 . S
C323 C23 0.892 1_545 S
C338 C148 1.200 . S
C333 C31 1.180 . S
C343 C5 0.693 . S
C348 C178 0.696 . S
C353 C49 1.522 . S
C358 N78 1.554 . S
C363 C58 1.441 1_545 S
C368 N108 1.460 . S
C378 C133 1.717 1_554 S
C373 C68 1.667 . S
C388 C163 1.536 1_554 S
C383 C40 1.495 . S
C393 C13 1.526 . S
C398 N86 1.558 . S
C408 N116 1.459 . S
C403 C22 1.439 . S
C418 C142 1.717 . S
C413 C32 1.663 . S
C423 C4 1.493 . S
C428 C172 1.536 . S
