# Generated by pormake.
# Topology ctn, (3,4)-cn, num edge types: 1
# Building blocks:
#     Node 0, Type 0, BuildingBlock: QEWDON_clean_linker_0, # of connection points: 3
#     Node 1, Type 0, BuildingBlock: QEWDON_clean_linker_0, # of connection points: 3
#     Node 2, Type 0, BuildingBlock: QEWDON_clean_linker_0, # of connection points: 3
#     Node 3, Type 0, BuildingBlock: QEWDON_clean_linker_0, # of connection points: 3
#     Node 4, Type 0, BuildingBlock: QEWDON_clean_linker_0, # of connection points: 3
#     Node 5, Type 0, BuildingBlock: QEWDON_clean_linker_0, # of connection points: 3
#     Node 6, Type 0, BuildingBlock: QEWDON_clean_linker_0, # of connection points: 3
#     Node 7, Type 0, BuildingBlock: QEWDON_clean_linker_0, # of connection points: 3
#     Node 8, Type 0, BuildingBlock: QEWDON_clean_linker_0, # of connection points: 3
#     Node 9, Type 0, BuildingBlock: QEWDON_clean_linker_0, # of connection points: 3
#     Node 10, Type 0, BuildingBlock: QEWDON_clean_linker_0, # of connection points: 3
#     Node 11, Type 0, BuildingBlock: QEWDON_clean_linker_0, # of connection points: 3
#     Node 12, Type 0, BuildingBlock: QEWDON_clean_linker_0, # of connection points: 3
#     Node 13, Type 0, BuildingBlock: QEWDON_clean_linker_0, # of connection points: 3
#     Node 14, Type 0, BuildingBlock: QEWDON_clean_linker_0, # of connection points: 3
#     Node 15, Type 0, BuildingBlock: QEWDON_clean_linker_0, # of connection points: 3
#     Node 16, Type 1, BuildingBlock: UXUYUI_clean_sbu_0, # of connection points: 4
#     Node 17, Type 1, BuildingBlock: UXUYUI_clean_sbu_0, # of connection points: 4
#     Node 18, Type 1, BuildingBlock: UXUYUI_clean_sbu_0, # of connection points: 4
#     Node 19, Type 1, BuildingBlock: UXUYUI_clean_sbu_0, # of connection points: 4
#     Node 20, Type 1, BuildingBlock: UXUYUI_clean_sbu_0, # of connection points: 4
#     Node 21, Type 1, BuildingBlock: UXUYUI_clean_sbu_0, # of connection points: 4
#     Node 22, Type 1, BuildingBlock: UXUYUI_clean_sbu_0, # of connection points: 4
#     Node 23, Type 1, BuildingBlock: UXUYUI_clean_sbu_0, # of connection points: 4
#     Node 24, Type 1, BuildingBlock: UXUYUI_clean_sbu_0, # of connection points: 4
#     Node 25, Type 1, BuildingBlock: UXUYUI_clean_sbu_0, # of connection points: 4
#     Node 26, Type 1, BuildingBlock: UXUYUI_clean_sbu_0, # of connection points: 4
#     Node 27, Type 1, BuildingBlock: UXUYUI_clean_sbu_0, # of connection points: 4
#     Edge 28, Type (0, 1), BuildingBlock: MIFKUJ_clean_linker_0, # of connection points: 2
#     Edge 29, Type (0, 1), BuildingBlock: MIFKUJ_clean_linker_0, # of connection points: 2
#     Edge 30, Type (0, 1), BuildingBlock: MIFKUJ_clean_linker_0, # of connection points: 2
#     Edge 31, Type (0, 1), BuildingBlock: MIFKUJ_clean_linker_0, # of connection points: 2
#     Edge 32, Type (0, 1), BuildingBlock: MIFKUJ_clean_linker_0, # of connection points: 2
#     Edge 33, Type (0, 1), BuildingBlock: MIFKUJ_clean_linker_0, # of connection points: 2
#     Edge 34, Type (0, 1), BuildingBlock: MIFKUJ_clean_linker_0, # of connection points: 2
#     Edge 35, Type (0, 1), BuildingBlock: MIFKUJ_clean_linker_0, # of connection points: 2
#     Edge 36, Type (0, 1), BuildingBlock: MIFKUJ_clean_linker_0, # of connection points: 2
#     Edge 37, Type (0, 1), BuildingBlock: MIFKUJ_clean_linker_0, # of connection points: 2
#     Edge 38, Type (0, 1), BuildingBlock: MIFKUJ_clean_linker_0, # of connection points: 2
#     Edge 39, Type (0, 1), BuildingBlock: MIFKUJ_clean_linker_0, # of connection points: 2
#     Edge 40, Type (0, 1), BuildingBlock: MIFKUJ_clean_linker_0, # of connection points: 2
#     Edge 41, Type (0, 1), BuildingBlock: MIFKUJ_clean_linker_0, # of connection points: 2
#     Edge 42, Type (0, 1), BuildingBlock: MIFKUJ_clean_linker_0, # of connection points: 2
#     Edge 43, Type (0, 1), BuildingBlock: MIFKUJ_clean_linker_0, # of connection points: 2
#     Edge 44, Type (0, 1), BuildingBlock: MIFKUJ_clean_linker_0, # of connection points: 2
#     Edge 45, Type (0, 1), BuildingBlock: MIFKUJ_clean_linker_0, # of connection points: 2
#     Edge 46, Type (0, 1), BuildingBlock: MIFKUJ_clean_linker_0, # of connection points: 2
#     Edge 47, Type (0, 1), BuildingBlock: MIFKUJ_clean_linker_0, # of connection points: 2
#     Edge 48, Type (0, 1), BuildingBlock: MIFKUJ_clean_linker_0, # of connection points: 2
#     Edge 49, Type (0, 1), BuildingBlock: MIFKUJ_clean_linker_0, # of connection points: 2
#     Edge 50, Type (0, 1), BuildingBlock: MIFKUJ_clean_linker_0, # of connection points: 2
#     Edge 51, Type (0, 1), BuildingBlock: MIFKUJ_clean_linker_0, # of connection points: 2
#     Edge 52, Type (0, 1), BuildingBlock: MIFKUJ_clean_linker_0, # of connection points: 2
#     Edge 53, Type (0, 1), BuildingBlock: MIFKUJ_clean_linker_0, # of connection points: 2
#     Edge 54, Type (0, 1), BuildingBlock: MIFKUJ_clean_linker_0, # of connection points: 2
#     Edge 55, Type (0, 1), BuildingBlock: MIFKUJ_clean_linker_0, # of connection points: 2
#     Edge 56, Type (0, 1), BuildingBlock: MIFKUJ_clean_linker_0, # of connection points: 2
#     Edge 57, Type (0, 1), BuildingBlock: MIFKUJ_clean_linker_0, # of connection points: 2
#     Edge 58, Type (0, 1), BuildingBlock: MIFKUJ_clean_linker_0, # of connection points: 2
#     Edge 59, Type (0, 1), BuildingBlock: MIFKUJ_clean_linker_0, # of connection points: 2
#     Edge 60, Type (0, 1), BuildingBlock: MIFKUJ_clean_linker_0, # of connection points: 2
#     Edge 61, Type (0, 1), BuildingBlock: MIFKUJ_clean_linker_0, # of connection points: 2
#     Edge 62, Type (0, 1), BuildingBlock: MIFKUJ_clean_linker_0, # of connection points: 2
#     Edge 63, Type (0, 1), BuildingBlock: MIFKUJ_clean_linker_0, # of connection points: 2
#     Edge 64, Type (0, 1), BuildingBlock: MIFKUJ_clean_linker_0, # of connection points: 2
#     Edge 65, Type (0, 1), BuildingBlock: MIFKUJ_clean_linker_0, # of connection points: 2
#     Edge 66, Type (0, 1), BuildingBlock: MIFKUJ_clean_linker_0, # of connection points: 2
#     Edge 67, Type (0, 1), BuildingBlock: MIFKUJ_clean_linker_0, # of connection points: 2
#     Edge 68, Type (0, 1), BuildingBlock: MIFKUJ_clean_linker_0, # of connection points: 2
#     Edge 69, Type (0, 1), BuildingBlock: MIFKUJ_clean_linker_0, # of connection points: 2
#     Edge 70, Type (0, 1), BuildingBlock: MIFKUJ_clean_linker_0, # of connection points: 2
#     Edge 71, Type (0, 1), BuildingBlock: MIFKUJ_clean_linker_0, # of connection points: 2
#     Edge 72, Type (0, 1), BuildingBlock: MIFKUJ_clean_linker_0, # of connection points: 2
#     Edge 73, Type (0, 1), BuildingBlock: MIFKUJ_clean_linker_0, # of connection points: 2
#     Edge 74, Type (0, 1), BuildingBlock: MIFKUJ_clean_linker_0, # of connection points: 2
#     Edge 75, Type (0, 1), BuildingBlock: MIFKUJ_clean_linker_0, # of connection points: 2
# Relax obj value: 0.113
# Max RMSD: 0.280
# Mean RMSD: 0.161
data_MOF--net-ctn--node1-UXUYUI_clean_sbu_0--node2-QEWDON_clean_linker_0--edge1-MIFKUJ_clean_linker_0
_symmetry_space_group_name_H-M    P1
_symmetry_Int_Tables_number       1
_symmetry_cell_setting            triclinic
loop_
_symmetry_equiv_pos_as_xyz
'x, y, z'
_cell_length_a     81.318928
_cell_length_b     84.43936
_cell_length_c     89.817498
_cell_angle_alpha  97.614953
_cell_angle_beta   91.832168
_cell_angle_gamma 95.277918
loop_
_atom_site_label
_atom_site_type_symbol
_atom_site_fract_x
_atom_site_fract_y
_atom_site_fract_z
_atom_type_partial_charge
H0 H 0.08377 0.04758 0.05533 0.0
C1 C 0.0751 0.04401 0.06347 0.0
C2 C 0.07533 0.02881 0.06832 0.0
C3 C 0.06422 0.05488 0.06961 0.0
H4 H 0.06481 0.01306 0.08338 0.0
C5 C 0.06442 0.02456 0.07932 0.0
C6 C 0.0534 0.03527 0.08549 0.0
C7 C 0.05328 0.05028 0.08043 0.0
C8 C 0.06553 0.07172 0.06629 0.0
H9 H 0.04511 0.05876 0.08542 0.0
C10 C 0.06504 0.0755 0.05142 0.0
C11 C 0.06618 0.0917 0.04878 0.0
C12 C 0.0673 0.08425 0.07837 0.0
H13 H 0.0679 0.08169 0.08988 0.0
C14 C 0.06844 0.1002 0.07581 0.0
H15 H 0.06369 0.06593 0.04203 0.0
C16 C 0.06783 0.10392 0.06118 0.0
H17 H 0.06838 0.11645 0.05957 0.0
H18 H 0.06971 0.10973 0.08522 0.0
H19 H 0.32791 0.74128 0.2359 0.0
C20 C 0.31975 0.73031 0.23312 0.0
C21 C 0.3237 0.71623 0.23857 0.0
C22 C 0.30479 0.73066 0.22497 0.0
H23 H 0.31533 0.69166 0.24024 0.0
C24 C 0.31251 0.70237 0.23564 0.0
C25 C 0.29743 0.70243 0.22746 0.0
C26 C 0.29379 0.71668 0.22199 0.0
C27 C 0.29949 0.74632 0.22208 0.0
H28 H 0.28211 0.71714 0.21598 0.0
C29 C 0.29844 0.75068 0.20747 0.0
C30 C 0.29414 0.76611 0.20538 0.0
C31 C 0.29581 0.75722 0.23443 0.0
H32 H 0.29652 0.75404 0.24572 0.0
C33 C 0.29114 0.77225 0.23236 0.0
H34 H 0.30148 0.74237 0.19793 0.0
C35 C 0.29034 0.7767 0.21799 0.0
H36 H 0.28666 0.78848 0.21673 0.0
H37 H 0.28822 0.78054 0.24196 0.0
H38 H 0.0157 0.47446 0.04031 0.0
C39 C 0.00511 0.48127 0.03953 0.0
C40 C 0.99855 0.48874 0.05267 0.0
C41 C 0.99855 0.48305 0.02531 0.0
H42 H 0.97952 0.50316 0.06144 0.0
C43 C 0.9847 0.49745 0.05138 0.0
C44 C 0.97779 0.49913 0.03713 0.0
C45 C 0.98501 0.49202 0.02419 0.0
C46 C 0.00673 0.47672 0.0116 0.0
H47 H 0.98033 0.4937 0.01313 0.0
C48 C 0.00853 0.46023 0.00816 0.0
C49 C 0.01667 0.45449 0.99522 0.0
C50 C 0.01304 0.48739 1.00197 0.0
H51 H 0.01181 0.50012 0.00444 0.0
C52 C 0.02125 0.48175 0.98923 0.0
H53 H 0.0036 0.45193 0.01551 0.0
C54 C 0.02311 0.46542 0.98588 0.0
H55 H 0.02933 0.46128 0.97581 0.0
H56 H 0.02615 0.49006 0.9819 0.0
H57 H 0.76554 0.79776 0.24061 0.0
C58 C 0.76452 0.79203 0.22903 0.0
C59 C 0.77202 0.79981 0.21772 0.0
C60 C 0.7569 0.77631 0.2257 0.0
H61 H 0.77748 0.7976 0.19426 0.0
C62 C 0.77143 0.79175 0.20292 0.0
C63 C 0.76373 0.776 0.19936 0.0
C64 C 0.75638 0.76845 0.2109 0.0
C65 C 0.75213 0.76708 0.23801 0.0
H66 H 0.75058 0.75626 0.20853 0.0
C67 C 0.73753 0.76927 0.24573 0.0
C68 C 0.73357 0.76036 0.25759 0.0
C69 C 0.76262 0.75593 0.2421 0.0
H70 H 0.77389 0.7541 0.23624 0.0
C71 C 0.75877 0.74716 0.25382 0.0
H72 H 0.72938 0.77784 0.24258 0.0
C73 C 0.74437 0.74935 0.26153 0.0
H74 H 0.74153 0.74221 0.27046 0.0
H75 H 0.76694 0.73859 0.2569 0.0
H76 H 0.09151 0.95776 0.48594 0.0
C77 C 0.08232 0.96129 0.47834 0.0
C78 C 0.08459 0.97635 0.4732 0.0
C79 C 0.06857 0.95045 0.47313 0.0
H80 H 0.07524 0.99157 0.45818 0.0
C81 C 0.07292 0.9804 0.46279 0.0
C82 C 0.05901 0.96974 0.45747 0.0
C83 C 0.05689 0.95484 0.46293 0.0
C84 C 0.06757 0.93362 0.47627 0.0
H85 H 0.04636 0.94634 0.459 0.0
C86 C 0.06422 0.92939 0.49063 0.0
C87 C 0.06214 0.91305 0.49275 0.0
C88 C 0.06937 0.9215 0.46429 0.0
H89 H 0.07197 0.92452 0.45319 0.0
C90 C 0.06778 0.90542 0.46646 0.0
H91 H 0.06261 0.93866 0.49988 0.0
C92 C 0.06411 0.9012 0.48054 0.0
H93 H 0.06281 0.88859 0.48191 0.0
H94 H 0.06924 0.89618 0.45716 0.0
H95 H 0.26301 0.69462 0.78484 0.0
C96 C 0.26095 0.70114 0.79575 0.0
C97 C 0.26815 0.69666 0.80881 0.0
C98 C 0.25129 0.71414 0.79649 0.0
H99 H 0.27092 0.70215 0.83297 0.0
C100 C 0.26525 0.70532 0.82283 0.0
C101 C 0.25551 0.71838 0.82383 0.0
C102 C 0.24839 0.72256 0.81056 0.0
C103 C 0.24602 0.71995 0.78239 0.0
H104 H 0.24142 0.73295 0.81105 0.0
C105 C 0.22927 0.72148 0.77879 0.0
C106 C 0.22465 0.72626 0.76488 0.0
C107 C 0.25808 0.72371 0.77222 0.0
H108 H 0.27102 0.72274 0.77481 0.0
C109 C 0.25361 0.72885 0.75869 0.0
H110 H 0.21989 0.71839 0.7865 0.0
C111 C 0.23705 0.73008 0.755 0.0
H112 H 0.23395 0.73411 0.7444 0.0
H113 H 0.26302 0.73181 0.75098 0.0
H114 H 0.97688 0.58231 0.4664 0.0
C115 C 0.96958 0.57174 0.46909 0.0
C116 C 0.96578 0.57053 0.48407 0.0
C117 C 0.96368 0.55962 0.45744 0.0
H118 H 0.95294 0.55596 0.49879 0.0
C119 C 0.95604 0.55685 0.48727 0.0
C120 C 0.94962 0.54473 0.47568 0.0
C121 C 0.95377 0.54613 0.46076 0.0
C122 C 0.9658 0.56238 0.44168 0.0
H123 H 0.94851 0.53728 0.4516 0.0
C124 C 0.97667 0.55397 0.43239 0.0
C125 C 0.97876 0.55727 0.41751 0.0
C126 C 0.95701 0.57399 0.43605 0.0
H127 H 0.94864 0.58059 0.44306 0.0
C128 C 0.95893 0.57721 0.42136 0.0
H129 H 0.98348 0.54502 0.43676 0.0
C130 C 0.96973 0.56898 0.41216 0.0
H131 H 0.97126 0.57205 0.40093 0.0
H132 H 0.95213 0.58623 0.41712 0.0
H133 H 0.82424 0.81297 0.79892 0.0
C134 C 0.82179 0.80362 0.80597 0.0
C135 C 0.8301 0.78964 0.80368 0.0
C136 C 0.81148 0.8062 0.81814 0.0
H137 H 0.83389 0.76719 0.81171 0.0
C138 C 0.82754 0.77798 0.81344 0.0
C139 C 0.81685 0.78015 0.8254 0.0
C140 C 0.80887 0.79429 0.8276 0.0
C141 C 0.80538 0.82217 0.82237 0.0
H142 H 0.80113 0.79639 0.83714 0.0
C143 C 0.79655 0.8298 0.81201 0.0
C144 C 0.79154 0.84525 0.81639 0.0
C145 C 0.809 0.83012 0.83704 0.0
H146 H 0.81591 0.82462 0.84515 0.0
C147 C 0.80408 0.84536 0.84134 0.0
H148 H 0.79365 0.82381 0.80068 0.0
C149 C 0.79546 0.85291 0.8311 0.0
H150 H 0.79164 0.86471 0.83476 0.0
H151 H 0.807 0.85137 0.85265 0.0
H152 H 0.3238 0.31496 0.29802 0.0
C153 C 0.32288 0.30598 0.3056 0.0
C154 C 0.33102 0.29189 0.30259 0.0
C155 C 0.31419 0.30896 0.31878 0.0
H156 H 0.33605 0.26977 0.31092 0.0
C157 C 0.32955 0.28045 0.31273 0.0
C158 C 0.32061 0.28316 0.32582 0.0
C159 C 0.31304 0.29746 0.32874 0.0
C160 C 0.30781 0.32477 0.32318 0.0
H161 H 0.30632 0.29974 0.33891 0.0
C162 C 0.29661 0.33116 0.3138 0.0
C163 C 0.29009 0.34578 0.31884 0.0
C164 C 0.31285 0.33339 0.33731 0.0
H165 H 0.32157 0.32881 0.34464 0.0
C166 C 0.30679 0.34801 0.34212 0.0
H167 H 0.29252 0.32453 0.30295 0.0
C168 C 0.29544 0.35414 0.33302 0.0
H169 H 0.29088 0.36551 0.33706 0.0
H170 H 0.31081 0.35457 0.353 0.0
H171 H 0.51342 0.97424 0.53991 0.0
C172 C 0.50314 0.98153 0.53967 0.0
C173 C 0.4981 0.98997 0.5531 0.0
C174 C 0.49536 0.98288 0.52581 0.0
H175 H 0.48076 0.00605 0.56266 0.0
C176 C 0.4847 0.99939 0.55245 0.0
C177 C 0.47653 1.0005 0.53862 0.0
C178 C 0.48206 0.99227 0.52539 0.0
C179 C 0.50187 0.97565 0.51155 0.0
H180 H 0.47625 0.99347 0.51461 0.0
C181 C 0.50234 0.95893 0.50815 0.0
C182 C 0.50761 0.95228 0.49407 0.0
C183 C 0.50718 0.98568 0.50101 0.0
H184 H 0.50697 0.99857 0.50345 0.0
C185 C 0.51284 0.97918 0.48726 0.0
H186 H 0.49799 0.95114 0.51616 0.0
C187 C 0.513 0.96262 0.48376 0.0
H188 H 0.51739 0.95787 0.47296 0.0
H189 H 0.51699 0.98701 0.47923 0.0
H190 H 0.26594 0.29404 0.74138 0.0
C191 C 0.26461 0.28921 0.72956 0.0
C192 C 0.27118 0.29822 0.71863 0.0
C193 C 0.25733 0.27344 0.72544 0.0
H194 H 0.27465 0.2981 0.69483 0.0
C195 C 0.26996 0.29124 0.70343 0.0
C196 C 0.26292 0.27538 0.69919 0.0
C197 C 0.25654 0.26661 0.7103 0.0
C198 C 0.25277 0.26323 0.73707 0.0
H199 H 0.25161 0.25418 0.70729 0.0
C200 C 0.23775 0.26421 0.74437 0.0
C201 C 0.23331 0.25366 0.75484 0.0
C202 C 0.26344 0.25195 0.74048 0.0
H203 H 0.27502 0.25105 0.73492 0.0
C204 C 0.25927 0.24175 0.75104 0.0
H205 H 0.2294 0.27276 0.74156 0.0
C206 C 0.24431 0.24254 0.75815 0.0
H207 H 0.24138 0.23448 0.76633 0.0
H208 H 0.26761 0.23313 0.75367 0.0
H209 H 0.82881 0.24348 0.73643 0.0
C210 C 0.82037 0.23269 0.73376 0.0
C211 C 0.82369 0.21871 0.73971 0.0
C212 C 0.80577 0.23315 0.72507 0.0
H213 H 0.81465 0.19441 0.74172 0.0
C214 C 0.81229 0.20503 0.73674 0.0
C215 C 0.79767 0.20512 0.72793 0.0
C216 C 0.7946 0.21926 0.72197 0.0
C217 C 0.80123 0.24876 0.72114 0.0
H218 H 0.78326 0.21971 0.71544 0.0
C219 C 0.79736 0.25104 0.70618 0.0
C220 C 0.79293 0.26607 0.70297 0.0
C221 C 0.80062 0.26157 0.73275 0.0
H222 H 0.80344 0.26007 0.74432 0.0
C223 C 0.79617 0.27635 0.72962 0.0
H224 H 0.79784 0.24125 0.69715 0.0
C225 C 0.79235 0.27861 0.71487 0.0
H226 H 0.7892 0.29032 0.71272 0.0
H227 H 0.79573 0.28613 0.73866 0.0
H228 H 0.58486 0.5481 0.55599 0.0
C229 C 0.57614 0.54468 0.56415 0.0
C230 C 0.57688 0.52995 0.56984 0.0
C231 C 0.56513 0.55564 0.5699 0.0
H232 H 0.56648 0.51494 0.58564 0.0
C233 C 0.56612 0.52621 0.58115 0.0
C234 C 0.55489 0.53693 0.58683 0.0
C235 C 0.55435 0.55149 0.581 0.0
C236 C 0.56643 0.57232 0.56614 0.0
H237 H 0.54607 0.56002 0.58569 0.0
C238 C 0.56573 0.57572 0.55115 0.0
C239 C 0.56701 0.59181 0.54817 0.0
C240 C 0.56854 0.58511 0.57798 0.0
H241 H 0.56932 0.58284 0.58957 0.0
C242 C 0.5698 0.60094 0.57507 0.0
H243 H 0.56413 0.56595 0.54194 0.0
C244 C 0.56899 0.60429 0.56033 0.0
H245 H 0.56966 0.61674 0.55845 0.0
H246 H 0.57134 0.61067 0.5843 0.0
H247 H 0.59076 0.45809 0.98688 0.0
C248 C 0.58146 0.46129 0.9792 0.0
C249 C 0.58283 0.47669 0.97469 0.0
C250 C 0.56865 0.4497 0.97313 0.0
H251 H 0.57245 0.49207 0.96028 0.0
C252 C 0.571 0.48048 0.96428 0.0
C253 C 0.55817 0.469 0.95801 0.0
C254 C 0.55706 0.45367 0.96263 0.0
C255 C 0.56876 0.43278 0.97586 0.0
H256 H 0.54736 0.44461 0.95776 0.0
C257 C 0.56745 0.42822 0.99038 0.0
C258 C 0.56784 0.41196 0.99246 0.0
C259 C 0.57041 0.421 0.96355 0.0
H260 H 0.5715 0.42424 0.95232 0.0
C261 C 0.57089 0.40499 0.96559 0.0
H262 H 0.56611 0.43722 0.99994 0.0
C263 C 0.56964 0.40048 0.97991 0.0
H264 H 0.56981 0.3879 0.98114 0.0
H265 H 0.5722 0.39601 0.95602 0.0
H266 H 0.76048 0.18972 0.28758 0.0
C267 C 0.75795 0.19724 0.29785 0.0
C268 C 0.76428 0.19393 0.3117 0.0
C269 C 0.74913 0.21066 0.29699 0.0
H270 H 0.76672 0.20184 0.33557 0.0
C271 C 0.76151 0.20412 0.32489 0.0
C272 C 0.75254 0.21754 0.32427 0.0
C273 C 0.74628 0.22065 0.31025 0.0
C274 C 0.74477 0.21518 0.28207 0.0
H275 H 0.7397 0.23115 0.30959 0.0
C276 C 0.7284 0.21752 0.27783 0.0
C277 C 0.72461 0.22125 0.2633 0.0
C278 C 0.75731 0.21701 0.27186 0.0
H279 H 0.76999 0.2154 0.27493 0.0
C280 C 0.7537 0.2211 0.25769 0.0
H281 H 0.71865 0.21592 0.28559 0.0
C282 C 0.73752 0.2232 0.25342 0.0
H283 H 0.73512 0.22646 0.24234 0.0
H284 H 0.76349 0.22262 0.24997 0.0
H285 H 0.47614 0.0802 0.96697 0.0
C286 C 0.46868 0.06945 0.969 0.0
C287 C 0.4641 0.06756 0.98369 0.0
C288 C 0.46262 0.05815 0.95672 0.0
H289 H 0.44996 0.05236 0.99718 0.0
C290 C 0.45372 0.05387 0.98594 0.0
C291 C 0.44739 0.04257 0.97372 0.0
C292 C 0.45191 0.04481 0.95911 0.0
C293 C 0.46509 0.0618 0.94128 0.0
H294 H 0.44672 0.03644 0.94955 0.0
C295 C 0.47872 0.05697 0.93314 0.0
C296 C 0.48099 0.0612 0.9186 0.0
C297 C 0.45366 0.07062 0.93478 0.0
H298 H 0.44312 0.07441 0.94092 0.0
C299 C 0.45577 0.07468 0.92039 0.0
H300 H 0.48761 0.05023 0.93818 0.0
C301 C 0.46933 0.07006 0.91235 0.0
H302 H 0.47061 0.07328 0.90113 0.0
H303 H 0.44688 0.08147 0.91544 0.0
Li304 Li 0.27372 0.88885 0.0162 0.0
Li305 Li 0.26137 0.87067 0.0321 0.0
Li306 Li 0.25598 0.8649 0.005 0.0
Li307 Li 0.2438 0.88839 0.02104 0.0
C308 C 0.29271 0.8643 0.02229 0.0
N309 N 0.32358 0.8611 0.03465 0.0
C310 C 0.29882 0.87431 0.03532 0.0
C311 C 0.30228 0.85265 0.01556 0.0
C312 C 0.31445 0.8725 0.04139 0.0
C313 C 0.31786 0.85123 0.02198 0.0
C314 C 0.26296 0.9038 0.04867 0.0
C315 C 0.24862 0.91465 0.07022 0.0
N316 N 0.26292 0.92322 0.07596 0.0
C317 C 0.27749 0.91281 0.05472 0.0
C318 C 0.24838 0.9048 0.05642 0.0
C319 C 0.27723 0.92252 0.06856 0.0
C320 C 0.29064 0.91941 0.01559 0.0
N321 N 0.2923 0.90343 0.01268 0.0
C322 C 0.31941 0.90886 0.00379 0.0
C323 C 0.30629 0.89801 0.00679 0.0
C324 C 0.31796 0.92542 0.00655 0.0
C325 C 0.30333 0.93067 0.01249 0.0
H326 H 0.27932 0.92338 0.02012 0.0
H327 H 0.30718 0.88527 0.00416 0.0
C328 C 0.26923 0.84435 0.04641 0.0
N329 N 0.26517 0.8597 0.04937 0.0
C330 C 0.27197 0.83539 0.05813 0.0
C331 C 0.26648 0.8582 0.07582 0.0
C332 C 0.26377 0.86669 0.06375 0.0
C333 C 0.27064 0.84231 0.0731 0.0
H334 H 0.27029 0.83903 0.03489 0.0
H335 H 0.26044 0.8788 0.06595 0.0
C336 C 0.26199 0.89497 0.9901 0.0
N337 N 0.27794 0.91039 0.96858 0.0
C338 C 0.25899 0.91067 0.98838 0.0
C339 C 0.27303 0.88708 0.98084 0.0
C340 C 0.26719 0.91827 0.97744 0.0
C341 C 0.28098 0.89509 0.97004 0.0
C342 C 0.233 0.85322 0.02932 0.0
C343 C 0.23403 0.83696 0.02438 0.0
C344 C 0.22593 0.85783 0.04301 0.0
C345 C 0.22812 0.82554 0.03333 0.0
C346 C 0.22019 0.84605 0.05165 0.0
N347 N 0.22141 0.83029 0.04668 0.0
C348 C 0.26061 0.83532 0.98787 0.0
C349 C 0.24359 0.85137 0.97558 0.0
C350 C 0.25963 0.82374 0.97514 0.0
N351 N 0.25275 0.84883 0.98782 0.0
C352 C 0.24228 0.8401 0.96258 0.0
C353 C 0.25051 0.82611 0.96218 0.0
H354 H 0.2678 0.83362 0.99777 0.0
H355 H 0.23761 0.86232 0.97581 0.0
C356 C 0.229 0.91749 0.02328 0.0
N357 N 0.22581 0.90148 0.02373 0.0
C358 C 0.21653 0.92774 0.02585 0.0
C359 C 0.19774 0.90491 0.02962 0.0
C360 C 0.21053 0.89505 0.02675 0.0
C361 C 0.20061 0.92156 0.02924 0.0
H362 H 0.24132 0.92232 0.02107 0.0
H363 H 0.20834 0.8823 0.02718 0.0
O364 O 0.27741 0.86578 0.01614 0.0
O365 O 0.26297 0.89448 0.035 0.0
O366 O 0.25457 0.88751 1.00111 0.0
O367 O 0.23918 0.86459 0.02092 0.0
H368 H 0.29157 0.88332 0.04072 0.0
H369 H 0.29773 0.84482 0.00547 0.0
H370 H 0.31933 0.88016 0.05148 0.0
H371 H 0.32542 0.84228 0.01688 0.0
H372 H 0.23744 0.91548 0.07637 0.0
H373 H 0.28884 0.91234 0.04878 0.0
H374 H 0.23702 0.89796 0.0519 0.0
H375 H 0.28839 0.92952 0.0734 0.0
H376 H 0.33042 0.90435 0.99902 0.0
H377 H 0.30177 0.94335 0.0148 0.0
H378 H 0.27531 0.82324 0.05548 0.0
H379 H 0.26509 0.86396 0.08715 0.0
H380 H 0.25051 0.91696 0.99547 0.0
H381 H 0.27564 0.87499 0.98216 0.0
H382 H 0.26505 0.93045 0.97602 0.0
H383 H 0.28964 0.88916 0.96286 0.0
H384 H 0.23948 0.8332 0.01382 0.0
H385 H 0.22509 0.87036 0.04702 0.0
H386 H 0.22893 0.81291 0.0297 0.0
H387 H 0.21482 0.84944 0.06233 0.0
H388 H 0.26598 0.81306 0.97544 0.0
H389 H 0.23528 0.84255 0.95282 0.0
H390 H 0.21939 0.94039 0.02515 0.0
H391 H 0.18584 0.89952 0.03244 0.0
Li392 Li 0.12756 0.50713 0.26322 0.0
Li393 Li 0.14783 0.48967 0.252 0.0
Li394 Li 0.14828 0.51838 0.2477 0.0
Li395 Li 0.12637 0.49892 0.23548 0.0
C396 C 0.15507 0.51297 0.28181 0.0
N397 N 0.16076 0.52 0.31257 0.0
C398 C 0.15726 0.50067 0.29047 0.0
C399 C 0.15607 0.52886 0.28876 0.0
C400 C 0.16004 0.50447 0.30602 0.0
C401 C 0.15888 0.53217 0.30433 0.0
C402 C 0.11813 0.46964 0.24557 0.0
C403 C 0.12118 0.44653 0.22735 0.0
N404 N 0.10769 0.43868 0.23262 0.0
C405 C 0.10429 0.46136 0.2508 0.0
C406 C 0.12665 0.4622 0.23374 0.0
C407 C 0.09921 0.44571 0.24411 0.0
C408 C 0.10317 0.52218 0.28058 0.0
N409 N 0.11413 0.51091 0.28036 0.0
C410 C 0.10513 0.5041 0.30405 0.0
C411 C 0.11511 0.50177 0.29169 0.0
C412 C 0.09376 0.51571 0.30462 0.0
C413 C 0.09287 0.5248 0.29265 0.0
H414 H 0.10221 0.52898 0.27129 0.0
H415 H 0.12344 0.49247 0.29102 0.0
C416 C 0.1771 0.47366 0.25137 0.0
N417 N 0.16111 0.47269 0.25542 0.0
C418 C 0.18727 0.46178 0.25418 0.0
C419 C 0.16434 0.44813 0.26531 0.0
C420 C 0.15464 0.46028 0.26231 0.0
C421 C 0.18096 0.44879 0.26132 0.0
H422 H 0.18205 0.48381 0.24619 0.0
H423 H 0.14197 0.45988 0.26564 0.0
C424 C 0.12185 0.53593 0.24604 0.0
N425 N 0.11796 0.56781 0.24424 0.0
C426 C 0.11497 0.54039 0.23293 0.0
C427 C 0.1266 0.54767 0.25827 0.0
C428 C 0.11315 0.55657 0.23223 0.0
C429 C 0.12458 0.56372 0.25713 0.0
C430 C 0.15661 0.50339 0.21969 0.0
C431 C 0.14784 0.51299 0.21141 0.0
C432 C 0.17162 0.49841 0.21462 0.0
C433 C 0.15425 0.51751 0.19819 0.0
C434 C 0.17763 0.50318 0.20133 0.0
N435 N 0.1689 0.51255 0.19346 0.0
C436 C 0.17715 0.54029 0.25382 0.0
C437 C 0.15921 0.54665 0.23466 0.0
C438 C 0.18821 0.55364 0.25227 0.0
N439 N 0.16292 0.53709 0.24512 0.0
C440 C 0.16979 0.56017 0.23284 0.0
C441 C 0.18452 0.56384 0.24171 0.0
H442 H 0.17994 0.53246 0.26196 0.0
H443 H 0.14808 0.54381 0.22762 0.0
C444 C 0.09665 0.49895 0.21848 0.0
N445 N 0.11173 0.49323 0.21804 0.0
C446 C 0.08606 0.4966 0.20564 0.0
C447 C 0.10644 0.4819 0.19229 0.0
C448 C 0.11664 0.48455 0.20539 0.0
C449 C 0.09101 0.48821 0.19221 0.0
H450 H 0.09305 0.50579 0.2287 0.0
H451 H 0.12865 0.48001 0.20534 0.0
O452 O 0.15224 0.50947 0.26659 0.0
O453 O 0.12319 0.48499 0.25199 0.0
O454 O 0.1239 0.52016 0.24688 0.0
O455 O 0.15057 0.49883 0.23268 0.0
H456 H 0.15662 0.48832 0.28527 0.0
H457 H 0.1548 0.53856 0.28219 0.0
H458 H 0.16161 0.49506 0.31288 0.0
H459 H 0.15961 0.54442 0.30986 0.0
H460 H 0.12766 0.44062 0.2182 0.0
H461 H 0.09757 0.46698 0.25995 0.0
H462 H 0.1374 0.4684 0.22956 0.0
H463 H 0.08853 0.43915 0.24805 0.0
H464 H 0.10601 0.4966 0.31289 0.0
H465 H 0.08432 0.5339 0.29262 0.0
H466 H 0.20006 0.46298 0.25113 0.0
H467 H 0.15885 0.43831 0.27069 0.0
H468 H 0.11126 0.5315 0.22332 0.0
H469 H 0.13177 0.5444 0.26854 0.0
H470 H 0.10794 0.5602 0.22212 0.0
H471 H 0.12826 0.57293 0.2665 0.0
H472 H 0.13624 0.51699 0.21518 0.0
H473 H 0.17854 0.49091 0.22085 0.0
H474 H 0.1476 0.52497 0.19169 0.0
H475 H 0.18923 0.49941 0.19728 0.0
H476 H 0.1994 0.55607 0.25938 0.0
H477 H 0.1666 0.56754 0.2244 0.0
H478 H 0.07438 0.50182 0.20611 0.0
H479 H 0.11067 0.47512 0.18229 0.0
Li480 Li 0.77482 0.62721 0.99271 0.0
Li481 Li 0.78942 0.65063 0.00962 0.0
Li482 Li 0.7922 0.64669 0.98203 0.0
Li483 Li 0.8053 0.62901 0.99629 0.0
C484 C 0.75557 0.65046 0.99156 0.0
N485 N 0.72156 0.64894 0.988 0.0
C486 C 0.746 0.65358 0.00407 0.0
C487 C 0.74787 0.64666 0.97724 0.0
C488 C 0.72882 0.65273 1.00204 0.0
C489 C 0.73066 0.64592 0.97567 0.0
C490 C 0.79254 0.61471 0.01856 0.0
C491 C 0.81096 0.60395 0.03541 0.0
N492 N 0.80294 0.58907 0.03134 0.0
C493 C 0.78454 0.59928 0.01451 0.0
C494 C 0.80588 0.61705 0.0291 0.0
C495 C 0.78995 0.5865 0.02112 0.0
C496 C 0.75149 0.60204 0.97821 0.0
N497 N 0.75485 0.61296 0.99073 0.0
C498 C 0.73019 0.60311 1.00173 0.0
C499 C 0.74461 0.61359 1.00243 0.0
C500 C 0.72642 0.59163 0.98898 0.0
C501 C 0.73729 0.59118 0.97711 0.0
H502 H 0.75995 0.6016 0.96916 0.0
H503 H 0.74779 0.62211 0.01242 0.0
C504 C 0.77942 0.67852 0.02717 0.0
N505 N 0.78779 0.66534 0.02754 0.0
C506 C 0.7772 0.68866 0.04045 0.0
C507 C 0.79277 0.6718 0.05412 0.0
C508 C 0.79457 0.66196 0.04063 0.0
C509 C 0.78376 0.68525 0.05424 0.0
H510 H 0.77415 0.68096 0.0166 0.0
H511 H 0.80124 0.65151 0.04064 0.0
C512 C 0.79491 0.61997 0.96281 0.0
N513 N 0.80187 0.61442 0.93277 0.0
C514 C 0.81056 0.61592 0.95862 0.0
C515 C 0.78275 0.62102 0.95173 0.0
C516 C 0.81384 0.61319 0.94337 0.0
C517 C 0.78653 0.61824 0.9366 0.0
C518 C 0.81917 0.66476 0.9932 0.0
C519 C 0.83351 0.66193 0.98552 0.0
C520 C 0.81386 0.68014 0.99508 0.0
C521 C 0.84227 0.67458 0.9797 0.0
C522 C 0.82294 0.69247 0.98907 0.0
N523 N 0.83683 0.68945 0.98156 0.0
C524 C 0.78396 0.67 0.96354 0.0
C525 C 0.80728 0.65686 0.95566 0.0
C526 C 0.78545 0.67945 0.95188 0.0
N527 N 0.79472 0.65887 0.96518 0.0
C528 C 0.80918 0.66597 0.9438 0.0
C529 C 0.79819 0.6775 0.94174 0.0
H530 H 0.77432 0.67174 0.97143 0.0
H531 H 0.81601 0.64831 0.95735 0.0
C532 C 0.82138 0.60055 0.99507 0.0
N533 N 0.8236 0.61675 0.99893 0.0
C534 C 0.8339 0.59103 0.99819 0.0
C535 C 0.85098 0.61507 0.00877 0.0
C536 C 0.83805 0.62412 0.00558 0.0
C537 C 0.84896 0.59823 0.00523 0.0
H538 H 0.80968 0.595 0.98994 0.0
H539 H 0.83943 0.637 0.00867 0.0
O540 O 0.77239 0.6509 0.99334 0.0
O541 O 0.78767 0.62735 0.01194 0.0
O542 O 0.79146 0.62264 0.97768 0.0
O543 O 0.81021 0.65247 0.99865 0.0
H544 H 0.75173 0.65634 0.01526 0.0
H545 H 0.7551 0.64425 0.96744 0.0
H546 H 0.72124 0.65501 0.01163 0.0
H547 H 0.72452 0.64293 0.96466 0.0
H548 H 0.82136 0.60558 0.04346 0.0
H549 H 0.77438 0.59711 0.00624 0.0
H550 H 0.81261 0.62874 0.03204 0.0
H551 H 0.78387 0.57451 0.01805 0.0
H552 H 0.72229 0.6037 0.01123 0.0
H553 H 0.73481 0.58255 0.96706 0.0
H554 H 0.77006 0.6988 0.03996 0.0
H555 H 0.79838 0.66885 0.06437 0.0
H556 H 0.82013 0.61506 0.96704 0.0
H557 H 0.77056 0.62404 0.95478 0.0
H558 H 0.82593 0.61014 0.93995 0.0
H559 H 0.77728 0.61912 0.92791 0.0
H560 H 0.8377 0.65005 0.98388 0.0
H561 H 0.80273 0.68248 1.00094 0.0
H562 H 0.85333 0.67256 0.97364 0.0
H563 H 0.81892 0.70441 0.99033 0.0
H564 H 0.77688 0.6884 0.95102 0.0
H565 H 0.81913 0.66389 0.93628 0.0
H566 H 0.83159 0.57812 0.99546 0.0
H567 H 0.8624 0.62122 0.01398 0.0
Li568 Li 0.90889 0.0276 0.27869 0.0
Li569 Li 0.9287 0.01122 0.28785 0.0
Li570 Li 0.92985 0.01535 0.26123 0.0
Li571 Li 0.90782 0.99778 0.27066 0.0
C572 C 0.94809 0.03738 0.28719 0.0
N573 N 0.97747 0.04689 0.30365 0.0
C574 C 0.96178 0.02866 0.28469 0.0
C575 C 0.9494 0.05102 0.29799 0.0
C576 C 0.9765 0.03363 0.29315 0.0
C577 C 0.96435 0.05562 0.30621 0.0
C578 C 0.90274 0.00849 0.30551 0.0
C579 C 0.90442 0.99349 0.3265 0.0
N580 N 0.89969 0.0062 0.33575 0.0
C581 C 0.8977 0.02132 0.3152 0.0
C582 C 0.90593 0.99438 0.31118 0.0
C583 C 0.8963 0.01996 0.33045 0.0
C584 C 0.88086 0.04459 0.27445 0.0
N585 N 0.89525 0.04506 0.28272 0.0
C586 C 0.88936 0.0695 0.29747 0.0
C587 C 0.89962 0.05721 0.29406 0.0
C588 C 0.87444 0.06943 0.28905 0.0
C589 C 0.87036 0.05675 0.27731 0.0
H590 H 0.87743 0.03469 0.26567 0.0
H591 H 0.91083 0.0571 0.30078 0.0
C592 C 0.95305 0.99759 0.3043 0.0
N593 N 0.94218 0.00897 0.30549 0.0
C594 C 0.96289 0.99538 0.31677 0.0
C595 C 0.95016 0.01658 0.33155 0.0
C596 C 0.94087 0.01866 0.3187 0.0
C597 C 0.96132 0.0048 0.33064 0.0
H598 H 0.95415 0.99026 0.29363 0.0
H599 H 0.93252 0.02794 0.31929 0.0
C600 C 0.90195 0.02392 0.2468 0.0
N601 N 0.89522 0.042 0.22428 0.0
C602 C 0.8911 0.01742 0.23471 0.0
C603 C 0.90943 0.03959 0.24744 0.0
C604 C 0.88784 0.02676 0.22343 0.0
C605 C 0.90585 0.04855 0.23595 0.0
C606 C 0.93185 0.97935 0.26529 0.0
C607 C 0.93487 0.97402 0.25032 0.0
C608 C 0.92841 0.96813 0.27518 0.0
C609 C 0.93403 0.95755 0.24539 0.0
C610 C 0.92765 0.95176 0.26983 0.0
N611 N 0.93043 0.94685 0.25516 0.0
C612 C 0.95688 0.02762 0.24452 0.0
C613 C 0.93582 0.01043 0.23018 0.0
C614 C 0.96582 0.02909 0.23162 0.0
N615 N 0.94228 0.0182 0.24363 0.0
C616 C 0.94424 0.01171 0.21699 0.0
C617 C 0.95954 0.02101 0.21761 0.0
H618 H 0.96164 0.03404 0.2552 0.0
H619 H 0.92417 1.00306 0.22971 0.0
C620 C 0.88395 0.97242 0.27539 0.0
N621 N 0.89312 0.97877 0.26485 0.0
C622 C 0.87352 0.95828 0.2715 0.0
C623 C 0.88197 0.95755 0.24589 0.0
C624 C 0.8922 0.97176 0.25028 0.0
C625 C 0.87247 0.95059 0.25659 0.0
H626 H 0.88475 0.97829 0.28685 0.0
H627 H 0.8995 0.97716 0.24208 0.0
O628 O 0.93344 0.03239 0.27928 0.0
O629 O 0.90428 0.00968 0.29054 0.0
O630 O 0.90544 0.01484 0.25781 0.0
O631 O 0.93223 0.99544 0.27024 0.0
H632 H 0.96094 0.01796 0.27649 0.0
H633 H 0.93903 0.05801 0.30003 0.0
H634 H 0.98713 0.0269 0.29141 0.0
H635 H 0.96551 0.06612 0.31463 0.0
H636 H 0.90701 0.9827 0.33104 0.0
H637 H 0.89492 0.03223 0.31102 0.0
H638 H 0.90968 0.98427 0.30387 0.0
H639 H 0.8925 0.02984 0.33808 0.0
H640 H 0.89294 0.07874 0.30685 0.0
H641 H 0.85918 0.05618 0.27031 0.0
H642 H 0.97142 0.98621 0.31566 0.0
H643 H 0.9488 0.0242 0.34203 0.0
H644 H 0.88529 0.00526 0.23404 0.0
H645 H 0.91793 0.04477 0.25669 0.0
H646 H 0.87947 0.0219 0.214 0.0
H647 H 0.91153 0.06069 0.23628 0.0
H648 H 0.93778 0.98248 0.24255 0.0
H649 H 0.92631 0.972 0.28684 0.0
H650 H 0.93623 0.95327 0.2338 0.0
H651 H 0.92487 0.94296 0.27734 0.0
H652 H 0.97743 0.03661 0.23257 0.0
H653 H 0.93898 0.0052 0.20646 0.0
H654 H 0.86656 0.95329 0.28016 0.0
H655 H 0.88138 0.95217 0.23423 0.0
Li656 Li 0.28843 0.15219 0.50886 0.0
Li657 Li 0.27645 0.12731 0.49112 0.0
Li658 Li 0.30611 0.1326 0.4974 0.0
Li659 Li 0.29418 0.1495 0.48166 0.0
C660 C 0.29317 0.12658 0.52521 0.0
N661 N 0.30363 0.12184 0.55371 0.0
C662 C 0.28456 0.11502 0.53255 0.0
C663 C 0.3071 0.13572 0.53235 0.0
C664 C 0.29004 0.11281 0.54697 0.0
C665 C 0.3122 0.13315 0.54676 0.0
C666 C 0.26472 0.16098 0.48402 0.0
C667 C 0.25186 0.16754 0.46135 0.0
N668 N 0.25091 0.18277 0.46823 0.0
C669 C 0.26359 0.17667 0.49087 0.0
C670 C 0.25876 0.15633 0.46916 0.0
C671 C 0.25656 0.18751 0.48269 0.0
C672 C 0.292 0.18129 0.52912 0.0
N673 N 0.28429 0.16614 0.52654 0.0
C674 C 0.2711 0.17002 0.54998 0.0
C675 C 0.27388 0.16044 0.53656 0.0
C676 C 0.27902 0.1857 0.5531 0.0
C677 C 0.28951 0.19133 0.54238 0.0
H678 H 0.30011 0.18555 0.52089 0.0
H679 H 0.26788 0.14835 0.53421 0.0
C680 C 0.25908 0.09748 0.49387 0.0
N681 N 0.25783 0.1115 0.4882 0.0
C682 C 0.24548 0.08593 0.49301 0.0
C683 C 0.22954 0.10343 0.48045 0.0
C684 C 0.24346 0.11464 0.48155 0.0
C685 C 0.23038 0.08887 0.48632 0.0
H686 H 0.2706 0.09538 0.49929 0.0
H687 H 0.24269 0.12595 0.47732 0.0
C688 C 0.32526 0.1635 0.49952 0.0
N689 N 0.35718 0.17807 0.50011 0.0
C690 C 0.33353 0.16405 0.48616 0.0
C691 C 0.33316 0.17056 0.51316 0.0
C692 C 0.34967 0.17143 0.4867 0.0
C693 C 0.34932 0.1778 0.51323 0.0
C694 C 0.30453 0.1145 0.47136 0.0
C695 C 0.31977 0.11902 0.46562 0.0
C696 C 0.29963 0.09825 0.47168 0.0
C697 C 0.33001 0.1072 0.46056 0.0
C698 C 0.3102 0.08679 0.4665 0.0
N699 N 0.32506 0.09147 0.46112 0.0
C700 C 0.32046 0.1058 0.50531 0.0
C701 C 0.34078 0.12663 0.5015 0.0
C702 C 0.33265 0.0961 0.50881 0.0
N703 N 0.32464 0.12079 0.50177 0.0
C704 C 0.3534 0.11735 0.50501 0.0
C705 C 0.34941 0.10186 0.50874 0.0
H706 H 0.30756 0.10136 0.5054 0.0
H707 H 0.34399 0.13841 0.4985 0.0
C708 C 0.2979 0.17807 0.46806 0.0
N709 N 0.29713 0.16179 0.46518 0.0
C710 C 0.29994 0.18742 0.4564 0.0
C711 C 0.3009 0.16315 0.43903 0.0
C712 C 0.29857 0.15424 0.45102 0.0
C713 C 0.30158 0.18003 0.44158 0.0
H714 H 0.29683 0.18379 0.47945 0.0
H715 H 0.29803 0.14129 0.44903 0.0
O716 O 0.28799 0.12887 0.51109 0.0
O717 O 0.27189 0.15031 0.49173 0.0
O718 O 0.30936 0.15653 0.49924 0.0
O719 O 0.29456 0.12592 0.4768 0.0
H720 H 0.27372 0.10786 0.52718 0.0
H721 H 0.31392 0.14464 0.52679 0.0
H722 H 0.28349 0.10391 0.55279 0.0
H723 H 0.32297 0.14014 0.55241 0.0
H724 H 0.24732 0.16416 0.44981 0.0
H725 H 0.26817 0.18045 0.50235 0.0
H726 H 0.25976 0.14429 0.46363 0.0
H727 H 0.25564 0.19971 0.48784 0.0
H728 H 0.2631 0.16505 0.55796 0.0
H729 H 0.29567 0.20339 0.54415 0.0
H730 H 0.24668 0.07501 0.49789 0.0
H731 H 0.21824 0.10616 0.47505 0.0
H732 H 0.32762 0.15881 0.47549 0.0
H733 H 0.32689 0.17049 0.5236 0.0
H734 H 0.35623 0.17187 0.47645 0.0
H735 H 0.3556 0.18325 0.52372 0.0
H736 H 0.32373 0.13152 0.4652 0.0
H737 H 0.28785 0.09454 0.47601 0.0
H738 H 0.3419 0.11055 0.45621 0.0
H739 H 0.30662 0.07419 0.4668 0.0
H740 H 0.32897 0.0843 0.51174 0.0
H741 H 0.36615 0.12219 0.50459 0.0
H742 H 0.30005 0.20032 0.45901 0.0
H743 H 0.30239 0.15682 0.42794 0.0
Li744 Li 0.42892 0.511 0.78827 0.0
Li745 Li 0.40883 0.5266 0.77713 0.0
Li746 Li 0.40709 0.49644 0.77003 0.0
Li747 Li 0.42881 0.5147 0.76057 0.0
C748 C 0.39895 0.50317 0.80247 0.0
N749 N 0.38776 0.49072 0.82768 0.0
C750 C 0.39266 0.51312 0.81419 0.0
C751 C 0.39925 0.48682 0.80348 0.0
C752 C 0.38716 0.50663 0.82687 0.0
C753 C 0.39361 0.48077 0.81633 0.0
C754 C 0.43529 0.54715 0.78357 0.0
C755 C 0.43462 0.57442 0.7785 0.0
N756 N 0.43798 0.57974 0.79335 0.0
C757 C 0.43886 0.55287 0.79876 0.0
C758 C 0.43328 0.55798 0.77333 0.0
C759 C 0.44013 0.5694 0.80349 0.0
C760 C 0.4568 0.50208 0.80385 0.0
N761 N 0.44246 0.50905 0.80578 0.0
C762 C 0.44689 0.512 0.83253 0.0
C763 C 0.43756 0.51428 0.81977 0.0
C764 C 0.46146 0.50429 0.8309 0.0
C765 C 0.46646 0.49946 0.81629 0.0
H766 H 0.46066 0.49835 0.79262 0.0
H767 H 0.42637 0.52018 0.82106 0.0
C768 C 0.38591 0.54832 0.77015 0.0
N769 N 0.39579 0.54444 0.78135 0.0
C770 C 0.37599 0.56097 0.7729 0.0
C771 C 0.38642 0.56538 0.79875 0.0
C772 C 0.39621 0.55269 0.79546 0.0
C773 C 0.37609 0.56966 0.78739 0.0
H774 H 0.38556 0.54146 0.75909 0.0
H775 H 0.40414 0.54939 0.8042 0.0
C776 C 0.43712 0.48027 0.76917 0.0
N777 N 0.44869 0.45032 0.76713 0.0
C778 C 0.44432 0.47388 0.75606 0.0
C779 C 0.43602 0.4715 0.78131 0.0
C780 C 0.45003 0.45869 0.75523 0.0
C781 C 0.44189 0.45637 0.78005 0.0
C782 C 0.40183 0.51394 0.74205 0.0
C783 C 0.39528 0.50016 0.7326 0.0
C784 C 0.406 0.52813 0.736 0.0
C785 C 0.39321 0.50075 0.71719 0.0
C786 C 0.40376 0.52822 0.72053 0.0
N787 N 0.39748 0.51465 0.71152 0.0
C788 C 0.37672 0.47709 0.76969 0.0
C789 C 0.39777 0.46399 0.75692 0.0
C790 C 0.36564 0.46328 0.76636 0.0
N791 N 0.39248 0.47716 0.76505 0.0
C792 C 0.38719 0.44989 0.75349 0.0
C793 C 0.37083 0.44936 0.75819 0.0
H794 H 0.37275 0.4878 0.77597 0.0
H795 H 0.41017 0.46438 0.75302 0.0
C796 C 0.45453 0.52909 0.74419 0.0
N797 N 0.44217 0.51696 0.74351 0.0
C798 C 0.46405 0.53088 0.73169 0.0
C799 C 0.4479 0.50778 0.71799 0.0
C800 C 0.43891 0.50627 0.7308 0.0
C801 C 0.46066 0.52022 0.71832 0.0
H802 H 0.45698 0.53738 0.75444 0.0
H803 H 0.42927 0.49653 0.7306 0.0
O804 O 0.4044 0.50936 0.78997 0.0
O805 O 0.43371 0.531 0.77878 0.0
O806 O 0.43142 0.49513 0.77013 0.0
O807 O 0.40413 0.51353 0.75714 0.0
H808 H 0.39212 0.52576 0.81355 0.0
H809 H 0.40358 0.47883 0.79437 0.0
H810 H 0.38239 0.51423 0.83606 0.0
H811 H 0.39382 0.46815 0.81725 0.0
H812 H 0.43299 0.58294 0.77071 0.0
H813 H 0.44049 0.54464 0.80682 0.0
H814 H 0.43062 0.55374 0.76153 0.0
H815 H 0.44279 0.574 0.81522 0.0
H816 H 0.44254 0.51592 0.84356 0.0
H817 H 0.47777 0.49377 0.81448 0.0
H818 H 0.36805 0.56368 0.76386 0.0
H819 H 0.38701 0.57184 0.81003 0.0
H820 H 0.44545 0.48053 0.74661 0.0
H821 H 0.43095 0.4764 0.7917 0.0
H822 H 0.45554 0.45357 0.74512 0.0
H823 H 0.44111 0.44947 0.78937 0.0
H824 H 0.39193 0.4891 0.73709 0.0
H825 H 0.41104 0.5389 0.74316 0.0
H826 H 0.38823 0.49016 0.70973 0.0
H827 H 0.40705 0.53908 0.71568 0.0
H828 H 0.35311 0.46361 0.77 0.0
H829 H 0.3919 0.43948 0.74734 0.0
H830 H 0.47377 0.54066 0.73238 0.0
H831 H 0.44505 0.49917 0.70798 0.0
Li832 Li 0.77476 0.39059 0.51536 0.0
Li833 Li 0.76203 0.3708 0.53068 0.0
Li834 Li 0.75606 0.36814 0.50333 0.0
Li835 Li 0.74516 0.38952 0.52084 0.0
C836 C 0.78432 0.35495 0.50652 0.0
N837 N 0.79656 0.32886 0.49019 0.0
C838 C 0.78422 0.34039 0.51234 0.0
C839 C 0.79075 0.35627 0.49243 0.0
C840 C 0.79046 0.32734 0.5039 0.0
C841 C 0.79683 0.34293 0.48433 0.0
C842 C 0.77065 0.39673 0.54955 0.0
C843 C 0.76693 0.39548 0.57591 0.0
N844 N 0.78345 0.39933 0.57872 0.0
C845 C 0.78758 0.4007 0.55269 0.0
C846 C 0.76021 0.39414 0.56124 0.0
C847 C 0.79381 0.40196 0.56752 0.0
C848 C 0.79276 0.42096 0.51529 0.0
N849 N 0.79391 0.40487 0.51274 0.0
C850 C 0.82182 0.4093 0.50542 0.0
C851 C 0.80814 0.39892 0.5081 0.0
C852 C 0.82087 0.42601 0.5075 0.0
C853 C 0.80606 0.43176 0.5126 0.0
H854 H 0.78137 0.42539 0.51916 0.0
H855 H 0.80889 0.38611 0.50643 0.0
C856 C 0.75251 0.35051 0.5524 0.0
N857 N 0.76565 0.35888 0.54712 0.0
C858 C 0.75471 0.34159 0.56423 0.0
C859 C 0.78399 0.34989 0.56494 0.0
C860 C 0.78121 0.35867 0.55308 0.0
C861 C 0.77062 0.34118 0.5707 0.0
H862 H 0.74031 0.35065 0.54734 0.0
H863 H 0.79148 0.36531 0.54859 0.0
C864 C 0.76033 0.40317 0.49334 0.0
N865 N 0.7714 0.42823 0.47819 0.0
C866 C 0.75442 0.41819 0.49674 0.0
C867 C 0.77178 0.40085 0.48216 0.0
C868 C 0.76018 0.43072 0.48896 0.0
C869 C 0.77726 0.41369 0.47466 0.0
C870 C 0.72361 0.36429 0.51978 0.0
C871 C 0.71414 0.35928 0.50645 0.0
C872 C 0.71576 0.36841 0.53317 0.0
C873 C 0.69692 0.35856 0.50673 0.0
C874 C 0.69851 0.36756 0.53298 0.0
N875 N 0.68953 0.36269 0.51987 0.0
C876 C 0.75111 0.33702 0.48651 0.0
C877 C 0.75035 0.35826 0.47183 0.0
C878 C 0.7497 0.3257 0.47357 0.0
N879 N 0.75184 0.35297 0.4854 0.0
C880 C 0.74865 0.34735 0.4586 0.0
C881 C 0.74864 0.33078 0.45929 0.0
H882 H 0.75209 0.3331 0.49746 0.0
H883 H 0.75065 0.37098 0.47124 0.0
C884 C 0.72774 0.41275 0.53781 0.0
N885 N 0.72718 0.40261 0.52468 0.0
C886 C 0.71516 0.42275 0.54098 0.0
C887 C 0.70162 0.4118 0.51703 0.0
C888 C 0.71452 0.40205 0.51428 0.0
C889 C 0.70181 0.42238 0.53055 0.0
H890 H 0.73807 0.41324 0.54576 0.0
H891 H 0.71446 0.39404 0.50383 0.0
O892 O 0.77804 0.36779 0.51451 0.0
O893 O 0.76436 0.3951 0.53507 0.0
O894 O 0.75506 0.39083 0.50101 0.0
O895 O 0.74048 0.36534 0.5197 0.0
H896 H 0.77922 0.33912 0.52318 0.0
H897 H 0.79082 0.36742 0.48772 0.0
H898 H 0.79038 0.31598 0.50824 0.0
H899 H 0.80172 0.34375 0.47337 0.0
H900 H 0.75902 0.3934 0.58506 0.0
H901 H 0.79584 0.40266 0.54377 0.0
H902 H 0.74709 0.3909 0.55897 0.0
H903 H 0.8069 0.40497 0.57012 0.0
H904 H 0.83305 0.40426 0.50185 0.0
H905 H 0.80458 0.44447 0.51423 0.0
H906 H 0.74408 0.33486 0.5681 0.0
H907 H 0.79644 0.35007 0.56964 0.0
H908 H 0.74561 0.42022 0.50539 0.0
H909 H 0.77653 0.38932 0.47943 0.0
H910 H 0.75577 0.44244 0.49152 0.0
H911 H 0.78621 0.4121 0.46607 0.0
H912 H 0.72001 0.3561 0.49598 0.0
H913 H 0.72292 0.37247 0.54356 0.0
H914 H 0.68943 0.35475 0.49649 0.0
H915 H 0.69227 0.37083 0.54323 0.0
H916 H 0.74993 0.31314 0.4748 0.0
H917 H 0.74742 0.3519 0.44795 0.0
H918 H 0.71609 0.43091 0.55141 0.0
H919 H 0.69156 0.41096 0.50869 0.0
Li920 Li 0.64935 0.9906 0.75188 0.0
Li921 Li 0.62957 0.00842 0.7637 0.0
Li922 Li 0.62901 1.00088 0.73527 0.0
Li923 Li 0.65098 0.02019 0.7485 0.0
C924 C 0.61942 0.97108 0.75125 0.0
N925 N 0.60897 0.93898 0.75117 0.0
C926 C 0.61309 0.96571 0.76418 0.0
C927 C 0.62019 0.96017 0.73822 0.0
C928 C 0.60794 0.94942 0.76393 0.0
C929 C 0.61491 0.94398 0.73842 0.0
C930 C 0.65752 0.0137 0.78228 0.0
C931 C 0.66152 0.03294 0.80478 0.0
N932 N 0.66412 0.02085 0.81294 0.0
C933 C 0.66044 1.00151 0.79085 0.0
C934 C 0.65825 0.02957 0.78926 0.0
C935 C 0.66368 0.00535 0.80635 0.0
C936 C 0.67718 0.97293 0.7477 0.0
N937 N 0.66247 0.97318 0.75449 0.0
C938 C 0.66775 0.94995 0.7659 0.0
C939 C 0.65764 0.96199 0.76347 0.0
C940 C 0.68309 0.94947 0.75915 0.0
C941 C 0.68769 0.96113 0.74985 0.0
H942 H 0.68087 0.98207 0.74077 0.0
H943 H 0.6462 0.96267 0.76916 0.0
C944 C 0.60454 0.0232 0.78009 0.0
N945 N 0.61608 0.01261 0.78078 0.0
C946 C 0.59453 0.02679 0.7922 0.0
C947 C 0.6081 0.00822 0.80547 0.0
C948 C 0.61786 0.00499 0.79308 0.0
C949 C 0.59627 0.01933 0.80519 0.0
H950 H 0.60299 0.0288 0.77006 0.0
H951 H 0.62679 0.99631 0.79327 0.0
C952 C 0.65712 0.9953 0.71921 0.0
N953 N 0.6646 0.9836 0.69026 0.0
C954 C 0.66277 0.00586 0.70934 0.0
C955 C 0.65557 0.97877 0.71444 0.0
C956 C 0.66639 0.99972 0.69472 0.0
C957 C 0.65934 0.97309 0.69974 0.0
C958 C 0.62455 0.03777 0.74688 0.0
C959 C 0.61797 0.04255 0.7338 0.0
C960 C 0.62892 0.04924 0.75941 0.0
C961 C 0.61618 0.05878 0.73339 0.0
C962 C 0.62695 0.06535 0.75856 0.0
N963 N 0.62069 0.06976 0.74566 0.0
C964 C 0.60142 0.98645 0.71586 0.0
C965 C 0.61977 0.00518 0.70567 0.0
C966 C 0.59128 0.98417 0.70271 0.0
N967 N 0.61541 0.99677 0.71706 0.0
C968 C 0.61004 0.00327 0.69234 0.0
C969 C 0.59553 0.99267 0.69071 0.0
H970 H 0.598 0.98014 0.72518 0.0
H971 H 0.63061 0.01375 0.70708 0.0
C972 C 0.67878 0.04355 0.7556 0.0
N973 N 0.66535 0.03889 0.74608 0.0
C974 C 0.68931 0.05716 0.75376 0.0
C975 C 0.67199 0.06093 0.73241 0.0
C976 C 0.66195 0.04716 0.73453 0.0
C977 C 0.68589 0.0661 0.74209 0.0
H978 H 0.68136 0.03666 0.76458 0.0
H979 H 0.65147 0.04298 0.72686 0.0
O980 O 0.62458 0.98697 0.75133 0.0
O981 O 0.65426 0.01014 0.76711 0.0
O982 O 0.65346 1.00111 0.73355 0.0
O983 O 0.62664 0.02195 0.74742 0.0
H984 H 0.61225 0.974 0.77432 0.0
H985 H 0.62465 0.96418 0.72801 0.0
H986 H 0.60312 0.94508 0.77389 0.0
H987 H 0.61549 0.93541 0.72841 0.0
H988 H 0.66205 0.04516 0.81034 0.0
H989 H 0.66004 0.98918 0.78564 0.0
H990 H 0.65642 0.03921 0.78278 0.0
H991 H 0.66582 0.99601 0.81313 0.0
H992 H 0.66382 0.94145 0.77341 0.0
H993 H 0.69933 0.96119 0.74433 0.0
H994 H 0.58534 0.03515 0.79129 0.0
H995 H 0.60993 1.00219 0.81523 0.0
H996 H 0.66422 0.01868 0.71289 0.0
H997 H 0.65167 0.9704 0.72204 0.0
H998 H 0.67064 0.00778 0.68693 0.0
H999 H 0.65814 0.96033 0.6959 0.0
H1000 H 0.61433 0.03383 0.72406 0.0
H1001 H 0.63374 0.04571 0.76969 0.0
H1002 H 0.6112 0.06266 0.72331 0.0
H1003 H 0.63037 0.07436 0.76815 0.0
H1004 H 0.58025 0.97582 0.70195 0.0
H1005 H 0.61363 0.01037 0.68357 0.0
H1006 H 0.6999 0.06076 0.76148 0.0
H1007 H 0.66907 0.06732 0.72312 0.0
Li1008 Li 0.04385 0.23082 0.87272 0.0
Li1009 Li 0.02812 0.24442 0.89267 0.0
Li1010 Li 0.02988 0.21504 0.89158 0.0
Li1011 Li 0.01365 0.22641 0.87325 0.0
C1012 C 0.06277 0.22747 0.89855 0.0
N1013 N 0.0921 0.21574 0.90604 0.0
C1014 C 0.07279 0.2353 0.91074 0.0
C1015 C 0.06766 0.21367 0.89016 0.0
C1016 C 0.08758 0.22919 0.91435 0.0
C1017 C 0.08253 0.20793 0.89413 0.0
C1018 C 0.0262 0.26224 0.87096 0.0
C1019 C 0.01066 0.28525 0.87568 0.0
N1020 N 0.02393 0.29483 0.87213 0.0
C1021 C 0.03963 0.27228 0.86722 0.0
C1022 C 0.01154 0.26873 0.87509 0.0
C1023 C 0.03825 0.28873 0.86792 0.0
C1024 C 0.06424 0.22351 0.84795 0.0
N1025 N 0.06297 0.23332 0.86105 0.0
C1026 C 0.0888 0.24806 0.8575 0.0
C1027 C 0.07499 0.2453 0.86603 0.0
C1028 C 0.09028 0.23838 0.8437 0.0
C1029 C 0.07779 0.22587 0.83903 0.0
H1030 H 0.05468 0.21391 0.84434 0.0
H1031 H 0.07374 0.25284 0.87657 0.0
C1032 C 0.01499 0.26592 0.91519 0.0
N1033 N 0.0279 0.26393 0.90611 0.0
C1034 C 0.01413 0.28044 0.92448 0.0
C1035 C 0.03997 0.29052 0.91502 0.0
C1036 C 0.04044 0.27573 0.90608 0.0
C1037 C 0.02663 0.29312 0.92436 0.0
H1038 H 0.00529 0.25627 0.91515 0.0
H1039 H 0.05063 0.27377 0.89882 0.0
C1040 C 0.02066 0.19917 0.85878 0.0
N1041 N 1.00125 0.1785 0.83739 0.0
C1042 C 0.01193 0.18541 0.86274 0.0
C1043 C 0.01945 0.20245 0.84394 0.0
C1044 C 1.00223 0.17509 0.85176 0.0
C1045 C 0.00957 0.19185 0.8333 0.0
C1046 C 0.99432 0.22198 0.89621 0.0
C1047 C 0.98997 0.20611 0.89852 0.0
C1048 C 0.98199 0.23227 0.89495 0.0
C1049 C 0.97329 0.20076 0.89938 0.0
C1050 C 0.96545 0.22645 0.89583 0.0
N1051 N 0.96148 0.21095 0.898 0.0
C1052 C 0.03146 0.20372 0.91927 0.0
C1053 C 0.03688 0.18396 0.89921 0.0
C1054 C 0.03423 0.19331 0.92974 0.0
N1055 N 0.03283 0.19894 0.90435 0.0
C1056 C 0.03954 0.17304 0.9093 0.0
C1057 C 0.03837 0.17774 0.92481 0.0
H1058 H 0.02838 0.21575 0.92304 0.0
H1059 H 0.03833 0.18057 0.88732 0.0
C1060 C 0.99287 0.23431 0.85018 0.0
N1061 N 0.99391 0.22346 0.86001 0.0
C1062 C 0.97925 0.23327 0.84012 0.0
C1063 C 0.96802 0.20959 0.85007 0.0
C1064 C 0.98186 0.21115 0.86002 0.0
C1065 C 0.96654 0.22078 0.83993 0.0
H1066 H 1.00268 0.2438 0.85004 0.0
H1067 H 0.98302 0.20239 0.86761 0.0
O1068 O 0.04821 0.23328 0.89497 0.0
O1069 O 0.0274 0.24613 0.87063 0.0
O1070 O 0.03007 0.20952 0.86941 0.0
O1071 O 0.01058 0.22745 0.8954 0.0
H1072 H 0.06915 0.24599 0.91734 0.0
H1073 H 0.06006 0.20743 0.8807 0.0
H1074 H 0.09546 0.23513 0.92376 0.0
H1075 H 0.08646 0.19726 0.88775 0.0
H1076 H 0.99944 0.29045 0.87898 0.0
H1077 H 0.05101 0.26745 0.86387 0.0
H1078 H 1.00101 0.26111 0.87793 0.0
H1079 H 0.04858 0.29666 0.86514 0.0
H1080 H 0.09822 0.25764 0.86172 0.0
H1081 H 0.07827 0.21817 0.82844 0.0
H1082 H 0.00378 0.28168 0.93169 0.0
H1083 H 0.04979 0.29993 0.91432 0.0
H1084 H 0.01242 0.18285 0.87421 0.0
H1085 H 0.02577 0.21325 0.84075 0.0
H1086 H 0.99537 0.16442 0.85468 0.0
H1087 H 0.00844 0.1943 0.82181 0.0
H1088 H 0.99933 0.19796 0.89951 0.0
H1089 H 0.98514 0.2446 0.89324 0.0
H1090 H 0.96974 0.18849 0.90109 0.0
H1091 H 0.95577 0.23426 0.89478 0.0
H1092 H 0.03309 0.19738 0.94158 0.0
H1093 H 0.04291 0.16121 0.90508 0.0
H1094 H 0.97864 0.24231 0.83267 0.0
H1095 H 0.95872 0.19958 0.85018 0.0
Li1096 Li 0.54269 0.73028 0.37207 0.0
Li1097 Li 0.52683 0.74437 0.39261 0.0
Li1098 Li 0.53024 0.71497 0.3909 0.0
Li1099 Li 0.513 0.72518 0.37239 0.0
C1100 C 0.56251 0.72817 0.39776 0.0
N1101 N 0.5924 0.71716 0.40469 0.0
C1102 C 0.57273 0.73634 0.40966 0.0
C1103 C 0.56745 0.71439 0.38939 0.0
C1104 C 0.58781 0.73059 0.41298 0.0
C1105 C 0.58262 0.70902 0.39307 0.0
C1106 C 0.51734 0.75158 0.35992 0.0
C1107 C 0.49411 0.76478 0.35213 0.0
N1108 N 0.49841 0.76173 0.33759 0.0
C1109 C 0.52162 0.74867 0.34493 0.0
C1110 C 0.50356 0.7598 0.3636 0.0
C1111 C 0.51186 0.75387 0.3338 0.0
C1112 C 0.56215 0.72424 0.34649 0.0
N1113 N 0.56125 0.73345 0.36 0.0
C1114 C 0.58692 0.74844 0.35652 0.0
C1115 C 0.57325 0.74539 0.36511 0.0
C1116 C 0.58822 0.73917 0.34248 0.0
C1117 C 0.57558 0.72693 0.33749 0.0
H1118 H 0.55237 0.71487 0.34269 0.0
H1119 H 0.57213 0.75262 0.37585 0.0
C1120 C 0.52242 0.7635 0.42051 0.0
N1121 N 0.5255 0.76378 0.40575 0.0
C1122 C 0.52056 0.77777 0.42989 0.0
C1123 C 0.52546 0.79232 0.40877 0.0
C1124 C 0.52719 0.77779 0.39981 0.0
C1125 C 0.52192 0.79244 0.42401 0.0
H1126 H 0.5211 0.75214 0.42491 0.0
H1127 H 0.52975 0.77766 0.38806 0.0
C1128 C 0.52161 0.69393 0.36462 0.0
N1129 N 0.50583 0.66339 0.35699 0.0
C1130 C 0.50678 0.68951 0.37112 0.0
C1131 C 0.52838 0.68284 0.35421 0.0
C1132 C 0.499 0.67401 0.36713 0.0
C1133 C 0.52023 0.66745 0.3505 0.0
C1134 C 0.4961 0.72689 0.40188 0.0
C1135 C 0.48966 0.71353 0.40823 0.0
C1136 C 0.48815 0.74097 0.40373 0.0
C1137 C 0.47522 0.71442 0.4162 0.0
C1138 C 0.47374 0.74138 0.41178 0.0
N1139 N 0.46763 0.72821 0.41779 0.0
C1140 C 0.53256 0.70411 0.41874 0.0
C1141 C 0.53624 0.68359 0.39877 0.0
C1142 C 0.53518 0.69377 0.42933 0.0
N1143 N 0.53315 0.69892 0.4038 0.0
C1144 C 0.53872 0.67277 0.40899 0.0
C1145 C 0.53835 0.67787 0.42451 0.0
H1146 H 0.53019 0.71638 0.42243 0.0
H1147 H 0.53703 0.67978 0.38688 0.0
C1148 C 0.49544 0.71574 0.34448 0.0
N1149 N 0.4934 0.72113 0.3592 0.0
C1150 C 0.48212 0.71415 0.33397 0.0
C1151 C 0.46466 0.72311 0.35402 0.0
C1152 C 0.47834 0.72464 0.36411 0.0
C1153 C 0.46649 0.718 0.33868 0.0
H1154 H 0.50755 0.71309 0.34082 0.0
H1155 H 0.47695 0.72907 0.37575 0.0
O1156 O 0.54767 0.7336 0.39446 0.0
O1157 O 0.52642 0.74612 0.37091 0.0
O1158 O 0.5295 0.70903 0.36831 0.0
O1159 O 0.51041 0.7263 0.39431 0.0
H1160 H 0.56904 0.747 0.41626 0.0
H1161 H 0.55968 0.70787 0.38017 0.0
H1162 H 0.59586 0.73679 0.42216 0.0
H1163 H 0.5866 0.69837 0.3867 0.0
H1164 H 0.48332 0.77103 0.35479 0.0
H1165 H 0.53223 0.74228 0.34191 0.0
H1166 H 0.50008 0.76211 0.37515 0.0
H1167 H 0.51494 0.7516 0.32213 0.0
H1168 H 0.59624 0.75814 0.36074 0.0
H1169 H 0.57614 0.71939 0.32681 0.0
H1170 H 0.5177 0.77726 0.44152 0.0
H1171 H 0.52692 0.80334 0.4038 0.0
H1172 H 0.5013 0.69793 0.37913 0.0
H1173 H 0.53985 0.68609 0.34907 0.0
H1174 H 0.48753 0.67044 0.37208 0.0
H1175 H 0.52535 0.65873 0.34248 0.0
H1176 H 0.49576 0.7026 0.40704 0.0
H1177 H 0.49296 0.75141 0.39889 0.0
H1178 H 0.47007 0.70417 0.42115 0.0
H1179 H 0.46742 0.75217 0.41324 0.0
H1180 H 0.53466 0.69817 0.44118 0.0
H1181 H 0.54133 0.66066 0.40482 0.0
H1182 H 0.48405 0.71003 0.32228 0.0
H1183 H 0.4529 0.7264 0.35813 0.0
Li1184 Li 0.0178 0.77775 0.64077 0.0
Li1185 Li 0.99902 0.76649 0.66085 0.0
Li1186 Li 0.02869 0.76153 0.65965 0.0
Li1187 Li 0.00951 0.74921 0.63983 0.0
C1188 C 0.03002 0.79058 0.67429 0.0
N1189 N 0.05312 0.80489 0.69635 0.0
C1190 C 0.02635 0.79129 0.68944 0.0
C1191 C 0.04538 0.79721 0.67033 0.0
C1192 C 0.03821 0.79857 0.70043 0.0
C1193 C 0.05691 0.80437 0.68166 0.0
C1194 C 0.9823 0.75895 0.62909 0.0
C1195 C 0.95774 0.74041 0.62426 0.0
N1196 N 0.95797 0.74219 0.60944 0.0
C1197 C 0.9822 0.76072 0.61384 0.0
C1198 C 0.9699 0.74883 0.63438 0.0
C1199 C 0.96982 0.7521 0.60407 0.0
C1200 C 0.02281 0.79056 0.61383 0.0
N1201 N 0.02234 0.7948 0.62893 0.0
C1202 C 0.02817 0.82256 0.62616 0.0
C1203 C 0.02496 0.81043 0.63523 0.0
C1204 C 0.02855 0.81855 0.61047 0.0
C1205 C 0.02587 0.80226 0.60436 0.0
H1206 H 0.0208 0.77804 0.60912 0.0
H1207 H 0.0245 0.8135 0.64728 0.0
C1208 C 0.98236 0.76406 0.68754 0.0
N1209 N 0.98159 0.7702 0.67432 0.0
C1210 C 0.96982 0.76597 0.69771 0.0
C1211 C 0.95613 0.78097 0.68074 0.0
C1212 C 0.96885 0.77857 0.67077 0.0
C1213 C 0.95642 0.77457 0.69446 0.0
H1214 H 0.99268 0.75751 0.69011 0.0
H1215 H 0.96858 0.7834 0.6602 0.0
C1216 C 0.0415 0.74989 0.62983 0.0
N1217 N 0.06015 0.72882 0.6132 0.0
C1218 C 0.04394 0.73511 0.6345 0.0
C1219 C 0.04864 0.75401 0.61675 0.0
C1220 C 0.05337 0.72461 0.62593 0.0
C1221 C 0.05801 0.74318 0.60848 0.0
C1222 C 0.0052 0.73202 0.66614 0.0
C1223 C 0.01747 0.72219 0.66918 0.0
C1224 C 0.98866 0.72708 0.66834 0.0
C1225 C 0.01295 0.70744 0.67408 0.0
C1226 C 0.98465 0.71225 0.67326 0.0
N1227 N 0.99678 0.7028 0.67598 0.0
C1228 C 0.04452 0.75611 0.68666 0.0
C1229 C 0.06286 0.75957 0.66712 0.0
C1230 C 0.0576 0.75375 0.69633 0.0
N1231 N 0.04735 0.7589 0.67235 0.0
C1232 C 0.0763 0.75715 0.67638 0.0
C1233 C 0.07379 0.75412 0.69123 0.0
H1234 H 0.03205 0.75569 0.69053 0.0
H1235 H 0.06479 0.76186 0.65572 0.0
C1236 C 0.00809 0.73231 0.61053 0.0
N1237 N 0.00437 0.73045 0.6249 0.0
C1238 C 0.00535 0.71941 0.59899 0.0
C1239 C 0.99467 0.70285 0.6171 0.0
C1240 C 0.99764 0.71608 0.62829 0.0
C1241 C 0.99863 0.70436 0.6022 0.0
H1242 H 0.01329 0.74386 0.60803 0.0
H1243 H 0.99452 0.71476 0.63964 0.0
O1244 O 0.01881 0.78303 0.66339 0.0
O1245 O 0.99457 0.76689 0.63878 0.0
O1246 O 0.03201 0.7602 0.6379 0.0
O1247 O 0.00938 0.74661 0.6615 0.0
H1248 H 0.01453 0.78613 0.69267 0.0
H1249 H 0.04843 0.79661 0.65863 0.0
H1250 H 0.03559 0.79915 0.71221 0.0
H1251 H 0.0689 0.80946 0.67877 0.0
H1252 H 0.94813 0.73246 0.6282 0.0
H1253 H 0.99164 0.76856 0.60956 0.0
H1254 H 0.96973 0.74745 0.64617 0.0
H1255 H 0.96966 0.75325 0.59222 0.0
H1256 H 0.03004 0.83496 0.63135 0.0
H1257 H 0.0263 0.79856 0.59238 0.0
H1258 H 0.97057 0.76052 0.70793 0.0
H1259 H 0.94628 0.78792 0.67777 0.0
H1260 H 0.03844 0.73174 0.64454 0.0
H1261 H 0.04695 0.76543 0.613 0.0
H1262 H 0.05527 0.71309 0.62938 0.0
H1263 H 0.06356 0.74619 0.59831 0.0
H1264 H 0.03036 0.72592 0.6679 0.0
H1265 H 0.979 0.73457 0.66621 0.0
H1266 H 0.02233 0.69969 0.67643 0.0
H1267 H 0.9719 0.70825 0.67491 0.0
H1268 H 0.05504 0.75174 0.70772 0.0
H1269 H 0.08848 0.75736 0.67184 0.0
H1270 H 0.00875 0.72116 0.58772 0.0
H1271 H 0.98919 0.69159 0.62007 0.0
Li1272 Li 0.51782 0.27574 0.1398 0.0
Li1273 Li 0.49882 0.26444 0.15955 0.0
Li1274 Li 0.52829 0.2598 0.15839 0.0
Li1275 Li 0.50934 0.24708 0.13864 0.0
C1276 C 0.53001 0.28865 0.17288 0.0
N1277 N 0.5539 0.30291 0.19424 0.0
C1278 C 0.52792 0.28741 0.18807 0.0
C1279 C 0.54418 0.29721 0.16853 0.0
C1280 C 0.54016 0.29468 0.19871 0.0
C1281 C 0.55613 0.30433 0.17951 0.0
C1282 C 0.48396 0.25765 0.12604 0.0
C1283 C 0.45918 0.24064 0.11727 0.0
N1284 N 0.46297 0.24205 0.10283 0.0
C1285 C 0.48755 0.25905 0.11113 0.0
C1286 C 0.46962 0.24848 0.12917 0.0
C1287 C 0.47681 0.25103 0.09955 0.0
C1288 C 0.52996 0.28856 0.11472 0.0
N1289 N 0.52282 0.29267 0.12797 0.0
C1290 C 0.52341 0.32002 0.12336 0.0
C1291 C 0.51948 0.30803 0.13244 0.0
C1292 C 0.53095 0.31614 0.10964 0.0
C1293 C 0.53417 0.30013 0.10537 0.0
H1294 H 0.53233 0.27623 0.11137 0.0
H1295 H 0.5138 0.31097 0.14305 0.0
C1296 C 0.48187 0.26248 0.18624 0.0
N1297 N 0.4812 0.26827 0.17283 0.0
C1298 C 0.469 0.26419 0.19609 0.0
C1299 C 0.45525 0.27846 0.17849 0.0
C1300 C 0.46829 0.27622 0.16883 0.0
C1301 C 0.45543 0.27223 0.19225 0.0
H1302 H 0.49233 0.25629 0.18918 0.0
H1303 H 0.46806 0.28071 0.1581 0.0
C1304 C 0.54372 0.24789 0.13278 0.0
N1305 N 0.56812 0.22788 0.12548 0.0
C1306 C 0.54267 0.23254 0.13707 0.0
C1307 C 0.55717 0.25308 0.12476 0.0
C1308 C 0.55512 0.22259 0.13327 0.0
C1309 C 0.56939 0.24278 0.12118 0.0
C1310 C 0.50234 0.23011 0.16392 0.0
C1311 C 0.51249 0.21848 0.16736 0.0
C1312 C 0.48521 0.22722 0.16475 0.0
C1313 C 0.50531 0.20402 0.17128 0.0
C1314 C 0.4785 0.21262 0.16873 0.0
N1315 N 0.4886 0.20141 0.17187 0.0
C1316 C 0.54482 0.25101 0.18393 0.0
C1317 C 0.5627 0.26177 0.16668 0.0
C1318 C 0.55832 0.24858 0.19311 0.0
N1319 N 0.54723 0.25735 0.17093 0.0
C1320 C 0.57655 0.25941 0.17544 0.0
C1321 C 0.57446 0.25261 0.1888 0.0
H1322 H 0.53237 0.24774 0.18711 0.0
H1323 H 0.5643 0.2671 0.15646 0.0
C1324 C 0.51163 0.22875 0.11028 0.0
N1325 N 0.5042 0.22834 0.12361 0.0
C1326 C 0.50888 0.21581 0.09876 0.0
C1327 C 0.49057 0.20229 0.11468 0.0
C1328 C 0.49365 0.21551 0.12587 0.0
C1329 C 0.49829 0.20226 0.10089 0.0
H1330 H 0.51965 0.23922 0.10852 0.0
H1331 H 0.48751 0.21545 0.13629 0.0
O1332 O 0.51848 0.28114 0.16226 0.0
O1333 O 0.49461 0.26496 0.1375 0.0
O1334 O 0.53175 0.25792 0.1365 0.0
O1335 O 0.50921 0.24449 0.16041 0.0
H1336 H 0.51706 0.28073 0.19158 0.0
H1337 H 0.546 0.29817 0.15678 0.0
H1338 H 0.53878 0.29374 0.2105 0.0
H1339 H 0.56721 0.31092 0.17631 0.0
H1340 H 0.44808 0.23341 0.11951 0.0
H1341 H 0.49864 0.26608 0.10854 0.0
H1342 H 0.46664 0.24734 0.14065 0.0
H1343 H 0.47949 0.25188 0.08795 0.0
H1344 H 0.5208 0.33221 0.12714 0.0
H1345 H 0.53968 0.29651 0.09479 0.0
H1346 H 0.4697 0.25937 0.20666 0.0
H1347 H 0.44498 0.28467 0.1751 0.0
H1348 H 0.53231 0.22833 0.14319 0.0
H1349 H 0.55821 0.26497 0.12142 0.0
H1350 H 0.55445 0.21067 0.13651 0.0
H1351 H 0.57989 0.24665 0.11501 0.0
H1352 H 0.5258 0.2206 0.1671 0.0
H1353 H 0.47714 0.23605 0.16214 0.0
H1354 H 0.51302 0.1949 0.17391 0.0
H1355 H 0.46525 0.2102 0.1693 0.0
H1356 H 0.55616 0.24326 0.20329 0.0
H1357 H 0.58876 0.26293 0.17182 0.0
H1358 H 0.51484 0.21653 0.08823 0.0
H1359 H 0.48236 0.19211 0.1169 0.0
H1360 H 0.27943 0.72852 0.84607 0.0
H1361 H 0.27694 0.74565 0.86984 0.0
H1362 H 0.22539 0.74848 0.85874 0.0
H1363 H 0.22778 0.73123 0.83487 0.0
H1364 H 0.2404 0.77754 0.86933 0.0
H1365 H 0.23728 0.72554 0.88526 0.0
H1366 H 0.24611 0.69873 0.8874 0.0
H1367 H 0.29182 0.72036 0.9096 0.0
H1368 H 0.28336 0.7473 0.90741 0.0
H1369 H 0.22404 0.81542 0.94248 0.0
H1370 H 0.22351 0.79641 0.91936 0.0
H1371 H 0.27518 0.79102 0.92716 0.0
H1372 H 0.27583 0.81003 0.95022 0.0
H1373 H 0.25829 0.76245 0.91844 0.0
H1374 H 0.26213 0.81425 0.90129 0.0
H1375 H 0.25359 0.84112 0.89896 0.0
H1376 H 0.2067 0.81985 0.87895 0.0
H1377 H 0.21488 0.79284 0.88136 0.0
C1378 C 0.26747 0.73254 0.84877 0.0
C1379 C 0.25376 0.72837 0.83859 0.0
C1380 C 0.26608 0.74239 0.86237 0.0
C1381 C 0.25093 0.74821 0.8662 0.0
C1382 C 0.23721 0.74412 0.85605 0.0
C1383 C 0.2386 0.73428 0.8424 0.0
C1384 C 0.24957 0.75892 0.88059 0.0
C1385 C 0.24404 0.77412 0.8801 0.0
C1386 C 0.25465 0.75463 0.89463 0.0
C1387 C 0.25974 0.73844 0.89606 0.0
C1388 C 0.24926 0.72458 0.8905 0.0
C1389 C 0.2542 0.70936 0.89174 0.0
C1390 C 0.26953 0.70784 0.8986 0.0
C1391 C 0.27995 0.72155 0.90428 0.0
C1392 C 0.27508 0.7368 0.90305 0.0
C1393 C 0.23532 0.81027 0.93922 0.0
C1394 C 0.24999 0.81429 0.94823 0.0
C1395 C 0.23499 0.79938 0.926 0.0
C1396 C 0.24935 0.79237 0.92142 0.0
C1397 C 0.26393 0.79621 0.93047 0.0
C1398 C 0.26427 0.80706 0.9437 0.0
C1399 C 0.24927 0.78112 0.90716 0.0
C1400 C 0.25454 0.76581 0.90769 0.0
C1401 C 0.24397 0.78532 0.89315 0.0
C1402 C 0.23905 0.80154 0.89166 0.0
C1403 C 0.24994 0.81531 0.89651 0.0
C1404 C 0.24518 0.83056 0.89515 0.0
C1405 C 0.22959 0.83219 0.88885 0.0
C1406 C 0.21876 0.81857 0.88385 0.0
C1407 C 0.22346 0.80328 0.8852 0.0
H1408 H 0.22593 0.84401 0.88781 0.0
H1409 H 0.27333 0.69605 0.89955 0.0
H1410 H 0.01025 0.55048 0.42476 0.0
H1411 H 0.03075 0.54023 0.40749 0.0
H1412 H 0.99492 0.53623 0.37039 0.0
H1413 H 0.97428 0.54578 0.3876 0.0
H1414 H 0.01275 0.51181 0.36666 0.0
H1415 H 0.02442 0.56927 0.37918 0.0
H1416 H 0.03088 0.5946 0.39629 0.0
H1417 H 0.07537 0.57744 0.41229 0.0
H1418 H 0.06905 0.5519 0.3954 0.0
H1419 H 0.06074 0.51956 0.30335 0.0
H1420 H 0.04242 0.5238 0.32426 0.0
H1421 H 0.08299 0.52129 0.3557 0.0
H1422 H 0.1015 0.51722 0.33477 0.0
H1423 H 0.0648 0.54682 0.3643 0.0
H1424 H 0.05417 0.49033 0.34886 0.0
H1425 H 0.04746 0.46571 0.33086 0.0
H1426 H 1.00064 0.48172 0.31946 0.0
H1427 H 0.00717 0.50656 0.33724 0.0
C1428 C 0.00664 0.54707 0.41298 0.0
C1429 C 0.99067 0.54916 0.40754 0.0
C1430 C 0.01843 0.54138 0.40308 0.0
C1431 C 0.01452 0.53776 0.38756 0.0
C1432 C 0.99832 0.53902 0.38227 0.0
C1433 C 0.98655 0.54462 0.39213 0.0
C1434 C 0.02732 0.53344 0.37662 0.0
C1435 C 0.02409 0.51952 0.36611 0.0
C1436 C 0.04233 0.54327 0.37605 0.0
C1437 C 0.04616 0.55862 0.38617 0.0
C1438 C 0.03551 0.57086 0.38643 0.0
C1439 C 0.03916 0.58526 0.39608 0.0
C1440 C 0.0535 0.58761 0.40541 0.0
C1441 C 0.06425 0.57558 0.40508 0.0
C1442 C 0.06065 0.56115 0.39547 0.0
C1443 C 0.0658 0.51998 0.31471 0.0
C1444 C 0.0826 0.51807 0.31739 0.0
C1445 C 0.05528 0.52227 0.32666 0.0
C1446 C 0.06129 0.52271 0.34155 0.0
C1447 C 0.07807 0.52092 0.3443 0.0
C1448 C 0.0886 0.5185 0.33233 0.0
C1449 C 0.05005 0.52538 0.3542 0.0
C1450 C 0.05358 0.53899 0.365 0.0
C1451 C 0.03525 0.51534 0.35495 0.0
C1452 C 0.03122 0.50037 0.34431 0.0
C1453 C 0.0425 0.48866 0.34244 0.0
C1454 C 0.03871 0.47465 0.33228 0.0
C1455 C 0.02364 0.47216 0.324 0.0
C1456 C 0.01231 0.48366 0.32588 0.0
C1457 C 0.01604 0.4977 0.33601 0.0
H1458 H 0.02074 0.46131 0.31614 0.0
H1459 H 0.05631 0.59877 0.41286 0.0
H1460 H 0.84081 0.76515 0.8386 0.0
H1461 H 0.83749 0.74695 0.85757 0.0
H1462 H 0.7848 0.74998 0.85565 0.0
H1463 H 0.78812 0.76841 0.83687 0.0
H1464 H 0.79519 0.75286 0.88361 0.0
H1465 H 0.80319 0.71579 0.83992 0.0
H1466 H 0.81722 0.70488 0.81742 0.0
H1467 H 0.8603 0.70022 0.84481 0.0
H1468 H 0.84661 0.71132 0.86746 0.0
H1469 H 0.77376 0.68778 0.92453 0.0
H1470 H 0.77691 0.70457 0.90444 0.0
H1471 H 0.82992 0.70642 0.91011 0.0
H1472 H 0.82693 0.68998 0.93048 0.0
H1473 H 0.81922 0.70065 0.88016 0.0
H1474 H 0.81071 0.73806 0.92383 0.0
H1475 H 0.79613 0.74858 0.94612 0.0
H1476 H 0.75308 0.752 0.91821 0.0
H1477 H 0.76734 0.74127 0.89576 0.0
C1478 C 0.82849 0.76175 0.84206 0.0
C1479 C 0.81472 0.7682 0.83619 0.0
C1480 C 0.8266 0.75132 0.85292 0.0
C1481 C 0.81086 0.7469 0.85798 0.0
C1482 C 0.79708 0.7532 0.85199 0.0
C1483 C 0.79899 0.76374 0.84124 0.0
C1484 C 0.80881 0.73617 0.86988 0.0
C1485 C 0.80024 0.74133 0.88271 0.0
C1486 C 0.81568 0.72125 0.86896 0.0
C1487 C 0.82393 0.71453 0.85537 0.0
C1488 C 0.8157 0.71255 0.84113 0.0
C1489 C 0.82359 0.70632 0.82835 0.0
C1490 C 0.83965 0.7019 0.82968 0.0
C1491 C 0.84786 0.70367 0.84379 0.0
C1492 C 0.84004 0.70992 0.85661 0.0
C1493 C 0.78611 0.69188 0.92166 0.0
C1494 C 0.80008 0.68752 0.92924 0.0
C1495 C 0.78789 0.70144 0.91009 0.0
C1496 C 0.80366 0.70686 0.90582 0.0
C1497 C 0.81763 0.70234 0.91317 0.0
C1498 C 0.81587 0.69286 0.9248 0.0
C1499 C 0.80559 0.71736 0.89378 0.0
C1500 C 0.81415 0.71216 0.88098 0.0
C1501 C 0.79861 0.73219 0.89466 0.0
C1502 C 0.79004 0.73871 0.90814 0.0
C1503 C 0.79809 0.74093 0.92246 0.0
C1504 C 0.78989 0.74695 0.93512 0.0
C1505 C 0.77367 0.75092 0.93359 0.0
C1506 C 0.76564 0.7489 0.91938 0.0
C1507 C 0.77377 0.74286 0.90669 0.0
H1508 H 0.76735 0.75558 0.9434 0.0
H1509 H 0.84573 0.69707 0.81977 0.0
H1510 H 0.04233 0.94917 0.43428 0.0
H1511 H 0.02489 0.95583 0.41401 0.0
H1512 H 0.03337 0.00606 0.43179 0.0
H1513 H 0.0495 0.99936 0.453 0.0
H1514 H 0.0042 1.00148 0.42132 0.0
H1515 H 0.05492 0.98729 0.40086 0.0
H1516 H 0.0779 0.97061 0.39532 0.0
H1517 H 0.04412 0.93318 0.3712 0.0
H1518 H 0.02089 0.94957 0.37677 0.0
H1519 H 0.99482 0.00585 0.334 0.0
H1520 H 0.01119 1.00147 0.35619 0.0
H1521 H 0.96625 0.99241 0.37934 0.0
H1522 H 0.95001 0.99777 0.35745 0.0
H1523 H 0.0149 0.97798 0.36936 0.0
H1524 H 0.9718 1.00021 0.41671 0.0
H1525 H 0.9523 0.02078 0.42192 0.0
H1526 H 0.97697 0.04923 0.39155 0.0
H1527 H 0.99674 0.02894 0.38631 0.0
C1528 C 0.04019 0.96162 0.4342 0.0
C1529 C 0.04755 0.97371 0.44539 0.0
C1530 C 0.03041 0.96545 0.42235 0.0
C1531 C 0.02814 0.98152 0.42103 0.0
C1532 C 0.03501 0.99357 0.4324 0.0
C1533 C 0.04447 0.98972 0.44447 0.0
C1534 C 0.0189 0.98576 0.4077 0.0
C1535 C 0.00657 0.99634 0.40996 0.0
C1536 C 0.02222 0.97948 0.39278 0.0
C1537 C 0.03615 0.9696 0.38935 0.0
C1538 C 0.05238 0.97546 0.39446 0.0
C1539 C 0.06545 0.96607 0.39131 0.0
C1540 C 0.06246 0.95083 0.38295 0.0
C1541 C 0.0464 0.94498 0.37769 0.0
C1542 C 0.03328 0.95432 0.38083 0.0
C1543 C 0.98851 1.00307 0.34391 0.0
C1544 C 0.97121 1.00225 0.3441 0.0
C1545 C 0.99785 1.0005 0.35658 0.0
C1546 C 0.99005 0.99679 0.36963 0.0
C1547 C 0.97267 0.9957 0.36966 0.0
C1548 C 0.96337 0.99866 0.35712 0.0
C1549 C 1.00008 0.99362 0.38296 0.0
C1550 C 0.01254 0.98318 0.3807 0.0
C1551 C 0.99739 1.00062 0.39782 0.0
C1552 C 0.98564 0.01296 0.40101 0.0
C1553 C 0.9731 0.01088 0.41119 0.0
C1554 C 0.96199 0.02249 0.41414 0.0
C1555 C 0.96337 0.03627 0.40703 0.0
C1556 C 0.97588 0.03851 0.397 0.0
C1557 C 0.98703 0.02695 0.39402 0.0
H1558 H 0.95475 0.04524 0.40932 0.0
H1559 H 0.0726 0.94357 0.38052 0.0
H1560 H 0.23831 0.25617 0.68218 0.0
H1561 H 0.23989 0.24198 0.65674 0.0
H1562 H 0.29035 0.26237 0.65522 0.0
H1563 H 0.28876 0.27671 0.68053 0.0
H1564 H 0.27482 0.26249 0.62905 0.0
H1565 H 0.28059 0.22349 0.6627 0.0
H1566 H 0.27261 0.20798 0.68319 0.0
H1567 H 0.22765 0.18858 0.65834 0.0
H1568 H 0.23526 0.20416 0.63778 0.0
H1569 H 0.30198 0.20651 0.57069 0.0
H1570 H 0.29799 0.22281 0.59463 0.0
H1571 H 0.24666 0.20421 0.5925 0.0
H1572 H 0.25042 0.1881 0.56838 0.0
H1573 H 0.26162 0.20337 0.62007 0.0
H1574 H 0.25717 0.24191 0.58572 0.0
H1575 H 0.26614 0.2572 0.56536 0.0
H1576 H 0.30995 0.27711 0.59173 0.0
H1577 H 0.30136 0.26176 0.61218 0.0
C1578 C 0.24972 0.25764 0.6764 0.0
C1579 C 0.26341 0.26754 0.68338 0.0
C1580 C 0.25063 0.24951 0.66187 0.0
C1581 C 0.26533 0.2509 0.65412 0.0
C1582 C 0.27887 0.26111 0.66094 0.0
C1583 C 0.27792 0.26934 0.67541 0.0
C1584 C 0.2668 0.24145 0.63909 0.0
C1585 C 0.2721 0.24954 0.62714 0.0
C1586 C 0.26298 0.22457 0.63647 0.0
C1587 C 0.25842 0.21512 0.64878 0.0
C1588 C 0.26894 0.21601 0.66165 0.0
C1589 C 0.26449 0.20719 0.67327 0.0
C1590 C 0.24961 0.19734 0.67208 0.0
C1591 C 0.23916 0.19624 0.65925 0.0
C1592 C 0.24354 0.20505 0.64761 0.0
C1593 C 0.28976 0.20605 0.57516 0.0
C1594 C 0.27652 0.19597 0.56754 0.0
C1595 C 0.28752 0.21535 0.5889 0.0
C1596 C 0.272 0.21481 0.59532 0.0
C1597 C 0.25876 0.20478 0.58778 0.0
C1598 C 0.26096 0.19553 0.57401 0.0
C1599 C 0.26968 0.2244 0.61008 0.0
C1600 C 0.26425 0.21633 0.62198 0.0
C1601 C 0.27353 0.24126 0.61267 0.0
C1602 C 0.27869 0.25057 0.60042 0.0
C1603 C 0.26878 0.24945 0.58713 0.0
C1604 C 0.27378 0.25815 0.57558 0.0
C1605 C 0.28862 0.26809 0.57724 0.0
C1606 C 0.29847 0.26939 0.59046 0.0
C1607 C 0.29353 0.26071 0.60204 0.0
H1608 H 0.29248 0.27481 0.56828 0.0
H1609 H 0.24618 0.19052 0.68109 0.0
H1610 H 0.5653 0.52826 0.61348 0.0
H1611 H 0.54913 0.52492 0.63552 0.0
H1612 H 0.50526 0.53465 0.61132 0.0
H1613 H 0.52166 0.53871 0.58948 0.0
H1614 H 0.50534 0.54984 0.63763 0.0
H1615 H 0.51334 0.49549 0.61957 0.0
H1616 H 0.5289 0.47255 0.6108 0.0
H1617 H 0.55598 0.47859 0.65332 0.0
H1618 H 0.54074 0.5017 0.66228 0.0
H1619 H 0.44885 0.51994 0.68946 0.0
H1620 H 0.46477 0.5224 0.66701 0.0
H1621 H 0.51017 0.5266 0.694 0.0
H1622 H 0.49428 0.52434 0.71656 0.0
H1623 H 0.50875 0.5039 0.66639 0.0
H1624 H 0.49946 0.55885 0.68375 0.0
H1625 H 0.48225 0.58071 0.69182 0.0
H1626 H 0.45528 0.57172 0.64918 0.0
H1627 H 0.47218 0.54963 0.64094 0.0
C1628 C 0.55216 0.52948 0.61282 0.0
C1629 C 0.54471 0.53362 0.59973 0.0
C1630 C 0.54288 0.52752 0.62542 0.0
C1631 C 0.52584 0.52925 0.6251 0.0
C1632 C 0.51836 0.53324 0.61193 0.0
C1633 C 0.52771 0.5355 0.59942 0.0
C1634 C 0.51596 0.5275 0.63864 0.0
C1635 C 0.50593 0.53964 0.64373 0.0
C1636 C 0.51684 0.51435 0.64688 0.0
C1637 C 0.526 0.50043 0.64155 0.0
C1638 C 0.5227 0.492 0.62701 0.0
C1639 C 0.53145 0.47895 0.62201 0.0
C1640 C 0.54345 0.47414 0.63148 0.0
C1641 C 0.54669 0.48234 0.64599 0.0
C1642 C 0.53799 0.4954 0.65104 0.0
C1643 C 0.46223 0.52138 0.6906 0.0
C1644 C 0.47034 0.52197 0.70476 0.0
C1645 C 0.4713 0.52283 0.67778 0.0
C1646 C 0.48865 0.5247 0.67885 0.0
C1647 C 0.49679 0.52516 0.69294 0.0
C1648 C 0.48771 0.52397 0.70582 0.0
C1649 C 0.49827 0.5262 0.66523 0.0
C1650 C 0.5082 0.51403 0.66018 0.0
C1651 C 0.49708 0.53914 0.65687 0.0
C1652 C 0.48697 0.55248 0.66179 0.0
C1653 C 0.48976 0.56144 0.67615 0.0
C1654 C 0.48008 0.57389 0.68074 0.0
C1655 C 0.46764 0.57758 0.67104 0.0
C1656 C 0.4649 0.56884 0.6567 0.0
C1657 C 0.47453 0.55636 0.65205 0.0
H1658 H 0.46017 0.58723 0.67462 0.0
H1659 H 0.5502 0.46404 0.62759 0.0
H1660 H 0.81128 0.2596 0.67818 0.0
H1661 H 0.8076 0.26897 0.65364 0.0
H1662 H 0.76324 0.28954 0.66825 0.0
H1663 H 0.76677 0.28009 0.69261 0.0
H1664 H 0.75976 0.27599 0.63898 0.0
H1665 H 0.79977 0.31239 0.67069 0.0
H1666 H 0.82546 0.31962 0.68642 0.0
H1667 H 0.85406 0.30342 0.649 0.0
H1668 H 0.82849 0.29589 0.6331 0.0
H1669 H 0.75117 0.33812 0.59473 0.0
H1670 H 0.7551 0.32222 0.61515 0.0
H1671 H 0.79986 0.30687 0.59588 0.0
H1672 H 0.79597 0.32272 0.57533 0.0
H1673 H 0.80436 0.31509 0.62561 0.0
H1674 H 0.76435 0.2813 0.59307 0.0
H1675 H 0.7386 0.27436 0.57738 0.0
H1676 H 0.70997 0.28552 0.61606 0.0
H1677 H 0.73555 0.29275 0.63196 0.0
C1678 C 0.80055 0.26579 0.676 0.0
C1679 C 0.78938 0.26923 0.68734 0.0
C1680 C 0.79852 0.27125 0.66203 0.0
C1681 C 0.78527 0.28019 0.65918 0.0
C1682 C 0.77358 0.28274 0.67019 0.0
C1683 C 0.77565 0.27739 0.68413 0.0
C1684 C 0.78404 0.28784 0.64522 0.0
C1685 C 0.76947 0.28459 0.63608 0.0
C1686 C 0.79686 0.29881 0.64124 0.0
C1687 C 0.81222 0.3034 0.65076 0.0
C1688 C 0.81153 0.31025 0.66585 0.0
C1689 C 0.82607 0.31442 0.6748 0.0
C1690 C 0.84138 0.31193 0.66873 0.0
C1691 C 0.84219 0.30531 0.65369 0.0
C1692 C 0.82768 0.30109 0.64471 0.0
C1693 C 0.76177 0.33124 0.59472 0.0
C1694 C 0.7732 0.33166 0.5833 0.0
C1695 C 0.76401 0.32214 0.60643 0.0
C1696 C 0.77765 0.31313 0.60696 0.0
C1697 C 0.78922 0.31369 0.59571 0.0
C1698 C 0.787 0.32282 0.58399 0.0
C1699 C 0.77996 0.30341 0.61944 0.0
C1700 C 0.79472 0.30631 0.62833 0.0
C1701 C 0.76731 0.29211 0.62318 0.0
C1702 C 0.75188 0.28769 0.61368 0.0
C1703 C 0.75256 0.28239 0.59821 0.0
C1704 C 0.738 0.27838 0.58928 0.0
C1705 C 0.72266 0.27953 0.59571 0.0
C1706 C 0.72186 0.28465 0.61109 0.0
C1707 C 0.73639 0.28869 0.62007 0.0
H1708 H 0.7114 0.27642 0.58878 0.0
H1709 H 0.85262 0.31518 0.67567 0.0
H1710 H 0.53158 0.99106 0.55823 0.0
H1711 H 0.54679 0.9901 0.58189 0.0
H1712 H 0.50097 0.98722 0.60472 0.0
H1713 H 0.48558 0.98799 0.58096 0.0
H1714 H 0.52425 0.00856 0.62059 0.0
H1715 H 0.52142 0.95415 0.59682 0.0
H1716 H 0.52445 0.93239 0.5762 0.0
H1717 H 0.57668 0.94605 0.57686 0.0
H1718 H 0.57393 0.96806 0.59734 0.0
H1719 H 0.56161 0.9901 0.68811 0.0
H1720 H 0.54408 0.98826 0.66519 0.0
H1721 H 0.58744 0.98993 0.63879 0.0
H1722 H 0.60501 0.99123 0.66159 0.0
H1723 H 0.56394 0.96804 0.62524 0.0
H1724 H 0.5667 0.0232 0.64779 0.0
H1725 H 0.56393 0.04539 0.66808 0.0
H1726 H 0.51211 0.03062 0.66945 0.0
H1727 H 0.51462 0.0082 0.6493 0.0
C1728 C 0.52468 0.98999 0.56822 0.0
C1729 C 0.50731 0.98944 0.56763 0.0
C1730 C 0.53342 0.9895 0.58177 0.0
C1731 C 0.52502 0.98837 0.59506 0.0
C1732 C 0.50771 0.98806 0.5946 0.0
C1733 C 0.49893 0.98855 0.58101 0.0
C1734 C 0.5344 0.98772 0.60944 0.0
C1735 C 0.53271 0.99953 0.6217 0.0
C1736 C 0.54572 0.97615 0.61079 0.0
C1737 C 0.54744 0.96284 0.59854 0.0
C1738 C 0.53354 0.95259 0.59249 0.0
C1739 C 0.53521 0.9402 0.58084 0.0
C1740 C 0.55074 0.93786 0.5752 0.0
C1741 C 0.56465 0.94788 0.58123 0.0
C1742 C 0.56305 0.96031 0.59287 0.0
C1743 C 0.56742 0.98985 0.67741 0.0
C1744 C 0.58475 0.99089 0.67672 0.0
C1745 C 0.55738 0.98896 0.66432 0.0
C1746 C 0.56444 0.98918 0.65026 0.0
C1747 C 0.5817 0.98981 0.6495 0.0
C1748 C 0.59174 0.99069 0.66257 0.0
C1749 C 0.55391 0.98898 0.63635 0.0
C1750 C 0.55538 0.977 0.62418 0.0
C1751 C 0.54243 1.00042 0.63506 0.0
C1752 C 0.54089 0.01391 0.64716 0.0
C1753 C 0.55474 0.0246 0.65251 0.0
C1754 C 0.55322 0.03724 0.66396 0.0
C1755 C 0.53786 0.03938 0.67008 0.0
C1756 C 0.524 0.02893 0.66472 0.0
C1757 C 0.52546 0.01626 0.65327 0.0
H1758 H 0.5367 0.04918 0.67895 0.0
H1759 H 0.55201 0.92826 0.56617 0.0
H1760 H 0.85568 0.2298 0.73544 0.0
H1761 H 0.88004 0.22967 0.75226 0.0
H1762 H 0.84948 0.20753 0.78362 0.0
H1763 H 0.82513 0.2077 0.76693 0.0
H1764 H 0.87109 0.23303 0.79742 0.0
H1765 H 0.87308 0.18521 0.76205 0.0
H1766 H 0.87347 0.16977 0.73678 0.0
H1767 H 0.9181 0.19775 0.72818 0.0
H1768 H 0.91785 0.21353 0.75334 0.0
H1769 H 0.93406 0.21168 0.84489 0.0
H1770 H 0.91005 0.21055 0.82762 0.0
H1771 H 0.94156 0.22674 0.79381 0.0
H1772 H 0.96572 0.22707 0.81071 0.0
H1773 H 0.91936 0.20433 0.78106 0.0
H1774 H 0.91776 0.2524 0.81562 0.0
H1775 H 0.91763 0.26879 0.84046 0.0
H1776 H 0.87279 0.24181 0.85011 0.0
H1777 H 0.87277 0.2251 0.82539 0.0
C1778 C 0.85418 0.22495 0.74594 0.0
C1779 C 0.83852 0.21866 0.74982 0.0
C1780 C 0.8681 0.2248 0.75549 0.0
C1781 C 0.86659 0.21847 0.76914 0.0
C1782 C 0.85093 0.21242 0.77313 0.0
C1783 C 0.83706 0.21242 0.76353 0.0
C1784 C 0.8813 0.21822 0.77933 0.0
C1785 C 0.88157 0.22659 0.79392 0.0
C1786 C 0.89513 0.21017 0.77461 0.0
C1787 C 0.89535 0.20066 0.75951 0.0
C1788 C 0.8829 0.18816 0.75472 0.0
C1789 C 0.88311 0.17933 0.74043 0.0
C1790 C 0.89578 0.1828 0.73087 0.0
C1791 C 0.90829 0.19509 0.7356 0.0
C1792 C 0.90812 0.20397 0.74987 0.0
C1793 C 0.93595 0.21477 0.83371 0.0
C1794 C 0.95188 0.21959 0.82928 0.0
C1795 C 0.92215 0.21431 0.82389 0.0
C1796 C 0.92391 0.21886 0.80948 0.0
C1797 C 0.93983 0.22329 0.80489 0.0
C1798 C 0.95364 0.22363 0.81465 0.0
C1799 C 0.9092 0.21914 0.79923 0.0
C1800 C 0.90891 0.21078 0.7846 0.0
C1801 C 0.89541 0.22735 0.80386 0.0
C1802 C 0.89535 0.2374 0.81872 0.0
C1803 C 0.90794 0.24988 0.82309 0.0
C1804 C 0.90788 0.25924 0.83714 0.0
C1805 C 0.89523 0.25632 0.84688 0.0
C1806 C 0.88259 0.24405 0.84257 0.0
C1807 C 0.8826 0.23463 0.82853 0.0
H1808 H 0.89521 0.26358 0.85775 0.0
H1809 H 0.89592 0.17595 0.71981 0.0
H1810 H 0.51849 0.92981 0.51057 0.0
H1811 H 0.51944 0.90099 0.5022 0.0
H1812 H 0.4967 0.90638 0.45934 0.0
H1813 H 0.49551 0.93493 0.46768 0.0
H1814 H 0.48386 0.87917 0.46955 0.0
H1815 H 0.53822 0.9061 0.46371 0.0
H1816 H 0.56395 0.9228 0.47286 0.0
H1817 H 0.57396 0.88973 0.50367 0.0
H1818 H 0.54815 0.87294 0.49483 0.0
H1819 H 0.5056 0.81724 0.41618 0.0
H1820 H 0.50206 0.8427 0.43141 0.0
H1821 H 0.5283 0.82781 0.46887 0.0
H1822 H 0.53246 0.80242 0.45344 0.0
H1823 H 0.53872 0.85801 0.46559 0.0
H1824 H 0.48631 0.82897 0.46879 0.0
H1825 H 0.46072 0.81216 0.45948 0.0
H1826 H 0.44679 0.8488 0.43401 0.0
H1827 H 0.47242 0.86574 0.443 0.0
C1828 C 0.5135 0.92476 0.49945 0.0
C1829 C 0.5071 0.93464 0.48971 0.0
C1830 C 0.51414 0.90834 0.49465 0.0
C1831 C 0.5083 0.90157 0.48008 0.0
C1832 C 0.5013 0.91133 0.47061 0.0
C1833 C 0.50075 0.92768 0.47535 0.0
C1834 C 0.51005 0.88453 0.47426 0.0
C1835 C 0.49585 0.87454 0.46864 0.0
C1836 C 0.52564 0.87834 0.47348 0.0
C1837 C 0.54117 0.88839 0.47874 0.0
C1838 C 0.54584 0.90247 0.47252 0.0
C1839 C 0.56045 0.91193 0.47764 0.0
C1840 C 0.57056 0.90736 0.48888 0.0
C1841 C 0.5661 0.89328 0.49499 0.0
C1842 C 0.55149 0.88378 0.48993 0.0
C1843 C 0.51074 0.81938 0.42762 0.0
C1844 C 0.51937 0.80777 0.43355 0.0
C1845 C 0.50852 0.83389 0.43639 0.0
C1846 C 0.51469 0.8371 0.45138 0.0
C1847 C 0.52333 0.82556 0.45737 0.0
C1848 C 0.52559 0.81101 0.44856 0.0
C1849 C 0.51255 0.85275 0.4605 0.0
C1850 C 0.52667 0.86249 0.46674 0.0
C1851 C 0.49686 0.8587 0.46189 0.0
C1852 C 0.48136 0.84859 0.45651 0.0
C1853 C 0.47785 0.8334 0.46113 0.0
C1854 C 0.46332 0.82386 0.45591 0.0
C1855 C 0.45215 0.8294 0.44614 0.0
C1856 C 0.45546 0.84452 0.44158 0.0
C1857 C 0.46998 0.85411 0.44675 0.0
H1858 H 0.44091 0.82199 0.44211 0.0
H1859 H 0.58186 0.9147 0.49282 0.0
H1860 H 0.21841 0.27971 0.76773 0.0
H1861 H 0.1929 0.27946 0.78166 0.0
H1862 H 0.18662 0.22775 0.77272 0.0
H1863 H 0.21179 0.22795 0.75862 0.0
H1864 H 0.15752 0.24015 0.76963 0.0
H1865 H 0.20345 0.2469 0.80614 0.0
H1866 H 0.2294 0.26033 0.8187 0.0
H1867 H 0.20582 0.30345 0.83038 0.0
H1868 H 0.17976 0.29033 0.8177 0.0
H1869 H 0.10711 0.21619 0.82678 0.0
H1870 H 0.13003 0.22114 0.81058 0.0
H1871 H 0.12929 0.27217 0.82291 0.0
H1872 H 0.10607 0.26737 0.83892 0.0
H1873 H 0.1608 0.26308 0.82356 0.0
H1874 H 0.11399 0.25531 0.78912 0.0
H1875 H 0.08804 0.24163 0.77681 0.0
H1876 H 0.11312 0.20039 0.76126 0.0
H1877 H 0.13919 0.21374 0.77368 0.0
C1878 C 0.21144 0.26832 0.76857 0.0
C1879 C 0.2172 0.25384 0.76222 0.0
C1880 C 0.19694 0.26818 0.77661 0.0
C1881 C 0.18795 0.25356 0.7784 0.0
C1882 C 0.19336 0.23916 0.77154 0.0
C1883 C 0.20782 0.23929 0.76359 0.0
C1884 C 0.17326 0.25304 0.78784 0.0
C1885 C 0.15826 0.24508 0.78144 0.0
C1886 C 0.17409 0.25981 0.80317 0.0
C1887 C 0.18973 0.2677 0.81082 0.0
C1888 C 0.20384 0.25929 0.81128 0.0
C1889 C 0.21856 0.26683 0.81843 0.0
C1890 C 0.21927 0.28275 0.82529 0.0
C1891 C 0.20525 0.29113 0.82503 0.0
C1892 C 0.19051 0.28365 0.81787 0.0
C1893 C 0.11166 0.22849 0.82594 0.0
C1894 C 0.10462 0.24137 0.83414 0.0
C1895 C 0.12482 0.23129 0.81669 0.0
C1896 C 0.13126 0.24703 0.81539 0.0
C1897 C 0.12451 0.25993 0.82374 0.0
C1898 C 0.11128 0.25714 0.83295 0.0
C1899 C 0.14515 0.24994 0.80541 0.0
C1900 C 0.15998 0.25833 0.8117 0.0
C1901 C 0.14417 0.24355 0.78998 0.0
C1902 C 0.12852 0.23548 0.78245 0.0
C1903 C 0.11395 0.24328 0.78318 0.0
C1904 C 0.09922 0.23559 0.77616 0.0
C1905 C 0.09892 0.22014 0.76828 0.0
C1906 C 0.11337 0.21236 0.76738 0.0
C1907 C 0.12813 0.21998 0.7744 0.0
H1908 H 0.0875 0.21421 0.76285 0.0
H1909 H 0.23068 0.28857 0.83083 0.0
H1910 H 0.58666 0.61429 0.53615 0.0
H1911 H 0.58134 0.62552 0.51299 0.0
H1912 H 0.53929 0.59053 0.50171 0.0
H1913 H 0.54439 0.57933 0.52519 0.0
H1914 H 0.56044 0.59917 0.47601 0.0
H1915 H 0.52965 0.62263 0.51696 0.0
H1916 H 0.52665 0.63493 0.54308 0.0
H1917 H 0.56238 0.67399 0.53696 0.0
H1918 H 0.5658 0.66175 0.51087 0.0
H1919 H 0.5254 0.64667 0.42447 0.0
H1920 H 0.52993 0.6291 0.44357 0.0
H1921 H 0.56342 0.66657 0.46864 0.0
H1922 H 0.55855 0.68422 0.44984 0.0
H1923 H 0.54404 0.65456 0.48701 0.0
H1924 H 0.57615 0.63154 0.44702 0.0
H1925 H 0.58101 0.61929 0.42125 0.0
H1926 H 0.54478 0.57997 0.42541 0.0
H1927 H 0.53956 0.5921 0.45116 0.0
C1928 C 0.57642 0.60879 0.52865 0.0
C1929 C 0.56578 0.59608 0.53263 0.0
C1930 C 0.57344 0.6152 0.51538 0.0
C1931 C 0.5598 0.609 0.50574 0.0
C1932 C 0.54989 0.59548 0.50902 0.0
C1933 C 0.55283 0.58907 0.52241 0.0
C1934 C 0.55505 0.61789 0.49331 0.0
C1935 C 0.55658 0.61118 0.47834 0.0
C1936 C 0.55034 0.63366 0.49641 0.0
C1937 C 0.54808 0.6412 0.512 0.0
C1938 C 0.53696 0.63377 0.52122 0.0
C1939 C 0.53517 0.64074 0.53602 0.0
C1940 C 0.54435 0.65521 0.54169 0.0
C1941 C 0.55529 0.66277 0.53255 0.0
C1942 C 0.55715 0.65583 0.51776 0.0
C1943 C 0.53382 0.65108 0.43401 0.0
C1944 C 0.54156 0.66685 0.43569 0.0
C1945 C 0.53645 0.64101 0.44491 0.0
C1946 C 0.54715 0.64641 0.45755 0.0
C1947 C 0.55504 0.6621 0.45907 0.0
C1948 C 0.55225 0.6722 0.44832 0.0
C1949 C 0.54976 0.63607 0.46952 0.0
C1950 C 0.54777 0.64252 0.48453 0.0
C1951 C 0.55419 0.62013 0.4664 0.0
C1952 C 0.55734 0.61282 0.45095 0.0
C1953 C 0.56913 0.62035 0.44239 0.0
C1954 C 0.57197 0.61341 0.4278 0.0
C1955 C 0.56317 0.59889 0.42168 0.0
C1956 C 0.55156 0.59124 0.43016 0.0
C1957 C 0.54867 0.59813 0.44475 0.0
H1958 H 0.56539 0.59354 0.41038 0.0
H1959 H 0.54295 0.66059 0.55315 0.0
H1960 H 0.82639 0.79365 0.774 0.0
H1961 H 0.84715 0.79129 0.75474 0.0
H1962 H 0.88241 0.77961 0.78748 0.0
H1963 H 0.8617 0.78177 0.80669 0.0
H1964 H 0.89451 0.80411 0.77 0.0
H1965 H 0.86593 0.75066 0.7634 0.0
H1966 H 0.84134 0.731 0.75887 0.0
H1967 H 0.83114 0.74712 0.71645 0.0
H1968 H 0.85556 0.76705 0.72084 0.0
H1969 H 0.9589 0.77824 0.7254 0.0
H1970 H 0.93688 0.78075 0.74297 0.0
H1971 H 0.90133 0.77967 0.70607 0.0
H1972 H 0.92315 0.77588 0.68827 0.0
H1973 H 0.88827 0.76271 0.72499 0.0
H1974 H 0.91618 0.8154 0.73022 0.0
H1975 H 0.93983 0.8362 0.73414 0.0
H1976 H 0.95007 0.82362 0.77805 0.0
H1977 H 0.9266 0.80259 0.77432 0.0
C1978 C 0.83856 0.79053 0.77705 0.0
C1979 C 0.8424 0.7878 0.79182 0.0
C1980 C 0.85038 0.78915 0.76605 0.0
C1981 C 0.86631 0.78524 0.76968 0.0
C1982 C 0.87019 0.78263 0.78444 0.0
C1983 C 0.85832 0.78375 0.79536 0.0
C1984 C 0.87904 0.78405 0.75818 0.0
C1985 C 0.89326 0.79497 0.76022 0.0
C1986 C 0.87711 0.77247 0.74519 0.0
C1987 C 0.86246 0.76047 0.74253 0.0
C1988 C 0.85836 0.75012 0.75317 0.0
C1989 C 0.84447 0.7389 0.75062 0.0
C1990 C 0.83465 0.73784 0.7374 0.0
C1991 C 0.83873 0.74797 0.72669 0.0
C1992 C 0.8526 0.75922 0.7292 0.0
C1993 C 0.9464 0.77829 0.72092 0.0
C1994 C 0.94294 0.77681 0.70529 0.0
C1995 C 0.93379 0.78001 0.73106 0.0
C1996 C 0.9174 0.78074 0.72593 0.0
C1997 C 0.91386 0.77925 0.71037 0.0
C1998 C 0.92644 0.77727 0.70018 0.0
C1999 C 0.90398 0.78272 0.73681 0.0
C2000 C 0.88957 0.77196 0.73468 0.0
C2001 C 0.90561 0.79465 0.74962 0.0
C2002 C 0.91971 0.80732 0.75193 0.0
C2003 C 0.92354 0.81699 0.74067 0.0
C2004 C 0.93691 0.82884 0.74287 0.0
C2005 C 0.94647 0.83121 0.75632 0.0
C2006 C 0.94266 0.82176 0.76763 0.0
C2007 C 0.92932 0.80989 0.76548 0.0
H2008 H 0.95681 0.84039 0.758 0.0
H2009 H 0.8239 0.72915 0.73544 0.0
H2010 H 0.03688 0.89124 0.49751 0.0
H2011 H 0.03114 0.8797 0.52051 0.0
H2012 H 0.07112 0.91123 0.54407 0.0
H2013 H 0.07701 0.92282 0.5208 0.0
H2014 H 0.07286 0.88006 0.54859 0.0
H2015 H 0.03171 0.91658 0.55275 0.0
H2016 H 0.00861 0.93069 0.54436 0.0
H2017 H 0.9779 0.88603 0.53553 0.0
H2018 H 1.0009 0.87159 0.54365 0.0
H2019 H 0.05111 0.84526 0.61479 0.0
H2020 H 0.05666 0.86533 0.59774 0.0
H2021 H 0.01874 0.84027 0.56634 0.0
H2022 H 0.0129 0.82044 0.58342 0.0
H2023 H 0.01718 0.8724 0.56906 0.0
H2024 H 0.05951 0.83584 0.56131 0.0
H2025 H 0.08266 0.82145 0.56917 0.0
H2026 H 0.11111 0.86638 0.58454 0.0
H2027 H 0.08801 0.88104 0.57695 0.0
C2028 C 0.04432 0.89588 0.50764 0.0
C2029 C 0.05743 0.90789 0.50736 0.0
C2030 C 0.04096 0.88933 0.52082 0.0
C2031 C 0.05062 0.89464 0.53408 0.0
C2032 C 0.06347 0.90698 0.53398 0.0
C2033 C 0.06676 0.91366 0.52074 0.0
C2034 C 0.04783 0.8864 0.5476 0.0
C2035 C 0.06078 0.87872 0.55332 0.0
C2036 C 0.032 0.88436 0.55361 0.0
C2037 C 0.01809 0.89299 0.54873 0.0
C2038 C 0.02008 0.90974 0.54891 0.0
C2039 C 0.00699 0.9178 0.54422 0.0
C2040 C 0.99181 0.90926 0.5394 0.0
C2041 C 0.98967 0.89263 0.53927 0.0
C2042 C 1.00272 0.8845 0.54394 0.0
C2043 C 0.04382 0.84413 0.60433 0.0
C2044 C 0.03163 0.83116 0.60044 0.0
C2045 C 0.04709 0.85555 0.59454 0.0
C2046 C 0.03823 0.85424 0.58067 0.0
C2047 C 0.02577 0.84154 0.57695 0.0
C2048 C 0.02255 0.83011 0.58668 0.0
C2049 C 0.0421 0.86578 0.56977 0.0
C2050 C 0.02933 0.87402 0.56453 0.0
C2051 C 0.05809 0.86832 0.56419 0.0
C2052 C 0.07197 0.85953 0.56875 0.0
C2053 C 0.07065 0.84265 0.56649 0.0
C2054 C 0.08377 0.83444 0.57087 0.0
C2055 C 0.09833 0.843 0.5774 0.0
C2056 C 0.09981 0.85977 0.57952 0.0
C2057 C 0.08671 0.86803 0.57518 0.0
H2058 H 0.10848 0.83662 0.58078 0.0
H2059 H 0.98169 0.91552 0.53577 0.0
H2060 H 0.20019 0.73932 0.78156 0.0
H2061 H 0.17196 0.7427 0.77274 0.0
H2062 H 0.18153 0.71889 0.72879 0.0
H2063 H 0.20935 0.71512 0.7376 0.0
H2064 H 0.16218 0.75946 0.75172 0.0
H2065 H 0.1474 0.69929 0.71138 0.0
H2066 H 0.15231 0.67081 0.71056 0.0
H2067 H 0.15796 0.67682 0.75873 0.0
H2068 H 0.15285 0.70527 0.75986 0.0
H2069 H 0.10569 0.76844 0.69314 0.0
H2070 H 0.12892 0.76277 0.70879 0.0
H2071 H 0.09711 0.72797 0.72818 0.0
H2072 H 0.074 0.73291 0.71195 0.0
H2073 H 0.12454 0.71608 0.72232 0.0
H2074 H 0.11096 0.76556 0.74808 0.0
H2075 H 0.10449 0.79373 0.75117 0.0
H2076 H 0.15258 0.80847 0.73652 0.0
H2077 H 0.15926 0.78035 0.73314 0.0
C2078 C 0.19612 0.73454 0.77012 0.0
C2079 C 0.20703 0.72705 0.76025 0.0
C2080 C 0.18004 0.73658 0.76505 0.0
C2081 C 0.17455 0.73098 0.75011 0.0
C2082 C 0.18533 0.72313 0.74041 0.0
C2083 C 0.20132 0.72112 0.74543 0.0
C2084 C 0.15798 0.73406 0.74423 0.0
C2085 C 0.15389 0.74996 0.74539 0.0
C2086 C 0.14692 0.72164 0.73627 0.0
C2087 C 0.14985 0.70447 0.73568 0.0
C2088 C 0.1496 0.69452 0.7218 0.0
C2089 C 0.15244 0.67838 0.72128 0.0
C2090 C 0.15548 0.67202 0.73458 0.0
C2091 C 0.15565 0.68177 0.74843 0.0
C2092 C 0.15281 0.69792 0.74902 0.0
C2093 C 0.10362 0.75947 0.70063 0.0
C2094 C 0.0879 0.75115 0.70123 0.0
C2095 C 0.11691 0.7564 0.70975 0.0
C2096 C 0.11477 0.74511 0.71988 0.0
C2097 C 0.09909 0.7368 0.72053 0.0
C2098 C 0.08582 0.73977 0.71133 0.0
C2099 C 0.12904 0.74157 0.72932 0.0
C2100 C 0.13271 0.72557 0.7288 0.0
C2101 C 0.13948 0.75386 0.73819 0.0
C2102 C 0.13556 0.77082 0.74026 0.0
C2103 C 0.12012 0.77479 0.74542 0.0
C2104 C 0.11642 0.79076 0.74724 0.0
C2105 C 0.1281 0.80288 0.74402 0.0
C2106 C 0.14353 0.79907 0.73901 0.0
C2107 C 0.14729 0.78312 0.73716 0.0
H2108 H 0.12522 0.81524 0.74543 0.0
H2109 H 0.15768 0.65952 0.73415 0.0
H2110 H 0.96443 0.6026 0.48309 0.0
H2111 H 0.97143 0.6248 0.50325 0.0
H2112 H 0.9852 0.59146 0.53282 0.0
H2113 H 0.97815 0.56911 0.51263 0.0
H2114 H 0.96658 0.61246 0.54686 0.0
H2115 H 0.01456 0.61609 0.51768 0.0
H2116 H 0.0301 0.61765 0.49471 0.0
H2117 H 0.01021 0.66192 0.48891 0.0
H2118 H 0.99435 0.66051 0.51174 0.0
H2119 H 0.00387 0.67301 0.60393 0.0
H2120 H 0.99925 0.65004 0.58413 0.0
H2121 H 0.98281 0.68092 0.55325 0.0
H2122 H 0.98722 0.70394 0.57304 0.0
H2123 H 0.00392 0.66067 0.54031 0.0
H2124 H 0.95522 0.65631 0.56913 0.0
H2125 H 0.93984 0.65463 0.59217 0.0
H2126 H 0.96159 0.61148 0.59877 0.0
H2127 H 0.97728 0.61304 0.57586 0.0
C2128 C 0.96922 0.59999 0.4938 0.0
C2129 C 0.97085 0.58407 0.4962 0.0
C2130 C 0.97319 0.61272 0.50534 0.0
C2131 C 0.97904 0.60986 0.51953 0.0
C2132 C 0.98071 0.59398 0.52197 0.0
C2133 C 0.97667 0.58122 0.51043 0.0
C2134 C 0.98291 0.62341 0.5319 0.0
C2135 C 0.97497 0.62287 0.54551 0.0
C2136 C 0.99358 0.63718 0.53006 0.0
C2137 C 0.00315 0.63811 0.51635 0.0
C2138 C 0.0134 0.62609 0.51145 0.0
C2139 C 0.02228 0.62697 0.49846 0.0
C2140 C 0.02111 0.63986 0.49033 0.0
C2141 C 0.01109 0.65193 0.4952 0.0
C2142 C 1.00216 0.65111 0.50817 0.0
C2143 C 0.9991 0.67491 0.59298 0.0
C2144 C 0.99585 0.69035 0.59012 0.0
C2145 C 0.99652 0.66176 0.58165 0.0
C2146 C 0.99055 0.66372 0.56723 0.0
C2147 C 0.98747 0.67912 0.56428 0.0
C2148 C 0.99004 0.69228 0.57561 0.0
C2149 C 0.98752 0.64974 0.5552 0.0
C2150 C 0.99561 0.6502 0.54167 0.0
C2151 C 0.97703 0.63588 0.55712 0.0
C2152 C 0.96756 0.63489 0.57086 0.0
C2153 C 0.95683 0.64654 0.57556 0.0
C2154 C 0.94803 0.64559 0.58858 0.0
C2155 C 0.94977 0.63298 0.59695 0.0
C2156 C 0.96027 0.62126 0.59229 0.0
C2157 C 0.96911 0.62216 0.57928 0.0
H2158 H 0.94295 0.63227 0.60704 0.0
H2159 H 0.028 0.64051 0.48028 0.0
H2160 H 0.80239 0.80955 0.20806 0.0
H2161 H 0.81861 0.83546 0.21474 0.0
H2162 H 0.78023 0.85199 0.24322 0.0
H2163 H 0.76366 0.82613 0.23625 0.0
H2164 H 0.7922 0.8749 0.22647 0.0
H2165 H 0.81471 0.84058 0.25855 0.0
H2166 H 0.82658 0.81626 0.26468 0.0
H2167 H 0.86787 0.82605 0.23756 0.0
H2168 H 0.85612 0.85032 0.23108 0.0
H2169 H 0.84126 0.94278 0.26572 0.0
H2170 H 0.82381 0.91749 0.2592 0.0
H2171 H 0.86143 0.89875 0.231 0.0
H2172 H 0.87917 0.92385 0.23782 0.0
H2173 H 0.84936 0.87707 0.24823 0.0
H2174 H 0.82661 0.91116 0.21582 0.0
H2175 H 0.81472 0.93545 0.20967 0.0
H2176 H 0.7739 0.92615 0.23747 0.0
H2177 H 0.78568 0.9019 0.24396 0.0
C2178 C 0.79726 0.81876 0.21558 0.0
C2179 C 0.78167 0.81578 0.22158 0.0
C2180 C 0.80664 0.83352 0.21952 0.0
C2181 C 0.80072 0.84561 0.22962 0.0
C2182 C 0.78506 0.84281 0.23544 0.0
C2183 C 0.77566 0.828 0.23153 0.0
C2184 C 0.81099 0.86111 0.23412 0.0
C2185 C 0.80461 0.87541 0.23144 0.0
C2186 C 0.82732 0.86174 0.24031 0.0
C2187 C 0.83445 0.84718 0.24422 0.0
C2188 C 0.82625 0.83748 0.25379 0.0
C2189 C 0.83297 0.82372 0.25735 0.0
C2190 C 0.84794 0.81959 0.25148 0.0
C2191 C 0.85626 0.82925 0.24208 0.0
C2192 C 0.84958 0.84302 0.23847 0.0
C2193 C 0.84587 0.93325 0.2582 0.0
C2194 C 0.86163 0.93536 0.25228 0.0
C2195 C 0.83581 0.91885 0.25437 0.0
C2196 C 0.84123 0.90626 0.24449 0.0
C2197 C 0.85696 0.9083 0.23861 0.0
C2198 C 0.86703 0.92272 0.24241 0.0
C2199 C 0.83062 0.89087 0.24048 0.0
C2200 C 0.83694 0.87658 0.24328 0.0
C2201 C 0.81425 0.89026 0.23441 0.0
C2202 C 0.80712 0.90481 0.23049 0.0
C2203 C 0.81517 0.91436 0.22072 0.0
C2204 C 0.80844 0.92811 0.21715 0.0
C2205 C 0.79359 0.93237 0.22321 0.0
C2206 C 0.78542 0.92285 0.23281 0.0
C2207 C 0.79211 0.9091 0.23642 0.0
H2208 H 0.7884 0.94301 0.22043 0.0
H2209 H 0.85313 0.80894 0.25425 0.0
H2210 H 0.79524 0.19512 0.32475 0.0
H2211 H 0.81396 0.1738 0.32274 0.0
H2212 H 0.77605 0.14133 0.29725 0.0
H2213 H 0.75737 0.16268 0.29904 0.0
H2214 H 0.79453 0.12778 0.3204 0.0
H2215 H 0.80291 0.15757 0.27827 0.0
H2216 H 0.80888 0.18231 0.26679 0.0
H2217 H 0.85583 0.19157 0.29115 0.0
H2218 H 0.85001 0.16699 0.30297 0.0
H2219 H 0.8404 0.06666 0.2869 0.0
H2220 H 0.82202 0.08768 0.29212 0.0
H2221 H 0.86401 0.12226 0.30559 0.0
H2222 H 0.8826 0.10152 0.29931 0.0
H2223 H 0.84379 0.13543 0.28997 0.0
H2224 H 0.83709 0.10601 0.33149 0.0
H2225 H 0.83172 0.08219 0.34443 0.0
H2226 H 0.78292 0.07317 0.32354 0.0
H2227 H 0.78807 0.09682 0.3103 0.0
C2228 C 0.79082 0.18335 0.31895 0.0
C2229 C 0.77487 0.18054 0.31204 0.0
C2230 C 0.80153 0.17122 0.31775 0.0
C2231 C 0.7964 0.15602 0.30979 0.0
C2232 C 0.78023 0.15297 0.30345 0.0
C2233 C 0.76961 0.16517 0.30444 0.0
C2234 C 0.80818 0.14358 0.3073 0.0
C2235 C 0.80524 0.12934 0.31364 0.0
C2236 C 0.82237 0.14587 0.29884 0.0
C2237 C 0.82595 0.16055 0.29163 0.0
C2238 C 0.81444 0.16496 0.28128 0.0
C2239 C 0.81781 0.17894 0.2747 0.0
C2240 C 0.8327 0.18853 0.27827 0.0
C2241 C 0.84429 0.18414 0.28841 0.0
C2242 C 0.84096 0.17018 0.29505 0.0
C2243 C 0.84582 0.07876 0.29076 0.0
C2244 C 0.8631 0.08228 0.29263 0.0
C2245 C 0.83521 0.09077 0.294 0.0
C2246 C 0.84154 0.10658 0.29955 0.0
C2247 C 0.85876 0.11017 0.30141 0.0
C2248 C 0.8694 0.0982 0.29796 0.0
C2249 C 0.83022 0.11941 0.30303 0.0
C2250 C 0.8332 0.1338 0.29684 0.0
C2251 C 0.8162 0.11734 0.31184 0.0
C2252 C 0.81303 0.10311 0.3198 0.0
C2253 C 0.82525 0.09888 0.32957 0.0
C2254 C 0.82224 0.08542 0.33697 0.0
C2255 C 0.807 0.07615 0.33478 0.0
C2256 C 0.79473 0.08035 0.32521 0.0
C2257 C 0.79768 0.09379 0.31777 0.0
H2258 H 0.80469 0.06573 0.34053 0.0
H2259 H 0.83529 0.19935 0.27316 0.0
H2260 H 0.44915 0.02114 0.99392 0.0
H2261 H 0.42757 1.00042 0.99896 0.0
H2262 H 0.39563 0.01392 0.9645 0.0
H2263 H 0.4172 0.03446 0.95929 0.0
H2264 H 0.38105 0.01196 0.99331 0.0
H2265 H 0.41162 0.981 0.95657 0.0
H2266 H 0.43677 0.97032 0.94635 0.0
H2267 H 0.44378 0.94736 0.98566 0.0
H2268 H 0.41878 0.95811 0.99622 0.0
H2269 H 0.31579 0.95026 0.99027 0.0
H2270 H 0.33817 0.96947 0.98426 0.0
H2271 H 0.37307 0.94651 0.00933 0.0
H2272 H 0.35076 0.92685 0.01476 0.0
H2273 H 0.38677 0.95349 0.98563 0.0
H2274 H 0.35765 0.98373 0.02305 0.0
H2275 H 0.33358 0.99488 0.03503 0.0
H2276 H 0.32514 0.01988 0.99728 0.0
H2277 H 0.34905 0.00871 0.98498 0.0
C2278 C 0.43756 0.01956 0.98735 0.0
C2279 C 0.43487 0.02933 0.97616 0.0
C2280 C 0.42529 0.00774 0.99022 0.0
C2281 C 0.41003 0.00564 0.98208 0.0
C2282 C 0.40733 0.01534 0.97088 0.0
C2283 C 0.41969 0.02697 0.96785 0.0
C2284 C 0.39668 0.99365 0.98555 0.0
C2285 C 0.38217 0.99915 0.99146 0.0
C2286 C 0.39844 0.97701 0.98362 0.0
C2287 C 0.41343 0.9705 0.97726 0.0
C2288 C 0.41861 0.9738 0.9631 0.0
C2289 C 0.43282 0.9677 0.95723 0.0
C2290 C 0.44189 0.9582 0.96537 0.0
C2291 C 0.43675 0.95474 0.97938 0.0
C2292 C 0.42256 0.96082 0.9853 0.0
C2293 C 0.32825 0.94938 0.99453 0.0
C2294 C 0.33154 0.93715 1.00305 0.0
C2295 C 0.34104 0.9604 0.99115 0.0
C2296 C 0.35734 0.9597 0.99658 0.0
C2297 C 0.36064 0.94736 0.005 0.0
C2298 C 0.34789 0.93614 0.00813 0.0
C2299 C 0.37093 0.97174 0.99338 0.0
C2300 C 0.38556 0.96628 0.98753 0.0
C2301 C 0.36941 0.98848 0.99565 0.0
C2302 C 0.35505 0.99525 1.00303 0.0
C2303 C 0.35059 0.99151 0.01725 0.0
C2304 C 0.33699 0.99785 0.02411 0.0
C2305 C 0.32781 0.00805 0.0169 0.0
C2306 C 0.33225 0.01196 1.00284 0.0
C2307 C 0.34583 0.00564 0.99593 0.0
H2308 H 0.31728 0.01294 0.02223 0.0
H2309 H 0.45289 0.95349 0.9608 0.0
H2310 H 0.29054 0.35038 0.2891 0.0
H2311 H 0.27124 0.36486 0.27557 0.0
H2312 H 0.24219 0.37106 0.31491 0.0
H2313 H 0.26118 0.35651 0.32827 0.0
H2314 H 0.22249 0.36455 0.28979 0.0
H2315 H 0.27128 0.40046 0.30738 0.0
H2316 H 0.30118 0.40904 0.30911 0.0
H2317 H 0.30109 0.40882 0.26127 0.0
H2318 H 0.2712 0.40003 0.25924 0.0
H2319 H 0.1817 0.43413 0.28677 0.0
H2320 H 0.19937 0.41384 0.29284 0.0
H2321 H 0.22258 0.41489 0.25044 0.0
H2322 H 0.20478 0.43516 0.24418 0.0
H2323 H 0.2453 0.4154 0.27291 0.0
H2324 H 0.1955 0.3831 0.25587 0.0
H2325 H 0.16554 0.37488 0.25436 0.0
H2326 H 0.16732 0.36825 0.30095 0.0
H2327 H 0.19726 0.37666 0.30279 0.0
C2328 C 0.27985 0.35458 0.29471 0.0
C2329 C 0.27745 0.35248 0.30978 0.0
C2330 C 0.2689 0.36294 0.28703 0.0
C2331 C 0.25538 0.36926 0.2943 0.0
C2332 C 0.25253 0.36636 0.30906 0.0
C2333 C 0.26345 0.35812 0.31672 0.0
C2334 C 0.24465 0.37971 0.28706 0.0
C2335 C 0.22747 0.37569 0.28613 0.0
C2336 C 0.25114 0.39407 0.28192 0.0
C2337 C 0.26907 0.3994 0.28314 0.0
C2338 C 0.27767 0.40212 0.29722 0.0
C2339 C 0.2946 0.40704 0.29825 0.0
C2340 C 0.30304 0.40942 0.2853 0.0
C2341 C 0.29454 0.40694 0.27128 0.0
C2342 C 0.27761 0.40199 0.27019 0.0
C2343 C 0.19037 0.4299 0.2786 0.0
C2344 C 0.1917 0.43626 0.26492 0.0
C2345 C 0.20051 0.41829 0.28211 0.0
C2346 C 0.21217 0.41264 0.27202 0.0
C2347 C 0.21366 0.41903 0.2584 0.0
C2348 C 0.2035 0.43067 0.25487 0.0
C2349 C 0.22309 0.40043 0.27596 0.0
C2350 C 0.2403 0.40413 0.27629 0.0
C2351 C 0.21662 0.38577 0.28056 0.0
C2352 C 0.19862 0.38063 0.27949 0.0
C2353 C 0.18948 0.38 0.26582 0.0
C2354 C 0.17251 0.37529 0.2649 0.0
C2355 C 0.16452 0.37107 0.27756 0.0
C2356 C 0.17352 0.37153 0.29115 0.0
C2357 C 0.1905 0.37625 0.29214 0.0
H2358 H 0.15138 0.36742 0.27682 0.0
H2359 H 0.31615 0.41324 0.28612 0.0
H2360 H 0.11676 0.96912 0.47403 0.0
H2361 H 0.14176 0.98794 0.47796 0.0
H2362 H 0.11175 0.02754 0.48574 0.0
H2363 H 0.08675 0.00878 0.48166 0.0
H2364 H 0.13407 0.03356 0.46629 0.0
H2365 H 0.13511 0.01499 0.51446 0.0
H2366 H 0.13479 0.99491 0.53205 0.0
H2367 H 0.17921 0.97804 0.51391 0.0
H2368 H 0.17967 0.99789 0.49606 0.0
H2369 H 0.19824 0.09484 0.49098 0.0
H2370 H 0.1739 0.07543 0.49001 0.0
H2371 H 0.20442 0.0366 0.47983 0.0
H2372 H 0.22886 0.05596 0.48066 0.0
H2373 H 0.18217 0.03001 0.50065 0.0
H2374 H 0.18081 0.04844 0.45234 0.0
H2375 H 0.18113 0.06864 0.43485 0.0
H2376 H 0.13706 0.08582 0.45348 0.0
H2377 H 0.13662 0.06586 0.47123 0.0
C2378 C 0.11551 0.98181 0.47691 0.0
C2379 C 0.09978 0.98747 0.47752 0.0
C2380 C 0.12982 0.99257 0.47913 0.0
C2381 C 0.12868 0.00919 0.48221 0.0
C2382 C 0.11297 0.0148 0.48331 0.0
C2383 C 0.09869 0.00407 0.481 0.0
C2384 C 0.14375 0.02083 0.48336 0.0
C2385 C 0.14446 0.03291 0.47399 0.0
C2386 C 0.15756 0.01976 0.49308 0.0
C2387 C 0.15733 0.00783 0.50382 0.0
C2388 C 0.14474 0.00692 0.51413 0.0
C2389 C 0.14455 0.99559 0.52417 0.0
C2390 C 0.15695 0.98518 0.52408 0.0
C2391 C 0.1696 0.9861 0.51396 0.0
C2392 C 0.16984 0.9974 0.50389 0.0
C2393 C 0.19979 0.08218 0.48837 0.0
C2394 C 0.21553 0.077 0.48578 0.0
C2395 C 0.18584 0.07109 0.48788 0.0
C2396 C 0.18729 0.05455 0.48469 0.0
C2397 C 0.203 0.04929 0.48233 0.0
C2398 C 0.21697 0.06039 0.48283 0.0
C2399 C 0.17237 0.04277 0.48367 0.0
C2400 C 0.17172 0.03065 0.493 0.0
C2401 C 0.15858 0.0438 0.47393 0.0
C2402 C 0.15878 0.05576 0.46321 0.0
C2403 C 0.17126 0.05661 0.45279 0.0
C2404 C 0.17145 0.068 0.44281 0.0
C2405 C 0.15915 0.07853 0.44308 0.0
C2406 C 0.1466 0.07767 0.4533 0.0
C2407 C 0.14636 0.06631 0.46331 0.0
H2408 H 0.15932 0.08734 0.43535 0.0
H2409 H 0.15678 0.97642 0.53186 0.0
H2410 H 0.7638 0.20445 0.72843 0.0
H2411 H 0.74376 0.18109 0.7285 0.0
H2412 H 0.78318 0.1501 0.72466 0.0
H2413 H 0.80313 0.17326 0.72355 0.0
H2414 H 0.75769 0.1355 0.70917 0.0
H2415 H 0.76624 0.16358 0.75929 0.0
H2416 H 0.76723 0.18687 0.77913 0.0
H2417 H 0.71555 0.1906 0.77068 0.0
H2418 H 0.71431 0.16746 0.75064 0.0
H2419 H 0.71966 0.0696 0.74201 0.0
H2420 H 0.73759 0.09343 0.7378 0.0
H2421 H 0.69476 0.11918 0.73298 0.0
H2422 H 0.67676 0.09537 0.73713 0.0
H2423 H 0.72066 0.13659 0.75207 0.0
H2424 H 0.71272 0.10642 0.70262 0.0
H2425 H 0.7128 0.0823 0.68386 0.0
H2426 H 0.76493 0.08156 0.6926 0.0
H2427 H 0.76511 0.10555 0.71158 0.0
C2428 C 0.76819 0.19264 0.72719 0.0
C2429 C 0.78517 0.19081 0.72617 0.0
C2430 C 0.75671 0.17928 0.72747 0.0
C2431 C 0.76197 0.16382 0.72701 0.0
C2432 C 0.77878 0.16188 0.72519 0.0
C2433 C 0.79022 0.17519 0.72471 0.0
C2434 C 0.75016 0.14976 0.72904 0.0
C2435 C 0.74972 0.13573 0.71864 0.0
C2436 C 0.73954 0.15003 0.74127 0.0
C2437 C 0.74023 0.1639 0.75336 0.0
C2438 C 0.75512 0.16944 0.76159 0.0
C2439 C 0.75572 0.1826 0.77288 0.0
C2440 C 0.74147 0.19024 0.77613 0.0
C2441 C 0.72658 0.18469 0.76813 0.0
C2442 C 0.72592 0.17155 0.75681 0.0
C2443 C 0.71409 0.08037 0.74013 0.0
C2444 C 0.69681 0.08062 0.73987 0.0
C2445 C 0.72432 0.09393 0.73764 0.0
C2446 C 0.71748 0.10803 0.73497 0.0
C2447 C 0.70027 0.10841 0.73496 0.0
C2448 C 0.69002 0.09479 0.73726 0.0
C2449 C 0.72833 0.12241 0.73227 0.0
C2450 C 0.72858 0.13646 0.74257 0.0
C2451 C 0.73896 0.12207 0.72009 0.0
C2452 C 0.7389 0.1077 0.70862 0.0
C2453 C 0.72418 0.10104 0.70063 0.0
C2454 C 0.72418 0.08741 0.68994 0.0
C2455 C 0.73886 0.08038 0.68707 0.0
C2456 C 0.75357 0.087 0.69485 0.0
C2457 C 0.75363 0.10063 0.70556 0.0
H2458 H 0.73883 0.06983 0.67879 0.0
H2459 H 0.74196 0.20042 0.78488 0.0
H2460 H 0.47468 0.03134 0.55218 0.0
H2461 H 0.45295 0.04886 0.54837 0.0
H2462 H 0.42542 0.01023 0.51898 0.0
H2463 H 0.44716 0.99279 0.52262 0.0
H2464 H 0.42704 0.03654 0.50631 0.0
H2465 H 0.41341 0.02333 0.55512 0.0
H2466 H 0.41871 0.02091 0.58187 0.0
H2467 H 0.43137 0.07183 0.5915 0.0
H2468 H 0.42635 0.07453 0.56476 0.0
H2469 H 0.35079 0.06973 0.49981 0.0
H2470 H 0.37231 0.05303 0.50612 0.0
H2471 H 0.39954 0.09424 0.53222 0.0
H2472 H 0.37784 0.111 0.52622 0.0
H2473 H 0.39867 0.06765 0.54686 0.0
H2474 H 0.41177 0.08073 0.49801 0.0
H2475 H 0.40619 0.08302 0.47128 0.0
H2476 H 0.39431 0.03199 0.46177 0.0
H2477 H 0.39959 0.02942 0.48851 0.0
C2478 C 0.46385 0.02652 0.54512 0.0
C2479 C 0.46265 0.01069 0.53767 0.0
C2480 C 0.45144 0.03655 0.54294 0.0
C2481 C 0.43748 0.03087 0.53341 0.0
C2482 C 0.43609 0.01494 0.5263 0.0
C2483 C 0.44852 0.00497 0.5284 0.0
C2484 C 0.42467 0.04167 0.53025 0.0
C2485 C 0.42069 0.04315 0.5152 0.0
C2486 C 0.41668 0.0507 0.54182 0.0
C2487 C 0.41967 0.04911 0.55791 0.0
C2488 C 0.41745 0.03399 0.56292 0.0
C2489 C 0.42038 0.03257 0.57809 0.0
C2490 C 0.42542 0.0462 0.58837 0.0
C2491 C 0.42749 0.06128 0.58352 0.0
C2492 C 0.42459 0.06276 0.56836 0.0
C2493 C 0.36128 0.07524 0.50699 0.0
C2494 C 0.3626 0.09172 0.51249 0.0
C2495 C 0.37365 0.06569 0.5105 0.0
C2496 C 0.38762 0.07241 0.51953 0.0
C2497 C 0.38889 0.08881 0.5252 0.0
C2498 C 0.37655 0.09839 0.52165 0.0
C2499 C 0.40094 0.0623 0.52294 0.0
C2500 C 0.40505 0.06101 0.53801 0.0
C2501 C 0.40904 0.0534 0.5114 0.0
C2502 C 0.40593 0.0549 0.49529 0.0
C2503 C 0.40784 0.07001 0.49025 0.0
C2504 C 0.40475 0.07136 0.47509 0.0
C2505 C 0.39986 0.05767 0.46484 0.0
C2506 C 0.39808 0.04259 0.46973 0.0
C2507 C 0.40113 0.04118 0.48488 0.0
H2508 H 0.39747 0.05874 0.45311 0.0
H2509 H 0.42768 0.04507 0.60011 0.0
H2510 H 0.59547 0.51331 0.58717 0.0
H2511 H 0.6162 0.49529 0.57918 0.0
H2512 H 0.60865 0.50406 0.53335 0.0
H2513 H 0.5873 0.52176 0.54121 0.0
H2514 H 0.61118 0.47264 0.53451 0.0
H2515 H 0.64257 0.52179 0.5546 0.0
H2516 H 0.65105 0.54548 0.5733 0.0
H2517 H 0.66476 0.51483 0.6052 0.0
H2518 H 0.65614 0.49093 0.58676 0.0
H2519 H 0.68528 0.43836 0.51084 0.0
H2520 H 0.6638 0.45649 0.51634 0.0
H2521 H 0.66661 0.44923 0.56294 0.0
H2522 H 0.68783 0.43087 0.55752 0.0
H2523 H 0.66696 0.48085 0.55995 0.0
H2524 H 0.63445 0.43168 0.53983 0.0
H2525 H 0.62602 0.40817 0.52091 0.0
H2526 H 0.61477 0.43927 0.48862 0.0
H2527 H 0.62336 0.46299 0.5073 0.0
C2528 C 0.59801 0.51128 0.57534 0.0
C2529 C 0.58961 0.51897 0.56483 0.0
C2530 C 0.61005 0.50109 0.57082 0.0
C2531 C 0.61418 0.49846 0.55569 0.0
C2532 C 0.60573 0.50595 0.5451 0.0
C2533 C 0.59362 0.51616 0.54963 0.0
C2534 C 0.62733 0.48786 0.55104 0.0
C2535 C 0.62347 0.4746 0.53989 0.0
C2536 C 0.6433 0.49022 0.55822 0.0
C2537 C 0.64858 0.50456 0.56933 0.0
C2538 C 0.64728 0.52009 0.56564 0.0
C2539 C 0.65213 0.53356 0.57619 0.0
C2540 C 0.6584 0.53166 0.59044 0.0
C2541 C 0.65988 0.51628 0.59416 0.0
C2542 C 0.65503 0.50277 0.58366 0.0
C2543 C 0.68117 0.44041 0.52222 0.0
C2544 C 0.68836 0.43312 0.53373 0.0
C2545 C 0.66891 0.45085 0.52536 0.0
C2546 C 0.66353 0.45419 0.54005 0.0
C2547 C 0.67062 0.44691 0.55153 0.0
C2548 C 0.68282 0.43644 0.54841 0.0
C2549 C 0.65075 0.46552 0.54358 0.0
C2550 C 0.6547 0.47895 0.55451 0.0
C2551 C 0.63492 0.46335 0.53614 0.0
C2552 C 0.62972 0.44911 0.52491 0.0
C2553 C 0.63032 0.43351 0.52866 0.0
C2554 C 0.62548 0.42015 0.51798 0.0
C2555 C 0.61991 0.42223 0.50356 0.0
C2556 C 0.61912 0.43768 0.49979 0.0
C2557 C 0.62396 0.45109 0.51042 0.0
H2558 H 0.61617 0.41186 0.49531 0.0
H2559 H 0.66215 0.5421 0.59859 0.0
H2560 H 0.75853 0.25019 0.3281 0.0
H2561 H 0.7569 0.26888 0.35119 0.0
H2562 H 0.74106 0.22935 0.37486 0.0
H2563 H 0.74274 0.21053 0.35175 0.0
H2564 H 0.72254 0.25704 0.38063 0.0
H2565 H 0.7788 0.24351 0.38034 0.0
H2566 H 0.80583 0.24026 0.36923 0.0
H2567 H 0.81193 0.29049 0.36497 0.0
H2568 H 0.78481 0.29399 0.37585 0.0
H2569 H 0.73373 0.29972 0.45442 0.0
H2570 H 0.7339 0.28018 0.4319 0.0
H2571 H 0.76118 0.31558 0.4094 0.0
H2572 H 0.7622 0.3348 0.43221 0.0
H2573 H 0.77366 0.28908 0.40307 0.0
H2574 H 0.71796 0.3033 0.40241 0.0
H2575 H 0.69054 0.30734 0.41242 0.0
H2576 H 0.68271 0.25732 0.41723 0.0
H2577 H 0.71018 0.25302 0.40742 0.0
C2578 C 0.75452 0.2455 0.33818 0.0
C2579 C 0.75074 0.2289 0.33812 0.0
C2580 C 0.75369 0.25617 0.35137 0.0
C2581 C 0.74894 0.25049 0.36474 0.0
C2582 C 0.74476 0.23397 0.36466 0.0
C2583 C 0.7458 0.22324 0.35149 0.0
C2584 C 0.7488 0.26179 0.37888 0.0
C2585 C 0.73372 0.26392 0.38568 0.0
C2586 C 0.76334 0.27103 0.38522 0.0
C2587 C 0.7797 0.26898 0.37877 0.0
C2588 C 0.78584 0.25383 0.37692 0.0
C2589 C 0.80119 0.25195 0.37068 0.0
C2590 C 0.81057 0.26515 0.36636 0.0
C2591 C 0.80464 0.28027 0.3683 0.0
C2592 C 0.78929 0.28221 0.37451 0.0
C2593 C 0.73995 0.30335 0.44477 0.0
C2594 C 0.74793 0.31896 0.44525 0.0
C2595 C 0.73981 0.29218 0.43176 0.0
C2596 C 0.74731 0.29641 0.41878 0.0
C2597 C 0.75523 0.31198 0.4192 0.0
C2598 C 0.75561 0.32307 0.43227 0.0
C2599 C 0.74731 0.28457 0.40488 0.0
C2600 C 0.76241 0.28227 0.39809 0.0
C2601 C 0.73273 0.27534 0.39845 0.0
C2602 C 0.71619 0.27788 0.40432 0.0
C2603 C 0.71044 0.29319 0.4057 0.0
C2604 C 0.69488 0.29552 0.41133 0.0
C2605 C 0.68491 0.2826 0.4155 0.0
C2606 C 0.69046 0.26732 0.41402 0.0
C2607 C 0.70601 0.26493 0.40841 0.0
H2608 H 0.67287 0.28443 0.41985 0.0
H2609 H 0.82246 0.26367 0.36153 0.0
H2610 H 0.50153 0.08026 0.90365 0.0
H2611 H 0.52245 0.07207 0.88608 0.0
H2612 H 0.51354 0.02328 0.89542 0.0
H2613 H 0.49261 0.03153 0.91326 0.0
H2614 H 0.54652 0.03147 0.89164 0.0
H2615 H 0.49534 0.03411 0.86477 0.0
H2616 H 0.47048 0.04648 0.85759 0.0
H2617 H 0.50093 0.08446 0.84168 0.0
H2618 H 0.526 0.07244 0.84898 0.0
H2619 H 0.58174 0.99858 0.82317 0.0
H2620 H 0.56365 0.00478 0.84398 0.0
H2621 H 0.56861 0.05465 0.83746 0.0
H2622 H 0.58678 0.0486 0.81677 0.0
H2623 H 0.5369 0.04407 0.83983 0.0
H2624 H 0.58822 0.04139 0.86726 0.0
H2625 H 0.6129 0.02874 0.87448 0.0
H2626 H 0.58195 0.99021 0.88898 0.0
H2627 H 0.55708 1.00253 0.88166 0.0
C2628 C 0.50414 0.06781 0.90208 0.0
C2629 C 0.49527 0.05649 0.90967 0.0
C2630 C 0.51609 0.06313 0.89202 0.0
C2631 C 0.51931 0.04699 0.88915 0.0
C2632 C 0.51119 0.03579 0.89738 0.0
C2633 C 0.49927 0.04051 0.90758 0.0
C2634 C 0.53038 0.0418 0.87692 0.0
C2635 C 0.54431 0.03402 0.88026 0.0
C2636 C 0.52761 0.04526 0.86209 0.0
C2637 C 0.51255 0.05244 0.85754 0.0
C2638 C 0.49674 0.04516 0.85983 0.0
C2639 C 0.48261 0.0521 0.85573 0.0
C2640 C 0.48412 0.06627 0.84921 0.0
C2641 C 0.49978 0.0735 0.84675 0.0
C2642 C 0.51395 0.06662 0.85085 0.0
C2643 C 0.57918 0.01091 0.82629 0.0
C2644 C 0.5857 0.02308 0.81823 0.0
C2645 C 0.5688 0.01443 0.8382 0.0
C2646 C 0.56482 0.03021 0.84236 0.0
C2647 C 0.57144 0.04238 0.83443 0.0
C2648 C 0.58178 0.03888 0.82254 0.0
C2649 C 0.55327 0.03403 0.85458 0.0
C2650 C 0.53915 0.04149 0.8512 0.0
C2651 C 0.55585 0.03018 0.86932 0.0
C2652 C 0.57079 0.0228 0.87377 0.0
C2653 C 0.58668 0.03015 0.87188 0.0
C2654 C 0.6007 0.02305 0.87601 0.0
C2655 C 0.59899 0.00866 0.88214 0.0
C2656 C 0.58326 1.00135 0.88421 0.0
C2657 C 0.56919 0.00839 0.88008 0.0
H2658 H 0.60986 1.00318 0.88533 0.0
H2659 H 0.47317 0.07163 0.84605 0.0
H2660 H 0.31224 0.25064 0.32063 0.0
H2661 H 0.30967 0.23185 0.33932 0.0
H2662 H 0.32475 0.27069 0.37467 0.0
H2663 H 0.32719 0.28948 0.35611 0.0
H2664 H 0.34055 0.24221 0.37676 0.0
H2665 H 0.28568 0.25886 0.36991 0.0
H2666 H 0.26073 0.26252 0.3549 0.0
H2667 H 0.25347 0.21179 0.34014 0.0
H2668 H 0.27854 0.20785 0.3549 0.0
H2669 H 0.31835 0.21006 0.44246 0.0
H2670 H 0.32177 0.22628 0.42214 0.0
H2671 H 0.29508 0.18835 0.39135 0.0
H2672 H 0.29044 0.1725 0.41191 0.0
H2673 H 0.28571 0.21488 0.3854 0.0
H2674 H 0.33901 0.19713 0.39237 0.0
H2675 H 0.36435 0.1924 0.40626 0.0
H2676 H 0.37546 0.24317 0.41915 0.0
H2677 H 0.35006 0.2482 0.40551 0.0
C2678 C 0.31511 0.25512 0.33238 0.0
C2679 C 0.31981 0.27153 0.33693 0.0
C2680 C 0.31357 0.2444 0.34304 0.0
C2681 C 0.31693 0.2499 0.3584 0.0
C2682 C 0.32208 0.2662 0.36289 0.0
C2683 C 0.32338 0.27693 0.35229 0.0
C2684 C 0.31475 0.2388 0.3699 0.0
C2685 C 0.32855 0.23632 0.37876 0.0
C2686 C 0.29919 0.23074 0.37218 0.0
C2687 C 0.28408 0.23309 0.36337 0.0
C2688 C 0.27885 0.2485 0.36336 0.0
C2689 C 0.26467 0.25063 0.35491 0.0
C2690 C 0.25555 0.2374 0.34653 0.0
C2691 C 0.26056 0.22202 0.34661 0.0
C2692 C 0.27475 0.21984 0.35502 0.0
C2693 C 0.31295 0.20518 0.43145 0.0
C2694 C 0.30408 0.18985 0.42896 0.0
C2695 C 0.31519 0.21442 0.41971 0.0
C2696 C 0.30901 0.20848 0.40505 0.0
C2697 C 0.30009 0.19323 0.40251 0.0
C2698 C 0.29761 0.18406 0.4143 0.0
C2699 C 0.31154 0.2183 0.39248 0.0
C2700 C 0.29779 0.2206 0.38339 0.0
C2701 C 0.32723 0.22599 0.38983 0.0
C2702 C 0.34255 0.22303 0.39802 0.0
C2703 C 0.34679 0.20728 0.39825 0.0
C2704 C 0.36118 0.20455 0.40607 0.0
C2705 C 0.37149 0.21748 0.41361 0.0
C2706 C 0.36746 0.23317 0.41332 0.0
C2707 C 0.35308 0.23597 0.40553 0.0
H2708 H 0.38262 0.21533 0.41966 0.0
H2709 H 0.24457 0.23907 0.34001 0.0
H2710 H 0.54354 0.49674 0.95596 0.0
H2711 H 0.52673 0.50314 0.93486 0.0
H2712 H 0.53055 0.45585 0.91113 0.0
H2713 H 0.54775 0.44954 0.93194 0.0
H2714 H 0.53659 0.47835 0.8931 0.0
H2715 H 0.49473 0.46592 0.92757 0.0
H2716 H 0.48122 0.46846 0.95185 0.0
H2717 H 0.47581 0.51807 0.94891 0.0
H2718 H 0.4895 0.51589 0.9247 0.0
H2719 H 0.47574 0.47695 0.83482 0.0
H2720 H 0.49171 0.47155 0.85677 0.0
H2721 H 0.48524 0.51879 0.87934 0.0
H2722 H 0.46912 0.52423 0.8574 0.0
H2723 H 0.48082 0.49728 0.89825 0.0
H2724 H 0.52222 0.50992 0.86386 0.0
H2725 H 0.53596 0.5078 0.83969 0.0
H2726 H 0.54267 0.45844 0.84264 0.0
H2727 H 0.52876 0.46021 0.86673 0.0
C2728 C 0.54079 0.4877 0.94625 0.0
C2729 C 0.54695 0.4726 0.9457 0.0
C2730 C 0.53107 0.49133 0.93424 0.0
C2731 C 0.52725 0.47993 0.92144 0.0
C2732 C 0.53329 0.46483 0.9209 0.0
C2733 C 0.54299 0.46118 0.93289 0.0
C2734 C 0.5174 0.48385 0.90838 0.0
C2735 C 0.5243 0.48229 0.89419 0.0
C2736 C 0.50157 0.48946 0.90987 0.0
C2737 C 0.49329 0.49078 0.9244 0.0
C2738 C 0.49078 0.47741 0.93216 0.0
C2739 C 0.48307 0.47878 0.9459 0.0
C2740 C 0.4777 0.49343 0.95194 0.0
C2741 C 0.47999 0.50674 0.94423 0.0
C2742 C 0.48771 0.50544 0.93049 0.0
C2743 C 0.47784 0.48626 0.84439 0.0
C2744 C 0.47124 0.50107 0.8443 0.0
C2745 C 0.48698 0.48315 0.85696 0.0
C2746 C 0.48991 0.49484 0.86967 0.0
C2747 C 0.48316 0.50957 0.86969 0.0
C2748 C 0.47393 0.51266 0.85714 0.0
C2749 C 0.49994 0.49163 0.88292 0.0
C2750 C 0.49311 0.49337 0.89715 0.0
C2751 C 0.51589 0.48624 0.8815 0.0
C2752 C 0.52431 0.48516 0.86703 0.0
C2753 C 0.52652 0.49858 0.8593 0.0
C2754 C 0.53435 0.49745 0.84562 0.0
C2755 C 0.54015 0.48298 0.83961 0.0
C2756 C 0.53816 0.46963 0.84729 0.0
C2757 C 0.53031 0.4707 0.86097 0.0
H2758 H 0.54621 0.48213 0.82902 0.0
H2759 H 0.47173 0.49447 0.96258 0.0
H2760 H 0.76173 0.78763 0.17216 0.0
H2761 H 0.765 0.77333 0.14715 0.0
H2762 H 0.76982 0.72967 0.16633 0.0
H2763 H 0.76785 0.74411 0.1914 0.0
H2764 H 0.7918 0.73212 0.14693 0.0
H2765 H 0.7335 0.73777 0.14614 0.0
H2766 H 0.70859 0.75235 0.14858 0.0
H2767 H 0.72442 0.77962 0.11364 0.0
H2768 H 0.74954 0.76533 0.11112 0.0
H2769 H 0.77772 0.67533 0.08155 0.0
H2770 H 0.77415 0.69181 0.10544 0.0
H2771 H 0.77924 0.73447 0.08374 0.0
H2772 H 0.78328 0.71808 0.05975 0.0
H2773 H 0.75297 0.73377 0.10354 0.0
H2774 H 0.81091 0.72653 0.10399 0.0
H2775 H 0.83504 0.71086 0.10151 0.0
H2776 H 0.8187 0.68524 0.13741 0.0
H2777 H 0.79433 0.70061 0.13996 0.0
C2778 C 0.76361 0.77501 0.1711 0.0
C2779 C 0.76447 0.76708 0.18391 0.0
C2780 C 0.76526 0.76677 0.15672 0.0
C2781 C 0.76743 0.75032 0.15476 0.0
C2782 C 0.76811 0.74234 0.16749 0.0
C2783 C 0.76674 0.75061 0.18187 0.0
C2784 C 0.76958 0.74146 0.13955 0.0
C2785 C 0.78315 0.73235 0.13753 0.0
C2786 C 0.75859 0.74203 0.12709 0.0
C2787 C 0.74348 0.7506 0.12856 0.0
C2788 C 0.73173 0.74696 0.13906 0.0
C2789 C 0.71756 0.75515 0.14044 0.0
C2790 C 0.71495 0.76693 0.1313 0.0
C2791 C 0.72647 0.77051 0.12073 0.0
C2792 C 0.74067 0.76236 0.11931 0.0
C2793 C 0.7783 0.68823 0.08183 0.0
C2794 C 0.781 0.69536 0.0687 0.0
C2795 C 0.77615 0.69762 0.09551 0.0
C2796 C 0.7766 0.71437 0.0964 0.0
C2797 C 0.77885 0.72155 0.08329 0.0
C2798 C 0.78111 0.71215 0.06958 0.0
C2799 C 0.77497 0.72431 0.11111 0.0
C2800 C 0.76158 0.73362 0.11299 0.0
C2801 C 0.786 0.7238 0.12351 0.0
C2802 C 0.80072 0.71464 0.12208 0.0
C2803 C 0.8124 0.71748 0.11128 0.0
C2804 C 0.82613 0.70866 0.10988 0.0
C2805 C 0.82838 0.69704 0.11928 0.0
C2806 C 0.81693 0.69424 0.13013 0.0
C2807 C 0.80316 0.70301 0.13157 0.0
H2808 H 0.83902 0.69022 0.11817 0.0
H2809 H 0.70397 0.77326 0.13239 0.0
H2810 H 0.02046 0.0385 0.08839 0.0
H2811 H 0.00395 0.0348 0.1102 0.0
H2812 H 0.04646 0.02057 0.1332 0.0
H2813 H 0.06284 0.02379 0.1112 0.0
H2814 H 0.02041 1.00298 0.13946 0.0
H2815 H 0.03357 0.05948 0.13994 0.0
H2816 H 0.03508 0.08521 0.12964 0.0
H2817 H 0.98214 0.08142 0.1243 0.0
H2818 H 0.98032 0.05553 0.13437 0.0
H2819 H 0.99265 0.01897 0.21413 0.0
H2820 H 0.008 0.02038 0.19124 0.0
H2821 H 0.96313 0.02692 0.16687 0.0
H2822 H 0.9477 0.0256 0.18975 0.0
H2823 H 0.98998 0.04819 0.16135 0.0
H2824 H 0.97764 0.99142 0.162 0.0
H2825 H 0.97718 0.96625 0.17318 0.0
H2826 H 0.0302 0.97156 0.1777 0.0
H2827 H 0.03097 0.99689 0.16674 0.0
C2828 C 0.02622 0.03445 0.09806 0.0
C2829 C 0.04295 0.0315 0.09811 0.0
C2830 C 0.01681 0.03242 0.11057 0.0
C2831 C 0.02402 0.02775 0.12354 0.0
C2832 C 0.04058 0.02423 0.12338 0.0
C2833 C 0.04994 0.02604 0.11078 0.0
C2834 C 0.01447 0.02697 0.1374 0.0
C2835 C 0.01394 0.01296 0.14432 0.0
C2836 C 0.00578 0.03987 0.14372 0.0
C2837 C 0.00682 0.05549 0.13777 0.0
C2838 C 0.02225 0.06408 0.13648 0.0
C2839 C 0.02317 0.0787 0.13069 0.0
C2840 C 0.00872 0.08493 0.12628 0.0
C2841 C 0.99333 0.07657 0.1277 0.0
C2842 C 0.99234 0.06193 0.13345 0.0
C2843 C 0.98607 0.02082 0.20392 0.0
C2844 C 0.96894 0.02215 0.20376 0.0
C2845 C 0.99484 0.0215 0.19083 0.0
C2846 C 0.98669 0.02363 0.17731 0.0
C2847 C 0.96966 0.02522 0.17716 0.0
C2848 C 0.96084 0.02437 0.19022 0.0
C2849 C 0.99596 0.02424 0.16334 0.0
C2850 C 0.99645 0.03822 0.15643 0.0
C2851 C 0.00479 0.01141 0.15717 0.0
C2852 C 0.00435 0.99614 0.16368 0.0
C2853 C 0.9892 0.98729 0.16549 0.0
C2854 C 0.98888 0.97298 0.17176 0.0
C2855 C 0.00365 0.96733 0.17618 0.0
C2856 C 0.01877 0.97596 0.17429 0.0
C2857 C 0.01915 0.99029 0.16803 0.0
H2858 H 0.00338 0.95625 0.18104 0.0
H2859 H 0.00945 0.09624 0.12181 0.0
H2860 H 0.28018 0.75002 0.17861 0.0
H2861 H 0.27668 0.76092 0.15476 0.0
H2862 H 0.30359 0.80559 0.17446 0.0
H2863 H 0.30711 0.79481 0.19812 0.0
H2864 H 0.27479 0.81068 0.1615 0.0
H2865 H 0.32025 0.77953 0.14793 0.0
H2866 H 0.33449 0.75486 0.14407 0.0
H2867 H 0.29614 0.73283 0.11195 0.0
H2868 H 0.28156 0.75732 0.11577 0.0
H2869 H 0.28756 0.85293 0.09993 0.0
H2870 H 0.29175 0.83809 0.12108 0.0
H2871 H 0.26477 0.79591 0.09632 0.0
H2872 H 0.26056 0.81071 0.07503 0.0
H2873 H 0.29151 0.78793 0.1111 0.0
H2874 H 0.24649 0.81896 0.12382 0.0
H2875 H 0.23187 0.8434 0.12752 0.0
H2876 H 0.26858 0.86514 0.16133 0.0
H2877 H 0.28357 0.84091 0.15767 0.0
C2878 C 0.2856 0.76204 0.17773 0.0
C2879 C 0.29374 0.77162 0.1903 0.0
C2880 C 0.28357 0.76828 0.16411 0.0
C2881 C 0.28979 0.78413 0.16283 0.0
C2882 C 0.29852 0.7934 0.1752 0.0
C2883 C 0.30052 0.78722 0.18873 0.0
C2884 C 0.2865 0.79156 0.14902 0.0
C2885 C 0.27863 0.80578 0.15051 0.0
C2886 C 0.29096 0.78491 0.13457 0.0
C2887 C 0.29972 0.77019 0.13227 0.0
C2888 C 0.31478 0.76938 0.14014 0.0
C2889 C 0.32293 0.75544 0.13794 0.0
C2890 C 0.3162 0.74227 0.12781 0.0
C2891 C 0.30133 0.74303 0.11982 0.0
C2892 C 0.29312 0.75694 0.12199 0.0
C2893 C 0.28242 0.84052 0.099 0.0
C2894 C 0.27359 0.83307 0.08582 0.0
C2895 C 0.28486 0.83203 0.1111 0.0
C2896 C 0.27836 0.81593 0.11041 0.0
C2897 C 0.26989 0.80831 0.09714 0.0
C2898 C 0.26751 0.81679 0.08497 0.0
C2899 C 0.28017 0.80724 0.12368 0.0
C2900 C 0.28764 0.79277 0.12208 0.0
C2901 C 0.27527 0.8136 0.13807 0.0
C2902 C 0.26623 0.82816 0.14038 0.0
C2903 C 0.25151 0.82899 0.13197 0.0
C2904 C 0.24315 0.8428 0.13407 0.0
C2905 C 0.24931 0.85583 0.14463 0.0
C2906 C 0.26383 0.85505 0.15314 0.0
C2907 C 0.27226 0.84127 0.15107 0.0
H2908 H 0.24282 0.86651 0.14624 0.0
H2909 H 0.32253 0.73149 0.12611 0.0
H2910 H 0.03165 0.49239 0.05989 0.0
H2911 H 0.04554 0.49078 0.08402 0.0
H2912 H 0.99831 0.48243 0.1036 0.0
H2913 H 0.98424 0.48397 0.07931 0.0
H2914 H 0.01927 0.50372 0.12218 0.0
H2915 H 0.02176 0.45157 0.09479 0.0
H2916 H 0.02729 0.43197 0.07309 0.0
H2917 H 0.07873 0.44949 0.07691 0.0
H2918 H 0.07346 0.46937 0.09851 0.0
H2919 H 0.05719 0.48241 0.18867 0.0
H2920 H 0.04002 0.48125 0.16559 0.0
H2921 H 0.08379 0.48941 0.14072 0.0
H2922 H 0.101 0.4907 0.1637 0.0
H2923 H 0.06247 0.46631 0.12545 0.0
H2924 H 0.05959 0.51963 0.15151 0.0
H2925 H 0.05413 0.53956 0.17299 0.0
H2926 H 0.00343 0.51982 0.17155 0.0
H2927 H 0.00865 0.49962 0.15018 0.0
C2928 C 0.02418 0.49002 0.06926 0.0
C2929 C 0.00682 0.48808 0.0676 0.0
C2930 C 0.03215 0.48914 0.08308 0.0
C2931 C 0.02299 0.48619 0.09557 0.0
C2932 C 0.00564 0.48464 0.09409 0.0
C2933 C 0.99762 0.48555 0.08022 0.0
C2934 C 0.03167 0.48484 0.11013 0.0
C2935 C 0.0285 0.49533 0.12296 0.0
C2936 C 0.04393 0.47409 0.11111 0.0
C2937 C 0.04718 0.46205 0.09821 0.0
C2938 C 0.03423 0.45132 0.09095 0.0
C2939 C 0.03732 0.44015 0.07867 0.0
C2940 C 0.05335 0.43951 0.07361 0.0
C2941 C 0.06632 0.45001 0.08084 0.0
C2942 C 0.06329 0.46122 0.09311 0.0
C2943 C 0.06316 0.48402 0.1783 0.0
C2944 C 0.0805 0.48668 0.17808 0.0
C2945 C 0.05332 0.48334 0.16511 0.0
C2946 C 0.06059 0.48541 0.15143 0.0
C2947 C 0.07789 0.48773 0.15112 0.0
C2948 C 0.08773 0.4884 0.16429 0.0
C2949 C 0.05026 0.48536 0.13744 0.0
C2950 C 0.05313 0.47458 0.1247 0.0
C2951 C 0.03773 0.49584 0.13655 0.0
C2952 C 0.03456 0.50801 0.14936 0.0
C2953 C 0.04731 0.51946 0.15586 0.0
C2954 C 0.04425 0.53081 0.168 0.0
C2955 C 0.02845 0.53092 0.17366 0.0
C2956 C 0.01567 0.5197 0.16717 0.0
C2957 C 0.01866 0.5083 0.15504 0.0
H2958 H 0.02611 0.53972 0.18306 0.0
H2959 H 0.05572 0.43085 0.0641 0.0
H2960 H 0.35517 0.729 0.23427 0.0
H2961 H 0.37996 0.7294 0.25068 0.0
H2962 H 0.35124 0.70413 0.28126 0.0
H2963 H 0.32645 0.70391 0.26508 0.0
H2964 H 0.37124 0.72956 0.29597 0.0
H2965 H 0.37649 0.68457 0.25794 0.0
H2966 H 0.37792 0.67108 0.232 0.0
H2967 H 0.42068 0.7028 0.22548 0.0
H2968 H 0.41936 0.71663 0.25134 0.0
H2969 H 0.43443 0.70616 0.34156 0.0
H2970 H 0.41082 0.70598 0.32397 0.0
H2971 H 0.44264 0.72797 0.29339 0.0
H2972 H 0.46635 0.72806 0.31091 0.0
H2973 H 0.42157 0.70523 0.2782 0.0
H2974 H 0.41706 0.74998 0.3159 0.0
H2975 H 0.41586 0.76411 0.34163 0.0
H2976 H 0.37202 0.73401 0.34848 0.0
H2977 H 0.37309 0.71953 0.32285 0.0
C2978 C 0.35416 0.72356 0.24451 0.0
C2979 C 0.33888 0.71631 0.24831 0.0
C2980 C 0.36834 0.72371 0.25382 0.0
C2981 C 0.36748 0.71667 0.26714 0.0
C2982 C 0.35221 0.70959 0.27103 0.0
C2983 C 0.33808 0.70934 0.26169 0.0
C2984 C 0.38242 0.71681 0.27717 0.0
C2985 C 0.38218 0.72407 0.29213 0.0
C2986 C 0.39688 0.71008 0.27205 0.0
C2987 C 0.39772 0.70174 0.25652 0.0
C2988 C 0.38611 0.68875 0.25094 0.0
C2989 C 0.38692 0.68103 0.23625 0.0
C2990 C 0.39935 0.68611 0.22708 0.0
C2991 C 0.41104 0.69889 0.23259 0.0
C2992 C 0.41027 0.70667 0.24726 0.0
C2993 C 0.43639 0.711 0.33111 0.0
C2994 C 0.45226 0.7172 0.32767 0.0
C2995 C 0.42288 0.7109 0.32106 0.0
C2996 C 0.42488 0.71721 0.30744 0.0
C2997 C 0.44077 0.72306 0.30382 0.0
C2998 C 0.45433 0.72306 0.31383 0.0
C2999 C 0.41035 0.71783 0.29708 0.0
C3000 C 0.41067 0.71075 0.28204 0.0
C3001 C 0.39599 0.72485 0.3021 0.0
C3002 C 0.39525 0.73358 0.3175 0.0
C3003 C 0.40723 0.74629 0.32293 0.0
C3004 C 0.40656 0.75438 0.33749 0.0
C3005 C 0.39389 0.74993 0.3467 0.0
C3006 C 0.38184 0.73742 0.34135 0.0
C3007 C 0.38246 0.72928 0.3268 0.0
H3008 H 0.39339 0.75621 0.35797 0.0
H3009 H 0.39996 0.68011 0.21572 0.0
H3010 H 0.99201 0.42995 0.99235 0.0
H3011 H 0.99391 0.40177 0.98239 0.0
H3012 H 0.04658 0.41174 0.97888 0.0
H3013 H 0.04453 0.44001 0.98825 0.0
H3014 H 0.03495 0.39546 0.95436 0.0
H3015 H 0.0282 0.38905 0.00595 0.0
H3016 H 0.0152 0.39187 0.03047 0.0
H3017 H 0.9706 0.36553 0.01017 0.0
H3018 H 0.98326 0.36275 0.98548 0.0
H3019 H 0.05202 0.31392 0.93872 0.0
H3020 H 0.05035 0.34063 0.95251 0.0
H3021 H 0.99736 0.33495 0.94547 0.0
H3022 H 0.99887 0.30851 0.93107 0.0
H3023 H 0.00941 0.34838 0.97583 0.0
H3024 H 0.017 0.35589 0.92399 0.0
H3025 H 0.03109 0.35267 0.90003 0.0
H3026 H 0.07585 0.3768 0.92211 0.0
H3027 H 0.06209 0.37994 0.94627 0.0
C3028 C 0.00401 0.42602 0.98968 0.0
C3029 C 0.01812 0.43711 0.99104 0.0
C3030 C 0.00512 0.4099 0.98402 0.0
C3031 C 0.02043 0.40452 0.97997 0.0
C3032 C 0.03461 0.41555 0.98184 0.0
C3033 C 0.03346 0.43169 0.98724 0.0
C3034 C 0.02157 0.38769 0.97288 0.0
C3035 C 0.0296 0.38521 0.95925 0.0
C3036 C 0.01428 0.3742 0.979 0.0
C3037 C 0.00664 0.37582 0.99384 0.0
C3038 C 0.01558 0.38397 0.00669 0.0
C3039 C 0.00828 0.38554 0.02063 0.0
C3040 C 0.99207 0.37892 0.02187 0.0
C3041 C 0.98315 0.37067 0.00919 0.0
C3042 C 0.99039 0.36908 0.99523 0.0
C3043 C 0.03999 0.31834 0.93995 0.0
C3044 C 0.02559 0.30901 0.93363 0.0
C3045 C 0.03907 0.33358 0.94797 0.0
C3046 C 0.02374 0.33975 0.94997 0.0
C3047 C 0.0093 0.33034 0.94412 0.0
C3048 C 0.01021 0.31518 0.93594 0.0
C3049 C 0.02286 0.35634 0.95752 0.0
C3050 C 0.01484 0.35873 0.97111 0.0
C3051 C 0.03032 0.36975 0.95151 0.0
C3052 C 0.03856 0.36799 0.93697 0.0
C3053 C 0.02989 0.36038 0.92376 0.0
C3054 C 0.03781 0.35859 0.91014 0.0
C3055 C 0.05437 0.36449 0.90955 0.0
C3056 C 0.06303 0.37222 0.92259 0.0
C3057 C 0.05517 0.37402 0.93625 0.0
H3058 H 0.06048 0.36309 0.89899 0.0
H3059 H 0.98644 0.38014 0.03267 0.0
H3060 H 0.73031 0.76472 0.28787 0.0
H3061 H 0.70476 0.76297 0.30141 0.0
H3062 H 0.67624 0.75727 0.25939 0.0
H3063 H 0.70192 0.75928 0.24576 0.0
H3064 H 0.66125 0.77529 0.28159 0.0
H3065 H 0.68399 0.7247 0.27539 0.0
H3066 H 0.70577 0.70638 0.2767 0.0
H3067 H 0.71016 0.71854 0.32471 0.0
H3068 H 0.68858 0.73714 0.32367 0.0
H3069 H 0.58849 0.7395 0.31195 0.0
H3070 H 0.61241 0.74456 0.29676 0.0
H3071 H 0.64451 0.75125 0.3367 0.0
H3072 H 0.62076 0.74584 0.35189 0.0
H3073 H 0.65681 0.73213 0.31418 0.0
H3074 H 0.63402 0.78317 0.32002 0.0
H3075 H 0.61212 0.80129 0.31833 0.0
H3076 H 0.6073 0.78764 0.2705 0.0
H3077 H 0.62902 0.76926 0.27193 0.0
C3078 C 0.71858 0.76332 0.28154 0.0
C3079 C 0.71809 0.76195 0.26576 0.0
C3080 C 0.70399 0.76228 0.28927 0.0
C3081 C 0.68858 0.75959 0.28139 0.0
C3082 C 0.68799 0.75924 0.26569 0.0
C3083 C 0.70265 0.76043 0.25793 0.0
C3084 C 0.67328 0.75612 0.28953 0.0
C3085 C 0.66018 0.76572 0.28856 0.0
C3086 C 0.67191 0.74373 0.29875 0.0
C3087 C 0.68477 0.73241 0.29944 0.0
C3088 C 0.68968 0.72355 0.28622 0.0
C3089 C 0.70198 0.71311 0.28691 0.0
C3090 C 0.70937 0.71132 0.30077 0.0
C3091 C 0.70444 0.71995 0.31398 0.0
C3092 C 0.69216 0.73043 0.31335 0.0
C3093 C 0.60066 0.74194 0.31749 0.0
C3094 C 0.6027 0.74229 0.33316 0.0
C3095 C 0.6143 0.74499 0.3088 0.0
C3096 C 0.63025 0.74846 0.31561 0.0
C3097 C 0.63232 0.74867 0.33121 0.0
C3098 C 0.61871 0.74568 0.3399 0.0
C3099 C 0.64488 0.75148 0.30649 0.0
C3100 C 0.65785 0.7417 0.30721 0.0
C3101 C 0.64604 0.76363 0.29699 0.0
C3102 C 0.63302 0.77471 0.29611 0.0
C3103 C 0.62819 0.78393 0.30916 0.0
C3104 C 0.61583 0.79427 0.30824 0.0
C3105 C 0.60829 0.79558 0.29432 0.0
C3106 C 0.61313 0.78659 0.28128 0.0
C3107 C 0.62547 0.77622 0.28213 0.0
H3108 H 0.59872 0.8036 0.29364 0.0
H3109 H 0.71889 0.70324 0.30128 0.0
H3110 H 0.0854 0.11514 0.03757 0.0
H3111 H 0.0804 0.12647 0.01441 0.0
H3112 H 0.03971 0.09025 1.00169 0.0
H3113 H 0.04444 0.07896 0.02517 0.0
H3114 H 0.06143 0.09962 0.97681 0.0
H3115 H 0.02864 0.12202 0.01672 0.0
H3116 H 0.02444 0.13418 0.04266 0.0
H3117 H 0.05935 0.1742 0.03746 0.0
H3118 H 0.06398 0.16213 0.01156 0.0
H3119 H 0.02657 0.14614 0.92421 0.0
H3120 H 0.03113 0.12863 0.94336 0.0
H3121 H 0.06279 0.16693 0.96939 0.0
H3122 H 0.05784 0.18451 0.95055 0.0
H3123 H 0.04315 0.15434 0.98713 0.0
H3124 H 0.07724 0.13239 0.94822 0.0
H3125 H 0.08326 0.12036 0.92267 0.0
H3126 H 0.04786 0.0801 0.92589 0.0
H3127 H 0.04148 0.092 0.9514 0.0
C3128 C 0.0755 0.10943 0.02978 0.0
C3129 C 0.06513 0.09631 0.03335 0.0
C3130 C 0.07272 0.11588 0.01651 0.0
C3131 C 0.05956 0.10933 0.00644 0.0
C3132 C 0.04993 0.09548 0.00934 0.0
C3133 C 0.05267 0.08902 0.02273 0.0
C3134 C 0.05498 0.1181 0.99387 0.0
C3135 C 0.05717 0.11148 0.97898 0.0
C3136 C 0.04973 0.13368 0.99677 0.0
C3137 C 0.04676 0.1411 0.01225 0.0
C3138 C 0.03552 0.13335 0.02115 0.0
C3139 C 0.03305 0.14023 0.03584 0.0
C3140 C 0.04165 0.15494 0.04172 0.0
C3141 C 0.05271 0.16281 0.0329 0.0
C3142 C 0.05525 0.15596 0.01821 0.0
C3143 C 0.03461 0.15073 0.93397 0.0
C3144 C 0.04178 0.16672 0.93592 0.0
C3145 C 0.03726 0.1407 0.9449 0.0
C3146 C 0.04742 0.14636 0.95784 0.0
C3147 C 0.05482 0.16225 0.9596 0.0
C3148 C 0.05198 0.17231 0.94881 0.0
C3149 C 0.04994 0.13611 0.9699 0.0
C3150 C 0.0473 0.14245 0.9848 0.0
C3151 C 0.05491 0.12035 0.96696 0.0
C3152 C 0.05875 0.11317 0.95165 0.0
C3153 C 0.07065 0.12103 0.94343 0.0
C3154 C 0.07414 0.11423 0.92897 0.0
C3155 C 0.06591 0.0995 0.92264 0.0
C3156 C 0.0542 0.09152 0.93079 0.0
C3157 C 0.05065 0.09829 0.94526 0.0
H3158 H 0.06863 0.09425 0.91144 0.0
H3159 H 0.03972 0.16024 0.05309 0.0
H3160 H 0.33664 0.26378 0.28486 0.0
H3161 H 0.35668 0.26012 0.26527 0.0
H3162 H 0.37015 0.31117 0.27071 0.0
H3163 H 0.35085 0.31496 0.29082 0.0
H3164 H 0.36545 0.29553 0.23959 0.0
H3165 H 0.39443 0.29081 0.28655 0.0
H3166 H 0.39818 0.27945 0.31021 0.0
H3167 H 0.39884 0.23244 0.28537 0.0
H3168 H 0.39484 0.2435 0.26156 0.0
H3169 H 0.44076 0.29943 0.20186 0.0
H3170 H 0.41857 0.30239 0.2195 0.0
H3171 H 0.41623 0.25176 0.22312 0.0
H3172 H 0.43888 0.24896 0.20597 0.0
H3173 H 0.4142 0.26651 0.24932 0.0
H3174 H 0.38609 0.26977 0.20256 0.0
H3175 H 0.38099 0.27959 0.17833 0.0
H3176 H 0.37687 0.32688 0.20135 0.0
H3177 H 0.38216 0.31739 0.22572 0.0
C3178 C 0.3439 0.27427 0.28201 0.0
C3179 C 0.34207 0.28968 0.28959 0.0
C3180 C 0.35528 0.27213 0.2707 0.0
C3181 C 0.36493 0.28537 0.26658 0.0
C3182 C 0.36275 0.3008 0.27367 0.0
C3183 C 0.35157 0.30293 0.28513 0.0
C3184 C 0.37785 0.28309 0.25536 0.0
C3185 C 0.37621 0.28933 0.24173 0.0
C3186 C 0.39161 0.27458 0.258 0.0
C3187 C 0.39416 0.26795 0.2723 0.0
C3188 C 0.39523 0.27803 0.28614 0.0
C3189 C 0.39743 0.27165 0.29958 0.0
C3190 C 0.3987 0.25522 0.2993 0.0
C3191 C 0.39783 0.24515 0.28557 0.0
C3192 C 0.39561 0.25147 0.27211 0.0
C3193 C 0.43541 0.28893 0.20636 0.0
C3194 C 0.44154 0.27397 0.20253 0.0
C3195 C 0.42265 0.2906 0.2164 0.0
C3196 C 0.41544 0.27725 0.22253 0.0
C3197 C 0.42153 0.26228 0.21862 0.0
C3198 C 0.43448 0.26067 0.2088 0.0
C3199 C 0.40193 0.27896 0.23336 0.0
C3200 C 0.40344 0.27264 0.24701 0.0
C3201 C 0.38789 0.28714 0.23059 0.0
C3202 C 0.38468 0.2929 0.21596 0.0
C3203 C 0.38422 0.28229 0.20245 0.0
C3204 C 0.38127 0.28779 0.18869 0.0
C3205 C 0.37865 0.30386 0.1883 0.0
C3206 C 0.37892 0.31444 0.20167 0.0
C3207 C 0.38188 0.30901 0.21546 0.0
H3208 H 0.37637 0.30809 0.17764 0.0
H3209 H 0.4004 0.25031 0.30971 0.0
H3210 H 0.54357 0.41781 0.01242 0.0
H3211 H 0.53773 0.40432 0.03455 0.0
H3212 H 0.58184 0.37994 0.02808 0.0
H3213 H 0.58749 0.39314 0.00592 0.0
H3214 H 0.55638 0.3591 0.03023 0.0
H3215 H 0.57776 0.40971 0.0584 0.0
H3216 H 0.57937 0.43898 0.06601 0.0
H3217 H 0.52919 0.4347 0.0796 0.0
H3218 H 0.52721 0.40541 0.07189 0.0
H3219 H 0.55922 0.32021 0.0943 0.0
H3220 H 0.5657 0.33911 0.07649 0.0
H3221 H 0.51941 0.35919 0.08455 0.0
H3222 H 0.51283 0.34026 0.10249 0.0
H3223 H 0.5443 0.38266 0.08181 0.0
H3224 H 0.52285 0.33239 0.05378 0.0
H3225 H 0.52092 0.3031 0.0462 0.0
H3226 H 0.57088 0.30693 0.03199 0.0
H3227 H 0.57319 0.33623 0.0397 0.0
C3228 C 0.55221 0.40988 0.01599 0.0
C3229 C 0.56593 0.40645 0.00742 0.0
C3230 C 0.54886 0.40215 0.02863 0.0
C3231 C 0.55931 0.39103 0.033 0.0
C3232 C 0.57351 0.38834 0.02489 0.0
C3233 C 0.57677 0.39593 0.01226 0.0
C3234 C 0.55486 0.38109 0.0451 0.0
C3235 C 0.554 0.36431 0.04156 0.0
C3236 C 0.55111 0.38779 0.05977 0.0
C3237 C 0.55228 0.40539 0.06442 0.0
C3238 C 0.56702 0.41502 0.06289 0.0
C3239 C 0.56801 0.43162 0.06725 0.0
C3240 C 0.55438 0.4387 0.07324 0.0
C3241 C 0.53973 0.4292 0.07493 0.0
C3242 C 0.53868 0.4126 0.07058 0.0
C3243 C 0.55039 0.32863 0.0923 0.0
C3244 C 0.53539 0.32855 0.09969 0.0
C3245 C 0.55414 0.33947 0.08213 0.0
C3246 C 0.54292 0.35041 0.07896 0.0
C3247 C 0.52824 0.35085 0.08678 0.0
C3248 C 0.5245 0.34002 0.09704 0.0
C3249 C 0.54625 0.36076 0.06697 0.0
C3250 C 0.54675 0.37753 0.07048 0.0
C3251 C 0.54963 0.3541 0.05221 0.0
C3252 C 0.54823 0.33649 0.04744 0.0
C3253 C 0.53346 0.32697 0.04914 0.0
C3254 C 0.5323 0.31037 0.04481 0.0
C3255 C 0.54578 0.30316 0.03865 0.0
C3256 C 0.56045 0.31254 0.03678 0.0
C3257 C 0.56169 0.32914 0.04111 0.0
H3258 H 0.54486 0.2903 0.0353 0.0
H3259 H 0.55517 0.45155 0.07661 0.0
H3260 H 0.70951 0.20945 0.23605 0.0
H3261 H 0.68282 0.21516 0.22599 0.0
H3262 H 0.67361 0.24233 0.2685 0.0
H3263 H 0.70067 0.23689 0.27867 0.0
H3264 H 0.64499 0.22184 0.25345 0.0
H3265 H 0.68647 0.26305 0.2437 0.0
H3266 H 0.7134 0.27326 0.23507 0.0
H3267 H 0.70071 0.24886 0.19059 0.0
H3268 H 0.67379 0.23828 0.19901 0.0
H3269 H 0.57981 0.25866 0.21944 0.0
H3270 H 0.6041 0.2536 0.23431 0.0
H3271 H 0.62616 0.234 0.19371 0.0
H3272 H 0.60212 0.23933 0.17884 0.0
H3273 H 0.64826 0.25295 0.21029 0.0
H3274 H 0.60807 0.21024 0.21964 0.0
H3275 H 0.58148 0.19854 0.22776 0.0
H3276 H 0.59162 0.22422 0.27214 0.0
H3277 H 0.6182 0.23624 0.26422 0.0
C3278 C 0.70183 0.21662 0.24332 0.0
C3279 C 0.70737 0.22299 0.25809 0.0
C3280 C 0.68653 0.2198 0.23756 0.0
C3281 C 0.67636 0.22936 0.24642 0.0
C3282 C 0.68132 0.23495 0.26147 0.0
C3283 C 0.69675 0.23181 0.26727 0.0
C3284 C 0.66118 0.23432 0.23945 0.0
C3285 C 0.64564 0.22888 0.24419 0.0
C3286 C 0.66208 0.24324 0.22718 0.0
C3287 C 0.67816 0.24978 0.22202 0.0
C3288 C 0.68946 0.25977 0.2321 0.0
C3289 C 0.70472 0.26564 0.22725 0.0
C3290 C 0.70878 0.26169 0.2123 0.0
C3291 C 0.69756 0.2519 0.20216 0.0
C3292 C 0.68229 0.24598 0.20697 0.0
C3293 C 0.58981 0.25318 0.21372 0.0
C3294 C 0.58907 0.24943 0.19796 0.0
C3295 C 0.60368 0.25026 0.22223 0.0
C3296 C 0.61695 0.24326 0.21518 0.0
C3297 C 0.61615 0.23947 0.19944 0.0
C3298 C 0.60241 0.24254 0.19094 0.0
C3299 C 0.63189 0.24017 0.22401 0.0
C3300 C 0.64747 0.24602 0.21964 0.0
C3301 C 0.63098 0.23151 0.23651 0.0
C3302 C 0.61503 0.22428 0.24129 0.0
C3303 C 0.60457 0.21349 0.2311 0.0
C3304 C 0.58951 0.20679 0.23567 0.0
C3305 C 0.58484 0.21068 0.25044 0.0
C3306 C 0.59524 0.22125 0.26069 0.0
C3307 C 0.61031 0.228 0.25617 0.0
H3308 H 0.57318 0.20547 0.25396 0.0
H3309 H 0.7206 0.26624 0.20856 0.0
H3310 H 0.44438 0.07968 0.00563 0.0
H3311 H 0.45129 0.10214 0.02555 0.0
H3312 H 0.50088 0.10808 0.01015 0.0
H3313 H 0.49414 0.08527 0.99029 0.0
H3314 H 0.50024 0.11108 0.04119 0.0
H3315 H 0.47359 0.13261 1.00104 0.0
H3316 H 0.45152 0.13396 0.98191 0.0
H3317 H 0.41657 0.14067 0.01648 0.0
H3318 H 0.43839 0.13911 0.03582 0.0
H3319 H 0.52062 0.18911 0.08178 0.0
H3320 H 0.51562 0.16627 0.06191 0.0
H3321 H 0.46442 0.16037 0.0731 0.0
H3322 H 0.46916 0.18363 0.09256 0.0
H3323 H 0.46675 0.15753 0.04361 0.0
H3324 H 0.493 0.13542 0.08374 0.0
H3325 H 0.51483 0.13371 0.103 0.0
H3326 H 0.55028 0.12789 0.06876 0.0
H3327 H 0.5287 0.12978 0.0493 0.0
C3328 C 0.45686 0.08555 0.00661 0.0
C3329 C 0.46873 0.08063 0.99637 0.0
C3330 C 0.46074 0.09852 0.01793 0.0
C3331 C 0.47654 0.10693 0.01923 0.0
C3332 C 0.48858 0.1018 0.00931 0.0
C3333 C 0.48469 0.08883 0.99792 0.0
C3334 C 0.48028 0.12129 0.03074 0.0
C3335 C 0.49309 0.12135 0.0416 0.0
C3336 C 0.47072 0.13454 0.03146 0.0
C3337 C 0.4576 0.13559 0.01987 0.0
C3338 C 0.46117 0.13425 0.00456 0.0
C3339 C 0.44871 0.13507 0.99368 0.0
C3340 C 0.43265 0.13737 0.99797 0.0
C3341 C 0.42902 0.13888 0.01317 0.0
C3342 C 0.44143 0.13804 0.0241 0.0
C3343 C 0.50825 0.18307 0.07993 0.0
C3344 C 0.4953 0.18823 0.08883 0.0
C3345 C 0.50545 0.16987 0.06866 0.0
C3346 C 0.48969 0.16142 0.06612 0.0
C3347 C 0.47671 0.16663 0.07488 0.0
C3348 C 0.47948 0.17986 0.08611 0.0
C3349 C 0.48663 0.1473 0.0542 0.0
C3350 C 0.47395 0.1473 0.04322 0.0
C3351 C 0.49628 0.13409 0.05341 0.0
C3352 C 0.50927 0.13291 0.06508 0.0
C3353 C 0.50548 0.1339 0.08033 0.0
C3354 C 0.5178 0.13288 0.09128 0.0
C3355 C 0.53394 0.13074 0.08711 0.0
C3356 C 0.53778 0.12957 0.07197 0.0
C3357 C 0.5255 0.1306 0.06098 0.0
H3358 H 0.54346 0.12995 0.0956 0.0
H3359 H 0.42302 0.138 0.98953 0.0
H3360 H 0.26449 0.322 0.74114 0.0
H3361 H 0.28049 0.34787 0.749 0.0
H3362 H 0.31427 0.33727 0.71377 0.0
H3363 H 0.29909 0.31106 0.70654 0.0
H3364 H 0.33115 0.3494 0.73773 0.0
H3365 H 0.28339 0.36427 0.71205 0.0
H3366 H 0.25364 0.36561 0.70675 0.0
H3367 H 0.24904 0.38968 0.75141 0.0
H3368 H 0.27873 0.38829 0.75704 0.0
H3369 H 0.36888 0.42738 0.73258 0.0
H3370 H 0.35117 0.40219 0.72724 0.0
H3371 H 0.32841 0.4123 0.76968 0.0
H3372 H 0.34659 0.43727 0.7755 0.0
H3373 H 0.30564 0.4009 0.74399 0.0
H3374 H 0.35463 0.38682 0.76854 0.0
H3375 H 0.38469 0.38608 0.77246 0.0
H3376 H 0.38708 0.36088 0.72792 0.0
H3377 H 0.35706 0.36168 0.72365 0.0
C3378 C 0.27539 0.3251 0.73513 0.0
C3379 C 0.28036 0.3144 0.72311 0.0
C3380 C 0.28444 0.34002 0.73953 0.0
C3381 C 0.2985 0.34468 0.73186 0.0
C3382 C 0.30345 0.33402 0.71986 0.0
C3383 C 0.29457 0.31907 0.71559 0.0
C3384 C 0.30836 0.36044 0.73644 0.0
C3385 C 0.32554 0.36064 0.73892 0.0
C3386 C 0.30109 0.37517 0.73837 0.0
C3387 C 0.28324 0.37601 0.73502 0.0
C3388 C 0.276 0.36973 0.72078 0.0
C3389 C 0.25916 0.37052 0.71771 0.0
C3390 C 0.24944 0.37768 0.72875 0.0
C3391 C 0.25657 0.38411 0.74288 0.0
C3392 C 0.27341 0.38333 0.74601 0.0
C3393 C 0.36029 0.42423 0.74091 0.0
C3394 C 0.35936 0.43438 0.75457 0.0
C3395 C 0.35006 0.40986 0.73776 0.0
C3396 C 0.33856 0.40536 0.7481 0.0
C3397 C 0.33719 0.4156 0.76154 0.0
C3398 C 0.34757 0.42992 0.7648 0.0
C3399 C 0.32832 0.38973 0.74497 0.0
C3400 C 0.31114 0.38959 0.74283 0.0
C3401 C 0.33559 0.37506 0.74314 0.0
C3402 C 0.35362 0.37444 0.74573 0.0
C3403 C 0.36159 0.38124 0.75953 0.0
C3404 C 0.37861 0.38079 0.76183 0.0
C3405 C 0.38779 0.37347 0.75043 0.0
C3406 C 0.37995 0.36656 0.73673 0.0
C3407 C 0.36293 0.36699 0.73437 0.0
H3408 H 0.40097 0.37313 0.75223 0.0
H3409 H 0.23641 0.37829 0.72635 0.0
H3410 H 0.27086 0.67343 0.82738 0.0
H3411 H 0.28911 0.65177 0.82501 0.0
H3412 H 0.30872 0.66823 0.78513 0.0
H3413 H 0.29096 0.69008 0.78761 0.0
H3414 H 0.30024 0.63557 0.7813 0.0
H3415 H 0.33096 0.67562 0.81763 0.0
H3416 H 0.33489 0.69427 0.84131 0.0
H3417 H 0.32573 0.65489 0.86662 0.0
H3418 H 0.32151 0.63602 0.84307 0.0
H3419 H 0.37033 0.59314 0.77012 0.0
H3420 H 0.35184 0.61429 0.7749 0.0
H3421 H 0.3388 0.59739 0.81665 0.0
H3422 H 0.35745 0.57627 0.81198 0.0
H3423 H 0.34259 0.62917 0.8205 0.0
H3424 H 0.31266 0.58892 0.78503 0.0
H3425 H 0.30793 0.56974 0.76175 0.0
H3426 H 0.31424 0.60852 0.73534 0.0
H3427 H 0.31925 0.62792 0.75847 0.0
C3428 C 0.27918 0.67256 0.8182 0.0
C3429 C 0.2793 0.68349 0.80763 0.0
C3430 C 0.28957 0.66013 0.81684 0.0
C3431 C 0.30029 0.65838 0.80489 0.0
C3432 C 0.30047 0.66927 0.79437 0.0
C3433 C 0.29021 0.68172 0.79577 0.0
C3434 C 0.31124 0.64513 0.80314 0.0
C3435 C 0.30962 0.63427 0.78981 0.0
C3436 C 0.32311 0.64311 0.81443 0.0
C3437 C 0.32574 0.65443 0.82859 0.0
C3438 C 0.32965 0.67095 0.82824 0.0
C3439 C 0.33195 0.68156 0.84164 0.0
C3440 C 0.33051 0.67577 0.85546 0.0
C3441 C 0.32681 0.65936 0.85591 0.0
C3442 C 0.32447 0.6487 0.84254 0.0
C3443 C 0.36348 0.59387 0.78029 0.0
C3444 C 0.36529 0.58292 0.7906 0.0
C3445 C 0.35289 0.60598 0.78302 0.0
C3446 C 0.34367 0.6073 0.79602 0.0
C3447 C 0.34574 0.59662 0.80652 0.0
C3448 C 0.35644 0.58457 0.80385 0.0
C3449 C 0.33178 0.61972 0.79853 0.0
C3450 C 0.33317 0.6304 0.81201 0.0
C3451 C 0.31955 0.62148 0.78743 0.0
C3452 C 0.31648 0.60986 0.77349 0.0
C3453 C 0.31316 0.59335 0.77425 0.0
C3454 C 0.31041 0.58244 0.76109 0.0
C3455 C 0.31083 0.58791 0.74707 0.0
C3456 C 0.31395 0.6043 0.7462 0.0
C3457 C 0.31673 0.61526 0.75934 0.0
H3458 H 0.30869 0.57944 0.73689 0.0
H3459 H 0.33231 0.68401 0.86582 0.0
H3460 H 0.9464 0.51297 0.46294 0.0
H3461 H 0.92571 0.49158 0.46801 0.0
H3462 H 0.90493 0.52478 0.5012 0.0
H3463 H 0.92508 0.54626 0.49593 0.0
H3464 H 0.90893 0.49554 0.51115 0.0
H3465 H 0.88623 0.51525 0.46749 0.0
H3466 H 0.88667 0.52196 0.4416 0.0
H3467 H 0.89249 0.47288 0.42473 0.0
H3468 H 0.89232 0.46592 0.45056 0.0
H3469 H 0.8312 0.45597 0.52256 0.0
H3470 H 0.85392 0.47474 0.51678 0.0
H3471 H 0.86628 0.44037 0.4799 0.0
H3472 H 0.84291 0.42188 0.48502 0.0
H3473 H 0.86824 0.46859 0.47135 0.0
H3474 H 0.88952 0.44807 0.51426 0.0
H3475 H 0.88975 0.44082 0.53997 0.0
H3476 H 0.88779 0.49024 0.55812 0.0
H3477 H 0.88731 0.49777 0.5325 0.0
C3478 C 0.93737 0.51576 0.47126 0.0
C3479 C 0.93753 0.53139 0.47907 0.0
C3480 C 0.92559 0.50349 0.47418 0.0
C3481 C 0.91375 0.5066 0.48497 0.0
C3482 C 0.91402 0.52208 0.49291 0.0
C3483 C 0.92566 0.53435 0.48993 0.0
C3484 C 0.90085 0.49387 0.4879 0.0
C3485 C 0.89994 0.48972 0.50249 0.0
C3486 C 0.88944 0.48595 0.4765 0.0
C3487 C 0.88945 0.49011 0.46097 0.0
C3488 C 0.88774 0.50592 0.45827 0.0
C3489 C 0.88792 0.50976 0.4436 0.0
C3490 C 0.88966 0.49787 0.43153 0.0
C3491 C 0.89117 0.48209 0.43409 0.0
C3492 C 0.89103 0.47819 0.44874 0.0
C3493 C 0.8386 0.45241 0.51311 0.0
C3494 C 0.83514 0.43732 0.50429 0.0
C3495 C 0.85179 0.46311 0.50994 0.0
C3496 C 0.86206 0.45891 0.49806 0.0
C3497 C 0.85863 0.44389 0.48919 0.0
C3498 C 0.84533 0.43324 0.49225 0.0
C3499 C 0.87614 0.47032 0.4947 0.0
C3500 C 0.87729 0.47424 0.48002 0.0
C3501 C 0.88789 0.47792 0.50601 0.0
C3502 C 0.88824 0.47346 0.52145 0.0
C3503 C 0.88902 0.45738 0.52373 0.0
C3504 C 0.88921 0.45322 0.53829 0.0
C3505 C 0.88875 0.46506 0.55067 0.0
C3506 C 0.88813 0.48108 0.54852 0.0
C3507 C 0.88792 0.4853 0.53398 0.0
H3508 H 0.8889 0.46181 0.56193 0.0
H3509 H 0.88979 0.50086 0.42018 0.0
H3510 H 0.76186 0.83474 0.80147 0.0
H3511 H 0.74367 0.85092 0.78879 0.0
H3512 H 0.7814 0.89094 0.79566 0.0
H3513 H 0.79929 0.87495 0.80867 0.0
H3514 H 0.75386 0.90038 0.80529 0.0
H3515 H 0.76912 0.86942 0.75994 0.0
H3516 H 0.77271 0.84474 0.74284 0.0
H3517 H 0.72055 0.83075 0.74228 0.0
H3518 H 0.71668 0.85525 0.75955 0.0
H3519 H 0.71666 0.95411 0.76446 0.0
H3520 H 0.73521 0.9348 0.77122 0.0
H3521 H 0.69412 0.89827 0.76848 0.0
H3522 H 0.67546 0.91748 0.76134 0.0
H3523 H 0.7224 0.88638 0.75636 0.0
H3524 H 0.70744 0.91716 0.8019 0.0
H3525 H 0.70385 0.94195 0.81886 0.0
H3526 H 0.75593 0.95619 0.8189 0.0
H3527 H 0.75978 0.93158 0.80175 0.0
C3528 C 0.76638 0.84685 0.79989 0.0
C3529 C 0.78194 0.85363 0.80605 0.0
C3530 C 0.75598 0.85612 0.79265 0.0
C3531 C 0.76111 0.87222 0.79125 0.0
C3532 C 0.77707 0.87862 0.79668 0.0
C3533 C 0.78733 0.86946 0.80404 0.0
C3534 C 0.7495 0.8829 0.78544 0.0
C3535 C 0.74722 0.89738 0.79446 0.0
C3536 C 0.74034 0.87883 0.77155 0.0
C3537 C 0.74264 0.8641 0.76116 0.0
C3538 C 0.75844 0.86101 0.75627 0.0
C3539 C 0.76052 0.84707 0.74653 0.0
C3540 C 0.74688 0.83616 0.74151 0.0
C3541 C 0.73111 0.8392 0.7462 0.0
C3542 C 0.72896 0.85312 0.75595 0.0
C3543 C 0.71157 0.94191 0.76502 0.0
C3544 C 0.69452 0.93739 0.76241 0.0
C3545 C 0.7222 0.9309 0.76901 0.0
C3546 C 0.71604 0.91512 0.77052 0.0
C3547 C 0.69914 0.91039 0.76742 0.0
C3548 C 0.68847 0.92143 0.76347 0.0
C3549 C 0.72713 0.9039 0.77609 0.0
C3550 C 0.72917 0.88933 0.76713 0.0
C3551 C 0.73614 0.90785 0.79004 0.0
C3552 C 0.73387 0.9226 0.80043 0.0
C3553 C 0.7181 0.92564 0.80543 0.0
C3554 C 0.71603 0.93964 0.81509 0.0
C3555 C 0.72965 0.95065 0.81992 0.0
C3556 C 0.74538 0.94766 0.81513 0.0
C3557 C 0.74753 0.93368 0.80545 0.0
H3558 H 0.72801 0.96149 0.8274 0.0
H3559 H 0.74851 0.82537 0.73396 0.0
H3560 H 0.58349 0.50877 0.98484 0.0
H3561 H 0.60775 0.52849 0.98927 0.0
H3562 H 0.63956 0.49073 0.97881 0.0
H3563 H 0.61535 0.47095 0.97472 0.0
H3564 H 0.65354 0.51174 1.0008 0.0
H3565 H 0.62817 0.51491 0.9525 0.0
H3566 H 0.60537 0.51796 0.93466 0.0
H3567 H 0.60022 0.56506 0.95766 0.0
H3568 H 0.62285 0.56218 0.97578 0.0
H3569 H 0.72397 0.55924 0.97991 0.0
H3570 H 0.6994 0.54 0.97921 0.0
H3571 H 0.67051 0.5784 0.99581 0.0
H3572 H 0.69504 0.59772 0.99648 0.0
H3573 H 0.65498 0.55766 0.97148 0.0
H3574 H 0.68188 0.55422 0.01921 0.0
H3575 H 0.70531 0.55061 0.03613 0.0
H3576 H 0.7084 0.50326 0.0128 0.0
H3577 H 0.68513 0.50668 0.99558 0.0
C3578 C 0.59568 0.50467 0.98368 0.0
C3579 C 0.59752 0.48833 0.97938 0.0
C3580 C 0.60954 0.51595 0.98614 0.0
C3581 C 0.62551 0.51117 0.98405 0.0
C3582 C 0.6274 0.49475 0.98046 0.0
C3583 C 0.61354 0.48343 0.97817 0.0
C3584 C 0.64015 0.5233 0.98491 0.0
C3585 C 0.65389 0.52167 0.99427 0.0
C3586 C 0.6406 0.53644 0.97655 0.0
C3587 C 0.62709 0.53826 0.96559 0.0
C3588 C 0.6221 0.52587 0.95382 0.0
C3589 C 0.60922 0.52757 0.94365 0.0
C3590 C 0.60132 0.54168 0.94505 0.0
C3591 C 0.60633 0.55413 0.9566 0.0
C3592 C 0.61919 0.55247 0.96682 0.0
C3593 C 0.71236 0.5636 0.98331 0.0
C3594 C 0.71144 0.57999 0.98826 0.0
C3595 C 0.69836 0.55258 0.98302 0.0
C3596 C 0.68316 0.55775 0.98758 0.0
C3597 C 0.68213 0.57414 0.99229 0.0
C3598 C 0.69616 0.58515 0.99274 0.0
C3599 C 0.6683 0.54605 0.98734 0.0
C3600 C 0.65455 0.54775 0.97806 0.0
C3601 C 0.66793 0.53289 0.99562 0.0
C3602 C 0.68186 0.53077 0.00601 0.0
C3603 C 0.68764 0.54309 0.0176 0.0
C3604 C 0.70088 0.54107 0.02727 0.0
C3605 C 0.70837 0.52673 0.02552 0.0
C3606 C 0.7026 0.51437 0.01413 0.0
C3607 C 0.68938 0.51634 0.00442 0.0
H3608 H 0.71861 0.52519 0.03301 0.0
H3609 H 0.59135 0.54297 0.93716 0.0
H3610 H 0.26366 0.70155 0.22929 0.0
H3611 H 0.2439 0.6781 0.22976 0.0
H3612 H 0.28335 0.64729 0.22408 0.0
H3613 H 0.30302 0.67057 0.22254 0.0
H3614 H 0.2573 0.63279 0.20925 0.0
H3615 H 0.2677 0.66009 0.25946 0.0
H3616 H 0.26945 0.6831 0.27965 0.0
H3617 H 0.21755 0.68716 0.27301 0.0
H3618 H 0.21555 0.66429 0.25264 0.0
H3619 H 0.21824 0.566 0.24018 0.0
H3620 H 0.23684 0.58955 0.23645 0.0
H3621 H 0.1952 0.61757 0.23516 0.0
H3622 H 0.17656 0.59412 0.239 0.0
H3623 H 0.22174 0.63341 0.25316 0.0
H3624 H 0.21193 0.60457 0.20324 0.0
H3625 H 0.21108 0.58085 0.1839 0.0
H3626 H 0.26325 0.57885 0.19124 0.0
H3627 H 0.26436 0.60244 0.21079 0.0
C3628 C 0.26812 0.68978 0.22773 0.0
C3629 C 0.28504 0.68804 0.22603 0.0
C3630 C 0.2568 0.67635 0.22824 0.0
C3631 C 0.26216 0.66091 0.22738 0.0
C3632 C 0.27889 0.65906 0.22493 0.0
C3633 C 0.29017 0.67244 0.2242 0.0
C3634 C 0.25054 0.64678 0.22959 0.0
C3635 C 0.24967 0.6329 0.21894 0.0
C3636 C 0.24036 0.64689 0.24213 0.0
C3637 C 0.24151 0.66059 0.25442 0.0
C3638 C 0.25669 0.66596 0.26224 0.0
C3639 C 0.25772 0.67897 0.27372 0.0
C3640 C 0.24363 0.68662 0.27758 0.0
C3641 C 0.22846 0.68124 0.26999 0.0
C3642 C 0.22737 0.66825 0.25848 0.0
C3643 C 0.21307 0.57721 0.23921 0.0
C3644 C 0.19592 0.57819 0.23984 0.0
C3645 C 0.22369 0.59062 0.23696 0.0
C3646 C 0.21738 0.60528 0.23538 0.0
C3647 C 0.20032 0.60636 0.23629 0.0
C3648 C 0.18968 0.59294 0.2384 0.0
C3649 C 0.22857 0.61951 0.23285 0.0
C3650 C 0.22935 0.63337 0.24345 0.0
C3651 C 0.23882 0.6193 0.2204 0.0
C3652 C 0.23819 0.60518 0.20858 0.0
C3653 C 0.22319 0.599 0.20082 0.0
C3654 C 0.22267 0.58559 0.1898 0.0
C3655 C 0.23709 0.57832 0.18637 0.0
C3656 C 0.25208 0.58448 0.19392 0.0
C3657 C 0.25267 0.59788 0.20496 0.0
H3658 H 0.23667 0.56794 0.17784 0.0
H3659 H 0.24445 0.69668 0.28647 0.0
H3660 H 0.97181 0.52772 0.05371 0.0
H3661 H 0.94949 0.54444 0.04954 0.0
H3662 H 0.92954 0.50958 0.01243 0.0
H3663 H 0.95144 0.49258 0.01677 0.0
H3664 H 0.93355 0.54064 0.00517 0.0
H3665 H 0.91005 0.51298 0.0443 0.0
H3666 H 0.90975 0.50397 0.06931 0.0
H3667 H 0.91508 0.55299 0.09036 0.0
H3668 H 0.91565 0.5623 0.06546 0.0
H3669 H 0.85787 0.57056 0.98911 0.0
H3670 H 0.8792 0.55392 0.99571 0.0
H3671 H 0.89235 0.58684 0.03617 0.0
H3672 H 0.87033 0.60305 0.03014 0.0
H3673 H 0.89262 0.55762 0.04235 0.0
H3674 H 0.91608 0.5858 0.00418 0.0
H3675 H 0.91736 0.5957 0.97958 0.0
H3676 H 0.91364 0.54722 0.95722 0.0
H3677 H 0.91211 0.53702 0.98169 0.0
C3678 C 0.96249 0.52343 0.04486 0.0
C3679 C 0.96353 0.50881 0.03552 0.0
C3680 C 0.94978 0.53306 0.04244 0.0
C3681 C 0.93787 0.52828 0.03064 0.0
C3682 C 0.93866 0.51356 0.02153 0.0
C3683 C 0.95125 0.50389 0.024 0.0
C3684 C 0.92495 0.53884 0.02735 0.0
C3685 C 0.92446 0.5442 0.01322 0.0
C3686 C 0.91346 0.54391 0.03804 0.0
C3687 C 0.91308 0.53833 0.05302 0.0
C3688 C 0.91131 0.52184 0.05426 0.0
C3689 C 0.91106 0.51668 0.06842 0.0
C3690 C 0.91244 0.5279 0.08142 0.0
C3691 C 0.91404 0.54431 0.08028 0.0
C3692 C 0.91431 0.54953 0.06615 0.0
C3693 C 0.86514 0.57421 0.99952 0.0
C3694 C 0.86233 0.58825 0.00905 0.0
C3695 C 0.87752 0.56476 0.00318 0.0
C3696 C 0.88764 0.56924 0.01632 0.0
C3697 C 0.8848 0.58315 0.02593 0.0
C3698 C 0.87229 0.59253 0.02235 0.0
C3699 C 0.90108 0.55935 0.02006 0.0
C3700 C 0.90171 0.55412 0.03428 0.0
C3701 C 0.91287 0.55455 0.00951 0.0
C3702 C 0.91382 0.56064 0.99477 0.0
C3703 C 0.91541 0.57724 0.99402 0.0
C3704 C 0.9162 0.58291 0.9801 0.0
C3705 C 0.91554 0.57209 0.96685 0.0
C3706 C 0.91413 0.55558 0.96749 0.0
C3707 C 0.91331 0.54985 0.98138 0.0
H3708 H 0.91616 0.57651 0.95608 0.0
H3709 H 0.91224 0.52388 0.09237 0.0
H3710 H 0.07007 0.99672 0.05798 0.0
H3711 H 0.09068 0.9783 0.05011 0.0
H3712 H 0.12925 0.01745 0.05884 0.0
H3713 H 0.10857 0.03596 0.06621 0.0
H3714 H 0.1358 0.99956 0.03478 0.0
H3715 H 0.12074 0.98876 0.08376 0.0
H3716 H 0.10187 0.98203 0.10344 0.0
H3717 H 0.08571 0.93678 0.07698 0.0
H3718 H 0.10433 0.94335 0.05704 0.0
H3719 H 0.20361 0.95278 0.04339 0.0
H3720 H 0.18185 0.97057 0.04844 0.0
H3721 H 0.14532 0.93285 0.02861 0.0
H3722 H 0.16705 0.91513 0.02277 0.0
H3723 H 0.13749 0.9493 0.05758 0.0
H3724 H 0.15452 0.96086 0.00897 0.0
H3725 H 0.17476 0.96827 0.9906 0.0
H3726 H 0.18897 0.01313 0.01845 0.0
H3727 H 0.16898 0.00587 0.0371 0.0
C3728 C 0.08295 1.00138 0.05815 0.0
C3729 C 0.08771 0.01777 0.06273 0.0
C3730 C 0.09475 0.99083 0.05372 0.0
C3731 C 0.11164 0.99637 0.05415 0.0
C3732 C 0.11634 0.01283 0.0584 0.0
C3733 C 0.10451 0.02342 0.0626 0.0
C3734 C 0.12441 0.98503 0.05035 0.0
C3735 C 0.13624 0.98868 0.03992 0.0
C3736 C 0.12495 0.97064 0.05684 0.0
C3737 C 0.1138 0.96662 0.06884 0.0
C3738 C 0.11307 0.97743 0.08209 0.0
C3739 C 0.10244 0.97363 0.0933 0.0
C3740 C 0.09256 0.95901 0.09144 0.0
C3741 C 0.09334 0.94812 0.07839 0.0
C3742 C 0.10394 0.95187 0.06713 0.0
C3743 C 0.19102 0.94826 0.03981 0.0
C3744 C 0.18723 0.93243 0.03255 0.0
C3745 C 0.17856 0.95846 0.04284 0.0
C3746 C 0.16198 0.95305 0.03885 0.0
C3747 C 0.15804 0.93725 0.03183 0.0
C3748 C 0.17052 0.92709 0.02858 0.0
C3749 C 0.14878 0.96392 0.04211 0.0
C3750 C 0.13693 0.96017 0.05243 0.0
C3751 C 0.14839 0.97834 0.03573 0.0
C3752 C 0.16037 0.98275 0.0245 0.0
C3753 C 0.16206 0.97224 0.01124 0.0
C3754 C 0.17347 0.97643 1.00076 0.0
C3755 C 0.18318 0.99114 0.00337 0.0
C3756 C 0.18146 1.00172 0.01645 0.0
C3757 C 0.17008 0.99759 0.02697 0.0
H3758 H 0.192 0.99436 0.99525 0.0
H3759 H 0.08434 0.95609 0.10013 0.0
loop_
_geom_bond_atom_site_label_1
_geom_bond_atom_site_label_2
_geom_bond_distance
_geom_bond_site_symmetry_2
_ccdc_geom_bond_type
H0 C1 0.949 . S
C1 H0 0.949 . S
C1 C2 1.395 . S
C1 C3 1.391 . S
C2 C1 1.395 . S
C2 C5 1.390 . S
C3 C1 1.391 . S
C3 C7 1.387 . S
C3 C8 1.491 . S
H4 C5 0.950 . S
C5 C2 1.390 . S
C5 H4 0.950 . S
C5 C6 1.378 . S
C6 C5 1.378 . S
C6 C7 1.409 . S
C7 C3 1.387 . S
C7 C6 1.409 . S
C7 H9 0.951 . S
C8 C3 1.491 . S
C8 C10 1.382 . S
C8 C12 1.404 . S
H9 C7 0.951 . S
C10 C8 1.382 . S
C10 C11 1.390 . S
C10 H15 0.949 . S
C11 C10 1.390 . S
C11 C16 1.399 . S
C12 C8 1.404 . S
C12 H13 0.950 . S
C12 C14 1.375 . S
H13 C12 0.950 . S
C14 C12 1.375 . S
C14 C16 1.382 . S
C14 H18 0.950 . S
H15 C10 0.949 . S
C16 C11 1.399 . S
C16 C14 1.382 . S
C16 H17 0.952 . S
H17 C16 0.952 . S
H18 C14 0.950 . S
H19 C20 0.949 . S
C20 H19 0.949 . S
C20 C21 1.395 . S
C20 C22 1.391 . S
C21 C20 1.395 . S
C21 C24 1.390 . S
C22 C20 1.391 . S
C22 C26 1.387 . S
C22 C27 1.491 . S
H23 C24 0.950 . S
C24 C21 1.390 . S
C24 H23 0.950 . S
C24 C25 1.378 . S
C25 C24 1.378 . S
C25 C26 1.409 . S
C26 C22 1.387 . S
C26 C25 1.409 . S
C26 H28 0.951 . S
C27 C22 1.491 . S
C27 C29 1.382 . S
C27 C31 1.404 . S
H28 C26 0.951 . S
C29 C27 1.382 . S
C29 C30 1.390 . S
C29 H34 0.949 . S
C30 C29 1.390 . S
C30 C35 1.399 . S
C31 C27 1.404 . S
C31 H32 0.950 . S
C31 C33 1.375 . S
H32 C31 0.950 . S
C33 C31 1.375 . S
C33 C35 1.382 . S
C33 H37 0.950 . S
H34 C29 0.949 . S
C35 C30 1.399 . S
C35 C33 1.382 . S
C35 H36 0.952 . S
H36 C35 0.952 . S
H37 C33 0.950 . S
H38 C39 0.949 . S
C39 H38 0.949 . S
C39 C40 1.395 . S
C39 C41 1.391 1_455 S
C40 C39 1.395 . S
C40 C43 1.390 1_455 S
C41 C39 1.391 1_655 S
C41 C45 1.387 . S
C41 C46 1.488 1_654 S
H42 C43 0.950 . S
C43 C40 1.390 1_655 S
C43 H42 0.950 . S
C43 C44 1.378 . S
C44 C43 1.378 . S
C44 C45 1.409 . S
C45 C41 1.387 . S
C45 C44 1.409 . S
C45 H47 0.951 1_554 S
C46 C41 1.488 1_456 S
C46 C48 1.385 . S
C46 C50 1.404 . S
H47 C45 0.951 1_556 S
C48 C46 1.385 . S
C48 C49 1.390 . S
C48 H53 0.949 1_556 S
C49 C48 1.390 . S
C49 C54 1.399 . S
C50 C46 1.404 . S
C50 H51 0.951 1_455 S
C50 C52 1.374 . S
H51 C50 0.951 1_655 S
C52 C50 1.374 . S
C52 C54 1.382 . S
C52 H56 0.950 . S
H53 C48 0.949 1_554 S
C54 C49 1.399 . S
C54 C52 1.382 . S
C54 H55 0.952 . S
H55 C54 0.952 . S
H56 C52 0.950 . S
H57 C58 0.949 . S
C58 H57 0.949 . S
C58 C59 1.395 . S
C58 C60 1.391 . S
C59 C58 1.395 . S
C59 C62 1.390 . S
C60 C58 1.391 . S
C60 C64 1.387 . S
C60 C65 1.491 . S
H61 C62 0.950 . S
C62 C59 1.390 . S
C62 H61 0.950 . S
C62 C63 1.378 . S
C63 C62 1.378 . S
C63 C64 1.409 . S
C64 C60 1.387 . S
C64 C63 1.409 . S
C64 H66 0.951 . S
C65 C60 1.491 . S
C65 C67 1.382 . S
C65 C69 1.404 . S
H66 C64 0.951 . S
C67 C65 1.382 . S
C67 C68 1.390 . S
C67 H72 0.949 . S
C68 C67 1.390 . S
C68 C73 1.399 . S
C69 C65 1.404 . S
C69 H70 0.950 . S
C69 C71 1.375 . S
H70 C69 0.950 . S
C71 C69 1.375 . S
C71 C73 1.382 . S
C71 H75 0.950 . S
H72 C67 0.949 . S
C73 C68 1.399 . S
C73 C71 1.382 . S
C73 H74 0.952 . S
H74 C73 0.952 . S
H75 C71 0.950 . S
H76 C77 0.949 . S
C77 H76 0.949 . S
C77 C78 1.395 . S
C77 C79 1.391 . S
C78 C77 1.395 . S
C78 C81 1.390 . S
C79 C77 1.391 . S
C79 C83 1.387 . S
C79 C84 1.491 . S
H80 C81 0.950 . S
C81 C78 1.390 . S
C81 H80 0.950 . S
C81 C82 1.378 . S
C82 C81 1.378 . S
C82 C83 1.409 . S
C83 C79 1.387 . S
C83 C82 1.409 . S
C83 H85 0.951 . S
C84 C79 1.491 . S
C84 C86 1.382 . S
C84 C88 1.404 . S
H85 C83 0.951 . S
C86 C84 1.382 . S
C86 C87 1.390 . S
C86 H91 0.949 . S
C87 C86 1.390 . S
C87 C92 1.399 . S
C88 C84 1.404 . S
C88 H89 0.950 . S
C88 C90 1.375 . S
H89 C88 0.950 . S
C90 C88 1.375 . S
C90 C92 1.382 . S
C90 H94 0.950 . S
H91 C86 0.949 . S
C92 C87 1.399 . S
C92 C90 1.382 . S
C92 H93 0.952 . S
H93 C92 0.952 . S
H94 C90 0.950 . S
H95 C96 0.949 . S
C96 H95 0.949 . S
C96 C97 1.395 . S
C96 C98 1.391 . S
C97 C96 1.395 . S
C97 C100 1.390 . S
C98 C96 1.391 . S
C98 C102 1.387 . S
C98 C103 1.491 . S
H99 C100 0.950 . S
C100 C97 1.390 . S
C100 H99 0.950 . S
C100 C101 1.378 . S
C101 C100 1.378 . S
C101 C102 1.409 . S
C102 C98 1.387 . S
C102 C101 1.409 . S
C102 H104 0.951 . S
C103 C98 1.491 . S
C103 C105 1.382 . S
C103 C107 1.404 . S
H104 C102 0.951 . S
C105 C103 1.382 . S
C105 C106 1.390 . S
C105 H110 0.949 . S
C106 C105 1.390 . S
C106 C111 1.399 . S
C107 C103 1.404 . S
C107 H108 0.950 . S
C107 C109 1.375 . S
H108 C107 0.950 . S
C109 C107 1.375 . S
C109 C111 1.382 . S
C109 H113 0.950 . S
H110 C105 0.949 . S
C111 C106 1.399 . S
C111 C109 1.382 . S
C111 H112 0.952 . S
H112 C111 0.952 . S
H113 C109 0.950 . S
H114 C115 0.949 . S
C115 H114 0.949 . S
C115 C116 1.395 . S
C115 C117 1.391 . S
C116 C115 1.395 . S
C116 C119 1.390 . S
C117 C115 1.391 . S
C117 C121 1.387 . S
C117 C122 1.491 . S
H118 C119 0.950 . S
C119 C116 1.390 . S
C119 H118 0.950 . S
C119 C120 1.378 . S
C120 C119 1.378 . S
C120 C121 1.409 . S
C121 C117 1.387 . S
C121 C120 1.409 . S
C121 H123 0.951 . S
C122 C117 1.491 . S
C122 C124 1.382 . S
C122 C126 1.404 . S
H123 C121 0.951 . S
C124 C122 1.382 . S
C124 C125 1.390 . S
C124 H129 0.949 1_655 S
C125 C124 1.390 . S
C125 C130 1.399 . S
C126 C122 1.404 . S
C126 H127 0.950 . S
C126 C128 1.375 . S
H127 C126 0.950 . S
C128 C126 1.375 . S
C128 C130 1.382 . S
C128 H132 0.950 . S
H129 C124 0.949 1_455 S
C130 C125 1.399 . S
C130 C128 1.382 . S
C130 H131 0.952 . S
H131 C130 0.952 . S
H132 C128 0.950 . S
H133 C134 0.949 . S
C134 H133 0.949 . S
C134 C135 1.395 . S
C134 C136 1.391 . S
C135 C134 1.395 . S
C135 C138 1.390 . S
C136 C134 1.391 . S
C136 C140 1.387 . S
C136 C141 1.491 . S
H137 C138 0.950 . S
C138 C135 1.390 . S
C138 H137 0.950 . S
C138 C139 1.378 . S
C139 C138 1.378 . S
C139 C140 1.409 . S
C140 C136 1.387 . S
C140 C139 1.409 . S
C140 H142 0.951 . S
C141 C136 1.491 . S
C141 C143 1.382 . S
C141 C145 1.404 . S
H142 C140 0.951 . S
C143 C141 1.382 . S
C143 C144 1.390 . S
C143 H148 0.949 . S
C144 C143 1.390 . S
C144 C149 1.399 . S
C145 C141 1.404 . S
C145 H146 0.950 . S
C145 C147 1.375 . S
H146 C145 0.950 . S
C147 C145 1.375 . S
C147 C149 1.382 . S
C147 H151 0.950 . S
H148 C143 0.949 . S
C149 C144 1.399 . S
C149 C147 1.382 . S
C149 H150 0.952 . S
H150 C149 0.952 . S
H151 C147 0.950 . S
H152 C153 0.949 . S
C153 H152 0.949 . S
C153 C154 1.395 . S
C153 C155 1.391 . S
C154 C153 1.395 . S
C154 C157 1.390 . S
C155 C153 1.391 . S
C155 C159 1.387 . S
C155 C160 1.491 . S
H156 C157 0.950 . S
C157 C154 1.390 . S
C157 H156 0.950 . S
C157 C158 1.378 . S
C158 C157 1.378 . S
C158 C159 1.409 . S
C159 C155 1.387 . S
C159 C158 1.409 . S
C159 H161 0.951 . S
C160 C155 1.491 . S
C160 C162 1.382 . S
C160 C164 1.404 . S
H161 C159 0.951 . S
C162 C160 1.382 . S
C162 C163 1.390 . S
C162 H167 0.949 . S
C163 C162 1.390 . S
C163 C168 1.399 . S
C164 C160 1.404 . S
C164 H165 0.950 . S
C164 C166 1.375 . S
H165 C164 0.950 . S
C166 C164 1.375 . S
C166 C168 1.382 . S
C166 H170 0.950 . S
H167 C162 0.949 . S
C168 C163 1.399 . S
C168 C166 1.382 . S
C168 H169 0.952 . S
H169 C168 0.952 . S
H170 C166 0.950 . S
H171 C172 0.949 . S
C172 H171 0.949 . S
C172 C173 1.395 . S
C172 C174 1.391 . S
C173 C172 1.395 . S
C173 C176 1.390 . S
C174 C172 1.391 . S
C174 C178 1.387 . S
C174 C179 1.491 . S
H175 C176 0.996 . S
C176 C173 1.390 . S
C176 H175 0.996 . S
C176 C177 1.378 . S
C177 C176 1.378 . S
C177 C178 1.409 . S
C178 C174 1.387 . S
C178 C177 1.409 . S
C178 H180 0.951 . S
C179 C174 1.491 . S
C179 C181 1.382 . S
C179 C183 1.404 . S
H180 C178 0.951 . S
C181 C179 1.382 . S
C181 C182 1.390 . S
C181 H186 0.949 . S
C182 C181 1.390 . S
C182 C187 1.399 . S
C183 C179 1.404 . S
C183 H184 0.950 . S
C183 C185 1.375 . S
H184 C183 0.950 . S
C185 C183 1.375 . S
C185 C187 1.382 . S
C185 H189 0.950 . S
H186 C181 0.949 . S
C187 C182 1.399 . S
C187 C185 1.382 . S
C187 H188 0.952 . S
H188 C187 0.952 . S
H189 C185 0.950 . S
H190 C191 0.949 . S
C191 H190 0.949 . S
C191 C192 1.395 . S
C191 C193 1.391 . S
C192 C191 1.395 . S
C192 C195 1.390 . S
C193 C191 1.391 . S
C193 C197 1.387 . S
C193 C198 1.491 . S
H194 C195 0.950 . S
C195 C192 1.390 . S
C195 H194 0.950 . S
C195 C196 1.378 . S
C196 C195 1.378 . S
C196 C197 1.409 . S
C197 C193 1.387 . S
C197 C196 1.409 . S
C197 H199 0.951 . S
C198 C193 1.491 . S
C198 C200 1.382 . S
C198 C202 1.404 . S
H199 C197 0.951 . S
C200 C198 1.382 . S
C200 C201 1.390 . S
C200 H205 0.949 . S
C201 C200 1.390 . S
C201 C206 1.399 . S
C202 C198 1.404 . S
C202 H203 0.950 . S
C202 C204 1.375 . S
H203 C202 0.950 . S
C204 C202 1.375 . S
C204 C206 1.382 . S
C204 H208 0.950 . S
H205 C200 0.949 . S
C206 C201 1.399 . S
C206 C204 1.382 . S
C206 H207 0.952 . S
H207 C206 0.952 . S
H208 C204 0.950 . S
H209 C210 0.949 . S
C210 H209 0.949 . S
C210 C211 1.395 . S
C210 C212 1.391 . S
C211 C210 1.395 . S
C211 C214 1.390 . S
C212 C210 1.391 . S
C212 C216 1.387 . S
C212 C217 1.491 . S
H213 C214 0.950 . S
C214 C211 1.390 . S
C214 H213 0.950 . S
C214 C215 1.378 . S
C215 C214 1.378 . S
C215 C216 1.409 . S
C216 C212 1.387 . S
C216 C215 1.409 . S
C216 H218 0.951 . S
C217 C212 1.491 . S
C217 C219 1.382 . S
C217 C221 1.404 . S
H218 C216 0.951 . S
C219 C217 1.382 . S
C219 C220 1.390 . S
C219 H224 0.949 . S
C220 C219 1.390 . S
C220 C225 1.399 . S
C221 C217 1.404 . S
C221 H222 0.950 . S
C221 C223 1.375 . S
H222 C221 0.950 . S
C223 C221 1.375 . S
C223 C225 1.382 . S
C223 H227 0.950 . S
H224 C219 0.949 . S
C225 C220 1.399 . S
C225 C223 1.382 . S
C225 H226 0.952 . S
H226 C225 0.952 . S
H227 C223 0.950 . S
H228 C229 0.949 . S
C229 H228 0.949 . S
C229 C230 1.395 . S
C229 C231 1.391 . S
C230 C229 1.395 . S
C230 C233 1.390 . S
C231 C229 1.391 . S
C231 C235 1.387 . S
C231 C236 1.491 . S
H232 C233 0.950 . S
C233 C230 1.390 . S
C233 H232 0.950 . S
C233 C234 1.378 . S
C234 C233 1.378 . S
C234 C235 1.409 . S
C235 C231 1.387 . S
C235 C234 1.409 . S
C235 H237 0.951 . S
C236 C231 1.491 . S
C236 C238 1.382 . S
C236 C240 1.404 . S
H237 C235 0.951 . S
C238 C236 1.382 . S
C238 C239 1.390 . S
C238 H243 0.949 . S
C239 C238 1.390 . S
C239 C244 1.399 . S
C240 C236 1.404 . S
C240 H241 0.950 . S
C240 C242 1.375 . S
H241 C240 0.950 . S
C242 C240 1.375 . S
C242 C244 1.382 . S
C242 H246 0.950 . S
H243 C238 0.949 . S
C244 C239 1.399 . S
C244 C242 1.382 . S
C244 H245 0.952 . S
H245 C244 0.952 . S
H246 C242 0.950 . S
H247 C248 0.949 1_554 S
C248 H247 0.949 1_556 S
C248 C249 1.395 . S
C248 C250 1.391 . S
C249 C248 1.395 . S
C249 C252 1.390 . S
C250 C248 1.391 . S
C250 C254 1.387 . S
C250 C255 1.491 . S
H251 C252 0.950 . S
C252 C249 1.390 . S
C252 H251 0.950 . S
C252 C253 1.378 . S
C253 C252 1.378 . S
C253 C254 1.409 . S
C254 C250 1.387 . S
C254 C253 1.409 . S
C254 H256 0.951 . S
C255 C250 1.491 . S
C255 C257 1.382 1_556 S
C255 C259 1.404 . S
H256 C254 0.951 . S
C257 C255 1.382 1_554 S
C257 C258 1.390 . S
C257 H262 0.949 . S
C258 C257 1.390 . S
C258 C263 1.399 . S
C259 C255 1.404 . S
C259 H260 0.950 . S
C259 C261 1.375 . S
H260 C259 0.950 . S
C261 C259 1.375 . S
C261 C263 1.382 1_556 S
C261 H265 0.950 . S
H262 C257 0.949 . S
C263 C258 1.399 . S
C263 C261 1.382 1_554 S
C263 H264 0.952 . S
H264 C263 0.952 . S
H265 C261 0.950 . S
H266 C267 0.949 . S
C267 H266 0.949 . S
C267 C268 1.395 . S
C267 C269 1.391 . S
C268 C267 1.395 . S
C268 C271 1.390 . S
C269 C267 1.391 . S
C269 C273 1.387 . S
C269 C274 1.491 . S
H270 C271 0.950 . S
C271 C268 1.390 . S
C271 H270 0.950 . S
C271 C272 1.378 . S
C272 C271 1.378 . S
C272 C273 1.409 . S
C273 C269 1.387 . S
C273 C272 1.409 . S
C273 H275 0.951 . S
C274 C269 1.491 . S
C274 C276 1.382 . S
C274 C278 1.404 . S
H275 C273 0.951 . S
C276 C274 1.382 . S
C276 C277 1.390 . S
C276 H281 0.949 . S
C277 C276 1.390 . S
C277 C282 1.399 . S
C278 C274 1.404 . S
C278 H279 0.950 . S
C278 C280 1.375 . S
H279 C278 0.950 . S
C280 C278 1.375 . S
C280 C282 1.382 . S
C280 H284 0.950 . S
H281 C276 0.949 . S
C282 C277 1.399 . S
C282 C280 1.382 . S
C282 H283 0.952 . S
H283 C282 0.952 . S
H284 C280 0.950 . S
H285 C286 0.949 . S
C286 H285 0.949 . S
C286 C287 1.395 . S
C286 C288 1.391 . S
C287 C286 1.395 . S
C287 C290 1.390 . S
C288 C286 1.391 . S
C288 C292 1.387 . S
C288 C293 1.491 . S
H289 C290 0.950 . S
C290 C287 1.390 . S
C290 H289 0.950 . S
C290 C291 1.378 . S
C291 C290 1.378 . S
C291 C292 1.409 . S
C292 C288 1.387 . S
C292 C291 1.409 . S
C292 H294 0.951 . S
C293 C288 1.491 . S
C293 C295 1.382 . S
C293 C297 1.404 . S
H294 C292 0.951 . S
C295 C293 1.382 . S
C295 C296 1.390 . S
C295 H300 0.949 . S
C296 C295 1.390 . S
C296 C301 1.399 . S
C297 C293 1.404 . S
C297 H298 0.950 . S
C297 C299 1.375 . S
H298 C297 0.950 . S
C299 C297 1.375 . S
C299 C301 1.382 . S
C299 H303 0.950 . S
H300 C295 0.949 . S
C301 C296 1.399 . S
C301 C299 1.382 . S
C301 H302 0.952 . S
H302 C301 0.952 . S
H303 C299 0.950 . S
Li304 N321 1.990 . S
Li304 O364 1.956 . S
Li304 O365 1.970 . S
Li304 O366 1.961 . S
Li305 N329 1.990 . S
Li305 O364 1.970 . S
Li305 O365 1.956 . S
Li305 O367 1.961 . S
Li306 N351 1.990 1_554 S
Li306 O364 1.961 . S
Li306 O366 1.956 . S
Li306 O367 1.970 . S
Li307 N357 1.990 . S
Li307 O365 1.961 . S
Li307 O366 1.970 . S
Li307 O367 1.956 . S
C308 C310 1.348 . S
C308 C311 1.356 . S
C308 O364 1.325 . S
N309 C312 1.314 . S
N309 C313 1.279 . S
C310 C308 1.348 . S
C310 C312 1.353 . S
C310 H368 0.929 . S
C311 C308 1.356 . S
C311 C313 1.358 . S
C311 H369 0.930 . S
C312 N309 1.314 . S
C312 C310 1.353 . S
C312 H370 0.930 . S
C313 N309 1.279 . S
C313 C311 1.358 . S
C313 H371 0.930 . S
C314 C317 1.348 . S
C314 C318 1.356 . S
C314 O365 1.325 . S
C315 N316 1.279 . S
C315 C318 1.358 . S
C315 H372 0.930 . S
N316 C315 1.279 . S
N316 C319 1.314 . S
C317 C314 1.348 . S
C317 C319 1.353 . S
C317 H373 0.929 . S
C318 C314 1.356 . S
C318 C315 1.358 . S
C318 H374 0.930 . S
C319 N316 1.314 . S
C319 C317 1.353 . S
C319 H375 0.930 . S
C320 N321 1.314 . S
C320 C325 1.353 . S
C320 H326 0.930 . S
N321 Li304 1.990 . S
N321 C320 1.314 . S
N321 C323 1.279 . S
C322 C323 1.358 . S
C322 C324 1.356 . S
C322 H376 0.930 . S
C323 N321 1.279 . S
C323 C322 1.358 . S
C323 H327 0.930 . S
C324 C322 1.356 . S
C324 C325 1.348 . S
C325 C320 1.353 . S
C325 C324 1.348 . S
C325 H377 0.929 . S
H326 C320 0.930 . S
H327 C323 0.930 . S
C328 N329 1.314 . S
C328 C330 1.353 . S
C328 H334 0.930 . S
N329 Li305 1.990 . S
N329 C328 1.314 . S
N329 C332 1.279 . S
C330 C328 1.353 . S
C330 C333 1.348 . S
C330 H378 0.929 . S
C331 C332 1.358 . S
C331 C333 1.356 . S
C331 H379 0.930 . S
C332 N329 1.279 . S
C332 C331 1.358 . S
C332 H335 0.930 . S
C333 C330 1.348 . S
C333 C331 1.356 . S
H334 C328 0.930 . S
H335 C332 0.930 . S
C336 C338 1.351 . S
C336 C339 1.356 1_554 S
C336 O366 1.325 . S
N337 C340 1.314 . S
N337 C341 1.279 . S
C338 C336 1.351 . S
C338 C340 1.342 1_554 S
C338 H380 0.937 . S
C339 C336 1.356 1_556 S
C339 C341 1.358 . S
C339 H381 0.930 . S
C340 N337 1.314 . S
C340 C338 1.342 1_556 S
C340 H382 0.930 . S
C341 N337 1.279 . S
C341 C339 1.358 . S
C341 H383 0.930 . S
C342 C343 1.348 . S
C342 C344 1.356 . S
C342 O367 1.325 . S
C343 C342 1.348 . S
C343 C345 1.353 . S
C343 H384 0.929 . S
C344 C342 1.356 . S
C344 C346 1.358 . S
C344 H385 0.930 . S
C345 C343 1.353 . S
C345 N347 1.314 . S
C345 H386 0.930 . S
C346 C344 1.358 . S
C346 N347 1.279 . S
C346 H387 0.930 . S
N347 C345 1.314 . S
N347 C346 1.279 . S
C348 C350 1.353 . S
C348 N351 1.314 . S
C348 H354 0.930 1_556 S
C349 N351 1.279 . S
C349 C352 1.358 . S
C349 H355 0.930 . S
C350 C348 1.353 . S
C350 C353 1.348 . S
C350 H388 0.929 . S
N351 Li306 1.990 1_556 S
N351 C348 1.314 . S
N351 C349 1.279 . S
C352 C349 1.358 . S
C352 C353 1.356 . S
C352 H389 0.930 . S
C353 C350 1.348 . S
C353 C352 1.356 . S
H354 C348 0.930 1_554 S
H355 C349 0.930 . S
C356 N357 1.314 . S
C356 C358 1.353 . S
C356 H362 0.930 . S
N357 Li307 1.990 . S
N357 C356 1.314 . S
N357 C360 1.279 . S
C358 C356 1.353 . S
C358 C361 1.348 . S
C358 H390 0.929 . S
C359 C360 1.358 . S
C359 C361 1.356 . S
C359 H391 0.930 . S
C360 N357 1.279 . S
C360 C359 1.358 . S
C360 H363 0.930 . S
C361 C358 1.348 . S
C361 C359 1.356 . S
H362 C356 0.930 . S
H363 C360 0.930 . S
O364 Li304 1.956 . S
O364 Li305 1.970 . S
O364 Li306 1.961 . S
O364 C308 1.325 . S
O365 Li304 1.970 . S
O365 Li305 1.956 . S
O365 Li307 1.961 . S
O365 C314 1.325 . S
O366 Li304 1.961 . S
O366 Li306 1.956 . S
O366 Li307 1.970 . S
O366 C336 1.325 . S
O367 Li305 1.961 . S
O367 Li306 1.970 . S
O367 Li307 1.956 . S
O367 C342 1.325 . S
H368 C310 0.929 . S
H369 C311 0.930 . S
H370 C312 0.930 . S
H371 C313 0.930 . S
H372 C315 0.930 . S
H373 C317 0.929 . S
H374 C318 0.930 . S
H375 C319 0.930 . S
H376 C322 0.930 . S
H377 C325 0.929 . S
H378 C330 0.929 . S
H379 C331 0.930 . S
H380 C338 0.937 . S
H381 C339 0.930 . S
H382 C340 0.930 . S
H383 C341 0.930 . S
H384 C343 0.929 . S
H385 C344 0.930 . S
H386 C345 0.930 . S
H387 C346 0.930 . S
H388 C350 0.929 . S
H389 C352 0.930 . S
H390 C358 0.929 . S
H391 C359 0.930 . S
Li392 N409 1.990 . S
Li392 O452 1.956 . S
Li392 O453 1.970 . S
Li392 O454 1.961 . S
Li393 N417 1.990 . S
Li393 O452 1.970 . S
Li393 O453 1.956 . S
Li393 O455 1.961 . S
Li394 N439 1.990 . S
Li394 O452 1.961 . S
Li394 O454 1.956 . S
Li394 O455 1.970 . S
Li395 N445 1.990 . S
Li395 O453 1.961 . S
Li395 O454 1.970 . S
Li395 O455 1.956 . S
C396 C398 1.348 . S
C396 C399 1.356 . S
C396 O452 1.325 . S
N397 C400 1.314 . S
N397 C401 1.279 . S
C398 C396 1.348 . S
C398 C400 1.353 . S
C398 H456 0.929 . S
C399 C396 1.356 . S
C399 C401 1.358 . S
C399 H457 0.930 . S
C400 N397 1.314 . S
C400 C398 1.353 . S
C400 H458 0.930 . S
C401 N397 1.279 . S
C401 C399 1.358 . S
C401 H459 0.930 . S
C402 C405 1.348 . S
C402 C406 1.356 . S
C402 O453 1.325 . S
C403 N404 1.279 . S
C403 C406 1.358 . S
C403 H460 0.930 . S
N404 C403 1.279 . S
N404 C407 1.314 . S
C405 C402 1.348 . S
C405 C407 1.353 . S
C405 H461 0.929 . S
C406 C402 1.356 . S
C406 C403 1.358 . S
C406 H462 0.930 . S
C407 N404 1.314 . S
C407 C405 1.353 . S
C407 H463 0.930 . S
C408 N409 1.314 . S
C408 C413 1.353 . S
C408 H414 0.930 . S
N409 Li392 1.990 . S
N409 C408 1.314 . S
N409 C411 1.279 . S
C410 C411 1.358 . S
C410 C412 1.356 . S
C410 H464 0.930 . S
C411 N409 1.279 . S
C411 C410 1.358 . S
C411 H415 0.930 . S
C412 C410 1.356 . S
C412 C413 1.348 . S
C413 C408 1.353 . S
C413 C412 1.348 . S
C413 H465 0.929 . S
H414 C408 0.930 . S
H415 C411 0.930 . S
C416 N417 1.314 . S
C416 C418 1.353 . S
C416 H422 0.930 . S
N417 Li393 1.990 . S
N417 C416 1.314 . S
N417 C420 1.279 . S
C418 C416 1.353 . S
C418 C421 1.348 . S
C418 H466 0.929 . S
C419 C420 1.358 . S
C419 C421 1.356 . S
C419 H467 0.930 . S
C420 N417 1.279 . S
C420 C419 1.358 . S
C420 H423 0.930 . S
C421 C418 1.348 . S
C421 C419 1.356 . S
H422 C416 0.930 . S
H423 C420 0.930 . S
C424 C426 1.348 . S
C424 C427 1.356 . S
C424 O454 1.325 . S
N425 C428 1.314 . S
N425 C429 1.279 . S
C426 C424 1.348 . S
C426 C428 1.353 . S
C426 H468 0.929 . S
C427 C424 1.356 . S
C427 C429 1.358 . S
C427 H469 0.930 . S
C428 N425 1.314 . S
C428 C426 1.353 . S
C428 H470 0.930 . S
C429 N425 1.279 . S
C429 C427 1.358 . S
C429 H471 0.930 . S
C430 C431 1.348 . S
C430 C432 1.356 . S
C430 O455 1.325 . S
C431 C430 1.348 . S
C431 C433 1.353 . S
C431 H472 0.929 . S
C432 C430 1.356 . S
C432 C434 1.358 . S
C432 H473 0.930 . S
C433 C431 1.353 . S
C433 N435 1.314 . S
C433 H474 0.930 . S
C434 C432 1.358 . S
C434 N435 1.279 . S
C434 H475 0.930 . S
N435 C433 1.314 . S
N435 C434 1.279 . S
C436 C438 1.353 . S
C436 N439 1.314 . S
C436 H442 0.930 . S
C437 N439 1.279 . S
C437 C440 1.358 . S
C437 H443 0.930 . S
C438 C436 1.353 . S
C438 C441 1.348 . S
C438 H476 0.929 . S
N439 Li394 1.990 . S
N439 C436 1.314 . S
N439 C437 1.279 . S
C440 C437 1.358 . S
C440 C441 1.356 . S
C440 H477 0.930 . S
C441 C438 1.348 . S
C441 C440 1.356 . S
H442 C436 0.930 . S
H443 C437 0.930 . S
C444 N445 1.314 . S
C444 C446 1.353 . S
C444 H450 0.930 . S
N445 Li395 1.990 . S
N445 C444 1.314 . S
N445 C448 1.279 . S
C446 C444 1.353 . S
C446 C449 1.348 . S
C446 H478 0.929 . S
C447 C448 1.358 . S
C447 C449 1.356 . S
C447 H479 0.930 . S
C448 N445 1.279 . S
C448 C447 1.358 . S
C448 H451 0.930 . S
C449 C446 1.348 . S
C449 C447 1.356 . S
H450 C444 0.930 . S
H451 C448 0.930 . S
O452 Li392 1.956 . S
O452 Li393 1.970 . S
O452 Li394 1.961 . S
O452 C396 1.325 . S
O453 Li392 1.970 . S
O453 Li393 1.956 . S
O453 Li395 1.961 . S
O453 C402 1.325 . S
O454 Li392 1.961 . S
O454 Li394 1.956 . S
O454 Li395 1.970 . S
O454 C424 1.325 . S
O455 Li393 1.961 . S
O455 Li394 1.970 . S
O455 Li395 1.956 . S
O455 C430 1.325 . S
H456 C398 0.929 . S
H457 C399 0.930 . S
H458 C400 0.930 . S
H459 C401 0.930 . S
H460 C403 0.930 . S
H461 C405 0.929 . S
H462 C406 0.930 . S
H463 C407 0.930 . S
H464 C410 0.930 . S
H465 C413 0.929 . S
H466 C418 0.929 . S
H467 C419 0.930 . S
H468 C426 0.929 . S
H469 C427 0.930 . S
H470 C428 0.930 . S
H471 C429 0.930 . S
H472 C431 0.929 . S
H473 C432 0.930 . S
H474 C433 0.930 . S
H475 C434 0.930 . S
H476 C438 0.929 . S
H477 C440 0.930 . S
H478 C446 0.929 . S
H479 C447 0.930 . S
Li480 N497 1.990 . S
Li480 O540 1.959 1_556 S
Li480 O541 1.970 1_556 S
Li480 O542 1.961 . S
Li481 N505 1.990 . S
Li481 O540 2.022 . S
Li481 O541 1.956 . S
Li481 O543 1.961 . S
Li482 N527 1.990 . S
Li482 O540 1.912 1_556 S
Li482 O542 1.956 . S
Li482 O543 1.970 1_556 S
Li483 N533 1.990 . S
Li483 O541 1.961 . S
Li483 O542 1.970 1_554 S
Li483 O543 1.956 . S
C484 C486 1.383 . S
C484 C487 1.320 1_554 S
C484 O540 1.323 . S
N485 C488 1.298 1_556 S
N485 C489 1.294 . S
C486 C484 1.383 . S
C486 C488 1.353 . S
C486 H544 0.929 . S
C487 C484 1.320 1_556 S
C487 C489 1.358 . S
C487 H545 0.930 . S
C488 N485 1.298 1_554 S
C488 C486 1.353 . S
C488 H546 0.930 . S
C489 N485 1.294 . S
C489 C487 1.358 . S
C489 H547 0.930 . S
C490 C493 1.348 . S
C490 C494 1.356 . S
C490 O541 1.325 . S
C491 N492 1.279 . S
C491 C494 1.358 . S
C491 H548 0.930 . S
N492 C491 1.279 . S
N492 C495 1.314 . S
C493 C490 1.348 . S
C493 C495 1.353 . S
C493 H549 0.929 . S
C494 C490 1.356 . S
C494 C491 1.358 . S
C494 H550 0.930 . S
C495 N492 1.314 . S
C495 C493 1.353 . S
C495 H551 0.930 . S
C496 N497 1.314 . S
C496 C501 1.353 . S
C496 H502 0.930 . S
N497 Li480 1.990 . S
N497 C496 1.314 . S
N497 C499 1.279 . S
C498 C499 1.358 . S
C498 C500 1.356 . S
C498 H552 0.930 . S
C499 N497 1.279 . S
C499 C498 1.358 . S
C499 H503 0.930 1_556 S
C500 C498 1.356 . S
C500 C501 1.348 . S
C501 C496 1.353 . S
C501 C500 1.348 . S
C501 H553 0.929 . S
H502 C496 0.930 . S
H503 C499 0.930 1_554 S
C504 N505 1.314 . S
C504 C506 1.353 . S
C504 H510 0.930 . S
N505 Li481 1.990 . S
N505 C504 1.314 . S
N505 C508 1.279 . S
C506 C504 1.353 . S
C506 C509 1.348 . S
C506 H554 0.929 . S
C507 C508 1.358 . S
C507 C509 1.356 . S
C507 H555 0.930 . S
C508 N505 1.279 . S
C508 C507 1.358 . S
C508 H511 0.930 . S
C509 C506 1.348 . S
C509 C507 1.356 . S
H510 C504 0.930 . S
H511 C508 0.930 . S
C512 C514 1.348 . S
C512 C515 1.356 . S
C512 O542 1.325 . S
N513 C516 1.314 . S
N513 C517 1.279 . S
C514 C512 1.348 . S
C514 C516 1.353 . S
C514 H556 0.929 . S
C515 C512 1.356 . S
C515 C517 1.358 . S
C515 H557 0.930 . S
C516 N513 1.314 . S
C516 C514 1.353 . S
C516 H558 0.930 . S
C517 N513 1.279 . S
C517 C515 1.358 . S
C517 H559 0.930 . S
C518 C519 1.348 1_554 S
C518 C520 1.356 . S
C518 O543 1.325 . S
C519 C518 1.348 1_556 S
C519 C521 1.353 . S
C519 H560 0.929 . S
C520 C518 1.356 . S
C520 C522 1.358 . S
C520 H561 0.930 . S
C521 C519 1.353 . S
C521 N523 1.314 1_556 S
C521 H562 0.930 . S
C522 C520 1.358 . S
C522 N523 1.279 . S
C522 H563 0.930 . S
N523 C521 1.314 1_554 S
N523 C522 1.279 . S
C524 C526 1.353 . S
C524 N527 1.314 . S
C524 H530 0.930 . S
C525 N527 1.279 . S
C525 C528 1.358 . S
C525 H531 0.930 . S
C526 C524 1.353 . S
C526 C529 1.348 . S
C526 H564 0.929 . S
N527 Li482 1.990 . S
N527 C524 1.314 . S
N527 C525 1.279 . S
C528 C525 1.358 . S
C528 C529 1.356 . S
C528 H565 0.930 . S
C529 C526 1.348 . S
C529 C528 1.356 . S
H530 C524 0.930 . S
H531 C525 0.930 . S
C532 N533 1.314 . S
C532 C534 1.353 . S
C532 H538 0.930 . S
N533 Li483 1.990 . S
N533 C532 1.314 . S
N533 C536 1.279 . S
C534 C532 1.353 . S
C534 C537 1.367 . S
C534 H566 0.929 . S
C535 C536 1.359 1_556 S
C535 C537 1.341 1_556 S
C535 H567 0.933 . S
C536 N533 1.279 . S
C536 C535 1.359 1_554 S
C536 H539 0.931 1_554 S
C537 C534 1.367 . S
C537 C535 1.341 1_554 S
H538 C532 0.930 . S
H539 C536 0.931 1_556 S
O540 Li480 1.959 1_554 S
O540 Li481 2.022 . S
O540 Li482 1.912 1_554 S
O540 C484 1.323 . S
O541 Li480 1.970 1_554 S
O541 Li481 1.956 . S
O541 Li483 1.961 . S
O541 C490 1.325 . S
O542 Li480 1.961 . S
O542 Li482 1.956 . S
O542 Li483 1.970 1_556 S
O542 C512 1.325 . S
O543 Li481 1.961 . S
O543 Li482 1.970 1_554 S
O543 Li483 1.956 . S
O543 C518 1.325 . S
H544 C486 0.929 . S
H545 C487 0.930 . S
H546 C488 0.930 . S
H547 C489 0.930 . S
H548 C491 0.930 . S
H549 C493 0.929 . S
H550 C494 0.930 . S
H551 C495 0.930 . S
H552 C498 0.930 . S
H553 C501 0.929 . S
H554 C506 0.929 . S
H555 C507 0.930 . S
H556 C514 0.929 . S
H557 C515 0.930 . S
H558 C516 0.930 . S
H559 C517 0.930 . S
H560 C519 0.929 . S
H561 C520 0.930 . S
H562 C521 0.930 . S
H563 C522 0.930 . S
H564 C526 0.929 . S
H565 C528 0.930 . S
H566 C534 0.929 . S
H567 C535 0.933 . S
Li568 N585 1.990 . S
Li568 O628 1.956 . S
Li568 O629 1.970 . S
Li568 O630 1.961 . S
Li569 N593 1.990 . S
Li569 O628 1.970 . S
Li569 O629 1.956 . S
Li569 O631 1.925 1_545 S
Li570 N615 1.990 . S
Li570 O628 1.961 . S
Li570 O630 1.956 . S
Li570 O631 1.908 1_545 S
Li571 N621 1.990 . S
Li571 O629 1.961 1_565 S
Li571 O630 1.970 1_565 S
Li571 O631 1.957 . S
C572 C574 1.348 . S
C572 C575 1.356 . S
C572 O628 1.325 . S
N573 C576 1.314 . S
N573 C577 1.279 . S
C574 C572 1.348 . S
C574 C576 1.353 . S
C574 H632 0.929 . S
C575 C572 1.356 . S
C575 C577 1.358 . S
C575 H633 0.930 . S
C576 N573 1.314 . S
C576 C574 1.353 . S
C576 H634 0.930 . S
C577 N573 1.279 . S
C577 C575 1.358 . S
C577 H635 0.930 . S
C578 C581 1.348 . S
C578 C582 1.356 1_545 S
C578 O629 1.325 . S
C579 N580 1.279 1_565 S
C579 C582 1.358 . S
C579 H636 0.930 . S
N580 C579 1.279 1_545 S
N580 C583 1.314 . S
C581 C578 1.348 . S
C581 C583 1.353 . S
C581 H637 0.929 . S
C582 C578 1.356 1_565 S
C582 C579 1.358 . S
C582 H638 0.930 . S
C583 N580 1.314 . S
C583 C581 1.353 . S
C583 H639 0.930 . S
C584 N585 1.314 . S
C584 C589 1.353 . S
C584 H590 0.930 . S
N585 Li568 1.990 . S
N585 C584 1.314 . S
N585 C587 1.279 . S
C586 C587 1.358 . S
C586 C588 1.356 . S
C586 H640 0.930 . S
C587 N585 1.279 . S
C587 C586 1.358 . S
C587 H591 0.930 . S
C588 C586 1.356 . S
C588 C589 1.348 . S
C589 C584 1.353 . S
C589 C588 1.348 . S
C589 H641 0.929 . S
H590 C584 0.930 . S
H591 C587 0.930 . S
C592 N593 1.314 . S
C592 C594 1.353 . S
C592 H598 0.930 . S
N593 Li569 1.990 . S
N593 C592 1.314 . S
N593 C596 1.279 . S
C594 C592 1.353 . S
C594 C597 1.348 . S
C594 H642 0.929 . S
C595 C596 1.358 . S
C595 C597 1.356 . S
C595 H643 0.930 . S
C596 N593 1.279 . S
C596 C595 1.358 . S
C596 H599 0.930 . S
C597 C594 1.348 . S
C597 C595 1.356 . S
H598 C592 0.930 . S
H599 C596 0.930 . S
C600 C602 1.348 . S
C600 C603 1.356 . S
C600 O630 1.325 . S
N601 C604 1.314 . S
N601 C605 1.279 . S
C602 C600 1.348 . S
C602 C604 1.353 . S
C602 H644 0.929 1_545 S
C603 C600 1.356 . S
C603 C605 1.358 . S
C603 H645 0.930 . S
C604 N601 1.314 . S
C604 C602 1.353 . S
C604 H646 0.930 1_545 S
C605 N601 1.279 . S
C605 C603 1.358 . S
C605 H647 0.930 . S
C606 C607 1.348 . S
C606 C608 1.356 . S
C606 O631 1.384 . S
C607 C606 1.348 . S
C607 C609 1.353 . S
C607 H648 0.929 . S
C608 C606 1.356 . S
C608 C610 1.358 . S
C608 H649 0.930 . S
C609 C607 1.353 . S
C609 N611 1.314 . S
C609 H650 0.930 . S
C610 C608 1.358 . S
C610 N611 1.279 . S
C610 H651 0.930 . S
N611 C609 1.314 . S
N611 C610 1.279 . S
C612 C614 1.353 . S
C612 N615 1.314 . S
C612 H618 0.930 . S
C613 N615 1.279 . S
C613 C616 1.358 . S
C613 H619 0.930 . S
C614 C612 1.353 . S
C614 C617 1.348 . S
C614 H652 0.929 . S
N615 Li570 1.990 . S
N615 C612 1.314 . S
N615 C613 1.279 . S
C616 C613 1.358 . S
C616 C617 1.356 . S
C616 H653 0.930 . S
C617 C614 1.348 . S
C617 C616 1.356 . S
H618 C612 0.930 . S
H619 C613 0.930 . S
C620 N621 1.314 . S
C620 C622 1.353 . S
C620 H626 0.930 . S
N621 Li571 1.990 . S
N621 C620 1.314 . S
N621 C624 1.279 . S
C622 C620 1.353 . S
C622 C625 1.348 . S
C622 H654 0.929 . S
C623 C624 1.358 . S
C623 C625 1.356 . S
C623 H655 0.930 . S
C624 N621 1.279 . S
C624 C623 1.358 . S
C624 H627 0.930 . S
C625 C622 1.348 . S
C625 C623 1.356 . S
H626 C620 0.930 . S
H627 C624 0.930 . S
O628 Li568 1.956 . S
O628 Li569 1.970 . S
O628 Li570 1.961 . S
O628 C572 1.325 . S
O629 Li568 1.970 . S
O629 Li569 1.956 . S
O629 Li571 1.961 1_545 S
O629 C578 1.325 . S
O630 Li568 1.961 . S
O630 Li570 1.956 . S
O630 Li571 1.970 1_545 S
O630 C600 1.325 . S
O631 Li569 1.925 1_565 S
O631 Li570 1.908 1_565 S
O631 Li571 1.957 . S
O631 C606 1.384 . S
H632 C574 0.929 . S
H633 C575 0.930 . S
H634 C576 0.930 . S
H635 C577 0.930 . S
H636 C579 0.930 . S
H637 C581 0.929 . S
H638 C582 0.930 . S
H639 C583 0.930 . S
H640 C586 0.930 . S
H641 C589 0.929 . S
H642 C594 0.929 . S
H643 C595 0.930 . S
H644 C602 0.929 1_565 S
H645 C603 0.930 . S
H646 C604 0.930 1_565 S
H647 C605 0.930 . S
H648 C607 0.929 . S
H649 C608 0.930 . S
H650 C609 0.930 . S
H651 C610 0.930 . S
H652 C614 0.929 . S
H653 C616 0.930 . S
H654 C622 0.929 . S
H655 C623 0.930 . S
Li656 N673 1.990 . S
Li656 O716 1.956 . S
Li656 O717 1.970 . S
Li656 O718 1.961 . S
Li657 N681 1.990 . S
Li657 O716 1.970 . S
Li657 O717 1.956 . S
Li657 O719 1.961 . S
Li658 N703 1.990 . S
Li658 O716 1.961 . S
Li658 O718 1.956 . S
Li658 O719 1.970 . S
Li659 N709 1.990 . S
Li659 O717 1.961 . S
Li659 O718 1.970 . S
Li659 O719 1.956 . S
C660 C662 1.348 . S
C660 C663 1.356 . S
C660 O716 1.325 . S
N661 C664 1.314 . S
N661 C665 1.279 . S
C662 C660 1.348 . S
C662 C664 1.353 . S
C662 H720 0.929 . S
C663 C660 1.356 . S
C663 C665 1.358 . S
C663 H721 0.930 . S
C664 N661 1.314 . S
C664 C662 1.353 . S
C664 H722 0.930 . S
C665 N661 1.279 . S
C665 C663 1.358 . S
C665 H723 0.930 . S
C666 C669 1.348 . S
C666 C670 1.356 . S
C666 O717 1.325 . S
C667 N668 1.279 . S
C667 C670 1.358 . S
C667 H724 0.930 . S
N668 C667 1.279 . S
N668 C671 1.314 . S
C669 C666 1.348 . S
C669 C671 1.353 . S
C669 H725 0.929 . S
C670 C666 1.356 . S
C670 C667 1.358 . S
C670 H726 0.930 . S
C671 N668 1.314 . S
C671 C669 1.353 . S
C671 H727 0.930 . S
C672 N673 1.314 . S
C672 C677 1.353 . S
C672 H678 0.930 . S
N673 Li656 1.990 . S
N673 C672 1.314 . S
N673 C675 1.279 . S
C674 C675 1.358 . S
C674 C676 1.356 . S
C674 H728 0.930 . S
C675 N673 1.279 . S
C675 C674 1.358 . S
C675 H679 0.930 . S
C676 C674 1.356 . S
C676 C677 1.348 . S
C677 C672 1.353 . S
C677 C676 1.348 . S
C677 H729 0.929 . S
H678 C672 0.930 . S
H679 C675 0.930 . S
C680 N681 1.314 . S
C680 C682 1.353 . S
C680 H686 0.930 . S
N681 Li657 1.990 . S
N681 C680 1.314 . S
N681 C684 1.279 . S
C682 C680 1.353 . S
C682 C685 1.348 . S
C682 H730 0.929 . S
C683 C684 1.358 . S
C683 C685 1.356 . S
C683 H731 0.930 . S
C684 N681 1.279 . S
C684 C683 1.358 . S
C684 H687 0.930 . S
C685 C682 1.348 . S
C685 C683 1.356 . S
H686 C680 0.930 . S
H687 C684 0.930 . S
C688 C690 1.348 . S
C688 C691 1.356 . S
C688 O718 1.325 . S
N689 C692 1.314 . S
N689 C693 1.279 . S
C690 C688 1.348 . S
C690 C692 1.353 . S
C690 H732 0.929 . S
C691 C688 1.356 . S
C691 C693 1.358 . S
C691 H733 0.930 . S
C692 N689 1.314 . S
C692 C690 1.353 . S
C692 H734 0.930 . S
C693 N689 1.279 . S
C693 C691 1.358 . S
C693 H735 0.930 . S
C694 C695 1.348 . S
C694 C696 1.356 . S
C694 O719 1.325 . S
C695 C694 1.348 . S
C695 C697 1.353 . S
C695 H736 0.929 . S
C696 C694 1.356 . S
C696 C698 1.358 . S
C696 H737 0.930 . S
C697 C695 1.353 . S
C697 N699 1.314 . S
C697 H738 0.930 . S
C698 C696 1.358 . S
C698 N699 1.279 . S
C698 H739 0.930 . S
N699 C697 1.314 . S
N699 C698 1.279 . S
C700 C702 1.353 . S
C700 N703 1.314 . S
C700 H706 0.930 . S
C701 N703 1.279 . S
C701 C704 1.358 . S
C701 H707 0.930 . S
C702 C700 1.353 . S
C702 C705 1.348 . S
C702 H740 0.929 . S
N703 Li658 1.990 . S
N703 C700 1.314 . S
N703 C701 1.279 . S
C704 C701 1.358 . S
C704 C705 1.356 . S
C704 H741 0.930 . S
C705 C702 1.348 . S
C705 C704 1.356 . S
H706 C700 0.930 . S
H707 C701 0.930 . S
C708 N709 1.314 . S
C708 C710 1.353 . S
C708 H714 0.930 . S
N709 Li659 1.990 . S
N709 C708 1.314 . S
N709 C712 1.279 . S
C710 C708 1.353 . S
C710 C713 1.348 . S
C710 H742 0.929 . S
C711 C712 1.358 . S
C711 C713 1.356 . S
C711 H743 0.930 . S
C712 N709 1.279 . S
C712 C711 1.358 . S
C712 H715 0.930 . S
C713 C710 1.348 . S
C713 C711 1.356 . S
H714 C708 0.930 . S
H715 C712 0.930 . S
O716 Li656 1.956 . S
O716 Li657 1.970 . S
O716 Li658 1.961 . S
O716 C660 1.325 . S
O717 Li656 1.970 . S
O717 Li657 1.956 . S
O717 Li659 1.961 . S
O717 C666 1.325 . S
O718 Li656 1.961 . S
O718 Li658 1.956 . S
O718 Li659 1.970 . S
O718 C688 1.325 . S
O719 Li657 1.961 . S
O719 Li658 1.970 . S
O719 Li659 1.956 . S
O719 C694 1.325 . S
H720 C662 0.929 . S
H721 C663 0.930 . S
H722 C664 0.930 . S
H723 C665 0.930 . S
H724 C667 0.930 . S
H725 C669 0.929 . S
H726 C670 0.930 . S
H727 C671 0.930 . S
H728 C674 0.930 . S
H729 C677 0.929 . S
H730 C682 0.929 . S
H731 C683 0.930 . S
H732 C690 0.929 . S
H733 C691 0.930 . S
H734 C692 0.930 . S
H735 C693 0.930 . S
H736 C695 0.929 . S
H737 C696 0.930 . S
H738 C697 0.930 . S
H739 C698 0.930 . S
H740 C702 0.929 . S
H741 C704 0.930 . S
H742 C710 0.929 . S
H743 C711 0.930 . S
Li744 N761 1.990 . S
Li744 O804 1.956 . S
Li744 O805 1.970 . S
Li744 O806 1.961 . S
Li745 N769 1.990 . S
Li745 O804 1.970 . S
Li745 O805 1.956 . S
Li745 O807 1.961 . S
Li746 N791 1.990 . S
Li746 O804 1.961 . S
Li746 O806 1.956 . S
Li746 O807 1.970 . S
Li747 N797 1.990 . S
Li747 O805 1.961 . S
Li747 O806 1.970 . S
Li747 O807 1.956 . S
C748 C750 1.348 . S
C748 C751 1.356 . S
C748 O804 1.325 . S
N749 C752 1.314 . S
N749 C753 1.279 . S
C750 C748 1.348 . S
C750 C752 1.353 . S
C750 H808 0.929 . S
C751 C748 1.356 . S
C751 C753 1.358 . S
C751 H809 0.930 . S
C752 N749 1.314 . S
C752 C750 1.353 . S
C752 H810 0.930 . S
C753 N749 1.279 . S
C753 C751 1.358 . S
C753 H811 0.930 . S
C754 C757 1.348 . S
C754 C758 1.356 . S
C754 O805 1.325 . S
C755 N756 1.279 . S
C755 C758 1.358 . S
C755 H812 0.930 . S
N756 C755 1.279 . S
N756 C759 1.314 . S
C757 C754 1.348 . S
C757 C759 1.353 . S
C757 H813 0.929 . S
C758 C754 1.356 . S
C758 C755 1.358 . S
C758 H814 0.930 . S
C759 N756 1.314 . S
C759 C757 1.353 . S
C759 H815 0.930 . S
C760 N761 1.314 . S
C760 C765 1.353 . S
C760 H766 0.930 . S
N761 Li744 1.990 . S
N761 C760 1.314 . S
N761 C763 1.279 . S
C762 C763 1.358 . S
C762 C764 1.356 . S
C762 H816 0.930 . S
C763 N761 1.279 . S
C763 C762 1.358 . S
C763 H767 0.930 . S
C764 C762 1.356 . S
C764 C765 1.348 . S
C765 C760 1.353 . S
C765 C764 1.348 . S
C765 H817 0.929 . S
H766 C760 0.930 . S
H767 C763 0.930 . S
C768 N769 1.314 . S
C768 C770 1.353 . S
C768 H774 0.930 . S
N769 Li745 1.990 . S
N769 C768 1.314 . S
N769 C772 1.279 . S
C770 C768 1.353 . S
C770 C773 1.348 . S
C770 H818 0.929 . S
C771 C772 1.358 . S
C771 C773 1.356 . S
C771 H819 0.930 . S
C772 N769 1.279 . S
C772 C771 1.358 . S
C772 H775 0.930 . S
C773 C770 1.348 . S
C773 C771 1.356 . S
H774 C768 0.930 . S
H775 C772 0.930 . S
C776 C778 1.348 . S
C776 C779 1.356 . S
C776 O806 1.325 . S
N777 C780 1.314 . S
N777 C781 1.279 . S
C778 C776 1.348 . S
C778 C780 1.353 . S
C778 H820 0.929 . S
C779 C776 1.356 . S
C779 C781 1.358 . S
C779 H821 0.930 . S
C780 N777 1.314 . S
C780 C778 1.353 . S
C780 H822 0.930 . S
C781 N777 1.279 . S
C781 C779 1.358 . S
C781 H823 0.930 . S
C782 C783 1.348 . S
C782 C784 1.356 . S
C782 O807 1.325 . S
C783 C782 1.348 . S
C783 C785 1.353 . S
C783 H824 0.929 . S
C784 C782 1.356 . S
C784 C786 1.358 . S
C784 H825 0.930 . S
C785 C783 1.353 . S
C785 N787 1.314 . S
C785 H826 0.930 . S
C786 C784 1.358 . S
C786 N787 1.279 . S
C786 H827 0.930 . S
N787 C785 1.314 . S
N787 C786 1.279 . S
C788 C790 1.353 . S
C788 N791 1.314 . S
C788 H794 0.930 . S
C789 N791 1.279 . S
C789 C792 1.358 . S
C789 H795 0.930 . S
C790 C788 1.353 . S
C790 C793 1.348 . S
C790 H828 0.929 . S
N791 Li746 1.990 . S
N791 C788 1.314 . S
N791 C789 1.279 . S
C792 C789 1.358 . S
C792 C793 1.356 . S
C792 H829 0.930 . S
C793 C790 1.348 . S
C793 C792 1.356 . S
H794 C788 0.930 . S
H795 C789 0.930 . S
C796 N797 1.314 . S
C796 C798 1.353 . S
C796 H802 0.930 . S
N797 Li747 1.990 . S
N797 C796 1.314 . S
N797 C800 1.279 . S
C798 C796 1.353 . S
C798 C801 1.348 . S
C798 H830 0.929 . S
C799 C800 1.358 . S
C799 C801 1.356 . S
C799 H831 0.930 . S
C800 N797 1.279 . S
C800 C799 1.358 . S
C800 H803 0.930 . S
C801 C798 1.348 . S
C801 C799 1.356 . S
H802 C796 0.930 . S
H803 C800 0.930 . S
O804 Li744 1.956 . S
O804 Li745 1.970 . S
O804 Li746 1.961 . S
O804 C748 1.325 . S
O805 Li744 1.970 . S
O805 Li745 1.956 . S
O805 Li747 1.961 . S
O805 C754 1.325 . S
O806 Li744 1.961 . S
O806 Li746 1.956 . S
O806 Li747 1.970 . S
O806 C776 1.325 . S
O807 Li745 1.961 . S
O807 Li746 1.970 . S
O807 Li747 1.956 . S
O807 C782 1.325 . S
H808 C750 0.929 . S
H809 C751 0.930 . S
H810 C752 0.930 . S
H811 C753 0.930 . S
H812 C755 0.930 . S
H813 C757 0.929 . S
H814 C758 0.930 . S
H815 C759 0.930 . S
H816 C762 0.930 . S
H817 C765 0.929 . S
H818 C770 0.929 . S
H819 C771 0.930 . S
H820 C778 0.929 . S
H821 C779 0.930 . S
H822 C780 0.930 . S
H823 C781 0.930 . S
H824 C783 0.929 . S
H825 C784 0.930 . S
H826 C785 0.930 . S
H827 C786 0.930 . S
H828 C790 0.929 . S
H829 C792 0.930 . S
H830 C798 0.929 . S
H831 C799 0.930 . S
Li832 N849 1.990 . S
Li832 O892 1.956 . S
Li832 O893 1.970 . S
Li832 O894 1.961 . S
Li833 N857 1.990 . S
Li833 O892 1.970 . S
Li833 O893 1.956 . S
Li833 O895 1.961 . S
Li834 N879 1.990 . S
Li834 O892 1.961 . S
Li834 O894 1.956 . S
Li834 O895 1.970 . S
Li835 N885 1.990 . S
Li835 O893 1.961 . S
Li835 O894 1.970 . S
Li835 O895 1.956 . S
C836 C838 1.348 . S
C836 C839 1.356 . S
C836 O892 1.325 . S
N837 C840 1.314 . S
N837 C841 1.279 . S
C838 C836 1.348 . S
C838 C840 1.353 . S
C838 H896 0.929 . S
C839 C836 1.356 . S
C839 C841 1.358 . S
C839 H897 0.930 . S
C840 N837 1.314 . S
C840 C838 1.353 . S
C840 H898 0.930 . S
C841 N837 1.279 . S
C841 C839 1.358 . S
C841 H899 0.930 . S
C842 C845 1.348 . S
C842 C846 1.356 . S
C842 O893 1.325 . S
C843 N844 1.279 . S
C843 C846 1.358 . S
C843 H900 0.930 . S
N844 C843 1.279 . S
N844 C847 1.314 . S
C845 C842 1.348 . S
C845 C847 1.353 . S
C845 H901 0.929 . S
C846 C842 1.356 . S
C846 C843 1.358 . S
C846 H902 0.930 . S
C847 N844 1.314 . S
C847 C845 1.353 . S
C847 H903 0.930 . S
C848 N849 1.314 . S
C848 C853 1.353 . S
C848 H854 0.930 . S
N849 Li832 1.990 . S
N849 C848 1.314 . S
N849 C851 1.279 . S
C850 C851 1.358 . S
C850 C852 1.356 . S
C850 H904 0.930 . S
C851 N849 1.279 . S
C851 C850 1.358 . S
C851 H855 0.930 . S
C852 C850 1.356 . S
C852 C853 1.348 . S
C853 C848 1.353 . S
C853 C852 1.348 . S
C853 H905 0.929 . S
H854 C848 0.930 . S
H855 C851 0.930 . S
C856 N857 1.314 . S
C856 C858 1.353 . S
C856 H862 0.930 . S
N857 Li833 1.990 . S
N857 C856 1.314 . S
N857 C860 1.279 . S
C858 C856 1.353 . S
C858 C861 1.348 . S
C858 H906 0.929 . S
C859 C860 1.358 . S
C859 C861 1.356 . S
C859 H907 0.930 . S
C860 N857 1.279 . S
C860 C859 1.358 . S
C860 H863 0.930 . S
C861 C858 1.348 . S
C861 C859 1.356 . S
H862 C856 0.930 . S
H863 C860 0.930 . S
C864 C866 1.348 . S
C864 C867 1.356 . S
C864 O894 1.325 . S
N865 C868 1.314 . S
N865 C869 1.279 . S
C866 C864 1.348 . S
C866 C868 1.353 . S
C866 H908 0.929 . S
C867 C864 1.356 . S
C867 C869 1.358 . S
C867 H909 0.930 . S
C868 N865 1.314 . S
C868 C866 1.353 . S
C868 H910 0.930 . S
C869 N865 1.279 . S
C869 C867 1.358 . S
C869 H911 0.930 . S
C870 C871 1.348 . S
C870 C872 1.356 . S
C870 O895 1.325 . S
C871 C870 1.348 . S
C871 C873 1.353 . S
C871 H912 0.929 . S
C872 C870 1.356 . S
C872 C874 1.358 . S
C872 H913 0.930 . S
C873 C871 1.353 . S
C873 N875 1.314 . S
C873 H914 0.930 . S
C874 C872 1.358 . S
C874 N875 1.279 . S
C874 H915 0.930 . S
N875 C873 1.314 . S
N875 C874 1.279 . S
C876 C878 1.353 . S
C876 N879 1.314 . S
C876 H882 0.930 . S
C877 N879 1.279 . S
C877 C880 1.358 . S
C877 H883 0.930 . S
C878 C876 1.353 . S
C878 C881 1.348 . S
C878 H916 0.929 . S
N879 Li834 1.990 . S
N879 C876 1.314 . S
N879 C877 1.279 . S
C880 C877 1.358 . S
C880 C881 1.356 . S
C880 H917 0.930 . S
C881 C878 1.348 . S
C881 C880 1.356 . S
H882 C876 0.930 . S
H883 C877 0.930 . S
C884 N885 1.314 . S
C884 C886 1.353 . S
C884 H890 0.930 . S
N885 Li835 1.990 . S
N885 C884 1.314 . S
N885 C888 1.279 . S
C886 C884 1.353 . S
C886 C889 1.348 . S
C886 H918 0.929 . S
C887 C888 1.358 . S
C887 C889 1.356 . S
C887 H919 0.930 . S
C888 N885 1.279 . S
C888 C887 1.358 . S
C888 H891 0.930 . S
C889 C886 1.348 . S
C889 C887 1.356 . S
H890 C884 0.930 . S
H891 C888 0.930 . S
O892 Li832 1.956 . S
O892 Li833 1.970 . S
O892 Li834 1.961 . S
O892 C836 1.325 . S
O893 Li832 1.970 . S
O893 Li833 1.956 . S
O893 Li835 1.961 . S
O893 C842 1.325 . S
O894 Li832 1.961 . S
O894 Li834 1.956 . S
O894 Li835 1.970 . S
O894 C864 1.325 . S
O895 Li833 1.961 . S
O895 Li834 1.970 . S
O895 Li835 1.956 . S
O895 C870 1.325 . S
H896 C838 0.929 . S
H897 C839 0.930 . S
H898 C840 0.930 . S
H899 C841 0.930 . S
H900 C843 0.930 . S
H901 C845 0.929 . S
H902 C846 0.930 . S
H903 C847 0.930 . S
H904 C850 0.930 . S
H905 C853 0.929 . S
H906 C858 0.929 . S
H907 C859 0.930 . S
H908 C866 0.929 . S
H909 C867 0.930 . S
H910 C868 0.930 . S
H911 C869 0.930 . S
H912 C871 0.929 . S
H913 C872 0.930 . S
H914 C873 0.930 . S
H915 C874 0.930 . S
H916 C878 0.929 . S
H917 C880 0.930 . S
H918 C886 0.929 . S
H919 C887 0.930 . S
Li920 N937 1.990 1_545 S
Li920 O980 1.956 . S
Li920 O981 1.970 . S
Li920 O982 1.961 . S
Li921 N945 1.990 . S
Li921 O980 1.970 . S
Li921 O981 1.956 . S
Li921 O983 1.961 . S
Li922 N967 1.990 . S
Li922 O980 1.961 . S
Li922 O982 1.956 . S
Li922 O983 1.970 . S
Li923 N973 1.990 . S
Li923 O981 1.961 . S
Li923 O982 1.970 . S
Li923 O983 1.956 . S
C924 C926 1.348 . S
C924 C927 1.356 . S
C924 O980 1.325 1_565 S
N925 C928 1.314 . S
N925 C929 1.279 . S
C926 C924 1.348 . S
C926 C928 1.353 . S
C926 H984 0.929 . S
C927 C924 1.356 . S
C927 C929 1.358 . S
C927 H985 0.930 . S
C928 N925 1.314 . S
C928 C926 1.353 . S
C928 H986 0.930 . S
C929 N925 1.279 . S
C929 C927 1.358 . S
C929 H987 0.930 . S
C930 C933 1.348 . S
C930 C934 1.356 . S
C930 O981 1.325 . S
C931 N932 1.279 . S
C931 C934 1.358 . S
C931 H988 0.930 . S
N932 C931 1.279 . S
N932 C935 1.314 . S
C933 C930 1.348 . S
C933 C935 1.353 . S
C933 H989 0.929 . S
C934 C930 1.356 . S
C934 C931 1.358 . S
C934 H990 0.930 . S
C935 N932 1.314 . S
C935 C933 1.353 . S
C935 H991 0.930 . S
C936 N937 1.314 . S
C936 C941 1.353 . S
C936 H942 0.930 . S
N937 Li920 1.990 1_565 S
N937 C936 1.314 . S
N937 C939 1.279 . S
C938 C939 1.358 . S
C938 C940 1.356 . S
C938 H992 0.930 . S
C939 N937 1.279 . S
C939 C938 1.358 . S
C939 H943 0.930 . S
C940 C938 1.356 . S
C940 C941 1.348 . S
C941 C936 1.353 . S
C941 C940 1.348 . S
C941 H993 0.929 . S
H942 C936 0.930 . S
H943 C939 0.930 . S
C944 N945 1.314 . S
C944 C946 1.353 . S
C944 H950 0.930 . S
N945 Li921 1.990 . S
N945 C944 1.314 . S
N945 C948 1.279 . S
C946 C944 1.353 . S
C946 C949 1.348 . S
C946 H994 0.929 . S
C947 C948 1.358 . S
C947 C949 1.356 . S
C947 H995 0.930 . S
C948 N945 1.279 . S
C948 C947 1.358 . S
C948 H951 0.930 . S
C949 C946 1.348 . S
C949 C947 1.356 . S
H950 C944 0.930 . S
H951 C948 0.930 . S
C952 C954 1.348 . S
C952 C955 1.356 . S
C952 O982 1.325 . S
N953 C956 1.314 . S
N953 C957 1.284 1_545 S
C954 C952 1.348 . S
C954 C956 1.353 . S
C954 H996 0.929 . S
C955 C952 1.356 . S
C955 C957 1.359 1_545 S
C955 H997 0.930 1_545 S
C956 N953 1.314 . S
C956 C954 1.353 . S
C956 H998 0.930 . S
C957 N953 1.284 1_565 S
C957 C955 1.359 1_565 S
C957 H999 0.924 . S
C958 C959 1.348 . S
C958 C960 1.356 . S
C958 O983 1.325 . S
C959 C958 1.348 . S
C959 C961 1.353 . S
C959 H1000 0.929 . S
C960 C958 1.356 . S
C960 C962 1.358 . S
C960 H1001 0.930 . S
C961 C959 1.353 . S
C961 N963 1.314 . S
C961 H1002 0.930 . S
C962 C960 1.358 . S
C962 N963 1.279 . S
C962 H1003 0.930 . S
N963 C961 1.314 . S
N963 C962 1.279 . S
C964 C966 1.353 . S
C964 N967 1.314 . S
C964 H970 0.930 . S
C965 N967 1.279 . S
C965 C968 1.358 . S
C965 H971 0.930 . S
C966 C964 1.353 . S
C966 C969 1.348 . S
C966 H1004 0.918 1_545 S
N967 Li922 1.990 . S
N967 C964 1.314 . S
N967 C965 1.279 . S
C968 C965 1.358 . S
C968 C969 1.356 . S
C968 H1005 0.930 . S
C969 C966 1.348 . S
C969 C968 1.356 . S
H970 C964 0.930 . S
H971 C965 0.930 . S
C972 N973 1.314 . S
C972 C974 1.353 . S
C972 H978 0.930 . S
N973 Li923 1.990 . S
N973 C972 1.314 . S
N973 C976 1.279 . S
C974 C972 1.353 . S
C974 C977 1.348 . S
C974 H1006 0.929 . S
C975 C976 1.358 . S
C975 C977 1.356 . S
C975 H1007 0.930 . S
C976 N973 1.279 . S
C976 C975 1.358 . S
C976 H979 0.930 . S
C977 C974 1.348 . S
C977 C975 1.356 . S
H978 C972 0.930 . S
H979 C976 0.930 . S
O980 Li920 1.956 . S
O980 Li921 1.970 . S
O980 Li922 1.961 . S
O980 C924 1.325 1_545 S
O981 Li920 1.970 . S
O981 Li921 1.956 . S
O981 Li923 1.961 . S
O981 C930 1.325 . S
O982 Li920 1.961 . S
O982 Li922 1.956 . S
O982 Li923 1.970 . S
O982 C952 1.325 . S
O983 Li921 1.961 . S
O983 Li922 1.970 . S
O983 Li923 1.956 . S
O983 C958 1.325 . S
H984 C926 0.929 . S
H985 C927 0.930 . S
H986 C928 0.930 . S
H987 C929 0.930 . S
H988 C931 0.930 . S
H989 C933 0.929 . S
H990 C934 0.930 . S
H991 C935 0.930 . S
H992 C938 0.930 . S
H993 C941 0.929 . S
H994 C946 0.929 . S
H995 C947 0.930 . S
H996 C954 0.929 . S
H997 C955 0.930 1_565 S
H998 C956 0.930 . S
H999 C957 0.924 . S
H1000 C959 0.929 . S
H1001 C960 0.930 . S
H1002 C961 0.930 . S
H1003 C962 0.930 . S
H1004 C966 0.918 1_565 S
H1005 C968 0.930 . S
H1006 C974 0.929 . S
H1007 C975 0.930 . S
Li1008 N1025 1.990 . S
Li1008 O1068 1.956 . S
Li1008 O1069 1.970 . S
Li1008 O1070 1.961 . S
Li1009 N1033 1.990 . S
Li1009 O1068 1.970 . S
Li1009 O1069 1.956 . S
Li1009 O1071 1.961 1_455 S
Li1010 N1055 1.990 . S
Li1010 O1068 1.961 . S
Li1010 O1070 1.956 . S
Li1010 O1071 1.970 1_455 S
Li1011 N1061 1.990 . S
Li1011 O1069 1.961 1_655 S
Li1011 O1070 1.970 1_655 S
Li1011 O1071 1.956 . S
C1012 C1014 1.348 . S
C1012 C1015 1.356 . S
C1012 O1068 1.325 . S
N1013 C1016 1.314 . S
N1013 C1017 1.279 . S
C1014 C1012 1.348 . S
C1014 C1016 1.353 . S
C1014 H1072 0.929 . S
C1015 C1012 1.356 . S
C1015 C1017 1.358 . S
C1015 H1073 0.930 . S
C1016 N1013 1.314 . S
C1016 C1014 1.353 . S
C1016 H1074 0.930 . S
C1017 N1013 1.279 . S
C1017 C1015 1.358 . S
C1017 H1075 0.930 . S
C1018 C1021 1.348 . S
C1018 C1022 1.356 1_455 S
C1018 O1069 1.325 . S
C1019 N1020 1.279 1_655 S
C1019 C1022 1.358 . S
C1019 H1076 0.930 . S
N1020 C1019 1.279 1_455 S
N1020 C1023 1.314 . S
C1021 C1018 1.348 . S
C1021 C1023 1.353 . S
C1021 H1077 0.929 . S
C1022 C1018 1.356 1_655 S
C1022 C1019 1.358 . S
C1022 H1078 0.930 . S
C1023 N1020 1.314 . S
C1023 C1021 1.353 . S
C1023 H1079 0.930 . S
C1024 N1025 1.314 . S
C1024 C1029 1.353 . S
C1024 H1030 0.930 . S
N1025 Li1008 1.990 . S
N1025 C1024 1.314 . S
N1025 C1027 1.279 . S
C1026 C1027 1.358 . S
C1026 C1028 1.356 . S
C1026 H1080 0.930 . S
C1027 N1025 1.279 . S
C1027 C1026 1.358 . S
C1027 H1031 0.930 . S
C1028 C1026 1.356 . S
C1028 C1029 1.348 . S
C1029 C1024 1.353 . S
C1029 C1028 1.348 . S
C1029 H1081 0.929 . S
H1030 C1024 0.930 . S
H1031 C1027 0.930 . S
C1032 N1033 1.314 1_655 S
C1032 C1034 1.353 . S
C1032 H1038 0.930 . S
N1033 Li1009 1.990 . S
N1033 C1032 1.314 1_455 S
N1033 C1036 1.279 . S
C1034 C1032 1.353 . S
C1034 C1037 1.348 1_655 S
C1034 H1082 0.929 . S
C1035 C1036 1.358 . S
C1035 C1037 1.356 . S
C1035 H1083 0.930 . S
C1036 N1033 1.279 . S
C1036 C1035 1.358 . S
C1036 H1039 0.930 . S
C1037 C1034 1.348 1_455 S
C1037 C1035 1.356 . S
H1038 C1032 0.930 . S
H1039 C1036 0.930 . S
C1040 C1042 1.348 1_455 S
C1040 C1043 1.356 . S
C1040 O1070 1.325 . S
N1041 C1044 1.314 1_455 S
N1041 C1045 1.279 . S
C1042 C1040 1.348 1_655 S
C1042 C1044 1.353 . S
C1042 H1084 0.929 . S
C1043 C1040 1.356 . S
C1043 C1045 1.358 . S
C1043 H1085 0.930 . S
C1044 N1041 1.314 1_655 S
C1044 C1042 1.353 . S
C1044 H1086 0.930 . S
C1045 N1041 1.279 . S
C1045 C1043 1.358 . S
C1045 H1087 0.930 . S
C1046 C1047 1.348 . S
C1046 C1048 1.356 . S
C1046 O1071 1.325 . S
C1047 C1046 1.348 . S
C1047 C1049 1.353 . S
C1047 H1088 0.929 . S
C1048 C1046 1.356 . S
C1048 C1050 1.358 . S
C1048 H1089 0.930 . S
C1049 C1047 1.353 . S
C1049 N1051 1.314 . S
C1049 H1090 0.930 . S
C1050 C1048 1.358 . S
C1050 N1051 1.279 . S
C1050 H1091 0.930 . S
N1051 C1049 1.314 . S
N1051 C1050 1.279 . S
C1052 C1054 1.353 . S
C1052 N1055 1.314 . S
C1052 H1058 0.930 . S
C1053 N1055 1.279 . S
C1053 C1056 1.358 . S
C1053 H1059 0.930 . S
C1054 C1052 1.353 . S
C1054 C1057 1.348 . S
C1054 H1092 0.929 . S
N1055 Li1010 1.990 . S
N1055 C1052 1.314 . S
N1055 C1053 1.279 . S
C1056 C1053 1.358 . S
C1056 C1057 1.356 . S
C1056 H1093 0.930 . S
C1057 C1054 1.348 . S
C1057 C1056 1.356 . S
H1058 C1052 0.930 . S
H1059 C1053 0.930 . S
C1060 N1061 1.314 . S
C1060 C1062 1.353 . S
C1060 H1066 0.930 . S
N1061 Li1011 1.990 . S
N1061 C1060 1.314 . S
N1061 C1064 1.279 . S
C1062 C1060 1.353 . S
C1062 C1065 1.348 . S
C1062 H1094 0.929 . S
C1063 C1064 1.358 . S
C1063 C1065 1.356 . S
C1063 H1095 0.930 . S
C1064 N1061 1.279 . S
C1064 C1063 1.358 . S
C1064 H1067 0.930 . S
C1065 C1062 1.348 . S
C1065 C1063 1.356 . S
H1066 C1060 0.930 . S
H1067 C1064 0.930 . S
O1068 Li1008 1.956 . S
O1068 Li1009 1.970 . S
O1068 Li1010 1.961 . S
O1068 C1012 1.325 . S
O1069 Li1008 1.970 . S
O1069 Li1009 1.956 . S
O1069 Li1011 1.961 1_455 S
O1069 C1018 1.325 . S
O1070 Li1008 1.961 . S
O1070 Li1010 1.956 . S
O1070 Li1011 1.970 1_455 S
O1070 C1040 1.325 . S
O1071 Li1009 1.961 1_655 S
O1071 Li1010 1.970 1_655 S
O1071 Li1011 1.956 . S
O1071 C1046 1.325 . S
H1072 C1014 0.929 . S
H1073 C1015 0.930 . S
H1074 C1016 0.930 . S
H1075 C1017 0.930 . S
H1076 C1019 0.930 . S
H1077 C1021 0.929 . S
H1078 C1022 0.930 . S
H1079 C1023 0.930 . S
H1080 C1026 0.930 . S
H1081 C1029 0.929 . S
H1082 C1034 0.929 . S
H1083 C1035 0.930 . S
H1084 C1042 0.929 . S
H1085 C1043 0.930 . S
H1086 C1044 0.930 . S
H1087 C1045 0.930 . S
H1088 C1047 0.929 . S
H1089 C1048 0.930 . S
H1090 C1049 0.930 . S
H1091 C1050 0.930 . S
H1092 C1054 0.929 . S
H1093 C1056 0.930 . S
H1094 C1062 0.929 . S
H1095 C1063 0.930 . S
Li1096 N1113 1.990 . S
Li1096 O1156 1.956 . S
Li1096 O1157 1.970 . S
Li1096 O1158 1.961 . S
Li1097 N1121 1.990 . S
Li1097 O1156 1.970 . S
Li1097 O1157 1.956 . S
Li1097 O1159 1.961 . S
Li1098 N1143 1.990 . S
Li1098 O1156 1.961 . S
Li1098 O1158 1.956 . S
Li1098 O1159 1.970 . S
Li1099 N1149 1.990 . S
Li1099 O1157 1.961 . S
Li1099 O1158 1.970 . S
Li1099 O1159 1.956 . S
C1100 C1102 1.348 . S
C1100 C1103 1.356 . S
C1100 O1156 1.325 . S
N1101 C1104 1.314 . S
N1101 C1105 1.279 . S
C1102 C1100 1.348 . S
C1102 C1104 1.353 . S
C1102 H1160 0.929 . S
C1103 C1100 1.356 . S
C1103 C1105 1.358 . S
C1103 H1161 0.930 . S
C1104 N1101 1.314 . S
C1104 C1102 1.353 . S
C1104 H1162 0.930 . S
C1105 N1101 1.279 . S
C1105 C1103 1.358 . S
C1105 H1163 0.930 . S
C1106 C1109 1.348 . S
C1106 C1110 1.356 . S
C1106 O1157 1.325 . S
C1107 N1108 1.279 . S
C1107 C1110 1.358 . S
C1107 H1164 0.930 . S
N1108 C1107 1.279 . S
N1108 C1111 1.314 . S
C1109 C1106 1.348 . S
C1109 C1111 1.353 . S
C1109 H1165 0.929 . S
C1110 C1106 1.356 . S
C1110 C1107 1.358 . S
C1110 H1166 0.930 . S
C1111 N1108 1.314 . S
C1111 C1109 1.353 . S
C1111 H1167 0.930 . S
C1112 N1113 1.314 . S
C1112 C1117 1.353 . S
C1112 H1118 0.930 . S
N1113 Li1096 1.990 . S
N1113 C1112 1.314 . S
N1113 C1115 1.279 . S
C1114 C1115 1.358 . S
C1114 C1116 1.356 . S
C1114 H1168 0.930 . S
C1115 N1113 1.279 . S
C1115 C1114 1.358 . S
C1115 H1119 0.930 . S
C1116 C1114 1.356 . S
C1116 C1117 1.348 . S
C1117 C1112 1.353 . S
C1117 C1116 1.348 . S
C1117 H1169 0.929 . S
H1118 C1112 0.930 . S
H1119 C1115 0.930 . S
C1120 N1121 1.314 . S
C1120 C1122 1.353 . S
C1120 H1126 0.930 . S
N1121 Li1097 1.990 . S
N1121 C1120 1.314 . S
N1121 C1124 1.279 . S
C1122 C1120 1.353 . S
C1122 C1125 1.348 . S
C1122 H1170 0.929 . S
C1123 C1124 1.358 . S
C1123 C1125 1.356 . S
C1123 H1171 0.930 . S
C1124 N1121 1.279 . S
C1124 C1123 1.358 . S
C1124 H1127 0.930 . S
C1125 C1122 1.348 . S
C1125 C1123 1.356 . S
H1126 C1120 0.930 . S
H1127 C1124 0.930 . S
C1128 C1130 1.348 . S
C1128 C1131 1.356 . S
C1128 O1158 1.325 . S
N1129 C1132 1.314 . S
N1129 C1133 1.279 . S
C1130 C1128 1.348 . S
C1130 C1132 1.353 . S
C1130 H1172 0.929 . S
C1131 C1128 1.356 . S
C1131 C1133 1.358 . S
C1131 H1173 0.930 . S
C1132 N1129 1.314 . S
C1132 C1130 1.353 . S
C1132 H1174 0.930 . S
C1133 N1129 1.279 . S
C1133 C1131 1.358 . S
C1133 H1175 0.930 . S
C1134 C1135 1.348 . S
C1134 C1136 1.356 . S
C1134 O1159 1.325 . S
C1135 C1134 1.348 . S
C1135 C1137 1.353 . S
C1135 H1176 0.929 . S
C1136 C1134 1.356 . S
C1136 C1138 1.358 . S
C1136 H1177 0.930 . S
C1137 C1135 1.353 . S
C1137 N1139 1.314 . S
C1137 H1178 0.930 . S
C1138 C1136 1.358 . S
C1138 N1139 1.279 . S
C1138 H1179 0.930 . S
N1139 C1137 1.314 . S
N1139 C1138 1.279 . S
C1140 C1142 1.353 . S
C1140 N1143 1.314 . S
C1140 H1146 0.930 . S
C1141 N1143 1.279 . S
C1141 C1144 1.358 . S
C1141 H1147 0.930 . S
C1142 C1140 1.353 . S
C1142 C1145 1.348 . S
C1142 H1180 0.929 . S
N1143 Li1098 1.990 . S
N1143 C1140 1.314 . S
N1143 C1141 1.279 . S
C1144 C1141 1.358 . S
C1144 C1145 1.356 . S
C1144 H1181 0.930 . S
C1145 C1142 1.348 . S
C1145 C1144 1.356 . S
H1146 C1140 0.930 . S
H1147 C1141 0.930 . S
C1148 N1149 1.314 . S
C1148 C1150 1.353 . S
C1148 H1154 0.930 . S
N1149 Li1099 1.990 . S
N1149 C1148 1.314 . S
N1149 C1152 1.279 . S
C1150 C1148 1.353 . S
C1150 C1153 1.348 . S
C1150 H1182 0.929 . S
C1151 C1152 1.358 . S
C1151 C1153 1.356 . S
C1151 H1183 0.930 . S
C1152 N1149 1.279 . S
C1152 C1151 1.358 . S
C1152 H1155 0.930 . S
C1153 C1150 1.348 . S
C1153 C1151 1.356 . S
H1154 C1148 0.930 . S
H1155 C1152 0.930 . S
O1156 Li1096 1.956 . S
O1156 Li1097 1.970 . S
O1156 Li1098 1.961 . S
O1156 C1100 1.325 . S
O1157 Li1096 1.970 . S
O1157 Li1097 1.956 . S
O1157 Li1099 1.961 . S
O1157 C1106 1.325 . S
O1158 Li1096 1.961 . S
O1158 Li1098 1.956 . S
O1158 Li1099 1.970 . S
O1158 C1128 1.325 . S
O1159 Li1097 1.961 . S
O1159 Li1098 1.970 . S
O1159 Li1099 1.956 . S
O1159 C1134 1.325 . S
H1160 C1102 0.929 . S
H1161 C1103 0.930 . S
H1162 C1104 0.930 . S
H1163 C1105 0.930 . S
H1164 C1107 0.930 . S
H1165 C1109 0.929 . S
H1166 C1110 0.930 . S
H1167 C1111 0.930 . S
H1168 C1114 0.930 . S
H1169 C1117 0.929 . S
H1170 C1122 0.929 . S
H1171 C1123 0.930 . S
H1172 C1130 0.929 . S
H1173 C1131 0.930 . S
H1174 C1132 0.930 . S
H1175 C1133 0.930 . S
H1176 C1135 0.929 . S
H1177 C1136 0.930 . S
H1178 C1137 0.930 . S
H1179 C1138 0.930 . S
H1180 C1142 0.929 . S
H1181 C1144 0.930 . S
H1182 C1150 0.929 . S
H1183 C1151 0.930 . S
Li1184 N1201 1.990 . S
Li1184 O1244 1.956 . S
Li1184 O1245 1.970 1_455 S
Li1184 O1246 1.961 . S
Li1185 N1209 1.990 . S
Li1185 O1244 1.970 1_655 S
Li1185 O1245 1.956 . S
Li1185 O1247 1.961 . S
Li1186 N1231 1.990 . S
Li1186 O1244 1.961 . S
Li1186 O1246 1.956 . S
Li1186 O1247 1.970 1_455 S
Li1187 N1237 1.990 . S
Li1187 O1245 1.961 . S
Li1187 O1246 1.970 1_655 S
Li1187 O1247 1.956 . S
C1188 C1190 1.348 1_455 S
C1188 C1191 1.356 . S
C1188 O1244 1.325 . S
N1189 C1192 1.315 1_455 S
N1189 C1193 1.279 . S
C1190 C1188 1.348 1_655 S
C1190 C1192 1.353 . S
C1190 H1248 0.929 . S
C1191 C1188 1.356 . S
C1191 C1193 1.358 . S
C1191 H1249 0.930 . S
C1192 N1189 1.315 1_655 S
C1192 C1190 1.353 . S
C1192 H1250 0.929 . S
C1193 N1189 1.279 . S
C1193 C1191 1.358 . S
C1193 H1251 0.930 . S
C1194 C1197 1.348 . S
C1194 C1198 1.356 . S
C1194 O1245 1.325 . S
C1195 N1196 1.279 . S
C1195 C1198 1.358 . S
C1195 H1252 0.930 . S
N1196 C1195 1.279 . S
N1196 C1199 1.314 . S
C1197 C1194 1.348 . S
C1197 C1199 1.353 . S
C1197 H1253 0.929 . S
C1198 C1194 1.356 . S
C1198 C1195 1.358 . S
C1198 H1254 0.930 . S
C1199 N1196 1.314 . S
C1199 C1197 1.353 . S
C1199 H1255 0.930 . S
C1200 N1201 1.314 . S
C1200 C1205 1.353 . S
C1200 H1206 0.930 . S
N1201 Li1184 1.990 . S
N1201 C1200 1.314 . S
N1201 C1203 1.279 . S
C1202 C1203 1.358 . S
C1202 C1204 1.356 . S
C1202 H1256 0.930 . S
C1203 N1201 1.279 . S
C1203 C1202 1.358 . S
C1203 H1207 0.930 . S
C1204 C1202 1.356 . S
C1204 C1205 1.348 . S
C1205 C1200 1.353 . S
C1205 C1204 1.348 . S
C1205 H1257 0.929 . S
H1206 C1200 0.930 . S
H1207 C1203 0.930 . S
C1208 N1209 1.314 . S
C1208 C1210 1.353 . S
C1208 H1214 0.930 . S
N1209 Li1185 1.990 . S
N1209 C1208 1.314 . S
N1209 C1212 1.279 . S
C1210 C1208 1.353 . S
C1210 C1213 1.348 . S
C1210 H1258 0.929 . S
C1211 C1212 1.358 . S
C1211 C1213 1.356 . S
C1211 H1259 0.930 . S
C1212 N1209 1.279 . S
C1212 C1211 1.358 . S
C1212 H1215 0.930 . S
C1213 C1210 1.348 . S
C1213 C1211 1.356 . S
H1214 C1208 0.930 . S
H1215 C1212 0.930 . S
C1216 C1218 1.348 . S
C1216 C1219 1.356 . S
C1216 O1246 1.325 . S
N1217 C1220 1.314 . S
N1217 C1221 1.279 . S
C1218 C1216 1.348 . S
C1218 C1220 1.353 . S
C1218 H1260 0.929 . S
C1219 C1216 1.356 . S
C1219 C1221 1.358 . S
C1219 H1261 0.930 . S
C1220 N1217 1.314 . S
C1220 C1218 1.353 . S
C1220 H1262 0.930 . S
C1221 N1217 1.279 . S
C1221 C1219 1.358 . S
C1221 H1263 0.930 . S
C1222 C1223 1.348 1_655 S
C1222 C1224 1.356 . S
C1222 O1247 1.325 . S
C1223 C1222 1.348 1_455 S
C1223 C1225 1.353 1_455 S
C1223 H1264 0.929 . S
C1224 C1222 1.356 . S
C1224 C1226 1.358 . S
C1224 H1265 0.930 . S
C1225 C1223 1.353 1_655 S
C1225 N1227 1.314 . S
C1225 H1266 0.930 1_655 S
C1226 C1224 1.358 . S
C1226 N1227 1.279 . S
C1226 H1267 0.930 . S
N1227 C1225 1.314 . S
N1227 C1226 1.279 . S
C1228 C1230 1.353 . S
C1228 N1231 1.314 . S
C1228 H1234 0.930 . S
C1229 N1231 1.279 . S
C1229 C1232 1.358 . S
C1229 H1235 0.930 . S
C1230 C1228 1.353 . S
C1230 C1233 1.348 . S
C1230 H1268 0.929 . S
N1231 Li1186 1.990 . S
N1231 C1228 1.314 . S
N1231 C1229 1.279 . S
C1232 C1229 1.358 . S
C1232 C1233 1.356 . S
C1232 H1269 0.930 . S
C1233 C1230 1.348 . S
C1233 C1232 1.356 . S
H1234 C1228 0.930 . S
H1235 C1229 0.930 . S
C1236 N1237 1.314 . S
C1236 C1238 1.353 . S
C1236 H1242 0.930 . S
N1237 Li1187 1.990 . S
N1237 C1236 1.314 . S
N1237 C1240 1.279 . S
C1238 C1236 1.353 . S
C1238 C1241 1.348 . S
C1238 H1270 0.929 . S
C1239 C1240 1.358 . S
C1239 C1241 1.356 . S
C1239 H1271 0.930 . S
C1240 N1237 1.279 . S
C1240 C1239 1.358 . S
C1240 H1243 0.930 . S
C1241 C1238 1.348 . S
C1241 C1239 1.356 . S
H1242 C1236 0.930 . S
H1243 C1240 0.930 . S
O1244 Li1184 1.956 . S
O1244 Li1185 1.970 1_455 S
O1244 Li1186 1.961 . S
O1244 C1188 1.325 . S
O1245 Li1184 1.970 1_655 S
O1245 Li1185 1.956 . S
O1245 Li1187 1.961 . S
O1245 C1194 1.325 . S
O1246 Li1184 1.961 . S
O1246 Li1186 1.956 . S
O1246 Li1187 1.970 1_455 S
O1246 C1216 1.325 . S
O1247 Li1185 1.961 . S
O1247 Li1186 1.970 1_655 S
O1247 Li1187 1.956 . S
O1247 C1222 1.325 . S
H1248 C1190 0.929 . S
H1249 C1191 0.930 . S
H1250 C1192 0.929 . S
H1251 C1193 0.930 . S
H1252 C1195 0.930 . S
H1253 C1197 0.929 . S
H1254 C1198 0.930 . S
H1255 C1199 0.930 . S
H1256 C1202 0.930 . S
H1257 C1205 0.929 . S
H1258 C1210 0.929 . S
H1259 C1211 0.930 . S
H1260 C1218 0.929 . S
H1261 C1219 0.930 . S
H1262 C1220 0.930 . S
H1263 C1221 0.930 . S
H1264 C1223 0.929 . S
H1265 C1224 0.930 . S
H1266 C1225 0.930 1_455 S
H1267 C1226 0.930 . S
H1268 C1230 0.929 . S
H1269 C1232 0.930 . S
H1270 C1238 0.929 . S
H1271 C1239 0.930 . S
Li1272 N1289 1.990 . S
Li1272 O1332 1.956 . S
Li1272 O1333 1.970 . S
Li1272 O1334 1.961 . S
Li1273 N1297 1.990 . S
Li1273 O1332 1.970 . S
Li1273 O1333 1.956 . S
Li1273 O1335 1.961 . S
Li1274 N1319 1.990 . S
Li1274 O1332 1.961 . S
Li1274 O1334 1.956 . S
Li1274 O1335 1.970 . S
Li1275 N1325 1.990 . S
Li1275 O1333 1.961 . S
Li1275 O1334 1.970 . S
Li1275 O1335 1.956 . S
C1276 C1278 1.348 . S
C1276 C1279 1.356 . S
C1276 O1332 1.325 . S
N1277 C1280 1.314 . S
N1277 C1281 1.279 . S
C1278 C1276 1.348 . S
C1278 C1280 1.353 . S
C1278 H1336 0.929 . S
C1279 C1276 1.356 . S
C1279 C1281 1.358 . S
C1279 H1337 0.930 . S
C1280 N1277 1.314 . S
C1280 C1278 1.353 . S
C1280 H1338 0.930 . S
C1281 N1277 1.279 . S
C1281 C1279 1.358 . S
C1281 H1339 0.930 . S
C1282 C1285 1.348 . S
C1282 C1286 1.356 . S
C1282 O1333 1.325 . S
C1283 N1284 1.279 . S
C1283 C1286 1.358 . S
C1283 H1340 0.930 . S
N1284 C1283 1.279 . S
N1284 C1287 1.314 . S
C1285 C1282 1.348 . S
C1285 C1287 1.353 . S
C1285 H1341 0.929 . S
C1286 C1282 1.356 . S
C1286 C1283 1.358 . S
C1286 H1342 0.930 . S
C1287 N1284 1.314 . S
C1287 C1285 1.353 . S
C1287 H1343 0.930 . S
C1288 N1289 1.314 . S
C1288 C1293 1.353 . S
C1288 H1294 0.930 . S
N1289 Li1272 1.990 . S
N1289 C1288 1.314 . S
N1289 C1291 1.279 . S
C1290 C1291 1.358 . S
C1290 C1292 1.356 . S
C1290 H1344 0.930 . S
C1291 N1289 1.279 . S
C1291 C1290 1.358 . S
C1291 H1295 0.930 . S
C1292 C1290 1.356 . S
C1292 C1293 1.348 . S
C1293 C1288 1.353 . S
C1293 C1292 1.348 . S
C1293 H1345 0.929 . S
H1294 C1288 0.930 . S
H1295 C1291 0.930 . S
C1296 N1297 1.314 . S
C1296 C1298 1.353 . S
C1296 H1302 0.930 . S
N1297 Li1273 1.990 . S
N1297 C1296 1.314 . S
N1297 C1300 1.279 . S
C1298 C1296 1.353 . S
C1298 C1301 1.348 . S
C1298 H1346 0.929 . S
C1299 C1300 1.358 . S
C1299 C1301 1.356 . S
C1299 H1347 0.930 . S
C1300 N1297 1.279 . S
C1300 C1299 1.358 . S
C1300 H1303 0.930 . S
C1301 C1298 1.348 . S
C1301 C1299 1.356 . S
H1302 C1296 0.930 . S
H1303 C1300 0.930 . S
C1304 C1306 1.348 . S
C1304 C1307 1.356 . S
C1304 O1334 1.325 . S
N1305 C1308 1.314 . S
N1305 C1309 1.279 . S
C1306 C1304 1.348 . S
C1306 C1308 1.353 . S
C1306 H1348 0.929 . S
C1307 C1304 1.356 . S
C1307 C1309 1.358 . S
C1307 H1349 0.930 . S
C1308 N1305 1.314 . S
C1308 C1306 1.353 . S
C1308 H1350 0.930 . S
C1309 N1305 1.279 . S
C1309 C1307 1.358 . S
C1309 H1351 0.930 . S
C1310 C1311 1.348 . S
C1310 C1312 1.356 . S
C1310 O1335 1.325 . S
C1311 C1310 1.348 . S
C1311 C1313 1.353 . S
C1311 H1352 0.929 . S
C1312 C1310 1.356 . S
C1312 C1314 1.358 . S
C1312 H1353 0.930 . S
C1313 C1311 1.353 . S
C1313 N1315 1.314 . S
C1313 H1354 0.930 . S
C1314 C1312 1.358 . S
C1314 N1315 1.279 . S
C1314 H1355 0.930 . S
N1315 C1313 1.314 . S
N1315 C1314 1.279 . S
C1316 C1318 1.353 . S
C1316 N1319 1.314 . S
C1316 H1322 0.930 . S
C1317 N1319 1.279 . S
C1317 C1320 1.358 . S
C1317 H1323 0.930 . S
C1318 C1316 1.353 . S
C1318 C1321 1.348 . S
C1318 H1356 0.929 . S
N1319 Li1274 1.990 . S
N1319 C1316 1.314 . S
N1319 C1317 1.279 . S
C1320 C1317 1.358 . S
C1320 C1321 1.356 . S
C1320 H1357 0.930 . S
C1321 C1318 1.348 . S
C1321 C1320 1.356 . S
H1322 C1316 0.930 . S
H1323 C1317 0.930 . S
C1324 N1325 1.314 . S
C1324 C1326 1.353 . S
C1324 H1330 0.930 . S
N1325 Li1275 1.990 . S
N1325 C1324 1.314 . S
N1325 C1328 1.279 . S
C1326 C1324 1.353 . S
C1326 C1329 1.348 . S
C1326 H1358 0.929 . S
C1327 C1328 1.358 . S
C1327 C1329 1.356 . S
C1327 H1359 0.930 . S
C1328 N1325 1.279 . S
C1328 C1327 1.358 . S
C1328 H1331 0.930 . S
C1329 C1326 1.348 . S
C1329 C1327 1.356 . S
H1330 C1324 0.930 . S
H1331 C1328 0.930 . S
O1332 Li1272 1.956 . S
O1332 Li1273 1.970 . S
O1332 Li1274 1.961 . S
O1332 C1276 1.325 . S
O1333 Li1272 1.970 . S
O1333 Li1273 1.956 . S
O1333 Li1275 1.961 . S
O1333 C1282 1.325 . S
O1334 Li1272 1.961 . S
O1334 Li1274 1.956 . S
O1334 Li1275 1.970 . S
O1334 C1304 1.325 . S
O1335 Li1273 1.961 . S
O1335 Li1274 1.970 . S
O1335 Li1275 1.956 . S
O1335 C1310 1.325 . S
H1336 C1278 0.929 . S
H1337 C1279 0.930 . S
H1338 C1280 0.930 . S
H1339 C1281 0.930 . S
H1340 C1283 0.930 . S
H1341 C1285 0.929 . S
H1342 C1286 0.930 . S
H1343 C1287 0.930 . S
H1344 C1290 0.930 . S
H1345 C1293 0.929 . S
H1346 C1298 0.929 . S
H1347 C1299 0.930 . S
H1348 C1306 0.929 . S
H1349 C1307 0.930 . S
H1350 C1308 0.930 . S
H1351 C1309 0.930 . S
H1352 C1311 0.929 . S
H1353 C1312 0.930 . S
H1354 C1313 0.930 . S
H1355 C1314 0.930 . S
H1356 C1318 0.929 . S
H1357 C1320 0.930 . S
H1358 C1326 0.929 . S
H1359 C1327 0.930 . S
H1360 C1378 0.951 . S
H1361 C1380 0.951 . S
H1362 C1382 0.950 . S
H1363 C1383 0.950 . S
H1364 C1385 0.950 . S
H1365 C1388 0.950 . S
H1366 C1389 0.950 . S
H1367 C1391 0.950 . S
H1368 C1392 0.950 . S
H1369 C1393 0.951 . S
H1370 C1395 0.951 . S
H1371 C1397 0.950 . S
H1372 C1398 0.950 . S
H1373 C1400 0.950 . S
H1374 C1403 0.950 . S
H1375 C1404 0.950 . S
H1376 C1406 0.950 . S
H1377 C1407 0.950 . S
C1378 H1360 0.951 . S
C1378 C1379 1.366 . S
C1378 C1380 1.388 . S
C1379 C1378 1.366 . S
C1379 C1383 1.385 . S
C1380 H1361 0.951 . S
C1380 C1378 1.388 . S
C1380 C1381 1.366 . S
C1381 C1380 1.366 . S
C1381 C1382 1.414 . S
C1381 C1384 1.499 . S
C1382 H1362 0.950 . S
C1382 C1381 1.414 . S
C1382 C1383 1.374 . S
C1383 H1363 0.950 . S
C1383 C1379 1.385 . S
C1383 C1382 1.374 . S
C1384 C1381 1.499 . S
C1384 C1385 1.373 . S
C1384 C1386 1.389 . S
C1385 H1364 0.950 . S
C1385 C1384 1.373 . S
C1385 C1401 1.377 . S
C1386 C1384 1.389 . S
C1386 C1387 1.524 . S
C1386 C1400 1.377 . S
C1387 C1386 1.524 . S
C1387 C1388 1.397 . S
C1387 C1392 1.363 . S
C1388 H1365 0.950 . S
C1388 C1387 1.397 . S
C1388 C1389 1.334 . S
C1389 H1366 0.950 . S
C1389 C1388 1.334 . S
C1389 C1390 1.287 . S
C1390 C1389 1.287 . S
C1390 C1391 1.524 . S
C1390 H1409 0.913 . S
C1391 H1367 0.950 . S
C1391 C1390 1.524 . S
C1391 C1392 1.415 . S
C1392 H1368 0.950 . S
C1392 C1387 1.363 . S
C1392 C1391 1.415 . S
C1393 H1369 0.951 . S
C1393 C1394 1.366 . S
C1393 C1395 1.388 . S
C1394 C1393 1.366 . S
C1394 C1398 1.385 . S
C1395 H1370 0.951 . S
C1395 C1393 1.388 . S
C1395 C1396 1.366 . S
C1396 C1395 1.366 . S
C1396 C1397 1.414 . S
C1396 C1399 1.499 . S
C1397 H1371 0.950 . S
C1397 C1396 1.414 . S
C1397 C1398 1.374 . S
C1398 H1372 0.950 . S
C1398 C1394 1.385 . S
C1398 C1397 1.374 . S
C1399 C1396 1.499 . S
C1399 C1400 1.373 . S
C1399 C1401 1.389 . S
C1400 H1373 0.950 . S
C1400 C1386 1.377 . S
C1400 C1399 1.373 . S
C1401 C1385 1.377 . S
C1401 C1399 1.389 . S
C1401 C1402 1.524 . S
C1402 C1401 1.524 . S
C1402 C1403 1.397 . S
C1402 C1407 1.363 . S
C1403 H1374 0.950 . S
C1403 C1402 1.397 . S
C1403 C1404 1.334 . S
C1404 H1375 0.950 . S
C1404 C1403 1.334 . S
C1404 C1405 1.287 . S
C1405 C1404 1.287 . S
C1405 C1406 1.524 . S
C1405 H1408 0.999 . S
C1406 H1376 0.950 . S
C1406 C1405 1.524 . S
C1406 C1407 1.415 . S
C1407 H1377 0.950 . S
C1407 C1402 1.363 . S
C1407 C1406 1.415 . S
H1408 C1405 0.999 . S
H1409 C1390 0.913 . S
H1410 C1428 0.951 . S
H1411 C1430 0.951 . S
H1412 C1432 0.950 . S
H1413 C1433 0.946 . S
H1414 C1435 0.950 . S
H1415 C1438 0.950 . S
H1416 C1439 0.950 . S
H1417 C1441 0.950 . S
H1418 C1442 0.950 . S
H1419 C1443 0.951 . S
H1420 C1445 0.951 . S
H1421 C1447 0.950 . S
H1422 C1448 0.950 . S
H1423 C1450 0.950 . S
H1424 C1453 0.950 . S
H1425 C1454 0.950 . S
H1426 C1456 0.950 . S
H1427 C1457 0.950 . S
C1428 H1410 0.951 . S
C1428 C1429 1.366 . S
C1428 C1430 1.388 . S
C1429 C1428 1.366 . S
C1429 C1433 1.386 1_455 S
C1430 H1411 0.951 . S
C1430 C1428 1.388 . S
C1430 C1431 1.366 . S
C1431 C1430 1.366 . S
C1431 C1432 1.414 . S
C1431 C1434 1.499 . S
C1432 H1412 0.950 . S
C1432 C1431 1.414 . S
C1432 C1433 1.376 1_455 S
C1433 H1413 0.946 . S
C1433 C1429 1.386 1_655 S
C1433 C1432 1.376 1_655 S
C1434 C1431 1.499 . S
C1434 C1435 1.373 . S
C1434 C1436 1.389 . S
C1435 H1414 0.950 . S
C1435 C1434 1.373 . S
C1435 C1451 1.377 . S
C1436 C1434 1.389 . S
C1436 C1437 1.524 . S
C1436 C1450 1.377 . S
C1437 C1436 1.524 . S
C1437 C1438 1.397 . S
C1437 C1442 1.363 . S
C1438 H1415 0.950 . S
C1438 C1437 1.397 . S
C1438 C1439 1.334 . S
C1439 H1416 0.950 . S
C1439 C1438 1.334 . S
C1439 C1440 1.287 . S
C1440 C1439 1.287 . S
C1440 C1441 1.524 . S
C1440 H1459 0.913 . S
C1441 H1417 0.950 . S
C1441 C1440 1.524 . S
C1441 C1442 1.415 . S
C1442 H1418 0.950 . S
C1442 C1437 1.363 . S
C1442 C1441 1.415 . S
C1443 H1419 0.951 . S
C1443 C1444 1.366 . S
C1443 C1445 1.388 . S
C1444 C1443 1.366 . S
C1444 C1448 1.385 . S
C1445 H1420 0.951 . S
C1445 C1443 1.388 . S
C1445 C1446 1.366 . S
C1446 C1445 1.366 . S
C1446 C1447 1.414 . S
C1446 C1449 1.499 . S
C1447 H1421 0.950 . S
C1447 C1446 1.414 . S
C1447 C1448 1.374 . S
C1448 H1422 0.950 . S
C1448 C1444 1.385 . S
C1448 C1447 1.374 . S
C1449 C1446 1.499 . S
C1449 C1450 1.373 . S
C1449 C1451 1.389 . S
C1450 H1423 0.950 . S
C1450 C1436 1.377 . S
C1450 C1449 1.373 . S
C1451 C1435 1.377 . S
C1451 C1449 1.389 . S
C1451 C1452 1.524 . S
C1452 C1451 1.524 . S
C1452 C1453 1.397 . S
C1452 C1457 1.363 . S
C1453 H1424 0.950 . S
C1453 C1452 1.397 . S
C1453 C1454 1.334 . S
C1454 H1425 0.950 . S
C1454 C1453 1.334 . S
C1454 C1455 1.287 . S
C1455 C1454 1.287 . S
C1455 C1456 1.524 . S
C1455 H1458 0.999 . S
C1456 H1426 0.950 . S
C1456 C1455 1.524 . S
C1456 C1457 1.415 . S
C1457 H1427 0.950 . S
C1457 C1452 1.363 . S
C1457 C1456 1.415 . S
H1458 C1455 0.999 . S
H1459 C1440 0.913 . S
H1460 C1478 0.951 . S
H1461 C1480 0.951 . S
H1462 C1482 0.950 . S
H1463 C1483 0.950 . S
H1464 C1485 0.950 . S
H1465 C1488 0.950 . S
H1466 C1489 0.950 . S
H1467 C1491 0.950 . S
H1468 C1492 0.950 . S
H1469 C1493 0.951 . S
H1470 C1495 0.951 . S
H1471 C1497 0.950 . S
H1472 C1498 0.950 . S
H1473 C1500 0.950 . S
H1474 C1503 0.950 . S
H1475 C1504 0.950 . S
H1476 C1506 0.950 . S
H1477 C1507 0.950 . S
C1478 H1460 0.951 . S
C1478 C1479 1.366 . S
C1478 C1480 1.388 . S
C1479 C1478 1.366 . S
C1479 C1483 1.385 . S
C1480 H1461 0.951 . S
C1480 C1478 1.388 . S
C1480 C1481 1.366 . S
C1481 C1480 1.366 . S
C1481 C1482 1.414 . S
C1481 C1484 1.499 . S
C1482 H1462 0.950 . S
C1482 C1481 1.414 . S
C1482 C1483 1.374 . S
C1483 H1463 0.950 . S
C1483 C1479 1.385 . S
C1483 C1482 1.374 . S
C1484 C1481 1.499 . S
C1484 C1485 1.373 . S
C1484 C1486 1.389 . S
C1485 H1464 0.950 . S
C1485 C1484 1.373 . S
C1485 C1501 1.377 . S
C1486 C1484 1.389 . S
C1486 C1487 1.524 . S
C1486 C1500 1.377 . S
C1487 C1486 1.524 . S
C1487 C1488 1.397 . S
C1487 C1492 1.363 . S
C1488 H1465 0.950 . S
C1488 C1487 1.397 . S
C1488 C1489 1.334 . S
C1489 H1466 0.950 . S
C1489 C1488 1.334 . S
C1489 C1490 1.287 . S
C1490 C1489 1.287 . S
C1490 C1491 1.524 . S
C1490 H1509 0.913 . S
C1491 H1467 0.950 . S
C1491 C1490 1.524 . S
C1491 C1492 1.415 . S
C1492 H1468 0.950 . S
C1492 C1487 1.363 . S
C1492 C1491 1.415 . S
C1493 H1469 0.951 . S
C1493 C1494 1.366 . S
C1493 C1495 1.388 . S
C1494 C1493 1.366 . S
C1494 C1498 1.385 . S
C1495 H1470 0.951 . S
C1495 C1493 1.388 . S
C1495 C1496 1.366 . S
C1496 C1495 1.366 . S
C1496 C1497 1.414 . S
C1496 C1499 1.499 . S
C1497 H1471 0.950 . S
C1497 C1496 1.414 . S
C1497 C1498 1.374 . S
C1498 H1472 0.950 . S
C1498 C1494 1.385 . S
C1498 C1497 1.374 . S
C1499 C1496 1.499 . S
C1499 C1500 1.373 . S
C1499 C1501 1.389 . S
C1500 H1473 0.950 . S
C1500 C1486 1.377 . S
C1500 C1499 1.373 . S
C1501 C1485 1.377 . S
C1501 C1499 1.389 . S
C1501 C1502 1.524 . S
C1502 C1501 1.524 . S
C1502 C1503 1.397 . S
C1502 C1507 1.363 . S
C1503 H1474 0.950 . S
C1503 C1502 1.397 . S
C1503 C1504 1.334 . S
C1504 H1475 0.950 . S
C1504 C1503 1.334 . S
C1504 C1505 1.287 . S
C1505 C1504 1.287 . S
C1505 C1506 1.524 . S
C1505 H1508 0.999 . S
C1506 H1476 0.950 . S
C1506 C1505 1.524 . S
C1506 C1507 1.415 . S
C1507 H1477 0.950 . S
C1507 C1502 1.363 . S
C1507 C1506 1.415 . S
H1508 C1505 0.999 . S
H1509 C1490 0.913 . S
H1510 C1528 0.951 . S
H1511 C1530 0.951 . S
H1512 C1532 0.950 1_545 S
H1513 C1533 0.950 . S
H1514 C1535 0.950 . S
H1515 C1538 0.950 . S
H1516 C1539 0.950 . S
H1517 C1541 0.950 . S
H1518 C1542 0.950 . S
H1519 C1543 0.951 . S
H1520 C1545 0.951 . S
H1521 C1547 0.950 . S
H1522 C1548 0.950 . S
H1523 C1550 0.950 . S
H1524 C1553 0.950 1_655 S
H1525 C1554 0.950 . S
H1526 C1556 0.950 . S
H1527 C1557 0.950 . S
C1528 H1510 0.951 . S
C1528 C1529 1.366 . S
C1528 C1530 1.388 . S
C1529 C1528 1.366 . S
C1529 C1533 1.385 . S
C1530 H1511 0.951 . S
C1530 C1528 1.388 . S
C1530 C1531 1.366 . S
C1531 C1530 1.366 . S
C1531 C1532 1.414 . S
C1531 C1534 1.499 . S
C1532 H1512 0.950 1_565 S
C1532 C1531 1.414 . S
C1532 C1533 1.374 . S
C1533 H1513 0.950 . S
C1533 C1529 1.385 . S
C1533 C1532 1.374 . S
C1534 C1531 1.499 . S
C1534 C1535 1.373 1_565 S
C1534 C1536 1.389 . S
C1535 H1514 0.950 . S
C1535 C1534 1.373 1_545 S
C1535 C1551 1.377 . S
C1536 C1534 1.389 . S
C1536 C1537 1.524 . S
C1536 C1550 1.377 . S
C1537 C1536 1.524 . S
C1537 C1538 1.397 . S
C1537 C1542 1.363 . S
C1538 H1515 0.950 . S
C1538 C1537 1.397 . S
C1538 C1539 1.334 . S
C1539 H1516 0.950 . S
C1539 C1538 1.334 . S
C1539 C1540 1.287 . S
C1540 C1539 1.287 . S
C1540 C1541 1.524 . S
C1540 H1559 0.913 . S
C1541 H1517 0.950 . S
C1541 C1540 1.524 . S
C1541 C1542 1.415 . S
C1542 H1518 0.950 . S
C1542 C1537 1.363 . S
C1542 C1541 1.415 . S
C1543 H1519 0.951 . S
C1543 C1544 1.366 1_455 S
C1543 C1545 1.388 . S
C1544 C1543 1.366 1_655 S
C1544 C1548 1.385 1_545 S
C1545 H1520 0.951 . S
C1545 C1543 1.388 . S
C1545 C1546 1.366 . S
C1546 C1545 1.366 . S
C1546 C1547 1.414 1_445 S
C1546 C1549 1.499 1_545 S
C1547 H1521 0.950 . S
C1547 C1546 1.414 1_665 S
C1547 C1548 1.374 . S
C1548 H1522 0.950 . S
C1548 C1544 1.385 1_565 S
C1548 C1547 1.374 . S
C1549 C1546 1.499 1_565 S
C1549 C1550 1.373 . S
C1549 C1551 1.389 1_565 S
C1550 H1523 0.950 . S
C1550 C1536 1.377 . S
C1550 C1549 1.373 . S
C1551 C1535 1.377 . S
C1551 C1549 1.389 1_545 S
C1551 C1552 1.524 . S
C1552 C1551 1.524 . S
C1552 C1553 1.397 . S
C1552 C1557 1.363 . S
C1553 H1524 0.950 1_455 S
C1553 C1552 1.397 . S
C1553 C1554 1.334 1_455 S
C1554 H1525 0.950 . S
C1554 C1553 1.334 1_655 S
C1554 C1555 1.287 1_655 S
C1555 C1554 1.287 1_455 S
C1555 C1556 1.524 . S
C1555 H1558 0.999 . S
C1556 H1526 0.950 . S
C1556 C1555 1.524 . S
C1556 C1557 1.415 . S
C1557 H1527 0.950 . S
C1557 C1552 1.363 . S
C1557 C1556 1.415 . S
H1558 C1555 0.999 . S
H1559 C1540 0.913 . S
H1560 C1578 0.951 . S
H1561 C1580 0.951 . S
H1562 C1582 0.950 . S
H1563 C1583 0.950 . S
H1564 C1585 0.950 . S
H1565 C1588 0.950 . S
H1566 C1589 0.950 . S
H1567 C1591 0.950 . S
H1568 C1592 0.950 . S
H1569 C1593 0.951 . S
H1570 C1595 0.951 . S
H1571 C1597 0.950 . S
H1572 C1598 0.950 . S
H1573 C1600 0.950 . S
H1574 C1603 0.950 . S
H1575 C1604 0.950 . S
H1576 C1606 0.950 . S
H1577 C1607 0.950 . S
C1578 H1560 0.951 . S
C1578 C1579 1.366 . S
C1578 C1580 1.388 . S
C1579 C1578 1.366 . S
C1579 C1583 1.385 . S
C1580 H1561 0.951 . S
C1580 C1578 1.388 . S
C1580 C1581 1.366 . S
C1581 C1580 1.366 . S
C1581 C1582 1.414 . S
C1581 C1584 1.499 . S
C1582 H1562 0.950 . S
C1582 C1581 1.414 . S
C1582 C1583 1.374 . S
C1583 H1563 0.950 . S
C1583 C1579 1.385 . S
C1583 C1582 1.374 . S
C1584 C1581 1.499 . S
C1584 C1585 1.373 . S
C1584 C1586 1.389 . S
C1585 H1564 0.950 . S
C1585 C1584 1.373 . S
C1585 C1601 1.377 . S
C1586 C1584 1.389 . S
C1586 C1587 1.524 . S
C1586 C1600 1.377 . S
C1587 C1586 1.524 . S
C1587 C1588 1.397 . S
C1587 C1592 1.363 . S
C1588 H1565 0.950 . S
C1588 C1587 1.397 . S
C1588 C1589 1.334 . S
C1589 H1566 0.950 . S
C1589 C1588 1.334 . S
C1589 C1590 1.287 . S
C1590 C1589 1.287 . S
C1590 C1591 1.524 . S
C1590 H1609 0.913 . S
C1591 H1567 0.950 . S
C1591 C1590 1.524 . S
C1591 C1592 1.415 . S
C1592 H1568 0.950 . S
C1592 C1587 1.363 . S
C1592 C1591 1.415 . S
C1593 H1569 0.951 . S
C1593 C1594 1.366 . S
C1593 C1595 1.388 . S
C1594 C1593 1.366 . S
C1594 C1598 1.385 . S
C1595 H1570 0.951 . S
C1595 C1593 1.388 . S
C1595 C1596 1.366 . S
C1596 C1595 1.366 . S
C1596 C1597 1.414 . S
C1596 C1599 1.499 . S
C1597 H1571 0.950 . S
C1597 C1596 1.414 . S
C1597 C1598 1.374 . S
C1598 H1572 0.950 . S
C1598 C1594 1.385 . S
C1598 C1597 1.374 . S
C1599 C1596 1.499 . S
C1599 C1600 1.373 . S
C1599 C1601 1.389 . S
C1600 H1573 0.950 . S
C1600 C1586 1.377 . S
C1600 C1599 1.373 . S
C1601 C1585 1.377 . S
C1601 C1599 1.389 . S
C1601 C1602 1.524 . S
C1602 C1601 1.524 . S
C1602 C1603 1.397 . S
C1602 C1607 1.363 . S
C1603 H1574 0.950 . S
C1603 C1602 1.397 . S
C1603 C1604 1.334 . S
C1604 H1575 0.950 . S
C1604 C1603 1.334 . S
C1604 C1605 1.287 . S
C1605 C1604 1.287 . S
C1605 C1606 1.524 . S
C1605 H1608 0.999 . S
C1606 H1576 0.950 . S
C1606 C1605 1.524 . S
C1606 C1607 1.415 . S
C1607 H1577 0.950 . S
C1607 C1602 1.363 . S
C1607 C1606 1.415 . S
H1608 C1605 0.999 . S
H1609 C1590 0.913 . S
H1610 C1628 0.951 . S
H1611 C1630 0.951 . S
H1612 C1632 0.950 . S
H1613 C1633 0.950 . S
H1614 C1635 0.950 . S
H1615 C1638 0.950 . S
H1616 C1639 0.950 . S
H1617 C1641 0.950 . S
H1618 C1642 0.950 . S
H1619 C1643 0.951 . S
H1620 C1645 0.951 . S
H1621 C1647 0.950 . S
H1622 C1648 0.950 . S
H1623 C1650 0.950 . S
H1624 C1653 0.950 . S
H1625 C1654 0.950 . S
H1626 C1656 0.950 . S
H1627 C1657 0.950 . S
C1628 H1610 0.951 . S
C1628 C1629 1.366 . S
C1628 C1630 1.388 . S
C1629 C1628 1.366 . S
C1629 C1633 1.385 . S
C1630 H1611 0.951 . S
C1630 C1628 1.388 . S
C1630 C1631 1.366 . S
C1631 C1630 1.366 . S
C1631 C1632 1.414 . S
C1631 C1634 1.499 . S
C1632 H1612 0.950 . S
C1632 C1631 1.414 . S
C1632 C1633 1.374 . S
C1633 H1613 0.950 . S
C1633 C1629 1.385 . S
C1633 C1632 1.374 . S
C1634 C1631 1.499 . S
C1634 C1635 1.373 . S
C1634 C1636 1.389 . S
C1635 H1614 0.950 . S
C1635 C1634 1.373 . S
C1635 C1651 1.377 . S
C1636 C1634 1.389 . S
C1636 C1637 1.524 . S
C1636 C1650 1.377 . S
C1637 C1636 1.524 . S
C1637 C1638 1.397 . S
C1637 C1642 1.363 . S
C1638 H1615 0.950 . S
C1638 C1637 1.397 . S
C1638 C1639 1.334 . S
C1639 H1616 0.950 . S
C1639 C1638 1.334 . S
C1639 C1640 1.287 . S
C1640 C1639 1.287 . S
C1640 C1641 1.524 . S
C1640 H1659 0.913 . S
C1641 H1617 0.950 . S
C1641 C1640 1.524 . S
C1641 C1642 1.415 . S
C1642 H1618 0.950 . S
C1642 C1637 1.363 . S
C1642 C1641 1.415 . S
C1643 H1619 0.951 . S
C1643 C1644 1.366 . S
C1643 C1645 1.388 . S
C1644 C1643 1.366 . S
C1644 C1648 1.385 . S
C1645 H1620 0.951 . S
C1645 C1643 1.388 . S
C1645 C1646 1.366 . S
C1646 C1645 1.366 . S
C1646 C1647 1.414 . S
C1646 C1649 1.499 . S
C1647 H1621 0.950 . S
C1647 C1646 1.414 . S
C1647 C1648 1.374 . S
C1648 H1622 0.950 . S
C1648 C1644 1.385 . S
C1648 C1647 1.374 . S
C1649 C1646 1.499 . S
C1649 C1650 1.373 . S
C1649 C1651 1.389 . S
C1650 H1623 0.950 . S
C1650 C1636 1.377 . S
C1650 C1649 1.373 . S
C1651 C1635 1.377 . S
C1651 C1649 1.389 . S
C1651 C1652 1.524 . S
C1652 C1651 1.524 . S
C1652 C1653 1.397 . S
C1652 C1657 1.363 . S
C1653 H1624 0.950 . S
C1653 C1652 1.397 . S
C1653 C1654 1.334 . S
C1654 H1625 0.950 . S
C1654 C1653 1.334 . S
C1654 C1655 1.287 . S
C1655 C1654 1.287 . S
C1655 C1656 1.524 . S
C1655 H1658 0.999 . S
C1656 H1626 0.950 . S
C1656 C1655 1.524 . S
C1656 C1657 1.415 . S
C1657 H1627 0.950 . S
C1657 C1652 1.363 . S
C1657 C1656 1.415 . S
H1658 C1655 0.999 . S
H1659 C1640 0.913 . S
H1660 C1678 0.951 . S
H1661 C1680 0.951 . S
H1662 C1682 0.950 . S
H1663 C1683 0.950 . S
H1664 C1685 0.950 . S
H1665 C1688 0.950 . S
H1666 C1689 0.950 . S
H1667 C1691 0.950 . S
H1668 C1692 0.950 . S
H1669 C1693 0.951 . S
H1670 C1695 0.951 . S
H1671 C1697 0.950 . S
H1672 C1698 0.950 . S
H1673 C1700 0.950 . S
H1674 C1703 0.950 . S
H1675 C1704 0.950 . S
H1676 C1706 0.950 . S
H1677 C1707 0.950 . S
C1678 H1660 0.951 . S
C1678 C1679 1.366 . S
C1678 C1680 1.388 . S
C1679 C1678 1.366 . S
C1679 C1683 1.385 . S
C1680 H1661 0.951 . S
C1680 C1678 1.388 . S
C1680 C1681 1.366 . S
C1681 C1680 1.366 . S
C1681 C1682 1.414 . S
C1681 C1684 1.499 . S
C1682 H1662 0.950 . S
C1682 C1681 1.414 . S
C1682 C1683 1.374 . S
C1683 H1663 0.950 . S
C1683 C1679 1.385 . S
C1683 C1682 1.374 . S
C1684 C1681 1.499 . S
C1684 C1685 1.373 . S
C1684 C1686 1.389 . S
C1685 H1664 0.950 . S
C1685 C1684 1.373 . S
C1685 C1701 1.377 . S
C1686 C1684 1.389 . S
C1686 C1687 1.524 . S
C1686 C1700 1.377 . S
C1687 C1686 1.524 . S
C1687 C1688 1.397 . S
C1687 C1692 1.363 . S
C1688 H1665 0.950 . S
C1688 C1687 1.397 . S
C1688 C1689 1.334 . S
C1689 H1666 0.950 . S
C1689 C1688 1.334 . S
C1689 C1690 1.287 . S
C1690 C1689 1.287 . S
C1690 C1691 1.524 . S
C1690 H1709 0.913 . S
C1691 H1667 0.950 . S
C1691 C1690 1.524 . S
C1691 C1692 1.415 . S
C1692 H1668 0.950 . S
C1692 C1687 1.363 . S
C1692 C1691 1.415 . S
C1693 H1669 0.951 . S
C1693 C1694 1.366 . S
C1693 C1695 1.388 . S
C1694 C1693 1.366 . S
C1694 C1698 1.385 . S
C1695 H1670 0.951 . S
C1695 C1693 1.388 . S
C1695 C1696 1.366 . S
C1696 C1695 1.366 . S
C1696 C1697 1.414 . S
C1696 C1699 1.499 . S
C1697 H1671 0.950 . S
C1697 C1696 1.414 . S
C1697 C1698 1.374 . S
C1698 H1672 0.950 . S
C1698 C1694 1.385 . S
C1698 C1697 1.374 . S
C1699 C1696 1.499 . S
C1699 C1700 1.373 . S
C1699 C1701 1.389 . S
C1700 H1673 0.950 . S
C1700 C1686 1.377 . S
C1700 C1699 1.373 . S
C1701 C1685 1.377 . S
C1701 C1699 1.389 . S
C1701 C1702 1.524 . S
C1702 C1701 1.524 . S
C1702 C1703 1.397 . S
C1702 C1707 1.363 . S
C1703 H1674 0.950 . S
C1703 C1702 1.397 . S
C1703 C1704 1.334 . S
C1704 H1675 0.950 . S
C1704 C1703 1.334 . S
C1704 C1705 1.287 . S
C1705 C1704 1.287 . S
C1705 C1706 1.524 . S
C1705 H1708 0.999 . S
C1706 H1676 0.950 . S
C1706 C1705 1.524 . S
C1706 C1707 1.415 . S
C1707 H1677 0.950 . S
C1707 C1702 1.363 . S
C1707 C1706 1.415 . S
H1708 C1705 0.999 . S
H1709 C1690 0.913 . S
H1710 C1728 0.951 . S
H1711 C1730 0.951 . S
H1712 C1732 0.950 . S
H1713 C1733 0.950 . S
H1714 C1735 0.950 . S
H1715 C1738 0.950 . S
H1716 C1739 0.950 . S
H1717 C1741 0.950 . S
H1718 C1742 0.950 . S
H1719 C1743 0.951 . S
H1720 C1745 0.951 . S
H1721 C1747 0.950 . S
H1722 C1748 0.950 . S
H1723 C1750 0.950 . S
H1724 C1753 0.950 . S
H1725 C1754 0.950 . S
H1726 C1756 0.950 . S
H1727 C1757 0.950 . S
C1728 H1710 0.951 . S
C1728 C1729 1.366 . S
C1728 C1730 1.388 . S
C1729 C1728 1.366 . S
C1729 C1733 1.385 . S
C1730 H1711 0.951 . S
C1730 C1728 1.388 . S
C1730 C1731 1.366 . S
C1731 C1730 1.366 . S
C1731 C1732 1.414 . S
C1731 C1734 1.499 . S
C1732 H1712 0.950 . S
C1732 C1731 1.414 . S
C1732 C1733 1.374 . S
C1733 H1713 0.950 . S
C1733 C1729 1.385 . S
C1733 C1732 1.374 . S
C1734 C1731 1.499 . S
C1734 C1735 1.373 1_565 S
C1734 C1736 1.389 . S
C1735 H1714 0.950 . S
C1735 C1734 1.373 1_545 S
C1735 C1751 1.377 . S
C1736 C1734 1.389 . S
C1736 C1737 1.524 . S
C1736 C1750 1.377 . S
C1737 C1736 1.524 . S
C1737 C1738 1.397 . S
C1737 C1742 1.363 . S
C1738 H1715 0.950 . S
C1738 C1737 1.397 . S
C1738 C1739 1.334 . S
C1739 H1716 0.950 . S
C1739 C1738 1.334 . S
C1739 C1740 1.287 . S
C1740 C1739 1.287 . S
C1740 C1741 1.524 . S
C1740 H1759 0.913 . S
C1741 H1717 0.950 . S
C1741 C1740 1.524 . S
C1741 C1742 1.415 . S
C1742 H1718 0.950 . S
C1742 C1737 1.363 . S
C1742 C1741 1.415 . S
C1743 H1719 0.951 . S
C1743 C1744 1.366 . S
C1743 C1745 1.388 . S
C1744 C1743 1.366 . S
C1744 C1748 1.385 1_545 S
C1745 H1720 0.951 . S
C1745 C1743 1.388 . S
C1745 C1746 1.366 1_545 S
C1746 C1745 1.366 1_565 S
C1746 C1747 1.414 . S
C1746 C1749 1.499 . S
C1747 H1721 0.950 . S
C1747 C1746 1.414 . S
C1747 C1748 1.374 . S
C1748 H1722 0.950 . S
C1748 C1744 1.385 1_565 S
C1748 C1747 1.374 . S
C1749 C1746 1.499 . S
C1749 C1750 1.373 . S
C1749 C1751 1.389 1_565 S
C1750 H1723 0.950 . S
C1750 C1736 1.377 . S
C1750 C1749 1.373 . S
C1751 C1735 1.377 . S
C1751 C1749 1.389 1_545 S
C1751 C1752 1.524 . S
C1752 C1751 1.524 . S
C1752 C1753 1.397 . S
C1752 C1757 1.363 . S
C1753 H1724 0.950 . S
C1753 C1752 1.397 . S
C1753 C1754 1.334 . S
C1754 H1725 0.950 . S
C1754 C1753 1.334 . S
C1754 C1755 1.287 . S
C1755 C1754 1.287 . S
C1755 C1756 1.524 . S
C1755 H1758 0.999 . S
C1756 H1726 0.950 . S
C1756 C1755 1.524 . S
C1756 C1757 1.415 . S
C1757 H1727 0.950 . S
C1757 C1752 1.363 . S
C1757 C1756 1.415 . S
H1758 C1755 0.999 . S
H1759 C1740 0.913 . S
H1760 C1778 0.951 . S
H1761 C1780 0.951 . S
H1762 C1782 0.950 . S
H1763 C1783 0.950 . S
H1764 C1785 0.950 . S
H1765 C1788 0.950 . S
H1766 C1789 0.950 . S
H1767 C1791 0.950 . S
H1768 C1792 0.950 . S
H1769 C1793 0.951 . S
H1770 C1795 0.951 . S
H1771 C1797 0.950 . S
H1772 C1798 0.950 . S
H1773 C1800 0.950 . S
H1774 C1803 0.950 . S
H1775 C1804 0.950 . S
H1776 C1806 0.950 . S
H1777 C1807 0.950 . S
C1778 H1760 0.951 . S
C1778 C1779 1.366 . S
C1778 C1780 1.388 . S
C1779 C1778 1.366 . S
C1779 C1783 1.385 . S
C1780 H1761 0.951 . S
C1780 C1778 1.388 . S
C1780 C1781 1.366 . S
C1781 C1780 1.366 . S
C1781 C1782 1.414 . S
C1781 C1784 1.499 . S
C1782 H1762 0.950 . S
C1782 C1781 1.414 . S
C1782 C1783 1.374 . S
C1783 H1763 0.950 . S
C1783 C1779 1.385 . S
C1783 C1782 1.374 . S
C1784 C1781 1.499 . S
C1784 C1785 1.373 . S
C1784 C1786 1.389 . S
C1785 H1764 0.950 . S
C1785 C1784 1.373 . S
C1785 C1801 1.377 . S
C1786 C1784 1.389 . S
C1786 C1787 1.524 . S
C1786 C1800 1.377 . S
C1787 C1786 1.524 . S
C1787 C1788 1.397 . S
C1787 C1792 1.363 . S
C1788 H1765 0.950 . S
C1788 C1787 1.397 . S
C1788 C1789 1.334 . S
C1789 H1766 0.950 . S
C1789 C1788 1.334 . S
C1789 C1790 1.287 . S
C1790 C1789 1.287 . S
C1790 C1791 1.524 . S
C1790 H1809 0.913 . S
C1791 H1767 0.950 . S
C1791 C1790 1.524 . S
C1791 C1792 1.415 . S
C1792 H1768 0.950 . S
C1792 C1787 1.363 . S
C1792 C1791 1.415 . S
C1793 H1769 0.951 . S
C1793 C1794 1.366 . S
C1793 C1795 1.388 . S
C1794 C1793 1.366 . S
C1794 C1798 1.385 . S
C1795 H1770 0.951 . S
C1795 C1793 1.388 . S
C1795 C1796 1.366 . S
C1796 C1795 1.366 . S
C1796 C1797 1.414 . S
C1796 C1799 1.499 . S
C1797 H1771 0.950 . S
C1797 C1796 1.414 . S
C1797 C1798 1.374 . S
C1798 H1772 0.950 . S
C1798 C1794 1.385 . S
C1798 C1797 1.374 . S
C1799 C1796 1.499 . S
C1799 C1800 1.373 . S
C1799 C1801 1.389 . S
C1800 H1773 0.950 . S
C1800 C1786 1.377 . S
C1800 C1799 1.373 . S
C1801 C1785 1.377 . S
C1801 C1799 1.389 . S
C1801 C1802 1.524 . S
C1802 C1801 1.524 . S
C1802 C1803 1.397 . S
C1802 C1807 1.363 . S
C1803 H1774 0.950 . S
C1803 C1802 1.397 . S
C1803 C1804 1.334 . S
C1804 H1775 0.950 . S
C1804 C1803 1.334 . S
C1804 C1805 1.287 . S
C1805 C1804 1.287 . S
C1805 C1806 1.524 . S
C1805 H1808 0.999 . S
C1806 H1776 0.950 . S
C1806 C1805 1.524 . S
C1806 C1807 1.415 . S
C1807 H1777 0.950 . S
C1807 C1802 1.363 . S
C1807 C1806 1.415 . S
H1808 C1805 0.999 . S
H1809 C1790 0.913 . S
H1810 C1828 0.951 . S
H1811 C1830 0.951 . S
H1812 C1832 0.950 . S
H1813 C1833 0.950 . S
H1814 C1835 0.950 . S
H1815 C1838 0.950 . S
H1816 C1839 0.950 . S
H1817 C1841 0.950 . S
H1818 C1842 0.950 . S
H1819 C1843 0.951 . S
H1820 C1845 0.951 . S
H1821 C1847 0.950 . S
H1822 C1848 0.950 . S
H1823 C1850 0.950 . S
H1824 C1853 0.950 . S
H1825 C1854 0.950 . S
H1826 C1856 0.950 . S
H1827 C1857 0.950 . S
C1828 H1810 0.951 . S
C1828 C1829 1.366 . S
C1828 C1830 1.388 . S
C1829 C1828 1.366 . S
C1829 C1833 1.385 . S
C1830 H1811 0.951 . S
C1830 C1828 1.388 . S
C1830 C1831 1.366 . S
C1831 C1830 1.366 . S
C1831 C1832 1.414 . S
C1831 C1834 1.499 . S
C1832 H1812 0.950 . S
C1832 C1831 1.414 . S
C1832 C1833 1.374 . S
C1833 H1813 0.950 . S
C1833 C1829 1.385 . S
C1833 C1832 1.374 . S
C1834 C1831 1.499 . S
C1834 C1835 1.373 . S
C1834 C1836 1.389 . S
C1835 H1814 0.950 . S
C1835 C1834 1.373 . S
C1835 C1851 1.377 . S
C1836 C1834 1.389 . S
C1836 C1837 1.524 . S
C1836 C1850 1.377 . S
C1837 C1836 1.524 . S
C1837 C1838 1.397 . S
C1837 C1842 1.363 . S
C1838 H1815 0.950 . S
C1838 C1837 1.397 . S
C1838 C1839 1.334 . S
C1839 H1816 0.950 . S
C1839 C1838 1.334 . S
C1839 C1840 1.287 . S
C1840 C1839 1.287 . S
C1840 C1841 1.524 . S
C1840 H1859 0.913 . S
C1841 H1817 0.950 . S
C1841 C1840 1.524 . S
C1841 C1842 1.415 . S
C1842 H1818 0.950 . S
C1842 C1837 1.363 . S
C1842 C1841 1.415 . S
C1843 H1819 0.951 . S
C1843 C1844 1.366 . S
C1843 C1845 1.388 . S
C1844 C1843 1.366 . S
C1844 C1848 1.385 . S
C1845 H1820 0.951 . S
C1845 C1843 1.388 . S
C1845 C1846 1.366 . S
C1846 C1845 1.366 . S
C1846 C1847 1.414 . S
C1846 C1849 1.499 . S
C1847 H1821 0.950 . S
C1847 C1846 1.414 . S
C1847 C1848 1.374 . S
C1848 H1822 0.950 . S
C1848 C1844 1.385 . S
C1848 C1847 1.374 . S
C1849 C1846 1.499 . S
C1849 C1850 1.373 . S
C1849 C1851 1.389 . S
C1850 H1823 0.950 . S
C1850 C1836 1.377 . S
C1850 C1849 1.373 . S
C1851 C1835 1.377 . S
C1851 C1849 1.389 . S
C1851 C1852 1.524 . S
C1852 C1851 1.524 . S
C1852 C1853 1.397 . S
C1852 C1857 1.363 . S
C1853 H1824 0.950 . S
C1853 C1852 1.397 . S
C1853 C1854 1.334 . S
C1854 H1825 0.950 . S
C1854 C1853 1.334 . S
C1854 C1855 1.287 . S
C1855 C1854 1.287 . S
C1855 C1856 1.524 . S
C1855 H1858 0.999 . S
C1856 H1826 0.950 . S
C1856 C1855 1.524 . S
C1856 C1857 1.415 . S
C1857 H1827 0.950 . S
C1857 C1852 1.363 . S
C1857 C1856 1.415 . S
H1858 C1855 0.999 . S
H1859 C1840 0.913 . S
H1860 C1878 0.951 . S
H1861 C1880 0.951 . S
H1862 C1882 0.950 . S
H1863 C1883 0.950 . S
H1864 C1885 0.950 . S
H1865 C1888 0.950 . S
H1866 C1889 0.950 . S
H1867 C1891 0.950 . S
H1868 C1892 0.950 . S
H1869 C1893 0.951 . S
H1870 C1895 0.951 . S
H1871 C1897 0.950 . S
H1872 C1898 0.950 . S
H1873 C1900 0.950 . S
H1874 C1903 0.950 . S
H1875 C1904 0.950 . S
H1876 C1906 0.950 . S
H1877 C1907 0.950 . S
C1878 H1860 0.951 . S
C1878 C1879 1.366 . S
C1878 C1880 1.388 . S
C1879 C1878 1.366 . S
C1879 C1883 1.385 . S
C1880 H1861 0.951 . S
C1880 C1878 1.388 . S
C1880 C1881 1.366 . S
C1881 C1880 1.366 . S
C1881 C1882 1.414 . S
C1881 C1884 1.499 . S
C1882 H1862 0.950 . S
C1882 C1881 1.414 . S
C1882 C1883 1.374 . S
C1883 H1863 0.950 . S
C1883 C1879 1.385 . S
C1883 C1882 1.374 . S
C1884 C1881 1.499 . S
C1884 C1885 1.373 . S
C1884 C1886 1.389 . S
C1885 H1864 0.950 . S
C1885 C1884 1.373 . S
C1885 C1901 1.377 . S
C1886 C1884 1.389 . S
C1886 C1887 1.524 . S
C1886 C1900 1.377 . S
C1887 C1886 1.524 . S
C1887 C1888 1.397 . S
C1887 C1892 1.363 . S
C1888 H1865 0.950 . S
C1888 C1887 1.397 . S
C1888 C1889 1.334 . S
C1889 H1866 0.950 . S
C1889 C1888 1.334 . S
C1889 C1890 1.287 . S
C1890 C1889 1.287 . S
C1890 C1891 1.524 . S
C1890 H1909 0.913 . S
C1891 H1867 0.950 . S
C1891 C1890 1.524 . S
C1891 C1892 1.415 . S
C1892 H1868 0.950 . S
C1892 C1887 1.363 . S
C1892 C1891 1.415 . S
C1893 H1869 0.951 . S
C1893 C1894 1.366 . S
C1893 C1895 1.388 . S
C1894 C1893 1.366 . S
C1894 C1898 1.385 . S
C1895 H1870 0.951 . S
C1895 C1893 1.388 . S
C1895 C1896 1.366 . S
C1896 C1895 1.366 . S
C1896 C1897 1.414 . S
C1896 C1899 1.499 . S
C1897 H1871 0.950 . S
C1897 C1896 1.414 . S
C1897 C1898 1.374 . S
C1898 H1872 0.950 . S
C1898 C1894 1.385 . S
C1898 C1897 1.374 . S
C1899 C1896 1.499 . S
C1899 C1900 1.373 . S
C1899 C1901 1.389 . S
C1900 H1873 0.950 . S
C1900 C1886 1.377 . S
C1900 C1899 1.373 . S
C1901 C1885 1.377 . S
C1901 C1899 1.389 . S
C1901 C1902 1.524 . S
C1902 C1901 1.524 . S
C1902 C1903 1.397 . S
C1902 C1907 1.363 . S
C1903 H1874 0.950 . S
C1903 C1902 1.397 . S
C1903 C1904 1.334 . S
C1904 H1875 0.950 . S
C1904 C1903 1.334 . S
C1904 C1905 1.287 . S
C1905 C1904 1.287 . S
C1905 C1906 1.524 . S
C1905 H1908 0.999 . S
C1906 H1876 0.950 . S
C1906 C1905 1.524 . S
C1906 C1907 1.415 . S
C1907 H1877 0.950 . S
C1907 C1902 1.363 . S
C1907 C1906 1.415 . S
H1908 C1905 0.999 . S
H1909 C1890 0.913 . S
H1910 C1928 0.951 . S
H1911 C1930 0.951 . S
H1912 C1932 0.950 . S
H1913 C1933 0.950 . S
H1914 C1935 0.950 . S
H1915 C1938 0.950 . S
H1916 C1939 0.950 . S
H1917 C1941 0.950 . S
H1918 C1942 0.950 . S
H1919 C1943 0.951 . S
H1920 C1945 0.951 . S
H1921 C1947 0.950 . S
H1922 C1948 0.950 . S
H1923 C1950 0.950 . S
H1924 C1953 0.950 . S
H1925 C1954 0.950 . S
H1926 C1956 0.950 . S
H1927 C1957 0.950 . S
C1928 H1910 0.951 . S
C1928 C1929 1.366 . S
C1928 C1930 1.388 . S
C1929 C1928 1.366 . S
C1929 C1933 1.385 . S
C1930 H1911 0.951 . S
C1930 C1928 1.388 . S
C1930 C1931 1.366 . S
C1931 C1930 1.366 . S
C1931 C1932 1.414 . S
C1931 C1934 1.499 . S
C1932 H1912 0.950 . S
C1932 C1931 1.414 . S
C1932 C1933 1.374 . S
C1933 H1913 0.950 . S
C1933 C1929 1.385 . S
C1933 C1932 1.374 . S
C1934 C1931 1.499 . S
C1934 C1935 1.373 . S
C1934 C1936 1.389 . S
C1935 H1914 0.950 . S
C1935 C1934 1.373 . S
C1935 C1951 1.377 . S
C1936 C1934 1.389 . S
C1936 C1937 1.524 . S
C1936 C1950 1.377 . S
C1937 C1936 1.524 . S
C1937 C1938 1.397 . S
C1937 C1942 1.363 . S
C1938 H1915 0.950 . S
C1938 C1937 1.397 . S
C1938 C1939 1.334 . S
C1939 H1916 0.950 . S
C1939 C1938 1.334 . S
C1939 C1940 1.287 . S
C1940 C1939 1.287 . S
C1940 C1941 1.524 . S
C1940 H1959 0.913 . S
C1941 H1917 0.950 . S
C1941 C1940 1.524 . S
C1941 C1942 1.415 . S
C1942 H1918 0.950 . S
C1942 C1937 1.363 . S
C1942 C1941 1.415 . S
C1943 H1919 0.951 . S
C1943 C1944 1.366 . S
C1943 C1945 1.388 . S
C1944 C1943 1.366 . S
C1944 C1948 1.385 . S
C1945 H1920 0.951 . S
C1945 C1943 1.388 . S
C1945 C1946 1.366 . S
C1946 C1945 1.366 . S
C1946 C1947 1.414 . S
C1946 C1949 1.499 . S
C1947 H1921 0.950 . S
C1947 C1946 1.414 . S
C1947 C1948 1.374 . S
C1948 H1922 0.950 . S
C1948 C1944 1.385 . S
C1948 C1947 1.374 . S
C1949 C1946 1.499 . S
C1949 C1950 1.373 . S
C1949 C1951 1.389 . S
C1950 H1923 0.950 . S
C1950 C1936 1.377 . S
C1950 C1949 1.373 . S
C1951 C1935 1.377 . S
C1951 C1949 1.389 . S
C1951 C1952 1.524 . S
C1952 C1951 1.524 . S
C1952 C1953 1.397 . S
C1952 C1957 1.363 . S
C1953 H1924 0.950 . S
C1953 C1952 1.397 . S
C1953 C1954 1.334 . S
C1954 H1925 0.950 . S
C1954 C1953 1.334 . S
C1954 C1955 1.287 . S
C1955 C1954 1.287 . S
C1955 C1956 1.524 . S
C1955 H1958 0.999 . S
C1956 H1926 0.950 . S
C1956 C1955 1.524 . S
C1956 C1957 1.415 . S
C1957 H1927 0.950 . S
C1957 C1952 1.363 . S
C1957 C1956 1.415 . S
H1958 C1955 0.999 . S
H1959 C1940 0.913 . S
H1960 C1978 0.951 . S
H1961 C1980 0.951 . S
H1962 C1982 0.950 . S
H1963 C1983 0.950 . S
H1964 C1985 0.950 . S
H1965 C1988 0.950 . S
H1966 C1989 0.950 . S
H1967 C1991 0.950 . S
H1968 C1992 0.950 . S
H1969 C1993 0.951 . S
H1970 C1995 0.951 . S
H1971 C1997 0.950 . S
H1972 C1998 0.950 . S
H1973 C2000 0.950 . S
H1974 C2003 0.950 . S
H1975 C2004 0.950 . S
H1976 C2006 0.950 . S
H1977 C2007 0.950 . S
C1978 H1960 0.951 . S
C1978 C1979 1.366 . S
C1978 C1980 1.388 . S
C1979 C1978 1.366 . S
C1979 C1983 1.385 . S
C1980 H1961 0.951 . S
C1980 C1978 1.388 . S
C1980 C1981 1.366 . S
C1981 C1980 1.366 . S
C1981 C1982 1.414 . S
C1981 C1984 1.499 . S
C1982 H1962 0.950 . S
C1982 C1981 1.414 . S
C1982 C1983 1.374 . S
C1983 H1963 0.950 . S
C1983 C1979 1.385 . S
C1983 C1982 1.374 . S
C1984 C1981 1.499 . S
C1984 C1985 1.373 . S
C1984 C1986 1.389 . S
C1985 H1964 0.950 . S
C1985 C1984 1.373 . S
C1985 C2001 1.377 . S
C1986 C1984 1.389 . S
C1986 C1987 1.524 . S
C1986 C2000 1.377 . S
C1987 C1986 1.524 . S
C1987 C1988 1.397 . S
C1987 C1992 1.363 . S
C1988 H1965 0.950 . S
C1988 C1987 1.397 . S
C1988 C1989 1.334 . S
C1989 H1966 0.950 . S
C1989 C1988 1.334 . S
C1989 C1990 1.287 . S
C1990 C1989 1.287 . S
C1990 C1991 1.524 . S
C1990 H2009 0.913 . S
C1991 H1967 0.950 . S
C1991 C1990 1.524 . S
C1991 C1992 1.415 . S
C1992 H1968 0.950 . S
C1992 C1987 1.363 . S
C1992 C1991 1.415 . S
C1993 H1969 0.951 . S
C1993 C1994 1.366 . S
C1993 C1995 1.388 . S
C1994 C1993 1.366 . S
C1994 C1998 1.385 . S
C1995 H1970 0.951 . S
C1995 C1993 1.388 . S
C1995 C1996 1.366 . S
C1996 C1995 1.366 . S
C1996 C1997 1.414 . S
C1996 C1999 1.499 . S
C1997 H1971 0.950 . S
C1997 C1996 1.414 . S
C1997 C1998 1.374 . S
C1998 H1972 0.950 . S
C1998 C1994 1.385 . S
C1998 C1997 1.374 . S
C1999 C1996 1.499 . S
C1999 C2000 1.373 . S
C1999 C2001 1.389 . S
C2000 H1973 0.950 . S
C2000 C1986 1.377 . S
C2000 C1999 1.373 . S
C2001 C1985 1.377 . S
C2001 C1999 1.389 . S
C2001 C2002 1.524 . S
C2002 C2001 1.524 . S
C2002 C2003 1.397 . S
C2002 C2007 1.363 . S
C2003 H1974 0.950 . S
C2003 C2002 1.397 . S
C2003 C2004 1.334 . S
C2004 H1975 0.950 . S
C2004 C2003 1.334 . S
C2004 C2005 1.287 . S
C2005 C2004 1.287 . S
C2005 C2006 1.524 . S
C2005 H2008 0.999 . S
C2006 H1976 0.950 . S
C2006 C2005 1.524 . S
C2006 C2007 1.415 . S
C2007 H1977 0.950 . S
C2007 C2002 1.363 . S
C2007 C2006 1.415 . S
H2008 C2005 0.999 . S
H2009 C1990 0.913 . S
H2010 C2028 0.951 . S
H2011 C2030 0.951 . S
H2012 C2032 0.950 . S
H2013 C2033 0.950 . S
H2014 C2035 0.950 . S
H2015 C2038 0.950 . S
H2016 C2039 0.950 . S
H2017 C2041 0.950 . S
H2018 C2042 0.950 . S
H2019 C2043 0.951 . S
H2020 C2045 0.951 . S
H2021 C2047 0.950 . S
H2022 C2048 0.950 . S
H2023 C2050 0.950 . S
H2024 C2053 0.950 . S
H2025 C2054 0.950 . S
H2026 C2056 0.950 . S
H2027 C2057 0.950 . S
C2028 H2010 0.951 . S
C2028 C2029 1.366 . S
C2028 C2030 1.388 . S
C2029 C2028 1.366 . S
C2029 C2033 1.385 . S
C2030 H2011 0.951 . S
C2030 C2028 1.388 . S
C2030 C2031 1.366 . S
C2031 C2030 1.366 . S
C2031 C2032 1.414 . S
C2031 C2034 1.499 . S
C2032 H2012 0.950 . S
C2032 C2031 1.414 . S
C2032 C2033 1.374 . S
C2033 H2013 0.950 . S
C2033 C2029 1.385 . S
C2033 C2032 1.374 . S
C2034 C2031 1.499 . S
C2034 C2035 1.373 . S
C2034 C2036 1.389 . S
C2035 H2014 0.950 . S
C2035 C2034 1.373 . S
C2035 C2051 1.377 . S
C2036 C2034 1.389 . S
C2036 C2037 1.524 . S
C2036 C2050 1.377 . S
C2037 C2036 1.524 . S
C2037 C2038 1.397 . S
C2037 C2042 1.363 . S
C2038 H2015 0.950 . S
C2038 C2037 1.397 . S
C2038 C2039 1.334 . S
C2039 H2016 0.950 . S
C2039 C2038 1.334 . S
C2039 C2040 1.287 . S
C2040 C2039 1.287 . S
C2040 C2041 1.524 1_455 S
C2040 H2059 0.913 . S
C2041 H2017 0.950 . S
C2041 C2040 1.524 1_655 S
C2041 C2042 1.415 1_655 S
C2042 H2018 0.950 . S
C2042 C2037 1.363 . S
C2042 C2041 1.415 1_455 S
C2043 H2019 0.951 . S
C2043 C2044 1.366 . S
C2043 C2045 1.388 . S
C2044 C2043 1.366 . S
C2044 C2048 1.385 . S
C2045 H2020 0.951 . S
C2045 C2043 1.388 . S
C2045 C2046 1.366 . S
C2046 C2045 1.366 . S
C2046 C2047 1.414 . S
C2046 C2049 1.499 . S
C2047 H2021 0.950 . S
C2047 C2046 1.414 . S
C2047 C2048 1.374 . S
C2048 H2022 0.950 . S
C2048 C2044 1.385 . S
C2048 C2047 1.374 . S
C2049 C2046 1.499 . S
C2049 C2050 1.373 . S
C2049 C2051 1.389 . S
C2050 H2023 0.950 . S
C2050 C2036 1.377 . S
C2050 C2049 1.373 . S
C2051 C2035 1.377 . S
C2051 C2049 1.389 . S
C2051 C2052 1.524 . S
C2052 C2051 1.524 . S
C2052 C2053 1.397 . S
C2052 C2057 1.363 . S
C2053 H2024 0.950 . S
C2053 C2052 1.397 . S
C2053 C2054 1.334 . S
C2054 H2025 0.950 . S
C2054 C2053 1.334 . S
C2054 C2055 1.287 . S
C2055 C2054 1.287 . S
C2055 C2056 1.524 . S
C2055 H2058 0.999 . S
C2056 H2026 0.950 . S
C2056 C2055 1.524 . S
C2056 C2057 1.415 . S
C2057 H2027 0.950 . S
C2057 C2052 1.363 . S
C2057 C2056 1.415 . S
H2058 C2055 0.999 . S
H2059 C2040 0.913 . S
H2060 C2078 0.951 . S
H2061 C2080 0.951 . S
H2062 C2082 0.950 . S
H2063 C2083 0.950 . S
H2064 C2085 0.950 . S
H2065 C2088 0.950 . S
H2066 C2089 0.950 . S
H2067 C2091 0.950 . S
H2068 C2092 0.950 . S
H2069 C2093 0.951 . S
H2070 C2095 0.951 . S
H2071 C2097 0.950 . S
H2072 C2098 0.950 . S
H2073 C2100 0.950 . S
H2074 C2103 0.950 . S
H2075 C2104 0.950 . S
H2076 C2106 0.950 . S
H2077 C2107 0.950 . S
C2078 H2060 0.951 . S
C2078 C2079 1.366 . S
C2078 C2080 1.388 . S
C2079 C2078 1.366 . S
C2079 C2083 1.385 . S
C2080 H2061 0.951 . S
C2080 C2078 1.388 . S
C2080 C2081 1.366 . S
C2081 C2080 1.366 . S
C2081 C2082 1.414 . S
C2081 C2084 1.499 . S
C2082 H2062 0.950 . S
C2082 C2081 1.414 . S
C2082 C2083 1.374 . S
C2083 H2063 0.950 . S
C2083 C2079 1.385 . S
C2083 C2082 1.374 . S
C2084 C2081 1.499 . S
C2084 C2085 1.373 . S
C2084 C2086 1.389 . S
C2085 H2064 0.950 . S
C2085 C2084 1.373 . S
C2085 C2101 1.377 . S
C2086 C2084 1.389 . S
C2086 C2087 1.524 . S
C2086 C2100 1.377 . S
C2087 C2086 1.524 . S
C2087 C2088 1.397 . S
C2087 C2092 1.363 . S
C2088 H2065 0.950 . S
C2088 C2087 1.397 . S
C2088 C2089 1.334 . S
C2089 H2066 0.950 . S
C2089 C2088 1.334 . S
C2089 C2090 1.287 . S
C2090 C2089 1.287 . S
C2090 C2091 1.524 . S
C2090 H2109 0.913 . S
C2091 H2067 0.950 . S
C2091 C2090 1.524 . S
C2091 C2092 1.415 . S
C2092 H2068 0.950 . S
C2092 C2087 1.363 . S
C2092 C2091 1.415 . S
C2093 H2069 0.951 . S
C2093 C2094 1.366 . S
C2093 C2095 1.388 . S
C2094 C2093 1.366 . S
C2094 C2098 1.385 . S
C2095 H2070 0.951 . S
C2095 C2093 1.388 . S
C2095 C2096 1.366 . S
C2096 C2095 1.366 . S
C2096 C2097 1.414 . S
C2096 C2099 1.499 . S
C2097 H2071 0.950 . S
C2097 C2096 1.414 . S
C2097 C2098 1.374 . S
C2098 H2072 0.950 . S
C2098 C2094 1.385 . S
C2098 C2097 1.374 . S
C2099 C2096 1.499 . S
C2099 C2100 1.373 . S
C2099 C2101 1.389 . S
C2100 H2073 0.950 . S
C2100 C2086 1.377 . S
C2100 C2099 1.373 . S
C2101 C2085 1.377 . S
C2101 C2099 1.389 . S
C2101 C2102 1.524 . S
C2102 C2101 1.524 . S
C2102 C2103 1.397 . S
C2102 C2107 1.363 . S
C2103 H2074 0.950 . S
C2103 C2102 1.397 . S
C2103 C2104 1.334 . S
C2104 H2075 0.950 . S
C2104 C2103 1.334 . S
C2104 C2105 1.287 . S
C2105 C2104 1.287 . S
C2105 C2106 1.524 . S
C2105 H2108 0.999 . S
C2106 H2076 0.950 . S
C2106 C2105 1.524 . S
C2106 C2107 1.415 . S
C2107 H2077 0.950 . S
C2107 C2102 1.363 . S
C2107 C2106 1.415 . S
H2108 C2105 0.999 . S
H2109 C2090 0.913 . S
H2110 C2128 0.951 . S
H2111 C2130 0.951 . S
H2112 C2132 0.950 . S
H2113 C2133 0.950 . S
H2114 C2135 0.950 . S
H2115 C2138 0.950 . S
H2116 C2139 0.950 . S
H2117 C2141 0.950 . S
H2118 C2142 0.968 . S
H2119 C2143 0.951 . S
H2120 C2145 0.951 . S
H2121 C2147 0.950 . S
H2122 C2148 0.950 . S
H2123 C2150 0.950 . S
H2124 C2153 0.950 . S
H2125 C2154 0.950 . S
H2126 C2156 0.950 . S
H2127 C2157 0.950 . S
C2128 H2110 0.951 . S
C2128 C2129 1.366 . S
C2128 C2130 1.388 . S
C2129 C2128 1.366 . S
C2129 C2133 1.385 . S
C2130 H2111 0.951 . S
C2130 C2128 1.388 . S
C2130 C2131 1.366 . S
C2131 C2130 1.366 . S
C2131 C2132 1.414 . S
C2131 C2134 1.499 . S
C2132 H2112 0.950 . S
C2132 C2131 1.414 . S
C2132 C2133 1.374 . S
C2133 H2113 0.950 . S
C2133 C2129 1.385 . S
C2133 C2132 1.374 . S
C2134 C2131 1.499 . S
C2134 C2135 1.373 . S
C2134 C2136 1.389 . S
C2135 H2114 0.950 . S
C2135 C2134 1.373 . S
C2135 C2151 1.377 . S
C2136 C2134 1.389 . S
C2136 C2137 1.525 1_655 S
C2136 C2150 1.377 . S
C2137 C2136 1.525 1_455 S
C2137 C2138 1.396 . S
C2137 C2142 1.361 1_455 S
C2138 H2115 0.950 . S
C2138 C2137 1.396 . S
C2138 C2139 1.334 . S
C2139 H2116 0.950 . S
C2139 C2138 1.334 . S
C2139 C2140 1.287 . S
C2140 C2139 1.287 . S
C2140 C2141 1.524 . S
C2140 H2159 0.913 . S
C2141 H2117 0.950 . S
C2141 C2140 1.524 . S
C2141 C2142 1.400 1_455 S
C2142 H2118 0.968 . S
C2142 C2137 1.361 1_655 S
C2142 C2141 1.400 1_655 S
C2143 H2119 0.951 . S
C2143 C2144 1.366 . S
C2143 C2145 1.388 . S
C2144 C2143 1.366 . S
C2144 C2148 1.385 . S
C2145 H2120 0.951 . S
C2145 C2143 1.388 . S
C2145 C2146 1.366 . S
C2146 C2145 1.366 . S
C2146 C2147 1.414 . S
C2146 C2149 1.499 . S
C2147 H2121 0.950 . S
C2147 C2146 1.414 . S
C2147 C2148 1.374 . S
C2148 H2122 0.950 . S
C2148 C2144 1.385 . S
C2148 C2147 1.374 . S
C2149 C2146 1.499 . S
C2149 C2150 1.373 . S
C2149 C2151 1.389 . S
C2150 H2123 0.950 . S
C2150 C2136 1.377 . S
C2150 C2149 1.373 . S
C2151 C2135 1.377 . S
C2151 C2149 1.389 . S
C2151 C2152 1.524 . S
C2152 C2151 1.524 . S
C2152 C2153 1.397 . S
C2152 C2157 1.363 . S
C2153 H2124 0.950 . S
C2153 C2152 1.397 . S
C2153 C2154 1.334 . S
C2154 H2125 0.950 . S
C2154 C2153 1.334 . S
C2154 C2155 1.287 . S
C2155 C2154 1.287 . S
C2155 C2156 1.524 . S
C2155 H2158 0.999 . S
C2156 H2126 0.950 . S
C2156 C2155 1.524 . S
C2156 C2157 1.415 . S
C2157 H2127 0.950 . S
C2157 C2152 1.363 . S
C2157 C2156 1.415 . S
H2158 C2155 0.999 . S
H2159 C2140 0.913 . S
H2160 C2178 0.951 . S
H2161 C2180 0.951 . S
H2162 C2182 0.950 . S
H2163 C2183 0.950 . S
H2164 C2185 0.950 . S
H2165 C2188 0.950 . S
H2166 C2189 0.950 . S
H2167 C2191 0.950 . S
H2168 C2192 0.950 . S
H2169 C2193 0.951 . S
H2170 C2195 0.951 . S
H2171 C2197 0.950 . S
H2172 C2198 0.950 . S
H2173 C2200 0.950 . S
H2174 C2203 0.950 . S
H2175 C2204 0.950 . S
H2176 C2206 0.950 . S
H2177 C2207 0.950 . S
C2178 H2160 0.951 . S
C2178 C2179 1.366 . S
C2178 C2180 1.388 . S
C2179 C2178 1.366 . S
C2179 C2183 1.385 . S
C2180 H2161 0.951 . S
C2180 C2178 1.388 . S
C2180 C2181 1.366 . S
C2181 C2180 1.366 . S
C2181 C2182 1.414 . S
C2181 C2184 1.499 . S
C2182 H2162 0.950 . S
C2182 C2181 1.414 . S
C2182 C2183 1.374 . S
C2183 H2163 0.950 . S
C2183 C2179 1.385 . S
C2183 C2182 1.374 . S
C2184 C2181 1.499 . S
C2184 C2185 1.373 . S
C2184 C2186 1.389 . S
C2185 H2164 0.950 . S
C2185 C2184 1.373 . S
C2185 C2201 1.377 . S
C2186 C2184 1.389 . S
C2186 C2187 1.524 . S
C2186 C2200 1.377 . S
C2187 C2186 1.524 . S
C2187 C2188 1.397 . S
C2187 C2192 1.363 . S
C2188 H2165 0.950 . S
C2188 C2187 1.397 . S
C2188 C2189 1.334 . S
C2189 H2166 0.950 . S
C2189 C2188 1.334 . S
C2189 C2190 1.287 . S
C2190 C2189 1.287 . S
C2190 C2191 1.524 . S
C2190 H2209 0.913 . S
C2191 H2167 0.950 . S
C2191 C2190 1.524 . S
C2191 C2192 1.415 . S
C2192 H2168 0.950 . S
C2192 C2187 1.363 . S
C2192 C2191 1.415 . S
C2193 H2169 0.951 . S
C2193 C2194 1.366 . S
C2193 C2195 1.388 . S
C2194 C2193 1.366 . S
C2194 C2198 1.385 . S
C2195 H2170 0.951 . S
C2195 C2193 1.388 . S
C2195 C2196 1.366 . S
C2196 C2195 1.366 . S
C2196 C2197 1.414 . S
C2196 C2199 1.499 . S
C2197 H2171 0.950 . S
C2197 C2196 1.414 . S
C2197 C2198 1.374 . S
C2198 H2172 0.950 . S
C2198 C2194 1.385 . S
C2198 C2197 1.374 . S
C2199 C2196 1.499 . S
C2199 C2200 1.373 . S
C2199 C2201 1.389 . S
C2200 H2173 0.950 . S
C2200 C2186 1.377 . S
C2200 C2199 1.373 . S
C2201 C2185 1.377 . S
C2201 C2199 1.389 . S
C2201 C2202 1.524 . S
C2202 C2201 1.524 . S
C2202 C2203 1.397 . S
C2202 C2207 1.363 . S
C2203 H2174 0.950 . S
C2203 C2202 1.397 . S
C2203 C2204 1.334 . S
C2204 H2175 0.950 . S
C2204 C2203 1.334 . S
C2204 C2205 1.287 . S
C2205 C2204 1.287 . S
C2205 C2206 1.524 . S
C2205 H2208 0.999 . S
C2206 H2176 0.950 . S
C2206 C2205 1.524 . S
C2206 C2207 1.415 . S
C2207 H2177 0.950 . S
C2207 C2202 1.363 . S
C2207 C2206 1.415 . S
H2208 C2205 0.999 . S
H2209 C2190 0.913 . S
H2210 C2228 0.951 . S
H2211 C2230 0.951 . S
H2212 C2232 0.950 . S
H2213 C2233 0.950 . S
H2214 C2235 0.950 . S
H2215 C2238 0.950 . S
H2216 C2239 0.950 . S
H2217 C2241 0.950 . S
H2218 C2242 0.950 . S
H2219 C2243 0.951 . S
H2220 C2245 0.951 . S
H2221 C2247 0.950 . S
H2222 C2248 0.950 . S
H2223 C2250 0.950 . S
H2224 C2253 0.950 . S
H2225 C2254 0.950 . S
H2226 C2256 0.950 . S
H2227 C2257 0.950 . S
C2228 H2210 0.951 . S
C2228 C2229 1.366 . S
C2228 C2230 1.388 . S
C2229 C2228 1.366 . S
C2229 C2233 1.385 . S
C2230 H2211 0.951 . S
C2230 C2228 1.388 . S
C2230 C2231 1.366 . S
C2231 C2230 1.366 . S
C2231 C2232 1.414 . S
C2231 C2234 1.499 . S
C2232 H2212 0.950 . S
C2232 C2231 1.414 . S
C2232 C2233 1.374 . S
C2233 H2213 0.950 . S
C2233 C2229 1.385 . S
C2233 C2232 1.374 . S
C2234 C2231 1.499 . S
C2234 C2235 1.373 . S
C2234 C2236 1.389 . S
C2235 H2214 0.950 . S
C2235 C2234 1.373 . S
C2235 C2251 1.377 . S
C2236 C2234 1.389 . S
C2236 C2237 1.524 . S
C2236 C2250 1.377 . S
C2237 C2236 1.524 . S
C2237 C2238 1.397 . S
C2237 C2242 1.363 . S
C2238 H2215 0.950 . S
C2238 C2237 1.397 . S
C2238 C2239 1.334 . S
C2239 H2216 0.950 . S
C2239 C2238 1.334 . S
C2239 C2240 1.287 . S
C2240 C2239 1.287 . S
C2240 C2241 1.524 . S
C2240 H2259 0.913 . S
C2241 H2217 0.950 . S
C2241 C2240 1.524 . S
C2241 C2242 1.415 . S
C2242 H2218 0.950 . S
C2242 C2237 1.363 . S
C2242 C2241 1.415 . S
C2243 H2219 0.951 . S
C2243 C2244 1.366 . S
C2243 C2245 1.388 . S
C2244 C2243 1.366 . S
C2244 C2248 1.385 . S
C2245 H2220 0.951 . S
C2245 C2243 1.388 . S
C2245 C2246 1.366 . S
C2246 C2245 1.366 . S
C2246 C2247 1.414 . S
C2246 C2249 1.499 . S
C2247 H2221 0.950 . S
C2247 C2246 1.414 . S
C2247 C2248 1.374 . S
C2248 H2222 0.950 . S
C2248 C2244 1.385 . S
C2248 C2247 1.374 . S
C2249 C2246 1.499 . S
C2249 C2250 1.373 . S
C2249 C2251 1.389 . S
C2250 H2223 0.950 . S
C2250 C2236 1.377 . S
C2250 C2249 1.373 . S
C2251 C2235 1.377 . S
C2251 C2249 1.389 . S
C2251 C2252 1.524 . S
C2252 C2251 1.524 . S
C2252 C2253 1.397 . S
C2252 C2257 1.363 . S
C2253 H2224 0.950 . S
C2253 C2252 1.397 . S
C2253 C2254 1.334 . S
C2254 H2225 0.950 . S
C2254 C2253 1.334 . S
C2254 C2255 1.287 . S
C2255 C2254 1.287 . S
C2255 C2256 1.524 . S
C2255 H2258 0.999 . S
C2256 H2226 0.950 . S
C2256 C2255 1.524 . S
C2256 C2257 1.415 . S
C2257 H2227 0.950 . S
C2257 C2252 1.363 . S
C2257 C2256 1.415 . S
H2258 C2255 0.999 . S
H2259 C2240 0.913 . S
H2260 C2278 0.951 . S
H2261 C2280 0.951 1_565 S
H2262 C2282 0.950 . S
H2263 C2283 0.950 . S
H2264 C2285 0.950 1_545 S
H2265 C2288 0.950 . S
H2266 C2289 0.950 . S
H2267 C2291 0.950 . S
H2268 C2292 0.950 1_554 S
H2269 C2293 0.951 . S
H2270 C2295 0.951 1_556 S
H2271 C2297 0.950 . S
H2272 C2298 0.950 . S
H2273 C2300 0.960 . S
H2274 C2303 0.950 . S
H2275 C2304 0.950 . S
H2276 C2306 0.944 1_556 S
H2277 C2307 0.950 . S
C2278 H2260 0.951 . S
C2278 C2279 1.366 . S
C2278 C2280 1.388 . S
C2279 C2278 1.366 . S
C2279 C2283 1.385 . S
C2280 H2261 0.951 1_545 S
C2280 C2278 1.388 . S
C2280 C2281 1.366 . S
C2281 C2280 1.366 . S
C2281 C2282 1.437 . S
C2281 C2284 1.479 1_545 S
C2282 H2262 0.950 . S
C2282 C2281 1.437 . S
C2282 C2283 1.374 . S
C2283 H2263 0.950 . S
C2283 C2279 1.385 . S
C2283 C2282 1.374 . S
C2284 C2281 1.479 1_565 S
C2284 C2285 1.373 . S
C2284 C2286 1.389 . S
C2285 H2264 0.950 1_565 S
C2285 C2284 1.373 . S
C2285 C2301 1.414 . S
C2286 C2284 1.389 . S
C2286 C2287 1.524 . S
C2286 C2300 1.377 . S
C2287 C2286 1.524 . S
C2287 C2288 1.397 . S
C2287 C2292 1.363 . S
C2288 H2265 0.950 . S
C2288 C2287 1.397 . S
C2288 C2289 1.334 . S
C2289 H2266 0.950 . S
C2289 C2288 1.334 . S
C2289 C2290 1.287 . S
C2290 C2289 1.287 . S
C2290 C2291 1.524 . S
C2290 H2309 0.913 . S
C2291 H2267 0.950 . S
C2291 C2290 1.524 . S
C2291 C2292 1.415 . S
C2292 H2268 0.950 1_556 S
C2292 C2287 1.363 . S
C2292 C2291 1.415 . S
C2293 H2269 0.951 . S
C2293 C2294 1.366 . S
C2293 C2295 1.388 . S
C2294 C2293 1.366 . S
C2294 C2298 1.385 . S
C2295 H2270 0.951 1_554 S
C2295 C2293 1.388 . S
C2295 C2296 1.366 . S
C2296 C2295 1.366 . S
C2296 C2297 1.414 . S
C2296 C2299 1.499 . S
C2297 H2271 0.950 . S
C2297 C2296 1.414 . S
C2297 C2298 1.374 . S
C2298 H2272 0.950 . S
C2298 C2294 1.385 . S
C2298 C2297 1.374 . S
C2299 C2296 1.499 . S
C2299 C2300 1.373 1_554 S
C2299 C2301 1.371 1_554 S
C2300 H2273 0.960 . S
C2300 C2286 1.377 . S
C2300 C2299 1.373 1_556 S
C2301 C2285 1.414 . S
C2301 C2299 1.371 1_556 S
C2301 C2302 1.508 1_556 S
C2302 C2301 1.508 1_554 S
C2302 C2303 1.397 . S
C2302 C2307 1.363 1_564 S
C2303 H2274 0.950 . S
C2303 C2302 1.397 . S
C2303 C2304 1.334 1_565 S
C2304 H2275 0.950 . S
C2304 C2303 1.334 1_545 S
C2304 C2305 1.287 . S
C2305 C2304 1.287 . S
C2305 C2306 1.533 . S
C2305 H2308 0.999 . S
C2306 H2276 0.944 1_554 S
C2306 C2305 1.533 . S
C2306 C2307 1.412 1_554 S
C2307 H2277 0.950 . S
C2307 C2302 1.363 1_546 S
C2307 C2306 1.412 1_556 S
H2308 C2305 0.999 . S
H2309 C2290 0.913 . S
H2310 C2328 0.951 . S
H2311 C2330 0.951 . S
H2312 C2332 0.950 . S
H2313 C2333 0.950 . S
H2314 C2335 0.950 . S
H2315 C2338 0.950 . S
H2316 C2339 0.950 . S
H2317 C2341 0.950 . S
H2318 C2342 0.950 . S
H2319 C2343 0.951 . S
H2320 C2345 0.951 . S
H2321 C2347 0.950 . S
H2322 C2348 0.950 . S
H2323 C2350 0.950 . S
H2324 C2353 0.950 . S
H2325 C2354 0.950 . S
H2326 C2356 0.950 . S
H2327 C2357 0.950 . S
C2328 H2310 0.951 . S
C2328 C2329 1.366 . S
C2328 C2330 1.388 . S
C2329 C2328 1.366 . S
C2329 C2333 1.385 . S
C2330 H2311 0.951 . S
C2330 C2328 1.388 . S
C2330 C2331 1.366 . S
C2331 C2330 1.366 . S
C2331 C2332 1.414 . S
C2331 C2334 1.499 . S
C2332 H2312 0.950 . S
C2332 C2331 1.414 . S
C2332 C2333 1.374 . S
C2333 H2313 0.950 . S
C2333 C2329 1.385 . S
C2333 C2332 1.374 . S
C2334 C2331 1.499 . S
C2334 C2335 1.373 . S
C2334 C2336 1.389 . S
C2335 H2314 0.950 . S
C2335 C2334 1.373 . S
C2335 C2351 1.377 . S
C2336 C2334 1.389 . S
C2336 C2337 1.524 . S
C2336 C2350 1.377 . S
C2337 C2336 1.524 . S
C2337 C2338 1.397 . S
C2337 C2342 1.363 . S
C2338 H2315 0.950 . S
C2338 C2337 1.397 . S
C2338 C2339 1.334 . S
C2339 H2316 0.950 . S
C2339 C2338 1.334 . S
C2339 C2340 1.287 . S
C2340 C2339 1.287 . S
C2340 C2341 1.524 . S
C2340 H2359 0.913 . S
C2341 H2317 0.950 . S
C2341 C2340 1.524 . S
C2341 C2342 1.415 . S
C2342 H2318 0.950 . S
C2342 C2337 1.363 . S
C2342 C2341 1.415 . S
C2343 H2319 0.951 . S
C2343 C2344 1.366 . S
C2343 C2345 1.388 . S
C2344 C2343 1.366 . S
C2344 C2348 1.385 . S
C2345 H2320 0.951 . S
C2345 C2343 1.388 . S
C2345 C2346 1.366 . S
C2346 C2345 1.366 . S
C2346 C2347 1.414 . S
C2346 C2349 1.499 . S
C2347 H2321 0.950 . S
C2347 C2346 1.414 . S
C2347 C2348 1.374 . S
C2348 H2322 0.950 . S
C2348 C2344 1.385 . S
C2348 C2347 1.374 . S
C2349 C2346 1.499 . S
C2349 C2350 1.373 . S
C2349 C2351 1.389 . S
C2350 H2323 0.950 . S
C2350 C2336 1.377 . S
C2350 C2349 1.373 . S
C2351 C2335 1.377 . S
C2351 C2349 1.389 . S
C2351 C2352 1.524 . S
C2352 C2351 1.524 . S
C2352 C2353 1.397 . S
C2352 C2357 1.363 . S
C2353 H2324 0.950 . S
C2353 C2352 1.397 . S
C2353 C2354 1.334 . S
C2354 H2325 0.950 . S
C2354 C2353 1.334 . S
C2354 C2355 1.287 . S
C2355 C2354 1.287 . S
C2355 C2356 1.524 . S
C2355 H2358 0.999 . S
C2356 H2326 0.950 . S
C2356 C2355 1.524 . S
C2356 C2357 1.415 . S
C2357 H2327 0.950 . S
C2357 C2352 1.363 . S
C2357 C2356 1.415 . S
H2358 C2355 0.999 . S
H2359 C2340 0.913 . S
H2360 C2378 0.951 . S
H2361 C2380 0.933 1_565 S
H2362 C2382 0.950 . S
H2363 C2383 0.950 . S
H2364 C2385 0.950 . S
H2365 C2388 0.950 . S
H2366 C2389 0.950 . S
H2367 C2391 0.950 . S
H2368 C2392 0.937 1_545 S
H2369 C2393 0.951 . S
H2370 C2395 0.951 . S
H2371 C2397 0.950 . S
H2372 C2398 0.950 . S
H2373 C2400 0.950 . S
H2374 C2403 0.950 . S
H2375 C2404 0.950 . S
H2376 C2406 0.950 . S
H2377 C2407 0.950 . S
C2378 H2360 0.951 . S
C2378 C2379 1.366 . S
C2378 C2380 1.351 1_565 S
C2379 C2378 1.366 . S
C2379 C2383 1.385 1_565 S
C2380 H2361 0.933 1_545 S
C2380 C2378 1.351 1_545 S
C2380 C2381 1.424 . S
C2381 C2380 1.424 . S
C2381 C2382 1.414 . S
C2381 C2384 1.499 . S
C2382 H2362 0.950 . S
C2382 C2381 1.414 . S
C2382 C2383 1.374 . S
C2383 H2363 0.950 . S
C2383 C2379 1.385 1_545 S
C2383 C2382 1.374 . S
C2384 C2381 1.499 . S
C2384 C2385 1.373 . S
C2384 C2386 1.389 . S
C2385 H2364 0.950 . S
C2385 C2384 1.373 . S
C2385 C2401 1.377 . S
C2386 C2384 1.389 . S
C2386 C2387 1.524 . S
C2386 C2400 1.377 . S
C2387 C2386 1.524 . S
C2387 C2388 1.397 . S
C2387 C2392 1.338 1_545 S
C2388 H2365 0.950 . S
C2388 C2387 1.397 . S
C2388 C2389 1.334 1_545 S
C2389 H2366 0.950 . S
C2389 C2388 1.334 1_565 S
C2389 C2390 1.287 . S
C2390 C2389 1.287 . S
C2390 C2391 1.524 . S
C2390 H2409 0.913 . S
C2391 H2367 0.950 . S
C2391 C2390 1.524 . S
C2391 C2392 1.455 . S
C2392 H2368 0.937 1_565 S
C2392 C2387 1.338 1_565 S
C2392 C2391 1.455 . S
C2393 H2369 0.951 . S
C2393 C2394 1.366 . S
C2393 C2395 1.388 . S
C2394 C2393 1.366 . S
C2394 C2398 1.385 . S
C2395 H2370 0.951 . S
C2395 C2393 1.388 . S
C2395 C2396 1.366 . S
C2396 C2395 1.366 . S
C2396 C2397 1.414 . S
C2396 C2399 1.499 . S
C2397 H2371 0.950 . S
C2397 C2396 1.414 . S
C2397 C2398 1.374 . S
C2398 H2372 0.950 . S
C2398 C2394 1.385 . S
C2398 C2397 1.374 . S
C2399 C2396 1.499 . S
C2399 C2400 1.373 . S
C2399 C2401 1.389 . S
C2400 H2373 0.950 . S
C2400 C2386 1.377 . S
C2400 C2399 1.373 . S
C2401 C2385 1.377 . S
C2401 C2399 1.389 . S
C2401 C2402 1.524 . S
C2402 C2401 1.524 . S
C2402 C2403 1.397 . S
C2402 C2407 1.363 . S
C2403 H2374 0.950 . S
C2403 C2402 1.397 . S
C2403 C2404 1.334 . S
C2404 H2375 0.950 . S
C2404 C2403 1.334 . S
C2404 C2405 1.287 . S
C2405 C2404 1.287 . S
C2405 C2406 1.524 . S
C2405 H2408 0.999 . S
C2406 H2376 0.950 . S
C2406 C2405 1.524 . S
C2406 C2407 1.415 . S
C2407 H2377 0.950 . S
C2407 C2402 1.363 . S
C2407 C2406 1.415 . S
H2408 C2405 0.999 . S
H2409 C2390 0.913 . S
H2410 C2428 0.951 . S
H2411 C2430 0.951 . S
H2412 C2432 0.950 . S
H2413 C2433 0.950 . S
H2414 C2435 0.950 . S
H2415 C2438 0.950 . S
H2416 C2439 0.950 . S
H2417 C2441 0.950 . S
H2418 C2442 0.950 . S
H2419 C2443 0.951 . S
H2420 C2445 0.951 . S
H2421 C2447 0.950 . S
H2422 C2448 0.950 . S
H2423 C2450 0.950 . S
H2424 C2453 0.950 . S
H2425 C2454 0.950 . S
H2426 C2456 0.950 . S
H2427 C2457 0.950 . S
C2428 H2410 0.951 . S
C2428 C2429 1.366 . S
C2428 C2430 1.388 . S
C2429 C2428 1.366 . S
C2429 C2433 1.385 . S
C2430 H2411 0.951 . S
C2430 C2428 1.388 . S
C2430 C2431 1.366 . S
C2431 C2430 1.366 . S
C2431 C2432 1.414 . S
C2431 C2434 1.499 . S
C2432 H2412 0.950 . S
C2432 C2431 1.414 . S
C2432 C2433 1.374 . S
C2433 H2413 0.950 . S
C2433 C2429 1.385 . S
C2433 C2432 1.374 . S
C2434 C2431 1.499 . S
C2434 C2435 1.373 . S
C2434 C2436 1.389 . S
C2435 H2414 0.950 . S
C2435 C2434 1.373 . S
C2435 C2451 1.377 . S
C2436 C2434 1.389 . S
C2436 C2437 1.524 . S
C2436 C2450 1.377 . S
C2437 C2436 1.524 . S
C2437 C2438 1.397 . S
C2437 C2442 1.363 . S
C2438 H2415 0.950 . S
C2438 C2437 1.397 . S
C2438 C2439 1.334 . S
C2439 H2416 0.950 . S
C2439 C2438 1.334 . S
C2439 C2440 1.287 . S
C2440 C2439 1.287 . S
C2440 C2441 1.524 . S
C2440 H2459 0.913 . S
C2441 H2417 0.950 . S
C2441 C2440 1.524 . S
C2441 C2442 1.415 . S
C2442 H2418 0.950 . S
C2442 C2437 1.363 . S
C2442 C2441 1.415 . S
C2443 H2419 0.951 . S
C2443 C2444 1.366 . S
C2443 C2445 1.388 . S
C2444 C2443 1.366 . S
C2444 C2448 1.385 . S
C2445 H2420 0.951 . S
C2445 C2443 1.388 . S
C2445 C2446 1.366 . S
C2446 C2445 1.366 . S
C2446 C2447 1.414 . S
C2446 C2449 1.499 . S
C2447 H2421 0.950 . S
C2447 C2446 1.414 . S
C2447 C2448 1.374 . S
C2448 H2422 0.950 . S
C2448 C2444 1.385 . S
C2448 C2447 1.374 . S
C2449 C2446 1.499 . S
C2449 C2450 1.373 . S
C2449 C2451 1.389 . S
C2450 H2423 0.950 . S
C2450 C2436 1.377 . S
C2450 C2449 1.373 . S
C2451 C2435 1.377 . S
C2451 C2449 1.389 . S
C2451 C2452 1.524 . S
C2452 C2451 1.524 . S
C2452 C2453 1.397 . S
C2452 C2457 1.363 . S
C2453 H2424 0.950 . S
C2453 C2452 1.397 . S
C2453 C2454 1.334 . S
C2454 H2425 0.950 . S
C2454 C2453 1.334 . S
C2454 C2455 1.287 . S
C2455 C2454 1.287 . S
C2455 C2456 1.524 . S
C2455 H2458 0.999 . S
C2456 H2426 0.950 . S
C2456 C2455 1.524 . S
C2456 C2457 1.415 . S
C2457 H2427 0.950 . S
C2457 C2452 1.363 . S
C2457 C2456 1.415 . S
H2458 C2455 0.999 . S
H2459 C2440 0.913 . S
H2460 C2478 0.951 . S
H2461 C2480 0.951 . S
H2462 C2482 0.950 . S
H2463 C2483 0.950 1_565 S
H2464 C2485 0.950 . S
H2465 C2488 0.950 . S
H2466 C2489 0.950 . S
H2467 C2491 0.950 . S
H2468 C2492 0.950 . S
H2469 C2493 0.951 . S
H2470 C2495 0.951 . S
H2471 C2497 0.950 . S
H2472 C2498 0.950 . S
H2473 C2500 0.950 . S
H2474 C2503 0.950 . S
H2475 C2504 0.950 . S
H2476 C2506 0.950 . S
H2477 C2507 0.950 . S
C2478 H2460 0.951 . S
C2478 C2479 1.366 . S
C2478 C2480 1.388 . S
C2479 C2478 1.366 . S
C2479 C2483 1.385 . S
C2480 H2461 0.951 . S
C2480 C2478 1.388 . S
C2480 C2481 1.366 . S
C2481 C2480 1.366 . S
C2481 C2482 1.414 . S
C2481 C2484 1.499 . S
C2482 H2462 0.950 . S
C2482 C2481 1.414 . S
C2482 C2483 1.374 . S
C2483 H2463 0.950 1_545 S
C2483 C2479 1.385 . S
C2483 C2482 1.374 . S
C2484 C2481 1.499 . S
C2484 C2485 1.373 . S
C2484 C2486 1.389 . S
C2485 H2464 0.950 . S
C2485 C2484 1.373 . S
C2485 C2501 1.377 . S
C2486 C2484 1.389 . S
C2486 C2487 1.524 . S
C2486 C2500 1.377 . S
C2487 C2486 1.524 . S
C2487 C2488 1.397 . S
C2487 C2492 1.363 . S
C2488 H2465 0.950 . S
C2488 C2487 1.397 . S
C2488 C2489 1.334 . S
C2489 H2466 0.950 . S
C2489 C2488 1.334 . S
C2489 C2490 1.287 . S
C2490 C2489 1.287 . S
C2490 C2491 1.524 . S
C2490 H2509 0.913 . S
C2491 H2467 0.950 . S
C2491 C2490 1.524 . S
C2491 C2492 1.415 . S
C2492 H2468 0.950 . S
C2492 C2487 1.363 . S
C2492 C2491 1.415 . S
C2493 H2469 0.951 . S
C2493 C2494 1.366 . S
C2493 C2495 1.388 . S
C2494 C2493 1.366 . S
C2494 C2498 1.385 . S
C2495 H2470 0.951 . S
C2495 C2493 1.388 . S
C2495 C2496 1.366 . S
C2496 C2495 1.366 . S
C2496 C2497 1.414 . S
C2496 C2499 1.499 . S
C2497 H2471 0.950 . S
C2497 C2496 1.414 . S
C2497 C2498 1.374 . S
C2498 H2472 0.950 . S
C2498 C2494 1.385 . S
C2498 C2497 1.374 . S
C2499 C2496 1.499 . S
C2499 C2500 1.373 . S
C2499 C2501 1.389 . S
C2500 H2473 0.950 . S
C2500 C2486 1.377 . S
C2500 C2499 1.373 . S
C2501 C2485 1.377 . S
C2501 C2499 1.389 . S
C2501 C2502 1.524 . S
C2502 C2501 1.524 . S
C2502 C2503 1.397 . S
C2502 C2507 1.363 . S
C2503 H2474 0.950 . S
C2503 C2502 1.397 . S
C2503 C2504 1.334 . S
C2504 H2475 0.950 . S
C2504 C2503 1.334 . S
C2504 C2505 1.287 . S
C2505 C2504 1.287 . S
C2505 C2506 1.524 . S
C2505 H2508 0.999 . S
C2506 H2476 0.950 . S
C2506 C2505 1.524 . S
C2506 C2507 1.415 . S
C2507 H2477 0.950 . S
C2507 C2502 1.363 . S
C2507 C2506 1.415 . S
H2508 C2505 0.999 . S
H2509 C2490 0.913 . S
H2510 C2528 0.951 . S
H2511 C2530 0.951 . S
H2512 C2532 0.950 . S
H2513 C2533 0.950 . S
H2514 C2535 0.950 . S
H2515 C2538 0.950 . S
H2516 C2539 0.950 . S
H2517 C2541 0.950 . S
H2518 C2542 0.950 . S
H2519 C2543 0.951 . S
H2520 C2545 0.951 . S
H2521 C2547 0.950 . S
H2522 C2548 0.950 . S
H2523 C2550 0.950 . S
H2524 C2553 0.950 . S
H2525 C2554 0.950 . S
H2526 C2556 0.950 . S
H2527 C2557 0.950 . S
C2528 H2510 0.951 . S
C2528 C2529 1.366 . S
C2528 C2530 1.388 . S
C2529 C2528 1.366 . S
C2529 C2533 1.385 . S
C2530 H2511 0.951 . S
C2530 C2528 1.388 . S
C2530 C2531 1.366 . S
C2531 C2530 1.366 . S
C2531 C2532 1.414 . S
C2531 C2534 1.499 . S
C2532 H2512 0.950 . S
C2532 C2531 1.414 . S
C2532 C2533 1.374 . S
C2533 H2513 0.950 . S
C2533 C2529 1.385 . S
C2533 C2532 1.374 . S
C2534 C2531 1.499 . S
C2534 C2535 1.373 . S
C2534 C2536 1.389 . S
C2535 H2514 0.950 . S
C2535 C2534 1.373 . S
C2535 C2551 1.377 . S
C2536 C2534 1.389 . S
C2536 C2537 1.524 . S
C2536 C2550 1.377 . S
C2537 C2536 1.524 . S
C2537 C2538 1.397 . S
C2537 C2542 1.363 . S
C2538 H2515 0.950 . S
C2538 C2537 1.397 . S
C2538 C2539 1.334 . S
C2539 H2516 0.950 . S
C2539 C2538 1.334 . S
C2539 C2540 1.287 . S
C2540 C2539 1.287 . S
C2540 C2541 1.524 . S
C2540 H2559 0.913 . S
C2541 H2517 0.950 . S
C2541 C2540 1.524 . S
C2541 C2542 1.415 . S
C2542 H2518 0.950 . S
C2542 C2537 1.363 . S
C2542 C2541 1.415 . S
C2543 H2519 0.951 . S
C2543 C2544 1.366 . S
C2543 C2545 1.388 . S
C2544 C2543 1.366 . S
C2544 C2548 1.385 . S
C2545 H2520 0.951 . S
C2545 C2543 1.388 . S
C2545 C2546 1.366 . S
C2546 C2545 1.366 . S
C2546 C2547 1.414 . S
C2546 C2549 1.499 . S
C2547 H2521 0.950 . S
C2547 C2546 1.414 . S
C2547 C2548 1.374 . S
C2548 H2522 0.950 . S
C2548 C2544 1.385 . S
C2548 C2547 1.374 . S
C2549 C2546 1.499 . S
C2549 C2550 1.373 . S
C2549 C2551 1.389 . S
C2550 H2523 0.950 . S
C2550 C2536 1.377 . S
C2550 C2549 1.373 . S
C2551 C2535 1.377 . S
C2551 C2549 1.389 . S
C2551 C2552 1.524 . S
C2552 C2551 1.524 . S
C2552 C2553 1.397 . S
C2552 C2557 1.363 . S
C2553 H2524 0.950 . S
C2553 C2552 1.397 . S
C2553 C2554 1.334 . S
C2554 H2525 0.950 . S
C2554 C2553 1.334 . S
C2554 C2555 1.287 . S
C2555 C2554 1.287 . S
C2555 C2556 1.524 . S
C2555 H2558 0.999 . S
C2556 H2526 0.950 . S
C2556 C2555 1.524 . S
C2556 C2557 1.415 . S
C2557 H2527 0.950 . S
C2557 C2552 1.363 . S
C2557 C2556 1.415 . S
H2558 C2555 0.999 . S
H2559 C2540 0.913 . S
H2560 C2578 0.951 . S
H2561 C2580 0.951 . S
H2562 C2582 0.950 . S
H2563 C2583 0.950 . S
H2564 C2585 0.950 . S
H2565 C2588 0.950 . S
H2566 C2589 0.950 . S
H2567 C2591 0.950 . S
H2568 C2592 0.950 . S
H2569 C2593 0.951 . S
H2570 C2595 0.951 . S
H2571 C2597 0.950 . S
H2572 C2598 0.950 . S
H2573 C2600 0.950 . S
H2574 C2603 0.950 . S
H2575 C2604 0.950 . S
H2576 C2606 0.950 . S
H2577 C2607 0.950 . S
C2578 H2560 0.951 . S
C2578 C2579 1.366 . S
C2578 C2580 1.388 . S
C2579 C2578 1.366 . S
C2579 C2583 1.385 . S
C2580 H2561 0.951 . S
C2580 C2578 1.388 . S
C2580 C2581 1.366 . S
C2581 C2580 1.366 . S
C2581 C2582 1.414 . S
C2581 C2584 1.499 . S
C2582 H2562 0.950 . S
C2582 C2581 1.414 . S
C2582 C2583 1.374 . S
C2583 H2563 0.950 . S
C2583 C2579 1.385 . S
C2583 C2582 1.374 . S
C2584 C2581 1.499 . S
C2584 C2585 1.373 . S
C2584 C2586 1.389 . S
C2585 H2564 0.950 . S
C2585 C2584 1.373 . S
C2585 C2601 1.377 . S
C2586 C2584 1.389 . S
C2586 C2587 1.524 . S
C2586 C2600 1.377 . S
C2587 C2586 1.524 . S
C2587 C2588 1.397 . S
C2587 C2592 1.363 . S
C2588 H2565 0.950 . S
C2588 C2587 1.397 . S
C2588 C2589 1.334 . S
C2589 H2566 0.950 . S
C2589 C2588 1.334 . S
C2589 C2590 1.287 . S
C2590 C2589 1.287 . S
C2590 C2591 1.524 . S
C2590 H2609 0.913 . S
C2591 H2567 0.950 . S
C2591 C2590 1.524 . S
C2591 C2592 1.415 . S
C2592 H2568 0.950 . S
C2592 C2587 1.363 . S
C2592 C2591 1.415 . S
C2593 H2569 0.951 . S
C2593 C2594 1.366 . S
C2593 C2595 1.388 . S
C2594 C2593 1.366 . S
C2594 C2598 1.385 . S
C2595 H2570 0.951 . S
C2595 C2593 1.388 . S
C2595 C2596 1.366 . S
C2596 C2595 1.366 . S
C2596 C2597 1.414 . S
C2596 C2599 1.499 . S
C2597 H2571 0.950 . S
C2597 C2596 1.414 . S
C2597 C2598 1.374 . S
C2598 H2572 0.950 . S
C2598 C2594 1.385 . S
C2598 C2597 1.374 . S
C2599 C2596 1.499 . S
C2599 C2600 1.373 . S
C2599 C2601 1.389 . S
C2600 H2573 0.950 . S
C2600 C2586 1.377 . S
C2600 C2599 1.373 . S
C2601 C2585 1.377 . S
C2601 C2599 1.389 . S
C2601 C2602 1.524 . S
C2602 C2601 1.524 . S
C2602 C2603 1.397 . S
C2602 C2607 1.363 . S
C2603 H2574 0.950 . S
C2603 C2602 1.397 . S
C2603 C2604 1.334 . S
C2604 H2575 0.950 . S
C2604 C2603 1.334 . S
C2604 C2605 1.287 . S
C2605 C2604 1.287 . S
C2605 C2606 1.524 . S
C2605 H2608 0.999 . S
C2606 H2576 0.950 . S
C2606 C2605 1.524 . S
C2606 C2607 1.415 . S
C2607 H2577 0.950 . S
C2607 C2602 1.363 . S
C2607 C2606 1.415 . S
H2608 C2605 0.999 . S
H2609 C2590 0.913 . S
H2610 C2628 0.951 . S
H2611 C2630 0.951 . S
H2612 C2632 0.950 . S
H2613 C2633 0.950 . S
H2614 C2635 0.950 . S
H2615 C2638 0.950 . S
H2616 C2639 0.950 . S
H2617 C2641 0.950 . S
H2618 C2642 0.950 . S
H2619 C2643 0.951 . S
H2620 C2645 0.951 . S
H2621 C2647 0.950 . S
H2622 C2648 0.950 . S
H2623 C2650 0.950 . S
H2624 C2653 0.950 . S
H2625 C2654 0.950 . S
H2626 C2656 0.950 1_565 S
H2627 C2657 0.950 . S
C2628 H2610 0.951 . S
C2628 C2629 1.366 . S
C2628 C2630 1.388 . S
C2629 C2628 1.366 . S
C2629 C2633 1.385 . S
C2630 H2611 0.951 . S
C2630 C2628 1.388 . S
C2630 C2631 1.366 . S
C2631 C2630 1.366 . S
C2631 C2632 1.414 . S
C2631 C2634 1.499 . S
C2632 H2612 0.950 . S
C2632 C2631 1.414 . S
C2632 C2633 1.374 . S
C2633 H2613 0.950 . S
C2633 C2629 1.385 . S
C2633 C2632 1.374 . S
C2634 C2631 1.499 . S
C2634 C2635 1.373 . S
C2634 C2636 1.389 . S
C2635 H2614 0.950 . S
C2635 C2634 1.373 . S
C2635 C2651 1.377 . S
C2636 C2634 1.389 . S
C2636 C2637 1.524 . S
C2636 C2650 1.377 . S
C2637 C2636 1.524 . S
C2637 C2638 1.397 . S
C2637 C2642 1.363 . S
C2638 H2615 0.950 . S
C2638 C2637 1.397 . S
C2638 C2639 1.334 . S
C2639 H2616 0.950 . S
C2639 C2638 1.334 . S
C2639 C2640 1.287 . S
C2640 C2639 1.287 . S
C2640 C2641 1.524 . S
C2640 H2659 0.913 . S
C2641 H2617 0.950 . S
C2641 C2640 1.524 . S
C2641 C2642 1.415 . S
C2642 H2618 0.950 . S
C2642 C2637 1.363 . S
C2642 C2641 1.415 . S
C2643 H2619 0.951 . S
C2643 C2644 1.366 . S
C2643 C2645 1.388 . S
C2644 C2643 1.366 . S
C2644 C2648 1.385 . S
C2645 H2620 0.951 . S
C2645 C2643 1.388 . S
C2645 C2646 1.366 . S
C2646 C2645 1.366 . S
C2646 C2647 1.414 . S
C2646 C2649 1.499 . S
C2647 H2621 0.950 . S
C2647 C2646 1.414 . S
C2647 C2648 1.374 . S
C2648 H2622 0.950 . S
C2648 C2644 1.385 . S
C2648 C2647 1.374 . S
C2649 C2646 1.499 . S
C2649 C2650 1.373 . S
C2649 C2651 1.389 . S
C2650 H2623 0.950 . S
C2650 C2636 1.377 . S
C2650 C2649 1.373 . S
C2651 C2635 1.377 . S
C2651 C2649 1.389 . S
C2651 C2652 1.524 . S
C2652 C2651 1.524 . S
C2652 C2653 1.397 . S
C2652 C2657 1.363 . S
C2653 H2624 0.950 . S
C2653 C2652 1.397 . S
C2653 C2654 1.334 . S
C2654 H2625 0.950 . S
C2654 C2653 1.334 . S
C2654 C2655 1.287 . S
C2655 C2654 1.287 . S
C2655 C2656 1.524 . S
C2655 H2658 0.999 . S
C2656 H2626 0.950 1_545 S
C2656 C2655 1.524 . S
C2656 C2657 1.415 . S
C2657 H2627 0.950 . S
C2657 C2652 1.363 . S
C2657 C2656 1.415 . S
H2658 C2655 0.999 . S
H2659 C2640 0.913 . S
H2660 C2678 0.951 . S
H2661 C2680 0.951 . S
H2662 C2682 0.950 . S
H2663 C2683 0.950 . S
H2664 C2685 0.950 . S
H2665 C2688 0.950 . S
H2666 C2689 0.950 . S
H2667 C2691 0.950 . S
H2668 C2692 0.950 . S
H2669 C2693 0.951 . S
H2670 C2695 0.951 . S
H2671 C2697 0.950 . S
H2672 C2698 0.950 . S
H2673 C2700 0.950 . S
H2674 C2703 0.950 . S
H2675 C2704 0.950 . S
H2676 C2706 0.950 . S
H2677 C2707 0.950 . S
C2678 H2660 0.951 . S
C2678 C2679 1.366 . S
C2678 C2680 1.388 . S
C2679 C2678 1.366 . S
C2679 C2683 1.385 . S
C2680 H2661 0.951 . S
C2680 C2678 1.388 . S
C2680 C2681 1.366 . S
C2681 C2680 1.366 . S
C2681 C2682 1.414 . S
C2681 C2684 1.499 . S
C2682 H2662 0.950 . S
C2682 C2681 1.414 . S
C2682 C2683 1.374 . S
C2683 H2663 0.950 . S
C2683 C2679 1.385 . S
C2683 C2682 1.374 . S
C2684 C2681 1.499 . S
C2684 C2685 1.373 . S
C2684 C2686 1.389 . S
C2685 H2664 0.950 . S
C2685 C2684 1.373 . S
C2685 C2701 1.377 . S
C2686 C2684 1.389 . S
C2686 C2687 1.524 . S
C2686 C2700 1.377 . S
C2687 C2686 1.524 . S
C2687 C2688 1.397 . S
C2687 C2692 1.363 . S
C2688 H2665 0.950 . S
C2688 C2687 1.397 . S
C2688 C2689 1.334 . S
C2689 H2666 0.950 . S
C2689 C2688 1.334 . S
C2689 C2690 1.287 . S
C2690 C2689 1.287 . S
C2690 C2691 1.524 . S
C2690 H2709 0.913 . S
C2691 H2667 0.950 . S
C2691 C2690 1.524 . S
C2691 C2692 1.415 . S
C2692 H2668 0.950 . S
C2692 C2687 1.363 . S
C2692 C2691 1.415 . S
C2693 H2669 0.951 . S
C2693 C2694 1.366 . S
C2693 C2695 1.388 . S
C2694 C2693 1.366 . S
C2694 C2698 1.385 . S
C2695 H2670 0.951 . S
C2695 C2693 1.388 . S
C2695 C2696 1.366 . S
C2696 C2695 1.366 . S
C2696 C2697 1.414 . S
C2696 C2699 1.499 . S
C2697 H2671 0.950 . S
C2697 C2696 1.414 . S
C2697 C2698 1.374 . S
C2698 H2672 0.950 . S
C2698 C2694 1.385 . S
C2698 C2697 1.374 . S
C2699 C2696 1.499 . S
C2699 C2700 1.373 . S
C2699 C2701 1.389 . S
C2700 H2673 0.950 . S
C2700 C2686 1.377 . S
C2700 C2699 1.373 . S
C2701 C2685 1.377 . S
C2701 C2699 1.389 . S
C2701 C2702 1.524 . S
C2702 C2701 1.524 . S
C2702 C2703 1.397 . S
C2702 C2707 1.363 . S
C2703 H2674 0.950 . S
C2703 C2702 1.397 . S
C2703 C2704 1.334 . S
C2704 H2675 0.950 . S
C2704 C2703 1.334 . S
C2704 C2705 1.287 . S
C2705 C2704 1.287 . S
C2705 C2706 1.524 . S
C2705 H2708 0.999 . S
C2706 H2676 0.950 . S
C2706 C2705 1.524 . S
C2706 C2707 1.415 . S
C2707 H2677 0.950 . S
C2707 C2702 1.363 . S
C2707 C2706 1.415 . S
H2708 C2705 0.999 . S
H2709 C2690 0.913 . S
H2710 C2728 0.951 . S
H2711 C2730 0.951 . S
H2712 C2732 0.950 . S
H2713 C2733 0.950 . S
H2714 C2735 0.950 . S
H2715 C2738 0.950 . S
H2716 C2739 0.950 . S
H2717 C2741 0.950 . S
H2718 C2742 0.950 . S
H2719 C2743 0.951 . S
H2720 C2745 0.951 . S
H2721 C2747 0.950 . S
H2722 C2748 0.950 . S
H2723 C2750 0.950 . S
H2724 C2753 0.950 . S
H2725 C2754 0.950 . S
H2726 C2756 0.950 . S
H2727 C2757 0.950 . S
C2728 H2710 0.951 . S
C2728 C2729 1.366 . S
C2728 C2730 1.388 . S
C2729 C2728 1.366 . S
C2729 C2733 1.385 . S
C2730 H2711 0.951 . S
C2730 C2728 1.388 . S
C2730 C2731 1.366 . S
C2731 C2730 1.366 . S
C2731 C2732 1.414 . S
C2731 C2734 1.499 . S
C2732 H2712 0.950 . S
C2732 C2731 1.414 . S
C2732 C2733 1.374 . S
C2733 H2713 0.950 . S
C2733 C2729 1.385 . S
C2733 C2732 1.374 . S
C2734 C2731 1.499 . S
C2734 C2735 1.373 . S
C2734 C2736 1.389 . S
C2735 H2714 0.950 . S
C2735 C2734 1.373 . S
C2735 C2751 1.377 . S
C2736 C2734 1.389 . S
C2736 C2737 1.524 . S
C2736 C2750 1.377 . S
C2737 C2736 1.524 . S
C2737 C2738 1.397 . S
C2737 C2742 1.363 . S
C2738 H2715 0.950 . S
C2738 C2737 1.397 . S
C2738 C2739 1.334 . S
C2739 H2716 0.950 . S
C2739 C2738 1.334 . S
C2739 C2740 1.287 . S
C2740 C2739 1.287 . S
C2740 C2741 1.524 . S
C2740 H2759 0.913 . S
C2741 H2717 0.950 . S
C2741 C2740 1.524 . S
C2741 C2742 1.415 . S
C2742 H2718 0.950 . S
C2742 C2737 1.363 . S
C2742 C2741 1.415 . S
C2743 H2719 0.951 . S
C2743 C2744 1.366 . S
C2743 C2745 1.388 . S
C2744 C2743 1.366 . S
C2744 C2748 1.385 . S
C2745 H2720 0.951 . S
C2745 C2743 1.388 . S
C2745 C2746 1.366 . S
C2746 C2745 1.366 . S
C2746 C2747 1.414 . S
C2746 C2749 1.499 . S
C2747 H2721 0.950 . S
C2747 C2746 1.414 . S
C2747 C2748 1.374 . S
C2748 H2722 0.950 . S
C2748 C2744 1.385 . S
C2748 C2747 1.374 . S
C2749 C2746 1.499 . S
C2749 C2750 1.373 . S
C2749 C2751 1.389 . S
C2750 H2723 0.950 . S
C2750 C2736 1.377 . S
C2750 C2749 1.373 . S
C2751 C2735 1.377 . S
C2751 C2749 1.389 . S
C2751 C2752 1.524 . S
C2752 C2751 1.524 . S
C2752 C2753 1.397 . S
C2752 C2757 1.363 . S
C2753 H2724 0.950 . S
C2753 C2752 1.397 . S
C2753 C2754 1.334 . S
C2754 H2725 0.950 . S
C2754 C2753 1.334 . S
C2754 C2755 1.287 . S
C2755 C2754 1.287 . S
C2755 C2756 1.524 . S
C2755 H2758 0.999 . S
C2756 H2726 0.950 . S
C2756 C2755 1.524 . S
C2756 C2757 1.415 . S
C2757 H2727 0.950 . S
C2757 C2752 1.363 . S
C2757 C2756 1.415 . S
H2758 C2755 0.999 . S
H2759 C2740 0.913 . S
H2760 C2778 0.951 . S
H2761 C2780 0.951 . S
H2762 C2782 0.950 . S
H2763 C2783 0.950 . S
H2764 C2785 0.950 . S
H2765 C2788 0.950 . S
H2766 C2789 0.950 . S
H2767 C2791 0.950 . S
H2768 C2792 0.950 . S
H2769 C2793 0.951 . S
H2770 C2795 0.951 . S
H2771 C2797 0.950 . S
H2772 C2798 0.950 . S
H2773 C2800 0.950 . S
H2774 C2803 0.950 . S
H2775 C2804 0.950 . S
H2776 C2806 0.950 . S
H2777 C2807 0.950 . S
C2778 H2760 0.951 . S
C2778 C2779 1.366 . S
C2778 C2780 1.388 . S
C2779 C2778 1.366 . S
C2779 C2783 1.385 . S
C2780 H2761 0.951 . S
C2780 C2778 1.388 . S
C2780 C2781 1.366 . S
C2781 C2780 1.366 . S
C2781 C2782 1.414 . S
C2781 C2784 1.499 . S
C2782 H2762 0.950 . S
C2782 C2781 1.414 . S
C2782 C2783 1.374 . S
C2783 H2763 0.950 . S
C2783 C2779 1.385 . S
C2783 C2782 1.374 . S
C2784 C2781 1.499 . S
C2784 C2785 1.373 . S
C2784 C2786 1.389 . S
C2785 H2764 0.950 . S
C2785 C2784 1.373 . S
C2785 C2801 1.377 . S
C2786 C2784 1.389 . S
C2786 C2787 1.524 . S
C2786 C2800 1.377 . S
C2787 C2786 1.524 . S
C2787 C2788 1.397 . S
C2787 C2792 1.363 . S
C2788 H2765 0.950 . S
C2788 C2787 1.397 . S
C2788 C2789 1.334 . S
C2789 H2766 0.950 . S
C2789 C2788 1.334 . S
C2789 C2790 1.287 . S
C2790 C2789 1.287 . S
C2790 C2791 1.524 . S
C2790 H2809 0.913 . S
C2791 H2767 0.950 . S
C2791 C2790 1.524 . S
C2791 C2792 1.415 . S
C2792 H2768 0.950 . S
C2792 C2787 1.363 . S
C2792 C2791 1.415 . S
C2793 H2769 0.951 . S
C2793 C2794 1.366 . S
C2793 C2795 1.388 . S
C2794 C2793 1.366 . S
C2794 C2798 1.385 . S
C2795 H2770 0.951 . S
C2795 C2793 1.388 . S
C2795 C2796 1.366 . S
C2796 C2795 1.366 . S
C2796 C2797 1.414 . S
C2796 C2799 1.499 . S
C2797 H2771 0.950 . S
C2797 C2796 1.414 . S
C2797 C2798 1.374 . S
C2798 H2772 0.950 . S
C2798 C2794 1.385 . S
C2798 C2797 1.374 . S
C2799 C2796 1.499 . S
C2799 C2800 1.373 . S
C2799 C2801 1.389 . S
C2800 H2773 0.950 . S
C2800 C2786 1.377 . S
C2800 C2799 1.373 . S
C2801 C2785 1.377 . S
C2801 C2799 1.389 . S
C2801 C2802 1.524 . S
C2802 C2801 1.524 . S
C2802 C2803 1.397 . S
C2802 C2807 1.363 . S
C2803 H2774 0.950 . S
C2803 C2802 1.397 . S
C2803 C2804 1.334 . S
C2804 H2775 0.950 . S
C2804 C2803 1.334 . S
C2804 C2805 1.287 . S
C2805 C2804 1.287 . S
C2805 C2806 1.524 . S
C2805 H2808 0.999 . S
C2806 H2776 0.950 . S
C2806 C2805 1.524 . S
C2806 C2807 1.415 . S
C2807 H2777 0.950 . S
C2807 C2802 1.363 . S
C2807 C2806 1.415 . S
H2808 C2805 0.999 . S
H2809 C2790 0.913 . S
H2810 C2828 0.951 . S
H2811 C2830 0.951 1_655 S
H2812 C2832 0.950 . S
H2813 C2833 0.950 . S
H2814 C2835 0.950 . S
H2815 C2838 0.950 . S
H2816 C2839 0.928 1_455 S
H2817 C2841 0.950 . S
H2818 C2842 0.950 . S
H2819 C2843 0.951 . S
H2820 C2845 0.951 . S
H2821 C2847 0.950 . S
H2822 C2848 0.950 . S
H2823 C2850 0.950 . S
H2824 C2853 0.902 1_655 S
H2825 C2854 0.950 . S
H2826 C2856 0.950 . S
H2827 C2857 0.950 . S
C2828 H2810 0.951 . S
C2828 C2829 1.366 . S
C2828 C2830 1.388 . S
C2829 C2828 1.366 . S
C2829 C2833 1.385 . S
C2830 H2811 0.951 1_455 S
C2830 C2828 1.388 . S
C2830 C2831 1.366 . S
C2831 C2830 1.366 . S
C2831 C2832 1.414 . S
C2831 C2834 1.499 . S
C2832 H2812 0.950 . S
C2832 C2831 1.414 . S
C2832 C2833 1.374 . S
C2833 H2813 0.950 . S
C2833 C2829 1.385 . S
C2833 C2832 1.374 . S
C2834 C2831 1.499 . S
C2834 C2835 1.373 . S
C2834 C2836 1.389 . S
C2835 H2814 0.950 . S
C2835 C2834 1.373 . S
C2835 C2851 1.377 . S
C2836 C2834 1.389 . S
C2836 C2837 1.524 1_455 S
C2836 C2850 1.377 1_455 S
C2837 C2836 1.524 1_655 S
C2837 C2838 1.397 1_655 S
C2837 C2842 1.363 . S
C2838 H2815 0.950 . S
C2838 C2837 1.397 1_455 S
C2838 C2839 1.320 1_455 S
C2839 H2816 0.928 1_655 S
C2839 C2838 1.320 1_655 S
C2839 C2840 1.325 . S
C2840 C2839 1.325 . S
C2840 C2841 1.524 . S
C2840 H2859 0.913 . S
C2841 H2817 0.950 . S
C2841 C2840 1.524 . S
C2841 C2842 1.415 . S
C2842 H2818 0.950 . S
C2842 C2837 1.363 . S
C2842 C2841 1.415 . S
C2843 H2819 0.951 . S
C2843 C2844 1.366 1_455 S
C2843 C2845 1.388 . S
C2844 C2843 1.366 1_655 S
C2844 C2848 1.385 . S
C2845 H2820 0.951 . S
C2845 C2843 1.388 . S
C2845 C2846 1.366 1_455 S
C2846 C2845 1.366 1_655 S
C2846 C2847 1.414 . S
C2846 C2849 1.499 1_655 S
C2847 H2821 0.950 . S
C2847 C2846 1.414 . S
C2847 C2848 1.374 . S
C2848 H2822 0.950 . S
C2848 C2844 1.385 . S
C2848 C2847 1.374 . S
C2849 C2846 1.499 1_455 S
C2849 C2850 1.373 1_455 S
C2849 C2851 1.389 . S
C2850 H2823 0.950 . S
C2850 C2836 1.377 1_655 S
C2850 C2849 1.373 1_655 S
C2851 C2835 1.377 . S
C2851 C2849 1.389 . S
C2851 C2852 1.524 . S
C2852 C2851 1.524 . S
C2852 C2853 1.397 1_545 S
C2852 C2857 1.363 . S
C2853 H2824 0.902 1_455 S
C2853 C2852 1.397 1_565 S
C2853 C2854 1.334 . S
C2854 H2825 0.950 . S
C2854 C2853 1.334 . S
C2854 C2855 1.287 . S
C2855 C2854 1.287 . S
C2855 C2856 1.524 . S
C2855 H2858 0.999 . S
C2856 H2826 0.950 . S
C2856 C2855 1.524 . S
C2856 C2857 1.415 1_565 S
C2857 H2827 0.950 . S
C2857 C2852 1.363 . S
C2857 C2856 1.415 1_545 S
H2858 C2855 0.999 . S
H2859 C2840 0.913 . S
H2860 C2878 0.951 . S
H2861 C2880 0.951 . S
H2862 C2882 0.950 . S
H2863 C2883 0.950 . S
H2864 C2885 0.950 . S
H2865 C2888 0.950 . S
H2866 C2889 0.950 . S
H2867 C2891 0.950 . S
H2868 C2892 0.950 . S
H2869 C2893 0.951 . S
H2870 C2895 0.951 . S
H2871 C2897 0.950 . S
H2872 C2898 0.950 . S
H2873 C2900 0.950 . S
H2874 C2903 0.950 . S
H2875 C2904 0.950 . S
H2876 C2906 0.950 . S
H2877 C2907 0.950 . S
C2878 H2860 0.951 . S
C2878 C2879 1.366 . S
C2878 C2880 1.388 . S
C2879 C2878 1.366 . S
C2879 C2883 1.385 . S
C2880 H2861 0.951 . S
C2880 C2878 1.388 . S
C2880 C2881 1.366 . S
C2881 C2880 1.366 . S
C2881 C2882 1.414 . S
C2881 C2884 1.499 . S
C2882 H2862 0.950 . S
C2882 C2881 1.414 . S
C2882 C2883 1.374 . S
C2883 H2863 0.950 . S
C2883 C2879 1.385 . S
C2883 C2882 1.374 . S
C2884 C2881 1.499 . S
C2884 C2885 1.373 . S
C2884 C2886 1.389 . S
C2885 H2864 0.950 . S
C2885 C2884 1.373 . S
C2885 C2901 1.377 . S
C2886 C2884 1.389 . S
C2886 C2887 1.524 . S
C2886 C2900 1.377 . S
C2887 C2886 1.524 . S
C2887 C2888 1.397 . S
C2887 C2892 1.363 . S
C2888 H2865 0.950 . S
C2888 C2887 1.397 . S
C2888 C2889 1.334 . S
C2889 H2866 0.950 . S
C2889 C2888 1.334 . S
C2889 C2890 1.287 . S
C2890 C2889 1.287 . S
C2890 C2891 1.524 . S
C2890 H2909 0.913 . S
C2891 H2867 0.950 . S
C2891 C2890 1.524 . S
C2891 C2892 1.415 . S
C2892 H2868 0.950 . S
C2892 C2887 1.363 . S
C2892 C2891 1.415 . S
C2893 H2869 0.951 . S
C2893 C2894 1.366 . S
C2893 C2895 1.388 . S
C2894 C2893 1.366 . S
C2894 C2898 1.385 . S
C2895 H2870 0.951 . S
C2895 C2893 1.388 . S
C2895 C2896 1.366 . S
C2896 C2895 1.366 . S
C2896 C2897 1.414 . S
C2896 C2899 1.499 . S
C2897 H2871 0.950 . S
C2897 C2896 1.414 . S
C2897 C2898 1.374 . S
C2898 H2872 0.950 . S
C2898 C2894 1.385 . S
C2898 C2897 1.374 . S
C2899 C2896 1.499 . S
C2899 C2900 1.373 . S
C2899 C2901 1.389 . S
C2900 H2873 0.950 . S
C2900 C2886 1.377 . S
C2900 C2899 1.373 . S
C2901 C2885 1.377 . S
C2901 C2899 1.389 . S
C2901 C2902 1.524 . S
C2902 C2901 1.524 . S
C2902 C2903 1.397 . S
C2902 C2907 1.363 . S
C2903 H2874 0.950 . S
C2903 C2902 1.397 . S
C2903 C2904 1.334 . S
C2904 H2875 0.950 . S
C2904 C2903 1.334 . S
C2904 C2905 1.287 . S
C2905 C2904 1.287 . S
C2905 C2906 1.524 . S
C2905 H2908 0.999 . S
C2906 H2876 0.950 . S
C2906 C2905 1.524 . S
C2906 C2907 1.415 . S
C2907 H2877 0.950 . S
C2907 C2902 1.363 . S
C2907 C2906 1.415 . S
H2908 C2905 0.999 . S
H2909 C2890 0.913 . S
H2910 C2928 0.951 . S
H2911 C2930 0.951 . S
H2912 C2932 0.950 . S
H2913 C2933 0.950 . S
H2914 C2935 0.950 . S
H2915 C2938 0.950 . S
H2916 C2939 0.950 . S
H2917 C2941 0.950 . S
H2918 C2942 0.950 . S
H2919 C2943 0.951 . S
H2920 C2945 0.951 . S
H2921 C2947 0.950 . S
H2922 C2948 0.950 . S
H2923 C2950 0.950 . S
H2924 C2953 0.950 . S
H2925 C2954 0.950 . S
H2926 C2956 0.950 1_655 S
H2927 C2957 0.950 . S
C2928 H2910 0.951 . S
C2928 C2929 1.366 . S
C2928 C2930 1.388 . S
C2929 C2928 1.366 . S
C2929 C2933 1.385 . S
C2930 H2911 0.951 . S
C2930 C2928 1.388 . S
C2930 C2931 1.366 . S
C2931 C2930 1.366 . S
C2931 C2932 1.414 . S
C2931 C2934 1.499 . S
C2932 H2912 0.950 . S
C2932 C2931 1.414 . S
C2932 C2933 1.374 . S
C2933 H2913 0.950 . S
C2933 C2929 1.385 . S
C2933 C2932 1.374 . S
C2934 C2931 1.499 . S
C2934 C2935 1.373 . S
C2934 C2936 1.389 . S
C2935 H2914 0.950 . S
C2935 C2934 1.373 . S
C2935 C2951 1.377 . S
C2936 C2934 1.389 . S
C2936 C2937 1.524 . S
C2936 C2950 1.377 . S
C2937 C2936 1.524 . S
C2937 C2938 1.397 . S
C2937 C2942 1.363 . S
C2938 H2915 0.950 . S
C2938 C2937 1.397 . S
C2938 C2939 1.334 . S
C2939 H2916 0.950 . S
C2939 C2938 1.334 . S
C2939 C2940 1.287 . S
C2940 C2939 1.287 . S
C2940 C2941 1.524 . S
C2940 H2959 0.913 . S
C2941 H2917 0.950 . S
C2941 C2940 1.524 . S
C2941 C2942 1.415 . S
C2942 H2918 0.950 . S
C2942 C2937 1.363 . S
C2942 C2941 1.415 . S
C2943 H2919 0.951 . S
C2943 C2944 1.366 . S
C2943 C2945 1.388 . S
C2944 C2943 1.366 . S
C2944 C2948 1.385 . S
C2945 H2920 0.951 . S
C2945 C2943 1.388 . S
C2945 C2946 1.366 . S
C2946 C2945 1.366 . S
C2946 C2947 1.414 . S
C2946 C2949 1.499 . S
C2947 H2921 0.950 . S
C2947 C2946 1.414 . S
C2947 C2948 1.374 . S
C2948 H2922 0.950 . S
C2948 C2944 1.385 . S
C2948 C2947 1.374 . S
C2949 C2946 1.499 . S
C2949 C2950 1.373 . S
C2949 C2951 1.389 . S
C2950 H2923 0.950 . S
C2950 C2936 1.377 . S
C2950 C2949 1.373 . S
C2951 C2935 1.377 . S
C2951 C2949 1.389 . S
C2951 C2952 1.524 . S
C2952 C2951 1.524 . S
C2952 C2953 1.397 . S
C2952 C2957 1.363 . S
C2953 H2924 0.950 . S
C2953 C2952 1.397 . S
C2953 C2954 1.334 . S
C2954 H2925 0.950 . S
C2954 C2953 1.334 . S
C2954 C2955 1.287 . S
C2955 C2954 1.287 . S
C2955 C2956 1.524 . S
C2955 H2958 0.999 . S
C2956 H2926 0.950 1_455 S
C2956 C2955 1.524 . S
C2956 C2957 1.415 . S
C2957 H2927 0.950 . S
C2957 C2952 1.363 . S
C2957 C2956 1.415 . S
H2958 C2955 0.999 . S
H2959 C2940 0.913 . S
H2960 C2978 0.951 . S
H2961 C2980 0.951 . S
H2962 C2982 0.950 . S
H2963 C2983 0.950 . S
H2964 C2985 0.950 . S
H2965 C2988 0.950 . S
H2966 C2989 0.950 . S
H2967 C2991 0.950 . S
H2968 C2992 0.950 . S
H2969 C2993 0.951 . S
H2970 C2995 0.951 . S
H2971 C2997 0.950 . S
H2972 C2998 0.950 . S
H2973 C3000 0.950 . S
H2974 C3003 0.950 . S
H2975 C3004 0.950 . S
H2976 C3006 0.950 . S
H2977 C3007 0.950 . S
C2978 H2960 0.951 . S
C2978 C2979 1.366 . S
C2978 C2980 1.388 . S
C2979 C2978 1.366 . S
C2979 C2983 1.385 . S
C2980 H2961 0.951 . S
C2980 C2978 1.388 . S
C2980 C2981 1.366 . S
C2981 C2980 1.366 . S
C2981 C2982 1.414 . S
C2981 C2984 1.499 . S
C2982 H2962 0.950 . S
C2982 C2981 1.414 . S
C2982 C2983 1.374 . S
C2983 H2963 0.950 . S
C2983 C2979 1.385 . S
C2983 C2982 1.374 . S
C2984 C2981 1.499 . S
C2984 C2985 1.373 . S
C2984 C2986 1.389 . S
C2985 H2964 0.950 . S
C2985 C2984 1.373 . S
C2985 C3001 1.377 . S
C2986 C2984 1.389 . S
C2986 C2987 1.524 . S
C2986 C3000 1.377 . S
C2987 C2986 1.524 . S
C2987 C2988 1.397 . S
C2987 C2992 1.363 . S
C2988 H2965 0.950 . S
C2988 C2987 1.397 . S
C2988 C2989 1.334 . S
C2989 H2966 0.950 . S
C2989 C2988 1.334 . S
C2989 C2990 1.287 . S
C2990 C2989 1.287 . S
C2990 C2991 1.524 . S
C2990 H3009 0.913 . S
C2991 H2967 0.950 . S
C2991 C2990 1.524 . S
C2991 C2992 1.415 . S
C2992 H2968 0.950 . S
C2992 C2987 1.363 . S
C2992 C2991 1.415 . S
C2993 H2969 0.951 . S
C2993 C2994 1.366 . S
C2993 C2995 1.388 . S
C2994 C2993 1.366 . S
C2994 C2998 1.385 . S
C2995 H2970 0.951 . S
C2995 C2993 1.388 . S
C2995 C2996 1.366 . S
C2996 C2995 1.366 . S
C2996 C2997 1.414 . S
C2996 C2999 1.499 . S
C2997 H2971 0.950 . S
C2997 C2996 1.414 . S
C2997 C2998 1.374 . S
C2998 H2972 0.950 . S
C2998 C2994 1.385 . S
C2998 C2997 1.374 . S
C2999 C2996 1.499 . S
C2999 C3000 1.373 . S
C2999 C3001 1.389 . S
C3000 H2973 0.950 . S
C3000 C2986 1.377 . S
C3000 C2999 1.373 . S
C3001 C2985 1.377 . S
C3001 C2999 1.389 . S
C3001 C3002 1.524 . S
C3002 C3001 1.524 . S
C3002 C3003 1.397 . S
C3002 C3007 1.363 . S
C3003 H2974 0.950 . S
C3003 C3002 1.397 . S
C3003 C3004 1.334 . S
C3004 H2975 0.950 . S
C3004 C3003 1.334 . S
C3004 C3005 1.287 . S
C3005 C3004 1.287 . S
C3005 C3006 1.524 . S
C3005 H3008 0.999 . S
C3006 H2976 0.950 . S
C3006 C3005 1.524 . S
C3006 C3007 1.415 . S
C3007 H2977 0.950 . S
C3007 C3002 1.363 . S
C3007 C3006 1.415 . S
H3008 C3005 0.999 . S
H3009 C2990 0.913 . S
H3010 C3028 0.951 . S
H3011 C3030 0.951 . S
H3012 C3032 0.950 . S
H3013 C3033 0.950 . S
H3014 C3035 0.950 . S
H3015 C3038 0.950 . S
H3016 C3039 0.950 1_455 S
H3017 C3041 0.950 . S
H3018 C3042 0.950 . S
H3019 C3043 0.951 . S
H3020 C3045 0.951 . S
H3021 C3047 0.950 . S
H3022 C3048 0.950 . S
H3023 C3050 0.950 . S
H3024 C3053 0.950 1_655 S
H3025 C3054 0.950 . S
H3026 C3056 0.950 . S
H3027 C3057 0.950 . S
C3028 H3010 0.951 . S
C3028 C3029 1.366 1_655 S
C3028 C3030 1.388 . S
C3029 C3028 1.366 1_455 S
C3029 C3033 1.385 . S
C3030 H3011 0.951 . S
C3030 C3028 1.388 . S
C3030 C3031 1.366 1_655 S
C3031 C3030 1.366 1_455 S
C3031 C3032 1.414 . S
C3031 C3034 1.499 . S
C3032 H3012 0.950 . S
C3032 C3031 1.414 . S
C3032 C3033 1.374 . S
C3033 H3013 0.950 . S
C3033 C3029 1.385 . S
C3033 C3032 1.374 . S
C3034 C3031 1.499 . S
C3034 C3035 1.373 . S
C3034 C3036 1.389 1_455 S
C3035 H3014 0.950 . S
C3035 C3034 1.373 . S
C3035 C3051 1.377 . S
C3036 C3034 1.389 1_655 S
C3036 C3037 1.524 . S
C3036 C3050 1.377 . S
C3037 C3036 1.524 . S
C3037 C3038 1.397 1_655 S
C3037 C3042 1.363 . S
C3038 H3015 0.950 . S
C3038 C3037 1.397 1_455 S
C3038 C3039 1.334 1_456 S
C3039 H3016 0.950 1_655 S
C3039 C3038 1.334 1_654 S
C3039 C3040 1.287 . S
C3040 C3039 1.287 . S
C3040 C3041 1.524 1_554 S
C3040 H3059 0.913 . S
C3041 H3017 0.950 . S
C3041 C3040 1.524 1_556 S
C3041 C3042 1.415 . S
C3042 H3018 0.950 . S
C3042 C3037 1.363 . S
C3042 C3041 1.415 . S
C3043 H3019 0.951 . S
C3043 C3044 1.366 . S
C3043 C3045 1.388 . S
C3044 C3043 1.366 . S
C3044 C3048 1.385 1_455 S
C3045 H3020 0.951 . S
C3045 C3043 1.388 . S
C3045 C3046 1.366 . S
C3046 C3045 1.366 . S
C3046 C3047 1.414 1_455 S
C3046 C3049 1.499 . S
C3047 H3021 0.950 . S
C3047 C3046 1.414 1_655 S
C3047 C3048 1.374 . S
C3048 H3022 0.950 . S
C3048 C3044 1.385 1_655 S
C3048 C3047 1.374 . S
C3049 C3046 1.499 . S
C3049 C3050 1.373 1_455 S
C3049 C3051 1.389 . S
C3050 H3023 0.950 . S
C3050 C3036 1.377 . S
C3050 C3049 1.373 1_655 S
C3051 C3035 1.377 . S
C3051 C3049 1.389 . S
C3051 C3052 1.524 . S
C3052 C3051 1.524 . S
C3052 C3053 1.397 . S
C3052 C3057 1.363 . S
C3053 H3024 0.950 1_455 S
C3053 C3052 1.397 . S
C3053 C3054 1.334 . S
C3054 H3025 0.950 . S
C3054 C3053 1.334 . S
C3054 C3055 1.287 . S
C3055 C3054 1.287 . S
C3055 C3056 1.524 . S
C3055 H3058 0.999 . S
C3056 H3026 0.950 . S
C3056 C3055 1.524 . S
C3056 C3057 1.415 . S
C3057 H3027 0.950 . S
C3057 C3052 1.363 . S
C3057 C3056 1.415 . S
H3058 C3055 0.999 . S
H3059 C3040 0.913 . S
H3060 C3078 0.951 . S
H3061 C3080 0.951 . S
H3062 C3082 0.950 . S
H3063 C3083 0.950 . S
H3064 C3085 0.950 . S
H3065 C3088 0.950 . S
H3066 C3089 0.950 . S
H3067 C3091 0.950 . S
H3068 C3092 0.950 . S
H3069 C3093 0.951 . S
H3070 C3095 0.951 . S
H3071 C3097 0.950 . S
H3072 C3098 0.950 . S
H3073 C3100 0.950 . S
H3074 C3103 0.950 . S
H3075 C3104 0.950 . S
H3076 C3106 0.950 . S
H3077 C3107 0.950 . S
C3078 H3060 0.951 . S
C3078 C3079 1.366 . S
C3078 C3080 1.388 . S
C3079 C3078 1.366 . S
C3079 C3083 1.385 . S
C3080 H3061 0.951 . S
C3080 C3078 1.388 . S
C3080 C3081 1.366 . S
C3081 C3080 1.366 . S
C3081 C3082 1.414 . S
C3081 C3084 1.499 . S
C3082 H3062 0.950 . S
C3082 C3081 1.414 . S
C3082 C3083 1.374 . S
C3083 H3063 0.950 . S
C3083 C3079 1.385 . S
C3083 C3082 1.374 . S
C3084 C3081 1.499 . S
C3084 C3085 1.373 . S
C3084 C3086 1.389 . S
C3085 H3064 0.950 . S
C3085 C3084 1.373 . S
C3085 C3101 1.377 . S
C3086 C3084 1.389 . S
C3086 C3087 1.524 . S
C3086 C3100 1.377 . S
C3087 C3086 1.524 . S
C3087 C3088 1.397 . S
C3087 C3092 1.363 . S
C3088 H3065 0.950 . S
C3088 C3087 1.397 . S
C3088 C3089 1.334 . S
C3089 H3066 0.950 . S
C3089 C3088 1.334 . S
C3089 C3090 1.287 . S
C3090 C3089 1.287 . S
C3090 C3091 1.524 . S
C3090 H3109 0.913 . S
C3091 H3067 0.950 . S
C3091 C3090 1.524 . S
C3091 C3092 1.415 . S
C3092 H3068 0.950 . S
C3092 C3087 1.363 . S
C3092 C3091 1.415 . S
C3093 H3069 0.951 . S
C3093 C3094 1.366 . S
C3093 C3095 1.388 . S
C3094 C3093 1.366 . S
C3094 C3098 1.385 . S
C3095 H3070 0.951 . S
C3095 C3093 1.388 . S
C3095 C3096 1.366 . S
C3096 C3095 1.366 . S
C3096 C3097 1.414 . S
C3096 C3099 1.499 . S
C3097 H3071 0.950 . S
C3097 C3096 1.414 . S
C3097 C3098 1.374 . S
C3098 H3072 0.950 . S
C3098 C3094 1.385 . S
C3098 C3097 1.374 . S
C3099 C3096 1.499 . S
C3099 C3100 1.373 . S
C3099 C3101 1.389 . S
C3100 H3073 0.950 . S
C3100 C3086 1.377 . S
C3100 C3099 1.373 . S
C3101 C3085 1.377 . S
C3101 C3099 1.389 . S
C3101 C3102 1.524 . S
C3102 C3101 1.524 . S
C3102 C3103 1.397 . S
C3102 C3107 1.363 . S
C3103 H3074 0.950 . S
C3103 C3102 1.397 . S
C3103 C3104 1.334 . S
C3104 H3075 0.950 . S
C3104 C3103 1.334 . S
C3104 C3105 1.287 . S
C3105 C3104 1.287 . S
C3105 C3106 1.524 . S
C3105 H3108 0.999 . S
C3106 H3076 0.950 . S
C3106 C3105 1.524 . S
C3106 C3107 1.415 . S
C3107 H3077 0.950 . S
C3107 C3102 1.363 . S
C3107 C3106 1.415 . S
H3108 C3105 0.999 . S
H3109 C3090 0.913 . S
H3110 C3128 0.951 1_554 S
H3111 C3130 0.951 . S
H3112 C3132 0.950 . S
H3113 C3133 0.950 . S
H3114 C3135 0.950 . S
H3115 C3138 0.950 . S
H3116 C3139 0.950 . S
H3117 C3141 0.950 . S
H3118 C3142 0.950 . S
H3119 C3143 0.951 . S
H3120 C3145 0.919 1_655 S
H3121 C3147 0.950 . S
H3122 C3148 0.950 . S
H3123 C3150 0.950 . S
H3124 C3153 0.950 . S
H3125 C3154 0.950 . S
H3126 C3156 0.998 . S
H3127 C3157 0.950 1_655 S
C3128 H3110 0.951 1_556 S
C3128 C3129 1.366 . S
C3128 C3130 1.388 . S
C3129 C3128 1.366 . S
C3129 C3133 1.385 . S
C3130 H3111 0.951 . S
C3130 C3128 1.388 . S
C3130 C3131 1.366 . S
C3131 C3130 1.366 . S
C3131 C3132 1.414 . S
C3131 C3134 1.499 . S
C3132 H3112 0.950 . S
C3132 C3131 1.414 . S
C3132 C3133 1.374 . S
C3133 H3113 0.950 . S
C3133 C3129 1.385 . S
C3133 C3132 1.374 . S
C3134 C3131 1.499 . S
C3134 C3135 1.373 . S
C3134 C3136 1.389 . S
C3135 H3114 0.950 . S
C3135 C3134 1.373 . S
C3135 C3151 1.377 . S
C3136 C3134 1.389 . S
C3136 C3137 1.524 . S
C3136 C3150 1.377 . S
C3137 C3136 1.524 . S
C3137 C3138 1.397 . S
C3137 C3142 1.363 . S
C3138 H3115 0.950 . S
C3138 C3137 1.397 . S
C3138 C3139 1.334 1_556 S
C3139 H3116 0.950 . S
C3139 C3138 1.334 1_554 S
C3139 C3140 1.287 . S
C3140 C3139 1.287 . S
C3140 C3141 1.524 . S
C3140 H3159 0.913 . S
C3141 H3117 0.950 . S
C3141 C3140 1.524 . S
C3141 C3142 1.415 1_554 S
C3142 H3118 0.950 . S
C3142 C3137 1.363 . S
C3142 C3141 1.415 1_556 S
C3143 H3119 0.951 . S
C3143 C3144 1.366 1_655 S
C3143 C3145 1.377 1_655 S
C3144 C3143 1.366 1_455 S
C3144 C3148 1.385 . S
C3145 H3120 0.919 1_455 S
C3145 C3143 1.377 1_455 S
C3145 C3146 1.411 . S
C3146 C3145 1.411 . S
C3146 C3147 1.414 . S
C3146 C3149 1.499 . S
C3147 H3121 0.950 . S
C3147 C3146 1.414 . S
C3147 C3148 1.374 . S
C3148 H3122 0.950 . S
C3148 C3144 1.385 . S
C3148 C3147 1.374 . S
C3149 C3146 1.499 . S
C3149 C3150 1.373 . S
C3149 C3151 1.389 . S
C3150 H3123 0.950 . S
C3150 C3136 1.377 . S
C3150 C3149 1.373 . S
C3151 C3135 1.377 . S
C3151 C3149 1.389 . S
C3151 C3152 1.524 . S
C3152 C3151 1.524 . S
C3152 C3153 1.397 . S
C3152 C3157 1.363 . S
C3153 H3124 0.950 . S
C3153 C3152 1.397 . S
C3153 C3154 1.334 . S
C3154 H3125 0.950 . S
C3154 C3153 1.334 . S
C3154 C3155 1.287 . S
C3155 C3154 1.287 . S
C3155 C3156 1.475 1_455 S
C3155 H3158 0.999 . S
C3156 H3126 0.998 . S
C3156 C3155 1.475 1_655 S
C3156 C3157 1.412 1_655 S
C3157 H3127 0.950 1_455 S
C3157 C3152 1.363 . S
C3157 C3156 1.412 1_455 S
H3158 C3155 0.999 . S
H3159 C3140 0.913 . S
H3160 C3178 0.951 . S
H3161 C3180 0.951 . S
H3162 C3182 0.950 . S
H3163 C3183 0.950 . S
H3164 C3185 0.950 . S
H3165 C3188 0.950 . S
H3166 C3189 0.950 . S
H3167 C3191 0.950 . S
H3168 C3192 0.950 . S
H3169 C3193 0.951 . S
H3170 C3195 0.951 . S
H3171 C3197 0.950 . S
H3172 C3198 0.950 . S
H3173 C3200 0.950 . S
H3174 C3203 0.950 . S
H3175 C3204 0.950 . S
H3176 C3206 0.950 . S
H3177 C3207 0.950 . S
C3178 H3160 0.951 . S
C3178 C3179 1.366 . S
C3178 C3180 1.388 . S
C3179 C3178 1.366 . S
C3179 C3183 1.385 . S
C3180 H3161 0.951 . S
C3180 C3178 1.388 . S
C3180 C3181 1.366 . S
C3181 C3180 1.366 . S
C3181 C3182 1.414 . S
C3181 C3184 1.499 . S
C3182 H3162 0.950 . S
C3182 C3181 1.414 . S
C3182 C3183 1.374 . S
C3183 H3163 0.950 . S
C3183 C3179 1.385 . S
C3183 C3182 1.374 . S
C3184 C3181 1.499 . S
C3184 C3185 1.373 . S
C3184 C3186 1.389 . S
C3185 H3164 0.950 . S
C3185 C3184 1.373 . S
C3185 C3201 1.377 . S
C3186 C3184 1.389 . S
C3186 C3187 1.524 . S
C3186 C3200 1.377 . S
C3187 C3186 1.524 . S
C3187 C3188 1.397 . S
C3187 C3192 1.363 . S
C3188 H3165 0.950 . S
C3188 C3187 1.397 . S
C3188 C3189 1.334 . S
C3189 H3166 0.950 . S
C3189 C3188 1.334 . S
C3189 C3190 1.287 . S
C3190 C3189 1.287 . S
C3190 C3191 1.524 . S
C3190 H3209 0.913 . S
C3191 H3167 0.950 . S
C3191 C3190 1.524 . S
C3191 C3192 1.415 . S
C3192 H3168 0.950 . S
C3192 C3187 1.363 . S
C3192 C3191 1.415 . S
C3193 H3169 0.951 . S
C3193 C3194 1.366 . S
C3193 C3195 1.388 . S
C3194 C3193 1.366 . S
C3194 C3198 1.385 . S
C3195 H3170 0.951 . S
C3195 C3193 1.388 . S
C3195 C3196 1.366 . S
C3196 C3195 1.366 . S
C3196 C3197 1.414 . S
C3196 C3199 1.499 . S
C3197 H3171 0.950 . S
C3197 C3196 1.414 . S
C3197 C3198 1.374 . S
C3198 H3172 0.950 . S
C3198 C3194 1.385 . S
C3198 C3197 1.374 . S
C3199 C3196 1.499 . S
C3199 C3200 1.373 . S
C3199 C3201 1.389 . S
C3200 H3173 0.950 . S
C3200 C3186 1.377 . S
C3200 C3199 1.373 . S
C3201 C3185 1.377 . S
C3201 C3199 1.389 . S
C3201 C3202 1.524 . S
C3202 C3201 1.524 . S
C3202 C3203 1.397 . S
C3202 C3207 1.363 . S
C3203 H3174 0.950 . S
C3203 C3202 1.397 . S
C3203 C3204 1.334 . S
C3204 H3175 0.950 . S
C3204 C3203 1.334 . S
C3204 C3205 1.287 . S
C3205 C3204 1.287 . S
C3205 C3206 1.524 . S
C3205 H3208 0.999 . S
C3206 H3176 0.950 . S
C3206 C3205 1.524 . S
C3206 C3207 1.415 . S
C3207 H3177 0.950 . S
C3207 C3202 1.363 . S
C3207 C3206 1.415 . S
H3208 C3205 0.999 . S
H3209 C3190 0.913 . S
H3210 C3228 0.951 . S
H3211 C3230 0.951 . S
H3212 C3232 0.950 . S
H3213 C3233 0.950 . S
H3214 C3235 0.950 . S
H3215 C3238 0.950 . S
H3216 C3239 0.950 . S
H3217 C3241 0.950 . S
H3218 C3242 0.950 . S
H3219 C3243 0.951 . S
H3220 C3245 0.951 . S
H3221 C3247 0.950 . S
H3222 C3248 0.950 . S
H3223 C3250 0.950 . S
H3224 C3253 0.950 . S
H3225 C3254 0.950 . S
H3226 C3256 0.950 . S
H3227 C3257 0.950 . S
C3228 H3210 0.951 . S
C3228 C3229 1.366 . S
C3228 C3230 1.388 . S
C3229 C3228 1.366 . S
C3229 C3233 1.385 . S
C3230 H3211 0.951 . S
C3230 C3228 1.388 . S
C3230 C3231 1.366 . S
C3231 C3230 1.366 . S
C3231 C3232 1.414 . S
C3231 C3234 1.499 . S
C3232 H3212 0.950 . S
C3232 C3231 1.414 . S
C3232 C3233 1.374 . S
C3233 H3213 0.950 . S
C3233 C3229 1.385 . S
C3233 C3232 1.374 . S
C3234 C3231 1.499 . S
C3234 C3235 1.373 . S
C3234 C3236 1.389 . S
C3235 H3214 0.950 . S
C3235 C3234 1.373 . S
C3235 C3251 1.377 . S
C3236 C3234 1.389 . S
C3236 C3237 1.524 . S
C3236 C3250 1.377 . S
C3237 C3236 1.524 . S
C3237 C3238 1.397 . S
C3237 C3242 1.363 . S
C3238 H3215 0.950 . S
C3238 C3237 1.397 . S
C3238 C3239 1.334 . S
C3239 H3216 0.950 . S
C3239 C3238 1.334 . S
C3239 C3240 1.287 . S
C3240 C3239 1.287 . S
C3240 C3241 1.524 . S
C3240 H3259 0.913 . S
C3241 H3217 0.950 . S
C3241 C3240 1.524 . S
C3241 C3242 1.415 . S
C3242 H3218 0.950 . S
C3242 C3237 1.363 . S
C3242 C3241 1.415 . S
C3243 H3219 0.951 . S
C3243 C3244 1.366 . S
C3243 C3245 1.388 . S
C3244 C3243 1.366 . S
C3244 C3248 1.385 . S
C3245 H3220 0.951 . S
C3245 C3243 1.388 . S
C3245 C3246 1.366 . S
C3246 C3245 1.366 . S
C3246 C3247 1.414 . S
C3246 C3249 1.499 . S
C3247 H3221 0.950 . S
C3247 C3246 1.414 . S
C3247 C3248 1.374 . S
C3248 H3222 0.950 . S
C3248 C3244 1.385 . S
C3248 C3247 1.374 . S
C3249 C3246 1.499 . S
C3249 C3250 1.373 . S
C3249 C3251 1.389 . S
C3250 H3223 0.950 . S
C3250 C3236 1.377 . S
C3250 C3249 1.373 . S
C3251 C3235 1.377 . S
C3251 C3249 1.389 . S
C3251 C3252 1.524 . S
C3252 C3251 1.524 . S
C3252 C3253 1.397 . S
C3252 C3257 1.363 . S
C3253 H3224 0.950 . S
C3253 C3252 1.397 . S
C3253 C3254 1.334 . S
C3254 H3225 0.950 . S
C3254 C3253 1.334 . S
C3254 C3255 1.287 . S
C3255 C3254 1.287 . S
C3255 C3256 1.524 . S
C3255 H3258 0.999 . S
C3256 H3226 0.950 . S
C3256 C3255 1.524 . S
C3256 C3257 1.415 . S
C3257 H3227 0.950 . S
C3257 C3252 1.363 . S
C3257 C3256 1.415 . S
H3258 C3255 0.999 . S
H3259 C3240 0.913 . S
H3260 C3278 0.951 . S
H3261 C3280 0.951 . S
H3262 C3282 0.950 . S
H3263 C3283 0.950 . S
H3264 C3285 0.950 . S
H3265 C3288 0.950 . S
H3266 C3289 0.950 . S
H3267 C3291 0.950 . S
H3268 C3292 0.950 . S
H3269 C3293 0.951 . S
H3270 C3295 0.951 . S
H3271 C3297 0.950 . S
H3272 C3298 0.950 . S
H3273 C3300 0.950 . S
H3274 C3303 0.950 . S
H3275 C3304 0.950 . S
H3276 C3306 0.950 . S
H3277 C3307 0.950 . S
C3278 H3260 0.951 . S
C3278 C3279 1.366 . S
C3278 C3280 1.388 . S
C3279 C3278 1.366 . S
C3279 C3283 1.385 . S
C3280 H3261 0.951 . S
C3280 C3278 1.388 . S
C3280 C3281 1.366 . S
C3281 C3280 1.366 . S
C3281 C3282 1.414 . S
C3281 C3284 1.499 . S
C3282 H3262 0.950 . S
C3282 C3281 1.414 . S
C3282 C3283 1.374 . S
C3283 H3263 0.950 . S
C3283 C3279 1.385 . S
C3283 C3282 1.374 . S
C3284 C3281 1.499 . S
C3284 C3285 1.373 . S
C3284 C3286 1.389 . S
C3285 H3264 0.950 . S
C3285 C3284 1.373 . S
C3285 C3301 1.377 . S
C3286 C3284 1.389 . S
C3286 C3287 1.524 . S
C3286 C3300 1.377 . S
C3287 C3286 1.524 . S
C3287 C3288 1.397 . S
C3287 C3292 1.363 . S
C3288 H3265 0.950 . S
C3288 C3287 1.397 . S
C3288 C3289 1.334 . S
C3289 H3266 0.950 . S
C3289 C3288 1.334 . S
C3289 C3290 1.287 . S
C3290 C3289 1.287 . S
C3290 C3291 1.524 . S
C3290 H3309 0.913 . S
C3291 H3267 0.950 . S
C3291 C3290 1.524 . S
C3291 C3292 1.415 . S
C3292 H3268 0.950 . S
C3292 C3287 1.363 . S
C3292 C3291 1.415 . S
C3293 H3269 0.951 . S
C3293 C3294 1.366 . S
C3293 C3295 1.388 . S
C3294 C3293 1.366 . S
C3294 C3298 1.385 . S
C3295 H3270 0.951 . S
C3295 C3293 1.388 . S
C3295 C3296 1.366 . S
C3296 C3295 1.366 . S
C3296 C3297 1.414 . S
C3296 C3299 1.499 . S
C3297 H3271 0.950 . S
C3297 C3296 1.414 . S
C3297 C3298 1.374 . S
C3298 H3272 0.950 . S
C3298 C3294 1.385 . S
C3298 C3297 1.374 . S
C3299 C3296 1.499 . S
C3299 C3300 1.373 . S
C3299 C3301 1.389 . S
C3300 H3273 0.950 . S
C3300 C3286 1.377 . S
C3300 C3299 1.373 . S
C3301 C3285 1.377 . S
C3301 C3299 1.389 . S
C3301 C3302 1.524 . S
C3302 C3301 1.524 . S
C3302 C3303 1.397 . S
C3302 C3307 1.363 . S
C3303 H3274 0.950 . S
C3303 C3302 1.397 . S
C3303 C3304 1.334 . S
C3304 H3275 0.950 . S
C3304 C3303 1.334 . S
C3304 C3305 1.287 . S
C3305 C3304 1.287 . S
C3305 C3306 1.524 . S
C3305 H3308 0.999 . S
C3306 H3276 0.950 . S
C3306 C3305 1.524 . S
C3306 C3307 1.415 . S
C3307 H3277 0.950 . S
C3307 C3302 1.363 . S
C3307 C3306 1.415 . S
H3308 C3305 0.999 . S
H3309 C3290 0.913 . S
H3310 C3328 0.951 . S
H3311 C3330 0.951 . S
H3312 C3332 0.950 . S
H3313 C3333 0.950 . S
H3314 C3335 0.950 . S
H3315 C3338 0.946 . S
H3316 C3339 0.950 . S
H3317 C3341 0.950 . S
H3318 C3342 0.950 . S
H3319 C3343 0.951 . S
H3320 C3345 0.951 . S
H3321 C3347 0.950 . S
H3322 C3348 0.950 . S
H3323 C3350 0.950 . S
H3324 C3353 0.950 . S
H3325 C3354 0.950 . S
H3326 C3356 0.950 . S
H3327 C3357 0.950 . S
C3328 H3310 0.951 . S
C3328 C3329 1.366 . S
C3328 C3330 1.388 1_556 S
C3329 C3328 1.366 . S
C3329 C3333 1.385 . S
C3330 H3311 0.951 . S
C3330 C3328 1.388 1_554 S
C3330 C3331 1.366 . S
C3331 C3330 1.366 . S
C3331 C3332 1.414 1_554 S
C3331 C3334 1.499 . S
C3332 H3312 0.950 . S
C3332 C3331 1.414 1_556 S
C3332 C3333 1.374 . S
C3333 H3313 0.950 . S
C3333 C3329 1.385 . S
C3333 C3332 1.374 . S
C3334 C3331 1.499 . S
C3334 C3335 1.373 . S
C3334 C3336 1.389 . S
C3335 H3314 0.950 . S
C3335 C3334 1.373 . S
C3335 C3351 1.377 . S
C3336 C3334 1.389 . S
C3336 C3337 1.524 . S
C3336 C3350 1.377 . S
C3337 C3336 1.524 . S
C3337 C3338 1.397 . S
C3337 C3342 1.363 . S
C3338 H3315 0.946 . S
C3338 C3337 1.397 . S
C3338 C3339 1.334 1_554 S
C3339 H3316 0.950 . S
C3339 C3338 1.334 1_556 S
C3339 C3340 1.287 1_556 S
C3340 C3339 1.287 1_554 S
C3340 C3341 1.524 . S
C3340 H3359 0.910 1_554 S
C3341 H3317 0.950 . S
C3341 C3340 1.524 . S
C3341 C3342 1.415 . S
C3342 H3318 0.950 . S
C3342 C3337 1.363 . S
C3342 C3341 1.415 . S
C3343 H3319 0.951 . S
C3343 C3344 1.366 . S
C3343 C3345 1.388 . S
C3344 C3343 1.366 . S
C3344 C3348 1.385 . S
C3345 H3320 0.951 . S
C3345 C3343 1.388 . S
C3345 C3346 1.366 . S
C3346 C3345 1.366 . S
C3346 C3347 1.414 . S
C3346 C3349 1.499 . S
C3347 H3321 0.950 . S
C3347 C3346 1.414 . S
C3347 C3348 1.374 . S
C3348 H3322 0.950 . S
C3348 C3344 1.385 . S
C3348 C3347 1.374 . S
C3349 C3346 1.499 . S
C3349 C3350 1.373 . S
C3349 C3351 1.389 . S
C3350 H3323 0.950 . S
C3350 C3336 1.377 . S
C3350 C3349 1.373 . S
C3351 C3335 1.377 . S
C3351 C3349 1.389 . S
C3351 C3352 1.524 . S
C3352 C3351 1.524 . S
C3352 C3353 1.397 . S
C3352 C3357 1.363 . S
C3353 H3324 0.950 . S
C3353 C3352 1.397 . S
C3353 C3354 1.334 . S
C3354 H3325 0.950 . S
C3354 C3353 1.334 . S
C3354 C3355 1.287 . S
C3355 C3354 1.287 . S
C3355 C3356 1.524 . S
C3355 H3358 0.999 . S
C3356 H3326 0.950 . S
C3356 C3355 1.524 . S
C3356 C3357 1.415 . S
C3357 H3327 0.950 . S
C3357 C3352 1.363 . S
C3357 C3356 1.415 . S
H3358 C3355 0.999 . S
H3359 C3340 0.910 1_556 S
H3360 C3378 0.951 . S
H3361 C3380 0.951 . S
H3362 C3382 0.950 . S
H3363 C3383 0.950 . S
H3364 C3385 0.950 . S
H3365 C3388 0.950 . S
H3366 C3389 0.950 . S
H3367 C3391 0.950 . S
H3368 C3392 0.950 . S
H3369 C3393 0.951 . S
H3370 C3395 0.951 . S
H3371 C3397 0.950 . S
H3372 C3398 0.950 . S
H3373 C3400 0.950 . S
H3374 C3403 0.950 . S
H3375 C3404 0.950 . S
H3376 C3406 0.950 . S
H3377 C3407 0.950 . S
C3378 H3360 0.951 . S
C3378 C3379 1.366 . S
C3378 C3380 1.388 . S
C3379 C3378 1.366 . S
C3379 C3383 1.385 . S
C3380 H3361 0.951 . S
C3380 C3378 1.388 . S
C3380 C3381 1.366 . S
C3381 C3380 1.366 . S
C3381 C3382 1.414 . S
C3381 C3384 1.499 . S
C3382 H3362 0.950 . S
C3382 C3381 1.414 . S
C3382 C3383 1.374 . S
C3383 H3363 0.950 . S
C3383 C3379 1.385 . S
C3383 C3382 1.374 . S
C3384 C3381 1.499 . S
C3384 C3385 1.373 . S
C3384 C3386 1.389 . S
C3385 H3364 0.950 . S
C3385 C3384 1.373 . S
C3385 C3401 1.377 . S
C3386 C3384 1.389 . S
C3386 C3387 1.524 . S
C3386 C3400 1.377 . S
C3387 C3386 1.524 . S
C3387 C3388 1.397 . S
C3387 C3392 1.363 . S
C3388 H3365 0.950 . S
C3388 C3387 1.397 . S
C3388 C3389 1.334 . S
C3389 H3366 0.950 . S
C3389 C3388 1.334 . S
C3389 C3390 1.287 . S
C3390 C3389 1.287 . S
C3390 C3391 1.524 . S
C3390 H3409 0.913 . S
C3391 H3367 0.950 . S
C3391 C3390 1.524 . S
C3391 C3392 1.415 . S
C3392 H3368 0.950 . S
C3392 C3387 1.363 . S
C3392 C3391 1.415 . S
C3393 H3369 0.951 . S
C3393 C3394 1.366 . S
C3393 C3395 1.388 . S
C3394 C3393 1.366 . S
C3394 C3398 1.385 . S
C3395 H3370 0.951 . S
C3395 C3393 1.388 . S
C3395 C3396 1.366 . S
C3396 C3395 1.366 . S
C3396 C3397 1.414 . S
C3396 C3399 1.499 . S
C3397 H3371 0.950 . S
C3397 C3396 1.414 . S
C3397 C3398 1.374 . S
C3398 H3372 0.950 . S
C3398 C3394 1.385 . S
C3398 C3397 1.374 . S
C3399 C3396 1.499 . S
C3399 C3400 1.373 . S
C3399 C3401 1.389 . S
C3400 H3373 0.950 . S
C3400 C3386 1.377 . S
C3400 C3399 1.373 . S
C3401 C3385 1.377 . S
C3401 C3399 1.389 . S
C3401 C3402 1.524 . S
C3402 C3401 1.524 . S
C3402 C3403 1.397 . S
C3402 C3407 1.363 . S
C3403 H3374 0.950 . S
C3403 C3402 1.397 . S
C3403 C3404 1.334 . S
C3404 H3375 0.950 . S
C3404 C3403 1.334 . S
C3404 C3405 1.287 . S
C3405 C3404 1.287 . S
C3405 C3406 1.524 . S
C3405 H3408 0.999 . S
C3406 H3376 0.950 . S
C3406 C3405 1.524 . S
C3406 C3407 1.415 . S
C3407 H3377 0.950 . S
C3407 C3402 1.363 . S
C3407 C3406 1.415 . S
H3408 C3405 0.999 . S
H3409 C3390 0.913 . S
H3410 C3428 0.951 . S
H3411 C3430 0.951 . S
H3412 C3432 0.950 . S
H3413 C3433 0.950 . S
H3414 C3435 0.950 . S
H3415 C3438 0.950 . S
H3416 C3439 0.950 . S
H3417 C3441 0.950 . S
H3418 C3442 0.950 . S
H3419 C3443 0.951 . S
H3420 C3445 0.951 . S
H3421 C3447 0.950 . S
H3422 C3448 0.950 . S
H3423 C3450 0.950 . S
H3424 C3453 0.950 . S
H3425 C3454 0.950 . S
H3426 C3456 0.950 . S
H3427 C3457 0.950 . S
C3428 H3410 0.951 . S
C3428 C3429 1.366 . S
C3428 C3430 1.388 . S
C3429 C3428 1.366 . S
C3429 C3433 1.385 . S
C3430 H3411 0.951 . S
C3430 C3428 1.388 . S
C3430 C3431 1.366 . S
C3431 C3430 1.366 . S
C3431 C3432 1.414 . S
C3431 C3434 1.499 . S
C3432 H3412 0.950 . S
C3432 C3431 1.414 . S
C3432 C3433 1.374 . S
C3433 H3413 0.950 . S
C3433 C3429 1.385 . S
C3433 C3432 1.374 . S
C3434 C3431 1.499 . S
C3434 C3435 1.373 . S
C3434 C3436 1.389 . S
C3435 H3414 0.950 . S
C3435 C3434 1.373 . S
C3435 C3451 1.377 . S
C3436 C3434 1.389 . S
C3436 C3437 1.524 . S
C3436 C3450 1.377 . S
C3437 C3436 1.524 . S
C3437 C3438 1.397 . S
C3437 C3442 1.363 . S
C3438 H3415 0.950 . S
C3438 C3437 1.397 . S
C3438 C3439 1.334 . S
C3439 H3416 0.950 . S
C3439 C3438 1.334 . S
C3439 C3440 1.287 . S
C3440 C3439 1.287 . S
C3440 C3441 1.524 . S
C3440 H3459 0.913 . S
C3441 H3417 0.950 . S
C3441 C3440 1.524 . S
C3441 C3442 1.415 . S
C3442 H3418 0.950 . S
C3442 C3437 1.363 . S
C3442 C3441 1.415 . S
C3443 H3419 0.951 . S
C3443 C3444 1.366 . S
C3443 C3445 1.388 . S
C3444 C3443 1.366 . S
C3444 C3448 1.385 . S
C3445 H3420 0.951 . S
C3445 C3443 1.388 . S
C3445 C3446 1.366 . S
C3446 C3445 1.366 . S
C3446 C3447 1.414 . S
C3446 C3449 1.499 . S
C3447 H3421 0.950 . S
C3447 C3446 1.414 . S
C3447 C3448 1.374 . S
C3448 H3422 0.950 . S
C3448 C3444 1.385 . S
C3448 C3447 1.374 . S
C3449 C3446 1.499 . S
C3449 C3450 1.373 . S
C3449 C3451 1.389 . S
C3450 H3423 0.950 . S
C3450 C3436 1.377 . S
C3450 C3449 1.373 . S
C3451 C3435 1.377 . S
C3451 C3449 1.389 . S
C3451 C3452 1.524 . S
C3452 C3451 1.524 . S
C3452 C3453 1.397 . S
C3452 C3457 1.363 . S
C3453 H3424 0.950 . S
C3453 C3452 1.397 . S
C3453 C3454 1.334 . S
C3454 H3425 0.950 . S
C3454 C3453 1.334 . S
C3454 C3455 1.287 . S
C3455 C3454 1.287 . S
C3455 C3456 1.524 . S
C3455 H3458 0.999 . S
C3456 H3426 0.950 . S
C3456 C3455 1.524 . S
C3456 C3457 1.415 . S
C3457 H3427 0.950 . S
C3457 C3452 1.363 . S
C3457 C3456 1.415 . S
H3458 C3455 0.999 . S
H3459 C3440 0.913 . S
H3460 C3478 0.951 . S
H3461 C3480 0.951 . S
H3462 C3482 0.950 . S
H3463 C3483 0.950 . S
H3464 C3485 0.950 . S
H3465 C3488 0.950 . S
H3466 C3489 0.950 . S
H3467 C3491 0.950 . S
H3468 C3492 0.950 . S
H3469 C3493 0.951 . S
H3470 C3495 0.951 . S
H3471 C3497 0.950 . S
H3472 C3498 0.950 . S
H3473 C3500 0.950 . S
H3474 C3503 0.950 . S
H3475 C3504 0.950 . S
H3476 C3506 0.950 . S
H3477 C3507 0.950 . S
C3478 H3460 0.951 . S
C3478 C3479 1.366 . S
C3478 C3480 1.388 . S
C3479 C3478 1.366 . S
C3479 C3483 1.385 . S
C3480 H3461 0.951 . S
C3480 C3478 1.388 . S
C3480 C3481 1.366 . S
C3481 C3480 1.366 . S
C3481 C3482 1.414 . S
C3481 C3484 1.499 . S
C3482 H3462 0.950 . S
C3482 C3481 1.414 . S
C3482 C3483 1.374 . S
C3483 H3463 0.950 . S
C3483 C3479 1.385 . S
C3483 C3482 1.374 . S
C3484 C3481 1.499 . S
C3484 C3485 1.373 . S
C3484 C3486 1.389 . S
C3485 H3464 0.950 . S
C3485 C3484 1.373 . S
C3485 C3501 1.377 . S
C3486 C3484 1.389 . S
C3486 C3487 1.524 . S
C3486 C3500 1.377 . S
C3487 C3486 1.524 . S
C3487 C3488 1.397 . S
C3487 C3492 1.363 . S
C3488 H3465 0.950 . S
C3488 C3487 1.397 . S
C3488 C3489 1.334 . S
C3489 H3466 0.950 . S
C3489 C3488 1.334 . S
C3489 C3490 1.287 . S
C3490 C3489 1.287 . S
C3490 C3491 1.524 . S
C3490 H3509 0.913 . S
C3491 H3467 0.950 . S
C3491 C3490 1.524 . S
C3491 C3492 1.415 . S
C3492 H3468 0.950 . S
C3492 C3487 1.363 . S
C3492 C3491 1.415 . S
C3493 H3469 0.951 . S
C3493 C3494 1.366 . S
C3493 C3495 1.388 . S
C3494 C3493 1.366 . S
C3494 C3498 1.385 . S
C3495 H3470 0.951 . S
C3495 C3493 1.388 . S
C3495 C3496 1.366 . S
C3496 C3495 1.366 . S
C3496 C3497 1.414 . S
C3496 C3499 1.499 . S
C3497 H3471 0.950 . S
C3497 C3496 1.414 . S
C3497 C3498 1.374 . S
C3498 H3472 0.950 . S
C3498 C3494 1.385 . S
C3498 C3497 1.374 . S
C3499 C3496 1.499 . S
C3499 C3500 1.373 . S
C3499 C3501 1.389 . S
C3500 H3473 0.950 . S
C3500 C3486 1.377 . S
C3500 C3499 1.373 . S
C3501 C3485 1.377 . S
C3501 C3499 1.389 . S
C3501 C3502 1.524 . S
C3502 C3501 1.524 . S
C3502 C3503 1.397 . S
C3502 C3507 1.363 . S
C3503 H3474 0.950 . S
C3503 C3502 1.397 . S
C3503 C3504 1.334 . S
C3504 H3475 0.950 . S
C3504 C3503 1.334 . S
C3504 C3505 1.287 . S
C3505 C3504 1.287 . S
C3505 C3506 1.524 . S
C3505 H3508 0.999 . S
C3506 H3476 0.950 . S
C3506 C3505 1.524 . S
C3506 C3507 1.415 . S
C3507 H3477 0.950 . S
C3507 C3502 1.363 . S
C3507 C3506 1.415 . S
H3508 C3505 0.999 . S
H3509 C3490 0.913 . S
H3510 C3528 0.951 . S
H3511 C3530 0.951 . S
H3512 C3532 0.950 . S
H3513 C3533 0.950 . S
H3514 C3535 0.950 . S
H3515 C3538 0.950 . S
H3516 C3539 0.950 . S
H3517 C3541 0.950 . S
H3518 C3542 0.950 . S
H3519 C3543 0.951 . S
H3520 C3545 0.951 . S
H3521 C3547 0.950 . S
H3522 C3548 0.950 . S
H3523 C3550 0.950 . S
H3524 C3553 0.950 . S
H3525 C3554 0.950 . S
H3526 C3556 0.950 . S
H3527 C3557 0.950 . S
C3528 H3510 0.951 . S
C3528 C3529 1.366 . S
C3528 C3530 1.388 . S
C3529 C3528 1.366 . S
C3529 C3533 1.385 . S
C3530 H3511 0.951 . S
C3530 C3528 1.388 . S
C3530 C3531 1.366 . S
C3531 C3530 1.366 . S
C3531 C3532 1.414 . S
C3531 C3534 1.499 . S
C3532 H3512 0.950 . S
C3532 C3531 1.414 . S
C3532 C3533 1.374 . S
C3533 H3513 0.950 . S
C3533 C3529 1.385 . S
C3533 C3532 1.374 . S
C3534 C3531 1.499 . S
C3534 C3535 1.373 . S
C3534 C3536 1.389 . S
C3535 H3514 0.950 . S
C3535 C3534 1.373 . S
C3535 C3551 1.377 . S
C3536 C3534 1.389 . S
C3536 C3537 1.524 . S
C3536 C3550 1.377 . S
C3537 C3536 1.524 . S
C3537 C3538 1.397 . S
C3537 C3542 1.363 . S
C3538 H3515 0.950 . S
C3538 C3537 1.397 . S
C3538 C3539 1.334 . S
C3539 H3516 0.950 . S
C3539 C3538 1.334 . S
C3539 C3540 1.287 . S
C3540 C3539 1.287 . S
C3540 C3541 1.524 . S
C3540 H3559 0.913 . S
C3541 H3517 0.950 . S
C3541 C3540 1.524 . S
C3541 C3542 1.415 . S
C3542 H3518 0.950 . S
C3542 C3537 1.363 . S
C3542 C3541 1.415 . S
C3543 H3519 0.951 . S
C3543 C3544 1.366 . S
C3543 C3545 1.388 . S
C3544 C3543 1.366 . S
C3544 C3548 1.385 . S
C3545 H3520 0.951 . S
C3545 C3543 1.388 . S
C3545 C3546 1.366 . S
C3546 C3545 1.366 . S
C3546 C3547 1.414 . S
C3546 C3549 1.499 . S
C3547 H3521 0.950 . S
C3547 C3546 1.414 . S
C3547 C3548 1.374 . S
C3548 H3522 0.950 . S
C3548 C3544 1.385 . S
C3548 C3547 1.374 . S
C3549 C3546 1.499 . S
C3549 C3550 1.373 . S
C3549 C3551 1.389 . S
C3550 H3523 0.950 . S
C3550 C3536 1.377 . S
C3550 C3549 1.373 . S
C3551 C3535 1.377 . S
C3551 C3549 1.389 . S
C3551 C3552 1.524 . S
C3552 C3551 1.524 . S
C3552 C3553 1.397 . S
C3552 C3557 1.363 . S
C3553 H3524 0.950 . S
C3553 C3552 1.397 . S
C3553 C3554 1.334 . S
C3554 H3525 0.950 . S
C3554 C3553 1.334 . S
C3554 C3555 1.287 . S
C3555 C3554 1.287 . S
C3555 C3556 1.524 . S
C3555 H3558 0.999 . S
C3556 H3526 0.950 . S
C3556 C3555 1.524 . S
C3556 C3557 1.415 . S
C3557 H3527 0.950 . S
C3557 C3552 1.363 . S
C3557 C3556 1.415 . S
H3558 C3555 0.999 . S
H3559 C3540 0.913 . S
H3560 C3578 0.951 . S
H3561 C3580 0.951 . S
H3562 C3582 0.935 1_554 S
H3563 C3583 0.949 1_554 S
H3564 C3585 0.950 . S
H3565 C3588 0.950 . S
H3566 C3589 0.950 . S
H3567 C3591 0.950 . S
H3568 C3592 0.950 . S
H3569 C3593 0.935 1_554 S
H3570 C3595 0.951 1_554 S
H3571 C3597 0.950 . S
H3572 C3598 0.950 . S
H3573 C3600 0.950 . S
H3574 C3603 0.950 . S
H3575 C3604 0.950 . S
H3576 C3606 0.950 . S
H3577 C3607 0.950 . S
C3578 H3560 0.951 . S
C3578 C3579 1.366 . S
C3578 C3580 1.388 . S
C3579 C3578 1.366 . S
C3579 C3583 1.386 . S
C3580 H3561 0.951 . S
C3580 C3578 1.388 . S
C3580 C3581 1.366 . S
C3581 C3580 1.366 . S
C3581 C3582 1.438 . S
C3581 C3584 1.499 . S
C3582 H3562 0.935 1_556 S
C3582 C3581 1.438 . S
C3582 C3583 1.368 . S
C3583 H3563 0.949 1_556 S
C3583 C3579 1.386 . S
C3583 C3582 1.368 . S
C3584 C3581 1.499 . S
C3584 C3585 1.373 1_556 S
C3584 C3586 1.389 . S
C3585 H3564 0.950 . S
C3585 C3584 1.373 1_554 S
C3585 C3601 1.377 . S
C3586 C3584 1.389 . S
C3586 C3587 1.524 . S
C3586 C3600 1.377 . S
C3587 C3586 1.524 . S
C3587 C3588 1.397 . S
C3587 C3592 1.363 . S
C3588 H3565 0.950 . S
C3588 C3587 1.397 . S
C3588 C3589 1.334 . S
C3589 H3566 0.950 . S
C3589 C3588 1.334 . S
C3589 C3590 1.287 . S
C3590 C3589 1.287 . S
C3590 C3591 1.524 . S
C3590 H3609 0.913 . S
C3591 H3567 0.950 . S
C3591 C3590 1.524 . S
C3591 C3592 1.415 . S
C3592 H3568 0.950 . S
C3592 C3587 1.363 . S
C3592 C3591 1.415 . S
C3593 H3569 0.935 1_556 S
C3593 C3594 1.366 . S
C3593 C3595 1.388 . S
C3594 C3593 1.366 . S
C3594 C3598 1.385 . S
C3595 H3570 0.951 1_556 S
C3595 C3593 1.388 . S
C3595 C3596 1.366 . S
C3596 C3595 1.366 . S
C3596 C3597 1.414 . S
C3596 C3599 1.499 . S
C3597 H3571 0.950 . S
C3597 C3596 1.414 . S
C3597 C3598 1.374 . S
C3598 H3572 0.950 . S
C3598 C3594 1.385 . S
C3598 C3597 1.374 . S
C3599 C3596 1.499 . S
C3599 C3600 1.373 . S
C3599 C3601 1.389 1_556 S
C3600 H3573 0.950 . S
C3600 C3586 1.377 . S
C3600 C3599 1.373 . S
C3601 C3585 1.377 . S
C3601 C3599 1.389 1_554 S
C3601 C3602 1.524 . S
C3602 C3601 1.524 . S
C3602 C3603 1.397 . S
C3602 C3607 1.363 . S
C3603 H3574 0.950 . S
C3603 C3602 1.397 . S
C3603 C3604 1.334 . S
C3604 H3575 0.950 . S
C3604 C3603 1.334 . S
C3604 C3605 1.287 . S
C3605 C3604 1.287 . S
C3605 C3606 1.524 . S
C3605 H3608 0.999 . S
C3606 H3576 0.950 . S
C3606 C3605 1.524 . S
C3606 C3607 1.415 . S
C3607 H3577 0.950 . S
C3607 C3602 1.363 . S
C3607 C3606 1.415 . S
H3608 C3605 0.999 . S
H3609 C3590 0.913 . S
H3610 C3628 0.951 . S
H3611 C3630 0.951 . S
H3612 C3632 0.950 . S
H3613 C3633 0.950 . S
H3614 C3635 0.950 . S
H3615 C3638 0.950 . S
H3616 C3639 0.950 . S
H3617 C3641 0.950 . S
H3618 C3642 0.950 . S
H3619 C3643 0.951 . S
H3620 C3645 0.951 . S
H3621 C3647 0.950 . S
H3622 C3648 0.950 . S
H3623 C3650 0.950 . S
H3624 C3653 0.950 . S
H3625 C3654 0.950 . S
H3626 C3656 0.950 . S
H3627 C3657 0.950 . S
C3628 H3610 0.951 . S
C3628 C3629 1.366 . S
C3628 C3630 1.388 . S
C3629 C3628 1.366 . S
C3629 C3633 1.385 . S
C3630 H3611 0.951 . S
C3630 C3628 1.388 . S
C3630 C3631 1.366 . S
C3631 C3630 1.366 . S
C3631 C3632 1.414 . S
C3631 C3634 1.499 . S
C3632 H3612 0.950 . S
C3632 C3631 1.414 . S
C3632 C3633 1.374 . S
C3633 H3613 0.950 . S
C3633 C3629 1.385 . S
C3633 C3632 1.374 . S
C3634 C3631 1.499 . S
C3634 C3635 1.373 . S
C3634 C3636 1.389 . S
C3635 H3614 0.950 . S
C3635 C3634 1.373 . S
C3635 C3651 1.377 . S
C3636 C3634 1.389 . S
C3636 C3637 1.524 . S
C3636 C3650 1.377 . S
C3637 C3636 1.524 . S
C3637 C3638 1.397 . S
C3637 C3642 1.363 . S
C3638 H3615 0.950 . S
C3638 C3637 1.397 . S
C3638 C3639 1.334 . S
C3639 H3616 0.950 . S
C3639 C3638 1.334 . S
C3639 C3640 1.287 . S
C3640 C3639 1.287 . S
C3640 C3641 1.524 . S
C3640 H3659 0.913 . S
C3641 H3617 0.950 . S
C3641 C3640 1.524 . S
C3641 C3642 1.415 . S
C3642 H3618 0.950 . S
C3642 C3637 1.363 . S
C3642 C3641 1.415 . S
C3643 H3619 0.951 . S
C3643 C3644 1.366 . S
C3643 C3645 1.388 . S
C3644 C3643 1.366 . S
C3644 C3648 1.385 . S
C3645 H3620 0.951 . S
C3645 C3643 1.388 . S
C3645 C3646 1.366 . S
C3646 C3645 1.366 . S
C3646 C3647 1.414 . S
C3646 C3649 1.499 . S
C3647 H3621 0.950 . S
C3647 C3646 1.414 . S
C3647 C3648 1.374 . S
C3648 H3622 0.950 . S
C3648 C3644 1.385 . S
C3648 C3647 1.374 . S
C3649 C3646 1.499 . S
C3649 C3650 1.373 . S
C3649 C3651 1.389 . S
C3650 H3623 0.950 . S
C3650 C3636 1.377 . S
C3650 C3649 1.373 . S
C3651 C3635 1.377 . S
C3651 C3649 1.389 . S
C3651 C3652 1.524 . S
C3652 C3651 1.524 . S
C3652 C3653 1.397 . S
C3652 C3657 1.363 . S
C3653 H3624 0.950 . S
C3653 C3652 1.397 . S
C3653 C3654 1.334 . S
C3654 H3625 0.950 . S
C3654 C3653 1.334 . S
C3654 C3655 1.287 . S
C3655 C3654 1.287 . S
C3655 C3656 1.524 . S
C3655 H3658 0.999 . S
C3656 H3626 0.950 . S
C3656 C3655 1.524 . S
C3656 C3657 1.415 . S
C3657 H3627 0.950 . S
C3657 C3652 1.363 . S
C3657 C3656 1.415 . S
H3658 C3655 0.999 . S
H3659 C3640 0.913 . S
H3660 C3678 0.951 . S
H3661 C3680 0.951 . S
H3662 C3682 0.950 1_556 S
H3663 C3683 0.950 1_556 S
H3664 C3685 0.950 . S
H3665 C3688 0.950 . S
H3666 C3689 0.950 . S
H3667 C3691 0.950 . S
H3668 C3692 0.950 . S
H3669 C3693 0.951 . S
H3670 C3695 0.951 . S
H3671 C3697 0.950 . S
H3672 C3698 0.950 . S
H3673 C3700 0.950 . S
H3674 C3703 0.950 . S
H3675 C3704 0.950 . S
H3676 C3706 0.950 . S
H3677 C3707 0.950 . S
C3678 H3660 0.951 . S
C3678 C3679 1.366 . S
C3678 C3680 1.388 . S
C3679 C3678 1.366 . S
C3679 C3683 1.385 . S
C3680 H3661 0.951 . S
C3680 C3678 1.388 . S
C3680 C3681 1.366 . S
C3681 C3680 1.366 . S
C3681 C3682 1.414 . S
C3681 C3684 1.499 . S
C3682 H3662 0.950 1_554 S
C3682 C3681 1.414 . S
C3682 C3683 1.374 . S
C3683 H3663 0.950 1_554 S
C3683 C3679 1.385 . S
C3683 C3682 1.374 . S
C3684 C3681 1.499 . S
C3684 C3685 1.373 1_554 S
C3684 C3686 1.389 . S
C3685 H3664 0.950 . S
C3685 C3684 1.373 1_556 S
C3685 C3701 1.377 . S
C3686 C3684 1.389 . S
C3686 C3687 1.524 . S
C3686 C3700 1.377 . S
C3687 C3686 1.524 . S
C3687 C3688 1.397 . S
C3687 C3692 1.363 . S
C3688 H3665 0.950 . S
C3688 C3687 1.397 . S
C3688 C3689 1.334 . S
C3689 H3666 0.950 . S
C3689 C3688 1.334 . S
C3689 C3690 1.287 . S
C3690 C3689 1.287 . S
C3690 C3691 1.524 . S
C3690 H3709 0.913 . S
C3691 H3667 0.950 . S
C3691 C3690 1.524 . S
C3691 C3692 1.415 . S
C3692 H3668 0.950 . S
C3692 C3687 1.363 . S
C3692 C3691 1.415 . S
C3693 H3669 0.951 . S
C3693 C3694 1.366 1_556 S
C3693 C3695 1.388 . S
C3694 C3693 1.366 1_554 S
C3694 C3698 1.385 . S
C3695 H3670 0.951 . S
C3695 C3693 1.388 . S
C3695 C3696 1.366 1_556 S
C3696 C3695 1.366 1_554 S
C3696 C3697 1.414 . S
C3696 C3699 1.499 . S
C3697 H3671 0.950 . S
C3697 C3696 1.414 . S
C3697 C3698 1.374 . S
C3698 H3672 0.950 . S
C3698 C3694 1.385 . S
C3698 C3697 1.374 . S
C3699 C3696 1.499 . S
C3699 C3700 1.373 . S
C3699 C3701 1.389 1_554 S
C3700 H3673 0.950 . S
C3700 C3686 1.377 . S
C3700 C3699 1.373 . S
C3701 C3685 1.377 . S
C3701 C3699 1.389 1_556 S
C3701 C3702 1.524 . S
C3702 C3701 1.524 . S
C3702 C3703 1.397 . S
C3702 C3707 1.363 . S
C3703 H3674 0.950 . S
C3703 C3702 1.397 . S
C3703 C3704 1.334 . S
C3704 H3675 0.950 . S
C3704 C3703 1.334 . S
C3704 C3705 1.287 . S
C3705 C3704 1.287 . S
C3705 C3706 1.524 . S
C3705 H3708 0.999 . S
C3706 H3676 0.950 . S
C3706 C3705 1.524 . S
C3706 C3707 1.415 . S
C3707 H3677 0.950 . S
C3707 C3702 1.363 . S
C3707 C3706 1.415 . S
H3708 C3705 0.999 . S
H3709 C3690 0.913 . S
H3710 C3728 0.951 . S
H3711 C3730 0.951 . S
H3712 C3732 0.950 . S
H3713 C3733 0.950 . S
H3714 C3735 0.950 . S
H3715 C3738 0.950 . S
H3716 C3739 0.950 . S
H3717 C3741 0.950 . S
H3718 C3742 0.950 . S
H3719 C3743 0.951 . S
H3720 C3745 0.951 . S
H3721 C3747 0.950 . S
H3722 C3748 0.950 . S
H3723 C3750 0.950 . S
H3724 C3753 0.950 . S
H3725 C3754 0.950 1_556 S
H3726 C3756 0.950 . S
H3727 C3757 0.928 1_545 S
C3728 H3710 0.951 . S
C3728 C3729 1.366 1_565 S
C3728 C3730 1.388 . S
C3729 C3728 1.366 1_545 S
C3729 C3733 1.385 . S
C3730 H3711 0.951 . S
C3730 C3728 1.388 . S
C3730 C3731 1.366 . S
C3731 C3730 1.366 . S
C3731 C3732 1.414 1_565 S
C3731 C3734 1.499 . S
C3732 H3712 0.950 . S
C3732 C3731 1.414 1_545 S
C3732 C3733 1.374 . S
C3733 H3713 0.950 . S
C3733 C3729 1.385 . S
C3733 C3732 1.374 . S
C3734 C3731 1.499 . S
C3734 C3735 1.373 . S
C3734 C3736 1.389 . S
C3735 H3714 0.950 . S
C3735 C3734 1.373 . S
C3735 C3751 1.377 . S
C3736 C3734 1.389 . S
C3736 C3737 1.524 . S
C3736 C3750 1.377 . S
C3737 C3736 1.524 . S
C3737 C3738 1.397 . S
C3737 C3742 1.363 . S
C3738 H3715 0.950 . S
C3738 C3737 1.397 . S
C3738 C3739 1.334 . S
C3739 H3716 0.950 . S
C3739 C3738 1.334 . S
C3739 C3740 1.287 . S
C3740 C3739 1.287 . S
C3740 C3741 1.524 . S
C3740 H3759 0.913 . S
C3741 H3717 0.950 . S
C3741 C3740 1.524 . S
C3741 C3742 1.415 . S
C3742 H3718 0.950 . S
C3742 C3737 1.363 . S
C3742 C3741 1.415 . S
C3743 H3719 0.951 . S
C3743 C3744 1.366 . S
C3743 C3745 1.388 . S
C3744 C3743 1.366 . S
C3744 C3748 1.385 . S
C3745 H3720 0.951 . S
C3745 C3743 1.388 . S
C3745 C3746 1.366 . S
C3746 C3745 1.366 . S
C3746 C3747 1.414 . S
C3746 C3749 1.499 . S
C3747 H3721 0.950 . S
C3747 C3746 1.414 . S
C3747 C3748 1.374 . S
C3748 H3722 0.950 . S
C3748 C3744 1.385 . S
C3748 C3747 1.374 . S
C3749 C3746 1.499 . S
C3749 C3750 1.373 . S
C3749 C3751 1.389 . S
C3750 H3723 0.950 . S
C3750 C3736 1.377 . S
C3750 C3749 1.373 . S
C3751 C3735 1.377 . S
C3751 C3749 1.389 . S
C3751 C3752 1.524 . S
C3752 C3751 1.524 . S
C3752 C3753 1.397 . S
C3752 C3757 1.397 . S
C3753 H3724 0.950 . S
C3753 C3752 1.397 . S
C3753 C3754 1.334 . S
C3754 H3725 0.950 1_554 S
C3754 C3753 1.334 . S
C3754 C3755 1.287 . S
C3755 C3754 1.287 . S
C3755 C3756 1.524 1_565 S
C3755 H3758 0.999 1_554 S
C3756 H3726 0.950 . S
C3756 C3755 1.524 1_545 S
C3756 C3757 1.403 1_545 S
C3757 H3727 0.928 1_565 S
C3757 C3752 1.397 . S
C3757 C3756 1.403 1_565 S
H3758 C3755 0.999 1_556 S
H3759 C3740 0.913 . S
C1394 C353 1.909 . S
C1379 C101 1.903 . S
C1444 C412 0.904 . S
C1429 C125 0.864 1_455 S
C1479 C139 2.207 . S
C1494 C529 2.201 . S
C1544 C597 1.915 . S
C1529 C82 1.937 . S
C1594 C676 1.601 . S
C1579 C196 1.618 . S
C1644 C801 1.906 . S
C1629 C234 1.917 . S
C1679 C220 0.640 . S
C1694 C861 0.592 . S
C1744 C969 1.726 . S
C1729 C173 1.716 . S
C1779 C211 1.130 . S
C1794 C1065 1.136 . S
C1844 C1125 0.963 . S
C1829 C182 0.930 . S
C1879 C201 1.351 . S
C1894 C1028 1.469 . S
C1944 C1145 1.268 . S
C1929 C239 1.191 . S
C1979 C135 1.674 . S
C1994 C1213 1.691 . S
C2029 C87 1.994 . S
C2044 C1204 2.172 . S
C2079 C106 1.038 . S
C2094 C1233 1.137 . S
C2129 C116 1.167 . S
C2144 C1241 1.183 . S
C2179 C59 2.061 . S
C2194 C625 2.080 . S
C2229 C268 2.467 . S
C2244 C588 2.479 . S
C2294 C324 1.072 . S
C2279 C291 1.080 . S
C2344 C421 1.442 . S
C2329 C163 1.328 . S
C2379 C78 2.243 . S
C2394 C685 2.277 . S
C2444 C977 1.025 . S
C2429 C215 1.024 . S
C2494 C705 1.678 . S
C2479 C177 1.694 1_545 S
C2544 C889 1.936 . S
C2529 C230 1.919 . S
C2594 C881 1.932 . S
C2579 C272 1.926 . S
C2629 C296 0.879 . S
C2644 C949 0.921 . S
C2679 C158 2.203 . S
C2694 C713 2.197 . S
C2744 C764 1.883 . S
C2729 C253 1.905 . S
C2779 C63 1.602 . S
C2794 C509 1.585 . S
C2844 C617 1.913 . S
C2829 C6 1.923 . S
C2894 C333 0.589 . S
C2879 C30 0.637 . S
C2944 C449 1.744 . S
C2929 C40 1.738 . S
C2979 C21 1.161 . S
C2994 C1153 1.166 . S
C3029 C49 0.903 . S
C3044 C1037 0.936 . S
C3079 C68 1.332 . S
C3094 C1116 1.448 . S
C3129 C11 1.188 1_556 S
C3144 C1057 1.264 . S
C3194 C1301 1.638 . S
C3179 C154 1.628 . S
C3244 C1292 2.186 . S
C3229 C258 2.003 . S
C3294 C1321 1.206 . S
C3279 C277 1.092 . S
C3329 C287 1.170 . S
C3344 C1329 1.186 . S
C3379 C192 2.058 . S
C3394 C793 2.078 . S
C3444 C773 2.445 . S
C3429 C97 2.434 . S
C3494 C852 1.075 . S
C3479 C120 1.083 . S
C3544 C940 1.453 . S
C3529 C144 1.336 . S
C3579 C249 2.242 . S
C3594 C500 2.277 . S
C3644 C441 1.053 . S
C3629 C25 1.052 . S
C3679 C44 1.633 . S
C3694 C537 1.618 . S
C3744 C361 1.936 . S
C3729 C2 1.920 . S
