# Generated by pormake.
# Topology zzz, (3,6)-cn, num edge types: 1
# Building blocks:
#     Node 0, Type 0, BuildingBlock: KAKCAD_clean_linker_0, # of connection points: 3
#     Node 1, Type 0, BuildingBlock: KAKCAD_clean_linker_0, # of connection points: 3
#     Node 2, Type 0, BuildingBlock: KAKCAD_clean_linker_0, # of connection points: 3
#     Node 3, Type 0, BuildingBlock: KAKCAD_clean_linker_0, # of connection points: 3
#     Node 4, Type 0, BuildingBlock: KAKCAD_clean_linker_0, # of connection points: 3
#     Node 5, Type 0, BuildingBlock: KAKCAD_clean_linker_0, # of connection points: 3
#     Node 6, Type 0, BuildingBlock: KAKCAD_clean_linker_0, # of connection points: 3
#     Node 7, Type 0, BuildingBlock: KAKCAD_clean_linker_0, # of connection points: 3
#     Node 8, Type 1, BuildingBlock: KUMBUR_clean_sbu_1, # of connection points: 6
#     Node 9, Type 1, BuildingBlock: KUMBUR_clean_sbu_1, # of connection points: 6
#     Node 10, Type 1, BuildingBlock: KUMBUR_clean_sbu_1, # of connection points: 6
#     Node 11, Type 1, BuildingBlock: KUMBUR_clean_sbu_1, # of connection points: 6
#     Edge 12, Type (0, 1), BuildingBlock: UVAHIK_clean_linker_0, # of connection points: 2
#     Edge 13, Type (0, 1), BuildingBlock: UVAHIK_clean_linker_0, # of connection points: 2
#     Edge 14, Type (0, 1), BuildingBlock: UVAHIK_clean_linker_0, # of connection points: 2
#     Edge 15, Type (0, 1), BuildingBlock: UVAHIK_clean_linker_0, # of connection points: 2
#     Edge 16, Type (0, 1), BuildingBlock: UVAHIK_clean_linker_0, # of connection points: 2
#     Edge 17, Type (0, 1), BuildingBlock: UVAHIK_clean_linker_0, # of connection points: 2
#     Edge 18, Type (0, 1), BuildingBlock: UVAHIK_clean_linker_0, # of connection points: 2
#     Edge 19, Type (0, 1), BuildingBlock: UVAHIK_clean_linker_0, # of connection points: 2
#     Edge 20, Type (0, 1), BuildingBlock: UVAHIK_clean_linker_0, # of connection points: 2
#     Edge 21, Type (0, 1), BuildingBlock: UVAHIK_clean_linker_0, # of connection points: 2
#     Edge 22, Type (0, 1), BuildingBlock: UVAHIK_clean_linker_0, # of connection points: 2
#     Edge 23, Type (0, 1), BuildingBlock: UVAHIK_clean_linker_0, # of connection points: 2
#     Edge 24, Type (0, 1), BuildingBlock: UVAHIK_clean_linker_0, # of connection points: 2
#     Edge 25, Type (0, 1), BuildingBlock: UVAHIK_clean_linker_0, # of connection points: 2
#     Edge 26, Type (0, 1), BuildingBlock: UVAHIK_clean_linker_0, # of connection points: 2
#     Edge 27, Type (0, 1), BuildingBlock: UVAHIK_clean_linker_0, # of connection points: 2
#     Edge 28, Type (0, 1), BuildingBlock: UVAHIK_clean_linker_0, # of connection points: 2
#     Edge 29, Type (0, 1), BuildingBlock: UVAHIK_clean_linker_0, # of connection points: 2
#     Edge 30, Type (0, 1), BuildingBlock: UVAHIK_clean_linker_0, # of connection points: 2
#     Edge 31, Type (0, 1), BuildingBlock: UVAHIK_clean_linker_0, # of connection points: 2
#     Edge 32, Type (0, 1), BuildingBlock: UVAHIK_clean_linker_0, # of connection points: 2
#     Edge 33, Type (0, 1), BuildingBlock: UVAHIK_clean_linker_0, # of connection points: 2
#     Edge 34, Type (0, 1), BuildingBlock: UVAHIK_clean_linker_0, # of connection points: 2
#     Edge 35, Type (0, 1), BuildingBlock: UVAHIK_clean_linker_0, # of connection points: 2
# Relax obj value: 0.286
# Max RMSD: 0.209
# Mean RMSD: 0.179
data_MOF--net-zzz--node1-KUMBUR_clean_sbu_1--node2-KAKCAD_clean_linker_0--edge1-UVAHIK_clean_linker_0
_symmetry_space_group_name_H-M    P1
_symmetry_Int_Tables_number       1
_symmetry_cell_setting            triclinic
loop_
_symmetry_equiv_pos_as_xyz
'x, y, z'
_cell_length_a     70.885181
_cell_length_b     70.924377
_cell_length_c     26.157227
_cell_angle_alpha  90.061588
_cell_angle_beta   89.908607
_cell_angle_gamma 90.387729
loop_
_atom_site_label
_atom_site_type_symbol
_atom_site_fract_x
_atom_site_fract_y
_atom_site_fract_z
_atom_type_partial_charge
C0 C 0.78388 0.57644 0.95428 0.0
C1 C 0.80128 0.56761 0.9454 0.0
C2 C 0.77343 0.57232 0.99836 0.0
C3 C 0.78016 0.55925 0.03432 0.0
C4 C 0.79782 0.55092 0.02613 0.0
C5 C 0.80823 0.55504 0.98228 0.0
C6 C 0.76829 0.55308 0.07814 0.0
C7 C 0.74912 0.54903 0.07083 0.0
C8 C 0.73813 0.54114 0.11009 0.0
C9 C 0.74646 0.5374 0.15802 0.0
C10 C 0.76578 0.54148 0.1658 0.0
C11 C 0.77642 0.54945 0.12593 0.0
C12 C 0.77598 0.53626 0.21314 0.0
C13 C 0.77662 0.54862 0.25505 0.0
C14 C 0.78837 0.52091 0.21192 0.0
C15 C 0.80171 0.51838 0.25068 0.0
C16 C 0.80311 0.53123 0.29164 0.0
C17 C 0.71843 0.53578 0.09742 0.0
C18 C 0.70346 0.54784 0.10952 0.0
C19 C 0.71523 0.52087 0.06309 0.0
C20 C 0.69769 0.51859 0.03932 0.0
C21 C 0.68288 0.53126 0.04901 0.0
C22 C 0.68584 0.54558 0.08568 0.0
C23 C 0.79 0.5461 0.294 0.0
H24 H 0.77822 0.58631 0.9268 0.0
H25 H 0.75995 0.57912 1.00391 0.0
H26 H 0.80326 0.54051 0.05245 0.0
H27 H 0.82137 0.54764 0.97621 0.0
H28 H 0.74281 0.55124 0.03358 0.0
H29 H 0.79128 0.55243 0.13197 0.0
H30 H 0.73822 0.53083 0.18812 0.0
H31 H 0.76747 0.56078 0.25628 0.0
H32 H 0.78845 0.51147 0.17933 0.0
H33 H 0.81164 0.50694 0.2468 0.0
H34 H 0.70571 0.55967 0.13508 0.0
H35 H 0.7267 0.51166 0.05225 0.0
H36 H 0.79044 0.55615 0.32518 0.0
H37 H 0.67473 0.55544 0.09472 0.0
H38 H 0.69616 0.50756 0.01095 0.0
C39 C 0.93261 0.77854 0.97881 0.0
C40 C 0.93849 0.79719 0.97072 0.0
C41 C 0.93791 0.76905 0.02335 0.0
C42 C 0.94983 0.77782 0.0596 0.0
C43 C 0.95493 0.79684 0.05196 0.0
C44 C 0.94913 0.80644 0.00834 0.0
C45 C 0.95854 0.76683 0.10206 0.0
C46 C 0.96318 0.74781 0.09489 0.0
C47 C 0.97342 0.73777 0.13165 0.0
C48 C 0.97957 0.7471 0.17641 0.0
C49 C 0.97482 0.76618 0.18448 0.0
C50 C 0.96402 0.77567 0.14782 0.0
C51 C 0.98187 0.77732 0.22864 0.0
C52 C 0.97244 0.77683 0.27585 0.0
C53 C 0.99556 0.79137 0.22018 0.0
C54 C 0.99923 0.80515 0.25724 0.0
C55 C 0.98918 0.80536 0.30374 0.0
C56 C 0.97821 0.7179 0.11942 0.0
C57 C 0.96357 0.70506 0.10856 0.0
C58 C 0.9968 0.71293 0.10702 0.0
C59 C 1.00048 0.69602 0.08091 0.0
C60 C 0.98563 0.68374 0.06679 0.0
C61 C 0.96722 0.68818 0.08278 0.0
C62 C 0.97608 0.79069 0.31308 0.0
H63 H 0.92442 0.77117 0.95002 0.0
H64 H 0.93321 0.75462 0.02835 0.0
H65 H 0.96436 0.80412 0.07792 0.0
H66 H 0.95409 0.82076 1.00232 0.0
H67 H 0.95968 0.74083 0.05924 0.0
H68 H 0.96031 0.79025 0.15479 0.0
H69 H 0.98807 0.7397 0.20422 0.0
H70 H 0.96156 0.76635 0.28284 0.0
H71 H 1.0027 0.79229 0.18359 0.0
H72 H 0.0092 0.81628 0.24807 0.0
H73 H 0.94908 0.7087 0.11703 0.0
H74 H 0.0083 0.72271 0.11421 0.0
H75 H 0.96822 0.79021 0.3486 0.0
H76 H 0.95538 0.67927 0.07232 0.0
H77 H 0.01487 0.69294 0.06993 0.0
C78 C 0.74886 0.9248 0.02858 0.0
C79 C 0.72946 0.92831 0.0255 0.0
C80 C 0.75958 0.93282 0.06806 0.0
C81 C 0.7512 0.94511 0.1039 0.0
C82 C 0.73155 0.94779 0.10153 0.0
C83 C 0.72083 0.9393 0.06331 0.0
C84 C 0.76285 0.95676 0.13978 0.0
C85 C 0.78098 0.96293 0.12565 0.0
C86 C 0.79101 0.97616 0.15522 0.0
C87 C 0.78229 0.98412 0.19871 0.0
C88 C 0.7643 0.97764 0.21419 0.0
C89 C 0.75513 0.96358 0.18561 0.0
C90 C 0.75356 0.98619 0.25695 0.0
C91 C 0.74878 0.97515 0.29969 0.0
C92 C 0.74401 1.00321 0.24902 0.0
C93 C 0.72908 0.00844 0.2812 0.0
C94 C 0.72349 0.99681 0.3222 0.0
C95 C 0.8103 0.98158 0.13783 0.0
C96 C 0.82335 0.96732 0.12667 0.0
C97 C 0.81478 1.00024 0.1244 0.0
C98 C 0.83149 1.00433 0.09744 0.0
C99 C 0.84407 0.98983 0.08364 0.0
C100 C 0.83997 0.97136 0.10001 0.0
C101 C 0.73403 0.9805 0.33228 0.0
H102 H 0.75578 0.91641 0.99956 0.0
H103 H 0.77454 0.92991 0.06918 0.0
H104 H 0.72441 0.95743 0.12701 0.0
H105 H 0.70593 0.94254 0.06107 0.0
H106 H 0.78716 0.95817 0.09006 0.0
H107 H 0.7414 0.95865 0.19829 0.0
H108 H 0.78948 0.99498 0.22054 0.0
H109 H 0.75563 0.96173 0.30587 0.0
H110 H 0.74713 0.01173 0.21567 0.0
H111 H 0.72137 0.02119 0.27266 0.0
H112 H 0.8202 0.95278 0.1364 0.0
H113 H 0.8049 0.01148 0.13212 0.0
H114 H 0.73003 0.97114 0.3632 0.0
H115 H 0.84908 0.95975 0.08979 0.0
H116 H 0.8343 0.01876 0.08616 0.0
C117 C 0.5133 0.72306 0.26734 0.0
C118 C 0.52899 0.71616 0.29449 0.0
C119 C 0.51556 0.73724 0.23024 0.0
C120 C 0.5335 0.74481 0.21969 0.0
C121 C 0.54891 0.7388 0.24897 0.0
C122 C 0.54667 0.72478 0.2861 0.0
C123 C 0.53707 0.75554 0.17187 0.0
C124 C 0.53086 0.77423 0.16436 0.0
C125 C 0.53526 0.78369 0.11831 0.0
C126 C 0.54529 0.77423 0.07996 0.0
C127 C 0.55072 0.7554 0.08598 0.0
C128 C 0.54683 0.74632 0.13244 0.0
C129 C 0.55888 0.74477 0.04226 0.0
C130 C 0.55172 0.74745 0.99272 0.0
C131 C 0.57273 0.73093 0.04989 0.0
C132 C 0.57852 0.71941 0.00942 0.0
C133 C 0.57068 0.7216 0.96047 0.0
C134 C 0.52916 0.80321 0.107 0.0
C135 C 0.51084 0.80647 0.08888 0.0
C136 C 0.54284 0.81749 0.10162 0.0
C137 C 0.5386 0.83429 0.07615 0.0
C138 C 0.52063 0.83712 0.0548 0.0
C139 C 0.50661 0.82325 0.06303 0.0
C140 C 0.55759 0.73607 0.95236 0.0
H141 H 0.49949 0.71673 0.27245 0.0
H142 H 0.50352 0.74136 0.20746 0.0
H143 H 0.56293 0.74429 0.2412 0.0
H144 H 0.559 0.72018 0.30694 0.0
H145 H 0.52301 0.78138 0.19411 0.0
H146 H 0.55074 0.73168 0.1375 0.0
H147 H 0.5485 0.78154 0.04457 0.0
H148 H 0.54078 0.75769 0.98546 0.0
H149 H 0.57877 0.72871 0.08738 0.0
H150 H 0.58873 0.70844 0.0167 0.0
H151 H 0.50017 0.79551 0.09153 0.0
H152 H 0.55719 0.8151 0.11414 0.0
H153 H 0.55097 0.73789 0.91542 0.0
H154 H 0.49255 0.82504 0.04767 0.0
H155 H 0.54982 0.8445 0.07021 0.0
C156 C 0.23417 0.45867 0.26764 0.0
C157 C 0.21852 0.44665 0.261 0.0
C158 C 0.24567 0.46344 0.22632 0.0
C159 C 0.24189 0.45627 0.17725 0.0
C160 C 0.22674 0.44358 0.17094 0.0
C161 C 0.21515 0.43883 0.21241 0.0
C162 C 0.25299 0.46317 0.1327 0.0
C163 C 0.27242 0.46647 0.13731 0.0
C164 C 0.28271 0.4752 0.09802 0.0
C165 C 0.2734 0.48054 0.05264 0.0
C166 C 0.25398 0.47651 0.04666 0.0
C167 C 0.24398 0.46791 0.08683 0.0
C168 C 0.24329 0.48149 0.99988 0.0
C169 C 0.23758 0.50014 0.99145 0.0
C170 C 0.23556 0.46706 0.96948 0.0
C171 C 0.2218 0.47105 0.93275 0.0
C172 C 0.2152 0.48956 0.92615 0.0
C173 C 0.30302 0.47885 0.10748 0.0
C174 C 0.30905 0.49664 0.12477 0.0
C175 C 0.31531 0.4635 0.11199 0.0
C176 C 0.3328 0.46561 0.13617 0.0
C177 C 0.33834 0.48309 0.15705 0.0
C178 C 0.32657 0.49877 0.14921 0.0
C179 C 0.22362 0.50413 0.95505 0.0
H180 H 0.23696 0.46527 0.30423 0.0
H181 H 0.25699 0.47352 0.23248 0.0
H182 H 0.22362 0.43759 0.13377 0.0
H183 H 0.20328 0.42941 0.2062 0.0
H184 H 0.27961 0.46256 0.17227 0.0
H185 H 0.2289 0.46564 0.08293 0.0
H186 H 0.28119 0.48745 0.02224 0.0
H187 H 0.24307 0.51145 0.0151 0.0
H188 H 0.23948 0.45252 0.97602 0.0
H189 H 0.21553 0.45945 0.91169 0.0
H190 H 0.29962 0.50858 0.12289 0.0
H191 H 0.31084 0.44958 0.0997 0.0
H192 H 0.219 0.51856 0.95065 0.0
H193 H 0.33026 0.51242 0.16501 0.0
H194 H 0.34162 0.45331 0.14051 0.0
C195 C 0.05816 0.25368 0.27311 0.0
C196 C 0.06648 0.23576 0.27174 0.0
C197 C 0.05476 0.26358 0.22814 0.0
C198 C 0.06037 0.25628 0.18042 0.0
C199 C 0.07045 0.23924 0.17966 0.0
C200 C 0.07321 0.22897 0.22459 0.0
C201 C 0.05433 0.26564 0.13198 0.0
C202 C 0.05086 0.28506 0.13077 0.0
C203 C 0.04225 0.29353 0.08856 0.0
C204 C 0.03825 0.28266 0.04458 0.0
C205 C 0.04295 0.2633 0.04359 0.0
C206 C 0.0504 0.25497 0.08793 0.0
C207 C 0.0401 0.25101 0.99781 0.0
C208 C 0.02253 0.24947 0.97326 0.0
C209 C 0.0546 0.23874 0.98288 0.0
C210 C 0.0514 0.22459 0.94669 0.0
C211 C 0.03359 0.22229 0.92371 0.0
C212 C 0.03659 0.31347 0.09493 0.0
C213 C 0.01996 0.31734 0.12209 0.0
C214 C 0.05013 0.32785 0.08941 0.0
C215 C 0.04767 0.34534 0.11355 0.0
C216 C 0.03176 0.34872 0.14463 0.0
C217 C 0.01756 0.33473 0.14665 0.0
C218 C 0.0193 0.23524 0.93665 0.0
H219 H 0.05339 0.25978 0.30878 0.0
H220 H 0.04683 0.27651 0.23116 0.0
H221 H 0.07567 0.2334 0.14416 0.0
H222 H 0.07973 0.21526 0.22163 0.0
H223 H 0.05426 0.29377 0.16358 0.0
H224 H 0.05247 0.23986 0.08834 0.0
H225 H 0.03176 0.28918 0.01163 0.0
H226 H 0.01104 0.25865 0.98412 0.0
H227 H 0.06833 0.23958 1.00094 0.0
H228 H 0.06275 0.21489 0.93868 0.0
H229 H 0.00957 0.30629 0.12825 0.0
H230 H 0.06328 0.32506 0.06971 0.0
H231 H 0.00548 0.23416 0.91929 0.0
H232 H 0.0052 0.33655 0.17043 0.0
H233 H 0.05874 0.35585 0.10995 0.0
C234 C 0.28451 0.07059 0.25598 0.0
C235 C 0.29691 0.08586 0.24757 0.0
C236 C 0.27211 0.06466 0.21782 0.0
C237 C 0.27188 0.07376 0.17021 0.0
C238 C 0.28335 0.08976 0.16278 0.0
C239 C 0.29566 0.09583 0.20121 0.0
C240 C 0.26106 0.0654 0.12729 0.0
C241 C 0.24273 0.05862 0.13503 0.0
C242 C 0.23313 0.04878 0.09645 0.0
C243 C 0.24206 0.04574 0.0488 0.0
C244 C 0.26054 0.05279 0.04011 0.0
C245 C 0.26977 0.06256 0.07984 0.0
C246 C 0.27122 0.04942 0.99161 0.0
C247 C 0.27233 0.03137 0.96956 0.0
C248 C 0.28264 0.06388 0.97124 0.0
C249 C 0.29581 0.06017 0.93278 0.0
C250 C 0.29785 0.04188 0.91256 0.0
C251 C 0.21406 0.0415 0.10918 0.0
C252 C 0.21237 0.02628 0.14317 0.0
C253 C 0.19815 0.05259 0.09942 0.0
C254 C 0.18116 0.0492 0.12555 0.0
C255 C 0.17977 0.03473 0.16232 0.0
C256 C 0.19542 0.02288 0.16928 0.0
C257 C 0.28545 0.02765 0.93044 0.0
H258 H 0.28523 0.06232 0.29068 0.0
H259 H 0.26357 0.05217 0.22449 0.0
H260 H 0.28322 0.0972 0.12664 0.0
H261 H 0.30477 0.10783 0.19377 0.0
H262 H 0.23592 0.06078 0.17174 0.0
H263 H 0.28427 0.06716 0.07476 0.0
H264 H 0.23475 0.03796 0.01909 0.0
H265 H 0.26379 0.01988 0.98435 0.0
H266 H 0.28201 0.07802 0.98684 0.0
H267 H 0.30505 0.07157 0.921 0.0
H268 H 0.2246 0.01786 0.15239 0.0
H269 H 0.19925 0.06468 0.07429 0.0
H270 H 0.28618 0.01348 0.91523 0.0
H271 H 0.19508 0.01175 0.19758 0.0
H272 H 0.16935 0.05845 0.11852 0.0
C273 C 0.46693 0.30405 0.96247 0.0
C274 C 0.4847 0.30613 0.93896 0.0
C275 C 0.46417 0.29114 1.00222 0.0
C276 C 0.47905 0.27987 0.01989 0.0
C277 C 0.49658 0.28115 0.99487 0.0
C278 C 0.4994 0.29418 0.95498 0.0
C279 C 0.47674 0.26895 0.06835 0.0
C280 C 0.48224 0.24988 0.07316 0.0
C281 C 0.47953 0.24031 0.11998 0.0
C282 C 0.47204 0.25002 0.16195 0.0
C283 C 0.46694 0.269 0.15828 0.0
C284 C 0.46909 0.27823 0.11118 0.0
C285 C 0.46051 0.27938 0.20459 0.0
C286 C 0.44911 0.2705 0.24171 0.0
C287 C 0.46685 0.2979 0.21372 0.0
C288 C 0.46245 0.30706 0.25939 0.0
C289 C 0.45173 0.29789 0.29728 0.0
C290 C 0.48446 0.22024 0.12802 0.0
C291 C 0.46989 0.20698 0.13519 0.0
C292 C 0.50288 0.2154 0.14226 0.0
C293 C 0.50645 0.19808 0.16622 0.0
C294 C 0.49163 0.18528 0.17667 0.0
C295 C 0.47343 0.18967 0.15895 0.0
C296 C 0.44489 0.27961 0.28776 0.0
H297 H 0.45528 0.31302 0.95185 0.0
H298 H 0.45046 0.29045 0.02055 0.0
H299 H 0.50836 0.27276 0.00777 0.0
H300 H 0.5132 0.29515 0.93738 0.0
H301 H 0.4882 0.24249 0.04073 0.0
H302 H 0.46507 0.2929 0.10795 0.0
H303 H 0.47076 0.24275 0.19827 0.0
H304 H 0.44369 0.25636 0.23558 0.0
H305 H 0.47594 0.30508 0.1866 0.0
H306 H 0.46821 0.32104 0.266 0.0
H307 H 0.45549 0.21059 0.12575 0.0
H308 H 0.51427 0.22555 0.13822 0.0
H309 H 0.43648 0.27228 0.31617 0.0
H310 H 0.46161 0.18034 0.16665 0.0
H311 H 0.52068 0.19509 0.1786 0.0
Tb312 Tb 0.99303 0.02252 0.57808 0.0
C313 C 0.06472 0.02823 0.70411 0.0
N314 N 0.06079 0.01657 0.66426 0.0
C315 C 0.09033 0.02513 0.62509 0.0
C316 C 0.08115 0.03953 0.70489 0.0
C317 C 0.07398 0.01396 0.62672 0.0
C318 C 0.09374 0.03827 0.66381 0.0
C319 C 0.05708 0.03829 0.79019 0.0
C320 C 0.05298 0.02762 0.74612 0.0
C321 C 0.07285 0.05039 0.79023 0.0
C322 C 0.08487 0.05103 0.74758 0.0
Tb323 Tb 0.03268 1.00028 0.66938 0.0
N324 N 0.03784 0.01589 0.74433 0.0
C325 C 0.04546 0.03606 0.83317 0.0
C326 C 0.02704 0.01285 0.78685 0.0
C327 C 0.03055 0.02305 0.83173 0.0
H328 H 0.07221 1.00308 0.59826 0.0
H329 H 0.02173 0.02092 0.86507 0.0
H330 H 0.95417 1.00101 0.61532 0.0
H331 H 0.02207 0.03135 0.38773 0.0
H332 H 0.01553 1.00283 0.78568 0.0
H333 H 0.04814 0.04397 0.86789 0.0
H334 H 0.01569 0.0407 0.4768 0.0
H335 H 0.10044 0.02333 0.59446 0.0
H336 H 0.07615 0.05891 0.82348 0.0
H337 H 0.09731 0.05997 0.74868 0.0
H338 H 0.93196 0.97692 0.58127 0.0
H339 H 0.10654 0.04671 0.66286 0.0
H340 H 0.00591 1.00345 0.35076 0.0
N341 N 0.97172 1.00067 0.54936 0.0
C342 C 0.97403 0.99436 0.50086 0.0
C343 C 0.94384 0.9816 0.5584 0.0
C344 C 0.96192 0.98058 0.47992 0.0
C345 C 0.95637 0.99521 0.57754 0.0
C346 C 0.94681 0.974 0.50968 0.0
N347 N 0.99819 0.01687 0.49268 0.0
C348 C 0.00938 0.0279 0.46215 0.0
C349 C 0.99055 0.99711 0.42033 0.0
C350 C 0.98808 1.00251 0.47176 0.0
C351 C 1.00355 0.00715 0.39045 0.0
C352 C 0.0127 0.02288 0.41118 0.0
H353 H 0.93714 0.96343 0.49499 0.0
H354 H 0.95603 0.96349 0.41299 0.0
H355 H 0.98117 0.97799 0.36065 0.0
O356 O 0.98034 0.04381 0.53377 0.0
O357 O 0.99387 0.99169 0.59203 0.0
O358 O 0.02537 0.98617 0.59783 0.0
O359 O 0.97043 0.03757 0.60918 0.0
O360 O 0.02282 0.03003 0.56197 0.0
O361 O 0.03889 1.00355 0.58717 0.0
O362 O 0.02695 0.97522 0.70911 0.0
O363 O 0.01975 0.02737 0.69073 0.0
O364 O 0.01449 0.0409 0.61287 0.0
O365 O 0.05538 0.98261 0.68872 0.0
O366 O 1.00317 0.99448 0.69207 0.0
O367 O 0.9851 0.01872 0.6583 0.0
C368 C 0.00838 0.98055 0.5853 0.0
C369 C 0.9706 0.06939 0.58648 0.0
C370 C 0.9854 0.10061 0.58197 0.0
C371 C 0.97455 0.1062 0.62446 0.0
C372 C 0.9596 0.07553 0.62789 0.0
C373 C 0.96162 0.0938 0.64676 0.0
C374 C 0.98324 0.08211 0.56307 0.0
C375 C 0.03708 0.01833 0.55712 0.0
C376 C 0.96972 0.04934 0.57138 0.0
C377 C 0.965 0.97428 0.42966 0.0
C378 C 0.97934 0.98251 0.39991 0.0
C379 C 0.01747 0.04241 0.66225 0.0
C380 C 0.04571 0.95071 0.6784 0.0
C381 C 0.03283 0.91897 0.66731 0.0
C382 C 0.04368 0.91678 0.62283 0.0
C383 C 0.05671 0.94823 0.6341 0.0
C384 C 0.0341 0.93589 0.69508 0.0
C385 C 0.05576 0.93128 0.60679 0.0
C386 C 0.98795 1.00518 0.69185 0.0
C387 C 0.04412 0.96921 0.70396 0.0
H388 H 0.97623 0.12008 0.64119 0.0
H389 H 0.94976 0.06599 0.64654 0.0
H390 H 0.95336 0.09827 0.67937 0.0
H391 H 0.9915 0.07752 0.53055 0.0
H392 H 0.04287 0.90387 0.60075 0.0
H393 H 0.06559 0.95952 0.61968 0.0
H394 H 0.0253 0.93788 0.72861 0.0
H395 H 0.06409 0.92955 0.57241 0.0
Tb396 Tb 0.52135 0.03091 0.67335 0.0
C397 C 0.50382 0.95249 0.61444 0.0
N398 N 0.51454 0.96571 0.59031 0.0
C399 C 0.53998 0.94375 0.58303 0.0
C400 C 0.51114 0.93459 0.62614 0.0
C401 C 0.53215 0.9614 0.57269 0.0
C402 C 0.52952 0.93036 0.61037 0.0
C403 C 0.47408 0.94396 0.65414 0.0
C404 C 0.48555 0.95715 0.62811 0.0
C405 C 0.4815 0.92632 0.66755 0.0
C406 C 0.49996 0.92161 0.65339 0.0
Tb407 Tb 0.50022 0.99374 0.57384 0.0
N408 N 0.47888 0.97436 0.61444 0.0
C409 C 0.45537 0.94873 0.66477 0.0
C410 C 0.46017 0.97831 0.62073 0.0
C411 C 0.4483 0.96585 0.64713 0.0
H412 H 0.54017 0.97155 0.55084 0.0
H413 H 0.43359 0.96929 0.65291 0.0
H414 H 0.49093 0.03972 0.76697 0.0
H415 H 0.57149 0.07766 0.58316 0.0
H416 H 0.45409 0.99072 0.60402 0.0
H417 H 0.44609 0.93902 0.68476 0.0
H418 H 0.55871 0.04683 0.61125 0.0
H419 H 0.55407 0.94049 0.56983 0.0
H420 H 0.47295 0.91608 0.688 0.0
H421 H 0.50541 0.90787 0.66342 0.0
H422 H 0.47326 0.06717 0.79953 0.0
H423 H 0.53568 0.91676 0.61862 0.0
H424 H 0.55434 0.107 0.60404 0.0
N425 N 0.50544 0.05543 0.70982 0.0
C426 C 0.51004 0.07287 0.69246 0.0
C427 C 0.48337 0.06895 0.76882 0.0
C428 C 0.501 0.08909 0.71136 0.0
C429 C 0.49312 0.05337 0.74966 0.0
C430 C 0.48707 0.08687 0.74891 0.0
N431 N 0.53416 0.05857 0.64515 0.0
C432 C 0.55104 0.05953 0.61986 0.0
C433 C 0.53197 0.09245 0.64486 0.0
C434 C 0.52518 0.07454 0.65954 0.0
C435 C 0.54861 0.0935 0.61601 0.0
C436 C 0.55834 0.07697 0.60416 0.0
H437 H 0.47975 0.09897 0.76443 0.0
H438 H 0.49994 0.11961 0.70779 0.0
H439 H 0.52717 0.12256 0.64961 0.0
O440 O 0.54189 0.01456 0.70927 0.0
O441 O 0.51891 0.0403 0.59324 0.0
O442 O 0.49388 0.02349 0.55864 0.0
O443 O 0.53479 0.04197 0.73883 0.0
O444 O 0.54173 0.01513 0.62656 0.0
O445 O 0.52757 1.00545 0.55087 0.0
O446 O 0.48133 0.98037 0.52345 0.0
O447 O 0.51701 0.98742 0.64259 0.0
O448 O 0.506 0.00675 0.70388 0.0
O449 O 0.50855 0.98965 0.49737 0.0
O450 O 0.47897 0.01342 0.60494 0.0
O451 O 0.49118 0.02363 0.68293 0.0
C452 C 0.50551 0.0381 0.55873 0.0
C453 C 0.56667 0.03181 0.74561 0.0
C454 C 0.59838 0.01953 0.75974 0.0
C455 C 0.60567 0.03793 0.75422 0.0
C456 C 0.57419 0.05006 0.74012 0.0
C457 C 0.59363 0.05303 0.74419 0.0
C458 C 0.57883 0.01669 0.75461 0.0
C459 C 0.54253 0.00991 0.57821 0.0
C460 C 0.54632 0.02781 0.74152 0.0
C461 C 0.50683 0.10698 0.69414 0.0
C462 C 0.52235 0.10866 0.66105 0.0
C463 C 0.51018 0.98973 0.68879 0.0
C464 C 0.48376 0.99084 0.43808 0.0
C465 C 0.45979 0.0099 0.39652 0.0
C466 C 0.4679 1.00569 0.34883 0.0
C467 C 0.49173 0.98685 0.39022 0.0
C468 C 0.46782 1.00247 0.44113 0.0
C469 C 0.48383 0.99429 0.34582 0.0
C470 C 0.47686 0.02024 0.65173 0.0
C471 C 0.49229 0.9827 0.48413 0.0
H472 H 0.62059 0.04079 0.75874 0.0
H473 H 0.56512 0.06198 0.73268 0.0
H474 H 0.59939 0.06713 0.74013 0.0
H475 H 0.57291 1.00259 0.75735 0.0
H476 H 0.46196 0.01132 0.31394 0.0
H477 H 0.50405 0.97795 0.38722 0.0
H478 H 0.46156 1.00562 0.478 0.0
H479 H 0.49004 0.99115 0.30897 0.0
Tb480 Tb 0.53029 0.49956 0.56107 0.0
C481 C 0.47304 0.48767 0.72975 0.0
N482 N 0.46975 0.49466 0.68243 0.0
C483 C 0.44298 0.47408 0.67324 0.0
C484 C 0.46209 0.47277 0.74974 0.0
C485 C 0.45438 0.48882 0.655 0.0
C486 C 0.44707 0.46577 0.72041 0.0
C487 C 0.49011 0.49022 0.80937 0.0
C488 C 0.48682 0.49625 0.75887 0.0
C489 C 0.48017 0.47452 0.82854 0.0
C490 C 0.46614 0.46582 0.79876 0.0
Tb491 Tb 0.48955 0.51805 0.65484 0.0
N492 N 0.49571 0.51164 0.73923 0.0
C493 C 0.50255 0.50074 0.83977 0.0
C494 C 0.50616 0.52305 0.77059 0.0
C495 C 0.51026 0.51749 0.82065 0.0
H496 H 0.45134 0.49517 0.61841 0.0
H497 H 0.51911 0.52627 0.84467 0.0
H498 H 0.56949 0.50394 0.63244 0.0
H499 H 0.51742 0.52501 0.37058 0.0
H500 H 0.51139 0.53651 0.75717 0.0
H501 H 0.50551 0.49659 0.87878 0.0
H502 H 0.51321 0.50383 0.44508 0.0
H503 H 0.43113 0.46908 0.65085 0.0
H504 H 0.48268 0.46949 0.867 0.0
H505 H 0.45811 0.45415 0.81459 0.0
H506 H 0.5955 0.52682 0.64171 0.0
H507 H 0.43828 0.45433 0.73438 0.0
H508 H 0.54118 0.55078 0.37387 0.0
N509 N 0.55673 0.51832 0.56998 0.0
C510 C 0.55946 0.53153 0.53317 0.0
C511 C 0.58525 0.52855 0.61148 0.0
C512 C 0.57458 0.54451 0.53552 0.0
C513 C 0.57017 0.51583 0.60679 0.0
C514 C 0.58723 0.54324 0.57633 0.0
N515 N 0.53412 0.5177 0.48969 0.0
C516 C 0.52367 0.51495 0.44644 0.0
C517 C 0.55079 0.54348 0.44983 0.0
C518 C 0.54792 0.53099 0.49095 0.0
C519 C 0.53944 0.54146 0.40636 0.0
C520 C 0.52602 0.52692 0.40435 0.0
H521 H 0.59905 0.55293 0.57963 0.0
H522 H 0.58838 0.568 0.49739 0.0
H523 H 0.56741 0.56716 0.4223 0.0
O524 O 0.52729 0.47603 0.51332 0.0
O525 O 0.51459 0.52551 0.54464 0.0
O526 O 0.50966 0.53866 0.62306 0.0
O527 O 0.55456 0.48396 0.54172 0.0
O528 O 0.50133 0.49189 0.53714 0.0
O529 O 0.48102 0.51359 0.57513 0.0
O530 O 0.47392 0.53567 0.70367 0.0
O531 O 0.49175 0.48766 0.63602 0.0
O532 O 0.52344 0.48298 0.62916 0.0
O533 O 0.4679 0.53448 0.62352 0.0
O534 O 0.51895 0.5267 0.67112 0.0
O535 O 0.53599 0.50117 0.64376 0.0
C536 C 0.51296 0.54043 0.5739 0.0
C537 C 0.54707 0.45142 0.54059 0.0
C538 C 0.53337 0.42142 0.56934 0.0
C539 C 0.55173 0.4144 0.5762 0.0
C540 C 0.5652 0.44407 0.54737 0.0
C541 C 0.56748 0.42575 0.5658 0.0
C542 C 0.53129 0.44021 0.55329 0.0
C543 C 0.48516 0.50114 0.53926 0.0
C544 C 0.54459 0.47071 0.5204 0.0
C545 C 0.577 0.55774 0.49599 0.0
C546 C 0.56511 0.55722 0.45315 0.0
C547 C 0.50658 0.47689 0.64183 0.0
C548 C 0.46484 0.56378 0.66298 0.0
C549 C 0.48174 0.59378 0.66901 0.0
C550 C 0.46543 0.60306 0.65197 0.0
C551 C 0.44874 0.57325 0.64612 0.0
C552 C 0.48135 0.57405 0.674 0.0
C553 C 0.44907 0.59282 0.64057 0.0
C554 C 0.53356 0.51545 0.67522 0.0
C555 C 0.46458 0.54314 0.66623 0.0
H556 H 0.55402 0.39994 0.58766 0.0
H557 H 0.57757 0.45248 0.53832 0.0
H558 H 0.58152 0.42013 0.57075 0.0
H559 H 0.51727 0.44601 0.54975 0.0
H560 H 0.46517 0.61827 0.64845 0.0
H561 H 0.43597 0.56549 0.63693 0.0
H562 H 0.49391 0.56665 0.68604 0.0
H563 H 0.43658 0.60009 0.62763 0.0
Tb564 Tb 0.02068 0.53517 0.55975 0.0
C565 C 0.03174 0.46679 0.68563 0.0
N566 N 0.01911 0.46905 0.64716 0.0
C567 C 0.03012 0.44048 0.60804 0.0
C568 C 0.04484 0.45194 0.68529 0.0
C569 C 0.01727 0.45534 0.61062 0.0
C570 C 0.04427 0.43901 0.64489 0.0
C571 C 0.04253 0.47632 0.76969 0.0
C572 C 0.03055 0.47863 0.72733 0.0
C573 C 0.05638 0.46225 0.76838 0.0
C574 C 0.05753 0.45006 0.72621 0.0
Tb575 Tb 1.00021 0.49522 0.65321 0.0
N576 N 0.01726 0.49227 0.72661 0.0
C577 C 0.04 0.48805 0.81224 0.0
C578 C 0.01399 0.50308 0.76891 0.0
C579 C 0.02547 0.50129 0.81213 0.0
H580 H 0.00579 0.4556 0.58357 0.0
H581 H 0.02316 0.51018 0.84518 0.0
H582 H 0.99838 0.57385 0.59196 0.0
H583 H 0.03318 0.50561 0.37166 0.0
H584 H 1.00283 0.51336 0.76872 0.0
H585 H 0.04893 0.48675 0.84561 0.0
H586 H 0.04116 0.51301 0.46121 0.0
H587 H 0.02892 0.43001 0.57808 0.0
H588 H 0.06594 0.46039 0.80023 0.0
H589 H 0.06789 0.4389 0.72633 0.0
H590 H 0.97439 0.59498 0.55425 0.0
H591 H 0.05407 0.42738 0.64313 0.0
H592 H 0.00508 0.51994 0.3317 0.0
N593 N 0.99875 0.55537 0.52795 0.0
C594 C 0.99297 0.55228 0.4793 0.0
C595 C 0.97937 0.5829 0.53294 0.0
C596 C 0.97928 0.56377 0.45629 0.0
C597 C 0.9929 0.57096 0.55419 0.0
C598 C 0.97225 0.57908 0.48412 0.0
N599 N 0.01637 0.52916 0.47427 0.0
C600 C 0.0283 0.51852 0.44514 0.0
C601 C 0.99725 0.53533 0.39997 0.0
C602 C 1.00187 0.53835 0.45173 0.0
C603 C 0.00817 0.52271 0.37157 0.0
C604 C 0.02404 0.51461 0.39398 0.0
H605 H 0.96176 0.58832 0.46777 0.0
H606 H 0.96294 0.56847 0.38755 0.0
H607 H 0.97867 0.54348 0.33813 0.0
O608 O 0.03954 0.55092 0.51424 0.0
O609 O 0.98981 0.5334 0.57365 0.0
O610 O 0.98495 0.50176 0.58317 0.0
O611 O 0.0375 0.55595 0.59483 0.0
O612 O 0.02856 0.50556 0.54462 0.0
O613 O 1.00251 0.48869 0.57093 0.0
O614 O 0.97472 0.49842 0.69314 0.0
O615 O 0.02603 0.51129 0.6709 0.0
O616 O 0.04011 0.51465 0.5933 0.0
O617 O 0.98537 0.47088 0.67661 0.0
O618 O 0.99269 0.52415 0.6765 0.0
O619 O 0.01453 0.54448 0.63798 0.0
C620 C 0.97879 0.51845 0.57024 0.0
C621 C 0.06742 0.55858 0.55852 0.0
C622 C 0.09657 0.54053 0.55522 0.0
C623 C 0.1065 0.55653 0.57271 0.0
C624 C 0.07752 0.57436 0.57589 0.0
C625 C 0.09699 0.5733 0.58304 0.0
C626 C 0.07693 0.54167 0.54872 0.0
C627 C 0.0169 0.49115 0.53961 0.0
C628 C 0.04687 0.55956 0.55333 0.0
C629 C 0.97367 0.56001 0.40577 0.0
C630 C 0.9826 0.54576 0.37767 0.0
C631 C 0.0413 0.51183 0.64271 0.0
C632 C 0.95257 0.47566 0.66542 0.0
C633 C 0.92103 0.48501 0.63805 0.0
C634 C 0.9188 0.46761 0.61311 0.0
C635 C 0.95005 0.45828 0.64029 0.0
C636 C 0.9379 0.48889 0.66422 0.0
C637 C 0.93328 0.45435 0.61424 0.0
C638 C 1.00182 0.54048 0.67344 0.0
C639 C 0.97071 0.48054 0.69041 0.0
H640 H 0.12168 0.55624 0.57735 0.0
H641 H 0.07032 0.58744 0.58419 0.0
H642 H 0.10476 0.58554 0.59633 0.0
H643 H 0.069 0.52938 0.53629 0.0
H644 H 0.90589 0.46429 0.59279 0.0
H645 H 0.96108 0.44779 0.6403 0.0
H646 H 0.93951 0.5022 0.68419 0.0
H647 H 0.93149 0.44097 0.59483 0.0
C648 C 0.15404 0.04931 0.21604 0.0
C649 C 0.16292 0.03306 0.19674 0.0
C650 C 0.13951 0.04789 0.2523 0.0
C651 C 0.12101 0.0156 0.35174 0.0
H652 H 0.0774 0.0483 0.35054 0.0
C653 C 0.05939 1.00464 0.49311 0.0
C654 C 0.05065 0.02059 0.51414 0.0
C655 C 0.07244 0.00642 0.45325 0.0
C656 C 0.0896 0.0392 0.35185 0.0
H657 H 0.16266 1.0025 0.19926 0.0
H658 H 0.13742 1.00004 0.26245 0.0
H659 H 0.10087 0.05071 0.2823 0.0
H660 H 0.04877 0.051 0.50976 0.0
H661 H 0.07178 0.05423 0.44024 0.0
H662 H 0.10997 1.00423 0.42141 0.0
C663 C 0.14194 0.01393 0.25011 0.0
C664 C 0.10306 0.04056 0.31258 0.0
C665 C 0.15642 0.01534 0.21374 0.0
C666 C 0.05518 0.03843 0.49407 0.0
C667 C 0.06833 0.04025 0.45411 0.0
C668 C 0.10762 0.01429 0.39101 0.0
C669 C 0.13347 0.0302 0.2705 0.0
C670 C 0.11892 0.02872 0.31188 0.0
C671 C 0.07725 0.02425 0.43333 0.0
C672 C 0.09166 0.02601 0.39161 0.0
H673 H 0.15882 0.06323 0.20473 0.0
H674 H 0.1335 0.06073 0.26747 0.0
H675 H 0.13322 0.00652 0.35317 0.0
H676 H 0.05606 0.99066 0.50732 0.0
H677 H 0.07865 0.99374 0.43772 0.0
C678 C 0.5062 0.16984 0.25378 0.0
C679 C 0.49464 0.16844 0.21021 0.0
C680 C 0.50781 0.15474 0.28794 0.0
C681 C 0.48314 0.11093 0.3301 0.0
H682 H 0.53049 0.10159 0.39918 0.0
C683 C 0.49361 0.0484 0.4722 0.0
C684 C 0.504 0.0523 0.51679 0.0
C685 C 0.49248 0.06167 0.43248 0.0
C686 C 0.5171 0.10408 0.38062 0.0
H687 H 0.47615 0.1496 0.16798 0.0
H688 H 0.47909 0.1232 0.22729 0.0
H689 H 0.5289 0.12592 0.33381 0.0
H690 H 0.52143 0.07338 0.55363 0.0
H691 H 0.51952 0.09641 0.48552 0.0
H692 H 0.47137 0.08905 0.37722 0.0
C693 C 0.48667 0.13615 0.23553 0.0
C694 C 0.51617 0.11809 0.34302 0.0
C695 C 0.48503 0.1513 0.20134 0.0
C696 C 0.51334 0.06978 0.52027 0.0
C697 C 0.5123 0.08301 0.48075 0.0
C698 C 0.48408 0.09685 0.36769 0.0
C699 C 0.49795 0.13771 0.27964 0.0
C700 C 0.49913 0.12192 0.3176 0.0
C701 C 0.5019 0.07916 0.43615 0.0
C702 C 0.50102 0.0934 0.39399 0.0
H703 H 0.51351 0.18289 0.26267 0.0
H704 H 0.51637 0.15667 0.32181 0.0
H705 H 0.4697 0.11356 0.31192 0.0
H706 H 0.4866 0.03496 0.46763 0.0
H707 H 0.48452 0.05805 0.39852 0.0
C708 C 0.3672 0.50047 0.19026 0.0
C709 C 0.35532 0.48448 0.19087 0.0
C710 C 0.38245 0.502 0.22423 0.0
C711 C 0.41246 0.47378 0.31326 0.0
H712 H 0.42244 0.52239 0.37567 0.0
C713 C 0.47444 0.48615 0.45619 0.0
C714 C 0.47096 0.49822 0.49787 0.0
C715 C 0.46124 0.48431 0.41644 0.0
C716 C 0.4198 0.50866 0.35892 0.0
H717 H 0.3502 0.45771 0.22867 0.0
H718 H 0.37654 0.46039 0.28753 0.0
H719 H 0.39797 0.51949 0.31097 0.0
H720 H 0.45042 0.5174 0.53057 0.0
H721 H 0.42753 0.51389 0.46251 0.0
H722 H 0.43386 0.46284 0.36262 0.0
C723 C 0.37442 0.47159 0.26006 0.0
C724 C 0.40589 0.50705 0.32113 0.0
C725 C 0.35924 0.47004 0.2261 0.0
C726 C 0.45378 0.50807 0.49911 0.0
C727 C 0.44063 0.50619 0.45962 0.0
C728 C 0.42636 0.47539 0.35116 0.0
C729 C 0.3862 0.48763 0.25993 0.0
C730 C 0.40186 0.48955 0.29808 0.0
C731 C 0.44419 0.49443 0.41741 0.0
C732 C 0.43008 0.49281 0.37502 0.0
H733 H 0.36473 0.5118 0.16342 0.0
H734 H 0.39134 0.51446 0.22238 0.0
H735 H 0.40999 0.46011 0.29596 0.0
H736 H 0.48745 0.47829 0.45385 0.0
H737 H 0.46457 0.4752 0.38448 0.0
C738 C 0.0473 0.37287 0.20228 0.0
C739 C 0.03085 0.3657 0.17888 0.0
C740 C 0.04638 0.38754 0.23811 0.0
C741 C 0.01443 0.4248 0.2906 0.0
H742 H 0.04821 0.42252 0.40688 0.0
C743 C 1.00333 0.46913 0.47429 0.0
C744 C 0.01925 0.47771 0.49653 0.0
C745 C 0.00526 0.4564 0.43373 0.0
C746 C 0.03881 0.4235 0.37438 0.0
H747 H 1.00051 0.36916 0.17424 0.0
H748 H 0.99883 0.39415 0.23781 0.0
H749 H 0.05042 0.39885 0.33961 0.0
H750 H 0.04975 0.47944 0.49424 0.0
H751 H 0.0532 0.45699 0.42345 0.0
H752 H 1.00252 0.44921 0.32644 0.0
C753 C 0.01256 0.38862 0.2279 0.0
C754 C 0.0401 0.40992 0.33554 0.0
C755 C 0.01349 0.37404 0.1917 0.0
C756 C 0.03722 0.47315 0.47758 0.0
C757 C 0.03918 0.46021 0.43729 0.0
C758 C 0.01303 0.43827 0.3297 0.0
C759 C 0.02897 0.39545 0.25221 0.0
C760 C 0.02789 0.41031 0.29304 0.0
C761 C 0.02321 0.4517 0.41475 0.0
C762 C 0.02516 0.43776 0.37221 0.0
H763 H 0.06094 0.36675 0.19431 0.0
H764 H 0.05941 0.39256 0.25506 0.0
H765 H 0.005 0.42588 0.25824 0.0
H766 H 0.98929 0.47237 0.48807 0.0
H767 H 0.99268 0.44996 0.41777 0.0
C768 C 0.87749 0.98335 0.05492 0.0
C769 C 0.86057 0.99343 0.04905 0.0
C770 C 0.89211 0.98506 0.01906 0.0
C771 C 0.91064 0.01528 0.91445 0.0
H772 H 0.93408 0.9692 0.86695 0.0
C773 C 0.95757 0.01447 0.73429 0.0
C774 C 0.97367 1.00293 0.73341 0.0
C775 C 0.94444 0.0132 0.77408 0.0
C776 C 0.92792 0.98225 0.88021 0.0
H777 H 0.84615 0.0136 1.00086 0.0
H778 H 0.87172 0.01681 0.93902 0.0
H779 H 0.91047 0.96785 0.93486 0.0
H780 H 0.98815 0.98061 0.77377 0.0
H781 H 0.96542 0.97869 0.84389 0.0
H782 H 0.92808 0.02973 0.86018 0.0
C783 C 0.87369 0.00761 0.97157 0.0
C784 C 0.91434 0.98147 0.91921 0.0
C785 C 0.85902 1.00582 0.00727 0.0
C786 C 0.97603 0.98982 0.77318 0.0
C787 C 0.96288 0.98863 0.81332 0.0
C788 C 0.92429 0.01608 0.87572 0.0
C789 C 0.8903 0.997 0.97648 0.0
C790 C 0.90539 0.99795 0.93654 0.0
C791 C 0.94697 1.00043 0.81456 0.0
C792 C 0.933 0.99956 0.85757 0.0
H793 H 0.87939 0.97394 0.08703 0.0
H794 H 0.90483 0.97695 0.02461 0.0
H795 H 0.90428 0.02828 0.92737 0.0
H796 H 0.95506 0.02464 0.70428 0.0
H797 H 0.93218 0.02221 0.7728 0.0
C798 C 0.52477 0.87149 0.03119 0.0
C799 C 0.51718 0.85354 0.02022 0.0
C800 C 0.52293 0.8864 0.99641 0.0
C801 C 0.51523 0.89569 0.85865 0.0
H802 H 0.50599 0.9469 0.90367 0.0
C803 C 0.52434 0.96014 0.72431 0.0
C804 C 0.51063 0.97431 0.72701 0.0
C805 C 0.52449 0.94541 0.75998 0.0
C806 C 0.50845 0.93266 0.89036 0.0
H807 H 0.50152 0.83742 0.96375 0.0
H808 H 0.4981 0.86342 0.90363 0.0
H809 H 0.50677 0.9214 0.9663 0.0
H810 H 0.48659 0.98445 0.76982 0.0
H811 H 0.48689 0.95884 0.8325 0.0
H812 H 0.51681 0.90694 0.78268 0.0
C813 C 0.50562 0.86593 0.93903 0.0
C814 C 0.50909 0.91805 0.92639 0.0
C815 C 0.50736 0.85106 0.97392 0.0
C816 C 0.49734 0.9737 0.76685 0.0
C817 C 0.49753 0.95904 0.80275 0.0
C818 C 0.51471 0.91031 0.82268 0.0
C819 C 0.51355 0.88376 0.94949 0.0
C820 C 0.51251 0.89935 0.91106 0.0
C821 C 0.51108 0.94465 0.79972 0.0
C822 C 0.51135 0.92902 0.83803 0.0
H823 H 0.53232 0.87397 0.06655 0.0
H824 H 0.52933 0.89988 1.00569 0.0
H825 H 0.51809 0.88152 0.8454 0.0
H826 H 0.53503 0.96049 0.69472 0.0
H827 H 0.53531 0.93477 0.75686 0.0
C828 C 0.65747 0.5129 1.00233 0.0
C829 C 0.66515 0.53034 0.0179 0.0
C830 C 0.64199 0.51208 0.96911 0.0
C831 C 0.61658 0.54085 0.87238 0.0
H832 H 0.57937 0.50072 0.88217 0.0
C833 C 0.55137 0.53607 0.73747 0.0
C834 C 0.54724 0.51808 0.71767 0.0
C835 C 0.56475 0.53833 0.77656 0.0
C836 C 0.58971 0.51196 0.87867 0.0
H837 H 0.66206 0.56065 0.01094 0.0
H838 H 0.63477 0.55921 0.95459 0.0
H839 H 0.6041 0.50327 0.94648 0.0
H840 H 0.55374 0.48837 0.72371 0.0
H841 H 0.57697 0.49225 0.79157 0.0
H842 H 0.60211 0.54949 0.80444 0.0
C843 C 0.64095 0.54611 0.96731 0.0
C844 C 0.60396 0.51341 0.91557 0.0
C845 C 0.65648 0.54694 1.00042 0.0
C846 C 0.55662 0.50242 0.7381 0.0
C847 C 0.56985 0.50464 0.77733 0.0
C848 C 0.60226 0.53945 0.83561 0.0
C849 C 0.63363 0.52867 0.95054 0.0
C850 C 0.61776 0.52775 0.91271 0.0
C851 C 0.57418 0.52262 0.797 0.0
C852 C 0.58875 0.52485 0.8379 0.0
H853 H 0.66357 0.4998 0.01532 0.0
H854 H 0.63694 0.49836 0.95687 0.0
H855 H 0.62707 0.55192 0.86824 0.0
H856 H 0.54442 0.54841 0.72227 0.0
H857 H 0.56764 0.55236 0.79101 0.0
C858 C 1.00113 0.66937 0.98924 0.0
C859 C 0.98884 0.66747 0.03128 0.0
C860 C 1.00252 0.65508 0.95242 0.0
C861 C 0.9916 0.60445 0.92641 0.0
H862 H 0.99419 0.6206 0.78502 0.0
C863 C 0.98633 0.55176 0.75528 0.0
C864 C 0.99881 0.55492 0.71418 0.0
C865 C 0.9845 0.56514 0.79464 0.0
C866 C 0.99366 0.61579 0.82428 0.0
H867 H 0.96904 0.64846 0.06838 0.0
H868 H 0.97128 0.62367 1.00388 0.0
H869 H 0.99305 0.64406 0.85283 0.0
H870 H 0.01894 0.57501 0.68249 0.0
H871 H 0.01579 0.598 0.75043 0.0
H872 H 0.99222 0.57612 0.89753 0.0
C873 C 0.97991 0.63622 0.99946 0.0
C874 C 0.99305 0.62929 0.86332 0.0
C875 C 0.9785 0.65054 0.03631 0.0
C876 C 0.00913 0.57196 0.7132 0.0
C877 C 0.00726 0.58529 0.75226 0.0
C878 C 0.99222 0.5909 0.88724 0.0
C879 C 0.99167 0.63844 0.95644 0.0
C880 C 0.99217 0.62385 0.915 0.0
C881 C 0.99499 0.58209 0.7937 0.0
C882 C 0.99341 0.59639 0.83561 0.0
H883 H 0.00918 0.68223 0.98357 0.0
H884 H 0.01199 0.6572 0.92037 0.0
H885 H 0.99108 0.59969 0.96571 0.0
H886 H 0.97806 0.53889 0.75735 0.0
H887 H 0.97475 0.56227 0.82562 0.0
C888 C 0.07965 0.20938 0.32589 0.0
C889 C 0.06598 0.2234 0.31779 0.0
C890 C 0.0773 0.19606 0.36491 0.0
C891 C 0.05015 0.18537 0.48213 0.0
H892 H 0.04503 0.13487 0.42667 0.0
C893 C 0.99525 0.13336 0.55656 0.0
C894 C 0.99919 0.11397 0.55843 0.0
C895 C 0.00824 0.14603 0.53572 0.0
C896 C 0.04681 0.14875 0.44335 0.0
H897 H 0.0394 0.23454 0.34632 0.0
H898 H 0.03592 0.2121 0.41474 0.0
H899 H 0.0609 0.15924 0.37663 0.0
H900 H 0.02012 0.09285 0.53884 0.0
H901 H 0.0427 0.11502 0.50253 0.0
H902 H 0.03531 0.17515 0.54784 0.0
C903 C 0.04846 0.21141 0.39108 0.0
C904 C 0.05596 0.16269 0.4147 0.0
C905 C 0.05056 0.22441 0.35168 0.0
C906 C 0.01647 0.10762 0.53826 0.0
C907 C 0.0295 0.12034 0.51744 0.0
C908 C 0.04112 0.17142 0.51088 0.0
C909 C 0.06149 0.19682 0.39722 0.0
C910 C 0.05689 0.18131 0.43287 0.0
C911 C 0.02552 0.13969 0.51598 0.0
C912 C 0.03855 0.15321 0.49071 0.0
H913 H 0.09189 0.20833 0.30129 0.0
H914 H 0.08754 0.18491 0.36904 0.0
H915 H 0.05089 0.1996 0.49714 0.0
H916 H 0.98192 0.13879 0.57023 0.0
H917 H 1.00447 0.16079 0.53377 0.0
C918 C 0.31069 0.08592 0.33621 0.0
C919 C 0.31285 0.08919 0.28345 0.0
C920 C 0.3265 0.08367 0.36741 0.0
C921 C 0.37902 0.08527 0.37056 0.0
H922 H 0.37388 0.03393 0.41998 0.0
C923 C 0.42704 0.01709 0.3687 0.0
C924 C 0.44264 0.02159 0.39939 0.0
C925 C 0.4109 0.02818 0.37034 0.0
C926 C 0.37544 0.04841 0.40739 0.0
H927 H 0.33339 0.09493 0.22362 0.0
H928 H 0.36072 0.09139 0.27794 0.0
H929 H 0.34579 0.05159 0.39697 0.0
H930 H 0.45356 0.04101 0.45633 0.0
H931 H 0.42543 0.06098 0.45747 0.0
H932 H 0.4089 0.08145 0.37818 0.0
C933 C 0.34685 0.09045 0.29529 0.0
C934 C 0.35939 0.0586 0.3946 0.0
C935 C 0.33109 0.09249 0.26401 0.0
C936 C 0.44176 0.0373 0.43212 0.0
C937 C 0.42572 0.04869 0.43287 0.0
C938 C 0.39511 0.07512 0.38407 0.0
C939 C 0.34473 0.08493 0.34652 0.0
C940 C 0.36107 0.07679 0.37373 0.0
C941 C 0.41018 0.04414 0.40204 0.0
C942 C 0.39343 0.05632 0.40025 0.0
H943 H 0.29681 0.08381 0.35272 0.0
H944 H 0.32448 0.07969 0.40702 0.0
H945 H 0.38068 0.09929 0.3547 0.0
H946 H 0.42731 1.00496 0.34353 0.0
H947 H 0.3991 0.02453 0.34585 0.0
C948 C 0.45338 0.2971 0.39298 0.0
C949 C 0.44919 0.30698 0.34787 0.0
C950 C 0.45481 0.30667 0.43963 0.0
C951 C 0.44852 0.35381 0.50172 0.0
H952 H 0.4989 0.34461 0.55296 0.0
C953 C 0.50152 0.41092 0.53835 0.0
C954 C 0.51656 0.40868 0.57283 0.0
C955 C 0.48731 0.39736 0.53468 0.0
C956 C 0.48455 0.34713 0.54071 0.0
H957 H 0.44137 0.33413 0.31694 0.0
H958 H 0.4441 0.35087 0.39775 0.0
H959 H 0.48363 0.32117 0.49946 0.0
H960 H 0.52721 0.39115 0.63419 0.0
H961 H 0.50259 0.36699 0.62627 0.0
H962 H 0.45021 0.38053 0.53972 0.0
C963 C 0.44621 0.33576 0.39757 0.0
C964 C 0.47575 0.33364 0.5098 0.0
C965 C 0.44486 0.32623 0.35103 0.0
C966 C 0.51615 0.39313 0.60629 0.0
C967 C 0.50196 0.37937 0.60212 0.0
C968 C 0.45733 0.36731 0.53265 0.0
C969 C 0.45199 0.32626 0.44202 0.0
C970 C 0.45816 0.33738 0.48727 0.0
C971 C 0.48781 0.38101 0.5648 0.0
C972 C 0.47594 0.36462 0.54957 0.0
H973 H 0.45681 0.28225 0.39167 0.0
H974 H 0.45912 0.29893 0.47328 0.0
H975 H 0.43477 0.35689 0.48593 0.0
H976 H 0.50132 0.4224 0.51116 0.0
H977 H 0.47683 0.39898 0.50491 0.0
C978 C 0.21081 0.44297 0.35421 0.0
C979 C 0.20469 0.44436 0.30325 0.0
C980 C 0.1981 0.44538 0.39452 0.0
C981 C 0.1473 0.45221 0.42692 0.0
H982 H 0.16688 0.4933 0.50951 0.0
C983 C 0.10168 0.51281 0.49744 0.0
C984 C 0.10675 0.523 0.54148 0.0
C985 C 0.11239 0.49747 0.48136 0.0
C986 C 0.16118 0.4815 0.48807 0.0
H987 H 0.18014 0.44764 0.25474 0.0
H988 H 0.15805 0.45182 0.32476 0.0
H989 H 0.18827 0.47507 0.45728 0.0
H990 H 0.12622 0.52425 0.60512 0.0
H991 H 0.14486 0.49728 0.57744 0.0
H992 H 0.12002 0.45932 0.45613 0.0
C993 C 0.17261 0.44875 0.33379 0.0
C994 C 0.17352 0.471 0.45797 0.0
C995 C 0.18532 0.44637 0.29351 0.0
C996 C 0.12218 0.51688 0.57054 0.0
C997 C 0.13282 0.50141 0.5547 0.0
C998 C 0.13494 0.46267 0.45734 0.0
C999 C 0.17902 0.44919 0.38462 0.0
C1000 C 0.16661 0.45679 0.42537 0.0
C1001 C 0.1284 0.49189 0.50902 0.0
C1002 C 0.14165 0.478 0.48646 0.0
H1003 H 0.22561 0.44104 0.3629 0.0
H1004 H 0.20338 0.44532 0.43336 0.0
H1005 H 0.14162 0.44114 0.40276 0.0
H1006 H 0.09001 0.51725 0.47376 0.0
H1007 H 0.10871 0.49073 0.44554 0.0
C1008 C 0.94699 0.79959 0.87914 0.0
C1009 C 0.93639 0.80631 0.92052 0.0
C1010 C 0.95046 0.81115 0.83694 0.0
C1011 C 0.95581 0.86198 0.81875 0.0
H1012 H 0.97682 0.84612 0.68876 0.0
C1013 C 0.01948 0.89902 0.73669 0.0
C1014 C 0.01966 0.90409 0.68491 0.0
C1015 C 0.00558 0.88699 0.75563 0.0
C1016 C 0.97073 0.85084 0.72452 0.0
H1017 H 0.91912 0.82916 0.9482 0.0
H1018 H 0.9241 0.849 0.87307 0.0
H1019 H 0.95553 0.82493 0.73551 0.0
H1020 H 0.00603 0.89994 0.61164 0.0
H1021 H 0.98149 0.87854 0.64505 0.0
H1022 H 0.97119 0.88766 0.80837 0.0
C1023 C 0.93048 0.83518 0.87385 0.0
C1024 C 0.95866 0.83868 0.75153 0.0
C1025 C 0.92741 0.82378 0.91662 0.0
C1026 C 0.00619 0.89613 0.65173 0.0
C1027 C 0.99216 0.884 0.67081 0.0
C1028 C 0.96769 0.87408 0.79174 0.0
C1029 C 0.94316 0.82957 0.83526 0.0
C1030 C 0.95173 0.84379 0.80014 0.0
C1031 C 0.99146 0.87978 0.72329 0.0
C1032 C 0.97601 0.86829 0.74567 0.0
H1033 H 0.95416 0.78618 0.88168 0.0
H1034 H 0.96033 0.80627 0.80833 0.0
H1035 H 0.95102 0.86651 0.85607 0.0
H1036 H 0.0299 0.90473 0.76286 0.0
H1037 H 0.00572 0.88354 0.79597 0.0
C1038 C 0.72316 0.93262 0.93317 0.0
C1039 C 0.71848 0.92366 0.97931 0.0
C1040 C 0.70945 0.93503 0.89546 0.0
C1041 C 0.65947 0.94364 0.90205 0.0
H1042 H 0.66469 0.95547 0.75807 0.0
C1043 C 0.60413 0.98892 0.80514 0.0
C1044 C 0.61082 1.00339 0.77299 0.0
C1045 C 0.61584 0.97419 0.81972 0.0
C1046 C 0.66304 0.95227 0.7983 0.0
H1047 H 0.69702 0.90767 0.01944 0.0
H1048 H 0.67325 0.91114 0.95273 0.0
H1049 H 0.68841 0.9359 0.80008 0.0
H1050 H 0.63507 0.0131 0.72929 0.0
H1051 H 0.65593 0.98807 0.75777 0.0
H1052 H 0.63501 0.9608 0.90188 0.0
C1053 C 0.68724 0.91688 0.94619 0.0
C1054 C 0.67654 0.94095 0.82221 0.0
C1055 C 0.70086 0.91473 0.98418 0.0
C1056 C 0.6295 1.00244 0.75491 0.0
C1057 C 0.64138 0.98785 0.77045 0.0
C1058 C 0.64614 0.95497 0.87842 0.0
C1059 C 0.69095 0.92835 0.90342 0.0
C1060 C 0.6751 0.93687 0.87468 0.0
C1061 C 0.63478 0.97375 0.80392 0.0
C1062 C 0.64792 0.95979 0.82653 0.0
H1063 H 0.73666 0.9397 0.92876 0.0
H1064 H 0.71282 0.9439 0.86299 0.0
H1065 H 0.65812 0.94127 0.94279 0.0
H1066 H 0.58997 0.98917 0.82065 0.0
H1067 H 0.61012 0.96339 0.84468 0.0
C1068 C 0.57267 0.68817 0.93072 0.0
C1069 C 0.57398 0.70751 0.91951 0.0
C1070 C 0.57081 0.67497 0.89139 0.0
C1071 C 0.54855 0.67395 0.76735 0.0
H1072 H 0.56141 0.62095 0.7721 0.0
C1073 C 0.50456 0.62052 0.65497 0.0
C1074 C 0.49882 0.60474 0.68359 0.0
C1075 C 0.51957 0.63183 0.67142 0.0
C1076 C 0.55771 0.63572 0.77014 0.0
H1077 H 0.57673 0.72796 0.85841 0.0
H1078 H 0.57348 0.70487 0.7896 0.0
H1079 H 0.57897 0.64355 0.82455 0.0
H1080 H 0.50476 0.58812 0.75117 0.0
H1081 H 0.53045 0.60809 0.78074 0.0
H1082 H 0.52653 0.6662 0.71598 0.0
C1083 C 0.57351 0.69997 0.82881 0.0
C1084 C 0.56783 0.64865 0.80001 0.0
C1085 C 0.57536 0.71318 0.86816 0.0
C1086 C 0.50893 0.60007 0.72791 0.0
C1087 C 0.52378 0.6115 0.74473 0.0
C1088 C 0.53839 0.66105 0.73784 0.0
C1089 C 0.57023 0.68085 0.84011 0.0
C1090 C 0.56287 0.66781 0.80033 0.0
C1091 C 0.52897 0.62781 0.71742 0.0
C1092 C 0.54235 0.64168 0.74035 0.0
H1093 H 0.57145 0.68335 0.96987 0.0
H1094 H 0.56818 0.66038 0.9015 0.0
H1095 H 0.54415 0.68854 0.76717 0.0
H1096 H 0.49726 0.62426 0.62015 0.0
H1097 H 0.52344 0.64406 0.64885 0.0
C1098 C 0.80179 0.56955 0.8495 0.0
C1099 C 0.81154 0.57001 0.89627 0.0
C1100 C 0.81165 0.56783 0.80336 0.0
C1101 C 0.8607 0.56513 0.7487 0.0
H1102 H 0.8387 0.52465 0.66854 0.0
C1103 C 0.90895 0.51805 0.63202 0.0
C1104 C 0.90544 0.49877 0.64001 0.0
C1105 C 0.89505 0.53136 0.64278 0.0
C1106 C 0.84509 0.53598 0.69039 0.0
H1107 H 0.83928 0.57117 0.93088 0.0
H1108 H 0.85637 0.56733 0.85151 0.0
H1109 H 0.81932 0.54136 0.72976 0.0
H1110 H 0.88438 0.47814 0.66244 0.0
H1111 H 0.8605 0.50115 0.68363 0.0
H1112 H 0.88693 0.55838 0.71363 0.0
C1113 C 0.84117 0.5685 0.84968 0.0
C1114 C 0.83385 0.54584 0.72509 0.0
C1115 C 0.83134 0.57041 0.89557 0.0
C1116 C 0.88741 0.49292 0.65566 0.0
C1117 C 0.87365 0.50621 0.66748 0.0
C1118 C 0.87203 0.555 0.71484 0.0
C1119 C 0.83144 0.56637 0.80311 0.0
C1120 C 0.84178 0.55984 0.75678 0.0
C1121 C 0.87752 0.52567 0.66314 0.0
C1122 C 0.86459 0.53958 0.68735 0.0
H1123 H 0.78652 0.56925 0.84865 0.0
H1124 H 0.80369 0.56666 0.76819 0.0
H1125 H 0.86716 0.57626 0.77116 0.0
H1126 H 0.92271 0.52288 0.61952 0.0
H1127 H 0.8984 0.54615 0.63756 0.0
C1128 C 0.01255 0.19601 0.8902 0.0
C1129 C 0.02993 0.20575 0.8891 0.0
C1130 C 0.0099 0.17935 0.86195 0.0
C1131 C 0.0318 0.14957 0.75854 0.0
H1132 H 1.00129 0.11016 0.82013 0.0
C1133 C 0.01988 0.07774 0.65639 0.0
C1134 C 0.01806 0.06144 0.68641 0.0
C1135 C 0.02033 0.09569 0.67892 0.0
C1136 C 0.01007 0.12086 0.80248 0.0
H1137 H 0.05778 0.20584 0.8545 0.0
H1138 H 0.05354 0.17663 0.8077 0.0
H1139 H 1.00408 0.14052 0.86227 0.0
H1140 H 0.01501 0.05135 0.76405 0.0
H1141 H 0.01682 0.0823 0.80369 0.0
H1142 H 0.03866 0.12959 0.70026 0.0
C1143 C 0.04175 0.18191 0.82968 0.0
C1144 C 0.0114 0.13854 0.82634 0.0
C1145 C 0.04431 0.19864 0.85738 0.0
C1146 C 0.01673 0.06354 0.73971 0.0
C1147 C 0.01742 0.08145 0.76241 0.0
C1148 C 0.03069 0.13181 0.73504 0.0
C1149 C 0.0246 0.1718 0.83203 0.0
C1150 C 0.02239 0.15318 0.805 0.0
C1151 C 0.01915 0.09788 0.7324 0.0
C1152 C 0.01991 0.11709 0.75677 0.0
H1153 H 1.00113 0.20086 0.91428 0.0
H1154 H 0.99633 0.17231 0.86412 0.0
H1155 H 0.04014 0.16045 0.74011 0.0
H1156 H 0.02105 0.07658 0.61534 0.0
H1157 H 0.02143 0.10786 0.65418 0.0
C1158 C 0.32066 0.05152 0.84225 0.0
C1159 C 0.3137 0.03764 0.87605 0.0
C1160 C 0.33697 0.04847 0.81309 0.0
C1161 C 0.37943 0.01726 0.80901 0.0
H1162 H 0.38932 0.04436 0.68315 0.0
C1163 C 0.4546 0.02117 0.72623 0.0
C1164 C 0.45745 0.02228 0.67313 0.0
C1165 C 0.43654 0.02249 0.74735 0.0
C1166 C 0.3868 0.03644 0.71786 0.0
H1167 H 0.31836 0.00908 0.90285 0.0
H1168 H 0.34581 1.00334 0.84987 0.0
H1169 H 0.35847 0.04651 0.7233 0.0
H1170 H 0.44325 0.02548 0.60044 0.0
H1171 H 0.41149 0.02694 0.63701 0.0
H1172 H 0.40735 0.00644 0.80241 0.0
C1173 C 0.33916 0.01699 0.84743 0.0
C1174 C 0.36907 0.03792 0.74155 0.0
C1175 C 0.32303 0.02017 0.87733 0.0
C1176 C 0.44159 0.02463 0.64155 0.0
C1177 C 0.42336 0.02562 0.66269 0.0
C1178 C 0.39699 0.01552 0.78492 0.0
C1179 C 0.34674 0.03126 0.81583 0.0
C1180 C 0.36516 0.02861 0.78806 0.0
C1181 C 0.42053 0.0245 0.71606 0.0
C1182 C 0.40116 0.02538 0.73949 0.0
H1183 H 0.31373 0.06501 0.83884 0.0
H1184 H 0.34222 0.05995 0.78976 0.0
H1185 H 0.37732 0.01 0.84495 0.0
H1186 H 0.46632 0.01886 0.75183 0.0
H1187 H 0.43523 0.02197 0.78855 0.0
C1188 C 0.5048 0.33209 0.90023 0.0
C1189 C 0.48795 0.32146 0.90034 0.0
C1190 C 0.50711 0.3476 0.86742 0.0
C1191 C 0.47922 0.38262 0.79494 0.0
H1192 H 0.52719 0.39459 0.73115 0.0
C1193 C 0.48782 0.44748 0.66155 0.0
C1194 C 0.50462 0.45796 0.66575 0.0
C1195 C 0.48591 0.42992 0.68581 0.0
C1196 C 0.51371 0.3916 0.74896 0.0
H1197 H 0.46067 0.31847 0.86353 0.0
H1198 H 0.46466 0.34546 0.80679 0.0
H1199 H 0.5238 0.36573 0.78096 0.0
H1200 H 0.53287 0.4579 0.69717 0.0
H1201 H 0.52952 0.42761 0.7401 0.0
H1202 H 0.4692 0.40862 0.76392 0.0
C1203 C 0.47599 0.34201 0.8328 0.0
C1204 C 0.51177 0.37498 0.77761 0.0
C1205 C 0.47371 0.32648 0.86544 0.0
C1206 C 0.51969 0.45022 0.69334 0.0
C1207 C 0.51778 0.43274 0.71777 0.0
C1208 C 0.48117 0.39927 0.76644 0.0
C1209 C 0.49261 0.35298 0.8338 0.0
C1210 C 0.49453 0.3703 0.80133 0.0
C1211 C 0.50079 0.42238 0.7149 0.0
C1212 C 0.49848 0.4041 0.74325 0.0
H1213 H 0.516 0.32891 0.92691 0.0
H1214 H 0.52003 0.35578 0.86975 0.0
H1215 H 0.4658 0.37969 0.81323 0.0
H1216 H 0.47617 0.4528 0.63925 0.0
H1217 H 0.47276 0.42224 0.6815 0.0
C1218 C 0.18378 0.5048 0.90988 0.0
C1219 C 0.19855 0.49325 0.89263 0.0
C1220 C 0.16735 0.50696 0.88082 0.0
C1221 C 0.1475 0.50211 0.75054 0.0
H1222 H 0.09974 0.49861 0.82236 0.0
C1223 C 0.07536 0.50193 0.64325 0.0
C1224 C 0.05999 0.51044 0.66786 0.0
C1225 C 0.09254 0.49952 0.66912 0.0
C1226 C 0.1129 0.49995 0.80157 0.0
H1227 H 0.20776 0.47541 0.83019 0.0
H1228 H 0.17911 0.4793 0.77923 0.0
H1229 H 0.12908 0.49571 0.86964 0.0
H1230 H 0.0508 0.52394 0.73773 0.0
H1231 H 0.08068 0.52049 0.78199 0.0
H1232 H 0.13137 0.50657 0.68257 0.0
C1233 C 0.18026 0.48665 0.81542 0.0
C1234 C 0.12979 0.49822 0.82884 0.0
C1235 C 0.19663 0.48433 0.84478 0.0
C1236 C 0.06231 0.51704 0.71806 0.0
C1237 C 0.07948 0.51491 0.74359 0.0
C1238 C 0.13058 0.50403 0.72325 0.0
C1239 C 0.16527 0.49776 0.83344 0.0
C1240 C 0.14732 0.4994 0.80381 0.0
C1241 C 0.09483 0.50588 0.71989 0.0
C1242 C 0.11299 0.50316 0.74839 0.0
H1243 H 0.18464 0.51172 0.94675 0.0
H1244 H 0.1562 0.51579 0.89563 0.0
H1245 H 0.16075 0.50318 0.73004 0.0
H1246 H 0.07394 0.49663 0.60458 0.0
H1247 H 0.10385 0.49226 0.64964 0.0
C1248 C 0.97571 0.82936 0.36524 0.0
C1249 C 0.99145 0.82157 0.34013 0.0
C1250 C 0.97754 0.84569 0.39523 0.0
C1251 C 0.00836 0.88766 0.41027 0.0
H1252 H 0.98107 0.89506 0.53721 0.0
C1253 C 0.02151 0.95346 0.53544 0.0
C1254 C 0.00605 0.9619 0.55988 0.0
C1255 C 0.01962 0.93598 0.51106 0.0
C1256 C 0.98864 0.89335 0.50153 0.0
H1257 H 0.02169 0.82456 0.32955 0.0
H1258 H 0.02482 0.85298 0.3814 0.0
H1259 H 0.97818 0.8651 0.49152 0.0
H1260 H 0.97661 0.95816 0.57949 0.0
H1261 H 0.97302 0.92793 0.5353 0.0
H1262 H 0.01862 0.91587 0.41954 0.0
C1263 C 0.01097 0.84663 0.37714 0.0
C1264 C 0.987 0.87611 0.47535 0.0
C1265 C 0.00917 0.83028 0.34735 0.0
C1266 C 0.98867 0.95226 0.56 0.0
C1267 C 0.98672 0.93476 0.5353 0.0
C1268 C 0.00993 0.90487 0.43625 0.0
C1269 C 0.99514 0.85476 0.40082 0.0
C1270 C 0.9969 0.873 0.42941 0.0
C1271 C 1.00217 0.92641 0.51014 0.0
C1272 C 1.00017 0.90799 0.4824 0.0
H1273 H 0.96179 0.82328 0.36013 0.0
H1274 H 0.965 0.85161 0.41245 0.0
H1275 H 0.01589 0.88598 0.37451 0.0
H1276 H 0.03516 0.96043 0.53478 0.0
H1277 H 0.03197 0.92991 0.49325 0.0
C1278 C 0.70471 0.99839 0.40432 0.0
C1279 C 0.70567 1.00055 0.35095 0.0
C1280 C 0.68755 1.00056 0.43045 0.0
C1281 C 0.63807 0.01844 0.41408 0.0
H1282 H 0.62786 0.98631 0.53081 0.0
C1283 C 0.5631 0.00827 0.49974 0.0
C1284 C 0.56143 0.00911 0.5533 0.0
C1285 C 0.58089 0.00791 0.47628 0.0
C1286 C 0.63055 0.99549 0.49853 0.0
H1287 H 0.68919 0.00652 0.28324 0.0
H1288 H 0.65936 0.00982 0.32814 0.0
H1289 H 0.65837 0.98463 0.48799 0.0
H1290 H 0.57733 0.01005 0.62414 0.0
H1291 H 0.6083 0.0091 0.58315 0.0
H1292 H 0.60994 0.02881 0.42392 0.0
C1293 C 0.67188 0.00704 0.35043 0.0
C1294 C 0.64813 0.99463 0.47399 0.0
C1295 C 0.68906 1.00511 0.32447 0.0
C1296 C 0.57803 0.00941 0.58279 0.0
C1297 C 0.59582 0.00878 0.55933 0.0
C1298 C 0.62042 0.01911 0.4382 0.0
C1299 C 0.67078 1.00469 0.40385 0.0
C1300 C 0.65218 0.00605 0.43121 0.0
C1301 C 0.59748 0.00812 0.50576 0.0
C1302 C 0.61641 0.00761 0.48064 0.0
H1303 H 0.71726 0.995 0.42591 0.0
H1304 H 0.68748 0.999 0.47161 0.0
H1305 H 0.64065 0.02779 0.38211 0.0
H1306 H 0.55066 0.00808 0.47576 0.0
H1307 H 0.58166 0.00724 0.43496 0.0
C1308 C 0.54155 0.68527 0.32701 0.0
C1309 C 0.52736 0.69907 0.32795 0.0
C1310 C 0.53992 0.66883 0.35626 0.0
C1311 C 0.51502 0.64728 0.46707 0.0
H1312 H 0.53013 0.60045 0.40278 0.0
C1313 C 0.51954 0.57545 0.57639 0.0
C1314 C 0.51335 0.55936 0.54966 0.0
C1315 C 0.5211 0.59294 0.55139 0.0
C1316 C 0.52574 0.61336 0.42132 0.0
H1317 H 0.50037 0.70629 0.36152 0.0
H1318 H 0.49744 0.67743 0.41233 0.0
H1319 H 0.5328 0.62989 0.35558 0.0
H1320 H 0.50285 0.54927 0.47683 0.0
H1321 H 0.50544 0.57952 0.4336 0.0
H1322 H 0.50771 0.63055 0.53262 0.0
C1323 C 0.50994 0.67948 0.38908 0.0
C1324 C 0.52747 0.63033 0.39438 0.0
C1325 C 0.51154 0.69597 0.35955 0.0
C1326 C 0.50812 0.56128 0.49816 0.0
C1327 C 0.50962 0.57867 0.47333 0.0
C1328 C 0.51337 0.63025 0.4942 0.0
C1329 C 0.52405 0.66559 0.38742 0.0
C1330 C 0.52211 0.64754 0.41674 0.0
C1331 C 0.51633 0.59472 0.49933 0.0
C1332 C 0.51859 0.61304 0.47154 0.0
H1333 H 0.55381 0.68692 0.30265 0.0
H1334 H 0.55119 0.65861 0.35436 0.0
H1335 H 0.51091 0.66025 0.48572 0.0
H1336 H 0.5237 0.57441 0.61611 0.0
H1337 H 0.52657 0.60494 0.57237 0.0
C1338 C 0.82593 0.51216 0.34462 0.0
C1339 C 0.81906 0.52983 0.32907 0.0
C1340 C 0.84207 0.51082 0.37525 0.0
C1341 C 0.87401 0.53785 0.46173 0.0
H1342 H 0.91084 0.50071 0.41997 0.0
C1343 C 0.95079 0.53736 0.54048 0.0
C1344 C 0.9596 0.51987 0.5474 0.0
C1345 C 0.93305 0.53852 0.51697 0.0
C1346 C 0.90064 0.51099 0.43283 0.0
H1347 H 0.82384 0.56001 0.33517 0.0
H1348 H 0.85175 0.55765 0.38907 0.0
H1349 H 0.88091 0.50267 0.37504 0.0
H1350 H 0.95598 0.48966 0.53754 0.0
H1351 H 0.92499 0.49158 0.4984 0.0
H1352 H 0.89379 0.54612 0.5197 0.0
C1353 C 0.84455 0.5448 0.3777 0.0
C1354 C 0.88341 0.51211 0.40691 0.0
C1355 C 0.82845 0.54615 0.34681 0.0
C1356 C 0.94984 0.50346 0.53214 0.0
C1357 C 0.93205 0.50457 0.50918 0.0
C1358 C 0.89124 0.53665 0.48794 0.0
C1359 C 0.8518 0.52711 0.39155 0.0
C1360 C 0.86987 0.52561 0.42077 0.0
C1361 C 0.92348 0.52212 0.50052 0.0
C1362 C 0.90486 0.52325 0.47368 0.0
H1363 H 0.81893 0.49927 0.3327 0.0
H1364 H 0.84702 0.49696 0.38595 0.0
H1365 H 0.86384 0.54827 0.47387 0.0
H1366 H 0.95755 0.55018 0.55345 0.0
H1367 H 0.92698 0.55231 0.51107 0.0
loop_
_geom_bond_atom_site_label_1
_geom_bond_atom_site_label_2
_geom_bond_distance
_geom_bond_site_symmetry_2
_ccdc_geom_bond_type
C0 C1 1.386 . S
C0 C2 1.397 . S
C0 H24 0.931 1_554 S
C1 C0 1.386 . S
C1 C5 1.397 . S
C2 C0 1.397 . S
C2 C3 1.384 . S
C2 H25 0.930 . S
C3 C2 1.384 . S
C3 C4 1.377 . S
C3 C6 1.481 . S
C4 C3 1.377 . S
C4 C5 1.389 . S
C4 H26 0.929 . S
C5 C1 1.397 . S
C5 C4 1.389 . S
C5 H27 0.931 . S
C6 C3 1.481 . S
C6 C7 1.387 . S
C6 C11 1.390 . S
C7 C6 1.387 . S
C7 C8 1.401 . S
C7 H28 0.930 . S
C8 C7 1.401 . S
C8 C9 1.376 . S
C8 C17 1.511 . S
C9 C8 1.376 . S
C9 C10 1.392 . S
C9 H30 0.931 . S
C10 C9 1.392 . S
C10 C11 1.361 . S
C10 C12 1.500 . S
C11 C6 1.390 . S
C11 C10 1.361 . S
C11 H29 0.931 . S
C12 C10 1.500 . S
C12 C13 1.371 . S
C12 C14 1.365 . S
C13 C12 1.371 . S
C13 C23 1.386 . S
C13 H31 0.931 . S
C14 C12 1.365 . S
C14 C15 1.409 . S
C14 H32 0.929 . S
C15 C14 1.409 . S
C15 C16 1.380 . S
C15 H33 0.930 . S
C16 C15 1.380 . S
C16 C23 1.357 . S
C17 C8 1.511 . S
C17 C18 1.341 . S
C17 C19 1.371 . S
C18 C17 1.341 . S
C18 C22 1.394 . S
C18 H34 0.930 . S
C19 C17 1.371 . S
C19 C20 1.392 . S
C19 H35 0.931 . S
C20 C19 1.392 . S
C20 C21 1.331 . S
C20 H38 0.932 . S
C21 C20 1.331 . S
C21 C22 1.336 . S
C22 C18 1.394 . S
C22 C21 1.336 . S
C22 H37 0.929 . S
C23 C13 1.386 . S
C23 C16 1.357 . S
C23 H36 0.928 . S
H24 C0 0.931 1_556 S
H25 C2 0.930 . S
H26 C4 0.929 . S
H27 C5 0.931 . S
H28 C7 0.930 . S
H29 C11 0.931 . S
H30 C9 0.931 . S
H31 C13 0.931 . S
H32 C14 0.929 . S
H33 C15 0.930 . S
H34 C18 0.930 . S
H35 C19 0.931 . S
H36 C23 0.928 . S
H37 C22 0.929 . S
H38 C20 0.932 . S
C39 C40 1.386 . S
C39 C41 1.397 . S
C39 H63 0.931 1_554 S
C40 C39 1.386 . S
C40 C44 1.397 . S
C41 C39 1.397 . S
C41 C42 1.384 . S
C41 H64 0.930 . S
C42 C41 1.384 . S
C42 C43 1.377 . S
C42 C45 1.481 . S
C43 C42 1.377 . S
C43 C44 1.389 . S
C43 H65 0.929 . S
C44 C40 1.397 . S
C44 C43 1.389 . S
C44 H66 0.931 . S
C45 C42 1.481 . S
C45 C46 1.387 . S
C45 C50 1.390 . S
C46 C45 1.387 . S
C46 C47 1.401 . S
C46 H67 0.930 . S
C47 C46 1.401 . S
C47 C48 1.376 . S
C47 C56 1.511 . S
C48 C47 1.376 . S
C48 C49 1.392 . S
C48 H69 0.931 . S
C49 C48 1.392 . S
C49 C50 1.361 . S
C49 C51 1.500 . S
C50 C45 1.390 . S
C50 C49 1.361 . S
C50 H68 0.931 . S
C51 C49 1.500 . S
C51 C52 1.371 . S
C51 C53 1.365 . S
C52 C51 1.371 . S
C52 C62 1.386 . S
C52 H70 0.931 . S
C53 C51 1.365 . S
C53 C54 1.409 . S
C53 H71 0.929 . S
C54 C53 1.409 . S
C54 C55 1.380 . S
C54 H72 0.930 . S
C55 C54 1.380 . S
C55 C62 1.357 . S
C56 C47 1.511 . S
C56 C57 1.341 . S
C56 C58 1.371 . S
C57 C56 1.341 . S
C57 C61 1.394 . S
C57 H73 0.930 . S
C58 C56 1.371 . S
C58 C59 1.392 . S
C58 H74 0.931 . S
C59 C58 1.392 . S
C59 C60 1.331 . S
C59 H77 0.932 . S
C60 C59 1.331 . S
C60 C61 1.336 . S
C61 C57 1.394 . S
C61 C60 1.336 . S
C61 H76 0.929 . S
C62 C52 1.386 . S
C62 C55 1.357 . S
C62 H75 0.928 . S
H63 C39 0.931 1_556 S
H64 C41 0.930 . S
H65 C43 0.929 . S
H66 C44 0.931 . S
H67 C46 0.930 . S
H68 C50 0.931 . S
H69 C48 0.931 . S
H70 C52 0.931 . S
H71 C53 0.929 . S
H72 C54 0.930 . S
H73 C57 0.930 . S
H74 C58 0.931 . S
H75 C62 0.928 . S
H76 C61 0.929 . S
H77 C59 0.932 . S
C78 C79 1.386 . S
C78 C80 1.397 . S
C78 H102 0.931 1_554 S
C79 C78 1.386 . S
C79 C83 1.397 . S
C80 C78 1.397 . S
C80 C81 1.384 . S
C80 H103 0.930 . S
C81 C80 1.384 . S
C81 C82 1.377 . S
C81 C84 1.481 . S
C82 C81 1.377 . S
C82 C83 1.389 . S
C82 H104 0.929 . S
C83 C79 1.397 . S
C83 C82 1.389 . S
C83 H105 0.931 . S
C84 C81 1.481 . S
C84 C85 1.387 . S
C84 C89 1.390 . S
C85 C84 1.387 . S
C85 C86 1.401 . S
C85 H106 0.930 . S
C86 C85 1.401 . S
C86 C87 1.376 . S
C86 C95 1.511 . S
C87 C86 1.376 . S
C87 C88 1.392 . S
C87 H108 0.931 . S
C88 C87 1.392 . S
C88 C89 1.361 . S
C88 C90 1.500 . S
C89 C84 1.390 . S
C89 C88 1.361 . S
C89 H107 0.931 . S
C90 C88 1.500 . S
C90 C91 1.371 . S
C90 C92 1.365 . S
C91 C90 1.371 . S
C91 C101 1.386 . S
C91 H109 0.931 . S
C92 C90 1.365 . S
C92 C93 1.409 . S
C92 H110 0.929 . S
C93 C92 1.409 . S
C93 C94 1.380 . S
C93 H111 0.930 . S
C94 C93 1.380 . S
C94 C101 1.357 . S
C95 C86 1.511 . S
C95 C96 1.341 . S
C95 C97 1.371 . S
C96 C95 1.341 . S
C96 C100 1.394 . S
C96 H112 0.930 . S
C97 C95 1.371 . S
C97 C98 1.392 . S
C97 H113 0.931 . S
C98 C97 1.392 . S
C98 C99 1.331 . S
C98 H116 0.932 . S
C99 C98 1.331 . S
C99 C100 1.336 . S
C100 C96 1.394 . S
C100 C99 1.336 . S
C100 H115 0.929 . S
C101 C91 1.386 . S
C101 C94 1.357 . S
C101 H114 0.928 . S
H102 C78 0.931 1_556 S
H103 C80 0.930 . S
H104 C82 0.929 . S
H105 C83 0.931 . S
H106 C85 0.930 . S
H107 C89 0.931 . S
H108 C87 0.931 . S
H109 C91 0.931 . S
H110 C92 0.929 . S
H111 C93 0.930 . S
H112 C96 0.930 . S
H113 C97 0.931 . S
H114 C101 0.928 . S
H115 C100 0.929 . S
H116 C98 0.932 . S
C117 C118 1.386 . S
C117 C119 1.397 . S
C117 H141 0.931 . S
C118 C117 1.386 . S
C118 C122 1.397 . S
C119 C117 1.397 . S
C119 C120 1.384 . S
C119 H142 0.930 . S
C120 C119 1.384 . S
C120 C121 1.377 . S
C120 C123 1.481 . S
C121 C120 1.377 . S
C121 C122 1.389 . S
C121 H143 0.929 . S
C122 C118 1.397 . S
C122 C121 1.389 . S
C122 H144 0.931 . S
C123 C120 1.481 . S
C123 C124 1.387 . S
C123 C128 1.390 . S
C124 C123 1.387 . S
C124 C125 1.401 . S
C124 H145 0.930 . S
C125 C124 1.401 . S
C125 C126 1.376 . S
C125 C134 1.511 . S
C126 C125 1.376 . S
C126 C127 1.392 . S
C126 H147 0.931 . S
C127 C126 1.392 . S
C127 C128 1.361 . S
C127 C129 1.500 . S
C128 C123 1.390 . S
C128 C127 1.361 . S
C128 H146 0.931 . S
C129 C127 1.500 . S
C129 C130 1.371 . S
C129 C131 1.365 . S
C130 C129 1.371 . S
C130 C140 1.386 . S
C130 H148 0.931 . S
C131 C129 1.365 . S
C131 C132 1.409 . S
C131 H149 0.929 . S
C132 C131 1.409 . S
C132 C133 1.380 . S
C132 H150 0.930 . S
C133 C132 1.380 . S
C133 C140 1.357 . S
C134 C125 1.511 . S
C134 C135 1.341 . S
C134 C136 1.371 . S
C135 C134 1.341 . S
C135 C139 1.394 . S
C135 H151 0.930 . S
C136 C134 1.371 . S
C136 C137 1.392 . S
C136 H152 0.931 . S
C137 C136 1.392 . S
C137 C138 1.331 . S
C137 H155 0.932 . S
C138 C137 1.331 . S
C138 C139 1.336 . S
C139 C135 1.394 . S
C139 C138 1.336 . S
C139 H154 0.929 . S
C140 C130 1.386 . S
C140 C133 1.357 . S
C140 H153 0.928 1_554 S
H141 C117 0.931 . S
H142 C119 0.930 . S
H143 C121 0.929 . S
H144 C122 0.931 . S
H145 C124 0.930 . S
H146 C128 0.931 . S
H147 C126 0.931 . S
H148 C130 0.931 . S
H149 C131 0.929 . S
H150 C132 0.930 . S
H151 C135 0.930 . S
H152 C136 0.931 . S
H153 C140 0.928 1_556 S
H154 C139 0.929 . S
H155 C137 0.932 . S
C156 C157 1.386 . S
C156 C158 1.397 . S
C156 H180 0.931 . S
C157 C156 1.386 . S
C157 C161 1.397 . S
C158 C156 1.397 . S
C158 C159 1.384 . S
C158 H181 0.930 . S
C159 C158 1.384 . S
C159 C160 1.377 . S
C159 C162 1.481 . S
C160 C159 1.377 . S
C160 C161 1.389 . S
C160 H182 0.929 . S
C161 C157 1.397 . S
C161 C160 1.389 . S
C161 H183 0.931 . S
C162 C159 1.481 . S
C162 C163 1.387 . S
C162 C167 1.390 . S
C163 C162 1.387 . S
C163 C164 1.401 . S
C163 H184 0.930 . S
C164 C163 1.401 . S
C164 C165 1.376 1_554 S
C164 C173 1.511 . S
C165 C164 1.376 1_556 S
C165 C166 1.392 . S
C165 H186 0.931 . S
C166 C165 1.392 . S
C166 C167 1.361 1_556 S
C166 C168 1.500 . S
C167 C162 1.390 . S
C167 C166 1.361 1_554 S
C167 H185 0.931 . S
C168 C166 1.500 . S
C168 C169 1.371 . S
C168 C170 1.365 . S
C169 C168 1.371 . S
C169 C179 1.386 . S
C169 H187 0.931 . S
C170 C168 1.365 . S
C170 C171 1.409 . S
C170 H188 0.929 . S
C171 C170 1.409 . S
C171 C172 1.380 . S
C171 H189 0.930 . S
C172 C171 1.380 . S
C172 C179 1.357 . S
C173 C164 1.511 . S
C173 C174 1.341 . S
C173 C175 1.371 . S
C174 C173 1.341 . S
C174 C178 1.394 . S
C174 H190 0.930 . S
C175 C173 1.371 . S
C175 C176 1.392 . S
C175 H191 0.931 1_554 S
C176 C175 1.392 . S
C176 C177 1.331 . S
C176 H194 0.932 . S
C177 C176 1.331 . S
C177 C178 1.336 . S
C178 C174 1.394 . S
C178 C177 1.336 . S
C178 H193 0.929 . S
C179 C169 1.386 . S
C179 C172 1.357 . S
C179 H192 0.928 . S
H180 C156 0.931 . S
H181 C158 0.930 . S
H182 C160 0.929 . S
H183 C161 0.931 . S
H184 C163 0.930 . S
H185 C167 0.931 . S
H186 C165 0.931 . S
H187 C169 0.931 . S
H188 C170 0.929 . S
H189 C171 0.930 . S
H190 C174 0.930 . S
H191 C175 0.931 1_556 S
H192 C179 0.928 . S
H193 C178 0.929 . S
H194 C176 0.932 . S
C195 C196 1.386 . S
C195 C197 1.397 . S
C195 H219 0.931 . S
C196 C195 1.386 . S
C196 C200 1.397 . S
C197 C195 1.397 . S
C197 C198 1.384 . S
C197 H220 0.930 . S
C198 C197 1.384 . S
C198 C199 1.377 . S
C198 C201 1.481 . S
C199 C198 1.377 . S
C199 C200 1.389 . S
C199 H221 0.929 . S
C200 C196 1.397 . S
C200 C199 1.389 . S
C200 H222 0.931 . S
C201 C198 1.481 . S
C201 C202 1.387 . S
C201 C206 1.390 . S
C202 C201 1.387 . S
C202 C203 1.401 . S
C202 H223 0.930 . S
C203 C202 1.401 . S
C203 C204 1.376 1_554 S
C203 C212 1.511 . S
C204 C203 1.376 1_556 S
C204 C205 1.392 . S
C204 H225 0.931 . S
C205 C204 1.392 . S
C205 C206 1.361 1_556 S
C205 C207 1.500 . S
C206 C201 1.390 . S
C206 C205 1.361 1_554 S
C206 H224 0.931 . S
C207 C205 1.500 . S
C207 C208 1.371 . S
C207 C209 1.365 . S
C208 C207 1.371 . S
C208 C218 1.386 . S
C208 H226 0.931 . S
C209 C207 1.365 . S
C209 C210 1.409 . S
C209 H227 0.929 . S
C210 C209 1.409 . S
C210 C211 1.380 . S
C210 H228 0.930 . S
C211 C210 1.380 . S
C211 C218 1.357 . S
C212 C203 1.511 . S
C212 C213 1.341 . S
C212 C214 1.371 . S
C213 C212 1.341 . S
C213 C217 1.394 . S
C213 H229 0.930 . S
C214 C212 1.371 . S
C214 C215 1.392 . S
C214 H230 0.931 1_554 S
C215 C214 1.392 . S
C215 C216 1.331 . S
C215 H233 0.932 . S
C216 C215 1.331 . S
C216 C217 1.336 . S
C217 C213 1.394 . S
C217 C216 1.336 . S
C217 H232 0.929 . S
C218 C208 1.386 . S
C218 C211 1.357 . S
C218 H231 0.928 . S
H219 C195 0.931 . S
H220 C197 0.930 . S
H221 C199 0.929 . S
H222 C200 0.931 . S
H223 C202 0.930 . S
H224 C206 0.931 . S
H225 C204 0.931 . S
H226 C208 0.931 . S
H227 C209 0.929 . S
H228 C210 0.930 . S
H229 C213 0.930 . S
H230 C214 0.931 1_556 S
H231 C218 0.928 . S
H232 C217 0.929 . S
H233 C215 0.932 . S
C234 C235 1.386 . S
C234 C236 1.397 . S
C234 H258 0.931 . S
C235 C234 1.386 . S
C235 C239 1.397 . S
C236 C234 1.397 . S
C236 C237 1.384 . S
C236 H259 0.930 . S
C237 C236 1.384 . S
C237 C238 1.377 . S
C237 C240 1.481 . S
C238 C237 1.377 . S
C238 C239 1.389 . S
C238 H260 0.929 . S
C239 C235 1.397 . S
C239 C238 1.389 . S
C239 H261 0.931 . S
C240 C237 1.481 . S
C240 C241 1.387 . S
C240 C245 1.390 . S
C241 C240 1.387 . S
C241 C242 1.401 . S
C241 H262 0.930 . S
C242 C241 1.401 . S
C242 C243 1.376 1_554 S
C242 C251 1.511 . S
C243 C242 1.376 1_556 S
C243 C244 1.392 . S
C243 H264 0.931 . S
C244 C243 1.392 . S
C244 C245 1.361 1_556 S
C244 C246 1.500 . S
C245 C240 1.390 . S
C245 C244 1.361 1_554 S
C245 H263 0.931 . S
C246 C244 1.500 . S
C246 C247 1.371 . S
C246 C248 1.365 . S
C247 C246 1.371 . S
C247 C257 1.386 . S
C247 H265 0.931 . S
C248 C246 1.365 . S
C248 C249 1.409 . S
C248 H266 0.929 . S
C249 C248 1.409 . S
C249 C250 1.380 . S
C249 H267 0.930 . S
C250 C249 1.380 . S
C250 C257 1.357 . S
C251 C242 1.511 . S
C251 C252 1.341 . S
C251 C253 1.371 . S
C252 C251 1.341 . S
C252 C256 1.394 . S
C252 H268 0.930 . S
C253 C251 1.371 . S
C253 C254 1.392 . S
C253 H269 0.931 1_554 S
C254 C253 1.392 . S
C254 C255 1.331 . S
C254 H272 0.932 . S
C255 C254 1.331 . S
C255 C256 1.336 . S
C256 C252 1.394 . S
C256 C255 1.336 . S
C256 H271 0.929 . S
C257 C247 1.386 . S
C257 C250 1.357 . S
C257 H270 0.928 . S
H258 C234 0.931 . S
H259 C236 0.930 . S
H260 C238 0.929 . S
H261 C239 0.931 . S
H262 C241 0.930 . S
H263 C245 0.931 . S
H264 C243 0.931 . S
H265 C247 0.931 . S
H266 C248 0.929 . S
H267 C249 0.930 . S
H268 C252 0.930 . S
H269 C253 0.931 1_556 S
H270 C257 0.928 . S
H271 C256 0.929 . S
H272 C254 0.932 . S
C273 C274 1.386 . S
C273 C275 1.397 . S
C273 H297 0.931 . S
C274 C273 1.386 . S
C274 C278 1.397 . S
C275 C273 1.397 . S
C275 C276 1.384 . S
C275 H298 0.930 . S
C276 C275 1.384 . S
C276 C277 1.377 . S
C276 C279 1.481 . S
C277 C276 1.377 . S
C277 C278 1.389 . S
C277 H299 0.929 . S
C278 C274 1.397 . S
C278 C277 1.389 . S
C278 H300 0.931 . S
C279 C276 1.481 . S
C279 C280 1.387 . S
C279 C284 1.390 1_556 S
C280 C279 1.387 . S
C280 C281 1.401 1_556 S
C280 H301 0.930 . S
C281 C280 1.401 1_554 S
C281 C282 1.376 . S
C281 C290 1.511 . S
C282 C281 1.376 . S
C282 C283 1.392 . S
C282 H303 0.931 . S
C283 C282 1.392 . S
C283 C284 1.361 . S
C283 C285 1.500 . S
C284 C279 1.390 1_554 S
C284 C283 1.361 . S
C284 H302 0.931 . S
C285 C283 1.500 . S
C285 C286 1.371 . S
C285 C287 1.365 . S
C286 C285 1.371 . S
C286 C296 1.386 . S
C286 H304 0.931 . S
C287 C285 1.365 . S
C287 C288 1.409 . S
C287 H305 0.929 . S
C288 C287 1.409 . S
C288 C289 1.380 . S
C288 H306 0.930 . S
C289 C288 1.380 . S
C289 C296 1.357 . S
C290 C281 1.511 . S
C290 C291 1.341 . S
C290 C292 1.371 . S
C291 C290 1.341 . S
C291 C295 1.394 . S
C291 H307 0.930 1_554 S
C292 C290 1.371 . S
C292 C293 1.392 . S
C292 H308 0.931 . S
C293 C292 1.392 . S
C293 C294 1.331 . S
C293 H311 0.932 . S
C294 C293 1.331 . S
C294 C295 1.336 . S
C295 C291 1.394 . S
C295 C294 1.336 . S
C295 H310 0.929 . S
C296 C286 1.386 . S
C296 C289 1.357 . S
C296 H309 0.928 . S
H297 C273 0.931 . S
H298 C275 0.930 . S
H299 C277 0.929 . S
H300 C278 0.931 . S
H301 C280 0.930 . S
H302 C284 0.931 . S
H303 C282 0.931 . S
H304 C286 0.931 . S
H305 C287 0.929 . S
H306 C288 0.930 . S
H307 C291 0.930 1_556 S
H308 C292 0.931 . S
H309 C296 0.928 . S
H310 C295 0.929 . S
H311 C293 0.932 . S
Tb312 N341 2.617 . S
Tb312 N347 2.572 . S
Tb312 O356 2.446 1_655 S
Tb312 O357 2.387 1_545 S
Tb312 O359 2.428 . S
Tb312 O360 2.308 1_655 S
Tb312 O364 2.349 1_655 S
Tb312 O367 2.393 . S
Tb312 C376 2.802 . S
C313 N314 1.379 1_545 S
C313 C316 1.416 . S
C313 C320 1.424 . S
N314 C313 1.379 1_565 S
N314 C317 1.334 . S
N314 Tb323 2.617 . S
C315 C317 1.390 1_545 S
C315 C318 1.339 . S
C315 H335 0.930 . S
C316 C313 1.416 . S
C316 C318 1.416 . S
C316 C322 1.448 . S
C317 N314 1.334 . S
C317 C315 1.390 1_565 S
C317 H328 0.930 . S
C318 C315 1.339 . S
C318 C316 1.416 . S
C318 H339 0.930 . S
C319 C320 1.413 . S
C319 C321 1.427 . S
C319 C325 1.416 . S
C320 C313 1.424 . S
C320 C319 1.413 . S
C320 N324 1.361 . S
C321 C319 1.427 . S
C321 C322 1.328 . S
C321 H336 0.929 . S
C322 C316 1.448 . S
C322 C321 1.328 . S
C322 H337 0.930 . S
Tb323 N314 2.617 . S
Tb323 N324 2.572 1_565 S
Tb323 O358 2.349 . S
Tb323 O361 2.393 . S
Tb323 O362 2.465 . S
Tb323 O363 2.387 1_565 S
Tb323 O365 2.428 . S
Tb323 O366 2.299 1_465 S
Tb323 C387 2.802 . S
N324 C320 1.361 . S
N324 Tb323 2.572 1_545 S
N324 C326 1.340 . S
C325 C319 1.416 . S
C325 C327 1.332 . S
C325 H333 0.931 . S
C326 N324 1.340 . S
C326 C327 1.407 . S
C326 H332 0.899 1_445 S
C327 C325 1.332 . S
C327 C326 1.407 . S
C327 H329 0.929 . S
H328 C317 0.930 . S
H329 C327 0.929 . S
H330 C345 0.930 . S
H331 C352 0.924 1_455 S
H332 C326 0.899 1_665 S
H333 C325 0.931 . S
H334 C348 0.953 . S
H335 C315 0.930 . S
H336 C321 0.929 . S
H337 C322 0.930 . S
H338 C343 0.930 . S
H339 C318 0.930 . S
H340 C351 0.931 . S
N341 Tb312 2.617 . S
N341 C342 1.379 . S
N341 C345 1.334 . S
C342 N341 1.379 . S
C342 C344 1.416 1_545 S
C342 C350 1.424 . S
C343 H338 0.930 . S
C343 C345 1.390 . S
C343 C346 1.338 1_545 S
C344 C342 1.416 1_565 S
C344 C346 1.416 . S
C344 C377 1.448 . S
C345 H330 0.930 . S
C345 N341 1.334 . S
C345 C343 1.390 . S
C346 C343 1.338 1_565 S
C346 C344 1.416 . S
C346 H353 0.930 . S
N347 Tb312 2.572 . S
N347 C348 1.319 1_655 S
N347 C350 1.361 . S
C348 H334 0.953 . S
C348 N347 1.319 1_455 S
C348 C352 1.386 1_445 S
C349 C350 1.413 1_565 S
C349 C351 1.416 . S
C349 C378 1.427 . S
C350 C342 1.424 . S
C350 N347 1.361 . S
C350 C349 1.413 1_545 S
C351 H340 0.931 . S
C351 C349 1.416 . S
C351 C352 1.362 . S
C352 H331 0.924 1_655 S
C352 C348 1.386 1_665 S
C352 C351 1.362 . S
H353 C346 0.930 . S
H354 C377 0.930 . S
H355 C378 0.929 . S
O356 Tb312 2.446 1_455 S
O356 C376 1.219 1_455 S
O357 Tb312 2.387 1_565 S
O357 C368 1.264 . S
O358 Tb323 2.349 . S
O358 C368 1.243 1_455 S
O359 Tb312 2.428 . S
O359 C376 1.256 . S
O360 Tb312 2.308 1_455 S
O360 C375 1.266 . S
O361 Tb323 2.393 . S
O361 C375 1.248 1_565 S
O362 Tb323 2.465 . S
O362 C387 1.264 . S
O363 Tb323 2.387 1_545 S
O363 C379 1.264 . S
O364 Tb312 2.349 1_455 S
O364 C379 1.243 . S
O365 Tb323 2.428 . S
O365 C387 1.256 . S
O366 Tb323 2.299 1_645 S
O366 C386 1.274 . S
O367 Tb312 2.393 . S
O367 C386 1.248 . S
C368 O357 1.264 . S
C368 O358 1.243 1_655 S
C369 C372 1.399 . S
C369 C374 1.409 . S
C369 C376 1.496 . S
C370 C371 1.399 . S
C370 C374 1.394 . S
C371 C370 1.399 . S
C371 C373 1.380 . S
C371 H388 0.929 . S
C372 C369 1.399 . S
C372 C373 1.392 . S
C372 H389 0.929 . S
C373 C371 1.380 . S
C373 C372 1.392 . S
C373 H390 0.929 . S
C374 C369 1.409 . S
C374 C370 1.394 . S
C374 H391 0.901 1_655 S
C375 O360 1.266 . S
C375 O361 1.248 1_545 S
C376 Tb312 2.802 . S
C376 O356 1.219 1_655 S
C376 O359 1.256 . S
C376 C369 1.496 . S
C377 C344 1.448 . S
C377 H354 0.930 . S
C377 C378 1.328 . S
C378 C349 1.427 . S
C378 H355 0.929 . S
C378 C377 1.328 . S
C379 O363 1.264 . S
C379 O364 1.243 . S
C380 C383 1.399 . S
C380 C384 1.383 . S
C380 C387 1.496 . S
C381 C382 1.399 . S
C381 C384 1.389 . S
C382 C381 1.399 . S
C382 C385 1.380 . S
C382 H392 0.929 . S
C383 C380 1.399 . S
C383 C385 1.392 . S
C383 H393 0.929 . S
C384 C380 1.383 . S
C384 C381 1.389 . S
C384 H394 0.978 . S
C385 C382 1.380 . S
C385 C383 1.392 . S
C385 H395 0.929 . S
C386 O366 1.274 . S
C386 O367 1.248 . S
C387 Tb323 2.802 . S
C387 O362 1.264 . S
C387 O365 1.256 . S
C387 C380 1.496 . S
H388 C371 0.929 . S
H389 C372 0.929 . S
H390 C373 0.929 . S
H391 C374 0.901 1_455 S
H392 C382 0.929 . S
H393 C383 0.929 . S
H394 C384 0.978 . S
H395 C385 0.929 . S
Tb396 N425 2.617 . S
Tb396 N431 2.572 . S
Tb396 O440 2.465 . S
Tb396 O441 2.387 . S
Tb396 O443 2.428 . S
Tb396 O444 2.308 . S
Tb396 O448 2.349 1_545 S
Tb396 O451 2.393 . S
Tb396 C460 2.802 . S
C397 N398 1.379 . S
C397 C400 1.416 . S
C397 C404 1.424 . S
N398 C397 1.379 . S
N398 C401 1.334 . S
N398 Tb407 2.617 . S
C399 C401 1.390 . S
C399 C402 1.339 . S
C399 H419 0.930 . S
C400 C397 1.416 . S
C400 C402 1.416 . S
C400 C406 1.448 . S
C401 N398 1.334 . S
C401 C399 1.390 . S
C401 H412 0.930 . S
C402 C399 1.339 . S
C402 C400 1.416 . S
C402 H423 0.930 . S
C403 C404 1.413 . S
C403 C405 1.427 . S
C403 C409 1.416 . S
C404 C397 1.424 . S
C404 C403 1.413 . S
C404 N408 1.361 . S
C405 C403 1.427 . S
C405 C406 1.328 . S
C405 H420 0.929 . S
C406 C400 1.448 . S
C406 C405 1.328 . S
C406 H421 0.930 . S
Tb407 N398 2.617 . S
Tb407 N408 2.572 . S
Tb407 O442 2.349 1_565 S
Tb407 O445 2.393 . S
Tb407 O446 2.465 . S
Tb407 O447 2.387 . S
Tb407 O449 2.428 . S
Tb407 O450 2.308 1_565 S
Tb407 C471 2.802 . S
N408 C404 1.361 . S
N408 Tb407 2.572 . S
N408 C410 1.340 . S
C409 C403 1.416 . S
C409 C411 1.332 . S
C409 H417 0.931 . S
C410 N408 1.340 . S
C410 C411 1.407 . S
C410 H416 0.930 . S
C411 C409 1.332 . S
C411 C410 1.407 . S
C411 H413 0.929 . S
H412 C401 0.930 . S
H413 C411 0.929 . S
H414 C429 0.930 . S
H415 C436 0.929 . S
H416 C410 0.930 . S
H417 C409 0.931 . S
H418 C432 0.930 . S
H419 C399 0.930 . S
H420 C405 0.929 . S
H421 C406 0.930 . S
H422 C427 0.930 . S
H423 C402 0.930 . S
H424 C435 0.931 . S
N425 Tb396 2.617 . S
N425 C426 1.379 . S
N425 C429 1.334 . S
C426 N425 1.379 . S
C426 C428 1.416 . S
C426 C434 1.424 . S
C427 H422 0.930 . S
C427 C429 1.390 . S
C427 C430 1.339 . S
C428 C426 1.416 . S
C428 C430 1.416 . S
C428 C461 1.448 . S
C429 H414 0.930 . S
C429 N425 1.334 . S
C429 C427 1.390 . S
C430 C427 1.339 . S
C430 C428 1.416 . S
C430 H437 0.930 . S
N431 Tb396 2.572 . S
N431 C432 1.340 . S
N431 C434 1.361 . S
C432 H418 0.930 . S
C432 N431 1.340 . S
C432 C436 1.407 . S
C433 C434 1.413 . S
C433 C435 1.416 . S
C433 C462 1.427 . S
C434 C426 1.424 . S
C434 N431 1.361 . S
C434 C433 1.413 . S
C435 H424 0.931 . S
C435 C433 1.416 . S
C435 C436 1.332 . S
C436 H415 0.929 . S
C436 C432 1.407 . S
C436 C435 1.332 . S
H437 C430 0.930 . S
H438 C461 0.930 . S
H439 C462 0.929 . S
O440 Tb396 2.465 . S
O440 C460 1.264 . S
O441 Tb396 2.387 . S
O441 C452 1.264 . S
O442 Tb407 2.349 1_545 S
O442 C452 1.243 . S
O443 Tb396 2.428 . S
O443 C460 1.256 . S
O444 Tb396 2.308 . S
O444 C459 1.266 1_545 S
O445 Tb407 2.393 . S
O445 C459 1.248 . S
O446 Tb407 2.465 . S
O446 C471 1.264 . S
O447 Tb407 2.387 . S
O447 C463 1.264 . S
O448 Tb396 2.349 1_565 S
O448 C463 1.243 . S
O449 Tb407 2.428 . S
O449 C471 1.256 . S
O450 Tb407 2.308 1_545 S
O450 C470 1.266 . S
O451 Tb396 2.393 . S
O451 C470 1.248 . S
C452 O441 1.264 . S
C452 O442 1.243 . S
C453 C456 1.399 . S
C453 C458 1.383 . S
C453 C460 1.496 . S
C454 C455 1.399 . S
C454 C458 1.389 . S
C455 C454 1.399 . S
C455 C457 1.380 . S
C455 H472 0.929 . S
C456 C453 1.399 . S
C456 C457 1.392 . S
C456 H473 0.929 . S
C457 C455 1.380 . S
C457 C456 1.392 . S
C457 H474 0.929 . S
C458 C453 1.383 . S
C458 C454 1.389 . S
C458 H475 0.931 . S
C459 O444 1.266 1_565 S
C459 O445 1.248 . S
C460 Tb396 2.802 . S
C460 O440 1.264 . S
C460 O443 1.256 . S
C460 C453 1.496 . S
C461 C428 1.448 . S
C461 H438 0.930 . S
C461 C462 1.328 . S
C462 C433 1.427 . S
C462 H439 0.929 . S
C462 C461 1.328 . S
C463 O447 1.264 . S
C463 O448 1.243 . S
C464 C467 1.399 . S
C464 C468 1.383 1_565 S
C464 C471 1.496 . S
C465 C466 1.399 1_545 S
C465 C468 1.389 . S
C466 C465 1.399 1_565 S
C466 C469 1.380 . S
C466 H476 0.929 . S
C467 C464 1.399 . S
C467 C469 1.392 . S
C467 H477 0.929 . S
C468 C464 1.383 1_545 S
C468 C465 1.389 . S
C468 H478 0.931 . S
C469 C466 1.380 . S
C469 C467 1.392 . S
C469 H479 0.929 . S
C470 O450 1.266 . S
C470 O451 1.248 . S
C471 Tb407 2.802 . S
C471 O446 1.264 . S
C471 O449 1.256 . S
C471 C464 1.496 . S
H472 C455 0.929 . S
H473 C456 0.929 . S
H474 C457 0.929 . S
H475 C458 0.931 . S
H476 C466 0.929 . S
H477 C467 0.929 . S
H478 C468 0.931 . S
H479 C469 0.929 . S
Tb480 N509 2.617 . S
Tb480 N515 2.572 . S
Tb480 O524 2.465 . S
Tb480 O525 2.387 . S
Tb480 O527 2.428 . S
Tb480 O528 2.308 . S
Tb480 O532 2.349 . S
Tb480 O535 2.393 . S
Tb480 C544 2.802 . S
C481 N482 1.379 . S
C481 C484 1.416 . S
C481 C488 1.424 . S
N482 C481 1.379 . S
N482 C485 1.334 . S
N482 Tb491 2.617 . S
C483 C485 1.390 . S
C483 C486 1.339 . S
C483 H503 0.930 . S
C484 C481 1.416 . S
C484 C486 1.416 . S
C484 C490 1.448 . S
C485 N482 1.334 . S
C485 C483 1.390 . S
C485 H496 0.930 . S
C486 C483 1.339 . S
C486 C484 1.416 . S
C486 H507 0.930 . S
C487 C488 1.413 . S
C487 C489 1.427 . S
C487 C493 1.416 . S
C488 C481 1.424 . S
C488 C487 1.413 . S
C488 N492 1.361 . S
C489 C487 1.427 . S
C489 C490 1.328 . S
C489 H504 0.929 . S
C490 C484 1.448 . S
C490 C489 1.328 . S
C490 H505 0.930 . S
Tb491 N482 2.617 . S
Tb491 N492 2.572 . S
Tb491 O526 2.349 . S
Tb491 O529 2.393 . S
Tb491 O530 2.465 . S
Tb491 O531 2.387 . S
Tb491 O533 2.428 . S
Tb491 O534 2.308 . S
Tb491 C555 2.802 . S
N492 C488 1.361 . S
N492 Tb491 2.572 . S
N492 C494 1.340 . S
C493 C487 1.416 . S
C493 C495 1.332 . S
C493 H501 0.931 . S
C494 N492 1.340 . S
C494 C495 1.407 . S
C494 H500 0.930 . S
C495 C493 1.332 . S
C495 C494 1.407 . S
C495 H497 0.929 . S
H496 C485 0.930 . S
H497 C495 0.929 . S
H498 C513 0.930 . S
H499 C520 0.929 . S
H500 C494 0.930 . S
H501 C493 0.931 . S
H502 C516 0.930 . S
H503 C483 0.930 . S
H504 C489 0.929 . S
H505 C490 0.930 . S
H506 C511 0.930 . S
H507 C486 0.930 . S
H508 C519 0.931 . S
N509 Tb480 2.617 . S
N509 C510 1.379 . S
N509 C513 1.334 . S
C510 N509 1.379 . S
C510 C512 1.416 . S
C510 C518 1.424 . S
C511 H506 0.930 . S
C511 C513 1.390 . S
C511 C514 1.339 . S
C512 C510 1.416 . S
C512 C514 1.416 . S
C512 C545 1.448 . S
C513 H498 0.930 . S
C513 N509 1.334 . S
C513 C511 1.390 . S
C514 C511 1.339 . S
C514 C512 1.416 . S
C514 H521 0.930 . S
N515 Tb480 2.572 . S
N515 C516 1.340 . S
N515 C518 1.361 . S
C516 H502 0.930 . S
C516 N515 1.340 . S
C516 C520 1.407 . S
C517 C518 1.413 . S
C517 C519 1.416 . S
C517 C546 1.427 . S
C518 C510 1.424 . S
C518 N515 1.361 . S
C518 C517 1.413 . S
C519 H508 0.931 . S
C519 C517 1.416 . S
C519 C520 1.332 . S
C520 H499 0.929 . S
C520 C516 1.407 . S
C520 C519 1.332 . S
H521 C514 0.930 . S
H522 C545 0.930 . S
H523 C546 0.929 . S
O524 Tb480 2.465 . S
O524 C544 1.264 . S
O525 Tb480 2.387 . S
O525 C536 1.264 . S
O526 Tb491 2.349 . S
O526 C536 1.243 . S
O527 Tb480 2.428 . S
O527 C544 1.256 . S
O528 Tb480 2.308 . S
O528 C543 1.266 . S
O529 Tb491 2.393 . S
O529 C543 1.248 . S
O530 Tb491 2.465 . S
O530 C555 1.264 . S
O531 Tb491 2.387 . S
O531 C547 1.264 . S
O532 Tb480 2.349 . S
O532 C547 1.243 . S
O533 Tb491 2.428 . S
O533 C555 1.256 . S
O534 Tb491 2.308 . S
O534 C554 1.266 . S
O535 Tb480 2.393 . S
O535 C554 1.248 . S
C536 O525 1.264 . S
C536 O526 1.243 . S
C537 C540 1.399 . S
C537 C542 1.383 . S
C537 C544 1.496 . S
C538 C539 1.399 . S
C538 C542 1.389 . S
C539 C538 1.399 . S
C539 C541 1.380 . S
C539 H556 0.929 . S
C540 C537 1.399 . S
C540 C541 1.392 . S
C540 H557 0.929 . S
C541 C539 1.380 . S
C541 C540 1.392 . S
C541 H558 0.929 . S
C542 C537 1.383 . S
C542 C538 1.389 . S
C542 H559 0.931 . S
C543 O528 1.266 . S
C543 O529 1.248 . S
C544 Tb480 2.802 . S
C544 O524 1.264 . S
C544 O527 1.256 . S
C544 C537 1.496 . S
C545 C512 1.448 . S
C545 H522 0.930 . S
C545 C546 1.328 . S
C546 C517 1.427 . S
C546 H523 0.929 . S
C546 C545 1.328 . S
C547 O531 1.264 . S
C547 O532 1.243 . S
C548 C551 1.399 . S
C548 C552 1.383 . S
C548 C555 1.496 . S
C549 C550 1.399 . S
C549 C552 1.389 . S
C550 C549 1.399 . S
C550 C553 1.380 . S
C550 H560 0.929 . S
C551 C548 1.399 . S
C551 C553 1.392 . S
C551 H561 0.929 . S
C552 C548 1.383 . S
C552 C549 1.389 . S
C552 H562 0.931 . S
C553 C550 1.380 . S
C553 C551 1.392 . S
C553 H563 0.929 . S
C554 O534 1.266 . S
C554 O535 1.248 . S
C555 Tb491 2.802 . S
C555 O530 1.264 . S
C555 O533 1.256 . S
C555 C548 1.496 . S
H556 C539 0.929 . S
H557 C540 0.929 . S
H558 C541 0.929 . S
H559 C542 0.931 . S
H560 C550 0.929 . S
H561 C551 0.929 . S
H562 C552 0.931 . S
H563 C553 0.929 . S
Tb564 N593 2.617 . S
Tb564 N599 2.572 . S
Tb564 O608 2.465 . S
Tb564 O609 2.387 1_455 S
Tb564 O611 2.428 . S
Tb564 O612 2.308 . S
Tb564 O616 2.349 . S
Tb564 O619 2.393 . S
Tb564 C628 2.802 . S
C565 N566 1.379 1_455 S
C565 C568 1.416 . S
C565 C572 1.424 . S
N566 C565 1.379 1_655 S
N566 C569 1.334 . S
N566 Tb575 2.617 . S
C567 C569 1.390 1_455 S
C567 C570 1.339 . S
C567 H587 0.931 . S
C568 C565 1.416 . S
C568 C570 1.416 . S
C568 C574 1.448 . S
C569 N566 1.334 . S
C569 C567 1.390 1_655 S
C569 H580 0.930 . S
C570 C567 1.339 . S
C570 C568 1.416 . S
C570 H591 0.930 . S
C571 C572 1.413 . S
C571 C573 1.427 . S
C571 C577 1.416 . S
C572 C565 1.424 . S
C572 C571 1.413 . S
C572 N576 1.361 . S
C573 C571 1.427 . S
C573 C574 1.328 . S
C573 H588 0.929 . S
C574 C568 1.448 . S
C574 C573 1.328 . S
C574 H589 0.930 . S
Tb575 N566 2.617 . S
Tb575 N576 2.572 1_655 S
Tb575 O610 2.349 . S
Tb575 O613 2.393 . S
Tb575 O614 2.465 . S
Tb575 O615 2.387 1_655 S
Tb575 O617 2.428 . S
Tb575 O618 2.296 1_655 S
Tb575 C639 2.802 . S
N576 C572 1.361 . S
N576 Tb575 2.572 1_455 S
N576 C578 1.340 . S
C577 C571 1.416 . S
C577 C579 1.332 . S
C577 H585 0.931 . S
C578 N576 1.340 . S
C578 C579 1.407 . S
C578 H584 0.918 1_455 S
C579 C577 1.332 . S
C579 C578 1.407 . S
C579 H581 0.929 . S
H580 C569 0.930 . S
H581 C579 0.929 . S
H582 C597 0.930 . S
H583 C604 0.932 . S
H584 C578 0.918 1_655 S
H585 C577 0.931 . S
H586 C600 0.930 . S
H587 C567 0.931 . S
H588 C573 0.929 . S
H589 C574 0.930 . S
H590 C595 0.930 . S
H591 C570 0.930 . S
H592 C603 0.931 . S
N593 Tb564 2.617 . S
N593 C594 1.379 . S
N593 C597 1.334 . S
C594 N593 1.379 . S
C594 C596 1.412 1_455 S
C594 C602 1.424 . S
C595 H590 0.930 . S
C595 C597 1.390 . S
C595 C598 1.339 . S
C596 C594 1.412 1_655 S
C596 C598 1.415 1_655 S
C596 C629 1.453 . S
C597 H582 0.930 . S
C597 N593 1.334 . S
C597 C595 1.390 . S
C598 C595 1.339 . S
C598 C596 1.415 1_455 S
C598 H605 0.930 1_455 S
N599 Tb564 2.572 . S
N599 C600 1.340 . S
N599 C602 1.361 . S
C600 H586 0.930 . S
C600 N599 1.340 . S
C600 C604 1.398 1_455 S
C601 C602 1.413 1_655 S
C601 C603 1.416 . S
C601 C630 1.427 . S
C602 C594 1.424 . S
C602 N599 1.361 . S
C602 C601 1.413 1_455 S
C603 H592 0.931 . S
C603 C601 1.416 . S
C603 C604 1.340 . S
C604 H583 0.932 . S
C604 C600 1.398 1_655 S
C604 C603 1.340 . S
H605 C598 0.930 1_655 S
H606 C629 0.930 . S
H607 C630 0.929 . S
O608 Tb564 2.465 . S
O608 C628 1.264 . S
O609 Tb564 2.387 1_655 S
O609 C620 1.264 . S
O610 Tb575 2.349 . S
O610 C620 1.243 . S
O611 Tb564 2.428 . S
O611 C628 1.256 . S
O612 Tb564 2.308 . S
O612 C627 1.266 . S
O613 Tb575 2.393 . S
O613 C627 1.248 1_655 S
O614 Tb575 2.465 . S
O614 C639 1.264 . S
O615 Tb575 2.387 1_455 S
O615 C631 1.264 . S
O616 Tb564 2.349 . S
O616 C631 1.243 . S
O617 Tb575 2.428 . S
O617 C639 1.256 . S
O618 Tb575 2.296 1_455 S
O618 C638 1.277 . S
O619 Tb564 2.393 . S
O619 C638 1.248 . S
C620 O609 1.264 . S
C620 O610 1.243 . S
C621 C624 1.399 . S
C621 C626 1.383 . S
C621 C628 1.496 . S
C622 C623 1.399 . S
C622 C626 1.389 . S
C623 C622 1.399 . S
C623 C625 1.380 . S
C623 H640 0.929 . S
C624 C621 1.399 . S
C624 C625 1.392 . S
C624 H641 0.929 . S
C625 C623 1.380 . S
C625 C624 1.392 . S
C625 H642 0.929 . S
C626 C621 1.383 . S
C626 C622 1.389 . S
C626 H643 0.931 . S
C627 O612 1.266 . S
C627 O613 1.248 1_455 S
C628 Tb564 2.802 . S
C628 O608 1.264 . S
C628 O611 1.256 . S
C628 C621 1.496 . S
C629 C596 1.453 . S
C629 H606 0.930 . S
C629 C630 1.328 . S
C630 C601 1.427 . S
C630 H607 0.929 . S
C630 C629 1.328 . S
C631 O615 1.264 . S
C631 O616 1.243 . S
C632 C635 1.399 . S
C632 C636 1.383 . S
C632 C639 1.496 . S
C633 C634 1.399 . S
C633 C636 1.389 . S
C634 C633 1.399 . S
C634 C637 1.380 . S
C634 H644 0.929 . S
C635 C632 1.399 . S
C635 C637 1.392 . S
C635 H645 0.929 . S
C636 C632 1.383 . S
C636 C633 1.389 . S
C636 H646 0.931 . S
C637 C634 1.380 . S
C637 C635 1.392 . S
C637 H647 0.929 . S
C638 O618 1.277 . S
C638 O619 1.248 . S
C639 Tb575 2.802 . S
C639 O614 1.264 . S
C639 O617 1.256 . S
C639 C632 1.496 . S
H640 C623 0.929 . S
H641 C624 0.929 . S
H642 C625 0.929 . S
H643 C626 0.931 . S
H644 C634 0.929 . S
H645 C635 0.929 . S
H646 C636 0.931 . S
H647 C637 0.929 . S
C648 C649 1.349 . S
C648 C650 1.327 . S
C648 H673 0.950 . S
C649 C648 1.349 . S
C649 C665 1.349 . S
C650 C648 1.327 . S
C650 C669 1.429 . S
C650 H674 0.950 . S
C651 C668 1.574 . S
C651 C670 1.368 . S
C651 H675 0.949 . S
H652 C656 0.949 . S
C653 C654 1.349 . S
C653 C655 1.327 . S
C653 H676 0.950 1_545 S
C654 C653 1.349 . S
C654 C666 1.349 . S
C655 C653 1.327 . S
C655 C671 1.429 . S
C655 H677 0.950 1_545 S
C656 H652 0.949 . S
C656 C664 1.574 . S
C656 C672 1.368 . S
H657 C665 0.950 . S
H658 C663 0.950 . S
H659 C664 0.949 . S
H660 C666 0.950 . S
H661 C667 0.950 . S
H662 C668 0.949 . S
C663 H658 0.950 . S
C663 C665 1.327 . S
C663 C669 1.429 . S
C664 C656 1.574 . S
C664 H659 0.949 . S
C664 C670 1.368 . S
C665 C649 1.349 . S
C665 H657 0.950 . S
C665 C663 1.327 . S
C666 C654 1.349 . S
C666 H660 0.950 . S
C666 C667 1.327 . S
C667 H661 0.950 . S
C667 C666 1.327 . S
C667 C671 1.429 . S
C668 C651 1.574 . S
C668 H662 0.949 . S
C668 C672 1.368 . S
C669 C650 1.429 . S
C669 C663 1.429 . S
C669 C670 1.523 . S
C670 C651 1.368 . S
C670 C664 1.368 . S
C670 C669 1.523 . S
C671 C655 1.429 . S
C671 C667 1.429 . S
C671 C672 1.523 . S
C672 C656 1.368 . S
C672 C668 1.368 . S
C672 C671 1.523 . S
H673 C648 0.950 . S
H674 C650 0.950 . S
H675 C651 0.949 . S
H676 C653 0.950 1_565 S
H677 C655 0.950 1_565 S
C678 C679 1.349 . S
C678 C680 1.327 . S
C678 H703 0.950 . S
C679 C678 1.349 . S
C679 C695 1.349 . S
C680 C678 1.327 . S
C680 C699 1.429 . S
C680 H704 0.950 . S
C681 C698 1.574 . S
C681 C700 1.368 . S
C681 H705 0.949 . S
H682 C686 0.949 . S
C683 C684 1.349 . S
C683 C685 1.327 . S
C683 H706 0.950 . S
C684 C683 1.349 . S
C684 C696 1.349 . S
C685 C683 1.327 . S
C685 C701 1.429 . S
C685 H707 0.950 . S
C686 H682 0.949 . S
C686 C694 1.574 . S
C686 C702 1.368 . S
H687 C695 0.950 . S
H688 C693 0.950 . S
H689 C694 0.949 . S
H690 C696 0.950 . S
H691 C697 0.950 . S
H692 C698 0.949 . S
C693 H688 0.950 . S
C693 C695 1.327 . S
C693 C699 1.429 . S
C694 C686 1.574 . S
C694 H689 0.949 . S
C694 C700 1.368 . S
C695 C679 1.349 . S
C695 H687 0.950 . S
C695 C693 1.327 . S
C696 C684 1.349 . S
C696 H690 0.950 . S
C696 C697 1.327 . S
C697 H691 0.950 . S
C697 C696 1.327 . S
C697 C701 1.429 . S
C698 C681 1.574 . S
C698 H692 0.949 . S
C698 C702 1.368 . S
C699 C680 1.429 . S
C699 C693 1.429 . S
C699 C700 1.523 . S
C700 C681 1.368 . S
C700 C694 1.368 . S
C700 C699 1.523 . S
C701 C685 1.429 . S
C701 C697 1.429 . S
C701 C702 1.523 . S
C702 C686 1.368 . S
C702 C698 1.368 . S
C702 C701 1.523 . S
H703 C678 0.950 . S
H704 C680 0.950 . S
H705 C681 0.949 . S
H706 C683 0.950 . S
H707 C685 0.950 . S
C708 C709 1.349 . S
C708 C710 1.327 . S
C708 H733 0.950 . S
C709 C708 1.349 . S
C709 C725 1.349 . S
C710 C708 1.327 . S
C710 C729 1.429 . S
C710 H734 0.950 . S
C711 C728 1.574 . S
C711 C730 1.368 . S
C711 H735 0.949 . S
H712 C716 0.949 . S
C713 C714 1.349 . S
C713 C715 1.327 . S
C713 H736 0.950 . S
C714 C713 1.349 . S
C714 C726 1.349 . S
C715 C713 1.327 . S
C715 C731 1.429 . S
C715 H737 0.950 . S
C716 H712 0.949 . S
C716 C724 1.574 . S
C716 C732 1.368 . S
H717 C725 0.950 . S
H718 C723 0.950 . S
H719 C724 0.949 . S
H720 C726 0.950 . S
H721 C727 0.950 . S
H722 C728 0.949 . S
C723 H718 0.950 . S
C723 C725 1.327 . S
C723 C729 1.429 . S
C724 C716 1.574 . S
C724 H719 0.949 . S
C724 C730 1.368 . S
C725 C709 1.349 . S
C725 H717 0.950 . S
C725 C723 1.327 . S
C726 C714 1.349 . S
C726 H720 0.950 . S
C726 C727 1.327 . S
C727 H721 0.950 . S
C727 C726 1.327 . S
C727 C731 1.429 . S
C728 C711 1.574 . S
C728 H722 0.949 . S
C728 C732 1.368 . S
C729 C710 1.429 . S
C729 C723 1.429 . S
C729 C730 1.523 . S
C730 C711 1.368 . S
C730 C724 1.368 . S
C730 C729 1.523 . S
C731 C715 1.429 . S
C731 C727 1.429 . S
C731 C732 1.523 . S
C732 C716 1.368 . S
C732 C728 1.368 . S
C732 C731 1.523 . S
H733 C708 0.950 . S
H734 C710 0.950 . S
H735 C711 0.949 . S
H736 C713 0.950 . S
H737 C715 0.950 . S
C738 C739 1.349 . S
C738 C740 1.327 . S
C738 H763 0.950 . S
C739 C738 1.349 . S
C739 C755 1.349 . S
C740 C738 1.327 . S
C740 C759 1.429 . S
C740 H764 0.950 . S
C741 C758 1.574 . S
C741 C760 1.368 . S
C741 H765 0.949 . S
H742 C746 0.949 . S
C743 C744 1.349 . S
C743 C745 1.327 . S
C743 H766 0.950 1_455 S
C744 C743 1.349 . S
C744 C756 1.349 . S
C745 C743 1.327 . S
C745 C761 1.429 . S
C745 H767 0.950 1_455 S
C746 H742 0.949 . S
C746 C754 1.574 . S
C746 C762 1.368 . S
H747 C755 0.950 . S
H748 C753 0.950 . S
H749 C754 0.949 . S
H750 C756 0.950 . S
H751 C757 0.950 . S
H752 C758 0.949 . S
C753 H748 0.950 . S
C753 C755 1.327 . S
C753 C759 1.429 . S
C754 C746 1.574 . S
C754 H749 0.949 . S
C754 C760 1.368 . S
C755 C739 1.349 . S
C755 H747 0.950 . S
C755 C753 1.327 . S
C756 C744 1.349 . S
C756 H750 0.950 . S
C756 C757 1.327 . S
C757 H751 0.950 . S
C757 C756 1.327 . S
C757 C761 1.429 . S
C758 C741 1.574 . S
C758 H752 0.949 . S
C758 C762 1.368 . S
C759 C740 1.429 . S
C759 C753 1.429 . S
C759 C760 1.523 . S
C760 C741 1.368 . S
C760 C754 1.368 . S
C760 C759 1.523 . S
C761 C745 1.429 . S
C761 C757 1.429 . S
C761 C762 1.523 . S
C762 C746 1.368 . S
C762 C758 1.368 . S
C762 C761 1.523 . S
H763 C738 0.950 . S
H764 C740 0.950 . S
H765 C741 0.949 . S
H766 C743 0.950 1_655 S
H767 C745 0.950 1_655 S
C768 C769 1.349 . S
C768 C770 1.327 1_554 S
C768 H793 0.950 . S
C769 C768 1.349 . S
C769 C785 1.349 . S
C770 C768 1.327 1_556 S
C770 C789 1.429 . S
C770 H794 0.950 . S
C771 C788 1.574 . S
C771 C790 1.368 . S
C771 H795 0.955 . S
H772 C776 0.949 . S
C773 C774 1.349 1_545 S
C773 C775 1.327 . S
C773 H796 0.950 . S
C774 C773 1.349 1_565 S
C774 C786 1.349 . S
C775 C773 1.327 . S
C775 C791 1.429 1_545 S
C775 H797 0.950 . S
C776 H772 0.949 . S
C776 C784 1.574 . S
C776 C792 1.368 . S
H777 C785 0.950 . S
H778 C783 0.950 . S
H779 C784 0.949 . S
H780 C786 0.950 . S
H781 C787 0.950 . S
H782 C788 0.949 1_545 S
C783 H778 0.950 . S
C783 C785 1.327 . S
C783 C789 1.429 1_554 S
C784 C776 1.574 . S
C784 H779 0.949 . S
C784 C790 1.368 . S
C785 C769 1.349 . S
C785 H777 0.950 . S
C785 C783 1.327 . S
C786 C774 1.349 . S
C786 H780 0.950 . S
C786 C787 1.327 . S
C787 H781 0.950 . S
C787 C786 1.327 . S
C787 C791 1.429 . S
C788 C771 1.574 . S
C788 H782 0.949 1_565 S
C788 C792 1.368 . S
C789 C770 1.429 . S
C789 C783 1.429 1_556 S
C789 C790 1.523 . S
C790 C771 1.368 . S
C790 C784 1.368 . S
C790 C789 1.523 . S
C791 C775 1.429 1_565 S
C791 C787 1.429 . S
C791 C792 1.523 . S
C792 C776 1.368 . S
C792 C788 1.368 . S
C792 C791 1.523 . S
H793 C768 0.950 . S
H794 C770 0.950 . S
H795 C771 0.955 . S
H796 C773 0.950 . S
H797 C775 0.950 . S
C798 C799 1.349 . S
C798 C800 1.327 . S
C798 H823 0.950 . S
C799 C798 1.349 . S
C799 C815 1.349 . S
C800 C798 1.327 . S
C800 C819 1.429 1_554 S
C800 H824 0.950 . S
C801 C818 1.574 . S
C801 C820 1.368 . S
C801 H825 0.949 . S
H802 C806 0.949 . S
C803 C804 1.349 . S
C803 C805 1.327 . S
C803 H826 0.950 . S
C804 C803 1.349 . S
C804 C816 1.349 . S
C805 C803 1.327 . S
C805 C821 1.429 . S
C805 H827 0.950 . S
C806 H802 0.949 . S
C806 C814 1.574 . S
C806 C822 1.368 . S
H807 C815 0.950 . S
H808 C813 0.943 1_556 S
H809 C814 0.949 . S
H810 C816 0.950 . S
H811 C817 0.950 . S
H812 C818 0.949 . S
C813 H808 0.943 1_554 S
C813 C815 1.335 . S
C813 C819 1.427 1_554 S
C814 C806 1.574 . S
C814 H809 0.949 . S
C814 C820 1.368 . S
C815 C799 1.349 . S
C815 H807 0.950 . S
C815 C813 1.335 . S
C816 C804 1.349 . S
C816 H810 0.950 . S
C816 C817 1.327 . S
C817 H811 0.950 . S
C817 C816 1.327 . S
C817 C821 1.429 . S
C818 C801 1.574 . S
C818 H812 0.949 . S
C818 C822 1.368 . S
C819 C800 1.429 1_556 S
C819 C813 1.427 1_556 S
C819 C820 1.523 . S
C820 C801 1.368 . S
C820 C814 1.368 . S
C820 C819 1.523 . S
C821 C805 1.429 . S
C821 C817 1.429 . S
C821 C822 1.523 . S
C822 C806 1.368 . S
C822 C818 1.368 . S
C822 C821 1.523 . S
H823 C798 0.950 . S
H824 C800 0.950 . S
H825 C801 0.949 . S
H826 C803 0.950 . S
H827 C805 0.950 . S
C828 C829 1.349 . S
C828 C830 1.327 . S
C828 H853 0.950 . S
C829 C828 1.349 . S
C829 C845 1.349 . S
C830 C828 1.327 . S
C830 C849 1.429 1_554 S
C830 H854 0.950 . S
C831 C848 1.574 . S
C831 C850 1.368 . S
C831 H855 0.949 . S
H832 C836 0.949 . S
C833 C834 1.349 . S
C833 C835 1.327 . S
C833 H856 0.950 . S
C834 C833 1.349 . S
C834 C846 1.349 . S
C835 C833 1.327 . S
C835 C851 1.429 . S
C835 H857 0.950 . S
C836 H832 0.949 . S
C836 C844 1.574 . S
C836 C852 1.368 . S
H837 C845 0.950 . S
H838 C843 0.950 . S
H839 C844 0.949 . S
H840 C846 0.950 . S
H841 C847 0.950 . S
H842 C848 0.949 . S
C843 H838 0.950 . S
C843 C845 1.327 1_556 S
C843 C849 1.429 . S
C844 C836 1.574 . S
C844 H839 0.949 . S
C844 C850 1.368 . S
C845 C829 1.349 . S
C845 H837 0.950 . S
C845 C843 1.327 1_554 S
C846 C834 1.349 . S
C846 H840 0.950 . S
C846 C847 1.327 . S
C847 H841 0.950 . S
C847 C846 1.327 . S
C847 C851 1.429 . S
C848 C831 1.574 . S
C848 H842 0.949 . S
C848 C852 1.368 . S
C849 C830 1.429 1_556 S
C849 C843 1.429 . S
C849 C850 1.523 . S
C850 C831 1.368 . S
C850 C844 1.368 . S
C850 C849 1.523 . S
C851 C835 1.429 . S
C851 C847 1.429 . S
C851 C852 1.523 . S
C852 C836 1.368 . S
C852 C848 1.368 . S
C852 C851 1.523 . S
H853 C828 0.950 . S
H854 C830 0.950 . S
H855 C831 0.949 . S
H856 C833 0.950 . S
H857 C835 0.950 . S
C858 C859 1.349 . S
C858 C860 1.327 1_554 S
C858 H883 0.950 . S
C859 C858 1.349 . S
C859 C875 1.349 . S
C860 C858 1.327 1_556 S
C860 C879 1.429 . S
C860 H884 0.950 . S
C861 C878 1.574 . S
C861 C880 1.368 . S
C861 H885 0.949 . S
H862 C866 0.976 . S
C863 C864 1.349 . S
C863 C865 1.327 . S
C863 H886 0.950 . S
C864 C863 1.349 . S
C864 C876 1.349 1_655 S
C865 C863 1.327 . S
C865 C881 1.429 . S
C865 H887 0.950 . S
C866 H862 0.976 . S
C866 C874 1.574 . S
C866 C882 1.368 . S
H867 C875 0.950 . S
H868 C873 0.950 . S
H869 C874 0.949 . S
H870 C876 0.950 . S
H871 C877 0.942 1_455 S
H872 C878 0.949 . S
C873 H868 0.950 . S
C873 C875 1.327 . S
C873 C879 1.429 1_554 S
C874 C866 1.574 . S
C874 H869 0.949 . S
C874 C880 1.368 . S
C875 C859 1.349 . S
C875 H867 0.950 . S
C875 C873 1.327 . S
C876 C864 1.349 1_455 S
C876 H870 0.950 . S
C876 C877 1.323 1_455 S
C877 H871 0.942 1_655 S
C877 C876 1.323 1_655 S
C877 C881 1.441 . S
C878 C861 1.574 . S
C878 H872 0.949 . S
C878 C882 1.368 . S
C879 C860 1.429 . S
C879 C873 1.429 1_556 S
C879 C880 1.523 . S
C880 C861 1.368 . S
C880 C874 1.368 . S
C880 C879 1.523 . S
C881 C865 1.429 . S
C881 C877 1.441 . S
C881 C882 1.523 . S
C882 C866 1.368 . S
C882 C878 1.368 . S
C882 C881 1.523 . S
H883 C858 0.950 . S
H884 C860 0.950 . S
H885 C861 0.949 . S
H886 C863 0.950 . S
H887 C865 0.950 . S
C888 C889 1.349 . S
C888 C890 1.327 . S
C888 H913 0.950 . S
C889 C888 1.349 . S
C889 C905 1.349 . S
C890 C888 1.327 . S
C890 C909 1.429 . S
C890 H914 0.950 . S
C891 C908 1.574 . S
C891 C910 1.368 . S
C891 H915 0.949 . S
H892 C896 0.949 . S
C893 C894 1.349 1_655 S
C893 C895 1.327 . S
C893 H916 0.950 . S
C894 C893 1.349 1_455 S
C894 C906 1.349 . S
C895 C893 1.327 . S
C895 C911 1.429 1_655 S
C895 H917 0.950 . S
C896 H892 0.949 . S
C896 C904 1.574 . S
C896 C912 1.368 . S
H897 C905 0.950 . S
H898 C903 0.950 . S
H899 C904 0.949 . S
H900 C906 0.950 . S
H901 C907 0.950 . S
H902 C908 0.949 1_655 S
C903 H898 0.950 . S
C903 C905 1.327 . S
C903 C909 1.429 . S
C904 C896 1.574 . S
C904 H899 0.949 . S
C904 C910 1.368 . S
C905 C889 1.349 . S
C905 H897 0.950 . S
C905 C903 1.327 . S
C906 C894 1.349 . S
C906 H900 0.950 . S
C906 C907 1.327 . S
C907 H901 0.950 . S
C907 C906 1.327 . S
C907 C911 1.429 . S
C908 C891 1.574 . S
C908 H902 0.949 1_455 S
C908 C912 1.368 . S
C909 C890 1.429 . S
C909 C903 1.429 . S
C909 C910 1.523 . S
C910 C891 1.368 . S
C910 C904 1.368 . S
C910 C909 1.523 . S
C911 C895 1.429 1_455 S
C911 C907 1.429 . S
C911 C912 1.523 . S
C912 C896 1.368 . S
C912 C908 1.368 . S
C912 C911 1.523 . S
H913 C888 0.950 . S
H914 C890 0.950 . S
H915 C891 0.949 . S
H916 C893 0.950 . S
H917 C895 0.950 . S
C918 C919 1.349 . S
C918 C920 1.327 . S
C918 H943 0.950 . S
C919 C918 1.349 . S
C919 C935 1.349 . S
C920 C918 1.327 . S
C920 C939 1.429 . S
C920 H944 0.950 . S
C921 C938 1.574 . S
C921 C940 1.368 . S
C921 H945 0.949 . S
H922 C926 0.949 . S
C923 C924 1.355 . S
C923 C925 1.337 . S
C923 H946 0.935 1_545 S
C924 C923 1.355 . S
C924 C936 1.349 . S
C925 C923 1.337 . S
C925 C941 1.429 . S
C925 H947 0.950 . S
C926 H922 0.949 . S
C926 C934 1.574 . S
C926 C942 1.368 . S
H927 C935 0.950 . S
H928 C933 0.950 . S
H929 C934 0.949 . S
H930 C936 0.950 . S
H931 C937 0.950 . S
H932 C938 0.949 . S
C933 H928 0.950 . S
C933 C935 1.327 . S
C933 C939 1.429 . S
C934 C926 1.574 . S
C934 H929 0.949 . S
C934 C940 1.368 . S
C935 C919 1.349 . S
C935 H927 0.950 . S
C935 C933 1.327 . S
C936 C924 1.349 . S
C936 H930 0.950 . S
C936 C937 1.327 . S
C937 H931 0.950 . S
C937 C936 1.327 . S
C937 C941 1.429 . S
C938 C921 1.574 . S
C938 H932 0.949 . S
C938 C942 1.368 . S
C939 C920 1.429 . S
C939 C933 1.429 . S
C939 C940 1.523 . S
C940 C921 1.368 . S
C940 C934 1.368 . S
C940 C939 1.523 . S
C941 C925 1.429 . S
C941 C937 1.429 . S
C941 C942 1.523 . S
C942 C926 1.368 . S
C942 C938 1.368 . S
C942 C941 1.523 . S
H943 C918 0.950 . S
H944 C920 0.950 . S
H945 C921 0.949 . S
H946 C923 0.935 1_565 S
H947 C925 0.950 . S
C948 C949 1.349 . S
C948 C950 1.327 . S
C948 H973 0.950 . S
C949 C948 1.349 . S
C949 C965 1.349 . S
C950 C948 1.327 . S
C950 C969 1.429 . S
C950 H974 0.950 . S
C951 C968 1.574 . S
C951 C970 1.368 . S
C951 H975 0.949 . S
H952 C956 0.949 . S
C953 C954 1.349 . S
C953 C955 1.327 . S
C953 H976 0.950 . S
C954 C953 1.349 . S
C954 C966 1.349 . S
C955 C953 1.327 . S
C955 C971 1.429 . S
C955 H977 0.950 . S
C956 H952 0.949 . S
C956 C964 1.574 . S
C956 C972 1.368 . S
H957 C965 0.950 . S
H958 C963 0.950 . S
H959 C964 0.949 . S
H960 C966 0.950 . S
H961 C967 0.950 . S
H962 C968 0.949 . S
C963 H958 0.950 . S
C963 C965 1.327 . S
C963 C969 1.429 . S
C964 C956 1.574 . S
C964 H959 0.949 . S
C964 C970 1.368 . S
C965 C949 1.349 . S
C965 H957 0.950 . S
C965 C963 1.327 . S
C966 C954 1.349 . S
C966 H960 0.950 . S
C966 C967 1.327 . S
C967 H961 0.950 . S
C967 C966 1.327 . S
C967 C971 1.429 . S
C968 C951 1.574 . S
C968 H962 0.949 . S
C968 C972 1.368 . S
C969 C950 1.429 . S
C969 C963 1.429 . S
C969 C970 1.523 . S
C970 C951 1.368 . S
C970 C964 1.368 . S
C970 C969 1.523 . S
C971 C955 1.429 . S
C971 C967 1.429 . S
C971 C972 1.523 . S
C972 C956 1.368 . S
C972 C968 1.368 . S
C972 C971 1.523 . S
H973 C948 0.950 . S
H974 C950 0.950 . S
H975 C951 0.949 . S
H976 C953 0.950 . S
H977 C955 0.950 . S
C978 C979 1.349 . S
C978 C980 1.327 . S
C978 H1003 0.950 . S
C979 C978 1.349 . S
C979 C995 1.349 . S
C980 C978 1.327 . S
C980 C999 1.429 . S
C980 H1004 0.950 . S
C981 C998 1.574 . S
C981 C1000 1.368 . S
C981 H1005 0.949 . S
H982 C986 0.949 . S
C983 C984 1.349 . S
C983 C985 1.327 . S
C983 H1006 0.950 . S
C984 C983 1.349 . S
C984 C996 1.349 . S
C985 C983 1.327 . S
C985 C1001 1.429 . S
C985 H1007 0.950 . S
C986 H982 0.949 . S
C986 C994 1.574 . S
C986 C1002 1.368 . S
H987 C995 0.950 . S
H988 C993 0.950 . S
H989 C994 0.949 . S
H990 C996 0.950 . S
H991 C997 0.950 . S
H992 C998 0.949 . S
C993 H988 0.950 . S
C993 C995 1.327 . S
C993 C999 1.429 . S
C994 C986 1.574 . S
C994 H989 0.949 . S
C994 C1000 1.368 . S
C995 C979 1.349 . S
C995 H987 0.950 . S
C995 C993 1.327 . S
C996 C984 1.349 . S
C996 H990 0.950 . S
C996 C997 1.327 . S
C997 H991 0.950 . S
C997 C996 1.327 . S
C997 C1001 1.429 . S
C998 C981 1.574 . S
C998 H992 0.949 . S
C998 C1002 1.368 . S
C999 C980 1.429 . S
C999 C993 1.429 . S
C999 C1000 1.523 . S
C1000 C981 1.368 . S
C1000 C994 1.368 . S
C1000 C999 1.523 . S
C1001 C985 1.429 . S
C1001 C997 1.429 . S
C1001 C1002 1.523 . S
C1002 C986 1.368 . S
C1002 C998 1.368 . S
C1002 C1001 1.523 . S
H1003 C978 0.950 . S
H1004 C980 0.950 . S
H1005 C981 0.949 . S
H1006 C983 0.950 . S
H1007 C985 0.950 . S
C1008 C1009 1.349 1_556 S
C1008 C1010 1.327 . S
C1008 H1033 0.950 . S
C1009 C1008 1.349 1_554 S
C1009 C1025 1.349 . S
C1010 C1008 1.327 . S
C1010 C1029 1.429 . S
C1010 H1034 0.950 . S
C1011 C1028 1.574 . S
C1011 C1030 1.368 . S
C1011 H1035 0.949 . S
H1012 C1016 0.949 . S
C1013 C1014 1.349 . S
C1013 C1015 1.327 . S
C1013 H1036 0.950 . S
C1014 C1013 1.349 . S
C1014 C1026 1.349 . S
C1015 C1013 1.327 . S
C1015 C1031 1.429 1_455 S
C1015 H1037 0.953 . S
C1016 H1012 0.949 . S
C1016 C1024 1.574 . S
C1016 C1032 1.368 . S
H1017 C1025 0.950 . S
H1018 C1023 0.950 . S
H1019 C1024 0.949 . S
H1020 C1026 0.950 . S
H1021 C1027 0.960 . S
H1022 C1028 0.949 . S
C1023 H1018 0.950 . S
C1023 C1025 1.327 . S
C1023 C1029 1.429 1_554 S
C1024 C1016 1.574 . S
C1024 H1019 0.949 . S
C1024 C1030 1.368 . S
C1025 C1009 1.349 . S
C1025 H1017 0.950 . S
C1025 C1023 1.327 . S
C1026 C1014 1.349 . S
C1026 H1020 0.950 . S
C1026 C1027 1.314 1_455 S
C1027 H1021 0.960 . S
C1027 C1026 1.314 1_655 S
C1027 C1031 1.434 . S
C1028 C1011 1.574 . S
C1028 H1022 0.949 . S
C1028 C1032 1.368 . S
C1029 C1010 1.429 . S
C1029 C1023 1.429 1_556 S
C1029 C1030 1.523 . S
C1030 C1011 1.368 . S
C1030 C1024 1.368 . S
C1030 C1029 1.523 . S
C1031 C1015 1.429 1_655 S
C1031 C1027 1.434 . S
C1031 C1032 1.523 . S
C1032 C1016 1.368 . S
C1032 C1028 1.368 . S
C1032 C1031 1.523 . S
H1033 C1008 0.950 . S
H1034 C1010 0.950 . S
H1035 C1011 0.949 . S
H1036 C1013 0.950 . S
H1037 C1015 0.953 . S
C1038 C1039 1.349 1_556 S
C1038 C1040 1.327 . S
C1038 H1063 0.950 . S
C1039 C1038 1.349 1_554 S
C1039 C1055 1.349 . S
C1040 C1038 1.327 . S
C1040 C1059 1.429 . S
C1040 H1064 0.950 . S
C1041 C1058 1.574 . S
C1041 C1060 1.368 . S
C1041 H1065 0.949 . S
H1042 C1046 0.949 1_545 S
C1043 C1044 1.349 1_565 S
C1043 C1045 1.327 . S
C1043 H1066 0.950 . S
C1044 C1043 1.349 1_545 S
C1044 C1056 1.349 . S
C1045 C1043 1.327 . S
C1045 C1061 1.429 . S
C1045 H1067 0.950 . S
C1046 H1042 0.949 1_565 S
C1046 C1054 1.574 . S
C1046 C1062 1.368 . S
H1047 C1055 0.950 . S
H1048 C1053 0.950 1_554 S
H1049 C1054 0.949 . S
H1050 C1056 0.950 . S
H1051 C1057 0.950 . S
H1052 C1058 0.949 . S
C1053 H1048 0.950 1_556 S
C1053 C1055 1.327 1_556 S
C1053 C1059 1.429 . S
C1054 C1046 1.574 . S
C1054 H1049 0.949 . S
C1054 C1060 1.368 . S
C1055 C1039 1.349 . S
C1055 H1047 0.950 . S
C1055 C1053 1.327 1_554 S
C1056 C1044 1.349 . S
C1056 H1050 0.950 . S
C1056 C1057 1.327 . S
C1057 H1051 0.950 . S
C1057 C1056 1.327 . S
C1057 C1061 1.429 1_545 S
C1058 C1041 1.574 . S
C1058 H1052 0.949 . S
C1058 C1062 1.368 . S
C1059 C1040 1.429 . S
C1059 C1053 1.429 . S
C1059 C1060 1.523 . S
C1060 C1041 1.368 . S
C1060 C1054 1.368 . S
C1060 C1059 1.523 . S
C1061 C1045 1.429 . S
C1061 C1057 1.429 1_565 S
C1061 C1062 1.523 . S
C1062 C1046 1.368 . S
C1062 C1058 1.368 . S
C1062 C1061 1.523 . S
H1063 C1038 0.950 . S
H1064 C1040 0.950 . S
H1065 C1041 0.949 . S
H1066 C1043 0.950 . S
H1067 C1045 0.950 . S
C1068 C1069 1.349 . S
C1068 C1070 1.327 . S
C1068 H1093 0.950 . S
C1069 C1068 1.349 . S
C1069 C1085 1.349 1_554 S
C1070 C1068 1.327 . S
C1070 C1089 1.429 1_554 S
C1070 H1094 0.950 . S
C1071 C1088 1.574 . S
C1071 C1090 1.368 . S
C1071 H1095 0.949 . S
H1072 C1076 0.949 . S
C1073 C1074 1.349 . S
C1073 C1075 1.327 . S
C1073 H1096 0.950 . S
C1074 C1073 1.349 . S
C1074 C1086 1.349 . S
C1075 C1073 1.327 . S
C1075 C1091 1.429 . S
C1075 H1097 0.950 . S
C1076 H1072 0.949 . S
C1076 C1084 1.574 . S
C1076 C1092 1.368 . S
H1077 C1085 0.950 . S
H1078 C1083 0.950 . S
H1079 C1084 0.949 . S
H1080 C1086 0.950 . S
H1081 C1087 0.950 . S
H1082 C1088 0.949 . S
C1083 H1078 0.950 . S
C1083 C1085 1.327 . S
C1083 C1089 1.429 . S
C1084 C1076 1.574 . S
C1084 H1079 0.949 . S
C1084 C1090 1.368 . S
C1085 C1069 1.349 1_556 S
C1085 H1077 0.950 . S
C1085 C1083 1.327 . S
C1086 C1074 1.349 . S
C1086 H1080 0.950 . S
C1086 C1087 1.327 . S
C1087 H1081 0.950 . S
C1087 C1086 1.327 . S
C1087 C1091 1.429 . S
C1088 C1071 1.574 . S
C1088 H1082 0.949 . S
C1088 C1092 1.368 . S
C1089 C1070 1.429 1_556 S
C1089 C1083 1.429 . S
C1089 C1090 1.523 . S
C1090 C1071 1.368 . S
C1090 C1084 1.368 . S
C1090 C1089 1.523 . S
C1091 C1075 1.429 . S
C1091 C1087 1.429 . S
C1091 C1092 1.523 . S
C1092 C1076 1.368 . S
C1092 C1088 1.368 . S
C1092 C1091 1.523 . S
H1093 C1068 0.950 . S
H1094 C1070 0.950 . S
H1095 C1071 0.949 . S
H1096 C1073 0.950 . S
H1097 C1075 0.950 . S
C1098 C1099 1.349 . S
C1098 C1100 1.327 1_554 S
C1098 H1123 0.950 . S
C1099 C1098 1.349 . S
C1099 C1115 1.349 1_554 S
C1100 C1098 1.327 1_556 S
C1100 C1119 1.429 . S
C1100 H1124 0.950 . S
C1101 C1118 1.574 . S
C1101 C1120 1.368 . S
C1101 H1125 0.949 . S
H1102 C1106 0.949 . S
C1103 C1104 1.349 . S
C1103 C1105 1.327 . S
C1103 H1126 0.950 . S
C1104 C1103 1.349 . S
C1104 C1116 1.349 . S
C1105 C1103 1.327 . S
C1105 C1121 1.429 . S
C1105 H1127 0.950 . S
C1106 H1102 0.949 . S
C1106 C1114 1.574 . S
C1106 C1122 1.368 . S
H1107 C1115 0.950 . S
H1108 C1113 0.950 . S
H1109 C1114 0.949 . S
H1110 C1116 0.950 . S
H1111 C1117 0.950 . S
H1112 C1118 0.949 . S
C1113 H1108 0.950 . S
C1113 C1115 1.327 . S
C1113 C1119 1.429 . S
C1114 C1106 1.574 . S
C1114 H1109 0.949 . S
C1114 C1120 1.368 . S
C1115 C1099 1.349 1_556 S
C1115 H1107 0.950 . S
C1115 C1113 1.327 . S
C1116 C1104 1.349 . S
C1116 H1110 0.950 . S
C1116 C1117 1.327 . S
C1117 H1111 0.950 . S
C1117 C1116 1.327 . S
C1117 C1121 1.429 . S
C1118 C1101 1.574 . S
C1118 H1112 0.949 . S
C1118 C1122 1.368 . S
C1119 C1100 1.429 . S
C1119 C1113 1.429 . S
C1119 C1120 1.523 . S
C1120 C1101 1.368 . S
C1120 C1114 1.368 . S
C1120 C1119 1.523 . S
C1121 C1105 1.429 . S
C1121 C1117 1.429 . S
C1121 C1122 1.523 . S
C1122 C1106 1.368 . S
C1122 C1118 1.368 . S
C1122 C1121 1.523 . S
H1123 C1098 0.950 . S
H1124 C1100 0.950 . S
H1125 C1101 0.949 . S
H1126 C1103 0.950 . S
H1127 C1105 0.950 . S
C1128 C1129 1.349 . S
C1128 C1130 1.327 . S
C1128 H1153 0.950 . S
C1129 C1128 1.349 . S
C1129 C1145 1.349 . S
C1130 C1128 1.327 . S
C1130 C1149 1.429 . S
C1130 H1154 0.950 . S
C1131 C1148 1.574 . S
C1131 C1150 1.368 . S
C1131 H1155 0.949 . S
H1132 C1136 0.949 . S
C1133 C1134 1.349 . S
C1133 C1135 1.327 . S
C1133 H1156 0.950 . S
C1134 C1133 1.349 . S
C1134 C1146 1.349 . S
C1135 C1133 1.327 . S
C1135 C1151 1.429 . S
C1135 H1157 0.950 . S
C1136 H1132 0.949 . S
C1136 C1144 1.574 . S
C1136 C1152 1.368 . S
H1137 C1145 0.950 . S
H1138 C1143 0.950 . S
H1139 C1144 0.949 . S
H1140 C1146 0.950 . S
H1141 C1147 0.950 . S
H1142 C1148 0.949 . S
C1143 H1138 0.950 . S
C1143 C1145 1.327 . S
C1143 C1149 1.429 . S
C1144 C1136 1.574 . S
C1144 H1139 0.949 . S
C1144 C1150 1.368 . S
C1145 C1129 1.349 . S
C1145 H1137 0.950 . S
C1145 C1143 1.327 . S
C1146 C1134 1.349 . S
C1146 H1140 0.950 . S
C1146 C1147 1.327 . S
C1147 H1141 0.950 . S
C1147 C1146 1.327 . S
C1147 C1151 1.429 . S
C1148 C1131 1.574 . S
C1148 H1142 0.949 . S
C1148 C1152 1.368 . S
C1149 C1130 1.429 . S
C1149 C1143 1.429 . S
C1149 C1150 1.523 . S
C1150 C1131 1.368 . S
C1150 C1144 1.368 . S
C1150 C1149 1.523 . S
C1151 C1135 1.429 . S
C1151 C1147 1.429 . S
C1151 C1152 1.523 . S
C1152 C1136 1.368 . S
C1152 C1148 1.368 . S
C1152 C1151 1.523 . S
H1153 C1128 0.950 . S
H1154 C1130 0.950 . S
H1155 C1131 0.949 . S
H1156 C1133 0.950 . S
H1157 C1135 0.950 . S
C1158 C1159 1.349 . S
C1158 C1160 1.327 . S
C1158 H1183 0.950 . S
C1159 C1158 1.349 . S
C1159 C1175 1.349 . S
C1160 C1158 1.327 . S
C1160 C1179 1.429 . S
C1160 H1184 0.950 . S
C1161 C1178 1.574 . S
C1161 C1180 1.368 . S
C1161 H1185 0.949 . S
H1162 C1166 0.949 . S
C1163 C1164 1.349 . S
C1163 C1165 1.327 . S
C1163 H1186 0.950 . S
C1164 C1163 1.349 . S
C1164 C1176 1.349 . S
C1165 C1163 1.327 . S
C1165 C1181 1.429 . S
C1165 H1187 0.950 . S
C1166 H1162 0.949 . S
C1166 C1174 1.574 . S
C1166 C1182 1.368 . S
H1167 C1175 0.950 . S
H1168 C1173 0.950 . S
H1169 C1174 0.949 . S
H1170 C1176 0.950 . S
H1171 C1177 0.950 . S
H1172 C1178 0.949 . S
C1173 H1168 0.950 . S
C1173 C1175 1.327 . S
C1173 C1179 1.429 . S
C1174 C1166 1.574 . S
C1174 H1169 0.949 . S
C1174 C1180 1.368 . S
C1175 C1159 1.349 . S
C1175 H1167 0.950 . S
C1175 C1173 1.327 . S
C1176 C1164 1.349 . S
C1176 H1170 0.950 . S
C1176 C1177 1.327 . S
C1177 H1171 0.950 . S
C1177 C1176 1.327 . S
C1177 C1181 1.429 . S
C1178 C1161 1.574 . S
C1178 H1172 0.949 . S
C1178 C1182 1.368 . S
C1179 C1160 1.429 . S
C1179 C1173 1.429 . S
C1179 C1180 1.523 . S
C1180 C1161 1.368 . S
C1180 C1174 1.368 . S
C1180 C1179 1.523 . S
C1181 C1165 1.429 . S
C1181 C1177 1.429 . S
C1181 C1182 1.523 . S
C1182 C1166 1.368 . S
C1182 C1178 1.368 . S
C1182 C1181 1.523 . S
H1183 C1158 0.950 . S
H1184 C1160 0.950 . S
H1185 C1161 0.949 . S
H1186 C1163 0.950 . S
H1187 C1165 0.950 . S
C1188 C1189 1.349 . S
C1188 C1190 1.327 . S
C1188 H1213 0.950 . S
C1189 C1188 1.349 . S
C1189 C1205 1.349 . S
C1190 C1188 1.327 . S
C1190 C1209 1.429 . S
C1190 H1214 0.950 . S
C1191 C1208 1.574 . S
C1191 C1210 1.368 . S
C1191 H1215 0.949 . S
H1192 C1196 0.949 . S
C1193 C1194 1.349 . S
C1193 C1195 1.327 . S
C1193 H1216 0.950 . S
C1194 C1193 1.349 . S
C1194 C1206 1.349 . S
C1195 C1193 1.327 . S
C1195 C1211 1.429 . S
C1195 H1217 0.950 . S
C1196 H1192 0.949 . S
C1196 C1204 1.574 . S
C1196 C1212 1.368 . S
H1197 C1205 0.950 . S
H1198 C1203 0.950 . S
H1199 C1204 0.949 . S
H1200 C1206 0.950 . S
H1201 C1207 0.950 . S
H1202 C1208 0.949 . S
C1203 H1198 0.950 . S
C1203 C1205 1.327 . S
C1203 C1209 1.429 . S
C1204 C1196 1.574 . S
C1204 H1199 0.949 . S
C1204 C1210 1.368 . S
C1205 C1189 1.349 . S
C1205 H1197 0.950 . S
C1205 C1203 1.327 . S
C1206 C1194 1.349 . S
C1206 H1200 0.950 . S
C1206 C1207 1.327 . S
C1207 H1201 0.950 . S
C1207 C1206 1.327 . S
C1207 C1211 1.429 . S
C1208 C1191 1.574 . S
C1208 H1202 0.949 . S
C1208 C1212 1.368 . S
C1209 C1190 1.429 . S
C1209 C1203 1.429 . S
C1209 C1210 1.523 . S
C1210 C1191 1.368 . S
C1210 C1204 1.368 . S
C1210 C1209 1.523 . S
C1211 C1195 1.429 . S
C1211 C1207 1.429 . S
C1211 C1212 1.523 . S
C1212 C1196 1.368 . S
C1212 C1208 1.368 . S
C1212 C1211 1.523 . S
H1213 C1188 0.950 . S
H1214 C1190 0.950 . S
H1215 C1191 0.949 . S
H1216 C1193 0.950 . S
H1217 C1195 0.950 . S
C1218 C1219 1.349 . S
C1218 C1220 1.327 . S
C1218 H1243 0.950 . S
C1219 C1218 1.349 . S
C1219 C1235 1.349 . S
C1220 C1218 1.327 . S
C1220 C1239 1.429 . S
C1220 H1244 0.950 . S
C1221 C1238 1.574 . S
C1221 C1240 1.368 . S
C1221 H1245 0.949 . S
H1222 C1226 0.949 . S
C1223 C1224 1.349 . S
C1223 C1225 1.327 . S
C1223 H1246 0.950 . S
C1224 C1223 1.349 . S
C1224 C1236 1.349 . S
C1225 C1223 1.327 . S
C1225 C1241 1.429 . S
C1225 H1247 0.950 . S
C1226 H1222 0.949 . S
C1226 C1234 1.574 . S
C1226 C1242 1.368 . S
H1227 C1235 0.950 . S
H1228 C1233 0.950 . S
H1229 C1234 0.949 . S
H1230 C1236 0.950 . S
H1231 C1237 0.950 . S
H1232 C1238 0.949 . S
C1233 H1228 0.950 . S
C1233 C1235 1.327 . S
C1233 C1239 1.429 . S
C1234 C1226 1.574 . S
C1234 H1229 0.949 . S
C1234 C1240 1.368 . S
C1235 C1219 1.349 . S
C1235 H1227 0.950 . S
C1235 C1233 1.327 . S
C1236 C1224 1.349 . S
C1236 H1230 0.950 . S
C1236 C1237 1.327 . S
C1237 H1231 0.950 . S
C1237 C1236 1.327 . S
C1237 C1241 1.429 . S
C1238 C1221 1.574 . S
C1238 H1232 0.949 . S
C1238 C1242 1.368 . S
C1239 C1220 1.429 . S
C1239 C1233 1.429 . S
C1239 C1240 1.523 . S
C1240 C1221 1.368 . S
C1240 C1234 1.368 . S
C1240 C1239 1.523 . S
C1241 C1225 1.429 . S
C1241 C1237 1.429 . S
C1241 C1242 1.523 . S
C1242 C1226 1.368 . S
C1242 C1238 1.368 . S
C1242 C1241 1.523 . S
H1243 C1218 0.950 . S
H1244 C1220 0.950 . S
H1245 C1221 0.949 . S
H1246 C1223 0.950 . S
H1247 C1225 0.950 . S
C1248 C1249 1.349 . S
C1248 C1250 1.327 . S
C1248 H1273 0.950 . S
C1249 C1248 1.349 . S
C1249 C1265 1.349 . S
C1250 C1248 1.327 . S
C1250 C1269 1.429 . S
C1250 H1274 0.950 . S
C1251 C1268 1.582 . S
C1251 C1270 1.368 . S
C1251 H1275 0.949 1_655 S
H1252 C1256 0.949 . S
C1253 C1254 1.349 1_455 S
C1253 C1255 1.327 . S
C1253 H1276 0.950 . S
C1254 C1253 1.349 1_655 S
C1254 C1266 1.349 . S
C1255 C1253 1.327 . S
C1255 C1271 1.429 1_455 S
C1255 H1277 0.950 . S
C1256 H1252 0.949 . S
C1256 C1264 1.574 . S
C1256 C1272 1.368 . S
H1257 C1265 0.950 . S
H1258 C1263 0.950 1_455 S
H1259 C1264 0.949 . S
H1260 C1266 0.950 . S
H1261 C1267 0.950 . S
H1262 C1268 0.901 1_455 S
C1263 H1258 0.950 1_655 S
C1263 C1265 1.327 . S
C1263 C1269 1.429 . S
C1264 C1256 1.574 . S
C1264 H1259 0.949 . S
C1264 C1270 1.368 . S
C1265 C1249 1.349 . S
C1265 H1257 0.950 . S
C1265 C1263 1.327 . S
C1266 C1254 1.349 . S
C1266 H1260 0.950 . S
C1266 C1267 1.327 . S
C1267 H1261 0.950 . S
C1267 C1266 1.327 . S
C1267 C1271 1.429 . S
C1268 C1251 1.582 . S
C1268 H1262 0.901 1_655 S
C1268 C1272 1.415 . S
C1269 C1250 1.429 . S
C1269 C1263 1.429 . S
C1269 C1270 1.523 . S
C1270 C1251 1.368 . S
C1270 C1264 1.368 . S
C1270 C1269 1.523 . S
C1271 C1255 1.429 1_655 S
C1271 C1267 1.429 . S
C1271 C1272 1.523 . S
C1272 C1256 1.368 . S
C1272 C1268 1.415 . S
C1272 C1271 1.523 . S
H1273 C1248 0.950 . S
H1274 C1250 0.950 . S
H1275 C1251 0.949 1_455 S
H1276 C1253 0.950 . S
H1277 C1255 0.950 . S
C1278 C1279 1.349 . S
C1278 C1280 1.327 . S
C1278 H1303 0.950 . S
C1279 C1278 1.349 . S
C1279 C1295 1.349 . S
C1280 C1278 1.327 . S
C1280 C1299 1.429 . S
C1280 H1304 0.950 . S
C1281 C1298 1.574 . S
C1281 C1300 1.368 . S
C1281 H1305 0.949 . S
H1282 C1286 0.949 . S
C1283 C1284 1.349 . S
C1283 C1285 1.327 . S
C1283 H1306 0.950 . S
C1284 C1283 1.349 . S
C1284 C1296 1.349 . S
C1285 C1283 1.327 . S
C1285 C1301 1.429 . S
C1285 H1307 0.950 . S
C1286 H1282 0.949 . S
C1286 C1294 1.574 . S
C1286 C1302 1.368 . S
H1287 C1295 0.950 . S
H1288 C1293 0.950 . S
H1289 C1294 0.949 . S
H1290 C1296 0.950 . S
H1291 C1297 0.950 . S
H1292 C1298 0.949 . S
C1293 H1288 0.950 . S
C1293 C1295 1.327 . S
C1293 C1299 1.429 . S
C1294 C1286 1.574 . S
C1294 H1289 0.949 . S
C1294 C1300 1.368 . S
C1295 C1279 1.349 . S
C1295 H1287 0.950 . S
C1295 C1293 1.327 . S
C1296 C1284 1.349 . S
C1296 H1290 0.950 . S
C1296 C1297 1.327 . S
C1297 H1291 0.950 . S
C1297 C1296 1.327 . S
C1297 C1301 1.429 . S
C1298 C1281 1.574 . S
C1298 H1292 0.949 . S
C1298 C1302 1.368 . S
C1299 C1280 1.429 . S
C1299 C1293 1.429 . S
C1299 C1300 1.523 . S
C1300 C1281 1.368 . S
C1300 C1294 1.368 . S
C1300 C1299 1.523 . S
C1301 C1285 1.429 . S
C1301 C1297 1.429 . S
C1301 C1302 1.523 . S
C1302 C1286 1.368 . S
C1302 C1298 1.368 . S
C1302 C1301 1.523 . S
H1303 C1278 0.950 . S
H1304 C1280 0.950 . S
H1305 C1281 0.949 . S
H1306 C1283 0.950 . S
H1307 C1285 0.950 . S
C1308 C1309 1.349 . S
C1308 C1310 1.327 . S
C1308 H1333 0.950 . S
C1309 C1308 1.349 . S
C1309 C1325 1.349 . S
C1310 C1308 1.327 . S
C1310 C1329 1.429 . S
C1310 H1334 0.950 . S
C1311 C1328 1.574 . S
C1311 C1330 1.368 . S
C1311 H1335 0.949 . S
H1312 C1316 0.949 . S
C1313 C1314 1.349 . S
C1313 C1315 1.327 . S
C1313 H1336 0.950 . S
C1314 C1313 1.349 . S
C1314 C1326 1.349 . S
C1315 C1313 1.327 . S
C1315 C1331 1.429 . S
C1315 H1337 0.950 . S
C1316 H1312 0.949 . S
C1316 C1324 1.574 . S
C1316 C1332 1.368 . S
H1317 C1325 0.950 . S
H1318 C1323 0.950 . S
H1319 C1324 0.949 . S
H1320 C1326 0.950 . S
H1321 C1327 0.950 . S
H1322 C1328 0.949 . S
C1323 H1318 0.950 . S
C1323 C1325 1.327 . S
C1323 C1329 1.429 . S
C1324 C1316 1.574 . S
C1324 H1319 0.949 . S
C1324 C1330 1.368 . S
C1325 C1309 1.349 . S
C1325 H1317 0.950 . S
C1325 C1323 1.327 . S
C1326 C1314 1.349 . S
C1326 H1320 0.950 . S
C1326 C1327 1.327 . S
C1327 H1321 0.950 . S
C1327 C1326 1.327 . S
C1327 C1331 1.429 . S
C1328 C1311 1.574 . S
C1328 H1322 0.949 . S
C1328 C1332 1.368 . S
C1329 C1310 1.429 . S
C1329 C1323 1.429 . S
C1329 C1330 1.523 . S
C1330 C1311 1.368 . S
C1330 C1324 1.368 . S
C1330 C1329 1.523 . S
C1331 C1315 1.429 . S
C1331 C1327 1.429 . S
C1331 C1332 1.523 . S
C1332 C1316 1.368 . S
C1332 C1328 1.368 . S
C1332 C1331 1.523 . S
H1333 C1308 0.950 . S
H1334 C1310 0.950 . S
H1335 C1311 0.949 . S
H1336 C1313 0.950 . S
H1337 C1315 0.950 . S
C1338 C1339 1.349 . S
C1338 C1340 1.327 . S
C1338 H1363 0.950 . S
C1339 C1338 1.349 . S
C1339 C1355 1.349 . S
C1340 C1338 1.327 . S
C1340 C1359 1.429 . S
C1340 H1364 0.950 . S
C1341 C1358 1.574 . S
C1341 C1360 1.368 . S
C1341 H1365 0.949 . S
H1342 C1346 0.949 . S
C1343 C1344 1.349 . S
C1343 C1345 1.327 . S
C1343 H1366 0.950 . S
C1344 C1343 1.349 . S
C1344 C1356 1.349 . S
C1345 C1343 1.327 . S
C1345 C1361 1.429 . S
C1345 H1367 0.950 . S
C1346 H1342 0.949 . S
C1346 C1354 1.574 . S
C1346 C1362 1.368 . S
H1347 C1355 0.950 . S
H1348 C1353 0.950 . S
H1349 C1354 0.949 . S
H1350 C1356 0.950 . S
H1351 C1357 0.950 . S
H1352 C1358 0.949 . S
C1353 H1348 0.950 . S
C1353 C1355 1.327 . S
C1353 C1359 1.429 . S
C1354 C1346 1.574 . S
C1354 H1349 0.949 . S
C1354 C1360 1.368 . S
C1355 C1339 1.349 . S
C1355 H1347 0.950 . S
C1355 C1353 1.327 . S
C1356 C1344 1.349 . S
C1356 H1350 0.950 . S
C1356 C1357 1.327 . S
C1357 H1351 0.950 . S
C1357 C1356 1.327 . S
C1357 C1361 1.429 . S
C1358 C1341 1.574 . S
C1358 H1352 0.949 . S
C1358 C1362 1.368 . S
C1359 C1340 1.429 . S
C1359 C1353 1.429 . S
C1359 C1360 1.523 . S
C1360 C1341 1.368 . S
C1360 C1354 1.368 . S
C1360 C1359 1.523 . S
C1361 C1345 1.429 . S
C1361 C1357 1.429 . S
C1361 C1362 1.523 . S
C1362 C1346 1.368 . S
C1362 C1358 1.368 . S
C1362 C1361 1.523 . S
H1363 C1338 0.950 . S
H1364 C1340 0.950 . S
H1365 C1341 0.949 . S
H1366 C1343 0.950 . S
H1367 C1345 0.950 . S
C649 C255 2.091 . S
C654 C375 2.203 . S
C684 C452 2.225 . S
C679 C294 2.098 . S
C714 C543 2.193 . S
C709 C177 2.081 . S
C744 C627 2.181 . S
C739 C216 2.071 . S
C774 C386 2.202 1_565 S
C769 C99 2.099 . S
C799 C138 2.091 . S
C804 C463 2.226 . S
C829 C21 2.089 . S
C834 C554 2.194 . S
C859 C60 2.078 . S
C864 C638 2.180 1_655 S
C894 C370 0.430 1_455 S
C889 C196 0.314 . S
C924 C465 0.523 . S
C919 C235 0.301 . S
C954 C538 0.426 . S
C949 C289 0.322 . S
C979 C157 0.307 . S
C984 C622 0.424 . S
C1009 C40 0.300 . S
C1014 C381 0.430 . S
C1044 C454 0.523 . S
C1039 C79 0.284 . S
C1074 C549 0.426 . S
C1069 C133 0.313 . S
C1099 C1 0.291 . S
C1104 C633 0.424 . S
C1129 C211 2.422 . S
C1134 C379 2.662 . S
C1159 C250 2.404 . S
C1164 C470 2.668 . S
C1194 C547 2.688 . S
C1189 C274 2.450 . S
C1224 C631 2.684 . S
C1219 C172 2.442 . S
C1249 C55 2.419 . S
C1254 C368 2.662 . S
C1284 C459 2.668 . S
C1279 C94 2.402 . S
C1314 C536 2.689 . S
C1309 C118 2.448 . S
C1339 C16 2.440 . S
C1344 C620 2.684 . S
