# Generated by pormake.
# Topology pyr, (3,6)-cn, num edge types: 1
# Building blocks:
#     Node 0, Type 0, BuildingBlock: BELTOD_clean_linker_0, # of connection points: 3
#     Node 1, Type 0, BuildingBlock: BELTOD_clean_linker_0, # of connection points: 3
#     Node 2, Type 0, BuildingBlock: BELTOD_clean_linker_0, # of connection points: 3
#     Node 3, Type 0, BuildingBlock: BELTOD_clean_linker_0, # of connection points: 3
#     Node 4, Type 0, BuildingBlock: BELTOD_clean_linker_0, # of connection points: 3
#     Node 5, Type 0, BuildingBlock: BELTOD_clean_linker_0, # of connection points: 3
#     Node 6, Type 0, BuildingBlock: BELTOD_clean_linker_0, # of connection points: 3
#     Node 7, Type 0, BuildingBlock: BELTOD_clean_linker_0, # of connection points: 3
#     Node 8, Type 1, BuildingBlock: FUNLAD_clean_sbu_0, # of connection points: 6
#     Node 9, Type 1, BuildingBlock: FUNLAD_clean_sbu_0, # of connection points: 6
#     Node 10, Type 1, BuildingBlock: FUNLAD_clean_sbu_0, # of connection points: 6
#     Node 11, Type 1, BuildingBlock: FUNLAD_clean_sbu_0, # of connection points: 6
#     Edge 12, Type (0, 1), BuildingBlock: ZUJKAS_clean_linker_0, # of connection points: 2
#     Edge 13, Type (0, 1), BuildingBlock: ZUJKAS_clean_linker_0, # of connection points: 2
#     Edge 14, Type (0, 1), BuildingBlock: ZUJKAS_clean_linker_0, # of connection points: 2
#     Edge 15, Type (0, 1), BuildingBlock: ZUJKAS_clean_linker_0, # of connection points: 2
#     Edge 16, Type (0, 1), BuildingBlock: ZUJKAS_clean_linker_0, # of connection points: 2
#     Edge 17, Type (0, 1), BuildingBlock: ZUJKAS_clean_linker_0, # of connection points: 2
#     Edge 18, Type (0, 1), BuildingBlock: ZUJKAS_clean_linker_0, # of connection points: 2
#     Edge 19, Type (0, 1), BuildingBlock: ZUJKAS_clean_linker_0, # of connection points: 2
#     Edge 20, Type (0, 1), BuildingBlock: ZUJKAS_clean_linker_0, # of connection points: 2
#     Edge 21, Type (0, 1), BuildingBlock: ZUJKAS_clean_linker_0, # of connection points: 2
#     Edge 22, Type (0, 1), BuildingBlock: ZUJKAS_clean_linker_0, # of connection points: 2
#     Edge 23, Type (0, 1), BuildingBlock: ZUJKAS_clean_linker_0, # of connection points: 2
#     Edge 24, Type (0, 1), BuildingBlock: ZUJKAS_clean_linker_0, # of connection points: 2
#     Edge 25, Type (0, 1), BuildingBlock: ZUJKAS_clean_linker_0, # of connection points: 2
#     Edge 26, Type (0, 1), BuildingBlock: ZUJKAS_clean_linker_0, # of connection points: 2
#     Edge 27, Type (0, 1), BuildingBlock: ZUJKAS_clean_linker_0, # of connection points: 2
#     Edge 28, Type (0, 1), BuildingBlock: ZUJKAS_clean_linker_0, # of connection points: 2
#     Edge 29, Type (0, 1), BuildingBlock: ZUJKAS_clean_linker_0, # of connection points: 2
#     Edge 30, Type (0, 1), BuildingBlock: ZUJKAS_clean_linker_0, # of connection points: 2
#     Edge 31, Type (0, 1), BuildingBlock: ZUJKAS_clean_linker_0, # of connection points: 2
#     Edge 32, Type (0, 1), BuildingBlock: ZUJKAS_clean_linker_0, # of connection points: 2
#     Edge 33, Type (0, 1), BuildingBlock: ZUJKAS_clean_linker_0, # of connection points: 2
#     Edge 34, Type (0, 1), BuildingBlock: ZUJKAS_clean_linker_0, # of connection points: 2
#     Edge 35, Type (0, 1), BuildingBlock: ZUJKAS_clean_linker_0, # of connection points: 2
# Relax obj value: 0.044
# Max RMSD: 0.061
# Mean RMSD: 0.031
data_MOF--net-pry--node1-FUNLAD_clean_sbu_0--node2-BELTOD_clean_linker_0--edge1-ZUJKAS_clean_linker_0
_symmetry_space_group_name_H-M    P1
_symmetry_Int_Tables_number       1
_symmetry_cell_setting            triclinic
loop_
_symmetry_equiv_pos_as_xyz
'x, y, z'
_cell_length_a     51.888861
_cell_length_b     54.870387
_cell_length_c     54.558227
_cell_angle_alpha  90.179619
_cell_angle_beta   90.368752
_cell_angle_gamma 87.097641
loop_
_atom_site_label
_atom_site_type_symbol
_atom_site_fract_x
_atom_site_fract_y
_atom_site_fract_z
_atom_type_partial_charge
P0 P 0.16941 0.18754 0.19823 0.0
H1 H 0.21592 0.20196 0.17415 0.0
H2 H 0.24903 0.18007 0.15001 0.0
H3 H 0.20612 0.11471 0.15404 0.0
H4 H 0.17245 0.13721 0.17744 0.0
H5 H 0.14393 0.2338 0.21299 0.0
H6 H 0.12293 0.26756 0.19016 0.0
H7 H 0.13208 0.22607 0.12308 0.0
H8 H 0.15281 0.19212 0.14624 0.0
H9 H 0.18339 0.14254 0.22474 0.0
H10 H 0.11583 0.19089 0.21662 0.0
O11 O 0.18755 0.20291 0.21768 0.0
H12 H 0.16178 0.11994 0.25642 0.0
H13 H 0.09414 0.16849 0.24859 0.0
C14 C 0.19203 0.1711 0.1782 0.0
C15 C 0.21355 0.18294 0.16973 0.0
C16 C 0.23263 0.17029 0.15605 0.0
C17 C 0.23071 0.14537 0.15045 0.0
C18 C 0.20839 0.13384 0.15797 0.0
C19 C 0.18915 0.14664 0.17158 0.0
C20 C 0.1502 0.21048 0.18136 0.0
C21 C 0.14115 0.23182 0.19341 0.0
C22 C 0.12932 0.25124 0.18026 0.0
C23 C 0.12613 0.2498 0.15465 0.0
C24 C 0.13413 0.22787 0.14276 0.0
C25 C 0.14607 0.20841 0.15599 0.0
C26 C 0.15104 0.16802 0.21761 0.0
C27 C 0.16359 0.14786 0.22918 0.0
C28 C 0.15122 0.13498 0.24747 0.0
C29 C 0.12616 0.14233 0.25513 0.0
C30 C 0.11348 0.16238 0.24328 0.0
C31 C 0.1258 0.17508 0.22475 0.0
P32 P 0.3695 0.86775 0.66052 0.0
H33 H 0.41462 0.8904 0.68083 0.0
H34 H 0.42635 0.90371 0.72185 0.0
H35 H 0.35688 0.8745 0.75043 0.0
H36 H 0.34542 0.8608 0.70899 0.0
H37 H 0.41848 0.84687 0.64244 0.0
H38 H 0.43229 0.80673 0.62671 0.0
H39 H 0.35804 0.77978 0.64508 0.0
H40 H 0.34423 0.82039 0.66064 0.0
H41 H 0.33107 0.90275 0.68194 0.0
H42 H 0.33454 0.85111 0.62222 0.0
O43 O 0.38525 0.88612 0.64216 0.0
H44 H 0.28847 0.91798 0.66808 0.0
H45 H 0.2917 0.86584 0.60854 0.0
C46 C 0.37881 0.8751 0.69168 0.0
C47 C 0.40186 0.88678 0.69587 0.0
C48 C 0.4085 0.89454 0.71942 0.0
C49 C 0.39235 0.89067 0.73951 0.0
C50 C 0.3698 0.87786 0.73544 0.0
C51 C 0.36314 0.87008 0.71174 0.0
C52 C 0.38011 0.83684 0.65221 0.0
C53 C 0.40518 0.83231 0.64326 0.0
C54 C 0.41313 0.80921 0.63437 0.0
C55 C 0.39624 0.78992 0.63434 0.0
C56 C 0.37142 0.79427 0.64435 0.0
C57 C 0.36352 0.81746 0.6534 0.0
C58 C 0.33574 0.87503 0.65378 0.0
C59 C 0.32231 0.89399 0.6664 0.0
C60 C 0.29788 0.90282 0.65834 0.0
C61 C 0.2865 0.89318 0.63715 0.0
C62 C 0.29987 0.87388 0.6248 0.0
C63 C 0.32427 0.8651 0.63289 0.0
P64 P 0.662 0.38867 0.88817 0.0
H65 H 0.71519 0.3755 0.90138 0.0
H66 H 0.74534 0.39273 0.93003 0.0
H67 H 0.6855 0.44478 0.95448 0.0
H68 H 0.65541 0.42763 0.92501 0.0
H69 H 0.61483 0.36999 0.86866 0.0
H70 H 0.58506 0.34078 0.88407 0.0
H71 H 0.62993 0.33367 0.95095 0.0
H72 H 0.65925 0.36357 0.93566 0.0
H73 H 0.67169 0.41161 0.8413 0.0
H74 H 0.61504 0.41874 0.8987 0.0
O75 O 0.67944 0.37176 0.86821 0.0
H76 H 0.64454 0.43796 0.81503 0.0
H77 H 0.58779 0.44574 0.87261 0.0
C78 C 0.68328 0.40066 0.91072 0.0
C79 C 0.70849 0.39058 0.91291 0.0
C80 C 0.72565 0.40029 0.92958 0.0
C81 C 0.71784 0.42015 0.94462 0.0
C82 C 0.69219 0.42968 0.94296 0.0
C83 C 0.67499 0.41991 0.92616 0.0
C84 C 0.63897 0.36922 0.90118 0.0
C85 C 0.61795 0.36255 0.88686 0.0
C86 C 0.60106 0.34571 0.89561 0.0
C87 C 0.60518 0.33488 0.9187 0.0
C88 C 0.62602 0.34198 0.93324 0.0
C89 C 0.64288 0.35898 0.92448 0.0
C90 C 0.64503 0.4128 0.87164 0.0
C91 C 0.65365 0.41936 0.84846 0.0
C92 C 0.63814 0.43464 0.83352 0.0
C93 C 0.6138 0.44373 0.84162 0.0
C94 C 0.60622 0.43868 0.86571 0.0
C95 C 0.62182 0.42338 0.88066 0.0
P96 P 0.86599 0.63126 0.42033 0.0
H97 H 0.91132 0.65077 0.39942 0.0
H98 H 0.94541 0.67459 0.41633 0.0
H99 H 0.91457 0.66572 0.48906 0.0
H100 H 0.87991 0.64221 0.47169 0.0
H101 H 0.84507 0.61462 0.37407 0.0
H102 H 0.86389 0.58934 0.34139 0.0
H103 H 0.93013 0.57107 0.38749 0.0
H104 H 0.91113 0.59675 0.42015 0.0
H105 H 0.81629 0.64985 0.4384 0.0
H106 H 0.86736 0.58633 0.44948 0.0
O107 O 0.85036 0.65331 0.40427 0.0
H108 H 0.78346 0.63167 0.46271 0.0
H109 H 0.8347 0.56811 0.47497 0.0
C110 C 0.8932 0.64474 0.4343 0.0
C111 C 0.91224 0.65348 0.41908 0.0
C112 C 0.93189 0.66693 0.42885 0.0
C113 C 0.9328 0.67204 0.4541 0.0
C114 C 0.9143 0.66223 0.46951 0.0
C115 C 0.89452 0.64874 0.45964 0.0
C116 C 0.87713 0.60811 0.3991 0.0
C117 C 0.8634 0.60479 0.37731 0.0
C118 C 0.87412 0.59013 0.35872 0.0
C119 C 0.8987 0.57846 0.36175 0.0
C120 C 0.91137 0.58018 0.3845 0.0
C121 C 0.90054 0.59482 0.40314 0.0
C122 C 0.84395 0.61916 0.44173 0.0
C123 C 0.8206 0.6321 0.44648 0.0
C124 C 0.80189 0.62174 0.46072 0.0
C125 C 0.80632 0.59831 0.47079 0.0
C126 C 0.83049 0.586 0.46717 0.0
C127 C 0.8492 0.5964 0.4527 0.0
P128 P 0.86492 0.86417 0.85973 0.0
H129 H 0.84219 0.86333 0.90821 0.0
H130 H 0.79979 0.87613 0.92432 0.0
H131 H 0.77307 0.89303 0.85089 0.0
H132 H 0.81559 0.87994 0.83485 0.0
H133 H 0.91628 0.84016 0.86193 0.0
H134 H 0.9326 0.8004 0.87702 0.0
H135 H 0.85436 0.78001 0.88917 0.0
H136 H 0.83822 0.8196 0.87336 0.0
H137 H 0.85539 0.9106 0.8349 0.0
H138 H 0.88752 0.83918 0.81578 0.0
O139 O 0.88334 0.88171 0.87682 0.0
H140 H 0.86706 0.92593 0.79479 0.0
H141 H 0.90021 0.85458 0.77578 0.0
C142 C 0.83224 0.87084 0.87035 0.0
C143 C 0.82712 0.8695 0.89552 0.0
C144 C 0.80279 0.87678 0.90471 0.0
C145 C 0.78298 0.88579 0.88895 0.0
C146 C 0.78797 0.88652 0.8636 0.0
C147 C 0.81231 0.87896 0.85438 0.0
C148 C 0.87604 0.83302 0.86662 0.0
C149 C 0.90261 0.82697 0.86746 0.0
C150 C 0.91194 0.80426 0.87638 0.0
C151 C 0.89488 0.78698 0.88478 0.0
C152 C 0.86814 0.79271 0.88283 0.0
C153 C 0.85884 0.81548 0.87382 0.0
C154 C 0.87023 0.87365 0.82837 0.0
C155 C 0.86468 0.8981 0.82192 0.0
C156 C 0.87173 0.90695 0.79899 0.0
C157 C 0.88493 0.89166 0.78192 0.0
C158 C 0.88989 0.86692 0.78823 0.0
C159 C 0.88267 0.85805 0.81123 0.0
P160 P 0.66463 0.18441 0.33187 0.0
H161 H 0.68011 0.21534 0.37231 0.0
H162 H 0.65806 0.24853 0.39507 0.0
H163 H 0.58747 0.23574 0.35582 0.0
H164 H 0.60967 0.2023 0.33322 0.0
H165 H 0.71067 0.15599 0.31687 0.0
H166 H 0.74397 0.13192 0.33922 0.0
H167 H 0.70205 0.14474 0.40656 0.0
H168 H 0.6686 0.16871 0.38395 0.0
H169 H 0.63459 0.1983 0.28831 0.0
H170 H 0.65248 0.13225 0.32883 0.0
O171 O 0.68248 0.20162 0.31422 0.0
H172 H 0.61358 0.17486 0.25646 0.0
H173 H 0.63122 0.1086 0.29714 0.0
C174 C 0.6465 0.20584 0.3514 0.0
C175 C 0.6597 0.21919 0.36904 0.0
C176 C 0.64705 0.23828 0.38204 0.0
C177 C 0.62093 0.24487 0.37735 0.0
C178 C 0.60763 0.23128 0.35981 0.0
C179 C 0.62029 0.21197 0.34698 0.0
C180 C 0.6874 0.16461 0.34877 0.0
C181 C 0.70853 0.15349 0.33643 0.0
C182 C 0.72753 0.1396 0.34924 0.0
C183 C 0.72586 0.13654 0.37476 0.0
C184 C 0.70416 0.14707 0.38698 0.0
C185 C 0.68498 0.16077 0.37405 0.0
C186 C 0.64523 0.1671 0.31095 0.0
C187 C 0.63358 0.17877 0.29058 0.0
C188 C 0.62149 0.16529 0.27235 0.0
C189 C 0.6208 0.13972 0.27402 0.0
C190 C 0.63172 0.12818 0.29498 0.0
C191 C 0.64374 0.14174 0.31328 0.0
P192 P 0.41935 0.57087 0.05846 0.0
H193 H 0.3898 0.55076 0.018 0.0
H194 H 0.34343 0.54741 0.01098 0.0
H195 H 0.32796 0.58035 0.08177 0.0
H196 H 0.37404 0.58398 0.08843 0.0
H197 H 0.46915 0.59212 0.05414 0.0
H198 H 0.48158 0.63423 0.04896 0.0
H199 H 0.40139 0.6574 0.03882 0.0
H200 H 0.3892 0.61545 0.04366 0.0
H201 H 0.43736 0.52934 0.08883 0.0
H202 H 0.41766 0.60605 0.09875 0.0
O203 O 0.4364 0.54971 0.04255 0.0
H204 H 0.44714 0.5256 0.13276 0.0
H205 H 0.42758 0.60252 0.14233 0.0
C206 C 0.3854 0.56712 0.05393 0.0
C207 C 0.3764 0.55703 0.03207 0.0
C208 C 0.34992 0.55511 0.02811 0.0
C209 C 0.33204 0.56357 0.04586 0.0
C210 C 0.34121 0.57387 0.06765 0.0
C211 C 0.36763 0.5757 0.0716 0.0
C212 C 0.42833 0.60061 0.04907 0.0
C213 C 0.45436 0.60621 0.05014 0.0
C214 C 0.46139 0.63028 0.04744 0.0
C215 C 0.44245 0.64914 0.04363 0.0
C216 C 0.41647 0.64325 0.04146 0.0
C217 C 0.40946 0.6192 0.04427 0.0
C218 C 0.4272 0.56802 0.09051 0.0
C219 C 0.43536 0.54538 0.1004 0.0
C220 C 0.44099 0.5433 0.12544 0.0
C221 C 0.43816 0.56379 0.14094 0.0
C222 C 0.42974 0.58637 0.1309 0.0
C223 C 0.42429 0.58845 0.10593 0.0
P224 P 0.14747 0.39112 0.6015 0.0
H225 H 0.15047 0.34498 0.57494 0.0
H226 H 0.11741 0.32006 0.55763 0.0
H227 H 0.05975 0.37807 0.57128 0.0
H228 H 0.09309 0.40296 0.58876 0.0
H229 H 0.16589 0.43882 0.6154 0.0
H230 H 0.19384 0.4662 0.5947 0.0
H231 H 0.19316 0.42021 0.53022 0.0
H232 H 0.1637 0.39367 0.55062 0.0
H233 H 0.14605 0.37178 0.65107 0.0
H234 H 0.11473 0.43505 0.61224 0.0
O235 O 0.17124 0.37103 0.60955 0.0
H236 H 0.12569 0.38687 0.68872 0.0
H237 H 0.09437 0.45039 0.65002 0.0
C238 C 0.1241 0.37549 0.58381 0.0
C239 C 0.13082 0.35255 0.57383 0.0
C240 C 0.11188 0.33839 0.5637 0.0
C241 C 0.08588 0.34701 0.56334 0.0
C242 C 0.07955 0.37082 0.57166 0.0
C243 C 0.09861 0.38504 0.58169 0.0
C244 C 0.16217 0.41449 0.58435 0.0
C245 C 0.17069 0.43519 0.59643 0.0
C246 C 0.18708 0.45068 0.58466 0.0
C247 C 0.19607 0.44524 0.56091 0.0
C248 C 0.18639 0.42516 0.54838 0.0
C249 C 0.16958 0.40989 0.56007 0.0
C250 C 0.13237 0.40259 0.62904 0.0
C251 C 0.13496 0.38903 0.65069 0.0
C252 C 0.12333 0.39767 0.6722 0.0
C253 C 0.10868 0.41992 0.67234 0.0
C254 C 0.10549 0.43315 0.65042 0.0
C255 C 0.11723 0.42449 0.6289 0.0
C256 C 0.02353 0.02921 0.47114 0.0
N257 N 0.00411 0.06375 0.53753 0.0
C258 C 0.02623 0.07556 0.53433 0.0
C259 C 0.02678 0.10048 0.53906 0.0
C260 C 0.00429 0.1134 0.54699 0.0
C261 C 0.98222 0.10045 0.55173 0.0
C262 C 0.98255 0.07544 0.54683 0.0
Zn263 Zn 0.00211 0.02974 0.52305 0.0
C264 C 0.95243 0.02654 0.49377 0.0
N265 N 0.99708 0.96041 0.48944 0.0
C266 C 0.01897 0.94906 0.48048 0.0
C267 C 0.97503 0.94833 0.49201 0.0
C268 C 0.9749 0.92344 0.4869 0.0
C269 C 0.99776 0.91082 0.47938 0.0
C270 C 0.01977 0.92411 0.47537 0.0
Zn271 Zn 0.99885 0.99437 0.50405 0.0
O272 O 0.01954 0.04245 0.49006 0.0
C273 C 0.04851 0.99748 0.5333 0.0
O274 O 0.01711 0.00714 0.47161 0.0
H275 H 0.95788 0.95773 0.49922 0.0
H276 H 0.04311 0.06593 0.52685 0.0
H277 H 0.03628 0.95905 0.47861 0.0
O278 O 0.03935 0.01893 0.538 0.0
O279 O 0.03557 0.98376 0.51964 0.0
H280 H 0.96515 0.06566 0.54915 0.0
O281 O 0.98065 0.98186 0.53684 0.0
O282 O 0.98463 0.01677 0.55571 0.0
O283 O 0.96205 0.00538 0.48855 0.0
O284 O 0.96492 0.04012 0.50801 0.0
C285 C 0.97745 0.99493 0.55601 0.0
H286 H 0.04437 0.10971 0.53569 0.0
H287 H 0.96447 0.10973 0.55779 0.0
H288 H 0.95731 0.91402 0.48967 0.0
H289 H 0.03784 0.91514 0.46971 0.0
C290 C 0.5461 0.98651 0.9968 0.0
N291 N 0.50842 0.05581 0.99105 0.0
C292 C 0.53206 0.06493 0.99444 0.0
C293 C 0.53658 0.08862 0.98717 0.0
C294 C 0.51654 0.10312 0.9764 0.0
C295 C 0.49252 0.09304 0.97248 0.0
C296 C 0.48887 0.06915 0.97995 0.0
Zn297 Zn 0.50198 0.02272 0.00569 0.0
C298 C 0.47548 0.99003 0.9716 0.0
N299 N 0.48902 0.95438 0.03855 0.0
C300 C 0.5087 0.93987 0.04792 0.0
C301 C 0.46496 0.94603 0.03561 0.0
C302 C 0.46025 0.92187 0.04098 0.0
C303 C 0.48056 0.90598 0.04911 0.0
C304 C 0.50488 0.91544 0.05332 0.0
Zn305 Zn 0.49574 0.98769 0.0242 0.0
O306 O 0.53814 0.00827 0.99193 0.0
C307 C 0.52234 0.02052 0.05819 0.0
O308 O 0.53231 0.97359 0.01031 0.0
H309 H 0.44962 0.95778 0.02796 0.0
H310 H 0.54723 0.05407 1.00351 0.0
H311 H 0.52769 0.94689 0.05006 0.0
O312 O 0.52007 0.03373 0.0391 0.0
O313 O 0.5139 0.99912 0.05757 0.0
H314 H 0.47023 0.06149 0.97748 0.0
O315 O 0.45938 1.00234 0.03787 0.0
O316 O 0.46574 0.03693 0.01954 0.0
O317 O 0.47767 0.97663 0.99057 0.0
O318 O 0.48388 0.0114 0.9725 0.0
C319 C 0.45172 0.02419 0.03297 0.0
H320 H 0.55528 0.09582 0.99084 0.0
H321 H 0.47667 0.10358 0.96401 0.0
H322 H 0.44107 0.91551 0.03795 0.0
H323 H 0.52114 0.90382 0.05942 0.0
C324 C 0.51553 0.46864 0.48746 0.0
N325 N 0.50803 0.49916 0.55825 0.0
C326 C 0.49904 0.4785 0.56811 0.0
C327 C 0.50237 0.47375 0.59316 0.0
C328 C 0.51503 0.49045 0.60802 0.0
C329 C 0.52398 0.51157 0.59723 0.0
C330 C 0.52038 0.5155 0.57228 0.0
Zn331 Zn 0.50265 0.50832 0.5224 0.0
C332 C 0.55091 0.52768 0.50196 0.0
N333 N 0.49237 0.53219 0.44884 0.0
C334 C 0.47964 0.51639 0.43447 0.0
C335 C 0.50214 0.55266 0.43934 0.0
C336 C 0.49966 0.55759 0.41426 0.0
C337 C 0.4871 0.54122 0.39896 0.0
C338 C 0.4767 0.5206 0.40947 0.0
Zn339 Zn 0.4976 0.52273 0.48466 0.0
O340 O 0.51425 0.47224 0.51049 0.0
C341 C 0.44938 0.50335 0.50531 0.0
O342 O 0.50957 0.48631 0.47309 0.0
H343 H 0.51226 0.56492 0.45112 0.0
H344 H 0.48919 0.46581 0.55659 0.0
H345 H 0.47203 0.50022 0.44235 0.0
O346 O 0.46383 0.49893 0.52382 0.0
O347 O 0.45872 0.51296 0.48641 0.0
H348 H 0.52724 0.5319 0.56417 0.0
O349 O 0.48572 0.55891 0.49671 0.0
O350 O 0.49089 0.54456 0.5339 0.0
O351 O 0.53654 0.53256 0.48349 0.0
O352 O 0.54147 0.51765 0.52056 0.0
C353 C 0.48469 0.56232 0.51978 0.0
H354 H 0.49534 0.45714 0.60074 0.0
H355 H 0.53338 0.52519 0.60801 0.0
H356 H 0.50804 0.57365 0.40685 0.0
H357 H 0.46642 0.50776 0.39846 0.0
C358 C 0.99377 0.56179 0.99809 0.0
N359 N 0.99888 0.53281 0.06963 0.0
C360 C 0.00617 0.55412 0.07973 0.0
C361 C 1.00022 0.55968 0.10417 0.0
C362 C 0.98656 0.54316 0.11806 0.0
C363 C 0.97957 0.52129 0.10715 0.0
C364 C 0.98591 0.51648 0.08288 0.0
Zn365 Zn 0.00682 0.52305 0.03443 0.0
C366 C 0.96094 0.50117 0.01126 0.0
N367 N 0.02179 0.4984 0.96198 0.0
C368 C 0.03343 0.51424 0.94703 0.0
C369 C 0.01369 0.47674 0.95343 0.0
C370 C 0.0168 0.4705 0.92877 0.0
C371 C 0.02826 0.48678 0.91283 0.0
C372 C 0.03688 0.50877 0.92229 0.0
Zn373 Zn 0.01466 0.50877 0.99712 0.0
O374 O 0.99433 0.55863 0.02121 0.0
C375 C 0.06056 0.53074 0.02018 0.0
O376 O 1.00118 0.54413 0.98424 0.0
H377 H 0.00437 0.4645 0.96566 0.0
H378 H 0.01653 0.56679 0.06883 0.0
H379 H 0.03972 0.53135 0.95423 0.0
O380 O 0.04518 0.53416 0.03805 0.0
O381 O 0.05259 0.52077 1.00069 0.0
H382 H 0.98047 0.49955 0.07462 0.0
O383 O 0.02796 0.47349 0.01032 0.0
O384 O 0.01941 0.48728 0.04721 0.0
O385 O 0.97673 0.49686 0.99393 0.0
O386 O 0.96849 0.512 0.03037 0.0
C387 C 0.02751 0.4699 0.03333 0.0
H388 H 0.00586 0.5768 0.11198 0.0
H389 H 0.96946 0.50785 0.11735 0.0
H390 H 0.00977 0.45343 0.92214 0.0
H391 H 0.04623 0.52161 0.91071 0.0
H392 H 0.12587 0.09318 0.26489 0.0
H393 H 0.10751 0.07319 0.30038 0.0
H394 H 0.08163 0.1434 0.32925 0.0
H395 H 0.09946 0.16339 0.29363 0.0
H396 H 0.11868 0.07564 0.34774 0.0
H397 H 0.01672 0.10811 0.33583 0.0
H398 H 0.0405 0.11169 0.31232 0.0
H399 H 0.03788 0.13289 0.33757 0.0
C400 C 0.11612 0.10436 0.27872 0.0
C401 C 0.11397 0.12992 0.27622 0.0
C402 C 0.10559 0.09289 0.29904 0.0
C403 C 0.09267 0.10665 0.31743 0.0
C404 C 0.09071 0.1322 0.31505 0.0
H405 H 0.03275 0.07709 0.46215 0.0
H406 H 0.04973 0.09482 0.42483 0.0
C407 C 0.10101 0.14366 0.29463 0.0
C408 C 0.08219 0.09439 0.3395 0.0
H409 H 0.02807 0.09029 0.37459 0.0
C410 C 0.09879 0.07869 0.35343 0.0
C411 C 0.05618 0.09821 0.34707 0.0
C412 C 0.03673 0.11343 0.33227 0.0
C413 C 0.09035 0.06733 0.37486 0.0
C414 C 0.06456 0.07162 0.38266 0.0
C415 C 0.04789 0.08711 0.3687 0.0
C416 C 0.05463 0.06049 0.40545 0.0
C417 C 0.10922 0.05123 0.3894 0.0
C418 C 0.05157 0.03524 0.40702 0.0
C419 C 0.04166 0.025 0.42834 0.0
C420 C 0.03472 0.0398 0.44863 0.0
C421 C 0.03797 0.06508 0.44699 0.0
C422 C 0.04764 0.0753 0.42561 0.0
H423 H 0.12944 0.05311 0.38339 0.0
H424 H 0.10786 0.05566 0.40924 0.0
H425 H 0.1044 0.03189 0.38699 0.0
H426 H 0.05656 0.02346 0.39162 0.0
H427 H 0.03938 0.0055 0.42888 0.0
H428 H 0.4118 0.93494 0.75059 0.0
H429 H 0.424 0.95076 0.7907 0.0
H430 H 0.39919 0.88538 0.82502 0.0
H431 H 0.3875 0.86907 0.78476 0.0
H432 H 0.39396 0.96014 0.83245 0.0
H433 H 0.47282 0.89048 0.85184 0.0
H434 H 0.45891 0.89477 0.82166 0.0
H435 H 0.44209 0.87849 0.84461 0.0
C436 C 0.40918 0.92373 0.7666 0.0
C437 C 0.39892 0.90053 0.76429 0.0
C438 C 0.41601 0.93293 0.78959 0.0
C439 C 0.41292 0.91916 0.81092 0.0
C440 C 0.40222 0.8962 0.80882 0.0
H441 H 0.45432 0.94577 0.96415 0.0
H442 H 0.43777 0.92909 0.92584 0.0
C443 C 0.39528 0.88698 0.78578 0.0
C444 C 0.42081 0.92906 0.83524 0.0
H445 H 0.46268 0.919 0.88326 0.0
C446 C 0.40899 0.95114 0.84356 0.0
C447 C 0.44039 0.91733 0.84982 0.0
C448 C 0.45449 0.89406 0.84152 0.0
C449 C 0.416 0.96166 0.86607 0.0
C450 C 0.43585 0.95013 0.88051 0.0
C451 C 0.44749 0.92791 0.87228 0.0
C452 C 0.44507 0.96085 0.90404 0.0
C453 C 0.40169 0.98482 0.87436 0.0
C454 C 0.45484 0.9843 0.9047 0.0
C455 C 0.46421 0.99398 0.92667 0.0
C456 C 0.46429 0.98034 0.94849 0.0
C457 C 0.4545 0.95686 0.94777 0.0
C458 C 0.44507 0.94725 0.92582 0.0
H459 H 0.38246 0.98717 0.86535 0.0
H460 H 0.39898 0.98502 0.89453 0.0
H461 H 0.41297 1.00069 0.86933 0.0
H462 H 0.4557 0.99498 0.88811 0.0
H463 H 0.4718 0.012 0.92644 0.0
H464 H 0.56224 0.43661 0.83662 0.0
H465 H 0.5344 0.44891 0.80209 0.0
H466 H 0.59618 0.48824 0.77102 0.0
H467 H 0.62374 0.47706 0.80607 0.0
H468 H 0.54767 0.51098 0.76278 0.0
H469 H 0.5497 0.41215 0.73837 0.0
H470 H 0.53636 0.42034 0.76773 0.0
H471 H 0.57005 0.42386 0.76209 0.0
C472 C 0.56963 0.44861 0.82291 0.0
C473 C 0.59539 0.45553 0.82386 0.0
C474 C 0.55377 0.45536 0.80304 0.0
C475 C 0.56351 0.46886 0.78372 0.0
C476 C 0.5884 0.47757 0.78566 0.0
H477 H 0.55799 0.49901 0.63506 0.0
H478 H 0.56388 0.49499 0.67922 0.0
C479 C 0.60419 0.47102 0.8056 0.0
C480 C 0.54923 0.47175 0.76029 0.0
H481 H 0.53153 0.43964 0.70969 0.0
C482 C 0.54369 0.49539 0.75134 0.0
C483 C 0.54409 0.45132 0.7454 0.0
C484 C 0.55048 0.42547 0.7537 0.0
C485 C 0.53426 0.49915 0.72744 0.0
C486 C 0.5305 0.47877 0.71219 0.0
C487 C 0.53444 0.45516 0.72159 0.0
C488 C 0.52604 0.48156 0.68561 0.0
C489 C 0.52934 0.5249 0.71831 0.0
C490 C 0.50305 0.47462 0.67459 0.0
C491 C 0.49949 0.47707 0.64924 0.0
C492 C 0.51903 0.48627 0.63464 0.0
C493 C 0.54231 0.49244 0.64583 0.0
C494 C 0.54574 0.49017 0.67105 0.0
H495 H 0.52626 0.538 0.73371 0.0
H496 H 0.54634 0.53037 0.7078 0.0
H497 H 0.51224 0.5262 0.70595 0.0
H498 H 0.4878 0.46762 0.68561 0.0
H499 H 0.48129 0.4723 0.64119 0.0
H500 H 0.87908 0.54978 0.32567 0.0
H501 H 0.89839 0.54089 0.28562 0.0
H502 H 0.96791 0.57445 0.30868 0.0
H503 H 0.94869 0.5838 0.34854 0.0
H504 H 0.91423 0.58322 0.25778 0.0
H505 H 0.99327 0.51163 0.2696 0.0
H506 H 0.9663 0.51483 0.29038 0.0
H507 H 0.99143 0.53606 0.29173 0.0
C508 C 0.89869 0.55476 0.3224 0.0
C509 C 0.91226 0.56769 0.34016 0.0
C510 C 0.90971 0.54959 0.29959 0.0
C511 C 0.93453 0.55701 0.29432 0.0
C512 C 0.94887 0.56827 0.31259 0.0
H513 H 0.01656 0.56119 0.15475 0.0
H514 H 0.00496 0.56672 0.19809 0.0
C515 C 0.93784 0.57353 0.33539 0.0
C516 C 0.94373 0.55639 0.26882 0.0
H517 H 0.98905 0.53026 0.23063 0.0
C518 C 0.93056 0.57161 0.2518 0.0
C519 C 0.96533 0.5416 0.26135 0.0
C520 C 0.97992 0.52495 0.27911 0.0
C521 C 0.93823 0.57224 0.22729 0.0
C522 C 0.95928 0.55683 0.21955 0.0
C523 C 0.9729 0.54203 0.2367 0.0
C524 C 0.96619 0.5546 0.19341 0.0
C525 C 0.9238 0.5895 0.20993 0.0
C526 C 0.94818 0.54605 0.17662 0.0
C527 C 0.95463 0.5431 0.15204 0.0
C528 C 0.97934 0.54837 0.1438 0.0
C529 C 0.9973 0.55724 0.16058 0.0
C530 C 0.9908 0.56021 0.18529 0.0
H531 H 0.91391 0.60495 0.2199 0.0
H532 H 0.93696 0.59696 0.19619 0.0
H533 H 0.90883 0.5795 0.20002 0.0
H534 H 0.92923 0.54129 0.18262 0.0
H535 H 0.94032 0.53645 0.13948 0.0
H536 H 0.28279 0.15004 0.15632 0.0
H537 H 0.31815 0.12831 0.13499 0.0
H538 H 0.26363 0.08637 0.09511 0.0
H539 H 0.22791 0.10887 0.11562 0.0
H540 H 0.33304 0.08066 0.13457 0.0
H541 H 0.30756 0.1101 0.03991 0.0
H542 H 0.2926 0.1241 0.06657 0.0
H543 H 0.28227 0.09529 0.05539 0.0
C544 C 0.27816 0.13652 0.1427 0.0
C545 C 0.2523 0.13153 0.13755 0.0
C546 C 0.29852 0.1239 0.13065 0.0
C547 C 0.29368 0.10591 0.11309 0.0
C548 C 0.26794 0.10051 0.10816 0.0
H549 H 0.41624 1.0019 0.06132 0.0
H550 H 0.37725 0.02049 0.08012 0.0
C551 C 0.24749 0.11322 0.12018 0.0
C552 C 0.31571 0.09266 0.10045 0.0
H553 H 0.34219 0.08055 0.04415 0.0
C554 C 0.33499 0.08061 0.11478 0.0
C555 C 0.31852 0.0928 0.07463 0.0
C556 C 0.29929 0.10644 0.05819 0.0
C557 C 0.35689 0.06879 0.10412 0.0
C558 C 0.35943 0.06848 0.07828 0.0
C559 C 0.34017 0.08053 0.06392 0.0
C560 C 0.38245 0.05668 0.06587 0.0
C561 C 0.3775 0.05742 0.12074 0.0
C562 C 0.39796 0.07052 0.05081 0.0
C563 C 0.42014 0.05987 0.03981 0.0
C564 C 0.42735 0.03507 0.04356 0.0
C565 C 0.41143 0.02108 0.05816 0.0
C566 C 0.38917 0.03174 0.06908 0.0
H567 H 0.37596 0.06473 0.13972 0.0
H568 H 0.3753 0.03743 0.12156 0.0
H569 H 0.39708 0.06064 0.11373 0.0
H570 H 0.39317 0.08975 0.04792 0.0
H571 H 0.43185 0.07123 0.02866 0.0
H572 H 0.27308 0.90169 0.58904 0.0
H573 H 0.2328 0.92027 0.57275 0.0
H574 H 0.20334 0.92903 0.64611 0.0
H575 H 0.24334 0.90967 0.66259 0.0
H576 H 0.16742 0.9112 0.61404 0.0
H577 H 0.21045 0.9925 0.57434 0.0
H578 H 0.22544 0.96418 0.5639 0.0
H579 H 0.22767 0.9725 0.59573 0.0
C580 C 0.25797 0.90729 0.60177 0.0
C581 C 0.26158 0.90412 0.62721 0.0
C582 C 0.23503 0.91826 0.5924 0.0
C583 C 0.21517 0.92652 0.60819 0.0
C584 C 0.21847 0.92303 0.63355 0.0
H585 H 0.08101 0.02088 0.56462 0.0
H586 H 0.12108 0.00416 0.58363 0.0
C587 C 0.24143 0.91207 0.64296 0.0
C588 C 0.19079 0.9383 0.5982 0.0
H589 H 0.16701 0.9857 0.56271 0.0
C590 C 0.16733 0.92756 0.60293 0.0
C591 C 0.19054 0.95989 0.58398 0.0
C592 C 0.21483 0.97311 0.57936 0.0
C593 C 0.14382 0.93737 0.5933 0.0
C594 C 0.14373 0.95834 0.5782 0.0
C595 C 0.16707 0.9695 0.57405 0.0
C596 C 0.11966 0.96872 0.56631 0.0
C597 C 0.11924 0.92531 0.5996 0.0
C598 C 0.10579 0.95459 0.54983 0.0
C599 C 0.08294 0.96408 0.53895 0.0
C600 C 0.07345 0.98803 0.54416 0.0
C601 C 0.08769 1.00237 0.56024 0.0
C602 C 0.11061 0.99283 0.57113 0.0
H603 H 0.12153 0.91409 0.61647 0.0
H604 H 0.10305 0.93906 0.60229 0.0
H605 H 0.11401 0.91306 0.58434 0.0
H606 H 0.11265 0.93615 0.54535 0.0
H607 H 0.07264 0.95252 0.52654 0.0
H608 H 0.75623 0.39759 0.97219 0.0
H609 H 0.79303 0.41645 0.99085 0.0
H610 H 0.75966 0.48777 0.97261 0.0
H611 H 0.72344 0.46891 0.95252 0.0
H612 H 0.80631 0.48259 0.95576 0.0
H613 H 0.80985 0.45227 0.05194 0.0
H614 H 0.8076 0.42643 0.03205 0.0
H615 H 0.78153 0.44943 0.03294 0.0
C616 C 0.75654 0.41731 0.97241 0.0
C617 C 0.7371 0.43172 0.96051 0.0
C618 C 0.77742 0.42811 0.98348 0.0
C619 C 0.77903 0.45356 0.98338 0.0
C620 C 0.75876 0.46809 0.97301 0.0
H621 H 0.92081 0.51363 0.04181 0.0
H622 H 0.87541 0.50464 0.03637 0.0
C623 C 0.73797 0.45728 0.96166 0.0
C624 C 0.80349 0.4645 0.99062 0.0
H625 H 0.85112 0.46193 0.0341 0.0
C626 C 0.81584 0.47848 0.97312 0.0
C627 C 0.81586 0.45947 0.01337 0.0
C628 C 0.80283 0.4463 0.03371 0.0
C629 C 0.84077 0.48633 0.97716 0.0
C630 C 0.85401 0.47939 0.99897 0.0
C631 C 0.84113 0.46674 0.01714 0.0
C632 C 0.88154 0.48427 1.00272 0.0
C633 C 0.85275 0.50175 0.95786 0.0
C634 C 0.90009 0.47526 0.98592 0.0
C635 C 0.92596 0.48051 0.98884 0.0
C636 C 0.93381 0.49455 0.00885 0.0
C637 C 0.91534 0.50282 0.02615 0.0
C638 C 0.8894 0.49772 0.02309 0.0
H639 H 0.83775 0.51193 0.94678 0.0
H640 H 0.8657 0.51503 0.96619 0.0
H641 H 0.86425 0.48972 0.9452 0.0
H642 H 0.89452 0.46425 0.97044 0.0
H643 H 0.93975 0.47365 0.97535 0.0
H644 H 0.76878 0.6187 0.50075 0.0
H645 H 0.7282 0.60127 0.51139 0.0
H646 H 0.75462 0.53242 0.4796 0.0
H647 H 0.79448 0.55033 0.4671 0.0
H648 H 0.71077 0.5457 0.46092 0.0
H649 H 0.70122 0.55694 0.56086 0.0
H650 H 0.70756 0.58568 0.54729 0.0
H651 H 0.73142 0.56066 0.54543 0.0
C652 C 0.76611 0.59976 0.49623 0.0
C653 C 0.78475 0.58609 0.48264 0.0
C654 C 0.74301 0.58966 0.50274 0.0
C655 C 0.73835 0.56544 0.49648 0.0
C656 C 0.75778 0.55115 0.48465 0.0
H657 H 0.5886 0.50905 0.53251 0.0
H658 H 0.63468 0.51597 0.53128 0.0
C659 C 0.78072 0.56138 0.47772 0.0
C660 C 0.71207 0.55634 0.499 0.0
H661 H 0.66098 0.55503 0.53792 0.0
C662 C 0.70008 0.54732 0.47792 0.0
C663 C 0.69812 0.55811 0.52119 0.0
C664 C 0.71041 0.56562 0.54499 0.0
C665 C 0.67426 0.54103 0.47813 0.0
C666 C 0.6597 0.54477 0.49977 0.0
C667 C 0.67198 0.55269 0.52117 0.0
C668 C 0.6317 0.54077 0.5005 0.0
C669 C 0.66296 0.53037 0.45514 0.0
C670 C 0.61463 0.55273 0.48385 0.0
C671 C 0.58831 0.54851 0.48424 0.0
C672 C 0.57855 0.53271 0.5017 0.0
C673 C 0.59556 0.52135 0.51883 0.0
C674 C 0.6219 0.52527 0.51817 0.0
H675 H 0.67819 0.52118 0.44366 0.0
H676 H 0.64835 0.51695 0.45949 0.0
H677 H 0.65355 0.54527 0.44406 0.0
H678 H 0.62164 0.56537 0.47055 0.0
H679 H 0.57561 0.55773 0.47101 0.0
H680 H 0.0919 0.25095 0.1157 0.0
H681 H 0.07497 0.28671 0.09265 0.0
H682 H 0.11902 0.33344 0.13863 0.0
H683 H 0.13634 0.29793 0.16137 0.0
H684 H 0.04633 0.32869 0.11008 0.0
H685 H 0.13875 0.35369 0.06893 0.0
H686 H 0.13446 0.32416 0.08241 0.0
H687 H 0.14011 0.35005 0.10162 0.0
C688 C 0.09817 0.26881 0.12077 0.0
C689 C 0.11551 0.27146 0.14047 0.0
C690 C 0.08837 0.28927 0.10765 0.0
C691 C 0.09594 0.3128 0.11367 0.0
C692 C 0.11315 0.31549 0.13335 0.0
H693 H 0.02525 0.45559 0.08129 0.0
H694 H 0.04093 0.41688 0.09936 0.0
C695 C 0.12283 0.29512 0.14654 0.0
C696 C 0.08549 0.33464 0.09985 0.0
H697 H 0.10356 0.38318 0.06586 0.0
C698 C 0.05883 0.3405 0.10027 0.0
C699 C 0.10171 0.34997 0.08678 0.0
C700 C 0.13032 0.34409 0.08465 0.0
C701 C 0.04809 0.36161 0.08868 0.0
C702 C 0.06445 0.37747 0.07647 0.0
C703 C 0.09101 0.37119 0.07538 0.0
C704 C 0.05447 0.40091 0.0652 0.0
C705 C 0.01927 0.36671 0.08952 0.0
C706 C 0.05721 0.40514 0.03996 0.0
C707 C 0.04822 0.42736 0.0295 0.0
C708 C 0.03656 0.44598 0.04411 0.0
C709 C 0.03401 0.4417 0.06941 0.0
C710 C 0.04286 0.41946 0.07979 0.0
H711 H 0.00895 0.34997 0.09365 0.0
H712 H 0.01467 0.38029 0.10416 0.0
H713 H 0.01189 0.37436 0.07185 0.0
H714 H 0.06623 0.39118 0.02832 0.0
H715 H 0.05061 0.43002 0.01 0.0
H716 H 0.58907 0.29721 0.89093 0.0
H717 H 0.5658 0.26228 0.90427 0.0
H718 H 0.56226 0.29146 0.97775 0.0
H719 H 0.58563 0.3268 0.96444 0.0
H720 H 0.58151 0.24465 0.97627 0.0
H721 H 0.49137 0.2523 0.92182 0.0
H722 H 0.51912 0.25488 0.90277 0.0
H723 H 0.51196 0.2776 0.92598 0.0
C724 C 0.58275 0.2966 0.90979 0.0
C725 C 0.58908 0.31483 0.92662 0.0
C726 C 0.56936 0.27662 0.91737 0.0
C727 C 0.56185 0.27453 0.94188 0.0
C728 C 0.56768 0.2929 0.95869 0.0
H729 H 0.48379 0.14281 0.98509 0.0
H730 H 0.49228 0.18586 0.97869 0.0
C731 C 0.58115 0.31295 0.95111 0.0
C732 C 0.55067 0.25177 0.95022 0.0
H733 H 0.50489 0.21156 0.93557 0.0
C734 C 0.56445 0.23763 0.96774 0.0
C735 C 0.52823 0.24277 0.93932 0.0
C736 C 0.51167 0.25783 0.92162 0.0
C737 C 0.55735 0.21405 0.97347 0.0
C738 C 0.53623 0.20428 0.96101 0.0
C739 C 0.52138 0.21898 0.94473 0.0
C740 C 0.53033 0.1784 0.96362 0.0
C741 C 0.57289 0.19957 0.9924 0.0
C742 C 0.5486 0.16009 0.95649 0.0
C743 C 0.54379 0.13558 0.95996 0.0
C744 C 0.52053 0.12897 0.97051 0.0
C745 C 0.50181 0.14736 0.97674 0.0
C746 C 0.50667 0.17192 0.97326 0.0
H747 H 0.5831 0.2117 0.00514 0.0
H748 H 0.56041 0.18786 1.00327 0.0
H749 H 0.58764 0.18761 0.98301 0.0
H750 H 0.56672 0.16478 0.94845 0.0
H751 H 0.55837 0.1218 0.95459 0.0
H752 H 0.92226 0.70851 0.48718 0.0
H753 H 0.94711 0.74436 0.49423 0.0
H754 H 0.00772 0.71417 0.4479 0.0
H755 H 0.98329 0.67763 0.44124 0.0
H756 H 0.00427 0.75346 0.50769 0.0
H757 H 0.97069 0.77687 0.41282 0.0
H758 H 0.95526 0.75424 0.43074 0.0
H759 H 0.9868 0.74756 0.41846 0.0
C760 C 0.94134 0.70889 0.47931 0.0
C761 C 0.95061 0.69035 0.46332 0.0
C762 C 0.95547 0.72949 0.48329 0.0
C763 C 0.97899 0.73192 0.47131 0.0
C764 C 0.98947 0.71257 0.45714 0.0
H765 H 0.02353 0.88165 0.44549 0.0
H766 H 0.02621 0.83697 0.44378 0.0
C767 C 0.97542 0.69184 0.45327 0.0
C768 C 0.99002 0.75612 0.47063 0.0
H769 H 0.98777 0.80793 0.43625 0.0
C770 C 1.00124 0.76529 0.49194 0.0
C771 C 0.98614 0.77133 0.44993 0.0
C772 C 0.97401 0.76219 0.42663 0.0
C773 C 0.00759 0.7898 0.49349 0.0
C774 C 1.00174 0.80553 0.47346 0.0
C775 C 0.99212 0.79588 0.45161 0.0
C776 C 0.00238 0.83238 0.47569 0.0
C777 C 0.01992 0.79868 0.51675 0.0
C778 C 0.98784 0.84458 0.49397 0.0
C779 C 0.98644 0.86996 0.49511 0.0
C780 C 0.99917 0.88378 0.47769 0.0
C781 C 0.01369 0.87154 0.45931 0.0
C782 C 0.01523 0.84604 0.45829 0.0
H783 H 0.03191 0.7838 0.52562 0.0
H784 H 0.03221 0.81427 0.51322 0.0
H785 H 0.00459 0.80464 0.52986 0.0
H786 H 0.9771 0.83447 0.50714 0.0
H787 H 0.97546 0.87874 0.50978 0.0
H788 H 0.44355 0.76506 0.63725 0.0
H789 H 0.45756 0.72708 0.61666 0.0
H790 H 0.38157 0.72183 0.58534 0.0
H791 H 0.36739 0.75994 0.60579 0.0
H792 H 0.40107 0.67778 0.60319 0.0
H793 H 0.47356 0.7189 0.54407 0.0
H794 H 0.47827 0.72486 0.57611 0.0
H795 H 0.44962 0.73706 0.56086 0.0
C796 C 0.42981 0.75596 0.62585 0.0
C797 C 0.40434 0.7658 0.62309 0.0
C798 C 0.4379 0.73421 0.61402 0.0
C799 C 0.42082 0.72178 0.59897 0.0
C800 C 0.39519 0.73112 0.59671 0.0
H801 H 0.46737 0.60428 0.4958 0.0
H802 H 0.45103 0.64291 0.51419 0.0
C803 C 0.38706 0.75288 0.60857 0.0
C804 C 0.42961 0.69891 0.58584 0.0
H805 H 0.47451 0.67545 0.54529 0.0
C806 C 0.41705 0.67732 0.59045 0.0
C807 C 0.4502 0.69828 0.56886 0.0
C808 C 0.46355 0.72105 0.56195 0.0
C809 C 0.42494 0.6551 0.57913 0.0
C810 C 0.44627 0.65425 0.56299 0.0
C811 C 0.45835 0.67597 0.55784 0.0
C812 C 0.45657 0.63093 0.55169 0.0
C813 C 0.41013 0.63275 0.5844 0.0
C814 C 0.46567 0.61146 0.56656 0.0
C815 C 0.475 0.58943 0.55613 0.0
C816 C 0.47567 0.58628 0.5305 0.0
C817 C 0.46709 0.60599 0.51558 0.0
C818 C 0.45773 0.6281 0.52608 0.0
H819 H 0.39036 0.63771 0.59108 0.0
H820 H 0.40861 0.62112 0.56781 0.0
H821 H 0.42037 0.62183 0.59888 0.0
H822 H 0.46561 0.61331 0.58633 0.0
H823 H 0.4816 0.57478 0.56826 0.0
H824 H 0.88683 0.86988 0.73615 0.0
H825 H 0.90268 0.88661 0.6978 0.0
H826 H 0.91902 0.95346 0.73515 0.0
H827 H 0.90432 0.93662 0.7736 0.0
H828 H 0.88596 0.92677 0.67134 0.0
H829 H 0.98681 0.93789 0.70141 0.0
H830 H 0.96472 0.92038 0.71867 0.0
H831 H 0.96368 0.95314 0.72121 0.0
C832 C 0.89411 0.88802 0.73633 0.0
C833 C 0.89425 0.90179 0.75819 0.0
C834 C 0.90302 0.89765 0.71428 0.0
C835 C 0.9125 0.92121 0.71353 0.0
C836 C 0.91237 0.93507 0.73522 0.0
H837 H 0.97089 0.01657 0.60122 0.0
H838 H 0.95441 0.99858 0.63869 0.0
C839 C 0.90354 0.92548 0.75723 0.0
C840 C 0.922 0.93153 0.69006 0.0
H841 H 0.97394 0.95725 0.66396 0.0
C842 C 0.90526 0.93326 0.66969 0.0
C843 C 0.94722 0.94006 0.68776 0.0
C844 C 0.96674 0.93758 0.70834 0.0
C845 C 0.91277 0.94379 0.64746 0.0
C846 C 0.93787 0.95257 0.6453 0.0
C847 C 0.95466 0.95069 0.66559 0.0
C848 C 0.94716 0.96367 0.62216 0.0
C849 C 0.89348 0.946 0.62668 0.0
C850 C 0.94878 0.95008 0.60029 0.0
C851 C 0.95823 0.96033 0.5788 0.0
C852 C 0.96639 0.98443 0.57864 0.0
C853 C 0.96469 0.99803 0.60056 0.0
C854 C 0.95531 0.98773 0.62206 0.0
H855 H 0.8734 0.94438 0.63319 0.0
H856 H 0.89472 0.9637 0.61706 0.0
H857 H 0.89772 0.93113 0.61324 0.0
H858 H 0.94314 0.93135 0.59992 0.0
H859 H 0.95938 0.94922 0.56236 0.0
H860 H 0.57757 0.15088 0.24586 0.0
H861 H 0.56138 0.12842 0.21066 0.0
H862 H 0.6225 0.07305 0.22032 0.0
H863 H 0.6393 0.09577 0.25511 0.0
H864 H 0.61731 0.08762 0.17233 0.0
H865 H 0.52179 0.06625 0.2091 0.0
H866 H 0.52782 0.09816 0.21027 0.0
H867 H 0.54739 0.07688 0.22831 0.0
C868 C 0.58761 0.13392 0.24055 0.0
C869 C 0.60977 0.12519 0.25349 0.0
C870 C 0.57812 0.12093 0.22053 0.0
C871 C 0.59045 0.0988 0.21296 0.0
C872 C 0.6125 0.08997 0.22586 0.0
H873 H 0.52697 0.99932 0.10384 0.0
H874 H 0.54446 0.01701 0.14145 0.0
C875 C 0.62197 0.10292 0.24593 0.0
C876 C 0.58105 0.08545 0.19096 0.0
H877 H 0.52813 0.05948 0.16629 0.0
C878 C 0.59785 0.08135 0.1711 0.0
C879 C 0.55577 0.07691 0.18936 0.0
C880 C 0.5372 0.07953 0.21048 0.0
C881 C 0.58989 0.06962 0.14954 0.0
C882 C 0.56427 0.06201 0.14754 0.0
C883 C 0.54769 0.06548 0.16766 0.0
C884 C 0.55417 0.05094 0.12455 0.0
C885 C 0.60911 0.0653 0.12916 0.0
C886 C 0.55359 0.06411 0.10251 0.0
C887 C 0.54364 0.05406 0.08101 0.0
C888 C 0.53386 0.03056 0.08099 0.0
C889 C 0.53444 0.01737 0.10311 0.0
C890 C 0.54437 0.0275 0.12466 0.0
H891 H 0.6293 0.06565 0.13603 0.0
H892 H 0.6065 0.04751 0.11996 0.0
H893 H 0.60623 0.07996 0.1153 0.0
H894 H 0.56051 0.08239 0.10197 0.0
H895 H 0.5434 0.06487 0.06443 0.0
H896 H 0.47962 0.54011 0.1631 0.0
H897 H 0.48905 0.53733 0.20715 0.0
H898 H 0.41925 0.58046 0.22263 0.0
H899 H 0.4095 0.58305 0.17873 0.0
H900 H 0.49344 0.57868 0.24185 0.0
H901 H 0.41558 0.51639 0.26417 0.0
H902 H 0.42747 0.51988 0.2334 0.0
H903 H 0.40604 0.54301 0.24652 0.0
C904 C 0.46619 0.5488 0.17593 0.0
C905 C 0.4438 0.56175 0.16752 0.0
C906 C 0.47169 0.54735 0.201 0.0
C907 C 0.45475 0.55859 0.21801 0.0
C908 C 0.43243 0.57154 0.20972 0.0
H909 H 0.4756 0.58405 0.37447 0.0
H910 H 0.46929 0.58943 0.33017 0.0
C911 C 0.42699 0.57312 0.18467 0.0
C912 C 0.46036 0.55671 0.24451 0.0
H913 H 0.43915 0.53189 0.29745 0.0
C914 C 0.48163 0.56847 0.25407 0.0
C915 C 0.44492 0.54325 0.26022 0.0
C916 C 0.42231 0.52973 0.25064 0.0
C917 C 0.48776 0.56725 0.27915 0.0
C918 C 0.47212 0.55401 0.29489 0.0
C919 C 0.45096 0.54214 0.28527 0.0
C920 C 0.47782 0.55143 0.32132 0.0
C921 C 0.51111 0.5797 0.28861 0.0
C922 C 0.48478 0.52833 0.33084 0.0
C923 C 0.48846 0.52522 0.35598 0.0
C924 C 0.48501 0.54514 0.37213 0.0
C925 C 0.47862 0.56841 0.36247 0.0
C926 C 0.47499 0.57152 0.33722 0.0
H927 H 0.5237 0.58542 0.2735 0.0
H928 H 0.5047 0.59619 0.29919 0.0
H929 H 0.52262 0.56742 0.30112 0.0
H930 H 0.4871 0.51264 0.3188 0.0
H931 H 0.49385 0.50714 0.36279 0.0
H932 H 0.05989 0.43992 0.67954 0.0
H933 H 0.0411 0.45503 0.71824 0.0
H934 H 0.11265 0.43585 0.75576 0.0
H935 H 0.13165 0.42121 0.71726 0.0
H936 H 0.03622 0.42762 0.7626 0.0
H937 H 0.09583 0.50781 0.77536 0.0
H938 H 0.09249 0.49268 0.74613 0.0
H939 H 0.11442 0.48004 0.76896 0.0
C940 C 0.07166 0.43922 0.69602 0.0
C941 C 0.09722 0.4294 0.69544 0.0
C942 C 0.06089 0.44772 0.71805 0.0
C943 C 0.07564 0.44678 0.73968 0.0
C944 C 0.10112 0.43703 0.73914 0.0
H945 H 0.04406 0.44319 0.89212 0.0
H946 H 0.05145 0.43448 0.84868 0.0
C947 C 0.11184 0.42846 0.71721 0.0
C948 C 0.06435 0.45517 0.76316 0.0
H949 H 0.07394 0.49403 0.81082 0.0
C950 C 0.04416 0.44237 0.77305 0.0
C951 C 0.07457 0.47461 0.77649 0.0
C952 C 0.09536 0.48976 0.76612 0.0
C953 C 0.03476 0.44774 0.7966 0.0
C954 C 0.04615 0.46614 0.81056 0.0
C955 C 0.06543 0.47975 0.80014 0.0
C956 C 0.03939 0.47081 0.83645 0.0
C957 C 0.01295 0.43352 0.80642 0.0
C958 C 0.03042 0.49417 0.84393 0.0
C959 C 0.0263 0.49921 0.86871 0.0
C960 C 0.03124 0.481 0.88645 0.0
C961 C 0.03977 0.45748 0.87884 0.0
C962 C 0.04392 0.45247 0.85405 0.0
H963 H 1.00149 0.42563 0.79136 0.0
H964 H 0.02106 0.41824 0.81782 0.0
H965 H 0.99987 0.44522 0.81804 0.0
H966 H 0.02692 0.50857 0.83059 0.0
H967 H 0.01937 0.51741 0.87401 0.0
H968 H 0.75429 0.92726 0.87608 0.0
H969 H 0.71419 0.94381 0.89455 0.0
H970 H 0.71398 0.882 0.94314 0.0
H971 H 0.75423 0.86555 0.925 0.0
H972 H 0.66653 0.92693 0.898 0.0
H973 H 0.70652 0.9371 0.99168 0.0
H974 H 0.72673 0.93037 0.9655 0.0
H975 H 0.71018 0.90644 0.98026 0.0
C976 C 0.74562 0.91708 0.89058 0.0
C977 C 0.75766 0.89513 0.89915 0.0
C978 C 0.72271 0.92664 0.90122 0.0
C979 C 0.71125 0.9145 0.92068 0.0
C980 C 0.72278 0.89217 0.92871 0.0
H981 H 0.57033 0.94165 0.00551 0.0
H982 H 0.61007 0.92428 0.9869 0.0
C983 C 0.74578 0.8827 0.91822 0.0
C984 C 0.68718 0.92509 0.93236 0.0
H985 H 0.66102 0.9432 0.98735 0.0
C986 C 0.66541 0.93059 0.91752 0.0
C987 C 0.68559 0.92996 0.95787 0.0
C988 C 0.70856 0.9259 0.97473 0.0
C989 C 0.64213 0.94037 0.92748 0.0
C990 C 0.64052 0.94504 0.95298 0.0
C991 C 0.66221 0.93953 0.96784 0.0
C992 C 0.61655 0.95582 0.96452 0.0
C993 C 0.61924 0.94523 0.9107 0.0
C994 C 0.60716 0.97952 0.95848 0.0
C995 C 0.58453 0.98957 0.96919 0.0
C996 C 0.57071 0.97614 0.98619 0.0
C997 C 0.58038 0.95251 0.99246 0.0
C998 C 0.60312 0.94254 0.98184 0.0
H999 H 0.62166 0.93552 0.89289 0.0
H1000 H 0.60121 0.93957 0.91941 0.0
H1001 H 0.61701 0.96509 0.90692 0.0
H1002 H 0.6174 0.9903 0.9455 0.0
H1003 H 0.57775 0.00782 0.96395 0.0
H1004 H 0.75217 0.09372 0.36208 0.0
H1005 H 0.78867 0.07309 0.38348 0.0
H1006 H 0.78491 0.12879 0.43946 0.0
H1007 H 0.74819 0.14927 0.41835 0.0
H1008 H 0.83551 0.08887 0.39302 0.0
H1009 H 0.78917 0.06875 0.4813 0.0
H1010 H 0.77082 0.07872 0.45465 0.0
H1011 H 0.78632 0.10055 0.47371 0.0
C1012 C 0.75901 0.1015 0.37904 0.0
C1013 C 0.74712 0.12312 0.38853 0.0
C1014 C 0.77988 0.08965 0.39129 0.0
C1015 C 0.78941 0.0991 0.41335 0.0
C1016 C 0.77755 0.12067 0.42289 0.0
H1017 H 0.92494 0.06914 0.50437 0.0
H1018 H 0.88521 0.08556 0.48483 0.0
C1019 C 0.75654 0.13243 0.41074 0.0
C1020 C 0.81252 0.08707 0.42563 0.0
H1021 H 0.83518 0.06397 0.48033 0.0
C1022 C 0.83532 0.08322 0.41205 0.0
C1023 C 0.81241 0.07965 0.4505 0.0
C1024 C 0.7883 0.08189 0.46583 0.0
C1025 C 0.85802 0.07278 0.42273 0.0
C1026 C 0.85798 0.06574 0.44766 0.0
C1027 C 0.83521 0.06941 0.46124 0.0
C1028 C 0.88159 0.05507 0.46006 0.0
C1029 C 0.88212 0.06993 0.40744 0.0
C1030 C 0.89257 0.03221 0.45296 0.0
C1031 C 0.91527 0.02267 0.4642 0.0
C1032 C 0.92751 0.03583 0.48275 0.0
C1033 C 0.91614 0.05851 0.49011 0.0
C1034 C 0.89337 0.06794 0.47898 0.0
H1035 H 0.88042 0.08062 0.3902 0.0
H1036 H 0.89915 0.07581 0.41793 0.0
H1037 H 0.88566 0.05041 0.40253 0.0
H1038 H 0.88363 0.02179 0.43863 0.0
H1039 H 0.92344 0.00515 0.45809 0.0
H1040 H 0.30709 0.5249 0.02701 0.0
H1041 H 0.26055 0.52146 0.02143 0.0
H1042 H 0.24689 0.59406 0.05063 0.0
H1043 H 0.29339 0.59789 0.05571 0.0
H1044 H 0.22285 0.52532 0.05866 0.0
H1045 H 0.20493 0.59504 0.98607 0.0
H1046 H 0.2368 0.58221 0.99331 0.0
H1047 H 0.22195 0.6054 0.01262 0.0
C1048 C 0.2942 0.54027 0.03189 0.0
C1049 C 0.30391 0.56168 0.04177 0.0
C1050 C 0.26764 0.53822 0.02883 0.0
C1051 C 0.25036 0.5576 0.03539 0.0
C1052 C 0.25995 0.57904 0.04513 0.0
H1053 H 0.08549 0.54824 0.06047 0.0
H1054 H 0.13142 0.55596 0.06444 0.0
C1055 C 0.28649 0.58109 0.04826 0.0
C1056 C 0.22223 0.555 0.03292 0.0
H1057 H 0.16808 0.57838 0.00379 0.0
C1058 C 0.21085 0.53689 0.04667 0.0
C1059 C 0.20674 0.57004 0.01711 0.0
C1060 C 0.21818 0.58915 1.00125 0.0
C1061 C 0.18428 0.53352 0.04516 0.0
C1062 C 0.1687 0.54887 0.02973 0.0
C1063 C 0.1801 0.56684 0.0158 0.0
C1064 C 0.14068 0.54581 0.02704 0.0
C1065 C 0.17314 0.51324 0.0597 0.0
C1066 C 0.13063 0.5383 0.0045 0.0
C1067 C 0.10447 0.53393 1.00215 0.0
C1068 C 0.08783 0.53714 0.02229 0.0
C1069 C 0.09781 0.54549 0.04465 0.0
C1070 C 0.12404 0.5498 0.04699 0.0
H1071 H 0.18838 0.49995 0.06652 0.0
H1072 H 0.1627 0.52115 0.07578 0.0
H1073 H 0.15917 0.50331 0.04842 0.0
H1074 H 0.14319 0.53524 0.98888 0.0
H1075 H 0.09738 0.52763 0.98464 0.0
H1076 H 0.23817 0.46005 0.58576 0.0
H1077 H 0.27678 0.47659 0.56914 0.0
H1078 H 0.24389 0.475 0.4964 0.0
H1079 H 0.20446 0.45867 0.51307 0.0
H1080 H 0.29248 0.45143 0.50026 0.0
H1081 H 0.29385 0.54295 0.54251 0.0
H1082 H 0.28779 0.5201 0.56488 0.0
H1083 H 0.26484 0.52615 0.54045 0.0
C1084 C 0.23859 0.46399 0.56633 0.0
C1085 C 0.21803 0.45822 0.55078 0.0
C1086 C 0.2608 0.47344 0.55684 0.0
C1087 C 0.263 0.47742 0.53161 0.0
C1088 C 0.24239 0.47225 0.51598 0.0
H1089 H 0.4138 0.50865 0.46824 0.0
H1090 H 0.36724 0.50357 0.47069 0.0
C1091 C 0.21999 0.46283 0.52551 0.0
C1092 C 0.28805 0.48435 0.52177 0.0
H1093 H 0.33564 0.52387 0.53195 0.0
C1094 C 0.30173 0.46761 0.50658 0.0
C1095 C 0.29999 0.50548 0.53006 0.0
C1096 C 0.28572 0.52481 0.54517 0.0
C1097 C 0.32774 0.47054 0.50102 0.0
C1098 C 0.34013 0.49072 0.51085 0.0
C1099 C 0.32603 0.50826 0.52471 0.0
C1100 C 0.36821 0.49287 0.5088 0.0
C1101 C 0.34233 0.45135 0.486 0.0
C1102 C 0.38396 0.48837 0.52942 0.0
C1103 C 0.41048 0.49113 0.52812 0.0
C1104 C 0.42164 0.49866 0.50617 0.0
C1105 C 0.40578 0.50282 0.48541 0.0
C1106 C 0.37923 0.49993 0.48673 0.0
H1107 H 0.33022 0.43595 0.48095 0.0
H1108 H 0.34931 0.45969 0.46892 0.0
H1109 H 0.3595 0.44406 0.49637 0.0
H1110 H 0.37566 0.48289 0.5466 0.0
H1111 H 0.42214 0.48784 0.54443 0.0
H1112 H 0.93664 0.77992 0.91564 0.0
H1113 H 0.95323 0.74209 0.93475 0.0
H1114 H 0.89265 0.70312 0.90028 0.0
H1115 H 0.87595 0.74097 0.88083 0.0
H1116 H 0.89939 0.69098 0.94932 0.0
H1117 H 0.99361 0.68563 0.9018 0.0
H1118 H 0.98705 0.714 0.91758 0.0
H1119 H 0.9671 0.70594 0.89202 0.0
C1120 C 0.927 0.76328 0.91174 0.0
C1121 C 0.90504 0.76361 0.89637 0.0
C1122 C 0.93654 0.74159 0.92278 0.0
C1123 C 0.92451 0.71957 0.91869 0.0
C1124 C 0.90237 0.71983 0.90368 0.0
H1125 H 0.98999 0.5736 0.94945 0.0
H1126 H 0.97281 0.6116 0.93105 0.0
C1127 C 0.89278 0.74155 0.89261 0.0
C1128 C 0.93485 0.6964 0.93031 0.0
H1129 H 0.98873 0.65797 0.93464 0.0
C1130 C 0.91891 0.68374 0.94606 0.0
C1131 C 0.96024 0.6867 0.92591 0.0
C1132 C 0.97795 0.69861 0.90823 0.0
C1133 C 0.92773 0.66196 0.95773 0.0
C1134 C 0.95338 0.65267 0.95389 0.0
C1135 C 0.96918 0.66516 0.93787 0.0
C1136 C 0.96393 0.62957 0.96554 0.0
C1137 C 0.90927 0.64881 0.97365 0.0
C1138 C 0.96509 0.62694 0.99118 0.0
C1139 C 0.97493 0.60508 1.00184 0.0
C1140 C 0.98399 0.58539 0.98709 0.0
C1141 C 0.98317 0.58828 0.96144 0.0
C1142 C 0.97334 0.61007 0.95084 0.0
H1143 H 0.88886 0.65464 0.96965 0.0
H1144 H 0.91169 0.62875 0.97107 0.0
H1145 H 0.91323 0.65302 0.99317 0.0
H1146 H 0.95852 0.64185 1.00299 0.0
H1147 H 0.97536 0.60361 0.02163 0.0
H1148 H 0.42451 0.68585 0.01321 0.0
H1149 H 0.4332 0.72921 0.01601 0.0
H1150 H 0.48408 0.71432 0.07757 0.0
H1151 H 0.47549 0.67099 0.07491 0.0
H1152 H 0.42286 0.75912 0.05657 0.0
H1153 H 0.52715 0.75639 0.03346 0.0
H1154 H 0.50696 0.73126 0.02707 0.0
H1155 H 0.51874 0.73617 0.05764 0.0
C1156 C 0.4377 0.6918 0.02721 0.0
C1157 C 0.4494 0.67501 0.04377 0.0
C1158 C 0.44268 0.71653 0.02876 0.0
C1159 C 0.4595 0.72489 0.04682 0.0
C1160 C 0.47149 0.70815 0.06316 0.0
H1161 H 0.50027 0.87376 0.08386 0.0
H1162 H 0.4952 0.82955 0.08541 0.0
C1163 C 0.46658 0.68341 0.06159 0.0
C1164 C 0.46322 0.75132 0.04941 0.0
H1165 H 0.50837 0.79438 0.04674 0.0
C1166 C 0.44155 0.76683 0.05441 0.0
C1167 C 0.48768 0.76125 0.04683 0.0
C1168 C 0.51146 0.74548 0.04075 0.0
C1169 C 0.44364 0.7921 0.0567 0.0
C1170 C 0.46797 0.80208 0.0536 0.0
C1171 C 0.48977 0.78656 0.04917 0.0
C1172 C 0.47079 0.82872 0.05316 0.0
C1173 C 0.41979 0.80794 0.0624 0.0
C1174 C 0.45899 0.84267 0.03437 0.0
C1175 C 0.46197 0.86773 0.03332 0.0
C1176 C 0.47684 0.8794 0.05108 0.0
C1177 C 0.48877 0.86532 0.06988 0.0
C1178 C 0.48583 0.84012 0.07084 0.0
H1179 H 0.40443 0.79722 0.07057 0.0
H1180 H 0.42436 0.82292 0.0752 0.0
H1181 H 0.41207 0.81627 0.04518 0.0
H1182 H 0.44777 0.83407 0.02026 0.0
H1183 H 0.4531 0.87785 0.0182 0.0
H1184 H 0.041 0.34119 0.58798 0.0
H1185 H 0.01298 0.30684 0.58442 0.0
H1186 H 0.0574 0.27909 0.52295 0.0
H1187 H 0.08503 0.31378 0.52586 0.0
H1188 H 0.00216 0.2712 0.52047 0.0
H1189 H 0.04921 0.24203 0.60858 0.0
H1190 H 0.03231 0.27145 0.608 0.0
H1191 H 0.06113 0.26631 0.5903 0.0
C1192 C 0.04421 0.32831 0.5731 0.0
C1193 C 0.06548 0.32994 0.55742 0.0
C1194 C 0.0283 0.3086 0.57124 0.0
C1195 C 0.03352 0.29026 0.55377 0.0
C1196 C 0.05319 0.29304 0.53665 0.0
H1197 H 0.0244 0.1447 0.51453 0.0
H1198 H 0.02484 0.18894 0.51725 0.0
C1199 C 0.06906 0.31275 0.53844 0.0
C1200 C 0.02134 0.26659 0.55538 0.0
H1201 H 0.02442 0.21384 0.5884 0.0
C1202 C 0.00656 0.25877 0.53552 0.0
C1203 C 0.02708 0.2505 0.57512 0.0
C1204 C 0.04342 0.25781 0.59669 0.0
C1205 C 0.99831 0.23483 0.53438 0.0
C1206 C 0.00557 0.21829 0.55333 0.0
C1207 C 0.01891 0.22659 0.57391 0.0
C1208 C 0.00279 0.19171 0.55079 0.0
C1209 C 0.98251 0.22733 0.51258 0.0
C1210 C 0.9908 0.17846 0.56911 0.0
C1211 C 0.99098 0.15298 0.56786 0.0
C1212 C 0.00343 0.1404 0.54843 0.0
C1213 C 0.01504 0.15381 0.52997 0.0
C1214 C 0.01486 0.17916 0.53123 0.0
H1215 H 0.97081 0.24313 0.50506 0.0
H1216 H 0.99567 0.22041 0.49789 0.0
H1217 H 0.96942 0.21271 0.51743 0.0
H1218 H 0.98172 0.18782 0.58455 0.0
H1219 H 0.98197 0.14312 0.58239 0.0
H1220 H 0.58861 0.28081 0.35737 0.0
H1221 H 0.56997 0.31757 0.37735 0.0
H1222 H 0.60529 0.29473 0.44581 0.0
H1223 H 0.62431 0.25815 0.42584 0.0
H1224 H 0.53686 0.32514 0.41448 0.0
H1225 H 0.63035 0.36249 0.44092 0.0
H1226 H 0.62822 0.33689 0.42032 0.0
H1227 H 0.62633 0.33255 0.45295 0.0
C1228 C 0.59226 0.2835 0.37673 0.0
C1229 C 0.60815 0.26653 0.38992 0.0
C1230 C 0.58166 0.30462 0.38813 0.0
C1231 C 0.58664 0.30935 0.41302 0.0
C1232 C 0.60177 0.29201 0.42643 0.0
H1233 H 0.53704 0.42882 0.51205 0.0
H1234 H 0.55335 0.38977 0.49461 0.0
C1235 C 0.61256 0.27099 0.415 0.0
C1236 C 0.57588 0.33229 0.42487 0.0
H1237 H 0.59268 0.38292 0.45696 0.0
C1238 C 0.54912 0.33778 0.42369 0.0
C1239 C 0.59178 0.34895 0.43692 0.0
C1240 C 0.62078 0.3451 0.43768 0.0
C1241 C 0.53789 0.35915 0.43437 0.0
C1242 C 0.55378 0.37568 0.44647 0.0
C1243 C 0.58047 0.37018 0.44783 0.0
C1244 C 0.54318 0.39915 0.45718 0.0
C1245 C 0.50902 0.36377 0.4329 0.0
C1246 C 0.53217 0.41752 0.44197 0.0
C1247 C 0.52299 0.4399 0.45185 0.0
C1248 C 0.52452 0.44445 0.47723 0.0
C1249 C 0.53541 0.42594 0.49247 0.0
C1250 C 0.54481 0.4036 0.48251 0.0
H1251 H 0.49903 0.34692 0.42818 0.0
H1252 H 0.50133 0.37109 0.45054 0.0
H1253 H 0.50436 0.37753 0.41846 0.0
H1254 H 0.53104 0.4147 0.42234 0.0
H1255 H 0.51481 0.4537 0.43952 0.0
loop_
_geom_bond_atom_site_label_1
_geom_bond_atom_site_label_2
_geom_bond_distance
_geom_bond_site_symmetry_2
_ccdc_geom_bond_type
P0 O11 1.490 . S
P0 C14 1.812 . S
P0 C20 1.803 . S
P0 C26 1.819 . S
H1 C15 0.941 . S
H2 C16 0.939 . S
H3 C18 0.940 . S
H4 C19 0.940 . S
H5 C21 0.939 . S
H6 C22 0.942 . S
H7 C24 0.940 . S
H8 C25 0.939 . S
H9 C27 0.941 . S
H10 C31 0.939 . S
O11 P0 1.490 . S
H12 C28 0.939 . S
H13 C30 0.940 . S
C14 P0 1.812 . S
C14 C15 1.389 . S
C14 C19 1.391 . S
C15 H1 0.941 . S
C15 C14 1.389 . S
C15 C16 1.397 . S
C16 H2 0.939 . S
C16 C15 1.397 . S
C16 C17 1.378 . S
C17 C16 1.378 . S
C17 C18 1.378 . S
C18 H3 0.940 . S
C18 C17 1.378 . S
C18 C19 1.396 . S
C19 H4 0.940 . S
C19 C14 1.391 . S
C19 C18 1.396 . S
C20 P0 1.803 . S
C20 C21 1.378 . S
C20 C25 1.400 . S
C21 H5 0.939 . S
C21 C20 1.378 . S
C21 C22 1.361 . S
C22 H6 0.942 . S
C22 C21 1.361 . S
C22 C23 1.369 . S
C23 C22 1.369 . S
C23 C24 1.404 . S
C24 H7 0.940 . S
C24 C23 1.404 . S
C24 C25 1.389 . S
C25 H8 0.939 . S
C25 C20 1.400 . S
C25 C24 1.389 . S
C26 P0 1.819 . S
C26 C27 1.391 . S
C26 C31 1.391 . S
C27 H9 0.941 . S
C27 C26 1.391 . S
C27 C28 1.396 . S
C28 H12 0.939 . S
C28 C27 1.396 . S
C28 C29 1.397 . S
C29 C28 1.397 . S
C29 C30 1.385 . S
C30 H13 0.940 . S
C30 C29 1.385 . S
C30 C31 1.388 . S
C31 H10 0.939 . S
C31 C26 1.391 . S
C31 C30 1.388 . S
P32 O43 1.490 . S
P32 C46 1.812 . S
P32 C52 1.803 . S
P32 C58 1.819 . S
H33 C47 0.941 . S
H34 C48 0.939 . S
H35 C50 0.940 . S
H36 C51 0.940 . S
H37 C53 0.939 . S
H38 C54 0.942 . S
H39 C56 0.940 . S
H40 C57 0.939 . S
H41 C59 0.941 . S
H42 C63 0.939 . S
O43 P32 1.490 . S
H44 C60 0.939 . S
H45 C62 0.940 . S
C46 P32 1.812 . S
C46 C47 1.389 . S
C46 C51 1.391 . S
C47 H33 0.941 . S
C47 C46 1.389 . S
C47 C48 1.397 . S
C48 H34 0.939 . S
C48 C47 1.397 . S
C48 C49 1.378 . S
C49 C48 1.378 . S
C49 C50 1.378 . S
C50 H35 0.940 . S
C50 C49 1.378 . S
C50 C51 1.396 . S
C51 H36 0.940 . S
C51 C46 1.391 . S
C51 C50 1.396 . S
C52 P32 1.803 . S
C52 C53 1.378 . S
C52 C57 1.400 . S
C53 H37 0.939 . S
C53 C52 1.378 . S
C53 C54 1.361 . S
C54 H38 0.942 . S
C54 C53 1.361 . S
C54 C55 1.369 . S
C55 C54 1.369 . S
C55 C56 1.404 . S
C56 H39 0.940 . S
C56 C55 1.404 . S
C56 C57 1.389 . S
C57 H40 0.939 . S
C57 C52 1.400 . S
C57 C56 1.389 . S
C58 P32 1.819 . S
C58 C59 1.391 . S
C58 C63 1.391 . S
C59 H41 0.941 . S
C59 C58 1.391 . S
C59 C60 1.396 . S
C60 H44 0.939 . S
C60 C59 1.396 . S
C60 C61 1.397 . S
C61 C60 1.397 . S
C61 C62 1.385 . S
C62 H45 0.940 . S
C62 C61 1.385 . S
C62 C63 1.388 . S
C63 H42 0.939 . S
C63 C58 1.391 . S
C63 C62 1.388 . S
P64 O75 1.490 . S
P64 C78 1.812 . S
P64 C84 1.803 . S
P64 C90 1.819 . S
H65 C79 0.941 . S
H66 C80 0.939 . S
H67 C82 0.940 . S
H68 C83 0.940 . S
H69 C85 0.939 . S
H70 C86 0.942 . S
H71 C88 0.940 . S
H72 C89 0.939 . S
H73 C91 0.941 . S
H74 C95 0.939 . S
O75 P64 1.490 . S
H76 C92 0.939 . S
H77 C94 0.940 . S
C78 P64 1.812 . S
C78 C79 1.389 . S
C78 C83 1.391 . S
C79 H65 0.941 . S
C79 C78 1.389 . S
C79 C80 1.397 . S
C80 H66 0.939 . S
C80 C79 1.397 . S
C80 C81 1.378 . S
C81 C80 1.378 . S
C81 C82 1.378 . S
C82 H67 0.940 . S
C82 C81 1.378 . S
C82 C83 1.396 . S
C83 H68 0.940 . S
C83 C78 1.391 . S
C83 C82 1.396 . S
C84 P64 1.803 . S
C84 C85 1.378 . S
C84 C89 1.400 . S
C85 H69 0.939 . S
C85 C84 1.378 . S
C85 C86 1.361 . S
C86 H70 0.942 . S
C86 C85 1.361 . S
C86 C87 1.369 . S
C87 C86 1.369 . S
C87 C88 1.404 . S
C88 H71 0.940 . S
C88 C87 1.404 . S
C88 C89 1.389 . S
C89 H72 0.939 . S
C89 C84 1.400 . S
C89 C88 1.389 . S
C90 P64 1.819 . S
C90 C91 1.391 . S
C90 C95 1.391 . S
C91 H73 0.941 . S
C91 C90 1.391 . S
C91 C92 1.396 . S
C92 H76 0.939 . S
C92 C91 1.396 . S
C92 C93 1.397 . S
C93 C92 1.397 . S
C93 C94 1.385 . S
C94 H77 0.940 . S
C94 C93 1.385 . S
C94 C95 1.388 . S
C95 H74 0.939 . S
C95 C90 1.391 . S
C95 C94 1.388 . S
P96 O107 1.490 . S
P96 C110 1.812 . S
P96 C116 1.803 . S
P96 C122 1.819 . S
H97 C111 0.941 . S
H98 C112 0.939 . S
H99 C114 0.940 . S
H100 C115 0.940 . S
H101 C117 0.939 . S
H102 C118 0.942 . S
H103 C120 0.940 . S
H104 C121 0.939 . S
H105 C123 0.941 . S
H106 C127 0.939 . S
O107 P96 1.490 . S
H108 C124 0.939 . S
H109 C126 0.940 . S
C110 P96 1.812 . S
C110 C111 1.389 . S
C110 C115 1.391 . S
C111 H97 0.941 . S
C111 C110 1.389 . S
C111 C112 1.397 . S
C112 H98 0.939 . S
C112 C111 1.397 . S
C112 C113 1.378 . S
C113 C112 1.378 . S
C113 C114 1.378 . S
C114 H99 0.940 . S
C114 C113 1.378 . S
C114 C115 1.396 . S
C115 H100 0.940 . S
C115 C110 1.391 . S
C115 C114 1.396 . S
C116 P96 1.803 . S
C116 C117 1.378 . S
C116 C121 1.400 . S
C117 H101 0.939 . S
C117 C116 1.378 . S
C117 C118 1.361 . S
C118 H102 0.942 . S
C118 C117 1.361 . S
C118 C119 1.369 . S
C119 C118 1.369 . S
C119 C120 1.404 . S
C120 H103 0.940 . S
C120 C119 1.404 . S
C120 C121 1.389 . S
C121 H104 0.939 . S
C121 C116 1.400 . S
C121 C120 1.389 . S
C122 P96 1.819 . S
C122 C123 1.391 . S
C122 C127 1.391 . S
C123 H105 0.941 . S
C123 C122 1.391 . S
C123 C124 1.396 . S
C124 H108 0.939 . S
C124 C123 1.396 . S
C124 C125 1.397 . S
C125 C124 1.397 . S
C125 C126 1.385 . S
C126 H109 0.940 . S
C126 C125 1.385 . S
C126 C127 1.388 . S
C127 H106 0.939 . S
C127 C122 1.391 . S
C127 C126 1.388 . S
P128 O139 1.490 . S
P128 C142 1.812 . S
P128 C148 1.803 . S
P128 C154 1.819 . S
H129 C143 0.941 . S
H130 C144 0.939 . S
H131 C146 0.940 . S
H132 C147 0.940 . S
H133 C149 0.939 . S
H134 C150 0.942 . S
H135 C152 0.940 . S
H136 C153 0.939 . S
H137 C155 0.941 . S
H138 C159 0.939 . S
O139 P128 1.490 . S
H140 C156 0.939 . S
H141 C158 0.940 . S
C142 P128 1.812 . S
C142 C143 1.389 . S
C142 C147 1.391 . S
C143 H129 0.941 . S
C143 C142 1.389 . S
C143 C144 1.397 . S
C144 H130 0.939 . S
C144 C143 1.397 . S
C144 C145 1.378 . S
C145 C144 1.378 . S
C145 C146 1.378 . S
C146 H131 0.940 . S
C146 C145 1.378 . S
C146 C147 1.396 . S
C147 H132 0.940 . S
C147 C142 1.391 . S
C147 C146 1.396 . S
C148 P128 1.803 . S
C148 C149 1.378 . S
C148 C153 1.400 . S
C149 H133 0.939 . S
C149 C148 1.378 . S
C149 C150 1.361 . S
C150 H134 0.942 . S
C150 C149 1.361 . S
C150 C151 1.369 . S
C151 C150 1.369 . S
C151 C152 1.404 . S
C152 H135 0.940 . S
C152 C151 1.404 . S
C152 C153 1.389 . S
C153 H136 0.939 . S
C153 C148 1.400 . S
C153 C152 1.389 . S
C154 P128 1.819 . S
C154 C155 1.391 . S
C154 C159 1.391 . S
C155 H137 0.941 . S
C155 C154 1.391 . S
C155 C156 1.396 . S
C156 H140 0.939 . S
C156 C155 1.396 . S
C156 C157 1.397 . S
C157 C156 1.397 . S
C157 C158 1.385 . S
C158 H141 0.940 . S
C158 C157 1.385 . S
C158 C159 1.388 . S
C159 H138 0.939 . S
C159 C154 1.391 . S
C159 C158 1.388 . S
P160 O171 1.490 . S
P160 C174 1.812 . S
P160 C180 1.803 . S
P160 C186 1.819 . S
H161 C175 0.941 . S
H162 C176 0.939 . S
H163 C178 0.940 . S
H164 C179 0.940 . S
H165 C181 0.939 . S
H166 C182 0.942 . S
H167 C184 0.940 . S
H168 C185 0.939 . S
H169 C187 0.941 . S
H170 C191 0.939 . S
O171 P160 1.490 . S
H172 C188 0.939 . S
H173 C190 0.940 . S
C174 P160 1.812 . S
C174 C175 1.389 . S
C174 C179 1.391 . S
C175 H161 0.941 . S
C175 C174 1.389 . S
C175 C176 1.397 . S
C176 H162 0.939 . S
C176 C175 1.397 . S
C176 C177 1.378 . S
C177 C176 1.378 . S
C177 C178 1.378 . S
C178 H163 0.940 . S
C178 C177 1.378 . S
C178 C179 1.396 . S
C179 H164 0.940 . S
C179 C174 1.391 . S
C179 C178 1.396 . S
C180 P160 1.803 . S
C180 C181 1.378 . S
C180 C185 1.400 . S
C181 H165 0.939 . S
C181 C180 1.378 . S
C181 C182 1.361 . S
C182 H166 0.942 . S
C182 C181 1.361 . S
C182 C183 1.369 . S
C183 C182 1.369 . S
C183 C184 1.404 . S
C184 H167 0.940 . S
C184 C183 1.404 . S
C184 C185 1.389 . S
C185 H168 0.939 . S
C185 C180 1.400 . S
C185 C184 1.389 . S
C186 P160 1.819 . S
C186 C187 1.391 . S
C186 C191 1.391 . S
C187 H169 0.941 . S
C187 C186 1.391 . S
C187 C188 1.396 . S
C188 H172 0.939 . S
C188 C187 1.396 . S
C188 C189 1.397 . S
C189 C188 1.397 . S
C189 C190 1.385 . S
C190 H173 0.940 . S
C190 C189 1.385 . S
C190 C191 1.388 . S
C191 H170 0.939 . S
C191 C186 1.391 . S
C191 C190 1.388 . S
P192 O203 1.490 . S
P192 C206 1.812 . S
P192 C212 1.803 . S
P192 C218 1.819 . S
H193 C207 0.941 . S
H194 C208 0.939 . S
H195 C210 0.940 . S
H196 C211 0.940 . S
H197 C213 0.939 . S
H198 C214 0.942 . S
H199 C216 0.940 . S
H200 C217 0.939 . S
H201 C219 0.941 . S
H202 C223 0.939 . S
O203 P192 1.490 . S
H204 C220 0.939 . S
H205 C222 0.940 . S
C206 P192 1.812 . S
C206 C207 1.389 . S
C206 C211 1.391 . S
C207 H193 0.941 . S
C207 C206 1.389 . S
C207 C208 1.397 . S
C208 H194 0.939 . S
C208 C207 1.397 . S
C208 C209 1.378 . S
C209 C208 1.378 . S
C209 C210 1.378 . S
C210 H195 0.940 . S
C210 C209 1.378 . S
C210 C211 1.396 . S
C211 H196 0.940 . S
C211 C206 1.391 . S
C211 C210 1.396 . S
C212 P192 1.803 . S
C212 C213 1.378 . S
C212 C217 1.400 . S
C213 H197 0.939 . S
C213 C212 1.378 . S
C213 C214 1.361 . S
C214 H198 0.942 . S
C214 C213 1.361 . S
C214 C215 1.369 . S
C215 C214 1.369 . S
C215 C216 1.404 . S
C216 H199 0.940 . S
C216 C215 1.404 . S
C216 C217 1.389 . S
C217 H200 0.939 . S
C217 C212 1.400 . S
C217 C216 1.389 . S
C218 P192 1.819 . S
C218 C219 1.391 . S
C218 C223 1.391 . S
C219 H201 0.941 . S
C219 C218 1.391 . S
C219 C220 1.396 . S
C220 H204 0.939 . S
C220 C219 1.396 . S
C220 C221 1.397 . S
C221 C220 1.397 . S
C221 C222 1.385 . S
C222 H205 0.940 . S
C222 C221 1.385 . S
C222 C223 1.388 . S
C223 H202 0.939 . S
C223 C218 1.391 . S
C223 C222 1.388 . S
P224 O235 1.490 . S
P224 C238 1.812 . S
P224 C244 1.803 . S
P224 C250 1.819 . S
H225 C239 0.941 . S
H226 C240 0.939 . S
H227 C242 0.940 . S
H228 C243 0.940 . S
H229 C245 0.939 . S
H230 C246 0.942 . S
H231 C248 0.940 . S
H232 C249 0.939 . S
H233 C251 0.941 . S
H234 C255 0.939 . S
O235 P224 1.490 . S
H236 C252 0.939 . S
H237 C254 0.940 . S
C238 P224 1.812 . S
C238 C239 1.389 . S
C238 C243 1.391 . S
C239 H225 0.941 . S
C239 C238 1.389 . S
C239 C240 1.397 . S
C240 H226 0.939 . S
C240 C239 1.397 . S
C240 C241 1.378 . S
C241 C240 1.378 . S
C241 C242 1.378 . S
C242 H227 0.940 . S
C242 C241 1.378 . S
C242 C243 1.396 . S
C243 H228 0.940 . S
C243 C238 1.391 . S
C243 C242 1.396 . S
C244 P224 1.803 . S
C244 C245 1.378 . S
C244 C249 1.400 . S
C245 H229 0.939 . S
C245 C244 1.378 . S
C245 C246 1.361 . S
C246 H230 0.942 . S
C246 C245 1.361 . S
C246 C247 1.369 . S
C247 C246 1.369 . S
C247 C248 1.404 . S
C248 H231 0.940 . S
C248 C247 1.404 . S
C248 C249 1.389 . S
C249 H232 0.939 . S
C249 C244 1.400 . S
C249 C248 1.389 . S
C250 P224 1.819 . S
C250 C251 1.391 . S
C250 C255 1.391 . S
C251 H233 0.941 . S
C251 C250 1.391 . S
C251 C252 1.396 . S
C252 H236 0.939 . S
C252 C251 1.396 . S
C252 C253 1.397 . S
C253 C252 1.397 . S
C253 C254 1.385 . S
C254 H237 0.940 . S
C254 C253 1.385 . S
C254 C255 1.388 . S
C255 H234 0.939 . S
C255 C250 1.391 . S
C255 C254 1.388 . S
C256 O272 1.251 . S
C256 O274 1.254 1_545 S
N257 C258 1.333 . S
N257 C262 1.307 . S
N257 Zn263 2.020 . S
C258 N257 1.333 . S
C258 C259 1.379 . S
C258 H276 0.952 . S
C259 C258 1.379 . S
C259 C260 1.390 . S
C259 H286 0.949 . S
C260 C259 1.390 . S
C260 C261 1.357 . S
C261 C260 1.357 . S
C261 C262 1.370 . S
C261 H287 0.950 . S
C262 N257 1.307 . S
C262 C261 1.370 . S
C262 H280 0.948 1_455 S
Zn263 N257 2.020 . S
Zn263 O272 2.039 . S
Zn263 O278 2.034 . S
Zn263 O282 2.025 1_455 S
Zn263 O284 2.024 1_455 S
C264 O283 1.293 . S
C264 O284 1.249 . S
N265 C266 1.307 . S
N265 C267 1.333 . S
N265 Zn271 2.020 . S
C266 N265 1.307 . S
C266 C270 1.370 . S
C266 H277 0.948 1_655 S
C267 N265 1.333 . S
C267 C268 1.379 . S
C267 H275 0.952 . S
C268 C267 1.379 . S
C268 C269 1.390 . S
C268 H288 0.949 . S
C269 C268 1.390 . S
C269 C270 1.357 . S
C270 C266 1.370 . S
C270 C269 1.357 . S
C270 H289 0.940 1_655 S
Zn271 N265 2.020 . S
Zn271 O274 2.025 1_655 S
Zn271 O279 2.024 1_655 S
Zn271 O281 2.039 . S
Zn271 O283 2.011 1_565 S
O272 C256 1.251 . S
O272 Zn263 2.039 . S
C273 O278 1.246 1_565 S
C273 O279 1.249 . S
O274 C256 1.254 1_565 S
O274 Zn271 2.025 1_455 S
H275 C267 0.952 . S
H276 C258 0.952 . S
H277 C266 0.948 1_455 S
O278 Zn263 2.034 . S
O278 C273 1.246 1_545 S
O279 Zn271 2.024 1_455 S
O279 C273 1.249 . S
H280 C262 0.948 1_655 S
O281 Zn271 2.039 . S
O281 C285 1.251 . S
O282 Zn263 2.025 1_655 S
O282 C285 1.254 1_545 S
O283 C264 1.293 . S
O283 Zn271 2.011 1_545 S
O284 Zn263 2.024 1_655 S
O284 C264 1.249 . S
C285 O281 1.251 . S
C285 O282 1.254 1_565 S
H286 C259 0.949 . S
H287 C261 0.950 . S
H288 C268 0.949 . S
H289 C270 0.940 1_455 S
C290 O306 1.251 1_565 S
C290 O308 1.254 1_556 S
N291 C292 1.333 . S
N291 C296 1.307 . S
N291 Zn297 2.032 . S
C292 N291 1.333 . S
C292 C293 1.379 . S
C292 H310 0.952 . S
C293 C292 1.379 . S
C293 C294 1.390 . S
C293 H320 0.949 . S
C294 C293 1.390 . S
C294 C295 1.357 . S
C295 C294 1.357 . S
C295 C296 1.370 . S
C295 H321 0.950 . S
C296 N291 1.307 . S
C296 C295 1.370 . S
C296 H314 0.948 . S
Zn297 N291 2.032 . S
Zn297 O306 2.049 . S
Zn297 O312 1.992 1_556 S
Zn297 O316 2.011 1_556 S
Zn297 O318 2.062 . S
C298 O317 1.246 . S
C298 O318 1.249 1_565 S
N299 C300 1.307 . S
N299 C301 1.333 . S
N299 Zn305 2.020 . S
C300 N299 1.307 . S
C300 C304 1.370 . S
C300 H311 0.948 . S
C301 N299 1.333 . S
C301 C302 1.379 . S
C301 H309 0.952 . S
C302 C301 1.379 . S
C302 C303 1.390 . S
C302 H322 0.949 . S
C303 C302 1.390 . S
C303 C304 1.357 . S
C304 C300 1.370 . S
C304 C303 1.357 . S
C304 H323 0.950 . S
Zn305 N299 2.020 . S
Zn305 O308 2.025 . S
Zn305 O313 2.024 . S
Zn305 O315 2.039 1_565 S
Zn305 O317 2.034 1_554 S
O306 C290 1.251 1_545 S
O306 Zn297 2.049 . S
C307 O312 1.246 . S
C307 O313 1.249 1_545 S
O308 C290 1.254 1_554 S
O308 Zn305 2.025 . S
H309 C301 0.952 . S
H310 C292 0.952 . S
H311 C300 0.948 . S
O312 Zn297 1.992 1_554 S
O312 C307 1.246 . S
O313 Zn305 2.024 . S
O313 C307 1.249 1_565 S
H314 C296 0.948 . S
O315 Zn305 2.039 1_545 S
O315 C319 1.251 . S
O316 Zn297 2.011 1_554 S
O316 C319 1.254 . S
O317 C298 1.246 . S
O317 Zn305 2.034 1_556 S
O318 Zn297 2.062 . S
O318 C298 1.249 1_545 S
C319 O315 1.251 . S
C319 O316 1.254 . S
H320 C293 0.949 . S
H321 C295 0.950 . S
H322 C302 0.949 . S
H323 C304 0.950 . S
C324 O340 1.251 . S
C324 O342 1.254 . S
N325 C326 1.333 . S
N325 C330 1.307 . S
N325 Zn331 2.020 . S
C326 N325 1.333 . S
C326 C327 1.379 . S
C326 H344 0.952 . S
C327 C326 1.379 . S
C327 C328 1.390 . S
C327 H354 0.949 . S
C328 C327 1.390 . S
C328 C329 1.357 . S
C329 C328 1.357 . S
C329 C330 1.370 . S
C329 H355 0.950 . S
C330 N325 1.307 . S
C330 C329 1.370 . S
C330 H348 0.948 . S
Zn331 N325 2.020 . S
Zn331 O340 2.039 . S
Zn331 O346 2.034 . S
Zn331 O350 2.025 . S
Zn331 O352 2.024 . S
C332 O351 1.246 . S
C332 O352 1.249 . S
N333 C334 1.307 . S
N333 C335 1.333 . S
N333 Zn339 2.020 . S
C334 N333 1.307 . S
C334 C338 1.370 . S
C334 H345 0.948 . S
C335 N333 1.333 . S
C335 C336 1.379 . S
C335 H343 0.952 . S
C336 C335 1.379 . S
C336 C337 1.390 . S
C336 H356 0.949 . S
C337 C336 1.390 . S
C337 C338 1.357 . S
C338 C334 1.370 . S
C338 C337 1.357 . S
C338 H357 0.950 . S
Zn339 N333 2.020 . S
Zn339 O342 2.025 . S
Zn339 O347 2.024 . S
Zn339 O349 2.039 . S
Zn339 O351 2.034 . S
O340 C324 1.251 . S
O340 Zn331 2.039 . S
C341 O346 1.246 . S
C341 O347 1.249 . S
O342 C324 1.254 . S
O342 Zn339 2.025 . S
H343 C335 0.952 . S
H344 C326 0.952 . S
H345 C334 0.948 . S
O346 Zn331 2.034 . S
O346 C341 1.246 . S
O347 Zn339 2.024 . S
O347 C341 1.249 . S
H348 C330 0.948 . S
O349 Zn339 2.039 . S
O349 C353 1.251 . S
O350 Zn331 2.025 . S
O350 C353 1.254 . S
O351 C332 1.246 . S
O351 Zn339 2.034 . S
O352 Zn331 2.024 . S
O352 C332 1.249 . S
C353 O349 1.251 . S
C353 O350 1.254 . S
H354 C327 0.949 . S
H355 C329 0.950 . S
H356 C336 0.949 . S
H357 C338 0.950 . S
C358 O374 1.251 1_556 S
C358 O376 1.273 . S
N359 C360 1.333 . S
N359 C364 1.307 . S
N359 Zn365 2.020 . S
C360 N359 1.333 . S
C360 C361 1.379 . S
C360 H378 0.952 . S
C361 C360 1.379 . S
C361 C362 1.390 . S
C361 H388 0.949 . S
C362 C361 1.390 . S
C362 C363 1.357 . S
C363 C362 1.357 . S
C363 C364 1.370 . S
C363 H389 0.950 . S
C364 N359 1.307 . S
C364 C363 1.370 . S
C364 H382 0.948 . S
Zn365 N359 2.020 . S
Zn365 O374 2.039 . S
Zn365 O380 2.034 1_655 S
Zn365 O384 2.025 1_655 S
Zn365 O386 2.024 . S
C366 O385 1.246 . S
C366 O386 1.249 1_556 S
N367 C368 1.307 . S
N367 C369 1.333 . S
N367 Zn373 2.020 . S
C368 N367 1.307 . S
C368 C372 1.370 . S
C368 H379 0.948 . S
C369 N367 1.333 . S
C369 C370 1.379 . S
C369 H377 0.952 . S
C370 C369 1.379 . S
C370 C371 1.390 . S
C370 H390 0.949 . S
C371 C370 1.390 . S
C371 C372 1.357 . S
C372 C368 1.370 . S
C372 C371 1.357 . S
C372 H391 0.950 . S
Zn373 N367 2.020 . S
Zn373 O376 2.013 1_455 S
Zn373 O381 2.024 . S
Zn373 O383 2.039 . S
Zn373 O385 2.034 1_455 S
O374 C358 1.251 1_554 S
O374 Zn365 2.039 . S
C375 O380 1.246 . S
C375 O381 1.249 1_554 S
O376 C358 1.273 . S
O376 Zn373 2.013 1_655 S
H377 C369 0.952 . S
H378 C360 0.952 . S
H379 C368 0.948 . S
O380 Zn365 2.034 1_455 S
O380 C375 1.246 . S
O381 Zn373 2.024 . S
O381 C375 1.249 1_556 S
H382 C364 0.948 . S
O383 Zn373 2.039 . S
O383 C387 1.251 1_556 S
O384 Zn365 2.025 1_455 S
O384 C387 1.254 . S
O385 C366 1.246 . S
O385 Zn373 2.034 1_655 S
O386 Zn365 2.024 . S
O386 C366 1.249 1_554 S
C387 O383 1.251 1_554 S
C387 O384 1.254 . S
H388 C361 0.949 . S
H389 C363 0.950 . S
H390 C370 0.949 . S
H391 C372 0.950 . S
H392 C400 0.929 . S
H393 C402 0.930 . S
H394 C404 0.930 . S
H395 C407 0.929 . S
H396 C410 0.930 . S
H397 C412 0.960 . S
H398 C412 0.960 . S
H399 C412 0.960 . S
C400 H392 0.929 . S
C400 C401 1.377 . S
C400 C402 1.384 . S
C401 C400 1.377 . S
C401 C407 1.390 . S
C402 H393 0.930 . S
C402 C400 1.384 . S
C402 C403 1.372 . S
C403 C402 1.372 . S
C403 C404 1.400 . S
C403 C408 1.490 . S
C404 H394 0.930 . S
C404 C403 1.400 . S
C404 C407 1.386 . S
H405 C421 0.930 . S
H406 C422 0.931 . S
C407 H395 0.929 . S
C407 C401 1.390 . S
C407 C404 1.386 . S
C408 C403 1.490 . S
C408 C410 1.395 . S
C408 C411 1.403 . S
H409 C415 0.930 . S
C410 H396 0.930 . S
C410 C408 1.395 . S
C410 C413 1.403 . S
C411 C408 1.403 . S
C411 C412 1.524 . S
C411 C415 1.400 . S
C412 H397 0.960 . S
C412 H398 0.960 . S
C412 H399 0.960 . S
C412 C411 1.524 . S
C413 C410 1.403 . S
C413 C414 1.392 . S
C413 C417 1.495 . S
C414 C413 1.392 . S
C414 C415 1.385 . S
C414 C416 1.478 . S
C415 H409 0.930 . S
C415 C411 1.400 . S
C415 C414 1.385 . S
C416 C414 1.478 . S
C416 C418 1.381 . S
C416 C422 1.383 . S
C417 C413 1.495 . S
C417 H423 0.959 . S
C417 H424 0.961 . S
C417 H425 0.960 . S
C418 C416 1.381 . S
C418 C419 1.394 . S
C418 H426 0.930 . S
C419 C418 1.394 . S
C419 C420 1.383 . S
C419 H427 0.929 1_545 S
C420 C419 1.383 . S
C420 C421 1.377 . S
C421 H405 0.930 . S
C421 C420 1.377 . S
C421 C422 1.379 . S
C422 H406 0.931 . S
C422 C416 1.383 . S
C422 C421 1.379 . S
H423 C417 0.959 . S
H424 C417 0.961 . S
H425 C417 0.960 . S
H426 C418 0.930 . S
H427 C419 0.929 1_565 S
H428 C436 0.929 . S
H429 C438 0.930 . S
H430 C440 0.930 . S
H431 C443 0.929 . S
H432 C446 0.930 . S
H433 C448 0.960 . S
H434 C448 0.960 . S
H435 C448 0.960 . S
C436 H428 0.929 . S
C436 C437 1.377 . S
C436 C438 1.384 . S
C437 C436 1.377 . S
C437 C443 1.390 . S
C438 H429 0.930 . S
C438 C436 1.384 . S
C438 C439 1.372 . S
C439 C438 1.372 . S
C439 C440 1.400 . S
C439 C444 1.490 . S
C440 H430 0.930 . S
C440 C439 1.400 . S
C440 C443 1.386 . S
H441 C457 0.930 . S
H442 C458 0.931 . S
C443 H431 0.929 . S
C443 C437 1.390 . S
C443 C440 1.386 . S
C444 C439 1.490 . S
C444 C446 1.395 . S
C444 C447 1.403 . S
H445 C451 0.930 . S
C446 H432 0.930 . S
C446 C444 1.395 . S
C446 C449 1.403 . S
C447 C444 1.403 . S
C447 C448 1.524 . S
C447 C451 1.400 . S
C448 H433 0.960 . S
C448 H434 0.960 . S
C448 H435 0.960 . S
C448 C447 1.524 . S
C449 C446 1.403 . S
C449 C450 1.392 . S
C449 C453 1.495 1_565 S
C450 C449 1.392 . S
C450 C451 1.385 . S
C450 C452 1.478 . S
C451 H445 0.930 . S
C451 C447 1.400 . S
C451 C450 1.385 . S
C452 C450 1.478 . S
C452 C454 1.381 . S
C452 C458 1.383 . S
C453 C449 1.495 1_545 S
C453 H459 0.959 . S
C453 H460 0.961 . S
C453 H461 0.960 . S
C454 C452 1.381 . S
C454 C455 1.394 . S
C454 H462 0.930 . S
C455 C454 1.394 . S
C455 C456 1.383 . S
C455 H463 0.929 1_565 S
C456 C455 1.383 . S
C456 C457 1.377 . S
C457 H441 0.930 . S
C457 C456 1.377 . S
C457 C458 1.379 . S
C458 H442 0.931 . S
C458 C452 1.383 . S
C458 C457 1.379 . S
H459 C453 0.959 . S
H460 C453 0.961 . S
H461 C453 0.960 . S
H462 C454 0.930 . S
H463 C455 0.929 1_545 S
H464 C472 0.929 . S
H465 C474 0.930 . S
H466 C476 0.930 . S
H467 C479 0.929 . S
H468 C482 0.930 . S
H469 C484 0.960 . S
H470 C484 0.960 . S
H471 C484 0.960 . S
C472 H464 0.929 . S
C472 C473 1.377 . S
C472 C474 1.384 . S
C473 C472 1.377 . S
C473 C479 1.390 . S
C474 H465 0.930 . S
C474 C472 1.384 . S
C474 C475 1.372 . S
C475 C474 1.372 . S
C475 C476 1.400 . S
C475 C480 1.490 . S
C476 H466 0.930 . S
C476 C475 1.400 . S
C476 C479 1.386 . S
H477 C493 0.930 . S
H478 C494 0.931 . S
C479 H467 0.929 . S
C479 C473 1.390 . S
C479 C476 1.386 . S
C480 C475 1.490 . S
C480 C482 1.395 . S
C480 C483 1.403 . S
H481 C487 0.930 . S
C482 H468 0.930 . S
C482 C480 1.395 . S
C482 C485 1.403 . S
C483 C480 1.403 . S
C483 C484 1.524 . S
C483 C487 1.400 . S
C484 H469 0.960 . S
C484 H470 0.960 . S
C484 H471 0.960 . S
C484 C483 1.524 . S
C485 C482 1.403 . S
C485 C486 1.392 . S
C485 C489 1.495 . S
C486 C485 1.392 . S
C486 C487 1.385 . S
C486 C488 1.478 . S
C487 H481 0.930 . S
C487 C483 1.400 . S
C487 C486 1.385 . S
C488 C486 1.478 . S
C488 C490 1.381 . S
C488 C494 1.383 . S
C489 C485 1.495 . S
C489 H495 0.959 . S
C489 H496 0.961 . S
C489 H497 0.960 . S
C490 C488 1.381 . S
C490 C491 1.394 . S
C490 H498 0.930 . S
C491 C490 1.394 . S
C491 C492 1.383 . S
C491 H499 0.929 . S
C492 C491 1.383 . S
C492 C493 1.377 . S
C493 H477 0.930 . S
C493 C492 1.377 . S
C493 C494 1.379 . S
C494 H478 0.931 . S
C494 C488 1.383 . S
C494 C493 1.379 . S
H495 C489 0.959 . S
H496 C489 0.961 . S
H497 C489 0.960 . S
H498 C490 0.930 . S
H499 C491 0.929 . S
H500 C508 0.929 . S
H501 C510 0.930 . S
H502 C512 0.930 . S
H503 C515 0.929 . S
H504 C518 0.930 . S
H505 C520 0.960 . S
H506 C520 0.960 . S
H507 C520 0.960 . S
C508 H500 0.929 . S
C508 C509 1.377 . S
C508 C510 1.384 . S
C509 C508 1.377 . S
C509 C515 1.390 . S
C510 H501 0.930 . S
C510 C508 1.384 . S
C510 C511 1.372 . S
C511 C510 1.372 . S
C511 C512 1.400 . S
C511 C516 1.490 . S
C512 H502 0.930 . S
C512 C511 1.400 . S
C512 C515 1.386 . S
H513 C529 0.930 . S
H514 C530 0.931 . S
C515 H503 0.929 . S
C515 C509 1.390 . S
C515 C512 1.386 . S
C516 C511 1.490 . S
C516 C518 1.395 . S
C516 C519 1.403 . S
H517 C523 0.930 . S
C518 H504 0.930 . S
C518 C516 1.395 . S
C518 C521 1.403 . S
C519 C516 1.403 . S
C519 C520 1.524 . S
C519 C523 1.400 . S
C520 H505 0.960 . S
C520 H506 0.960 . S
C520 H507 0.960 . S
C520 C519 1.524 . S
C521 C518 1.403 . S
C521 C522 1.392 . S
C521 C525 1.495 . S
C522 C521 1.392 . S
C522 C523 1.385 . S
C522 C524 1.478 . S
C523 H517 0.930 . S
C523 C519 1.400 . S
C523 C522 1.385 . S
C524 C522 1.478 . S
C524 C526 1.381 . S
C524 C530 1.383 . S
C525 C521 1.495 . S
C525 H531 0.959 . S
C525 H532 0.961 . S
C525 H533 0.960 . S
C526 C524 1.381 . S
C526 C527 1.394 . S
C526 H534 0.930 . S
C527 C526 1.394 . S
C527 C528 1.383 . S
C527 H535 0.929 . S
C528 C527 1.383 . S
C528 C529 1.377 . S
C529 H513 0.930 . S
C529 C528 1.377 . S
C529 C530 1.379 . S
C530 H514 0.931 . S
C530 C524 1.383 . S
C530 C529 1.379 . S
H531 C525 0.959 . S
H532 C525 0.961 . S
H533 C525 0.960 . S
H534 C526 0.930 . S
H535 C527 0.929 . S
H536 C544 0.929 . S
H537 C546 0.930 . S
H538 C548 0.930 . S
H539 C551 0.929 . S
H540 C554 0.930 . S
H541 C556 0.960 . S
H542 C556 0.960 . S
H543 C556 0.960 . S
C544 H536 0.929 . S
C544 C545 1.377 . S
C544 C546 1.384 . S
C545 C544 1.377 . S
C545 C551 1.390 . S
C546 H537 0.930 . S
C546 C544 1.384 . S
C546 C547 1.372 . S
C547 C546 1.372 . S
C547 C548 1.400 . S
C547 C552 1.490 . S
C548 H538 0.930 . S
C548 C547 1.400 . S
C548 C551 1.386 . S
H549 C565 0.930 . S
H550 C566 0.931 . S
C551 H539 0.929 . S
C551 C545 1.390 . S
C551 C548 1.386 . S
C552 C547 1.490 . S
C552 C554 1.395 . S
C552 C555 1.403 . S
H553 C559 0.930 . S
C554 H540 0.930 . S
C554 C552 1.395 . S
C554 C557 1.403 . S
C555 C552 1.403 . S
C555 C556 1.524 . S
C555 C559 1.400 . S
C556 H541 0.960 . S
C556 H542 0.960 . S
C556 H543 0.960 . S
C556 C555 1.524 . S
C557 C554 1.403 . S
C557 C558 1.392 . S
C557 C561 1.495 . S
C558 C557 1.392 . S
C558 C559 1.385 . S
C558 C560 1.478 . S
C559 H553 0.930 . S
C559 C555 1.400 . S
C559 C558 1.385 . S
C560 C558 1.478 . S
C560 C562 1.381 . S
C560 C566 1.383 . S
C561 C557 1.495 . S
C561 H567 0.959 . S
C561 H568 0.961 . S
C561 H569 0.960 . S
C562 C560 1.381 . S
C562 C563 1.394 . S
C562 H570 0.930 . S
C563 C562 1.394 . S
C563 C564 1.383 . S
C563 H571 0.929 . S
C564 C563 1.383 . S
C564 C565 1.377 . S
C565 H549 0.930 . S
C565 C564 1.377 . S
C565 C566 1.379 . S
C566 H550 0.931 . S
C566 C560 1.383 . S
C566 C565 1.379 . S
H567 C561 0.959 . S
H568 C561 0.961 . S
H569 C561 0.960 . S
H570 C562 0.930 . S
H571 C563 0.929 . S
H572 C580 0.929 . S
H573 C582 0.930 . S
H574 C584 0.930 . S
H575 C587 0.929 . S
H576 C590 0.930 . S
H577 C592 0.960 1_545 S
H578 C592 0.960 . S
H579 C592 0.960 . S
C580 H572 0.929 . S
C580 C581 1.377 . S
C580 C582 1.384 . S
C581 C580 1.377 . S
C581 C587 1.390 . S
C582 H573 0.930 . S
C582 C580 1.384 . S
C582 C583 1.372 . S
C583 C582 1.372 . S
C583 C584 1.400 . S
C583 C588 1.490 . S
C584 H574 0.930 . S
C584 C583 1.400 . S
C584 C587 1.386 . S
H585 C601 0.930 . S
H586 C602 0.931 . S
C587 H575 0.929 . S
C587 C581 1.390 . S
C587 C584 1.386 . S
C588 C583 1.490 . S
C588 C590 1.395 . S
C588 C591 1.403 . S
H589 C595 0.930 . S
C590 H576 0.930 . S
C590 C588 1.395 . S
C590 C593 1.403 . S
C591 C588 1.403 . S
C591 C592 1.524 . S
C591 C595 1.400 . S
C592 H577 0.960 1_565 S
C592 H578 0.960 . S
C592 H579 0.960 . S
C592 C591 1.524 . S
C593 C590 1.403 . S
C593 C594 1.392 . S
C593 C597 1.495 . S
C594 C593 1.392 . S
C594 C595 1.385 . S
C594 C596 1.478 . S
C595 H589 0.930 . S
C595 C591 1.400 . S
C595 C594 1.385 . S
C596 C594 1.478 . S
C596 C598 1.381 . S
C596 C602 1.383 . S
C597 C593 1.495 . S
C597 H603 0.959 . S
C597 H604 0.961 . S
C597 H605 0.960 . S
C598 C596 1.381 . S
C598 C599 1.394 . S
C598 H606 0.930 . S
C599 C598 1.394 . S
C599 C600 1.383 . S
C599 H607 0.929 . S
C600 C599 1.383 . S
C600 C601 1.377 . S
C601 H585 0.930 . S
C601 C600 1.377 . S
C601 C602 1.379 . S
C602 H586 0.931 . S
C602 C596 1.383 . S
C602 C601 1.379 . S
H603 C597 0.959 . S
H604 C597 0.961 . S
H605 C597 0.960 . S
H606 C598 0.930 . S
H607 C599 0.929 . S
H608 C616 0.929 . S
H609 C618 0.930 . S
H610 C620 0.930 . S
H611 C623 0.929 . S
H612 C626 0.930 . S
H613 C628 0.960 1_554 S
H614 C628 0.960 1_554 S
H615 C628 0.960 . S
C616 H608 0.929 . S
C616 C617 1.377 . S
C616 C618 1.384 . S
C617 C616 1.377 . S
C617 C623 1.390 . S
C618 H609 0.930 . S
C618 C616 1.384 . S
C618 C619 1.372 . S
C619 C618 1.372 . S
C619 C620 1.400 . S
C619 C624 1.490 . S
C620 H610 0.930 . S
C620 C619 1.400 . S
C620 C623 1.386 . S
H621 C637 0.930 . S
H622 C638 0.931 . S
C623 H611 0.929 . S
C623 C617 1.390 . S
C623 C620 1.386 . S
C624 C619 1.490 . S
C624 C626 1.395 . S
C624 C627 1.403 . S
H625 C631 0.930 . S
C626 H612 0.930 . S
C626 C624 1.395 . S
C626 C629 1.403 . S
C627 C624 1.403 . S
C627 C628 1.524 . S
C627 C631 1.400 . S
C628 H613 0.960 1_556 S
C628 H614 0.960 1_556 S
C628 H615 0.960 . S
C628 C627 1.524 . S
C629 C626 1.403 . S
C629 C630 1.392 . S
C629 C633 1.495 . S
C630 C629 1.392 . S
C630 C631 1.385 . S
C630 C632 1.478 . S
C631 H625 0.930 . S
C631 C627 1.400 . S
C631 C630 1.385 . S
C632 C630 1.478 . S
C632 C634 1.381 . S
C632 C638 1.383 . S
C633 C629 1.495 . S
C633 H639 0.959 . S
C633 H640 0.961 . S
C633 H641 0.960 . S
C634 C632 1.381 . S
C634 C635 1.394 . S
C634 H642 0.930 . S
C635 C634 1.394 . S
C635 C636 1.383 . S
C635 H643 0.929 . S
C636 C635 1.383 . S
C636 C637 1.377 . S
C637 H621 0.930 . S
C637 C636 1.377 . S
C637 C638 1.379 . S
C638 H622 0.931 . S
C638 C632 1.383 . S
C638 C637 1.379 . S
H639 C633 0.959 . S
H640 C633 0.961 . S
H641 C633 0.960 . S
H642 C634 0.930 . S
H643 C635 0.929 . S
H644 C652 0.929 . S
H645 C654 0.930 . S
H646 C656 0.930 . S
H647 C659 0.929 . S
H648 C662 0.930 . S
H649 C664 0.960 . S
H650 C664 0.960 . S
H651 C664 0.960 . S
C652 H644 0.929 . S
C652 C653 1.377 . S
C652 C654 1.384 . S
C653 C652 1.377 . S
C653 C659 1.390 . S
C654 H645 0.930 . S
C654 C652 1.384 . S
C654 C655 1.372 . S
C655 C654 1.372 . S
C655 C656 1.400 . S
C655 C660 1.490 . S
C656 H646 0.930 . S
C656 C655 1.400 . S
C656 C659 1.386 . S
H657 C673 0.930 . S
H658 C674 0.931 . S
C659 H647 0.929 . S
C659 C653 1.390 . S
C659 C656 1.386 . S
C660 C655 1.490 . S
C660 C662 1.395 . S
C660 C663 1.403 . S
H661 C667 0.930 . S
C662 H648 0.930 . S
C662 C660 1.395 . S
C662 C665 1.403 . S
C663 C660 1.403 . S
C663 C664 1.524 . S
C663 C667 1.400 . S
C664 H649 0.960 . S
C664 H650 0.960 . S
C664 H651 0.960 . S
C664 C663 1.524 . S
C665 C662 1.403 . S
C665 C666 1.392 . S
C665 C669 1.495 . S
C666 C665 1.392 . S
C666 C667 1.385 . S
C666 C668 1.478 . S
C667 H661 0.930 . S
C667 C663 1.400 . S
C667 C666 1.385 . S
C668 C666 1.478 . S
C668 C670 1.381 . S
C668 C674 1.383 . S
C669 C665 1.495 . S
C669 H675 0.959 . S
C669 H676 0.961 . S
C669 H677 0.960 . S
C670 C668 1.381 . S
C670 C671 1.394 . S
C670 H678 0.930 . S
C671 C670 1.394 . S
C671 C672 1.383 . S
C671 H679 0.929 . S
C672 C671 1.383 . S
C672 C673 1.377 . S
C673 H657 0.930 . S
C673 C672 1.377 . S
C673 C674 1.379 . S
C674 H658 0.931 . S
C674 C668 1.383 . S
C674 C673 1.379 . S
H675 C669 0.959 . S
H676 C669 0.961 . S
H677 C669 0.960 . S
H678 C670 0.930 . S
H679 C671 0.929 . S
H680 C688 0.929 . S
H681 C690 0.930 . S
H682 C692 0.930 . S
H683 C695 0.929 . S
H684 C698 0.930 . S
H685 C700 0.960 . S
H686 C700 0.960 . S
H687 C700 0.960 . S
C688 H680 0.929 . S
C688 C689 1.377 . S
C688 C690 1.384 . S
C689 C688 1.377 . S
C689 C695 1.390 . S
C690 H681 0.930 . S
C690 C688 1.384 . S
C690 C691 1.372 . S
C691 C690 1.372 . S
C691 C692 1.400 . S
C691 C696 1.490 . S
C692 H682 0.930 . S
C692 C691 1.400 . S
C692 C695 1.386 . S
H693 C709 0.930 . S
H694 C710 0.931 . S
C695 H683 0.929 . S
C695 C689 1.390 . S
C695 C692 1.386 . S
C696 C691 1.490 . S
C696 C698 1.395 . S
C696 C699 1.403 . S
H697 C703 0.930 . S
C698 H684 0.930 . S
C698 C696 1.395 . S
C698 C701 1.403 . S
C699 C696 1.403 . S
C699 C700 1.524 . S
C699 C703 1.400 . S
C700 H685 0.960 . S
C700 H686 0.960 . S
C700 H687 0.960 . S
C700 C699 1.524 . S
C701 C698 1.403 . S
C701 C702 1.392 . S
C701 C705 1.495 . S
C702 C701 1.392 . S
C702 C703 1.385 . S
C702 C704 1.478 . S
C703 H697 0.930 . S
C703 C699 1.400 . S
C703 C702 1.385 . S
C704 C702 1.478 . S
C704 C706 1.381 . S
C704 C710 1.383 . S
C705 C701 1.495 . S
C705 H711 0.959 1_455 S
C705 H712 0.961 . S
C705 H713 0.960 1_455 S
C706 C704 1.381 . S
C706 C707 1.394 . S
C706 H714 0.930 . S
C707 C706 1.394 . S
C707 C708 1.383 . S
C707 H715 0.929 1_455 S
C708 C707 1.383 . S
C708 C709 1.377 . S
C709 H693 0.930 . S
C709 C708 1.377 . S
C709 C710 1.379 . S
C710 H694 0.931 . S
C710 C704 1.383 . S
C710 C709 1.379 . S
H711 C705 0.959 1_655 S
H712 C705 0.961 . S
H713 C705 0.960 1_655 S
H714 C706 0.930 . S
H715 C707 0.929 1_655 S
H716 C724 0.929 . S
H717 C726 0.930 . S
H718 C728 0.930 . S
H719 C731 0.929 . S
H720 C734 0.930 . S
H721 C736 0.960 . S
H722 C736 0.960 . S
H723 C736 0.960 . S
C724 H716 0.929 . S
C724 C725 1.377 . S
C724 C726 1.384 . S
C725 C724 1.377 . S
C725 C731 1.390 . S
C726 H717 0.930 . S
C726 C724 1.384 . S
C726 C727 1.372 . S
C727 C726 1.372 . S
C727 C728 1.400 . S
C727 C732 1.490 . S
C728 H718 0.930 . S
C728 C727 1.400 . S
C728 C731 1.386 . S
H729 C745 0.944 . S
H730 C746 0.931 . S
C731 H719 0.929 . S
C731 C725 1.390 . S
C731 C728 1.386 . S
C732 C727 1.490 . S
C732 C734 1.395 . S
C732 C735 1.403 . S
H733 C739 0.930 . S
C734 H720 0.930 . S
C734 C732 1.395 . S
C734 C737 1.403 . S
C735 C732 1.403 . S
C735 C736 1.524 . S
C735 C739 1.400 . S
C736 H721 0.960 . S
C736 H722 0.960 . S
C736 H723 0.960 . S
C736 C735 1.524 . S
C737 C734 1.403 . S
C737 C738 1.392 . S
C737 C741 1.495 . S
C738 C737 1.392 . S
C738 C739 1.385 . S
C738 C740 1.478 . S
C739 H733 0.930 . S
C739 C735 1.400 . S
C739 C738 1.385 . S
C740 C738 1.478 . S
C740 C742 1.381 . S
C740 C746 1.383 . S
C741 C737 1.495 . S
C741 H747 0.959 . S
C741 H748 0.961 . S
C741 H749 0.960 . S
C742 C740 1.381 . S
C742 C743 1.394 . S
C742 H750 0.930 . S
C743 C742 1.394 . S
C743 C744 1.383 . S
C743 H751 0.929 . S
C744 C743 1.383 . S
C744 C745 1.377 . S
C745 H729 0.944 . S
C745 C744 1.377 . S
C745 C746 1.379 . S
C746 H730 0.931 . S
C746 C740 1.383 . S
C746 C745 1.379 . S
H747 C741 0.959 . S
H748 C741 0.961 . S
H749 C741 0.960 . S
H750 C742 0.930 . S
H751 C743 0.929 . S
H752 C760 0.929 . S
H753 C762 0.930 . S
H754 C764 0.930 . S
H755 C767 0.929 . S
H756 C770 0.930 . S
H757 C772 0.960 . S
H758 C772 0.960 . S
H759 C772 0.960 . S
C760 H752 0.929 . S
C760 C761 1.377 . S
C760 C762 1.384 . S
C761 C760 1.377 . S
C761 C767 1.390 . S
C762 H753 0.930 . S
C762 C760 1.384 . S
C762 C763 1.372 . S
C763 C762 1.372 . S
C763 C764 1.400 . S
C763 C768 1.490 . S
C764 H754 0.930 . S
C764 C763 1.400 . S
C764 C767 1.386 . S
H765 C781 0.930 . S
H766 C782 0.931 . S
C767 H755 0.929 . S
C767 C761 1.390 . S
C767 C764 1.386 . S
C768 C763 1.490 . S
C768 C770 1.395 . S
C768 C771 1.403 . S
H769 C775 0.930 . S
C770 H756 0.930 . S
C770 C768 1.395 . S
C770 C773 1.403 . S
C771 C768 1.403 . S
C771 C772 1.524 . S
C771 C775 1.400 . S
C772 H757 0.960 . S
C772 H758 0.960 . S
C772 H759 0.960 . S
C772 C771 1.524 . S
C773 C770 1.403 . S
C773 C774 1.392 . S
C773 C777 1.495 . S
C774 C773 1.392 . S
C774 C775 1.385 . S
C774 C776 1.478 . S
C775 H769 0.930 . S
C775 C771 1.400 . S
C775 C774 1.385 . S
C776 C774 1.478 . S
C776 C778 1.381 . S
C776 C782 1.383 . S
C777 C773 1.495 . S
C777 H783 0.959 . S
C777 H784 0.961 . S
C777 H785 0.960 . S
C778 C776 1.381 . S
C778 C779 1.394 . S
C778 H786 0.930 . S
C779 C778 1.394 . S
C779 C780 1.383 . S
C779 H787 0.929 . S
C780 C779 1.383 . S
C780 C781 1.377 . S
C781 H765 0.930 . S
C781 C780 1.377 . S
C781 C782 1.379 . S
C782 H766 0.931 . S
C782 C776 1.383 . S
C782 C781 1.379 . S
H783 C777 0.959 . S
H784 C777 0.961 . S
H785 C777 0.960 . S
H786 C778 0.930 . S
H787 C779 0.929 . S
H788 C796 0.929 . S
H789 C798 0.930 . S
H790 C800 0.930 . S
H791 C803 0.929 . S
H792 C806 0.930 . S
H793 C808 0.960 . S
H794 C808 0.960 . S
H795 C808 0.960 . S
C796 H788 0.929 . S
C796 C797 1.377 . S
C796 C798 1.384 . S
C797 C796 1.377 . S
C797 C803 1.390 . S
C798 H789 0.930 . S
C798 C796 1.384 . S
C798 C799 1.372 . S
C799 C798 1.372 . S
C799 C800 1.400 . S
C799 C804 1.490 . S
C800 H790 0.930 . S
C800 C799 1.400 . S
C800 C803 1.386 . S
H801 C817 0.930 . S
H802 C818 0.931 . S
C803 H791 0.929 . S
C803 C797 1.390 . S
C803 C800 1.386 . S
C804 C799 1.490 . S
C804 C806 1.395 . S
C804 C807 1.403 . S
H805 C811 0.930 . S
C806 H792 0.930 . S
C806 C804 1.395 . S
C806 C809 1.403 . S
C807 C804 1.403 . S
C807 C808 1.524 . S
C807 C811 1.400 . S
C808 H793 0.960 . S
C808 H794 0.960 . S
C808 H795 0.960 . S
C808 C807 1.524 . S
C809 C806 1.403 . S
C809 C810 1.392 . S
C809 C813 1.495 . S
C810 C809 1.392 . S
C810 C811 1.385 . S
C810 C812 1.478 . S
C811 H805 0.930 . S
C811 C807 1.400 . S
C811 C810 1.385 . S
C812 C810 1.478 . S
C812 C814 1.381 . S
C812 C818 1.383 . S
C813 C809 1.495 . S
C813 H819 0.959 . S
C813 H820 0.961 . S
C813 H821 0.960 . S
C814 C812 1.381 . S
C814 C815 1.394 . S
C814 H822 0.930 . S
C815 C814 1.394 . S
C815 C816 1.383 . S
C815 H823 0.929 . S
C816 C815 1.383 . S
C816 C817 1.377 . S
C817 H801 0.930 . S
C817 C816 1.377 . S
C817 C818 1.379 . S
C818 H802 0.931 . S
C818 C812 1.383 . S
C818 C817 1.379 . S
H819 C813 0.959 . S
H820 C813 0.961 . S
H821 C813 0.960 . S
H822 C814 0.930 . S
H823 C815 0.929 . S
H824 C832 0.929 . S
H825 C834 0.930 . S
H826 C836 0.930 . S
H827 C839 0.929 . S
H828 C842 0.930 . S
H829 C844 0.960 . S
H830 C844 0.960 . S
H831 C844 0.960 . S
C832 H824 0.929 . S
C832 C833 1.377 . S
C832 C834 1.384 . S
C833 C832 1.377 . S
C833 C839 1.390 . S
C834 H825 0.930 . S
C834 C832 1.384 . S
C834 C835 1.372 . S
C835 C834 1.372 . S
C835 C836 1.400 . S
C835 C840 1.490 . S
C836 H826 0.930 . S
C836 C835 1.400 . S
C836 C839 1.386 . S
H837 C853 0.930 1_545 S
H838 C854 0.931 1_545 S
C839 H827 0.929 . S
C839 C833 1.390 . S
C839 C836 1.386 . S
C840 C835 1.490 . S
C840 C842 1.395 . S
C840 C843 1.403 . S
H841 C847 0.930 . S
C842 H828 0.930 . S
C842 C840 1.395 . S
C842 C845 1.403 . S
C843 C840 1.403 . S
C843 C844 1.524 . S
C843 C847 1.400 . S
C844 H829 0.960 . S
C844 H830 0.960 . S
C844 H831 0.960 . S
C844 C843 1.524 . S
C845 C842 1.403 . S
C845 C846 1.392 . S
C845 C849 1.495 . S
C846 C845 1.392 . S
C846 C847 1.385 . S
C846 C848 1.478 . S
C847 H841 0.930 . S
C847 C843 1.400 . S
C847 C846 1.385 . S
C848 C846 1.478 . S
C848 C850 1.381 . S
C848 C854 1.383 . S
C849 C845 1.495 . S
C849 H855 0.959 . S
C849 H856 0.961 . S
C849 H857 0.960 . S
C850 C848 1.381 . S
C850 C851 1.394 . S
C850 H858 0.930 . S
C851 C850 1.394 . S
C851 C852 1.383 . S
C851 H859 0.929 . S
C852 C851 1.383 . S
C852 C853 1.377 . S
C853 H837 0.930 1_565 S
C853 C852 1.377 . S
C853 C854 1.379 . S
C854 H838 0.931 1_565 S
C854 C848 1.383 . S
C854 C853 1.379 . S
H855 C849 0.959 . S
H856 C849 0.961 . S
H857 C849 0.960 . S
H858 C850 0.930 . S
H859 C851 0.929 . S
H860 C868 0.929 . S
H861 C870 0.930 . S
H862 C872 0.930 . S
H863 C875 0.929 . S
H864 C878 0.930 . S
H865 C880 0.960 . S
H866 C880 0.960 . S
H867 C880 0.960 . S
C868 H860 0.929 . S
C868 C869 1.377 . S
C868 C870 1.384 . S
C869 C868 1.377 . S
C869 C875 1.390 . S
C870 H861 0.930 . S
C870 C868 1.384 . S
C870 C871 1.372 . S
C871 C870 1.372 . S
C871 C872 1.400 . S
C871 C876 1.490 . S
C872 H862 0.930 . S
C872 C871 1.400 . S
C872 C875 1.386 . S
H873 C889 0.930 . S
H874 C890 0.931 . S
C875 H863 0.929 . S
C875 C869 1.390 . S
C875 C872 1.386 . S
C876 C871 1.490 . S
C876 C878 1.395 . S
C876 C879 1.403 . S
H877 C883 0.930 . S
C878 H864 0.930 . S
C878 C876 1.395 . S
C878 C881 1.403 . S
C879 C876 1.403 . S
C879 C880 1.524 . S
C879 C883 1.400 . S
C880 H865 0.960 . S
C880 H866 0.960 . S
C880 H867 0.960 . S
C880 C879 1.524 . S
C881 C878 1.403 . S
C881 C882 1.392 . S
C881 C885 1.495 . S
C882 C881 1.392 . S
C882 C883 1.385 . S
C882 C884 1.478 . S
C883 H877 0.930 . S
C883 C879 1.400 . S
C883 C882 1.385 . S
C884 C882 1.478 . S
C884 C886 1.381 . S
C884 C890 1.383 . S
C885 C881 1.495 . S
C885 H891 0.959 . S
C885 H892 0.961 . S
C885 H893 0.960 . S
C886 C884 1.381 . S
C886 C887 1.394 . S
C886 H894 0.930 . S
C887 C886 1.394 . S
C887 C888 1.383 . S
C887 H895 0.929 . S
C888 C887 1.383 . S
C888 C889 1.377 . S
C889 H873 0.930 . S
C889 C888 1.377 . S
C889 C890 1.379 . S
C890 H874 0.931 . S
C890 C884 1.383 . S
C890 C889 1.379 . S
H891 C885 0.959 . S
H892 C885 0.961 . S
H893 C885 0.960 . S
H894 C886 0.930 . S
H895 C887 0.929 . S
H896 C904 0.929 . S
H897 C906 0.930 . S
H898 C908 0.930 . S
H899 C911 0.929 . S
H900 C914 0.930 . S
H901 C916 0.960 . S
H902 C916 0.960 . S
H903 C916 0.960 . S
C904 H896 0.929 . S
C904 C905 1.377 . S
C904 C906 1.384 . S
C905 C904 1.377 . S
C905 C911 1.390 . S
C906 H897 0.930 . S
C906 C904 1.384 . S
C906 C907 1.372 . S
C907 C906 1.372 . S
C907 C908 1.400 . S
C907 C912 1.490 . S
C908 H898 0.930 . S
C908 C907 1.400 . S
C908 C911 1.386 . S
H909 C925 0.930 . S
H910 C926 0.931 . S
C911 H899 0.929 . S
C911 C905 1.390 . S
C911 C908 1.386 . S
C912 C907 1.490 . S
C912 C914 1.395 . S
C912 C915 1.403 . S
H913 C919 0.930 . S
C914 H900 0.930 . S
C914 C912 1.395 . S
C914 C917 1.403 . S
C915 C912 1.403 . S
C915 C916 1.524 . S
C915 C919 1.400 . S
C916 H901 0.960 . S
C916 H902 0.960 . S
C916 H903 0.960 . S
C916 C915 1.524 . S
C917 C914 1.403 . S
C917 C918 1.392 . S
C917 C921 1.495 . S
C918 C917 1.392 . S
C918 C919 1.385 . S
C918 C920 1.478 . S
C919 H913 0.930 . S
C919 C915 1.400 . S
C919 C918 1.385 . S
C920 C918 1.478 . S
C920 C922 1.381 . S
C920 C926 1.383 . S
C921 C917 1.495 . S
C921 H927 0.959 . S
C921 H928 0.961 . S
C921 H929 0.960 . S
C922 C920 1.381 . S
C922 C923 1.394 . S
C922 H930 0.930 . S
C923 C922 1.394 . S
C923 C924 1.383 . S
C923 H931 0.929 . S
C924 C923 1.383 . S
C924 C925 1.377 . S
C925 H909 0.930 . S
C925 C924 1.377 . S
C925 C926 1.379 . S
C926 H910 0.931 . S
C926 C920 1.383 . S
C926 C925 1.379 . S
H927 C921 0.959 . S
H928 C921 0.961 . S
H929 C921 0.960 . S
H930 C922 0.930 . S
H931 C923 0.929 . S
H932 C940 0.929 . S
H933 C942 0.930 . S
H934 C944 0.930 . S
H935 C947 0.929 . S
H936 C950 0.930 . S
H937 C952 0.960 . S
H938 C952 0.960 . S
H939 C952 0.960 . S
C940 H932 0.929 . S
C940 C941 1.377 . S
C940 C942 1.384 . S
C941 C940 1.377 . S
C941 C947 1.390 . S
C942 H933 0.930 . S
C942 C940 1.384 . S
C942 C943 1.372 . S
C943 C942 1.372 . S
C943 C944 1.400 . S
C943 C948 1.490 . S
C944 H934 0.930 . S
C944 C943 1.400 . S
C944 C947 1.386 . S
H945 C961 0.930 . S
H946 C962 0.931 . S
C947 H935 0.929 . S
C947 C941 1.390 . S
C947 C944 1.386 . S
C948 C943 1.490 . S
C948 C950 1.395 . S
C948 C951 1.403 . S
H949 C955 0.930 . S
C950 H936 0.930 . S
C950 C948 1.395 . S
C950 C953 1.403 . S
C951 C948 1.403 . S
C951 C952 1.524 . S
C951 C955 1.400 . S
C952 H937 0.960 . S
C952 H938 0.960 . S
C952 H939 0.960 . S
C952 C951 1.524 . S
C953 C950 1.403 . S
C953 C954 1.392 . S
C953 C957 1.495 . S
C954 C953 1.392 . S
C954 C955 1.385 . S
C954 C956 1.478 . S
C955 H949 0.930 . S
C955 C951 1.400 . S
C955 C954 1.385 . S
C956 C954 1.478 . S
C956 C958 1.381 . S
C956 C962 1.383 . S
C957 C953 1.495 . S
C957 H963 0.959 . S
C957 H964 0.961 . S
C957 H965 0.960 . S
C958 C956 1.381 . S
C958 C959 1.394 . S
C958 H966 0.930 . S
C959 C958 1.394 . S
C959 C960 1.383 . S
C959 H967 0.929 . S
C960 C959 1.383 . S
C960 C961 1.377 . S
C961 H945 0.930 . S
C961 C960 1.377 . S
C961 C962 1.379 . S
C962 H946 0.931 . S
C962 C956 1.383 . S
C962 C961 1.379 . S
H963 C957 0.959 . S
H964 C957 0.961 . S
H965 C957 0.960 . S
H966 C958 0.930 . S
H967 C959 0.929 . S
H968 C976 0.929 . S
H969 C978 0.930 . S
H970 C980 0.930 . S
H971 C983 0.929 . S
H972 C986 0.930 . S
H973 C988 0.960 . S
H974 C988 0.960 . S
H975 C988 0.960 . S
C976 H968 0.929 . S
C976 C977 1.377 . S
C976 C978 1.384 . S
C977 C976 1.377 . S
C977 C983 1.390 . S
C978 H969 0.930 . S
C978 C976 1.384 . S
C978 C979 1.372 . S
C979 C978 1.372 . S
C979 C980 1.400 . S
C979 C984 1.490 . S
C980 H970 0.930 . S
C980 C979 1.400 . S
C980 C983 1.386 . S
H981 C997 0.930 1_554 S
H982 C998 0.931 . S
C983 H971 0.929 . S
C983 C977 1.390 . S
C983 C980 1.386 . S
C984 C979 1.490 . S
C984 C986 1.395 . S
C984 C987 1.403 . S
H985 C991 0.930 . S
C986 H972 0.930 . S
C986 C984 1.395 . S
C986 C989 1.403 . S
C987 C984 1.403 . S
C987 C988 1.524 . S
C987 C991 1.400 . S
C988 H973 0.960 . S
C988 H974 0.960 . S
C988 H975 0.960 . S
C988 C987 1.524 . S
C989 C986 1.403 . S
C989 C990 1.392 . S
C989 C993 1.495 . S
C990 C989 1.392 . S
C990 C991 1.385 . S
C990 C992 1.478 . S
C991 H985 0.930 . S
C991 C987 1.400 . S
C991 C990 1.385 . S
C992 C990 1.478 . S
C992 C994 1.381 . S
C992 C998 1.383 . S
C993 C989 1.495 . S
C993 H999 0.959 . S
C993 H1000 0.961 . S
C993 H1001 0.960 . S
C994 C992 1.381 . S
C994 C995 1.394 . S
C994 H1002 0.930 . S
C995 C994 1.394 . S
C995 C996 1.383 . S
C995 H1003 0.929 1_565 S
C996 C995 1.383 . S
C996 C997 1.377 . S
C997 H981 0.930 1_556 S
C997 C996 1.377 . S
C997 C998 1.379 . S
C998 H982 0.931 . S
C998 C992 1.383 . S
C998 C997 1.379 . S
H999 C993 0.959 . S
H1000 C993 0.961 . S
H1001 C993 0.960 . S
H1002 C994 0.930 . S
H1003 C995 0.929 1_545 S
H1004 C1012 0.929 . S
H1005 C1014 0.930 . S
H1006 C1016 0.930 . S
H1007 C1019 0.929 . S
H1008 C1022 0.930 . S
H1009 C1024 0.960 . S
H1010 C1024 0.960 . S
H1011 C1024 0.960 . S
C1012 H1004 0.929 . S
C1012 C1013 1.377 . S
C1012 C1014 1.384 . S
C1013 C1012 1.377 . S
C1013 C1019 1.390 . S
C1014 H1005 0.930 . S
C1014 C1012 1.384 . S
C1014 C1015 1.372 . S
C1015 C1014 1.372 . S
C1015 C1016 1.400 . S
C1015 C1020 1.490 . S
C1016 H1006 0.930 . S
C1016 C1015 1.400 . S
C1016 C1019 1.386 . S
H1017 C1033 0.930 . S
H1018 C1034 0.931 . S
C1019 H1007 0.929 . S
C1019 C1013 1.390 . S
C1019 C1016 1.386 . S
C1020 C1015 1.490 . S
C1020 C1022 1.395 . S
C1020 C1023 1.403 . S
H1021 C1027 0.930 . S
C1022 H1008 0.930 . S
C1022 C1020 1.395 . S
C1022 C1025 1.403 . S
C1023 C1020 1.403 . S
C1023 C1024 1.524 . S
C1023 C1027 1.400 . S
C1024 H1009 0.960 . S
C1024 H1010 0.960 . S
C1024 H1011 0.960 . S
C1024 C1023 1.524 . S
C1025 C1022 1.403 . S
C1025 C1026 1.392 . S
C1025 C1029 1.495 . S
C1026 C1025 1.392 . S
C1026 C1027 1.385 . S
C1026 C1028 1.478 . S
C1027 H1021 0.930 . S
C1027 C1023 1.400 . S
C1027 C1026 1.385 . S
C1028 C1026 1.478 . S
C1028 C1030 1.381 . S
C1028 C1034 1.383 . S
C1029 C1025 1.495 . S
C1029 H1035 0.959 . S
C1029 H1036 0.961 . S
C1029 H1037 0.960 . S
C1030 C1028 1.381 . S
C1030 C1031 1.394 . S
C1030 H1038 0.930 . S
C1031 C1030 1.394 . S
C1031 C1032 1.383 . S
C1031 H1039 0.929 . S
C1032 C1031 1.383 . S
C1032 C1033 1.377 . S
C1033 H1017 0.930 . S
C1033 C1032 1.377 . S
C1033 C1034 1.379 . S
C1034 H1018 0.931 . S
C1034 C1028 1.383 . S
C1034 C1033 1.379 . S
H1035 C1029 0.959 . S
H1036 C1029 0.961 . S
H1037 C1029 0.960 . S
H1038 C1030 0.930 . S
H1039 C1031 0.929 . S
H1040 C1048 0.929 . S
H1041 C1050 0.930 . S
H1042 C1052 0.930 . S
H1043 C1055 0.929 . S
H1044 C1058 0.930 . S
H1045 C1060 0.960 . S
H1046 C1060 0.960 . S
H1047 C1060 0.960 . S
C1048 H1040 0.929 . S
C1048 C1049 1.377 . S
C1048 C1050 1.384 . S
C1049 C1048 1.377 . S
C1049 C1055 1.390 . S
C1050 H1041 0.930 . S
C1050 C1048 1.384 . S
C1050 C1051 1.372 . S
C1051 C1050 1.372 . S
C1051 C1052 1.400 . S
C1051 C1056 1.490 . S
C1052 H1042 0.930 . S
C1052 C1051 1.400 . S
C1052 C1055 1.386 . S
H1053 C1069 0.930 . S
H1054 C1070 0.931 . S
C1055 H1043 0.929 . S
C1055 C1049 1.390 . S
C1055 C1052 1.386 . S
C1056 C1051 1.490 . S
C1056 C1058 1.395 . S
C1056 C1059 1.403 . S
H1057 C1063 0.930 . S
C1058 H1044 0.930 . S
C1058 C1056 1.395 . S
C1058 C1061 1.403 . S
C1059 C1056 1.403 . S
C1059 C1060 1.524 . S
C1059 C1063 1.400 . S
C1060 H1045 0.960 . S
C1060 H1046 0.960 . S
C1060 H1047 0.960 . S
C1060 C1059 1.524 . S
C1061 C1058 1.403 . S
C1061 C1062 1.392 . S
C1061 C1065 1.495 . S
C1062 C1061 1.392 . S
C1062 C1063 1.385 . S
C1062 C1064 1.478 . S
C1063 H1057 0.930 . S
C1063 C1059 1.400 . S
C1063 C1062 1.385 . S
C1064 C1062 1.478 . S
C1064 C1066 1.381 . S
C1064 C1070 1.383 . S
C1065 C1061 1.495 . S
C1065 H1071 0.959 . S
C1065 H1072 0.961 . S
C1065 H1073 0.960 . S
C1066 C1064 1.381 . S
C1066 C1067 1.394 . S
C1066 H1074 0.930 . S
C1067 C1066 1.394 . S
C1067 C1068 1.383 . S
C1067 H1075 0.929 . S
C1068 C1067 1.383 . S
C1068 C1069 1.377 . S
C1069 H1053 0.930 . S
C1069 C1068 1.377 . S
C1069 C1070 1.379 . S
C1070 H1054 0.931 . S
C1070 C1064 1.383 . S
C1070 C1069 1.379 . S
H1071 C1065 0.959 . S
H1072 C1065 0.961 . S
H1073 C1065 0.960 . S
H1074 C1066 0.930 . S
H1075 C1067 0.929 . S
H1076 C1084 0.929 . S
H1077 C1086 0.930 . S
H1078 C1088 0.930 . S
H1079 C1091 0.929 . S
H1080 C1094 0.930 . S
H1081 C1096 0.960 . S
H1082 C1096 0.960 . S
H1083 C1096 0.960 . S
C1084 H1076 0.929 . S
C1084 C1085 1.377 . S
C1084 C1086 1.384 . S
C1085 C1084 1.377 . S
C1085 C1091 1.390 . S
C1086 H1077 0.930 . S
C1086 C1084 1.384 . S
C1086 C1087 1.372 . S
C1087 C1086 1.372 . S
C1087 C1088 1.400 . S
C1087 C1092 1.490 . S
C1088 H1078 0.930 . S
C1088 C1087 1.400 . S
C1088 C1091 1.386 . S
H1089 C1105 0.930 . S
H1090 C1106 0.931 . S
C1091 H1079 0.929 . S
C1091 C1085 1.390 . S
C1091 C1088 1.386 . S
C1092 C1087 1.490 . S
C1092 C1094 1.395 . S
C1092 C1095 1.403 . S
H1093 C1099 0.930 . S
C1094 H1080 0.930 . S
C1094 C1092 1.395 . S
C1094 C1097 1.403 . S
C1095 C1092 1.403 . S
C1095 C1096 1.524 . S
C1095 C1099 1.400 . S
C1096 H1081 0.960 . S
C1096 H1082 0.960 . S
C1096 H1083 0.960 . S
C1096 C1095 1.524 . S
C1097 C1094 1.403 . S
C1097 C1098 1.392 . S
C1097 C1101 1.495 . S
C1098 C1097 1.392 . S
C1098 C1099 1.385 . S
C1098 C1100 1.478 . S
C1099 H1093 0.930 . S
C1099 C1095 1.400 . S
C1099 C1098 1.385 . S
C1100 C1098 1.478 . S
C1100 C1102 1.381 . S
C1100 C1106 1.383 . S
C1101 C1097 1.495 . S
C1101 H1107 0.959 . S
C1101 H1108 0.961 . S
C1101 H1109 0.960 . S
C1102 C1100 1.381 . S
C1102 C1103 1.394 . S
C1102 H1110 0.930 . S
C1103 C1102 1.394 . S
C1103 C1104 1.383 . S
C1103 H1111 0.929 . S
C1104 C1103 1.383 . S
C1104 C1105 1.377 . S
C1105 H1089 0.930 . S
C1105 C1104 1.377 . S
C1105 C1106 1.379 . S
C1106 H1090 0.931 . S
C1106 C1100 1.383 . S
C1106 C1105 1.379 . S
H1107 C1101 0.959 . S
H1108 C1101 0.961 . S
H1109 C1101 0.960 . S
H1110 C1102 0.930 . S
H1111 C1103 0.929 . S
H1112 C1120 0.929 . S
H1113 C1122 0.930 . S
H1114 C1124 0.930 . S
H1115 C1127 0.929 . S
H1116 C1130 0.930 . S
H1117 C1132 0.960 . S
H1118 C1132 0.960 . S
H1119 C1132 0.960 . S
C1120 H1112 0.929 . S
C1120 C1121 1.377 . S
C1120 C1122 1.384 . S
C1121 C1120 1.377 . S
C1121 C1127 1.390 . S
C1122 H1113 0.930 . S
C1122 C1120 1.384 . S
C1122 C1123 1.372 . S
C1123 C1122 1.372 . S
C1123 C1124 1.400 . S
C1123 C1128 1.490 . S
C1124 H1114 0.930 . S
C1124 C1123 1.400 . S
C1124 C1127 1.386 . S
H1125 C1141 0.930 . S
H1126 C1142 0.931 . S
C1127 H1115 0.929 . S
C1127 C1121 1.390 . S
C1127 C1124 1.386 . S
C1128 C1123 1.490 . S
C1128 C1130 1.395 . S
C1128 C1131 1.403 . S
H1129 C1135 0.930 . S
C1130 H1116 0.930 . S
C1130 C1128 1.395 . S
C1130 C1133 1.403 . S
C1131 C1128 1.403 . S
C1131 C1132 1.524 . S
C1131 C1135 1.400 . S
C1132 H1117 0.960 . S
C1132 H1118 0.960 . S
C1132 H1119 0.960 . S
C1132 C1131 1.524 . S
C1133 C1130 1.403 . S
C1133 C1134 1.392 . S
C1133 C1137 1.495 . S
C1134 C1133 1.392 . S
C1134 C1135 1.385 . S
C1134 C1136 1.478 . S
C1135 H1129 0.930 . S
C1135 C1131 1.400 . S
C1135 C1134 1.385 . S
C1136 C1134 1.478 . S
C1136 C1138 1.381 . S
C1136 C1142 1.383 . S
C1137 C1133 1.495 . S
C1137 H1143 0.960 . S
C1137 H1144 0.961 . S
C1137 H1145 0.960 1_556 S
C1138 C1136 1.381 . S
C1138 C1139 1.394 . S
C1138 H1146 0.930 1_556 S
C1139 C1138 1.394 . S
C1139 C1140 1.383 . S
C1139 H1147 0.929 1_556 S
C1140 C1139 1.383 . S
C1140 C1141 1.377 . S
C1141 H1125 0.930 . S
C1141 C1140 1.377 . S
C1141 C1142 1.379 . S
C1142 H1126 0.931 . S
C1142 C1136 1.383 . S
C1142 C1141 1.379 . S
H1143 C1137 0.960 . S
H1144 C1137 0.961 . S
H1145 C1137 0.960 1_554 S
H1146 C1138 0.930 1_554 S
H1147 C1139 0.929 1_554 S
H1148 C1156 0.929 . S
H1149 C1158 0.930 . S
H1150 C1160 0.930 . S
H1151 C1163 0.929 . S
H1152 C1166 0.930 . S
H1153 C1168 0.960 . S
H1154 C1168 0.960 . S
H1155 C1168 0.960 . S
C1156 H1148 0.929 . S
C1156 C1157 1.377 . S
C1156 C1158 1.384 . S
C1157 C1156 1.377 . S
C1157 C1163 1.390 . S
C1158 H1149 0.930 . S
C1158 C1156 1.384 . S
C1158 C1159 1.372 . S
C1159 C1158 1.372 . S
C1159 C1160 1.400 . S
C1159 C1164 1.490 . S
C1160 H1150 0.930 . S
C1160 C1159 1.400 . S
C1160 C1163 1.386 . S
H1161 C1177 0.930 . S
H1162 C1178 0.931 . S
C1163 H1151 0.929 . S
C1163 C1157 1.390 . S
C1163 C1160 1.386 . S
C1164 C1159 1.490 . S
C1164 C1166 1.395 . S
C1164 C1167 1.403 . S
H1165 C1171 0.930 . S
C1166 H1152 0.930 . S
C1166 C1164 1.395 . S
C1166 C1169 1.403 . S
C1167 C1164 1.403 . S
C1167 C1168 1.524 . S
C1167 C1171 1.400 . S
C1168 H1153 0.960 . S
C1168 H1154 0.960 . S
C1168 H1155 0.960 . S
C1168 C1167 1.524 . S
C1169 C1166 1.403 . S
C1169 C1170 1.392 . S
C1169 C1173 1.495 . S
C1170 C1169 1.392 . S
C1170 C1171 1.385 . S
C1170 C1172 1.478 . S
C1171 H1165 0.930 . S
C1171 C1167 1.400 . S
C1171 C1170 1.385 . S
C1172 C1170 1.478 . S
C1172 C1174 1.381 . S
C1172 C1178 1.383 . S
C1173 C1169 1.495 . S
C1173 H1179 0.959 . S
C1173 H1180 0.961 . S
C1173 H1181 0.960 . S
C1174 C1172 1.381 . S
C1174 C1175 1.394 . S
C1174 H1182 0.930 . S
C1175 C1174 1.394 . S
C1175 C1176 1.383 . S
C1175 H1183 0.929 . S
C1176 C1175 1.383 . S
C1176 C1177 1.377 . S
C1177 H1161 0.930 . S
C1177 C1176 1.377 . S
C1177 C1178 1.379 . S
C1178 H1162 0.931 . S
C1178 C1172 1.383 . S
C1178 C1177 1.379 . S
H1179 C1173 0.959 . S
H1180 C1173 0.961 . S
H1181 C1173 0.960 . S
H1182 C1174 0.930 . S
H1183 C1175 0.929 . S
H1184 C1192 0.929 . S
H1185 C1194 0.930 . S
H1186 C1196 0.930 . S
H1187 C1199 0.929 . S
H1188 C1202 0.930 . S
H1189 C1204 0.960 . S
H1190 C1204 0.960 . S
H1191 C1204 0.960 . S
C1192 H1184 0.929 . S
C1192 C1193 1.377 . S
C1192 C1194 1.384 . S
C1193 C1192 1.377 . S
C1193 C1199 1.390 . S
C1194 H1185 0.930 . S
C1194 C1192 1.384 . S
C1194 C1195 1.372 . S
C1195 C1194 1.372 . S
C1195 C1196 1.400 . S
C1195 C1200 1.490 . S
C1196 H1186 0.930 . S
C1196 C1195 1.400 . S
C1196 C1199 1.386 . S
H1197 C1213 0.930 . S
H1198 C1214 0.931 . S
C1199 H1187 0.929 . S
C1199 C1193 1.390 . S
C1199 C1196 1.386 . S
C1200 C1195 1.490 . S
C1200 C1202 1.395 . S
C1200 C1203 1.403 . S
H1201 C1207 0.930 . S
C1202 H1188 0.930 . S
C1202 C1200 1.395 . S
C1202 C1205 1.403 . S
C1203 C1200 1.403 . S
C1203 C1204 1.524 . S
C1203 C1207 1.400 . S
C1204 H1189 0.960 . S
C1204 H1190 0.960 . S
C1204 H1191 0.960 . S
C1204 C1203 1.524 . S
C1205 C1202 1.403 . S
C1205 C1206 1.392 . S
C1205 C1209 1.495 . S
C1206 C1205 1.392 . S
C1206 C1207 1.385 . S
C1206 C1208 1.478 . S
C1207 H1201 0.930 . S
C1207 C1203 1.400 . S
C1207 C1206 1.385 . S
C1208 C1206 1.478 . S
C1208 C1210 1.381 . S
C1208 C1214 1.383 . S
C1209 C1205 1.495 . S
C1209 H1215 0.959 . S
C1209 H1216 0.961 . S
C1209 H1217 0.960 . S
C1210 C1208 1.381 . S
C1210 C1211 1.394 . S
C1210 H1218 0.930 . S
C1211 C1210 1.394 . S
C1211 C1212 1.383 . S
C1211 H1219 0.929 . S
C1212 C1211 1.383 . S
C1212 C1213 1.377 . S
C1213 H1197 0.930 . S
C1213 C1212 1.377 . S
C1213 C1214 1.379 . S
C1214 H1198 0.931 . S
C1214 C1208 1.383 . S
C1214 C1213 1.379 . S
H1215 C1209 0.959 . S
H1216 C1209 0.961 . S
H1217 C1209 0.960 . S
H1218 C1210 0.930 . S
H1219 C1211 0.929 . S
H1220 C1228 0.929 . S
H1221 C1230 0.930 . S
H1222 C1232 0.930 . S
H1223 C1235 0.929 . S
H1224 C1238 0.930 . S
H1225 C1240 0.960 . S
H1226 C1240 0.960 . S
H1227 C1240 0.960 . S
C1228 H1220 0.929 . S
C1228 C1229 1.377 . S
C1228 C1230 1.384 . S
C1229 C1228 1.377 . S
C1229 C1235 1.390 . S
C1230 H1221 0.930 . S
C1230 C1228 1.384 . S
C1230 C1231 1.372 . S
C1231 C1230 1.372 . S
C1231 C1232 1.400 . S
C1231 C1236 1.490 . S
C1232 H1222 0.930 . S
C1232 C1231 1.400 . S
C1232 C1235 1.386 . S
H1233 C1249 0.930 . S
H1234 C1250 0.931 . S
C1235 H1223 0.929 . S
C1235 C1229 1.390 . S
C1235 C1232 1.386 . S
C1236 C1231 1.490 . S
C1236 C1238 1.395 . S
C1236 C1239 1.403 . S
H1237 C1243 0.930 . S
C1238 H1224 0.930 . S
C1238 C1236 1.395 . S
C1238 C1241 1.403 . S
C1239 C1236 1.403 . S
C1239 C1240 1.524 . S
C1239 C1243 1.400 . S
C1240 H1225 0.960 . S
C1240 H1226 0.960 . S
C1240 H1227 0.960 . S
C1240 C1239 1.524 . S
C1241 C1238 1.403 . S
C1241 C1242 1.392 . S
C1241 C1245 1.495 . S
C1242 C1241 1.392 . S
C1242 C1243 1.385 . S
C1242 C1244 1.478 . S
C1243 H1237 0.930 . S
C1243 C1239 1.400 . S
C1243 C1242 1.385 . S
C1244 C1242 1.478 . S
C1244 C1246 1.381 . S
C1244 C1250 1.383 . S
C1245 C1241 1.495 . S
C1245 H1251 0.959 . S
C1245 H1252 0.961 . S
C1245 H1253 0.960 . S
C1246 C1244 1.381 . S
C1246 C1247 1.394 . S
C1246 H1254 0.930 . S
C1247 C1246 1.394 . S
C1247 C1248 1.383 . S
C1247 H1255 0.929 . S
C1248 C1247 1.383 . S
C1248 C1249 1.377 . S
C1249 H1233 0.930 . S
C1249 C1248 1.377 . S
C1249 C1250 1.379 . S
C1250 H1234 0.931 . S
C1250 C1244 1.383 . S
C1250 C1249 1.379 . S
H1251 C1245 0.959 . S
H1252 C1245 0.961 . S
H1253 C1245 0.960 . S
H1254 C1246 0.930 . S
H1255 C1247 0.929 . S
C401 C29 2.283 . S
C420 C256 2.375 . S
C437 C49 2.227 . S
C456 C298 2.228 . S
C492 C328 0.961 . S
C473 C93 0.935 . S
C509 C119 0.933 . S
C528 C362 0.978 . S
C564 C319 1.843 . S
C545 C17 1.763 . S
C600 C273 1.892 . S
C581 C61 1.888 . S
C636 C366 1.301 . S
C617 C81 1.231 . S
C672 C332 1.431 . S
C653 C125 1.340 . S
C689 C23 2.091 . S
C708 C387 2.169 . S
C744 C294 1.064 . S
C725 C87 1.016 . S
C761 C113 1.071 . S
C780 C269 1.128 . S
C797 C55 2.160 . S
C816 C353 2.159 . S
C852 C285 2.298 . S
C833 C157 2.290 . S
C869 C189 2.189 . S
C888 C307 2.281 . S
C905 C221 0.952 . S
C924 C337 0.955 . S
C941 C253 0.978 . S
C960 C371 1.010 . S
C977 C145 1.894 . S
C996 C290 1.900 . S
C1032 C264 1.814 . S
C1013 C183 1.737 . S
C1068 C375 1.353 . S
C1049 C209 1.349 . S
C1104 C341 1.354 . S
C1085 C247 1.280 . S
C1121 C151 2.194 . S
C1140 C358 2.198 . S
C1176 C303 1.085 . S
C1157 C215 1.077 . S
C1212 C260 1.107 . S
C1193 C241 1.056 . S
C1229 C177 2.116 . S
C1248 C324 2.198 . S
