# Generated by pormake.
# Topology llk, (3,12)-cn, num edge types: 1
# Building blocks:
#     Node 0, Type 0, BuildingBlock: BELTOD_clean_linker_0, # of connection points: 3
#     Node 1, Type 0, BuildingBlock: BELTOD_clean_linker_0, # of connection points: 3
#     Node 2, Type 0, BuildingBlock: BELTOD_clean_linker_0, # of connection points: 3
#     Node 3, Type 0, BuildingBlock: BELTOD_clean_linker_0, # of connection points: 3
#     Node 4, Type 0, BuildingBlock: BELTOD_clean_linker_0, # of connection points: 3
#     Node 5, Type 0, BuildingBlock: BELTOD_clean_linker_0, # of connection points: 3
#     Node 6, Type 0, BuildingBlock: BELTOD_clean_linker_0, # of connection points: 3
#     Node 7, Type 0, BuildingBlock: BELTOD_clean_linker_0, # of connection points: 3
#     Node 8, Type 0, BuildingBlock: BELTOD_clean_linker_0, # of connection points: 3
#     Node 9, Type 0, BuildingBlock: BELTOD_clean_linker_0, # of connection points: 3
#     Node 10, Type 0, BuildingBlock: BELTOD_clean_linker_0, # of connection points: 3
#     Node 11, Type 0, BuildingBlock: BELTOD_clean_linker_0, # of connection points: 3
#     Node 12, Type 0, BuildingBlock: BELTOD_clean_linker_0, # of connection points: 3
#     Node 13, Type 0, BuildingBlock: BELTOD_clean_linker_0, # of connection points: 3
#     Node 14, Type 0, BuildingBlock: BELTOD_clean_linker_0, # of connection points: 3
#     Node 15, Type 0, BuildingBlock: BELTOD_clean_linker_0, # of connection points: 3
#     Node 16, Type 0, BuildingBlock: BELTOD_clean_linker_0, # of connection points: 3
#     Node 17, Type 0, BuildingBlock: BELTOD_clean_linker_0, # of connection points: 3
#     Node 18, Type 0, BuildingBlock: BELTOD_clean_linker_0, # of connection points: 3
#     Node 19, Type 0, BuildingBlock: BELTOD_clean_linker_0, # of connection points: 3
#     Node 20, Type 0, BuildingBlock: BELTOD_clean_linker_0, # of connection points: 3
#     Node 21, Type 0, BuildingBlock: BELTOD_clean_linker_0, # of connection points: 3
#     Node 22, Type 0, BuildingBlock: BELTOD_clean_linker_0, # of connection points: 3
#     Node 23, Type 0, BuildingBlock: BELTOD_clean_linker_0, # of connection points: 3
#     Node 24, Type 1, BuildingBlock: QEWDON_clean_sbu_0, # of connection points: 12
#     Node 25, Type 1, BuildingBlock: QEWDON_clean_sbu_0, # of connection points: 12
#     Node 26, Type 1, BuildingBlock: QEWDON_clean_sbu_0, # of connection points: 12
#     Node 27, Type 1, BuildingBlock: QEWDON_clean_sbu_0, # of connection points: 12
#     Node 28, Type 1, BuildingBlock: QEWDON_clean_sbu_0, # of connection points: 12
#     Node 29, Type 1, BuildingBlock: QEWDON_clean_sbu_0, # of connection points: 12
#     Edge 30, Type (0, 1), BuildingBlock: OJICUG_clean_linker_0, # of connection points: 2
#     Edge 31, Type (0, 1), BuildingBlock: OJICUG_clean_linker_0, # of connection points: 2
#     Edge 32, Type (0, 1), BuildingBlock: OJICUG_clean_linker_0, # of connection points: 2
#     Edge 33, Type (0, 1), BuildingBlock: OJICUG_clean_linker_0, # of connection points: 2
#     Edge 34, Type (0, 1), BuildingBlock: OJICUG_clean_linker_0, # of connection points: 2
#     Edge 35, Type (0, 1), BuildingBlock: OJICUG_clean_linker_0, # of connection points: 2
#     Edge 36, Type (0, 1), BuildingBlock: OJICUG_clean_linker_0, # of connection points: 2
#     Edge 37, Type (0, 1), BuildingBlock: OJICUG_clean_linker_0, # of connection points: 2
#     Edge 38, Type (0, 1), BuildingBlock: OJICUG_clean_linker_0, # of connection points: 2
#     Edge 39, Type (0, 1), BuildingBlock: OJICUG_clean_linker_0, # of connection points: 2
#     Edge 40, Type (0, 1), BuildingBlock: OJICUG_clean_linker_0, # of connection points: 2
#     Edge 41, Type (0, 1), BuildingBlock: OJICUG_clean_linker_0, # of connection points: 2
#     Edge 42, Type (0, 1), BuildingBlock: OJICUG_clean_linker_0, # of connection points: 2
#     Edge 43, Type (0, 1), BuildingBlock: OJICUG_clean_linker_0, # of connection points: 2
#     Edge 44, Type (0, 1), BuildingBlock: OJICUG_clean_linker_0, # of connection points: 2
#     Edge 45, Type (0, 1), BuildingBlock: OJICUG_clean_linker_0, # of connection points: 2
#     Edge 46, Type (0, 1), BuildingBlock: OJICUG_clean_linker_0, # of connection points: 2
#     Edge 47, Type (0, 1), BuildingBlock: OJICUG_clean_linker_0, # of connection points: 2
#     Edge 48, Type (0, 1), BuildingBlock: OJICUG_clean_linker_0, # of connection points: 2
#     Edge 49, Type (0, 1), BuildingBlock: OJICUG_clean_linker_0, # of connection points: 2
#     Edge 50, Type (0, 1), BuildingBlock: OJICUG_clean_linker_0, # of connection points: 2
#     Edge 51, Type (0, 1), BuildingBlock: OJICUG_clean_linker_0, # of connection points: 2
#     Edge 52, Type (0, 1), BuildingBlock: OJICUG_clean_linker_0, # of connection points: 2
#     Edge 53, Type (0, 1), BuildingBlock: OJICUG_clean_linker_0, # of connection points: 2
#     Edge 54, Type (0, 1), BuildingBlock: OJICUG_clean_linker_0, # of connection points: 2
#     Edge 55, Type (0, 1), BuildingBlock: OJICUG_clean_linker_0, # of connection points: 2
#     Edge 56, Type (0, 1), BuildingBlock: OJICUG_clean_linker_0, # of connection points: 2
#     Edge 57, Type (0, 1), BuildingBlock: OJICUG_clean_linker_0, # of connection points: 2
#     Edge 58, Type (0, 1), BuildingBlock: OJICUG_clean_linker_0, # of connection points: 2
#     Edge 59, Type (0, 1), BuildingBlock: OJICUG_clean_linker_0, # of connection points: 2
#     Edge 60, Type (0, 1), BuildingBlock: OJICUG_clean_linker_0, # of connection points: 2
#     Edge 61, Type (0, 1), BuildingBlock: OJICUG_clean_linker_0, # of connection points: 2
#     Edge 62, Type (0, 1), BuildingBlock: OJICUG_clean_linker_0, # of connection points: 2
#     Edge 63, Type (0, 1), BuildingBlock: OJICUG_clean_linker_0, # of connection points: 2
#     Edge 64, Type (0, 1), BuildingBlock: OJICUG_clean_linker_0, # of connection points: 2
#     Edge 65, Type (0, 1), BuildingBlock: OJICUG_clean_linker_0, # of connection points: 2
#     Edge 66, Type (0, 1), BuildingBlock: OJICUG_clean_linker_0, # of connection points: 2
#     Edge 67, Type (0, 1), BuildingBlock: OJICUG_clean_linker_0, # of connection points: 2
#     Edge 68, Type (0, 1), BuildingBlock: OJICUG_clean_linker_0, # of connection points: 2
#     Edge 69, Type (0, 1), BuildingBlock: OJICUG_clean_linker_0, # of connection points: 2
#     Edge 70, Type (0, 1), BuildingBlock: OJICUG_clean_linker_0, # of connection points: 2
#     Edge 71, Type (0, 1), BuildingBlock: OJICUG_clean_linker_0, # of connection points: 2
#     Edge 72, Type (0, 1), BuildingBlock: OJICUG_clean_linker_0, # of connection points: 2
#     Edge 73, Type (0, 1), BuildingBlock: OJICUG_clean_linker_0, # of connection points: 2
#     Edge 74, Type (0, 1), BuildingBlock: OJICUG_clean_linker_0, # of connection points: 2
#     Edge 75, Type (0, 1), BuildingBlock: OJICUG_clean_linker_0, # of connection points: 2
#     Edge 76, Type (0, 1), BuildingBlock: OJICUG_clean_linker_0, # of connection points: 2
#     Edge 77, Type (0, 1), BuildingBlock: OJICUG_clean_linker_0, # of connection points: 2
#     Edge 78, Type (0, 1), BuildingBlock: OJICUG_clean_linker_0, # of connection points: 2
#     Edge 79, Type (0, 1), BuildingBlock: OJICUG_clean_linker_0, # of connection points: 2
#     Edge 80, Type (0, 1), BuildingBlock: OJICUG_clean_linker_0, # of connection points: 2
#     Edge 81, Type (0, 1), BuildingBlock: OJICUG_clean_linker_0, # of connection points: 2
#     Edge 82, Type (0, 1), BuildingBlock: OJICUG_clean_linker_0, # of connection points: 2
#     Edge 83, Type (0, 1), BuildingBlock: OJICUG_clean_linker_0, # of connection points: 2
#     Edge 84, Type (0, 1), BuildingBlock: OJICUG_clean_linker_0, # of connection points: 2
#     Edge 85, Type (0, 1), BuildingBlock: OJICUG_clean_linker_0, # of connection points: 2
#     Edge 86, Type (0, 1), BuildingBlock: OJICUG_clean_linker_0, # of connection points: 2
#     Edge 87, Type (0, 1), BuildingBlock: OJICUG_clean_linker_0, # of connection points: 2
#     Edge 88, Type (0, 1), BuildingBlock: OJICUG_clean_linker_0, # of connection points: 2
#     Edge 89, Type (0, 1), BuildingBlock: OJICUG_clean_linker_0, # of connection points: 2
#     Edge 90, Type (0, 1), BuildingBlock: OJICUG_clean_linker_0, # of connection points: 2
#     Edge 91, Type (0, 1), BuildingBlock: OJICUG_clean_linker_0, # of connection points: 2
#     Edge 92, Type (0, 1), BuildingBlock: OJICUG_clean_linker_0, # of connection points: 2
#     Edge 93, Type (0, 1), BuildingBlock: OJICUG_clean_linker_0, # of connection points: 2
#     Edge 94, Type (0, 1), BuildingBlock: OJICUG_clean_linker_0, # of connection points: 2
#     Edge 95, Type (0, 1), BuildingBlock: OJICUG_clean_linker_0, # of connection points: 2
#     Edge 96, Type (0, 1), BuildingBlock: OJICUG_clean_linker_0, # of connection points: 2
#     Edge 97, Type (0, 1), BuildingBlock: OJICUG_clean_linker_0, # of connection points: 2
#     Edge 98, Type (0, 1), BuildingBlock: OJICUG_clean_linker_0, # of connection points: 2
#     Edge 99, Type (0, 1), BuildingBlock: OJICUG_clean_linker_0, # of connection points: 2
#     Edge 100, Type (0, 1), BuildingBlock: OJICUG_clean_linker_0, # of connection points: 2
#     Edge 101, Type (0, 1), BuildingBlock: OJICUG_clean_linker_0, # of connection points: 2
# Relax obj value: 0.120
# Max RMSD: 0.148
# Mean RMSD: 0.135
data_MOF--net-llk--node1-QEWDON_clean_sbu_0--node2-BELTOD_clean_linker_0--edge1-OJICUG_clean_linker_0
_symmetry_space_group_name_H-M    P1
_symmetry_Int_Tables_number       1
_symmetry_cell_setting            triclinic
loop_
_symmetry_equiv_pos_as_xyz
'x, y, z'
_cell_length_a     40.599178
_cell_length_b     41.899543
_cell_length_c     41.118694
_cell_angle_alpha  90.14283
_cell_angle_beta   90.069342
_cell_angle_gamma 89.535959
loop_
_atom_site_label
_atom_site_type_symbol
_atom_site_fract_x
_atom_site_fract_y
_atom_site_fract_z
_atom_type_partial_charge
P0 P 0.97574 0.28427 0.24818 0.0
H1 H 0.96346 0.29633 0.17918 0.0
H2 H 0.99079 0.33108 0.1407 0.0
H3 H 0.07229 0.3414 0.20756 0.0
H4 H 0.04388 0.30757 0.2467 0.0
H5 H 0.93543 0.23099 0.26759 0.0
H6 H 0.94451 0.18908 0.30662 0.0
H7 H 0.04835 0.21148 0.30926 0.0
H8 H 0.03831 0.25525 0.2711 0.0
H9 H 0.97738 0.35397 0.2483 0.0
H10 H 0.97299 0.27868 0.31977 0.0
O11 O 0.93713 0.28263 0.23431 0.0
H12 H 0.97879 0.39352 0.29194 0.0
H13 H 0.97501 0.31797 0.36315 0.0
C14 C 0.00158 0.29919 0.21592 0.0
C15 C 0.98766 0.30522 0.18529 0.0
C16 C 0.00342 0.32523 0.16314 0.0
C17 C 0.03362 0.33958 0.1711 0.0
C18 C 0.04875 0.33135 0.20083 0.0
C19 C 0.03283 0.31142 0.22305 0.0
C20 C 0.98625 0.24607 0.26579 0.0
C21 C 0.96043 0.22629 0.27553 0.0
C22 C 0.96574 0.20211 0.2982 0.0
C23 C -0.00276 0.19663 0.31157 0.0
C24 C 0.02361 0.21523 0.30011 0.0
C25 C 0.01808 0.2399 0.27764 0.0
C26 C 0.97611 0.31324 0.28058 0.0
C27 C 0.97716 0.34586 0.27328 0.0
C28 C 0.97811 0.36845 0.29825 0.0
C29 C 0.97751 0.35877 0.33095 0.0
C30 C 0.97556 0.32612 0.33818 0.0
C31 C 0.97466 0.30357 0.31322 0.0
P32 P 0.74266 0.98153 0.24035 0.0
H33 H 0.76311 0.96703 0.17386 0.0
H34 H 0.74598 0.99201 0.12328 0.0
H35 H 0.71065 0.07427 0.17671 0.0
H36 H 0.7286 0.0493 0.22745 0.0
H37 H 0.74991 0.95074 0.30218 0.0
H38 H 0.78569 0.9593 0.34883 0.0
H39 H 0.83471 0.03505 0.29708 0.0
H40 H 0.79755 0.02694 0.25061 0.0
H41 H 0.67815 0.9514 0.23102 0.0
H42 H 0.71883 0.0303 0.2849 0.0
O43 O 0.7449 0.94307 0.22981 0.0
H44 H 0.62395 0.96207 0.25548 0.0
H45 H 0.66544 0.04099 0.30921 0.0
C46 C 0.74613 0.00583 0.20451 0.0
C47 C 0.75315 0.99107 0.1747 0.0
C48 C 0.74338 0.00551 0.14565 0.0
C49 C 0.7262 0.0348 0.14612 0.0
C50 C 0.72336 0.05145 0.17571 0.0
C51 C 0.73362 0.03714 0.20474 0.0
C52 C 0.77149 0.98787 0.27286 0.0
C53 C 0.76849 0.9691 0.30081 0.0
C54 C 0.789 0.97403 0.32749 0.0
C55 C 0.81327 0.99772 0.32671 0.0
C56 C 0.81604 0.01681 0.29863 0.0
C57 C 0.79515 0.01197 0.27188 0.0
C58 C 0.70255 0.98958 0.25685 0.0
C59 C 0.67538 0.97103 0.248 0.0
C60 C 0.64448 0.97725 0.26178 0.0
C61 C 0.6404 0.00247 0.2841 0.0
C62 C 0.66754 0.02176 0.29166 0.0
C63 C 0.69826 0.01537 0.27815 0.0
P64 P 0.08629 0.75648 0.25559 0.0
H65 H 0.09465 0.75153 0.18538 0.0
H66 H 0.06731 0.71923 0.1443 0.0
H67 H -0.00458 0.6898 0.21545 0.0
H68 H 0.02322 0.72218 0.25659 0.0
H69 H 0.12519 0.81068 0.27721 0.0
H70 H 0.10866 0.86114 0.30283 0.0
H71 H 0.00708 0.84155 0.27995 0.0
H72 H 0.02373 0.79159 0.25337 0.0
H73 H 0.11022 0.6939 0.27642 0.0
H74 H 0.04763 0.76865 0.3151 0.0
O75 O 0.12589 0.75392 0.24497 0.0
H76 H 0.09392 0.65899 0.32142 0.0
H77 H 0.03122 0.734 0.35922 0.0
C78 C 0.06153 0.7386 0.22416 0.0
C79 C 0.07262 0.73868 0.19198 0.0
C80 C 0.05668 0.72034 0.16843 0.0
C81 C 0.02921 0.70163 0.17661 0.0
C82 C 0.01673 0.70355 0.20845 0.0
C83 C 0.03265 0.72207 0.23198 0.0
C84 C 0.0757 0.79755 0.26318 0.0
C85 C 0.09954 0.81793 0.27632 0.0
C86 C 0.09012 0.84668 0.29103 0.0
C87 C 0.05666 0.85491 0.29342 0.0
C88 C 0.03305 0.8356 0.27824 0.0
C89 C 0.04256 0.80721 0.2629 0.0
C90 C 0.08032 0.73395 0.29232 0.0
C91 C 0.09373 0.70311 0.29495 0.0
C92 C 0.08443 0.68322 0.32059 0.0
C93 C 0.06115 0.69386 0.34351 0.0
C94 C 0.04903 0.72524 0.34167 0.0
C95 C 0.05854 0.74511 0.31634 0.0
P96 P 0.24251 0.92722 0.25019 0.0
H97 H 0.17582 0.90321 0.26179 0.0
H98 H 0.13242 0.92388 0.29727 0.0
H99 H 0.18514 0.01268 0.30659 0.0
H100 H 0.22785 0.9921 0.27127 0.0
H101 H 0.29003 0.9001 0.20503 0.0
H102 H 0.3242 0.92406 0.16267 0.0
H103 H 0.27173 0.01326 0.17447 0.0
H104 H 0.23669 0.98899 0.21564 0.0
H105 H 0.24469 0.90083 0.31552 0.0
H106 H 0.29715 0.97177 0.26061 0.0
O107 O 0.2369 0.88801 0.24595 0.0
H108 H 0.27252 0.91844 0.36524 0.0
H109 H 0.3252 0.98901 0.30974 0.0
C110 C 0.20494 0.94623 0.26337 0.0
C111 C 0.17726 0.92764 0.27026 0.0
C112 C 0.15263 0.93937 0.29094 0.0
C113 C 0.15545 0.96982 0.30517 0.0
C114 C 0.18178 0.98933 0.29581 0.0
C115 C 0.20628 0.9776 0.27521 0.0
C116 C 0.26076 0.94269 0.21358 0.0
C117 C 0.28507 0.92449 0.19771 0.0
C118 C 0.30465 0.93817 0.17361 0.0
C119 C 0.30066 0.9705 0.16563 0.0
C120 C 0.27532 0.9883 0.18043 0.0
C121 C 0.2553 0.9744 0.20402 0.0
C122 C 0.26941 0.93437 0.28418 0.0
C123 C 0.26291 0.91951 0.31398 0.0
C124 C 0.27853 0.92983 0.34241 0.0
C125 C 0.30066 0.95545 0.34149 0.0
C126 C 0.30772 0.96969 0.3114 0.0
C127 C 0.29214 0.95935 0.28307 0.0
P128 P 0.92932 0.75267 0.76225 0.0
H129 H 0.9061 0.74205 0.82855 0.0
H130 H 0.92544 0.7066 0.87096 0.0
H131 H 0.01543 0.68964 0.81706 0.0
H132 H -0.00548 0.72357 0.7735 0.0
H133 H 0.89834 0.81079 0.73758 0.0
H134 H 0.92017 0.85627 0.70794 0.0
H135 H 0.01909 0.82082 0.72412 0.0
H136 H -0.00291 0.77594 0.75446 0.0
H137 H 0.92139 0.68364 0.76106 0.0
H138 H 0.9462 0.75755 0.69251 0.0
O139 O 0.88914 0.75747 0.76953 0.0
H140 H 0.93472 0.64304 0.72024 0.0
H141 H 0.95997 0.71721 0.65205 0.0
C142 C 0.94883 0.7357 0.79781 0.0
C143 C 0.93037 0.73142 0.82617 0.0
C144 C 0.94171 0.71107 0.85068 0.0
C145 C 0.97207 0.69472 0.84758 0.0
C146 C 0.99169 0.70117 0.82018 0.0
C147 C 0.98004 0.72123 0.79542 0.0
C148 C 0.94606 0.79014 0.74881 0.0
C149 C 0.92479 0.81332 0.73571 0.0
C150 C 0.93729 0.83913 0.7183 0.0
C151 C 0.97139 0.84209 0.71331 0.0
C152 C 0.99272 0.81956 0.72777 0.0
C153 C 0.98015 0.7938 0.74528 0.0
C154 C 0.93377 0.72359 0.73024 0.0
C155 C 0.92943 0.69116 0.73719 0.0
C156 C 0.93712 0.66799 0.7139 0.0
C157 C 0.94886 0.67695 0.68313 0.0
C158 C 0.95092 0.70956 0.67551 0.0
C159 C 0.94334 0.7327 0.69886 0.0
P160 P 0.30462 0.93111 0.79262 0.0
H161 H 0.32887 0.89853 0.84956 0.0
H162 H 0.35925 0.91971 0.89594 0.0
H163 H 0.32625 0.01485 0.87167 0.0
H164 H 0.29627 0.99358 0.82469 0.0
H165 H 0.23306 0.93454 0.78473 0.0
H166 H 0.19792 0.96031 0.74385 0.0
H167 H 0.28299 0.00649 0.70301 0.0
H168 H 0.31784 0.98145 0.74426 0.0
H169 H 0.33234 0.89634 0.73742 0.0
H170 H 0.36544 0.96662 0.80691 0.0
O171 O 0.29009 0.89397 0.79305 0.0
H172 H 0.38224 0.90477 0.70547 0.0
H173 H 0.41507 0.97465 0.7755 0.0
C174 C 0.31021 0.94447 0.83378 0.0
C175 C 0.32663 0.92373 0.85517 0.0
C176 C 0.34427 0.93586 0.8815 0.0
C177 C 0.34534 0.96887 0.887 0.0
C178 C 0.32561 0.98926 0.86794 0.0
C179 C 0.30825 0.97711 0.84125 0.0
C180 C 0.27814 0.95555 0.76734 0.0
C181 C 0.24404 0.95078 0.76748 0.0
C182 C 0.22401 0.96552 0.74408 0.0
C183 C 0.23783 0.98512 0.71998 0.0
C184 C 0.27177 0.99117 0.72098 0.0
C185 C 0.29168 0.97683 0.74469 0.0
C186 C 0.34503 0.93063 0.77463 0.0
C187 C 0.35081 0.91263 0.74647 0.0
C188 C 0.37941 0.9174 0.72833 0.0
C189 C 0.40242 0.94051 0.73801 0.0
C190 C 0.39765 0.95683 0.76744 0.0
C191 C 0.36914 0.95207 0.7855 0.0
P192 P 0.07008 0.25785 0.75786 0.0
H193 H 0.10594 0.29284 0.80696 0.0
H194 H 0.08841 0.32965 0.84956 0.0
H195 H 0.98689 0.30564 0.83073 0.0
H196 H 0.00482 0.26805 0.78821 0.0
H197 H 0.08274 0.18957 0.76366 0.0
H198 H 0.06394 0.14534 0.7307 0.0
H199 H 0.98796 0.20569 0.68913 0.0
H200 H 0.0079 0.25043 0.72184 0.0
H201 H 0.03214 0.31709 0.74683 0.0
H202 H 0.1039 0.25963 0.69549 0.0
O203 O 0.10931 0.24669 0.76298 0.0
H204 H 0.02961 0.35403 0.70146 0.0
H205 H 0.10099 0.29646 0.64936 0.0
C206 C 0.05672 0.2774 0.79467 0.0
C207 C 0.07995 0.29462 0.81265 0.0
C208 C 0.06989 0.31598 0.83679 0.0
C209 C 0.03626 0.3209 0.8432 0.0
C210 C 0.013 0.3022 0.82649 0.0
C211 C 0.02318 0.28066 0.80226 0.0
C212 C 0.04725 0.22346 0.74468 0.0
C213 C 0.06134 0.1931 0.7483 0.0
C214 C 0.05033 0.16761 0.72937 0.0
C215 C 0.02476 0.17196 0.70653 0.0
C216 C 0.00822 0.20164 0.70581 0.0
C217 C 0.0194 0.2272 0.72477 0.0
C218 C 0.06889 0.28601 0.72492 0.0
C219 C 0.04752 0.31242 0.7259 0.0
C220 C 0.04574 0.33339 0.69965 0.0
C221 C 0.06507 0.32815 0.67177 0.0
C222 C 0.0861 0.30134 0.67066 0.0
C223 C 0.08783 0.28035 0.69699 0.0
P224 P 0.77934 0.1395 0.7821 0.0
H225 H 0.75725 0.15622 0.84814 0.0
H226 H 0.71664 0.13181 0.88442 0.0
H227 H 0.70576 0.05367 0.81665 0.0
H228 H 0.7463 0.07791 0.78079 0.0
H229 H 0.83778 0.16934 0.75696 0.0
H230 H 0.88445 0.14456 0.73037 0.0
H231 H 0.86086 0.05461 0.77593 0.0
H232 H 0.8128 0.07964 0.80116 0.0
H233 H 0.71709 0.15822 0.75157 0.0
H234 H 0.80239 0.10145 0.72545 0.0
O235 O 0.7779 0.17872 0.78913 0.0
H236 H 0.68978 0.141 0.70134 0.0
H237 H 0.77582 0.08514 0.67575 0.0
C238 C 0.75434 0.11914 0.81153 0.0
C239 C 0.74643 0.13363 0.84134 0.0
C240 C 0.72323 0.1197 0.86202 0.0
C241 C 0.70752 0.09122 0.85299 0.0
C242 C 0.71685 0.07603 0.82386 0.0
C243 C 0.7402 0.08976 0.80345 0.0
C244 C 0.82158 0.12633 0.78073 0.0
C245 C 0.84358 0.14469 0.76263 0.0
C246 C 0.87043 0.13025 0.7472 0.0
C247 C 0.87595 0.09713 0.74994 0.0
C248 C 0.85669 0.0799 0.77225 0.0
C249 C 0.82946 0.09434 0.78729 0.0
C250 C 0.7619 0.13147 0.74249 0.0
C251 C 0.73028 0.1428 0.73479 0.0
C252 C 0.71476 0.13301 0.70605 0.0
C253 C 0.73066 0.11158 0.68469 0.0
C254 C 0.76281 0.10136 0.69188 0.0
C255 C 0.77817 0.11102 0.7205 0.0
P256 P 0.24973 0.2816 0.93439 0.0
H257 H 0.27 0.21657 0.91743 0.0
H258 H 0.31314 0.18283 0.9407 0.0
H259 H 0.31888 0.24558 0.02398 0.0
H260 H 0.27568 0.27915 0.00071 0.0
H261 H 0.19366 0.30654 0.89896 0.0
H262 H 0.14538 0.33654 0.91612 0.0
H263 H 0.16937 0.31724 0.01663 0.0
H264 H 0.21789 0.28672 -0.00094 0.0
H265 H 0.31511 0.28952 0.90795 0.0
H266 H 0.24942 0.34254 0.97079 0.0
O267 O 0.24746 0.27065 0.89539 0.0
H268 H 0.36024 0.32454 0.92335 0.0
H269 H 0.29416 0.378 0.98573 0.0
C270 C 0.26937 0.25033 0.95736 0.0
C271 C 0.27958 0.22247 0.94126 0.0
C272 C 0.30467 0.20346 0.95434 0.0
C273 C 0.31997 0.21206 0.98374 0.0
C274 C 0.3076 0.23835 0.00127 0.0
C275 C 0.28251 0.25736 0.98813 0.0
C276 C 0.20946 0.29436 0.94767 0.0
C277 C 0.18795 0.30764 0.92466 0.0
C278 C 0.16016 0.32478 0.93456 0.0
C279 C 0.15358 0.32946 0.9678 0.0
C280 C 0.17392 0.3142 0.99085 0.0
C281 C 0.20163 0.29665 0.98082 0.0
C282 C 0.27877 0.31359 0.93781 0.0
C283 C 0.3101 0.30942 0.92412 0.0
C284 C 0.33594 0.32936 0.93313 0.0
C285 C 0.33087 0.35383 0.95609 0.0
C286 C 0.299 0.35896 0.96848 0.0
C287 C 0.2732 0.33892 0.95953 0.0
P288 P 0.22668 0.78943 0.97407 0.0
H289 H 0.15582 0.80207 0.96815 0.0
H290 H 0.11032 0.7667 0.98085 0.0
H291 H 0.17589 0.7095 0.0404 0.0
H292 H 0.21978 0.74692 0.03042 0.0
H293 H 0.23769 0.85085 0.94246 0.0
H294 H 0.27566 0.89366 0.95452 0.0
H295 H 0.29796 0.84968 0.04722 0.0
H296 H 0.25734 0.8086 0.03597 0.0
H297 H 0.22022 0.7232 0.95403 0.0
H298 H 0.29722 0.78237 0.99351 0.0
O299 O 0.21451 0.79438 0.9356 0.0
H300 H 0.2548 0.67576 0.96294 0.0
H301 H 0.33091 0.7353 0.00334 0.0
C302 C 0.19154 0.77617 0.99702 0.0
C303 C 0.15987 0.78286 0.98531 0.0
C304 C 0.13398 0.7621 0.99213 0.0
C305 C 0.13979 0.73379 0.00983 0.0
C306 C 0.17024 0.73043 0.02603 0.0
C307 C 0.1957 0.75194 0.02018 0.0
C308 C 0.24539 0.82599 0.98795 0.0
C309 C 0.24988 0.85099 0.96588 0.0
C310 C 0.27218 0.87532 0.97265 0.0
C311 C 0.29137 0.87459 0.00122 0.0
C312 C 0.28405 0.85128 0.02483 0.0
C313 C 0.26075 0.82755 0.01844 0.0
C314 C 0.25554 0.75638 0.97405 0.0
C315 C 0.24459 0.72609 0.96432 0.0
C316 C 0.26419 0.699 0.9696 0.0
C317 C 0.295 0.70189 0.98476 0.0
C318 C 0.30672 0.73239 0.99264 0.0
C319 C 0.28731 0.75943 0.98702 0.0
P320 P 0.82119 0.2848 0.95203 0.0
H321 H 0.89304 0.28311 0.94503 0.0
H322 H 0.9371 0.30851 0.97614 0.0
H323 H 0.8653 0.34124 0.04667 0.0
H324 H 0.82205 0.3148 0.01624 0.0
H325 H 0.80299 0.23072 0.91087 0.0
H326 H 0.77286 0.18214 0.92244 0.0
H327 H 0.77629 0.20468 0.02524 0.0
H328 H 0.80904 0.25146 0.01336 0.0
H329 H 0.81123 0.351 0.93132 0.0
H330 H 0.75657 0.2805 0.98487 0.0
O331 O 0.83377 0.28631 0.91343 0.0
H332 H 0.76725 0.39042 0.94205 0.0
H333 H 0.7138 0.31949 0.99605 0.0
C334 C 0.85424 0.29773 0.97797 0.0
C335 C 0.88701 0.29521 0.96757 0.0
C336 C 0.91214 0.30992 0.98531 0.0
C337 C 0.90482 0.32741 0.01374 0.0
C338 C 0.87212 0.32781 0.02515 0.0
C339 C 0.84715 0.31293 0.00753 0.0
C340 C 0.80804 0.24484 0.96124 0.0
C341 C 0.79831 0.22452 0.93598 0.0
C342 C 0.7805 0.19691 0.94269 0.0
C343 C 0.77089 0.18973 0.97477 0.0
C344 C 0.78311 0.20896 0.00021 0.0
C345 C 0.8019 0.23599 0.99348 0.0
C346 C 0.7873 0.31261 0.95702 0.0
C347 C 0.7898 0.34388 0.94509 0.0
C348 C 0.76484 0.36639 0.95134 0.0
C349 C 0.73744 0.35803 0.97026 0.0
C350 C 0.73497 0.32671 0.98192 0.0
C351 C 0.75953 0.30423 0.97529 0.0
P352 P 0.80326 0.77058 0.02767 0.0
H353 H 0.87017 0.77419 0.00208 0.0
H354 H 0.90731 0.73203 0.98321 0.0
H355 H 0.82514 0.66694 0.97896 0.0
H356 H 0.7882 0.71002 0.99363 0.0
H357 H 0.79438 0.83316 0.05583 0.0
H358 H 0.757 0.8754 0.04019 0.0
H359 H 0.74694 0.8328 0.94472 0.0
H360 H 0.78365 0.78927 0.96159 0.0
H361 H 0.79063 0.71084 0.06208 0.0
H362 H 0.73248 0.78813 0.02195 0.0
O363 O 0.82596 0.77729 0.06082 0.0
H364 H 0.74038 0.6795 0.06869 0.0
H365 H 0.68302 0.75767 0.02938 0.0
C366 C 0.82677 0.74474 0.00114 0.0
C367 C 0.86006 0.75116 0.99567 0.0
C368 C 0.88134 0.72677 0.98531 0.0
C369 C 0.86979 0.69527 0.98165 0.0
C370 C 0.83549 0.69044 0.98223 0.0
C371 C 0.81414 0.71517 0.99137 0.0
C372 C 0.79192 0.80815 0.00986 0.0
C373 C 0.7855 0.83367 0.03098 0.0
C374 C 0.76377 0.85794 0.0219 0.0
C375 C 0.74819 0.85733 0.99129 0.0
C376 C 0.75777 0.83362 0.96877 0.0
C377 C 0.77938 0.80905 0.97809 0.0
C378 C 0.76576 0.75134 0.0403 0.0
C379 C 0.76714 0.72139 0.05542 0.0
C380 C 0.73841 0.70359 0.05935 0.0
C381 C 0.70793 0.7159 0.04872 0.0
C382 C 0.70632 0.74722 0.03685 0.0
C383 C 0.73492 0.76472 0.03256 0.0
P384 P 0.47265 0.76936 0.73366 0.0
H385 H 0.46965 0.77089 0.66244 0.0
H386 H 0.49764 0.80473 0.62317 0.0
H387 H 0.56296 0.83751 0.69922 0.0
H388 H 0.5363 0.80213 0.7375 0.0
H389 H 0.43008 0.72093 0.7601 0.0
H390 H 0.44039 0.67766 0.79792 0.0
H391 H 0.54522 0.69034 0.78632 0.0
H392 H 0.53449 0.73401 0.74786 0.0
H393 H 0.43855 0.83063 0.74332 0.0
H394 H 0.50978 0.77266 0.79487 0.0
O395 O 0.43472 0.76874 0.71797 0.0
H396 H 0.44573 0.87332 0.7839 0.0
H397 H 0.51709 0.81482 0.8345 0.0
C398 C 0.50036 0.78445 0.70311 0.0
C399 C 0.49075 0.78453 0.67037 0.0
C400 C 0.50652 0.80437 0.64801 0.0
C401 C 0.53197 0.82488 0.65808 0.0
C402 C 0.54352 0.82229 0.6903 0.0
C403 C 0.52808 0.80202 0.71246 0.0
C404 C 0.48147 0.73061 0.7509 0.0
C405 C 0.45533 0.71358 0.76448 0.0
C406 C 0.4613 0.68872 0.78628 0.0
C407 C 0.49367 0.6806 0.79544 0.0
C408 C 0.51999 0.69616 0.77996 0.0
C409 C 0.51392 0.72088 0.75768 0.0
C410 C 0.47311 0.79812 0.76629 0.0
C411 C 0.45509 0.82674 0.76364 0.0
C412 C 0.45929 0.85111 0.78663 0.0
C413 C 0.48215 0.84725 0.812 0.0
C414 C 0.49952 0.81837 0.81494 0.0
C415 C 0.49504 0.79405 0.79235 0.0
P416 P 0.29646 0.5082 0.74781 0.0
H417 H 0.31934 0.50332 0.68045 0.0
H418 H 0.29237 0.5214 0.63067 0.0
H419 H 0.22835 0.58247 0.68796 0.0
H420 H 0.25706 0.56613 0.73682 0.0
H421 H 0.35143 0.4711 0.77354 0.0
H422 H 0.39403 0.48297 0.81316 0.0
H423 H 0.36161 0.58134 0.81634 0.0
H424 H 0.31906 0.56938 0.77545 0.0
H425 H 0.2326 0.48 0.73578 0.0
H426 H 0.27616 0.54003 0.80928 0.0
O427 O 0.30191 0.47065 0.73509 0.0
H428 H 0.17876 0.4864 0.76179 0.0
H429 H 0.22268 0.54648 0.83524 0.0
C430 C 0.28921 0.53237 0.71237 0.0
C431 C 0.30055 0.52175 0.68205 0.0
C432 C 0.28474 0.53185 0.65359 0.0
C433 C 0.25692 0.55214 0.65528 0.0
C434 C 0.24927 0.56649 0.68539 0.0
C435 C 0.26562 0.55693 0.71368 0.0
C436 C 0.33189 0.51932 0.77167 0.0
C437 C 0.35393 0.49548 0.78191 0.0
C438 C 0.3785 0.50233 0.80454 0.0
C439 C 0.38118 0.53309 0.81788 0.0
C440 C 0.36007 0.55741 0.80644 0.0
C441 C 0.33583 0.55063 0.78313 0.0
C442 C 0.25861 0.50908 0.77079 0.0
C443 C 0.23073 0.49406 0.75785 0.0
C444 C 0.19993 0.4979 0.77259 0.0
C445 C 0.1964 0.51722 0.80037 0.0
C446 C 0.22449 0.53192 0.8135 0.0
C447 C 0.25528 0.52792 0.79883 0.0
P448 P 0.49979 0.23662 0.76166 0.0
H449 H 0.52316 0.24095 0.69535 0.0
H450 H 0.51742 0.20535 0.64909 0.0
H451 H 0.43978 0.15518 0.69885 0.0
H452 H 0.44571 0.19146 0.74537 0.0
H453 H 0.53999 0.29393 0.75513 0.0
H454 H 0.53611 0.34432 0.78438 0.0
H455 H 0.43627 0.32257 0.81192 0.0
H456 H 0.43991 0.27219 0.7814 0.0
H457 H 0.49466 0.16829 0.77622 0.0
H458 H 0.48562 0.25712 0.82906 0.0
O459 O 0.54076 0.23311 0.76042 0.0
H460 H 0.49042 0.13921 0.82724 0.0
H461 H 0.47939 0.22833 0.87918 0.0
C462 C 0.48556 0.21841 0.72423 0.0
C463 C 0.50409 0.22302 0.69596 0.0
C464 C 0.5007 0.20247 0.66935 0.0
C465 C 0.4785 0.17679 0.67028 0.0
C466 C 0.45763 0.17419 0.6975 0.0
C467 C 0.4609 0.19507 0.72411 0.0
C468 C 0.49059 0.27872 0.76696 0.0
C469 C 0.51666 0.30048 0.76609 0.0
C470 C 0.51446 0.32941 0.78298 0.0
C471 C 0.48622 0.33695 0.80123 0.0
C472 C 0.45853 0.31711 0.79845 0.0
C473 C 0.46046 0.28849 0.78065 0.0
C474 C 0.48847 0.21507 0.79799 0.0
C475 C 0.48976 0.1816 0.79831 0.0
C476 C 0.48732 0.16491 0.82761 0.0
C477 C 0.48419 0.18147 0.85726 0.0
C478 C 0.48155 0.21486 0.85675 0.0
C479 C 0.48449 0.23145 0.82762 0.0
P480 P 0.72617 0.46401 0.78095 0.0
H481 H 0.65745 0.44479 0.77455 0.0
H482 H 0.60851 0.46953 0.798 0.0
H483 H 0.66299 0.55643 0.81385 0.0
H484 H 0.71104 0.53215 0.78841 0.0
H485 H 0.7929 0.44189 0.7762 0.0
H486 H 0.84003 0.45786 0.7441 0.0
H487 H 0.77907 0.5268 0.69344 0.0
H488 H 0.73189 0.5115 0.72736 0.0
H489 H 0.72321 0.4266 0.8417 0.0
H490 H 0.76424 0.51545 0.8087 0.0
O491 O 0.7187 0.42528 0.77523 0.0
H492 H 0.74964 0.43425 0.89493 0.0
H493 H 0.79066 0.52305 0.86076 0.0
C494 C 0.68817 0.48637 0.78044 0.0
C495 C 0.65841 0.46971 0.78147 0.0
C496 C 0.63047 0.4838 0.79534 0.0
C497 C 0.63216 0.51452 0.80915 0.0
C498 C 0.66069 0.53265 0.80379 0.0
C499 C 0.68842 0.51869 0.78927 0.0
C500 C 0.7589 0.47531 0.75394 0.0
C501 C 0.78959 0.46039 0.75809 0.0
C502 C 0.81658 0.46954 0.73961 0.0
C503 C 0.81345 0.49349 0.71591 0.0
C504 C 0.78249 0.50853 0.71174 0.0
C505 C 0.75538 0.49955 0.73076 0.0
C506 C 0.74248 0.47009 0.82111 0.0
C507 C 0.73764 0.44782 0.84599 0.0
C508 C 0.7526 0.45229 0.87637 0.0
C509 C 0.77227 0.47928 0.88217 0.0
C510 C 0.77524 0.50231 0.85757 0.0
C511 C 0.76045 0.49777 0.82746 0.0
P512 P 0.43968 0.26568 0.25729 0.0
H513 H 0.39776 0.24306 0.3094 0.0
H514 H 0.40902 0.21019 0.35638 0.0
H515 H 0.51366 0.22107 0.34078 0.0
H516 H 0.50185 0.2536 0.29258 0.0
H517 H 0.4182 0.33234 0.25054 0.0
H518 H 0.44081 0.37577 0.21837 0.0
H519 H 0.52952 0.32003 0.20256 0.0
H520 H 0.50735 0.27762 0.23612 0.0
H521 H 0.4562 0.19692 0.26302 0.0
H522 H 0.44628 0.26702 0.18673 0.0
O523 O 0.39919 0.27217 0.25409 0.0
H524 H 0.4801 0.1592 0.22432 0.0
H525 H 0.47026 0.22917 0.14792 0.0
C526 C 0.44892 0.25121 0.29762 0.0
C527 C 0.42316 0.23941 0.3166 0.0
C528 C 0.42974 0.22047 0.34372 0.0
C529 C 0.46235 0.21273 0.35259 0.0
C530 C 0.48825 0.22619 0.33455 0.0
C531 C 0.48156 0.24523 0.30724 0.0
C532 C 0.46087 0.30151 0.24532 0.0
C533 C 0.44301 0.32997 0.24116 0.0
C534 C 0.45584 0.35465 0.22227 0.0
C535 C 0.48663 0.35114 0.20683 0.0
C536 C 0.50577 0.32382 0.21392 0.0
C537 C 0.4931 0.2994 0.23326 0.0
C538 C 0.45068 0.23533 0.22805 0.0
C539 C 0.45887 0.20423 0.23796 0.0
C540 C 0.4723 0.18249 0.21574 0.0
C541 C 0.47761 0.19155 0.18332 0.0
C542 C 0.46703 0.22186 0.17295 0.0
C543 C 0.4533 0.24344 0.1951 0.0
P544 P 0.72354 0.55119 0.25928 0.0
H545 H 0.66465 0.51209 0.27213 0.0
H546 H 0.62671 0.48488 0.23475 0.0
H547 H 0.69234 0.50527 0.15488 0.0
H548 H 0.72922 0.53204 0.19172 0.0
H549 H 0.7157 0.5918 0.31647 0.0
H550 H 0.74524 0.58957 0.36794 0.0
H551 H 0.77558 0.49271 0.34635 0.0
H552 H 0.74482 0.49479 0.2955 0.0
H553 H 0.77212 0.6023 0.25447 0.0
H554 H 0.76819 0.50091 0.23711 0.0
O555 O 0.70666 0.58725 0.25391 0.0
H556 H 0.83016 0.60243 0.23837 0.0
H557 H 0.82529 0.5009 0.21963 0.0
C558 C 0.70021 0.52345 0.23494 0.0
C559 C 0.67131 0.50954 0.24675 0.0
C560 C 0.64962 0.49411 0.22531 0.0
C561 C 0.65644 0.49261 0.19169 0.0
C562 C 0.68645 0.50502 0.18056 0.0
C563 C 0.70775 0.52056 0.2018 0.0
C564 C 0.72815 0.54347 0.30202 0.0
C565 C 0.72719 0.56947 0.32355 0.0
C566 C 0.74463 0.56836 0.35284 0.0
C567 C 0.7637 0.54135 0.36086 0.0
C568 C 0.76124 0.51396 0.34106 0.0
C569 C 0.74345 0.51502 0.3119 0.0
C570 C 0.76557 0.55185 0.24559 0.0
C571 C 0.78363 0.58017 0.24665 0.0
C572 C 0.81683 0.58016 0.2376 0.0
C573 C 0.83249 0.55171 0.22752 0.0
C574 C 0.81437 0.52321 0.22766 0.0
C575 C 0.78141 0.52326 0.23702 0.0
P576 P 0.59786 0.76476 0.26016 0.0
H577 H 0.6097 0.76872 0.33076 0.0
H578 H 0.58578 0.80319 0.37293 0.0
H579 H 0.51297 0.83692 0.30423 0.0
H580 H 0.53716 0.80297 0.26225 0.0
H581 H 0.62309 0.70211 0.23941 0.0
H582 H 0.60025 0.66126 0.20373 0.0
H583 H 0.50767 0.71307 0.20169 0.0
H584 H 0.53019 0.75251 0.23855 0.0
H585 H 0.61197 0.83322 0.26307 0.0
H586 H 0.59135 0.76324 0.18859 0.0
O587 O 0.63573 0.75505 0.2727 0.0
H588 H 0.6006 0.8761 0.22405 0.0
H589 H 0.57972 0.80582 0.15012 0.0
C590 C 0.57515 0.78301 0.29331 0.0
C591 C 0.58808 0.7829 0.32498 0.0
C592 C 0.57443 0.80271 0.34909 0.0
C593 C 0.54776 0.82315 0.3418 0.0
C594 C 0.53382 0.82186 0.3105 0.0
C595 C 0.54731 0.80195 0.28658 0.0
C596 C 0.57823 0.73022 0.24228 0.0
C597 C 0.59748 0.70402 0.23225 0.0
C598 C 0.58449 0.68088 0.21125 0.0
C599 C 0.55208 0.68376 0.19926 0.0
C600 C 0.53249 0.70942 0.21062 0.0
C601 C 0.54538 0.73222 0.23195 0.0
C602 C 0.60097 0.79503 0.22923 0.0
C603 C 0.60581 0.82702 0.23822 0.0
C604 C 0.59944 0.85151 0.21596 0.0
C605 C 0.58847 0.84407 0.18449 0.0
C606 C 0.58746 0.81203 0.17455 0.0
C607 C 0.59397 0.78766 0.19668 0.0
P608 P 0.3019 0.63821 0.24553 0.0
H609 H 0.27518 0.65517 0.30991 0.0
H610 H 0.22926 0.63399 0.34168 0.0
H611 H 0.21458 0.56076 0.2691 0.0
H612 H 0.26014 0.58213 0.23744 0.0
H613 H 0.36932 0.65691 0.23088 0.0
H614 H 0.4086 0.62818 0.19653 0.0
H615 H 0.35591 0.54075 0.21346 0.0
H616 H 0.31699 0.56941 0.24792 0.0
H617 H 0.23771 0.66065 0.22265 0.0
H618 H 0.3252 0.61928 0.17938 0.0
O619 O 0.31004 0.67513 0.25835 0.0
H620 H 0.20709 0.64848 0.17288 0.0
H621 H 0.29466 0.60662 0.13077 0.0
C622 C 0.27149 0.61996 0.27153 0.0
C623 C 0.26237 0.63431 0.30105 0.0
C624 C 0.23586 0.6224 0.319 0.0
C625 C 0.21814 0.59578 0.30782 0.0
C626 C 0.22786 0.5811 0.27855 0.0
C627 C 0.25412 0.59318 0.26054 0.0
C628 C 0.33962 0.61553 0.24135 0.0
C629 C 0.36736 0.63122 0.22894 0.0
C630 C 0.3897 0.61478 0.20894 0.0
C631 C 0.38443 0.58252 0.20131 0.0
C632 C 0.35988 0.56588 0.21818 0.0
C633 C 0.33772 0.58227 0.23822 0.0
C634 C 0.28351 0.63993 0.20555 0.0
C635 C 0.25064 0.64991 0.2023 0.0
C636 C 0.2332 0.64301 0.17386 0.0
C637 C 0.24856 0.62609 0.14842 0.0
C638 C 0.28227 0.61927 0.15032 0.0
C639 C 0.2997 0.62644 0.17852 0.0
P640 P 0.76529 0.7853 0.43617 0.0
H641 H 0.77899 0.72083 0.41098 0.0
H642 H 0.81297 0.67702 0.43187 0.0
H643 H 0.8262 0.72893 0.52187 0.0
H644 H 0.79174 0.77204 0.50111 0.0
H645 H 0.70269 0.80015 0.40409 0.0
H646 H 0.65616 0.83284 0.42144 0.0
H647 H 0.69418 0.83328 0.51961 0.0
H648 H 0.74107 0.8007 0.50188 0.0
H649 H 0.8374 0.78753 0.43972 0.0
H650 H 0.75629 0.85445 0.4472 0.0
O651 O 0.7628 0.77988 0.39602 0.0
H652 H 0.87514 0.82864 0.45888 0.0
H653 H 0.7939 0.89545 0.46628 0.0
C654 C 0.78251 0.7497 0.45456 0.0
C655 C 0.78846 0.7224 0.43554 0.0
C656 C 0.80834 0.69749 0.44737 0.0
C657 C 0.82276 0.69947 0.47845 0.0
C658 C 0.81528 0.72623 0.49799 0.0
C659 C 0.7953 0.75098 0.4862 0.0
C660 C 0.72547 0.79774 0.45165 0.0
C661 C 0.70047 0.80613 0.42962 0.0
C662 C 0.67373 0.82498 0.43963 0.0
C663 C 0.67158 0.83613 0.47189 0.0
C664 C 0.69529 0.82548 0.4945 0.0
C665 C 0.72194 0.8064 0.48447 0.0
C666 C 0.79375 0.81736 0.4436 0.0
C667 C 0.8277 0.81108 0.44522 0.0
C668 C 0.84932 0.83467 0.45593 0.0
C669 C 0.83728 0.865 0.4648 0.0
C670 C 0.80368 0.87199 0.46044 0.0
C671 C 0.78214 0.84846 0.4496 0.0
P672 P 0.77833 0.25046 0.44371 0.0
H673 H 0.70881 0.26746 0.44412 0.0
H674 H 0.66009 0.23892 0.46232 0.0
H675 H 0.72268 0.1672 0.50669 0.0
H676 H 0.77092 0.19748 0.49107 0.0
H677 H 0.79273 0.31037 0.41062 0.0
H678 H 0.81794 0.35968 0.42988 0.0
H679 H 0.8132 0.32515 0.52861 0.0
H680 H 0.78753 0.27585 0.50918 0.0
H681 H 0.78966 0.18288 0.43018 0.0
H682 H 0.84742 0.26282 0.46293 0.0
O683 O 0.76846 0.25275 0.40437 0.0
H684 H 0.83567 0.14697 0.44195 0.0
H685 H 0.8938 0.22748 0.47329 0.0
C686 C 0.74351 0.23385 0.46485 0.0
C687 C 0.71197 0.24605 0.45854 0.0
C688 C 0.68412 0.22946 0.46874 0.0
C689 C 0.68731 0.19989 0.4848 0.0
C690 C 0.71904 0.1896 0.49408 0.0
C691 C 0.74688 0.2067 0.48455 0.0
C692 C 0.7879 0.28967 0.45856 0.0
C693 C 0.79606 0.31382 0.43652 0.0
C694 C 0.81059 0.34195 0.44751 0.0
C695 C 0.81775 0.34606 0.48067 0.0
C696 C 0.80815 0.32243 0.50288 0.0
C697 C 0.79317 0.29448 0.49189 0.0
C698 C 0.81442 0.22528 0.4471 0.0
C699 C 0.81238 0.19276 0.4395 0.0
C700 C 0.83891 0.1723 0.44593 0.0
C701 C 0.86834 0.18423 0.45925 0.0
C702 C 0.87118 0.21732 0.46409 0.0
C703 C 0.84447 0.23764 0.45812 0.0
P704 P 0.23991 0.76915 0.49773 0.0
H705 H 0.29421 0.7771 0.45183 0.0
H706 H 0.34568 0.80626 0.45649 0.0
H707 H 0.33026 0.81608 0.55998 0.0
H708 H 0.27878 0.78634 0.55516 0.0
H709 H 0.24084 0.70568 0.46947 0.0
H710 H 0.21153 0.65752 0.48383 0.0
H711 H 0.1853 0.69923 0.5766 0.0
H712 H 0.21555 0.74766 0.562 0.0
H713 H 0.25028 0.83776 0.50421 0.0
H714 H 0.17162 0.77152 0.52222 0.0
O715 O 0.23207 0.76785 0.45788 0.0
H716 H 0.21445 0.8818 0.51921 0.0
H717 H 0.13623 0.8153 0.53982 0.0
C718 C 0.2825 0.7798 0.50314 0.0
C719 C 0.30233 0.78459 0.47572 0.0
C720 C 0.33169 0.80155 0.47834 0.0
C721 C 0.34172 0.8141 0.50847 0.0
C722 C 0.3233 0.80669 0.53641 0.0
C723 C 0.29388 0.7896 0.53374 0.0
C724 C 0.22924 0.73068 0.5141 0.0
C725 C 0.22975 0.70416 0.49335 0.0
C726 C 0.21302 0.67644 0.50175 0.0
C727 C 0.1954 0.6747 0.53117 0.0
C728 C 0.19809 0.70005 0.55352 0.0
C729 C 0.21542 0.72771 0.54522 0.0
C730 C 0.2143 0.80099 0.5135 0.0
C731 C 0.22571 0.83246 0.51272 0.0
C732 C 0.20508 0.8578 0.52156 0.0
C733 C 0.17238 0.85231 0.53132 0.0
C734 C 0.16115 0.82062 0.5324 0.0
C735 C 0.18167 0.79533 0.52288 0.0
P736 P 0.27387 0.25774 0.56721 0.0
H737 H 0.34591 0.25955 0.56676 0.0
H738 H 0.38645 0.21949 0.55019 0.0
H739 H 0.30966 0.16594 0.50237 0.0
H740 H 0.26995 0.20757 0.51669 0.0
H741 H 0.26168 0.32126 0.59391 0.0
H742 H 0.23394 0.36841 0.57241 0.0
H743 H 0.22538 0.32217 0.47875 0.0
H744 H 0.25301 0.27457 0.50083 0.0
H745 H 0.26954 0.1915 0.58827 0.0
H746 H 0.20176 0.26667 0.56099 0.0
O747 O 0.2897 0.2658 0.60376 0.0
H748 H 0.22547 0.15255 0.58359 0.0
H749 H 0.15731 0.22825 0.55798 0.0
C750 C 0.30467 0.23589 0.54418 0.0
C751 C 0.33803 0.23982 0.55165 0.0
C752 C 0.36114 0.21654 0.54248 0.0
C753 C 0.35115 0.18848 0.52631 0.0
C754 C 0.31839 0.18683 0.51519 0.0
C755 C 0.29547 0.21064 0.52363 0.0
C756 C 0.26009 0.2946 0.54879 0.0
C757 C 0.25466 0.32148 0.56851 0.0
C758 C 0.23866 0.34852 0.55615 0.0
C759 C 0.22735 0.34919 0.52381 0.0
C760 C 0.2335 0.32239 0.50385 0.0
C761 C 0.2497 0.29533 0.51626 0.0
C762 C 0.23934 0.23167 0.57335 0.0
C763 C 0.24497 0.19975 0.58208 0.0
C764 C 0.21962 0.17751 0.57971 0.0
C765 C 0.18804 0.18713 0.56939 0.0
C766 C 0.18166 0.21989 0.5648 0.0
C767 C 0.20715 0.24196 0.56656 0.0
Zn768 Zn 0.98078 0.97799 0.44067 0.0
Zn769 Zn 0.96925 0.05304 0.45201 0.0
O770 O 0.00348 0.02065 0.44379 0.0
H771 H 0.02084 0.02625 0.42896 0.0
C772 C 0.92411 0.94994 0.53416 0.0
O773 O 0.95368 0.95611 0.52298 0.0
Zn774 Zn 0.09536 0.04698 0.57662 0.0
Zn775 Zn 0.08405 0.97287 0.59904 0.0
O776 O 0.06341 0.01052 0.57597 0.0
H777 H 0.04426 0.00927 0.56209 0.0
Zn778 Zn 0.94747 0.99201 0.58499 0.0
O779 O 0.97724 0.01767 0.55596 0.0
Zn780 Zn 0.98038 0.06048 0.5762 0.0
H781 H 0.98771 0.01067 0.53606 0.0
Zn782 Zn 0.04738 0.99739 0.48198 0.0
O783 O 0.03609 0.044 0.49362 0.0
H784 H 0.02957 0.05162 0.51487 0.0
Zn785 Zn 0.06179 0.06884 0.4607 0.0
C786 C 0.092 0.96465 0.5245 0.0
O787 O 0.10905 0.99038 0.518 0.0
O788 O 0.9327 0.98377 0.42693 0.0
O789 O 0.92618 0.03624 0.43209 0.0
O790 O 0.12803 0.98514 0.61917 0.0
O791 O 0.13877 0.03385 0.60018 0.0
O792 O 0.93384 0.01486 0.62777 0.0
O793 O 0.95779 0.0619 0.62033 0.0
C794 C 0.0079 0.10672 0.41877 0.0
O795 O 0.07116 0.99039 0.43828 0.0
O796 O 0.08497 0.04038 0.4275 0.0
O797 O 0.05619 0.94383 0.62909 0.0
C798 C 0.91535 0.00896 0.42347 0.0
O799 O 0.00374 0.94395 0.41195 0.0
C800 C 0.0443 0.08415 0.60387 0.0
O801 O 0.91514 0.96205 0.56115 0.0
C802 C 0.14663 0.00931 0.61713 0.0
O803 O 0.06228 0.96327 0.51496 0.0
C804 C 0.95579 0.09008 0.5152 0.0
O805 O 0.98234 0.09044 0.42501 0.0
O806 O 0.03591 0.10045 0.43161 0.0
C807 C 0.94073 0.04293 0.63765 0.0
O808 O 0.07529 0.08059 0.60509 0.0
O809 O 0.02832 0.06844 0.58274 0.0
C810 C 0.10489 0.08917 0.51521 0.0
O811 O 0.95954 0.09259 0.54591 0.0
O812 O 0.96676 0.06523 0.50055 0.0
C813 C 0.08554 0.01072 0.42045 0.0
O814 O 0.09538 0.09398 0.48603 0.0
O815 O 0.09574 0.06389 0.52979 0.0
C816 C 0.02742 0.93335 0.62364 0.0
O817 O 0.01235 0.94108 0.59644 0.0
C818 C 0.01664 0.95205 0.38507 0.0
O819 O 0.01731 0.98237 0.37709 0.0
Zn820 Zn 0.44844 0.07955 0.06994 0.0
Zn821 Zn 0.47536 0.08164 0.99631 0.0
O822 O 0.47844 0.05698 0.03783 0.0
H823 H 0.49078 0.03746 0.0413 0.0
C824 C 0.55667 0.10991 0.10077 0.0
O825 O 0.54763 0.08055 0.0942 0.0
Zn826 Zn 0.57641 0.96879 0.94496 0.0
Zn827 Zn 0.58747 0.98249 0.0201 0.0
O828 O 0.55553 0.99182 0.98275 0.0
H829 H 0.54003 0.00938 0.98143 0.0
Zn830 Zn 0.60785 0.09202 0.05545 0.0
O831 O 0.57777 0.06969 0.02357 0.0
Zn832 Zn 0.59652 0.07768 0.98004 0.0
H833 H 0.55865 0.057 0.02852 0.0
Zn834 Zn 0.47819 0.95498 0.05086 0.0
O835 O 0.50849 0.95293 0.01147 0.0
H836 H 0.52783 0.93944 0.00964 0.0
Zn837 Zn 0.47754 0.96413 0.97609 0.0
C838 C 0.52797 0.93643 0.09925 0.0
O839 O 0.54573 0.95807 0.08444 0.0
O840 O 0.42611 0.11912 0.05042 0.0
O841 O 0.44977 0.12327 0.00184 0.0
O842 O 0.62322 0.94974 0.00935 0.0
O843 O 0.61245 0.93702 0.95804 0.0
O844 O 0.65131 0.10877 0.03547 0.0
O845 O 0.64103 0.09932 0.98316 0.0
C846 C 0.44927 0.02725 0.96105 0.0
O847 O 0.42958 0.94354 0.04032 0.0
O848 O 0.43219 0.94651 0.98649 0.0
O849 O 0.60878 0.01663 0.04963 0.0
C850 C 0.42965 0.13351 0.02343 0.0
O851 O 0.41739 0.05279 0.09877 0.0
C852 C 0.60907 0.02731 0.9289 0.0
O853 O 0.58279 0.12067 0.08798 0.0
C854 C 0.62969 0.9339 0.98376 0.0
O855 O 0.49836 0.93206 0.09036 0.0
C856 C 0.53458 0.10632 0.96015 0.0
O857 O 0.4469 0.05708 0.96551 0.0
O858 O 0.47323 0.01198 0.97373 0.0
C859 C 0.65974 0.10992 0.00563 0.0
O860 O 0.60171 1.00006 0.91762 0.0
O861 O 0.5974 0.03566 0.9563 0.0
C862 C 0.51395 0.93705 0.91297 0.0
O863 O 0.56562 0.10663 0.95612 0.0
O864 O 0.52214 0.08712 0.9805 0.0
C865 C 0.41625 0.94031 0.01243 0.0
O866 O 0.49184 0.94356 0.93395 0.0
O867 O 0.54379 0.94572 0.91636 0.0
C868 C 0.63734 0.02565 0.04104 0.0
O869 O 0.64848 0.01685 0.01237 0.0
C870 C 0.39857 0.03205 0.08616 0.0
O871 O 0.40049 0.02631 0.05478 0.0
Zn872 Zn 0.95357 0.46482 0.96885 0.0
Zn873 Zn 0.94206 0.54117 0.96853 0.0
O874 O 0.97714 0.50738 0.96397 0.0
H875 H 0.0 0.51024 0.96972 0.0
C876 C 0.98088 0.42865 0.0688 0.0
O877 O -0.00089 0.44647 0.04984 0.0
Zn878 Zn 0.0824 0.57777 0.04594 0.0
Zn879 Zn 0.10317 0.50767 0.07244 0.0
O880 O 0.06564 0.53326 0.05201 0.0
H881 H 0.04624 0.52449 0.04183 0.0
Zn882 Zn 0.97891 0.48837 0.10445 0.0
O883 O 0.97366 0.51634 0.06426 0.0
Zn884 Zn 0.97297 0.55985 0.08357 0.0
H885 H 0.98081 0.51078 0.04256 0.0
Zn886 Zn 0.0524 0.49675 0.93962 0.0
O887 O 0.06532 0.53368 0.96947 0.0
H888 H 0.08523 0.5332 0.98238 0.0
Zn889 Zn 0.05172 0.56698 0.93689 0.0
C890 C 0.07963 0.44457 0.97889 0.0
O891 O 0.09362 0.46863 0.99393 0.0
O892 O 0.90343 0.46951 0.96439 0.0
O893 O 0.89673 0.52216 0.96071 0.0
O894 O 0.14469 0.53509 0.08162 0.0
O895 O 0.13014 0.58055 0.05737 0.0
O896 O 0.9555 0.50884 0.14421 0.0
O897 O 0.95331 0.55958 0.1285 0.0
C898 C 0.97919 0.58406 0.92859 0.0
O899 O 0.07387 0.50348 0.895 0.0
O900 O 0.07448 0.55639 0.89405 0.0
O901 O 0.09167 0.46833 0.10185 0.0
C902 C 0.88501 0.49394 0.96042 0.0
O903 O 0.97298 0.42463 0.94557 0.0
C904 C 0.03174 0.60239 0.08733 0.0
O905 O 0.97019 0.44044 0.09531 0.0
C906 C 0.15111 0.56356 0.0727 0.0
O907 O 0.05932 0.45042 0.95612 0.0
C908 C 0.9397 0.58534 0.02665 0.0
O909 O 0.95008 0.57768 0.93758 0.0
O910 O 0.00235 0.56525 0.93695 0.0
C911 C 0.94707 0.53785 0.14923 0.0
O912 O 0.05999 0.60821 0.07605 0.0
O913 O 0.01859 0.57591 0.0803 0.0
C914 C 0.07451 0.6149 0.98098 0.0
O915 O 0.94703 0.59009 0.05627 0.0
O916 O 0.9455 0.55804 0.01419 0.0
C917 C 0.08204 0.52946 0.88134 0.0
O918 O 0.0659 0.61069 0.95158 0.0
O919 O 0.07337 0.59091 -0.00018 0.0
C920 C 0.07854 0.4436 0.08951 0.0
O921 O 0.0727 0.44299 0.05811 0.0
C922 C 0.99184 0.42812 0.92125 0.0
O923 O -0.00053 0.45712 0.91198 0.0
Zn924 Zn 0.489 0.48174 0.97999 0.0
Zn925 Zn 0.47134 0.47034 0.05594 0.0
O926 O 0.49387 0.50065 0.0255 0.0
H927 H 0.50439 0.52034 0.0316 0.0
C928 C 0.51654 0.42582 0.90429 0.0
O929 O 0.52381 0.45571 0.89834 0.0
Zn930 Zn 0.55896 0.57413 0.05679 0.0
Zn931 Zn 0.55766 0.59242 0.98247 0.0
O932 O 0.55264 0.55444 0.0129 0.0
H933 H 0.55822 0.53271 0.00714 0.0
Zn934 Zn 0.54913 0.43984 0.96841 0.0
O935 O 0.52952 0.44327 0.0139 0.0
Zn936 Zn 0.56638 0.4508 0.04574 0.0
H937 H 0.50939 0.43243 0.01936 0.0
Zn938 Zn 0.456 0.58351 0.97119 0.0
O939 O 0.48452 0.5907 0.01131 0.0
H940 H 0.5037 0.60418 0.01114 0.0
Zn941 Zn 0.45222 0.5862 0.0484 0.0
C942 C 0.49449 0.6161 0.91878 0.0
O943 O 0.50944 0.62989 0.94337 0.0
O944 O 0.45658 0.44467 0.97949 0.0
O945 O 0.44027 0.44084 0.03097 0.0
O946 O 0.58802 0.62625 0.00275 0.0
O947 O 0.59291 0.60892 0.05365 0.0
O948 O 0.59932 0.43121 0.97176 0.0
O949 O 0.60956 0.43544 0.02502 0.0
C950 C 0.4416 0.52547 0.08673 0.0
O951 O 0.40873 0.59889 0.98002 0.0
O952 O 0.40761 0.60352 0.03398 0.0
O953 O 0.5667 0.58232 0.93367 0.0
C954 C 0.43814 0.43254 0.0011 0.0
O955 O 0.47966 0.50953 0.93921 0.0
C956 C 0.5756 0.5108 0.0853 0.0
O957 O 0.52364 0.41411 0.93203 0.0
C958 C 0.60069 0.62823 0.03107 0.0
O959 O 0.47261 0.59534 0.92453 0.0
C960 C 0.52649 0.42795 0.09667 0.0
O961 O 0.44586 0.49553 0.08931 0.0
O962 O 0.45115 0.53953 0.06104 0.0
C963 C 0.61905 0.42942 0.99591 0.0
O964 O 0.57366 0.54097 0.0886 0.0
O965 O 0.56808 0.49785 0.05819 0.0
C966 C 0.49891 0.60893 0.09223 0.0
O967 O 0.55602 0.42625 0.08648 0.0
O968 O 0.50561 0.44441 0.08063 0.0
C969 C 0.39393 0.60681 0.00616 0.0
O970 O 0.46816 0.61123 0.08713 0.0
O971 O 0.51551 0.59234 0.07197 0.0
C972 C 0.56077 0.55452 0.92291 0.0
O973 O 0.54763 0.53349 0.94253 0.0
C974 C 0.45117 0.52221 0.93771 0.0
O975 O 0.43202 0.52077 0.96341 0.0
Zn976 Zn 0.93468 0.50049 0.4697 0.0
Zn977 Zn 0.94373 0.57501 0.46243 0.0
O978 O 0.96956 0.53475 0.46694 0.0
H979 H 0.99098 0.5329 0.47705 0.0
C980 C 0.89508 0.4533 0.52389 0.0
O981 O 0.88239 0.48221 0.52265 0.0
Zn982 Zn 0.07016 0.56064 0.56639 0.0
Zn983 Zn 0.09102 0.4903 0.55467 0.0
O984 O 0.0511 0.51719 0.56764 0.0
H985 H 0.02824 0.5121 0.56385 0.0
Zn986 Zn 0.94359 0.48799 0.561 0.0
O987 O 0.94067 0.52972 0.53666 0.0
Zn988 Zn 0.94577 0.56292 0.57144 0.0
H989 H 0.92599 0.53175 0.51829 0.0
Zn990 Zn 0.10056 0.49425 0.44091 0.0
O991 O 0.06493 0.51959 0.46454 0.0
H992 H 0.05276 0.51301 0.48352 0.0
Zn993 Zn 0.06568 0.56361 0.44502 0.0
C994 C 0.15107 0.45857 0.47859 0.0
O995 O 0.16124 0.48767 0.48475 0.0
O996 O 0.88903 0.5159 0.45414 0.0
O997 O 0.89878 0.56655 0.44157 0.0
O998 O 0.13494 0.51277 0.5651 0.0
O999 O 0.11751 0.56024 0.58246 0.0
O1000 O 0.92446 0.49412 0.6065 0.0
O1001 O 0.92329 0.54685 0.61301 0.0
C1002 C 0.00186 0.60342 0.43093 0.0
O1003 O 0.12274 0.51965 0.40434 0.0
O1004 O 0.09256 0.56434 0.40231 0.0
O1005 O 0.09014 0.44402 0.5719 0.0
C1006 C 0.8797 0.5424 0.44199 0.0
O1007 O 0.94769 0.45774 0.44861 0.0
C1008 C 0.01044 0.58938 0.59391 0.0
O1009 O 0.9226 0.44903 0.53808 0.0
C1010 C 0.14065 0.5399 0.57792 0.0
O1011 O 0.12535 0.45489 0.46129 0.0
C1012 C 0.9189 0.60722 0.52644 0.0
O1013 O 0.97094 0.60592 0.43615 0.0
O1014 O 0.0178 0.58019 0.44359 0.0
C1015 C 0.91654 0.51876 0.623 0.0
O1016 O 0.04179 0.58998 0.59385 0.0
O1017 O -0.00472 0.5702 0.57529 0.0
C1018 C 0.09209 0.59012 0.50539 0.0
O1019 O 0.92063 0.60244 0.55687 0.0
O1020 O 0.93641 0.58923 0.50841 0.0
C1021 C 0.11592 0.54654 0.39141 0.0
O1022 O 0.09267 0.59107 0.47461 0.0
O1023 O 0.0709 0.57288 0.5195 0.0
C1024 C 0.06304 0.43085 0.57905 0.0
O1025 O 0.03531 0.44604 0.57283 0.0
C1026 C 0.96992 0.45858 0.42696 0.0
O1027 O 0.98503 0.48563 0.42139 0.0
Zn1028 Zn 0.46117 0.97662 0.45325 0.0
Zn1029 Zn 0.43573 0.04941 0.46364 0.0
O1030 O 0.47524 0.02285 0.45021 0.0
H1031 H 0.48984 0.02794 0.43249 0.0
C1032 C 0.43622 0.9158 0.52171 0.0
O1033 O 0.42995 0.9428 0.50668 0.0
Zn1034 Zn 0.58456 0.06571 0.54859 0.0
Zn1035 Zn 0.60972 0.99384 0.56864 0.0
O1036 O 0.57215 0.01925 0.54842 0.0
H1037 H 0.55073 0.01039 0.54396 0.0
Zn1038 Zn 0.48391 0.9557 0.55779 0.0
O1039 O 0.47313 0.99837 0.53629 0.0
Zn1040 Zn 0.47201 0.03069 0.57258 0.0
H1041 H 0.47741 0.00286 0.51368 0.0
Zn1042 Zn 0.53741 0.99002 0.45352 0.0
O1043 O 0.53977 0.03276 0.47795 0.0
H1044 H 0.52984 0.03614 0.49901 0.0
Zn1045 Zn 0.5384 0.06685 0.44349 0.0
C1046 C 0.5873 0.94697 0.4848 0.0
O1047 O 0.60141 0.974 0.49279 0.0
O1048 O 0.41171 0.97546 0.44342 0.0
O1049 O 0.39517 0.02638 0.44575 0.0
O1050 O 0.64427 0.02362 0.58957 0.0
O1051 O 0.6286 0.07141 0.5711 0.0
O1052 O 0.48247 0.95869 0.60741 0.0
O1053 O 0.46589 0.00874 0.61611 0.0
C1054 C 0.46792 0.10354 0.43679 0.0
O1055 O 0.5453 0.9954 0.40452 0.0
O1056 O 0.54988 0.048 0.39947 0.0
O1057 O 0.59924 0.94978 0.59054 0.0
C1058 C 0.38958 0.9969 0.43964 0.0
O1059 O 0.48792 0.94342 0.4252 0.0
C1060 C 0.52356 0.08162 0.58198 0.0
O1061 O 0.45882 0.91496 0.54305 0.0
C1062 C 0.64834 0.05374 0.5874 0.0
O1063 O 0.55955 0.94782 0.47044 0.0
C1064 C 0.42756 0.07092 0.53602 0.0
O1065 O 0.43943 0.0938 0.44451 0.0
O1066 O 0.49223 0.08502 0.44209 0.0
C1067 C 0.47253 0.98069 0.62649 0.0
O1068 O 0.55234 0.09115 0.57534 0.0
O1069 O 0.51492 0.05409 0.57213 0.0
C1070 C 0.586 0.10353 0.48071 0.0
O1071 O 0.43717 0.06405 0.56464 0.0
O1072 O 0.43655 0.05254 0.51285 0.0
C1073 C 0.55097 0.01995 0.3873 0.0
O1074 O 0.57105 0.10117 0.45363 0.0
O1075 O 0.57975 0.0829 0.50254 0.0
C1076 C 0.57323 0.93475 0.58285 0.0
O1077 O 0.55358 0.94696 0.56064 0.0
C1078 C 0.49521 0.91524 0.4344 0.0
O1079 O 0.48724 0.90626 0.46392 0.0
C1080 C 0.16026 0.13356 0.57451 0.0
C1081 C 0.1637 0.16303 0.55854 0.0
H1082 H 0.13898 0.08696 0.57338 0.0
C1083 C 0.14609 0.16828 0.5296 0.0
H1084 H 0.17336 0.12879 0.59696 0.0
C1085 C 0.12648 0.1445 0.51639 0.0
C1086 C 0.1239 0.11461 0.53158 0.0
H1087 H 0.14857 0.19032 0.51615 0.0
H1088 H 0.11391 0.14945 0.49368 0.0
C1089 C 0.14046 0.10959 0.56114 0.0
C1090 C 0.90124 0.13329 0.45433 0.0
C1091 C 0.8946 0.16204 0.4708 0.0
H1092 H 0.92503 0.08801 0.45573 0.0
C1093 C 0.91115 0.16812 0.50022 0.0
H1094 H 0.88936 0.12793 0.43138 0.0
C1095 C 0.93248 0.14538 0.51356 0.0
C1096 C 0.93764 0.11585 0.498 0.0
H1097 H 0.9064 0.18977 0.51394 0.0
H1098 H 0.94389 0.1505 0.5368 0.0
C1099 C 0.92227 0.11043 0.46798 0.0
C1100 C 0.84837 0.90373 0.50965 0.0
C1101 C 0.85906 0.88825 0.48116 0.0
H1102 H 0.86055 0.93511 0.54883 0.0
C1103 C 0.89108 0.89381 0.46971 0.0
H1104 H 0.82398 0.89953 0.51931 0.0
C1105 C 0.91212 0.91422 0.48668 0.0
C1106 C 0.90162 0.92916 0.51558 0.0
H1107 H 0.89985 0.88233 0.4477 0.0
H1108 H 0.93672 0.91795 0.47734 0.0
C1109 C 0.86943 0.9239 0.52671 0.0
C1110 C 0.11646 0.87802 0.52618 0.0
C1111 C 0.14941 0.87976 0.53669 0.0
H1112 H 0.07209 0.90343 0.51504 0.0
C1113 C 0.16099 0.90906 0.54888 0.0
H1114 H 0.10653 0.85612 0.51637 0.0
C1115 C 0.14132 0.93654 0.5473 0.0
C1116 C 0.10943 0.93513 0.53418 0.0
H1117 H 0.18583 0.91115 0.55821 0.0
H1118 H 0.15167 0.95916 0.55477 0.0
C1119 C 0.0966 0.90533 0.52528 0.0
C1120 C 0.48995 0.13786 0.15882 0.0
C1121 C 0.49672 0.17059 0.1612 0.0
H1122 H 0.5035 0.09293 0.13755 0.0
C1123 C 0.52313 0.1832 0.14349 0.0
H1124 H 0.46966 0.12761 0.17219 0.0
C1125 C 0.54267 0.16342 0.12404 0.0
C1126 C 0.53604 0.13065 0.12166 0.0
H1127 H 0.52917 0.20828 0.14527 0.0
H1128 H 0.56299 0.17387 0.11087 0.0
C1129 C 0.50931 0.11808 0.13902 0.0
C1130 C 0.88746 0.52521 0.21794 0.0
C1131 C 0.86647 0.55183 0.21403 0.0
H1132 H 0.93003 0.49997 0.20069 0.0
C1133 C 0.87653 0.57676 0.1936 0.0
H1134 H 0.88105 0.50606 0.23433 0.0
C1135 C 0.90507 0.57362 0.17495 0.0
C1136 C 0.92383 0.54527 0.17593 0.0
H1137 H 0.86111 0.59764 0.18994 0.0
H1138 H 0.9107 0.59231 0.15772 0.0
C1139 C 0.91576 0.52185 0.1989 0.0
C1140 C 0.59027 0.89668 0.15525 0.0
C1141 C 0.57336 0.86884 0.16373 0.0
H1142 H 0.58916 0.94015 0.12773 0.0
C1143 C 0.54104 0.86447 0.15262 0.0
H1144 H 0.61515 0.90058 0.16385 0.0
C1145 C 0.52605 0.88706 0.13266 0.0
C1146 C 0.5432 0.91442 0.123 0.0
H1147 H 0.52729 0.84346 0.15941 0.0
H1148 H 0.50123 0.88261 0.12419 0.0
C1149 C 0.57538 0.91923 0.13471 0.0
C1150 C 0.22943 0.57753 0.11953 0.0
C1151 C 0.22839 0.6109 0.12305 0.0
H1152 H 0.20563 0.53609 0.10049 0.0
C1153 C 0.20506 0.6287 0.10559 0.0
H1154 H 0.24719 0.56333 0.13299 0.0
C1155 C 0.18164 0.61319 0.08657 0.0
C1156 C 0.1807 0.57957 0.08545 0.0
H1157 H 0.20399 0.65446 0.1079 0.0
H1158 H 0.16286 0.62756 0.07474 0.0
C1159 C 0.20561 0.56194 0.10103 0.0
C1160 C 0.52195 0.88297 0.8397 0.0
C1161 C 0.48926 0.87335 0.83498 0.0
H1162 H 0.55536 0.91097 0.86767 0.0
C1163 C 0.46423 0.88676 0.8542 0.0
H1164 H 0.5416 0.87302 0.82492 0.0
C1165 C 0.47209 0.9082 0.87909 0.0
C1166 C 0.50505 0.91694 0.88471 0.0
H1167 H 0.43886 0.87953 0.85099 0.0
H1168 H 0.45248 0.91712 0.89451 0.0
C1169 C 0.52976 0.90471 0.86417 0.0
C1170 C 0.15382 0.55158 0.828 0.0
C1171 C 0.16379 0.52149 0.81624 0.0
H1172 H 0.11938 0.57801 0.85702 0.0
C1173 C 0.14336 0.49513 0.8216 0.0
H1174 H 0.16871 0.57247 0.82363 0.0
C1175 C 0.11495 0.4983 0.84055 0.0
C1176 C 0.10632 0.52794 0.85445 0.0
H1177 H 0.15032 0.47164 0.81281 0.0
H1178 H 0.10085 0.4771 0.84586 0.0
C1179 C 0.12529 0.55482 0.84678 0.0
C1180 C 0.47761 0.13401 0.89414 0.0
C1181 C 0.49014 0.16471 0.88846 0.0
H1182 H 0.48168 0.0912 0.92249 0.0
C1183 C 0.51268 0.17768 0.91076 0.0
H1184 H 0.46009 0.12352 0.87743 0.0
C1185 C 0.52477 0.15934 0.93633 0.0
C1186 C 0.51432 0.12785 0.94036 0.0
H1187 H 0.5232 0.20105 0.90696 0.0
H1188 H 0.54408 0.16901 0.95158 0.0
C1189 C 0.48956 0.1157 0.92011 0.0
C1190 C 0.81214 0.45469 0.92119 0.0
C1191 C 0.7939 0.48155 0.91118 0.0
H1192 H 0.85522 0.43749 0.94542 0.0
C1193 C 0.80164 0.51155 0.92447 0.0
H1194 H 0.80685 0.4312 0.91157 0.0
C1195 C 0.82993 0.51533 0.94337 0.0
C1196 C 0.85062 0.48905 0.94969 0.0
H1197 H 0.7874 0.53257 0.91799 0.0
H1198 H 0.83685 0.53917 0.95084 0.0
C1199 C 0.84017 0.45839 0.94045 0.0
C1200 C 0.66007 0.69555 0.01722 0.0
C1201 C 0.67876 0.69513 0.04601 0.0
H1202 H 0.62081 0.67503 0.99005 0.0
C1203 C 0.67047 0.67363 0.07076 0.0
H1204 H 0.66621 0.71146 -0.00256 0.0
C1205 C 0.64431 0.65251 0.06646 0.0
C1206 C 0.62629 0.65236 0.03718 0.0
H1207 H 0.68438 0.67295 0.09324 0.0
H1208 H 0.63877 0.63581 0.08572 0.0
C1209 C 0.63416 0.67446 0.01287 0.0
C1210 C 0.32273 0.65104 0.96778 0.0
C1211 C 0.31541 0.67346 0.99215 0.0
H1212 H 0.35326 0.61166 0.95332 0.0
C1213 C 0.32993 0.67007 0.02299 0.0
H1214 H 0.31169 0.65308 0.94387 0.0
C1215 C 0.35339 0.64618 0.0286 0.0
C1216 C 0.36309 0.62558 0.00329 0.0
H1217 H 0.32415 0.68678 0.04234 0.0
H1218 H 0.36558 0.64541 0.05204 0.0
C1219 C 0.3465 0.62736 0.97325 0.0
C1220 C 0.38334 0.3834 0.94628 0.0
C1221 C 0.35897 0.3731 0.96795 0.0
H1222 H 0.42757 0.40972 0.93977 0.0
C1223 C 0.36184 0.381 0.00112 0.0
H1224 H 0.38178 0.37787 0.92058 0.0
C1225 C 0.38811 0.39946 0.01222 0.0
C1226 C 0.41205 0.41039 0.99037 0.0
H1227 H 0.34382 0.37284 0.01856 0.0
H1228 H 0.3893 0.40562 0.03779 0.0
C1229 C 0.40958 0.40176 0.95735 0.0
C1230 C 0.69892 0.38453 0.00947 0.0
C1231 C 0.71074 0.38125 0.97751 0.0
H1232 H 0.66101 0.40298 0.0405 0.0
C1233 C 0.69462 0.39758 0.95227 0.0
H1234 H 0.71118 0.3724 0.02939 0.0
C1235 C 0.66565 0.41483 0.95853 0.0
C1236 C 0.65261 0.41643 0.99023 0.0
H1237 H 0.70327 0.39542 0.92744 0.0
H1238 H 0.65276 0.42582 0.93832 0.0
C1239 C 0.67029 0.40216 0.01582 0.0
C1240 C 0.98275 0.62821 0.67169 0.0
C1241 C 0.96184 0.65262 0.66021 0.0
H1242 H 0.0147 0.58908 0.65927 0.0
C1243 C 0.95583 0.65504 0.6266 0.0
H1244 H 0.98838 0.62612 0.69736 0.0
C1245 C 0.97106 0.63388 0.60491 0.0
C1246 C 0.99232 0.61 0.61652 0.0
H1247 H 0.9399 0.67366 0.61707 0.0
H1248 H 0.96735 0.63699 0.57904 0.0
C1249 C -0.00198 0.60721 0.64998 0.0
C1250 C 0.43023 0.98402 0.70768 0.0
C1251 C 0.42774 0.95132 0.71483 0.0
H1252 H 0.44699 0.01919 0.67413 0.0
C1253 C 0.44574 0.92918 0.69625 0.0
H1254 H 0.41651 0.00164 0.72156 0.0
C1255 C 0.46333 0.93926 0.66906 0.0
C1256 C 0.46276 0.97161 0.65979 0.0
H1257 H 0.44461 0.9039 0.70161 0.0
H1258 H 0.47522 0.92131 0.65402 0.0
C1259 C 0.4476 0.99409 0.68037 0.0
C1260 C 0.03406 0.36523 0.63474 0.0
C1261 C 0.0641 0.35143 0.64466 0.0
H1262 H 0.01009 0.40087 0.60582 0.0
C1263 C 0.09343 0.36166 0.63006 0.0
H1264 H 0.01099 0.35741 0.64511 0.0
C1265 C 0.09292 0.38643 0.6074 0.0
C1266 C 0.06306 0.40147 0.59888 0.0
H1267 H 0.11698 0.3516 0.63728 0.0
H1268 H 0.1161 0.39462 0.59757 0.0
C1269 C 0.03354 0.38997 0.61204 0.0
C1270 C 0.71455 0.06451 0.65093 0.0
C1271 C 0.71283 0.09758 0.65667 0.0
H1272 H 0.69594 0.02474 0.62421 0.0
C1273 C 0.69257 0.11654 0.63675 0.0
H1274 H 0.72975 0.0492 0.66604 0.0
C1275 C 0.67321 0.1025 0.61258 0.0
C1276 C 0.67346 0.06916 0.60816 0.0
H1277 H 0.69113 0.14214 0.64035 0.0
H1278 H 0.65692 0.11768 0.59844 0.0
C1279 C 0.69508 0.05046 0.62696 0.0
C1280 C -0.0011 0.40921 0.35554 0.0
C1281 C 0.97795 0.38277 0.35738 0.0
H1282 H 0.01322 0.45371 0.3765 0.0
C1283 C 0.95651 0.38004 0.384 0.0
H1284 H 0.01612 0.41159 0.3356 0.0
C1285 C 0.95501 0.40401 0.40757 0.0
C1286 C 0.97488 0.43118 0.40489 0.0
H1287 H 0.93994 0.36001 0.38597 0.0
H1288 H 0.93739 0.40177 0.42718 0.0
C1289 C -0.00259 0.43318 0.37909 0.0
C1290 C 0.59819 0.03736 0.31101 0.0
C1291 C 0.60959 0.0066 0.30289 0.0
H1292 H 0.56991 0.06585 0.34407 0.0
C1293 C 0.59516 0.98008 0.31786 0.0
H1294 H 0.60833 0.0582 0.29925 0.0
C1295 C 0.57295 0.98441 0.34339 0.0
C1296 C 0.56502 0.01534 0.35446 0.0
H1297 H 0.60334 0.95607 0.31205 0.0
H1298 H 0.56442 0.96351 0.35624 0.0
C1299 C 0.57609 0.04172 0.33662 0.0
C1300 C 0.06651 0.65257 0.38733 0.0
C1301 C 0.04664 0.67145 0.36701 0.0
H1302 H 0.06794 0.61695 0.42441 0.0
C1303 C 0.0123 0.6684 0.36848 0.0
H1304 H 0.09303 0.65509 0.387 0.0
C1305 C -0.00195 0.64648 0.38948 0.0
C1306 C 0.0178 0.62706 0.40955 0.0
H1307 H -0.00356 0.68255 0.35285 0.0
H1308 H 0.97147 0.64444 0.38955 0.0
C1309 C 0.05216 0.63067 0.40859 0.0
C1310 C 0.32247 0.99959 0.3767 0.0
C1311 C 0.31738 0.9668 0.37142 0.0
H1312 H 0.34878 0.03516 0.40343 0.0
C1313 C 0.33099 0.94478 0.3934 0.0
H1314 H 0.31157 0.01718 0.3606 0.0
C1315 C 0.35196 0.9551 0.41812 0.0
C1316 C 0.35975 0.98762 0.42137 0.0
H1317 H 0.32744 0.91939 0.39012 0.0
H1318 H 0.36395 0.93732 0.43315 0.0
C1319 C 0.34339 0.00994 0.40155 0.0
C1320 C 0.98144 0.14586 0.34012 0.0
C1321 C 0.00164 0.17295 0.33852 0.0
H1322 H 0.96701 0.10466 0.36681 0.0
C1323 C 0.02454 0.17792 0.36388 0.0
H1324 H 0.96421 0.14039 0.32083 0.0
C1325 C 0.02682 0.15657 0.39009 0.0
C1326 C 0.0057 0.13026 0.39195 0.0
H1327 H 0.04026 0.19866 0.36395 0.0
H1328 H 0.04466 0.16095 0.40916 0.0
C1329 C 0.98308 0.12518 0.36661 0.0
C1330 C 0.84891 0.97404 0.37042 0.0
C1331 C 0.83646 0.00128 0.35453 0.0
H1332 H 0.88273 0.95516 0.40535 0.0
C1333 C 0.84721 0.03152 0.36478 0.0
H1334 H 0.84144 0.95034 0.36308 0.0
C1335 C 0.87116 0.0343 0.38916 0.0
C1336 C 0.88495 0.00687 0.40363 0.0
H1337 H 0.83764 0.053 0.3535 0.0
H1338 H 0.88004 0.05785 0.39541 0.0
C1339 C 0.87273 0.9768 0.39471 0.0
C1340 C 0.05629 0.91201 0.31194 0.0
C1341 C 0.04615 0.88035 0.31604 0.0
H1342 H 0.05446 0.95986 0.33051 0.0
C1343 C 0.02701 0.87233 0.34314 0.0
H1344 H 0.07119 0.91858 0.29121 0.0
C1345 C 0.01813 0.89553 0.3659 0.0
C1346 C 0.02776 0.92738 0.36173 0.0
H1347 H 0.01933 0.84791 0.34695 0.0
H1348 H 0.0033 0.88854 0.38653 0.0
C1349 C 0.04679 0.93547 0.33442 0.0
C1350 C 0.12566 0.95758 0.35703 0.0
C1351 C 0.13404 0.97971 0.33277 0.0
H1352 H 0.10384 0.94999 0.40369 0.0
C1353 C 0.12494 0.0119 0.33706 0.0
H1354 H 0.13266 0.93267 0.35482 0.0
C1355 C 0.10916 0.02194 0.3655 0.0
C1356 C 0.10173 0.99996 0.39012 0.0
H1357 H 0.13057 0.02949 0.31868 0.0
H1358 H 0.10289 0.04698 0.36822 0.0
C1359 C 0.10949 0.96756 0.38528 0.0
C1360 C 0.01428 0.88258 0.69867 0.0
C1361 C 0.98453 0.8672 0.69139 0.0
H1362 H 0.05099 0.91551 0.68321 0.0
C1363 C 0.96824 0.87486 0.66214 0.0
H1364 H 0.02725 0.87762 0.72115 0.0
C1365 C 0.98174 0.89682 0.6404 0.0
C1366 C 0.01192 0.91152 0.64735 0.0
H1367 H 0.94551 0.86316 0.65549 0.0
H1368 H 0.96886 0.90171 0.61785 0.0
C1369 C 0.02782 0.90443 0.67693 0.0
C1370 C 0.1862 0.01109 0.6991 0.0
C1371 C 0.21713 0.99724 0.69277 0.0
H1372 H 0.14007 0.02688 0.67931 0.0
C1373 C 0.2267 0.99222 0.6602 0.0
H1374 H 0.17824 0.01535 0.72389 0.0
C1375 C 0.20473 0.99872 0.63463 0.0
C1376 C 0.17325 0.01105 0.6413 0.0
H1377 H 0.25031 0.98129 0.65464 0.0
H1378 H 0.21155 0.99237 0.60998 0.0
C1379 C 0.16456 0.01802 0.67361 0.0
C1380 C 0.01513 0.15716 0.64791 0.0
C1381 C 0.0196 0.14757 0.68051 0.0
H1382 H 0.0188 0.14384 0.59754 0.0
C1383 C 0.02497 0.11495 0.68693 0.0
H1384 H 0.01131 0.18203 0.64183 0.0
C1385 C 0.0297 0.0933 0.66143 0.0
C1386 C 0.02826 0.10364 0.62906 0.0
H1387 H 0.02771 0.10648 0.71165 0.0
H1388 H 0.03672 0.06892 0.66701 0.0
C1389 C 0.01941 0.13531 0.6224 0.0
C1390 C 0.88673 0.0508 0.71232 0.0
C1391 C 0.8969 0.08027 0.72538 0.0
H1392 H 0.89265 0.01585 0.67474 0.0
C1393 C 0.9241 0.09546 0.71114 0.0
H1394 H 0.86558 0.03849 0.72201 0.0
C1395 C 0.93886 0.08292 0.68314 0.0
C1396 C 0.92747 0.0544 0.6692 0.0
H1397 H 0.9332 0.1178 0.72078 0.0
H1398 H 0.95854 0.09614 0.67186 0.0
C1399 C 0.90202 0.03791 0.68478 0.0
C1400 C 0.34256 0.01261 0.15676 0.0
C1401 C 0.325 0.98643 0.14463 0.0
H1402 H 0.37998 0.04713 0.14808 0.0
C1403 C 0.33181 0.97509 0.11318 0.0
H1404 H 0.33795 0.02153 0.18111 0.0
C1405 C 0.35556 0.99008 0.09399 0.0
C1406 C 0.37351 0.01602 0.10631 0.0
H1407 H 0.31856 0.95488 0.10338 0.0
H1408 H 0.35995 0.98136 0.06958 0.0
C1409 C 0.36676 0.02708 0.13792 0.0
C1410 C 0.06184 0.39243 0.16376 0.0
C1411 C 0.04752 0.36507 0.14989 0.0
H1412 H 0.08279 0.43851 0.15579 0.0
C1413 C 0.04462 0.36344 0.1158 0.0
H1414 H 0.06393 0.39494 0.18989 0.0
C1415 C 0.05511 0.3887 0.09624 0.0
C1416 C 0.06884 0.41625 0.11023 0.0
H1417 H 0.03404 0.3427 0.10416 0.0
H1418 H 0.05209 0.38673 0.07013 0.0
C1419 C 0.07241 0.41764 0.14419 0.0
C1420 C 0.71674 0.03948 0.08599 0.0
C1421 C 0.70511 0.04337 0.11792 0.0
H1422 H 0.70417 0.03171 0.03609 0.0
C1423 C 0.6712 0.04852 0.12292 0.0
H1424 H 0.74277 0.03582 0.08141 0.0
C1425 C 0.64904 0.04578 0.0971 0.0
C1426 C 0.66041 0.03806 0.0658 0.0
H1427 H 0.6614 0.05149 0.14724 0.0
H1428 H 0.62289 0.04721 0.10219 0.0
C1429 C 0.69457 0.0371 0.06007 0.0
C1430 C 0.0169 0.68361 0.11969 0.0
C1431 C 0.01713 0.67718 0.15322 0.0
H1432 H 0.02038 0.66394 0.07172 0.0
C1433 C 0.01196 0.64557 0.16361 0.0
H1434 H 0.01998 0.70774 0.11087 0.0
C1435 C 0.01133 0.62051 0.141 0.0
C1436 C 0.01605 0.62681 0.10789 0.0
H1437 H 0.01201 0.63971 0.18924 0.0
H1438 H 0.01132 0.59614 0.14978 0.0
C1439 C 0.01663 0.65859 0.09723 0.0
C1440 C 0.36407 0.00431 0.93263 0.0
C1441 C 0.37142 0.98222 0.90797 0.0
H1442 H 0.3834 0.03554 0.96932 0.0
C1443 C 0.4045 0.97464 0.90126 0.0
H1444 H 0.33874 0.01079 0.93791 0.0
C1445 C 0.42987 0.98906 0.91873 0.0
C1446 C 0.42262 0.0108 0.94361 0.0
H1447 H 0.41074 0.95857 0.88148 0.0
H1448 H 0.45507 0.98451 0.91169 0.0
C1449 C 0.38953 0.01844 0.95042 0.0
C1450 C 0.04044 0.37773 0.8615 0.0
C1451 C 0.02567 0.34765 0.8647 0.0
H1452 H 0.04136 0.42655 0.87673 0.0
C1453 C 0.00025 0.34393 0.88752 0.0
H1454 H 0.0598 0.38151 0.84385 0.0
C1455 C 0.98972 0.36986 0.90655 0.0
C1456 C 0.00406 0.40009 0.90272 0.0
H1457 H 0.98853 0.32101 0.89063 0.0
H1458 H 0.96987 0.36638 0.92371 0.0
C1459 C 0.02969 0.40364 0.88017 0.0
C1460 C 0.65177 0.06663 0.8585 0.0
C1461 C 0.68088 0.07758 0.87322 0.0
H1462 H 0.60578 0.04259 0.86493 0.0
C1463 C 0.68481 0.0741 0.90698 0.0
H1464 H 0.64796 0.06921 0.83256 0.0
C1465 C 0.66062 0.05888 0.9254 0.0
C1466 C 0.63178 0.04766 0.91056 0.0
H1467 H 0.70723 0.08177 0.91886 0.0
H1468 H 0.66535 0.05417 0.95086 0.0
C1469 C 0.62753 0.05169 0.87699 0.0
C1470 C -0.00323 0.64039 0.85977 0.0
C1471 C 0.98094 0.66854 0.87081 0.0
H1472 H 0.00945 0.5915 0.87003 0.0
C1473 C 0.96998 0.66967 0.90328 0.0
H1474 H 0.00534 0.63825 0.83494 0.0
C1475 C 0.97153 0.64252 0.92285 0.0
C1476 C 0.98509 0.61395 0.91089 0.0
H1477 H 0.95869 0.69107 0.91319 0.0
H1478 H 0.96083 0.64346 0.94694 0.0
C1479 C -0.0009 0.61343 0.87979 0.0
C1480 C 0.09971 0.35842 0.96035 0.0
C1481 C 0.12935 0.35441 0.97765 0.0
H1482 H 0.06016 0.39003 0.94772 0.0
C1483 C 0.13855 0.37791 0.0003 0.0
H1484 H 0.09166 0.34047 0.94314 0.0
C1485 C 0.12054 0.40635 0.00287 0.0
C1486 C 0.09301 0.41182 0.98284 0.0
H1487 H 0.16127 0.37565 0.01396 0.0
H1488 H 0.12973 0.42494 0.01875 0.0
C1489 C 0.08166 0.38684 0.96298 0.0
C1490 C 0.11644 0.68102 0.02916 0.0
C1491 C 0.11755 0.70566 0.00588 0.0
H1492 H 0.1027 0.63295 0.03953 0.0
C1493 C 0.10103 0.70094 0.97612 0.0
H1494 H 0.12821 0.68373 0.05262 0.0
C1495 C 0.08572 0.67208 0.96912 0.0
C1496 C 0.08675 0.64669 0.99134 0.0
H1497 H 0.10155 0.71867 0.95706 0.0
H1498 H 0.07435 0.66927 0.94544 0.0
C1499 C 0.10146 0.6518 0.02182 0.0
C1500 C 0.35413 0.1866 0.02766 0.0
C1501 C 0.35002 0.19491 0.99486 0.0
H1502 H 0.38308 0.16125 0.06268 0.0
C1503 C 0.37485 0.18666 0.97248 0.0
H1504 H 0.33553 0.19283 0.04549 0.0
C1505 C 0.40226 0.16877 0.98228 0.0
C1506 C 0.40532 0.15859 0.0147 0.0
H1507 H 0.37281 0.19356 0.94718 0.0
H1508 H 0.42014 0.16161 0.96408 0.0
C1509 C 0.38149 0.1686 0.03748 0.0
C1510 C 0.92926 0.35426 0.063 0.0
C1511 C 0.92989 0.34832 0.02929 0.0
H1512 H 0.9452 0.38424 0.10213 0.0
C1513 C 0.95195 0.3657 0.00993 0.0
H1514 H 0.91332 0.34072 0.07882 0.0
C1515 C 0.9707 0.3902 0.02344 0.0
C1516 C 0.96741 0.39823 0.05647 0.0
H1517 H 0.95315 0.36199 0.9839 0.0
H1518 H 0.98607 0.40422 0.0075 0.0
C1519 C 0.94769 0.37908 0.07642 0.0
C1520 C 0.7176 0.9091 -0.00055 0.0
C1521 C 0.71926 0.87864 0.98508 0.0
H1522 H 0.68771 0.9498 0.01091 0.0
C1523 C 0.69142 0.86735 0.96811 0.0
H1524 H 0.73865 0.91909 0.01191 0.0
C1525 C 0.66235 0.88555 0.96674 0.0
C1526 C 0.66035 0.91491 0.98306 0.0
H1527 H 0.69147 0.84385 0.95711 0.0
H1528 H 0.64109 0.87612 0.95414 0.0
C1529 C 0.68838 0.92674 -0.00111 0.0
C1530 C 0.9206 0.67024 0.00529 0.0
C1531 C 0.89286 0.66739 0.98494 0.0
H1532 H 0.95721 0.64647 0.03366 0.0
C1533 C 0.88451 0.63665 0.9735 0.0
H1534 H 0.92807 0.69302 0.01512 0.0
C1535 C 0.90113 0.60942 0.98511 0.0
C1536 C 0.92664 0.61262 0.00788 0.0
H1537 H 0.86391 0.63339 0.95713 0.0
H1538 H 0.89262 0.58601 0.97799 0.0
C1539 C 0.93721 0.64329 0.01648 0.0
C1540 C 0.33375 0.90411 0.03503 0.0
C1541 C 0.3212 0.89525 0.00437 0.0
H1542 H 0.3737 0.92459 0.06176 0.0
C1543 C 0.33926 0.90382 0.97648 0.0
H1544 H 0.32048 0.89865 0.05711 0.0
C1545 C 0.36925 0.9197 0.97916 0.0
C1546 C 0.38254 0.92697 0.00981 0.0
H1547 H 0.33122 0.897 0.95237 0.0
H1548 H 0.38265 0.92504 0.9571 0.0
C1549 C 0.3642 0.9194 0.03772 0.0
C1550 C 0.71997 0.15974 0.95824 0.0
C1551 C 0.74513 0.16517 0.98122 0.0
H1552 H 0.67385 0.13778 0.94775 0.0
C1553 C 0.74331 0.14935 0.01138 0.0
H1554 H 0.71975 0.17177 0.93499 0.0
C1555 C 0.71608 0.1305 0.01908 0.0
C1556 C 0.69044 0.12642 0.99652 0.0
H1557 H 0.76247 0.1521 0.02947 0.0
H1558 H 0.71481 0.1196 0.04291 0.0
C1559 C 0.69324 0.14037 0.96567 0.0
C1560 C 0.47907 0.63279 0.82946 0.0
C1561 C 0.49914 0.65952 0.82418 0.0
H1562 H 0.46212 0.59781 0.86329 0.0
C1563 C 0.52113 0.66871 0.84889 0.0
H1564 H 0.4622 0.62476 0.81077 0.0
C1565 C 0.5211 0.65325 0.87904 0.0
C1566 C 0.49909 0.62824 0.88518 0.0
H1567 H 0.53679 0.68928 0.84581 0.0
H1568 H 0.53711 0.66208 0.89808 0.0
C1569 C 0.47908 0.61729 0.85958 0.0
C1570 C 0.38941 0.5508 0.87536 0.0
C1571 C 0.40275 0.53796 0.84661 0.0
H1572 H 0.39446 0.55597 0.92691 0.0
C1573 C 0.43476 0.5249 0.84735 0.0
H1574 H 0.36476 0.56089 0.87557 0.0
C1575 C 0.45191 0.52223 0.87676 0.0
C1576 C 0.4371 0.53213 0.90603 0.0
H1577 H 0.44573 0.51508 0.82547 0.0
H1578 H 0.4757 0.51034 0.87681 0.0
C1579 C 0.40636 0.54777 0.90482 0.0
C1580 C 0.48159 0.35427 0.85943 0.0
C1581 C 0.48815 0.36208 0.82682 0.0
H1582 H 0.48564 0.36814 0.90955 0.0
C1583 C 0.50115 0.39227 0.81983 0.0
H1584 H 0.47199 0.33102 0.86562 0.0
C1585 C 0.50868 0.41366 0.84497 0.0
C1586 C 0.50409 0.40503 0.87772 0.0
H1587 H 0.50656 0.39888 0.79496 0.0
H1588 H 0.51966 0.43632 0.83878 0.0
C1589 C 0.48971 0.3754 0.88462 0.0
C1590 C 0.59999 0.55716 0.83936 0.0
C1591 C 0.60788 0.52473 0.83435 0.0
H1592 H 0.57848 0.59214 0.87133 0.0
C1593 C 0.59647 0.5022 0.85697 0.0
H1594 H 0.60804 0.57511 0.8223 0.0
C1595 C 0.5796 0.51194 0.88481 0.0
C1596 C 0.57362 0.54441 0.89085 0.0
H1597 H 0.60261 0.47711 0.85456 0.0
H1598 H 0.5733 0.49411 0.90269 0.0
C1599 C 0.58307 0.56692 0.86741 0.0
C1600 C 0.53042 0.38027 0.17504 0.0
C1601 C 0.49694 0.37373 0.18071 0.0
H1602 H 0.56603 0.40241 0.14411 0.0
C1603 C 0.47333 0.38685 0.15931 0.0
H1604 H 0.54932 0.37112 0.19119 0.0
C1605 C 0.48292 0.40517 0.13264 0.0
C1606 C 0.51639 0.41051 0.1263 0.0
H1607 H 0.44737 0.38195 0.16229 0.0
H1608 H 0.46408 0.41424 0.11633 0.0
C1609 C 0.54004 0.39828 0.14806 0.0
C1610 C 0.59859 0.49743 0.17131 0.0
C1611 C 0.63043 0.48461 0.16735 0.0
H1612 H 0.55525 0.51493 0.14748 0.0
C1613 C 0.63888 0.47115 0.13694 0.0
H1614 H 0.59101 0.50795 0.19421 0.0
C1615 C 0.61813 0.47526 0.10995 0.0
C1616 C 0.5887 0.49269 0.11318 0.0
H1617 H 0.66292 0.46037 0.13326 0.0
H1618 H 0.62697 0.46829 0.08609 0.0
C1619 C 0.57797 0.50148 0.14442 0.0
C1620 C 0.56025 0.64896 0.14922 0.0
C1621 C 0.5393 0.6616 0.17352 0.0
H1622 H 0.5642 0.62187 0.10508 0.0
C1623 C 0.50554 0.65443 0.17178 0.0
H1624 H 0.58634 0.65406 0.1493 0.0
C1625 C 0.49288 0.6369 0.14572 0.0
C1626 C 0.5136 0.62526 0.12091 0.0
H1627 H 0.48861 0.66274 0.19034 0.0
H1628 H 0.46659 0.63278 0.14489 0.0
C1629 C 0.54756 0.63072 0.12347 0.0
C1630 C 0.43365 0.57108 0.16563 0.0
C1631 C 0.39981 0.56811 0.17195 0.0
H1632 H 0.47358 0.55931 0.13336 0.0
C1633 C 0.37977 0.55273 0.14886 0.0
H1634 H 0.44963 0.58278 0.18298 0.0
C1635 C 0.3933 0.54012 0.12036 0.0
C1636 C 0.42703 0.54291 0.11421 0.0
H1637 H 0.35347 0.55066 0.15271 0.0
H1638 H 0.37748 0.52777 0.10331 0.0
C1639 C 0.44723 0.55816 0.13711 0.0
C1640 C 0.84827 0.53269 0.68448 0.0
C1641 C 0.8421 0.50127 0.69477 0.0
H1642 H 0.87734 0.56323 0.65425 0.0
C1643 C 0.8633 0.4767 0.68409 0.0
H1644 H 0.83278 0.55227 0.69266 0.0
C1645 C 0.88907 0.48304 0.66281 0.0
C1646 C 0.89426 0.51409 0.65113 0.0
H1647 H 0.85922 0.45214 0.69105 0.0
H1648 H 0.90398 0.46316 0.65428 0.0
C1649 C 0.87415 0.53906 0.6629 0.0
C1650 C 0.57643 0.86238 0.6385 0.0
C1651 C 0.54391 0.85099 0.63637 0.0
H1652 H 0.61119 0.89773 0.62352 0.0
C1653 C 0.52193 0.86655 0.61499 0.0
H1654 H 0.59431 0.85082 0.65417 0.0
C1655 C 0.53189 0.89297 0.59693 0.0
C1656 C 0.56389 0.90509 0.60012 0.0
H1657 H 0.49652 0.85917 0.613 0.0
H1658 H 0.51406 0.90452 0.58121 0.0
C1659 C 0.58621 0.88923 0.62078 0.0
C1660 C 0.21045 0.57876 0.62419 0.0
C1661 C 0.2321 0.55264 0.62843 0.0
H1662 H 0.16441 0.59539 0.60472 0.0
C1663 C 0.22593 0.52443 0.61083 0.0
H1664 H 0.21481 0.60119 0.63655 0.0
C1665 C 0.19739 0.52131 0.59227 0.0
C1666 C 0.17397 0.54614 0.59111 0.0
H1667 H 0.24161 0.50357 0.61339 0.0
H1668 H 0.19266 0.4985 0.58078 0.0
C1669 C 0.18156 0.57549 0.60587 0.0
C1670 C 0.48829 0.15891 0.6125 0.0
C1671 C 0.4805 0.15115 0.64486 0.0
H1672 H 0.50773 0.14249 0.56697 0.0
C1673 C 0.47997 0.11859 0.65361 0.0
H1674 H 0.48815 0.18353 0.60453 0.0
C1675 C 0.49039 0.09487 0.63158 0.0
C1676 C 0.50172 0.10335 0.60059 0.0
H1677 H 0.47425 0.1116 0.67828 0.0
H1678 H 0.49256 0.07041 0.63986 0.0
C1679 C 0.49916 0.13535 0.5908 0.0
C1680 C 0.80927 0.57103 0.38872 0.0
C1681 C 0.78987 0.54339 0.3862 0.0
H1682 H 0.85256 0.59259 0.40845 0.0
C1683 C 0.7984 0.51673 0.40518 0.0
H1684 H 0.8038 0.59193 0.37418 0.0
C1685 C 0.8267 0.51701 0.42459 0.0
C1686 C 0.84719 0.54398 0.42549 0.0
H1687 H 0.7838 0.49522 0.4042 0.0
H1688 H 0.83316 0.49558 0.43788 0.0
C1689 C 0.83752 0.57136 0.4082 0.0
C1690 C 0.52851 0.87848 0.35647 0.0
C1691 C 0.53544 0.84691 0.36603 0.0
H1692 H 0.51092 0.92481 0.37046 0.0
C1693 C 0.53047 0.8384 0.3987 0.0
H1694 H 0.5327 0.88601 0.33165 0.0
C1695 C 0.51787 0.86068 0.42102 0.0
C1696 C 0.51035 0.89209 0.41127 0.0
H1697 H 0.53558 0.81429 0.40684 0.0
H1698 H 0.51375 0.85316 0.44585 0.0
C1699 C 0.51623 0.90081 0.37881 0.0
C1700 C 0.18675 0.55008 0.33167 0.0
C1701 C 0.18989 0.58309 0.32676 0.0
H1702 H 0.16071 0.51264 0.35547 0.0
C1703 C 0.16629 0.60377 0.34064 0.0
H1704 H 0.20454 0.5335 0.32142 0.0
C1705 C 0.14087 0.59176 0.36 0.0
C1706 C 0.13871 0.55885 0.36621 0.0
H1707 H 0.16771 0.6293 0.33686 0.0
H1708 H 0.12384 0.60837 0.37127 0.0
C1709 C 0.16157 0.53813 0.35123 0.0
C1710 C 0.44699 0.18547 0.40486 0.0
C1711 C 0.46856 0.18815 0.37824 0.0
H1712 H 0.42989 0.15649 0.44408 0.0
C1713 C 0.49341 0.16473 0.37432 0.0
H1714 H 0.42819 0.20342 0.40935 0.0
C1715 C 0.49493 0.13815 0.39498 0.0
C1716 C 0.47131 0.13425 0.41953 0.0
H1717 H 0.51037 0.16577 0.35407 0.0
H1718 H 0.5131 0.11962 0.39028 0.0
C1719 C 0.44807 0.15867 0.42495 0.0
C1720 C 0.61542 0.86208 0.46734 0.0
C1721 C 0.64745 0.8619 0.48044 0.0
H1722 H 0.57106 0.88882 0.45897 0.0
C1723 C 0.65767 0.88855 0.49867 0.0
H1724 H 0.60655 0.84183 0.45352 0.0
C1725 C 0.63729 0.9155 0.50179 0.0
C1726 C 0.60616 0.91647 0.48681 0.0
H1727 H 0.68224 0.88944 0.50888 0.0
H1728 H 0.64662 0.93614 0.51465 0.0
C1729 C 0.59498 0.88899 0.4706 0.0
C1730 C 0.65548 0.15574 0.51281 0.0
C1731 C 0.65859 0.17795 0.48727 0.0
H1732 H 0.62983 0.11495 0.53111 0.0
C1733 C 0.63566 0.17686 0.46166 0.0
H1734 H 0.67238 0.15605 0.5332 0.0
C1735 C 0.61143 0.1536 0.46075 0.0
C1736 C 0.60935 0.13032 0.48522 0.0
H1737 H 0.63733 0.19292 0.44116 0.0
H1738 H 0.59502 0.15326 0.43996 0.0
C1739 C 0.63102 0.1322 0.51178 0.0
C1740 C 0.86973 0.66046 0.46876 0.0
C1741 C 0.84661 0.67461 0.49007 0.0
H1742 H 0.91096 0.62843 0.46341 0.0
C1743 C 0.84739 0.66582 0.52302 0.0
H1744 H 0.87024 0.66694 0.4433 0.0
C1745 C 0.87092 0.64413 0.53451 0.0
C1746 C 0.89426 0.63026 0.51338 0.0
H1747 H 0.82971 0.67567 0.54008 0.0
H1748 H 0.87067 0.63814 0.56012 0.0
C1749 C 0.89327 0.6385 0.48029 0.0
C1750 C 0.37024 0.86242 0.4868 0.0
C1751 C 0.36872 0.83788 0.51006 0.0
H1752 H 0.39295 0.90601 0.47218 0.0
C1753 C 0.39144 0.83791 0.53588 0.0
H1754 H 0.35287 0.8634 0.46681 0.0
C1755 C 0.41444 0.86249 0.53892 0.0
C1756 C 0.41488 0.88774 0.51642 0.0
H1757 H 0.39106 0.81924 0.55404 0.0
H1758 H 0.43105 0.86228 0.55956 0.0
C1759 C 0.39301 0.88706 0.49 0.0
C1760 C 0.18004 0.373 0.49203 0.0
C1761 C 0.20813 0.37725 0.51161 0.0
H1762 H 0.13986 0.39512 0.46655 0.0
C1763 C 0.21701 0.4085 0.52043 0.0
H1764 H 0.17214 0.34928 0.48521 0.0
C1765 C 0.19835 0.43477 0.50994 0.0
C1766 C 0.17029 0.43052 0.49036 0.0
H1767 H 0.23861 0.41272 0.53526 0.0
H1768 H 0.20605 0.45845 0.51714 0.0
C1769 C 0.16133 0.3993 0.48158 0.0
C1770 C 0.39317 0.15324 0.55312 0.0
C1771 C 0.37306 0.15953 0.52598 0.0
H1772 H 0.42571 0.12106 0.5772 0.0
C1773 C 0.37197 0.13647 0.50087 0.0
H1774 H 0.39423 0.16967 0.57345 0.0
C1775 C 0.38996 0.10768 0.50339 0.0
C1776 C 0.40934 0.10145 0.53104 0.0
H1777 H 0.35685 0.14042 0.47954 0.0
H1778 H 0.3879 0.09001 0.48427 0.0
C1779 C 0.41098 0.12484 0.55554 0.0
C1780 C 0.86519 0.36885 0.51147 0.0
C1781 C 0.83741 0.37368 0.49163 0.0
H1782 H 0.90559 0.39014 0.5367 0.0
C1783 C 0.82938 0.40477 0.4815 0.0
H1784 H 0.87224 0.34504 0.51916 0.0
C1785 C 0.84839 0.43064 0.49164 0.0
C1786 C 0.87607 0.42582 0.51167 0.0
H1787 H 0.80814 0.4091 0.46611 0.0
H1788 H 0.84133 0.45442 0.48389 0.0
C1789 C 0.88446 0.39463 0.52121 0.0
C1790 C 0.13795 0.65716 0.54434 0.0
C1791 C 0.17047 0.64913 0.53532 0.0
H1792 H 0.08694 0.64388 0.54235 0.0
C1793 C 0.17701 0.61808 0.52383 0.0
H1794 H 0.13197 0.68092 0.55306 0.0
C1795 C 0.15117 0.59719 0.51738 0.0
C1796 C 0.11845 0.60661 0.52307 0.0
H1797 H 0.20181 0.61092 0.51723 0.0
H1798 H 0.15656 0.57459 0.50557 0.0
C1799 C 0.11208 0.636 0.53822 0.0
loop_
_geom_bond_atom_site_label_1
_geom_bond_atom_site_label_2
_geom_bond_distance
_geom_bond_site_symmetry_2
_ccdc_geom_bond_type
P0 O11 1.490 . S
P0 C14 1.812 1_655 S
P0 C20 1.803 1_655 S
P0 C26 1.819 1_655 S
H1 C15 0.941 . S
H2 C16 0.939 1_655 S
H3 C18 0.940 . S
H4 C19 0.940 . S
H5 C21 0.939 . S
H6 C22 0.942 1_655 S
H7 C24 0.940 . S
H8 C25 0.939 . S
H9 C27 0.941 . S
H10 C31 0.939 . S
O11 P0 1.490 . S
H12 C28 0.939 1_655 S
H13 C30 0.940 . S
C14 P0 1.812 1_455 S
C14 C15 1.389 1_455 S
C14 C19 1.391 . S
C15 H1 0.941 . S
C15 C14 1.389 1_655 S
C15 C16 1.397 1_655 S
C16 H2 0.939 1_455 S
C16 C15 1.397 1_455 S
C16 C17 1.378 . S
C17 C16 1.378 . S
C17 C18 1.378 . S
C18 H3 0.940 . S
C18 C17 1.378 . S
C18 C19 1.396 . S
C19 H4 0.940 . S
C19 C14 1.391 . S
C19 C18 1.396 . S
C20 P0 1.803 1_455 S
C20 C21 1.378 1_455 S
C20 C25 1.400 . S
C21 H5 0.939 . S
C21 C20 1.378 1_655 S
C21 C22 1.361 1_655 S
C22 H6 0.942 1_455 S
C22 C21 1.361 1_455 S
C22 C23 1.369 . S
C23 C22 1.369 . S
C23 C24 1.404 . S
C24 H7 0.940 . S
C24 C23 1.404 . S
C24 C25 1.389 . S
C25 H8 0.939 . S
C25 C20 1.400 . S
C25 C24 1.389 . S
C26 P0 1.819 1_455 S
C26 C27 1.391 1_455 S
C26 C31 1.391 . S
C27 H9 0.941 . S
C27 C26 1.391 1_655 S
C27 C28 1.396 1_655 S
C28 H12 0.939 1_455 S
C28 C27 1.396 1_455 S
C28 C29 1.397 . S
C29 C28 1.397 . S
C29 C30 1.385 . S
C30 H13 0.940 . S
C30 C29 1.385 . S
C30 C31 1.388 . S
C31 H10 0.939 . S
C31 C26 1.391 . S
C31 C30 1.388 . S
P32 O43 1.490 . S
P32 C46 1.812 1_565 S
P32 C52 1.803 1_565 S
P32 C58 1.819 1_565 S
H33 C47 0.941 . S
H34 C48 0.939 1_565 S
H35 C50 0.940 . S
H36 C51 0.940 . S
H37 C53 0.939 . S
H38 C54 0.942 1_565 S
H39 C56 0.940 . S
H40 C57 0.939 . S
H41 C59 0.941 . S
H42 C63 0.939 . S
O43 P32 1.490 . S
H44 C60 0.944 . S
H45 C62 0.940 . S
C46 P32 1.812 1_545 S
C46 C47 1.389 1_545 S
C46 C51 1.391 . S
C47 H33 0.941 . S
C47 C46 1.389 1_565 S
C47 C48 1.397 1_565 S
C48 H34 0.939 1_545 S
C48 C47 1.397 1_545 S
C48 C49 1.378 . S
C49 C48 1.378 . S
C49 C50 1.378 . S
C50 H35 0.940 . S
C50 C49 1.378 . S
C50 C51 1.396 . S
C51 H36 0.940 . S
C51 C46 1.391 . S
C51 C50 1.396 . S
C52 P32 1.803 1_545 S
C52 C53 1.378 1_545 S
C52 C57 1.400 . S
C53 H37 0.939 . S
C53 C52 1.378 1_565 S
C53 C54 1.361 1_565 S
C54 H38 0.942 1_545 S
C54 C53 1.361 1_545 S
C54 C55 1.369 . S
C55 C54 1.369 . S
C55 C56 1.404 . S
C56 H39 0.940 . S
C56 C55 1.404 . S
C56 C57 1.389 . S
C57 H40 0.939 . S
C57 C52 1.400 . S
C57 C56 1.389 . S
C58 P32 1.819 1_545 S
C58 C59 1.391 1_545 S
C58 C63 1.391 . S
C59 H41 0.941 . S
C59 C58 1.391 1_565 S
C59 C60 1.396 1_565 S
C60 H44 0.944 . S
C60 C59 1.396 1_545 S
C60 C61 1.397 . S
C61 C60 1.397 . S
C61 C62 1.385 . S
C62 H45 0.940 . S
C62 C61 1.385 . S
C62 C63 1.388 . S
C63 H42 0.939 . S
C63 C58 1.391 . S
C63 C62 1.388 . S
P64 O75 1.490 . S
P64 C78 1.812 . S
P64 C84 1.803 . S
P64 C90 1.819 . S
H65 C79 0.941 . S
H66 C80 0.939 . S
H67 C82 0.940 1_655 S
H68 C83 0.940 . S
H69 C85 0.939 . S
H70 C86 0.942 . S
H71 C88 0.940 1_655 S
H72 C89 0.939 . S
H73 C91 0.941 . S
H74 C95 0.939 . S
O75 P64 1.490 . S
H76 C92 0.939 . S
H77 C94 0.940 . S
C78 P64 1.812 . S
C78 C79 1.389 . S
C78 C83 1.391 . S
C79 H65 0.941 . S
C79 C78 1.389 . S
C79 C80 1.397 . S
C80 H66 0.939 . S
C80 C79 1.397 . S
C80 C81 1.378 . S
C81 C80 1.378 . S
C81 C82 1.378 . S
C82 H67 0.940 1_455 S
C82 C81 1.378 . S
C82 C83 1.396 . S
C83 H68 0.940 . S
C83 C78 1.391 . S
C83 C82 1.396 . S
C84 P64 1.803 . S
C84 C85 1.378 . S
C84 C89 1.400 . S
C85 H69 0.939 . S
C85 C84 1.378 . S
C85 C86 1.361 . S
C86 H70 0.942 . S
C86 C85 1.361 . S
C86 C87 1.369 . S
C87 C86 1.369 . S
C87 C88 1.404 . S
C88 H71 0.940 1_455 S
C88 C87 1.404 . S
C88 C89 1.389 . S
C89 H72 0.939 . S
C89 C84 1.400 . S
C89 C88 1.389 . S
C90 P64 1.819 . S
C90 C91 1.391 . S
C90 C95 1.391 . S
C91 H73 0.941 . S
C91 C90 1.391 . S
C91 C92 1.396 . S
C92 H76 0.939 . S
C92 C91 1.396 . S
C92 C93 1.397 . S
C93 C92 1.397 . S
C93 C94 1.385 . S
C94 H77 0.940 . S
C94 C93 1.385 . S
C94 C95 1.388 . S
C95 H74 0.939 . S
C95 C90 1.391 . S
C95 C94 1.388 . S
P96 O107 1.490 . S
P96 C110 1.812 . S
P96 C116 1.803 . S
P96 C122 1.819 . S
H97 C111 0.941 . S
H98 C112 0.939 . S
H99 C114 0.940 . S
H100 C115 0.940 . S
H101 C117 0.939 . S
H102 C118 0.942 . S
H103 C120 0.940 . S
H104 C121 0.939 . S
H105 C123 0.941 . S
H106 C127 0.939 1_545 S
O107 P96 1.490 . S
H108 C124 0.939 . S
H109 C126 0.940 . S
C110 P96 1.812 . S
C110 C111 1.389 . S
C110 C115 1.391 1_565 S
C111 H97 0.941 . S
C111 C110 1.389 . S
C111 C112 1.397 . S
C112 H98 0.939 . S
C112 C111 1.397 . S
C112 C113 1.378 . S
C113 C112 1.378 . S
C113 C114 1.378 1_565 S
C114 H99 0.940 . S
C114 C113 1.378 1_545 S
C114 C115 1.396 . S
C115 H100 0.940 . S
C115 C110 1.391 1_545 S
C115 C114 1.396 . S
C116 P96 1.803 . S
C116 C117 1.378 . S
C116 C121 1.400 1_565 S
C117 H101 0.939 . S
C117 C116 1.378 . S
C117 C118 1.361 . S
C118 H102 0.942 . S
C118 C117 1.361 . S
C118 C119 1.369 . S
C119 C118 1.369 . S
C119 C120 1.404 1_565 S
C120 H103 0.940 . S
C120 C119 1.404 1_545 S
C120 C121 1.389 . S
C121 H104 0.939 . S
C121 C116 1.400 1_545 S
C121 C120 1.389 . S
C122 P96 1.819 . S
C122 C123 1.391 . S
C122 C127 1.391 . S
C123 H105 0.941 . S
C123 C122 1.391 . S
C123 C124 1.396 . S
C124 H108 0.939 . S
C124 C123 1.396 . S
C124 C125 1.397 . S
C125 C124 1.397 . S
C125 C126 1.385 1_565 S
C126 H109 0.940 . S
C126 C125 1.385 1_545 S
C126 C127 1.388 1_545 S
C127 H106 0.939 1_565 S
C127 C122 1.391 . S
C127 C126 1.388 1_565 S
P128 O139 1.490 . S
P128 C142 1.812 . S
P128 C148 1.803 . S
P128 C154 1.819 . S
H129 C143 0.941 . S
H130 C144 0.939 . S
H131 C146 0.940 . S
H132 C147 0.948 . S
H133 C149 0.939 . S
H134 C150 0.942 . S
H135 C152 0.940 . S
H136 C153 0.939 . S
H137 C155 0.941 . S
H138 C159 0.939 1_455 S
O139 P128 1.490 . S
H140 C156 0.939 . S
H141 C158 0.940 . S
C142 P128 1.812 . S
C142 C143 1.389 . S
C142 C147 1.378 1_655 S
C143 H129 0.941 . S
C143 C142 1.389 . S
C143 C144 1.397 . S
C144 H130 0.939 . S
C144 C143 1.397 . S
C144 C145 1.378 . S
C145 C144 1.378 . S
C145 C146 1.378 1_655 S
C146 H131 0.940 . S
C146 C145 1.378 1_455 S
C146 C147 1.401 . S
C147 H132 0.948 . S
C147 C142 1.378 1_455 S
C147 C146 1.401 . S
C148 P128 1.803 . S
C148 C149 1.378 . S
C148 C153 1.400 1_655 S
C149 H133 0.939 . S
C149 C148 1.378 . S
C149 C150 1.361 . S
C150 H134 0.942 . S
C150 C149 1.361 . S
C150 C151 1.369 . S
C151 C150 1.369 . S
C151 C152 1.404 1_655 S
C152 H135 0.940 . S
C152 C151 1.404 1_455 S
C152 C153 1.389 . S
C153 H136 0.939 . S
C153 C148 1.400 1_455 S
C153 C152 1.389 . S
C154 P128 1.819 . S
C154 C155 1.391 . S
C154 C159 1.391 . S
C155 H137 0.941 . S
C155 C154 1.391 . S
C155 C156 1.396 . S
C156 H140 0.939 . S
C156 C155 1.396 . S
C156 C157 1.397 . S
C157 C156 1.397 . S
C157 C158 1.385 1_655 S
C158 H141 0.940 . S
C158 C157 1.385 1_455 S
C158 C159 1.388 1_455 S
C159 H138 0.939 1_655 S
C159 C154 1.391 . S
C159 C158 1.388 1_655 S
P160 O171 1.490 . S
P160 C174 1.812 . S
P160 C180 1.803 . S
P160 C186 1.819 . S
H161 C175 0.941 . S
H162 C176 0.939 . S
H163 C178 0.940 . S
H164 C179 0.940 . S
H165 C181 0.939 . S
H166 C182 0.942 . S
H167 C184 0.940 . S
H168 C185 0.939 . S
H169 C187 0.941 . S
H170 C191 0.940 . S
O171 P160 1.490 . S
H172 C188 0.939 . S
H173 C190 0.940 . S
C174 P160 1.812 . S
C174 C175 1.389 . S
C174 C179 1.391 1_565 S
C175 H161 0.941 . S
C175 C174 1.389 . S
C175 C176 1.397 . S
C176 H162 0.939 . S
C176 C175 1.397 . S
C176 C177 1.378 1_565 S
C177 C176 1.378 1_545 S
C177 C178 1.378 . S
C178 H163 0.940 . S
C178 C177 1.378 . S
C178 C179 1.396 . S
C179 H164 0.940 . S
C179 C174 1.391 1_545 S
C179 C178 1.396 . S
C180 P160 1.803 . S
C180 C181 1.378 . S
C180 C185 1.400 1_565 S
C181 H165 0.939 . S
C181 C180 1.378 . S
C181 C182 1.361 . S
C182 H166 0.942 . S
C182 C181 1.361 . S
C182 C183 1.358 1_565 S
C183 C182 1.358 1_545 S
C183 C184 1.411 . S
C184 H167 0.940 . S
C184 C183 1.411 . S
C184 C185 1.389 . S
C185 H168 0.939 . S
C185 C180 1.400 1_545 S
C185 C184 1.389 . S
C186 P160 1.819 . S
C186 C187 1.391 . S
C186 C191 1.390 1_565 S
C187 H169 0.941 . S
C187 C186 1.391 . S
C187 C188 1.396 . S
C188 H172 0.939 . S
C188 C187 1.396 . S
C188 C189 1.393 1_565 S
C189 C188 1.393 1_545 S
C189 C190 1.386 . S
C190 H173 0.940 . S
C190 C189 1.386 . S
C190 C191 1.389 . S
C191 H170 0.940 . S
C191 C186 1.390 1_545 S
C191 C190 1.389 . S
P192 O203 1.490 . S
P192 C206 1.812 . S
P192 C212 1.803 . S
P192 C218 1.819 . S
H193 C207 0.941 . S
H194 C208 0.939 . S
H195 C210 0.940 1_655 S
H196 C211 0.940 . S
H197 C213 0.939 . S
H198 C214 0.942 . S
H199 C216 0.940 1_655 S
H200 C217 0.939 . S
H201 C219 0.941 . S
H202 C223 0.939 . S
O203 P192 1.490 . S
H204 C220 0.939 . S
H205 C222 0.940 . S
C206 P192 1.812 . S
C206 C207 1.389 . S
C206 C211 1.391 . S
C207 H193 0.941 . S
C207 C206 1.389 . S
C207 C208 1.397 . S
C208 H194 0.939 . S
C208 C207 1.397 . S
C208 C209 1.378 . S
C209 C208 1.378 . S
C209 C210 1.378 . S
C210 H195 0.940 1_455 S
C210 C209 1.378 . S
C210 C211 1.396 . S
C211 H196 0.940 . S
C211 C206 1.391 . S
C211 C210 1.396 . S
C212 P192 1.803 . S
C212 C213 1.378 . S
C212 C217 1.400 . S
C213 H197 0.939 . S
C213 C212 1.378 . S
C213 C214 1.361 . S
C214 H198 0.942 . S
C214 C213 1.361 . S
C214 C215 1.369 . S
C215 C214 1.369 . S
C215 C216 1.404 . S
C216 H199 0.940 1_455 S
C216 C215 1.404 . S
C216 C217 1.389 . S
C217 H200 0.939 . S
C217 C212 1.400 . S
C217 C216 1.389 . S
C218 P192 1.819 . S
C218 C219 1.391 . S
C218 C223 1.391 . S
C219 H201 0.941 . S
C219 C218 1.391 . S
C219 C220 1.396 . S
C220 H204 0.939 . S
C220 C219 1.396 . S
C220 C221 1.397 . S
C221 C220 1.397 . S
C221 C222 1.385 . S
C222 H205 0.940 . S
C222 C221 1.385 . S
C222 C223 1.388 . S
C223 H202 0.939 . S
C223 C218 1.391 . S
C223 C222 1.388 . S
P224 O235 1.490 . S
P224 C238 1.812 . S
P224 C244 1.803 . S
P224 C250 1.819 . S
H225 C239 0.941 . S
H226 C240 0.939 . S
H227 C242 0.940 . S
H228 C243 0.940 . S
H229 C245 0.939 . S
H230 C246 0.942 . S
H231 C248 0.940 . S
H232 C249 0.939 . S
H233 C251 0.941 . S
H234 C255 0.939 . S
O235 P224 1.490 . S
H236 C252 0.939 . S
H237 C254 0.940 . S
C238 P224 1.812 . S
C238 C239 1.389 . S
C238 C243 1.391 . S
C239 H225 0.941 . S
C239 C238 1.389 . S
C239 C240 1.397 . S
C240 H226 0.939 . S
C240 C239 1.397 . S
C240 C241 1.378 . S
C241 C240 1.378 . S
C241 C242 1.378 . S
C242 H227 0.940 . S
C242 C241 1.378 . S
C242 C243 1.396 . S
C243 H228 0.940 . S
C243 C238 1.391 . S
C243 C242 1.396 . S
C244 P224 1.803 . S
C244 C245 1.378 . S
C244 C249 1.400 . S
C245 H229 0.939 . S
C245 C244 1.378 . S
C245 C246 1.361 . S
C246 H230 0.942 . S
C246 C245 1.361 . S
C246 C247 1.369 . S
C247 C246 1.369 . S
C247 C248 1.404 . S
C248 H231 0.940 . S
C248 C247 1.404 . S
C248 C249 1.389 . S
C249 H232 0.939 . S
C249 C244 1.400 . S
C249 C248 1.389 . S
C250 P224 1.819 . S
C250 C251 1.391 . S
C250 C255 1.391 . S
C251 H233 0.941 . S
C251 C250 1.391 . S
C251 C252 1.396 . S
C252 H236 0.939 . S
C252 C251 1.396 . S
C252 C253 1.397 . S
C253 C252 1.397 . S
C253 C254 1.385 . S
C254 H237 0.940 . S
C254 C253 1.385 . S
C254 C255 1.388 . S
C255 H234 0.939 . S
C255 C250 1.391 . S
C255 C254 1.388 . S
P256 O267 1.490 . S
P256 C270 1.812 . S
P256 C276 1.803 . S
P256 C282 1.819 . S
H257 C271 0.941 . S
H258 C272 0.939 . S
H259 C274 0.940 . S
H260 C275 0.940 . S
H261 C277 0.939 . S
H262 C278 0.942 . S
H263 C280 0.940 . S
H264 C281 0.939 . S
H265 C283 0.941 . S
H266 C287 0.939 . S
O267 P256 1.490 . S
H268 C284 0.939 . S
H269 C286 0.940 . S
C270 P256 1.812 . S
C270 C271 1.389 . S
C270 C275 1.391 1_556 S
C271 H257 0.941 . S
C271 C270 1.389 . S
C271 C272 1.397 . S
C272 H258 0.939 . S
C272 C271 1.397 . S
C272 C273 1.378 1_556 S
C273 C272 1.378 1_554 S
C273 C274 1.378 . S
C274 H259 0.940 . S
C274 C273 1.378 . S
C274 C275 1.396 . S
C275 H260 0.940 . S
C275 C270 1.391 1_554 S
C275 C274 1.396 . S
C276 P256 1.803 . S
C276 C277 1.378 . S
C276 C281 1.400 1_556 S
C277 H261 0.939 . S
C277 C276 1.378 . S
C277 C278 1.361 . S
C278 H262 0.942 . S
C278 C277 1.361 . S
C278 C279 1.369 1_556 S
C279 C278 1.369 1_554 S
C279 C280 1.404 . S
C280 H263 0.940 . S
C280 C279 1.404 . S
C280 C281 1.389 . S
C281 H264 0.939 . S
C281 C276 1.400 1_554 S
C281 C280 1.389 . S
C282 P256 1.819 . S
C282 C283 1.391 . S
C282 C287 1.391 1_556 S
C283 H265 0.941 . S
C283 C282 1.391 . S
C283 C284 1.396 . S
C284 H268 0.939 . S
C284 C283 1.396 . S
C284 C285 1.397 1_556 S
C285 C284 1.397 1_554 S
C285 C286 1.385 . S
C286 H269 0.940 . S
C286 C285 1.385 . S
C286 C287 1.388 . S
C287 H266 0.939 . S
C287 C282 1.391 1_554 S
C287 C286 1.388 . S
P288 O299 1.490 . S
P288 C302 1.812 . S
P288 C308 1.803 . S
P288 C314 1.819 . S
H289 C303 0.941 . S
H290 C304 0.939 . S
H291 C306 0.940 . S
H292 C307 0.940 . S
H293 C309 0.939 . S
H294 C310 0.942 . S
H295 C312 0.940 . S
H296 C313 0.939 . S
H297 C315 0.941 . S
H298 C319 0.939 . S
O299 P288 1.490 . S
H300 C316 0.939 . S
H301 C318 0.940 . S
C302 P288 1.812 . S
C302 C303 1.389 . S
C302 C307 1.391 1_556 S
C303 H289 0.941 . S
C303 C302 1.389 . S
C303 C304 1.397 . S
C304 H290 0.939 . S
C304 C303 1.397 . S
C304 C305 1.378 1_556 S
C305 C304 1.378 1_554 S
C305 C306 1.378 . S
C306 H291 0.940 . S
C306 C305 1.378 . S
C306 C307 1.396 . S
C307 H292 0.940 . S
C307 C302 1.391 1_554 S
C307 C306 1.396 . S
C308 P288 1.803 . S
C308 C309 1.378 . S
C308 C313 1.400 1_556 S
C309 H293 0.939 . S
C309 C308 1.378 . S
C309 C310 1.361 . S
C310 H294 0.942 . S
C310 C309 1.361 . S
C310 C311 1.369 1_556 S
C311 C310 1.369 1_554 S
C311 C312 1.404 . S
C312 H295 0.940 . S
C312 C311 1.404 . S
C312 C313 1.389 . S
C313 H296 0.939 . S
C313 C308 1.400 1_554 S
C313 C312 1.389 . S
C314 P288 1.819 . S
C314 C315 1.391 . S
C314 C319 1.391 1_556 S
C315 H297 0.941 . S
C315 C314 1.391 . S
C315 C316 1.396 . S
C316 H300 0.939 . S
C316 C315 1.396 . S
C316 C317 1.397 1_556 S
C317 C316 1.397 1_554 S
C317 C318 1.385 . S
C318 H301 0.940 . S
C318 C317 1.385 . S
C318 C319 1.388 . S
C319 H298 0.939 . S
C319 C314 1.391 1_554 S
C319 C318 1.388 . S
P320 O331 1.490 . S
P320 C334 1.812 . S
P320 C340 1.803 . S
P320 C346 1.819 . S
H321 C335 0.941 . S
H322 C336 0.939 . S
H323 C338 0.940 . S
H324 C339 0.940 . S
H325 C341 0.939 . S
H326 C342 0.942 . S
H327 C344 0.940 . S
H328 C345 0.939 . S
H329 C347 0.941 . S
H330 C351 0.939 1_554 S
O331 P320 1.490 . S
H332 C348 0.939 . S
H333 C350 0.940 . S
C334 P320 1.812 . S
C334 C335 1.389 . S
C334 C339 1.391 1_556 S
C335 H321 0.941 . S
C335 C334 1.389 . S
C335 C336 1.397 . S
C336 H322 0.939 . S
C336 C335 1.397 . S
C336 C337 1.378 . S
C337 C336 1.378 . S
C337 C338 1.378 1_556 S
C338 H323 0.940 . S
C338 C337 1.378 1_554 S
C338 C339 1.396 . S
C339 H324 0.940 . S
C339 C334 1.391 1_554 S
C339 C338 1.396 . S
C340 P320 1.803 . S
C340 C341 1.378 . S
C340 C345 1.400 1_556 S
C341 H325 0.939 . S
C341 C340 1.378 . S
C341 C342 1.361 . S
C342 H326 0.942 . S
C342 C341 1.361 . S
C342 C343 1.369 . S
C343 C342 1.369 . S
C343 C344 1.404 1_556 S
C344 H327 0.940 . S
C344 C343 1.404 1_554 S
C344 C345 1.389 . S
C345 H328 0.939 . S
C345 C340 1.400 1_554 S
C345 C344 1.389 . S
C346 P320 1.819 . S
C346 C347 1.391 . S
C346 C351 1.391 . S
C347 H329 0.941 . S
C347 C346 1.391 . S
C347 C348 1.396 . S
C348 H332 0.939 . S
C348 C347 1.396 . S
C348 C349 1.397 . S
C349 C348 1.397 . S
C349 C350 1.385 1_556 S
C350 H333 0.940 . S
C350 C349 1.385 1_554 S
C350 C351 1.388 1_554 S
C351 H330 0.939 1_556 S
C351 C346 1.391 . S
C351 C350 1.388 1_556 S
P352 O363 1.490 . S
P352 C366 1.812 . S
P352 C372 1.803 . S
P352 C378 1.819 . S
H353 C367 0.941 . S
H354 C368 0.939 . S
H355 C370 0.940 . S
H356 C371 0.940 1_556 S
H357 C373 0.939 . S
H358 C374 0.942 . S
H359 C376 0.940 . S
H360 C377 0.939 1_556 S
H361 C379 0.941 . S
H362 C383 0.939 . S
O363 P352 1.490 . S
H364 C380 0.939 . S
H365 C382 0.942 1_556 S
C366 P352 1.812 . S
C366 C367 1.389 . S
C366 C371 1.391 . S
C367 H353 0.941 . S
C367 C366 1.389 . S
C367 C368 1.397 . S
C368 H354 0.939 . S
C368 C367 1.397 . S
C368 C369 1.378 . S
C369 C368 1.378 . S
C369 C370 1.378 1_554 S
C370 H355 0.940 . S
C370 C369 1.378 1_556 S
C370 C371 1.396 1_556 S
C371 H356 0.940 1_554 S
C371 C366 1.391 . S
C371 C370 1.396 1_554 S
C372 P352 1.803 . S
C372 C373 1.378 . S
C372 C377 1.400 . S
C373 H357 0.939 . S
C373 C372 1.378 . S
C373 C374 1.361 . S
C374 H358 0.942 . S
C374 C373 1.361 . S
C374 C375 1.369 . S
C375 C374 1.369 . S
C375 C376 1.404 1_554 S
C376 H359 0.940 . S
C376 C375 1.404 1_556 S
C376 C377 1.389 1_556 S
C377 H360 0.939 1_554 S
C377 C372 1.400 . S
C377 C376 1.389 1_554 S
C378 P352 1.819 . S
C378 C379 1.391 . S
C378 C383 1.391 . S
C379 H361 0.941 . S
C379 C378 1.391 . S
C379 C380 1.396 . S
C380 H364 0.939 . S
C380 C379 1.396 . S
C380 C381 1.397 . S
C381 C380 1.397 . S
C381 C382 1.383 . S
C382 H365 0.942 1_554 S
C382 C381 1.383 . S
C382 C383 1.387 . S
C383 H362 0.939 . S
C383 C378 1.391 . S
C383 C382 1.387 . S
P384 O395 1.490 . S
P384 C398 1.812 . S
P384 C404 1.803 . S
P384 C410 1.819 . S
H385 C399 0.941 . S
H386 C400 0.939 . S
H387 C402 0.940 . S
H388 C403 0.940 . S
H389 C405 0.939 . S
H390 C406 0.942 . S
H391 C408 0.940 . S
H392 C409 0.939 . S
H393 C411 0.941 . S
H394 C415 0.939 . S
O395 P384 1.490 . S
H396 C412 0.939 . S
H397 C414 0.940 . S
C398 P384 1.812 . S
C398 C399 1.389 . S
C398 C403 1.391 . S
C399 H385 0.941 . S
C399 C398 1.389 . S
C399 C400 1.397 . S
C400 H386 0.939 . S
C400 C399 1.397 . S
C400 C401 1.378 . S
C401 C400 1.378 . S
C401 C402 1.378 . S
C402 H387 0.940 . S
C402 C401 1.378 . S
C402 C403 1.396 . S
C403 H388 0.940 . S
C403 C398 1.391 . S
C403 C402 1.396 . S
C404 P384 1.803 . S
C404 C405 1.378 . S
C404 C409 1.400 . S
C405 H389 0.939 . S
C405 C404 1.378 . S
C405 C406 1.361 . S
C406 H390 0.942 . S
C406 C405 1.361 . S
C406 C407 1.369 . S
C407 C406 1.369 . S
C407 C408 1.404 . S
C408 H391 0.940 . S
C408 C407 1.404 . S
C408 C409 1.389 . S
C409 H392 0.939 . S
C409 C404 1.400 . S
C409 C408 1.389 . S
C410 P384 1.819 . S
C410 C411 1.391 . S
C410 C415 1.391 . S
C411 H393 0.941 . S
C411 C410 1.391 . S
C411 C412 1.396 . S
C412 H396 0.939 . S
C412 C411 1.396 . S
C412 C413 1.397 . S
C413 C412 1.397 . S
C413 C414 1.385 . S
C414 H397 0.940 . S
C414 C413 1.385 . S
C414 C415 1.388 . S
C415 H394 0.939 . S
C415 C410 1.391 . S
C415 C414 1.388 . S
P416 O427 1.490 . S
P416 C430 1.812 . S
P416 C436 1.803 . S
P416 C442 1.819 . S
H417 C431 0.941 . S
H418 C432 0.939 . S
H419 C434 0.940 . S
H420 C435 0.940 . S
H421 C437 0.939 . S
H422 C438 0.942 . S
H423 C440 0.940 . S
H424 C441 0.939 . S
H425 C443 0.941 . S
H426 C447 0.939 . S
O427 P416 1.490 . S
H428 C444 0.939 . S
H429 C446 0.940 . S
C430 P416 1.812 . S
C430 C431 1.389 . S
C430 C435 1.391 . S
C431 H417 0.941 . S
C431 C430 1.389 . S
C431 C432 1.397 . S
C432 H418 0.939 . S
C432 C431 1.397 . S
C432 C433 1.378 . S
C433 C432 1.378 . S
C433 C434 1.378 . S
C434 H419 0.940 . S
C434 C433 1.378 . S
C434 C435 1.396 . S
C435 H420 0.940 . S
C435 C430 1.391 . S
C435 C434 1.396 . S
C436 P416 1.803 . S
C436 C437 1.378 . S
C436 C441 1.400 . S
C437 H421 0.939 . S
C437 C436 1.378 . S
C437 C438 1.361 . S
C438 H422 0.942 . S
C438 C437 1.361 . S
C438 C439 1.369 . S
C439 C438 1.369 . S
C439 C440 1.404 . S
C440 H423 0.940 . S
C440 C439 1.404 . S
C440 C441 1.389 . S
C441 H424 0.939 . S
C441 C436 1.400 . S
C441 C440 1.389 . S
C442 P416 1.819 . S
C442 C443 1.391 . S
C442 C447 1.391 . S
C443 H425 0.941 . S
C443 C442 1.391 . S
C443 C444 1.396 . S
C444 H428 0.939 . S
C444 C443 1.396 . S
C444 C445 1.397 . S
C445 C444 1.397 . S
C445 C446 1.385 . S
C446 H429 0.940 . S
C446 C445 1.385 . S
C446 C447 1.388 . S
C447 H426 0.939 . S
C447 C442 1.391 . S
C447 C446 1.388 . S
P448 O459 1.490 . S
P448 C462 1.812 . S
P448 C468 1.803 . S
P448 C474 1.819 . S
H449 C463 0.941 . S
H450 C464 0.939 . S
H451 C466 0.940 . S
H452 C467 0.940 . S
H453 C469 0.939 . S
H454 C470 0.942 . S
H455 C472 0.940 . S
H456 C473 0.939 . S
H457 C475 0.941 . S
H458 C479 0.939 . S
O459 P448 1.490 . S
H460 C476 0.939 . S
H461 C478 0.940 . S
C462 P448 1.812 . S
C462 C463 1.389 . S
C462 C467 1.391 . S
C463 H449 0.941 . S
C463 C462 1.389 . S
C463 C464 1.397 . S
C464 H450 0.939 . S
C464 C463 1.397 . S
C464 C465 1.378 . S
C465 C464 1.378 . S
C465 C466 1.378 . S
C466 H451 0.940 . S
C466 C465 1.378 . S
C466 C467 1.396 . S
C467 H452 0.940 . S
C467 C462 1.391 . S
C467 C466 1.396 . S
C468 P448 1.803 . S
C468 C469 1.378 . S
C468 C473 1.400 . S
C469 H453 0.939 . S
C469 C468 1.378 . S
C469 C470 1.361 . S
C470 H454 0.942 . S
C470 C469 1.361 . S
C470 C471 1.369 . S
C471 C470 1.369 . S
C471 C472 1.404 . S
C472 H455 0.940 . S
C472 C471 1.404 . S
C472 C473 1.389 . S
C473 H456 0.939 . S
C473 C468 1.400 . S
C473 C472 1.389 . S
C474 P448 1.819 . S
C474 C475 1.391 . S
C474 C479 1.391 . S
C475 H457 0.941 . S
C475 C474 1.391 . S
C475 C476 1.396 . S
C476 H460 0.939 . S
C476 C475 1.396 . S
C476 C477 1.397 . S
C477 C476 1.397 . S
C477 C478 1.385 . S
C478 H461 0.940 . S
C478 C477 1.385 . S
C478 C479 1.388 . S
C479 H458 0.939 . S
C479 C474 1.391 . S
C479 C478 1.388 . S
P480 O491 1.490 . S
P480 C494 1.812 . S
P480 C500 1.803 . S
P480 C506 1.819 . S
H481 C495 0.941 . S
H482 C496 0.939 . S
H483 C498 0.940 . S
H484 C499 0.940 . S
H485 C501 0.939 . S
H486 C502 0.942 . S
H487 C504 0.940 . S
H488 C505 0.939 . S
H489 C507 0.941 . S
H490 C511 0.939 . S
O491 P480 1.490 . S
H492 C508 0.939 . S
H493 C510 0.940 . S
C494 P480 1.812 . S
C494 C495 1.389 . S
C494 C499 1.391 . S
C495 H481 0.941 . S
C495 C494 1.389 . S
C495 C496 1.397 . S
C496 H482 0.939 . S
C496 C495 1.397 . S
C496 C497 1.378 . S
C497 C496 1.378 . S
C497 C498 1.378 . S
C498 H483 0.940 . S
C498 C497 1.378 . S
C498 C499 1.396 . S
C499 H484 0.940 . S
C499 C494 1.391 . S
C499 C498 1.396 . S
C500 P480 1.803 . S
C500 C501 1.378 . S
C500 C505 1.400 . S
C501 H485 0.939 . S
C501 C500 1.378 . S
C501 C502 1.361 . S
C502 H486 0.942 . S
C502 C501 1.361 . S
C502 C503 1.369 . S
C503 C502 1.369 . S
C503 C504 1.404 . S
C504 H487 0.940 . S
C504 C503 1.404 . S
C504 C505 1.389 . S
C505 H488 0.939 . S
C505 C500 1.400 . S
C505 C504 1.389 . S
C506 P480 1.819 . S
C506 C507 1.391 . S
C506 C511 1.391 . S
C507 H489 0.941 . S
C507 C506 1.391 . S
C507 C508 1.396 . S
C508 H492 0.939 . S
C508 C507 1.396 . S
C508 C509 1.397 . S
C509 C508 1.397 . S
C509 C510 1.385 . S
C510 H493 0.940 . S
C510 C509 1.385 . S
C510 C511 1.388 . S
C511 H490 0.939 . S
C511 C506 1.391 . S
C511 C510 1.388 . S
P512 O523 1.490 . S
P512 C526 1.812 . S
P512 C532 1.803 . S
P512 C538 1.819 . S
H513 C527 0.941 . S
H514 C528 0.939 . S
H515 C530 0.940 . S
H516 C531 0.940 . S
H517 C533 0.939 . S
H518 C534 0.942 . S
H519 C536 0.940 . S
H520 C537 0.939 . S
H521 C539 0.941 . S
H522 C543 0.939 . S
O523 P512 1.490 . S
H524 C540 0.939 . S
H525 C542 0.940 . S
C526 P512 1.812 . S
C526 C527 1.389 . S
C526 C531 1.391 . S
C527 H513 0.941 . S
C527 C526 1.389 . S
C527 C528 1.397 . S
C528 H514 0.939 . S
C528 C527 1.397 . S
C528 C529 1.378 . S
C529 C528 1.378 . S
C529 C530 1.378 . S
C530 H515 0.940 . S
C530 C529 1.378 . S
C530 C531 1.396 . S
C531 H516 0.940 . S
C531 C526 1.391 . S
C531 C530 1.396 . S
C532 P512 1.803 . S
C532 C533 1.378 . S
C532 C537 1.400 . S
C533 H517 0.939 . S
C533 C532 1.378 . S
C533 C534 1.361 . S
C534 H518 0.942 . S
C534 C533 1.361 . S
C534 C535 1.369 . S
C535 C534 1.369 . S
C535 C536 1.404 . S
C536 H519 0.940 . S
C536 C535 1.404 . S
C536 C537 1.389 . S
C537 H520 0.939 . S
C537 C532 1.400 . S
C537 C536 1.389 . S
C538 P512 1.819 . S
C538 C539 1.391 . S
C538 C543 1.391 . S
C539 H521 0.941 . S
C539 C538 1.391 . S
C539 C540 1.396 . S
C540 H524 0.939 . S
C540 C539 1.396 . S
C540 C541 1.397 . S
C541 C540 1.397 . S
C541 C542 1.385 . S
C542 H525 0.940 . S
C542 C541 1.385 . S
C542 C543 1.388 . S
C543 H522 0.939 . S
C543 C538 1.391 . S
C543 C542 1.388 . S
P544 O555 1.490 . S
P544 C558 1.812 . S
P544 C564 1.803 . S
P544 C570 1.819 . S
H545 C559 0.941 . S
H546 C560 0.939 . S
H547 C562 0.940 . S
H548 C563 0.940 . S
H549 C565 0.939 . S
H550 C566 0.942 . S
H551 C568 0.940 . S
H552 C569 0.939 . S
H553 C571 0.941 . S
H554 C575 0.939 . S
O555 P544 1.490 . S
H556 C572 0.939 . S
H557 C574 0.940 . S
C558 P544 1.812 . S
C558 C559 1.389 . S
C558 C563 1.391 . S
C559 H545 0.941 . S
C559 C558 1.389 . S
C559 C560 1.397 . S
C560 H546 0.939 . S
C560 C559 1.397 . S
C560 C561 1.378 . S
C561 C560 1.378 . S
C561 C562 1.378 . S
C562 H547 0.940 . S
C562 C561 1.378 . S
C562 C563 1.396 . S
C563 H548 0.940 . S
C563 C558 1.391 . S
C563 C562 1.396 . S
C564 P544 1.803 . S
C564 C565 1.378 . S
C564 C569 1.400 . S
C565 H549 0.939 . S
C565 C564 1.378 . S
C565 C566 1.361 . S
C566 H550 0.942 . S
C566 C565 1.361 . S
C566 C567 1.369 . S
C567 C566 1.369 . S
C567 C568 1.404 . S
C568 H551 0.940 . S
C568 C567 1.404 . S
C568 C569 1.389 . S
C569 H552 0.939 . S
C569 C564 1.400 . S
C569 C568 1.389 . S
C570 P544 1.819 . S
C570 C571 1.391 . S
C570 C575 1.391 . S
C571 H553 0.941 . S
C571 C570 1.391 . S
C571 C572 1.396 . S
C572 H556 0.939 . S
C572 C571 1.396 . S
C572 C573 1.397 . S
C573 C572 1.397 . S
C573 C574 1.385 . S
C574 H557 0.940 . S
C574 C573 1.385 . S
C574 C575 1.388 . S
C575 H554 0.939 . S
C575 C570 1.391 . S
C575 C574 1.388 . S
P576 O587 1.490 . S
P576 C590 1.812 . S
P576 C596 1.803 . S
P576 C602 1.819 . S
H577 C591 0.941 . S
H578 C592 0.939 . S
H579 C594 0.940 . S
H580 C595 0.940 . S
H581 C597 0.939 . S
H582 C598 0.942 . S
H583 C600 0.940 . S
H584 C601 0.939 . S
H585 C603 0.941 . S
H586 C607 0.939 . S
O587 P576 1.490 . S
H588 C604 0.939 . S
H589 C606 0.940 . S
C590 P576 1.812 . S
C590 C591 1.389 . S
C590 C595 1.391 . S
C591 H577 0.941 . S
C591 C590 1.389 . S
C591 C592 1.397 . S
C592 H578 0.939 . S
C592 C591 1.397 . S
C592 C593 1.378 . S
C593 C592 1.378 . S
C593 C594 1.378 . S
C594 H579 0.940 . S
C594 C593 1.378 . S
C594 C595 1.396 . S
C595 H580 0.940 . S
C595 C590 1.391 . S
C595 C594 1.396 . S
C596 P576 1.803 . S
C596 C597 1.378 . S
C596 C601 1.400 . S
C597 H581 0.939 . S
C597 C596 1.378 . S
C597 C598 1.361 . S
C598 H582 0.942 . S
C598 C597 1.361 . S
C598 C599 1.369 . S
C599 C598 1.369 . S
C599 C600 1.404 . S
C600 H583 0.940 . S
C600 C599 1.404 . S
C600 C601 1.389 . S
C601 H584 0.939 . S
C601 C596 1.400 . S
C601 C600 1.389 . S
C602 P576 1.819 . S
C602 C603 1.391 . S
C602 C607 1.391 . S
C603 H585 0.941 . S
C603 C602 1.391 . S
C603 C604 1.396 . S
C604 H588 0.939 . S
C604 C603 1.396 . S
C604 C605 1.397 . S
C605 C604 1.397 . S
C605 C606 1.385 . S
C606 H589 0.940 . S
C606 C605 1.385 . S
C606 C607 1.388 . S
C607 H586 0.939 . S
C607 C602 1.391 . S
C607 C606 1.388 . S
P608 O619 1.490 . S
P608 C622 1.812 . S
P608 C628 1.803 . S
P608 C634 1.819 . S
H609 C623 0.941 . S
H610 C624 0.939 . S
H611 C626 0.940 . S
H612 C627 0.940 . S
H613 C629 0.939 . S
H614 C630 0.942 . S
H615 C632 0.940 . S
H616 C633 0.939 . S
H617 C635 0.941 . S
H618 C639 0.939 . S
O619 P608 1.490 . S
H620 C636 0.939 . S
H621 C638 0.940 . S
C622 P608 1.812 . S
C622 C623 1.389 . S
C622 C627 1.391 . S
C623 H609 0.941 . S
C623 C622 1.389 . S
C623 C624 1.397 . S
C624 H610 0.939 . S
C624 C623 1.397 . S
C624 C625 1.378 . S
C625 C624 1.378 . S
C625 C626 1.378 . S
C626 H611 0.940 . S
C626 C625 1.378 . S
C626 C627 1.396 . S
C627 H612 0.940 . S
C627 C622 1.391 . S
C627 C626 1.396 . S
C628 P608 1.803 . S
C628 C629 1.378 . S
C628 C633 1.400 . S
C629 H613 0.939 . S
C629 C628 1.378 . S
C629 C630 1.361 . S
C630 H614 0.942 . S
C630 C629 1.361 . S
C630 C631 1.369 . S
C631 C630 1.369 . S
C631 C632 1.404 . S
C632 H615 0.940 . S
C632 C631 1.404 . S
C632 C633 1.389 . S
C633 H616 0.939 . S
C633 C628 1.400 . S
C633 C632 1.389 . S
C634 P608 1.819 . S
C634 C635 1.391 . S
C634 C639 1.391 . S
C635 H617 0.941 . S
C635 C634 1.391 . S
C635 C636 1.396 . S
C636 H620 0.939 . S
C636 C635 1.396 . S
C636 C637 1.397 . S
C637 C636 1.397 . S
C637 C638 1.385 . S
C638 H621 0.940 . S
C638 C637 1.385 . S
C638 C639 1.388 . S
C639 H618 0.939 . S
C639 C634 1.391 . S
C639 C638 1.388 . S
P640 O651 1.490 . S
P640 C654 1.812 . S
P640 C660 1.803 . S
P640 C666 1.819 . S
H641 C655 0.941 . S
H642 C656 0.939 . S
H643 C658 0.940 . S
H644 C659 0.940 . S
H645 C661 0.939 . S
H646 C662 0.942 . S
H647 C664 0.940 . S
H648 C665 0.939 . S
H649 C667 0.941 . S
H650 C671 0.939 . S
O651 P640 1.490 . S
H652 C668 0.939 . S
H653 C670 0.940 . S
C654 P640 1.812 . S
C654 C655 1.389 . S
C654 C659 1.391 . S
C655 H641 0.941 . S
C655 C654 1.389 . S
C655 C656 1.397 . S
C656 H642 0.939 . S
C656 C655 1.397 . S
C656 C657 1.378 . S
C657 C656 1.378 . S
C657 C658 1.378 . S
C658 H643 0.940 . S
C658 C657 1.378 . S
C658 C659 1.396 . S
C659 H644 0.940 . S
C659 C654 1.391 . S
C659 C658 1.396 . S
C660 P640 1.803 . S
C660 C661 1.378 . S
C660 C665 1.400 . S
C661 H645 0.939 . S
C661 C660 1.378 . S
C661 C662 1.361 . S
C662 H646 0.942 . S
C662 C661 1.361 . S
C662 C663 1.369 . S
C663 C662 1.369 . S
C663 C664 1.404 . S
C664 H647 0.940 . S
C664 C663 1.404 . S
C664 C665 1.389 . S
C665 H648 0.939 . S
C665 C660 1.400 . S
C665 C664 1.389 . S
C666 P640 1.819 . S
C666 C667 1.391 . S
C666 C671 1.391 . S
C667 H649 0.941 . S
C667 C666 1.391 . S
C667 C668 1.396 . S
C668 H652 0.939 . S
C668 C667 1.396 . S
C668 C669 1.397 . S
C669 C668 1.397 . S
C669 C670 1.385 . S
C670 H653 0.940 . S
C670 C669 1.385 . S
C670 C671 1.388 . S
C671 H650 0.939 . S
C671 C666 1.391 . S
C671 C670 1.388 . S
P672 O683 1.490 . S
P672 C686 1.812 . S
P672 C692 1.803 . S
P672 C698 1.819 . S
H673 C687 0.941 . S
H674 C688 0.939 . S
H675 C690 0.940 . S
H676 C691 0.940 . S
H677 C693 0.939 . S
H678 C694 0.942 . S
H679 C696 0.940 . S
H680 C697 0.939 . S
H681 C699 0.941 . S
H682 C703 0.939 . S
O683 P672 1.490 . S
H684 C700 0.939 . S
H685 C702 0.940 . S
C686 P672 1.812 . S
C686 C687 1.389 . S
C686 C691 1.391 . S
C687 H673 0.941 . S
C687 C686 1.389 . S
C687 C688 1.397 . S
C688 H674 0.939 . S
C688 C687 1.397 . S
C688 C689 1.378 . S
C689 C688 1.378 . S
C689 C690 1.378 . S
C690 H675 0.940 . S
C690 C689 1.378 . S
C690 C691 1.396 . S
C691 H676 0.940 . S
C691 C686 1.391 . S
C691 C690 1.396 . S
C692 P672 1.803 . S
C692 C693 1.378 . S
C692 C697 1.400 . S
C693 H677 0.939 . S
C693 C692 1.378 . S
C693 C694 1.361 . S
C694 H678 0.942 . S
C694 C693 1.361 . S
C694 C695 1.369 . S
C695 C694 1.369 . S
C695 C696 1.404 . S
C696 H679 0.940 . S
C696 C695 1.404 . S
C696 C697 1.389 . S
C697 H680 0.939 . S
C697 C692 1.400 . S
C697 C696 1.389 . S
C698 P672 1.819 . S
C698 C699 1.391 . S
C698 C703 1.391 . S
C699 H681 0.941 . S
C699 C698 1.391 . S
C699 C700 1.396 . S
C700 H684 0.939 . S
C700 C699 1.396 . S
C700 C701 1.397 . S
C701 C700 1.397 . S
C701 C702 1.385 . S
C702 H685 0.940 . S
C702 C701 1.385 . S
C702 C703 1.388 . S
C703 H682 0.939 . S
C703 C698 1.391 . S
C703 C702 1.388 . S
P704 O715 1.490 . S
P704 C718 1.812 . S
P704 C724 1.803 . S
P704 C730 1.819 . S
H705 C719 0.941 . S
H706 C720 0.939 . S
H707 C722 0.940 . S
H708 C723 0.940 . S
H709 C725 0.939 . S
H710 C726 0.942 . S
H711 C728 0.940 . S
H712 C729 0.939 . S
H713 C731 0.941 . S
H714 C735 0.939 . S
O715 P704 1.490 . S
H716 C732 0.939 . S
H717 C734 0.940 . S
C718 P704 1.812 . S
C718 C719 1.389 . S
C718 C723 1.391 . S
C719 H705 0.941 . S
C719 C718 1.389 . S
C719 C720 1.397 . S
C720 H706 0.939 . S
C720 C719 1.397 . S
C720 C721 1.378 . S
C721 C720 1.378 . S
C721 C722 1.378 . S
C722 H707 0.940 . S
C722 C721 1.378 . S
C722 C723 1.396 . S
C723 H708 0.940 . S
C723 C718 1.391 . S
C723 C722 1.396 . S
C724 P704 1.803 . S
C724 C725 1.378 . S
C724 C729 1.400 . S
C725 H709 0.939 . S
C725 C724 1.378 . S
C725 C726 1.361 . S
C726 H710 0.942 . S
C726 C725 1.361 . S
C726 C727 1.369 . S
C727 C726 1.369 . S
C727 C728 1.404 . S
C728 H711 0.940 . S
C728 C727 1.404 . S
C728 C729 1.389 . S
C729 H712 0.939 . S
C729 C724 1.400 . S
C729 C728 1.389 . S
C730 P704 1.819 . S
C730 C731 1.391 . S
C730 C735 1.391 . S
C731 H713 0.941 . S
C731 C730 1.391 . S
C731 C732 1.396 . S
C732 H716 0.939 . S
C732 C731 1.396 . S
C732 C733 1.397 . S
C733 C732 1.397 . S
C733 C734 1.385 . S
C734 H717 0.940 . S
C734 C733 1.385 . S
C734 C735 1.388 . S
C735 H714 0.939 . S
C735 C730 1.391 . S
C735 C734 1.388 . S
P736 O747 1.490 . S
P736 C750 1.812 . S
P736 C756 1.803 . S
P736 C762 1.819 . S
H737 C751 0.941 . S
H738 C752 0.939 . S
H739 C754 0.940 . S
H740 C755 0.940 . S
H741 C757 0.939 . S
H742 C758 0.942 . S
H743 C760 0.940 . S
H744 C761 0.939 . S
H745 C763 0.941 . S
H746 C767 0.939 . S
O747 P736 1.490 . S
H748 C764 0.939 . S
H749 C766 0.940 . S
C750 P736 1.812 . S
C750 C751 1.389 . S
C750 C755 1.391 . S
C751 H737 0.941 . S
C751 C750 1.389 . S
C751 C752 1.397 . S
C752 H738 0.939 . S
C752 C751 1.397 . S
C752 C753 1.378 . S
C753 C752 1.378 . S
C753 C754 1.378 . S
C754 H739 0.940 . S
C754 C753 1.378 . S
C754 C755 1.396 . S
C755 H740 0.940 . S
C755 C750 1.391 . S
C755 C754 1.396 . S
C756 P736 1.803 . S
C756 C757 1.378 . S
C756 C761 1.400 . S
C757 H741 0.939 . S
C757 C756 1.378 . S
C757 C758 1.361 . S
C758 H742 0.942 . S
C758 C757 1.361 . S
C758 C759 1.369 . S
C759 C758 1.369 . S
C759 C760 1.404 . S
C760 H743 0.940 . S
C760 C759 1.404 . S
C760 C761 1.389 . S
C761 H744 0.939 . S
C761 C756 1.400 . S
C761 C760 1.389 . S
C762 P736 1.819 . S
C762 C763 1.391 . S
C762 C767 1.391 . S
C763 H745 0.941 . S
C763 C762 1.391 . S
C763 C764 1.396 . S
C764 H748 0.939 . S
C764 C763 1.396 . S
C764 C765 1.397 . S
C765 C764 1.397 . S
C765 C766 1.385 . S
C766 H749 0.940 . S
C766 C765 1.385 . S
C766 C767 1.388 . S
C767 H746 0.939 . S
C767 C762 1.391 . S
C767 C766 1.388 . S
Zn768 O770 1.933 1_565 S
Zn768 O788 1.985 . S
Zn768 O799 1.955 . S
Zn769 O770 1.911 . S
Zn769 O789 1.970 . S
Zn769 O805 1.945 . S
Zn769 O812 1.981 . S
O770 Zn768 1.933 1_545 S
O770 Zn769 1.911 . S
O770 H771 0.841 1_655 S
H771 O770 0.841 1_455 S
C772 O773 1.246 . S
C772 O801 1.276 . S
O773 C772 1.246 . S
Zn774 O776 1.911 . S
Zn774 O791 1.970 . S
Zn774 O808 1.945 . S
Zn774 O815 1.981 . S
Zn775 O776 1.933 1_565 S
Zn775 O790 1.985 . S
Zn775 O797 1.955 . S
O776 Zn774 1.911 . S
O776 Zn775 1.933 1_545 S
O776 H777 0.841 . S
H777 O776 0.841 . S
Zn778 O779 1.933 1_565 S
Zn778 O792 1.985 . S
Zn778 O801 1.955 . S
O779 Zn778 1.933 1_545 S
O779 Zn780 1.911 . S
O779 H781 0.841 . S
Zn780 O779 1.911 . S
Zn780 O793 1.970 . S
Zn780 O809 1.981 1_655 S
Zn780 O811 1.945 . S
H781 O779 0.841 . S
Zn782 O783 1.933 1_565 S
Zn782 O795 1.985 . S
Zn782 O803 1.955 . S
O783 Zn782 1.933 1_545 S
O783 H784 0.841 . S
O783 Zn785 1.911 . S
H784 O783 0.841 . S
Zn785 O783 1.911 . S
Zn785 O796 1.970 . S
Zn785 O806 1.981 . S
Zn785 O814 1.945 . S
C786 O787 1.246 . S
C786 O803 1.276 . S
O787 C786 1.246 . S
O788 Zn768 1.985 . S
O788 C798 1.245 1_565 S
O789 Zn769 1.970 . S
O789 C798 1.263 . S
O790 Zn775 1.985 . S
O790 C802 1.245 1_565 S
O791 Zn774 1.970 . S
O791 C802 1.263 . S
O792 Zn778 1.985 . S
O792 C807 1.245 1_565 S
O793 Zn780 1.970 . S
O793 C807 1.263 . S
C794 O805 1.262 1_455 S
C794 O806 1.245 . S
O795 Zn782 1.985 . S
O795 C813 1.245 1_565 S
O796 Zn785 1.970 . S
O796 C813 1.263 . S
O797 Zn775 1.955 . S
O797 C816 1.276 . S
C798 O788 1.245 1_545 S
C798 O789 1.263 . S
O799 Zn768 1.955 . S
O799 C818 1.276 1_655 S
C800 O808 1.262 . S
C800 O809 1.245 . S
O801 C772 1.276 . S
O801 Zn778 1.955 . S
C802 O790 1.245 1_545 S
C802 O791 1.263 . S
O803 Zn782 1.955 . S
O803 C786 1.276 . S
C804 O811 1.262 . S
C804 O812 1.245 . S
O805 Zn769 1.945 . S
O805 C794 1.262 1_655 S
O806 Zn785 1.981 . S
O806 C794 1.245 . S
C807 O792 1.245 1_545 S
C807 O793 1.263 . S
O808 Zn774 1.945 . S
O808 C800 1.262 . S
O809 Zn780 1.981 1_455 S
O809 C800 1.245 . S
C810 O814 1.262 . S
C810 O815 1.245 . S
O811 Zn780 1.945 . S
O811 C804 1.262 . S
O812 Zn769 1.981 . S
O812 C804 1.245 . S
C813 O795 1.245 1_545 S
C813 O796 1.263 . S
O814 Zn785 1.945 . S
O814 C810 1.262 . S
O815 Zn774 1.981 . S
O815 C810 1.245 . S
C816 O797 1.276 . S
C816 O817 1.246 . S
O817 C816 1.246 . S
C818 O799 1.276 1_455 S
C818 O819 1.246 . S
O819 C818 1.246 . S
Zn820 O822 1.933 . S
Zn820 O840 1.985 . S
Zn820 O851 1.955 . S
Zn821 O822 1.911 1_556 S
Zn821 O841 1.970 . S
Zn821 O857 1.945 . S
Zn821 O864 1.981 . S
O822 Zn820 1.933 . S
O822 Zn821 1.911 1_554 S
O822 H823 0.841 . S
H823 O822 0.841 . S
C824 O825 1.246 . S
C824 O853 1.276 . S
O825 C824 1.246 . S
Zn826 O828 1.911 1_556 S
Zn826 O843 1.970 . S
Zn826 O860 1.945 . S
Zn826 O867 1.981 . S
Zn827 O828 1.933 . S
Zn827 O842 1.985 . S
Zn827 O849 1.955 . S
O828 Zn826 1.911 1_554 S
O828 Zn827 1.933 . S
O828 H829 0.841 1_565 S
H829 O828 0.841 1_545 S
Zn830 O831 1.933 . S
Zn830 O844 1.985 . S
Zn830 O853 1.955 . S
O831 Zn830 1.933 . S
O831 Zn832 1.911 1_554 S
O831 H833 0.841 . S
Zn832 O831 1.911 1_556 S
Zn832 O845 1.970 . S
Zn832 O861 1.981 . S
Zn832 O863 1.945 . S
H833 O831 0.841 . S
Zn834 O835 1.933 . S
Zn834 O847 1.985 . S
Zn834 O855 1.955 . S
O835 Zn834 1.933 . S
O835 H836 0.841 . S
O835 Zn837 1.911 1_554 S
H836 O835 0.841 . S
Zn837 O835 1.911 1_556 S
Zn837 O848 1.970 . S
Zn837 O858 1.981 1_565 S
Zn837 O866 1.945 . S
C838 O839 1.246 . S
C838 O855 1.276 . S
O839 C838 1.246 . S
O840 Zn820 1.985 . S
O840 C850 1.245 . S
O841 Zn821 1.970 . S
O841 C850 1.263 1_556 S
O842 Zn827 1.985 . S
O842 C854 1.245 . S
O843 Zn826 1.970 . S
O843 C854 1.263 1_556 S
O844 Zn830 1.985 . S
O844 C859 1.245 . S
O845 Zn832 1.970 . S
O845 C859 1.263 1_556 S
C846 O857 1.262 . S
C846 O858 1.245 . S
O847 Zn834 1.985 . S
O847 C865 1.245 . S
O848 Zn837 1.970 . S
O848 C865 1.263 1_556 S
O849 Zn827 1.955 . S
O849 C868 1.276 1_565 S
C850 O840 1.245 . S
C850 O841 1.263 1_554 S
O851 Zn820 1.955 . S
O851 C870 1.276 . S
C852 O860 1.262 1_545 S
C852 O861 1.245 . S
O853 C824 1.276 . S
O853 Zn830 1.955 . S
C854 O842 1.245 . S
C854 O843 1.263 1_554 S
O855 Zn834 1.955 . S
O855 C838 1.276 . S
C856 O863 1.262 . S
C856 O864 1.245 . S
O857 Zn821 1.945 . S
O857 C846 1.262 . S
O858 Zn837 1.981 1_545 S
O858 C846 1.245 . S
C859 O844 1.245 . S
C859 O845 1.263 1_554 S
O860 Zn826 1.945 . S
O860 C852 1.262 1_565 S
O861 Zn832 1.981 . S
O861 C852 1.245 . S
C862 O866 1.262 . S
C862 O867 1.245 . S
O863 Zn832 1.945 . S
O863 C856 1.262 . S
O864 Zn821 1.981 . S
O864 C856 1.245 . S
C865 O847 1.245 . S
C865 O848 1.263 1_554 S
O866 Zn837 1.945 . S
O866 C862 1.262 . S
O867 Zn826 1.981 . S
O867 C862 1.245 . S
C868 O849 1.276 1_545 S
C868 O869 1.246 . S
O869 C868 1.246 . S
C870 O851 1.276 . S
C870 O871 1.246 . S
O871 C870 1.246 . S
Zn872 O874 1.933 . S
Zn872 O892 1.985 . S
Zn872 O903 1.955 . S
Zn873 O874 1.911 . S
Zn873 O893 1.970 . S
Zn873 O909 1.945 . S
Zn873 O916 1.981 . S
O874 Zn872 1.933 . S
O874 Zn873 1.911 . S
O874 H875 0.841 1_655 S
H875 O874 0.841 1_455 S
C876 O877 1.246 1_554 S
C876 O905 1.276 . S
O877 C876 1.246 1_556 S
Zn878 O880 1.911 . S
Zn878 O895 1.970 . S
Zn878 O912 1.945 . S
Zn878 O919 1.981 . S
Zn879 O880 1.933 . S
Zn879 O894 1.985 . S
Zn879 O901 1.955 . S
O880 Zn878 1.911 . S
O880 Zn879 1.933 . S
O880 H881 0.841 . S
H881 O880 0.841 . S
Zn882 O883 1.933 . S
Zn882 O896 1.985 . S
Zn882 O905 1.955 . S
O883 Zn882 1.933 . S
O883 Zn884 1.911 . S
O883 H885 0.841 . S
Zn884 O883 1.911 . S
Zn884 O897 1.970 . S
Zn884 O913 1.981 1_655 S
Zn884 O915 1.945 . S
H885 O883 0.841 . S
Zn886 O887 1.933 . S
Zn886 O899 1.985 . S
Zn886 O907 1.955 . S
O887 Zn886 1.933 . S
O887 H888 0.841 1_556 S
O887 Zn889 1.911 . S
H888 O887 0.841 1_554 S
Zn889 O887 1.911 . S
Zn889 O900 1.970 . S
Zn889 O910 1.981 . S
Zn889 O918 1.945 . S
C890 O891 1.246 . S
C890 O907 1.276 1_554 S
O891 C890 1.246 . S
O892 Zn872 1.985 . S
O892 C902 1.245 . S
O893 Zn873 1.970 . S
O893 C902 1.263 . S
O894 Zn879 1.985 . S
O894 C906 1.245 . S
O895 Zn878 1.970 . S
O895 C906 1.263 . S
O896 Zn882 1.985 . S
O896 C911 1.245 . S
O897 Zn884 1.970 . S
O897 C911 1.263 . S
C898 O909 1.262 1_455 S
C898 O910 1.245 . S
O899 Zn886 1.985 . S
O899 C917 1.245 . S
O900 Zn889 1.970 . S
O900 C917 1.263 . S
O901 Zn879 1.955 . S
O901 C920 1.276 . S
C902 O892 1.245 . S
C902 O893 1.263 . S
O903 Zn872 1.955 . S
O903 C922 1.276 1_655 S
C904 O912 1.262 . S
C904 O913 1.245 . S
O905 C876 1.276 . S
O905 Zn882 1.955 . S
C906 O894 1.245 . S
C906 O895 1.263 . S
O907 Zn886 1.955 . S
O907 C890 1.276 1_556 S
C908 O915 1.262 . S
C908 O916 1.245 1_554 S
O909 Zn873 1.945 . S
O909 C898 1.262 1_655 S
O910 Zn889 1.981 . S
O910 C898 1.245 . S
C911 O896 1.245 . S
C911 O897 1.263 . S
O912 Zn878 1.945 . S
O912 C904 1.262 . S
O913 Zn884 1.981 1_455 S
O913 C904 1.245 . S
C914 O918 1.262 1_554 S
C914 O919 1.245 . S
O915 Zn884 1.945 . S
O915 C908 1.262 . S
O916 Zn873 1.981 . S
O916 C908 1.245 1_556 S
C917 O899 1.245 . S
C917 O900 1.263 . S
O918 Zn889 1.945 . S
O918 C914 1.262 1_556 S
O919 Zn878 1.981 . S
O919 C914 1.245 . S
C920 O901 1.276 . S
C920 O921 1.246 . S
O921 C920 1.246 . S
C922 O903 1.276 1_455 S
C922 O923 1.246 . S
O923 C922 1.246 . S
Zn924 O926 1.933 1_556 S
Zn924 O944 1.985 . S
Zn924 O955 1.955 . S
Zn925 O926 1.911 . S
Zn925 O945 1.970 . S
Zn925 O961 1.945 . S
Zn925 O968 1.981 . S
O926 Zn924 1.933 1_554 S
O926 Zn925 1.911 . S
O926 H927 0.841 . S
H927 O926 0.841 . S
C928 O929 1.246 . S
C928 O957 1.276 . S
O929 C928 1.246 . S
Zn930 O932 1.911 . S
Zn930 O947 1.970 . S
Zn930 O964 1.945 . S
Zn930 O971 1.981 . S
Zn931 O932 1.933 1_556 S
Zn931 O946 1.985 . S
Zn931 O953 1.955 . S
O932 Zn930 1.911 . S
O932 Zn931 1.933 1_554 S
O932 H933 0.841 . S
H933 O932 0.841 . S
Zn934 O935 1.933 1_556 S
Zn934 O948 1.985 . S
Zn934 O957 1.955 . S
O935 Zn934 1.933 1_554 S
O935 Zn936 1.911 . S
O935 H937 0.841 . S
Zn936 O935 1.911 . S
Zn936 O949 1.970 . S
Zn936 O965 1.981 . S
Zn936 O967 1.945 . S
H937 O935 0.841 . S
Zn938 O939 1.933 1_556 S
Zn938 O951 1.985 . S
Zn938 O959 1.955 . S
O939 Zn938 1.933 1_554 S
O939 H940 0.841 . S
O939 Zn941 1.911 . S
H940 O939 0.841 . S
Zn941 O939 1.911 . S
Zn941 O952 1.970 . S
Zn941 O962 1.981 . S
Zn941 O970 1.945 . S
C942 O943 1.246 . S
C942 O959 1.276 . S
O943 C942 1.246 . S
O944 Zn924 1.985 . S
O944 C954 1.245 1_556 S
O945 Zn925 1.970 . S
O945 C954 1.263 . S
O946 Zn931 1.985 . S
O946 C958 1.245 1_556 S
O947 Zn930 1.970 . S
O947 C958 1.263 . S
O948 Zn934 1.985 . S
O948 C963 1.245 1_556 S
O949 Zn936 1.970 . S
O949 C963 1.263 . S
C950 O961 1.262 . S
C950 O962 1.245 . S
O951 Zn938 1.985 . S
O951 C969 1.245 1_556 S
O952 Zn941 1.970 . S
O952 C969 1.263 . S
O953 Zn931 1.955 . S
O953 C972 1.276 . S
C954 O944 1.245 1_554 S
C954 O945 1.263 . S
O955 Zn924 1.955 . S
O955 C974 1.276 . S
C956 O964 1.262 . S
C956 O965 1.245 . S
O957 C928 1.276 . S
O957 Zn934 1.955 . S
C958 O946 1.245 1_554 S
C958 O947 1.263 . S
O959 Zn938 1.955 . S
O959 C942 1.276 . S
C960 O967 1.262 . S
C960 O968 1.245 . S
O961 Zn925 1.945 . S
O961 C950 1.262 . S
O962 Zn941 1.981 . S
O962 C950 1.245 . S
C963 O948 1.245 1_554 S
C963 O949 1.263 . S
O964 Zn930 1.945 . S
O964 C956 1.262 . S
O965 Zn936 1.981 . S
O965 C956 1.245 . S
C966 O970 1.262 . S
C966 O971 1.245 . S
O967 Zn936 1.945 . S
O967 C960 1.262 . S
O968 Zn925 1.981 . S
O968 C960 1.245 . S
C969 O951 1.245 1_554 S
C969 O952 1.263 . S
O970 Zn941 1.945 . S
O970 C966 1.262 . S
O971 Zn930 1.981 . S
O971 C966 1.245 . S
C972 O953 1.276 . S
C972 O973 1.246 . S
O973 C972 1.246 . S
C974 O955 1.276 . S
C974 O975 1.246 . S
O975 C974 1.246 . S
Zn976 O978 1.933 . S
Zn976 O996 1.985 . S
Zn976 O1007 1.955 . S
Zn977 O978 1.911 . S
Zn977 O997 1.970 . S
Zn977 O1013 1.945 . S
Zn977 O1020 1.981 . S
O978 Zn976 1.933 . S
O978 Zn977 1.911 . S
O978 H979 0.841 1_655 S
H979 O978 0.841 1_455 S
C980 O981 1.246 . S
C980 O1009 1.276 . S
O981 C980 1.246 . S
Zn982 O984 1.911 . S
Zn982 O999 1.970 . S
Zn982 O1016 1.945 . S
Zn982 O1023 1.981 . S
Zn983 O984 1.933 . S
Zn983 O998 1.985 . S
Zn983 O1005 1.955 . S
O984 Zn982 1.911 . S
O984 Zn983 1.933 . S
O984 H985 0.841 . S
H985 O984 0.841 . S
Zn986 O987 1.933 . S
Zn986 O1000 1.985 . S
Zn986 O1009 1.955 . S
O987 Zn986 1.933 . S
O987 Zn988 1.911 . S
O987 H989 0.841 . S
Zn988 O987 1.911 . S
Zn988 O1001 1.970 . S
Zn988 O1017 1.981 1_655 S
Zn988 O1019 1.945 . S
H989 O987 0.841 . S
Zn990 O991 1.933 . S
Zn990 O1003 1.985 . S
Zn990 O1011 1.955 . S
O991 Zn990 1.933 . S
O991 H992 0.841 . S
O991 Zn993 1.911 . S
H992 O991 0.841 . S
Zn993 O991 1.911 . S
Zn993 O1004 1.970 . S
Zn993 O1014 1.981 . S
Zn993 O1022 1.945 . S
C994 O995 1.246 . S
C994 O1011 1.276 . S
O995 C994 1.246 . S
O996 Zn976 1.985 . S
O996 C1006 1.245 . S
O997 Zn977 1.970 . S
O997 C1006 1.263 . S
O998 Zn983 1.985 . S
O998 C1010 1.245 . S
O999 Zn982 1.970 . S
O999 C1010 1.263 . S
O1000 Zn986 1.985 . S
O1000 C1015 1.245 . S
O1001 Zn988 1.970 . S
O1001 C1015 1.263 . S
C1002 O1013 1.262 1_455 S
C1002 O1014 1.245 . S
O1003 Zn990 1.985 . S
O1003 C1021 1.245 . S
O1004 Zn993 1.970 . S
O1004 C1021 1.263 . S
O1005 Zn983 1.955 . S
O1005 C1024 1.276 . S
C1006 O996 1.245 . S
C1006 O997 1.263 . S
O1007 Zn976 1.955 . S
O1007 C1026 1.276 1_655 S
C1008 O1016 1.262 . S
C1008 O1017 1.245 . S
O1009 C980 1.276 . S
O1009 Zn986 1.955 . S
C1010 O998 1.245 . S
C1010 O999 1.263 . S
O1011 Zn990 1.955 . S
O1011 C994 1.276 . S
C1012 O1019 1.262 . S
C1012 O1020 1.245 . S
O1013 Zn977 1.945 . S
O1013 C1002 1.262 1_655 S
O1014 Zn993 1.981 . S
O1014 C1002 1.245 . S
C1015 O1000 1.245 . S
C1015 O1001 1.263 . S
O1016 Zn982 1.945 . S
O1016 C1008 1.262 . S
O1017 Zn988 1.981 1_455 S
O1017 C1008 1.245 . S
C1018 O1022 1.262 . S
C1018 O1023 1.245 . S
O1019 Zn988 1.945 . S
O1019 C1012 1.262 . S
O1020 Zn977 1.981 . S
O1020 C1012 1.245 . S
C1021 O1003 1.245 . S
C1021 O1004 1.263 . S
O1022 Zn993 1.945 . S
O1022 C1018 1.262 . S
O1023 Zn982 1.981 . S
O1023 C1018 1.245 . S
C1024 O1005 1.276 . S
C1024 O1025 1.246 . S
O1025 C1024 1.246 . S
C1026 O1007 1.276 1_455 S
C1026 O1027 1.246 . S
O1027 C1026 1.246 . S
Zn1028 O1030 1.933 1_565 S
Zn1028 O1048 1.985 . S
Zn1028 O1059 1.955 . S
Zn1029 O1030 1.911 . S
Zn1029 O1049 1.970 . S
Zn1029 O1065 1.945 . S
Zn1029 O1072 1.981 . S
O1030 Zn1028 1.933 1_545 S
O1030 Zn1029 1.911 . S
O1030 H1031 0.841 . S
H1031 O1030 0.841 . S
C1032 O1033 1.246 . S
C1032 O1061 1.276 . S
O1033 C1032 1.246 . S
Zn1034 O1036 1.911 . S
Zn1034 O1051 1.970 . S
Zn1034 O1068 1.945 . S
Zn1034 O1075 1.981 . S
Zn1035 O1036 1.933 1_565 S
Zn1035 O1050 1.985 . S
Zn1035 O1057 1.955 . S
O1036 Zn1034 1.911 . S
O1036 Zn1035 1.933 1_545 S
O1036 H1037 0.841 . S
H1037 O1036 0.841 . S
Zn1038 O1039 1.933 1_565 S
Zn1038 O1052 1.985 . S
Zn1038 O1061 1.955 . S
O1039 Zn1038 1.933 1_545 S
O1039 Zn1040 1.911 . S
O1039 H1041 0.841 . S
Zn1040 O1039 1.911 . S
Zn1040 O1053 1.970 . S
Zn1040 O1069 1.981 . S
Zn1040 O1071 1.945 . S
H1041 O1039 0.841 . S
Zn1042 O1043 1.933 1_565 S
Zn1042 O1055 1.985 . S
Zn1042 O1063 1.955 . S
O1043 Zn1042 1.933 1_545 S
O1043 H1044 0.841 . S
O1043 Zn1045 1.911 . S
H1044 O1043 0.841 . S
Zn1045 O1043 1.911 . S
Zn1045 O1056 1.970 . S
Zn1045 O1066 1.981 . S
Zn1045 O1074 1.945 . S
C1046 O1047 1.246 . S
C1046 O1063 1.276 . S
O1047 C1046 1.246 . S
O1048 Zn1028 1.985 . S
O1048 C1058 1.245 1_565 S
O1049 Zn1029 1.970 . S
O1049 C1058 1.263 . S
O1050 Zn1035 1.985 . S
O1050 C1062 1.245 1_565 S
O1051 Zn1034 1.970 . S
O1051 C1062 1.263 . S
O1052 Zn1038 1.985 . S
O1052 C1067 1.245 1_565 S
O1053 Zn1040 1.970 . S
O1053 C1067 1.263 . S
C1054 O1065 1.262 . S
C1054 O1066 1.245 . S
O1055 Zn1042 1.985 . S
O1055 C1073 1.245 1_565 S
O1056 Zn1045 1.970 . S
O1056 C1073 1.263 . S
O1057 Zn1035 1.955 . S
O1057 C1076 1.276 . S
C1058 O1048 1.245 1_545 S
C1058 O1049 1.263 . S
O1059 Zn1028 1.955 . S
O1059 C1078 1.276 . S
C1060 O1068 1.262 . S
C1060 O1069 1.245 . S
O1061 C1032 1.276 . S
O1061 Zn1038 1.955 . S
C1062 O1050 1.245 1_545 S
C1062 O1051 1.263 . S
O1063 Zn1042 1.955 . S
O1063 C1046 1.276 . S
C1064 O1071 1.262 . S
C1064 O1072 1.245 . S
O1065 Zn1029 1.945 . S
O1065 C1054 1.262 . S
O1066 Zn1045 1.981 . S
O1066 C1054 1.245 . S
C1067 O1052 1.245 1_545 S
C1067 O1053 1.263 . S
O1068 Zn1034 1.945 . S
O1068 C1060 1.262 . S
O1069 Zn1040 1.981 . S
O1069 C1060 1.245 . S
C1070 O1074 1.262 . S
C1070 O1075 1.245 . S
O1071 Zn1040 1.945 . S
O1071 C1064 1.262 . S
O1072 Zn1029 1.981 . S
O1072 C1064 1.245 . S
C1073 O1055 1.245 1_545 S
C1073 O1056 1.263 . S
O1074 Zn1045 1.945 . S
O1074 C1070 1.262 . S
O1075 Zn1034 1.981 . S
O1075 C1070 1.245 . S
C1076 O1057 1.276 . S
C1076 O1077 1.246 . S
O1077 C1076 1.246 . S
C1078 O1059 1.276 . S
C1078 O1079 1.246 . S
O1079 C1078 1.246 . S
C1080 C1081 1.387 . S
C1080 H1084 0.950 . S
C1080 C1089 1.390 . S
C1081 C1080 1.387 . S
C1081 C1083 1.387 . S
H1082 C1089 0.950 . S
C1083 C1081 1.387 . S
C1083 C1085 1.390 . S
C1083 H1087 0.950 . S
H1084 C1080 0.950 . S
C1085 C1083 1.390 . S
C1085 C1086 1.387 . S
C1085 H1088 0.950 . S
C1086 C1085 1.387 . S
C1086 C1089 1.387 . S
H1087 C1083 0.950 . S
H1088 C1085 0.950 . S
C1089 C1080 1.390 . S
C1089 H1082 0.950 . S
C1089 C1086 1.387 . S
C1090 C1091 1.387 . S
C1090 H1094 0.950 . S
C1090 C1099 1.390 . S
C1091 C1090 1.387 . S
C1091 C1093 1.387 . S
H1092 C1099 0.950 . S
C1093 C1091 1.387 . S
C1093 C1095 1.390 . S
C1093 H1097 0.950 . S
H1094 C1090 0.950 . S
C1095 C1093 1.390 . S
C1095 C1096 1.387 . S
C1095 H1098 0.950 . S
C1096 C1095 1.387 . S
C1096 C1099 1.387 . S
H1097 C1093 0.950 . S
H1098 C1095 0.950 . S
C1099 C1090 1.390 . S
C1099 H1092 0.950 . S
C1099 C1096 1.387 . S
C1100 C1101 1.387 . S
C1100 H1104 0.950 . S
C1100 C1109 1.390 . S
C1101 C1100 1.387 . S
C1101 C1103 1.387 . S
H1102 C1109 0.950 . S
C1103 C1101 1.387 . S
C1103 C1105 1.390 . S
C1103 H1107 0.950 . S
H1104 C1100 0.950 . S
C1105 C1103 1.390 . S
C1105 C1106 1.387 . S
C1105 H1108 0.950 . S
C1106 C1105 1.387 . S
C1106 C1109 1.387 . S
H1107 C1103 0.950 . S
H1108 C1105 0.950 . S
C1109 C1100 1.390 . S
C1109 H1102 0.950 . S
C1109 C1106 1.387 . S
C1110 C1111 1.387 . S
C1110 H1114 0.950 . S
C1110 C1119 1.390 . S
C1111 C1110 1.387 . S
C1111 C1113 1.387 . S
H1112 C1119 0.950 . S
C1113 C1111 1.387 . S
C1113 C1115 1.390 . S
C1113 H1117 0.950 . S
H1114 C1110 0.950 . S
C1115 C1113 1.390 . S
C1115 C1116 1.387 . S
C1115 H1118 0.950 . S
C1116 C1115 1.387 . S
C1116 C1119 1.387 . S
H1117 C1113 0.950 . S
H1118 C1115 0.950 . S
C1119 C1110 1.390 . S
C1119 H1112 0.950 . S
C1119 C1116 1.387 . S
C1120 C1121 1.387 . S
C1120 H1124 0.950 . S
C1120 C1129 1.390 . S
C1121 C1120 1.387 . S
C1121 C1123 1.387 . S
H1122 C1129 0.950 . S
C1123 C1121 1.387 . S
C1123 C1125 1.390 . S
C1123 H1127 0.950 . S
H1124 C1120 0.950 . S
C1125 C1123 1.390 . S
C1125 C1126 1.387 . S
C1125 H1128 0.950 . S
C1126 C1125 1.387 . S
C1126 C1129 1.387 . S
H1127 C1123 0.950 . S
H1128 C1125 0.950 . S
C1129 C1120 1.390 . S
C1129 H1122 0.950 . S
C1129 C1126 1.387 . S
C1130 C1131 1.387 . S
C1130 H1134 0.950 . S
C1130 C1139 1.390 . S
C1131 C1130 1.387 . S
C1131 C1133 1.387 . S
H1132 C1139 0.950 . S
C1133 C1131 1.387 . S
C1133 C1135 1.390 . S
C1133 H1137 0.950 . S
H1134 C1130 0.950 . S
C1135 C1133 1.390 . S
C1135 C1136 1.387 . S
C1135 H1138 0.950 . S
C1136 C1135 1.387 . S
C1136 C1139 1.387 . S
H1137 C1133 0.950 . S
H1138 C1135 0.950 . S
C1139 C1130 1.390 . S
C1139 H1132 0.950 . S
C1139 C1136 1.387 . S
C1140 C1141 1.387 . S
C1140 H1144 0.950 . S
C1140 C1149 1.390 . S
C1141 C1140 1.387 . S
C1141 C1143 1.387 . S
H1142 C1149 0.950 . S
C1143 C1141 1.387 . S
C1143 C1145 1.390 . S
C1143 H1147 0.950 . S
H1144 C1140 0.950 . S
C1145 C1143 1.390 . S
C1145 C1146 1.387 . S
C1145 H1148 0.950 . S
C1146 C1145 1.387 . S
C1146 C1149 1.387 . S
H1147 C1143 0.950 . S
H1148 C1145 0.950 . S
C1149 C1140 1.390 . S
C1149 H1142 0.950 . S
C1149 C1146 1.387 . S
C1150 C1151 1.387 . S
C1150 H1154 0.950 . S
C1150 C1159 1.390 . S
C1151 C1150 1.387 . S
C1151 C1153 1.387 . S
H1152 C1159 0.950 . S
C1153 C1151 1.387 . S
C1153 C1155 1.390 . S
C1153 H1157 0.950 . S
H1154 C1150 0.950 . S
C1155 C1153 1.390 . S
C1155 C1156 1.387 . S
C1155 H1158 0.950 . S
C1156 C1155 1.387 . S
C1156 C1159 1.387 . S
H1157 C1153 0.950 . S
H1158 C1155 0.950 . S
C1159 C1150 1.390 . S
C1159 H1152 0.950 . S
C1159 C1156 1.387 . S
C1160 C1161 1.387 . S
C1160 H1164 0.950 . S
C1160 C1169 1.390 . S
C1161 C1160 1.387 . S
C1161 C1163 1.387 . S
H1162 C1169 0.950 . S
C1163 C1161 1.387 . S
C1163 C1165 1.390 . S
C1163 H1167 0.950 . S
H1164 C1160 0.950 . S
C1165 C1163 1.390 . S
C1165 C1166 1.387 . S
C1165 H1168 0.950 . S
C1166 C1165 1.387 . S
C1166 C1169 1.387 . S
H1167 C1163 0.950 . S
H1168 C1165 0.950 . S
C1169 C1160 1.390 . S
C1169 H1162 0.950 . S
C1169 C1166 1.387 . S
C1170 C1171 1.387 . S
C1170 H1174 0.950 . S
C1170 C1179 1.390 . S
C1171 C1170 1.387 . S
C1171 C1173 1.387 . S
H1172 C1179 0.950 . S
C1173 C1171 1.387 . S
C1173 C1175 1.390 . S
C1173 H1177 0.950 . S
H1174 C1170 0.950 . S
C1175 C1173 1.390 . S
C1175 C1176 1.387 . S
C1175 H1178 0.950 . S
C1176 C1175 1.387 . S
C1176 C1179 1.387 . S
H1177 C1173 0.950 . S
H1178 C1175 0.950 . S
C1179 C1170 1.390 . S
C1179 H1172 0.950 . S
C1179 C1176 1.387 . S
C1180 C1181 1.387 . S
C1180 H1184 0.950 . S
C1180 C1189 1.390 . S
C1181 C1180 1.387 . S
C1181 C1183 1.387 . S
H1182 C1189 0.950 . S
C1183 C1181 1.387 . S
C1183 C1185 1.390 . S
C1183 H1187 0.950 . S
H1184 C1180 0.950 . S
C1185 C1183 1.390 . S
C1185 C1186 1.387 . S
C1185 H1188 0.950 . S
C1186 C1185 1.387 . S
C1186 C1189 1.387 . S
H1187 C1183 0.950 . S
H1188 C1185 0.950 . S
C1189 C1180 1.390 . S
C1189 H1182 0.950 . S
C1189 C1186 1.387 . S
C1190 C1191 1.387 . S
C1190 H1194 0.950 . S
C1190 C1199 1.390 . S
C1191 C1190 1.387 . S
C1191 C1193 1.387 . S
H1192 C1199 0.950 . S
C1193 C1191 1.387 . S
C1193 C1195 1.390 . S
C1193 H1197 0.950 . S
H1194 C1190 0.950 . S
C1195 C1193 1.390 . S
C1195 C1196 1.387 . S
C1195 H1198 0.950 . S
C1196 C1195 1.387 . S
C1196 C1199 1.387 . S
H1197 C1193 0.950 . S
H1198 C1195 0.950 . S
C1199 C1190 1.390 . S
C1199 H1192 0.950 . S
C1199 C1196 1.387 . S
C1200 C1201 1.387 1_556 S
C1200 H1204 0.950 . S
C1200 C1209 1.390 . S
C1201 C1200 1.387 1_554 S
C1201 C1203 1.387 . S
H1202 C1209 0.950 . S
C1203 C1201 1.387 . S
C1203 C1205 1.390 . S
C1203 H1207 0.950 . S
H1204 C1200 0.950 . S
C1205 C1203 1.390 . S
C1205 C1206 1.387 . S
C1205 H1208 0.950 . S
C1206 C1205 1.387 . S
C1206 C1209 1.387 1_554 S
H1207 C1203 0.950 . S
H1208 C1205 0.950 . S
C1209 C1200 1.390 . S
C1209 H1202 0.950 . S
C1209 C1206 1.387 1_556 S
C1210 C1211 1.387 1_556 S
C1210 H1214 0.950 . S
C1210 C1219 1.390 . S
C1211 C1210 1.387 1_554 S
C1211 C1213 1.387 . S
H1212 C1219 0.950 . S
C1213 C1211 1.387 . S
C1213 C1215 1.390 . S
C1213 H1217 0.950 . S
H1214 C1210 0.950 . S
C1215 C1213 1.390 . S
C1215 C1216 1.387 . S
C1215 H1218 0.950 . S
C1216 C1215 1.387 . S
C1216 C1219 1.387 1_554 S
H1217 C1213 0.950 . S
H1218 C1215 0.950 . S
C1219 C1210 1.390 . S
C1219 H1212 0.950 . S
C1219 C1216 1.387 1_556 S
C1220 C1221 1.387 1_556 S
C1220 H1224 0.950 . S
C1220 C1229 1.390 . S
C1221 C1220 1.387 1_554 S
C1221 C1223 1.387 . S
H1222 C1229 0.950 . S
C1223 C1221 1.387 . S
C1223 C1225 1.390 . S
C1223 H1227 0.950 . S
H1224 C1220 0.950 . S
C1225 C1223 1.390 . S
C1225 C1226 1.387 . S
C1225 H1228 0.950 . S
C1226 C1225 1.387 . S
C1226 C1229 1.387 1_554 S
H1227 C1223 0.950 . S
H1228 C1225 0.950 . S
C1229 C1220 1.390 . S
C1229 H1222 0.950 . S
C1229 C1226 1.387 1_556 S
C1230 C1231 1.387 . S
C1230 H1234 0.950 . S
C1230 C1239 1.390 . S
C1231 C1230 1.387 . S
C1231 C1233 1.387 1_554 S
H1232 C1239 0.950 . S
C1233 C1231 1.387 1_556 S
C1233 C1235 1.390 . S
C1233 H1237 0.950 . S
H1234 C1230 0.950 . S
C1235 C1233 1.390 . S
C1235 C1236 1.387 1_556 S
C1235 H1238 0.950 . S
C1236 C1235 1.387 1_554 S
C1236 C1239 1.387 . S
H1237 C1233 0.950 . S
H1238 C1235 0.950 . S
C1239 C1230 1.390 . S
C1239 H1232 0.950 . S
C1239 C1236 1.387 . S
C1240 C1241 1.387 . S
C1240 H1244 0.950 . S
C1240 C1249 1.390 . S
C1241 C1240 1.387 . S
C1241 C1243 1.387 1_455 S
H1242 C1249 0.950 . S
C1243 C1241 1.387 1_655 S
C1243 C1245 1.390 . S
C1243 H1247 0.950 . S
H1244 C1240 0.950 . S
C1245 C1243 1.390 . S
C1245 C1246 1.387 1_655 S
C1245 H1248 0.950 . S
C1246 C1245 1.387 1_455 S
C1246 C1249 1.387 . S
H1247 C1243 0.950 . S
H1248 C1245 0.950 . S
C1249 C1240 1.390 . S
C1249 H1242 0.950 . S
C1249 C1246 1.387 . S
C1250 C1251 1.387 . S
C1250 H1254 0.950 . S
C1250 C1259 1.390 . S
C1251 C1250 1.387 . S
C1251 C1253 1.387 . S
H1252 C1259 0.950 . S
C1253 C1251 1.387 . S
C1253 C1255 1.390 . S
C1253 H1257 0.950 1_545 S
H1254 C1250 0.950 . S
C1255 C1253 1.390 . S
C1255 C1256 1.387 . S
C1255 H1258 0.950 . S
C1256 C1255 1.387 . S
C1256 C1259 1.387 . S
H1257 C1253 0.950 1_565 S
H1258 C1255 0.950 . S
C1259 C1250 1.390 . S
C1259 H1252 0.950 . S
C1259 C1256 1.387 . S
C1260 C1261 1.387 1_655 S
C1260 H1264 0.950 . S
C1260 C1269 1.390 . S
C1261 C1260 1.387 1_455 S
C1261 C1263 1.387 . S
H1262 C1269 0.950 . S
C1263 C1261 1.387 . S
C1263 C1265 1.390 . S
C1263 H1267 0.950 . S
H1264 C1260 0.950 . S
C1265 C1263 1.390 . S
C1265 C1266 1.387 . S
C1265 H1268 0.950 . S
C1266 C1265 1.387 . S
C1266 C1269 1.387 1_455 S
H1267 C1263 0.950 . S
H1268 C1265 0.950 . S
C1269 C1260 1.390 . S
C1269 H1262 0.950 . S
C1269 C1266 1.387 1_655 S
C1270 C1271 1.387 . S
C1270 H1274 0.950 1_545 S
C1270 C1279 1.395 . S
C1271 C1270 1.387 . S
C1271 C1273 1.387 . S
H1272 C1279 0.920 1_565 S
C1273 C1271 1.387 . S
C1273 C1275 1.390 . S
C1273 H1277 0.950 . S
H1274 C1270 0.950 1_565 S
C1275 C1273 1.390 . S
C1275 C1276 1.387 . S
C1275 H1278 0.950 . S
C1276 C1275 1.387 . S
C1276 C1279 1.413 . S
H1277 C1273 0.950 . S
H1278 C1275 0.950 . S
C1279 C1270 1.395 . S
C1279 H1272 0.920 1_545 S
C1279 C1276 1.413 . S
C1280 C1281 1.387 . S
C1280 H1284 0.950 . S
C1280 C1289 1.390 . S
C1281 C1280 1.387 . S
C1281 C1283 1.387 . S
H1282 C1289 0.950 . S
C1283 C1281 1.387 . S
C1283 C1285 1.390 . S
C1283 H1287 0.950 1_455 S
H1284 C1280 0.950 . S
C1285 C1283 1.390 . S
C1285 C1286 1.387 . S
C1285 H1288 0.950 1_455 S
C1286 C1285 1.387 . S
C1286 C1289 1.387 . S
H1287 C1283 0.950 1_655 S
H1288 C1285 0.950 1_655 S
C1289 C1280 1.390 . S
C1289 H1282 0.950 . S
C1289 C1286 1.387 . S
C1290 C1291 1.387 . S
C1290 H1294 0.950 . S
C1290 C1299 1.390 . S
C1291 C1290 1.387 . S
C1291 C1293 1.387 . S
H1292 C1299 0.950 . S
C1293 C1291 1.387 . S
C1293 C1295 1.390 . S
C1293 H1297 0.950 1_545 S
H1294 C1290 0.950 . S
C1295 C1293 1.390 . S
C1295 C1296 1.387 . S
C1295 H1298 0.950 1_545 S
C1296 C1295 1.387 . S
C1296 C1299 1.387 . S
H1297 C1293 0.950 1_565 S
H1298 C1295 0.950 1_565 S
C1299 C1290 1.390 . S
C1299 H1292 0.950 . S
C1299 C1296 1.387 . S
C1300 C1301 1.387 . S
C1300 H1304 0.950 . S
C1300 C1309 1.390 . S
C1301 C1300 1.387 . S
C1301 C1303 1.387 1_455 S
H1302 C1309 0.950 . S
C1303 C1301 1.387 1_655 S
C1303 C1305 1.390 . S
C1303 H1307 0.950 . S
H1304 C1300 0.950 . S
C1305 C1303 1.390 . S
C1305 C1306 1.387 1_655 S
C1305 H1308 0.950 . S
C1306 C1305 1.387 1_455 S
C1306 C1309 1.387 . S
H1307 C1303 0.950 . S
H1308 C1305 0.950 . S
C1309 C1300 1.390 . S
C1309 H1302 0.950 . S
C1309 C1306 1.387 . S
C1310 C1311 1.387 . S
C1310 H1314 0.950 . S
C1310 C1319 1.390 . S
C1311 C1310 1.387 . S
C1311 C1313 1.387 1_545 S
H1312 C1319 0.950 . S
C1313 C1311 1.387 1_565 S
C1313 C1315 1.390 . S
C1313 H1317 0.950 . S
H1314 C1310 0.950 . S
C1315 C1313 1.390 . S
C1315 C1316 1.387 1_565 S
C1315 H1318 0.950 . S
C1316 C1315 1.387 1_545 S
C1316 C1319 1.387 . S
H1317 C1313 0.950 . S
H1318 C1315 0.950 . S
C1319 C1310 1.390 . S
C1319 H1312 0.950 . S
C1319 C1316 1.387 . S
C1320 C1321 1.387 . S
C1320 H1324 0.950 1_455 S
C1320 C1329 1.390 . S
C1321 C1320 1.387 . S
C1321 C1323 1.387 . S
H1322 C1329 0.950 1_655 S
C1323 C1321 1.387 . S
C1323 C1325 1.390 . S
C1323 H1327 0.950 . S
H1324 C1320 0.950 1_655 S
C1325 C1323 1.390 . S
C1325 C1326 1.387 . S
C1325 H1328 0.950 . S
C1326 C1325 1.387 . S
C1326 C1329 1.387 . S
H1327 C1323 0.950 . S
H1328 C1325 0.950 . S
C1329 C1320 1.390 . S
C1329 H1322 0.950 1_455 S
C1329 C1326 1.387 . S
C1330 C1331 1.387 . S
C1330 H1334 0.950 1_545 S
C1330 C1339 1.390 . S
C1331 C1330 1.387 . S
C1331 C1333 1.387 . S
H1332 C1339 0.950 1_565 S
C1333 C1331 1.387 . S
C1333 C1335 1.390 . S
C1333 H1337 0.950 . S
H1334 C1330 0.950 1_565 S
C1335 C1333 1.390 . S
C1335 C1336 1.387 . S
C1335 H1338 0.950 . S
C1336 C1335 1.387 . S
C1336 C1339 1.387 . S
H1337 C1333 0.950 . S
H1338 C1335 0.950 . S
C1339 C1330 1.390 . S
C1339 H1332 0.950 1_545 S
C1339 C1336 1.387 . S
C1340 C1341 1.387 . S
C1340 H1344 0.950 . S
C1340 C1349 1.390 . S
C1341 C1340 1.387 . S
C1341 C1343 1.361 1_455 S
H1342 C1349 0.950 . S
C1343 C1341 1.361 1_655 S
C1343 C1345 1.389 1_655 S
C1343 H1347 0.979 . S
H1344 C1340 0.950 . S
C1345 C1343 1.389 1_455 S
C1345 C1346 1.387 . S
C1345 H1348 0.950 1_455 S
C1346 C1345 1.387 . S
C1346 C1349 1.387 . S
H1347 C1343 0.979 . S
H1348 C1345 0.950 1_655 S
C1349 C1340 1.390 . S
C1349 H1342 0.950 . S
C1349 C1346 1.387 . S
C1350 C1351 1.387 1_565 S
C1350 H1354 0.950 . S
C1350 C1359 1.390 . S
C1351 C1350 1.387 1_545 S
C1351 C1353 1.387 . S
H1352 C1359 0.950 . S
C1353 C1351 1.387 . S
C1353 C1355 1.390 . S
C1353 H1357 0.950 . S
H1354 C1350 0.950 . S
C1355 C1353 1.390 . S
C1355 C1356 1.387 . S
C1355 H1358 0.950 . S
C1356 C1355 1.387 . S
C1356 C1359 1.387 1_545 S
H1357 C1353 0.950 . S
H1358 C1355 0.950 . S
C1359 C1350 1.390 . S
C1359 H1352 0.950 . S
C1359 C1356 1.387 1_565 S
C1360 C1361 1.387 . S
C1360 H1364 0.950 . S
C1360 C1369 1.390 . S
C1361 C1360 1.387 . S
C1361 C1363 1.387 1_455 S
H1362 C1369 0.950 . S
C1363 C1361 1.387 1_655 S
C1363 C1365 1.390 . S
C1363 H1367 0.950 . S
H1364 C1360 0.950 . S
C1365 C1363 1.390 . S
C1365 C1366 1.387 1_655 S
C1365 H1368 0.950 . S
C1366 C1365 1.387 1_455 S
C1366 C1369 1.387 . S
H1367 C1363 0.950 . S
H1368 C1365 0.950 . S
C1369 C1360 1.390 . S
C1369 H1362 0.950 . S
C1369 C1366 1.387 . S
C1370 C1371 1.387 1_565 S
C1370 H1374 0.950 . S
C1370 C1379 1.390 . S
C1371 C1370 1.387 1_545 S
C1371 C1373 1.387 . S
H1372 C1379 0.950 . S
C1373 C1371 1.387 . S
C1373 C1375 1.390 . S
C1373 H1377 0.950 . S
H1374 C1370 0.950 . S
C1375 C1373 1.390 . S
C1375 C1376 1.387 . S
C1375 H1378 0.950 . S
C1376 C1375 1.387 . S
C1376 C1379 1.387 1_545 S
H1377 C1373 0.950 . S
H1378 C1375 0.950 . S
C1379 C1370 1.390 . S
C1379 H1372 0.950 . S
C1379 C1376 1.387 1_565 S
C1380 C1381 1.387 1_655 S
C1380 H1384 0.950 . S
C1380 C1389 1.390 . S
C1381 C1380 1.387 1_455 S
C1381 C1383 1.387 . S
H1382 C1389 0.950 . S
C1383 C1381 1.387 . S
C1383 C1385 1.390 . S
C1383 H1387 0.950 . S
H1384 C1380 0.950 . S
C1385 C1383 1.390 . S
C1385 C1386 1.387 . S
C1385 H1388 0.950 . S
C1386 C1385 1.387 . S
C1386 C1389 1.387 1_455 S
H1387 C1383 0.950 . S
H1388 C1385 0.950 . S
C1389 C1380 1.390 . S
C1389 H1382 0.950 . S
C1389 C1386 1.387 1_655 S
C1390 C1391 1.387 . S
C1390 H1394 0.950 1_545 S
C1390 C1399 1.388 1_545 S
C1391 C1390 1.387 . S
C1391 C1393 1.387 . S
H1392 C1399 0.968 . S
C1393 C1391 1.387 . S
C1393 C1395 1.390 . S
C1393 H1397 0.950 . S
H1394 C1390 0.950 1_565 S
C1395 C1393 1.390 . S
C1395 C1396 1.387 . S
C1395 H1398 0.950 . S
C1396 C1395 1.387 . S
C1396 C1399 1.372 1_545 S
H1397 C1393 0.950 . S
H1398 C1395 0.950 . S
C1399 C1390 1.388 1_565 S
C1399 H1392 0.968 . S
C1399 C1396 1.372 1_565 S
C1400 C1401 1.387 . S
C1400 H1404 0.950 . S
C1400 C1409 1.390 . S
C1401 C1400 1.387 . S
C1401 C1403 1.387 1_545 S
H1402 C1409 0.950 . S
C1403 C1401 1.387 1_565 S
C1403 C1405 1.390 . S
C1403 H1407 0.950 . S
H1404 C1400 0.950 . S
C1405 C1403 1.390 . S
C1405 C1406 1.387 1_565 S
C1405 H1408 0.950 . S
C1406 C1405 1.387 1_545 S
C1406 C1409 1.387 . S
H1407 C1403 0.950 . S
H1408 C1405 0.950 . S
C1409 C1400 1.390 . S
C1409 H1402 0.950 . S
C1409 C1406 1.387 . S
C1410 C1411 1.387 . S
C1410 H1414 0.950 . S
C1410 C1419 1.390 . S
C1411 C1410 1.387 . S
C1411 C1413 1.387 . S
H1412 C1419 0.950 . S
C1413 C1411 1.387 . S
C1413 C1415 1.390 . S
C1413 H1417 0.950 . S
H1414 C1410 0.950 . S
C1415 C1413 1.390 . S
C1415 C1416 1.387 . S
C1415 H1418 0.950 . S
C1416 C1415 1.387 . S
C1416 C1419 1.387 . S
H1417 C1413 0.950 . S
H1418 C1415 0.950 . S
C1419 C1410 1.390 . S
C1419 H1412 0.950 . S
C1419 C1416 1.387 . S
C1420 C1421 1.387 . S
C1420 H1424 0.950 . S
C1420 C1429 1.390 . S
C1421 C1420 1.387 . S
C1421 C1423 1.387 . S
H1422 C1429 0.950 . S
C1423 C1421 1.387 . S
C1423 C1425 1.390 . S
C1423 H1427 0.950 1_545 S
H1424 C1420 0.950 . S
C1425 C1423 1.390 . S
C1425 C1426 1.387 . S
C1425 H1428 0.950 1_545 S
C1426 C1425 1.387 . S
C1426 C1429 1.387 . S
H1427 C1423 0.950 1_565 S
H1428 C1425 0.950 1_565 S
C1429 C1420 1.390 . S
C1429 H1422 0.950 . S
C1429 C1426 1.387 . S
C1430 C1431 1.387 . S
C1430 H1434 0.950 . S
C1430 C1439 1.390 . S
C1431 C1430 1.387 . S
C1431 C1433 1.387 1_455 S
H1432 C1439 0.950 . S
C1433 C1431 1.387 1_655 S
C1433 C1435 1.390 . S
C1433 H1437 0.950 . S
H1434 C1430 0.950 . S
C1435 C1433 1.390 . S
C1435 C1436 1.387 1_655 S
C1435 H1438 0.950 . S
C1436 C1435 1.387 1_455 S
C1436 C1439 1.387 . S
H1437 C1433 0.950 . S
H1438 C1435 0.950 . S
C1439 C1430 1.390 . S
C1439 H1432 0.950 . S
C1439 C1436 1.387 . S
C1440 C1441 1.387 . S
C1440 H1444 0.950 . S
C1440 C1449 1.390 . S
C1441 C1440 1.387 . S
C1441 C1443 1.387 1_545 S
H1442 C1449 0.950 . S
C1443 C1441 1.387 1_565 S
C1443 C1445 1.390 . S
C1443 H1447 0.950 . S
H1444 C1440 0.950 . S
C1445 C1443 1.390 . S
C1445 C1446 1.387 1_565 S
C1445 H1448 0.950 . S
C1446 C1445 1.387 1_545 S
C1446 C1449 1.387 . S
H1447 C1443 0.950 . S
H1448 C1445 0.950 . S
C1449 C1440 1.390 . S
C1449 H1442 0.950 . S
C1449 C1446 1.387 . S
C1450 C1451 1.387 . S
C1450 H1454 0.950 . S
C1450 C1459 1.390 . S
C1451 C1450 1.387 . S
C1451 C1453 1.387 . S
H1452 C1459 0.950 . S
C1453 C1451 1.387 . S
C1453 C1455 1.390 . S
C1453 H1457 0.950 1_455 S
H1454 C1450 0.950 . S
C1455 C1453 1.390 . S
C1455 C1456 1.387 . S
C1455 H1458 0.950 1_455 S
C1456 C1455 1.387 . S
C1456 C1459 1.387 . S
H1457 C1453 0.950 1_655 S
H1458 C1455 0.950 1_655 S
C1459 C1450 1.390 . S
C1459 H1452 0.950 . S
C1459 C1456 1.387 . S
C1460 C1461 1.387 . S
C1460 H1464 0.935 1_545 S
C1460 C1469 1.390 . S
C1461 C1460 1.387 . S
C1461 C1463 1.387 . S
H1462 C1469 0.950 1_565 S
C1463 C1461 1.387 . S
C1463 C1465 1.390 . S
C1463 H1467 0.950 . S
H1464 C1460 0.935 1_565 S
C1465 C1463 1.390 . S
C1465 C1466 1.387 . S
C1465 H1468 0.950 . S
C1466 C1465 1.387 . S
C1466 C1469 1.387 . S
H1467 C1463 0.950 . S
H1468 C1465 0.950 . S
C1469 C1460 1.390 . S
C1469 H1462 0.950 1_545 S
C1469 C1466 1.387 . S
C1470 C1471 1.387 . S
C1470 H1474 0.950 . S
C1470 C1479 1.390 . S
C1471 C1470 1.387 . S
C1471 C1473 1.387 1_455 S
H1472 C1479 0.950 . S
C1473 C1471 1.387 1_655 S
C1473 C1475 1.390 . S
C1473 H1477 0.950 . S
H1474 C1470 0.950 . S
C1475 C1473 1.390 . S
C1475 C1476 1.387 1_655 S
C1475 H1478 0.950 . S
C1476 C1475 1.387 1_455 S
C1476 C1479 1.387 . S
H1477 C1473 0.950 . S
H1478 C1475 0.950 . S
C1479 C1470 1.390 . S
C1479 H1472 0.950 . S
C1479 C1476 1.387 . S
C1480 C1481 1.387 1_556 S
C1480 H1484 0.950 . S
C1480 C1489 1.390 . S
C1481 C1480 1.387 1_554 S
C1481 C1483 1.387 . S
H1482 C1489 0.950 . S
C1483 C1481 1.387 . S
C1483 C1485 1.390 . S
C1483 H1487 0.950 . S
H1484 C1480 0.950 . S
C1485 C1483 1.390 . S
C1485 C1486 1.387 . S
C1485 H1488 0.950 . S
C1486 C1485 1.387 . S
C1486 C1489 1.387 1_554 S
H1487 C1483 0.950 . S
H1488 C1485 0.950 . S
C1489 C1480 1.390 . S
C1489 H1482 0.950 . S
C1489 C1486 1.387 1_556 S
C1490 C1491 1.387 . S
C1490 H1494 0.950 . S
C1490 C1499 1.390 . S
C1491 C1490 1.387 . S
C1491 C1493 1.387 1_554 S
H1492 C1499 0.950 . S
C1493 C1491 1.387 1_556 S
C1493 C1495 1.390 . S
C1493 H1497 0.950 . S
H1494 C1490 0.950 . S
C1495 C1493 1.390 . S
C1495 C1496 1.387 1_556 S
C1495 H1498 0.950 . S
C1496 C1495 1.387 1_554 S
C1496 C1499 1.387 . S
H1497 C1493 0.950 . S
H1498 C1495 0.950 . S
C1499 C1490 1.390 . S
C1499 H1492 0.950 . S
C1499 C1496 1.387 . S
C1500 C1501 1.387 . S
C1500 H1504 0.950 . S
C1500 C1509 1.390 . S
C1501 C1500 1.387 . S
C1501 C1503 1.387 1_554 S
H1502 C1509 0.950 . S
C1503 C1501 1.387 1_556 S
C1503 C1505 1.390 . S
C1503 H1507 0.950 . S
H1504 C1500 0.950 . S
C1505 C1503 1.390 . S
C1505 C1506 1.387 1_556 S
C1505 H1508 0.950 . S
C1506 C1505 1.387 1_554 S
C1506 C1509 1.387 . S
H1507 C1503 0.950 . S
H1508 C1505 0.950 . S
C1509 C1500 1.390 . S
C1509 H1502 0.950 . S
C1509 C1506 1.387 . S
C1510 C1511 1.387 . S
C1510 H1514 0.950 . S
C1510 C1519 1.390 . S
C1511 C1510 1.387 . S
C1511 C1513 1.387 1_554 S
H1512 C1519 0.950 . S
C1513 C1511 1.387 1_556 S
C1513 C1515 1.390 . S
C1513 H1517 0.950 . S
H1514 C1510 0.950 . S
C1515 C1513 1.390 . S
C1515 C1516 1.376 1_556 S
C1515 H1518 0.950 . S
C1516 C1515 1.376 1_554 S
C1516 C1519 1.399 . S
H1517 C1513 0.950 . S
H1518 C1515 0.950 . S
C1519 C1510 1.390 . S
C1519 H1512 0.950 . S
C1519 C1516 1.399 . S
C1520 C1521 1.387 . S
C1520 H1524 0.950 . S
C1520 C1529 1.390 . S
C1521 C1520 1.387 . S
C1521 C1523 1.387 1_554 S
H1522 C1529 0.950 . S
C1523 C1521 1.387 1_556 S
C1523 C1525 1.390 . S
C1523 H1527 0.950 . S
H1524 C1520 0.950 . S
C1525 C1523 1.390 . S
C1525 C1526 1.387 1_556 S
C1525 H1528 0.950 . S
C1526 C1525 1.387 1_554 S
C1526 C1529 1.387 . S
H1527 C1523 0.950 . S
H1528 C1525 0.950 . S
C1529 C1520 1.390 . S
C1529 H1522 0.950 . S
C1529 C1526 1.387 . S
C1530 C1531 1.387 . S
C1530 H1534 0.950 . S
C1530 C1539 1.390 . S
C1531 C1530 1.387 . S
C1531 C1533 1.387 1_554 S
H1532 C1539 0.950 . S
C1533 C1531 1.387 1_556 S
C1533 C1535 1.390 . S
C1533 H1537 0.950 . S
H1534 C1530 0.950 . S
C1535 C1533 1.390 . S
C1535 C1536 1.387 1_556 S
C1535 H1538 0.950 . S
C1536 C1535 1.387 1_554 S
C1536 C1539 1.387 . S
H1537 C1533 0.950 . S
H1538 C1535 0.950 . S
C1539 C1530 1.390 . S
C1539 H1532 0.950 . S
C1539 C1536 1.387 . S
C1540 C1541 1.387 . S
C1540 H1544 0.950 . S
C1540 C1549 1.390 . S
C1541 C1540 1.387 . S
C1541 C1543 1.387 1_554 S
H1542 C1549 0.950 . S
C1543 C1541 1.387 1_556 S
C1543 C1545 1.390 . S
C1543 H1547 0.950 . S
H1544 C1540 0.950 . S
C1545 C1543 1.390 . S
C1545 C1546 1.387 1_556 S
C1545 H1548 0.950 . S
C1546 C1545 1.387 1_554 S
C1546 C1549 1.387 . S
H1547 C1543 0.950 . S
H1548 C1545 0.950 . S
C1549 C1540 1.390 . S
C1549 H1542 0.950 . S
C1549 C1546 1.387 . S
C1550 C1551 1.387 1_556 S
C1550 H1554 0.950 . S
C1550 C1559 1.390 . S
C1551 C1550 1.387 1_554 S
C1551 C1553 1.387 . S
H1552 C1559 0.950 . S
C1553 C1551 1.387 . S
C1553 C1555 1.390 . S
C1553 H1557 0.950 . S
H1554 C1550 0.950 . S
C1555 C1553 1.390 . S
C1555 C1556 1.387 . S
C1555 H1558 0.950 . S
C1556 C1555 1.387 . S
C1556 C1559 1.387 1_554 S
H1557 C1553 0.950 . S
H1558 C1555 0.950 . S
C1559 C1550 1.390 . S
C1559 H1552 0.950 . S
C1559 C1556 1.387 1_556 S
C1560 C1561 1.387 . S
C1560 H1564 0.950 . S
C1560 C1569 1.390 . S
C1561 C1560 1.387 . S
C1561 C1563 1.387 . S
H1562 C1569 0.950 . S
C1563 C1561 1.387 . S
C1563 C1565 1.390 . S
C1563 H1567 0.950 . S
H1564 C1560 0.950 . S
C1565 C1563 1.390 . S
C1565 C1566 1.387 . S
C1565 H1568 0.950 . S
C1566 C1565 1.387 . S
C1566 C1569 1.387 . S
H1567 C1563 0.950 . S
H1568 C1565 0.950 . S
C1569 C1560 1.390 . S
C1569 H1562 0.950 . S
C1569 C1566 1.387 . S
C1570 C1571 1.387 . S
C1570 H1574 0.950 . S
C1570 C1579 1.390 . S
C1571 C1570 1.387 . S
C1571 C1573 1.387 . S
H1572 C1579 0.950 . S
C1573 C1571 1.387 . S
C1573 C1575 1.390 . S
C1573 H1577 0.950 . S
H1574 C1570 0.950 . S
C1575 C1573 1.390 . S
C1575 C1576 1.387 . S
C1575 H1578 0.950 . S
C1576 C1575 1.387 . S
C1576 C1579 1.387 . S
H1577 C1573 0.950 . S
H1578 C1575 0.950 . S
C1579 C1570 1.390 . S
C1579 H1572 0.950 . S
C1579 C1576 1.387 . S
C1580 C1581 1.387 . S
C1580 H1584 0.950 . S
C1580 C1589 1.390 . S
C1581 C1580 1.387 . S
C1581 C1583 1.387 . S
H1582 C1589 0.950 . S
C1583 C1581 1.387 . S
C1583 C1585 1.390 . S
C1583 H1587 0.950 . S
H1584 C1580 0.950 . S
C1585 C1583 1.390 . S
C1585 C1586 1.387 . S
C1585 H1588 0.950 . S
C1586 C1585 1.387 . S
C1586 C1589 1.387 . S
H1587 C1583 0.950 . S
H1588 C1585 0.950 . S
C1589 C1580 1.390 . S
C1589 H1582 0.950 . S
C1589 C1586 1.387 . S
C1590 C1591 1.387 . S
C1590 H1594 0.950 . S
C1590 C1599 1.390 . S
C1591 C1590 1.387 . S
C1591 C1593 1.387 . S
H1592 C1599 0.950 . S
C1593 C1591 1.387 . S
C1593 C1595 1.390 . S
C1593 H1597 0.950 . S
H1594 C1590 0.950 . S
C1595 C1593 1.390 . S
C1595 C1596 1.387 . S
C1595 H1598 0.950 . S
C1596 C1595 1.387 . S
C1596 C1599 1.387 . S
H1597 C1593 0.950 . S
H1598 C1595 0.950 . S
C1599 C1590 1.390 . S
C1599 H1592 0.950 . S
C1599 C1596 1.387 . S
C1600 C1601 1.387 . S
C1600 H1604 0.950 . S
C1600 C1609 1.390 . S
C1601 C1600 1.387 . S
C1601 C1603 1.387 . S
H1602 C1609 0.950 . S
C1603 C1601 1.387 . S
C1603 C1605 1.390 . S
C1603 H1607 0.950 . S
H1604 C1600 0.950 . S
C1605 C1603 1.390 . S
C1605 C1606 1.387 . S
C1605 H1608 0.950 . S
C1606 C1605 1.387 . S
C1606 C1609 1.387 . S
H1607 C1603 0.950 . S
H1608 C1605 0.950 . S
C1609 C1600 1.390 . S
C1609 H1602 0.950 . S
C1609 C1606 1.387 . S
C1610 C1611 1.387 . S
C1610 H1614 0.950 . S
C1610 C1619 1.390 . S
C1611 C1610 1.387 . S
C1611 C1613 1.387 . S
H1612 C1619 0.950 . S
C1613 C1611 1.387 . S
C1613 C1615 1.390 . S
C1613 H1617 0.950 . S
H1614 C1610 0.950 . S
C1615 C1613 1.390 . S
C1615 C1616 1.387 . S
C1615 H1618 0.950 . S
C1616 C1615 1.387 . S
C1616 C1619 1.387 . S
H1617 C1613 0.950 . S
H1618 C1615 0.950 . S
C1619 C1610 1.390 . S
C1619 H1612 0.950 . S
C1619 C1616 1.387 . S
C1620 C1621 1.387 . S
C1620 H1624 0.950 . S
C1620 C1629 1.390 . S
C1621 C1620 1.387 . S
C1621 C1623 1.387 . S
H1622 C1629 0.950 . S
C1623 C1621 1.387 . S
C1623 C1625 1.390 . S
C1623 H1627 0.950 . S
H1624 C1620 0.950 . S
C1625 C1623 1.390 . S
C1625 C1626 1.387 . S
C1625 H1628 0.950 . S
C1626 C1625 1.387 . S
C1626 C1629 1.387 . S
H1627 C1623 0.950 . S
H1628 C1625 0.950 . S
C1629 C1620 1.390 . S
C1629 H1622 0.950 . S
C1629 C1626 1.387 . S
C1630 C1631 1.387 . S
C1630 H1634 0.950 . S
C1630 C1639 1.390 . S
C1631 C1630 1.387 . S
C1631 C1633 1.387 . S
H1632 C1639 0.950 . S
C1633 C1631 1.387 . S
C1633 C1635 1.390 . S
C1633 H1637 0.950 . S
H1634 C1630 0.950 . S
C1635 C1633 1.390 . S
C1635 C1636 1.387 . S
C1635 H1638 0.950 . S
C1636 C1635 1.387 . S
C1636 C1639 1.387 . S
H1637 C1633 0.950 . S
H1638 C1635 0.950 . S
C1639 C1630 1.390 . S
C1639 H1632 0.950 . S
C1639 C1636 1.387 . S
C1640 C1641 1.387 . S
C1640 H1644 0.950 . S
C1640 C1649 1.390 . S
C1641 C1640 1.387 . S
C1641 C1643 1.387 . S
H1642 C1649 0.950 . S
C1643 C1641 1.387 . S
C1643 C1645 1.390 . S
C1643 H1647 0.950 . S
H1644 C1640 0.950 . S
C1645 C1643 1.390 . S
C1645 C1646 1.387 . S
C1645 H1648 0.950 . S
C1646 C1645 1.387 . S
C1646 C1649 1.387 . S
H1647 C1643 0.950 . S
H1648 C1645 0.950 . S
C1649 C1640 1.390 . S
C1649 H1642 0.950 . S
C1649 C1646 1.387 . S
C1650 C1651 1.387 . S
C1650 H1654 0.950 . S
C1650 C1659 1.390 . S
C1651 C1650 1.387 . S
C1651 C1653 1.387 . S
H1652 C1659 0.950 . S
C1653 C1651 1.387 . S
C1653 C1655 1.390 . S
C1653 H1657 0.950 . S
H1654 C1650 0.950 . S
C1655 C1653 1.390 . S
C1655 C1656 1.387 . S
C1655 H1658 0.950 . S
C1656 C1655 1.387 . S
C1656 C1659 1.387 . S
H1657 C1653 0.950 . S
H1658 C1655 0.950 . S
C1659 C1650 1.390 . S
C1659 H1652 0.950 . S
C1659 C1656 1.387 . S
C1660 C1661 1.387 . S
C1660 H1664 0.950 . S
C1660 C1669 1.390 . S
C1661 C1660 1.387 . S
C1661 C1663 1.387 . S
H1662 C1669 0.950 . S
C1663 C1661 1.387 . S
C1663 C1665 1.390 . S
C1663 H1667 0.950 . S
H1664 C1660 0.950 . S
C1665 C1663 1.390 . S
C1665 C1666 1.387 . S
C1665 H1668 0.950 . S
C1666 C1665 1.387 . S
C1666 C1669 1.387 . S
H1667 C1663 0.950 . S
H1668 C1665 0.950 . S
C1669 C1660 1.390 . S
C1669 H1662 0.950 . S
C1669 C1666 1.387 . S
C1670 C1671 1.387 . S
C1670 H1674 0.950 . S
C1670 C1679 1.390 . S
C1671 C1670 1.387 . S
C1671 C1673 1.387 . S
H1672 C1679 0.950 . S
C1673 C1671 1.387 . S
C1673 C1675 1.390 . S
C1673 H1677 0.950 . S
H1674 C1670 0.950 . S
C1675 C1673 1.390 . S
C1675 C1676 1.387 . S
C1675 H1678 0.950 . S
C1676 C1675 1.387 . S
C1676 C1679 1.387 . S
H1677 C1673 0.950 . S
H1678 C1675 0.950 . S
C1679 C1670 1.390 . S
C1679 H1672 0.950 . S
C1679 C1676 1.387 . S
C1680 C1681 1.387 . S
C1680 H1684 0.950 . S
C1680 C1689 1.390 . S
C1681 C1680 1.387 . S
C1681 C1683 1.387 . S
H1682 C1689 0.950 . S
C1683 C1681 1.387 . S
C1683 C1685 1.390 . S
C1683 H1687 0.950 . S
H1684 C1680 0.950 . S
C1685 C1683 1.390 . S
C1685 C1686 1.387 . S
C1685 H1688 0.950 . S
C1686 C1685 1.387 . S
C1686 C1689 1.387 . S
H1687 C1683 0.950 . S
H1688 C1685 0.950 . S
C1689 C1680 1.390 . S
C1689 H1682 0.950 . S
C1689 C1686 1.387 . S
C1690 C1691 1.387 . S
C1690 H1694 0.950 . S
C1690 C1699 1.390 . S
C1691 C1690 1.387 . S
C1691 C1693 1.387 . S
H1692 C1699 0.950 . S
C1693 C1691 1.387 . S
C1693 C1695 1.390 . S
C1693 H1697 0.950 . S
H1694 C1690 0.950 . S
C1695 C1693 1.390 . S
C1695 C1696 1.387 . S
C1695 H1698 0.950 . S
C1696 C1695 1.387 . S
C1696 C1699 1.387 . S
H1697 C1693 0.950 . S
H1698 C1695 0.950 . S
C1699 C1690 1.390 . S
C1699 H1692 0.950 . S
C1699 C1696 1.387 . S
C1700 C1701 1.387 . S
C1700 H1704 0.950 . S
C1700 C1709 1.390 . S
C1701 C1700 1.387 . S
C1701 C1703 1.387 . S
H1702 C1709 0.950 . S
C1703 C1701 1.387 . S
C1703 C1705 1.390 . S
C1703 H1707 0.950 . S
H1704 C1700 0.950 . S
C1705 C1703 1.390 . S
C1705 C1706 1.387 . S
C1705 H1708 0.950 . S
C1706 C1705 1.387 . S
C1706 C1709 1.387 . S
H1707 C1703 0.950 . S
H1708 C1705 0.950 . S
C1709 C1700 1.390 . S
C1709 H1702 0.950 . S
C1709 C1706 1.387 . S
C1710 C1711 1.387 . S
C1710 H1714 0.950 . S
C1710 C1719 1.390 . S
C1711 C1710 1.387 . S
C1711 C1713 1.387 . S
H1712 C1719 0.950 . S
C1713 C1711 1.387 . S
C1713 C1715 1.390 . S
C1713 H1717 0.950 . S
H1714 C1710 0.950 . S
C1715 C1713 1.390 . S
C1715 C1716 1.387 . S
C1715 H1718 0.950 . S
C1716 C1715 1.387 . S
C1716 C1719 1.387 . S
H1717 C1713 0.950 . S
H1718 C1715 0.950 . S
C1719 C1710 1.390 . S
C1719 H1712 0.950 . S
C1719 C1716 1.387 . S
C1720 C1721 1.387 . S
C1720 H1724 0.950 . S
C1720 C1729 1.390 . S
C1721 C1720 1.387 . S
C1721 C1723 1.387 . S
H1722 C1729 0.950 . S
C1723 C1721 1.387 . S
C1723 C1725 1.390 . S
C1723 H1727 0.950 . S
H1724 C1720 0.950 . S
C1725 C1723 1.390 . S
C1725 C1726 1.387 . S
C1725 H1728 0.950 . S
C1726 C1725 1.387 . S
C1726 C1729 1.387 . S
H1727 C1723 0.950 . S
H1728 C1725 0.950 . S
C1729 C1720 1.390 . S
C1729 H1722 0.950 . S
C1729 C1726 1.387 . S
C1730 C1731 1.387 . S
C1730 H1734 0.950 . S
C1730 C1739 1.390 . S
C1731 C1730 1.387 . S
C1731 C1733 1.387 . S
H1732 C1739 0.950 . S
C1733 C1731 1.387 . S
C1733 C1735 1.390 . S
C1733 H1737 0.950 . S
H1734 C1730 0.950 . S
C1735 C1733 1.390 . S
C1735 C1736 1.387 . S
C1735 H1738 0.950 . S
C1736 C1735 1.387 . S
C1736 C1739 1.387 . S
H1737 C1733 0.950 . S
H1738 C1735 0.950 . S
C1739 C1730 1.390 . S
C1739 H1732 0.950 . S
C1739 C1736 1.387 . S
C1740 C1741 1.387 . S
C1740 H1744 0.950 . S
C1740 C1749 1.390 . S
C1741 C1740 1.387 . S
C1741 C1743 1.387 . S
H1742 C1749 0.950 . S
C1743 C1741 1.387 . S
C1743 C1745 1.390 . S
C1743 H1747 0.950 . S
H1744 C1740 0.950 . S
C1745 C1743 1.390 . S
C1745 C1746 1.387 . S
C1745 H1748 0.950 . S
C1746 C1745 1.387 . S
C1746 C1749 1.387 . S
H1747 C1743 0.950 . S
H1748 C1745 0.950 . S
C1749 C1740 1.390 . S
C1749 H1742 0.950 . S
C1749 C1746 1.387 . S
C1750 C1751 1.387 . S
C1750 H1754 0.950 . S
C1750 C1759 1.390 . S
C1751 C1750 1.387 . S
C1751 C1753 1.387 . S
H1752 C1759 0.950 . S
C1753 C1751 1.387 . S
C1753 C1755 1.390 . S
C1753 H1757 0.950 . S
H1754 C1750 0.950 . S
C1755 C1753 1.390 . S
C1755 C1756 1.387 . S
C1755 H1758 0.950 . S
C1756 C1755 1.387 . S
C1756 C1759 1.387 . S
H1757 C1753 0.950 . S
H1758 C1755 0.950 . S
C1759 C1750 1.390 . S
C1759 H1752 0.950 . S
C1759 C1756 1.387 . S
C1760 C1761 1.387 . S
C1760 H1764 0.950 . S
C1760 C1769 1.390 . S
C1761 C1760 1.387 . S
C1761 C1763 1.387 . S
H1762 C1769 0.950 . S
C1763 C1761 1.387 . S
C1763 C1765 1.390 . S
C1763 H1767 0.950 . S
H1764 C1760 0.950 . S
C1765 C1763 1.390 . S
C1765 C1766 1.387 . S
C1765 H1768 0.950 . S
C1766 C1765 1.387 . S
C1766 C1769 1.387 . S
H1767 C1763 0.950 . S
H1768 C1765 0.950 . S
C1769 C1760 1.390 . S
C1769 H1762 0.950 . S
C1769 C1766 1.387 . S
C1770 C1771 1.387 . S
C1770 H1774 0.950 . S
C1770 C1779 1.390 . S
C1771 C1770 1.387 . S
C1771 C1773 1.387 . S
H1772 C1779 0.950 . S
C1773 C1771 1.387 . S
C1773 C1775 1.390 . S
C1773 H1777 0.950 . S
H1774 C1770 0.950 . S
C1775 C1773 1.390 . S
C1775 C1776 1.387 . S
C1775 H1778 0.950 . S
C1776 C1775 1.387 . S
C1776 C1779 1.387 . S
H1777 C1773 0.950 . S
H1778 C1775 0.950 . S
C1779 C1770 1.390 . S
C1779 H1772 0.950 . S
C1779 C1776 1.387 . S
C1780 C1781 1.387 . S
C1780 H1784 0.950 . S
C1780 C1789 1.390 . S
C1781 C1780 1.387 . S
C1781 C1783 1.387 . S
H1782 C1789 0.950 . S
C1783 C1781 1.387 . S
C1783 C1785 1.390 . S
C1783 H1787 0.950 . S
H1784 C1780 0.950 . S
C1785 C1783 1.390 . S
C1785 C1786 1.387 . S
C1785 H1788 0.950 . S
C1786 C1785 1.387 . S
C1786 C1789 1.387 . S
H1787 C1783 0.950 . S
H1788 C1785 0.950 . S
C1789 C1780 1.390 . S
C1789 H1782 0.950 . S
C1789 C1786 1.387 . S
C1790 C1791 1.387 . S
C1790 H1794 0.950 . S
C1790 C1799 1.390 . S
C1791 C1790 1.387 . S
C1791 C1793 1.387 . S
H1792 C1799 0.950 . S
C1793 C1791 1.387 . S
C1793 C1795 1.390 . S
C1793 H1797 0.950 . S
H1794 C1790 0.950 . S
C1795 C1793 1.390 . S
C1795 C1796 1.387 . S
C1795 H1798 0.950 . S
C1796 C1795 1.387 . S
C1796 C1799 1.387 . S
H1797 C1793 0.950 . S
H1798 C1795 0.950 . S
C1799 C1790 1.390 . S
C1799 H1792 0.950 . S
C1799 C1796 1.387 . S
C1086 C810 1.175 . S
C1081 C765 1.199 . S
C1091 C701 1.235 . S
C1096 C804 1.197 . S
C1106 C772 1.298 . S
C1101 C669 1.338 . S
C1111 C733 1.356 . S
C1116 C786 1.285 . S
C1126 C824 1.601 . S
C1121 C541 1.679 . S
C1136 C911 1.189 . S
C1131 C573 1.190 . S
C1141 C605 1.747 . S
C1146 C838 1.675 . S
C1156 C906 0.941 . S
C1151 C637 0.955 . S
C1161 C413 1.702 . S
C1166 C862 1.655 . S
C1176 C917 1.258 . S
C1171 C445 1.262 . S
C1181 C477 1.627 . S
C1186 C856 1.621 . S
C1191 C509 0.972 . S
C1196 C902 0.956 . S
C1206 C958 0.963 . S
C1201 C381 0.959 . S
C1211 C317 1.276 . S
C1216 C969 1.283 . S
C1221 C285 1.030 . S
C1226 C954 1.033 . S
C1236 C963 1.305 . S
C1231 C349 1.313 1_554 S
C1241 C157 1.302 1_455 S
C1246 C1008 1.261 . S
C1251 C189 0.601 . S
C1256 C1067 0.613 . S
C1261 C221 1.442 . S
C1266 C1024 1.346 . S
C1271 C253 0.971 . S
C1276 C1062 0.947 . S
C1286 C1026 1.378 . S
C1281 C29 1.435 . S
C1296 C1073 0.612 . S
C1291 C61 0.631 . S
C1301 C93 1.271 . S
C1306 C1002 1.233 . S
C1316 C1058 0.916 . S
C1311 C125 0.944 1_545 S
C1326 C794 1.815 . S
C1321 C23 1.818 . S
C1331 C55 1.559 . S
C1336 C798 1.630 . S
C1341 C87 1.855 . S
C1346 C818 1.813 . S
C1351 C113 1.338 1_545 S
C1356 C813 1.443 . S
C1361 C151 1.889 1_455 S
C1366 C816 1.851 . S
C1376 C802 1.612 . S
C1371 C183 1.584 . S
C1381 C215 1.837 . S
C1386 C800 1.793 . S
C1396 C807 1.461 . S
C1391 C247 1.327 . S
C1406 C870 1.812 . S
C1401 C119 1.856 1_545 S
C1411 C17 1.996 . S
C1416 C920 2.058 . S
C1426 C868 1.509 . S
C1421 C49 1.542 . S
C1436 C904 1.973 . S
C1431 C81 1.949 . S
C1441 C177 1.493 . S
C1446 C846 1.457 . S
C1456 C922 2.034 . S
C1451 C209 1.985 . S
C1466 C852 1.764 . S
C1461 C241 1.809 . S
C1476 C898 2.001 . S
C1471 C145 1.980 1_455 S
C1486 C890 1.905 . S
C1481 C279 1.764 . S
C1491 C305 1.672 . S
C1496 C914 1.821 . S
C1506 C850 1.588 . S
C1501 C273 1.539 . S
C1516 C876 1.844 . S
C1511 C337 1.694 1_554 S
C1521 C375 1.486 . S
C1526 C854 1.544 . S
C1531 C369 1.726 . S
C1536 C908 1.855 . S
C1546 C865 1.856 . S
C1541 C311 1.661 . S
C1556 C859 1.904 . S
C1551 C343 1.715 1_554 S
C1566 C942 2.192 . S
C1561 C407 2.072 . S
C1576 C974 1.957 . S
C1571 C439 1.785 . S
C1581 C471 2.021 . S
C1586 C928 2.174 . S
C1596 C972 1.610 . S
C1591 C497 1.510 . S
C1606 C960 2.149 . S
C1601 C535 2.031 . S
C1611 C561 1.736 . S
C1616 C956 1.893 . S
C1621 C599 2.106 . S
C1626 C966 2.229 . S
C1636 C950 1.595 . S
C1631 C631 1.464 . S
C1646 C1015 1.776 . S
C1641 C503 1.746 . S
C1651 C401 1.847 . S
C1656 C1076 1.977 . S
C1666 C1010 1.611 . S
C1661 C433 1.421 . S
C1676 C1060 1.982 . S
C1671 C465 1.802 . S
C1686 C1006 1.562 . S
C1681 C567 1.363 . S
C1691 C593 1.815 . S
C1696 C1078 1.919 . S
C1706 C1021 1.706 . S
C1701 C625 1.693 . S
C1716 C1054 1.854 . S
C1711 C529 1.780 . S
C1726 C1046 1.987 . S
C1721 C663 1.925 . S
C1731 C689 1.977 . S
C1736 C1070 1.986 . S
C1746 C1012 1.707 . S
C1741 C657 1.738 . S
C1751 C721 1.985 . S
C1756 C1032 2.030 . S
C1766 C994 1.745 . S
C1761 C759 1.775 . S
C1776 C1064 1.910 . S
C1771 C753 1.859 . S
C1786 C980 1.752 . S
C1781 C695 1.801 . S
C1791 C727 1.744 . S
C1796 C1018 1.713 . S
