# Generated by pormake.
# Topology tsx, (6,3)-cn, num edge types: 1
# Building blocks:
#     Node 0, Type 0, BuildingBlock: CIFDUS_clean_sbu_1, # of connection points: 6
#     Node 1, Type 0, BuildingBlock: CIFDUS_clean_sbu_1, # of connection points: 6
#     Node 2, Type 1, BuildingBlock: MIDCAF_clean_linker_0, # of connection points: 3
#     Node 3, Type 1, BuildingBlock: MIDCAF_clean_linker_0, # of connection points: 3
#     Node 4, Type 1, BuildingBlock: MIDCAF_clean_linker_0, # of connection points: 3
#     Node 5, Type 1, BuildingBlock: MIDCAF_clean_linker_0, # of connection points: 3
#     Edge 6, Type (0, 1), BuildingBlock: XUDNAN_clean_linker_2, # of connection points: 2
#     Edge 7, Type (0, 1), BuildingBlock: XUDNAN_clean_linker_2, # of connection points: 2
#     Edge 8, Type (0, 1), BuildingBlock: XUDNAN_clean_linker_2, # of connection points: 2
#     Edge 9, Type (0, 1), BuildingBlock: XUDNAN_clean_linker_2, # of connection points: 2
#     Edge 10, Type (0, 1), BuildingBlock: XUDNAN_clean_linker_2, # of connection points: 2
#     Edge 11, Type (0, 1), BuildingBlock: XUDNAN_clean_linker_2, # of connection points: 2
#     Edge 12, Type (0, 1), BuildingBlock: XUDNAN_clean_linker_2, # of connection points: 2
#     Edge 13, Type (0, 1), BuildingBlock: XUDNAN_clean_linker_2, # of connection points: 2
#     Edge 14, Type (0, 1), BuildingBlock: XUDNAN_clean_linker_2, # of connection points: 2
#     Edge 15, Type (0, 1), BuildingBlock: XUDNAN_clean_linker_2, # of connection points: 2
#     Edge 16, Type (0, 1), BuildingBlock: XUDNAN_clean_linker_2, # of connection points: 2
#     Edge 17, Type (0, 1), BuildingBlock: XUDNAN_clean_linker_2, # of connection points: 2
# Relax obj value: 0.129
# Max RMSD: 0.156
# Mean RMSD: 0.119
data_MOF--net-tsx--node1-CIFDUS_clean_sbu_1--node2-MIDCAF_clean_linker_0--edge1-XUDNAN_clean_linker_2
_symmetry_space_group_name_H-M    P1
_symmetry_Int_Tables_number       1
_symmetry_cell_setting            triclinic
loop_
_symmetry_equiv_pos_as_xyz
'x, y, z'
_cell_length_a     21.949376
_cell_length_b     27.171096
_cell_length_c     44.939823
_cell_angle_alpha  97.091964
_cell_angle_beta   91.740163
_cell_angle_gamma 90.67137
loop_
_atom_site_label
_atom_site_type_symbol
_atom_site_fract_x
_atom_site_fract_y
_atom_site_fract_z
_atom_type_partial_charge
O0 O 0.99654 0.10287 0.00899 0.0
Mn1 Mn 0.05466 0.04197 0.01329 0.0
O2 O 0.91941 0.07401 0.97749 0.0
Mn3 Mn 0.95373 0.01356 0.96553 0.0
O4 O 0.1126 0.98154 0.0178 0.0
O5 O 0.1217 0.09234 0.02857 0.0
Mn6 Mn 0.15307 0.07206 0.06153 0.0
O7 O 0.02188 0.03818 0.05667 0.0
O8 O 0.18655 0.01053 0.05126 0.0
O9 O 0.08764 0.04403 0.96999 0.0
O10 O 0.01269 0.01397 0.93724 0.0
O11 O 0.19619 0.12836 0.05745 0.0
O12 O 0.09318 0.0739 0.0893 0.0
C13 C 0.94805 0.95587 0.99322 0.0
C14 C 0.94516 0.10877 0.9952 0.0
C15 C 0.16202 0.97564 0.03314 0.0
C16 C 0.16136 0.12873 0.0337 0.0
C17 C 0.04087 0.05384 0.0836 0.0
C18 C 0.06679 0.03024 0.94317 0.0
O19 O 0.98761 0.99225 0.99771 0.0
O20 O 0.91169 0.95668 0.97005 0.0
O21 O 0.48782 0.60988 0.5083 0.0
Mn22 Mn 0.53409 0.54132 0.5052 0.0
O23 O 0.39886 0.59444 0.48251 0.0
Mn24 Mn 0.41968 0.53269 0.46436 0.0
O25 O 0.57808 0.47215 0.50121 0.0
O26 O 0.61244 0.58086 0.51903 0.0
Mn27 Mn 0.6509 0.5426 0.54277 0.0
O28 O 0.51259 0.53508 0.54972 0.0
O29 O 0.67248 0.48417 0.52069 0.0
O30 O 0.55674 0.54737 0.46065 0.0
O31 O 0.47095 0.53065 0.43248 0.0
O32 O 0.70037 0.59681 0.54367 0.0
O33 O 0.60261 0.5351 0.575 0.0
C34 C 0.41144 0.46923 0.48731 0.0
C35 C 0.43471 0.62333 0.49947 0.0
C36 C 0.63208 0.45649 0.50613 0.0
C37 C 0.65904 0.61113 0.52556 0.0
C38 C 0.5446 0.5322 0.57387 0.0
C39 C 0.52803 0.53952 0.43509 0.0
O40 O 0.45642 0.50135 0.49189 0.0
O41 O 0.37061 0.47923 0.4676 0.0
C42 C 0.80465 0.09486 0.43801 0.0
C43 C 0.82055 0.1291 0.46316 0.0
C44 C 0.87657 0.1234 0.4785 0.0
C45 C 0.91682 0.08576 0.468 0.0
H46 H 0.04375 0.9471 0.48322 0.0
H47 H 0.12653 0.90407 0.50681 0.0
H48 H 0.23537 0.9124 0.42915 0.0
H49 H 0.15291 0.95452 0.40553 0.0
H50 H 0.88263 0.97685 0.34565 0.0
H51 H 0.87393 0.97591 0.2912 0.0
H52 H 0.06993 0.97432 0.28653 0.0
H53 H 0.07888 0.97423 0.34103 0.0
H54 H 0.83165 0.03334 0.40733 0.0
H55 H 0.76241 0.09819 0.42539 0.0
H56 H 0.88993 0.14875 0.49819 0.0
H57 H 0.96065 0.08362 0.47947 0.0
N58 N 0.99616 0.00262 0.44181 0.0
N59 N 0.03483 0.96645 0.39594 0.0
N60 N 0.94349 0.00988 0.39634 0.0
C61 C 0.03962 0.97521 0.42647 0.0
C62 C 0.98646 0.98331 0.38081 0.0
C63 C 0.9479 0.02019 0.42664 0.0
C64 C 0.0916 0.95408 0.44245 0.0
C65 C 0.08572 0.9404 0.47143 0.0
C66 C 0.13296 0.91553 0.48486 0.0
C67 C 0.18755 0.90489 0.46985 0.0
C68 C 0.19421 0.92045 0.44143 0.0
C69 C 0.14671 0.94432 0.42781 0.0
C70 C 0.9815 0.9759 0.34762 0.0
C71 C 0.92388 0.97544 0.33295 0.0
C72 C 0.91878 0.97465 0.3018 0.0
C73 C 0.97122 0.97533 0.28478 0.0
C74 C 0.02881 0.97399 0.29925 0.0
C75 C 0.03391 0.97369 0.33036 0.0
C76 C 0.90205 0.05353 0.44177 0.0
C77 C 0.84475 0.05771 0.4275 0.0
C78 C 0.93626 0.89109 0.57597 0.0
C79 C 0.91319 0.89613 0.54703 0.0
C80 C 0.93872 0.93346 0.53181 0.0
C81 C 0.98456 0.96601 0.54581 0.0
H82 H 0.15403 0.07275 0.53698 0.0
H83 H 0.22092 0.13665 0.52016 0.0
H84 H 0.22471 0.2164 0.60948 0.0
H85 H 0.15931 0.15372 0.62605 0.0
H86 H 0.14407 0.10097 0.6805 0.0
H87 H 0.16221 0.09803 0.73402 0.0
H88 H 0.10331 0.94463 0.72342 0.0
H89 H 0.08426 0.94746 0.66964 0.0
H90 H 0.99732 0.91757 0.61219 0.0
H91 H 0.91924 0.86202 0.58812 0.0
H92 H 0.92229 0.93829 0.50941 0.0
H93 H 1.00216 -0.00495 0.53383 0.0
N94 N 0.08019 0.03375 0.57866 0.0
N95 N 0.12865 0.06285 0.625 0.0
N96 N 0.06303 -0.00577 0.62158 0.0
C97 C 0.11902 0.06681 0.59544 0.0
C98 C 0.10135 0.02685 0.63826 0.0
C99 C 0.05162 -0.00275 0.59188 0.0
C100 C 0.15188 0.1076 0.58295 0.0
C101 C 0.1686 0.10432 0.55281 0.0
C102 C 0.20712 0.14082 0.54325 0.0
C103 C 0.22957 0.18108 0.56369 0.0
C104 C 0.21016 0.18522 0.59334 0.0
C105 C 0.17207 0.14921 0.60278 0.0
C106 C 0.1126 0.02441 0.67075 0.0
C107 C 0.13511 0.06647 0.68946 0.0
C108 C 0.14537 0.06493 0.72014 0.0
C109 C 0.13436 0.0211 0.73279 0.0
C110 C 0.11269 0.97877 0.71414 0.0
C111 C 0.10138 0.98052 0.68344 0.0
C112 C 1.00619 0.96158 0.57521 0.0
C113 C 0.98178 0.92307 0.58976 0.0
C114 C 0.38048 0.65966 0.94432 0.0
C115 C 0.37528 0.66357 0.97558 0.0
C116 C 0.4046 0.62795 0.99117 0.0
C117 C 0.43864 0.58988 0.97583 0.0
H118 H 0.60212 0.49498 0.98214 0.0
H119 H 0.67529 0.44081 0.00411 0.0
H120 H 0.6833 0.34974 0.91855 0.0
H121 H 0.61021 0.40229 0.89702 0.0
H122 H 0.58973 0.48714 0.83762 0.0
H123 H 0.57679 0.48889 0.78379 0.0
H124 H 0.383 0.50987 0.79414 0.0
H125 H 0.39741 0.51181 0.84814 0.0
H126 H 0.41675 0.62062 0.905 0.0
H127 H 0.36024 0.68683 0.93149 0.0
H128 H 0.40119 0.62932 0.01523 0.0
H129 H 0.46066 0.56319 0.98844 0.0
N130 N 0.52088 0.51901 0.94082 0.0
N131 N 0.54554 0.47827 0.89345 0.0
N132 N 0.47068 0.53894 0.89707 0.0
C133 C 0.55424 0.48444 0.92386 0.0
C134 C 0.50355 0.50516 0.88 0.0
C135 C 0.47901 0.5466 0.92733 0.0
C136 C 0.59947 0.45289 0.93785 0.0
C137 C 0.61914 0.46312 0.96815 0.0
C138 C 0.66152 0.43236 0.98067 0.0
C139 C 0.68475 0.39055 0.96318 0.0
C140 C 0.66558 0.38096 0.93288 0.0
C141 C 0.62375 0.41154 0.92043 0.0
C142 C 0.49469 0.49968 0.84702 0.0
C143 C 0.54438 0.49166 0.82823 0.0
C144 C 0.53668 0.49241 0.79725 0.0
C145 C 0.47871 0.49991 0.78423 0.0
C146 C 0.42862 0.50548 0.80315 0.0
C147 C 0.43669 0.50607 0.83416 0.0
C148 C 0.44356 0.5863 0.94453 0.0
C149 C 0.41369 0.6216 0.92907 0.0
C150 C 0.41054 0.41736 0.06605 0.0
C151 C 0.40627 0.40777 0.0346 0.0
C152 C 0.44836 0.43185 0.01791 0.0
C153 C 0.49388 0.46401 0.03247 0.0
H154 H 0.75585 0.57071 0.09982 0.0
H155 H 0.82594 0.63228 0.08501 0.0
H156 H 0.69312 0.66957 0.01883 0.0
H157 H 0.62193 0.60756 0.03412 0.0
H158 H 0.70165 0.55198 0.16362 0.0
H159 H 0.70939 0.55586 0.21802 0.0
H160 H 0.5184 0.51548 0.21938 0.0
H161 H 0.51163 0.50933 0.16499 0.0
H162 H 0.45711 0.45445 0.10474 0.0
H163 H 0.38025 0.39893 0.07987 0.0
H164 H 0.44637 0.42569 0.99363 0.0
H165 H 0.52586 0.48143 0.01904 0.0
N166 N 0.59061 0.52891 0.06612 0.0
N167 N 0.64228 0.55359 0.11233 0.0
N168 N 0.55479 0.5037 0.1108 0.0
C169 C 0.63759 0.55424 0.08219 0.0
C170 C 0.60108 0.5288 0.12685 0.0
C171 C 0.54913 0.50296 0.08049 0.0
C172 C 0.68306 0.58448 0.0683 0.0
C173 C 0.74182 0.59137 0.08171 0.0
C174 C 0.78229 0.62662 0.0731 0.0
C175 C 0.76516 0.65636 0.05092 0.0
C176 C 0.70747 0.64774 0.03632 0.0
C177 C 0.66693 0.61186 0.04479 0.0
C178 C 0.60603 0.5302 0.15992 0.0
C179 C 0.66139 0.54369 0.17556 0.0
C180 C 0.66573 0.54624 0.20683 0.0
C181 C 0.6146 0.536 0.22331 0.0
C182 C 0.55922 0.52258 0.20756 0.0
C183 C 0.55514 0.51931 0.17628 0.0
C184 C 0.49865 0.47246 0.06402 0.0
C185 C 0.45558 0.44914 0.08045 0.0
H186 H 0.13528 0.22439 0.0488 0.0
H187 H 0.21774 0.12343 0.98035 0.0
H188 H 0.27861 0.19278 0.96513 0.0
H189 H 0.1459 0.34304 0.0077 0.0
H190 H 0.16291 0.37976 0.04325 0.0
H191 H 0.11179 0.3269 0.04124 0.0
H192 H 0.17878 0.29177 0.08176 0.0
H193 H 0.23112 0.34319 0.0833 0.0
H194 H 0.25842 0.28082 0.07515 0.0
H195 H 0.35097 0.26643 0.96803 0.0
H196 H 0.42 0.33721 0.98561 0.0
H197 H 0.28886 0.3919 0.05154 0.0
C198 C 0.16263 0.21785 0.02908 0.0
C199 C 0.17035 0.16901 0.01506 0.0
C200 C 0.20935 0.16089 0.99054 0.0
C201 C 0.24473 0.20014 0.98205 0.0
C202 C 0.23985 0.24739 0.99805 0.0
C203 C 0.1982 0.25665 0.02053 0.0
C204 C 0.20815 0.30802 0.0376 0.0
C205 C 0.15397 0.34142 0.03211 0.0
C206 C 0.21984 0.30574 0.07141 0.0
C207 C 0.26474 0.32475 0.02292 0.0
C208 C 0.28174 0.2899 -0.00028 0.0
C209 C 0.33688 0.29465 0.98549 0.0
C210 C 0.37594 0.33519 0.99563 0.0
C211 C 0.36021 0.37043 0.02004 0.0
C212 C 0.30265 0.36571 0.03292 0.0
H213 H 0.14859 0.89452 0.98876 0.0
H214 H 0.24562 0.94599 0.07279 0.0
H215 H 0.30306 0.86887 0.06918 0.0
H216 H 0.14233 0.76137 0.00084 0.0
H217 H 0.15415 0.73993 0.96189 0.0
H218 H 0.11567 0.79753 0.97217 0.0
H219 H 0.19395 0.8434 0.94299 0.0
H220 H 0.23271 0.78607 0.93275 0.0
H221 H 0.27417 0.83891 0.95194 0.0
H222 H 0.35714 0.79063 0.05504 0.0
H223 H 0.40475 0.71532 0.03066 0.0
H224 H 0.27196 0.71041 0.95655 0.0
C225 C 0.18118 0.88914 0.0066 0.0
C226 C 0.19252 0.92673 0.03097 0.0
C227 C 0.23616 0.91825 0.0537 0.0
C228 C 0.269 0.87429 0.05201 0.0
C229 C 0.25779 0.83853 0.02754 0.0
C230 C 0.21482 0.84511 0.00527 0.0
C231 C 0.21451 0.80144 0.98064 0.0
C232 C 0.15301 0.7734 0.97878 0.0
C233 C 0.22976 0.81849 0.95029 0.0
C234 C 0.26534 0.77049 0.99218 0.0
C235 C 0.28903 0.79241 0.01946 0.0
C236 C 0.33835 0.77252 0.0339 0.0
C237 C 0.36491 0.72937 0.01991 0.0
C238 C 0.34229 0.70632 0.99166 0.0
C239 C 0.29094 0.72701 0.97801 0.0
H240 H 0.84214 0.92941 0.01496 0.0
H241 H 0.03279 0.89102 0.01177 0.0
H242 H 1.00794 0.81017 0.02946 0.0
H243 H 0.80346 0.86352 0.08117 0.0
H244 H 0.72925 0.84603 0.06469 0.0
H245 H 0.76496 0.90338 0.0577 0.0
H246 H 0.75209 0.87585 0.00058 0.0
H247 H 0.71823 0.81782 0.00723 0.0
H248 H 0.7847 0.81828 0.98467 0.0
H249 H 0.9577 0.72812 0.03966 0.0
H250 H 0.89021 0.65701 0.04638 0.0
H251 H 0.73252 0.75094 0.04223 0.0
C252 C 0.87903 0.90487 0.01935 0.0
C253 C 0.93948 0.91661 0.01267 0.0
C254 C 0.98649 0.8832 0.01767 0.0
C255 C 0.97252 0.83701 0.02735 0.0
C256 C 0.91152 0.82544 0.03218 0.0
C257 C 0.8658 0.85911 0.02898 0.0
C258 C 0.8034 0.83697 0.03303 0.0
C259 C 0.77351 0.86407 0.06081 0.0
C260 C 0.76224 0.83726 0.00469 0.0
C261 C 0.82047 0.78478 0.03788 0.0
C262 C 0.88297 0.77876 0.03761 0.0
C263 C 0.90887 0.73287 0.04043 0.0
C264 C 0.87008 0.69262 0.04417 0.0
C265 C 0.80587 0.69822 0.04485 0.0
C266 C 0.78118 0.74508 0.04149 0.0
H267 H 0.83278 0.12812 0.97243 0.0
H268 H 0.9859 0.20034 0.02444 0.0
H269 H 0.93318 0.28106 0.02542 0.0
H270 H 0.80844 0.22087 0.92616 0.0
H271 H 0.72673 0.2128 0.92424 0.0
H272 H 0.77455 0.1614 0.93021 0.0
H273 H 0.71781 0.15006 0.97874 0.0
H274 H 0.66962 0.20143 0.97289 0.0
H275 H 0.71256 0.2018 0.00775 0.0
H276 H 0.86257 0.35563 0.01755 0.0
H277 H 0.78592 0.41379 0.00082 0.0
H278 H 0.68257 0.28925 0.95405 0.0
C279 C 0.85551 0.16058 0.9844 0.0
C280 C 0.91376 0.15754 0.99844 0.0
C281 C 0.94122 0.20145 0.01366 0.0
C282 C 0.91155 0.24748 0.01428 0.0
C283 C 0.8544 0.24892 -0.00031 0.0
C284 C 0.82695 0.20627 0.98511 0.0
C285 C 0.76719 0.21692 0.96972 0.0
C286 C 0.76941 0.20213 0.93557 0.0
C287 C 0.71364 0.19102 0.98309 0.0
C288 C 0.76502 0.27251 0.97751 0.0
C289 C 0.81523 0.29066 0.99498 0.0
C290 C 0.82307 0.3415 0.00402 0.0
C291 C 0.77913 0.37429 0.99454 0.0
C292 C 0.72831 0.35619 0.97596 0.0
C293 C 0.72113 0.30448 0.96794 0.0
H294 H 0.65325 0.69853 0.56014 0.0
H295 H 0.6938 0.63245 0.4707 0.0
H296 H 0.75203 0.70815 0.46273 0.0
H297 H 0.65289 0.83526 0.54435 0.0
H298 H 0.68861 0.85401 0.58069 0.0
H299 H 0.6358 0.80209 0.57551 0.0
H300 H 0.71818 0.74746 0.5968 0.0
H301 H 0.77178 0.79837 0.60125 0.0
H302 H 0.79083 0.74102 0.57913 0.0
H303 H 0.82596 0.78258 0.46954 0.0
H304 H 0.9013 0.84823 0.48913 0.0
H305 H 0.81231 0.86494 0.57449 0.0
C306 C 0.67073 0.7016 0.53814 0.0
C307 C 0.66693 0.66053 0.51559 0.0
C308 C 0.69374 0.66435 0.48773 0.0
C309 C 0.72768 0.70709 0.48323 0.0
C310 C 0.73402 0.74581 0.50677 0.0
C311 C 0.70487 0.74379 0.5335 0.0
C312 C 0.72549 0.78625 0.5569 0.0
C313 C 0.67255 0.8215 0.56482 0.0
C314 C 0.75321 0.76709 0.58515 0.0
C315 C 0.7735 0.81079 0.53995 0.0
C316 C 0.77714 0.78778 0.51087 0.0
C317 C 0.82228 0.80152 0.49204 0.0
C318 C 0.86498 0.83897 0.50334 0.0
C319 C 0.86302 0.86186 0.5334 0.0
C320 C 0.81541 0.84818 0.55145 0.0
H321 H 0.74569 0.41609 0.50314 0.0
H322 H 0.55363 0.37735 0.48906 0.0
H323 H 0.58042 0.28873 0.47846 0.0
H324 H 0.80072 0.32594 0.44461 0.0
H325 H 0.86882 0.31408 0.46583 0.0
H326 H 0.8338 0.37393 0.47179 0.0
H327 H 0.82739 0.36571 0.52846 0.0
H328 H 0.86158 0.30549 0.5226 0.0
H329 H 0.78881 0.31264 0.54004 0.0
H330 H 0.62912 0.20362 0.47117 0.0
H331 H 0.69513 0.13046 0.46346 0.0
H332 H 0.85515 0.22619 0.48119 0.0
C333 C 0.70909 0.3891 0.49766 0.0
C334 C 0.64744 0.40378 0.49697 0.0
C335 C 0.60117 0.36713 0.48955 0.0
C336 C 0.61597 0.31667 0.4837 0.0
C337 C 0.67722 0.30352 0.48516 0.0
C338 C 0.72303 0.33884 0.49162 0.0
C339 C 0.78534 0.31539 0.49143 0.0
C340 C 0.82446 0.3334 0.46695 0.0
C341 C 0.81766 0.32541 0.52248 0.0
C342 C 0.76766 0.26117 0.48395 0.0
C343 C 0.7051 0.255 0.48058 0.0
C344 C 0.67815 0.20816 0.47356 0.0
C345 C 0.71611 0.1668 0.46916 0.0
C346 C 0.78053 0.17236 0.47159 0.0
C347 C 0.80622 0.22034 0.47957 0.0
H348 H 0.33455 0.39278 0.46862 0.0
H349 H 0.47043 0.44135 0.53849 0.0
H350 H 0.44501 0.3677 0.56387 0.0
H351 H 0.22409 0.35516 0.51428 0.0
H352 H 0.19749 0.30283 0.48837 0.0
H353 H 0.23188 0.3555 0.47448 0.0
H354 H 0.31111 0.29846 0.44656 0.0
H355 H 0.27674 0.24539 0.46024 0.0
H356 H 0.35694 0.25869 0.46713 0.0
H357 H 0.39551 0.29195 0.58361 0.0
H358 H 0.33018 0.22281 0.59552 0.0
H359 H 0.2267 0.22634 0.51208 0.0
C360 C 0.35988 0.38786 0.48907 0.0
C361 C 0.40433 0.42318 0.5017 0.0
C362 C 0.43628 0.41491 0.5284 0.0
C363 C 0.42204 0.37312 0.5429 0.0
C364 C 0.37641 0.33984 0.53011 0.0
C365 C 0.34642 0.34674 0.50356 0.0
C366 C 0.29689 0.30783 0.49495 0.0
C367 C 0.23389 0.33178 0.49292 0.0
C368 C 0.3113 0.27569 0.46547 0.0
C369 C 0.30194 0.27837 0.52128 0.0
C370 C 0.34842 0.29696 0.54122 0.0
C371 C 0.35949 0.27707 0.56796 0.0
C372 C 0.32177 0.23793 0.57461 0.0
C373 C 0.27299 0.21907 0.55476 0.0
C374 C 0.264 0.23922 0.52751 0.0
H375 H 0.31932 0.65191 0.51121 0.0
H376 H 0.50099 0.7106 0.50159 0.0
H377 H 0.458 0.79436 0.49983 0.0
H378 H 0.24761 0.71311 0.46011 0.0
H379 H 0.17774 0.72463 0.47969 0.0
H380 H 0.22354 0.67264 0.48658 0.0
H381 H 0.2299 0.70412 0.54341 0.0
H382 H 0.18315 0.75606 0.53679 0.0
H383 H 0.25649 0.76652 0.55582 0.0
H384 H 0.3919 0.8672 0.48881 0.0
H385 H 0.31113 0.92322 0.47411 0.0
H386 H 0.17323 0.81653 0.4923 0.0
C387 C 0.35036 0.68282 0.50994 0.0
C388 C 0.41354 0.67493 0.50679 0.0
C389 C 0.45264 0.71601 0.50461 0.0
C390 C 0.42844 0.76362 0.50339 0.0
C391 C 0.3653 0.76955 0.50499 0.0
C392 C 0.32703 0.73029 0.50894 0.0
C393 C 0.26059 0.74466 0.50729 0.0
C394 C 0.22536 0.71182 0.48191 0.0
C395 C 0.23078 0.74274 0.53764 0.0
C396 C 0.26692 0.79752 0.50031 0.0
C397 C 0.32761 0.81151 0.49933 0.0
C398 C 0.34439 0.85697 0.4903 0.0
C399 C 0.29821 0.88847 0.48184 0.0
C400 C 0.23585 0.87455 0.48248 0.0
C401 C 0.22036 0.82883 0.49242 0.0
H402 H 0.05603 0.09848 0.14076 0.0
H403 H 0.95027 0.98296 0.08629 0.0
H404 H 0.91233 0.95371 0.13261 0.0
H405 H 0.10956 0.02574 0.19154 0.0
H406 H 0.10841 0.07232 0.22376 0.0
H407 H 0.11654 0.09054 0.18696 0.0
H408 H 0.02191 0.14649 0.19388 0.0
H409 H 0.01417 0.12937 0.23108 0.0
H410 H 0.9509 0.12052 0.20435 0.0
H411 H 0.89669 0.93135 0.186 0.0
H412 H 0.90372 0.91947 0.23995 0.0
H413 H 0.02626 0.04657 0.2573 0.0
C414 C 0.02339 0.06792 0.13841 0.0
C415 C 1.00591 0.04317 0.10986 0.0
C416 C 0.96359 0.00302 0.10789 0.0
C417 C 0.94215 0.98598 0.13412 0.0
C418 C 0.96326 0.00972 0.16198 0.0
C419 C 1.00248 0.05026 0.16412 0.0
C420 C 0.02388 0.06647 0.19616 0.0
C421 C 0.09371 0.06356 0.19979 0.0
C422 C 1.00135 0.11881 0.207 0.0
C423 C 0.99231 0.02781 0.21183 0.0
C424 C 0.95654 -0.00415 0.19201 0.0
C425 C 0.92422 0.95648 0.20164 0.0
C426 C 0.92859 0.94988 0.23222 0.0
C427 C 0.96606 0.98182 0.25255 0.0
C428 C 0.99791 0.02127 0.24212 0.0
H429 H 0.0552 0.09504 0.90275 0.0
H430 H 0.15814 0.96855 0.9241 0.0
H431 H 0.19798 0.95772 0.87269 0.0
H432 H 1.00482 0.04694 0.83445 0.0
H433 H 0.00987 0.10221 0.81616 0.0
H434 H 1.0008 0.1073 0.856 0.0
H435 H 0.09851 0.16209 0.86521 0.0
H436 H 0.10728 0.15828 0.82523 0.0
H437 H 0.16879 0.14033 0.8489 0.0
H438 H 0.20772 0.95036 0.81647 0.0
H439 H 0.19696 0.95314 0.76164 0.0
H440 H 0.09012 0.08634 0.77765 0.0
C441 C 0.08877 0.06682 0.89697 0.0
C442 C 0.10518 0.03342 0.91733 0.0
C443 C 0.14682 -0.00465 0.90892 0.0
C444 C 0.16919 0.98879 0.87974 0.0
C445 C 0.14988 0.02107 0.85958 0.0
C446 C 0.11179 0.06019 0.86811 0.0
C447 C 0.09278 0.08662 0.84164 0.0
C448 C 0.02296 0.08566 0.83679 0.0
C449 C 0.11839 0.14 0.84547 0.0
C450 C 0.12337 0.05477 0.81659 0.0
C451 C 0.15647 0.01733 0.82732 0.0
C452 C 0.1834 0.98034 0.80793 0.0
C453 C 0.17662 0.98191 0.77686 0.0
C454 C 0.1434 0.02029 0.76555 0.0
C455 C 0.11705 0.05731 0.78576 0.0
H456 H 0.5839 0.47468 0.61539 0.0
H457 H 0.43924 0.57422 0.59592 0.0
H458 H 0.39998 0.57124 0.64694 0.0
H459 H 0.49156 0.39922 0.66212 0.0
H460 H 0.55611 0.39154 0.6868 0.0
H461 H 0.56746 0.39741 0.64783 0.0
H462 H 0.64225 0.47119 0.66355 0.0
H463 H 0.63059 0.46609 0.70248 0.0
H464 H 0.61691 0.52411 0.68802 0.0
H465 H 0.388 0.56745 0.70267 0.0
H466 H 0.39704 0.55733 0.75622 0.0
H467 H 0.54424 0.45353 0.73736 0.0
C468 C 0.54313 0.49501 0.62167 0.0
C469 C 0.51457 0.52487 0.60194 0.0
C470 C 0.46137 0.5509 0.61075 0.0
C471 C 0.43901 0.54949 0.63966 0.0
C472 C 0.46961 0.52088 0.65899 0.0
C473 C 0.51972 0.4932 0.65005 0.0
C474 C 0.54611 0.46704 0.67523 0.0
C475 C 0.53991 0.41044 0.66753 0.0
C476 C 0.61289 0.4831 0.68275 0.0
C477 C 0.50479 0.48603 0.70028 0.0
C478 C 0.46084 0.51689 0.69051 0.0
C479 C 0.42107 0.5422 0.71034 0.0
C480 C 0.42644 0.53587 0.74084 0.0
C481 C 0.47098 0.50406 0.75141 0.0
C482 C 0.50987 0.47838 0.73047 0.0
H483 H 0.50496 0.48111 0.38273 0.0
H484 H 0.62329 0.60087 0.42389 0.0
H485 H 0.66578 0.60929 0.3741 0.0
H486 H 0.614 0.42742 0.32645 0.0
H487 H 0.55364 0.41167 0.29869 0.0
H488 H 0.53886 0.41208 0.33795 0.0
H489 H 0.45063 0.47335 0.33278 0.0
H490 H 0.46558 0.47373 0.2937 0.0
H491 H 0.46586 0.53124 0.31845 0.0
H492 H 0.68371 0.61132 0.31827 0.0
H493 H 0.68158 0.60315 0.26292 0.0
H494 H 0.55554 0.47806 0.25979 0.0
C495 C 0.54074 0.50848 0.38137 0.0
C496 C 0.56093 0.54046 0.407 0.0
C497 C 0.60775 0.57577 0.40447 0.0
C498 C 0.63184 0.58086 0.3763 0.0
C499 C 0.60936 0.54961 0.35121 0.0
C500 C 0.56565 0.51346 0.35371 0.0
C501 C 0.54679 0.4859 0.32348 0.0
C502 C 0.5644 0.43102 0.32154 0.0
C503 C 0.47817 0.49142 0.31672 0.0
C504 C 0.58492 0.51334 0.30327 0.0
C505 C 0.62097 0.54982 0.31956 0.0
C506 C 0.65669 0.58211 0.30538 0.0
C507 C 0.65534 0.577 0.27385 0.0
C508 C 0.61856 0.53978 0.25674 0.0
C509 C 0.58375 0.50724 0.27194 0.0
loop_
_geom_bond_atom_site_label_1
_geom_bond_atom_site_label_2
_geom_bond_distance
_geom_bond_site_symmetry_2
_ccdc_geom_bond_type
O0 Mn1 2.163 . S
O0 C14 1.244 1_455 S
Mn1 O0 2.163 . S
Mn1 O4 2.160 1_544 S
Mn1 O5 2.221 . S
Mn1 O7 2.163 . S
Mn1 O9 2.160 1_554 S
Mn1 O19 2.221 1_444 S
O2 Mn3 2.087 . S
O2 C14 1.256 1_556 S
Mn3 O2 2.087 . S
Mn3 O10 2.089 . S
Mn3 O19 2.290 1_545 S
Mn3 O20 2.239 1_546 S
O4 Mn1 2.160 1_566 S
O4 C15 1.239 1_556 S
O5 Mn1 2.221 . S
O5 Mn6 2.290 . S
O5 C16 1.278 . S
Mn6 O5 2.290 . S
Mn6 O8 2.089 1_545 S
Mn6 O11 2.251 . S
Mn6 O12 2.087 . S
O7 Mn1 2.163 . S
O7 C17 1.244 . S
O8 Mn6 2.089 1_565 S
O8 C15 1.256 . S
O9 Mn1 2.160 1_556 S
O9 C18 1.239 . S
O10 Mn3 2.089 . S
O10 C18 1.256 1_655 S
O11 Mn6 2.251 . S
O11 C16 1.241 . S
O12 Mn6 2.087 . S
O12 C17 1.256 . S
C13 O19 1.278 1_554 S
C13 O20 1.244 . S
C14 O0 1.244 1_655 S
C14 O2 1.256 1_554 S
C15 O4 1.239 1_554 S
C15 O8 1.256 . S
C16 O5 1.278 . S
C16 O11 1.241 . S
C17 O7 1.244 . S
C17 O12 1.256 . S
C18 O9 1.239 . S
C18 O10 1.256 1_455 S
O19 Mn1 2.221 1_666 S
O19 Mn3 2.290 1_565 S
O19 C13 1.278 1_556 S
O20 Mn3 2.239 1_564 S
O20 C13 1.244 . S
O21 Mn22 2.163 . S
O21 C35 1.244 . S
Mn22 O21 2.163 . S
Mn22 O25 2.160 . S
Mn22 O26 2.221 . S
Mn22 O28 2.163 . S
Mn22 O30 2.160 . S
Mn22 O40 2.221 . S
O23 Mn24 2.087 . S
O23 C35 1.256 . S
Mn24 O23 2.087 . S
Mn24 O31 2.089 . S
Mn24 O40 2.290 . S
Mn24 O41 2.251 . S
O25 Mn22 2.160 . S
O25 C36 1.239 . S
O26 Mn22 2.221 . S
O26 Mn27 2.290 . S
O26 C37 1.278 . S
Mn27 O26 2.290 . S
Mn27 O29 2.089 . S
Mn27 O32 2.251 . S
Mn27 O33 2.087 . S
O28 Mn22 2.163 . S
O28 C38 1.244 . S
O29 Mn27 2.089 . S
O29 C36 1.256 . S
O30 Mn22 2.160 . S
O30 C39 1.239 . S
O31 Mn24 2.089 . S
O31 C39 1.256 . S
O32 Mn27 2.251 . S
O32 C37 1.241 . S
O33 Mn27 2.087 . S
O33 C38 1.256 . S
C34 O40 1.278 . S
C34 O41 1.241 . S
C35 O21 1.244 . S
C35 O23 1.256 . S
C36 O25 1.239 . S
C36 O29 1.256 . S
C37 O26 1.278 . S
C37 O32 1.241 . S
C38 O28 1.244 . S
C38 O33 1.256 . S
C39 O30 1.239 . S
C39 O31 1.256 . S
O40 Mn22 2.221 . S
O40 Mn24 2.290 . S
O40 C34 1.278 . S
O41 Mn24 2.251 . S
O41 C34 1.241 . S
C42 C43 1.384 . S
C42 H55 0.947 . S
C42 C77 1.382 . S
C43 C42 1.384 . S
C43 C44 1.378 . S
C44 C43 1.378 . S
C44 C45 1.378 . S
C44 H56 0.952 . S
C45 C44 1.378 . S
C45 H57 0.950 1_655 S
C45 C76 1.383 . S
H46 C65 0.947 . S
H47 C66 0.946 . S
H48 C68 0.953 . S
H49 C69 0.945 . S
H50 C71 0.952 . S
H51 C72 0.949 . S
H52 C74 0.950 . S
H53 C75 0.948 . S
H54 C77 0.951 . S
H55 C42 0.947 . S
H56 C44 0.952 . S
H57 C45 0.950 1_455 S
N58 C61 1.382 1_545 S
N58 C63 1.363 . S
N59 C61 1.371 . S
N59 C62 1.372 1_565 S
N60 C62 1.361 . S
N60 C63 1.377 . S
C61 N58 1.382 1_565 S
C61 N59 1.371 . S
C61 C64 1.480 . S
C62 N59 1.372 1_545 S
C62 N60 1.361 . S
C62 C70 1.457 . S
C63 N58 1.363 . S
C63 N60 1.377 . S
C63 C76 1.479 1_455 S
C64 C61 1.480 . S
C64 C65 1.383 . S
C64 C69 1.385 . S
C65 H46 0.947 . S
C65 C64 1.383 . S
C65 C66 1.388 . S
C66 H47 0.946 . S
C66 C65 1.388 . S
C66 C67 1.384 . S
C67 C66 1.384 . S
C67 C68 1.377 . S
C68 H48 0.953 . S
C68 C67 1.377 . S
C68 C69 1.369 . S
C69 H49 0.945 . S
C69 C64 1.385 . S
C69 C68 1.369 . S
C70 C62 1.457 . S
C70 C71 1.372 1_545 S
C70 C75 1.364 . S
C71 H50 0.952 . S
C71 C70 1.372 1_565 S
C71 C72 1.389 . S
C72 H51 0.949 . S
C72 C71 1.389 . S
C72 C73 1.387 . S
C73 C72 1.387 . S
C73 C74 1.372 1_565 S
C74 H52 0.950 . S
C74 C73 1.372 1_545 S
C74 C75 1.379 . S
C75 H53 0.948 . S
C75 C70 1.364 . S
C75 C74 1.379 . S
C76 C45 1.383 . S
C76 C63 1.479 1_655 S
C76 C77 1.398 . S
C77 C42 1.382 . S
C77 H54 0.951 . S
C77 C76 1.398 . S
C78 C79 1.384 . S
C78 H91 0.947 . S
C78 C113 1.382 . S
C79 C78 1.384 . S
C79 C80 1.378 . S
C80 C79 1.378 . S
C80 C81 1.378 . S
C80 H92 0.952 . S
C81 C80 1.378 . S
C81 H93 0.950 1_565 S
C81 C112 1.383 1_565 S
H82 C101 0.947 . S
H83 C102 0.946 . S
H84 C104 0.953 . S
H85 C105 0.945 . S
H86 C107 0.952 . S
H87 C108 0.949 . S
H88 C110 0.950 . S
H89 C111 0.948 . S
H90 C113 0.951 . S
H91 C78 0.947 . S
H92 C80 0.952 . S
H93 C81 0.950 1_545 S
N94 C97 1.382 . S
N94 C99 1.363 1_455 S
N95 C97 1.371 . S
N95 C98 1.372 . S
N96 C98 1.361 1_655 S
N96 C99 1.377 . S
C97 N94 1.382 . S
C97 N95 1.371 . S
C97 C100 1.480 . S
C98 N95 1.372 . S
C98 N96 1.361 1_455 S
C98 C106 1.457 . S
C99 N94 1.363 1_655 S
C99 N96 1.377 . S
C99 C112 1.479 . S
C100 C97 1.480 . S
C100 C101 1.383 . S
C100 C105 1.385 . S
C101 H82 0.947 . S
C101 C100 1.383 . S
C101 C102 1.388 . S
C102 H83 0.946 . S
C102 C101 1.388 . S
C102 C103 1.384 . S
C103 C102 1.384 . S
C103 C104 1.377 . S
C104 H84 0.953 . S
C104 C103 1.377 . S
C104 C105 1.369 . S
C105 H85 0.945 . S
C105 C100 1.385 . S
C105 C104 1.369 . S
C106 C98 1.457 . S
C106 C107 1.372 . S
C106 C111 1.364 1_455 S
C107 H86 0.952 . S
C107 C106 1.372 . S
C107 C108 1.389 . S
C108 H87 0.949 . S
C108 C107 1.389 . S
C108 C109 1.387 . S
C109 C108 1.387 . S
C109 C110 1.372 1_455 S
C110 H88 0.950 . S
C110 C109 1.372 1_655 S
C110 C111 1.379 . S
C111 H89 0.948 . S
C111 C106 1.364 1_655 S
C111 C110 1.379 . S
C112 C81 1.383 1_545 S
C112 C99 1.479 . S
C112 C113 1.398 1_545 S
C113 C78 1.382 . S
C113 H90 0.951 . S
C113 C112 1.398 1_565 S
C114 C115 1.384 . S
C114 H127 0.947 . S
C114 C149 1.382 . S
C115 C114 1.384 . S
C115 C116 1.378 . S
C116 C115 1.378 . S
C116 C117 1.378 . S
C116 H128 0.952 1_556 S
C117 C116 1.378 . S
C117 H129 0.950 . S
C117 C148 1.383 . S
H118 C137 0.947 . S
H119 C138 0.946 1_554 S
H120 C140 0.953 . S
H121 C141 0.945 . S
H122 C143 0.952 . S
H123 C144 0.949 . S
H124 C146 0.950 . S
H125 C147 0.948 . S
H126 C149 0.951 . S
H127 C114 0.947 . S
H128 C116 0.952 1_554 S
H129 C117 0.950 . S
N130 C133 1.382 . S
N130 C135 1.363 . S
N131 C133 1.371 . S
N131 C134 1.372 . S
N132 C134 1.361 . S
N132 C135 1.377 . S
C133 N130 1.382 . S
C133 N131 1.371 . S
C133 C136 1.480 . S
C134 N131 1.372 . S
C134 N132 1.361 . S
C134 C142 1.457 . S
C135 N130 1.363 . S
C135 N132 1.377 . S
C135 C148 1.479 . S
C136 C133 1.480 . S
C136 C137 1.383 . S
C136 C141 1.385 . S
C137 H118 0.947 . S
C137 C136 1.383 . S
C137 C138 1.388 . S
C138 H119 0.946 1_556 S
C138 C137 1.388 . S
C138 C139 1.384 . S
C139 C138 1.384 . S
C139 C140 1.377 . S
C140 H120 0.953 . S
C140 C139 1.377 . S
C140 C141 1.369 . S
C141 H121 0.945 . S
C141 C136 1.385 . S
C141 C140 1.369 . S
C142 C134 1.457 . S
C142 C143 1.372 . S
C142 C147 1.364 . S
C143 H122 0.952 . S
C143 C142 1.372 . S
C143 C144 1.389 . S
C144 H123 0.949 . S
C144 C143 1.389 . S
C144 C145 1.387 . S
C145 C144 1.387 . S
C145 C146 1.372 . S
C146 H124 0.950 . S
C146 C145 1.372 . S
C146 C147 1.379 . S
C147 H125 0.948 . S
C147 C142 1.364 . S
C147 C146 1.379 . S
C148 C117 1.383 . S
C148 C135 1.479 . S
C148 C149 1.398 . S
C149 C114 1.382 . S
C149 H126 0.951 . S
C149 C148 1.398 . S
C150 C151 1.384 . S
C150 H163 0.947 . S
C150 C185 1.382 . S
C151 C150 1.384 . S
C151 C152 1.378 . S
C152 C151 1.378 . S
C152 C153 1.378 . S
C152 H164 0.921 1_554 S
C153 C152 1.378 . S
C153 H165 0.950 . S
C153 C184 1.383 . S
H154 C173 0.947 . S
H155 C174 0.946 . S
H156 C176 0.953 . S
H157 C177 0.945 . S
H158 C179 0.952 . S
H159 C180 0.949 . S
H160 C182 0.950 . S
H161 C183 0.948 . S
H162 C185 0.951 . S
H163 C150 0.947 . S
H164 C152 0.921 1_556 S
H165 C153 0.950 . S
N166 C169 1.382 . S
N166 C171 1.363 . S
N167 C169 1.371 . S
N167 C170 1.372 . S
N168 C170 1.361 . S
N168 C171 1.377 . S
C169 N166 1.382 . S
C169 N167 1.371 . S
C169 C172 1.480 . S
C170 N167 1.372 . S
C170 N168 1.361 . S
C170 C178 1.457 . S
C171 N166 1.363 . S
C171 N168 1.377 . S
C171 C184 1.479 . S
C172 C169 1.480 . S
C172 C173 1.383 . S
C172 C177 1.385 . S
C173 H154 0.947 . S
C173 C172 1.383 . S
C173 C174 1.388 . S
C174 H155 0.946 . S
C174 C173 1.388 . S
C174 C175 1.384 . S
C175 C174 1.384 . S
C175 C176 1.377 . S
C176 H156 0.953 . S
C176 C175 1.377 . S
C176 C177 1.369 . S
C177 H157 0.945 . S
C177 C172 1.385 . S
C177 C176 1.369 . S
C178 C170 1.457 . S
C178 C179 1.372 . S
C178 C183 1.364 . S
C179 H158 0.952 . S
C179 C178 1.372 . S
C179 C180 1.389 . S
C180 H159 0.949 . S
C180 C179 1.389 . S
C180 C181 1.387 . S
C181 C180 1.387 . S
C181 C182 1.372 . S
C182 H160 0.950 . S
C182 C181 1.372 . S
C182 C183 1.379 . S
C183 H161 0.948 . S
C183 C178 1.364 . S
C183 C182 1.379 . S
C184 C153 1.383 . S
C184 C171 1.479 . S
C184 C185 1.398 . S
C185 C150 1.382 . S
C185 H162 0.951 . S
C185 C184 1.398 . S
H186 C198 0.930 . S
H187 C200 0.930 . S
H188 C201 0.930 . S
H189 C205 0.959 . S
H190 C205 0.959 . S
H191 C205 0.961 . S
H192 C206 0.960 . S
H193 C206 0.961 . S
H194 C206 0.959 . S
H195 C209 0.929 . S
H196 C210 0.931 . S
H197 C212 0.930 . S
C198 H186 0.930 . S
C198 C199 1.399 . S
C198 C203 1.399 . S
C199 C198 1.399 . S
C199 C200 1.376 1_554 S
C200 H187 0.930 . S
C200 C199 1.376 1_556 S
C200 C201 1.388 . S
C201 H188 0.930 . S
C201 C200 1.388 . S
C201 C202 1.390 1_556 S
C202 C201 1.390 1_554 S
C202 C203 1.394 . S
C202 C208 1.465 . S
C203 C198 1.399 . S
C203 C202 1.394 . S
C203 C204 1.516 . S
C204 C203 1.516 . S
C204 C205 1.502 . S
C204 C206 1.561 . S
C204 C207 1.526 . S
C205 H189 0.959 . S
C205 H190 0.959 . S
C205 H191 0.961 . S
C205 C204 1.502 . S
C206 H192 0.960 . S
C206 H193 0.961 . S
C206 H194 0.959 . S
C206 C204 1.561 . S
C207 C204 1.526 . S
C207 C208 1.396 . S
C207 C212 1.390 . S
C208 C202 1.465 . S
C208 C207 1.396 . S
C208 C209 1.399 1_554 S
C209 H195 0.929 . S
C209 C208 1.399 1_556 S
C209 C210 1.385 . S
C210 H196 0.931 . S
C210 C209 1.385 . S
C210 C211 1.389 1_556 S
C211 C210 1.389 1_554 S
C211 C212 1.387 . S
C212 H197 0.930 . S
C212 C207 1.390 . S
C212 C211 1.387 . S
H213 C225 0.930 . S
H214 C227 0.930 . S
H215 C228 0.930 . S
H216 C232 0.959 . S
H217 C232 0.959 . S
H218 C232 0.961 . S
H219 C233 0.960 . S
H220 C233 0.961 . S
H221 C233 0.959 . S
H222 C236 0.929 . S
H223 C237 0.931 . S
H224 C239 0.930 . S
C225 H213 0.930 . S
C225 C226 1.399 1_556 S
C225 C230 1.399 . S
C226 C225 1.399 1_554 S
C226 C227 1.376 . S
C227 H214 0.930 . S
C227 C226 1.376 . S
C227 C228 1.388 . S
C228 H215 0.930 . S
C228 C227 1.388 . S
C228 C229 1.390 . S
C229 C228 1.390 . S
C229 C230 1.394 1_554 S
C229 C235 1.465 . S
C230 C225 1.399 . S
C230 C229 1.394 1_556 S
C230 C231 1.516 . S
C231 C230 1.516 . S
C231 C232 1.502 . S
C231 C233 1.561 . S
C231 C234 1.526 . S
C232 H216 0.959 . S
C232 H217 0.959 . S
C232 H218 0.961 . S
C232 C231 1.502 . S
C233 H219 0.960 . S
C233 H220 0.961 . S
C233 H221 0.959 . S
C233 C231 1.561 . S
C234 C231 1.526 . S
C234 C235 1.396 1_556 S
C234 C239 1.390 . S
C235 C229 1.465 . S
C235 C234 1.396 1_554 S
C235 C236 1.399 . S
C236 H222 0.929 . S
C236 C235 1.399 . S
C236 C237 1.385 . S
C237 H223 0.931 . S
C237 C236 1.385 . S
C237 C238 1.389 1_554 S
C238 C237 1.389 1_556 S
C238 C239 1.387 . S
C239 H224 0.930 . S
C239 C234 1.390 . S
C239 C238 1.387 . S
H240 C252 0.930 . S
H241 C254 0.930 . S
H242 C255 0.930 . S
H243 C259 0.959 . S
H244 C259 0.959 . S
H245 C259 0.961 . S
H246 C260 0.960 . S
H247 C260 0.961 . S
H248 C260 0.959 . S
H249 C263 0.929 . S
H250 C264 0.931 1_556 S
H251 C266 0.930 . S
C252 H240 0.930 . S
C252 C253 1.399 . S
C252 C257 1.399 . S
C253 C252 1.399 . S
C253 C254 1.376 1_554 S
C254 H241 0.930 . S
C254 C253 1.376 1_556 S
C254 C255 1.388 . S
C255 H242 0.930 . S
C255 C254 1.388 . S
C255 C256 1.390 1_556 S
C256 C255 1.390 1_554 S
C256 C257 1.394 . S
C256 C262 1.465 . S
C257 C252 1.399 . S
C257 C256 1.394 . S
C257 C258 1.516 . S
C258 C257 1.516 . S
C258 C259 1.502 . S
C258 C260 1.561 . S
C258 C261 1.526 . S
C259 H243 0.959 . S
C259 H244 0.959 . S
C259 H245 0.961 . S
C259 C258 1.502 . S
C260 H246 0.960 . S
C260 H247 0.961 . S
C260 H248 0.959 . S
C260 C258 1.561 . S
C261 C258 1.526 . S
C261 C262 1.396 . S
C261 C266 1.390 . S
C262 C256 1.465 . S
C262 C261 1.396 . S
C262 C263 1.399 1_554 S
C263 H249 0.929 . S
C263 C262 1.399 1_556 S
C263 C264 1.385 1_556 S
C264 H250 0.931 1_554 S
C264 C263 1.385 1_554 S
C264 C265 1.389 . S
C265 C264 1.389 . S
C265 C266 1.387 . S
C266 H251 0.930 . S
C266 C261 1.390 . S
C266 C265 1.387 . S
H267 C279 0.930 . S
H268 C281 0.930 . S
H269 C282 0.930 . S
H270 C286 0.959 . S
H271 C286 0.959 . S
H272 C286 0.961 . S
H273 C287 0.960 . S
H274 C287 0.961 . S
H275 C287 0.959 . S
H276 C290 0.929 . S
H277 C291 0.931 . S
H278 C293 0.930 . S
C279 H267 0.930 . S
C279 C280 1.399 1_556 S
C279 C284 1.399 . S
C280 C279 1.399 1_554 S
C280 C281 1.376 . S
C281 H268 0.930 . S
C281 C280 1.376 . S
C281 C282 1.388 . S
C282 H269 0.930 . S
C282 C281 1.388 . S
C282 C283 1.390 . S
C283 C282 1.390 . S
C283 C284 1.394 1_554 S
C283 C289 1.465 . S
C284 C279 1.399 . S
C284 C283 1.394 1_556 S
C284 C285 1.516 . S
C285 C284 1.516 . S
C285 C286 1.502 . S
C285 C287 1.561 . S
C285 C288 1.526 . S
C286 H270 0.959 . S
C286 H271 0.959 . S
C286 H272 0.961 . S
C286 C285 1.502 . S
C287 H273 0.960 . S
C287 H274 0.961 . S
C287 H275 0.959 . S
C287 C285 1.561 . S
C288 C285 1.526 . S
C288 C289 1.396 1_556 S
C288 C293 1.390 . S
C289 C283 1.465 . S
C289 C288 1.396 1_554 S
C289 C290 1.399 . S
C290 H276 0.929 . S
C290 C289 1.399 . S
C290 C291 1.385 . S
C291 H277 0.931 . S
C291 C290 1.385 . S
C291 C292 1.389 1_554 S
C292 C291 1.389 1_556 S
C292 C293 1.387 . S
C293 H278 0.930 . S
C293 C288 1.390 . S
C293 C292 1.387 . S
H294 C306 0.930 . S
H295 C308 0.930 . S
H296 C309 0.930 . S
H297 C313 0.959 . S
H298 C313 0.959 . S
H299 C313 0.961 . S
H300 C314 0.960 . S
H301 C314 0.961 . S
H302 C314 0.959 . S
H303 C317 0.929 . S
H304 C318 0.931 . S
H305 C320 0.930 . S
C306 H294 0.930 . S
C306 C307 1.399 . S
C306 C311 1.399 . S
C307 C306 1.399 . S
C307 C308 1.376 . S
C308 H295 0.930 . S
C308 C307 1.376 . S
C308 C309 1.388 . S
C309 H296 0.930 . S
C309 C308 1.388 . S
C309 C310 1.390 . S
C310 C309 1.390 . S
C310 C311 1.394 . S
C310 C316 1.465 . S
C311 C306 1.399 . S
C311 C310 1.394 . S
C311 C312 1.516 . S
C312 C311 1.516 . S
C312 C313 1.502 . S
C312 C314 1.561 . S
C312 C315 1.526 . S
C313 H297 0.959 . S
C313 H298 0.959 . S
C313 H299 0.961 . S
C313 C312 1.502 . S
C314 H300 0.960 . S
C314 H301 0.961 . S
C314 H302 0.959 . S
C314 C312 1.561 . S
C315 C312 1.526 . S
C315 C316 1.396 . S
C315 C320 1.390 . S
C316 C310 1.465 . S
C316 C315 1.396 . S
C316 C317 1.399 . S
C317 H303 0.929 . S
C317 C316 1.399 . S
C317 C318 1.385 . S
C318 H304 0.931 . S
C318 C317 1.385 . S
C318 C319 1.389 . S
C319 C318 1.389 . S
C319 C320 1.387 . S
C320 H305 0.930 . S
C320 C315 1.390 . S
C320 C319 1.387 . S
H321 C333 0.930 . S
H322 C335 0.930 . S
H323 C336 0.930 . S
H324 C340 0.959 . S
H325 C340 0.959 . S
H326 C340 0.961 . S
H327 C341 0.960 . S
H328 C341 0.961 . S
H329 C341 0.959 . S
H330 C344 0.929 . S
H331 C345 0.931 . S
H332 C347 0.930 . S
C333 H321 0.930 . S
C333 C334 1.399 . S
C333 C338 1.399 . S
C334 C333 1.399 . S
C334 C335 1.376 . S
C335 H322 0.930 . S
C335 C334 1.376 . S
C335 C336 1.388 . S
C336 H323 0.930 . S
C336 C335 1.388 . S
C336 C337 1.390 . S
C337 C336 1.390 . S
C337 C338 1.394 . S
C337 C343 1.465 . S
C338 C333 1.399 . S
C338 C337 1.394 . S
C338 C339 1.516 . S
C339 C338 1.516 . S
C339 C340 1.502 . S
C339 C341 1.561 . S
C339 C342 1.526 . S
C340 H324 0.959 . S
C340 H325 0.959 . S
C340 H326 0.961 . S
C340 C339 1.502 . S
C341 H327 0.960 . S
C341 H328 0.961 . S
C341 H329 0.959 . S
C341 C339 1.561 . S
C342 C339 1.526 . S
C342 C343 1.396 . S
C342 C347 1.390 . S
C343 C337 1.465 . S
C343 C342 1.396 . S
C343 C344 1.399 . S
C344 H330 0.929 . S
C344 C343 1.399 . S
C344 C345 1.385 . S
C345 H331 0.931 . S
C345 C344 1.385 . S
C345 C346 1.389 . S
C346 C345 1.389 . S
C346 C347 1.387 . S
C347 H332 0.930 . S
C347 C342 1.390 . S
C347 C346 1.387 . S
H348 C360 0.930 . S
H349 C362 0.930 . S
H350 C363 0.930 . S
H351 C367 0.959 . S
H352 C367 0.959 . S
H353 C367 0.961 . S
H354 C368 0.960 . S
H355 C368 0.961 . S
H356 C368 0.959 . S
H357 C371 0.929 . S
H358 C372 0.931 . S
H359 C374 0.930 . S
C360 H348 0.930 . S
C360 C361 1.399 . S
C360 C365 1.399 . S
C361 C360 1.399 . S
C361 C362 1.376 . S
C362 H349 0.930 . S
C362 C361 1.376 . S
C362 C363 1.388 . S
C363 H350 0.930 . S
C363 C362 1.388 . S
C363 C364 1.390 . S
C364 C363 1.390 . S
C364 C365 1.394 . S
C364 C370 1.465 . S
C365 C360 1.399 . S
C365 C364 1.394 . S
C365 C366 1.516 . S
C366 C365 1.516 . S
C366 C367 1.502 . S
C366 C368 1.561 . S
C366 C369 1.526 . S
C367 H351 0.959 . S
C367 H352 0.959 . S
C367 H353 0.961 . S
C367 C366 1.502 . S
C368 H354 0.960 . S
C368 H355 0.961 . S
C368 H356 0.959 . S
C368 C366 1.561 . S
C369 C366 1.526 . S
C369 C370 1.396 . S
C369 C374 1.390 . S
C370 C364 1.465 . S
C370 C369 1.396 . S
C370 C371 1.399 . S
C371 H357 0.929 . S
C371 C370 1.399 . S
C371 C372 1.385 . S
C372 H358 0.931 . S
C372 C371 1.385 . S
C372 C373 1.389 . S
C373 C372 1.389 . S
C373 C374 1.387 . S
C374 H359 0.930 . S
C374 C369 1.390 . S
C374 C373 1.387 . S
H375 C387 0.930 . S
H376 C389 0.930 . S
H377 C390 0.930 . S
H378 C394 0.959 . S
H379 C394 0.959 . S
H380 C394 0.961 . S
H381 C395 0.960 . S
H382 C395 0.961 . S
H383 C395 0.959 . S
H384 C398 0.929 . S
H385 C399 0.931 . S
H386 C401 0.930 . S
C387 H375 0.930 . S
C387 C388 1.399 . S
C387 C392 1.399 . S
C388 C387 1.399 . S
C388 C389 1.376 . S
C389 H376 0.930 . S
C389 C388 1.376 . S
C389 C390 1.388 . S
C390 H377 0.930 . S
C390 C389 1.388 . S
C390 C391 1.390 . S
C391 C390 1.390 . S
C391 C392 1.394 . S
C391 C397 1.465 . S
C392 C387 1.399 . S
C392 C391 1.394 . S
C392 C393 1.516 . S
C393 C392 1.516 . S
C393 C394 1.502 . S
C393 C395 1.561 . S
C393 C396 1.526 . S
C394 H378 0.959 . S
C394 H379 0.959 . S
C394 H380 0.961 . S
C394 C393 1.502 . S
C395 H381 0.960 . S
C395 H382 0.961 . S
C395 H383 0.959 . S
C395 C393 1.561 . S
C396 C393 1.526 . S
C396 C397 1.396 . S
C396 C401 1.390 . S
C397 C391 1.465 . S
C397 C396 1.396 . S
C397 C398 1.399 . S
C398 H384 0.929 . S
C398 C397 1.399 . S
C398 C399 1.385 . S
C399 H385 0.931 . S
C399 C398 1.385 . S
C399 C400 1.389 . S
C400 C399 1.389 . S
C400 C401 1.387 . S
C401 H386 0.930 . S
C401 C396 1.390 . S
C401 C400 1.387 . S
H402 C414 0.935 1_655 S
H403 C416 0.930 . S
H404 C417 0.930 . S
H405 C421 0.959 . S
H406 C421 0.959 1_565 S
H407 C421 0.961 1_565 S
H408 C422 0.960 . S
H409 C422 0.961 . S
H410 C422 0.959 1_455 S
H411 C425 0.929 . S
H412 C426 0.931 . S
H413 C428 0.930 1_655 S
C414 H402 0.935 1_455 S
C414 C415 1.391 1_565 S
C414 C419 1.403 . S
C415 C414 1.391 1_545 S
C415 C416 1.376 . S
C416 H403 0.930 . S
C416 C415 1.376 . S
C416 C417 1.388 . S
C417 H404 0.930 . S
C417 C416 1.388 . S
C417 C418 1.390 . S
C418 C417 1.390 . S
C418 C419 1.394 1_545 S
C418 C424 1.465 . S
C419 C414 1.403 . S
C419 C418 1.394 1_565 S
C419 C420 1.516 1_455 S
C420 C419 1.516 1_655 S
C420 C421 1.502 1_565 S
C420 C422 1.561 . S
C420 C423 1.526 1_655 S
C421 H405 0.959 . S
C421 H406 0.959 1_545 S
C421 H407 0.961 1_545 S
C421 C420 1.502 1_545 S
C422 H408 0.960 . S
C422 H409 0.961 . S
C422 H410 0.959 1_655 S
C422 C420 1.561 . S
C423 C420 1.526 1_455 S
C423 C424 1.396 1_565 S
C423 C428 1.390 . S
C424 C418 1.465 . S
C424 C423 1.396 1_545 S
C424 C425 1.399 . S
C425 H411 0.929 . S
C425 C424 1.399 . S
C425 C426 1.385 . S
C426 H412 0.931 . S
C426 C425 1.385 . S
C426 C427 1.389 1_545 S
C427 C426 1.389 1_565 S
C427 C428 1.387 . S
C428 H413 0.930 1_455 S
C428 C423 1.390 . S
C428 C427 1.387 . S
H429 C441 0.930 . S
H430 C443 0.930 . S
H431 C444 0.930 . S
H432 C448 0.959 . S
H433 C448 0.959 . S
H434 C448 0.961 . S
H435 C449 0.960 . S
H436 C449 0.961 . S
H437 C449 0.959 . S
H438 C452 0.929 1_565 S
H439 C453 0.931 . S
H440 C455 0.930 . S
C441 H429 0.930 . S
C441 C442 1.399 . S
C441 C446 1.399 . S
C442 C441 1.399 . S
C442 C443 1.376 1_545 S
C443 H430 0.930 . S
C443 C442 1.376 1_565 S
C443 C444 1.388 . S
C444 H431 0.930 . S
C444 C443 1.388 . S
C444 C445 1.390 1_565 S
C445 C444 1.390 1_545 S
C445 C446 1.394 . S
C445 C451 1.465 . S
C446 C441 1.399 . S
C446 C445 1.394 . S
C446 C447 1.516 . S
C447 C446 1.516 . S
C447 C448 1.502 1_455 S
C447 C449 1.561 . S
C447 C450 1.526 . S
C448 H432 0.959 . S
C448 H433 0.959 . S
C448 H434 0.961 . S
C448 C447 1.502 1_655 S
C449 H435 0.960 . S
C449 H436 0.961 . S
C449 H437 0.959 . S
C449 C447 1.561 . S
C450 C447 1.526 . S
C450 C451 1.396 . S
C450 C455 1.390 . S
C451 C445 1.465 . S
C451 C450 1.396 . S
C451 C452 1.399 . S
C452 H438 0.929 1_545 S
C452 C451 1.399 . S
C452 C453 1.385 . S
C453 H439 0.931 . S
C453 C452 1.385 . S
C453 C454 1.389 . S
C454 C453 1.389 . S
C454 C455 1.387 . S
C455 H440 0.930 . S
C455 C450 1.390 . S
C455 C454 1.387 . S
H456 C468 0.930 . S
H457 C470 0.930 . S
H458 C471 0.930 . S
H459 C475 0.959 . S
H460 C475 0.959 . S
H461 C475 0.961 . S
H462 C476 0.960 . S
H463 C476 0.961 . S
H464 C476 0.959 . S
H465 C479 0.929 . S
H466 C480 0.931 . S
H467 C482 0.930 . S
C468 H456 0.930 . S
C468 C469 1.399 . S
C468 C473 1.399 . S
C469 C468 1.399 . S
C469 C470 1.376 . S
C470 H457 0.930 . S
C470 C469 1.376 . S
C470 C471 1.388 . S
C471 H458 0.930 . S
C471 C470 1.388 . S
C471 C472 1.390 . S
C472 C471 1.390 . S
C472 C473 1.394 . S
C472 C478 1.465 . S
C473 C468 1.399 . S
C473 C472 1.394 . S
C473 C474 1.516 . S
C474 C473 1.516 . S
C474 C475 1.502 . S
C474 C476 1.561 . S
C474 C477 1.526 . S
C475 H459 0.959 . S
C475 H460 0.959 . S
C475 H461 0.961 . S
C475 C474 1.502 . S
C476 H462 0.960 . S
C476 H463 0.961 . S
C476 H464 0.959 . S
C476 C474 1.561 . S
C477 C474 1.526 . S
C477 C478 1.396 . S
C477 C482 1.390 . S
C478 C472 1.465 . S
C478 C477 1.396 . S
C478 C479 1.399 . S
C479 H465 0.929 . S
C479 C478 1.399 . S
C479 C480 1.385 . S
C480 H466 0.931 . S
C480 C479 1.385 . S
C480 C481 1.389 . S
C481 C480 1.389 . S
C481 C482 1.387 . S
C482 H467 0.930 . S
C482 C477 1.390 . S
C482 C481 1.387 . S
H483 C495 0.930 . S
H484 C497 0.930 . S
H485 C498 0.930 . S
H486 C502 0.959 . S
H487 C502 0.959 . S
H488 C502 0.961 . S
H489 C503 0.960 . S
H490 C503 0.961 . S
H491 C503 0.959 . S
H492 C506 0.929 . S
H493 C507 0.931 . S
H494 C509 0.930 . S
C495 H483 0.930 . S
C495 C496 1.399 . S
C495 C500 1.399 . S
C496 C495 1.399 . S
C496 C497 1.376 . S
C497 H484 0.930 . S
C497 C496 1.376 . S
C497 C498 1.388 . S
C498 H485 0.930 . S
C498 C497 1.388 . S
C498 C499 1.390 . S
C499 C498 1.390 . S
C499 C500 1.394 . S
C499 C505 1.465 . S
C500 C495 1.399 . S
C500 C499 1.394 . S
C500 C501 1.516 . S
C501 C500 1.516 . S
C501 C502 1.502 . S
C501 C503 1.561 . S
C501 C504 1.526 . S
C502 H486 0.959 . S
C502 H487 0.959 . S
C502 H488 0.961 . S
C502 C501 1.502 . S
C503 H489 0.960 . S
C503 H490 0.961 . S
C503 H491 0.959 . S
C503 C501 1.561 . S
C504 C501 1.526 . S
C504 C505 1.396 . S
C504 C509 1.390 . S
C505 C499 1.465 . S
C505 C504 1.396 . S
C505 C506 1.399 . S
C506 H492 0.929 . S
C506 C505 1.399 . S
C506 C507 1.385 . S
C507 H493 0.931 . S
C507 C506 1.385 . S
C507 C508 1.389 . S
C508 C507 1.389 . S
C508 C509 1.387 . S
C509 H494 0.930 . S
C509 C504 1.390 . S
C509 C508 1.387 . S
C211 C151 1.473 . S
C199 C16 1.329 . S
C226 C15 1.505 . S
C238 C115 1.534 . S
C253 C13 1.213 . S
C265 C175 1.486 . S
C280 C14 1.336 . S
C292 C139 1.389 . S
C307 C37 1.337 . S
C319 C79 1.478 . S
C334 C36 1.556 . S
C346 C43 1.501 . S
C373 C103 1.410 . S
C361 C34 1.363 . S
C400 C67 1.318 . S
C388 C35 1.351 . S
C415 C17 1.485 . S
C427 C73 1.538 . S
C442 C18 1.398 . S
C454 C109 1.390 . S
C481 C145 1.529 . S
C469 C38 1.478 . S
C496 C39 1.352 . S
C508 C181 1.441 . S
