# Generated by pormake.
# Topology pyr, (3,6)-cn, num edge types: 1
# Building blocks:
#     Node 0, Type 0, BuildingBlock: BELTOD_clean_linker_0, # of connection points: 3
#     Node 1, Type 0, BuildingBlock: BELTOD_clean_linker_0, # of connection points: 3
#     Node 2, Type 0, BuildingBlock: BELTOD_clean_linker_0, # of connection points: 3
#     Node 3, Type 0, BuildingBlock: BELTOD_clean_linker_0, # of connection points: 3
#     Node 4, Type 0, BuildingBlock: BELTOD_clean_linker_0, # of connection points: 3
#     Node 5, Type 0, BuildingBlock: BELTOD_clean_linker_0, # of connection points: 3
#     Node 6, Type 0, BuildingBlock: BELTOD_clean_linker_0, # of connection points: 3
#     Node 7, Type 0, BuildingBlock: BELTOD_clean_linker_0, # of connection points: 3
#     Node 8, Type 1, BuildingBlock: LEVNOQ01_clean_sbu_1, # of connection points: 6
#     Node 9, Type 1, BuildingBlock: LEVNOQ01_clean_sbu_1, # of connection points: 6
#     Node 10, Type 1, BuildingBlock: LEVNOQ01_clean_sbu_1, # of connection points: 6
#     Node 11, Type 1, BuildingBlock: LEVNOQ01_clean_sbu_1, # of connection points: 6
#     Edge 12, Type (0, 1), BuildingBlock: XIVTED_clean_linker_0, # of connection points: 2
#     Edge 13, Type (0, 1), BuildingBlock: XIVTED_clean_linker_0, # of connection points: 2
#     Edge 14, Type (0, 1), BuildingBlock: XIVTED_clean_linker_0, # of connection points: 2
#     Edge 15, Type (0, 1), BuildingBlock: XIVTED_clean_linker_0, # of connection points: 2
#     Edge 16, Type (0, 1), BuildingBlock: XIVTED_clean_linker_0, # of connection points: 2
#     Edge 17, Type (0, 1), BuildingBlock: XIVTED_clean_linker_0, # of connection points: 2
#     Edge 18, Type (0, 1), BuildingBlock: XIVTED_clean_linker_0, # of connection points: 2
#     Edge 19, Type (0, 1), BuildingBlock: XIVTED_clean_linker_0, # of connection points: 2
#     Edge 20, Type (0, 1), BuildingBlock: XIVTED_clean_linker_0, # of connection points: 2
#     Edge 21, Type (0, 1), BuildingBlock: XIVTED_clean_linker_0, # of connection points: 2
#     Edge 22, Type (0, 1), BuildingBlock: XIVTED_clean_linker_0, # of connection points: 2
#     Edge 23, Type (0, 1), BuildingBlock: XIVTED_clean_linker_0, # of connection points: 2
#     Edge 24, Type (0, 1), BuildingBlock: XIVTED_clean_linker_0, # of connection points: 2
#     Edge 25, Type (0, 1), BuildingBlock: XIVTED_clean_linker_0, # of connection points: 2
#     Edge 26, Type (0, 1), BuildingBlock: XIVTED_clean_linker_0, # of connection points: 2
#     Edge 27, Type (0, 1), BuildingBlock: XIVTED_clean_linker_0, # of connection points: 2
#     Edge 28, Type (0, 1), BuildingBlock: XIVTED_clean_linker_0, # of connection points: 2
#     Edge 29, Type (0, 1), BuildingBlock: XIVTED_clean_linker_0, # of connection points: 2
#     Edge 30, Type (0, 1), BuildingBlock: XIVTED_clean_linker_0, # of connection points: 2
#     Edge 31, Type (0, 1), BuildingBlock: XIVTED_clean_linker_0, # of connection points: 2
#     Edge 32, Type (0, 1), BuildingBlock: XIVTED_clean_linker_0, # of connection points: 2
#     Edge 33, Type (0, 1), BuildingBlock: XIVTED_clean_linker_0, # of connection points: 2
#     Edge 34, Type (0, 1), BuildingBlock: XIVTED_clean_linker_0, # of connection points: 2
#     Edge 35, Type (0, 1), BuildingBlock: XIVTED_clean_linker_0, # of connection points: 2
# Relax obj value: 0.036
# Max RMSD: 0.108
# Mean RMSD: 0.051
data_MOF--net-pry--node1-LEVNOQ01_clean_sbu_1--node2-BELTOD_clean_linker_0--edge1-XIVTED_clean_linker_0
_symmetry_space_group_name_H-M    P1
_symmetry_Int_Tables_number       1
_symmetry_cell_setting            triclinic
loop_
_symmetry_equiv_pos_as_xyz
'x, y, z'
_cell_length_a     42.545352
_cell_length_b     41.358243
_cell_length_c     40.649321
_cell_angle_alpha  92.184423
_cell_angle_beta   91.698471
_cell_angle_gamma 94.282572
loop_
_atom_site_label
_atom_site_type_symbol
_atom_site_fract_x
_atom_site_fract_y
_atom_site_fract_z
_atom_type_partial_charge
P0 P 0.15961 0.16968 0.15666 0.0
H1 H 0.22311 0.18626 0.13502 0.0
H2 H 0.26119 0.15554 0.1066 0.0
H3 H 0.19242 0.07312 0.09501 0.0
H4 H 0.15442 0.10415 0.12488 0.0
H5 H 0.1207 0.22258 0.17171 0.0
H6 H 0.09268 0.25878 0.13686 0.0
H7 H 0.11314 0.20105 0.0507 0.0
H8 H 0.14107 0.16448 0.08564 0.0
H9 H 0.18381 0.12113 0.19791 0.0
H10 H 0.09495 0.1628 0.18196 0.0
O11 O 0.18156 0.19817 0.17895 0.0
H12 H 0.16252 0.0922 0.24433 0.0
H13 H 0.07329 0.13364 0.22852 0.0
C14 C 0.18613 0.14733 0.13246 0.0
C15 C 0.21609 0.16164 0.12631 0.0
C16 C 0.23782 0.14402 0.10969 0.0
C17 C 0.22992 0.11177 0.09831 0.0
C18 C 0.19942 0.09773 0.10375 0.0
C19 C 0.17764 0.11547 0.12061 0.0
C20 C 0.13305 0.1909 0.13133 0.0
C21 C 0.1184 0.21708 0.14544 0.0
C22 C 0.10239 0.23771 0.12559 0.0
C23 C 0.10072 0.23244 0.09128 0.0
C24 C 0.11392 0.20527 0.07718 0.0
C25 C 0.12992 0.18449 0.09715 0.0
C26 C 0.14088 0.14377 0.18612 0.0
C27 C 0.1594 0.12339 0.20386 0.0
C28 C 0.14718 0.10685 0.23049 0.0
C29 C 0.1162 0.11065 0.24025 0.0
C30 C 0.09736 0.13049 0.22186 0.0
C31 C 0.10964 0.14698 0.19504 0.0
P32 P 0.39778 0.91494 0.58273 0.0
H33 H 0.45475 0.94767 0.61422 0.0
H34 H 0.46928 0.96388 0.67144 0.0
H35 H 0.37773 0.92548 0.70141 0.0
H36 H 0.36328 0.90977 0.64408 0.0
H37 H 0.42147 0.88048 0.5254 0.0
H38 H 0.43189 0.82361 0.51472 0.0
H39 H 0.40724 0.80257 0.61449 0.0
H40 H 0.39607 0.85886 0.62454 0.0
H41 H 0.35551 0.96476 0.59898 0.0
H42 H 0.34868 0.87133 0.54718 0.0
O43 O 0.41771 0.93933 0.55759 0.0
H44 H 0.29861 0.96771 0.59132 0.0
H45 H 0.29164 0.87451 0.53904 0.0
C46 C 0.40775 0.92812 0.62481 0.0
C47 C 0.4377 0.94308 0.63307 0.0
C48 C 0.44603 0.95212 0.66584 0.0
C49 C 0.42462 0.94607 0.69104 0.0
C50 C 0.39457 0.93104 0.68259 0.0
C51 C 0.3863 0.92198 0.6498 0.0
C52 C 0.40847 0.87399 0.57591 0.0
C53 C 0.41869 0.86363 0.54504 0.0
C54 C 0.42471 0.83115 0.53899 0.0
C55 C 0.42028 0.8085 0.5637 0.0
C56 C 0.41044 0.81924 0.59474 0.0
C57 C 0.40435 0.85159 0.60067 0.0
C58 C 0.35622 0.9175 0.57446 0.0
C59 C 0.34179 0.94492 0.58591 0.0
C60 C 0.30932 0.94658 0.58154 0.0
C61 C 0.29077 0.92113 0.56496 0.0
C62 C 0.30546 0.89437 0.55198 0.0
C63 C 0.33801 0.89252 0.5568 0.0
P64 P 0.6754 0.35604 0.83435 0.0
H65 H 0.73191 0.34604 0.87226 0.0
H66 H 0.75575 0.37152 0.92245 0.0
H67 H 0.68217 0.43829 0.92582 0.0
H68 H 0.65871 0.41268 0.87435 0.0
H69 H 0.63768 0.30228 0.8006 0.0
H70 H 0.60648 0.25523 0.82113 0.0
H71 H 0.62337 0.2937 0.92075 0.0
H72 H 0.65338 0.34072 0.90057 0.0
H73 H 0.70215 0.40674 0.79384 0.0
H74 H 0.60974 0.36193 0.81191 0.0
O75 O 0.70285 0.33749 0.81394 0.0
H76 H 0.68058 0.4327 0.74575 0.0
H77 H 0.5883 0.38739 0.76385 0.0
C78 C 0.69428 0.37826 0.86908 0.0
C79 C 0.72112 0.36645 0.88349 0.0
C80 C 0.73426 0.38059 0.91277 0.0
C81 C 0.7206 0.4067 0.9286 0.0
C82 C 0.69328 0.41827 0.91425 0.0
C83 C 0.68011 0.40398 0.8847 0.0
C84 C 0.64816 0.32487 0.84895 0.0
C85 C 0.6341 0.30086 0.82679 0.0
C86 C 0.61637 0.2741 0.83846 0.0
C87 C 0.61313 0.27088 0.87245 0.0
C88 C 0.62601 0.29561 0.89444 0.0
C89 C 0.64318 0.32254 0.88278 0.0
C90 C 0.65767 0.38188 0.80588 0.0
C91 C 0.67711 0.40313 0.78791 0.0
C92 C 0.66483 0.41791 0.7605 0.0
C93 C 0.63302 0.41129 0.75076 0.0
C94 C 0.6131 0.3922 0.77051 0.0
C95 C 0.62533 0.37769 0.79801 0.0
P96 P 0.85652 0.63222 0.38677 0.0
H97 H 0.90704 0.67913 0.37013 0.0
H98 H 0.94256 0.7154 0.40541 0.0
H99 H 0.91685 0.65979 0.48953 0.0
H100 H 0.88258 0.62252 0.45387 0.0
H101 H 0.82336 0.62316 0.32324 0.0
H102 H 0.83562 0.59579 0.27136 0.0
H103 H 0.9212 0.56549 0.31664 0.0
H104 H 0.90862 0.59288 0.36865 0.0
H105 H 0.8275 0.64864 0.44807 0.0
H106 H 0.82607 0.56544 0.38057 0.0
O107 O 0.83736 0.66401 0.37555 0.0
H108 H 0.78527 0.62177 0.47863 0.0
H109 H 0.78301 0.53875 0.41067 0.0
C110 C 0.89131 0.6489 0.40956 0.0
C111 C 0.91015 0.6738 0.39586 0.0
C112 C 0.93052 0.69448 0.41606 0.0
C113 C 0.93193 0.69067 0.45027 0.0
C114 C 0.91588 0.66339 0.46327 0.0
C115 C 0.89603 0.64229 0.44288 0.0
C116 C 0.86544 0.61052 0.34949 0.0
C117 C 0.84479 0.61065 0.32198 0.0
C118 C 0.85182 0.59508 0.29234 0.0
C119 C 0.87946 0.57871 0.28986 0.0
C120 C 0.89961 0.57775 0.31787 0.0
C121 C 0.8926 0.59352 0.34752 0.0
C122 C 0.83005 0.60902 0.41218 0.0
C123 C 0.81871 0.62418 0.4404 0.0
C124 C 0.79469 0.60873 0.45798 0.0
C125 C 0.78095 0.57816 0.44707 0.0
C126 C 0.79333 0.5623 0.41964 0.0
C127 C 0.81783 0.57759 0.40236 0.0
P128 P 0.88454 0.89943 0.9159 0.0
H129 H 0.86272 0.9317 0.97511 0.0
H130 H 0.81139 0.94929 0.99022 0.0
H131 H 0.76925 0.90192 0.90128 0.0
H132 H 0.82089 0.88438 0.88631 0.0
H133 H 0.945 0.87899 0.93881 0.0
H134 H 0.96264 0.82714 0.95526 0.0
H135 H 0.86848 0.78231 0.93628 0.0
H136 H 0.85079 0.83487 0.92031 0.0
H137 H 0.85779 0.94429 0.87171 0.0
H138 H 0.91724 0.8645 0.86381 0.0
O139 O 0.90988 0.92848 0.93298 0.0
H140 H 0.86365 0.95388 0.81358 0.0
H141 H 0.92468 0.87509 0.8056 0.0
C142 C 0.84571 0.90732 0.92929 0.0
C143 C 0.8424 0.92479 0.95902 0.0
C144 C 0.81298 0.93479 0.96766 0.0
C145 C 0.78628 0.92744 0.9467 0.0
C146 C 0.78947 0.90857 0.9176 0.0
C147 C 0.81891 0.89833 0.90915 0.0
C148 C 0.89648 0.86089 0.92886 0.0
C149 C 0.92802 0.85813 0.93848 0.0
C150 C 0.93815 0.82834 0.94765 0.0
C151 C 0.91699 0.80052 0.9471 0.0
C152 C 0.88527 0.80336 0.93743 0.0
C153 C 0.87515 0.83332 0.92817 0.0
C154 C 0.88647 0.90325 0.872 0.0
C155 C 0.87175 0.92847 0.85732 0.0
C156 C 0.8755 0.9342 0.82406 0.0
C157 C 0.89493 0.91548 0.80486 0.0
C158 C 0.90925 0.88973 0.8195 0.0
C159 C 0.90512 0.88374 0.85287 0.0
P160 P 0.66057 0.17665 0.37368 0.0
H161 H 0.66984 0.22713 0.42502 0.0
H162 H 0.63296 0.25751 0.45605 0.0
H163 H 0.55598 0.19092 0.41824 0.0
H164 H 0.59298 0.16141 0.38633 0.0
H165 H 0.71294 0.14722 0.34534 0.0
H166 H 0.75493 0.11697 0.3679 0.0
H167 H 0.71572 0.12491 0.46448 0.0
H168 H 0.67343 0.15563 0.44153 0.0
H169 H 0.64929 0.18785 0.30391 0.0
H170 H 0.62778 0.11156 0.37103 0.0
O171 O 0.67965 0.20859 0.35731 0.0
H172 H 0.62444 0.15392 0.2585 0.0
H173 H 0.60191 0.07765 0.32542 0.0
C174 C 0.63412 0.19249 0.40286 0.0
C175 C 0.6451 0.21866 0.42401 0.0
C176 C 0.62392 0.23585 0.44202 0.0
C177 C 0.59133 0.227 0.43927 0.0
C178 C 0.58083 0.19881 0.42036 0.0
C179 C 0.60206 0.18178 0.40215 0.0
C180 C 0.69014 0.15352 0.39171 0.0
C181 C 0.71324 0.14232 0.37134 0.0
C182 C 0.73713 0.12492 0.38426 0.0
C183 C 0.73842 0.11834 0.41792 0.0
C184 C 0.7153 0.12976 0.43849 0.0
C185 C 0.69112 0.14716 0.42538 0.0
C186 C 0.64039 0.15218 0.34082 0.0
C187 C 0.63911 0.16386 0.30895 0.0
C188 C 0.62502 0.14442 0.28297 0.0
C189 C 0.61151 0.11317 0.28852 0.0
C190 C 0.61218 0.1017 0.3206 0.0
C191 C 0.62687 0.12099 0.34655 0.0
P192 P 0.38935 0.60909 0.13296 0.0
H193 H 0.36682 0.60031 0.06495 0.0
H194 H 0.31412 0.58742 0.03948 0.0
H195 H 0.27587 0.57532 0.13578 0.0
H196 H 0.32807 0.58901 0.16115 0.0
H197 H 0.44323 0.64503 0.10398 0.0
H198 H 0.45132 0.7014 0.08732 0.0
H199 H 0.35917 0.72046 0.12154 0.0
H200 H 0.35071 0.66392 0.13721 0.0
H201 H 0.38635 0.55427 0.17569 0.0
H202 H 0.39273 0.65876 0.18755 0.0
O203 O 0.41687 0.58655 0.11772 0.0
H204 H 0.38324 0.55021 0.23536 0.0
H205 H 0.38822 0.65488 0.2465 0.0
C206 C 0.35151 0.59504 0.11485 0.0
C207 C 0.34714 0.59442 0.08052 0.0
C208 C 0.3171 0.58731 0.06604 0.0
C209 C 0.29112 0.58029 0.08574 0.0
C210 C 0.29566 0.58027 0.12009 0.0
C211 C 0.32558 0.58795 0.13457 0.0
C212 C 0.3963 0.65041 0.12155 0.0
C213 C 0.42479 0.66131 0.10787 0.0
C214 C 0.42943 0.69342 0.09851 0.0
C215 C 0.40586 0.71501 0.10341 0.0
C216 C 0.37771 0.70423 0.11788 0.0
C217 C 0.37282 0.672 0.12653 0.0
C218 C 0.38963 0.60671 0.17703 0.0
C219 C 0.387 0.57629 0.19108 0.0
C220 C 0.38471 0.57404 0.22512 0.0
C221 C 0.38496 0.60226 0.24565 0.0
C222 C 0.38796 0.63269 0.23142 0.0
C223 C 0.39039 0.63489 0.19746 0.0
P224 P 0.14261 0.37096 0.63158 0.0
H225 H 0.15963 0.33453 0.5742 0.0
H226 H 0.13193 0.29428 0.53719 0.0
H227 H 0.04834 0.29954 0.5949 0.0
H228 H 0.07543 0.34321 0.62927 0.0
H229 H 0.19909 0.41483 0.64194 0.0
H230 H 0.23246 0.44353 0.6028 0.0
H231 H 0.16144 0.42083 0.52578 0.0
H232 H 0.12711 0.394 0.56545 0.0
H233 H 0.10363 0.34068 0.68122 0.0
H234 H 0.14162 0.43712 0.66072 0.0
O235 O 0.17169 0.35104 0.64768 0.0
H236 H 0.08611 0.36044 0.73412 0.0
H237 H 0.12676 0.45664 0.7148 0.0
C238 C 0.11985 0.34161 0.60483 0.0
C239 C 0.13514 0.32739 0.57858 0.0
C240 C 0.11923 0.30389 0.55757 0.0
C241 C 0.08791 0.29258 0.56325 0.0
C242 C 0.07232 0.30751 0.58933 0.0
C243 C 0.08804 0.33217 0.60962 0.0
C244 C 0.1611 0.4014 0.60639 0.0
C245 C 0.19009 0.4172 0.61701 0.0
C246 C 0.20911 0.43361 0.59466 0.0
C247 C 0.19953 0.43392 0.56132 0.0
C248 C 0.16926 0.42075 0.55138 0.0
C249 C 0.14981 0.40523 0.57404 0.0
C250 C 0.12311 0.38751 0.66645 0.0
C251 C 0.10751 0.36633 0.68773 0.0
C252 C 0.09826 0.37758 0.71851 0.0
C253 C 0.10556 0.41011 0.72933 0.0
C254 C 0.1204 0.43153 0.70744 0.0
C255 C 0.129 0.42033 0.6763 0.0
O256 O 0.99217 0.01599 0.60332 0.0
Mg257 Mg 0.02983 0.03476 0.57656 0.0
O258 O 0.97621 0.97994 0.56337 0.0
Mg259 Mg 6e-05 0.99574 0.51382 0.0
O260 O 0.01397 0.04834 0.5317 0.0
O261 O 0.03445 0.08376 0.57077 0.0
O262 O 0.02471 0.01404 0.46489 0.0
O263 O 0.9517 0.01519 0.49885 0.0
Mg264 Mg 0.98094 0.9638 0.45511 0.0
O265 O 0.98456 0.94097 0.4986 0.0
O266 O 0.02254 0.97209 0.43016 0.0
O267 O 0.94456 0.99485 0.44821 0.0
O268 O 0.96384 0.91721 0.45116 0.0
C269 C 0.07084 0.98375 0.55078 0.0
C270 C 0.97466 0.99144 0.5929 0.0
C271 C 0.02178 0.07804 0.54171 0.0
C272 C 0.03353 0.00047 0.43829 0.0
C273 C 0.93594 0.0128 0.47161 0.0
C274 C 0.97265 0.91538 0.48161 0.0
O275 O 0.06881 0.00653 0.57221 0.0
O276 O 0.04896 0.9768 0.52887 0.0
O277 O 0.43134 0.04806 0.99586 0.0
Mg278 Mg 0.4759 0.05512 0.01988 0.0
O279 O 0.44237 0.00638 0.02278 0.0
Mg280 Mg 0.49612 0.00445 0.0046 0.0
O281 O 0.51252 0.05882 0.98909 0.0
O282 O 0.48957 0.10125 0.01192 0.0
O283 O 0.55122 0.00181 0.98932 0.0
O284 O 0.47628 0.99669 0.95068 0.0
Mg285 Mg 0.51527 0.95505 0.99003 0.0
O286 O 0.47747 0.95078 0.01929 0.0
O287 O 0.55878 0.95814 0.0156 0.0
O288 O 0.51342 0.96501 0.93892 0.0
O289 O 0.49598 0.90933 0.99025 0.0
C290 C 0.50468 0.03061 0.07982 0.0
C291 C 0.42162 0.0241 0.01166 0.0
C292 C 0.50949 0.08992 0.99212 0.0
C293 C 0.57029 0.98304 0.00222 0.0
C294 C 0.49127 0.98141 0.92927 0.0
C295 C 0.47637 0.92011 0.0107 0.0
O296 O 0.48333 0.04878 0.07164 0.0
O297 O 0.51618 0.01271 0.05787 0.0
O298 O 0.44547 0.55574 0.56493 0.0
Mg299 Mg 0.44573 0.50539 0.57414 0.0
O300 O 0.47216 0.55877 0.51853 0.0
Mg301 Mg 0.48526 0.50615 0.50491 0.0
O302 O 0.48778 0.49422 0.55772 0.0
O303 O 0.47637 0.48753 0.60954 0.0
O304 O 0.49729 0.45291 0.49234 0.0
O305 O 0.53906 0.52385 0.50975 0.0
Mg306 Mg 0.51911 0.498 0.43172 0.0
O307 O 0.48264 0.51806 0.45234 0.0
O308 O 0.51071 0.44779 0.43989 0.0
O309 O 0.55782 0.52183 0.45887 0.0
O310 O 0.49048 0.52287 0.39959 0.0
C311 C 0.4096 0.47574 0.51497 0.0
C312 C 0.45708 0.57204 0.5416 0.0
C313 C 0.49627 0.48568 0.58642 0.0
C314 C 0.50425 0.43549 0.4673 0.0
C315 C 0.56131 0.52882 0.48957 0.0
C316 C 0.47389 0.52893 0.42474 0.0
O317 O 0.41195 0.47496 0.54612 0.0
O318 O 0.43169 0.48865 0.49808 0.0
O319 O 0.04539 0.46001 0.04183 0.0
Mg320 Mg 0.02709 0.50467 0.05691 0.0
O321 O 0.00467 0.44859 0.00791 0.0
Mg322 Mg 0.9945 0.50318 0.0037 0.0
O323 O 0.97996 0.50874 0.05995 0.0
O324 O 0.01239 0.50084 0.10323 0.0
O325 O 0.98461 0.55872 0.99784 0.0
O326 O 0.94112 0.48722 0.00073 0.0
Mg327 Mg 0.9645 0.51901 0.93246 0.0
O328 O 0.00383 0.49806 0.94894 0.0
O329 O 0.98075 0.56739 0.94393 0.0
O330 O 0.92153 0.50647 0.95512 0.0
O331 O 0.97979 0.48165 0.90233 0.0
C332 C 0.06544 0.5406 0.02359 0.0
C333 C 0.02917 0.43984 0.02284 0.0
C334 C 0.98485 0.50612 0.09149 0.0
C335 C 0.98327 0.57793 0.97377 0.0
C336 C 0.91774 0.49293 0.98224 0.0
C337 C 0.00198 0.47811 0.92374 0.0
O338 O 0.05399 0.54859 0.05061 0.0
O339 O 0.04978 0.51929 0.00494 0.0
H340 H 0.08123 0.13686 0.28891 0.0
H341 H 0.07159 0.97621 0.39254 0.0
H342 H 0.12481 0.04945 0.26081 0.0
H343 H 0.03652 0.06592 0.42783 0.0
H344 H 0.09339 0.00386 0.34549 0.0
H345 H 0.0648 0.11195 0.33997 0.0
C346 C 0.08713 0.11234 0.29333 0.0
C347 C 0.10445 0.09523 0.27047 0.0
C348 C 0.08125 0.01769 0.36362 0.0
C349 C 0.08619 0.0668 0.32918 0.0
C350 C 0.06892 0.00192 0.3906 0.0
C351 C 0.05207 0.01876 0.41399 0.0
C352 C 0.07633 0.05052 0.35961 0.0
C353 C 0.04944 0.05208 0.41038 0.0
C354 C 0.07805 0.09828 0.32267 0.0
C355 C 0.11182 0.06372 0.27781 0.0
N356 N 0.06105 0.06681 0.38338 0.0
N357 N 0.10263 0.05056 0.30643 0.0
H358 H 0.38958 0.97215 0.74001 0.0
H359 H 0.52594 0.96169 0.87823 0.0
H360 H 0.48125 0.93814 0.72208 0.0
H361 H 0.43639 -0.00087 0.89941 0.0
H362 H 0.51001 0.95554 0.82033 0.0
H363 H 0.40591 0.98389 0.79789 0.0
C364 C 0.41312 0.96714 0.74821 0.0
C365 C 0.43412 0.95421 0.72607 0.0
C366 C 0.49379 0.96526 0.83749 0.0
C367 C 0.45297 0.96779 0.79213 0.0
C368 C 0.5029 0.9688 0.87065 0.0
C369 C 0.48238 0.98075 0.89377 0.0
C370 C 0.46375 0.97347 0.82712 0.0
C371 C 0.45294 0.98982 0.88239 0.0
C372 C 0.42246 0.97403 0.7812 0.0
C373 C 0.46441 0.94856 0.73802 0.0
N374 N 0.44436 0.98573 0.84983 0.0
N375 N 0.47283 0.95528 0.77015 0.0
H376 H 0.60082 0.37342 0.70335 0.0
H377 H 0.54854 0.52303 0.60692 0.0
H378 H 0.63918 0.47171 0.72467 0.0
H379 H 0.51304 0.42404 0.5855 0.0
H380 H 0.59217 0.50374 0.63961 0.0
H381 H 0.57798 0.39024 0.65171 0.0
C382 C 0.6044 0.39862 0.69704 0.0
C383 C 0.62113 0.42143 0.71857 0.0
C384 C 0.57547 0.48615 0.62692 0.0
C385 C 0.59515 0.44095 0.65943 0.0
C386 C 0.55083 0.49717 0.60803 0.0
C387 C 0.52743 0.47493 0.59388 0.0
C388 C 0.57599 0.45278 0.63203 0.0
C389 C 0.53083 0.44178 0.59619 0.0
C390 C 0.59164 0.40818 0.66741 0.0
C391 C 0.626 0.45353 0.70885 0.0
N392 N 0.55436 0.43165 0.61557 0.0
N393 N 0.61253 0.46252 0.68018 0.0
H394 H 0.90198 0.51919 0.27866 0.0
H395 H 0.94074 0.5511 0.09098 0.0
H396 H 0.87563 0.60364 0.22845 0.0
H397 H 0.97268 0.47176 0.14555 0.0
H398 H 0.9077 0.56533 0.13719 0.0
H399 H 0.91953 0.49647 0.22666 0.0
C400 C 0.89982 0.5329 0.25663 0.0
C401 C 0.88773 0.5635 0.25796 0.0
C402 C 0.92145 0.5444 0.13875 0.0
C403 C 0.90774 0.53769 0.19823 0.0
C404 C 0.94007 0.53618 0.11232 0.0
C405 C 0.95966 0.51056 0.11486 0.0
C406 C 0.92242 0.52661 0.16755 0.0
C407 C 0.95822 0.49204 0.14298 0.0
C408 C 0.90967 0.51986 0.22689 0.0
C409 C 0.88481 0.57993 0.22851 0.0
N410 N 0.94018 0.5006 0.16835 0.0
N411 N 0.89511 0.56699 0.1999 0.0
H412 H 0.2738 0.13372 0.05497 0.0
H413 H 0.36475 0.98647 0.00464 0.0
H414 H 0.24125 0.0471 0.10386 0.0
H415 H 0.41126 0.07073 0.05596 0.0
H416 H 0.31362 0.0028 0.02521 0.0
H417 H 0.31872 0.10595 0.03554 0.0
C418 C 0.2759 0.10881 0.06147 0.0
C419 C 0.25407 0.09307 0.08187 0.0
C420 C 0.33527 0.0171 0.0324 0.0
C421 C 0.30496 0.06094 0.05861 0.0
C422 C 0.36425 0.00777 0.0209 0.0
C423 C 0.392 0.02739 0.02875 0.0
C424 C 0.33455 0.04643 0.0509 0.0
C425 C 0.39028 0.05505 0.04941 0.0
C426 C 0.3014 0.09298 0.05015 0.0
C427 C 0.25755 0.06025 0.08833 0.0
N428 N 0.36202 0.0641 0.05922 0.0
N429 N 0.28282 0.04523 0.07698 0.0
H430 H 0.25183 0.9317 0.6151 0.0
H431 H 0.10024 0.95386 0.49946 0.0
H432 H 0.25106 0.91303 0.51003 0.0
H433 H 0.10676 0.97286 0.60462 0.0
H434 H 0.15221 0.93128 0.50242 0.0
H435 H 0.19564 0.93908 0.61156 0.0
C436 C 0.23967 0.92908 0.59124 0.0
C437 C 0.25609 0.92231 0.56277 0.0
C438 C 0.14198 0.94001 0.52484 0.0
C439 C 0.19161 0.93106 0.55828 0.0
C440 C 0.11234 0.95275 0.52317 0.0
C441 C 0.0995 0.9657 0.55178 0.0
C442 C 0.15851 0.94008 0.55536 0.0
C443 C 0.11606 0.96371 0.58187 0.0
C444 C 0.20754 0.9332 0.58917 0.0
C445 C 0.23915 0.91847 0.53252 0.0
N446 N 0.14468 0.95142 0.5828 0.0
N447 N 0.20781 0.92338 0.53095 0.0
H448 H 0.72867 0.47225 0.94241 0.0
H449 H 0.89395 0.44063 0.01612 0.0
H450 H 0.75174 0.38067 0.98052 0.0
H451 H 0.86797 0.52858 0.97241 0.0
H452 H 0.83775 0.42461 0.02288 0.0
H453 H 0.77211 0.49925 0.9754 0.0
C454 C 0.74218 0.45785 0.95851 0.0
C455 C 0.73768 0.4239 0.95727 0.0
C456 C 0.84443 0.4478 0.0126 0.0
C457 C 0.78846 0.45451 0.99382 0.0
C458 C 0.87643 0.45684 0.00866 0.0
C459 C 0.88528 0.48531 0.99258 0.0
C460 C 0.82151 0.46755 0.00041 0.0
C461 C 0.86192 0.50582 0.98385 0.0
C462 C 0.76731 0.4733 0.97719 0.0
C463 C 0.75561 0.40676 0.97933 0.0
N464 N 0.83112 0.49632 0.98741 0.0
N465 N 0.78105 0.42207 0.99579 0.0
H466 H 0.72733 0.55928 0.41206 0.0
H467 H 0.60411 0.5014 0.52929 0.0
H468 H 0.76474 0.57176 0.51196 0.0
H469 H 0.59045 0.58501 0.47197 0.0
H470 H 0.66173 0.51292 0.52612 0.0
H471 H 0.67441 0.55025 0.43317 0.0
C472 C 0.72451 0.55919 0.43846 0.0
C473 C 0.75039 0.56624 0.46032 0.0
C474 C 0.64598 0.52943 0.51556 0.0
C475 C 0.68999 0.55624 0.48442 0.0
C476 C 0.61326 0.52311 0.51761 0.0
C477 C 0.59279 0.54238 0.50082 0.0
C478 C 0.65762 0.55473 0.49621 0.0
C479 C 0.60561 0.56969 0.48523 0.0
C480 C 0.69435 0.55443 0.45041 0.0
C481 C 0.74524 0.56649 0.49439 0.0
N482 N 0.63724 0.57457 0.48249 0.0
N483 N 0.71542 0.5616 0.50558 0.0
H484 H 0.04105 0.23869 0.06565 0.0
H485 H 0.08863 0.42156 0.01978 0.0
H486 H 0.13528 0.28483 0.07132 0.0
H487 H 0.99198 0.38214 0.0203 0.0
H488 H 0.1061 0.36744 0.0268 0.0
H489 H 0.0227 0.28659 0.03854 0.0
C490 C 0.05787 0.25871 0.06059 0.0
C491 C 0.08963 0.25811 0.07058 0.0
C492 C 0.08103 0.37035 0.02501 0.0
C493 C 0.06903 0.31271 0.04028 0.0
C494 C 0.07107 0.40128 0.02088 0.0
C495 C 0.03886 0.40631 0.01991 0.0
C496 C 0.05866 0.34417 0.02899 0.0
C497 C 0.01706 0.3792 0.02105 0.0
C498 C 0.04746 0.28599 0.04526 0.0
C499 C 0.11061 0.28449 0.0638 0.0
N500 N 0.02736 0.34927 0.02621 0.0
N501 N 0.09991 0.31079 0.04936 0.0
H502 H 0.55306 0.24419 0.86042 0.0
H503 H 0.57087 0.09139 0.97219 0.0
H504 H 0.63975 0.23 0.9137 0.0
H505 H 0.48494 0.13993 0.9629 0.0
H506 H 0.59728 0.13312 0.93847 0.0
H507 H 0.52815 0.19602 0.88568 0.0
C508 C 0.56684 0.23064 0.87714 0.0
C509 C 0.59824 0.24094 0.88539 0.0
C510 C 0.57257 0.13428 0.94371 0.0
C511 C 0.57042 0.18614 0.91369 0.0
C512 C 0.5576 0.11059 0.96276 0.0
C513 C 0.52596 0.11269 0.97051 0.0
C514 C 0.55533 0.15935 0.93181 0.0
C515 C 0.50957 0.13787 0.95779 0.0
C516 C 0.55272 0.20336 0.89152 0.0
C517 C 0.61531 0.22278 0.90713 0.0
N518 N 0.52441 0.16019 0.93898 0.0
N519 N 0.60117 0.19615 0.92061 0.0
H520 H 0.89978 0.72089 0.49738 0.0
H521 H 0.01909 0.87906 0.50345 0.0
H522 H 0.98977 0.72511 0.45104 0.0
H523 H 0.91829 0.87905 0.48998 0.0
H524 H 0.01319 0.81998 0.51029 0.0
H525 H 0.91248 0.77585 0.52083 0.0
C526 C 0.92279 0.73286 0.49332 0.0
C527 C 0.94373 0.71865 0.47208 0.0
C528 C 0.99237 0.83322 0.50704 0.0
C529 C 0.95825 0.78127 0.49875 0.0
C530 C 0.99569 0.86678 0.5034 0.0
C531 C 0.9691 0.88355 0.49618 0.0
C532 C 0.96225 0.81683 0.5039 0.0
C533 C 0.93928 0.86674 0.49563 0.0
C534 C 0.92989 0.76424 0.50653 0.0
C535 C 0.97298 0.73541 0.46714 0.0
N536 N 0.93663 0.83417 0.49912 0.0
N537 N 0.97926 0.76611 0.48005 0.0
H538 H 0.38339 0.75637 0.58321 0.0
H539 H 0.48471 0.61977 0.50341 0.0
H540 H 0.46679 0.78089 0.52866 0.0
H541 H 0.41711 0.60422 0.57954 0.0
H542 H 0.47522 0.67786 0.5058 0.0
H543 H 0.39188 0.69923 0.57512 0.0
C544 C 0.40365 0.74975 0.56967 0.0
C545 C 0.42471 0.77356 0.55711 0.0
C546 C 0.46257 0.66156 0.52189 0.0
C547 C 0.4344 0.70775 0.54729 0.0
C548 C 0.46791 0.62847 0.52052 0.0
C549 C 0.45189 0.60707 0.54149 0.0
C550 C 0.44078 0.67303 0.54405 0.0
C551 C 0.43029 0.61968 0.56308 0.0
C552 C 0.40842 0.71703 0.56489 0.0
C553 C 0.44998 0.76334 0.5388 0.0
N554 N 0.42541 0.65166 0.56374 0.0
N555 N 0.45425 0.73113 0.53456 0.0
H556 H 0.90425 0.97652 0.78212 0.0
H557 H 0.96364 0.92664 0.60569 0.0
H558 H 0.90273 0.87574 0.74964 0.0
H559 H 0.93855 0.02231 0.63517 0.0
H560 H 0.93925 0.90544 0.65564 0.0
H561 H 0.91612 0.99225 0.72693 0.0
C562 C 0.90587 0.95757 0.76324 0.0
C563 C 0.90197 0.92469 0.77063 0.0
C564 C 0.93849 0.93091 0.65068 0.0
C565 C 0.91653 0.94276 0.70679 0.0
C566 C 0.95211 0.94291 0.62211 0.0
C567 C 0.95326 0.97627 0.61665 0.0
C568 C 0.9262 0.95261 0.6736 0.0
C569 C 0.93841 0.99648 0.63874 0.0
C570 C 0.91284 0.96663 0.73157 0.0
C571 C 0.90566 0.90139 0.74514 0.0
N572 N 0.92587 0.98443 0.66635 0.0
N573 N 0.91291 0.91087 0.71431 0.0
H574 H 0.63785 0.09693 0.23055 0.0
H575 H 0.477 0.05046 0.13619 0.0
H576 H 0.55153 0.08422 0.28304 0.0
H577 H 0.56419 0.01808 0.10017 0.0
H578 H 0.50312 0.06337 0.19011 0.0
H579 H 0.61136 0.06892 0.18203 0.0
C580 C 0.61337 0.08788 0.23188 0.0
C581 C 0.59671 0.09299 0.26061 0.0
C582 C 0.51636 0.05291 0.17056 0.0
C583 C 0.5662 0.06144 0.20527 0.0
C584 C 0.50151 0.04563 0.1398 0.0
C585 C 0.51854 0.03343 0.11366 0.0
C586 C 0.54865 0.04876 0.1749 0.0
C587 C 0.55021 0.02747 0.11967 0.0
C588 C 0.59833 0.07179 0.20431 0.0
C589 C 0.56511 0.0807 0.26126 0.0
N590 N 0.56443 0.03581 0.1495 0.0
N591 N 0.55066 0.06596 0.23375 0.0
H592 H 0.34941 0.55875 0.28128 0.0
H593 H 0.47124 0.594 0.42761 0.0
H594 H 0.41862 0.64054 0.29279 0.0
H595 H 0.41453 0.50417 0.40941 0.0
H596 H 0.4342 0.6215 0.3934 0.0
H597 H 0.35654 0.54886 0.33984 0.0
C598 C 0.36575 0.57492 0.29621 0.0
C599 C 0.38419 0.59986 0.2819 0.0
C600 C 0.42907 0.59604 0.3979 0.0
C601 C 0.39216 0.58894 0.34884 0.0
C602 C 0.45002 0.58048 0.41775 0.0
C603 C 0.44596 0.54687 0.42058 0.0
C604 C 0.40472 0.5774 0.38023 0.0
C605 C 0.41842 0.53018 0.4073 0.0
C606 C 0.36954 0.56948 0.32969 0.0
C607 C 0.40413 0.62079 0.3026 0.0
N608 N 0.39922 0.54544 0.38674 0.0
N609 N 0.40806 0.61444 0.33488 0.0
H610 H 0.08918 0.47033 0.75172 0.0
H611 H 0.01271 0.41521 0.90916 0.0
H612 H 0.10673 0.37538 0.78584 0.0
H613 H 0.05343 0.51335 0.90443 0.0
H614 H 0.0478 0.39841 0.86591 0.0
H615 H 0.07566 0.48657 0.80754 0.0
C616 C 0.09063 0.45295 0.77084 0.0
C617 C 0.09865 0.42114 0.7636 0.0
C618 C 0.04986 0.42341 0.87519 0.0
C619 C 0.0825 0.43959 0.82757 0.0
C620 C 0.03012 0.43286 0.90008 0.0
C621 C 0.03049 0.46556 0.91039 0.0
C622 C 0.06892 0.44715 0.85976 0.0
C623 C 0.05282 0.48779 0.8973 0.0
C624 C 0.08292 0.46232 0.80278 0.0
C625 C 0.09961 0.39976 0.78972 0.0
N626 N 0.07048 0.47841 0.87182 0.0
N627 N 0.09104 0.40916 0.82036 0.0
H628 H 0.74345 0.95391 0.90563 0.0
H629 H 0.61635 0.96805 0.04491 0.0
H630 H 0.75897 0.92971 0.00684 0.0
H631 H 0.60168 0.00191 0.94708 0.0
H632 H 0.67065 0.95887 0.0322 0.0
H633 H 0.69293 0.97454 0.92028 0.0
C634 C 0.73619 0.95283 0.9309 0.0
C635 C 0.75545 0.93991 0.95503 0.0
C636 C 0.65586 0.9688 0.01356 0.0
C637 C 0.69786 0.96387 0.97202 0.0
C638 C 0.62489 0.97427 0.02093 0.0
C639 C 0.60456 0.98572 0.997 0.0
C640 C 0.66656 0.97422 0.98175 0.0
C641 C 0.61673 0.99328 0.96628 0.0
C642 C 0.70749 0.9649 0.93929 0.0
C643 C 0.74508 0.93966 0.98747 0.0
N644 N 0.64686 0.98686 0.9593 0.0
N645 N 0.717 0.95126 0.99493 0.0
H646 H 0.75926 0.06305 0.39114 0.0
H647 H 0.90548 0.05052 0.5166 0.0
H648 H 0.7762 0.13126 0.47386 0.0
H649 H 0.89955 0.0132 0.4157 0.0
H650 H 0.85493 0.07484 0.50732 0.0
H651 H 0.80646 0.03702 0.40707 0.0
C652 C 0.7729 0.07244 0.41282 0.0
C653 C 0.76421 0.09974 0.43081 0.0
C654 C 0.86492 0.06133 0.48736 0.0
C655 C 0.81846 0.07004 0.44925 0.0
C656 C 0.8937 0.04753 0.49257 0.0
C657 C 0.90669 0.02957 0.46696 0.0
C658 C 0.84913 0.05673 0.45649 0.0
C659 C 0.89046 0.02651 0.43632 0.0
C660 C 0.79988 0.05761 0.42189 0.0
C661 C 0.78227 0.11034 0.45924 0.0
N662 N 0.86258 0.03977 0.43206 0.0
N663 N 0.80887 0.09564 0.46748 0.0
H664 H 0.26067 0.61778 0.04314 0.0
H665 H 0.10759 0.4952 0.01937 0.0
H666 H 0.24901 0.5286 0.09457 0.0
H667 H 0.10054 0.59866 0.02489 0.0
H668 H 0.16465 0.50413 0.03029 0.0
H669 H 0.20629 0.60795 0.02065 0.0
C670 C 0.24674 0.59597 0.04932 0.0
C671 C 0.25913 0.57392 0.07068 0.0
C672 C 0.15069 0.52485 0.02821 0.0
C673 C 0.19768 0.56242 0.0448 0.0
C674 C 0.11832 0.51982 0.02155 0.0
C675 C 0.09966 0.54632 0.02082 0.0
C676 C 0.16442 0.55659 0.03344 0.0
C677 C 0.11438 0.57773 0.02492 0.0
C678 C 0.21586 0.59049 0.03663 0.0
C679 C 0.24017 0.54619 0.07826 0.0
N680 N 0.14605 0.58207 0.03107 0.0
N681 N 0.21038 0.54112 0.06519 0.0
H682 H 0.22207 0.39335 0.51552 0.0
H683 H 0.37081 0.51619 0.48658 0.0
H684 H 0.23227 0.49246 0.55328 0.0
H685 H 0.37681 0.41664 0.51203 0.0
H686 H 0.31307 0.50687 0.48252 0.0
H687 H 0.27154 0.40259 0.48649 0.0
C688 C 0.23408 0.41742 0.51652 0.0
C689 C 0.22338 0.44222 0.53681 0.0
C690 C 0.32717 0.48677 0.48757 0.0
C691 C 0.2794 0.45288 0.50372 0.0
C692 C 0.36 0.49196 0.48961 0.0
C693 C 0.37827 0.46711 0.4998 0.0
C694 C 0.31289 0.45642 0.49523 0.0
C695 C 0.36333 0.43632 0.50414 0.0
C696 C 0.26226 0.42259 0.50011 0.0
C697 C 0.23994 0.47281 0.53787 0.0
N698 N 0.33137 0.43189 0.50223 0.0
N699 N 0.2674 0.47723 0.5218 0.0
H700 H 0.88826 0.7529 0.98408 0.0
H701 H 0.01587 0.62676 0.94431 0.0
H702 H 0.97194 0.77539 0.92934 0.0
H703 H 0.94307 0.60799 0.01403 0.0
H704 H 0.00193 0.6828 0.94201 0.0
H705 H 0.90817 0.70052 0.99714 0.0
C706 C 0.91079 0.74686 0.97482 0.0
C707 C 0.92847 0.76865 0.95562 0.0
C708 C 0.98931 0.66674 0.95835 0.0
C709 C 0.9515 0.70897 0.97072 0.0
C710 C -0.00252 0.63483 0.95986 0.0
C711 C 0.98074 0.61296 0.97958 0.0
C712 C 0.96361 0.6767 0.97604 0.0
C713 C 0.9568 0.62436 -0.00111 0.0
C714 C 0.92227 0.7171 0.98255 0.0
C715 C 0.95766 0.75964 0.94458 0.0
N716 N 0.94852 0.65538 0.99621 0.0
N717 N 0.96812 0.73052 0.95213 0.0
H718 H 0.40308 0.77286 0.13805 0.0
H719 H 0.44051 0.87251 0.97777 0.0
H720 H 0.41657 0.73166 0.04094 0.0
H721 H 0.46215 0.91362 0.07556 0.0
H722 H 0.41441 0.82474 0.00144 0.0
H723 H 0.41065 0.82763 0.11616 0.0
C724 C 0.40743 0.77547 0.11212 0.0
C725 C 0.40968 0.74804 0.09119 0.0
C726 C 0.4244 0.84439 0.0178 0.0
C727 C 0.4174 0.80978 0.06613 0.0
C728 C 0.43909 0.87166 0.0043 0.0
C729 C 0.45381 0.89651 0.02488 0.0
C730 C 0.42514 0.84167 0.0521 0.0
C731 C 0.45111 0.89467 0.05903 0.0
C732 C 0.41163 0.80653 0.09971 0.0
C733 C 0.41516 0.75234 0.05786 0.0
N734 N 0.43763 0.86718 0.07176 0.0
N735 N 0.41883 0.78264 0.04636 0.0
H736 H 0.11695 0.24168 0.53471 0.0
H737 H 0.97771 0.12129 0.54828 0.0
H738 H 0.0244 0.27618 0.54764 0.0
H739 H 0.05803 0.09922 0.49201 0.0
H740 H 0.9882 0.17869 0.53746 0.0
H741 H 0.09281 0.19199 0.50969 0.0
C742 C 0.09154 0.23948 0.53162 0.0
C743 C 0.0729 0.26362 0.54396 0.0
C744 C 0.00275 0.16127 0.52614 0.0
C745 C 0.04477 0.20496 0.51617 0.0
C746 C -0.00347 0.12842 0.53203 0.0
C747 C 0.01732 0.10582 0.52131 0.0
C748 C 0.03051 0.17132 0.51036 0.0
C749 C 0.04161 0.11612 0.50083 0.0
C750 C 0.07767 0.21065 0.51726 0.0
C751 C 0.03993 0.25809 0.53966 0.0
N752 N 0.04823 0.14836 0.49689 0.0
N753 N 0.0269 0.22903 0.5269 0.0
H754 H 0.53661 0.24223 0.40867 0.0
H755 H 0.5243 0.40297 0.52072 0.0
H756 H 0.59441 0.26504 0.49684 0.0
H757 H 0.49045 0.38836 0.41979 0.0
H758 H 0.53743 0.346 0.52046 0.0
H759 H 0.50619 0.28812 0.42188 0.0
C760 C 0.54244 0.25627 0.43135 0.0
C761 C 0.56857 0.24997 0.45138 0.0
C762 C 0.52654 0.35519 0.49864 0.0
C763 C 0.53418 0.3034 0.46607 0.0
C764 C 0.51892 0.38755 0.49883 0.0
C765 C 0.50672 0.40034 0.47007 0.0
C766 C 0.52139 0.33564 0.46965 0.0
C767 C 0.50029 0.37951 0.44231 0.0
C768 C 0.52519 0.28278 0.43867 0.0
C769 C 0.57498 0.26948 0.48024 0.0
N770 N 0.50791 0.34828 0.44272 0.0
N771 N 0.55825 0.29569 0.48646 0.0
loop_
_geom_bond_atom_site_label_1
_geom_bond_atom_site_label_2
_geom_bond_distance
_geom_bond_site_symmetry_2
_ccdc_geom_bond_type
P0 O11 1.490 . S
P0 C14 1.812 . S
P0 C20 1.803 . S
P0 C26 1.819 . S
H1 C15 0.941 . S
H2 C16 0.939 . S
H3 C18 0.940 . S
H4 C19 0.940 . S
H5 C21 0.939 . S
H6 C22 0.942 . S
H7 C24 0.940 . S
H8 C25 0.939 . S
H9 C27 0.941 . S
H10 C31 0.939 . S
O11 P0 1.490 . S
H12 C28 0.939 . S
H13 C30 0.940 . S
C14 P0 1.812 . S
C14 C15 1.389 . S
C14 C19 1.391 . S
C15 H1 0.941 . S
C15 C14 1.389 . S
C15 C16 1.397 . S
C16 H2 0.939 . S
C16 C15 1.397 . S
C16 C17 1.378 . S
C17 C16 1.378 . S
C17 C18 1.378 . S
C18 H3 0.940 . S
C18 C17 1.378 . S
C18 C19 1.396 . S
C19 H4 0.940 . S
C19 C14 1.391 . S
C19 C18 1.396 . S
C20 P0 1.803 . S
C20 C21 1.378 . S
C20 C25 1.400 . S
C21 H5 0.939 . S
C21 C20 1.378 . S
C21 C22 1.361 . S
C22 H6 0.942 . S
C22 C21 1.361 . S
C22 C23 1.369 . S
C23 C22 1.369 . S
C23 C24 1.404 . S
C24 H7 0.940 . S
C24 C23 1.404 . S
C24 C25 1.389 . S
C25 H8 0.939 . S
C25 C20 1.400 . S
C25 C24 1.389 . S
C26 P0 1.819 . S
C26 C27 1.391 . S
C26 C31 1.391 . S
C27 H9 0.941 . S
C27 C26 1.391 . S
C27 C28 1.396 . S
C28 H12 0.939 . S
C28 C27 1.396 . S
C28 C29 1.397 . S
C29 C28 1.397 . S
C29 C30 1.385 . S
C30 H13 0.940 . S
C30 C29 1.385 . S
C30 C31 1.388 . S
C31 H10 0.939 . S
C31 C26 1.391 . S
C31 C30 1.388 . S
P32 O43 1.490 . S
P32 C46 1.812 . S
P32 C52 1.803 . S
P32 C58 1.819 . S
H33 C47 0.941 . S
H34 C48 0.939 . S
H35 C50 0.940 . S
H36 C51 0.940 . S
H37 C53 0.939 . S
H38 C54 0.942 . S
H39 C56 0.940 . S
H40 C57 0.939 . S
H41 C59 0.941 . S
H42 C63 0.939 . S
O43 P32 1.490 . S
H44 C60 0.939 . S
H45 C62 0.940 . S
C46 P32 1.812 . S
C46 C47 1.389 . S
C46 C51 1.391 . S
C47 H33 0.941 . S
C47 C46 1.389 . S
C47 C48 1.397 . S
C48 H34 0.939 . S
C48 C47 1.397 . S
C48 C49 1.378 . S
C49 C48 1.378 . S
C49 C50 1.378 . S
C50 H35 0.940 . S
C50 C49 1.378 . S
C50 C51 1.396 . S
C51 H36 0.940 . S
C51 C46 1.391 . S
C51 C50 1.396 . S
C52 P32 1.803 . S
C52 C53 1.378 . S
C52 C57 1.400 . S
C53 H37 0.939 . S
C53 C52 1.378 . S
C53 C54 1.361 . S
C54 H38 0.942 . S
C54 C53 1.361 . S
C54 C55 1.369 . S
C55 C54 1.369 . S
C55 C56 1.404 . S
C56 H39 0.940 . S
C56 C55 1.404 . S
C56 C57 1.389 . S
C57 H40 0.939 . S
C57 C52 1.400 . S
C57 C56 1.389 . S
C58 P32 1.819 . S
C58 C59 1.391 . S
C58 C63 1.391 . S
C59 H41 0.941 . S
C59 C58 1.391 . S
C59 C60 1.396 . S
C60 H44 0.939 . S
C60 C59 1.396 . S
C60 C61 1.397 . S
C61 C60 1.397 . S
C61 C62 1.385 . S
C62 H45 0.940 . S
C62 C61 1.385 . S
C62 C63 1.388 . S
C63 H42 0.939 . S
C63 C58 1.391 . S
C63 C62 1.388 . S
P64 O75 1.490 . S
P64 C78 1.812 . S
P64 C84 1.803 . S
P64 C90 1.819 . S
H65 C79 0.941 . S
H66 C80 0.939 . S
H67 C82 0.940 . S
H68 C83 0.940 . S
H69 C85 0.939 . S
H70 C86 0.942 . S
H71 C88 0.940 . S
H72 C89 0.939 . S
H73 C91 0.941 . S
H74 C95 0.939 . S
O75 P64 1.490 . S
H76 C92 0.939 . S
H77 C94 0.940 . S
C78 P64 1.812 . S
C78 C79 1.389 . S
C78 C83 1.391 . S
C79 H65 0.941 . S
C79 C78 1.389 . S
C79 C80 1.397 . S
C80 H66 0.939 . S
C80 C79 1.397 . S
C80 C81 1.378 . S
C81 C80 1.378 . S
C81 C82 1.378 . S
C82 H67 0.940 . S
C82 C81 1.378 . S
C82 C83 1.396 . S
C83 H68 0.940 . S
C83 C78 1.391 . S
C83 C82 1.396 . S
C84 P64 1.803 . S
C84 C85 1.378 . S
C84 C89 1.400 . S
C85 H69 0.939 . S
C85 C84 1.378 . S
C85 C86 1.361 . S
C86 H70 0.942 . S
C86 C85 1.361 . S
C86 C87 1.369 . S
C87 C86 1.369 . S
C87 C88 1.404 . S
C88 H71 0.940 . S
C88 C87 1.404 . S
C88 C89 1.389 . S
C89 H72 0.939 . S
C89 C84 1.400 . S
C89 C88 1.389 . S
C90 P64 1.819 . S
C90 C91 1.391 . S
C90 C95 1.391 . S
C91 H73 0.941 . S
C91 C90 1.391 . S
C91 C92 1.396 . S
C92 H76 0.939 . S
C92 C91 1.396 . S
C92 C93 1.397 . S
C93 C92 1.397 . S
C93 C94 1.385 . S
C94 H77 0.940 . S
C94 C93 1.385 . S
C94 C95 1.388 . S
C95 H74 0.939 . S
C95 C90 1.391 . S
C95 C94 1.388 . S
P96 O107 1.490 . S
P96 C110 1.812 . S
P96 C116 1.803 . S
P96 C122 1.819 . S
H97 C111 0.941 . S
H98 C112 0.939 . S
H99 C114 0.940 . S
H100 C115 0.940 . S
H101 C117 0.939 . S
H102 C118 0.942 . S
H103 C120 0.940 . S
H104 C121 0.939 . S
H105 C123 0.941 . S
H106 C127 0.939 . S
O107 P96 1.490 . S
H108 C124 0.939 . S
H109 C126 0.940 . S
C110 P96 1.812 . S
C110 C111 1.389 . S
C110 C115 1.391 . S
C111 H97 0.941 . S
C111 C110 1.389 . S
C111 C112 1.397 . S
C112 H98 0.939 . S
C112 C111 1.397 . S
C112 C113 1.378 . S
C113 C112 1.378 . S
C113 C114 1.378 . S
C114 H99 0.940 . S
C114 C113 1.378 . S
C114 C115 1.396 . S
C115 H100 0.940 . S
C115 C110 1.391 . S
C115 C114 1.396 . S
C116 P96 1.803 . S
C116 C117 1.378 . S
C116 C121 1.400 . S
C117 H101 0.939 . S
C117 C116 1.378 . S
C117 C118 1.361 . S
C118 H102 0.942 . S
C118 C117 1.361 . S
C118 C119 1.369 . S
C119 C118 1.369 . S
C119 C120 1.404 . S
C120 H103 0.940 . S
C120 C119 1.404 . S
C120 C121 1.389 . S
C121 H104 0.939 . S
C121 C116 1.400 . S
C121 C120 1.389 . S
C122 P96 1.819 . S
C122 C123 1.391 . S
C122 C127 1.391 . S
C123 H105 0.941 . S
C123 C122 1.391 . S
C123 C124 1.396 . S
C124 H108 0.939 . S
C124 C123 1.396 . S
C124 C125 1.397 . S
C125 C124 1.397 . S
C125 C126 1.385 . S
C126 H109 0.940 . S
C126 C125 1.385 . S
C126 C127 1.388 . S
C127 H106 0.939 . S
C127 C122 1.391 . S
C127 C126 1.388 . S
P128 O139 1.490 . S
P128 C142 1.812 . S
P128 C148 1.803 . S
P128 C154 1.819 . S
H129 C143 0.941 . S
H130 C144 0.939 . S
H131 C146 0.940 . S
H132 C147 0.940 . S
H133 C149 0.939 . S
H134 C150 0.942 . S
H135 C152 0.940 . S
H136 C153 0.939 . S
H137 C155 0.941 . S
H138 C159 0.939 . S
O139 P128 1.490 . S
H140 C156 0.939 . S
H141 C158 0.940 . S
C142 P128 1.812 . S
C142 C143 1.389 . S
C142 C147 1.391 . S
C143 H129 0.941 . S
C143 C142 1.389 . S
C143 C144 1.397 . S
C144 H130 0.939 . S
C144 C143 1.397 . S
C144 C145 1.378 . S
C145 C144 1.378 . S
C145 C146 1.378 . S
C146 H131 0.940 . S
C146 C145 1.378 . S
C146 C147 1.396 . S
C147 H132 0.940 . S
C147 C142 1.391 . S
C147 C146 1.396 . S
C148 P128 1.803 . S
C148 C149 1.378 . S
C148 C153 1.400 . S
C149 H133 0.939 . S
C149 C148 1.378 . S
C149 C150 1.361 . S
C150 H134 0.942 . S
C150 C149 1.361 . S
C150 C151 1.369 . S
C151 C150 1.369 . S
C151 C152 1.404 . S
C152 H135 0.940 . S
C152 C151 1.404 . S
C152 C153 1.389 . S
C153 H136 0.939 . S
C153 C148 1.400 . S
C153 C152 1.389 . S
C154 P128 1.819 . S
C154 C155 1.391 . S
C154 C159 1.391 . S
C155 H137 0.941 . S
C155 C154 1.391 . S
C155 C156 1.396 . S
C156 H140 0.939 . S
C156 C155 1.396 . S
C156 C157 1.397 . S
C157 C156 1.397 . S
C157 C158 1.385 . S
C158 H141 0.940 . S
C158 C157 1.385 . S
C158 C159 1.388 . S
C159 H138 0.939 . S
C159 C154 1.391 . S
C159 C158 1.388 . S
P160 O171 1.490 . S
P160 C174 1.812 . S
P160 C180 1.803 . S
P160 C186 1.819 . S
H161 C175 0.941 . S
H162 C176 0.939 . S
H163 C178 0.940 . S
H164 C179 0.940 . S
H165 C181 0.939 . S
H166 C182 0.942 . S
H167 C184 0.940 . S
H168 C185 0.939 . S
H169 C187 0.941 . S
H170 C191 0.939 . S
O171 P160 1.490 . S
H172 C188 0.939 . S
H173 C190 0.940 . S
C174 P160 1.812 . S
C174 C175 1.389 . S
C174 C179 1.391 . S
C175 H161 0.941 . S
C175 C174 1.389 . S
C175 C176 1.397 . S
C176 H162 0.939 . S
C176 C175 1.397 . S
C176 C177 1.378 . S
C177 C176 1.378 . S
C177 C178 1.378 . S
C178 H163 0.940 . S
C178 C177 1.378 . S
C178 C179 1.396 . S
C179 H164 0.940 . S
C179 C174 1.391 . S
C179 C178 1.396 . S
C180 P160 1.803 . S
C180 C181 1.378 . S
C180 C185 1.400 . S
C181 H165 0.939 . S
C181 C180 1.378 . S
C181 C182 1.361 . S
C182 H166 0.942 . S
C182 C181 1.361 . S
C182 C183 1.369 . S
C183 C182 1.369 . S
C183 C184 1.404 . S
C184 H167 0.940 . S
C184 C183 1.404 . S
C184 C185 1.389 . S
C185 H168 0.939 . S
C185 C180 1.400 . S
C185 C184 1.389 . S
C186 P160 1.819 . S
C186 C187 1.391 . S
C186 C191 1.391 . S
C187 H169 0.941 . S
C187 C186 1.391 . S
C187 C188 1.396 . S
C188 H172 0.939 . S
C188 C187 1.396 . S
C188 C189 1.397 . S
C189 C188 1.397 . S
C189 C190 1.385 . S
C190 H173 0.940 . S
C190 C189 1.385 . S
C190 C191 1.388 . S
C191 H170 0.939 . S
C191 C186 1.391 . S
C191 C190 1.388 . S
P192 O203 1.490 . S
P192 C206 1.812 . S
P192 C212 1.803 . S
P192 C218 1.819 . S
H193 C207 0.941 . S
H194 C208 0.939 . S
H195 C210 0.940 . S
H196 C211 0.940 . S
H197 C213 0.939 . S
H198 C214 0.942 . S
H199 C216 0.940 . S
H200 C217 0.939 . S
H201 C219 0.941 . S
H202 C223 0.939 . S
O203 P192 1.490 . S
H204 C220 0.939 . S
H205 C222 0.940 . S
C206 P192 1.812 . S
C206 C207 1.389 . S
C206 C211 1.391 . S
C207 H193 0.941 . S
C207 C206 1.389 . S
C207 C208 1.397 . S
C208 H194 0.939 . S
C208 C207 1.397 . S
C208 C209 1.378 . S
C209 C208 1.378 . S
C209 C210 1.378 . S
C210 H195 0.940 . S
C210 C209 1.378 . S
C210 C211 1.396 . S
C211 H196 0.940 . S
C211 C206 1.391 . S
C211 C210 1.396 . S
C212 P192 1.803 . S
C212 C213 1.378 . S
C212 C217 1.400 . S
C213 H197 0.939 . S
C213 C212 1.378 . S
C213 C214 1.361 . S
C214 H198 0.942 . S
C214 C213 1.361 . S
C214 C215 1.369 . S
C215 C214 1.369 . S
C215 C216 1.404 . S
C216 H199 0.940 . S
C216 C215 1.404 . S
C216 C217 1.389 . S
C217 H200 0.939 . S
C217 C212 1.400 . S
C217 C216 1.389 . S
C218 P192 1.819 . S
C218 C219 1.391 . S
C218 C223 1.391 . S
C219 H201 0.941 . S
C219 C218 1.391 . S
C219 C220 1.396 . S
C220 H204 0.939 . S
C220 C219 1.396 . S
C220 C221 1.397 . S
C221 C220 1.397 . S
C221 C222 1.385 . S
C222 H205 0.940 . S
C222 C221 1.385 . S
C222 C223 1.388 . S
C223 H202 0.939 . S
C223 C218 1.391 . S
C223 C222 1.388 . S
P224 O235 1.490 . S
P224 C238 1.812 . S
P224 C244 1.803 . S
P224 C250 1.819 . S
H225 C239 0.941 . S
H226 C240 0.939 . S
H227 C242 0.940 . S
H228 C243 0.940 . S
H229 C245 0.939 . S
H230 C246 0.942 . S
H231 C248 0.940 . S
H232 C249 0.939 . S
H233 C251 0.941 . S
H234 C255 0.939 . S
O235 P224 1.490 . S
H236 C252 0.939 . S
H237 C254 0.940 . S
C238 P224 1.812 . S
C238 C239 1.389 . S
C238 C243 1.391 . S
C239 H225 0.941 . S
C239 C238 1.389 . S
C239 C240 1.397 . S
C240 H226 0.939 . S
C240 C239 1.397 . S
C240 C241 1.378 . S
C241 C240 1.378 . S
C241 C242 1.378 . S
C242 H227 0.940 . S
C242 C241 1.378 . S
C242 C243 1.396 . S
C243 H228 0.940 . S
C243 C238 1.391 . S
C243 C242 1.396 . S
C244 P224 1.803 . S
C244 C245 1.378 . S
C244 C249 1.400 . S
C245 H229 0.939 . S
C245 C244 1.378 . S
C245 C246 1.361 . S
C246 H230 0.942 . S
C246 C245 1.361 . S
C246 C247 1.369 . S
C247 C246 1.369 . S
C247 C248 1.404 . S
C248 H231 0.940 . S
C248 C247 1.404 . S
C248 C249 1.389 . S
C249 H232 0.939 . S
C249 C244 1.400 . S
C249 C248 1.389 . S
C250 P224 1.819 . S
C250 C251 1.391 . S
C250 C255 1.391 . S
C251 H233 0.941 . S
C251 C250 1.391 . S
C251 C252 1.396 . S
C252 H236 0.939 . S
C252 C251 1.396 . S
C252 C253 1.397 . S
C253 C252 1.397 . S
C253 C254 1.385 . S
C254 H237 0.940 . S
C254 C253 1.385 . S
C254 C255 1.388 . S
C255 H234 0.939 . S
C255 C250 1.391 . S
C255 C254 1.388 . S
O256 Mg257 1.990 . S
O256 C270 1.253 1_445 S
Mg257 O256 1.990 . S
Mg257 O260 2.180 . S
Mg257 O261 2.117 . S
Mg257 O275 2.030 1_545 S
O258 Mg259 2.072 1_665 S
O258 C270 1.260 . S
Mg259 O258 2.072 1_445 S
Mg259 O260 2.099 . S
Mg259 O262 2.079 . S
Mg259 O263 2.072 1_455 S
Mg259 O265 2.099 1_445 S
Mg259 O276 2.079 1_545 S
O260 Mg257 2.180 . S
O260 Mg259 2.099 . S
O260 C271 1.279 . S
O261 Mg257 2.117 . S
O261 C271 1.250 . S
O262 Mg259 2.079 . S
O262 C272 1.264 . S
O263 Mg259 2.072 1_655 S
O263 C273 1.260 . S
Mg264 O265 2.180 . S
Mg264 O266 2.030 1_565 S
Mg264 O267 1.990 1_565 S
Mg264 O268 2.117 . S
O265 Mg259 2.099 1_665 S
O265 Mg264 2.180 . S
O265 C274 1.279 . S
O266 Mg264 2.030 1_545 S
O266 C272 1.248 1_655 S
O267 Mg264 1.990 1_545 S
O267 C273 1.253 . S
O268 Mg264 2.117 . S
O268 C274 1.250 . S
C269 O275 1.248 . S
C269 O276 1.264 . S
C270 O256 1.253 1_665 S
C270 O258 1.260 . S
C271 O260 1.279 . S
C271 O261 1.250 . S
C272 O262 1.264 . S
C272 O266 1.248 1_455 S
C273 O263 1.260 . S
C273 O267 1.253 . S
C274 O265 1.279 . S
C274 O268 1.250 . S
O275 Mg257 2.030 1_565 S
O275 C269 1.248 . S
O276 Mg259 2.079 1_565 S
O276 C269 1.264 . S
O277 Mg278 1.990 . S
O277 C291 1.253 . S
Mg278 O277 1.990 . S
Mg278 O281 2.180 . S
Mg278 O282 2.117 1_554 S
Mg278 O296 2.030 . S
O279 Mg280 2.072 . S
O279 C291 1.260 . S
Mg280 O279 2.072 . S
Mg280 O281 2.099 . S
Mg280 O283 2.079 1_554 S
Mg280 O284 2.072 1_554 S
Mg280 O286 2.099 1_545 S
Mg280 O297 2.079 . S
O281 Mg278 2.180 . S
O281 Mg280 2.099 . S
O281 C292 1.279 1_554 S
O282 Mg278 2.117 1_556 S
O282 C292 1.250 . S
O283 Mg280 2.079 1_556 S
O283 C293 1.264 1_545 S
O284 Mg280 2.072 1_556 S
O284 C294 1.260 1_545 S
Mg285 O286 2.180 1_556 S
Mg285 O287 2.030 . S
Mg285 O288 1.990 . S
Mg285 O289 2.117 1_556 S
O286 Mg280 2.099 1_565 S
O286 Mg285 2.180 1_554 S
O286 C295 1.279 . S
O287 Mg285 2.030 . S
O287 C293 1.248 . S
O288 Mg285 1.990 . S
O288 C294 1.253 . S
O289 Mg285 2.117 1_554 S
O289 C295 1.250 . S
C290 O296 1.248 . S
C290 O297 1.264 . S
C291 O277 1.253 . S
C291 O279 1.260 . S
C292 O281 1.279 1_556 S
C292 O282 1.250 . S
C293 O283 1.264 1_565 S
C293 O287 1.248 . S
C294 O284 1.260 1_565 S
C294 O288 1.253 . S
C295 O286 1.279 . S
C295 O289 1.250 . S
O296 Mg278 2.030 . S
O296 C290 1.248 . S
O297 Mg280 2.079 . S
O297 C290 1.264 . S
O298 Mg299 1.990 . S
O298 C312 1.253 . S
Mg299 O298 1.990 . S
Mg299 O302 2.180 . S
Mg299 O303 2.117 . S
Mg299 O317 2.030 . S
O300 Mg301 2.072 . S
O300 C312 1.260 . S
Mg301 O300 2.072 . S
Mg301 O302 2.099 . S
Mg301 O304 2.079 . S
Mg301 O305 2.072 . S
Mg301 O307 2.099 . S
Mg301 O318 2.079 . S
O302 Mg299 2.180 . S
O302 Mg301 2.099 . S
O302 C313 1.279 . S
O303 Mg299 2.117 . S
O303 C313 1.250 . S
O304 Mg301 2.079 . S
O304 C314 1.264 . S
O305 Mg301 2.072 . S
O305 C315 1.260 . S
Mg306 O307 2.180 . S
Mg306 O308 2.030 . S
Mg306 O309 1.990 . S
Mg306 O310 2.117 . S
O307 Mg301 2.099 . S
O307 Mg306 2.180 . S
O307 C316 1.279 . S
O308 Mg306 2.030 . S
O308 C314 1.248 . S
O309 Mg306 1.990 . S
O309 C315 1.253 . S
O310 Mg306 2.117 . S
O310 C316 1.250 . S
C311 O317 1.248 . S
C311 O318 1.264 . S
C312 O298 1.253 . S
C312 O300 1.260 . S
C313 O302 1.279 . S
C313 O303 1.250 . S
C314 O304 1.264 . S
C314 O308 1.248 . S
C315 O305 1.260 . S
C315 O309 1.253 . S
C316 O307 1.279 . S
C316 O310 1.250 . S
O317 Mg299 2.030 . S
O317 C311 1.248 . S
O318 Mg301 2.079 . S
O318 C311 1.264 . S
O319 Mg320 1.990 . S
O319 C333 1.253 . S
Mg320 O319 1.990 . S
Mg320 O323 2.180 1_455 S
Mg320 O324 2.117 1_455 S
Mg320 O338 2.030 . S
O321 Mg322 2.072 . S
O321 C333 1.260 . S
Mg322 O321 2.072 . S
Mg322 O323 2.099 1_455 S
Mg322 O325 2.079 1_454 S
Mg322 O326 2.072 1_455 S
Mg322 O328 2.099 1_554 S
Mg322 O339 2.079 . S
O323 Mg320 2.180 1_655 S
O323 Mg322 2.099 1_655 S
O323 C334 1.279 . S
O324 Mg320 2.117 1_655 S
O324 C334 1.250 . S
O325 Mg322 2.079 1_656 S
O325 C335 1.264 . S
O326 Mg322 2.072 1_655 S
O326 C336 1.260 1_554 S
Mg327 O328 2.180 1_655 S
Mg327 O329 2.030 . S
Mg327 O330 1.990 . S
Mg327 O331 2.117 . S
O328 Mg322 2.099 1_556 S
O328 Mg327 2.180 1_455 S
O328 C337 1.279 . S
O329 Mg327 2.030 . S
O329 C335 1.248 . S
O330 Mg327 1.990 . S
O330 C336 1.253 . S
O331 Mg327 2.117 . S
O331 C337 1.250 1_655 S
C332 O338 1.248 . S
C332 O339 1.264 . S
C333 O319 1.253 . S
C333 O321 1.260 . S
C334 O323 1.279 . S
C334 O324 1.250 . S
C335 O325 1.264 . S
C335 O329 1.248 . S
C336 O326 1.260 1_556 S
C336 O330 1.253 . S
C337 O328 1.279 . S
C337 O331 1.250 1_455 S
O338 Mg320 2.030 . S
O338 C332 1.248 . S
O339 Mg322 2.079 . S
O339 C332 1.264 . S
H340 C346 0.930 . S
H341 C350 0.930 . S
H342 C355 0.929 . S
H343 C353 0.929 . S
H344 C348 0.929 . S
H345 C354 0.929 . S
C346 H340 0.930 . S
C346 C347 1.367 . S
C346 C354 1.378 . S
C347 C346 1.367 . S
C347 C355 1.433 . S
C348 H344 0.929 . S
C348 C350 1.378 . S
C348 C352 1.350 . S
C349 C352 1.463 . S
C349 C354 1.350 . S
C349 N357 1.427 . S
C350 H341 0.930 . S
C350 C348 1.378 . S
C350 C351 1.367 . S
C351 C350 1.367 . S
C351 C353 1.433 . S
C352 C348 1.350 . S
C352 C349 1.463 . S
C352 N356 1.427 . S
C353 H343 0.929 . S
C353 C351 1.433 . S
C353 N356 1.384 . S
C354 H345 0.929 . S
C354 C346 1.378 . S
C354 C349 1.350 . S
C355 H342 0.929 . S
C355 C347 1.433 . S
C355 N357 1.384 . S
N356 C352 1.427 . S
N356 C353 1.384 . S
N357 C349 1.427 . S
N357 C355 1.384 . S
H358 C364 0.930 . S
H359 C368 0.930 . S
H360 C373 0.929 . S
H361 C371 0.929 . S
H362 C366 0.929 . S
H363 C372 0.929 . S
C364 H358 0.930 . S
C364 C365 1.367 . S
C364 C372 1.378 . S
C365 C364 1.367 . S
C365 C373 1.433 . S
C366 H362 0.929 . S
C366 C368 1.378 . S
C366 C370 1.350 . S
C367 C370 1.463 . S
C367 C372 1.350 . S
C367 N375 1.427 . S
C368 H359 0.930 . S
C368 C366 1.378 . S
C368 C369 1.367 . S
C369 C368 1.367 . S
C369 C371 1.433 1_565 S
C370 C366 1.350 . S
C370 C367 1.463 . S
C370 N374 1.427 . S
C371 H361 0.929 . S
C371 C369 1.433 1_545 S
C371 N374 1.384 1_545 S
C372 H363 0.929 . S
C372 C364 1.378 . S
C372 C367 1.350 . S
C373 H360 0.929 . S
C373 C365 1.433 . S
C373 N375 1.384 . S
N374 C370 1.427 . S
N374 C371 1.384 1_565 S
N375 C367 1.427 . S
N375 C373 1.384 . S
H376 C382 0.930 . S
H377 C386 0.930 . S
H378 C391 0.929 . S
H379 C389 0.929 . S
H380 C384 0.929 . S
H381 C390 0.929 . S
C382 H376 0.930 . S
C382 C383 1.367 . S
C382 C390 1.378 . S
C383 C382 1.367 . S
C383 C391 1.433 . S
C384 H380 0.929 . S
C384 C386 1.378 . S
C384 C388 1.350 . S
C385 C388 1.463 . S
C385 C390 1.350 . S
C385 N393 1.427 . S
C386 H377 0.930 . S
C386 C384 1.378 . S
C386 C387 1.367 . S
C387 C386 1.367 . S
C387 C389 1.433 . S
C388 C384 1.350 . S
C388 C385 1.463 . S
C388 N392 1.427 . S
C389 H379 0.929 . S
C389 C387 1.433 . S
C389 N392 1.384 . S
C390 H381 0.929 . S
C390 C382 1.378 . S
C390 C385 1.350 . S
C391 H378 0.929 . S
C391 C383 1.433 . S
C391 N393 1.384 . S
N392 C388 1.427 . S
N392 C389 1.384 . S
N393 C385 1.427 . S
N393 C391 1.384 . S
H394 C400 0.930 . S
H395 C404 0.930 . S
H396 C409 0.929 . S
H397 C407 0.929 . S
H398 C402 0.929 . S
H399 C408 0.929 . S
C400 H394 0.930 . S
C400 C401 1.367 . S
C400 C408 1.378 . S
C401 C400 1.367 . S
C401 C409 1.433 . S
C402 H398 0.929 . S
C402 C404 1.378 . S
C402 C406 1.350 . S
C403 C406 1.463 . S
C403 C408 1.350 . S
C403 N411 1.427 . S
C404 H395 0.930 . S
C404 C402 1.378 . S
C404 C405 1.367 . S
C405 C404 1.367 . S
C405 C407 1.433 . S
C406 C402 1.350 . S
C406 C403 1.463 . S
C406 N410 1.427 . S
C407 H397 0.929 . S
C407 C405 1.433 . S
C407 N410 1.384 . S
C408 H399 0.929 . S
C408 C400 1.378 . S
C408 C403 1.350 . S
C409 H396 0.929 . S
C409 C401 1.433 . S
C409 N411 1.384 . S
N410 C406 1.427 . S
N410 C407 1.384 . S
N411 C403 1.427 . S
N411 C409 1.384 . S
H412 C418 0.930 . S
H413 C422 0.955 . S
H414 C427 0.929 . S
H415 C425 0.929 . S
H416 C420 0.929 . S
H417 C426 0.929 . S
C418 H412 0.930 . S
C418 C419 1.367 . S
C418 C426 1.378 . S
C419 C418 1.367 . S
C419 C427 1.433 . S
C420 H416 0.929 . S
C420 C422 1.378 . S
C420 C424 1.350 . S
C421 C424 1.463 . S
C421 C426 1.350 . S
C421 N429 1.427 . S
C422 H413 0.955 . S
C422 C420 1.378 . S
C422 C423 1.367 . S
C423 C422 1.367 . S
C423 C425 1.433 . S
C424 C420 1.350 . S
C424 C421 1.463 . S
C424 N428 1.427 . S
C425 H415 0.929 . S
C425 C423 1.433 . S
C425 N428 1.384 . S
C426 H417 0.929 . S
C426 C418 1.378 . S
C426 C421 1.350 . S
C427 H414 0.929 . S
C427 C419 1.433 . S
C427 N429 1.384 . S
N428 C424 1.427 . S
N428 C425 1.384 . S
N429 C421 1.427 . S
N429 C427 1.384 . S
H430 C436 0.930 . S
H431 C440 0.930 . S
H432 C445 0.929 . S
H433 C443 0.929 . S
H434 C438 0.929 . S
H435 C444 0.929 . S
C436 H430 0.930 . S
C436 C437 1.367 . S
C436 C444 1.378 . S
C437 C436 1.367 . S
C437 C445 1.433 . S
C438 H434 0.929 . S
C438 C440 1.378 . S
C438 C442 1.350 . S
C439 C442 1.463 . S
C439 C444 1.350 . S
C439 N447 1.427 . S
C440 H431 0.930 . S
C440 C438 1.378 . S
C440 C441 1.367 . S
C441 C440 1.367 . S
C441 C443 1.433 . S
C442 C438 1.350 . S
C442 C439 1.463 . S
C442 N446 1.427 . S
C443 H433 0.929 . S
C443 C441 1.433 . S
C443 N446 1.384 . S
C444 H435 0.929 . S
C444 C436 1.378 . S
C444 C439 1.350 . S
C445 H432 0.929 . S
C445 C437 1.433 . S
C445 N447 1.384 . S
N446 C442 1.427 . S
N446 C443 1.384 . S
N447 C439 1.427 . S
N447 C445 1.384 . S
H448 C454 0.930 . S
H449 C458 0.930 . S
H450 C463 0.929 . S
H451 C461 0.929 . S
H452 C456 0.929 . S
H453 C462 0.929 . S
C454 H448 0.930 . S
C454 C455 1.367 . S
C454 C462 1.378 . S
C455 C454 1.367 . S
C455 C463 1.433 . S
C456 H452 0.929 . S
C456 C458 1.378 . S
C456 C460 1.350 . S
C457 C460 1.463 . S
C457 C462 1.350 . S
C457 N465 1.427 . S
C458 H449 0.930 . S
C458 C456 1.378 . S
C458 C459 1.367 . S
C459 C458 1.367 . S
C459 C461 1.433 . S
C460 C456 1.350 . S
C460 C457 1.463 . S
C460 N464 1.427 . S
C461 H451 0.929 . S
C461 C459 1.433 . S
C461 N464 1.384 . S
C462 H453 0.929 . S
C462 C454 1.378 . S
C462 C457 1.350 . S
C463 H450 0.929 . S
C463 C455 1.433 . S
C463 N465 1.384 . S
N464 C460 1.427 . S
N464 C461 1.384 . S
N465 C457 1.427 . S
N465 C463 1.384 . S
H466 C472 0.930 . S
H467 C476 0.930 . S
H468 C481 0.929 . S
H469 C479 0.929 . S
H470 C474 0.929 . S
H471 C480 0.929 . S
C472 H466 0.930 . S
C472 C473 1.367 . S
C472 C480 1.378 . S
C473 C472 1.367 . S
C473 C481 1.433 . S
C474 H470 0.929 . S
C474 C476 1.378 . S
C474 C478 1.350 . S
C475 C478 1.463 . S
C475 C480 1.350 . S
C475 N483 1.427 . S
C476 H467 0.930 . S
C476 C474 1.378 . S
C476 C477 1.367 . S
C477 C476 1.367 . S
C477 C479 1.433 . S
C478 C474 1.350 . S
C478 C475 1.463 . S
C478 N482 1.427 . S
C479 H469 0.929 . S
C479 C477 1.433 . S
C479 N482 1.384 . S
C480 H471 0.929 . S
C480 C472 1.378 . S
C480 C475 1.350 . S
C481 H468 0.929 . S
C481 C473 1.433 . S
C481 N483 1.384 . S
N482 C478 1.427 . S
N482 C479 1.384 . S
N483 C475 1.427 . S
N483 C481 1.384 . S
H484 C490 0.930 . S
H485 C494 0.930 . S
H486 C499 0.929 . S
H487 C497 0.929 1_556 S
H488 C492 0.929 . S
H489 C498 0.929 . S
C490 H484 0.930 . S
C490 C491 1.367 . S
C490 C498 1.378 . S
C491 C490 1.367 . S
C491 C499 1.433 . S
C492 H488 0.929 . S
C492 C494 1.378 . S
C492 C496 1.350 . S
C493 C496 1.463 . S
C493 C498 1.350 . S
C493 N501 1.427 . S
C494 H485 0.930 . S
C494 C492 1.378 . S
C494 C495 1.367 . S
C495 C494 1.367 . S
C495 C497 1.433 . S
C496 C492 1.350 . S
C496 C493 1.463 . S
C496 N500 1.427 . S
C497 H487 0.929 1_554 S
C497 C495 1.433 . S
C497 N500 1.384 . S
C498 H489 0.929 . S
C498 C490 1.378 . S
C498 C493 1.350 . S
C499 H486 0.929 . S
C499 C491 1.433 . S
C499 N501 1.384 . S
N500 C496 1.427 . S
N500 C497 1.384 . S
N501 C493 1.427 . S
N501 C499 1.384 . S
H502 C508 0.930 . S
H503 C512 0.930 . S
H504 C517 0.929 . S
H505 C515 0.929 . S
H506 C510 0.929 . S
H507 C516 0.929 . S
C508 H502 0.930 . S
C508 C509 1.367 . S
C508 C516 1.378 . S
C509 C508 1.367 . S
C509 C517 1.433 . S
C510 H506 0.929 . S
C510 C512 1.378 . S
C510 C514 1.350 . S
C511 C514 1.463 . S
C511 C516 1.350 . S
C511 N519 1.427 . S
C512 H503 0.930 . S
C512 C510 1.378 . S
C512 C513 1.367 . S
C513 C512 1.367 . S
C513 C515 1.433 . S
C514 C510 1.350 . S
C514 C511 1.463 . S
C514 N518 1.427 . S
C515 H505 0.929 . S
C515 C513 1.433 . S
C515 N518 1.384 . S
C516 H507 0.929 . S
C516 C508 1.378 . S
C516 C511 1.350 . S
C517 H504 0.929 . S
C517 C509 1.433 . S
C517 N519 1.384 . S
N518 C514 1.427 . S
N518 C515 1.384 . S
N519 C511 1.427 . S
N519 C517 1.384 . S
H520 C526 0.930 . S
H521 C530 0.930 1_455 S
H522 C535 0.929 . S
H523 C533 0.929 . S
H524 C528 0.929 . S
H525 C534 0.929 . S
C526 H520 0.930 . S
C526 C527 1.367 . S
C526 C534 1.378 . S
C527 C526 1.367 . S
C527 C535 1.433 . S
C528 H524 0.929 . S
C528 C530 1.378 . S
C528 C532 1.350 . S
C529 C532 1.463 . S
C529 C534 1.350 . S
C529 N537 1.427 . S
C530 H521 0.930 1_655 S
C530 C528 1.378 . S
C530 C531 1.367 . S
C531 C530 1.367 . S
C531 C533 1.433 . S
C532 C528 1.350 . S
C532 C529 1.463 . S
C532 N536 1.427 . S
C533 H523 0.929 . S
C533 C531 1.433 . S
C533 N536 1.384 . S
C534 H525 0.929 . S
C534 C526 1.378 . S
C534 C529 1.350 . S
C535 H522 0.929 . S
C535 C527 1.433 . S
C535 N537 1.384 . S
N536 C532 1.427 . S
N536 C533 1.384 . S
N537 C529 1.427 . S
N537 C535 1.384 . S
H538 C544 0.930 . S
H539 C548 0.930 . S
H540 C553 0.929 . S
H541 C551 0.929 . S
H542 C546 0.929 . S
H543 C552 0.929 . S
C544 H538 0.930 . S
C544 C545 1.367 . S
C544 C552 1.378 . S
C545 C544 1.367 . S
C545 C553 1.433 . S
C546 H542 0.929 . S
C546 C548 1.378 . S
C546 C550 1.350 . S
C547 C550 1.463 . S
C547 C552 1.350 . S
C547 N555 1.427 . S
C548 H539 0.930 . S
C548 C546 1.378 . S
C548 C549 1.367 . S
C549 C548 1.367 . S
C549 C551 1.433 . S
C550 C546 1.350 . S
C550 C547 1.463 . S
C550 N554 1.427 . S
C551 H541 0.929 . S
C551 C549 1.433 . S
C551 N554 1.384 . S
C552 H543 0.929 . S
C552 C544 1.378 . S
C552 C547 1.350 . S
C553 H540 0.929 . S
C553 C545 1.433 . S
C553 N555 1.384 . S
N554 C550 1.427 . S
N554 C551 1.384 . S
N555 C547 1.427 . S
N555 C553 1.384 . S
H556 C562 0.930 . S
H557 C566 0.930 . S
H558 C571 0.929 . S
H559 C569 0.929 1_545 S
H560 C564 0.929 . S
H561 C570 0.929 . S
C562 H556 0.930 . S
C562 C563 1.367 . S
C562 C570 1.378 . S
C563 C562 1.367 . S
C563 C571 1.433 . S
C564 H560 0.929 . S
C564 C566 1.378 . S
C564 C568 1.350 . S
C565 C568 1.463 . S
C565 C570 1.350 . S
C565 N573 1.427 . S
C566 H557 0.930 . S
C566 C564 1.378 . S
C566 C567 1.367 . S
C567 C566 1.367 . S
C567 C569 1.433 . S
C568 C564 1.350 . S
C568 C565 1.463 . S
C568 N572 1.427 . S
C569 H559 0.929 1_565 S
C569 C567 1.433 . S
C569 N572 1.384 . S
C570 H561 0.929 . S
C570 C562 1.378 . S
C570 C565 1.350 . S
C571 H558 0.929 . S
C571 C563 1.433 . S
C571 N573 1.384 . S
N572 C568 1.427 . S
N572 C569 1.384 . S
N573 C565 1.427 . S
N573 C571 1.384 . S
H574 C580 0.930 . S
H575 C584 0.930 . S
H576 C589 0.929 . S
H577 C587 0.929 . S
H578 C582 0.929 . S
H579 C588 0.929 . S
C580 H574 0.930 . S
C580 C581 1.367 . S
C580 C588 1.378 . S
C581 C580 1.367 . S
C581 C589 1.433 . S
C582 H578 0.929 . S
C582 C584 1.378 . S
C582 C586 1.350 . S
C583 C586 1.463 . S
C583 C588 1.350 . S
C583 N591 1.427 . S
C584 H575 0.930 . S
C584 C582 1.378 . S
C584 C585 1.367 . S
C585 C584 1.367 . S
C585 C587 1.433 . S
C586 C582 1.350 . S
C586 C583 1.463 . S
C586 N590 1.427 . S
C587 H577 0.929 . S
C587 C585 1.433 . S
C587 N590 1.384 . S
C588 H579 0.929 . S
C588 C580 1.378 . S
C588 C583 1.350 . S
C589 H576 0.929 . S
C589 C581 1.433 . S
C589 N591 1.384 . S
N590 C586 1.427 . S
N590 C587 1.384 . S
N591 C583 1.427 . S
N591 C589 1.384 . S
H592 C598 0.930 . S
H593 C602 0.930 . S
H594 C607 0.929 . S
H595 C605 0.929 . S
H596 C600 0.929 . S
H597 C606 0.929 . S
C598 H592 0.930 . S
C598 C599 1.367 . S
C598 C606 1.378 . S
C599 C598 1.367 . S
C599 C607 1.433 . S
C600 H596 0.929 . S
C600 C602 1.378 . S
C600 C604 1.350 . S
C601 C604 1.463 . S
C601 C606 1.350 . S
C601 N609 1.427 . S
C602 H593 0.930 . S
C602 C600 1.378 . S
C602 C603 1.367 . S
C603 C602 1.367 . S
C603 C605 1.433 . S
C604 C600 1.350 . S
C604 C601 1.463 . S
C604 N608 1.427 . S
C605 H595 0.929 . S
C605 C603 1.433 . S
C605 N608 1.384 . S
C606 H597 0.929 . S
C606 C598 1.378 . S
C606 C601 1.350 . S
C607 H594 0.929 . S
C607 C599 1.433 . S
C607 N609 1.384 . S
N608 C604 1.427 . S
N608 C605 1.384 . S
N609 C601 1.427 . S
N609 C607 1.384 . S
H610 C616 0.930 . S
H611 C620 0.930 . S
H612 C625 0.929 . S
H613 C623 0.929 1_655 S
H614 C618 0.929 . S
H615 C624 0.929 . S
C616 H610 0.930 . S
C616 C617 1.367 . S
C616 C624 1.378 . S
C617 C616 1.367 . S
C617 C625 1.433 . S
C618 H614 0.929 . S
C618 C620 1.378 . S
C618 C622 1.350 . S
C619 C622 1.463 . S
C619 C624 1.350 . S
C619 N627 1.427 . S
C620 H611 0.930 . S
C620 C618 1.378 . S
C620 C621 1.367 . S
C621 C620 1.367 . S
C621 C623 1.433 . S
C622 C618 1.350 . S
C622 C619 1.463 . S
C622 N626 1.427 . S
C623 H613 0.929 1_455 S
C623 C621 1.433 . S
C623 N626 1.384 . S
C624 H615 0.929 . S
C624 C616 1.378 . S
C624 C619 1.350 . S
C625 H612 0.929 . S
C625 C617 1.433 . S
C625 N627 1.384 . S
N626 C622 1.427 . S
N626 C623 1.384 . S
N627 C619 1.427 . S
N627 C625 1.384 . S
H628 C634 0.930 . S
H629 C638 0.930 1_554 S
H630 C643 0.929 . S
H631 C641 0.929 . S
H632 C636 0.929 1_554 S
H633 C642 0.929 . S
C634 H628 0.930 . S
C634 C635 1.367 . S
C634 C642 1.378 . S
C635 C634 1.367 . S
C635 C643 1.433 . S
C636 H632 0.929 1_556 S
C636 C638 1.378 . S
C636 C640 1.350 . S
C637 C640 1.463 . S
C637 C642 1.350 . S
C637 N645 1.427 . S
C638 H629 0.930 1_556 S
C638 C636 1.378 . S
C638 C639 1.367 . S
C639 C638 1.367 . S
C639 C641 1.433 . S
C640 C636 1.350 . S
C640 C637 1.463 . S
C640 N644 1.427 . S
C641 H631 0.929 . S
C641 C639 1.433 . S
C641 N644 1.384 . S
C642 H633 0.929 . S
C642 C634 1.378 . S
C642 C637 1.350 . S
C643 H630 0.929 . S
C643 C635 1.433 . S
C643 N645 1.384 . S
N644 C640 1.427 . S
N644 C641 1.384 . S
N645 C637 1.427 . S
N645 C643 1.384 . S
H646 C652 0.930 . S
H647 C656 0.930 . S
H648 C661 0.929 . S
H649 C659 0.929 . S
H650 C654 0.929 . S
H651 C660 0.929 . S
C652 H646 0.930 . S
C652 C653 1.367 . S
C652 C660 1.378 . S
C653 C652 1.367 . S
C653 C661 1.433 . S
C654 H650 0.929 . S
C654 C656 1.378 . S
C654 C658 1.350 . S
C655 C658 1.463 . S
C655 C660 1.350 . S
C655 N663 1.427 . S
C656 H647 0.930 . S
C656 C654 1.378 . S
C656 C657 1.367 . S
C657 C656 1.367 . S
C657 C659 1.433 . S
C658 C654 1.350 . S
C658 C655 1.463 . S
C658 N662 1.427 . S
C659 H649 0.929 . S
C659 C657 1.433 . S
C659 N662 1.384 . S
C660 H651 0.929 . S
C660 C652 1.378 . S
C660 C655 1.350 . S
C661 H648 0.929 . S
C661 C653 1.433 . S
C661 N663 1.384 . S
N662 C658 1.427 . S
N662 C659 1.384 . S
N663 C655 1.427 . S
N663 C661 1.384 . S
H664 C670 0.930 . S
H665 C674 0.930 . S
H666 C679 0.929 . S
H667 C677 0.929 . S
H668 C672 0.929 . S
H669 C678 0.929 . S
C670 H664 0.930 . S
C670 C671 1.367 . S
C670 C678 1.378 . S
C671 C670 1.367 . S
C671 C679 1.433 . S
C672 H668 0.929 . S
C672 C674 1.378 . S
C672 C676 1.350 . S
C673 C676 1.463 . S
C673 C678 1.350 . S
C673 N681 1.427 . S
C674 H665 0.930 . S
C674 C672 1.378 . S
C674 C675 1.367 . S
C675 C674 1.367 . S
C675 C677 1.433 . S
C676 C672 1.350 . S
C676 C673 1.463 . S
C676 N680 1.427 . S
C677 H667 0.929 . S
C677 C675 1.433 . S
C677 N680 1.384 . S
C678 H669 0.929 . S
C678 C670 1.378 . S
C678 C673 1.350 . S
C679 H666 0.929 . S
C679 C671 1.433 . S
C679 N681 1.384 . S
N680 C676 1.427 . S
N680 C677 1.384 . S
N681 C673 1.427 . S
N681 C679 1.384 . S
H682 C688 0.930 . S
H683 C692 0.930 . S
H684 C697 0.929 . S
H685 C695 0.929 . S
H686 C690 0.929 . S
H687 C696 0.929 . S
C688 H682 0.930 . S
C688 C689 1.367 . S
C688 C696 1.378 . S
C689 C688 1.367 . S
C689 C697 1.433 . S
C690 H686 0.929 . S
C690 C692 1.378 . S
C690 C694 1.350 . S
C691 C694 1.463 . S
C691 C696 1.350 . S
C691 N699 1.427 . S
C692 H683 0.930 . S
C692 C690 1.378 . S
C692 C693 1.367 . S
C693 C692 1.367 . S
C693 C695 1.433 . S
C694 C690 1.350 . S
C694 C691 1.463 . S
C694 N698 1.427 . S
C695 H685 0.929 . S
C695 C693 1.433 . S
C695 N698 1.384 . S
C696 H687 0.929 . S
C696 C688 1.378 . S
C696 C691 1.350 . S
C697 H684 0.929 . S
C697 C689 1.433 . S
C697 N699 1.384 . S
N698 C694 1.427 . S
N698 C695 1.384 . S
N699 C691 1.427 . S
N699 C697 1.384 . S
H700 C706 0.930 . S
H701 C710 0.930 1_455 S
H702 C715 0.929 . S
H703 C713 0.929 . S
H704 C708 0.929 . S
H705 C714 0.929 . S
C706 H700 0.930 . S
C706 C707 1.367 . S
C706 C714 1.378 . S
C707 C706 1.367 . S
C707 C715 1.433 . S
C708 H704 0.929 . S
C708 C710 1.378 . S
C708 C712 1.350 . S
C709 C712 1.463 . S
C709 C714 1.350 . S
C709 N717 1.427 . S
C710 H701 0.930 1_655 S
C710 C708 1.378 . S
C710 C711 1.367 . S
C711 C710 1.367 . S
C711 C713 1.433 . S
C712 C708 1.350 . S
C712 C709 1.463 . S
C712 N716 1.427 . S
C713 H703 0.929 . S
C713 C711 1.433 . S
C713 N716 1.384 . S
C714 H705 0.929 . S
C714 C706 1.378 . S
C714 C709 1.350 . S
C715 H702 0.929 . S
C715 C707 1.433 . S
C715 N717 1.384 . S
N716 C712 1.427 . S
N716 C713 1.384 . S
N717 C709 1.427 . S
N717 C715 1.384 . S
H718 C724 0.930 . S
H719 C728 0.930 . S
H720 C733 0.929 . S
H721 C731 0.929 . S
H722 C726 0.929 . S
H723 C732 0.929 . S
C724 H718 0.930 . S
C724 C725 1.367 . S
C724 C732 1.378 . S
C725 C724 1.367 . S
C725 C733 1.433 . S
C726 H722 0.929 . S
C726 C728 1.378 . S
C726 C730 1.350 . S
C727 C730 1.463 . S
C727 C732 1.350 . S
C727 N735 1.427 . S
C728 H719 0.930 . S
C728 C726 1.378 . S
C728 C729 1.367 . S
C729 C728 1.367 . S
C729 C731 1.433 . S
C730 C726 1.350 . S
C730 C727 1.463 . S
C730 N734 1.427 . S
C731 H721 0.929 . S
C731 C729 1.433 . S
C731 N734 1.384 . S
C732 H723 0.929 . S
C732 C724 1.378 . S
C732 C727 1.350 . S
C733 H720 0.929 . S
C733 C725 1.433 . S
C733 N735 1.384 . S
N734 C730 1.427 . S
N734 C731 1.384 . S
N735 C727 1.427 . S
N735 C733 1.384 . S
H736 C742 0.930 . S
H737 C746 0.930 1_655 S
H738 C751 0.929 . S
H739 C749 0.929 . S
H740 C744 0.929 1_655 S
H741 C750 0.929 . S
C742 H736 0.930 . S
C742 C743 1.367 . S
C742 C750 1.378 . S
C743 C742 1.367 . S
C743 C751 1.433 . S
C744 H740 0.929 1_455 S
C744 C746 1.378 . S
C744 C748 1.350 . S
C745 C748 1.463 . S
C745 C750 1.350 . S
C745 N753 1.427 . S
C746 H737 0.930 1_455 S
C746 C744 1.378 . S
C746 C747 1.367 . S
C747 C746 1.367 . S
C747 C749 1.433 . S
C748 C744 1.350 . S
C748 C745 1.463 . S
C748 N752 1.427 . S
C749 H739 0.929 . S
C749 C747 1.433 . S
C749 N752 1.384 . S
C750 H741 0.929 . S
C750 C742 1.378 . S
C750 C745 1.350 . S
C751 H738 0.929 . S
C751 C743 1.433 . S
C751 N753 1.384 . S
N752 C748 1.427 . S
N752 C749 1.384 . S
N753 C745 1.427 . S
N753 C751 1.384 . S
H754 C760 0.930 . S
H755 C764 0.930 . S
H756 C769 0.929 . S
H757 C767 0.929 . S
H758 C762 0.929 . S
H759 C768 0.929 . S
C760 H754 0.930 . S
C760 C761 1.367 . S
C760 C768 1.378 . S
C761 C760 1.367 . S
C761 C769 1.433 . S
C762 H758 0.929 . S
C762 C764 1.378 . S
C762 C766 1.350 . S
C763 C766 1.463 . S
C763 C768 1.350 . S
C763 N771 1.427 . S
C764 H755 0.930 . S
C764 C762 1.378 . S
C764 C765 1.367 . S
C765 C764 1.367 . S
C765 C767 1.433 . S
C766 C762 1.350 . S
C766 C763 1.463 . S
C766 N770 1.427 . S
C767 H757 0.929 . S
C767 C765 1.433 . S
C767 N770 1.384 . S
C768 H759 0.929 . S
C768 C760 1.378 . S
C768 C763 1.350 . S
C769 H756 0.929 . S
C769 C761 1.433 . S
C769 N771 1.384 . S
N770 C766 1.427 . S
N770 C767 1.384 . S
N771 C763 1.427 . S
N771 C769 1.384 . S
C347 C29 1.576 . S
C351 C272 1.599 . S
C365 C49 1.461 . S
C369 C294 1.399 . S
C387 C313 1.231 . S
C383 C93 1.411 . S
C401 C119 1.661 . S
C405 C334 1.438 . S
C423 C291 1.731 . S
C419 C17 1.709 . S
C441 C269 1.683 . S
C437 C61 1.740 . S
C459 C336 1.296 . S
C455 C81 1.314 . S
C477 C315 1.458 . S
C473 C125 1.410 . S
C491 C23 1.645 . S
C495 C333 1.639 . S
C513 C292 1.303 . S
C509 C87 1.518 . S
C527 C113 1.589 . S
C531 C274 1.515 . S
C545 C55 1.515 . S
C549 C312 1.493 . S
C567 C270 1.551 . S
C563 C157 1.602 . S
C581 C189 1.273 . S
C585 C290 1.299 . S
C599 C221 1.507 . S
C603 C316 1.269 . S
C617 C253 1.624 . S
C621 C337 1.409 . S
C635 C145 1.759 . S
C639 C293 1.717 . S
C657 C273 1.659 . S
C653 C183 1.649 . S
C675 C332 1.224 . S
C671 C209 1.277 . S
C693 C311 1.486 . S
C689 C247 1.455 . S
C707 C151 1.542 . S
C711 C335 1.505 . S
C729 C295 1.224 . S
C725 C215 1.498 . S
C747 C271 1.352 . S
C743 C241 1.418 . S
C761 C177 1.402 . S
C765 C314 1.442 . S
