# Generated by pormake.
# Topology ssb, (4,4)-cn, num edge types: 1
# Building blocks:
#     Node 0, Type 0, BuildingBlock: KUFVIS_clean_linker_0, # of connection points: 4
#     Node 1, Type 0, BuildingBlock: KUFVIS_clean_linker_0, # of connection points: 4
#     Node 2, Type 0, BuildingBlock: KUFVIS_clean_linker_0, # of connection points: 4
#     Node 3, Type 0, BuildingBlock: KUFVIS_clean_linker_0, # of connection points: 4
#     Node 4, Type 0, BuildingBlock: KUFVIS_clean_linker_0, # of connection points: 4
#     Node 5, Type 0, BuildingBlock: KUFVIS_clean_linker_0, # of connection points: 4
#     Node 6, Type 0, BuildingBlock: KUFVIS_clean_linker_0, # of connection points: 4
#     Node 7, Type 0, BuildingBlock: KUFVIS_clean_linker_0, # of connection points: 4
#     Node 8, Type 1, BuildingBlock: KOZSID_clean_sbu_0, # of connection points: 4
#     Node 9, Type 1, BuildingBlock: KOZSID_clean_sbu_0, # of connection points: 4
#     Node 10, Type 1, BuildingBlock: KOZSID_clean_sbu_0, # of connection points: 4
#     Node 11, Type 1, BuildingBlock: KOZSID_clean_sbu_0, # of connection points: 4
#     Node 12, Type 1, BuildingBlock: KOZSID_clean_sbu_0, # of connection points: 4
#     Node 13, Type 1, BuildingBlock: KOZSID_clean_sbu_0, # of connection points: 4
#     Node 14, Type 1, BuildingBlock: KOZSID_clean_sbu_0, # of connection points: 4
#     Node 15, Type 1, BuildingBlock: KOZSID_clean_sbu_0, # of connection points: 4
#     Edge 16, Type (0, 1), BuildingBlock: ZUJKAS_clean_linker_0, # of connection points: 2
#     Edge 17, Type (0, 1), BuildingBlock: ZUJKAS_clean_linker_0, # of connection points: 2
#     Edge 18, Type (0, 1), BuildingBlock: ZUJKAS_clean_linker_0, # of connection points: 2
#     Edge 19, Type (0, 1), BuildingBlock: ZUJKAS_clean_linker_0, # of connection points: 2
#     Edge 20, Type (0, 1), BuildingBlock: ZUJKAS_clean_linker_0, # of connection points: 2
#     Edge 21, Type (0, 1), BuildingBlock: ZUJKAS_clean_linker_0, # of connection points: 2
#     Edge 22, Type (0, 1), BuildingBlock: ZUJKAS_clean_linker_0, # of connection points: 2
#     Edge 23, Type (0, 1), BuildingBlock: ZUJKAS_clean_linker_0, # of connection points: 2
#     Edge 24, Type (0, 1), BuildingBlock: ZUJKAS_clean_linker_0, # of connection points: 2
#     Edge 25, Type (0, 1), BuildingBlock: ZUJKAS_clean_linker_0, # of connection points: 2
#     Edge 26, Type (0, 1), BuildingBlock: ZUJKAS_clean_linker_0, # of connection points: 2
#     Edge 27, Type (0, 1), BuildingBlock: ZUJKAS_clean_linker_0, # of connection points: 2
#     Edge 28, Type (0, 1), BuildingBlock: ZUJKAS_clean_linker_0, # of connection points: 2
#     Edge 29, Type (0, 1), BuildingBlock: ZUJKAS_clean_linker_0, # of connection points: 2
#     Edge 30, Type (0, 1), BuildingBlock: ZUJKAS_clean_linker_0, # of connection points: 2
#     Edge 31, Type (0, 1), BuildingBlock: ZUJKAS_clean_linker_0, # of connection points: 2
#     Edge 32, Type (0, 1), BuildingBlock: ZUJKAS_clean_linker_0, # of connection points: 2
#     Edge 33, Type (0, 1), BuildingBlock: ZUJKAS_clean_linker_0, # of connection points: 2
#     Edge 34, Type (0, 1), BuildingBlock: ZUJKAS_clean_linker_0, # of connection points: 2
#     Edge 35, Type (0, 1), BuildingBlock: ZUJKAS_clean_linker_0, # of connection points: 2
#     Edge 36, Type (0, 1), BuildingBlock: ZUJKAS_clean_linker_0, # of connection points: 2
#     Edge 37, Type (0, 1), BuildingBlock: ZUJKAS_clean_linker_0, # of connection points: 2
#     Edge 38, Type (0, 1), BuildingBlock: ZUJKAS_clean_linker_0, # of connection points: 2
#     Edge 39, Type (0, 1), BuildingBlock: ZUJKAS_clean_linker_0, # of connection points: 2
#     Edge 40, Type (0, 1), BuildingBlock: ZUJKAS_clean_linker_0, # of connection points: 2
#     Edge 41, Type (0, 1), BuildingBlock: ZUJKAS_clean_linker_0, # of connection points: 2
#     Edge 42, Type (0, 1), BuildingBlock: ZUJKAS_clean_linker_0, # of connection points: 2
#     Edge 43, Type (0, 1), BuildingBlock: ZUJKAS_clean_linker_0, # of connection points: 2
#     Edge 44, Type (0, 1), BuildingBlock: ZUJKAS_clean_linker_0, # of connection points: 2
#     Edge 45, Type (0, 1), BuildingBlock: ZUJKAS_clean_linker_0, # of connection points: 2
#     Edge 46, Type (0, 1), BuildingBlock: ZUJKAS_clean_linker_0, # of connection points: 2
#     Edge 47, Type (0, 1), BuildingBlock: ZUJKAS_clean_linker_0, # of connection points: 2
# Relax obj value: 0.002
# Max RMSD: 0.063
# Mean RMSD: 0.031
data_MOF--net-ssb--node1-KOZSID_clean_sbu_0--node2-KUFVIS_clean_linker_0--edge1-ZUJKAS_clean_linker_0
_symmetry_space_group_name_H-M    P1
_symmetry_Int_Tables_number       1
_symmetry_cell_setting            triclinic
loop_
_symmetry_equiv_pos_as_xyz
'x, y, z'
_cell_length_a     68.856758
_cell_length_b     68.751855
_cell_length_c     50.602629
_cell_angle_alpha  92.031527
_cell_angle_beta   94.042168
_cell_angle_gamma 89.995326
loop_
_atom_site_label
_atom_site_type_symbol
_atom_site_fract_x
_atom_site_fract_y
_atom_site_fract_z
_atom_type_partial_charge
H0 H 0.22452 0.21577 0.34319 0.0
H1 H 0.27384 0.2217 0.2974 0.0
H2 H 0.22416 0.26048 0.28662 0.0
H3 H 0.24286 0.28007 0.26801 0.0
H4 H 0.2861 0.27995 0.21145 0.0
H5 H 0.28122 0.23031 0.25895 0.0
C6 C 0.2317 0.22318 0.32798 0.0
C7 C 0.22261 0.23905 0.31584 0.0
C8 C 0.24996 0.21674 0.32112 0.0
C9 C 0.25945 0.22663 0.30162 0.0
C10 C 0.2506 0.24286 0.28854 0.0
C11 C 0.23195 0.24872 0.29618 0.0
C12 C 0.26048 0.25347 0.26702 0.0
C13 C 0.25434 0.27233 0.25868 0.0
C14 C 0.26347 0.28183 0.23851 0.0
C15 C 0.27892 0.27262 0.22674 0.0
C16 C 0.28543 0.25427 0.23436 0.0
C17 C 0.2762 0.24474 0.25424 0.0
H18 H 0.71981 0.29518 0.20988 0.0
H19 H 0.76725 0.29109 0.26881 0.0
H20 H 0.73025 0.24117 0.24802 0.0
H21 H 0.73775 0.2347 0.29032 0.0
H22 H 0.79196 0.22196 0.33282 0.0
H23 H 0.78939 0.26832 0.27842 0.0
C24 C 0.72822 0.28665 0.2242 0.0
C25 C 0.72291 0.26732 0.2278 0.0
C26 C 0.74439 0.29507 0.23858 0.0
C27 C 0.75522 0.2841 0.25724 0.0
C28 C 0.75031 0.26456 0.26129 0.0
C29 C 0.73407 0.2563 0.24616 0.0
C30 C 0.76201 0.25289 0.28126 0.0
C31 C 0.75315 0.23763 0.29404 0.0
C32 C 0.7639 0.22635 0.3124 0.0
C33 C 0.78362 0.23059 0.31854 0.0
C34 C 0.79273 0.24594 0.30678 0.0
C35 C 0.78197 0.25693 0.28799 0.0
H36 H 0.78504 0.79486 0.33329 0.0
H37 H 0.77852 0.74259 0.2852 0.0
H38 H 0.73421 0.78764 0.28065 0.0
H39 H 0.71525 0.76578 0.26246 0.0
H40 H 0.71196 0.71797 0.20587 0.0
H41 H 0.76633 0.73077 0.24832 0.0
C42 C 0.77679 0.78619 0.31808 0.0
C43 C 0.75873 0.79303 0.30807 0.0
C44 C 0.78415 0.76825 0.30946 0.0
C45 C 0.77278 0.75661 0.2908 0.0
C46 C 0.75449 0.76303 0.27958 0.0
C47 C 0.74773 0.78158 0.2887 0.0
C48 C 0.74268 0.75041 0.25872 0.0
C49 C 0.72265 0.75421 0.25233 0.0
C50 C 0.71154 0.74284 0.23305 0.0
C51 C 0.72026 0.72678 0.22087 0.0
C52 C 0.73978 0.72214 0.2269 0.0
C53 C 0.75109 0.73427 0.24507 0.0
H54 H 0.2226 0.78862 0.31746 0.0
H55 H 0.27372 0.77859 0.27576 0.0
H56 H 0.22475 0.73876 0.26466 0.0
H57 H 0.24738 0.71776 0.25596 0.0
H58 H 0.29116 0.71208 0.20029 0.0
H59 H 0.28105 0.76788 0.23667 0.0
C60 C 0.23034 0.77983 0.30342 0.0
C61 C 0.22176 0.76275 0.29218 0.0
C62 C 0.24885 0.78566 0.29704 0.0
C63 C 0.25908 0.77419 0.2793 0.0
C64 C 0.25085 0.757 0.26723 0.0
C65 C 0.23192 0.75152 0.27386 0.0
C66 C 0.26222 0.74466 0.24851 0.0
C67 C 0.2582 0.72458 0.24486 0.0
C68 C 0.26835 0.71283 0.2273 0.0
C69 C 0.2835 0.72099 0.21426 0.0
C70 C 0.28866 0.74063 0.21835 0.0
C71 C 0.27751 0.75256 0.23468 0.0
H72 H 0.28699 0.73002 0.83172 0.0
H73 H 0.23567 0.73848 0.78093 0.0
H74 H 0.28794 0.77238 0.77195 0.0
H75 H 0.26899 0.79391 0.75325 0.0
H76 H 0.22303 0.79602 0.69218 0.0
H77 H 0.22797 0.74593 0.7401 0.0
C78 C 0.27962 0.73745 0.81534 0.0
C79 C 0.28946 0.75198 0.80289 0.0
C80 C 0.26044 0.73226 0.80722 0.0
C81 C 0.2507 0.74227 0.78624 0.0
C82 C 0.26016 0.75733 0.77311 0.0
C83 C 0.27977 0.76173 0.78181 0.0
C84 C 0.24989 0.76828 0.75043 0.0
C85 C 0.25663 0.78678 0.7427 0.0
C86 C 0.2471 0.79662 0.72143 0.0
C87 C 0.23054 0.78824 0.70813 0.0
C88 C 0.2235 0.77012 0.715 0.0
C89 C 0.23326 0.7602 0.7359 0.0
H90 H 0.28209 0.29247 0.85823 0.0
H91 H 0.27419 0.24146 0.80772 0.0
H92 H 0.23907 0.29278 0.79313 0.0
H93 H 0.21829 0.27254 0.77242 0.0
H94 H 0.22032 0.22999 0.70896 0.0
H95 H 0.26918 0.23607 0.76553 0.0
C96 C 0.27435 0.28476 0.84163 0.0
C97 C 0.25923 0.29417 0.82726 0.0
C98 C 0.28019 0.26599 0.83412 0.0
C99 C 0.27016 0.25633 0.8123 0.0
C100 C 0.25514 0.26568 0.7969 0.0
C101 C 0.25009 0.28486 0.80459 0.0
C102 C 0.24519 0.25574 0.7726 0.0
C103 C 0.22638 0.26137 0.7624 0.0
C104 C 0.21779 0.25269 0.73883 0.0
C105 C 0.22741 0.2374 0.7263 0.0
C106 C 0.24557 0.23096 0.73659 0.0
C107 C 0.25463 0.24055 0.75905 0.0
H108 H 0.72062 0.28839 0.83919 0.0
H109 H 0.76776 0.28446 0.78903 0.0
H110 H 0.72143 0.24102 0.78243 0.0
H111 H 0.73909 0.22307 0.75906 0.0
H112 H 0.78123 0.22354 0.70103 0.0
H113 H 0.77631 0.27357 0.75215 0.0
C114 C 0.72777 0.28073 0.82346 0.0
C115 C 0.71976 0.26337 0.81238 0.0
C116 C 0.74473 0.28853 0.81457 0.0
C117 C 0.75426 0.27836 0.7945 0.0
C118 C 0.74623 0.26088 0.78191 0.0
C119 C 0.72857 0.25389 0.79119 0.0
C120 C 0.75599 0.25017 0.75931 0.0
C121 C 0.75019 0.23099 0.74992 0.0
C122 C 0.75921 0.22133 0.72888 0.0
C123 C 0.77419 0.23081 0.71715 0.0
C124 C 0.7805 0.24939 0.72592 0.0
C125 C 0.77137 0.25901 0.74666 0.0
H126 H 0.72111 0.71204 0.81359 0.0
H127 H 0.7662 0.71641 0.7602 0.0
H128 H 0.7294 0.766 0.77637 0.0
H129 H 0.73613 0.77401 0.73675 0.0
H130 H 0.78678 0.7839 0.69504 0.0
H131 H 0.7875 0.73819 0.75042 0.0
C132 C 0.72867 0.72051 0.79982 0.0
C133 C 0.72276 0.73964 0.79521 0.0
C134 C 0.74453 0.7123 0.78767 0.0
C135 C 0.75463 0.72339 0.77036 0.0
C136 C 0.74951 0.74294 0.76573 0.0
C137 C 0.73362 0.751 0.77888 0.0
C138 C 0.76028 0.75452 0.7466 0.0
C139 C 0.75105 0.77021 0.73356 0.0
C140 C 0.76065 0.78088 0.71534 0.0
C141 C 0.77954 0.77573 0.70946 0.0
C142 C 0.78919 0.76019 0.72175 0.0
C143 C 0.77961 0.74975 0.74049 0.0
C144 C 0.0323 0.28885 0.56838 0.0
C145 C 0.03902 0.30705 0.57768 0.0
C146 C 0.02883 0.32044 0.56311 0.0
C147 C 0.0166 0.30974 0.5457 0.0
N148 N 0.01822 0.29028 0.54836 0.0
Co149 Co 0.00389 0.26943 0.52599 0.0
N150 N 0.98961 0.28922 0.50373 0.0
C151 C 0.99134 0.30881 0.50632 0.0
C152 C 0.97949 0.31864 0.48848 0.0
C153 C 0.96942 0.30451 0.4737 0.0
C154 C 0.97571 0.28681 0.4835 0.0
N155 N 0.9897 0.24857 0.5035 0.0
C156 C 0.97595 0.25 0.48307 0.0
C157 C 0.96962 0.23179 0.47325 0.0
C158 C 0.97968 0.2184 0.48797 0.0
C159 C 0.9915 0.2291 0.50591 0.0
N160 N 0.01805 0.24965 0.54837 0.0
C161 C 0.01599 0.23007 0.54615 0.0
C162 C 0.02751 0.22024 0.56436 0.0
C163 C 0.03772 0.23435 0.57899 0.0
C164 C 0.0319 0.25205 0.56867 0.0
N165 N 0.98241 0.27009 0.5505 0.0
C166 C 0.95066 0.2709 0.58328 0.0
C167 C 0.95893 0.25331 0.57506 0.0
C168 C 0.97455 0.25324 0.55882 0.0
C169 C 0.9589 0.28811 0.57514 0.0
C170 C 0.97465 0.28738 0.55904 0.0
N171 N 0.02532 0.26876 0.50142 0.0
C172 C 0.04881 0.25064 0.47694 0.0
C173 C 0.05609 0.26771 0.46701 0.0
C174 C 0.04756 0.28533 0.47466 0.0
C175 C 0.03242 0.28552 0.49175 0.0
C176 C 0.03355 0.25148 0.49381 0.0
H177 H 0.02672 0.29943 0.49686 0.0
H178 H 0.02875 0.23793 0.50055 0.0
H179 H 0.97993 0.23932 0.55314 0.0
H180 H 0.98015 0.30101 0.55353 0.0
C181 C 0.00401 0.31753 0.52601 0.0
C182 C 0.04029 0.27065 0.57851 0.0
C183 C 0.96788 0.26816 0.47303 0.0
C184 C 0.0037 0.22131 0.52604 0.0
H185 H 0.05036 0.31037 0.59306 0.0
H186 H 0.03044 0.33611 0.56464 0.0
H187 H 0.97821 0.33423 0.4866 0.0
H188 H 0.95857 0.30695 0.45763 0.0
H189 H 0.95861 0.22851 0.4574 0.0
H190 H 0.97825 0.20272 0.48617 0.0
H191 H 0.02857 0.20466 0.56649 0.0
H192 H 0.04841 0.23187 0.59523 0.0
H193 H 0.95348 0.23953 0.5812 0.0
H194 H 0.95303 0.30217 0.58066 0.0
H195 H 0.05501 0.2366 0.47212 0.0
H196 H 0.05237 0.29899 0.46731 0.0
C197 C 0.71384 0.03817 0.5524 0.0
C198 C 0.69577 0.04582 0.55754 0.0
C199 C 0.68218 0.03495 0.54268 0.0
C200 C 0.69261 0.02139 0.52916 0.0
N201 N 0.71209 0.02282 0.53459 0.0
Co202 Co 0.73252 0.00664 0.51771 0.0
N203 N 0.71244 0.9908 0.4955 0.0
C204 C 0.69288 0.99267 0.49558 0.0
C205 C 0.68272 0.97942 0.47911 0.0
C206 C 0.69658 0.96825 0.46798 0.0
C207 C 0.7145 0.97541 0.47823 0.0
N208 N 0.75299 0.99073 0.50048 0.0
C209 C 0.75129 0.97553 0.48248 0.0
C210 C 0.76938 0.96885 0.47574 0.0
C211 C 0.78297 0.97999 0.49018 0.0
C212 C 0.7725 0.99286 0.50477 0.0
N213 N 0.75262 0.02216 0.54029 0.0
C214 C 0.77215 0.01968 0.54105 0.0
C215 C 0.78233 0.03208 0.55872 0.0
C216 C 0.76853 0.04329 0.56987 0.0
C217 C 0.75062 0.03718 0.55814 0.0
N218 N 0.73168 0.98744 0.54594 0.0
C219 C 0.73028 0.95789 0.58284 0.0
C220 C 0.74807 0.96473 0.57524 0.0
C221 C 0.74844 0.97939 0.55692 0.0
C222 C 0.71324 0.96658 0.57245 0.0
C223 C 0.71427 0.98131 0.55433 0.0
N224 N 0.73328 0.02588 0.48947 0.0
C225 C 0.75102 0.04937 0.46607 0.0
C226 C 0.73379 0.05591 0.45316 0.0
C227 C 0.71642 0.04661 0.4578 0.0
C228 C 0.71649 0.03177 0.47589 0.0
C229 C 0.75046 0.03433 0.48383 0.0
H230 H 0.70272 0.0256 0.47891 0.0
H231 H 0.76407 0.03005 0.49306 0.0
H232 H 0.76243 0.98366 0.55154 0.0
H233 H 0.70077 0.98729 0.5471 0.0
C234 C 0.68454 0.00714 0.51125 0.0
C235 C 0.7322 0.04634 0.56444 0.0
C236 C 0.733 0.96674 0.4714 0.0
C237 C 0.78054 0.00622 0.52394 0.0
H238 H 0.6927 0.05814 0.57047 0.0
H239 H 0.66654 0.03683 0.54165 0.0
H240 H 0.66708 0.97796 0.47575 0.0
H241 H 0.6938 0.95609 0.45405 0.0
H242 H 0.77243 0.95699 0.46202 0.0
H243 H 0.79864 0.9786 0.4904 0.0
H244 H 0.79796 0.03304 0.56275 0.0
H245 H 0.77138 0.05477 0.58481 0.0
H246 H 0.76168 0.95833 0.58265 0.0
H247 H 0.69913 0.96194 0.57812 0.0
H248 H 0.76489 0.05592 0.46265 0.0
H249 H 0.70269 0.05122 0.44824 0.0
C250 C 0.03591 0.75887 0.54767 0.0
C251 C 0.04223 0.77691 0.55806 0.0
C252 C 0.03126 0.79053 0.54495 0.0
C253 C 0.01885 0.78008 0.52748 0.0
N254 N 0.0211 0.76057 0.52873 0.0
Co255 Co 0.00591 0.74003 0.5069 0.0
N256 N 0.99074 0.76012 0.48633 0.0
C257 C 0.99324 0.77964 0.48849 0.0
C258 C 0.98098 0.78973 0.47146 0.0
C259 C 0.9698 0.77586 0.45777 0.0
C260 C 0.9758 0.75802 0.46747 0.0
N261 N 0.99033 0.71951 0.48552 0.0
C262 C 0.97484 0.72123 0.46757 0.0
C263 C 0.96733 0.70314 0.45907 0.0
C264 C 0.97846 0.68955 0.47193 0.0
C265 C 0.99197 0.70001 0.48771 0.0
N266 N 0.02143 0.71994 0.52707 0.0
C267 C 0.01989 0.70039 0.52362 0.0
C268 C 0.03302 0.69029 0.53942 0.0
C269 C 0.04379 0.7042 0.55365 0.0
C270 C 0.0365 0.72207 0.54576 0.0
N271 N 0.98593 0.74028 0.53362 0.0
C272 C 0.9562 0.74054 0.56961 0.0
C273 C 0.96507 0.72317 0.56176 0.0
C274 C 0.97975 0.72337 0.54395 0.0
C275 C 0.96281 0.75781 0.55944 0.0
C276 C 0.97753 0.75736 0.54172 0.0
N277 N 0.02592 0.73979 0.48015 0.0
C278 C 0.04647 0.72221 0.45046 0.0
C279 C 0.05562 0.73942 0.44399 0.0
C280 C 0.04936 0.75683 0.45576 0.0
C281 C 0.03463 0.75669 0.47345 0.0
C282 C 0.03184 0.72272 0.46839 0.0
H283 H 0.03071 0.77047 0.48167 0.0
H284 H 0.02561 0.70908 0.47252 0.0
H285 H 0.98573 0.70961 0.53861 0.0
H286 H 0.98178 0.77103 0.53469 0.0
C287 C 0.00608 0.78813 0.50818 0.0
C288 C 0.04483 0.74061 0.55592 0.0
C289 C 0.96635 0.73962 0.45877 0.0
C290 C 0.00597 0.69197 0.50537 0.0
H291 H 0.05382 0.77992 0.57323 0.0
H292 H 0.03255 0.80619 0.54737 0.0
H293 H 0.97992 0.80535 0.46972 0.0
H294 H 0.95828 0.7786 0.44271 0.0
H295 H 0.95485 0.7 0.4454 0.0
H296 H 0.97664 0.6739 0.47044 0.0
H297 H 0.03471 0.67466 0.54026 0.0
H298 H 0.05582 0.70148 0.56797 0.0
H299 H 0.96043 0.70935 0.56883 0.0
H300 H 0.95673 0.77172 0.5652 0.0
H301 H 0.05045 0.70833 0.44164 0.0
H302 H 0.05605 0.77059 0.45184 0.0
C303 C 0.28773 0.97515 0.55907 0.0
C304 C 0.30562 0.96908 0.57021 0.0
C305 C 0.31948 0.98022 0.55999 0.0
C306 C 0.30937 0.99258 0.54343 0.0
N307 N 0.28984 0.99004 0.5424 0.0
Co308 Co 0.26986 0.0059 0.52174 0.0
N309 N 0.29037 0.02186 0.50601 0.0
C310 C 0.30985 0.01938 0.50959 0.0
C311 C 0.32038 0.03211 0.49599 0.0
C312 C 0.30685 0.04343 0.48289 0.0
C313 C 0.28873 0.03703 0.48939 0.0
N314 N 0.24986 0.02225 0.50191 0.0
C315 C 0.25195 0.03773 0.48626 0.0
C316 C 0.23403 0.04532 0.47759 0.0
C317 C 0.22016 0.03428 0.48793 0.0
C318 C 0.23031 0.02069 0.50244 0.0
N319 N 0.24936 0.98948 0.53669 0.0
C320 C 0.22991 0.99085 0.53118 0.0
C321 C 0.21936 0.97711 0.54295 0.0
C322 C 0.23285 0.96621 0.55678 0.0
C323 C 0.25097 0.97407 0.55292 0.0
N324 N 0.26948 0.02464 0.55237 0.0
C325 C 0.26872 0.0536 0.59305 0.0
C326 C 0.25168 0.04398 0.58328 0.0
C327 C 0.25238 0.02967 0.5631 0.0
C328 C 0.28623 0.04791 0.58279 0.0
C329 C 0.28628 0.03346 0.5628 0.0
N330 N 0.2703 0.9872 0.49102 0.0
C331 C 0.25356 0.969 0.45451 0.0
C332 C 0.27084 0.95974 0.44839 0.0
C333 C 0.28789 0.96478 0.46368 0.0
C334 C 0.28731 0.97848 0.48459 0.0
C335 C 0.25361 0.98251 0.47576 0.0
H336 H 0.30081 0.98156 0.49543 0.0
H337 H 0.23994 0.98886 0.4795 0.0
H338 H 0.23887 0.02307 0.55627 0.0
H339 H 0.30009 0.02997 0.55576 0.0
C340 C 0.3178 0.00597 0.52746 0.0
C341 C 0.26921 0.96625 0.56499 0.0
C342 C 0.27047 0.04591 0.47927 0.0
C343 C 0.22194 0.00573 0.51578 0.0
H344 H 0.30842 0.95772 0.58423 0.0
H345 H 0.3351 0.97928 0.56395 0.0
H346 H 0.33606 0.03327 0.49599 0.0
H347 H 0.30996 0.05519 0.47015 0.0
H348 H 0.23124 0.05761 0.46509 0.0
H349 H 0.20452 0.03591 0.4851 0.0
H350 H 0.2037 0.97527 0.54169 0.0
H351 H 0.22964 0.95382 0.56835 0.0
H352 H 0.23778 0.04756 0.59098 0.0
H353 H 0.29983 0.055 0.58948 0.0
H354 H 0.24 0.96584 0.44301 0.0
H355 H 0.30162 0.95786 0.46002 0.0
C356 C 0.5324 0.787 0.05846 0.0
C357 C 0.54104 0.80424 0.06856 0.0
C358 C 0.53589 0.81832 0.05098 0.0
C359 C 0.52447 0.809 0.03115 0.0
N360 N 0.52183 0.78996 0.03528 0.0
Co361 Co 0.50718 0.77122 0.01046 0.0
N362 N 0.49424 0.79256 0.99038 0.0
C363 C 0.49993 0.8113 0.99115 0.0
C364 C 0.48777 0.82283 0.97582 0.0
C365 C 0.47358 0.81056 0.9646 0.0
C366 C 0.47801 0.79211 0.97355 0.0
N367 N 0.49263 0.75259 0.98552 0.0
C368 C 0.47671 0.75549 0.96885 0.0
C369 C 0.47137 0.7385 0.95453 0.0
C370 C 0.4844 0.72449 0.96268 0.0
C371 C 0.49696 0.73369 0.98136 0.0
N372 N 0.5201 0.74978 0.03039 0.0
C373 C 0.52089 0.731 0.02194 0.0
C374 C 0.5306 0.71935 0.0399 0.0
C375 C 0.53662 0.73158 0.0608 0.0
C376 C 0.53041 0.75015 0.05426 0.0
N377 N 0.48566 0.77109 0.03392 0.0
C378 C 0.45355 0.77092 0.06549 0.0
C379 C 0.46138 0.75349 0.0556 0.0
C380 C 0.47731 0.7539 0.0399 0.0
C381 C 0.46247 0.78843 0.05945 0.0
C382 C 0.47847 0.78819 0.0438 0.0
N383 N 0.5287 0.77134 0.98686 0.0
C384 C 0.56307 0.76949 0.98065 0.0
C385 C 0.55953 0.77099 0.95319 0.0
C386 C 0.54017 0.77283 0.94298 0.0
C387 C 0.52501 0.77287 0.96008 0.0
C388 C 0.54756 0.76978 0.99705 0.0
H389 H 0.51028 0.77403 0.95154 0.0
H390 H 0.55093 0.76869 0.01803 0.0
H391 H 0.48275 0.74025 0.03241 0.0
H392 H 0.48484 0.80191 0.03939 0.0
C393 C 0.51441 0.81801 0.00999 0.0
C394 C 0.53676 0.76788 0.06961 0.0
C395 C 0.4672 0.77435 0.96479 0.0
C396 C 0.51049 0.72449 0.99857 0.0
H397 H 0.55057 0.80636 0.08635 0.0
H398 H 0.53987 0.83357 0.0526 0.0
H399 H 0.48855 0.83845 0.97403 0.0
H400 H 0.46135 0.8148 0.95148 0.0
H401 H 0.45937 0.73645 0.93969 0.0
H402 H 0.48424 0.70926 0.95649 0.0
H403 H 0.53277 0.70377 0.03822 0.0
H404 H 0.5451 0.72739 0.0785 0.0
H405 H 0.45536 0.73953 0.06004 0.0
H406 H 0.45693 0.80232 0.06627 0.0
H407 H 0.57779 0.76828 0.98952 0.0
H408 H 0.5367 0.77386 0.92187 0.0
C409 C 0.22213 0.53237 0.06351 0.0
C410 C 0.20429 0.5386 0.07189 0.0
C411 C 0.19029 0.5296 0.05546 0.0
C412 C 0.20028 0.51856 0.03795 0.0
N413 N 0.21987 0.51984 0.04223 0.0
Co414 Co 0.23986 0.50688 0.02062 0.0
N415 N 0.21914 0.49385 0.99634 0.0
C416 C 0.19964 0.49535 0.99763 0.0
C417 C 0.1891 0.48445 0.97849 0.0
C418 C 0.20266 0.47525 0.96421 0.0
C419 C 0.22075 0.4811 0.97559 0.0
N420 N 0.25984 0.49414 0.99876 0.0
C421 C 0.25755 0.4816 0.97749 0.0
C422 C 0.27531 0.4761 0.96821 0.0
C423 C 0.28936 0.48544 0.98424 0.0
C424 C 0.27942 0.49605 1.00232 0.0
N425 N 0.26059 0.51967 0.04514 0.0
C426 C 0.28009 0.51779 0.04416 0.0
C427 C 0.29065 0.52794 0.06405 0.0
C428 C 0.2771 0.53693 0.0786 0.0
C429 C 0.25899 0.53182 0.06653 0.0
N430 N 0.24024 0.48386 0.04398 0.0
C431 C 0.24108 0.45166 0.07811 0.0
C432 C 0.25817 0.45931 0.06904 0.0
C433 C 0.25744 0.47515 0.05225 0.0
C434 C 0.2235 0.46042 0.06932 0.0
C435 C 0.22341 0.47628 0.05246 0.0
N436 N 0.23954 0.52995 0.99727 0.0
C437 C 0.25676 0.55472 0.97486 0.0
C438 C 0.23934 0.56258 0.96392 0.0
C439 C 0.222 0.55374 0.97024 0.0
C440 C 0.22242 0.53765 0.98672 0.0
C441 C 0.25653 0.53867 0.99125 0.0
H442 H 0.20867 0.53167 0.9906 0.0
H443 H 0.27035 0.53362 0.9989 0.0
H444 H 0.27104 0.48009 0.0462 0.0
H445 H 0.20952 0.48224 0.04662 0.0
C446 C 0.19168 0.50698 0.01718 0.0
C447 C 0.24076 0.53926 0.07585 0.0
C448 C 0.23898 0.47382 0.96626 0.0
C449 C 0.28807 0.50693 0.02379 0.0
H450 H 0.20161 0.54879 0.088 0.0
H451 H 0.17467 0.53111 0.05601 0.0
H452 H 0.17342 0.48321 0.97542 0.0
H453 H 0.19961 0.46524 0.94743 0.0
H454 H 0.27787 0.46608 0.95186 0.0
H455 H 0.30497 0.48428 0.98324 0.0
H456 H 0.30633 0.52885 0.06743 0.0
H457 H 0.2802 0.54633 0.09599 0.0
H458 H 0.2722 0.45296 0.07458 0.0
H459 H 0.20978 0.45532 0.07575 0.0
H460 H 0.27065 0.56109 0.97118 0.0
H461 H 0.20805 0.55898 0.96222 0.0
C462 C 0.47231 0.2545 0.98726 0.0
C463 C 0.46495 0.27241 0.97965 0.0
C464 C 0.47592 0.28626 0.99371 0.0
C465 C 0.48932 0.27606 0.00898 0.0
N466 N 0.48782 0.25652 0.00522 0.0
Co467 Co 0.50377 0.23624 0.02432 0.0
N468 N 0.51904 0.2566 0.04637 0.0
C469 C 0.51702 0.27613 0.04519 0.0
C470 C 0.52983 0.28644 0.06227 0.0
C471 C 0.54093 0.27269 0.0749 0.0
C472 C 0.53425 0.25472 0.06466 0.0
N473 N 0.51941 0.21594 0.0439 0.0
C474 C 0.5344 0.21789 0.06273 0.0
C475 C 0.54142 0.19993 0.07067 0.0
C476 C 0.53054 0.18615 0.05635 0.0
C477 C 0.51758 0.1964 0.04049 0.0
N478 N 0.48878 0.2159 1.00185 0.0
C479 C 0.49141 0.19641 1.0022 0.0
C480 C 0.47863 0.18611 0.98506 0.0
C481 C 0.46698 0.1998 0.97322 0.0
C482 C 0.47339 0.21776 0.98383 0.0
N483 N 0.52361 0.23701 0.99743 0.0
C484 C 0.55304 0.2383 0.96106 0.0
C485 C 0.54677 0.22061 0.9704 0.0
C486 C 0.53217 0.2203 0.9883 0.0
C487 C 0.54401 0.25529 0.96999 0.0
C488 C 0.52952 0.25433 0.98797 0.0
N489 N 0.48394 0.23547 0.05113 0.0
C490 C 0.46082 0.2175 0.07488 0.0
C491 C 0.45378 0.23467 0.08639 0.0
C492 C 0.46255 0.25219 0.08041 0.0
C493 C 0.4774 0.25226 0.06292 0.0
C494 C 0.47581 0.21822 0.0576 0.0
H495 H 0.48324 0.26613 0.05904 0.0
H496 H 0.48036 0.20463 0.04941 0.0
H497 H 0.52823 0.20635 0.99468 0.0
H498 H 0.52341 0.26784 0.99402 0.0
C499 C 0.50306 0.28438 0.02764 0.0
C500 C 0.46368 0.23603 0.9774 0.0
C501 C 0.54312 0.23635 0.0726 0.0
C502 C 0.50466 0.18815 0.02071 0.0
H503 H 0.45271 0.27517 0.96567 0.0
H504 H 0.4741 0.30188 0.99325 0.0
H505 H 0.53109 0.30208 0.06501 0.0
H506 H 0.55274 0.27558 0.08978 0.0
H507 H 0.55347 0.19703 0.08486 0.0
H508 H 0.53228 0.17051 0.05683 0.0
H509 H 0.47742 0.17046 0.98228 0.0
H510 H 0.45479 0.19682 0.95898 0.0
H511 H 0.55336 0.207 0.96441 0.0
H512 H 0.54799 0.26937 0.96307 0.0
H513 H 0.45452 0.20352 0.07859 0.0
H514 H 0.45802 0.2659 0.08919 0.0
C515 C 0.74811 0.53973 0.05258 0.0
C516 C 0.72992 0.54677 0.05831 0.0
C517 C 0.71646 0.53462 0.04543 0.0
C518 C 0.72707 0.52093 0.03244 0.0
N519 N 0.74656 0.52359 0.03614 0.0
Co520 Co 0.76714 0.50703 0.02022 0.0
N521 N 0.74716 0.48954 1.00053 0.0
C522 C 0.72759 0.49143 1.0003 0.0
C523 C 0.7175 0.47755 0.98481 0.0
C524 C 0.73143 0.46605 0.97448 0.0
C525 C 0.74931 0.47353 0.98441 0.0
N526 N 0.78771 0.49023 0.0047 0.0
C527 C 0.78611 0.47402 0.98841 0.0
C528 C 0.80424 0.46663 0.98314 0.0
C529 C 0.81776 0.47853 0.99645 0.0
C530 C 0.8072 0.49243 0.00915 0.0
N531 N 0.7871 0.52479 0.03946 0.0
C532 C 0.80667 0.52327 0.03895 0.0
C533 C 0.81676 0.53738 0.05399 0.0
C534 C 0.80285 0.54871 0.06468 0.0
C535 C 0.78494 0.54091 0.05541 0.0
N536 N 0.76756 0.49007 0.0512 0.0
C537 C 0.76848 0.46382 0.09289 0.0
C538 C 0.78547 0.47283 0.08588 0.0
C539 C 0.7847 0.4857 0.06513 0.0
C540 C 0.75091 0.46877 0.07923 0.0
C541 C 0.75077 0.48193 0.05883 0.0
N542 N 0.76679 0.52396 0.98922 0.0
C543 C 0.78396 0.54225 0.95818 0.0
C544 C 0.76647 0.54937 0.94671 0.0
C545 C 0.74912 0.54314 0.95643 0.0
C546 C 0.74961 0.53055 0.9775 0.0
C547 C 0.78378 0.52964 0.97918 0.0
H548 H 0.7359 0.5265 0.98407 0.0
H549 H 0.7976 0.52491 0.98716 0.0
H550 H 0.79822 0.49173 0.06059 0.0
H551 H 0.73692 0.48502 0.04925 0.0
C552 C 0.71913 0.50601 0.01559 0.0
C553 C 0.76636 0.5492 0.06278 0.0
C554 C 0.76785 0.46487 0.97781 0.0
C555 C 0.81514 0.50798 0.0249 0.0
H556 H 0.72664 0.55954 0.07028 0.0
H557 H 0.70077 0.53582 0.04519 0.0
H558 H 0.70187 0.47592 0.98157 0.0
H559 H 0.72871 0.45352 0.96118 0.0
H560 H 0.80738 0.45389 0.97101 0.0
H561 H 0.83345 0.4772 0.99681 0.0
H562 H 0.83239 0.53909 0.05706 0.0
H563 H 0.80562 0.56121 0.078 0.0
H564 H 0.79942 0.46991 0.09622 0.0
H565 H 0.73731 0.46213 0.08364 0.0
H566 H 0.79782 0.54678 0.95153 0.0
H567 H 0.73516 0.54799 0.9479 0.0
H568 H 0.18988 0.21711 0.31782 0.0
H569 H 0.16028 0.22573 0.33967 0.0
H570 H 0.18275 0.28364 0.35713 0.0
H571 H 0.21246 0.27506 0.33503 0.0
H572 H 0.17094 0.26172 0.40223 0.0
H573 H 0.11351 0.26248 0.31957 0.0
H574 H 0.12961 0.24189 0.31925 0.0
H575 H 0.13903 0.26579 0.31466 0.0
C576 C 0.18828 0.23182 0.32576 0.0
C577 C 0.20341 0.24545 0.32466 0.0
C578 C 0.17136 0.23674 0.33817 0.0
C579 C 0.16925 0.25536 0.34989 0.0
C580 C 0.18404 0.26923 0.34805 0.0
H581 H 0.086 0.29409 0.46465 0.0
H582 H 0.11285 0.29283 0.43562 0.0
C583 C 0.20092 0.26438 0.3353 0.0
C584 C 0.15248 0.25953 0.36616 0.0
H585 H 0.10281 0.26175 0.36321 0.0
C586 C 0.15604 0.262 0.39372 0.0
C587 C 0.13307 0.25964 0.35501 0.0
C588 C 0.12848 0.25746 0.32547 0.0
C589 C 0.14069 0.26388 0.41055 0.0
C590 C 0.1212 0.26386 0.39945 0.0
C591 C 0.1177 0.26178 0.37178 0.0
C592 C 0.10426 0.26528 0.41623 0.0
C593 C 0.14553 0.26495 0.44014 0.0
C594 C 0.08993 0.25066 0.41433 0.0
C595 C 0.07425 0.25156 0.43051 0.0
C596 C 0.0725 0.26711 0.44909 0.0
C597 C 0.08669 0.28195 0.45053 0.0
C598 C 0.10228 0.28111 0.43417 0.0
H599 H 0.16037 0.25932 0.44547 0.0
H600 H 0.14505 0.28036 0.44734 0.0
H601 H 0.1349 0.25653 0.45068 0.0
H602 H 0.091 0.23838 0.4005 0.0
H603 H 0.06346 0.24007 0.42832 0.0
H604 H 0.76787 0.21721 0.36452 0.0
H605 H 0.75689 0.18769 0.38435 0.0
H606 H 0.72776 0.16902 0.30947 0.0
H607 H 0.73941 0.19829 0.28913 0.0
H608 H 0.7207 0.1716 0.3898 0.0
H609 H 0.76496 0.12413 0.32588 0.0
H610 H 0.76776 0.15024 0.32793 0.0
H611 H 0.74735 0.13935 0.30882 0.0
C612 C 0.75913 0.20682 0.35225 0.0
C613 C 0.75481 0.20988 0.32515 0.0
C614 C 0.75274 0.19004 0.36366 0.0
C615 C 0.74186 0.176 0.34824 0.0
C616 C 0.7365 0.17951 0.32155 0.0
H617 H 0.71451 0.05997 0.40443 0.0
H618 H 0.71372 0.08884 0.37711 0.0
C619 C 0.74298 0.19632 0.31005 0.0
C620 C 0.73718 0.15735 0.36011 0.0
H621 H 0.74855 0.10898 0.35871 0.0
C622 C 0.72657 0.15786 0.3828 0.0
C623 C 0.7449 0.13946 0.35093 0.0
C624 C 0.75701 0.13816 0.32719 0.0
C625 C 0.72402 0.14106 0.39709 0.0
C626 C 0.73239 0.12339 0.3885 0.0
C627 C 0.74218 0.12263 0.36514 0.0
C628 C 0.73263 0.10601 0.4048 0.0
C629 C 0.71279 0.14238 0.42163 0.0
C630 C 0.74379 0.10612 0.42906 0.0
C631 C 0.74439 0.08972 0.44453 0.0
C632 C 0.73377 0.07292 0.43601 0.0
C633 C 0.72271 0.07279 0.41155 0.0
C634 C 0.72226 0.08919 0.39594 0.0
H635 H 0.7034 0.15551 0.42197 0.0
H636 H 0.70356 0.12926 0.42301 0.0
H637 H 0.7232 0.14323 0.43941 0.0
H638 H 0.75208 0.11893 0.43601 0.0
H639 H 0.75287 0.09031 0.46341 0.0
H640 H 0.81681 0.79072 0.31894 0.0
H641 H 0.84783 0.78197 0.34121 0.0
H642 H 0.82799 0.72277 0.34591 0.0
H643 H 0.79619 0.73179 0.32501 0.0
H644 H 0.84485 0.73441 0.39162 0.0
H645 H 0.8937 0.7545 0.31532 0.0
H646 H 0.8789 0.7749 0.32371 0.0
H647 H 0.86765 0.75314 0.30863 0.0
C648 C 0.81895 0.77581 0.32471 0.0
C649 C 0.80385 0.76202 0.32033 0.0
C650 C 0.83691 0.77074 0.3371 0.0
C651 C 0.84051 0.7516 0.34485 0.0
C652 C 0.82565 0.73762 0.33996 0.0
H653 H 0.95955 0.72513 0.40787 0.0
H654 H 0.92886 0.7254 0.38005 0.0
C655 C 0.80751 0.74275 0.32779 0.0
C656 C 0.85929 0.74674 0.35968 0.0
H657 H 0.90849 0.75335 0.36005 0.0
C658 C 0.85878 0.73828 0.3845 0.0
C659 C 0.87759 0.75137 0.35032 0.0
C660 C 0.8795 0.75877 0.32289 0.0
C661 C 0.87589 0.73519 0.40065 0.0
C662 C 0.89404 0.74136 0.39223 0.0
C663 C 0.89463 0.74895 0.36687 0.0
C664 C 0.91249 0.74047 0.40951 0.0
C665 C 0.87427 0.72519 0.42647 0.0
C666 C 0.91368 0.74901 0.43525 0.0
C667 C 0.93107 0.74846 0.45128 0.0
C668 C 0.94776 0.73976 0.44172 0.0
C669 C 0.94677 0.73166 0.41579 0.0
C670 C 0.92928 0.7319 0.39989 0.0
H671 H 0.86134 0.71545 0.42549 0.0
H672 H 0.88743 0.71643 0.43177 0.0
H673 H 0.87247 0.73632 0.44253 0.0
H674 H 0.90122 0.75634 0.44289 0.0
H675 H 0.93156 0.75501 0.47111 0.0
H676 H 0.26414 0.81588 0.27176 0.0
H677 H 0.27422 0.84784 0.29137 0.0
H678 H 0.26214 0.82848 0.36871 0.0
H679 H 0.25213 0.79666 0.34929 0.0
H680 H 0.24809 0.87181 0.31982 0.0
H681 H 0.31573 0.85607 0.38112 0.0
H682 H 0.30656 0.84031 0.35369 0.0
H683 H 0.29637 0.83921 0.38537 0.0
C684 C 0.26409 0.81837 0.29301 0.0
C685 C 0.25732 0.80392 0.30907 0.0
C686 C 0.26978 0.83657 0.30414 0.0
C687 C 0.26911 0.84038 0.33148 0.0
C688 C 0.26308 0.82569 0.34763 0.0
H689 H 0.2433 0.93168 0.43564 0.0
H690 H 0.24439 0.90511 0.40259 0.0
C691 C 0.25722 0.80761 0.33652 0.0
C692 C 0.27256 0.8602 0.34302 0.0
H693 H 0.29819 0.88493 0.39366 0.0
C694 C 0.25931 0.87486 0.33556 0.0
C695 C 0.2873 0.86413 0.36335 0.0
C696 C 0.30243 0.84915 0.37122 0.0
C697 C 0.25959 0.89296 0.34923 0.0
C698 C 0.27339 0.89633 0.37092 0.0
C699 C 0.28751 0.88219 0.37715 0.0
C700 C 0.27217 0.91353 0.38902 0.0
C701 C 0.24472 0.90809 0.341 0.0
C702 C 0.28749 0.927 0.39234 0.0
C703 C 0.28684 0.94238 0.41108 0.0
C704 C 0.27096 0.94434 0.42706 0.0
C705 C 0.25555 0.93087 0.42336 0.0
C706 C 0.25616 0.91563 0.40452 0.0
H707 H 0.23899 0.90558 0.32007 0.0
H708 H 0.23229 0.90732 0.35375 0.0
H709 H 0.25103 0.92297 0.34338 0.0
H710 H 0.30001 0.92551 0.3806 0.0
H711 H 0.29883 0.95263 0.41317 0.0
H712 H 0.21518 0.76842 0.66139 0.0
H713 H 0.18427 0.75968 0.63723 0.0
H714 H 0.16064 0.7443 0.71038 0.0
H715 H 0.19151 0.75359 0.73488 0.0
H716 H 0.16231 0.72573 0.63205 0.0
H717 H 0.12216 0.78517 0.68184 0.0
H718 H 0.14839 0.78381 0.68426 0.0
H719 H 0.13441 0.76827 0.70356 0.0
C720 C 0.20342 0.76312 0.67236 0.0
C721 C 0.2057 0.76198 0.70012 0.0
C722 C 0.18579 0.75804 0.65849 0.0
C723 C 0.16998 0.75172 0.67203 0.0
C724 C 0.1725 0.74953 0.69958 0.0
H725 H 0.04906 0.73257 0.60845 0.0
H726 H 0.07922 0.73356 0.63768 0.0
C727 C 0.19021 0.75463 0.71353 0.0
C728 C 0.1508 0.74821 0.65717 0.0
H729 H 0.1042 0.76543 0.64995 0.0
C730 C 0.14957 0.73432 0.63608 0.0
C731 C 0.13417 0.75946 0.66239 0.0
C732 C 0.13477 0.77513 0.68408 0.0
C733 C 0.13225 0.73149 0.61996 0.0
C734 C 0.11579 0.74307 0.62477 0.0
C735 C 0.11684 0.75658 0.64628 0.0
C736 C 0.09762 0.74199 0.60704 0.0
C737 C 0.13172 0.7161 0.59792 0.0
C738 C 0.09791 0.74664 0.58025 0.0
C739 C 0.08076 0.74611 0.56367 0.0
C740 C 0.06304 0.74096 0.57363 0.0
C741 C 0.06265 0.73645 0.60042 0.0
C742 C 0.07981 0.73703 0.61704 0.0
H743 H 0.14325 0.705 0.60147 0.0
H744 H 0.11735 0.70866 0.59564 0.0
H745 H 0.1342 0.72306 0.57899 0.0
H746 H 0.11138 0.75092 0.57223 0.0
H747 H 0.08129 0.74977 0.54309 0.0
H748 H 0.26094 0.19992 0.76262 0.0
H749 H 0.2706 0.16859 0.74312 0.0
H750 H 0.25872 0.19045 0.6648 0.0
H751 H 0.24928 0.22188 0.68415 0.0
H752 H 0.24373 0.14625 0.70959 0.0
H753 H 0.31115 0.16149 0.66005 0.0
H754 H 0.30262 0.17712 0.68626 0.0
H755 H 0.29186 0.17853 0.65298 0.0
C756 C 0.26095 0.19822 0.74126 0.0
C757 C 0.25433 0.21328 0.72486 0.0
C758 C 0.26637 0.18031 0.73018 0.0
C759 C 0.2655 0.1773 0.70257 0.0
C760 C 0.25978 0.19261 0.68616 0.0
H761 H 0.24114 0.08209 0.59559 0.0
H762 H 0.24137 0.11052 0.62587 0.0
C763 C 0.25424 0.21047 0.69721 0.0
C764 C 0.26826 0.15762 0.69084 0.0
H765 H 0.29385 0.13223 0.64578 0.0
C766 C 0.25489 0.14306 0.69598 0.0
C767 C 0.2829 0.15352 0.67325 0.0
C768 C 0.29808 0.16843 0.66795 0.0
C769 C 0.25516 0.12477 0.68291 0.0
C770 C 0.26909 0.12106 0.6642 0.0
C771 C 0.2831 0.13524 0.66005 0.0
C772 C 0.26846 0.10309 0.64735 0.0
C773 C 0.24029 0.10967 0.68871 0.0
C774 C 0.28363 0.08955 0.64955 0.0
C775 C 0.28344 0.07311 0.63249 0.0
C776 C 0.26819 0.07012 0.61271 0.0
C777 C 0.2529 0.08369 0.61088 0.0
C778 C 0.25305 0.10001 0.62807 0.0
H779 H 0.23376 0.11298 0.70782 0.0
H780 H 0.22841 0.10937 0.67269 0.0
H781 H 0.24694 0.09496 0.68935 0.0
H782 H 0.29565 0.09176 0.66435 0.0
H783 H 0.2953 0.06282 0.63467 0.0
H784 H 0.81467 0.26317 0.75047 0.0
H785 H 0.84446 0.27162 0.72927 0.0
H786 H 0.81415 0.26266 0.6523 0.0
H787 H 0.78449 0.25421 0.67334 0.0
H788 H 0.86256 0.24474 0.6938 0.0
H789 H 0.84428 0.31438 0.64591 0.0
H790 H 0.8314 0.30562 0.67305 0.0
H791 H 0.82602 0.29576 0.63998 0.0
C792 C 0.81426 0.26357 0.72905 0.0
C793 C 0.79728 0.2581 0.71354 0.0
C794 C 0.83129 0.26827 0.71696 0.0
C795 C 0.8315 0.2679 0.68919 0.0
C796 C 0.81428 0.26333 0.67373 0.0
H797 H 0.91983 0.24534 0.58096 0.0
H798 H 0.89212 0.24546 0.60852 0.0
C799 C 0.79736 0.25845 0.68577 0.0
C800 C 0.85004 0.27034 0.67622 0.0
H801 H 0.87182 0.29712 0.63085 0.0
C802 C 0.86469 0.25634 0.6803 0.0
C803 C 0.85284 0.2855 0.65866 0.0
C804 C 0.83789 0.30129 0.65425 0.0
C805 C 0.88172 0.25667 0.66653 0.0
C806 C 0.88414 0.27134 0.64813 0.0
C807 C 0.86986 0.28579 0.64481 0.0
C808 C 0.9011 0.27142 0.63151 0.0
C809 C 0.89693 0.24119 0.67152 0.0
C810 C 0.91526 0.28613 0.63507 0.0
C811 C 0.93135 0.28598 0.61954 0.0
C812 C 0.9335 0.27121 0.5999 0.0
C813 C 0.91901 0.25669 0.59621 0.0
C814 C 0.90305 0.25678 0.61187 0.0
H815 H 0.89494 0.23358 0.69015 0.0
H816 H 0.89586 0.23023 0.65484 0.0
H817 H 0.91178 0.2476 0.67263 0.0
H818 H 0.91401 0.29757 0.65012 0.0
H819 H 0.94225 0.29728 0.62325 0.0
H820 H 0.74462 0.81252 0.7393 0.0
H821 H 0.73477 0.84304 0.71858 0.0
H822 H 0.74611 0.8178 0.64191 0.0
H823 H 0.75636 0.78751 0.66263 0.0
H824 H 0.76582 0.85129 0.65315 0.0
H825 H 0.68811 0.86169 0.67256 0.0
H826 H 0.70372 0.85721 0.70165 0.0
H827 H 0.70028 0.83855 0.67595 0.0
C828 C 0.74448 0.81339 0.71795 0.0
C829 C 0.75132 0.79781 0.70251 0.0
C830 C 0.7388 0.83077 0.70613 0.0
C831 C 0.73961 0.83264 0.67868 0.0
C832 C 0.74539 0.81665 0.66312 0.0
H833 H 0.7061 0.9264 0.57646 0.0
H834 H 0.7074 0.89685 0.60206 0.0
C835 C 0.75123 0.7994 0.67493 0.0
C836 C 0.7368 0.8518 0.66653 0.0
H837 H 0.70441 0.8888 0.65593 0.0
C838 C 0.75236 0.85945 0.65369 0.0
C839 C 0.71922 0.86237 0.66723 0.0
C840 C 0.7018 0.85449 0.67987 0.0
C841 C 0.75083 0.87736 0.64142 0.0
C842 C 0.73343 0.88818 0.64262 0.0
C843 C 0.71781 0.88055 0.65538 0.0
C844 C 0.73102 0.90701 0.62954 0.0
C845 C 0.76772 0.88429 0.62669 0.0
C846 C 0.74346 0.9227 0.63711 0.0
C847 C 0.74282 0.93955 0.62245 0.0
C848 C 0.72955 0.94105 0.60021 0.0
C849 C 0.71638 0.92572 0.59361 0.0
C850 C 0.71713 0.90883 0.60817 0.0
H851 H 0.77789 0.87226 0.62223 0.0
H852 H 0.76252 0.89089 0.60777 0.0
H853 H 0.77601 0.89553 0.63909 0.0
H854 H 0.75404 0.92169 0.65389 0.0
H855 H 0.75292 0.95128 0.62824 0.0
H856 H 0.82024 0.78435 0.71811 0.0
H857 H 0.85007 0.77733 0.69613 0.0
H858 H 0.83284 0.71716 0.68474 0.0
H859 H 0.80263 0.72424 0.70638 0.0
H860 H 0.88131 0.75168 0.70372 0.0
H861 H 0.8378 0.73501 0.60883 0.0
H862 H 0.8273 0.74621 0.63727 0.0
H863 H 0.83222 0.72055 0.63622 0.0
C864 C 0.82294 0.76955 0.71128 0.0
C865 C 0.80897 0.75489 0.71371 0.0
C866 C 0.84002 0.76555 0.69875 0.0
C867 C 0.84353 0.74682 0.68825 0.0
C868 C 0.83027 0.73181 0.69224 0.0
H869 H 0.95239 0.71838 0.61327 0.0
H870 H 0.92555 0.71844 0.64256 0.0
C871 C 0.81312 0.73581 0.70488 0.0
C872 C 0.86037 0.74357 0.67165 0.0
H873 H 0.87186 0.73334 0.60798 0.0
C874 C 0.87929 0.74748 0.68284 0.0
C875 C 0.85769 0.73842 0.64428 0.0
C876 C 0.83767 0.73495 0.63078 0.0
C877 C 0.89552 0.74654 0.66741 0.0
C878 C 0.89283 0.74133 0.64006 0.0
C879 C 0.87394 0.73722 0.62896 0.0
C880 C 0.90921 0.74104 0.62229 0.0
C881 C 0.91533 0.75186 0.68029 0.0
C882 C 0.90881 0.75337 0.60072 0.0
C883 C 0.92403 0.75324 0.58377 0.0
C884 C 0.94002 0.74067 0.58787 0.0
C885 C 0.94029 0.72817 0.60937 0.0
C886 C 0.92504 0.72834 0.62635 0.0
H887 H 0.91431 0.75975 0.69969 0.0
H888 H 0.92384 0.73837 0.68379 0.0
H889 H 0.92346 0.76107 0.66724 0.0
H890 H 0.8967 0.76321 0.59705 0.0
H891 H 0.9231 0.76282 0.5672 0.0
H892 H 0.23069 0.83246 0.72761 0.0
H893 H 0.23722 0.86188 0.7034 0.0
H894 H 0.2842 0.83237 0.66692 0.0
H895 H 0.27784 0.80301 0.69147 0.0
H896 H 0.27538 0.88485 0.69811 0.0
H897 H 0.24252 0.84937 0.60498 0.0
H898 H 0.2375 0.84113 0.63732 0.0
H899 H 0.26053 0.83586 0.62423 0.0
C900 C 0.24283 0.8325 0.71512 0.0
C901 C 0.25402 0.81556 0.71189 0.0
C902 C 0.24646 0.84927 0.70111 0.0
C903 C 0.26111 0.84937 0.68312 0.0
C904 C 0.27279 0.83269 0.68061 0.0
H905 H 0.28416 0.92961 0.55747 0.0
H906 H 0.28337 0.90185 0.58666 0.0
C907 C 0.2693 0.81597 0.69487 0.0
C908 C 0.26331 0.86642 0.66588 0.0
H909 H 0.25459 0.88115 0.6022 0.0
C910 C 0.27087 0.88405 0.67713 0.0
C911 C 0.25751 0.86543 0.63846 0.0
C912 C 0.24894 0.84702 0.62538 0.0
C913 C 0.27299 0.90057 0.66171 0.0
C914 C 0.2668 0.89975 0.63429 0.0
C915 C 0.25935 0.882 0.6231 0.0
C916 C 0.2678 0.91701 0.61688 0.0
C917 C 0.28238 0.91856 0.67492 0.0
C918 C 0.25922 0.93494 0.62371 0.0
C919 C 0.25992 0.95089 0.60716 0.0
C920 C 0.2689 0.94928 0.58305 0.0
C921 C 0.27727 0.93134 0.576 0.0
C922 C 0.27674 0.91543 0.59268 0.0
H923 H 0.29187 0.91495 0.69274 0.0
H924 H 0.29124 0.92635 0.66114 0.0
H925 H 0.27086 0.92854 0.68151 0.0
H926 H 0.25169 0.93657 0.64172 0.0
H927 H 0.25325 0.96449 0.61306 0.0
H928 H 0.18304 0.25588 0.76211 0.0
H929 H 0.15075 0.26189 0.73974 0.0
H930 H 0.17732 0.26947 0.66615 0.0
H931 H 0.20941 0.2634 0.68824 0.0
H932 H 0.14553 0.29803 0.6808 0.0
H933 H 0.12684 0.21918 0.68238 0.0
H934 H 0.13622 0.23129 0.71279 0.0
H935 H 0.15173 0.22769 0.68606 0.0
C936 C 0.18196 0.25923 0.7413 0.0
C937 C 0.19866 0.25911 0.72684 0.0
C938 C 0.16356 0.26254 0.72854 0.0
C939 C 0.16169 0.26597 0.70126 0.0
C940 C 0.17846 0.26683 0.68718 0.0
H941 H 0.07678 0.25787 0.57016 0.0
H942 H 0.10534 0.25745 0.60214 0.0
C943 C 0.19675 0.26333 0.6998 0.0
C944 C 0.14231 0.26739 0.68671 0.0
H945 H 0.1046 0.23942 0.65916 0.0
C946 C 0.1364 0.28531 0.6764 0.0
C947 C 0.1306 0.25068 0.68075 0.0
C948 C 0.13658 0.23104 0.69089 0.0
C949 C 0.11918 0.28688 0.65996 0.0
C950 C 0.10772 0.27009 0.65357 0.0
C951 C 0.11343 0.25226 0.66424 0.0
C952 C 0.09041 0.27054 0.63449 0.0
C953 C 0.11359 0.30627 0.64869 0.0
C954 C 0.07259 0.27795 0.64221 0.0
C955 C 0.05628 0.27806 0.62403 0.0
C956 C 0.05763 0.2709 0.59788 0.0
C957 C 0.07547 0.26351 0.59021 0.0
C958 C 0.09171 0.26326 0.60841 0.0
H959 H 0.12459 0.31775 0.65446 0.0
H960 H 0.11181 0.30487 0.62672 0.0
H961 H 0.09938 0.31093 0.6558 0.0
H962 H 0.07131 0.28352 0.6623 0.0
H963 H 0.04259 0.28367 0.63036 0.0
H964 H 0.72256 0.20688 0.71344 0.0
H965 H 0.71453 0.17589 0.68923 0.0
H966 H 0.77528 0.16023 0.69474 0.0
H967 H 0.78318 0.19062 0.7194 0.0
H968 H 0.72577 0.16374 0.64159 0.0
H969 H 0.75195 0.10992 0.71411 0.0
H970 H 0.74878 0.13526 0.72331 0.0
H971 H 0.77067 0.12716 0.70879 0.0
C972 C 0.73409 0.19654 0.71017 0.0
C973 C 0.75351 0.20127 0.71844 0.0
C974 C 0.72953 0.17888 0.69608 0.0
C975 C 0.74425 0.16546 0.69024 0.0
C976 C 0.76353 0.16996 0.69934 0.0
H977 H 0.74696 0.08247 0.55665 0.0
H978 H 0.74854 0.11103 0.5872 0.0
C979 C 0.76806 0.1875 0.71335 0.0
C980 C 0.7399 0.14749 0.67305 0.0
H981 H 0.74856 0.09846 0.66848 0.0
C982 C 0.73055 0.14944 0.64766 0.0
C983 C 0.74583 0.12866 0.68083 0.0
C984 C 0.75467 0.12508 0.70836 0.0
C985 C 0.72768 0.13338 0.62965 0.0
C986 C 0.73475 0.11476 0.63683 0.0
C987 C 0.74339 0.11268 0.66261 0.0
C988 C 0.73356 0.09737 0.61792 0.0
C989 C 0.71691 0.13656 0.60315 0.0
C990 C 0.72518 0.07979 0.62507 0.0
C991 C 0.72456 0.06334 0.6077 0.0
C992 C 0.7323 0.06405 0.58277 0.0
C993 C 0.74073 0.08156 0.57563 0.0
C994 C 0.74147 0.09796 0.59305 0.0
H995 H 0.70712 0.14937 0.60407 0.0
H996 H 0.72759 0.13939 0.5883 0.0
H997 H 0.70809 0.12361 0.59621 0.0
H998 H 0.7191 0.07878 0.64413 0.0
H999 H 0.71815 0.04998 0.61381 0.0
H1000 H 0.80799 0.28101 0.32498 0.0
H1001 H 0.83993 0.28672 0.34868 0.0
H1002 H 0.85548 0.22686 0.33286 0.0
H1003 H 0.82356 0.2211 0.30953 0.0
H1004 H 0.85893 0.23695 0.3855 0.0
H1005 H 0.8962 0.29177 0.32895 0.0
H1006 H 0.872 0.29849 0.33678 0.0
H1007 H 0.87551 0.27782 0.31489 0.0
C1008 C 0.81849 0.26928 0.32583 0.0
C1009 C 0.8133 0.2506 0.31553 0.0
C1010 C 0.83675 0.27254 0.33938 0.0
C1011 C 0.85015 0.25722 0.34252 0.0
C1012 C 0.84538 0.23889 0.33074 0.0
H1013 H 0.96753 0.25872 0.42017 0.0
H1014 H 0.93909 0.25668 0.38783 0.0
C1015 C 0.82717 0.23562 0.31738 0.0
C1016 C 0.86805 0.25952 0.36059 0.0
H1017 H 0.91035 0.28545 0.37222 0.0
C1018 C 0.87021 0.2475 0.38248 0.0
C1019 C 0.88282 0.27321 0.35661 0.0
C1020 C 0.88167 0.28595 0.33291 0.0
C1021 C 0.88656 0.24892 0.40063 0.0
C1022 C 0.90105 0.26298 0.39711 0.0
C1023 C 0.89911 0.27482 0.37501 0.0
C1024 C 0.91835 0.26539 0.41618 0.0
C1025 C 0.8883 0.23517 0.42328 0.0
C1026 C 0.91614 0.27128 0.44267 0.0
C1027 C 0.93229 0.27238 0.46104 0.0
C1028 C 0.9509 0.26768 0.45317 0.0
C1029 C 0.95323 0.2623 0.42657 0.0
C1030 C 0.93707 0.26121 0.40817 0.0
H1031 H 0.87854 0.22234 0.41958 0.0
H1032 H 0.9035 0.22996 0.42674 0.0
H1033 H 0.88417 0.24293 0.44165 0.0
H1034 H 0.90187 0.27483 0.44918 0.0
H1035 H 0.93026 0.27668 0.48146 0.0
H1036 H 0.77692 0.82815 0.30721 0.0
H1037 H 0.77001 0.85799 0.33264 0.0
H1038 H 0.71925 0.83088 0.36063 0.0
H1039 H 0.72591 0.80103 0.33446 0.0
H1040 H 0.71282 0.86965 0.35179 0.0
H1041 H 0.78257 0.86159 0.41169 0.0
H1042 H 0.78585 0.86313 0.37699 0.0
H1043 H 0.77294 0.84275 0.38875 0.0
C1044 C 0.76402 0.82871 0.3183 0.0
C1045 C 0.75195 0.81223 0.31879 0.0
C1046 C 0.76021 0.84572 0.33313 0.0
C1047 C 0.74443 0.84662 0.34932 0.0
C1048 C 0.73162 0.83058 0.34855 0.0
H1049 H 0.74121 0.92938 0.48496 0.0
H1050 H 0.74261 0.90022 0.45564 0.0
C1051 C 0.73535 0.81355 0.33344 0.0
C1052 C 0.74194 0.86387 0.36783 0.0
H1053 H 0.76575 0.89141 0.41776 0.0
C1054 C 0.72438 0.87436 0.36626 0.0
C1055 C 0.75681 0.86993 0.38722 0.0
C1056 C 0.77552 0.85866 0.39151 0.0
C1057 C 0.7215 0.89088 0.38297 0.0
C1058 C 0.73673 0.89744 0.40153 0.0
C1059 C 0.75411 0.88667 0.40344 0.0
C1060 C 0.73499 0.9152 0.41942 0.0
C1061 C 0.70197 0.90085 0.3809 0.0
C1062 C 0.73036 0.93352 0.40909 0.0
C1063 C 0.72942 0.95015 0.42593 0.0
C1064 C 0.7333 0.94891 0.45345 0.0
C1065 C 0.73805 0.93069 0.46383 0.0
C1066 C 0.73889 0.91405 0.44703 0.0
H1067 H 0.69034 0.8909 0.37215 0.0
H1068 H 0.69783 0.90634 0.40062 0.0
H1069 H 0.70271 0.9134 0.36781 0.0
H1070 H 0.72783 0.93507 0.38791 0.0
H1071 H 0.72594 0.96408 0.41743 0.0
H1072 H 0.21167 0.72756 0.31105 0.0
H1073 H 0.18195 0.71982 0.33288 0.0
H1074 H 0.15922 0.77682 0.31597 0.0
H1075 H 0.18874 0.78455 0.29419 0.0
H1076 H 0.16994 0.74199 0.3779 0.0
H1077 H 0.11234 0.74053 0.29556 0.0
H1078 H 0.13787 0.73774 0.29014 0.0
H1079 H 0.12799 0.76149 0.29664 0.0
C1080 C 0.20007 0.7382 0.31135 0.0
C1081 C 0.20251 0.75665 0.30087 0.0
C1082 C 0.18317 0.73383 0.32397 0.0
C1083 C 0.16827 0.74769 0.32592 0.0
C1084 C 0.17034 0.76578 0.31439 0.0
H1085 H 0.06346 0.76644 0.40724 0.0
H1086 H 0.09077 0.76709 0.379 0.0
C1087 C 0.18726 0.77021 0.30203 0.0
C1088 C 0.15143 0.74411 0.34207 0.0
H1089 H 0.10169 0.74284 0.3394 0.0
C1090 C 0.15502 0.7419 0.36945 0.0
C1091 C 0.13196 0.7442 0.33108 0.0
C1092 C 0.12724 0.74595 0.3017 0.0
C1093 C 0.13969 0.74051 0.38629 0.0
C1094 C 0.12016 0.7408 0.37536 0.0
C1095 C 0.11661 0.74262 0.34785 0.0
C1096 C 0.10325 0.73993 0.39222 0.0
C1097 C 0.14461 0.73963 0.41577 0.0
C1098 C 0.10087 0.72428 0.40884 0.0
C1099 C 0.08539 0.72401 0.42541 0.0
C1100 C 0.07173 0.73928 0.42553 0.0
C1101 C 0.07385 0.75462 0.40821 0.0
C1102 C 0.0894 0.75493 0.3918 0.0
H1103 H 0.15964 0.74488 0.42143 0.0
H1104 H 0.13429 0.74848 0.42705 0.0
H1105 H 0.14364 0.72432 0.42178 0.0
H1106 H 0.11106 0.71229 0.40914 0.0
H1107 H 0.0844 0.712 0.43851 0.0
H1108 H 0.26325 0.21499 0.37291 0.0
H1109 H 0.27001 0.1858 0.3984 0.0
H1110 H 0.25983 0.15007 0.32697 0.0
H1111 H 0.25374 0.17942 0.30139 0.0
H1112 H 0.24538 0.15813 0.40667 0.0
H1113 H 0.30665 0.12298 0.35846 0.0
H1114 H 0.29933 0.14768 0.35213 0.0
H1115 H 0.2863 0.12755 0.33544 0.0
C1116 C 0.26321 0.20093 0.36252 0.0
C1117 C 0.25845 0.19955 0.33503 0.0
C1118 C 0.26686 0.18418 0.37716 0.0
C1119 C 0.26567 0.16551 0.36479 0.0
C1120 C 0.26143 0.16417 0.3371 0.0
H1121 H 0.26069 0.04767 0.42594 0.0
H1122 H 0.25992 0.07646 0.39827 0.0
C1123 C 0.25797 0.18099 0.32239 0.0
C1124 C 0.2672 0.14765 0.38123 0.0
H1125 H 0.29009 0.10359 0.38808 0.0
C1126 C 0.25532 0.14633 0.40265 0.0
C1127 C 0.28002 0.132 0.37614 0.0
C1128 C 0.29393 0.13266 0.35446 0.0
C1129 C 0.2557 0.12994 0.4187 0.0
C1130 C 0.26846 0.11431 0.41356 0.0
C1131 C 0.28029 0.11551 0.3921 0.0
C1132 C 0.26965 0.09665 0.43025 0.0
C1133 C 0.24207 0.12932 0.44073 0.0
C1134 C 0.27568 0.09821 0.45742 0.0
C1135 C 0.27618 0.08175 0.47318 0.0
C1136 C 0.27067 0.06335 0.46217 0.0
C1137 C 0.26497 0.0617 0.43494 0.0
C1138 C 0.26456 0.07814 0.41913 0.0
H1139 H 0.23006 0.14002 0.43813 0.0
H1140 H 0.23566 0.11457 0.44182 0.0
H1141 H 0.25033 0.13286 0.45992 0.0
H1142 H 0.27998 0.1122 0.46648 0.0
H1143 H 0.28069 0.08342 0.49408 0.0
H1144 H 0.71712 0.77527 0.82062 0.0
H1145 H 0.68889 0.78543 0.84487 0.0
H1146 H 0.66058 0.73071 0.82275 0.0
H1147 H 0.68813 0.72093 0.79776 0.0
H1148 H 0.63496 0.75981 0.82006 0.0
H1149 H 0.67864 0.76531 0.91666 0.0
H1150 H 0.6865 0.78096 0.89182 0.0
H1151 H 0.68829 0.755 0.88707 0.0
C1152 C 0.70472 0.76558 0.82058 0.0
C1153 C 0.70504 0.74715 0.8076 0.0
C1154 C 0.68869 0.77129 0.83473 0.0
C1155 C 0.67276 0.75863 0.83625 0.0
C1156 C 0.67271 0.74069 0.82216 0.0
H1157 H 0.59097 0.74661 0.95514 0.0
H1158 H 0.61794 0.74548 0.92621 0.0
C1159 C 0.68858 0.73505 0.808 0.0
C1160 C 0.65631 0.76345 0.85304 0.0
H1161 H 0.64514 0.77179 0.91724 0.0
C1162 C 0.63719 0.7626 0.84129 0.0
C1163 C 0.65917 0.76681 0.88083 0.0
C1164 C 0.67922 0.76692 0.89496 0.0
C1165 C 0.62092 0.76454 0.85653 0.0
C1166 C 0.62379 0.76796 0.8843 0.0
C1167 C 0.64291 0.76926 0.89597 0.0
C1168 C 0.60725 0.769 0.90187 0.0
C1169 C 0.60085 0.76198 0.84281 0.0
C1170 C 0.59223 0.7827 0.89808 0.0
C1171 C 0.57666 0.78326 0.91452 0.0
C1172 C 0.57594 0.77036 0.93542 0.0
C1173 C 0.59114 0.75687 0.93941 0.0
C1174 C 0.60658 0.7562 0.92282 0.0
H1175 H 0.60134 0.75447 0.82306 0.0
H1176 H 0.59129 0.75351 0.85494 0.0
H1177 H 0.5942 0.7765 0.83977 0.0
H1178 H 0.59261 0.79308 0.88253 0.0
H1179 H 0.56535 0.79402 0.91118 0.0
H1180 H 0.24667 0.69689 0.78672 0.0
H1181 H 0.23994 0.66791 0.81177 0.0
H1182 H 0.2485 0.70189 0.88493 0.0
H1183 H 0.25552 0.7306 0.86 0.0
H1184 H 0.27034 0.66975 0.88667 0.0
H1185 H 0.19505 0.64853 0.8514 0.0
H1186 H 0.21106 0.65114 0.82523 0.0
H1187 H 0.20515 0.67207 0.84541 0.0
C1188 C 0.24642 0.69829 0.80808 0.0
C1189 C 0.25143 0.71612 0.82133 0.0
C1190 C 0.24263 0.68167 0.82247 0.0
C1191 C 0.24361 0.68256 0.85042 0.0
C1192 C 0.24765 0.70066 0.86348 0.0
H1193 H 0.21334 0.59324 0.96042 0.0
H1194 H 0.21409 0.62159 0.93251 0.0
C1195 C 0.25151 0.71715 0.84917 0.0
C1196 C 0.24221 0.66457 0.86629 0.0
H1197 H 0.21304 0.62575 0.87769 0.0
C1198 C 0.25776 0.66019 0.88467 0.0
C1199 C 0.22578 0.65202 0.86404 0.0
C1200 C 0.20822 0.65622 0.84565 0.0
C1201 C 0.25743 0.64377 0.90057 0.0
C1202 C 0.24124 0.63094 0.89786 0.0
C1203 C 0.22556 0.63539 0.8797 0.0
C1204 C 0.24029 0.61305 0.91399 0.0
C1205 C 0.27433 0.64057 0.92059 0.0
C1206 C 0.25452 0.59843 0.91268 0.0
C1207 C 0.25411 0.58211 0.92859 0.0
C1208 C 0.23937 0.57981 0.94626 0.0
C1209 C 0.22485 0.59427 0.94702 0.0
C1210 C 0.22529 0.61061 0.93107 0.0
H1211 H 0.28282 0.65416 0.92524 0.0
H1212 H 0.26924 0.63511 0.93931 0.0
H1213 H 0.28427 0.62957 0.91237 0.0
H1214 H 0.26601 0.59961 0.89927 0.0
H1215 H 0.26531 0.57119 0.92684 0.0
H1216 H 0.28956 0.26574 0.88765 0.0
H1217 H 0.32068 0.25658 0.9101 0.0
H1218 H 0.34146 0.2373 0.83517 0.0
H1219 H 0.3105 0.2469 0.81244 0.0
H1220 H 0.3423 0.22136 0.91231 0.0
H1221 H 0.381 0.27951 0.86306 0.0
H1222 H 0.3548 0.27845 0.86279 0.0
H1223 H 0.36753 0.26242 0.84119 0.0
C1224 C 0.3007 0.25941 0.87596 0.0
C1225 C 0.29764 0.25728 0.84821 0.0
C1226 C 0.31845 0.2541 0.88883 0.0
C1227 C 0.33352 0.24663 0.87425 0.0
C1228 C 0.33013 0.24338 0.84675 0.0
H1229 H 0.45631 0.22809 0.92442 0.0
H1230 H 0.42466 0.22878 0.89867 0.0
C1231 C 0.31235 0.24867 0.83383 0.0
C1232 C 0.35304 0.2433 0.88774 0.0
H1233 H 0.39996 0.25993 0.89205 0.0
C1234 C 0.35494 0.22971 0.90782 0.0
C1235 C 0.36951 0.25425 0.88187 0.0
C1236 C 0.36819 0.2696 0.86122 0.0
C1237 C 0.37288 0.22677 0.92217 0.0
C1238 C 0.38925 0.238 0.91665 0.0
C1239 C 0.38742 0.25132 0.89624 0.0
C1240 C 0.40825 0.2367 0.93238 0.0
C1241 C 0.37416 0.21154 0.94297 0.0
C1242 C 0.40956 0.24111 0.95978 0.0
C1243 C 0.42756 0.24066 0.9744 0.0
C1244 C 0.44454 0.2359 0.96184 0.0
C1245 C 0.44331 0.23162 0.93446 0.0
C1246 C 0.4253 0.23204 0.91982 0.0
H1247 H 0.3624 0.2005 0.93939 0.0
H1248 H 0.38844 0.20401 0.94352 0.0
H1249 H 0.37255 0.21867 0.96271 0.0
H1250 H 0.39672 0.24524 0.96978 0.0
H1251 H 0.42829 0.24421 0.99548 0.0
H1252 H 0.77621 0.29618 0.84989 0.0
H1253 H 0.78258 0.32641 0.87676 0.0
H1254 H 0.73438 0.35396 0.83385 0.0
H1255 H 0.72781 0.32375 0.8076 0.0
H1256 H 0.79052 0.36514 0.86751 0.0
H1257 H 0.71871 0.3592 0.90942 0.0
H1258 H 0.72885 0.3397 0.89 0.0
H1259 H 0.71692 0.35985 0.87393 0.0
C1260 C 0.76734 0.30888 0.84581 0.0
C1261 C 0.75162 0.30768 0.82652 0.0
C1262 C 0.77088 0.32612 0.86128 0.0
C1263 C 0.75868 0.34244 0.85785 0.0
C1264 C 0.74373 0.34153 0.83743 0.0
H1265 H 0.77658 0.46102 0.92591 0.0
H1266 H 0.7753 0.43141 0.89714 0.0
C1267 C 0.74013 0.32432 0.82216 0.0
C1268 C 0.76087 0.36001 0.87629 0.0
H1269 H 0.73599 0.38879 0.91897 0.0
C1270 C 0.77861 0.37027 0.87882 0.0
C1271 C 0.74551 0.36662 0.89157 0.0
C1272 C 0.72649 0.35567 0.89136 0.0
C1273 C 0.78122 0.3871 0.89556 0.0
C1274 C 0.76555 0.39417 0.90995 0.0
C1275 C 0.74798 0.38364 0.90783 0.0
C1276 C 0.76702 0.41226 0.92756 0.0
C1277 C 0.8009 0.39688 0.89806 0.0
C1278 C 0.76235 0.4117 0.95418 0.0
C1279 C 0.76287 0.42867 0.9705 0.0
C1280 C 0.76804 0.44665 0.9606 0.0
C1281 C 0.77274 0.4473 0.93407 0.0
C1282 C 0.77215 0.43032 0.91769 0.0
H1283 H 0.8126 0.3867 0.89254 0.0
H1284 H 0.80078 0.40918 0.88445 0.0
H1285 H 0.8045 0.40268 0.91858 0.0
H1286 H 0.75824 0.39807 0.96237 0.0
H1287 H 0.75909 0.42781 0.99084 0.0
H1288 H 0.69268 0.24698 0.24609 0.0
H1289 H 0.66213 0.23703 0.22122 0.0
H1290 H 0.68314 0.25965 0.15009 0.0
H1291 H 0.71363 0.26937 0.17466 0.0
H1292 H 0.63644 0.26334 0.19458 0.0
H1293 H 0.66121 0.20604 0.12495 0.0
H1294 H 0.67553 0.2138 0.15476 0.0
H1295 H 0.67532 0.22803 0.12561 0.0
C1296 C 0.69092 0.2494 0.22502 0.0
C1297 C 0.70551 0.25899 0.21232 0.0
C1298 C 0.67345 0.24382 0.21088 0.0
C1299 C 0.67042 0.24745 0.18375 0.0
C1300 C 0.68525 0.25642 0.17089 0.0
H1301 H 0.57896 0.24718 0.0592 0.0
H1302 H 0.6094 0.24875 0.08758 0.0
C1303 C 0.70261 0.26211 0.18501 0.0
C1304 C 0.65127 0.2434 0.1692 0.0
H1305 H 0.62985 0.21976 0.11419 0.0
C1306 C 0.6349 0.25359 0.17723 0.0
C1307 C 0.64934 0.23077 0.14649 0.0
C1308 C 0.66624 0.21888 0.13754 0.0
C1309 C 0.61683 0.25213 0.16251 0.0
C1310 C 0.615 0.23981 0.13944 0.0
C1311 C 0.63127 0.22923 0.13182 0.0
C1312 C 0.59657 0.23835 0.1223 0.0
C1313 C 0.60012 0.26446 0.17115 0.0
C1314 C 0.57929 0.23176 0.13228 0.0
C1315 C 0.56192 0.23099 0.11612 0.0
C1316 C 0.56162 0.23656 0.08968 0.0
C1317 C 0.57892 0.24282 0.07957 0.0
C1318 C 0.59626 0.24367 0.09572 0.0
H1319 H 0.60516 0.27648 0.18523 0.0
H1320 H 0.59197 0.27083 0.15382 0.0
H1321 H 0.58993 0.25523 0.18126 0.0
H1322 H 0.57924 0.22723 0.15255 0.0
H1323 H 0.54869 0.22612 0.12425 0.0
H1324 H 0.76823 0.71924 0.19134 0.0
H1325 H 0.77628 0.69026 0.16408 0.0
H1326 H 0.73621 0.65599 0.20487 0.0
H1327 H 0.72803 0.68483 0.23174 0.0
H1328 H 0.77519 0.63775 0.19495 0.0
H1329 H 0.73465 0.66628 0.10547 0.0
H1330 H 0.75213 0.68214 0.12349 0.0
H1331 H 0.73047 0.67528 0.13856 0.0
C1332 C 0.76153 0.7054 0.19486 0.0
C1333 C 0.74763 0.70426 0.21382 0.0
C1334 C 0.76597 0.6889 0.17912 0.0
C1335 C 0.75672 0.67093 0.18222 0.0
C1336 C 0.74354 0.66963 0.20203 0.0
H1337 H 0.75338 0.55273 0.1127 0.0
H1338 H 0.75188 0.58213 0.14139 0.0
C1339 C 0.73893 0.68611 0.21747 0.0
C1340 C 0.7599 0.65367 0.16417 0.0
H1341 H 0.74867 0.63529 0.10118 0.0
C1342 C 0.76949 0.63724 0.1744 0.0
C1343 C 0.75253 0.65295 0.13732 0.0
C1344 C 0.74175 0.67 0.1254 0.0
C1345 C 0.77197 0.62022 0.15856 0.0
C1346 C 0.76406 0.61924 0.13185 0.0
C1347 C 0.75472 0.63585 0.12157 0.0
C1348 C 0.76501 0.60115 0.11437 0.0
C1349 C 0.78343 0.60362 0.17058 0.0
C1350 C 0.77219 0.6019 0.08905 0.0
C1351 C 0.77267 0.58512 0.07241 0.0
C1352 C 0.76599 0.56714 0.08066 0.0
C1353 C 0.75873 0.56636 0.10588 0.0
C1354 C 0.75807 0.58317 0.12241 0.0
H1355 H 0.79375 0.60885 0.18719 0.0
H1356 H 0.77325 0.59324 0.1787 0.0
H1357 H 0.79179 0.59571 0.15562 0.0
H1358 H 0.77751 0.61551 0.08213 0.0
H1359 H 0.77822 0.58618 0.05301 0.0
H1360 H 0.32392 0.72302 0.21559 0.0
H1361 H 0.35134 0.73279 0.19125 0.0
H1362 H 0.32082 0.78499 0.16826 0.0
H1363 H 0.29276 0.77483 0.19203 0.0
H1364 H 0.33647 0.76686 0.1263 0.0
H1365 H 0.39304 0.77285 0.20904 0.0
H1366 H 0.38126 0.74957 0.20807 0.0
H1367 H 0.36745 0.7713 0.21439 0.0
C1368 C 0.32299 0.73663 0.20545 0.0
C1369 C 0.30603 0.74807 0.20565 0.0
C1370 C 0.33884 0.74234 0.19177 0.0
C1371 C 0.33837 0.7598 0.17821 0.0
C1372 C 0.32161 0.77151 0.17873 0.0
H1373 H 0.44565 0.79514 0.10799 0.0
H1374 H 0.41715 0.79489 0.13417 0.0
C1375 C 0.30563 0.76576 0.19247 0.0
C1376 C 0.35495 0.76496 0.16226 0.0
H1377 H 0.40461 0.76828 0.16534 0.0
C1378 C 0.35135 0.76746 0.13492 0.0
C1379 C 0.37439 0.76608 0.17344 0.0
C1380 C 0.37924 0.76502 0.2029 0.0
C1381 C 0.36665 0.7701 0.11834 0.0
C1382 C 0.38619 0.76975 0.12924 0.0
C1383 C 0.38971 0.76822 0.15678 0.0
C1384 C 0.40317 0.77043 0.11246 0.0
C1385 C 0.36167 0.77327 0.0893 0.0
C1386 C 0.40502 0.75668 0.09157 0.0
C1387 C 0.4212 0.75695 0.07628 0.0
C1388 C 0.43616 0.77081 0.08171 0.0
C1389 C 0.43435 0.78445 0.10284 0.0
C1390 C 0.41808 0.78425 0.11801 0.0
H1391 H 0.34692 0.77967 0.08595 0.0
H1392 H 0.37239 0.78303 0.08103 0.0
H1393 H 0.36169 0.75906 0.07822 0.0
H1394 H 0.39404 0.74554 0.08723 0.0
H1395 H 0.42187 0.74633 0.06007 0.0
H1396 H 0.28543 0.3148 0.24033 0.0
H1397 H 0.27907 0.34447 0.21586 0.0
H1398 H 0.22257 0.32213 0.18765 0.0
H1399 H 0.22882 0.29256 0.21281 0.0
H1400 H 0.27444 0.34621 0.16357 0.0
H1401 H 0.20841 0.37765 0.20476 0.0
H1402 H 0.22249 0.3588 0.22099 0.0
H1403 H 0.20545 0.35275 0.19333 0.0
C1404 C 0.27138 0.31652 0.22963 0.0
C1405 C 0.25751 0.30144 0.22887 0.0
C1406 C 0.2678 0.33345 0.21541 0.0
C1407 C 0.25027 0.33581 0.19984 0.0
C1408 C 0.23604 0.32105 0.19987 0.0
H1409 H 0.21481 0.4213 0.08003 0.0
H1410 H 0.2165 0.39363 0.10934 0.0
C1411 C 0.23959 0.3041 0.21434 0.0
C1412 C 0.24784 0.35282 0.18197 0.0
H1413 H 0.21848 0.39149 0.16546 0.0
C1414 C 0.26222 0.35613 0.16419 0.0
C1415 C 0.23185 0.36584 0.18235 0.0
C1416 C 0.21626 0.36374 0.20154 0.0
C1417 C 0.26107 0.37181 0.14692 0.0
C1418 C 0.24522 0.38493 0.14747 0.0
C1419 C 0.23067 0.38153 0.16496 0.0
C1420 C 0.24374 0.40233 0.1303 0.0
C1421 C 0.27674 0.37396 0.12782 0.0
C1422 C 0.25824 0.41681 0.13249 0.0
C1423 C 0.25727 0.43275 0.11585 0.0
C1424 C 0.24171 0.4348 0.09646 0.0
C1425 C 0.22695 0.42047 0.09474 0.0
C1426 C 0.22793 0.40451 0.11147 0.0
H1427 H 0.28477 0.36013 0.12479 0.0
H1428 H 0.2705 0.37872 0.10827 0.0
H1429 H 0.28739 0.38514 0.13594 0.0
H1430 H 0.27038 0.4158 0.1472 0.0
H1431 H 0.2687 0.4436 0.11841 0.0
H1432 H 0.28934 0.24855 0.18151 0.0
H1433 H 0.31907 0.24044 0.15978 0.0
H1434 H 0.34978 0.23344 0.23608 0.0
H1435 H 0.31989 0.2416 0.25799 0.0
H1436 H 0.36752 0.25978 0.20286 0.0
H1437 H 0.34993 0.18965 0.14911 0.0
H1438 H 0.33144 0.20786 0.14424 0.0
H1439 H 0.33674 0.19854 0.17671 0.0
C1440 C 0.30231 0.2448 0.19362 0.0
C1441 C 0.30231 0.24563 0.22143 0.0
C1442 C 0.31928 0.2401 0.18118 0.0
C1443 C 0.33664 0.23618 0.19627 0.0
C1444 C 0.33651 0.23629 0.22405 0.0
H1445 H 0.44566 0.20745 0.12286 0.0
H1446 H 0.41815 0.20693 0.15098 0.0
C1447 C 0.31943 0.24081 0.23654 0.0
C1448 C 0.35515 0.23397 0.18299 0.0
H1449 H 0.37681 0.20762 0.13464 0.0
C1450 C 0.36967 0.24822 0.18821 0.0
C1451 C 0.35801 0.21886 0.16395 0.0
C1452 C 0.34329 0.20274 0.15829 0.0
C1453 C 0.38657 0.2482 0.17415 0.0
C1454 C 0.38897 0.23363 0.1542 0.0
C1455 C 0.37487 0.2189 0.14976 0.0
C1456 C 0.40568 0.23389 0.13711 0.0
C1457 C 0.40165 0.26389 0.18055 0.0
C1458 C 0.40767 0.24908 0.11969 0.0
C1459 C 0.42323 0.24933 0.10335 0.0
C1460 C 0.43723 0.23438 0.10404 0.0
C1461 C 0.4351 0.21911 0.12149 0.0
C1462 C 0.41943 0.21882 0.13773 0.0
H1463 H 0.40008 0.27093 0.20039 0.0
H1464 H 0.41659 0.25789 0.17996 0.0
H1465 H 0.39987 0.27527 0.16556 0.0
H1466 H 0.39701 0.26068 0.11851 0.0
H1467 H 0.42405 0.26111 0.08982 0.0
H1468 H 0.78039 0.30735 0.22734 0.0
H1469 H 0.78878 0.3388 0.20966 0.0
H1470 H 0.73015 0.3589 0.21812 0.0
H1471 H 0.72169 0.32754 0.23578 0.0
H1472 H 0.76627 0.351 0.1618 0.0
H1473 H 0.76601 0.40617 0.24473 0.0
H1474 H 0.7703 0.3806 0.24995 0.0
H1475 H 0.74604 0.38917 0.24202 0.0
C1476 C 0.76949 0.31871 0.22618 0.0
C1477 C 0.75038 0.31505 0.23277 0.0
C1478 C 0.77427 0.3366 0.21604 0.0
C1479 C 0.76011 0.35116 0.2128 0.0
C1480 C 0.74134 0.34794 0.22085 0.0
H1481 H 0.74172 0.45681 0.12932 0.0
H1482 H 0.7414 0.42983 0.15942 0.0
C1483 C 0.7365 0.33001 0.23073 0.0
C1484 C 0.76399 0.36849 0.19754 0.0
H1485 H 0.76553 0.41812 0.2011 0.0
C1486 C 0.7664 0.36569 0.1704 0.0
C1487 C 0.76383 0.38754 0.20887 0.0
C1488 C 0.76155 0.39116 0.23804 0.0
C1489 C 0.76801 0.38151 0.15398 0.0
C1490 C 0.76783 0.40065 0.16524 0.0
C1491 C 0.76575 0.40344 0.19254 0.0
C1492 C 0.76896 0.41791 0.14869 0.0
C1493 C 0.76897 0.37752 0.12456 0.0
C1494 C 0.78481 0.42046 0.13319 0.0
C1495 C 0.78483 0.43558 0.1155 0.0
C1496 C 0.76917 0.44873 0.11332 0.0
C1497 C 0.75381 0.44672 0.12998 0.0
C1498 C 0.75369 0.43143 0.14744 0.0
H1499 H 0.76364 0.36267 0.11843 0.0
H1500 H 0.76021 0.38824 0.11295 0.0
H1501 H 0.78431 0.37862 0.11938 0.0
H1502 H 0.79695 0.41044 0.13428 0.0
H1503 H 0.79685 0.43651 0.10292 0.0
H1504 H 0.69584 0.7791 0.22487 0.0
H1505 H 0.66357 0.78682 0.20457 0.0
H1506 H 0.64911 0.72569 0.1993 0.0
H1507 H 0.68063 0.71804 0.22115 0.0
H1508 H 0.65042 0.77792 0.15696 0.0
H1509 H 0.59906 0.74592 0.22192 0.0
H1510 H 0.62456 0.74896 0.23204 0.0
H1511 H 0.61614 0.7278 0.21241 0.0
C1512 C 0.68554 0.76736 0.22025 0.0
C1513 C 0.69098 0.74792 0.2245 0.0
C1514 C 0.66711 0.77178 0.20839 0.0
C1515 C 0.6537 0.75688 0.20051 0.0
C1516 C 0.65887 0.73755 0.20568 0.0
H1517 H 0.57345 0.7549 0.06325 0.0
H1518 H 0.60089 0.75353 0.09653 0.0
C1519 C 0.67713 0.73316 0.21783 0.0
C1520 C 0.6353 0.76119 0.18437 0.0
H1521 H 0.58691 0.74955 0.17606 0.0
C1522 C 0.63649 0.77198 0.16146 0.0
C1523 C 0.61693 0.75382 0.19028 0.0
C1524 C 0.61407 0.74369 0.21568 0.0
C1525 C 0.62017 0.77473 0.14374 0.0
C1526 C 0.60221 0.76587 0.14844 0.0
C1527 C 0.60073 0.756 0.17205 0.0
C1528 C 0.58514 0.76603 0.12859 0.0
C1529 C 0.62241 0.78717 0.12014 0.0
C1530 C 0.56681 0.77262 0.13569 0.0
C1531 C 0.55092 0.77289 0.11674 0.0
C1532 C 0.55312 0.76654 0.09044 0.0
C1533 C 0.57137 0.75974 0.08346 0.0
C1534 C 0.58711 0.75922 0.1024 0.0
H1535 H 0.63416 0.79816 0.12438 0.0
H1536 H 0.6265 0.77779 0.10313 0.0
H1537 H 0.60869 0.79487 0.11428 0.0
H1538 H 0.56486 0.77782 0.15578 0.0
H1539 H 0.537 0.7783 0.12247 0.0
H1540 H 0.23159 0.69732 0.22099 0.0
H1541 H 0.22235 0.66446 0.20498 0.0
H1542 H 0.28303 0.64931 0.20233 0.0
H1543 H 0.29233 0.68157 0.22005 0.0
H1544 H 0.22858 0.65092 0.15843 0.0
H1545 H 0.26329 0.60006 0.22871 0.0
H1546 H 0.26099 0.62568 0.23698 0.0
H1547 H 0.28123 0.61681 0.21923 0.0
C1548 C 0.24297 0.68677 0.21796 0.0
C1549 C 0.26271 0.69216 0.22152 0.0
C1550 C 0.23766 0.66801 0.20864 0.0
C1551 C 0.25197 0.65431 0.20262 0.0
C1552 C 0.27168 0.65939 0.2074 0.0
H1553 H 0.25303 0.57618 0.07041 0.0
H1554 H 0.25356 0.6032 0.10332 0.0
C1555 C 0.27699 0.67802 0.21707 0.0
C1556 C 0.24653 0.63588 0.18782 0.0
H1557 H 0.25848 0.58779 0.18265 0.0
C1558 C 0.23477 0.63704 0.16409 0.0
C1559 C 0.25425 0.61764 0.1953 0.0
C1560 C 0.26545 0.61497 0.22163 0.0
C1561 C 0.23165 0.62079 0.14684 0.0
C1562 C 0.24107 0.60309 0.15303 0.0
C1563 C 0.25165 0.60152 0.1776 0.0
C1564 C 0.24111 0.58652 0.13355 0.0
C1565 C 0.21854 0.62291 0.12192 0.0
C1566 C 0.23478 0.56798 0.14004 0.0
C1567 C 0.23487 0.55248 0.12141 0.0
C1568 C 0.24122 0.55538 0.09609 0.0
C1569 C 0.24792 0.57377 0.0898 0.0
C1570 C 0.24804 0.58918 0.10847 0.0
H1571 H 0.20742 0.63438 0.12467 0.0
H1572 H 0.2274 0.6273 0.10563 0.0
H1573 H 0.21097 0.60904 0.11581 0.0
H1574 H 0.2296 0.56558 0.15939 0.0
H1575 H 0.2298 0.53829 0.12659 0.0
H1576 H 0.30565 0.78814 0.81385 0.0
H1577 H 0.3376 0.79562 0.83664 0.0
H1578 H 0.3505 0.73427 0.83875 0.0
H1579 H 0.31915 0.72684 0.8152 0.0
H1580 H 0.34973 0.78562 0.88563 0.0
H1581 H 0.40103 0.75459 0.81657 0.0
H1582 H 0.37567 0.7585 0.8067 0.0
H1583 H 0.38322 0.73688 0.8237 0.0
C1584 C 0.31557 0.77632 0.81848 0.0
C1585 C 0.30983 0.7569 0.81281 0.0
C1586 C 0.33375 0.78058 0.8317 0.0
C1587 C 0.34659 0.76553 0.83925 0.0
C1588 C 0.34112 0.7462 0.83269 0.0
H1589 H 0.43082 0.76196 0.97377 0.0
H1590 H 0.40167 0.7614 0.94288 0.0
C1591 C 0.32306 0.74195 0.81945 0.0
C1592 C 0.3649 0.7697 0.85599 0.0
H1593 H 0.41334 0.75865 0.86229 0.0
C1594 C 0.3637 0.77997 0.88033 0.0
C1595 C 0.38323 0.76259 0.84904 0.0
C1596 C 0.38591 0.75272 0.82244 0.0
C1597 C 0.38008 0.78259 0.89831 0.0
C1598 C 0.39811 0.77428 0.89214 0.0
C1599 C 0.39949 0.76476 0.86731 0.0
C1600 C 0.41564 0.77504 0.91121 0.0
C1601 C 0.37788 0.79433 0.92368 0.0
C1602 C 0.4334 0.78225 0.90349 0.0
C1603 C 0.45008 0.78226 0.92098 0.0
C1604 C 0.44927 0.77528 0.94663 0.0
C1605 C 0.43163 0.76785 0.9543 0.0
C1606 C 0.41497 0.76766 0.93672 0.0
H1607 H 0.36557 0.80473 0.92151 0.0
H1608 H 0.37476 0.78435 0.93962 0.0
H1609 H 0.39136 0.80262 0.92997 0.0
H1610 H 0.43439 0.78778 0.88385 0.0
H1611 H 0.46368 0.78755 0.91439 0.0
H1612 H 0.25393 0.32659 0.79756 0.0
H1613 H 0.24664 0.35977 0.81369 0.0
H1614 H 0.2442 0.3392 0.89292 0.0
H1615 H 0.25128 0.30615 0.87698 0.0
H1616 H 0.21275 0.36614 0.87373 0.0
H1617 H 0.28841 0.39209 0.86257 0.0
H1618 H 0.27547 0.37974 0.83469 0.0
H1619 H 0.28265 0.36652 0.86367 0.0
C1620 C 0.25155 0.32916 0.81832 0.0
C1621 C 0.2533 0.3139 0.8361 0.0
C1622 C 0.24752 0.34807 0.8275 0.0
C1623 C 0.24508 0.35186 0.85449 0.0
C1624 C 0.24609 0.33651 0.87202 0.0
H1625 H 0.23268 0.43621 0.97688 0.0
H1626 H 0.23229 0.40791 0.94598 0.0
C1627 C 0.25023 0.31771 0.86294 0.0
C1628 C 0.24235 0.37185 0.86512 0.0
H1629 H 0.26763 0.41318 0.88455 0.0
C1630 C 0.22462 0.37659 0.87574 0.0
C1631 C 0.25786 0.3854 0.86753 0.0
C1632 C 0.27725 0.38079 0.85666 0.0
C1633 C 0.22221 0.39433 0.88965 0.0
C1634 C 0.23812 0.40738 0.8935 0.0
C1635 C 0.25551 0.40308 0.88164 0.0
C1636 C 0.23765 0.42464 0.91172 0.0
C1637 C 0.20278 0.39877 0.90047 0.0
C1638 C 0.24133 0.44332 0.90283 0.0
C1639 C 0.24173 0.45942 0.92055 0.0
C1640 C 0.23862 0.45693 0.94731 0.0
C1641 C 0.23502 0.43831 0.95622 0.0
C1642 C 0.23464 0.42226 0.93858 0.0
H1643 H 0.19077 0.39096 0.88869 0.0
H1644 H 0.20292 0.39384 0.92113 0.0
H1645 H 0.19967 0.41462 0.9006 0.0
H1646 H 0.24388 0.44541 0.88224 0.0
H1647 H 0.24452 0.47377 0.91346 0.0
H1648 H 0.71536 0.25581 0.86384 0.0
H1649 H 0.68542 0.24758 0.8842 0.0
H1650 H 0.65416 0.24562 0.80725 0.0
H1651 H 0.68433 0.25394 0.78668 0.0
H1652 H 0.63694 0.26972 0.84612 0.0
H1653 H 0.65387 0.19674 0.8845 0.0
H1654 H 0.67273 0.21435 0.89308 0.0
H1655 H 0.66705 0.20727 0.85885 0.0
C1656 C 0.70217 0.25325 0.8512 0.0
C1657 C 0.70216 0.25547 0.82368 0.0
C1658 C 0.68509 0.24846 0.86285 0.0
C1659 C 0.66756 0.24579 0.84726 0.0
C1660 C 0.66756 0.24748 0.81964 0.0
H1661 H 0.56053 0.2126 0.91998 0.0
H1662 H 0.58713 0.21375 0.8904 0.0
C1663 C 0.68478 0.25211 0.80789 0.0
C1664 C 0.64913 0.24288 0.86033 0.0
H1665 H 0.62784 0.21408 0.90386 0.0
C1666 C 0.63481 0.25741 0.85843 0.0
C1667 C 0.64627 0.22677 0.87628 0.0
C1668 C 0.6607 0.21029 0.87815 0.0
C1669 C 0.61817 0.25669 0.87297 0.0
C1670 C 0.61585 0.24113 0.89007 0.0
C1671 C 0.62971 0.22613 0.891 0.0
C1672 C 0.59954 0.24052 0.90784 0.0
C1673 C 0.60327 0.2727 0.8701 0.0
C1674 C 0.5978 0.25504 0.92774 0.0
C1675 C 0.58274 0.25434 0.94487 0.0
C1676 C 0.56902 0.23907 0.94255 0.0
C1677 C 0.57089 0.22448 0.92262 0.0
C1678 C 0.58604 0.22516 0.90555 0.0
H1679 H 0.60436 0.28042 0.85133 0.0
H1680 H 0.58827 0.26686 0.8706 0.0
H1681 H 0.6058 0.2835 0.88681 0.0
H1682 H 0.6083 0.26681 0.93029 0.0
H1683 H 0.58209 0.26561 0.96027 0.0
H1684 H 0.72167 0.68011 0.79027 0.0
H1685 H 0.73081 0.64954 0.81084 0.0
H1686 H 0.7907 0.66847 0.82034 0.0
H1687 H 0.7815 0.69948 0.80053 0.0
H1688 H 0.75748 0.6192 0.80348 0.0
H1689 H 0.77524 0.66322 0.8966 0.0
H1690 H 0.76291 0.67343 0.8677 0.0
H1691 H 0.78868 0.66905 0.86875 0.0
C1692 C 0.73683 0.67765 0.7964 0.0
C1693 C 0.75081 0.69232 0.79435 0.0
C1694 C 0.74206 0.66012 0.80797 0.0
C1695 C 0.76135 0.65694 0.81761 0.0
C1696 C 0.77567 0.67082 0.81342 0.0
H1697 H 0.78956 0.55031 0.90462 0.0
H1698 H 0.79047 0.57551 0.87164 0.0
C1699 C 0.77042 0.68844 0.80191 0.0
C1700 C 0.7657 0.64027 0.83474 0.0
H1701 H 0.7763 0.62936 0.89942 0.0
C1702 C 0.76189 0.62133 0.82438 0.0
C1703 C 0.77117 0.64321 0.86208 0.0
C1704 C 0.77461 0.6633 0.8746 0.0
C1705 C 0.76286 0.60527 0.84084 0.0
C1706 C 0.76797 0.60831 0.86823 0.0
C1707 C 0.77244 0.62714 0.87837 0.0
C1708 C 0.76716 0.59253 0.88724 0.0
C1709 C 0.7575 0.58535 0.82912 0.0
C1710 C 0.7539 0.59389 0.90703 0.0
C1711 C 0.75349 0.57971 0.926 0.0
C1712 C 0.76637 0.56386 0.92561 0.0
C1713 C 0.77954 0.56242 0.90557 0.0
C1714 C 0.77995 0.57668 0.88656 0.0
H1715 H 0.75067 0.58601 0.80861 0.0
H1716 H 0.77083 0.57632 0.82853 0.0
H1717 H 0.7473 0.57797 0.84157 0.0
H1718 H 0.74398 0.60609 0.90795 0.0
H1719 H 0.7434 0.58146 0.94139 0.0
loop_
_geom_bond_atom_site_label_1
_geom_bond_atom_site_label_2
_geom_bond_distance
_geom_bond_site_symmetry_2
_ccdc_geom_bond_type
H0 C6 0.930 . S
H1 C9 0.931 . S
H2 C11 0.931 . S
H3 C13 0.930 . S
H4 C15 0.930 . S
H5 C17 0.931 . S
C6 H0 0.930 . S
C6 C7 1.380 . S
C6 C8 1.394 . S
C7 C6 1.380 . S
C7 C11 1.382 . S
C8 C6 1.394 . S
C8 C9 1.400 . S
C9 H1 0.931 . S
C9 C8 1.400 . S
C9 C10 1.375 . S
C10 C9 1.375 . S
C10 C11 1.415 . S
C10 C12 1.501 . S
C11 H2 0.931 . S
C11 C7 1.382 . S
C11 C10 1.415 . S
C12 C10 1.501 . S
C12 C13 1.384 . S
C12 C17 1.408 . S
C13 H3 0.930 . S
C13 C12 1.384 . S
C13 C14 1.389 . S
C14 C13 1.389 . S
C14 C15 1.405 . S
C15 H4 0.930 . S
C15 C14 1.405 . S
C15 C16 1.364 . S
C16 C15 1.364 . S
C16 C17 1.400 . S
C17 H5 0.931 . S
C17 C12 1.408 . S
C17 C16 1.400 . S
H18 C24 0.930 . S
H19 C27 0.931 . S
H20 C29 0.931 . S
H21 C31 0.930 . S
H22 C33 0.930 . S
H23 C35 0.931 . S
C24 H18 0.930 . S
C24 C25 1.380 . S
C24 C26 1.394 . S
C25 C24 1.380 . S
C25 C29 1.382 . S
C26 C24 1.394 . S
C26 C27 1.400 . S
C27 H19 0.931 . S
C27 C26 1.400 . S
C27 C28 1.375 . S
C28 C27 1.375 . S
C28 C29 1.415 . S
C28 C30 1.501 . S
C29 H20 0.931 . S
C29 C25 1.382 . S
C29 C28 1.415 . S
C30 C28 1.501 . S
C30 C31 1.384 . S
C30 C35 1.408 . S
C31 H21 0.930 . S
C31 C30 1.384 . S
C31 C32 1.389 . S
C32 C31 1.389 . S
C32 C33 1.405 . S
C33 H22 0.930 . S
C33 C32 1.405 . S
C33 C34 1.364 . S
C34 C33 1.364 . S
C34 C35 1.400 . S
C35 H23 0.931 . S
C35 C30 1.408 . S
C35 C34 1.400 . S
H36 C42 0.930 . S
H37 C45 0.931 . S
H38 C47 0.931 . S
H39 C49 0.930 . S
H40 C51 0.930 . S
H41 C53 0.931 . S
C42 H36 0.930 . S
C42 C43 1.380 . S
C42 C44 1.394 . S
C43 C42 1.380 . S
C43 C47 1.382 . S
C44 C42 1.394 . S
C44 C45 1.400 . S
C45 H37 0.931 . S
C45 C44 1.400 . S
C45 C46 1.375 . S
C46 C45 1.375 . S
C46 C47 1.415 . S
C46 C48 1.501 . S
C47 H38 0.931 . S
C47 C43 1.382 . S
C47 C46 1.415 . S
C48 C46 1.501 . S
C48 C49 1.384 . S
C48 C53 1.408 . S
C49 H39 0.930 . S
C49 C48 1.384 . S
C49 C50 1.389 . S
C50 C49 1.389 . S
C50 C51 1.405 . S
C51 H40 0.930 . S
C51 C50 1.405 . S
C51 C52 1.364 . S
C52 C51 1.364 . S
C52 C53 1.400 . S
C53 H41 0.931 . S
C53 C48 1.408 . S
C53 C52 1.400 . S
H54 C60 0.930 . S
H55 C63 0.931 . S
H56 C65 0.931 . S
H57 C67 0.930 . S
H58 C69 0.930 . S
H59 C71 0.931 . S
C60 H54 0.930 . S
C60 C61 1.380 . S
C60 C62 1.394 . S
C61 C60 1.380 . S
C61 C65 1.382 . S
C62 C60 1.394 . S
C62 C63 1.400 . S
C63 H55 0.931 . S
C63 C62 1.400 . S
C63 C64 1.375 . S
C64 C63 1.375 . S
C64 C65 1.415 . S
C64 C66 1.501 . S
C65 H56 0.931 . S
C65 C61 1.382 . S
C65 C64 1.415 . S
C66 C64 1.501 . S
C66 C67 1.384 . S
C66 C71 1.408 . S
C67 H57 0.930 . S
C67 C66 1.384 . S
C67 C68 1.389 . S
C68 C67 1.389 . S
C68 C69 1.405 . S
C69 H58 0.930 . S
C69 C68 1.405 . S
C69 C70 1.364 . S
C70 C69 1.364 . S
C70 C71 1.400 . S
C71 H59 0.931 . S
C71 C66 1.408 . S
C71 C70 1.400 . S
H72 C78 0.930 . S
H73 C81 0.931 . S
H74 C83 0.931 . S
H75 C85 0.930 . S
H76 C87 0.930 . S
H77 C89 0.931 . S
C78 H72 0.930 . S
C78 C79 1.380 . S
C78 C80 1.394 . S
C79 C78 1.380 . S
C79 C83 1.382 . S
C80 C78 1.394 . S
C80 C81 1.400 . S
C81 H73 0.931 . S
C81 C80 1.400 . S
C81 C82 1.375 . S
C82 C81 1.375 . S
C82 C83 1.415 . S
C82 C84 1.501 . S
C83 H74 0.931 . S
C83 C79 1.382 . S
C83 C82 1.415 . S
C84 C82 1.501 . S
C84 C85 1.384 . S
C84 C89 1.408 . S
C85 H75 0.930 . S
C85 C84 1.384 . S
C85 C86 1.389 . S
C86 C85 1.389 . S
C86 C87 1.405 . S
C87 H76 0.930 . S
C87 C86 1.405 . S
C87 C88 1.364 . S
C88 C87 1.364 . S
C88 C89 1.400 . S
C89 H77 0.931 . S
C89 C84 1.408 . S
C89 C88 1.400 . S
H90 C96 0.930 . S
H91 C99 0.931 . S
H92 C101 0.931 . S
H93 C103 0.930 . S
H94 C105 0.930 . S
H95 C107 0.931 . S
C96 H90 0.930 . S
C96 C97 1.380 . S
C96 C98 1.394 . S
C97 C96 1.380 . S
C97 C101 1.382 . S
C98 C96 1.394 . S
C98 C99 1.400 . S
C99 H91 0.931 . S
C99 C98 1.400 . S
C99 C100 1.375 . S
C100 C99 1.375 . S
C100 C101 1.415 . S
C100 C102 1.501 . S
C101 H92 0.931 . S
C101 C97 1.382 . S
C101 C100 1.415 . S
C102 C100 1.501 . S
C102 C103 1.384 . S
C102 C107 1.408 . S
C103 H93 0.930 . S
C103 C102 1.384 . S
C103 C104 1.389 . S
C104 C103 1.389 . S
C104 C105 1.405 . S
C105 H94 0.930 . S
C105 C104 1.405 . S
C105 C106 1.364 . S
C106 C105 1.364 . S
C106 C107 1.400 . S
C107 H95 0.931 . S
C107 C102 1.408 . S
C107 C106 1.400 . S
H108 C114 0.930 . S
H109 C117 0.931 . S
H110 C119 0.931 . S
H111 C121 0.930 . S
H112 C123 0.930 . S
H113 C125 0.931 . S
C114 H108 0.930 . S
C114 C115 1.380 . S
C114 C116 1.394 . S
C115 C114 1.380 . S
C115 C119 1.382 . S
C116 C114 1.394 . S
C116 C117 1.400 . S
C117 H109 0.931 . S
C117 C116 1.400 . S
C117 C118 1.375 . S
C118 C117 1.375 . S
C118 C119 1.415 . S
C118 C120 1.501 . S
C119 H110 0.931 . S
C119 C115 1.382 . S
C119 C118 1.415 . S
C120 C118 1.501 . S
C120 C121 1.384 . S
C120 C125 1.408 . S
C121 H111 0.930 . S
C121 C120 1.384 . S
C121 C122 1.389 . S
C122 C121 1.389 . S
C122 C123 1.405 . S
C123 H112 0.930 . S
C123 C122 1.405 . S
C123 C124 1.364 . S
C124 C123 1.364 . S
C124 C125 1.400 . S
C125 H113 0.931 . S
C125 C120 1.408 . S
C125 C124 1.400 . S
H126 C132 0.930 . S
H127 C135 0.931 . S
H128 C137 0.931 . S
H129 C139 0.930 . S
H130 C141 0.930 . S
H131 C143 0.931 . S
C132 H126 0.930 . S
C132 C133 1.380 . S
C132 C134 1.394 . S
C133 C132 1.380 . S
C133 C137 1.382 . S
C134 C132 1.394 . S
C134 C135 1.400 . S
C135 H127 0.931 . S
C135 C134 1.400 . S
C135 C136 1.375 . S
C136 C135 1.375 . S
C136 C137 1.415 . S
C136 C138 1.501 . S
C137 H128 0.931 . S
C137 C133 1.382 . S
C137 C136 1.415 . S
C138 C136 1.501 . S
C138 C139 1.384 . S
C138 C143 1.408 . S
C139 H129 0.930 . S
C139 C138 1.384 . S
C139 C140 1.389 . S
C140 C139 1.389 . S
C140 C141 1.405 . S
C141 H130 0.930 . S
C141 C140 1.405 . S
C141 C142 1.364 . S
C142 C141 1.364 . S
C142 C143 1.400 . S
C143 H131 0.931 . S
C143 C138 1.408 . S
C143 C142 1.400 . S
C144 C145 1.443 . S
C144 N148 1.376 . S
C144 C182 1.389 . S
C145 C144 1.443 . S
C145 C146 1.340 . S
C145 H185 0.951 . S
C146 C145 1.340 . S
C146 C147 1.439 . S
C146 H186 0.950 . S
C147 C146 1.439 . S
C147 N148 1.374 . S
C147 C181 1.395 . S
N148 C144 1.376 . S
N148 C147 1.374 . S
N148 Co149 2.008 . S
Co149 N148 2.008 . S
Co149 N150 1.995 1_455 S
Co149 N155 2.008 1_455 S
Co149 N160 1.995 . S
Co149 N165 2.282 1_455 S
Co149 N171 2.282 . S
N150 Co149 1.995 1_655 S
N150 C151 1.376 . S
N150 C154 1.383 . S
C151 N150 1.376 . S
C151 C152 1.446 . S
C151 C181 1.391 1_655 S
C152 C151 1.446 . S
C152 C153 1.339 . S
C152 H187 0.949 . S
C153 C152 1.339 . S
C153 C154 1.439 . S
C153 H188 0.950 . S
C154 N150 1.383 . S
C154 C153 1.439 . S
C154 C183 1.392 . S
N155 Co149 2.008 1_655 S
N155 C156 1.376 . S
N155 C159 1.374 . S
C156 N155 1.376 . S
C156 C157 1.443 . S
C156 C183 1.389 . S
C157 C156 1.443 . S
C157 C158 1.340 . S
C157 H189 0.951 . S
C158 C157 1.340 . S
C158 C159 1.439 . S
C158 H190 0.950 . S
C159 N155 1.374 . S
C159 C158 1.439 . S
C159 C184 1.424 . S
N160 Co149 1.995 . S
N160 C161 1.376 . S
N160 C164 1.383 . S
C161 N160 1.376 . S
C161 C162 1.446 . S
C161 C184 1.360 1_455 S
C162 C161 1.446 . S
C162 C163 1.339 . S
C162 H191 0.949 . S
C163 C162 1.339 . S
C163 C164 1.439 . S
C163 H192 0.950 . S
C164 N160 1.383 . S
C164 C163 1.439 . S
C164 C182 1.392 . S
N165 Co149 2.282 1_655 S
N165 C168 1.332 . S
N165 C170 1.332 . S
C166 C167 1.386 . S
C166 C169 1.388 . S
C167 C166 1.386 . S
C167 C168 1.382 . S
C167 H193 0.950 . S
C168 N165 1.332 . S
C168 C167 1.382 . S
C168 H179 0.952 . S
C169 C166 1.388 . S
C169 C170 1.382 . S
C169 H194 0.950 . S
C170 N165 1.332 . S
C170 C169 1.382 . S
C170 H180 0.948 . S
N171 Co149 2.282 . S
N171 C175 1.332 . S
N171 C176 1.332 . S
C172 C173 1.388 . S
C172 C176 1.382 . S
C172 H195 0.950 . S
C173 C172 1.388 . S
C173 C174 1.386 . S
C174 C173 1.386 . S
C174 C175 1.382 . S
C174 H196 0.950 . S
C175 N171 1.332 . S
C175 C174 1.382 . S
C175 H177 0.952 . S
C176 N171 1.332 . S
C176 C172 1.382 . S
C176 H178 0.948 . S
H177 C175 0.952 . S
H178 C176 0.948 . S
H179 C168 0.952 . S
H180 C170 0.948 . S
C181 C147 1.395 . S
C181 C151 1.391 1_455 S
C182 C144 1.389 . S
C182 C164 1.392 . S
C183 C154 1.392 . S
C183 C156 1.389 . S
C184 C159 1.424 . S
C184 C161 1.360 1_655 S
H185 C145 0.951 . S
H186 C146 0.950 . S
H187 C152 0.949 . S
H188 C153 0.950 . S
H189 C157 0.951 . S
H190 C158 0.950 . S
H191 C162 0.949 . S
H192 C163 0.950 . S
H193 C167 0.950 . S
H194 C169 0.950 . S
H195 C172 0.950 . S
H196 C174 0.950 . S
C197 C198 1.443 . S
C197 N201 1.376 . S
C197 C235 1.389 . S
C198 C197 1.443 . S
C198 C199 1.340 . S
C198 H238 0.951 . S
C199 C198 1.340 . S
C199 C200 1.439 . S
C199 H239 0.950 . S
C200 C199 1.439 . S
C200 N201 1.374 . S
C200 C234 1.395 . S
N201 C197 1.376 . S
N201 C200 1.374 . S
N201 Co202 2.008 . S
Co202 N201 2.008 . S
Co202 N203 1.995 1_545 S
Co202 N208 2.008 1_545 S
Co202 N213 1.995 . S
Co202 N218 2.282 1_545 S
Co202 N224 2.282 . S
N203 Co202 1.995 1_565 S
N203 C204 1.376 . S
N203 C207 1.383 . S
C204 N203 1.376 . S
C204 C205 1.446 . S
C204 C234 1.391 1_565 S
C205 C204 1.446 . S
C205 C206 1.339 . S
C205 H240 0.949 . S
C206 C205 1.339 . S
C206 C207 1.439 . S
C206 H241 0.950 . S
C207 N203 1.383 . S
C207 C206 1.439 . S
C207 C236 1.392 . S
N208 Co202 2.008 1_565 S
N208 C209 1.376 . S
N208 C212 1.374 . S
C209 N208 1.376 . S
C209 C210 1.443 . S
C209 C236 1.389 . S
C210 C209 1.443 . S
C210 C211 1.340 . S
C210 H242 0.951 . S
C211 C210 1.340 . S
C211 C212 1.439 . S
C211 H243 0.950 . S
C212 N208 1.374 . S
C212 C211 1.439 . S
C212 C237 1.394 . S
N213 Co202 1.995 . S
N213 C214 1.376 . S
N213 C217 1.383 . S
C214 N213 1.376 . S
C214 C215 1.446 . S
C214 C237 1.392 1_545 S
C215 C214 1.446 . S
C215 C216 1.339 . S
C215 H244 0.949 . S
C216 C215 1.339 . S
C216 C217 1.439 . S
C216 H245 0.950 . S
C217 N213 1.383 . S
C217 C216 1.439 . S
C217 C235 1.392 . S
N218 Co202 2.282 1_565 S
N218 C221 1.332 . S
N218 C223 1.332 . S
C219 C220 1.386 . S
C219 C222 1.388 . S
C220 C219 1.386 . S
C220 C221 1.382 . S
C220 H246 0.950 . S
C221 N218 1.332 . S
C221 C220 1.382 . S
C221 H232 0.952 . S
C222 C219 1.388 . S
C222 C223 1.382 . S
C222 H247 0.950 . S
C223 N218 1.332 . S
C223 C222 1.382 . S
C223 H233 0.948 . S
N224 Co202 2.282 . S
N224 C228 1.332 . S
N224 C229 1.332 . S
C225 C226 1.388 . S
C225 C229 1.382 . S
C225 H248 0.950 . S
C226 C225 1.388 . S
C226 C227 1.386 . S
C227 C226 1.386 . S
C227 C228 1.382 . S
C227 H249 0.950 . S
C228 N224 1.332 . S
C228 C227 1.382 . S
C228 H230 0.952 . S
C229 N224 1.332 . S
C229 C225 1.382 . S
C229 H231 0.948 . S
H230 C228 0.952 . S
H231 C229 0.948 . S
H232 C221 0.952 . S
H233 C223 0.948 . S
C234 C200 1.395 . S
C234 C204 1.391 1_545 S
C235 C197 1.389 . S
C235 C217 1.392 . S
C236 C207 1.392 . S
C236 C209 1.389 . S
C237 C212 1.394 . S
C237 C214 1.392 1_565 S
H238 C198 0.951 . S
H239 C199 0.950 . S
H240 C205 0.949 . S
H241 C206 0.950 . S
H242 C210 0.951 . S
H243 C211 0.950 . S
H244 C215 0.949 . S
H245 C216 0.950 . S
H246 C220 0.950 . S
H247 C222 0.950 . S
H248 C225 0.950 . S
H249 C227 0.950 . S
C250 C251 1.443 . S
C250 N254 1.376 . S
C250 C288 1.389 . S
C251 C250 1.443 . S
C251 C252 1.340 . S
C251 H291 0.951 . S
C252 C251 1.340 . S
C252 C253 1.439 . S
C252 H292 0.950 . S
C253 C252 1.439 . S
C253 N254 1.374 . S
C253 C287 1.395 . S
N254 C250 1.376 . S
N254 C253 1.374 . S
N254 Co255 2.008 . S
Co255 N254 2.008 . S
Co255 N256 1.995 1_455 S
Co255 N261 2.008 1_455 S
Co255 N266 1.995 . S
Co255 N271 2.282 1_455 S
Co255 N277 2.282 . S
N256 Co255 1.995 1_655 S
N256 C257 1.376 . S
N256 C260 1.383 . S
C257 N256 1.376 . S
C257 C258 1.446 . S
C257 C287 1.391 1_655 S
C258 C257 1.446 . S
C258 C259 1.339 . S
C258 H293 0.949 . S
C259 C258 1.339 . S
C259 C260 1.439 . S
C259 H294 0.950 . S
C260 N256 1.383 . S
C260 C259 1.439 . S
C260 C289 1.392 . S
N261 Co255 2.008 1_655 S
N261 C262 1.376 . S
N261 C265 1.374 . S
C262 N261 1.376 . S
C262 C263 1.443 . S
C262 C289 1.389 . S
C263 C262 1.443 . S
C263 C264 1.340 . S
C263 H295 0.951 . S
C264 C263 1.340 . S
C264 C265 1.439 . S
C264 H296 0.950 . S
C265 N261 1.374 . S
C265 C264 1.439 . S
C265 C290 1.395 . S
N266 Co255 1.995 . S
N266 C267 1.376 . S
N266 C270 1.383 . S
C267 N266 1.376 . S
C267 C268 1.446 . S
C267 C290 1.391 1_455 S
C268 C267 1.446 . S
C268 C269 1.339 . S
C268 H297 0.949 . S
C269 C268 1.339 . S
C269 C270 1.439 . S
C269 H298 0.950 . S
C270 N266 1.383 . S
C270 C269 1.439 . S
C270 C288 1.392 . S
N271 Co255 2.282 1_655 S
N271 C274 1.332 . S
N271 C276 1.332 . S
C272 C273 1.386 . S
C272 C275 1.388 . S
C273 C272 1.386 . S
C273 C274 1.382 . S
C273 H299 0.950 . S
C274 N271 1.332 . S
C274 C273 1.382 . S
C274 H285 0.952 . S
C275 C272 1.388 . S
C275 C276 1.382 . S
C275 H300 0.950 . S
C276 N271 1.332 . S
C276 C275 1.382 . S
C276 H286 0.948 . S
N277 Co255 2.282 . S
N277 C281 1.332 . S
N277 C282 1.332 . S
C278 C279 1.388 . S
C278 C282 1.382 . S
C278 H301 0.950 . S
C279 C278 1.388 . S
C279 C280 1.386 . S
C280 C279 1.386 . S
C280 C281 1.382 . S
C280 H302 0.950 . S
C281 N277 1.332 . S
C281 C280 1.382 . S
C281 H283 0.952 . S
C282 N277 1.332 . S
C282 C278 1.382 . S
C282 H284 0.948 . S
H283 C281 0.952 . S
H284 C282 0.948 . S
H285 C274 0.952 . S
H286 C276 0.948 . S
C287 C253 1.395 . S
C287 C257 1.391 1_455 S
C288 C250 1.389 . S
C288 C270 1.392 . S
C289 C260 1.392 . S
C289 C262 1.389 . S
C290 C265 1.395 . S
C290 C267 1.391 1_655 S
H291 C251 0.951 . S
H292 C252 0.950 . S
H293 C258 0.949 . S
H294 C259 0.950 . S
H295 C263 0.951 . S
H296 C264 0.950 . S
H297 C268 0.949 . S
H298 C269 0.950 . S
H299 C273 0.950 . S
H300 C275 0.950 . S
H301 C278 0.950 . S
H302 C280 0.950 . S
C303 C304 1.443 . S
C303 N307 1.376 . S
C303 C341 1.389 . S
C304 C303 1.443 . S
C304 C305 1.340 . S
C304 H344 0.951 . S
C305 C304 1.340 . S
C305 C306 1.439 . S
C305 H345 0.950 . S
C306 C305 1.439 . S
C306 N307 1.374 . S
C306 C340 1.426 . S
N307 C303 1.376 . S
N307 C306 1.374 . S
N307 Co308 2.008 1_565 S
Co308 N307 2.008 1_545 S
Co308 N309 1.995 . S
Co308 N314 2.008 . S
Co308 N319 1.995 1_545 S
Co308 N324 2.282 . S
Co308 N330 2.282 1_545 S
N309 Co308 1.995 . S
N309 C310 1.376 . S
N309 C313 1.383 . S
C310 N309 1.376 . S
C310 C311 1.446 . S
C310 C340 1.359 1_545 S
C311 C310 1.446 . S
C311 C312 1.339 . S
C311 H346 0.949 . S
C312 C311 1.339 . S
C312 C313 1.439 . S
C312 H347 0.950 . S
C313 N309 1.383 . S
C313 C312 1.439 . S
C313 C342 1.392 . S
N314 Co308 2.008 . S
N314 C315 1.376 . S
N314 C318 1.374 . S
C315 N314 1.376 . S
C315 C316 1.443 . S
C315 C342 1.389 . S
C316 C315 1.443 . S
C316 C317 1.340 . S
C316 H348 0.951 . S
C317 C316 1.340 . S
C317 C318 1.439 . S
C317 H349 0.950 . S
C318 N314 1.374 . S
C318 C317 1.439 . S
C318 C343 1.395 . S
N319 Co308 1.995 1_565 S
N319 C320 1.376 . S
N319 C323 1.383 . S
C320 N319 1.376 . S
C320 C321 1.446 . S
C320 C343 1.391 1_565 S
C321 C320 1.446 . S
C321 C322 1.339 . S
C321 H350 0.949 . S
C322 C321 1.339 . S
C322 C323 1.439 . S
C322 H351 0.950 . S
C323 N319 1.383 . S
C323 C322 1.439 . S
C323 C341 1.392 . S
N324 Co308 2.282 . S
N324 C327 1.332 . S
N324 C329 1.332 . S
C325 C326 1.386 . S
C325 C328 1.388 . S
C326 C325 1.386 . S
C326 C327 1.382 . S
C326 H352 0.950 . S
C327 N324 1.332 . S
C327 C326 1.382 . S
C327 H338 0.952 . S
C328 C325 1.388 . S
C328 C329 1.382 . S
C328 H353 0.950 . S
C329 N324 1.332 . S
C329 C328 1.382 . S
C329 H339 0.948 . S
N330 Co308 2.282 1_565 S
N330 C334 1.332 . S
N330 C335 1.332 . S
C331 C332 1.388 . S
C331 C335 1.382 . S
C331 H354 0.950 . S
C332 C331 1.388 . S
C332 C333 1.386 . S
C333 C332 1.386 . S
C333 C334 1.382 . S
C333 H355 0.950 . S
C334 N330 1.332 . S
C334 C333 1.382 . S
C334 H336 0.952 . S
C335 N330 1.332 . S
C335 C331 1.382 . S
C335 H337 0.948 . S
H336 C334 0.952 . S
H337 C335 0.948 . S
H338 C327 0.952 . S
H339 C329 0.948 . S
C340 C306 1.426 . S
C340 C310 1.359 1_565 S
C341 C303 1.389 . S
C341 C323 1.392 . S
C342 C313 1.392 . S
C342 C315 1.389 . S
C343 C318 1.395 . S
C343 C320 1.391 1_545 S
H344 C304 0.951 . S
H345 C305 0.950 . S
H346 C311 0.949 . S
H347 C312 0.950 . S
H348 C316 0.951 . S
H349 C317 0.950 . S
H350 C321 0.949 . S
H351 C322 0.950 . S
H352 C326 0.950 . S
H353 C328 0.950 . S
H354 C331 0.950 . S
H355 C333 0.950 . S
C356 C357 1.443 . S
C356 N360 1.376 . S
C356 C394 1.389 . S
C357 C356 1.443 . S
C357 C358 1.340 . S
C357 H397 0.951 . S
C358 C357 1.340 . S
C358 C359 1.439 . S
C358 H398 0.950 . S
C359 C358 1.439 . S
C359 N360 1.374 . S
C359 C393 1.379 1_554 S
N360 C356 1.376 . S
N360 C359 1.374 . S
N360 Co361 2.008 . S
Co361 N360 2.008 . S
Co361 N362 1.995 1_554 S
Co361 N367 2.008 1_554 S
Co361 N372 1.995 . S
Co361 N377 2.282 . S
Co361 N383 2.282 1_554 S
N362 Co361 1.995 1_556 S
N362 C363 1.376 . S
N362 C366 1.383 . S
C363 N362 1.376 . S
C363 C364 1.446 . S
C363 C393 1.406 . S
C364 C363 1.446 . S
C364 C365 1.339 . S
C364 H399 0.949 . S
C365 C364 1.339 . S
C365 C366 1.439 . S
C365 H400 0.950 . S
C366 N362 1.383 . S
C366 C365 1.439 . S
C366 C395 1.392 . S
N367 Co361 2.008 1_556 S
N367 C368 1.376 . S
N367 C371 1.374 . S
C368 N367 1.376 . S
C368 C369 1.443 . S
C368 C395 1.389 . S
C369 C368 1.443 . S
C369 C370 1.340 . S
C369 H401 0.951 . S
C370 C369 1.340 . S
C370 C371 1.439 . S
C370 H402 0.950 . S
C371 N367 1.374 . S
C371 C370 1.439 . S
C371 C396 1.395 1_556 S
N372 Co361 1.995 . S
N372 C373 1.376 . S
N372 C376 1.383 . S
C373 N372 1.376 . S
C373 C374 1.446 . S
C373 C396 1.391 . S
C374 C373 1.446 . S
C374 C375 1.339 . S
C374 H403 0.949 . S
C375 C374 1.339 . S
C375 C376 1.439 . S
C375 H404 0.950 . S
C376 N372 1.383 . S
C376 C375 1.439 . S
C376 C394 1.392 . S
N377 Co361 2.282 . S
N377 C380 1.332 . S
N377 C382 1.332 . S
C378 C379 1.386 . S
C378 C381 1.388 . S
C379 C378 1.386 . S
C379 C380 1.382 . S
C379 H405 0.950 . S
C380 N377 1.332 . S
C380 C379 1.382 . S
C380 H391 0.952 . S
C381 C378 1.388 . S
C381 C382 1.382 . S
C381 H406 0.950 . S
C382 N377 1.332 . S
C382 C381 1.382 . S
C382 H392 0.948 . S
N383 Co361 2.282 1_556 S
N383 C387 1.332 . S
N383 C388 1.332 . S
C384 C385 1.388 . S
C384 C388 1.382 . S
C384 H407 0.950 . S
C385 C384 1.388 . S
C385 C386 1.386 . S
C386 C385 1.386 . S
C386 C387 1.382 . S
C386 H408 0.950 . S
C387 N383 1.332 . S
C387 C386 1.382 . S
C387 H389 0.952 . S
C388 N383 1.332 . S
C388 C384 1.382 . S
C388 H390 0.948 . S
H389 C387 0.952 . S
H390 C388 0.948 . S
H391 C380 0.952 . S
H392 C382 0.948 . S
C393 C359 1.379 1_556 S
C393 C363 1.406 . S
C394 C356 1.389 . S
C394 C376 1.392 . S
C395 C366 1.392 . S
C395 C368 1.389 . S
C396 C371 1.395 1_554 S
C396 C373 1.391 . S
H397 C357 0.951 . S
H398 C358 0.950 . S
H399 C364 0.949 . S
H400 C365 0.950 . S
H401 C369 0.951 . S
H402 C370 0.950 . S
H403 C374 0.949 . S
H404 C375 0.950 . S
H405 C379 0.950 . S
H406 C381 0.950 . S
H407 C384 0.950 . S
H408 C386 0.950 . S
C409 C410 1.443 . S
C409 N413 1.376 . S
C409 C447 1.389 . S
C410 C409 1.443 . S
C410 C411 1.340 . S
C410 H450 0.951 . S
C411 C410 1.340 . S
C411 C412 1.439 . S
C411 H451 0.950 . S
C412 C411 1.439 . S
C412 N413 1.374 . S
C412 C446 1.395 . S
N413 C409 1.376 . S
N413 C412 1.374 . S
N413 Co414 2.008 . S
Co414 N413 2.008 . S
Co414 N415 1.995 1_554 S
Co414 N420 2.008 . S
Co414 N425 1.995 . S
Co414 N430 2.282 . S
Co414 N436 2.282 1_554 S
N415 Co414 1.995 1_556 S
N415 C416 1.376 . S
N415 C419 1.383 . S
C416 N415 1.376 . S
C416 C417 1.446 . S
C416 C446 1.391 1_556 S
C417 C416 1.446 . S
C417 C418 1.339 . S
C417 H452 0.949 . S
C418 C417 1.339 . S
C418 C419 1.439 . S
C418 H453 0.950 . S
C419 N415 1.383 . S
C419 C418 1.439 . S
C419 C448 1.392 . S
N420 Co414 2.008 . S
N420 C421 1.376 1_554 S
N420 C424 1.374 . S
C421 N420 1.376 1_556 S
C421 C422 1.443 . S
C421 C448 1.389 . S
C422 C421 1.443 . S
C422 C423 1.340 1_556 S
C422 H454 0.951 . S
C423 C422 1.340 1_554 S
C423 C424 1.439 . S
C423 H455 0.950 . S
C424 N420 1.374 . S
C424 C423 1.439 . S
C424 C449 1.395 . S
N425 Co414 1.995 . S
N425 C426 1.376 . S
N425 C429 1.383 . S
C426 N425 1.376 . S
C426 C427 1.446 . S
C426 C449 1.391 . S
C427 C426 1.446 . S
C427 C428 1.339 . S
C427 H456 0.949 . S
C428 C427 1.339 . S
C428 C429 1.439 . S
C428 H457 0.950 . S
C429 N425 1.383 . S
C429 C428 1.439 . S
C429 C447 1.392 . S
N430 Co414 2.282 . S
N430 C433 1.332 . S
N430 C435 1.332 . S
C431 C432 1.386 . S
C431 C434 1.388 . S
C432 C431 1.386 . S
C432 C433 1.382 . S
C432 H458 0.950 . S
C433 N430 1.332 . S
C433 C432 1.382 . S
C433 H444 0.952 . S
C434 C431 1.388 . S
C434 C435 1.382 . S
C434 H459 0.950 . S
C435 N430 1.332 . S
C435 C434 1.382 . S
C435 H445 0.948 . S
N436 Co414 2.282 1_556 S
N436 C440 1.332 . S
N436 C441 1.332 . S
C437 C438 1.388 . S
C437 C441 1.382 . S
C437 H460 0.950 . S
C438 C437 1.388 . S
C438 C439 1.386 . S
C439 C438 1.386 . S
C439 C440 1.382 . S
C439 H461 0.950 . S
C440 N436 1.332 . S
C440 C439 1.382 . S
C440 H442 0.952 . S
C441 N436 1.332 . S
C441 C437 1.382 . S
C441 H443 0.948 . S
H442 C440 0.952 . S
H443 C441 0.948 . S
H444 C433 0.952 . S
H445 C435 0.948 . S
C446 C412 1.395 . S
C446 C416 1.391 1_554 S
C447 C409 1.389 . S
C447 C429 1.392 . S
C448 C419 1.392 . S
C448 C421 1.389 . S
C449 C424 1.395 . S
C449 C426 1.391 . S
H450 C410 0.951 . S
H451 C411 0.950 . S
H452 C417 0.949 . S
H453 C418 0.950 . S
H454 C422 0.951 . S
H455 C423 0.950 . S
H456 C427 0.949 . S
H457 C428 0.950 . S
H458 C432 0.950 . S
H459 C434 0.950 . S
H460 C437 0.950 . S
H461 C439 0.950 . S
C462 C463 1.443 . S
C462 N466 1.376 1_556 S
C462 C500 1.389 . S
C463 C462 1.443 . S
C463 C464 1.340 1_556 S
C463 H503 0.951 . S
C464 C463 1.340 1_554 S
C464 C465 1.439 . S
C464 H504 0.950 . S
C465 C464 1.439 . S
C465 N466 1.374 . S
C465 C499 1.395 . S
N466 C462 1.376 1_554 S
N466 C465 1.374 . S
N466 Co467 2.008 . S
Co467 N466 2.008 . S
Co467 N468 1.995 . S
Co467 N473 2.008 . S
Co467 N478 1.995 . S
Co467 N483 2.282 1_554 S
Co467 N489 2.282 . S
N468 Co467 1.995 . S
N468 C469 1.376 . S
N468 C472 1.383 . S
C469 N468 1.376 . S
C469 C470 1.446 . S
C469 C499 1.391 . S
C470 C469 1.446 . S
C470 C471 1.339 . S
C470 H505 0.949 . S
C471 C470 1.339 . S
C471 C472 1.439 . S
C471 H506 0.950 . S
C472 N468 1.383 . S
C472 C471 1.439 . S
C472 C501 1.392 . S
N473 Co467 2.008 . S
N473 C474 1.376 . S
N473 C477 1.374 . S
C474 N473 1.376 . S
C474 C475 1.443 . S
C474 C501 1.389 . S
C475 C474 1.443 . S
C475 C476 1.340 . S
C475 H507 0.951 . S
C476 C475 1.340 . S
C476 C477 1.439 . S
C476 H508 0.950 . S
C477 N473 1.374 . S
C477 C476 1.439 . S
C477 C502 1.395 . S
N478 Co467 1.995 . S
N478 C479 1.376 . S
N478 C482 1.383 1_554 S
C479 N478 1.376 . S
C479 C480 1.446 1_554 S
C479 C502 1.391 . S
C480 C479 1.446 1_556 S
C480 C481 1.339 . S
C480 H509 0.949 . S
C481 C480 1.339 . S
C481 C482 1.439 . S
C481 H510 0.950 . S
C482 N478 1.383 1_556 S
C482 C481 1.439 . S
C482 C500 1.392 . S
N483 Co467 2.282 1_556 S
N483 C486 1.332 . S
N483 C488 1.332 . S
C484 C485 1.386 . S
C484 C487 1.388 . S
C485 C484 1.386 . S
C485 C486 1.382 . S
C485 H511 0.950 . S
C486 N483 1.332 . S
C486 C485 1.382 . S
C486 H497 0.952 . S
C487 C484 1.388 . S
C487 C488 1.382 . S
C487 H512 0.950 . S
C488 N483 1.332 . S
C488 C487 1.382 . S
C488 H498 0.948 1_556 S
N489 Co467 2.282 . S
N489 C493 1.332 . S
N489 C494 1.332 . S
C490 C491 1.388 . S
C490 C494 1.382 . S
C490 H513 0.950 . S
C491 C490 1.388 . S
C491 C492 1.386 . S
C492 C491 1.386 . S
C492 C493 1.382 . S
C492 H514 0.950 . S
C493 N489 1.332 . S
C493 C492 1.382 . S
C493 H495 0.952 . S
C494 N489 1.332 . S
C494 C490 1.382 . S
C494 H496 0.948 . S
H495 C493 0.952 . S
H496 C494 0.948 . S
H497 C486 0.952 . S
H498 C488 0.948 1_554 S
C499 C465 1.395 . S
C499 C469 1.391 . S
C500 C462 1.389 . S
C500 C482 1.392 . S
C501 C472 1.392 . S
C501 C474 1.389 . S
C502 C477 1.395 . S
C502 C479 1.391 . S
H503 C463 0.951 . S
H504 C464 0.950 . S
H505 C470 0.949 . S
H506 C471 0.950 . S
H507 C475 0.951 . S
H508 C476 0.950 . S
H509 C480 0.949 . S
H510 C481 0.950 . S
H511 C485 0.950 . S
H512 C487 0.950 . S
H513 C490 0.950 . S
H514 C492 0.950 . S
C515 C516 1.443 . S
C515 N519 1.376 . S
C515 C553 1.389 . S
C516 C515 1.443 . S
C516 C517 1.340 . S
C516 H556 0.951 . S
C517 C516 1.340 . S
C517 C518 1.439 . S
C517 H557 0.950 . S
C518 C517 1.439 . S
C518 N519 1.374 . S
C518 C552 1.382 1_554 S
N519 C515 1.376 . S
N519 C518 1.374 . S
N519 Co520 2.008 . S
Co520 N519 2.008 . S
Co520 N521 1.995 1_554 S
Co520 N526 2.008 1_554 S
Co520 N531 1.995 . S
Co520 N536 2.282 . S
Co520 N542 2.282 1_554 S
N521 Co520 1.995 1_556 S
N521 C522 1.376 . S
N521 C525 1.383 . S
C522 N521 1.376 . S
C522 C523 1.446 . S
C522 C552 1.403 . S
C523 C522 1.446 . S
C523 C524 1.339 . S
C523 H558 0.949 . S
C524 C523 1.339 . S
C524 C525 1.439 . S
C524 H559 0.950 . S
C525 N521 1.383 . S
C525 C524 1.439 . S
C525 C554 1.392 . S
N526 Co520 2.008 1_556 S
N526 C527 1.376 . S
N526 C530 1.374 1_556 S
C527 N526 1.376 . S
C527 C528 1.443 . S
C527 C554 1.389 . S
C528 C527 1.443 . S
C528 C529 1.340 . S
C528 H560 0.951 . S
C529 C528 1.340 . S
C529 C530 1.439 1_556 S
C529 H561 0.950 . S
C530 N526 1.374 1_554 S
C530 C529 1.439 1_554 S
C530 C555 1.395 . S
N531 Co520 1.995 . S
N531 C532 1.376 . S
N531 C535 1.383 . S
C532 N531 1.376 . S
C532 C533 1.446 . S
C532 C555 1.391 . S
C533 C532 1.446 . S
C533 C534 1.339 . S
C533 H562 0.949 . S
C534 C533 1.339 . S
C534 C535 1.439 . S
C534 H563 0.950 . S
C535 N531 1.383 . S
C535 C534 1.439 . S
C535 C553 1.392 . S
N536 Co520 2.282 . S
N536 C539 1.332 . S
N536 C541 1.332 . S
C537 C538 1.386 . S
C537 C540 1.388 . S
C538 C537 1.386 . S
C538 C539 1.382 . S
C538 H564 0.950 . S
C539 N536 1.332 . S
C539 C538 1.382 . S
C539 H550 0.952 . S
C540 C537 1.388 . S
C540 C541 1.382 . S
C540 H565 0.950 . S
C541 N536 1.332 . S
C541 C540 1.382 . S
C541 H551 0.948 . S
N542 Co520 2.282 1_556 S
N542 C546 1.332 . S
N542 C547 1.332 . S
C543 C544 1.388 . S
C543 C547 1.382 . S
C543 H566 0.950 . S
C544 C543 1.388 . S
C544 C545 1.386 . S
C545 C544 1.386 . S
C545 C546 1.382 . S
C545 H567 0.950 . S
C546 N542 1.332 . S
C546 C545 1.382 . S
C546 H548 0.952 . S
C547 N542 1.332 . S
C547 C543 1.382 . S
C547 H549 0.948 . S
H548 C546 0.952 . S
H549 C547 0.948 . S
H550 C539 0.952 . S
H551 C541 0.948 . S
C552 C518 1.382 1_556 S
C552 C522 1.403 . S
C553 C515 1.389 . S
C553 C535 1.392 . S
C554 C525 1.392 . S
C554 C527 1.389 . S
C555 C530 1.395 . S
C555 C532 1.391 . S
H556 C516 0.951 . S
H557 C517 0.950 . S
H558 C523 0.949 . S
H559 C524 0.950 . S
H560 C528 0.951 . S
H561 C529 0.950 . S
H562 C533 0.949 . S
H563 C534 0.950 . S
H564 C538 0.950 . S
H565 C540 0.950 . S
H566 C543 0.950 . S
H567 C545 0.950 . S
H568 C576 0.929 . S
H569 C578 0.930 . S
H570 C580 0.930 . S
H571 C583 0.929 . S
H572 C586 0.930 . S
H573 C588 0.960 . S
H574 C588 0.960 . S
H575 C588 0.960 . S
C576 H568 0.929 . S
C576 C577 1.377 . S
C576 C578 1.384 . S
C577 C576 1.377 . S
C577 C583 1.390 . S
C578 H569 0.930 . S
C578 C576 1.384 . S
C578 C579 1.372 . S
C579 C578 1.372 . S
C579 C580 1.400 . S
C579 C584 1.490 . S
C580 H570 0.930 . S
C580 C579 1.400 . S
C580 C583 1.386 . S
H581 C597 0.930 . S
H582 C598 0.931 . S
C583 H571 0.929 . S
C583 C577 1.390 . S
C583 C580 1.386 . S
C584 C579 1.490 . S
C584 C586 1.395 . S
C584 C587 1.403 . S
H585 C591 0.930 . S
C586 H572 0.930 . S
C586 C584 1.395 . S
C586 C589 1.403 . S
C587 C584 1.403 . S
C587 C588 1.524 . S
C587 C591 1.400 . S
C588 H573 0.960 . S
C588 H574 0.960 . S
C588 H575 0.960 . S
C588 C587 1.524 . S
C589 C586 1.403 . S
C589 C590 1.392 . S
C589 C593 1.495 . S
C590 C589 1.392 . S
C590 C591 1.385 . S
C590 C592 1.478 . S
C591 H585 0.930 . S
C591 C587 1.400 . S
C591 C590 1.385 . S
C592 C590 1.478 . S
C592 C594 1.381 . S
C592 C598 1.383 . S
C593 C589 1.495 . S
C593 H599 0.959 . S
C593 H600 0.961 . S
C593 H601 0.960 . S
C594 C592 1.381 . S
C594 C595 1.394 . S
C594 H602 0.930 . S
C595 C594 1.394 . S
C595 C596 1.383 . S
C595 H603 0.929 . S
C596 C595 1.383 . S
C596 C597 1.377 . S
C597 H581 0.930 . S
C597 C596 1.377 . S
C597 C598 1.379 . S
C598 H582 0.931 . S
C598 C592 1.383 . S
C598 C597 1.379 . S
H599 C593 0.959 . S
H600 C593 0.961 . S
H601 C593 0.960 . S
H602 C594 0.930 . S
H603 C595 0.929 . S
H604 C612 0.929 . S
H605 C614 0.930 . S
H606 C616 0.930 . S
H607 C619 0.929 . S
H608 C622 0.930 . S
H609 C624 0.960 . S
H610 C624 0.960 . S
H611 C624 0.960 . S
C612 H604 0.929 . S
C612 C613 1.377 . S
C612 C614 1.384 . S
C613 C612 1.377 . S
C613 C619 1.390 . S
C614 H605 0.930 . S
C614 C612 1.384 . S
C614 C615 1.372 . S
C615 C614 1.372 . S
C615 C616 1.400 . S
C615 C620 1.490 . S
C616 H606 0.930 . S
C616 C615 1.400 . S
C616 C619 1.386 . S
H617 C633 0.930 . S
H618 C634 0.931 . S
C619 H607 0.929 . S
C619 C613 1.390 . S
C619 C616 1.386 . S
C620 C615 1.490 . S
C620 C622 1.395 . S
C620 C623 1.403 . S
H621 C627 0.930 . S
C622 H608 0.930 . S
C622 C620 1.395 . S
C622 C625 1.403 . S
C623 C620 1.403 . S
C623 C624 1.524 . S
C623 C627 1.400 . S
C624 H609 0.960 . S
C624 H610 0.960 . S
C624 H611 0.960 . S
C624 C623 1.524 . S
C625 C622 1.403 . S
C625 C626 1.392 . S
C625 C629 1.495 . S
C626 C625 1.392 . S
C626 C627 1.385 . S
C626 C628 1.478 . S
C627 H621 0.930 . S
C627 C623 1.400 . S
C627 C626 1.385 . S
C628 C626 1.478 . S
C628 C630 1.381 . S
C628 C634 1.383 . S
C629 C625 1.495 . S
C629 H635 0.959 . S
C629 H636 0.961 . S
C629 H637 0.960 . S
C630 C628 1.381 . S
C630 C631 1.394 . S
C630 H638 0.930 . S
C631 C630 1.394 . S
C631 C632 1.383 . S
C631 H639 0.929 . S
C632 C631 1.383 . S
C632 C633 1.377 . S
C633 H617 0.930 . S
C633 C632 1.377 . S
C633 C634 1.379 . S
C634 H618 0.931 . S
C634 C628 1.383 . S
C634 C633 1.379 . S
H635 C629 0.959 . S
H636 C629 0.961 . S
H637 C629 0.960 . S
H638 C630 0.930 . S
H639 C631 0.929 . S
H640 C648 0.929 . S
H641 C650 0.930 . S
H642 C652 0.930 . S
H643 C655 0.929 . S
H644 C658 0.930 . S
H645 C660 0.960 . S
H646 C660 0.960 . S
H647 C660 0.960 . S
C648 H640 0.929 . S
C648 C649 1.377 . S
C648 C650 1.384 . S
C649 C648 1.377 . S
C649 C655 1.390 . S
C650 H641 0.930 . S
C650 C648 1.384 . S
C650 C651 1.372 . S
C651 C650 1.372 . S
C651 C652 1.400 . S
C651 C656 1.490 . S
C652 H642 0.930 . S
C652 C651 1.400 . S
C652 C655 1.386 . S
H653 C669 0.930 . S
H654 C670 0.931 . S
C655 H643 0.929 . S
C655 C649 1.390 . S
C655 C652 1.386 . S
C656 C651 1.490 . S
C656 C658 1.395 . S
C656 C659 1.403 . S
H657 C663 0.930 . S
C658 H644 0.930 . S
C658 C656 1.395 . S
C658 C661 1.403 . S
C659 C656 1.403 . S
C659 C660 1.524 . S
C659 C663 1.400 . S
C660 H645 0.960 . S
C660 H646 0.960 . S
C660 H647 0.960 . S
C660 C659 1.524 . S
C661 C658 1.403 . S
C661 C662 1.392 . S
C661 C665 1.495 . S
C662 C661 1.392 . S
C662 C663 1.385 . S
C662 C664 1.478 . S
C663 H657 0.930 . S
C663 C659 1.400 . S
C663 C662 1.385 . S
C664 C662 1.478 . S
C664 C666 1.381 . S
C664 C670 1.383 . S
C665 C661 1.495 . S
C665 H671 0.959 . S
C665 H672 0.961 . S
C665 H673 0.960 . S
C666 C664 1.381 . S
C666 C667 1.394 . S
C666 H674 0.930 . S
C667 C666 1.394 . S
C667 C668 1.383 . S
C667 H675 0.929 . S
C668 C667 1.383 . S
C668 C669 1.377 . S
C669 H653 0.930 . S
C669 C668 1.377 . S
C669 C670 1.379 . S
C670 H654 0.931 . S
C670 C664 1.383 . S
C670 C669 1.379 . S
H671 C665 0.959 . S
H672 C665 0.961 . S
H673 C665 0.960 . S
H674 C666 0.930 . S
H675 C667 0.929 . S
H676 C684 0.929 . S
H677 C686 0.930 . S
H678 C688 0.930 . S
H679 C691 0.929 . S
H680 C694 0.930 . S
H681 C696 0.960 . S
H682 C696 0.960 . S
H683 C696 0.960 . S
C684 H676 0.929 . S
C684 C685 1.377 . S
C684 C686 1.384 . S
C685 C684 1.377 . S
C685 C691 1.390 . S
C686 H677 0.930 . S
C686 C684 1.384 . S
C686 C687 1.372 . S
C687 C686 1.372 . S
C687 C688 1.400 . S
C687 C692 1.490 . S
C688 H678 0.930 . S
C688 C687 1.400 . S
C688 C691 1.386 . S
H689 C705 0.930 . S
H690 C706 0.931 . S
C691 H679 0.929 . S
C691 C685 1.390 . S
C691 C688 1.386 . S
C692 C687 1.490 . S
C692 C694 1.395 . S
C692 C695 1.403 . S
H693 C699 0.930 . S
C694 H680 0.930 . S
C694 C692 1.395 . S
C694 C697 1.403 . S
C695 C692 1.403 . S
C695 C696 1.524 . S
C695 C699 1.400 . S
C696 H681 0.960 . S
C696 H682 0.960 . S
C696 H683 0.960 . S
C696 C695 1.524 . S
C697 C694 1.403 . S
C697 C698 1.392 . S
C697 C701 1.495 . S
C698 C697 1.392 . S
C698 C699 1.385 . S
C698 C700 1.478 . S
C699 H693 0.930 . S
C699 C695 1.400 . S
C699 C698 1.385 . S
C700 C698 1.478 . S
C700 C702 1.381 . S
C700 C706 1.383 . S
C701 C697 1.495 . S
C701 H707 0.959 . S
C701 H708 0.961 . S
C701 H709 0.960 . S
C702 C700 1.381 . S
C702 C703 1.394 . S
C702 H710 0.930 . S
C703 C702 1.394 . S
C703 C704 1.383 . S
C703 H711 0.929 . S
C704 C703 1.383 . S
C704 C705 1.377 . S
C705 H689 0.930 . S
C705 C704 1.377 . S
C705 C706 1.379 . S
C706 H690 0.931 . S
C706 C700 1.383 . S
C706 C705 1.379 . S
H707 C701 0.959 . S
H708 C701 0.961 . S
H709 C701 0.960 . S
H710 C702 0.930 . S
H711 C703 0.929 . S
H712 C720 0.929 . S
H713 C722 0.930 . S
H714 C724 0.930 . S
H715 C727 0.929 . S
H716 C730 0.930 . S
H717 C732 0.960 . S
H718 C732 0.960 . S
H719 C732 0.960 . S
C720 H712 0.929 . S
C720 C721 1.377 . S
C720 C722 1.384 . S
C721 C720 1.377 . S
C721 C727 1.390 . S
C722 H713 0.930 . S
C722 C720 1.384 . S
C722 C723 1.372 . S
C723 C722 1.372 . S
C723 C724 1.400 . S
C723 C728 1.490 . S
C724 H714 0.930 . S
C724 C723 1.400 . S
C724 C727 1.386 . S
H725 C741 0.930 . S
H726 C742 0.931 . S
C727 H715 0.929 . S
C727 C721 1.390 . S
C727 C724 1.386 . S
C728 C723 1.490 . S
C728 C730 1.395 . S
C728 C731 1.403 . S
H729 C735 0.930 . S
C730 H716 0.930 . S
C730 C728 1.395 . S
C730 C733 1.403 . S
C731 C728 1.403 . S
C731 C732 1.524 . S
C731 C735 1.400 . S
C732 H717 0.960 . S
C732 H718 0.960 . S
C732 H719 0.960 . S
C732 C731 1.524 . S
C733 C730 1.403 . S
C733 C734 1.392 . S
C733 C737 1.495 . S
C734 C733 1.392 . S
C734 C735 1.385 . S
C734 C736 1.478 . S
C735 H729 0.930 . S
C735 C731 1.400 . S
C735 C734 1.385 . S
C736 C734 1.478 . S
C736 C738 1.381 . S
C736 C742 1.383 . S
C737 C733 1.495 . S
C737 H743 0.959 . S
C737 H744 0.961 . S
C737 H745 0.960 . S
C738 C736 1.381 . S
C738 C739 1.394 . S
C738 H746 0.930 . S
C739 C738 1.394 . S
C739 C740 1.383 . S
C739 H747 0.929 . S
C740 C739 1.383 . S
C740 C741 1.377 . S
C741 H725 0.930 . S
C741 C740 1.377 . S
C741 C742 1.379 . S
C742 H726 0.931 . S
C742 C736 1.383 . S
C742 C741 1.379 . S
H743 C737 0.959 . S
H744 C737 0.961 . S
H745 C737 0.960 . S
H746 C738 0.930 . S
H747 C739 0.929 . S
H748 C756 0.929 . S
H749 C758 0.930 . S
H750 C760 0.930 . S
H751 C763 0.929 . S
H752 C766 0.930 . S
H753 C768 0.960 . S
H754 C768 0.960 . S
H755 C768 0.960 . S
C756 H748 0.929 . S
C756 C757 1.377 . S
C756 C758 1.384 . S
C757 C756 1.377 . S
C757 C763 1.390 . S
C758 H749 0.930 . S
C758 C756 1.384 . S
C758 C759 1.372 . S
C759 C758 1.372 . S
C759 C760 1.400 . S
C759 C764 1.490 . S
C760 H750 0.930 . S
C760 C759 1.400 . S
C760 C763 1.386 . S
H761 C777 0.930 . S
H762 C778 0.931 . S
C763 H751 0.929 . S
C763 C757 1.390 . S
C763 C760 1.386 . S
C764 C759 1.490 . S
C764 C766 1.395 . S
C764 C767 1.403 . S
H765 C771 0.930 . S
C766 H752 0.930 . S
C766 C764 1.395 . S
C766 C769 1.403 . S
C767 C764 1.403 . S
C767 C768 1.524 . S
C767 C771 1.400 . S
C768 H753 0.960 . S
C768 H754 0.960 . S
C768 H755 0.960 . S
C768 C767 1.524 . S
C769 C766 1.403 . S
C769 C770 1.392 . S
C769 C773 1.495 . S
C770 C769 1.392 . S
C770 C771 1.385 . S
C770 C772 1.478 . S
C771 H765 0.930 . S
C771 C767 1.400 . S
C771 C770 1.385 . S
C772 C770 1.478 . S
C772 C774 1.381 . S
C772 C778 1.383 . S
C773 C769 1.495 . S
C773 H779 0.959 . S
C773 H780 0.961 . S
C773 H781 0.960 . S
C774 C772 1.381 . S
C774 C775 1.394 . S
C774 H782 0.930 . S
C775 C774 1.394 . S
C775 C776 1.383 . S
C775 H783 0.929 . S
C776 C775 1.383 . S
C776 C777 1.377 . S
C777 H761 0.930 . S
C777 C776 1.377 . S
C777 C778 1.379 . S
C778 H762 0.931 . S
C778 C772 1.383 . S
C778 C777 1.379 . S
H779 C773 0.959 . S
H780 C773 0.961 . S
H781 C773 0.960 . S
H782 C774 0.930 . S
H783 C775 0.929 . S
H784 C792 0.929 . S
H785 C794 0.930 . S
H786 C796 0.930 . S
H787 C799 0.929 . S
H788 C802 0.930 . S
H789 C804 0.960 . S
H790 C804 0.960 . S
H791 C804 0.960 . S
C792 H784 0.929 . S
C792 C793 1.377 . S
C792 C794 1.384 . S
C793 C792 1.377 . S
C793 C799 1.390 . S
C794 H785 0.930 . S
C794 C792 1.384 . S
C794 C795 1.372 . S
C795 C794 1.372 . S
C795 C796 1.400 . S
C795 C800 1.490 . S
C796 H786 0.930 . S
C796 C795 1.400 . S
C796 C799 1.386 . S
H797 C813 0.930 . S
H798 C814 0.931 . S
C799 H787 0.929 . S
C799 C793 1.390 . S
C799 C796 1.386 . S
C800 C795 1.490 . S
C800 C802 1.395 . S
C800 C803 1.403 . S
H801 C807 0.930 . S
C802 H788 0.930 . S
C802 C800 1.395 . S
C802 C805 1.403 . S
C803 C800 1.403 . S
C803 C804 1.524 . S
C803 C807 1.400 . S
C804 H789 0.960 . S
C804 H790 0.960 . S
C804 H791 0.960 . S
C804 C803 1.524 . S
C805 C802 1.403 . S
C805 C806 1.392 . S
C805 C809 1.495 . S
C806 C805 1.392 . S
C806 C807 1.385 . S
C806 C808 1.478 . S
C807 H801 0.930 . S
C807 C803 1.400 . S
C807 C806 1.385 . S
C808 C806 1.478 . S
C808 C810 1.381 . S
C808 C814 1.383 . S
C809 C805 1.495 . S
C809 H815 0.959 . S
C809 H816 0.961 . S
C809 H817 0.960 . S
C810 C808 1.381 . S
C810 C811 1.394 . S
C810 H818 0.930 . S
C811 C810 1.394 . S
C811 C812 1.383 . S
C811 H819 0.929 . S
C812 C811 1.383 . S
C812 C813 1.377 . S
C813 H797 0.930 . S
C813 C812 1.377 . S
C813 C814 1.379 . S
C814 H798 0.931 . S
C814 C808 1.383 . S
C814 C813 1.379 . S
H815 C809 0.959 . S
H816 C809 0.961 . S
H817 C809 0.960 . S
H818 C810 0.930 . S
H819 C811 0.929 . S
H820 C828 0.929 . S
H821 C830 0.930 . S
H822 C832 0.930 . S
H823 C835 0.929 . S
H824 C838 0.930 . S
H825 C840 0.960 . S
H826 C840 0.960 . S
H827 C840 0.960 . S
C828 H820 0.929 . S
C828 C829 1.377 . S
C828 C830 1.384 . S
C829 C828 1.377 . S
C829 C835 1.390 . S
C830 H821 0.930 . S
C830 C828 1.384 . S
C830 C831 1.372 . S
C831 C830 1.372 . S
C831 C832 1.400 . S
C831 C836 1.490 . S
C832 H822 0.930 . S
C832 C831 1.400 . S
C832 C835 1.386 . S
H833 C849 0.930 . S
H834 C850 0.931 . S
C835 H823 0.929 . S
C835 C829 1.390 . S
C835 C832 1.386 . S
C836 C831 1.490 . S
C836 C838 1.395 . S
C836 C839 1.403 . S
H837 C843 0.930 . S
C838 H824 0.930 . S
C838 C836 1.395 . S
C838 C841 1.403 . S
C839 C836 1.403 . S
C839 C840 1.524 . S
C839 C843 1.400 . S
C840 H825 0.960 . S
C840 H826 0.960 . S
C840 H827 0.960 . S
C840 C839 1.524 . S
C841 C838 1.403 . S
C841 C842 1.392 . S
C841 C845 1.495 . S
C842 C841 1.392 . S
C842 C843 1.385 . S
C842 C844 1.478 . S
C843 H837 0.930 . S
C843 C839 1.400 . S
C843 C842 1.385 . S
C844 C842 1.478 . S
C844 C846 1.381 . S
C844 C850 1.383 . S
C845 C841 1.495 . S
C845 H851 0.959 . S
C845 H852 0.961 . S
C845 H853 0.960 . S
C846 C844 1.381 . S
C846 C847 1.394 . S
C846 H854 0.930 . S
C847 C846 1.394 . S
C847 C848 1.383 . S
C847 H855 0.929 . S
C848 C847 1.383 . S
C848 C849 1.377 . S
C849 H833 0.930 . S
C849 C848 1.377 . S
C849 C850 1.379 . S
C850 H834 0.931 . S
C850 C844 1.383 . S
C850 C849 1.379 . S
H851 C845 0.959 . S
H852 C845 0.961 . S
H853 C845 0.960 . S
H854 C846 0.930 . S
H855 C847 0.929 . S
H856 C864 0.929 . S
H857 C866 0.930 . S
H858 C868 0.930 . S
H859 C871 0.929 . S
H860 C874 0.930 . S
H861 C876 0.960 . S
H862 C876 0.960 . S
H863 C876 0.960 . S
C864 H856 0.929 . S
C864 C865 1.377 . S
C864 C866 1.384 . S
C865 C864 1.377 . S
C865 C871 1.390 . S
C866 H857 0.930 . S
C866 C864 1.384 . S
C866 C867 1.372 . S
C867 C866 1.372 . S
C867 C868 1.400 . S
C867 C872 1.490 . S
C868 H858 0.930 . S
C868 C867 1.400 . S
C868 C871 1.386 . S
H869 C885 0.930 . S
H870 C886 0.931 . S
C871 H859 0.929 . S
C871 C865 1.390 . S
C871 C868 1.386 . S
C872 C867 1.490 . S
C872 C874 1.395 . S
C872 C875 1.403 . S
H873 C879 0.930 . S
C874 H860 0.930 . S
C874 C872 1.395 . S
C874 C877 1.403 . S
C875 C872 1.403 . S
C875 C876 1.524 . S
C875 C879 1.400 . S
C876 H861 0.960 . S
C876 H862 0.960 . S
C876 H863 0.960 . S
C876 C875 1.524 . S
C877 C874 1.403 . S
C877 C878 1.392 . S
C877 C881 1.495 . S
C878 C877 1.392 . S
C878 C879 1.385 . S
C878 C880 1.478 . S
C879 H873 0.930 . S
C879 C875 1.400 . S
C879 C878 1.385 . S
C880 C878 1.478 . S
C880 C882 1.381 . S
C880 C886 1.383 . S
C881 C877 1.495 . S
C881 H887 0.959 . S
C881 H888 0.961 . S
C881 H889 0.960 . S
C882 C880 1.381 . S
C882 C883 1.394 . S
C882 H890 0.930 . S
C883 C882 1.394 . S
C883 C884 1.383 . S
C883 H891 0.929 . S
C884 C883 1.383 . S
C884 C885 1.377 . S
C885 H869 0.930 . S
C885 C884 1.377 . S
C885 C886 1.379 . S
C886 H870 0.931 . S
C886 C880 1.383 . S
C886 C885 1.379 . S
H887 C881 0.959 . S
H888 C881 0.961 . S
H889 C881 0.960 . S
H890 C882 0.930 . S
H891 C883 0.929 . S
H892 C900 0.929 . S
H893 C902 0.930 . S
H894 C904 0.930 . S
H895 C907 0.929 . S
H896 C910 0.930 . S
H897 C912 0.960 . S
H898 C912 0.960 . S
H899 C912 0.960 . S
C900 H892 0.929 . S
C900 C901 1.377 . S
C900 C902 1.384 . S
C901 C900 1.377 . S
C901 C907 1.390 . S
C902 H893 0.930 . S
C902 C900 1.384 . S
C902 C903 1.372 . S
C903 C902 1.372 . S
C903 C904 1.400 . S
C903 C908 1.490 . S
C904 H894 0.930 . S
C904 C903 1.400 . S
C904 C907 1.386 . S
H905 C921 0.930 . S
H906 C922 0.931 . S
C907 H895 0.929 . S
C907 C901 1.390 . S
C907 C904 1.386 . S
C908 C903 1.490 . S
C908 C910 1.395 . S
C908 C911 1.403 . S
H909 C915 0.930 . S
C910 H896 0.930 . S
C910 C908 1.395 . S
C910 C913 1.403 . S
C911 C908 1.403 . S
C911 C912 1.524 . S
C911 C915 1.400 . S
C912 H897 0.960 . S
C912 H898 0.960 . S
C912 H899 0.960 . S
C912 C911 1.524 . S
C913 C910 1.403 . S
C913 C914 1.392 . S
C913 C917 1.495 . S
C914 C913 1.392 . S
C914 C915 1.385 . S
C914 C916 1.478 . S
C915 H909 0.930 . S
C915 C911 1.400 . S
C915 C914 1.385 . S
C916 C914 1.478 . S
C916 C918 1.381 . S
C916 C922 1.383 . S
C917 C913 1.495 . S
C917 H923 0.959 . S
C917 H924 0.961 . S
C917 H925 0.960 . S
C918 C916 1.381 . S
C918 C919 1.394 . S
C918 H926 0.930 . S
C919 C918 1.394 . S
C919 C920 1.383 . S
C919 H927 0.929 . S
C920 C919 1.383 . S
C920 C921 1.377 . S
C921 H905 0.930 . S
C921 C920 1.377 . S
C921 C922 1.379 . S
C922 H906 0.931 . S
C922 C916 1.383 . S
C922 C921 1.379 . S
H923 C917 0.959 . S
H924 C917 0.961 . S
H925 C917 0.960 . S
H926 C918 0.930 . S
H927 C919 0.929 . S
H928 C936 0.929 . S
H929 C938 0.930 . S
H930 C940 0.930 . S
H931 C943 0.929 . S
H932 C946 0.930 . S
H933 C948 0.960 . S
H934 C948 0.960 . S
H935 C948 0.960 . S
C936 H928 0.929 . S
C936 C937 1.377 . S
C936 C938 1.384 . S
C937 C936 1.377 . S
C937 C943 1.390 . S
C938 H929 0.930 . S
C938 C936 1.384 . S
C938 C939 1.372 . S
C939 C938 1.372 . S
C939 C940 1.400 . S
C939 C944 1.490 . S
C940 H930 0.930 . S
C940 C939 1.400 . S
C940 C943 1.386 . S
H941 C957 0.930 . S
H942 C958 0.931 . S
C943 H931 0.929 . S
C943 C937 1.390 . S
C943 C940 1.386 . S
C944 C939 1.490 . S
C944 C946 1.395 . S
C944 C947 1.403 . S
H945 C951 0.930 . S
C946 H932 0.930 . S
C946 C944 1.395 . S
C946 C949 1.403 . S
C947 C944 1.403 . S
C947 C948 1.524 . S
C947 C951 1.400 . S
C948 H933 0.960 . S
C948 H934 0.960 . S
C948 H935 0.960 . S
C948 C947 1.524 . S
C949 C946 1.403 . S
C949 C950 1.392 . S
C949 C953 1.495 . S
C950 C949 1.392 . S
C950 C951 1.385 . S
C950 C952 1.478 . S
C951 H945 0.930 . S
C951 C947 1.400 . S
C951 C950 1.385 . S
C952 C950 1.478 . S
C952 C954 1.381 . S
C952 C958 1.383 . S
C953 C949 1.495 . S
C953 H959 0.959 . S
C953 H960 0.961 . S
C953 H961 0.960 . S
C954 C952 1.381 . S
C954 C955 1.394 . S
C954 H962 0.930 . S
C955 C954 1.394 . S
C955 C956 1.383 . S
C955 H963 0.929 . S
C956 C955 1.383 . S
C956 C957 1.377 . S
C957 H941 0.930 . S
C957 C956 1.377 . S
C957 C958 1.379 . S
C958 H942 0.931 . S
C958 C952 1.383 . S
C958 C957 1.379 . S
H959 C953 0.959 . S
H960 C953 0.961 . S
H961 C953 0.960 . S
H962 C954 0.930 . S
H963 C955 0.929 . S
H964 C972 0.929 . S
H965 C974 0.930 . S
H966 C976 0.930 . S
H967 C979 0.929 . S
H968 C982 0.930 . S
H969 C984 0.960 . S
H970 C984 0.960 . S
H971 C984 0.960 . S
C972 H964 0.929 . S
C972 C973 1.377 . S
C972 C974 1.384 . S
C973 C972 1.377 . S
C973 C979 1.390 . S
C974 H965 0.930 . S
C974 C972 1.384 . S
C974 C975 1.372 . S
C975 C974 1.372 . S
C975 C976 1.400 . S
C975 C980 1.490 . S
C976 H966 0.930 . S
C976 C975 1.400 . S
C976 C979 1.386 . S
H977 C993 0.930 . S
H978 C994 0.931 . S
C979 H967 0.929 . S
C979 C973 1.390 . S
C979 C976 1.386 . S
C980 C975 1.490 . S
C980 C982 1.395 . S
C980 C983 1.403 . S
H981 C987 0.930 . S
C982 H968 0.930 . S
C982 C980 1.395 . S
C982 C985 1.403 . S
C983 C980 1.403 . S
C983 C984 1.524 . S
C983 C987 1.400 . S
C984 H969 0.960 . S
C984 H970 0.960 . S
C984 H971 0.960 . S
C984 C983 1.524 . S
C985 C982 1.403 . S
C985 C986 1.392 . S
C985 C989 1.495 . S
C986 C985 1.392 . S
C986 C987 1.385 . S
C986 C988 1.478 . S
C987 H981 0.930 . S
C987 C983 1.400 . S
C987 C986 1.385 . S
C988 C986 1.478 . S
C988 C990 1.381 . S
C988 C994 1.383 . S
C989 C985 1.495 . S
C989 H995 0.959 . S
C989 H996 0.961 . S
C989 H997 0.960 . S
C990 C988 1.381 . S
C990 C991 1.394 . S
C990 H998 0.930 . S
C991 C990 1.394 . S
C991 C992 1.383 . S
C991 H999 0.929 . S
C992 C991 1.383 . S
C992 C993 1.377 . S
C993 H977 0.930 . S
C993 C992 1.377 . S
C993 C994 1.379 . S
C994 H978 0.931 . S
C994 C988 1.383 . S
C994 C993 1.379 . S
H995 C989 0.959 . S
H996 C989 0.961 . S
H997 C989 0.960 . S
H998 C990 0.930 . S
H999 C991 0.929 . S
H1000 C1008 0.929 . S
H1001 C1010 0.930 . S
H1002 C1012 0.930 . S
H1003 C1015 0.929 . S
H1004 C1018 0.930 . S
H1005 C1020 0.960 . S
H1006 C1020 0.960 . S
H1007 C1020 0.960 . S
C1008 H1000 0.929 . S
C1008 C1009 1.377 . S
C1008 C1010 1.384 . S
C1009 C1008 1.377 . S
C1009 C1015 1.390 . S
C1010 H1001 0.930 . S
C1010 C1008 1.384 . S
C1010 C1011 1.372 . S
C1011 C1010 1.372 . S
C1011 C1012 1.400 . S
C1011 C1016 1.490 . S
C1012 H1002 0.930 . S
C1012 C1011 1.400 . S
C1012 C1015 1.386 . S
H1013 C1029 0.930 . S
H1014 C1030 0.931 . S
C1015 H1003 0.929 . S
C1015 C1009 1.390 . S
C1015 C1012 1.386 . S
C1016 C1011 1.490 . S
C1016 C1018 1.395 . S
C1016 C1019 1.403 . S
H1017 C1023 0.930 . S
C1018 H1004 0.930 . S
C1018 C1016 1.395 . S
C1018 C1021 1.403 . S
C1019 C1016 1.403 . S
C1019 C1020 1.524 . S
C1019 C1023 1.400 . S
C1020 H1005 0.960 . S
C1020 H1006 0.960 . S
C1020 H1007 0.960 . S
C1020 C1019 1.524 . S
C1021 C1018 1.403 . S
C1021 C1022 1.392 . S
C1021 C1025 1.495 . S
C1022 C1021 1.392 . S
C1022 C1023 1.385 . S
C1022 C1024 1.478 . S
C1023 H1017 0.930 . S
C1023 C1019 1.400 . S
C1023 C1022 1.385 . S
C1024 C1022 1.478 . S
C1024 C1026 1.381 . S
C1024 C1030 1.383 . S
C1025 C1021 1.495 . S
C1025 H1031 0.959 . S
C1025 H1032 0.961 . S
C1025 H1033 0.960 . S
C1026 C1024 1.381 . S
C1026 C1027 1.394 . S
C1026 H1034 0.930 . S
C1027 C1026 1.394 . S
C1027 C1028 1.383 . S
C1027 H1035 0.929 . S
C1028 C1027 1.383 . S
C1028 C1029 1.377 . S
C1029 H1013 0.930 . S
C1029 C1028 1.377 . S
C1029 C1030 1.379 . S
C1030 H1014 0.931 . S
C1030 C1024 1.383 . S
C1030 C1029 1.379 . S
H1031 C1025 0.959 . S
H1032 C1025 0.961 . S
H1033 C1025 0.960 . S
H1034 C1026 0.930 . S
H1035 C1027 0.929 . S
H1036 C1044 0.929 . S
H1037 C1046 0.930 . S
H1038 C1048 0.930 . S
H1039 C1051 0.929 . S
H1040 C1054 0.930 . S
H1041 C1056 0.960 . S
H1042 C1056 0.960 . S
H1043 C1056 0.960 . S
C1044 H1036 0.929 . S
C1044 C1045 1.377 . S
C1044 C1046 1.384 . S
C1045 C1044 1.377 . S
C1045 C1051 1.390 . S
C1046 H1037 0.930 . S
C1046 C1044 1.384 . S
C1046 C1047 1.372 . S
C1047 C1046 1.372 . S
C1047 C1048 1.400 . S
C1047 C1052 1.490 . S
C1048 H1038 0.930 . S
C1048 C1047 1.400 . S
C1048 C1051 1.386 . S
H1049 C1065 0.930 . S
H1050 C1066 0.931 . S
C1051 H1039 0.929 . S
C1051 C1045 1.390 . S
C1051 C1048 1.386 . S
C1052 C1047 1.490 . S
C1052 C1054 1.395 . S
C1052 C1055 1.403 . S
H1053 C1059 0.930 . S
C1054 H1040 0.930 . S
C1054 C1052 1.395 . S
C1054 C1057 1.403 . S
C1055 C1052 1.403 . S
C1055 C1056 1.524 . S
C1055 C1059 1.400 . S
C1056 H1041 0.960 . S
C1056 H1042 0.960 . S
C1056 H1043 0.960 . S
C1056 C1055 1.524 . S
C1057 C1054 1.403 . S
C1057 C1058 1.392 . S
C1057 C1061 1.495 . S
C1058 C1057 1.392 . S
C1058 C1059 1.385 . S
C1058 C1060 1.478 . S
C1059 H1053 0.930 . S
C1059 C1055 1.400 . S
C1059 C1058 1.385 . S
C1060 C1058 1.478 . S
C1060 C1062 1.381 . S
C1060 C1066 1.383 . S
C1061 C1057 1.495 . S
C1061 H1067 0.959 . S
C1061 H1068 0.961 . S
C1061 H1069 0.960 . S
C1062 C1060 1.381 . S
C1062 C1063 1.394 . S
C1062 H1070 0.930 . S
C1063 C1062 1.394 . S
C1063 C1064 1.383 . S
C1063 H1071 0.929 . S
C1064 C1063 1.383 . S
C1064 C1065 1.377 . S
C1065 H1049 0.930 . S
C1065 C1064 1.377 . S
C1065 C1066 1.379 . S
C1066 H1050 0.931 . S
C1066 C1060 1.383 . S
C1066 C1065 1.379 . S
H1067 C1061 0.959 . S
H1068 C1061 0.961 . S
H1069 C1061 0.960 . S
H1070 C1062 0.930 . S
H1071 C1063 0.929 . S
H1072 C1080 0.929 . S
H1073 C1082 0.930 . S
H1074 C1084 0.930 . S
H1075 C1087 0.929 . S
H1076 C1090 0.930 . S
H1077 C1092 0.960 . S
H1078 C1092 0.960 . S
H1079 C1092 0.960 . S
C1080 H1072 0.929 . S
C1080 C1081 1.377 . S
C1080 C1082 1.384 . S
C1081 C1080 1.377 . S
C1081 C1087 1.390 . S
C1082 H1073 0.930 . S
C1082 C1080 1.384 . S
C1082 C1083 1.372 . S
C1083 C1082 1.372 . S
C1083 C1084 1.400 . S
C1083 C1088 1.490 . S
C1084 H1074 0.930 . S
C1084 C1083 1.400 . S
C1084 C1087 1.386 . S
H1085 C1101 0.930 . S
H1086 C1102 0.931 . S
C1087 H1075 0.929 . S
C1087 C1081 1.390 . S
C1087 C1084 1.386 . S
C1088 C1083 1.490 . S
C1088 C1090 1.395 . S
C1088 C1091 1.403 . S
H1089 C1095 0.930 . S
C1090 H1076 0.930 . S
C1090 C1088 1.395 . S
C1090 C1093 1.403 . S
C1091 C1088 1.403 . S
C1091 C1092 1.524 . S
C1091 C1095 1.400 . S
C1092 H1077 0.960 . S
C1092 H1078 0.960 . S
C1092 H1079 0.960 . S
C1092 C1091 1.524 . S
C1093 C1090 1.403 . S
C1093 C1094 1.392 . S
C1093 C1097 1.495 . S
C1094 C1093 1.392 . S
C1094 C1095 1.385 . S
C1094 C1096 1.478 . S
C1095 H1089 0.930 . S
C1095 C1091 1.400 . S
C1095 C1094 1.385 . S
C1096 C1094 1.478 . S
C1096 C1098 1.381 . S
C1096 C1102 1.383 . S
C1097 C1093 1.495 . S
C1097 H1103 0.959 . S
C1097 H1104 0.961 . S
C1097 H1105 0.960 . S
C1098 C1096 1.381 . S
C1098 C1099 1.394 . S
C1098 H1106 0.930 . S
C1099 C1098 1.394 . S
C1099 C1100 1.383 . S
C1099 H1107 0.929 . S
C1100 C1099 1.383 . S
C1100 C1101 1.377 . S
C1101 H1085 0.930 . S
C1101 C1100 1.377 . S
C1101 C1102 1.379 . S
C1102 H1086 0.931 . S
C1102 C1096 1.383 . S
C1102 C1101 1.379 . S
H1103 C1097 0.959 . S
H1104 C1097 0.961 . S
H1105 C1097 0.960 . S
H1106 C1098 0.930 . S
H1107 C1099 0.929 . S
H1108 C1116 0.929 . S
H1109 C1118 0.930 . S
H1110 C1120 0.930 . S
H1111 C1123 0.929 . S
H1112 C1126 0.930 . S
H1113 C1128 0.960 . S
H1114 C1128 0.960 . S
H1115 C1128 0.960 . S
C1116 H1108 0.929 . S
C1116 C1117 1.377 . S
C1116 C1118 1.384 . S
C1117 C1116 1.377 . S
C1117 C1123 1.390 . S
C1118 H1109 0.930 . S
C1118 C1116 1.384 . S
C1118 C1119 1.372 . S
C1119 C1118 1.372 . S
C1119 C1120 1.400 . S
C1119 C1124 1.490 . S
C1120 H1110 0.930 . S
C1120 C1119 1.400 . S
C1120 C1123 1.386 . S
H1121 C1137 0.930 . S
H1122 C1138 0.931 . S
C1123 H1111 0.929 . S
C1123 C1117 1.390 . S
C1123 C1120 1.386 . S
C1124 C1119 1.490 . S
C1124 C1126 1.395 . S
C1124 C1127 1.403 . S
H1125 C1131 0.930 . S
C1126 H1112 0.930 . S
C1126 C1124 1.395 . S
C1126 C1129 1.403 . S
C1127 C1124 1.403 . S
C1127 C1128 1.524 . S
C1127 C1131 1.400 . S
C1128 H1113 0.960 . S
C1128 H1114 0.960 . S
C1128 H1115 0.960 . S
C1128 C1127 1.524 . S
C1129 C1126 1.403 . S
C1129 C1130 1.392 . S
C1129 C1133 1.495 . S
C1130 C1129 1.392 . S
C1130 C1131 1.385 . S
C1130 C1132 1.478 . S
C1131 H1125 0.930 . S
C1131 C1127 1.400 . S
C1131 C1130 1.385 . S
C1132 C1130 1.478 . S
C1132 C1134 1.381 . S
C1132 C1138 1.383 . S
C1133 C1129 1.495 . S
C1133 H1139 0.959 . S
C1133 H1140 0.961 . S
C1133 H1141 0.960 . S
C1134 C1132 1.381 . S
C1134 C1135 1.394 . S
C1134 H1142 0.930 . S
C1135 C1134 1.394 . S
C1135 C1136 1.383 . S
C1135 H1143 0.929 . S
C1136 C1135 1.383 . S
C1136 C1137 1.377 . S
C1137 H1121 0.930 . S
C1137 C1136 1.377 . S
C1137 C1138 1.379 . S
C1138 H1122 0.931 . S
C1138 C1132 1.383 . S
C1138 C1137 1.379 . S
H1139 C1133 0.959 . S
H1140 C1133 0.961 . S
H1141 C1133 0.960 . S
H1142 C1134 0.930 . S
H1143 C1135 0.929 . S
H1144 C1152 0.929 . S
H1145 C1154 0.930 . S
H1146 C1156 0.930 . S
H1147 C1159 0.929 . S
H1148 C1162 0.930 . S
H1149 C1164 0.960 . S
H1150 C1164 0.960 . S
H1151 C1164 0.960 . S
C1152 H1144 0.929 . S
C1152 C1153 1.377 . S
C1152 C1154 1.384 . S
C1153 C1152 1.377 . S
C1153 C1159 1.390 . S
C1154 H1145 0.930 . S
C1154 C1152 1.384 . S
C1154 C1155 1.372 . S
C1155 C1154 1.372 . S
C1155 C1156 1.400 . S
C1155 C1160 1.490 . S
C1156 H1146 0.930 . S
C1156 C1155 1.400 . S
C1156 C1159 1.386 . S
H1157 C1173 0.930 . S
H1158 C1174 0.931 . S
C1159 H1147 0.929 . S
C1159 C1153 1.390 . S
C1159 C1156 1.386 . S
C1160 C1155 1.490 . S
C1160 C1162 1.395 . S
C1160 C1163 1.403 . S
H1161 C1167 0.930 . S
C1162 H1148 0.930 . S
C1162 C1160 1.395 . S
C1162 C1165 1.403 . S
C1163 C1160 1.403 . S
C1163 C1164 1.524 . S
C1163 C1167 1.400 . S
C1164 H1149 0.960 . S
C1164 H1150 0.960 . S
C1164 H1151 0.960 . S
C1164 C1163 1.524 . S
C1165 C1162 1.403 . S
C1165 C1166 1.392 . S
C1165 C1169 1.495 . S
C1166 C1165 1.392 . S
C1166 C1167 1.385 . S
C1166 C1168 1.478 . S
C1167 H1161 0.930 . S
C1167 C1163 1.400 . S
C1167 C1166 1.385 . S
C1168 C1166 1.478 . S
C1168 C1170 1.381 . S
C1168 C1174 1.383 . S
C1169 C1165 1.495 . S
C1169 H1175 0.959 . S
C1169 H1176 0.961 . S
C1169 H1177 0.960 . S
C1170 C1168 1.381 . S
C1170 C1171 1.394 . S
C1170 H1178 0.930 . S
C1171 C1170 1.394 . S
C1171 C1172 1.383 . S
C1171 H1179 0.929 . S
C1172 C1171 1.383 . S
C1172 C1173 1.377 . S
C1173 H1157 0.930 . S
C1173 C1172 1.377 . S
C1173 C1174 1.379 . S
C1174 H1158 0.931 . S
C1174 C1168 1.383 . S
C1174 C1173 1.379 . S
H1175 C1169 0.959 . S
H1176 C1169 0.961 . S
H1177 C1169 0.960 . S
H1178 C1170 0.930 . S
H1179 C1171 0.929 . S
H1180 C1188 0.929 . S
H1181 C1190 0.930 . S
H1182 C1192 0.930 . S
H1183 C1195 0.929 . S
H1184 C1198 0.930 . S
H1185 C1200 0.960 . S
H1186 C1200 0.960 . S
H1187 C1200 0.960 . S
C1188 H1180 0.929 . S
C1188 C1189 1.377 . S
C1188 C1190 1.384 . S
C1189 C1188 1.377 . S
C1189 C1195 1.390 . S
C1190 H1181 0.930 . S
C1190 C1188 1.384 . S
C1190 C1191 1.372 . S
C1191 C1190 1.372 . S
C1191 C1192 1.400 . S
C1191 C1196 1.490 . S
C1192 H1182 0.930 . S
C1192 C1191 1.400 . S
C1192 C1195 1.386 . S
H1193 C1209 0.930 . S
H1194 C1210 0.931 . S
C1195 H1183 0.929 . S
C1195 C1189 1.390 . S
C1195 C1192 1.386 . S
C1196 C1191 1.490 . S
C1196 C1198 1.395 . S
C1196 C1199 1.403 . S
H1197 C1203 0.930 . S
C1198 H1184 0.930 . S
C1198 C1196 1.395 . S
C1198 C1201 1.403 . S
C1199 C1196 1.403 . S
C1199 C1200 1.524 . S
C1199 C1203 1.400 . S
C1200 H1185 0.960 . S
C1200 H1186 0.960 . S
C1200 H1187 0.960 . S
C1200 C1199 1.524 . S
C1201 C1198 1.403 . S
C1201 C1202 1.392 . S
C1201 C1205 1.495 . S
C1202 C1201 1.392 . S
C1202 C1203 1.385 . S
C1202 C1204 1.478 . S
C1203 H1197 0.930 . S
C1203 C1199 1.400 . S
C1203 C1202 1.385 . S
C1204 C1202 1.478 . S
C1204 C1206 1.381 . S
C1204 C1210 1.383 . S
C1205 C1201 1.495 . S
C1205 H1211 0.959 . S
C1205 H1212 0.961 . S
C1205 H1213 0.960 . S
C1206 C1204 1.381 . S
C1206 C1207 1.394 . S
C1206 H1214 0.930 . S
C1207 C1206 1.394 . S
C1207 C1208 1.383 . S
C1207 H1215 0.929 . S
C1208 C1207 1.383 . S
C1208 C1209 1.377 . S
C1209 H1193 0.930 . S
C1209 C1208 1.377 . S
C1209 C1210 1.379 . S
C1210 H1194 0.931 . S
C1210 C1204 1.383 . S
C1210 C1209 1.379 . S
H1211 C1205 0.959 . S
H1212 C1205 0.961 . S
H1213 C1205 0.960 . S
H1214 C1206 0.930 . S
H1215 C1207 0.929 . S
H1216 C1224 0.929 . S
H1217 C1226 0.930 . S
H1218 C1228 0.930 . S
H1219 C1231 0.929 . S
H1220 C1234 0.930 . S
H1221 C1236 0.960 . S
H1222 C1236 0.960 . S
H1223 C1236 0.960 . S
C1224 H1216 0.929 . S
C1224 C1225 1.377 . S
C1224 C1226 1.384 . S
C1225 C1224 1.377 . S
C1225 C1231 1.390 . S
C1226 H1217 0.930 . S
C1226 C1224 1.384 . S
C1226 C1227 1.372 . S
C1227 C1226 1.372 . S
C1227 C1228 1.400 . S
C1227 C1232 1.490 . S
C1228 H1218 0.930 . S
C1228 C1227 1.400 . S
C1228 C1231 1.386 . S
H1229 C1245 0.930 . S
H1230 C1246 0.931 . S
C1231 H1219 0.929 . S
C1231 C1225 1.390 . S
C1231 C1228 1.386 . S
C1232 C1227 1.490 . S
C1232 C1234 1.395 . S
C1232 C1235 1.403 . S
H1233 C1239 0.930 . S
C1234 H1220 0.930 . S
C1234 C1232 1.395 . S
C1234 C1237 1.403 . S
C1235 C1232 1.403 . S
C1235 C1236 1.524 . S
C1235 C1239 1.400 . S
C1236 H1221 0.960 . S
C1236 H1222 0.960 . S
C1236 H1223 0.960 . S
C1236 C1235 1.524 . S
C1237 C1234 1.403 . S
C1237 C1238 1.392 . S
C1237 C1241 1.495 . S
C1238 C1237 1.392 . S
C1238 C1239 1.385 . S
C1238 C1240 1.478 . S
C1239 H1233 0.930 . S
C1239 C1235 1.400 . S
C1239 C1238 1.385 . S
C1240 C1238 1.478 . S
C1240 C1242 1.381 . S
C1240 C1246 1.383 . S
C1241 C1237 1.495 . S
C1241 H1247 0.959 . S
C1241 H1248 0.961 . S
C1241 H1249 0.960 . S
C1242 C1240 1.381 . S
C1242 C1243 1.394 . S
C1242 H1250 0.930 . S
C1243 C1242 1.394 . S
C1243 C1244 1.383 . S
C1243 H1251 0.929 . S
C1244 C1243 1.383 . S
C1244 C1245 1.377 . S
C1245 H1229 0.930 . S
C1245 C1244 1.377 . S
C1245 C1246 1.379 . S
C1246 H1230 0.931 . S
C1246 C1240 1.383 . S
C1246 C1245 1.379 . S
H1247 C1241 0.959 . S
H1248 C1241 0.961 . S
H1249 C1241 0.960 . S
H1250 C1242 0.930 . S
H1251 C1243 0.929 . S
H1252 C1260 0.929 . S
H1253 C1262 0.930 . S
H1254 C1264 0.930 . S
H1255 C1267 0.929 . S
H1256 C1270 0.930 . S
H1257 C1272 0.960 . S
H1258 C1272 0.960 . S
H1259 C1272 0.960 . S
C1260 H1252 0.929 . S
C1260 C1261 1.377 . S
C1260 C1262 1.384 . S
C1261 C1260 1.377 . S
C1261 C1267 1.390 . S
C1262 H1253 0.930 . S
C1262 C1260 1.384 . S
C1262 C1263 1.372 . S
C1263 C1262 1.372 . S
C1263 C1264 1.400 . S
C1263 C1268 1.490 . S
C1264 H1254 0.930 . S
C1264 C1263 1.400 . S
C1264 C1267 1.386 . S
H1265 C1281 0.930 . S
H1266 C1282 0.931 . S
C1267 H1255 0.929 . S
C1267 C1261 1.390 . S
C1267 C1264 1.386 . S
C1268 C1263 1.490 . S
C1268 C1270 1.395 . S
C1268 C1271 1.403 . S
H1269 C1275 0.930 . S
C1270 H1256 0.930 . S
C1270 C1268 1.395 . S
C1270 C1273 1.403 . S
C1271 C1268 1.403 . S
C1271 C1272 1.524 . S
C1271 C1275 1.400 . S
C1272 H1257 0.960 . S
C1272 H1258 0.960 . S
C1272 H1259 0.960 . S
C1272 C1271 1.524 . S
C1273 C1270 1.403 . S
C1273 C1274 1.392 . S
C1273 C1277 1.495 . S
C1274 C1273 1.392 . S
C1274 C1275 1.385 . S
C1274 C1276 1.478 . S
C1275 H1269 0.930 . S
C1275 C1271 1.400 . S
C1275 C1274 1.385 . S
C1276 C1274 1.478 . S
C1276 C1278 1.381 . S
C1276 C1282 1.383 . S
C1277 C1273 1.495 . S
C1277 H1283 0.959 . S
C1277 H1284 0.961 . S
C1277 H1285 0.960 . S
C1278 C1276 1.381 . S
C1278 C1279 1.394 . S
C1278 H1286 0.930 . S
C1279 C1278 1.394 . S
C1279 C1280 1.383 . S
C1279 H1287 0.929 . S
C1280 C1279 1.383 . S
C1280 C1281 1.377 . S
C1281 H1265 0.930 . S
C1281 C1280 1.377 . S
C1281 C1282 1.379 . S
C1282 H1266 0.931 . S
C1282 C1276 1.383 . S
C1282 C1281 1.379 . S
H1283 C1277 0.959 . S
H1284 C1277 0.961 . S
H1285 C1277 0.960 . S
H1286 C1278 0.930 . S
H1287 C1279 0.929 . S
H1288 C1296 0.929 . S
H1289 C1298 0.930 . S
H1290 C1300 0.930 . S
H1291 C1303 0.929 . S
H1292 C1306 0.930 . S
H1293 C1308 0.960 . S
H1294 C1308 0.960 . S
H1295 C1308 0.960 . S
C1296 H1288 0.929 . S
C1296 C1297 1.377 . S
C1296 C1298 1.384 . S
C1297 C1296 1.377 . S
C1297 C1303 1.390 . S
C1298 H1289 0.930 . S
C1298 C1296 1.384 . S
C1298 C1299 1.372 . S
C1299 C1298 1.372 . S
C1299 C1300 1.400 . S
C1299 C1304 1.490 . S
C1300 H1290 0.930 . S
C1300 C1299 1.400 . S
C1300 C1303 1.386 . S
H1301 C1317 0.930 . S
H1302 C1318 0.931 . S
C1303 H1291 0.929 . S
C1303 C1297 1.390 . S
C1303 C1300 1.386 . S
C1304 C1299 1.490 . S
C1304 C1306 1.395 . S
C1304 C1307 1.403 . S
H1305 C1311 0.930 . S
C1306 H1292 0.930 . S
C1306 C1304 1.395 . S
C1306 C1309 1.403 . S
C1307 C1304 1.403 . S
C1307 C1308 1.524 . S
C1307 C1311 1.400 . S
C1308 H1293 0.960 . S
C1308 H1294 0.960 . S
C1308 H1295 0.960 . S
C1308 C1307 1.524 . S
C1309 C1306 1.403 . S
C1309 C1310 1.392 . S
C1309 C1313 1.495 . S
C1310 C1309 1.392 . S
C1310 C1311 1.385 . S
C1310 C1312 1.478 . S
C1311 H1305 0.930 . S
C1311 C1307 1.400 . S
C1311 C1310 1.385 . S
C1312 C1310 1.478 . S
C1312 C1314 1.381 . S
C1312 C1318 1.383 . S
C1313 C1309 1.495 . S
C1313 H1319 0.959 . S
C1313 H1320 0.961 . S
C1313 H1321 0.960 . S
C1314 C1312 1.381 . S
C1314 C1315 1.394 . S
C1314 H1322 0.930 . S
C1315 C1314 1.394 . S
C1315 C1316 1.383 . S
C1315 H1323 0.929 . S
C1316 C1315 1.383 . S
C1316 C1317 1.377 . S
C1317 H1301 0.930 . S
C1317 C1316 1.377 . S
C1317 C1318 1.379 . S
C1318 H1302 0.931 . S
C1318 C1312 1.383 . S
C1318 C1317 1.379 . S
H1319 C1313 0.959 . S
H1320 C1313 0.961 . S
H1321 C1313 0.960 . S
H1322 C1314 0.930 . S
H1323 C1315 0.929 . S
H1324 C1332 0.929 . S
H1325 C1334 0.930 . S
H1326 C1336 0.930 . S
H1327 C1339 0.929 . S
H1328 C1342 0.930 . S
H1329 C1344 0.960 . S
H1330 C1344 0.960 . S
H1331 C1344 0.960 . S
C1332 H1324 0.929 . S
C1332 C1333 1.377 . S
C1332 C1334 1.384 . S
C1333 C1332 1.377 . S
C1333 C1339 1.390 . S
C1334 H1325 0.930 . S
C1334 C1332 1.384 . S
C1334 C1335 1.372 . S
C1335 C1334 1.372 . S
C1335 C1336 1.400 . S
C1335 C1340 1.490 . S
C1336 H1326 0.930 . S
C1336 C1335 1.400 . S
C1336 C1339 1.386 . S
H1337 C1353 0.930 . S
H1338 C1354 0.931 . S
C1339 H1327 0.929 . S
C1339 C1333 1.390 . S
C1339 C1336 1.386 . S
C1340 C1335 1.490 . S
C1340 C1342 1.395 . S
C1340 C1343 1.403 . S
H1341 C1347 0.930 . S
C1342 H1328 0.930 . S
C1342 C1340 1.395 . S
C1342 C1345 1.403 . S
C1343 C1340 1.403 . S
C1343 C1344 1.524 . S
C1343 C1347 1.400 . S
C1344 H1329 0.960 . S
C1344 H1330 0.960 . S
C1344 H1331 0.960 . S
C1344 C1343 1.524 . S
C1345 C1342 1.403 . S
C1345 C1346 1.392 . S
C1345 C1349 1.495 . S
C1346 C1345 1.392 . S
C1346 C1347 1.385 . S
C1346 C1348 1.478 . S
C1347 H1341 0.930 . S
C1347 C1343 1.400 . S
C1347 C1346 1.385 . S
C1348 C1346 1.478 . S
C1348 C1350 1.381 . S
C1348 C1354 1.383 . S
C1349 C1345 1.495 . S
C1349 H1355 0.959 . S
C1349 H1356 0.961 . S
C1349 H1357 0.960 . S
C1350 C1348 1.381 . S
C1350 C1351 1.394 . S
C1350 H1358 0.930 . S
C1351 C1350 1.394 . S
C1351 C1352 1.383 . S
C1351 H1359 0.929 . S
C1352 C1351 1.383 . S
C1352 C1353 1.377 . S
C1353 H1337 0.930 . S
C1353 C1352 1.377 . S
C1353 C1354 1.379 . S
C1354 H1338 0.931 . S
C1354 C1348 1.383 . S
C1354 C1353 1.379 . S
H1355 C1349 0.959 . S
H1356 C1349 0.961 . S
H1357 C1349 0.960 . S
H1358 C1350 0.930 . S
H1359 C1351 0.929 . S
H1360 C1368 0.929 . S
H1361 C1370 0.930 . S
H1362 C1372 0.930 . S
H1363 C1375 0.929 . S
H1364 C1378 0.930 . S
H1365 C1380 0.960 . S
H1366 C1380 0.960 . S
H1367 C1380 0.960 . S
C1368 H1360 0.929 . S
C1368 C1369 1.377 . S
C1368 C1370 1.384 . S
C1369 C1368 1.377 . S
C1369 C1375 1.390 . S
C1370 H1361 0.930 . S
C1370 C1368 1.384 . S
C1370 C1371 1.372 . S
C1371 C1370 1.372 . S
C1371 C1372 1.400 . S
C1371 C1376 1.490 . S
C1372 H1362 0.930 . S
C1372 C1371 1.400 . S
C1372 C1375 1.386 . S
H1373 C1389 0.930 . S
H1374 C1390 0.931 . S
C1375 H1363 0.929 . S
C1375 C1369 1.390 . S
C1375 C1372 1.386 . S
C1376 C1371 1.490 . S
C1376 C1378 1.395 . S
C1376 C1379 1.403 . S
H1377 C1383 0.930 . S
C1378 H1364 0.930 . S
C1378 C1376 1.395 . S
C1378 C1381 1.403 . S
C1379 C1376 1.403 . S
C1379 C1380 1.524 . S
C1379 C1383 1.400 . S
C1380 H1365 0.960 . S
C1380 H1366 0.960 . S
C1380 H1367 0.960 . S
C1380 C1379 1.524 . S
C1381 C1378 1.403 . S
C1381 C1382 1.392 . S
C1381 C1385 1.495 . S
C1382 C1381 1.392 . S
C1382 C1383 1.385 . S
C1382 C1384 1.478 . S
C1383 H1377 0.930 . S
C1383 C1379 1.400 . S
C1383 C1382 1.385 . S
C1384 C1382 1.478 . S
C1384 C1386 1.381 . S
C1384 C1390 1.383 . S
C1385 C1381 1.495 . S
C1385 H1391 0.959 . S
C1385 H1392 0.961 . S
C1385 H1393 0.960 . S
C1386 C1384 1.381 . S
C1386 C1387 1.394 . S
C1386 H1394 0.930 . S
C1387 C1386 1.394 . S
C1387 C1388 1.383 . S
C1387 H1395 0.929 . S
C1388 C1387 1.383 . S
C1388 C1389 1.377 . S
C1389 H1373 0.930 . S
C1389 C1388 1.377 . S
C1389 C1390 1.379 . S
C1390 H1374 0.931 . S
C1390 C1384 1.383 . S
C1390 C1389 1.379 . S
H1391 C1385 0.959 . S
H1392 C1385 0.961 . S
H1393 C1385 0.960 . S
H1394 C1386 0.930 . S
H1395 C1387 0.929 . S
H1396 C1404 0.929 . S
H1397 C1406 0.930 . S
H1398 C1408 0.930 . S
H1399 C1411 0.929 . S
H1400 C1414 0.930 . S
H1401 C1416 0.960 . S
H1402 C1416 0.960 . S
H1403 C1416 0.960 . S
C1404 H1396 0.929 . S
C1404 C1405 1.377 . S
C1404 C1406 1.384 . S
C1405 C1404 1.377 . S
C1405 C1411 1.390 . S
C1406 H1397 0.930 . S
C1406 C1404 1.384 . S
C1406 C1407 1.372 . S
C1407 C1406 1.372 . S
C1407 C1408 1.400 . S
C1407 C1412 1.490 . S
C1408 H1398 0.930 . S
C1408 C1407 1.400 . S
C1408 C1411 1.386 . S
H1409 C1425 0.930 . S
H1410 C1426 0.931 . S
C1411 H1399 0.929 . S
C1411 C1405 1.390 . S
C1411 C1408 1.386 . S
C1412 C1407 1.490 . S
C1412 C1414 1.395 . S
C1412 C1415 1.403 . S
H1413 C1419 0.930 . S
C1414 H1400 0.930 . S
C1414 C1412 1.395 . S
C1414 C1417 1.403 . S
C1415 C1412 1.403 . S
C1415 C1416 1.524 . S
C1415 C1419 1.400 . S
C1416 H1401 0.960 . S
C1416 H1402 0.960 . S
C1416 H1403 0.960 . S
C1416 C1415 1.524 . S
C1417 C1414 1.403 . S
C1417 C1418 1.392 . S
C1417 C1421 1.495 . S
C1418 C1417 1.392 . S
C1418 C1419 1.385 . S
C1418 C1420 1.478 . S
C1419 H1413 0.930 . S
C1419 C1415 1.400 . S
C1419 C1418 1.385 . S
C1420 C1418 1.478 . S
C1420 C1422 1.381 . S
C1420 C1426 1.383 . S
C1421 C1417 1.495 . S
C1421 H1427 0.959 . S
C1421 H1428 0.961 . S
C1421 H1429 0.960 . S
C1422 C1420 1.381 . S
C1422 C1423 1.394 . S
C1422 H1430 0.930 . S
C1423 C1422 1.394 . S
C1423 C1424 1.383 . S
C1423 H1431 0.929 . S
C1424 C1423 1.383 . S
C1424 C1425 1.377 . S
C1425 H1409 0.930 . S
C1425 C1424 1.377 . S
C1425 C1426 1.379 . S
C1426 H1410 0.931 . S
C1426 C1420 1.383 . S
C1426 C1425 1.379 . S
H1427 C1421 0.959 . S
H1428 C1421 0.961 . S
H1429 C1421 0.960 . S
H1430 C1422 0.930 . S
H1431 C1423 0.929 . S
H1432 C1440 0.929 . S
H1433 C1442 0.930 . S
H1434 C1444 0.930 . S
H1435 C1447 0.929 . S
H1436 C1450 0.930 . S
H1437 C1452 0.960 . S
H1438 C1452 0.960 . S
H1439 C1452 0.960 . S
C1440 H1432 0.929 . S
C1440 C1441 1.377 . S
C1440 C1442 1.384 . S
C1441 C1440 1.377 . S
C1441 C1447 1.390 . S
C1442 H1433 0.930 . S
C1442 C1440 1.384 . S
C1442 C1443 1.372 . S
C1443 C1442 1.372 . S
C1443 C1444 1.400 . S
C1443 C1448 1.490 . S
C1444 H1434 0.930 . S
C1444 C1443 1.400 . S
C1444 C1447 1.386 . S
H1445 C1461 0.930 . S
H1446 C1462 0.931 . S
C1447 H1435 0.929 . S
C1447 C1441 1.390 . S
C1447 C1444 1.386 . S
C1448 C1443 1.490 . S
C1448 C1450 1.395 . S
C1448 C1451 1.403 . S
H1449 C1455 0.930 . S
C1450 H1436 0.930 . S
C1450 C1448 1.395 . S
C1450 C1453 1.403 . S
C1451 C1448 1.403 . S
C1451 C1452 1.524 . S
C1451 C1455 1.400 . S
C1452 H1437 0.960 . S
C1452 H1438 0.960 . S
C1452 H1439 0.960 . S
C1452 C1451 1.524 . S
C1453 C1450 1.403 . S
C1453 C1454 1.392 . S
C1453 C1457 1.495 . S
C1454 C1453 1.392 . S
C1454 C1455 1.385 . S
C1454 C1456 1.478 . S
C1455 H1449 0.930 . S
C1455 C1451 1.400 . S
C1455 C1454 1.385 . S
C1456 C1454 1.478 . S
C1456 C1458 1.381 . S
C1456 C1462 1.383 . S
C1457 C1453 1.495 . S
C1457 H1463 0.959 . S
C1457 H1464 0.961 . S
C1457 H1465 0.960 . S
C1458 C1456 1.381 . S
C1458 C1459 1.394 . S
C1458 H1466 0.930 . S
C1459 C1458 1.394 . S
C1459 C1460 1.383 . S
C1459 H1467 0.929 . S
C1460 C1459 1.383 . S
C1460 C1461 1.377 . S
C1461 H1445 0.930 . S
C1461 C1460 1.377 . S
C1461 C1462 1.379 . S
C1462 H1446 0.931 . S
C1462 C1456 1.383 . S
C1462 C1461 1.379 . S
H1463 C1457 0.959 . S
H1464 C1457 0.961 . S
H1465 C1457 0.960 . S
H1466 C1458 0.930 . S
H1467 C1459 0.929 . S
H1468 C1476 0.929 . S
H1469 C1478 0.930 . S
H1470 C1480 0.930 . S
H1471 C1483 0.929 . S
H1472 C1486 0.930 . S
H1473 C1488 0.960 . S
H1474 C1488 0.960 . S
H1475 C1488 0.960 . S
C1476 H1468 0.929 . S
C1476 C1477 1.377 . S
C1476 C1478 1.384 . S
C1477 C1476 1.377 . S
C1477 C1483 1.390 . S
C1478 H1469 0.930 . S
C1478 C1476 1.384 . S
C1478 C1479 1.372 . S
C1479 C1478 1.372 . S
C1479 C1480 1.400 . S
C1479 C1484 1.490 . S
C1480 H1470 0.930 . S
C1480 C1479 1.400 . S
C1480 C1483 1.386 . S
H1481 C1497 0.930 . S
H1482 C1498 0.931 . S
C1483 H1471 0.929 . S
C1483 C1477 1.390 . S
C1483 C1480 1.386 . S
C1484 C1479 1.490 . S
C1484 C1486 1.395 . S
C1484 C1487 1.403 . S
H1485 C1491 0.930 . S
C1486 H1472 0.930 . S
C1486 C1484 1.395 . S
C1486 C1489 1.403 . S
C1487 C1484 1.403 . S
C1487 C1488 1.524 . S
C1487 C1491 1.400 . S
C1488 H1473 0.960 . S
C1488 H1474 0.960 . S
C1488 H1475 0.960 . S
C1488 C1487 1.524 . S
C1489 C1486 1.403 . S
C1489 C1490 1.392 . S
C1489 C1493 1.495 . S
C1490 C1489 1.392 . S
C1490 C1491 1.385 . S
C1490 C1492 1.478 . S
C1491 H1485 0.930 . S
C1491 C1487 1.400 . S
C1491 C1490 1.385 . S
C1492 C1490 1.478 . S
C1492 C1494 1.381 . S
C1492 C1498 1.383 . S
C1493 C1489 1.495 . S
C1493 H1499 0.959 . S
C1493 H1500 0.961 . S
C1493 H1501 0.960 . S
C1494 C1492 1.381 . S
C1494 C1495 1.394 . S
C1494 H1502 0.930 . S
C1495 C1494 1.394 . S
C1495 C1496 1.383 . S
C1495 H1503 0.929 . S
C1496 C1495 1.383 . S
C1496 C1497 1.377 . S
C1497 H1481 0.930 . S
C1497 C1496 1.377 . S
C1497 C1498 1.379 . S
C1498 H1482 0.931 . S
C1498 C1492 1.383 . S
C1498 C1497 1.379 . S
H1499 C1493 0.959 . S
H1500 C1493 0.961 . S
H1501 C1493 0.960 . S
H1502 C1494 0.930 . S
H1503 C1495 0.929 . S
H1504 C1512 0.929 . S
H1505 C1514 0.930 . S
H1506 C1516 0.930 . S
H1507 C1519 0.929 . S
H1508 C1522 0.930 . S
H1509 C1524 0.960 . S
H1510 C1524 0.960 . S
H1511 C1524 0.960 . S
C1512 H1504 0.929 . S
C1512 C1513 1.377 . S
C1512 C1514 1.384 . S
C1513 C1512 1.377 . S
C1513 C1519 1.390 . S
C1514 H1505 0.930 . S
C1514 C1512 1.384 . S
C1514 C1515 1.372 . S
C1515 C1514 1.372 . S
C1515 C1516 1.400 . S
C1515 C1520 1.490 . S
C1516 H1506 0.930 . S
C1516 C1515 1.400 . S
C1516 C1519 1.386 . S
H1517 C1533 0.930 . S
H1518 C1534 0.931 . S
C1519 H1507 0.929 . S
C1519 C1513 1.390 . S
C1519 C1516 1.386 . S
C1520 C1515 1.490 . S
C1520 C1522 1.395 . S
C1520 C1523 1.403 . S
H1521 C1527 0.930 . S
C1522 H1508 0.930 . S
C1522 C1520 1.395 . S
C1522 C1525 1.403 . S
C1523 C1520 1.403 . S
C1523 C1524 1.524 . S
C1523 C1527 1.400 . S
C1524 H1509 0.960 . S
C1524 H1510 0.960 . S
C1524 H1511 0.960 . S
C1524 C1523 1.524 . S
C1525 C1522 1.403 . S
C1525 C1526 1.392 . S
C1525 C1529 1.495 . S
C1526 C1525 1.392 . S
C1526 C1527 1.385 . S
C1526 C1528 1.478 . S
C1527 H1521 0.930 . S
C1527 C1523 1.400 . S
C1527 C1526 1.385 . S
C1528 C1526 1.478 . S
C1528 C1530 1.381 . S
C1528 C1534 1.383 . S
C1529 C1525 1.495 . S
C1529 H1535 0.959 . S
C1529 H1536 0.961 . S
C1529 H1537 0.960 . S
C1530 C1528 1.381 . S
C1530 C1531 1.394 . S
C1530 H1538 0.930 . S
C1531 C1530 1.394 . S
C1531 C1532 1.383 . S
C1531 H1539 0.929 . S
C1532 C1531 1.383 . S
C1532 C1533 1.377 . S
C1533 H1517 0.930 . S
C1533 C1532 1.377 . S
C1533 C1534 1.379 . S
C1534 H1518 0.931 . S
C1534 C1528 1.383 . S
C1534 C1533 1.379 . S
H1535 C1529 0.959 . S
H1536 C1529 0.961 . S
H1537 C1529 0.960 . S
H1538 C1530 0.930 . S
H1539 C1531 0.929 . S
H1540 C1548 0.929 . S
H1541 C1550 0.930 . S
H1542 C1552 0.930 . S
H1543 C1555 0.929 . S
H1544 C1558 0.930 . S
H1545 C1560 0.960 . S
H1546 C1560 0.960 . S
H1547 C1560 0.960 . S
C1548 H1540 0.929 . S
C1548 C1549 1.377 . S
C1548 C1550 1.384 . S
C1549 C1548 1.377 . S
C1549 C1555 1.390 . S
C1550 H1541 0.930 . S
C1550 C1548 1.384 . S
C1550 C1551 1.372 . S
C1551 C1550 1.372 . S
C1551 C1552 1.400 . S
C1551 C1556 1.490 . S
C1552 H1542 0.930 . S
C1552 C1551 1.400 . S
C1552 C1555 1.386 . S
H1553 C1569 0.930 . S
H1554 C1570 0.931 . S
C1555 H1543 0.929 . S
C1555 C1549 1.390 . S
C1555 C1552 1.386 . S
C1556 C1551 1.490 . S
C1556 C1558 1.395 . S
C1556 C1559 1.403 . S
H1557 C1563 0.930 . S
C1558 H1544 0.930 . S
C1558 C1556 1.395 . S
C1558 C1561 1.403 . S
C1559 C1556 1.403 . S
C1559 C1560 1.524 . S
C1559 C1563 1.400 . S
C1560 H1545 0.960 . S
C1560 H1546 0.960 . S
C1560 H1547 0.960 . S
C1560 C1559 1.524 . S
C1561 C1558 1.403 . S
C1561 C1562 1.392 . S
C1561 C1565 1.495 . S
C1562 C1561 1.392 . S
C1562 C1563 1.385 . S
C1562 C1564 1.478 . S
C1563 H1557 0.930 . S
C1563 C1559 1.400 . S
C1563 C1562 1.385 . S
C1564 C1562 1.478 . S
C1564 C1566 1.381 . S
C1564 C1570 1.383 . S
C1565 C1561 1.495 . S
C1565 H1571 0.959 . S
C1565 H1572 0.961 . S
C1565 H1573 0.960 . S
C1566 C1564 1.381 . S
C1566 C1567 1.394 . S
C1566 H1574 0.930 . S
C1567 C1566 1.394 . S
C1567 C1568 1.383 . S
C1567 H1575 0.929 . S
C1568 C1567 1.383 . S
C1568 C1569 1.377 . S
C1569 H1553 0.930 . S
C1569 C1568 1.377 . S
C1569 C1570 1.379 . S
C1570 H1554 0.931 . S
C1570 C1564 1.383 . S
C1570 C1569 1.379 . S
H1571 C1565 0.959 . S
H1572 C1565 0.961 . S
H1573 C1565 0.960 . S
H1574 C1566 0.930 . S
H1575 C1567 0.929 . S
H1576 C1584 0.929 . S
H1577 C1586 0.930 . S
H1578 C1588 0.930 . S
H1579 C1591 0.929 . S
H1580 C1594 0.930 . S
H1581 C1596 0.960 . S
H1582 C1596 0.960 . S
H1583 C1596 0.960 . S
C1584 H1576 0.929 . S
C1584 C1585 1.377 . S
C1584 C1586 1.384 . S
C1585 C1584 1.377 . S
C1585 C1591 1.390 . S
C1586 H1577 0.930 . S
C1586 C1584 1.384 . S
C1586 C1587 1.372 . S
C1587 C1586 1.372 . S
C1587 C1588 1.400 . S
C1587 C1592 1.490 . S
C1588 H1578 0.930 . S
C1588 C1587 1.400 . S
C1588 C1591 1.386 . S
H1589 C1605 0.930 . S
H1590 C1606 0.931 . S
C1591 H1579 0.929 . S
C1591 C1585 1.390 . S
C1591 C1588 1.386 . S
C1592 C1587 1.490 . S
C1592 C1594 1.395 . S
C1592 C1595 1.403 . S
H1593 C1599 0.930 . S
C1594 H1580 0.930 . S
C1594 C1592 1.395 . S
C1594 C1597 1.403 . S
C1595 C1592 1.403 . S
C1595 C1596 1.524 . S
C1595 C1599 1.400 . S
C1596 H1581 0.960 . S
C1596 H1582 0.960 . S
C1596 H1583 0.960 . S
C1596 C1595 1.524 . S
C1597 C1594 1.403 . S
C1597 C1598 1.392 . S
C1597 C1601 1.495 . S
C1598 C1597 1.392 . S
C1598 C1599 1.385 . S
C1598 C1600 1.478 . S
C1599 H1593 0.930 . S
C1599 C1595 1.400 . S
C1599 C1598 1.385 . S
C1600 C1598 1.478 . S
C1600 C1602 1.381 . S
C1600 C1606 1.383 . S
C1601 C1597 1.495 . S
C1601 H1607 0.959 . S
C1601 H1608 0.961 . S
C1601 H1609 0.960 . S
C1602 C1600 1.381 . S
C1602 C1603 1.394 . S
C1602 H1610 0.930 . S
C1603 C1602 1.394 . S
C1603 C1604 1.383 . S
C1603 H1611 0.929 . S
C1604 C1603 1.383 . S
C1604 C1605 1.377 . S
C1605 H1589 0.930 . S
C1605 C1604 1.377 . S
C1605 C1606 1.379 . S
C1606 H1590 0.931 . S
C1606 C1600 1.383 . S
C1606 C1605 1.379 . S
H1607 C1601 0.959 . S
H1608 C1601 0.961 . S
H1609 C1601 0.960 . S
H1610 C1602 0.930 . S
H1611 C1603 0.929 . S
H1612 C1620 0.929 . S
H1613 C1622 0.930 . S
H1614 C1624 0.930 . S
H1615 C1627 0.929 . S
H1616 C1630 0.930 . S
H1617 C1632 0.960 . S
H1618 C1632 0.960 . S
H1619 C1632 0.960 . S
C1620 H1612 0.929 . S
C1620 C1621 1.377 . S
C1620 C1622 1.384 . S
C1621 C1620 1.377 . S
C1621 C1627 1.390 . S
C1622 H1613 0.930 . S
C1622 C1620 1.384 . S
C1622 C1623 1.372 . S
C1623 C1622 1.372 . S
C1623 C1624 1.400 . S
C1623 C1628 1.490 . S
C1624 H1614 0.930 . S
C1624 C1623 1.400 . S
C1624 C1627 1.386 . S
H1625 C1641 0.930 . S
H1626 C1642 0.931 . S
C1627 H1615 0.929 . S
C1627 C1621 1.390 . S
C1627 C1624 1.386 . S
C1628 C1623 1.490 . S
C1628 C1630 1.395 . S
C1628 C1631 1.403 . S
H1629 C1635 0.930 . S
C1630 H1616 0.930 . S
C1630 C1628 1.395 . S
C1630 C1633 1.403 . S
C1631 C1628 1.403 . S
C1631 C1632 1.524 . S
C1631 C1635 1.400 . S
C1632 H1617 0.960 . S
C1632 H1618 0.960 . S
C1632 H1619 0.960 . S
C1632 C1631 1.524 . S
C1633 C1630 1.403 . S
C1633 C1634 1.392 . S
C1633 C1637 1.495 . S
C1634 C1633 1.392 . S
C1634 C1635 1.385 . S
C1634 C1636 1.478 . S
C1635 H1629 0.930 . S
C1635 C1631 1.400 . S
C1635 C1634 1.385 . S
C1636 C1634 1.478 . S
C1636 C1638 1.381 . S
C1636 C1642 1.383 . S
C1637 C1633 1.495 . S
C1637 H1643 0.959 . S
C1637 H1644 0.961 . S
C1637 H1645 0.960 . S
C1638 C1636 1.381 . S
C1638 C1639 1.394 . S
C1638 H1646 0.930 . S
C1639 C1638 1.394 . S
C1639 C1640 1.383 . S
C1639 H1647 0.929 . S
C1640 C1639 1.383 . S
C1640 C1641 1.377 . S
C1641 H1625 0.930 . S
C1641 C1640 1.377 . S
C1641 C1642 1.379 . S
C1642 H1626 0.931 . S
C1642 C1636 1.383 . S
C1642 C1641 1.379 . S
H1643 C1637 0.959 . S
H1644 C1637 0.961 . S
H1645 C1637 0.960 . S
H1646 C1638 0.930 . S
H1647 C1639 0.929 . S
H1648 C1656 0.929 . S
H1649 C1658 0.930 . S
H1650 C1660 0.930 . S
H1651 C1663 0.929 . S
H1652 C1666 0.930 . S
H1653 C1668 0.960 . S
H1654 C1668 0.960 . S
H1655 C1668 0.960 . S
C1656 H1648 0.929 . S
C1656 C1657 1.377 . S
C1656 C1658 1.384 . S
C1657 C1656 1.377 . S
C1657 C1663 1.390 . S
C1658 H1649 0.930 . S
C1658 C1656 1.384 . S
C1658 C1659 1.372 . S
C1659 C1658 1.372 . S
C1659 C1660 1.400 . S
C1659 C1664 1.490 . S
C1660 H1650 0.930 . S
C1660 C1659 1.400 . S
C1660 C1663 1.386 . S
H1661 C1677 0.930 . S
H1662 C1678 0.931 . S
C1663 H1651 0.929 . S
C1663 C1657 1.390 . S
C1663 C1660 1.386 . S
C1664 C1659 1.490 . S
C1664 C1666 1.395 . S
C1664 C1667 1.403 . S
H1665 C1671 0.930 . S
C1666 H1652 0.930 . S
C1666 C1664 1.395 . S
C1666 C1669 1.403 . S
C1667 C1664 1.403 . S
C1667 C1668 1.524 . S
C1667 C1671 1.400 . S
C1668 H1653 0.960 . S
C1668 H1654 0.960 . S
C1668 H1655 0.960 . S
C1668 C1667 1.524 . S
C1669 C1666 1.403 . S
C1669 C1670 1.392 . S
C1669 C1673 1.495 . S
C1670 C1669 1.392 . S
C1670 C1671 1.385 . S
C1670 C1672 1.478 . S
C1671 H1665 0.930 . S
C1671 C1667 1.400 . S
C1671 C1670 1.385 . S
C1672 C1670 1.478 . S
C1672 C1674 1.381 . S
C1672 C1678 1.383 . S
C1673 C1669 1.495 . S
C1673 H1679 0.959 . S
C1673 H1680 0.961 . S
C1673 H1681 0.960 . S
C1674 C1672 1.381 . S
C1674 C1675 1.394 . S
C1674 H1682 0.930 . S
C1675 C1674 1.394 . S
C1675 C1676 1.383 . S
C1675 H1683 0.929 . S
C1676 C1675 1.383 . S
C1676 C1677 1.377 . S
C1677 H1661 0.930 . S
C1677 C1676 1.377 . S
C1677 C1678 1.379 . S
C1678 H1662 0.931 . S
C1678 C1672 1.383 . S
C1678 C1677 1.379 . S
H1679 C1673 0.959 . S
H1680 C1673 0.961 . S
H1681 C1673 0.960 . S
H1682 C1674 0.930 . S
H1683 C1675 0.929 . S
H1684 C1692 0.929 . S
H1685 C1694 0.930 . S
H1686 C1696 0.930 . S
H1687 C1699 0.929 . S
H1688 C1702 0.930 . S
H1689 C1704 0.960 . S
H1690 C1704 0.960 . S
H1691 C1704 0.960 . S
C1692 H1684 0.929 . S
C1692 C1693 1.377 . S
C1692 C1694 1.384 . S
C1693 C1692 1.377 . S
C1693 C1699 1.390 . S
C1694 H1685 0.930 . S
C1694 C1692 1.384 . S
C1694 C1695 1.372 . S
C1695 C1694 1.372 . S
C1695 C1696 1.400 . S
C1695 C1700 1.490 . S
C1696 H1686 0.930 . S
C1696 C1695 1.400 . S
C1696 C1699 1.386 . S
H1697 C1713 0.930 . S
H1698 C1714 0.931 . S
C1699 H1687 0.929 . S
C1699 C1693 1.390 . S
C1699 C1696 1.386 . S
C1700 C1695 1.490 . S
C1700 C1702 1.395 . S
C1700 C1703 1.403 . S
H1701 C1707 0.930 . S
C1702 H1688 0.930 . S
C1702 C1700 1.395 . S
C1702 C1705 1.403 . S
C1703 C1700 1.403 . S
C1703 C1704 1.524 . S
C1703 C1707 1.400 . S
C1704 H1689 0.960 . S
C1704 H1690 0.960 . S
C1704 H1691 0.960 . S
C1704 C1703 1.524 . S
C1705 C1702 1.403 . S
C1705 C1706 1.392 . S
C1705 C1709 1.495 . S
C1706 C1705 1.392 . S
C1706 C1707 1.385 . S
C1706 C1708 1.478 . S
C1707 H1701 0.930 . S
C1707 C1703 1.400 . S
C1707 C1706 1.385 . S
C1708 C1706 1.478 . S
C1708 C1710 1.381 . S
C1708 C1714 1.383 . S
C1709 C1705 1.495 . S
C1709 H1715 0.959 . S
C1709 H1716 0.961 . S
C1709 H1717 0.960 . S
C1710 C1708 1.381 . S
C1710 C1711 1.394 . S
C1710 H1718 0.930 . S
C1711 C1710 1.394 . S
C1711 C1712 1.383 . S
C1711 H1719 0.929 . S
C1712 C1711 1.383 . S
C1712 C1713 1.377 . S
C1713 H1697 0.930 . S
C1713 C1712 1.377 . S
C1713 C1714 1.379 . S
C1714 H1698 0.931 . S
C1714 C1708 1.383 . S
C1714 C1713 1.379 . S
H1715 C1709 0.959 . S
H1716 C1709 0.961 . S
H1717 C1709 0.960 . S
H1718 C1710 0.930 . S
H1719 C1711 0.929 . S
C596 C173 1.494 . S
C577 C7 1.429 . S
C632 C226 1.302 . S
C613 C32 1.254 . S
C668 C289 1.542 . S
C649 C44 1.492 . S
C704 C332 1.275 . S
C685 C62 1.235 . S
C721 C88 1.483 . S
C740 C288 1.538 . S
C776 C325 1.320 . S
C757 C106 1.281 . S
C812 C166 1.496 . S
C793 C124 1.440 . S
C848 C219 1.261 . S
C829 C140 1.212 . S
C884 C272 1.532 . S
C865 C142 1.456 . S
C920 C341 1.806 . S
C901 C86 1.745 . S
C956 C182 1.576 . S
C937 C104 1.528 . S
C992 C235 1.753 . S
C973 C122 1.697 . S
C1028 C183 1.578 . S
C1009 C34 1.519 . S
C1064 C236 1.801 . S
C1045 C43 1.742 . S
C1100 C279 1.534 . S
C1081 C61 1.470 . S
C1136 C342 1.764 . S
C1117 C8 1.699 . S
C1172 C385 1.469 . S
C1153 C133 1.413 . S
C1189 C80 1.629 . S
C1208 C438 1.690 . S
C1225 C98 1.508 . S
C1244 C500 1.556 . S
C1261 C116 1.627 . S
C1280 C554 1.675 . S
C1297 C25 1.466 . S
C1316 C501 1.518 . S
C1333 C52 1.680 . S
C1352 C553 1.732 . S
C1369 C70 1.450 . S
C1388 C378 1.512 . S
C1424 C431 1.651 . S
C1405 C14 1.588 . S
C1460 C491 1.510 . S
C1441 C16 1.433 . S
C1477 C26 1.324 . S
C1496 C537 1.379 . S
C1513 C50 1.550 . S
C1532 C394 1.599 . S
C1549 C68 1.312 . S
C1568 C447 1.350 . S
C1604 C395 1.549 . S
C1585 C79 1.491 . S
C1640 C448 1.403 . S
C1621 C97 1.362 . S
C1657 C115 1.483 . S
C1676 C484 1.556 . S
C1712 C544 1.324 . S
C1693 C134 1.264 . S
