# Generated by pormake.
# Topology anh, (6,3)-cn, num edge types: 1
# Building blocks:
#     Node 0, Type 0, BuildingBlock: PAMTUU_clean_sbu_0, # of connection points: 6
#     Node 1, Type 0, BuildingBlock: PAMTUU_clean_sbu_0, # of connection points: 6
#     Node 2, Type 0, BuildingBlock: PAMTUU_clean_sbu_0, # of connection points: 6
#     Node 3, Type 1, BuildingBlock: VETTIZ_charged_linker_0, # of connection points: 3
#     Node 4, Type 1, BuildingBlock: VETTIZ_charged_linker_0, # of connection points: 3
#     Node 5, Type 1, BuildingBlock: VETTIZ_charged_linker_0, # of connection points: 3
#     Node 6, Type 1, BuildingBlock: VETTIZ_charged_linker_0, # of connection points: 3
#     Node 7, Type 1, BuildingBlock: VETTIZ_charged_linker_0, # of connection points: 3
#     Node 8, Type 1, BuildingBlock: VETTIZ_charged_linker_0, # of connection points: 3
#     Edge 9, Type (0, 1), BuildingBlock: AJUNOK_clean_linker_0, # of connection points: 2
#     Edge 10, Type (0, 1), BuildingBlock: AJUNOK_clean_linker_0, # of connection points: 2
#     Edge 11, Type (0, 1), BuildingBlock: AJUNOK_clean_linker_0, # of connection points: 2
#     Edge 12, Type (0, 1), BuildingBlock: AJUNOK_clean_linker_0, # of connection points: 2
#     Edge 13, Type (0, 1), BuildingBlock: AJUNOK_clean_linker_0, # of connection points: 2
#     Edge 14, Type (0, 1), BuildingBlock: AJUNOK_clean_linker_0, # of connection points: 2
#     Edge 15, Type (0, 1), BuildingBlock: AJUNOK_clean_linker_0, # of connection points: 2
#     Edge 16, Type (0, 1), BuildingBlock: AJUNOK_clean_linker_0, # of connection points: 2
#     Edge 17, Type (0, 1), BuildingBlock: AJUNOK_clean_linker_0, # of connection points: 2
#     Edge 18, Type (0, 1), BuildingBlock: AJUNOK_clean_linker_0, # of connection points: 2
#     Edge 19, Type (0, 1), BuildingBlock: AJUNOK_clean_linker_0, # of connection points: 2
#     Edge 20, Type (0, 1), BuildingBlock: AJUNOK_clean_linker_0, # of connection points: 2
#     Edge 21, Type (0, 1), BuildingBlock: AJUNOK_clean_linker_0, # of connection points: 2
#     Edge 22, Type (0, 1), BuildingBlock: AJUNOK_clean_linker_0, # of connection points: 2
#     Edge 23, Type (0, 1), BuildingBlock: AJUNOK_clean_linker_0, # of connection points: 2
#     Edge 24, Type (0, 1), BuildingBlock: AJUNOK_clean_linker_0, # of connection points: 2
#     Edge 25, Type (0, 1), BuildingBlock: AJUNOK_clean_linker_0, # of connection points: 2
#     Edge 26, Type (0, 1), BuildingBlock: AJUNOK_clean_linker_0, # of connection points: 2
# Relax obj value: 0.306
# Max RMSD: 0.200
# Mean RMSD: 0.167
data_MOF--net-anh--node1-PAMTUU_clean_sbu_0--node2-VETTIZ_charged_linker_0--edge1-AJUNOK_clean_linker_0
_symmetry_space_group_name_H-M    P1
_symmetry_Int_Tables_number       1
_symmetry_cell_setting            triclinic
loop_
_symmetry_equiv_pos_as_xyz
'x, y, z'
_cell_length_a     28.329969
_cell_length_b     28.04354
_cell_length_c     52.934837
_cell_angle_alpha  93.181983
_cell_angle_beta   90.076548
_cell_angle_gamma 120.39471
loop_
_atom_site_label
_atom_site_type_symbol
_atom_site_fract_x
_atom_site_fract_y
_atom_site_fract_z
_atom_type_partial_charge
Tb0 Tb 0.19826 0.72947 0.15955 0.0
Tb1 Tb 0.25971 0.66065 0.16071 0.0
C2 C 0.22578 0.68744 0.10956 0.0
C3 C 1.08331 0.74497 0.16905 0.0
C4 C 0.97483 0.65742 0.16287 0.0
C5 C 0.99068 0.70895 0.15301 0.0
C6 C 1.04501 0.75225 0.15571 0.0
C7 C 1.06507 0.69762 0.18281 0.0
C8 C 1.01141 0.65381 0.17948 0.0
C9 C 0.14061 0.77393 0.16172 0.0
O10 O 0.1293 0.64093 0.15479 0.0
O11 O 0.17448 0.6005 0.17037 0.0
O12 O 0.27242 0.69842 0.1986 0.0
O13 O 0.19433 0.70246 0.19754 0.0
O14 O 0.31652 0.63965 0.14572 0.0
O15 O 0.26042 0.59328 0.1748 0.0
O16 O 0.32984 0.7474 0.15986 0.0
O17 O 0.28562 0.79731 0.16413 0.0
O18 O 0.2272 0.73042 0.1214 0.0
O19 O 0.22504 0.64875 0.12256 0.0
C20 C 1.12783 0.59681 0.16361 0.0
O21 O 0.17684 0.78267 0.17937 0.0
O22 O 0.14828 0.75238 0.14077 0.0
C23 C 0.23378 0.70221 0.21028 0.0
C24 C 0.33531 0.57849 0.16889 0.0
C25 C 0.38042 0.50999 0.17153 0.0
C26 C 0.33717 0.50162 0.18698 0.0
C27 C 0.31495 0.53591 0.1858 0.0
C28 C 0.3826 0.59061 0.15566 0.0
C29 C 0.40527 0.55669 0.15713 0.0
C30 C 0.2989 0.59774 0.16001 0.0
C31 C 0.3317 0.79581 0.16263 0.0
H32 H 0.96279 0.71361 0.14077 0.0
H33 H 1.0582 0.78849 0.145 0.0
H34 H 1.09387 0.6911 0.19336 0.0
H35 H 1.00125 0.61521 0.18747 0.0
H36 H 0.31754 0.46574 0.19818 0.0
H37 H 0.27831 0.5253 0.19616 0.0
H38 H 0.3989 0.62278 0.14236 0.0
H39 H 0.4386 0.56355 0.14496 0.0
Tb40 Tb 0.6366 0.12446 0.48739 0.0
Tb41 Tb 0.76359 0.1976 0.50138 0.0
C42 C 0.7183 0.17815 0.4444 0.0
C43 C 0.50536 1.00371 0.49282 0.0
C44 C 0.45691 0.89903 0.51312 0.0
C45 C 0.46635 0.90429 0.48708 0.0
C46 C 0.4901 0.956 0.47704 0.0
C47 C 0.49626 0.99854 0.51898 0.0
C48 C 0.47187 0.94654 0.52899 0.0
C49 C 0.53611 1.0587 0.48237 0.0
O50 O 0.6656 1.06335 0.48434 0.0
O51 O 0.74676 0.11212 0.50715 0.0
O52 O 0.7186 0.19718 0.53493 0.0
O53 O 0.65048 0.11027 0.52537 0.0
O54 O 0.84523 0.23745 0.49013 0.0
O55 O 0.82678 0.24151 0.52921 0.0
O56 O 0.74199 0.26205 0.49538 0.0
O57 O 0.64818 0.20943 0.49512 0.0
O58 O 0.66963 0.16336 0.45267 0.0
O59 O 0.75736 0.18339 0.45984 0.0
C60 C 0.70691 1.0642 0.49673 0.0
O61 O 0.5575 0.10121 0.49891 0.0
O62 O 0.57039 1.0633 0.46482 0.0
C63 C 0.67763 0.15103 0.54209 0.0
C64 C 0.88392 0.32586 0.51038 0.0
C65 C 0.87408 0.41234 0.49176 0.0
C66 C 0.90606 0.39358 0.47923 0.0
C67 C 0.9112 0.35083 0.48855 0.0
C68 C 0.86131 0.35203 0.52535 0.0
C69 C 0.85699 0.39549 0.51615 0.0
C70 C 0.86229 0.26583 0.51185 0.0
C71 C 0.69375 0.25878 0.49577 0.0
H72 H 0.45335 0.86805 0.47424 0.0
H73 H 0.49684 0.95867 0.45689 0.0
H74 H 0.50809 1.03456 0.53178 0.0
H75 H 0.46385 0.94328 0.54901 0.0
H76 H 0.92404 0.40928 0.46132 0.0
H77 H 0.93041 0.33275 0.47697 0.0
H78 H 0.84145 0.33515 0.54279 0.0
H79 H 0.8364 0.41259 0.52723 0.0
Tb80 Tb 0.66153 0.55517 0.81543 0.0
Tb81 Tb 0.72567 0.67977 0.83872 0.0
C82 C 0.70648 0.64994 0.77978 0.0
C83 C 0.55435 0.40744 0.80261 0.0
C84 C 0.45116 0.31252 0.80761 0.0
C85 C 0.49896 0.30896 0.80701 0.0
C86 C 0.54992 0.35589 0.80453 0.0
C87 C 0.50707 0.41189 0.80392 0.0
C88 C 0.45558 0.36449 0.80626 0.0
C89 C 0.60883 0.45534 0.79909 0.0
O90 O 0.74694 0.57102 0.82322 0.0
O91 O 0.79521 0.66501 0.833 0.0
O92 O 0.72017 0.62734 0.86899 0.0
O93 O 0.63954 0.55419 0.85437 0.0
O94 O 0.78228 0.7643 0.83547 0.0
O95 O 0.73629 0.73563 0.86929 0.0
O96 O 0.63819 0.65563 0.84243 0.0
O97 O 0.59511 0.57724 0.816 0.0
O98 O 0.7041 0.60354 0.78415 0.0
O99 O 0.70568 0.68199 0.79863 0.0
C100 C 0.79458 0.61763 0.82855 0.0
O101 O 0.61095 0.49572 0.78706 0.0
O102 O 0.64227 0.47315 0.81884 0.0
C103 C 0.6754 0.58058 0.87288 0.0
C104 C 0.74144 0.8129 0.8527 0.0
C105 C 0.68586 0.87136 0.8476 0.0
C106 C 0.72925 0.89035 0.8656 0.0
C107 C 0.75666 0.86087 0.8683 0.0
C108 C 0.69857 0.79452 0.83463 0.0
C109 C 0.67123 0.82346 0.83204 0.0
C110 C 0.76577 0.77827 0.85613 0.0
C111 C 0.59299 0.61683 0.83016 0.0
H112 H 0.49679 0.26931 0.80746 0.0
H113 H 0.5859 0.35171 0.80362 0.0
H114 H 0.50981 0.45166 0.80274 0.0
H115 H 0.41939 0.36827 0.80663 0.0
H116 H 0.74168 0.92768 0.87756 0.0
H117 H 0.78928 0.8752 0.88255 0.0
H118 H 0.68589 0.75739 0.82251 0.0
H119 H 0.63921 0.80882 0.81745 0.0
C120 C 0.8699 0.34482 0.17432 0.0
C121 C 0.91622 0.39127 0.18793 0.0
C122 C 0.91473 0.39236 0.21451 0.0
C123 C 0.82874 0.3035 0.21411 0.0
C124 C 0.82619 0.30113 0.18795 0.0
C125 C 0.77257 0.24758 0.1783 0.0
H126 H 0.54798 0.9942 0.21533 0.0
C127 C 0.78133 0.25219 0.22356 0.0
C128 C 0.74677 0.21758 0.20279 0.0
H129 H 0.56378 1.04747 0.13963 0.0
H130 H 0.65058 0.13427 0.15287 0.0
H131 H 0.67131 1.03288 0.22674 0.0
H132 H 0.56877 0.10222 0.2398 0.0
H133 H 0.61241 0.1258 0.26663 0.0
H134 H 0.56837 1.05227 0.2596 0.0
H135 H 0.62202 1.01156 0.25109 0.0
H136 H 0.69204 1.06676 0.25695 0.0
C137 C 0.78602 0.21166 0.16023 0.0
C138 C 0.73489 0.26406 0.16525 0.0
C139 C 0.77188 0.23033 0.31959 0.0
C140 C 0.7355 0.18681 0.33433 0.0
C141 C 0.69496 0.13702 0.32183 0.0
C142 C 0.689 0.13099 0.29545 0.0
C143 C 0.72365 0.17534 0.28086 0.0
C144 C 0.76507 0.2235 0.29289 0.0
C145 C 0.79892 0.2651 0.27399 0.0
C146 C 0.76972 0.23457 0.24878 0.0
C147 C 0.72535 0.18237 0.25312 0.0
C148 C 0.858 0.27507 0.27605 0.0
C149 C 0.7944 0.31749 0.27968 0.0
C150 C 0.56966 1.02373 0.20124 0.0
C151 C 0.54799 1.01225 0.17636 0.0
C152 C 0.57855 1.05403 0.15911 0.0
C153 C 0.62901 0.1045 0.16674 0.0
C154 C 0.64953 0.11489 0.19215 0.0
C155 C 0.61829 1.07399 0.20857 0.0
C156 C 0.64021 1.09025 0.23512 0.0
C157 C 0.68981 0.1473 0.23277 0.0
C158 C 0.69815 0.16359 0.20745 0.0
C159 C 0.65699 1.04821 0.24314 0.0
C160 C 0.59539 0.0925 0.25131 0.0
H161 H 0.87608 0.35489 0.24756 0.0
H162 H 0.86839 0.34202 0.15384 0.0
H163 H 0.72671 0.29122 0.17836 0.0
H164 H 0.69507 0.22718 0.15929 0.0
H165 H 0.75424 0.287 0.14822 0.0
H166 H 0.81421 0.20113 0.1698 0.0
H167 H 0.80606 0.234 0.14316 0.0
H168 H 0.74827 0.17245 0.154 0.0
H169 H 0.80366 0.26916 0.32859 0.0
H170 H 0.66701 0.10257 0.33262 0.0
H171 H 0.65663 0.09195 0.28761 0.0
H172 H 0.85847 0.23884 0.28334 0.0
H173 H 0.8846 0.31161 0.28909 0.0
H174 H 0.87732 0.28037 0.25747 0.0
H175 H 0.75262 0.30598 0.28587 0.0
H176 H 0.80041 0.34136 0.26285 0.0
H177 H 0.82397 0.34512 0.29502 0.0
H178 H 0.94772 0.42658 0.22574 0.0
C179 C 0.87244 0.34987 0.22735 0.0
C180 C 0.70086 0.80658 0.50933 0.0
C181 C 0.70425 0.85486 0.52275 0.0
C182 C 0.70571 0.85558 0.54935 0.0
C183 C 0.70226 0.76645 0.5493 0.0
C184 C 0.70032 0.76274 0.52313 0.0
C185 C 0.69853 0.70814 0.51367 0.0
H186 H 0.69643 0.46856 0.55299 0.0
C187 C 0.70197 0.71701 0.55904 0.0
C188 C 0.69991 0.68115 0.53839 0.0
H189 H 0.69294 0.50095 0.47462 0.0
H190 H 0.6944 0.58822 0.48776 0.0
H191 H 0.78782 0.58691 0.57011 0.0
H192 H 0.61282 0.49945 0.57073 0.0
H193 H 0.63332 0.54005 0.5993 0.0
H194 H 0.65377 0.48921 0.59318 0.0
H195 H 0.74993 0.53711 0.59276 0.0
H196 H 0.77319 0.60982 0.59885 0.0
C197 C 0.74896 0.72198 0.49798 0.0
C198 C 0.6452 0.67053 0.49814 0.0
C199 C 0.70532 0.70496 0.65561 0.0
C200 C 0.70421 0.66475 0.67089 0.0
C201 C 0.70539 0.6192 0.65905 0.0
C202 C 0.70587 0.6125 0.63269 0.0
C203 C 0.70521 0.65174 0.61744 0.0
C204 C 0.70553 0.69732 0.62894 0.0
C205 C 0.70493 0.73451 0.60954 0.0
C206 C 0.70362 0.70342 0.58455 0.0
C207 C 0.70365 0.65497 0.58941 0.0
C208 C 0.75884 0.79127 0.61348 0.0
C209 C 0.65166 0.73684 0.61276 0.0
C210 C 0.69669 0.49375 0.53816 0.0
C211 C 0.69487 0.47577 0.51263 0.0
C212 C 0.69376 0.51169 0.49463 0.0
C213 C 0.69503 0.56286 0.5022 0.0
C214 C 0.6974 0.57965 0.52821 0.0
C215 C 0.69811 0.54396 0.54525 0.0
C216 C 0.70077 0.56456 0.57202 0.0
C217 C 0.70144 0.61835 0.56913 0.0
C218 C 0.69951 0.62958 0.5434 0.0
C219 C 0.75536 0.57487 0.5843 0.0
C220 C 0.64787 0.52123 0.58469 0.0
H221 H 0.70593 0.81813 0.58253 0.0
H222 H 0.69978 0.80362 0.48885 0.0
H223 H 0.60914 0.66189 0.50958 0.0
H224 H 0.64184 0.6304 0.49215 0.0
H225 H 0.64358 0.69067 0.48092 0.0
H226 H 0.78716 0.75026 0.5093 0.0
H227 H 0.74863 0.74267 0.48073 0.0
H228 H 0.74991 0.68398 0.49204 0.0
H229 H 0.70454 0.74055 0.66413 0.0
H230 H 0.70538 0.58809 0.67032 0.0
H231 H 0.70609 0.57628 0.62534 0.0
H232 H 0.7925 0.78656 0.6215 0.0
H233 H 0.75351 0.82018 0.62673 0.0
H234 H 0.77485 0.81117 0.59553 0.0
H235 H 0.61754 0.69664 0.61863 0.0
H236 H 0.6362 0.74367 0.59495 0.0
H237 H 0.65746 0.76937 0.62745 0.0
H238 H 0.70761 0.89014 0.56051 0.0
C239 C 0.70464 0.81284 0.56234 0.0
C240 C 0.33655 0.6157 0.8381 0.0
C241 C 0.38014 0.61415 0.85205 0.0
C242 C 0.37348 0.60938 0.87828 0.0
C243 C 0.29037 0.61579 0.87743 0.0
C244 C 0.29123 0.61583 0.85136 0.0
C245 C 0.23881 0.61568 0.84169 0.0
H246 H 1.01059 0.64162 0.88188 0.0
C247 C 0.24309 0.62092 0.88693 0.0
C248 C 0.21023 0.61987 0.8663 0.0
H249 H 1.02735 0.59799 0.8046 0.0
H250 H 1.11409 0.60132 0.81675 0.0
H251 H 1.03259 0.55706 0.90372 0.0
H252 H 0.13448 0.73061 0.89411 0.0
H253 H 0.15483 0.72083 0.92372 0.0
H254 H 1.08498 0.70414 0.91831 0.0
H255 H 1.02989 0.60885 0.92407 0.0
H256 H 1.07487 0.58293 0.93106 0.0
C257 C 0.20175 0.56095 0.82618 0.0
C258 C 0.2549 0.66558 0.82584 0.0
C259 C 0.23836 0.65212 0.98282 0.0
C260 C 0.20436 0.66295 -0.00142 0.0
C261 C 0.16175 0.66717 0.98719 0.0
C262 C 0.1526 0.65991 0.96083 0.0
C263 C 0.18629 0.64814 0.94526 0.0
C264 C 0.22852 0.64492 0.9564 0.0
C265 C 0.26082 0.63323 0.93708 0.0
C266 C 0.23116 0.62997 0.91232 0.0
C267 C 0.18717 0.63805 0.91728 0.0
C268 C 0.25487 0.57646 0.94236 0.0
C269 C 0.32036 0.68332 0.93902 0.0
C270 C 1.03229 0.63309 0.86714 0.0
C271 C 1.01038 0.62 0.84218 0.0
C272 C 1.0416 0.60812 0.82421 0.0
C273 C 1.09222 0.61007 0.8312 0.0
C274 C 1.11267 0.62285 0.85669 0.0
C275 C 1.08105 0.63325 0.87381 0.0
C276 C 1.10288 0.64209 0.90029 0.0
C277 C 0.15231 0.63514 0.89716 0.0
C278 C 0.16133 0.62502 0.87144 0.0
C279 C 1.05797 0.59587 0.91579 0.0
C280 C 1.1199 0.70225 0.90985 0.0
H281 H 0.33102 0.60816 0.91073 0.0
H282 H 0.33824 0.61785 0.81776 0.0
H283 H 0.28234 0.70485 0.83717 0.0
H284 H 0.21796 0.66656 0.81961 0.0
H285 H 0.27672 0.66346 0.80878 0.0
H286 H 0.19092 0.52514 0.83777 0.0
H287 H 0.22292 0.55716 0.80919 0.0
H288 H 0.16326 0.5584 0.81983 0.0
H289 H 0.27224 0.64971 0.99081 0.0
H290 H 0.13475 0.67524 -0.00122 0.0
H291 H 1.11908 0.66333 0.95373 0.0
H292 H 0.21642 0.54967 0.95219 0.0
H293 H 0.28944 0.58182 0.9545 0.0
H294 H 0.25166 0.55159 0.92474 0.0
H295 H 0.32088 0.72267 0.944 0.0
H296 H 0.3418 0.69067 0.921 0.0
H297 H 0.34502 0.67839 0.95387 0.0
H298 H 0.40318 0.6059 0.88977 0.0
C299 C 0.33043 0.61049 0.89069 0.0
C300 C 0.96782 0.60522 0.45803 0.0
C301 C 0.92086 0.58332 0.442 0.0
C302 C 0.92826 0.59299 0.41598 0.0
C303 C 1.02607 0.62982 0.42198 0.0
C304 C 1.01888 0.62511 0.44767 0.0
C305 C 1.06825 0.63295 0.46191 0.0
H306 H 0.33379 0.71417 0.46428 0.0
C307 C 1.08295 0.64332 0.4173 0.0
C308 C 1.1072 0.64436 0.44065 0.0
H309 H 0.22427 0.6683 0.52682 0.0
H310 H 0.14762 0.63722 0.49764 0.0
H311 H 0.24453 0.6015 0.42429 0.0
H312 H 0.29299 0.77329 0.43746 0.0
H313 H 0.28198 0.75832 0.40466 0.0
H314 H 0.33484 0.75209 0.42052 0.0
H315 H 0.31031 0.65722 0.41633 0.0
H316 H 0.25191 0.62927 0.39463 0.0
C317 C 1.0532 0.57791 0.4741 0.0
C318 C 1.08785 0.68381 0.48099 0.0
C319 C 0.15649 0.67343 0.32843 0.0
C320 C 0.20826 0.68842 0.31894 0.0
C321 C 0.25128 0.69913 0.33597 0.0
C322 C 0.24251 0.69319 0.36189 0.0
C323 C 0.19034 0.67709 0.37101 0.0
C324 C 0.14855 0.66837 0.35446 0.0
C325 C 1.09623 0.65296 0.36779 0.0
C326 C 1.11358 0.65359 0.395 0.0
C327 C 0.16853 0.66696 0.39665 0.0
C328 C 1.0517 0.59423 0.3575 0.0
C329 C 1.08167 0.69839 0.36404 0.0
C330 C 0.29305 0.69459 0.47172 0.0
C331 C 0.28516 0.6941 0.49802 0.0
C332 C 0.23139 0.66939 0.5067 0.0
C333 C 0.18705 0.65219 0.48968 0.0
C334 C 0.19663 0.6594 0.46371 0.0
C335 C 0.24844 0.67744 0.45498 0.0
C336 C 0.25114 0.68342 0.42684 0.0
C337 C 0.19271 0.66787 0.42031 0.0
C338 C 0.16152 0.65489 0.44203 0.0
C339 C 0.26557 0.64107 0.4147 0.0
C340 C 0.29257 0.74473 0.42189 0.0
H341 H 0.98367 0.61972 0.38576 0.0
H342 H 0.96497 0.59898 0.47809 0.0
H343 H 1.08574 0.71775 0.47209 0.0
H344 H 0.13089 0.70214 0.48753 0.0
H345 H 1.06165 0.67275 0.49775 0.0
H346 H 1.01809 0.54146 0.4638 0.0
H347 H 1.04162 0.57867 0.4941 0.0
H348 H 1.08664 0.56838 0.47326 0.0
H349 H 1.12263 0.66508 0.31582 0.0
H350 H 0.29195 0.71253 0.32926 0.0
H351 H 0.27687 0.70171 0.37382 0.0
H352 H 1.06965 0.5674 0.35357 0.0
H353 H 1.03232 0.59588 0.33956 0.0
H354 H 1.01951 0.5723 0.37118 0.0
H355 H 1.11898 0.74026 0.36627 0.0
H356 H 1.05326 0.69879 0.37816 0.0
H357 H 1.06346 0.69349 0.3448 0.0
H358 H 0.89316 0.57826 0.40316 0.0
C359 C 0.98082 0.61639 0.40588 0.0
C360 C 0.54158 0.98118 0.80283 0.0
C361 C 0.58932 0.97833 0.79931 0.0
C362 C 0.61566 0.99214 0.7761 0.0
C363 C 0.54797 1.01219 0.76042 0.0
C364 C 0.5217 0.9984 0.78311 0.0
C365 C 0.47209 1.00498 0.78342 0.0
H366 H 0.36286 0.14522 0.73963 0.0
C367 C 0.51873 1.03033 0.74416 0.0
C368 C 0.47392 1.02605 0.75728 0.0
H369 H 0.31486 1.04569 0.80474 0.0
H370 H 0.36546 1.00228 0.78947 0.0
H371 H 0.47907 0.18233 0.73736 0.0
H372 H 0.34632 1.03421 0.6999 0.0
H373 H 0.40201 1.05912 0.67977 0.0
H374 H 0.3717 0.10107 0.68776 0.0
H375 H 0.4383 0.18329 0.71154 0.0
H376 H 0.49675 0.17596 0.70592 0.0
C377 C 0.48152 1.04869 0.80502 0.0
C378 C 0.42042 0.94756 0.78627 0.0
C379 C 0.59583 0.10083 0.65922 0.0
C380 C 0.58083 0.12394 0.64025 0.0
C381 C 0.5381 0.13502 0.64431 0.0
C382 C 0.50917 0.12108 0.66683 0.0
C383 C 0.52365 0.09629 0.68541 0.0
C384 C 0.56675 1.08721 0.68145 0.0
C385 C 0.57706 1.06104 0.70306 0.0
C386 C 0.53146 1.05353 0.7203 0.0
C387 C 0.50042 1.07433 0.71002 0.0
C388 C 0.63483 0.10285 0.7149 0.0
C389 C 0.56956 1.00451 0.69301 0.0
C390 C 0.36063 0.11252 0.75034 0.0
C391 C 0.33739 0.10177 0.77445 0.0
C392 C 0.33484 1.05721 0.78685 0.0
C393 C 0.36488 1.03263 0.77821 0.0
C394 C 0.39653 1.05209 0.75675 0.0
C395 C 0.38984 1.08717 0.74185 0.0
C396 C 0.42369 0.10004 0.71858 0.0
C397 C 0.45601 1.07169 0.72353 0.0
C398 C 0.44103 1.04504 0.74636 0.0
C399 C 0.46139 0.16371 0.71809 0.0
C400 C 0.38423 1.07268 0.69516 0.0
H401 H 0.61692 1.01807 0.73942 0.0
H402 H 0.52037 0.97032 0.82046 0.0
H403 H 0.42704 0.91326 0.77936 0.0
H404 H 0.38503 0.94167 0.77472 0.0
H405 H 0.40887 0.94131 0.80638 0.0
H406 H 0.52139 1.08739 0.80302 0.0
H407 H 0.48231 1.03304 0.82376 0.0
H408 H 0.44997 1.0605 0.80545 0.0
H409 H 0.62883 0.0923 0.65651 0.0
H410 H 0.52604 0.15275 0.62973 0.0
H411 H 0.47661 0.12988 0.6689 0.0
H412 H 0.64875 0.14612 0.71022 0.0
H413 H 0.66602 0.09287 0.70797 0.0
H414 H 0.6357 0.10469 0.73585 0.0
H415 H 0.53463 0.98319 0.67898 0.0
H416 H 0.55947 0.97518 0.70798 0.0
H417 H 0.60677 1.01005 0.68349 0.0
H418 H 0.65168 0.98885 0.77278 0.0
C419 C 0.59515 1.00875 0.75665 0.0
C420 C 0.74512 0.43496 0.12131 0.0
C421 C 0.79751 0.45779 0.11129 0.0
C422 C 0.80212 0.44295 0.08584 0.0
C423 C 0.70443 0.40016 0.07934 0.0
C424 C 0.69908 0.40551 0.10503 0.0
C425 C 0.64053 0.38271 0.112 0.0
H426 H 0.42666 0.39517 0.09217 0.0
C427 C 0.65149 0.38259 0.06666 0.0
C428 C 0.61263 0.36802 0.08562 0.0
H429 H 0.46245 0.32411 0.15457 0.0
H430 H 0.5214 0.30435 0.12727 0.0
H431 H 0.54617 0.47117 0.07431 0.0
H432 H 0.42438 0.30526 0.04871 0.0
H433 H 0.46849 0.33161 0.02326 0.0
H434 H 0.4299 0.36373 0.03395 0.0
H435 H 0.48117 0.45089 0.05924 0.0
H436 H 0.53902 0.46514 0.04089 0.0
C437 C 0.63538 0.42919 0.1267 0.0
C438 C 0.62314 0.33158 0.1277 0.0
C439 C 0.66114 0.46368 0.98177 0.0
C440 C 0.62384 0.47259 0.96824 0.0
C441 C 0.57059 0.452 0.97724 0.0
C442 C 0.5552 0.42429 -0.00037 0.0
C443 C 0.59376 0.41826 0.01362 0.0
C444 C 0.64544 0.4369 0.00449 0.0
C445 C 0.67995 0.42404 0.02134 0.0
C446 C 0.64063 0.39624 0.04263 0.0
C447 C 0.59041 0.3935 0.03789 0.0
C448 C 0.73251 0.47917 0.03034 0.0
C449 C 0.69219 0.38287 0.00637 0.0
C450 C 0.44695 0.37499 0.09993 0.0
C451 C 0.44188 0.36279 0.12555 0.0
C452 C 0.46742 0.33531 0.13509 0.0
C453 C 0.50278 0.32597 0.11993 0.0
C454 C 0.51519 0.34824 0.0962 0.0
C455 C 0.48413 0.36727 0.08548 0.0
C456 C 0.50117 0.38438 0.05898 0.0
C457 C 0.55043 0.37627 0.05676 0.0
C458 C 0.55981 0.35839 0.07944 0.0
C459 C 0.5177 0.44607 0.0581 0.0
C460 C 0.45363 0.34456 0.04016 0.0
H461 H 0.76044 0.40424 0.05045 0.0
H462 H 0.73979 0.44421 0.14081 0.0
H463 H 0.65866 0.32836 0.13432 0.0
H464 H 0.59549 0.29232 0.11642 0.0
H465 H 0.60253 0.33376 0.14518 0.0
H466 H 0.65096 0.46624 0.1154 0.0
H467 H 0.65886 0.44184 0.14503 0.0
H468 H 0.59284 0.41621 0.13141 0.0
H469 H 0.70158 0.477 0.97476 0.0
H470 H 0.54089 0.45782 0.96704 0.0
H471 H 0.5142 0.40962 0.00554 0.0
H472 H 0.72814 0.49435 0.04954 0.0
H473 H 0.7423 0.51307 0.01769 0.0
H474 H 0.76937 0.47507 0.03037 0.0
H475 H 0.65487 0.35 0.99574 0.0
H476 H 0.70516 0.36106 0.01888 0.0
H477 H 0.72455 0.40453 0.99251 0.0
H478 H 0.84199 0.45741 0.07791 0.0
C479 C 0.75544 0.41372 0.06981 0.0
C480 C 0.44425 0.47331 0.16954 0.0
C481 C 0.39142 0.46467 0.1657 0.0
C482 C 0.45858 0.43603 0.1585 0.0
C483 C 0.42081 0.38991 0.14287 0.0
H484 H 0.4754 0.51064 0.17988 0.0
H485 H 0.5007 0.44583 0.16046 0.0
S486 S 0.27648 0.3472 0.12845 0.0
N487 N 0.30011 0.40463 0.1469 0.0
N488 N 0.3279 0.33555 0.12551 0.0
C489 C 0.36711 0.37915 0.14013 0.0
C490 C 0.35218 0.41639 0.15174 0.0
C491 C 0.85997 0.49431 0.49154 0.0
C492 C 0.8579 0.44787 0.47878 0.0
C493 C 0.86206 0.53671 0.47775 0.0
C494 C 0.86956 0.53627 0.45136 0.0
H495 H 0.86584 0.50093 0.51191 0.0
H496 H 0.87139 0.57504 0.48815 0.0
S497 S 0.82908 0.40948 0.41002 0.0
N498 N 0.83257 0.3918 0.4389 0.0
N499 N 0.84377 0.47454 0.41322 0.0
C500 C 0.85101 0.48406 0.43877 0.0
C501 C 0.84574 0.43964 0.45258 0.0
C502 C 0.69071 0.95888 0.83671 0.0
C503 C 0.65875 0.90345 0.84279 0.0
C504 C 0.66687 0.98518 0.8247 0.0
C505 C 0.61039 0.9569 0.81851 0.0
H506 H 0.73489 0.98044 0.83919 0.0
H507 H 0.69335 1.02648 0.81853 0.0
S508 S 0.50784 0.81484 0.83474 0.0
N509 N 0.56696 0.82413 0.8453 0.0
N510 N 0.52225 0.8733 0.82237 0.0
C511 C 0.57732 0.90363 0.82691 0.0
C512 C 0.60156 0.8769 0.83913 0.0
C513 C 0.91942 0.60126 0.12464 0.0
C514 C 0.92734 0.60599 0.15112 0.0
C515 C 0.87896 0.55245 0.11209 0.0
C516 C 0.84494 0.50537 0.12527 0.0
H517 H 0.94529 0.63539 0.11324 0.0
H518 H 0.87356 0.55241 0.09182 0.0
S519 S 0.85086 0.49398 0.19464 0.0
N520 N 0.89806 0.55868 0.19024 0.0
N521 N 0.82396 0.46522 0.16628 0.0
C522 C 0.85308 0.50867 0.15173 0.0
C523 C 0.89385 0.55918 0.16469 0.0
C524 C 0.37095 0.83012 0.5316 0.0
C525 C 0.42205 0.84313 0.52211 0.0
C526 C 0.32629 0.77624 0.52814 0.0
C527 C 0.33179 0.73441 0.51489 0.0
H528 H 0.36333 0.86277 0.53828 0.0
H529 H 0.28619 0.77006 0.53223 0.0
S530 S 0.46211 0.74339 0.49688 0.0
N531 N 0.47967 0.80727 0.50693 0.0
N532 N 0.39532 0.70543 0.50037 0.0
C533 C 0.38491 0.74456 0.51059 0.0
C534 C 0.43036 0.79945 0.51409 0.0
C535 C 0.39126 0.21857 0.82229 0.0
C536 C 0.39771 0.26018 0.80665 0.0
C537 C 0.36018 0.16276 0.81383 0.0
C538 C 0.33485 0.14724 0.78941 0.0
H539 H 0.41685 0.22935 0.83931 0.0
H540 H 0.36409 0.13346 0.82482 0.0
S541 S 0.31551 0.23904 0.74822 0.0
N542 N 0.36025 0.28153 0.77051 0.0
N543 N 0.2985 0.17586 0.75546 0.0
C544 C 0.32915 0.18746 0.77713 0.0
C545 C 0.36197 0.24456 0.78544 0.0
C546 C 0.74968 1.01006 0.51498 0.0
C547 C 0.70759 1.0097 0.50029 0.0
C548 C 0.74973 0.96071 0.52037 0.0
C549 C 0.70805 0.9067 0.51136 0.0
H550 H 0.78273 1.04912 0.52315 0.0
H551 H 0.7825 0.96493 0.5326 0.0
S552 S 0.58843 0.88028 0.47111 0.0
N553 N 0.62298 0.94845 0.47607 0.0
N554 N 0.62339 0.85725 0.48614 0.0
C555 C 0.66643 0.90554 0.49598 0.0
C556 C 0.66614 0.95608 0.49054 0.0
C557 C 0.89674 0.66187 0.84337 0.0
C558 C 0.84959 0.61736 0.83054 0.0
C559 C 0.94741 0.66258 0.84637 0.0
C560 C 0.95591 0.61951 0.83627 0.0
H561 H 0.89439 0.69665 0.8518 0.0
H562 H 0.98067 0.69782 0.85695 0.0
S563 S 0.8474 0.49288 0.80033 0.0
N564 N 0.81652 0.52833 0.80737 0.0
N565 N 0.91054 0.53046 0.81238 0.0
C566 C 0.90956 0.57517 0.82291 0.0
C567 C 0.85734 0.57388 0.82027 0.0
C568 C 0.39295 0.90297 0.16076 0.0
C569 C 0.38785 0.85072 0.16454 0.0
C570 C 0.44436 0.95416 0.16311 0.0
C571 C 0.49419 0.95679 0.16976 0.0
H572 H 0.35661 0.90458 0.15604 0.0
H573 H 0.44467 0.99234 0.16051 0.0
S574 S 0.50563 0.83354 0.18193 0.0
N575 N 0.43976 0.80675 0.17506 0.0
N576 N 0.53394 0.9011 0.18002 0.0
C577 C 0.4897 0.905 0.17346 0.0
C578 C 0.43773 0.85295 0.17069 0.0
C579 C 0.72282 0.35308 0.51881 0.0
C580 C 0.69211 0.31312 0.49899 0.0
C581 C 0.72461 0.40481 0.52226 0.0
C582 C 0.69509 0.42072 0.50633 0.0
H583 H 0.7453 0.34375 0.53229 0.0
H584 H 0.74989 0.43278 0.53789 0.0
S585 S 0.60663 0.33092 0.45128 0.0
N586 N 0.6308 0.29366 0.4629 0.0
N587 N 0.63298 0.38907 0.46945 0.0
C588 C 0.66395 0.38086 0.48627 0.0
C589 C 0.66235 0.32787 0.48275 0.0
C590 C 0.48769 0.57966 0.82081 0.0
C591 C 0.53866 0.61824 0.83345 0.0
C592 C 0.43753 0.58026 0.82506 0.0
C593 C 0.43474 0.61978 0.84213 0.0
H594 H 0.48602 0.54757 0.80784 0.0
H595 H 0.40013 0.54785 0.81563 0.0
S596 S 0.55492 0.73005 0.88051 0.0
N597 N 0.58072 0.6974 0.86411 0.0
N598 N 0.48972 0.69897 0.8715 0.0
C599 C 0.48571 0.65912 0.85431 0.0
C600 C 0.53618 0.6583 0.85017 0.0
C601 C 1.0208 0.53193 0.15903 0.0
C602 C 1.07312 0.54176 0.16716 0.0
C603 C 0.97047 0.48195 0.16372 0.0
C604 C 0.96895 0.43831 0.17677 0.0
H605 H 1.0184 0.56358 0.14927 0.0
H606 H 0.93228 0.47833 0.15779 0.0
S607 S 1.09304 0.43937 0.20075 0.0
N608 N 1.11819 0.49956 0.18801 0.0
N609 N 1.02598 0.40848 0.19652 0.0
C610 C 1.02095 0.44688 0.18408 0.0
C611 C 1.07184 0.49726 0.17938 0.0
C612 C 0.2169 0.7195 0.06717 0.0
C613 C 0.22245 0.68126 0.08122 0.0
C614 C 0.21182 0.71366 0.04058 0.0
C615 C 0.21244 0.66956 0.02678 0.0
H616 H 0.21584 0.75408 0.07674 0.0
H617 H 0.20738 0.74409 0.03072 0.0
S618 S 0.22598 0.55787 0.05412 0.0
N619 N 0.22868 0.59759 0.07895 0.0
N620 N 0.21867 0.58668 0.02919 0.0
C621 C 0.21856 0.63135 0.04049 0.0
C622 C 0.22359 0.63712 0.06759 0.0
C623 C 0.68214 0.17529 0.40076 0.0
C624 C 0.72693 0.18604 0.41665 0.0
C625 C 0.68646 0.17825 0.37448 0.0
C626 C 0.73581 0.19238 0.3626 0.0
H627 H 0.64253 0.16309 0.40851 0.0
H628 H 0.65021 0.16811 0.36322 0.0
S629 S 0.867 0.22921 0.39515 0.0
N630 N 0.82381 0.21515 0.41836 0.0
N631 N 0.83158 0.22046 0.36874 0.0
C632 C 0.78178 0.20576 0.37812 0.0
C633 C 0.7774 0.20254 0.40513 0.0
C634 C 0.74156 0.70705 0.74141 0.0
C635 C 0.70108 0.66 0.7529 0.0
C636 C 0.74085 0.71055 0.71483 0.0
C637 C 0.69954 0.66719 0.69903 0.0
H638 H 0.7755 0.73974 0.75279 0.0
H639 H 0.77434 0.74583 0.7065 0.0
S640 S 0.58005 0.53945 0.7204 0.0
N641 N 0.61576 0.57238 0.74672 0.0
N642 N 0.61411 0.57908 0.69733 0.0
C643 C 0.65708 0.62201 0.71065 0.0
C644 C 0.65797 0.61838 0.73741 0.0
C645 C 0.66286 0.19099 0.58277 0.0
C646 C 0.65756 0.14505 0.56807 0.0
C647 C 0.63738 0.18414 0.60614 0.0
C648 C 0.60674 0.13134 0.61553 0.0
H649 H 0.68521 0.23209 0.57583 0.0
H650 H 0.64169 0.22019 0.61692 0.0
S651 S 0.58192 0.99831 0.58478 0.0
N652 N 0.62033 1.04526 0.56497 0.0
N653 N 0.57302 1.03282 0.60877 0.0
C654 C 0.6021 1.08544 0.60126 0.0
C655 C 0.62745 0.0922 0.57755 0.0
C656 C 0.61575 0.50434 0.90026 0.0
C657 C 0.66439 0.55534 0.89774 0.0
C658 C 0.60345 0.47809 0.92299 0.0
C659 C 0.63916 0.50148 0.94431 0.0
H660 H 0.58658 0.48399 0.88449 0.0
H661 H 0.56571 0.43874 0.92379 0.0
S662 S 0.77123 0.63478 0.94829 0.0
N663 N 0.74841 0.62854 0.91885 0.0
N664 N 0.72479 0.57916 0.96184 0.0
C665 C 0.68796 0.55242 0.94224 0.0
C666 C 0.70062 0.57938 0.91895 0.0
C667 C 0.20372 0.7243 0.25124 0.0
C668 C 0.2311 0.70098 0.23809 0.0
C669 C 0.19723 0.72071 0.2774 0.0
C670 C 0.21734 0.69313 0.29136 0.0
H671 H 0.18703 0.74546 0.24123 0.0
H672 H 0.17624 0.73969 0.28675 0.0
S673 S 0.28912 0.62199 0.26557 0.0
N674 N 0.27737 0.64822 0.2408 0.0
N675 N 0.26385 0.6401 0.2899 0.0
C676 C 0.24471 0.66947 0.27842 0.0
C677 C 0.25191 0.67373 0.25181 0.0
loop_
_geom_bond_atom_site_label_1
_geom_bond_atom_site_label_2
_geom_bond_distance
_geom_bond_site_symmetry_2
_ccdc_geom_bond_type
Tb0 C9 2.764 1_455 S
Tb0 O10 2.325 1_455 S
Tb0 O13 2.303 . S
Tb0 O17 2.322 . S
Tb0 O18 2.349 . S
Tb0 O21 2.415 1_455 S
Tb0 O22 2.399 1_455 S
Tb1 O11 2.322 1_455 S
Tb1 O12 2.349 . S
Tb1 O14 2.415 . S
Tb1 O15 2.399 . S
Tb1 O16 2.325 . S
Tb1 O19 2.303 . S
Tb1 C30 2.764 . S
C2 O18 1.261 . S
C2 O19 1.257 . S
C3 C6 1.358 . S
C3 C7 1.332 . S
C3 C9 1.504 . S
C4 C5 1.373 . S
C4 C8 1.308 . S
C5 C4 1.373 . S
C5 C6 1.429 . S
C5 H32 0.932 . S
C6 C3 1.358 . S
C6 C5 1.429 . S
C6 H33 0.930 . S
C7 C3 1.332 . S
C7 C8 1.394 . S
C7 H34 0.932 . S
C8 C4 1.308 . S
C8 C7 1.394 . S
C8 H35 0.929 . S
C9 Tb0 2.764 1_655 S
C9 C3 1.504 . S
C9 O21 1.239 . S
C9 O22 1.263 . S
O10 Tb0 2.325 1_655 S
O10 C20 1.236 . S
O11 Tb1 2.322 1_655 S
O11 C20 1.257 . S
O12 Tb1 2.349 . S
O12 C23 1.261 . S
O13 Tb0 2.303 . S
O13 C23 1.257 . S
O14 Tb1 2.415 . S
O14 C30 1.239 . S
O15 Tb1 2.399 . S
O15 C30 1.263 . S
O16 Tb1 2.325 . S
O16 C31 1.236 . S
O17 Tb0 2.322 . S
O17 C31 1.257 . S
O18 Tb0 2.349 . S
O18 C2 1.261 . S
O19 Tb1 2.303 . S
O19 C2 1.257 . S
C20 O10 1.236 . S
C20 O11 1.257 . S
O21 Tb0 2.415 1_655 S
O21 C9 1.239 . S
O22 Tb0 2.399 1_655 S
O22 C9 1.263 . S
C23 O12 1.261 . S
C23 O13 1.257 . S
C24 C27 1.358 . S
C24 C28 1.332 . S
C24 C30 1.504 . S
C25 C26 1.373 . S
C25 C29 1.308 . S
C26 C25 1.373 . S
C26 C27 1.429 . S
C26 H36 0.932 . S
C27 C24 1.358 . S
C27 C26 1.429 . S
C27 H37 0.930 . S
C28 C24 1.332 . S
C28 C29 1.394 . S
C28 H38 0.932 . S
C29 C25 1.308 . S
C29 C28 1.394 . S
C29 H39 0.929 . S
C30 Tb1 2.764 . S
C30 O14 1.239 . S
C30 O15 1.263 . S
C30 C24 1.504 . S
C31 O16 1.236 . S
C31 O17 1.257 . S
H32 C5 0.932 . S
H33 C6 0.930 . S
H34 C7 0.932 . S
H35 C8 0.929 . S
H36 C26 0.932 . S
H37 C27 0.930 . S
H38 C28 0.932 . S
H39 C29 0.929 . S
Tb40 C49 2.764 . S
Tb40 O50 2.325 . S
Tb40 O53 2.303 1_565 S
Tb40 O57 2.322 1_565 S
Tb40 O58 2.349 1_565 S
Tb40 O61 2.415 . S
Tb40 O62 2.399 . S
Tb41 O51 2.322 1_545 S
Tb41 O52 2.349 . S
Tb41 O54 2.415 . S
Tb41 O55 2.399 . S
Tb41 O56 2.325 . S
Tb41 O59 2.303 . S
Tb41 C70 2.764 . S
C42 O58 1.261 . S
C42 O59 1.257 . S
C43 C46 1.358 . S
C43 C47 1.332 . S
C43 C49 1.504 . S
C44 C45 1.373 . S
C44 C48 1.308 . S
C45 C44 1.373 . S
C45 C46 1.429 . S
C45 H72 0.932 . S
C46 C43 1.358 . S
C46 C45 1.429 . S
C46 H73 0.930 . S
C47 C43 1.332 . S
C47 C48 1.394 . S
C47 H74 0.932 . S
C48 C44 1.308 . S
C48 C47 1.394 . S
C48 H75 0.929 . S
C49 Tb40 2.764 . S
C49 C43 1.504 . S
C49 O61 1.239 . S
C49 O62 1.263 . S
O50 Tb40 2.325 . S
O50 C60 1.236 . S
O51 Tb41 2.322 1_565 S
O51 C60 1.257 . S
O52 Tb41 2.349 . S
O52 C63 1.261 . S
O53 Tb40 2.303 1_545 S
O53 C63 1.257 . S
O54 Tb41 2.415 . S
O54 C70 1.239 . S
O55 Tb41 2.399 . S
O55 C70 1.263 . S
O56 Tb41 2.325 . S
O56 C71 1.236 . S
O57 Tb40 2.322 1_545 S
O57 C71 1.257 . S
O58 Tb40 2.349 1_545 S
O58 C42 1.261 . S
O59 Tb41 2.303 . S
O59 C42 1.257 . S
C60 O50 1.236 . S
C60 O51 1.257 . S
O61 Tb40 2.415 . S
O61 C49 1.239 . S
O62 Tb40 2.399 . S
O62 C49 1.263 . S
C63 O52 1.261 . S
C63 O53 1.257 . S
C64 C67 1.358 . S
C64 C68 1.332 . S
C64 C70 1.504 . S
C65 C66 1.373 . S
C65 C69 1.308 . S
C66 C65 1.373 . S
C66 C67 1.429 . S
C66 H76 0.932 . S
C67 C64 1.358 . S
C67 C66 1.429 . S
C67 H77 0.930 . S
C68 C64 1.332 . S
C68 C69 1.394 . S
C68 H78 0.932 . S
C69 C65 1.308 . S
C69 C68 1.394 . S
C69 H79 0.929 . S
C70 Tb41 2.764 . S
C70 O54 1.239 . S
C70 O55 1.263 . S
C70 C64 1.504 . S
C71 O56 1.236 . S
C71 O57 1.257 . S
H72 C45 0.932 . S
H73 C46 0.930 . S
H74 C47 0.932 . S
H75 C48 0.929 . S
H76 C66 0.932 . S
H77 C67 0.930 . S
H78 C68 0.932 . S
H79 C69 0.929 . S
Tb80 C89 2.764 . S
Tb80 O90 2.325 . S
Tb80 O93 2.303 . S
Tb80 O97 2.322 . S
Tb80 O98 2.349 . S
Tb80 O101 2.415 . S
Tb80 O102 2.399 . S
Tb81 O91 2.322 . S
Tb81 O92 2.349 . S
Tb81 O94 2.415 . S
Tb81 O95 2.399 . S
Tb81 O96 2.325 . S
Tb81 O99 2.303 . S
Tb81 C110 2.764 . S
C82 O98 1.261 . S
C82 O99 1.257 . S
C83 C86 1.358 . S
C83 C87 1.332 . S
C83 C89 1.504 . S
C84 C85 1.373 . S
C84 C88 1.308 . S
C85 C84 1.373 . S
C85 C86 1.429 . S
C85 H112 0.932 . S
C86 C83 1.358 . S
C86 C85 1.429 . S
C86 H113 0.930 . S
C87 C83 1.332 . S
C87 C88 1.394 . S
C87 H114 0.932 . S
C88 C84 1.308 . S
C88 C87 1.394 . S
C88 H115 0.929 . S
C89 Tb80 2.764 . S
C89 C83 1.504 . S
C89 O101 1.239 . S
C89 O102 1.263 . S
O90 Tb80 2.325 . S
O90 C100 1.236 . S
O91 Tb81 2.322 . S
O91 C100 1.257 . S
O92 Tb81 2.349 . S
O92 C103 1.261 . S
O93 Tb80 2.303 . S
O93 C103 1.257 . S
O94 Tb81 2.415 . S
O94 C110 1.239 . S
O95 Tb81 2.399 . S
O95 C110 1.263 . S
O96 Tb81 2.325 . S
O96 C111 1.236 . S
O97 Tb80 2.322 . S
O97 C111 1.257 . S
O98 Tb80 2.349 . S
O98 C82 1.261 . S
O99 Tb81 2.303 . S
O99 C82 1.257 . S
C100 O90 1.236 . S
C100 O91 1.257 . S
O101 Tb80 2.415 . S
O101 C89 1.239 . S
O102 Tb80 2.399 . S
O102 C89 1.263 . S
C103 O92 1.261 . S
C103 O93 1.257 . S
C104 C107 1.358 . S
C104 C108 1.332 . S
C104 C110 1.504 . S
C105 C106 1.373 . S
C105 C109 1.308 . S
C106 C105 1.373 . S
C106 C107 1.429 . S
C106 H116 0.932 . S
C107 C104 1.358 . S
C107 C106 1.429 . S
C107 H117 0.930 . S
C108 C104 1.332 . S
C108 C109 1.394 . S
C108 H118 0.932 . S
C109 C105 1.308 . S
C109 C108 1.394 . S
C109 H119 0.929 . S
C110 Tb81 2.764 . S
C110 O94 1.239 . S
C110 O95 1.263 . S
C110 C104 1.504 . S
C111 O96 1.236 . S
C111 O97 1.257 . S
H112 C85 0.932 . S
H113 C86 0.930 . S
H114 C87 0.932 . S
H115 C88 0.929 . S
H116 C106 0.932 . S
H117 C107 0.930 . S
H118 C108 0.932 . S
H119 C109 0.929 . S
C120 C121 1.391 . S
C120 C124 1.391 . S
C120 H162 0.948 . S
C121 C120 1.391 . S
C121 C122 1.391 . S
C122 C121 1.391 . S
C122 H178 0.947 . S
C122 C179 1.392 . S
C123 C124 1.391 . S
C123 C127 1.397 . S
C123 C179 1.419 . S
C124 C120 1.391 . S
C124 C123 1.391 . S
C124 C125 1.399 . S
C125 C124 1.399 . S
C125 C128 1.396 . S
C125 C137 1.453 . S
C125 C138 1.684 . S
H126 C150 0.948 . S
C127 C123 1.397 . S
C127 C128 1.394 . S
C127 C146 1.723 . S
C128 C125 1.396 . S
C128 C127 1.394 . S
C128 C158 1.723 1_545 S
H129 C152 0.947 . S
H130 C153 0.948 . S
H131 C159 0.982 . S
H132 C160 0.979 . S
H133 C160 0.980 . S
H134 C160 0.983 . S
H135 C159 0.979 . S
H136 C159 0.977 . S
C137 C125 1.453 . S
C137 H166 0.982 . S
C137 H167 0.979 . S
C137 H168 0.977 . S
C138 C125 1.684 . S
C138 H163 0.979 . S
C138 H164 0.980 . S
C138 H165 0.983 . S
C139 C140 1.391 . S
C139 C144 1.391 . S
C139 H169 0.948 . S
C140 C139 1.391 . S
C140 C141 1.391 . S
C141 C140 1.391 . S
C141 C142 1.392 1_545 S
C141 H170 0.947 1_545 S
C142 C141 1.392 1_565 S
C142 C143 1.419 1_565 S
C142 H171 0.948 . S
C143 C142 1.419 1_545 S
C143 C144 1.391 . S
C143 C147 1.397 . S
C144 C139 1.391 . S
C144 C143 1.391 . S
C144 C145 1.399 . S
C145 C144 1.399 . S
C145 C146 1.396 . S
C145 C148 1.453 . S
C145 C149 1.684 . S
C146 C127 1.723 . S
C146 C145 1.396 . S
C146 C147 1.394 . S
C147 C143 1.397 . S
C147 C146 1.394 . S
C147 C157 1.723 1_545 S
C148 C145 1.453 . S
C148 H172 0.982 . S
C148 H173 0.979 . S
C148 H174 0.977 . S
C149 C145 1.684 . S
C149 H175 0.979 . S
C149 H176 0.980 . S
C149 H177 0.983 . S
C150 H126 0.948 . S
C150 C151 1.391 . S
C150 C155 1.391 . S
C151 C150 1.391 . S
C151 C152 1.391 . S
C152 H129 0.947 . S
C152 C151 1.391 . S
C152 C153 1.392 . S
C153 H130 0.948 . S
C153 C152 1.392 . S
C153 C154 1.419 . S
C154 C153 1.419 . S
C154 C155 1.391 . S
C154 C158 1.397 . S
C155 C150 1.391 . S
C155 C154 1.391 . S
C155 C156 1.399 . S
C156 C155 1.399 . S
C156 C157 1.396 . S
C156 C159 1.453 . S
C156 C160 1.684 . S
C157 C147 1.723 1_565 S
C157 C156 1.396 . S
C157 C158 1.394 . S
C158 C128 1.723 1_565 S
C158 C154 1.397 . S
C158 C157 1.394 . S
C159 H131 0.982 . S
C159 H135 0.979 . S
C159 H136 0.977 . S
C159 C156 1.453 . S
C160 H132 0.979 . S
C160 H133 0.980 . S
C160 H134 0.983 . S
C160 C156 1.684 . S
H161 C179 0.948 . S
H162 C120 0.948 . S
H163 C138 0.979 . S
H164 C138 0.980 . S
H165 C138 0.983 . S
H166 C137 0.982 . S
H167 C137 0.979 . S
H168 C137 0.977 . S
H169 C139 0.948 . S
H170 C141 0.947 1_565 S
H171 C142 0.948 . S
H172 C148 0.982 . S
H173 C148 0.979 . S
H174 C148 0.977 . S
H175 C149 0.979 . S
H176 C149 0.980 . S
H177 C149 0.983 . S
H178 C122 0.947 . S
C179 C122 1.392 . S
C179 C123 1.419 . S
C179 H161 0.948 . S
C180 C181 1.391 . S
C180 C184 1.391 . S
C180 H222 0.948 . S
C181 C180 1.391 . S
C181 C182 1.391 . S
C182 C181 1.391 . S
C182 H238 0.947 . S
C182 C239 1.392 . S
C183 C184 1.391 . S
C183 C187 1.397 . S
C183 C239 1.419 . S
C184 C180 1.391 . S
C184 C183 1.391 . S
C184 C185 1.399 . S
C185 C184 1.399 . S
C185 C188 1.396 . S
C185 C197 1.453 . S
C185 C198 1.684 . S
H186 C210 0.948 . S
C187 C183 1.397 . S
C187 C188 1.394 . S
C187 C206 1.723 . S
C188 C185 1.396 . S
C188 C187 1.394 . S
C188 C218 1.723 . S
H189 C212 0.947 . S
H190 C213 0.948 . S
H191 C219 0.982 . S
H192 C220 0.979 . S
H193 C220 0.980 . S
H194 C220 0.983 . S
H195 C219 0.979 . S
H196 C219 0.977 . S
C197 C185 1.453 . S
C197 H226 0.982 . S
C197 H227 0.979 . S
C197 H228 0.977 . S
C198 C185 1.684 . S
C198 H223 0.979 . S
C198 H224 0.980 . S
C198 H225 0.983 . S
C199 C200 1.391 . S
C199 C204 1.391 . S
C199 H229 0.948 . S
C200 C199 1.391 . S
C200 C201 1.391 . S
C201 C200 1.391 . S
C201 C202 1.392 . S
C201 H230 0.947 . S
C202 C201 1.392 . S
C202 C203 1.419 . S
C202 H231 0.948 . S
C203 C202 1.419 . S
C203 C204 1.391 . S
C203 C207 1.397 . S
C204 C199 1.391 . S
C204 C203 1.391 . S
C204 C205 1.399 . S
C205 C204 1.399 . S
C205 C206 1.396 . S
C205 C208 1.453 . S
C205 C209 1.684 . S
C206 C187 1.723 . S
C206 C205 1.396 . S
C206 C207 1.394 . S
C207 C203 1.397 . S
C207 C206 1.394 . S
C207 C217 1.723 . S
C208 C205 1.453 . S
C208 H232 0.982 . S
C208 H233 0.979 . S
C208 H234 0.977 . S
C209 C205 1.684 . S
C209 H235 0.979 . S
C209 H236 0.980 . S
C209 H237 0.983 . S
C210 H186 0.948 . S
C210 C211 1.391 . S
C210 C215 1.391 . S
C211 C210 1.391 . S
C211 C212 1.391 . S
C212 H189 0.947 . S
C212 C211 1.391 . S
C212 C213 1.392 . S
C213 H190 0.948 . S
C213 C212 1.392 . S
C213 C214 1.419 . S
C214 C213 1.419 . S
C214 C215 1.391 . S
C214 C218 1.397 . S
C215 C210 1.391 . S
C215 C214 1.391 . S
C215 C216 1.399 . S
C216 C215 1.399 . S
C216 C217 1.396 . S
C216 C219 1.453 . S
C216 C220 1.684 . S
C217 C207 1.723 . S
C217 C216 1.396 . S
C217 C218 1.394 . S
C218 C188 1.723 . S
C218 C214 1.397 . S
C218 C217 1.394 . S
C219 H191 0.982 . S
C219 H195 0.979 . S
C219 H196 0.977 . S
C219 C216 1.453 . S
C220 H192 0.979 . S
C220 H193 0.980 . S
C220 H194 0.983 . S
C220 C216 1.684 . S
H221 C239 0.948 . S
H222 C180 0.948 . S
H223 C198 0.979 . S
H224 C198 0.980 . S
H225 C198 0.983 . S
H226 C197 0.982 . S
H227 C197 0.979 . S
H228 C197 0.977 . S
H229 C199 0.948 . S
H230 C201 0.947 . S
H231 C202 0.948 . S
H232 C208 0.982 . S
H233 C208 0.979 . S
H234 C208 0.977 . S
H235 C209 0.979 . S
H236 C209 0.980 . S
H237 C209 0.983 . S
H238 C182 0.947 . S
C239 C182 1.392 . S
C239 C183 1.419 . S
C239 H221 0.948 . S
C240 C241 1.391 . S
C240 C244 1.391 . S
C240 H282 0.948 . S
C241 C240 1.391 . S
C241 C242 1.391 . S
C242 C241 1.391 . S
C242 H298 0.947 . S
C242 C299 1.392 . S
C243 C244 1.391 . S
C243 C247 1.397 . S
C243 C299 1.419 . S
C244 C240 1.391 . S
C244 C243 1.391 . S
C244 C245 1.399 . S
C245 C244 1.399 . S
C245 C248 1.396 . S
C245 C257 1.453 . S
C245 C258 1.684 . S
H246 C270 0.948 . S
C247 C243 1.397 . S
C247 C248 1.394 . S
C247 C266 1.723 . S
C248 C245 1.396 . S
C248 C247 1.394 . S
C248 C278 1.723 . S
H249 C272 0.947 . S
H250 C273 0.948 1_455 S
H251 C279 0.982 . S
H252 C280 0.979 . S
H253 C280 0.980 . S
H254 C280 0.983 . S
H255 C279 0.979 . S
H256 C279 0.977 . S
C257 C245 1.453 . S
C257 H286 0.982 . S
C257 H287 0.979 . S
C257 H288 0.977 . S
C258 C245 1.684 . S
C258 H283 0.979 . S
C258 H284 0.980 . S
C258 H285 0.983 . S
C259 C260 1.391 1_556 S
C259 C264 1.391 . S
C259 H289 0.948 . S
C260 C259 1.391 1_554 S
C260 C261 1.391 1_554 S
C261 C260 1.391 1_556 S
C261 C262 1.392 . S
C261 H290 0.946 1_456 S
C262 C261 1.392 . S
C262 C263 1.419 . S
C262 H291 0.948 1_455 S
C263 C262 1.419 . S
C263 C264 1.391 . S
C263 C267 1.397 . S
C264 C259 1.391 . S
C264 C263 1.391 . S
C264 C265 1.399 . S
C265 C264 1.399 . S
C265 C266 1.396 . S
C265 C268 1.453 . S
C265 C269 1.684 . S
C266 C247 1.723 . S
C266 C265 1.396 . S
C266 C267 1.394 . S
C267 C263 1.397 . S
C267 C266 1.394 . S
C267 C277 1.723 . S
C268 C265 1.453 . S
C268 H292 0.982 . S
C268 H293 0.979 . S
C268 H294 0.977 . S
C269 C265 1.684 . S
C269 H295 0.979 . S
C269 H296 0.980 . S
C269 H297 0.983 . S
C270 H246 0.948 . S
C270 C271 1.391 . S
C270 C275 1.391 . S
C271 C270 1.391 . S
C271 C272 1.391 . S
C272 H249 0.947 . S
C272 C271 1.391 . S
C272 C273 1.392 . S
C273 H250 0.948 1_655 S
C273 C272 1.392 . S
C273 C274 1.419 . S
C274 C273 1.419 . S
C274 C275 1.391 . S
C274 C278 1.397 1_655 S
C275 C270 1.391 . S
C275 C274 1.391 . S
C275 C276 1.399 . S
C276 C275 1.399 . S
C276 C277 1.396 1_655 S
C276 C279 1.453 . S
C276 C280 1.684 . S
C277 C267 1.723 . S
C277 C276 1.396 1_455 S
C277 C278 1.394 . S
C278 C248 1.723 . S
C278 C274 1.397 1_455 S
C278 C277 1.394 . S
C279 H251 0.982 . S
C279 H255 0.979 . S
C279 H256 0.977 . S
C279 C276 1.453 . S
C280 H252 0.979 . S
C280 H253 0.980 . S
C280 H254 0.983 . S
C280 C276 1.684 . S
H281 C299 0.948 . S
H282 C240 0.948 . S
H283 C258 0.979 . S
H284 C258 0.980 . S
H285 C258 0.983 . S
H286 C257 0.982 . S
H287 C257 0.979 . S
H288 C257 0.977 . S
H289 C259 0.948 . S
H290 C261 0.946 1_654 S
H291 C262 0.948 1_655 S
H292 C268 0.982 . S
H293 C268 0.979 . S
H294 C268 0.977 . S
H295 C269 0.979 . S
H296 C269 0.980 . S
H297 C269 0.983 . S
H298 C242 0.947 . S
C299 C242 1.392 . S
C299 C243 1.419 . S
C299 H281 0.948 . S
C300 C301 1.391 . S
C300 C304 1.391 . S
C300 H342 0.948 . S
C301 C300 1.391 . S
C301 C302 1.391 . S
C302 C301 1.391 . S
C302 H358 0.947 . S
C302 C359 1.392 . S
C303 C304 1.391 . S
C303 C307 1.397 . S
C303 C359 1.419 . S
C304 C300 1.391 . S
C304 C303 1.391 . S
C304 C305 1.399 . S
C305 C304 1.399 . S
C305 C308 1.396 . S
C305 C317 1.453 . S
C305 C318 1.684 . S
H306 C330 0.948 . S
C307 C303 1.397 . S
C307 C308 1.394 . S
C307 C326 1.723 . S
C308 C305 1.396 . S
C308 C307 1.394 . S
C308 C338 1.723 1_655 S
H309 C332 0.947 . S
H310 C333 0.948 . S
H311 C339 0.982 . S
H312 C340 0.979 . S
H313 C340 0.980 . S
H314 C340 0.983 . S
H315 C339 0.979 . S
H316 C339 0.977 . S
C317 C305 1.453 . S
C317 H346 0.982 1_655 S
C317 H347 0.979 . S
C317 H348 0.977 1_655 S
C318 C305 1.684 . S
C318 H343 0.979 . S
C318 H344 0.980 . S
C318 H345 0.983 . S
C319 C320 1.391 1_655 S
C319 C324 1.391 . S
C319 H349 0.948 . S
C320 C319 1.391 1_455 S
C320 C321 1.391 . S
C321 C320 1.391 . S
C321 C322 1.392 . S
C321 H350 0.947 . S
C322 C321 1.392 . S
C322 C323 1.419 . S
C322 H351 0.948 . S
C323 C322 1.419 . S
C323 C324 1.391 1_455 S
C323 C327 1.397 . S
C324 C319 1.391 . S
C324 C323 1.391 1_655 S
C324 C325 1.399 . S
C325 C324 1.399 . S
C325 C326 1.396 . S
C325 C328 1.453 . S
C325 C329 1.684 . S
C326 C307 1.723 . S
C326 C325 1.396 . S
C326 C327 1.394 1_655 S
C327 C323 1.397 . S
C327 C326 1.394 1_455 S
C327 C337 1.723 . S
C328 C325 1.453 . S
C328 H352 0.982 . S
C328 H353 0.979 . S
C328 H354 0.977 . S
C329 C325 1.684 . S
C329 H355 0.979 . S
C329 H356 0.980 . S
C329 H357 0.983 . S
C330 H306 0.948 . S
C330 C331 1.391 . S
C330 C335 1.391 . S
C331 C330 1.391 . S
C331 C332 1.391 . S
C332 H309 0.947 . S
C332 C331 1.391 . S
C332 C333 1.392 . S
C333 H310 0.948 . S
C333 C332 1.392 . S
C333 C334 1.419 . S
C334 C333 1.419 . S
C334 C335 1.391 . S
C334 C338 1.397 . S
C335 C330 1.391 . S
C335 C334 1.391 . S
C335 C336 1.399 . S
C336 C335 1.399 . S
C336 C337 1.396 . S
C336 C339 1.453 . S
C336 C340 1.684 . S
C337 C327 1.723 . S
C337 C336 1.396 . S
C337 C338 1.394 . S
C338 C308 1.723 1_455 S
C338 C334 1.397 . S
C338 C337 1.394 . S
C339 H311 0.982 . S
C339 H315 0.979 . S
C339 H316 0.977 . S
C339 C336 1.453 . S
C340 H312 0.979 . S
C340 H313 0.980 . S
C340 H314 0.983 . S
C340 C336 1.684 . S
H341 C359 0.948 . S
H342 C300 0.948 . S
H343 C318 0.979 . S
H344 C318 0.980 . S
H345 C318 0.983 . S
H346 C317 0.982 1_455 S
H347 C317 0.979 . S
H348 C317 0.977 1_455 S
H349 C319 0.948 . S
H350 C321 0.947 . S
H351 C322 0.948 . S
H352 C328 0.982 . S
H353 C328 0.979 . S
H354 C328 0.977 . S
H355 C329 0.979 . S
H356 C329 0.980 . S
H357 C329 0.983 . S
H358 C302 0.947 . S
C359 C302 1.392 . S
C359 C303 1.419 . S
C359 H341 0.948 . S
C360 C361 1.391 . S
C360 C364 1.391 . S
C360 H402 0.948 . S
C361 C360 1.391 . S
C361 C362 1.391 . S
C362 C361 1.391 . S
C362 H418 0.947 . S
C362 C419 1.392 . S
C363 C364 1.391 . S
C363 C367 1.397 . S
C363 C419 1.419 . S
C364 C360 1.391 . S
C364 C363 1.391 . S
C364 C365 1.399 . S
C365 C364 1.399 . S
C365 C368 1.396 . S
C365 C377 1.446 1_565 S
C365 C378 1.684 . S
H366 C390 0.948 . S
C367 C363 1.397 . S
C367 C368 1.394 . S
C367 C386 1.723 . S
C368 C365 1.396 . S
C368 C367 1.394 . S
C368 C398 1.723 1_565 S
H369 C392 0.947 . S
H370 C393 0.948 . S
H371 C399 0.982 . S
H372 C400 0.979 . S
H373 C400 0.980 . S
H374 C400 0.983 . S
H375 C399 0.979 . S
H376 C399 0.977 . S
C377 C365 1.446 1_545 S
C377 H406 0.978 . S
C377 H407 0.967 1_545 S
C377 H408 1.000 . S
C378 C365 1.684 . S
C378 H403 0.979 . S
C378 H404 0.980 . S
C378 H405 0.983 . S
C379 C380 1.391 . S
C379 C384 1.391 . S
C379 H409 0.948 . S
C380 C379 1.391 . S
C380 C381 1.391 1_565 S
C381 C380 1.391 1_545 S
C381 C382 1.392 . S
C381 H410 0.947 . S
C382 C381 1.392 . S
C382 C383 1.419 . S
C382 H411 0.948 . S
C383 C382 1.419 . S
C383 C384 1.391 1_545 S
C383 C387 1.397 . S
C384 C379 1.391 . S
C384 C383 1.391 1_565 S
C384 C385 1.399 . S
C385 C384 1.399 . S
C385 C386 1.396 . S
C385 C388 1.453 . S
C385 C389 1.684 . S
C386 C367 1.723 . S
C386 C385 1.396 . S
C386 C387 1.394 1_565 S
C387 C383 1.397 . S
C387 C386 1.394 1_545 S
C387 C397 1.723 . S
C388 C385 1.453 . S
C388 H412 0.982 . S
C388 H413 0.979 . S
C388 H414 0.977 . S
C389 C385 1.684 . S
C389 H415 0.979 . S
C389 H416 0.980 . S
C389 H417 0.983 . S
C390 H366 0.948 . S
C390 C391 1.391 . S
C390 C395 1.391 . S
C391 C390 1.391 . S
C391 C392 1.391 . S
C392 H369 0.947 . S
C392 C391 1.391 . S
C392 C393 1.392 . S
C393 H370 0.948 . S
C393 C392 1.392 . S
C393 C394 1.419 . S
C394 C393 1.419 . S
C394 C395 1.391 . S
C394 C398 1.397 . S
C395 C390 1.391 . S
C395 C394 1.391 . S
C395 C396 1.399 . S
C396 C395 1.399 . S
C396 C397 1.396 . S
C396 C399 1.453 . S
C396 C400 1.684 . S
C397 C387 1.723 . S
C397 C396 1.396 . S
C397 C398 1.394 . S
C398 C368 1.723 1_545 S
C398 C394 1.397 . S
C398 C397 1.394 . S
C399 H371 0.982 . S
C399 H375 0.979 . S
C399 H376 0.977 . S
C399 C396 1.453 . S
C400 H372 0.979 . S
C400 H373 0.980 . S
C400 H374 0.983 . S
C400 C396 1.684 . S
H401 C419 0.948 . S
H402 C360 0.948 . S
H403 C378 0.979 . S
H404 C378 0.980 . S
H405 C378 0.983 . S
H406 C377 0.978 . S
H407 C377 0.967 1_565 S
H408 C377 1.000 . S
H409 C379 0.948 . S
H410 C381 0.947 . S
H411 C382 0.948 . S
H412 C388 0.982 . S
H413 C388 0.979 . S
H414 C388 0.977 . S
H415 C389 0.979 . S
H416 C389 0.980 . S
H417 C389 0.983 . S
H418 C362 0.947 . S
C419 C362 1.392 . S
C419 C363 1.419 . S
C419 H401 0.948 . S
C420 C421 1.391 . S
C420 C424 1.391 . S
C420 H462 0.948 . S
C421 C420 1.391 . S
C421 C422 1.391 . S
C422 C421 1.391 . S
C422 H478 0.947 . S
C422 C479 1.392 . S
C423 C424 1.391 . S
C423 C427 1.397 . S
C423 C479 1.419 . S
C424 C420 1.391 . S
C424 C423 1.391 . S
C424 C425 1.399 . S
C425 C424 1.399 . S
C425 C428 1.396 . S
C425 C437 1.453 . S
C425 C438 1.684 . S
H426 C450 0.948 . S
C427 C423 1.397 . S
C427 C428 1.394 . S
C427 C446 1.723 . S
C428 C425 1.396 . S
C428 C427 1.394 . S
C428 C458 1.723 . S
H429 C452 0.947 . S
H430 C453 0.948 . S
H431 C459 0.982 . S
H432 C460 0.979 . S
H433 C460 0.980 . S
H434 C460 0.983 . S
H435 C459 0.979 . S
H436 C459 0.977 . S
C437 C425 1.453 . S
C437 H466 0.982 . S
C437 H467 0.979 . S
C437 H468 0.977 . S
C438 C425 1.684 . S
C438 H463 0.979 . S
C438 H464 0.980 . S
C438 H465 0.983 . S
C439 C440 1.391 . S
C439 C444 1.391 1_556 S
C439 H469 0.948 . S
C440 C439 1.391 . S
C440 C441 1.391 . S
C441 C440 1.391 . S
C441 C442 1.392 1_556 S
C441 H470 0.947 . S
C442 C441 1.392 1_554 S
C442 C443 1.419 . S
C442 H471 0.948 . S
C443 C442 1.419 . S
C443 C444 1.391 . S
C443 C447 1.397 . S
C444 C439 1.391 1_554 S
C444 C443 1.391 . S
C444 C445 1.399 . S
C445 C444 1.399 . S
C445 C446 1.396 . S
C445 C448 1.453 . S
C445 C449 1.684 . S
C446 C427 1.723 . S
C446 C445 1.396 . S
C446 C447 1.394 . S
C447 C443 1.397 . S
C447 C446 1.394 . S
C447 C457 1.723 . S
C448 C445 1.453 . S
C448 H472 0.982 . S
C448 H473 0.979 . S
C448 H474 0.977 . S
C449 C445 1.684 . S
C449 H475 0.979 . S
C449 H476 0.980 . S
C449 H477 0.983 . S
C450 H426 0.948 . S
C450 C451 1.391 . S
C450 C455 1.391 . S
C451 C450 1.391 . S
C451 C452 1.391 . S
C452 H429 0.947 . S
C452 C451 1.391 . S
C452 C453 1.392 . S
C453 H430 0.948 . S
C453 C452 1.392 . S
C453 C454 1.419 . S
C454 C453 1.419 . S
C454 C455 1.391 . S
C454 C458 1.397 . S
C455 C450 1.391 . S
C455 C454 1.391 . S
C455 C456 1.399 . S
C456 C455 1.399 . S
C456 C457 1.396 . S
C456 C459 1.453 . S
C456 C460 1.684 . S
C457 C447 1.723 . S
C457 C456 1.396 . S
C457 C458 1.394 . S
C458 C428 1.723 . S
C458 C454 1.397 . S
C458 C457 1.394 . S
C459 H431 0.982 . S
C459 H435 0.979 . S
C459 H436 0.977 . S
C459 C456 1.453 . S
C460 H432 0.979 . S
C460 H433 0.980 . S
C460 H434 0.983 . S
C460 C456 1.684 . S
H461 C479 0.948 . S
H462 C420 0.948 . S
H463 C438 0.979 . S
H464 C438 0.980 . S
H465 C438 0.983 . S
H466 C437 0.982 . S
H467 C437 0.979 . S
H468 C437 0.977 . S
H469 C439 0.948 . S
H470 C441 0.947 . S
H471 C442 0.948 . S
H472 C448 0.982 . S
H473 C448 0.979 . S
H474 C448 0.977 . S
H475 C449 0.979 . S
H476 C449 0.980 . S
H477 C449 0.983 . S
H478 C422 0.947 . S
C479 C422 1.392 . S
C479 C423 1.419 . S
C479 H461 0.948 . S
C480 C481 1.369 . S
C480 C482 1.419 . S
C480 H484 0.930 . S
C481 C480 1.369 . S
C481 C490 1.429 . S
C482 C480 1.419 . S
C482 C483 1.363 . S
C482 H485 0.929 . S
C483 C482 1.363 . S
C483 C489 1.428 . S
H484 C480 0.930 . S
H485 C482 0.929 . S
S486 N487 1.613 . S
S486 N488 1.610 . S
N487 S486 1.613 . S
N487 C490 1.350 . S
N488 S486 1.610 . S
N488 C489 1.351 . S
C489 C483 1.428 . S
C489 N488 1.351 . S
C489 C490 1.434 . S
C490 C481 1.429 . S
C490 N487 1.350 . S
C490 C489 1.434 . S
C491 C492 1.369 . S
C491 C493 1.419 . S
C491 H495 0.930 . S
C492 C491 1.369 . S
C492 C501 1.429 . S
C493 C491 1.419 . S
C493 C494 1.363 . S
C493 H496 0.929 . S
C494 C493 1.363 . S
C494 C500 1.428 . S
H495 C491 0.930 . S
H496 C493 0.929 . S
S497 N498 1.613 . S
S497 N499 1.610 . S
N498 S497 1.613 . S
N498 C501 1.350 . S
N499 S497 1.610 . S
N499 C500 1.351 . S
C500 C494 1.428 . S
C500 N499 1.351 . S
C500 C501 1.434 . S
C501 C492 1.429 . S
C501 N498 1.350 . S
C501 C500 1.434 . S
C502 C503 1.369 . S
C502 C504 1.419 . S
C502 H506 0.930 . S
C503 C502 1.369 . S
C503 C512 1.429 . S
C504 C502 1.419 . S
C504 C505 1.363 . S
C504 H507 0.929 . S
C505 C504 1.363 . S
C505 C511 1.428 . S
H506 C502 0.930 . S
H507 C504 0.929 . S
S508 N509 1.613 . S
S508 N510 1.610 . S
N509 S508 1.613 . S
N509 C512 1.350 . S
N510 S508 1.610 . S
N510 C511 1.351 . S
C511 C505 1.428 . S
C511 N510 1.351 . S
C511 C512 1.434 . S
C512 C503 1.429 . S
C512 N509 1.350 . S
C512 C511 1.434 . S
C513 C514 1.369 . S
C513 C515 1.419 . S
C513 H517 0.930 . S
C514 C513 1.369 . S
C514 C523 1.429 . S
C515 C513 1.419 . S
C515 C516 1.363 . S
C515 H518 0.929 . S
C516 C515 1.363 . S
C516 C522 1.428 . S
H517 C513 0.930 . S
H518 C515 0.929 . S
S519 N520 1.613 . S
S519 N521 1.610 . S
N520 S519 1.613 . S
N520 C523 1.350 . S
N521 S519 1.610 . S
N521 C522 1.351 . S
C522 C516 1.428 . S
C522 N521 1.351 . S
C522 C523 1.434 . S
C523 C514 1.429 . S
C523 N520 1.350 . S
C523 C522 1.434 . S
C524 C525 1.369 . S
C524 C526 1.419 . S
C524 H528 0.930 . S
C525 C524 1.369 . S
C525 C534 1.429 . S
C526 C524 1.419 . S
C526 C527 1.363 . S
C526 H529 0.929 . S
C527 C526 1.363 . S
C527 C533 1.428 . S
H528 C524 0.930 . S
H529 C526 0.929 . S
S530 N531 1.613 . S
S530 N532 1.610 . S
N531 S530 1.613 . S
N531 C534 1.350 . S
N532 S530 1.610 . S
N532 C533 1.351 . S
C533 C527 1.428 . S
C533 N532 1.351 . S
C533 C534 1.434 . S
C534 C525 1.429 . S
C534 N531 1.350 . S
C534 C533 1.434 . S
C535 C536 1.369 . S
C535 C537 1.419 . S
C535 H539 0.930 . S
C536 C535 1.369 . S
C536 C545 1.429 . S
C537 C535 1.419 . S
C537 C538 1.363 . S
C537 H540 0.929 . S
C538 C537 1.363 . S
C538 C544 1.428 . S
H539 C535 0.930 . S
H540 C537 0.929 . S
S541 N542 1.613 . S
S541 N543 1.610 . S
N542 S541 1.613 . S
N542 C545 1.350 . S
N543 S541 1.610 . S
N543 C544 1.351 . S
C544 C538 1.428 . S
C544 N543 1.351 . S
C544 C545 1.434 . S
C545 C536 1.429 . S
C545 N542 1.350 . S
C545 C544 1.434 . S
C546 C547 1.369 . S
C546 C548 1.419 . S
C546 H550 0.930 . S
C547 C546 1.369 . S
C547 C556 1.429 . S
C548 C546 1.419 . S
C548 C549 1.363 . S
C548 H551 0.929 . S
C549 C548 1.363 . S
C549 C555 1.428 . S
H550 C546 0.930 . S
H551 C548 0.929 . S
S552 N553 1.613 . S
S552 N554 1.610 . S
N553 S552 1.613 . S
N553 C556 1.350 . S
N554 S552 1.610 . S
N554 C555 1.351 . S
C555 C549 1.428 . S
C555 N554 1.351 . S
C555 C556 1.434 . S
C556 C547 1.429 . S
C556 N553 1.350 . S
C556 C555 1.434 . S
C557 C558 1.369 . S
C557 C559 1.419 . S
C557 H561 0.930 . S
C558 C557 1.369 . S
C558 C567 1.429 . S
C559 C557 1.419 . S
C559 C560 1.363 . S
C559 H562 0.929 . S
C560 C559 1.363 . S
C560 C566 1.428 . S
H561 C557 0.930 . S
H562 C559 0.929 . S
S563 N564 1.613 . S
S563 N565 1.610 . S
N564 S563 1.613 . S
N564 C567 1.350 . S
N565 S563 1.610 . S
N565 C566 1.351 . S
C566 C560 1.428 . S
C566 N565 1.351 . S
C566 C567 1.434 . S
C567 C558 1.429 . S
C567 N564 1.350 . S
C567 C566 1.434 . S
C568 C569 1.369 . S
C568 C570 1.419 . S
C568 H572 0.930 . S
C569 C568 1.369 . S
C569 C578 1.429 . S
C570 C568 1.419 . S
C570 C571 1.363 . S
C570 H573 0.929 . S
C571 C570 1.363 . S
C571 C577 1.428 . S
H572 C568 0.930 . S
H573 C570 0.929 . S
S574 N575 1.613 . S
S574 N576 1.610 . S
N575 S574 1.613 . S
N575 C578 1.350 . S
N576 S574 1.610 . S
N576 C577 1.351 . S
C577 C571 1.428 . S
C577 N576 1.351 . S
C577 C578 1.434 . S
C578 C569 1.429 . S
C578 N575 1.350 . S
C578 C577 1.434 . S
C579 C580 1.369 . S
C579 C581 1.419 . S
C579 H583 0.930 . S
C580 C579 1.369 . S
C580 C589 1.429 . S
C581 C579 1.419 . S
C581 C582 1.363 . S
C581 H584 0.929 . S
C582 C581 1.363 . S
C582 C588 1.428 . S
H583 C579 0.930 . S
H584 C581 0.929 . S
S585 N586 1.613 . S
S585 N587 1.610 . S
N586 S585 1.613 . S
N586 C589 1.350 . S
N587 S585 1.610 . S
N587 C588 1.351 . S
C588 C582 1.428 . S
C588 N587 1.351 . S
C588 C589 1.434 . S
C589 C580 1.429 . S
C589 N586 1.350 . S
C589 C588 1.434 . S
C590 C591 1.369 . S
C590 C592 1.419 . S
C590 H594 0.930 . S
C591 C590 1.369 . S
C591 C600 1.429 . S
C592 C590 1.419 . S
C592 C593 1.363 . S
C592 H595 0.929 . S
C593 C592 1.363 . S
C593 C599 1.428 . S
H594 C590 0.930 . S
H595 C592 0.929 . S
S596 N597 1.613 . S
S596 N598 1.610 . S
N597 S596 1.613 . S
N597 C600 1.350 . S
N598 S596 1.610 . S
N598 C599 1.351 . S
C599 C593 1.428 . S
C599 N598 1.351 . S
C599 C600 1.434 . S
C600 C591 1.429 . S
C600 N597 1.350 . S
C600 C599 1.434 . S
C601 C602 1.369 . S
C601 C603 1.419 . S
C601 H605 0.930 . S
C602 C601 1.369 . S
C602 C611 1.429 . S
C603 C601 1.419 . S
C603 C604 1.363 . S
C603 H606 0.929 . S
C604 C603 1.363 . S
C604 C610 1.428 . S
H605 C601 0.930 . S
H606 C603 0.929 . S
S607 N608 1.613 . S
S607 N609 1.610 . S
N608 S607 1.613 . S
N608 C611 1.350 . S
N609 S607 1.610 . S
N609 C610 1.351 . S
C610 C604 1.428 . S
C610 N609 1.351 . S
C610 C611 1.434 . S
C611 C602 1.429 . S
C611 N608 1.350 . S
C611 C610 1.434 . S
C612 C613 1.369 . S
C612 C614 1.419 . S
C612 H616 0.930 . S
C613 C612 1.369 . S
C613 C622 1.429 . S
C614 C612 1.419 . S
C614 C615 1.363 . S
C614 H617 0.929 . S
C615 C614 1.363 . S
C615 C621 1.428 . S
H616 C612 0.930 . S
H617 C614 0.929 . S
S618 N619 1.613 . S
S618 N620 1.610 . S
N619 S618 1.613 . S
N619 C622 1.350 1_655 S
N620 S618 1.610 . S
N620 C621 1.351 1_655 S
C621 C615 1.428 . S
C621 N620 1.351 1_455 S
C621 C622 1.434 . S
C622 C613 1.429 . S
C622 N619 1.350 1_455 S
C622 C621 1.434 . S
C623 C624 1.369 . S
C623 C625 1.419 . S
C623 H627 0.930 1_545 S
C624 C623 1.369 . S
C624 C633 1.429 . S
C625 C623 1.419 . S
C625 C626 1.363 . S
C625 H628 0.929 1_545 S
C626 C625 1.363 . S
C626 C632 1.428 . S
H627 C623 0.930 1_565 S
H628 C625 0.929 1_565 S
S629 N630 1.613 . S
S629 N631 1.610 . S
N630 S629 1.613 . S
N630 C633 1.350 . S
N631 S629 1.610 . S
N631 C632 1.351 . S
C632 C626 1.428 . S
C632 N631 1.351 . S
C632 C633 1.434 . S
C633 C624 1.429 . S
C633 N630 1.350 . S
C633 C632 1.434 . S
C634 C635 1.369 . S
C634 C636 1.419 . S
C634 H638 0.930 . S
C635 C634 1.369 . S
C635 C644 1.429 . S
C636 C634 1.419 . S
C636 C637 1.363 . S
C636 H639 0.929 . S
C637 C636 1.363 . S
C637 C643 1.428 . S
H638 C634 0.930 . S
H639 C636 0.929 . S
S640 N641 1.613 . S
S640 N642 1.610 . S
N641 S640 1.613 . S
N641 C644 1.350 . S
N642 S640 1.610 . S
N642 C643 1.351 . S
C643 C637 1.428 . S
C643 N642 1.351 . S
C643 C644 1.434 . S
C644 C635 1.429 . S
C644 N641 1.350 . S
C644 C643 1.434 . S
C645 C646 1.369 . S
C645 C647 1.419 . S
C645 H649 0.930 . S
C646 C645 1.369 . S
C646 C655 1.429 1_545 S
C647 C645 1.419 . S
C647 C648 1.363 1_545 S
C647 H650 0.929 . S
C648 C647 1.363 1_565 S
C648 C654 1.428 . S
H649 C645 0.930 . S
H650 C647 0.929 . S
S651 N652 1.613 . S
S651 N653 1.610 . S
N652 S651 1.613 . S
N652 C655 1.350 . S
N653 S651 1.610 . S
N653 C654 1.351 . S
C654 C648 1.428 . S
C654 N653 1.351 . S
C654 C655 1.434 . S
C655 C646 1.429 1_565 S
C655 N652 1.350 . S
C655 C654 1.434 . S
C656 C657 1.369 . S
C656 C658 1.419 . S
C656 H660 0.930 . S
C657 C656 1.369 . S
C657 C666 1.429 . S
C658 C656 1.419 . S
C658 C659 1.363 . S
C658 H661 0.929 . S
C659 C658 1.363 . S
C659 C665 1.428 . S
H660 C656 0.930 . S
H661 C658 0.929 . S
S662 N663 1.613 . S
S662 N664 1.610 . S
N663 S662 1.613 . S
N663 C666 1.350 . S
N664 S662 1.610 . S
N664 C665 1.351 . S
C665 C659 1.428 . S
C665 N664 1.351 . S
C665 C666 1.434 . S
C666 C657 1.429 . S
C666 N663 1.350 . S
C666 C665 1.434 . S
C667 C668 1.369 1_655 S
C667 C669 1.419 . S
C667 H671 0.930 . S
C668 C667 1.369 1_455 S
C668 C677 1.429 . S
C669 C667 1.419 . S
C669 C670 1.363 1_655 S
C669 H672 0.929 . S
C670 C669 1.363 1_455 S
C670 C676 1.430 . S
H671 C667 0.930 . S
H672 C669 0.929 . S
S673 N674 1.613 . S
S673 N675 1.610 . S
N674 S673 1.613 . S
N674 C677 1.350 . S
N675 S673 1.610 . S
N675 C676 1.351 . S
C676 C670 1.430 . S
C676 N675 1.351 . S
C676 C677 1.434 . S
C677 C668 1.429 . S
C677 N674 1.350 . S
C677 C676 1.434 . S
C481 C25 0.664 . S
C483 C451 0.666 . S
C492 C65 0.644 . S
C494 C301 0.522 . S
C503 C105 0.743 . S
C505 C361 0.736 . S
C514 C4 0.747 . S
C516 C421 0.733 . S
C527 C331 0.599 . S
C525 C44 0.621 . S
C538 C391 0.692 . S
C536 C84 0.683 . S
C547 C60 3.017 . S
C549 C181 2.836 . S
C558 C100 3.178 . S
C560 C271 3.166 . S
C569 C31 3.206 . S
C571 C151 3.178 . S
C582 C211 3.180 . S
C580 C71 3.205 . S
C593 C241 2.864 . S
C591 C111 3.043 . S
C602 C20 3.024 . S
C604 C121 2.850 . S
C615 C260 1.805 . S
C613 C2 1.754 . S
C624 C42 1.782 . S
C626 C140 1.779 . S
C635 C82 1.766 . S
C637 C200 1.784 . S
C648 C380 1.048 . S
C646 C63 1.074 . S
C659 C440 1.117 . S
C657 C103 1.125 . S
C668 C23 1.031 . S
C670 C320 1.005 . S
