# Generated by pormake.
# Topology wbl, (4,4)-cn, num edge types: 1
# Building blocks:
#     Node 0, Type 0, BuildingBlock: MUDLON_clean_linker_0, # of connection points: 4
#     Node 1, Type 0, BuildingBlock: MUDLON_clean_linker_0, # of connection points: 4
#     Node 2, Type 0, BuildingBlock: MUDLON_clean_linker_0, # of connection points: 4
#     Node 3, Type 0, BuildingBlock: MUDLON_clean_linker_0, # of connection points: 4
#     Node 4, Type 0, BuildingBlock: MUDLON_clean_linker_0, # of connection points: 4
#     Node 5, Type 0, BuildingBlock: MUDLON_clean_linker_0, # of connection points: 4
#     Node 6, Type 0, BuildingBlock: MUDLON_clean_linker_0, # of connection points: 4
#     Node 7, Type 0, BuildingBlock: MUDLON_clean_linker_0, # of connection points: 4
#     Node 8, Type 1, BuildingBlock: CEKHIL_clean_sbu_0, # of connection points: 4
#     Node 9, Type 1, BuildingBlock: CEKHIL_clean_sbu_0, # of connection points: 4
#     Node 10, Type 1, BuildingBlock: CEKHIL_clean_sbu_0, # of connection points: 4
#     Node 11, Type 1, BuildingBlock: CEKHIL_clean_sbu_0, # of connection points: 4
#     Node 12, Type 1, BuildingBlock: CEKHIL_clean_sbu_0, # of connection points: 4
#     Node 13, Type 1, BuildingBlock: CEKHIL_clean_sbu_0, # of connection points: 4
#     Node 14, Type 1, BuildingBlock: CEKHIL_clean_sbu_0, # of connection points: 4
#     Node 15, Type 1, BuildingBlock: CEKHIL_clean_sbu_0, # of connection points: 4
#     Edge 16, Type (0, 1), BuildingBlock: AJUNOK_clean_linker_0, # of connection points: 2
#     Edge 17, Type (0, 1), BuildingBlock: AJUNOK_clean_linker_0, # of connection points: 2
#     Edge 18, Type (0, 1), BuildingBlock: AJUNOK_clean_linker_0, # of connection points: 2
#     Edge 19, Type (0, 1), BuildingBlock: AJUNOK_clean_linker_0, # of connection points: 2
#     Edge 20, Type (0, 1), BuildingBlock: AJUNOK_clean_linker_0, # of connection points: 2
#     Edge 21, Type (0, 1), BuildingBlock: AJUNOK_clean_linker_0, # of connection points: 2
#     Edge 22, Type (0, 1), BuildingBlock: AJUNOK_clean_linker_0, # of connection points: 2
#     Edge 23, Type (0, 1), BuildingBlock: AJUNOK_clean_linker_0, # of connection points: 2
#     Edge 24, Type (0, 1), BuildingBlock: AJUNOK_clean_linker_0, # of connection points: 2
#     Edge 25, Type (0, 1), BuildingBlock: AJUNOK_clean_linker_0, # of connection points: 2
#     Edge 26, Type (0, 1), BuildingBlock: AJUNOK_clean_linker_0, # of connection points: 2
#     Edge 27, Type (0, 1), BuildingBlock: AJUNOK_clean_linker_0, # of connection points: 2
#     Edge 28, Type (0, 1), BuildingBlock: AJUNOK_clean_linker_0, # of connection points: 2
#     Edge 29, Type (0, 1), BuildingBlock: AJUNOK_clean_linker_0, # of connection points: 2
#     Edge 30, Type (0, 1), BuildingBlock: AJUNOK_clean_linker_0, # of connection points: 2
#     Edge 31, Type (0, 1), BuildingBlock: AJUNOK_clean_linker_0, # of connection points: 2
#     Edge 32, Type (0, 1), BuildingBlock: AJUNOK_clean_linker_0, # of connection points: 2
#     Edge 33, Type (0, 1), BuildingBlock: AJUNOK_clean_linker_0, # of connection points: 2
#     Edge 34, Type (0, 1), BuildingBlock: AJUNOK_clean_linker_0, # of connection points: 2
#     Edge 35, Type (0, 1), BuildingBlock: AJUNOK_clean_linker_0, # of connection points: 2
#     Edge 36, Type (0, 1), BuildingBlock: AJUNOK_clean_linker_0, # of connection points: 2
#     Edge 37, Type (0, 1), BuildingBlock: AJUNOK_clean_linker_0, # of connection points: 2
#     Edge 38, Type (0, 1), BuildingBlock: AJUNOK_clean_linker_0, # of connection points: 2
#     Edge 39, Type (0, 1), BuildingBlock: AJUNOK_clean_linker_0, # of connection points: 2
#     Edge 40, Type (0, 1), BuildingBlock: AJUNOK_clean_linker_0, # of connection points: 2
#     Edge 41, Type (0, 1), BuildingBlock: AJUNOK_clean_linker_0, # of connection points: 2
#     Edge 42, Type (0, 1), BuildingBlock: AJUNOK_clean_linker_0, # of connection points: 2
#     Edge 43, Type (0, 1), BuildingBlock: AJUNOK_clean_linker_0, # of connection points: 2
#     Edge 44, Type (0, 1), BuildingBlock: AJUNOK_clean_linker_0, # of connection points: 2
#     Edge 45, Type (0, 1), BuildingBlock: AJUNOK_clean_linker_0, # of connection points: 2
#     Edge 46, Type (0, 1), BuildingBlock: AJUNOK_clean_linker_0, # of connection points: 2
#     Edge 47, Type (0, 1), BuildingBlock: AJUNOK_clean_linker_0, # of connection points: 2
# Relax obj value: 0.121
# Max RMSD: 0.154
# Mean RMSD: 0.138
data_MOF--net-wbl--node1-CEKHIL_clean_sbu_0--node2-MUDLON_clean_linker_0--edge1-AJUNOK_clean_linker_0
_symmetry_space_group_name_H-M    P1
_symmetry_Int_Tables_number       1
_symmetry_cell_setting            triclinic
loop_
_symmetry_equiv_pos_as_xyz
'x, y, z'
_cell_length_a     43.181259
_cell_length_b     43.382929
_cell_length_c     61.711841
_cell_angle_alpha  90.320462
_cell_angle_beta   90.063117
_cell_angle_gamma 90.040001
loop_
_atom_site_label
_atom_site_type_symbol
_atom_site_fract_x
_atom_site_fract_y
_atom_site_fract_z
_atom_type_partial_charge
H0 H 0.16749 0.97295 0.35098 0.0
N1 N 0.12423 0.97 0.32056 0.0
H2 H 0.17093 0.94219 0.38415 0.0
H3 H 0.08144 0.92818 0.33449 0.0
H4 H 0.0844 0.89783 0.36798 0.0
H5 H 0.11806 0.91414 0.30058 0.0
H6 H 0.15782 0.88893 0.2782 0.0
H7 H 0.17342 0.99663 0.30336 0.0
H8 H 0.21324 0.97179 0.28133 0.0
H9 H 0.1148 0.02769 0.33264 0.0
H10 H 0.07331 0.95271 0.29703 0.0
H11 H 0.06898 0.05926 0.32646 0.0
H12 H 0.02723 0.98446 0.29014 0.0
H13 H 0.91371 0.15607 0.32354 0.0
H14 H 0.89595 0.16926 0.35994 0.0
H15 H 0.93364 0.08362 0.38377 0.0
H16 H 0.94856 0.0693 0.34732 0.0
H17 H 0.89036 0.06403 0.32017 0.0
H18 H 0.83781 0.06716 0.30586 0.0
H19 H 0.86802 0.1344 0.25904 0.0
H20 H 0.92066 0.13169 0.27393 0.0
H21 H 0.99538 0.11942 0.301 0.0
H22 H 0.04118 0.08646 0.29939 0.0
H23 H 0.98341 0.00643 0.30949 0.0
N24 N 0.9378 0.10302 0.30997 0.0
H25 H 0.93771 0.03948 0.3102 0.0
C26 C 0.12412 0.95311 0.34052 0.0
C27 C 0.14923 0.9567 0.35469 0.0
C28 C 0.15128 0.93903 0.37344 0.0
C29 C 0.12804 0.9176 0.37838 0.0
C30 C 0.10257 0.91425 0.36439 0.0
C31 C 0.10078 0.93165 0.34539 0.0
C32 C 0.14292 0.95732 0.30348 0.0
C33 C 0.1383 0.92712 0.29576 0.0
C34 C 0.1611 0.9127 0.28315 0.0
C35 C 0.18858 0.92842 0.27795 0.0
C36 C 0.19208 0.95926 0.28464 0.0
C37 C 0.16941 0.97353 0.29723 0.0
C38 C 0.09745 0.98811 0.31525 0.0
C39 C 0.09583 0.01829 0.32318 0.0
C40 C 0.06968 0.03633 0.31947 0.0
C41 C 0.04442 0.02457 0.30759 0.0
C42 C 0.04617 0.9942 0.29944 0.0
C43 C 0.07252 0.97608 0.30324 0.0
C44 C 0.93241 0.11173 0.33236 0.0
C45 C 0.91825 0.14022 0.33666 0.0
C46 C 0.90815 0.14772 0.35751 0.0
C47 C 0.91266 0.12718 0.37477 0.0
C48 C 0.92854 0.09944 0.37074 0.0
C49 C 0.93773 0.09147 0.34975 0.0
C50 C 0.90949 0.09772 0.29808 0.0
C51 C 0.886 0.07859 0.30631 0.0
C52 C 0.85586 0.0806 0.29821 0.0
C53 C 0.84864 0.10164 0.2817 0.0
C54 C 0.87273 0.11863 0.27219 0.0
C55 C 0.90287 0.11674 0.28039 0.0
C56 C 0.96319 0.08213 0.30587 0.0
C57 C 0.9926 0.09469 0.30237 0.0
C58 C 0.01874 0.07581 0.30167 0.0
C59 C 0.01611 0.0438 0.30476 0.0
C60 C 0.98634 0.03094 0.30696 0.0
C61 C 0.96008 0.0499 0.30742 0.0
H62 H 0.95523 0.38636 0.58649 0.0
N63 N 0.92773 0.42962 0.5608 0.0
H64 H 0.94069 0.37386 0.62379 0.0
H65 H 0.88879 0.46047 0.58615 0.0
H66 H 0.87371 0.44761 0.62339 0.0
H67 H 0.87091 0.40906 0.55371 0.0
H68 H 0.8557 0.35853 0.53994 0.0
H69 H 0.96633 0.38894 0.53846 0.0
H70 H 0.95101 0.33944 0.52349 0.0
H71 H 0.98943 0.41572 0.56612 0.0
H72 H 0.92628 0.48651 0.5454 0.0
H73 H 0.03266 0.45067 0.56166 0.0
H74 H 0.96919 0.52293 0.54284 0.0
H75 H 0.15562 0.58637 0.58256 0.0
H76 H 0.16454 0.60136 0.6205 0.0
H77 H 0.06599 0.61164 0.62969 0.0
H78 H 0.0572 0.59678 0.59184 0.0
H79 H 0.0592 0.62872 0.55978 0.0
H80 H 0.06895 0.67979 0.54459 0.0
H81 H 0.15624 0.64763 0.51903 0.0
H82 H 0.14674 0.59681 0.53487 0.0
H83 H 0.09557 0.52831 0.58277 0.0
H84 H 0.05479 0.49046 0.57972 0.0
H85 H 0.01384 0.54232 0.52734 0.0
N86 N 0.10155 0.58174 0.56193 0.0
H87 H 0.0536 0.58143 0.5315 0.0
C88 C 0.92318 0.42461 0.58364 0.0
C89 C 0.9382 0.40052 0.59465 0.0
C90 C 0.92976 0.39325 0.61588 0.0
C91 C 0.90595 0.40963 0.62625 0.0
C92 C 0.89197 0.43453 0.61559 0.0
C93 C 0.90064 0.44199 0.59448 0.0
C94 C 0.91978 0.40299 0.54768 0.0
C95 C 0.8885 0.39415 0.54684 0.0
C96 C 0.87983 0.36518 0.53897 0.0
C97 C 0.90225 0.34441 0.53125 0.0
C98 C 0.9333 0.35427 0.53027 0.0
C99 C 0.94209 0.38304 0.53867 0.0
C100 C 0.95443 0.44823 0.5556 0.0
C101 C 0.98481 0.43866 0.56023 0.0
C102 C 0.00964 0.4591 0.55809 0.0
C103 C 0.00469 0.49009 0.55225 0.0
C104 C 0.9743 0.4993 0.54706 0.0
C105 C 0.94959 0.47851 0.54859 0.0
C106 C 0.10587 0.59015 0.58444 0.0
C107 C 0.13602 0.59191 0.59279 0.0
C108 C 0.14106 0.60072 0.61432 0.0
C109 C 0.11593 0.60785 0.62786 0.0
C110 C 0.08571 0.60626 0.61951 0.0
C111 C 0.0807 0.59775 0.59793 0.0
C112 C 0.10243 0.60892 0.54852 0.0
C113 C 0.08012 0.63244 0.55052 0.0
C114 C 0.08573 0.66164 0.54185 0.0
C115 C 0.11372 0.66787 0.53112 0.0
C116 C 0.13484 0.64369 0.52771 0.0
C117 C 0.12924 0.61455 0.53642 0.0
C118 C 0.07732 0.55889 0.55828 0.0
C119 C 0.07761 0.53188 0.57078 0.0
C120 C 0.05435 0.50977 0.56871 0.0
C121 C 0.03054 0.51311 0.55333 0.0
C122 C 0.03116 0.53923 0.53983 0.0
C123 C 0.05419 0.56185 0.54224 0.0
H124 H 0.63624 0.45014 0.83205 0.0
N125 N 0.58709 0.42791 0.80855 0.0
H126 H 0.65074 0.43473 0.86877 0.0
H127 H 0.55395 0.39399 0.83587 0.0
H128 H 0.56805 0.37928 0.87305 0.0
H129 H 0.60538 0.37242 0.79648 0.0
H130 H 0.65517 0.35827 0.78107 0.0
H131 H 0.62822 0.46863 0.79006 0.0
H132 H 0.67742 0.4547 0.77306 0.0
H133 H 0.59506 0.48787 0.82188 0.0
H134 H 0.535 0.42717 0.78572 0.0
H135 H 0.55648 0.52873 0.81979 0.0
H136 H 0.49661 0.46839 0.78267 0.0
H137 H 0.43291 0.64846 0.8323 0.0
H138 H 0.42273 0.66272 0.87031 0.0
H139 H 0.40384 0.5675 0.885 0.0
H140 H 0.41508 0.55314 0.84752 0.0
H141 H 0.3768 0.55609 0.82091 0.0
H142 H 0.32605 0.56252 0.80496 0.0
H143 H 0.36059 0.63701 0.76569 0.0
H144 H 0.41213 0.63059 0.78207 0.0
H145 H 0.48687 0.60313 0.80477 0.0
H146 H 0.52792 0.56504 0.79893 0.0
H147 H 0.46091 0.49191 0.80684 0.0
N148 N 0.4278 0.59294 0.81415 0.0
H149 H 0.42033 0.52976 0.8118 0.0
C150 C 0.59407 0.42282 0.83112 0.0
C151 C 0.62106 0.43485 0.84086 0.0
C152 C 0.62941 0.42602 0.86178 0.0
C153 C 0.61062 0.40564 0.87343 0.0
C154 C 0.58287 0.39497 0.86422 0.0
C155 C 0.57478 0.40337 0.84314 0.0
C156 C 0.61279 0.42145 0.7943 0.0
C157 C 0.6206 0.39049 0.79076 0.0
C158 C 0.64913 0.38246 0.78183 0.0
C159 C 0.67035 0.40532 0.77555 0.0
C160 C 0.66173 0.43649 0.77785 0.0
C161 C 0.63333 0.44453 0.7873 0.0
C162 C 0.56771 0.45423 0.80414 0.0
C163 C 0.57386 0.48354 0.81303 0.0
C164 C 0.55173 0.50703 0.8117 0.0
C165 C 0.5231 0.50181 0.80131 0.0
C166 C 0.51802 0.47307 0.79123 0.0
C167 C 0.54005 0.44957 0.79271 0.0
C168 C 0.42464 0.59988 0.83694 0.0
C169 C 0.42703 0.63066 0.84382 0.0
C170 C 0.42108 0.63876 0.86538 0.0
C171 C 0.4121 0.61618 0.88029 0.0
C172 C 0.41034 0.58529 0.87361 0.0
C173 C 0.41684 0.57712 0.85218 0.0
C174 C 0.39877 0.59265 0.80249 0.0
C175 C 0.37411 0.57321 0.80845 0.0
C176 C 0.34483 0.57691 0.79926 0.0
C177 C 0.33939 0.60005 0.78389 0.0
C178 C 0.36416 0.61892 0.77746 0.0
C179 C 0.39359 0.61513 0.78665 0.0
C180 C 0.45045 0.56961 0.80874 0.0
C181 C 0.48106 0.57884 0.80486 0.0
C182 C 0.50451 0.55702 0.80171 0.0
C183 C 0.49787 0.52528 0.80249 0.0
C184 C 0.46695 0.51608 0.80577 0.0
C185 C 0.44352 0.53792 0.80881 0.0
H186 H 0.46281 0.88563 0.083 0.0
N187 N 0.43295 0.92819 0.05776 0.0
H188 H 0.44971 0.87165 0.12009 0.0
H189 H 0.39032 0.95398 0.0831 0.0
H190 H 0.37658 0.93937 0.12031 0.0
H191 H 0.37865 0.90627 0.04492 0.0
H192 H 0.36782 0.85366 0.03255 0.0
H193 H 0.4767 0.88841 0.03987 0.0
H194 H 0.4659 0.83642 0.02741 0.0
H195 H 0.4951 0.91923 0.06613 0.0
H196 H 0.42881 0.98491 0.04197 0.0
H197 H 0.53567 0.95723 0.06369 0.0
H198 H 0.46931 0.02446 0.04118 0.0
H199 H 0.65596 0.0803 0.0822 0.0
H200 H 0.66912 0.08952 0.12047 0.0
H201 H 0.57583 0.12084 0.13241 0.0
H202 H 0.5626 0.1109 0.0944 0.0
H203 H 0.55882 0.13472 0.06103 0.0
H204 H 0.56787 0.18513 0.04472 0.0
H205 H 0.65469 0.15235 0.01867 0.0
H206 H 0.64609 0.1024 0.03598 0.0
H207 H 0.59064 0.03738 0.08758 0.0
H208 H 0.55053 0.99926 0.08388 0.0
H209 H 0.51608 0.0454 0.02685 0.0
N210 N 0.6011 0.08754 0.06318 0.0
H211 H 0.55548 0.08511 0.03133 0.0
C212 C 0.42784 0.92141 0.08035 0.0
C213 C 0.44463 0.89825 0.09114 0.0
C214 C 0.43702 0.89008 0.11233 0.0
C215 C 0.41229 0.90458 0.123 0.0
C216 C 0.39579 0.92793 0.11236 0.0
C217 C 0.40366 0.93638 0.09125 0.0
C218 C 0.4284 0.9015 0.04393 0.0
C219 C 0.39783 0.8915 0.0404 0.0
C220 C 0.39165 0.86139 0.03344 0.0
C221 C 0.41605 0.84071 0.02974 0.0
C222 C 0.44665 0.85167 0.03086 0.0
C223 C 0.45283 0.88172 0.03795 0.0
C224 C 0.45863 0.94884 0.05377 0.0
C225 C 0.48916 0.94162 0.05986 0.0
C226 C 0.51249 0.96385 0.05889 0.0
C227 C 0.50584 0.99433 0.05269 0.0
C228 C 0.47552 1.00127 0.04588 0.0
C229 C 0.45227 0.97869 0.04636 0.0
C230 C 0.60849 0.09506 0.08544 0.0
C231 C 0.63849 0.08936 0.09308 0.0
C232 C 0.6459 0.09452 0.11484 0.0
C233 C 0.6234 0.10576 0.12927 0.0
C234 C 0.59358 0.11236 0.12151 0.0
C235 C 0.58607 0.10685 0.0998 0.0
C236 C 0.60197 0.11477 0.04981 0.0
C237 C 0.57957 0.13821 0.05158 0.0
C238 C 0.58467 0.16699 0.04206 0.0
C239 C 0.61206 0.17278 0.03042 0.0
C240 C 0.63351 0.14871 0.0277 0.0
C241 C 0.6285 0.12008 0.03734 0.0
C242 C 0.57567 0.06566 0.06059 0.0
C243 C 0.5741 0.0401 0.07454 0.0
C244 C 0.55132 0.01764 0.0721 0.0
C245 C 0.52992 0.01894 0.05497 0.0
C246 C 0.53178 0.04388 0.0405 0.0
C247 C 0.55447 0.06684 0.04315 0.0
H248 H 0.12756 0.56051 0.91322 0.0
N249 N 0.08384 0.58803 0.93887 0.0
H250 H 0.14165 0.57577 0.87638 0.0
H251 H 0.05521 0.62893 0.91408 0.0
H252 H 0.06994 0.64495 0.87737 0.0
H253 H 0.10225 0.64432 0.94896 0.0
H254 H 0.15226 0.65978 0.96346 0.0
H255 H 0.12581 0.54882 0.95875 0.0
H256 H 0.17487 0.5642 0.97485 0.0
H257 H 0.09648 0.52662 0.93169 0.0
H258 H 0.02703 0.58977 0.9551 0.0
H259 H 0.06028 0.48416 0.93491 0.0
H260 H 0.98967 0.54747 0.95712 0.0
H261 H 0.9337 0.36004 0.91927 0.0
H262 H 0.92142 0.34551 0.8816 0.0
H263 H 0.89545 0.43953 0.86828 0.0
H264 H 0.90874 0.45415 0.90545 0.0
H265 H 0.88525 0.46139 0.9383 0.0
H266 H 0.83316 0.45653 0.95288 0.0
H267 H 0.85751 0.3686 0.98067 0.0
H268 H 0.90924 0.37277 0.96462 0.0
H269 H 0.9798 0.42565 0.91262 0.0
H270 H 0.01782 0.46615 0.91563 0.0
H271 H 0.97222 0.50079 0.97308 0.0
N272 N 0.92932 0.41577 0.93751 0.0
H273 H 0.93301 0.4609 0.96954 0.0
C274 C 0.0899 0.59334 0.91625 0.0
C275 C 0.11411 0.57817 0.90528 0.0
C276 C 0.12237 0.58708 0.88434 0.0
C277 C 0.10698 0.61162 0.87428 0.0
C278 C 0.08221 0.62607 0.88495 0.0
C279 C 0.07366 0.61686 0.90574 0.0
C280 C 0.10991 0.5955 0.95265 0.0
C281 C 0.11767 0.62673 0.95512 0.0
C282 C 0.14633 0.63555 0.96357 0.0
C283 C 0.16771 0.61328 0.97054 0.0
C284 C 0.15915 0.58197 0.96938 0.0
C285 C 0.13073 0.57311 0.96032 0.0
C286 C 0.06465 0.56158 0.94346 0.0
C287 C 0.07361 0.53141 0.9379 0.0
C288 C 0.05254 0.50704 0.93942 0.0
C289 C 0.02172 0.51229 0.94593 0.0
C290 C 0.0132 0.54233 0.95226 0.0
C291 C 0.0345 0.56661 0.95107 0.0
C292 C 0.92185 0.40799 0.91527 0.0
C293 C 0.92532 0.37743 0.90819 0.0
C294 C 0.91827 0.36919 0.88681 0.0
C295 C 0.90709 0.39138 0.87229 0.0
C296 C 0.90344 0.42194 0.87935 0.0
C297 C 0.91094 0.43027 0.9006 0.0
C298 C 0.90119 0.41721 0.9502 0.0
C299 C 0.87958 0.44121 0.9477 0.0
C300 C 0.8498 0.43858 0.95636 0.0
C301 C 0.8411 0.41219 0.96804 0.0
C302 C 0.86336 0.3891 0.9716 0.0
C303 C 0.89302 0.39158 0.96268 0.0
C304 C 0.95167 0.44088 0.93982 0.0
C305 C 0.97719 0.44231 0.92562 0.0
C306 C 0.99958 0.46531 0.92764 0.0
C307 C 0.99814 0.48711 0.94452 0.0
C308 C 0.97366 0.48495 0.9595 0.0
C309 C 0.95093 0.462 0.95734 0.0
H310 H 0.52931 0.35869 0.144 0.0
N311 N 0.54427 0.39345 0.17789 0.0
H312 H 0.55428 0.35777 0.10831 0.0
H313 H 0.59197 0.4301 0.1651 0.0
H314 H 0.61745 0.42905 0.12958 0.0
H315 H 0.6001 0.3995 0.19824 0.0
H316 H 0.62701 0.3587 0.21822 0.0
H317 H 0.52019 0.34087 0.1912 0.0
H318 H 0.54691 0.29984 0.21072 0.0
H319 H 0.48461 0.40231 0.1711 0.0
H320 H 0.56523 0.44432 0.19979 0.0
H321 H 0.45456 0.44867 0.17848 0.0
H322 H 0.5351 0.49092 0.20801 0.0
H323 H 0.35975 0.5832 0.17522 0.0
H324 H 0.34354 0.59726 0.13848 0.0
H325 H 0.4394 0.60781 0.12008 0.0
H326 H 0.45538 0.59294 0.15638 0.0
H327 H 0.45902 0.62883 0.18564 0.0
H328 H 0.4546 0.68041 0.20086 0.0
H329 H 0.37743 0.65072 0.24003 0.0
H330 H 0.38134 0.599 0.22399 0.0
H331 H 0.39941 0.52635 0.20299 0.0
H332 H 0.43107 0.47983 0.20505 0.0
H333 H 0.51228 0.53353 0.18929 0.0
N334 N 0.41698 0.58206 0.19101 0.0
H335 H 0.48071 0.58005 0.18863 0.0
C336 C 0.55863 0.39459 0.15696 0.0
C337 C 0.54839 0.37423 0.14081 0.0
C338 C 0.56278 0.37359 0.1206 0.0
C339 C 0.58768 0.39343 0.11621 0.0
C340 C 0.59801 0.41383 0.13247 0.0
C341 C 0.58356 0.41443 0.15273 0.0
C342 C 0.55808 0.37307 0.19336 0.0
C343 C 0.58811 0.37812 0.20144 0.0
C344 C 0.60359 0.35466 0.21258 0.0
C345 C 0.58926 0.32589 0.21568 0.0
C346 C 0.55855 0.32176 0.20865 0.0
C347 C 0.54318 0.34514 0.19759 0.0
C348 C 0.52692 0.41988 0.18496 0.0
C349 C 0.49556 0.42144 0.17948 0.0
C350 C 0.47842 0.44796 0.18385 0.0
C351 C 0.49228 0.47365 0.19399 0.0
C352 C 0.52372 0.47172 0.20002 0.0
C353 C 0.54095 0.44504 0.19549 0.0
C354 C 0.40865 0.58699 0.16866 0.0
C355 C 0.3772 0.58811 0.16313 0.0
C356 C 0.36802 0.59649 0.14226 0.0
C357 C 0.39023 0.60422 0.12656 0.0
C358 C 0.42179 0.602 0.13186 0.0
C359 C 0.43094 0.5935 0.1527 0.0
C360 C 0.42031 0.60993 0.2036 0.0
C361 C 0.44167 0.63297 0.19789 0.0
C362 C 0.43906 0.66264 0.20662 0.0
C363 C 0.41517 0.66984 0.22125 0.0
C364 C 0.39552 0.6461 0.22832 0.0
C365 C 0.39801 0.61646 0.21945 0.0
C366 C 0.43742 0.55655 0.19529 0.0
C367 C 0.42417 0.52811 0.20048 0.0
C368 C 0.4423 0.50151 0.20142 0.0
C369 C 0.47419 0.5027 0.19681 0.0
C370 C 0.48784 0.53165 0.19295 0.0
C371 C 0.46967 0.55838 0.19234 0.0
H372 H 0.37093 0.95387 0.41022 0.0
N373 N 0.41768 0.93356 0.43679 0.0
H374 H 0.36266 0.93945 0.37249 0.0
H375 H 0.45436 0.89936 0.41175 0.0
H376 H 0.44726 0.88632 0.37335 0.0
H377 H 0.39468 0.88065 0.45071 0.0
H378 H 0.3431 0.87142 0.46553 0.0
H379 H 0.37714 0.97847 0.45089 0.0
H380 H 0.32611 0.96953 0.46654 0.0
H381 H 0.41411 0.99251 0.4211 0.0
H382 H 0.46673 0.93285 0.46282 0.0
H383 H 0.45278 0.03301 0.42575 0.0
H384 H 0.50529 0.97366 0.46813 0.0
H385 H 0.59702 0.15298 0.42822 0.0
H386 H 0.6142 0.16698 0.39207 0.0
H387 H 0.58622 0.07729 0.36821 0.0
H388 H 0.57218 0.06236 0.40474 0.0
H389 H 0.62813 0.06177 0.43073 0.0
H390 H 0.68058 0.0666 0.4448 0.0
H391 H 0.64946 0.13501 0.4909 0.0
H392 H 0.59644 0.12987 0.47673 0.0
H393 H 0.51863 0.10792 0.44744 0.0
H394 H 0.47706 0.06965 0.44985 0.0
H395 H 0.545 0.99675 0.44626 0.0
N396 N 0.57876 0.09798 0.44184 0.0
H397 H 0.58606 0.03473 0.44438 0.0
C398 C 0.4132 0.92729 0.41397 0.0
C399 C 0.3877 0.93903 0.40241 0.0
C400 C 0.38316 0.93107 0.38067 0.0
C401 C 0.40444 0.91193 0.36983 0.0
C402 C 0.43028 0.90085 0.3813 0.0
C403 C 0.43451 0.90841 0.40315 0.0
C404 C 0.39002 0.93011 0.44972 0.0
C405 C 0.38013 0.90019 0.45471 0.0
C406 C 0.35067 0.89499 0.46327 0.0
C407 C 0.33051 0.91976 0.46732 0.0
C408 C 0.34106 0.94994 0.46348 0.0
C409 C 0.37046 0.95511 0.45469 0.0
C410 C 0.43768 0.95945 0.44154 0.0
C411 C 0.43371 0.98831 0.43161 0.0
C412 C 0.45584 0.01158 0.4344 0.0
C413 C 0.48237 0.00657 0.44719 0.0
C414 C 0.48546 0.97816 0.45787 0.0
C415 C 0.46334 0.9549 0.45503 0.0
C416 C 0.58292 0.10684 0.41943 0.0
C417 C 0.59409 0.13654 0.41511 0.0
C418 C 0.60368 0.14458 0.39431 0.0
C419 C 0.60114 0.12346 0.37702 0.0
C420 C 0.58876 0.09407 0.38115 0.0
C421 C 0.58021 0.08564 0.40213 0.0
C422 C 0.60802 0.09499 0.45304 0.0
C423 C 0.63214 0.07677 0.44451 0.0
C424 C 0.66226 0.07976 0.45246 0.0
C425 C 0.66905 0.10109 0.46902 0.0
C426 C 0.64481 0.11839 0.47814 0.0
C427 C 0.61454 0.11521 0.47027 0.0
C428 C 0.55557 0.07455 0.44581 0.0
C429 C 0.52452 0.08366 0.44759 0.0
C430 C 0.50079 0.06174 0.44878 0.0
C431 C 0.50761 0.03005 0.44815 0.0
C432 C 0.53885 0.02091 0.44711 0.0
C433 C 0.56255 0.04284 0.44595 0.0
H434 H 0.05522 0.88108 0.66218 0.0
N435 N 0.08131 0.92542 0.68848 0.0
H436 H 0.06769 0.87101 0.62436 0.0
H437 H 0.1207 0.95621 0.66356 0.0
H438 H 0.1336 0.94587 0.62543 0.0
H439 H 0.13491 0.91439 0.70782 0.0
H440 H 0.15156 0.86612 0.72458 0.0
H441 H 0.04286 0.87744 0.70001 0.0
H442 H 0.05967 0.82883 0.71553 0.0
H443 H 0.02002 0.91421 0.679 0.0
H444 H 0.08261 0.9805 0.70744 0.0
H445 H 0.97774 0.95074 0.68216 0.0
H446 H 0.04029 0.018 0.70991 0.0
H447 H 0.85698 0.07247 0.66637 0.0
H448 H 0.84444 0.08621 0.62875 0.0
H449 H 0.93673 0.12251 0.62054 0.0
H450 H 0.9494 0.10805 0.6578 0.0
H451 H 0.95949 0.12021 0.69468 0.0
H452 H 0.95553 0.17253 0.70919 0.0
H453 H 0.85794 0.15826 0.72093 0.0
H454 H 0.86258 0.10547 0.70758 0.0
H455 H 0.92554 0.03468 0.65904 0.0
H456 H 0.96533 0.99627 0.66263 0.0
H457 H 0.9898 0.03285 0.72554 0.0
N458 N 0.91052 0.08094 0.68709 0.0
H459 H 0.94995 0.07226 0.7219 0.0
C460 C 0.08713 0.91955 0.66582 0.0
C461 C 0.07226 0.8955 0.65443 0.0
C462 C 0.07962 0.8895 0.63279 0.0
C463 C 0.10194 0.90735 0.6221 0.0
C464 C 0.11635 0.93171 0.63334 0.0
C465 C 0.10903 0.93766 0.65503 0.0
C466 C 0.08782 0.89962 0.70241 0.0
C467 C 0.11817 0.89608 0.71005 0.0
C468 C 0.12776 0.86832 0.71926 0.0
C469 C 0.1072 0.84329 0.72068 0.0
C470 C 0.07615 0.84759 0.7145 0.0
C471 C 0.06648 0.87553 0.70554 0.0
C472 C 0.05472 0.9445 0.69311 0.0
C473 C 0.02469 0.93635 0.68636 0.0
C474 C 1.00044 0.95756 0.68792 0.0
C475 C 0.00567 0.98757 0.69596 0.0
C476 C 0.03535 0.99509 0.70376 0.0
C477 C 0.05958 0.97373 0.70233 0.0
C478 C 0.90392 0.08939 0.66492 0.0
C479 C 0.8744 0.08344 0.65642 0.0
C480 C 0.8673 0.09132 0.63507 0.0
C481 C 0.88954 0.10575 0.62199 0.0
C482 C 0.91906 0.11194 0.6305 0.0
C483 C 0.92629 0.10368 0.65175 0.0
C484 C 0.91128 0.10865 0.70026 0.0
C485 C 0.93752 0.12791 0.70115 0.0
C486 C 0.93513 0.158 0.70925 0.0
C487 C 0.90639 0.16973 0.71621 0.0
C488 C 0.88061 0.14992 0.71628 0.0
C489 C 0.88318 0.11967 0.70859 0.0
C490 C 0.93568 0.05863 0.68937 0.0
C491 C 0.93981 0.03545 0.67346 0.0
C492 C 0.96236 0.01275 0.67571 0.0
C493 C 0.98104 0.01153 0.6943 0.0
C494 C 0.97629 0.03358 0.71076 0.0
C495 C 0.95353 0.05646 0.70852 0.0
Co496 Co 0.34138 0.65988 0.00665 0.0
O497 O 0.31241 0.62703 0.00085 0.0
O498 O 0.30386 0.67647 0.99422 0.0
C499 C 0.35346 0.64472 0.04053 0.0
O500 O 0.36478 0.70042 0.01114 0.0
Co501 Co 0.41065 0.64691 0.01552 0.0
O502 O 0.4117 0.69049 0.02515 0.0
C503 C 0.38692 0.64366 0.97067 0.0
C504 C 0.29366 0.64826 0.99408 0.0
C505 C 0.39043 0.70932 0.01984 0.0
O506 O 0.36038 0.6537 0.97707 0.0
O507 O 0.40937 0.63794 0.9836 0.0
O508 O 0.32879 0.66101 0.03691 0.0
O509 O 0.36865 0.63613 0.0235 0.0
Co510 Co 0.35166 0.85601 0.24135 0.0
O511 O 0.32532 0.89163 0.24256 0.0
O512 O 0.311 0.84451 0.25184 0.0
C513 C 0.37049 0.86589 0.20803 0.0
O514 O 0.37166 0.81336 0.24101 0.0
Co515 Co 0.42274 0.86253 0.23851 0.0
O516 O 0.42231 0.81748 0.23323 0.0
C517 C 0.3914 0.87563 0.27966 0.0
C518 C 0.30366 0.87335 0.24932 0.0
C519 C 0.39817 0.80129 0.23652 0.0
O520 O 0.36611 0.86438 0.27196 0.0
O521 O 0.41599 0.87938 0.26847 0.0
O522 O 0.34396 0.85219 0.2104 0.0
O523 O 0.38365 0.87516 0.22574 0.0
Co524 Co 0.15228 0.84272 0.49494 0.0
O525 O 0.12065 0.81179 0.49858 0.0
O526 O 0.16981 0.80626 0.50789 0.0
C527 C 0.13988 0.85553 0.46077 0.0
O528 O 0.19191 0.86819 0.49267 0.0
Co529 Co 0.13632 0.91134 0.48684 0.0
O530 O 0.18057 0.91437 0.47847 0.0
C531 C 0.13019 0.88588 0.53091 0.0
C532 C 0.14222 0.79436 0.50659 0.0
C533 C 0.20015 0.89411 0.48438 0.0
O534 O 0.14269 0.8605 0.52448 0.0
O535 O 0.12384 0.90807 0.51804 0.0
O536 O 0.15681 0.83138 0.46448 0.0
O537 O 0.12875 0.86923 0.47767 0.0
Co538 Co 0.1588 0.67182 0.75659 0.0
O539 O 0.12532 0.70066 0.75295 0.0
O540 O 0.17431 0.70992 0.74465 0.0
C541 C 0.14549 0.65709 0.79029 0.0
O542 O 0.19986 0.64878 0.75916 0.0
Co543 Co 0.14612 0.60204 0.76269 0.0
O544 O 0.19115 0.59956 0.76861 0.0
C545 C 0.13884 0.62974 0.71953 0.0
C546 C 0.1459 0.71979 0.74567 0.0
C547 C 0.2095 0.62183 0.76466 0.0
O548 O 0.15141 0.65478 0.72654 0.0
O549 O 0.13216 0.60711 0.73191 0.0
O550 O 0.16117 0.6823 0.78731 0.0
O551 O 0.13631 0.64318 0.77288 0.0
Co552 Co 0.85156 0.17271 0.49417 0.0
O553 O 0.88556 0.20033 0.4999 0.0
O554 O 0.83624 0.21093 0.50644 0.0
C555 C 0.86666 0.15946 0.46047 0.0
O556 O 0.81009 0.15051 0.48986 0.0
Co557 Co 0.86333 0.10306 0.4864 0.0
O558 O 0.81841 0.10109 0.4804 0.0
C559 C 0.86706 0.12833 0.5307 0.0
C560 C 0.86501 0.21983 0.50681 0.0
C561 C 0.80023 0.12353 0.48425 0.0
O562 O 0.85669 0.15436 0.52393 0.0
O563 O 0.87327 0.10567 0.51807 0.0
O564 O 0.85144 0.18483 0.46382 0.0
O565 O 0.87458 0.14434 0.47758 0.0
Co566 Co 0.84405 0.35431 0.74294 0.0
O567 O 0.81672 0.38878 0.74814 0.0
O568 O 0.80471 0.33973 0.75357 0.0
C569 C 0.85974 0.36973 0.70989 0.0
O570 O 0.86492 0.31244 0.7388 0.0
Co571 Co 0.9147 0.36207 0.73687 0.0
O572 O 0.91334 0.31887 0.72636 0.0
C573 C 0.88761 0.36633 0.7808 0.0
C574 C 0.7962 0.36846 0.75376 0.0
C575 C 0.89039 0.3017 0.73099 0.0
O576 O 0.86098 0.35834 0.77325 0.0
O577 O 0.91143 0.37061 0.76883 0.0
O578 O 0.83379 0.355 0.71229 0.0
O579 O 0.87434 0.37654 0.72759 0.0
Co580 Co 0.65757 0.34535 0.99197 0.0
O581 O 0.62376 0.3166 0.99509 0.0
O582 O 0.67239 0.30706 0.00401 0.0
C583 C 0.64533 0.3605 0.95823 0.0
O584 O 0.69904 0.36787 0.99008 0.0
Co585 Co 0.64688 0.4153 0.98566 0.0
O586 O 0.69212 0.41736 0.98063 0.0
C587 C 0.63646 0.38755 0.0285 0.0
C588 C 0.64397 0.29727 0.00263 0.0
C589 C 0.70964 0.39454 0.98477 0.0
O590 O 0.64907 0.3623 0.0219 0.0
O591 O 0.63109 0.41029 0.01594 0.0
O592 O 0.66089 0.33523 0.96123 0.0
O593 O 0.63577 0.37434 0.97553 0.0
Co594 Co 0.66253 0.16641 0.25786 0.0
O595 O 0.62698 0.19218 0.2537 0.0
O596 O 0.67493 0.20525 0.24504 0.0
C597 C 0.6499 0.15309 0.29188 0.0
O598 O 0.70521 0.1464 0.26088 0.0
Co599 Co 0.65501 0.09663 0.26548 0.0
O600 O 0.69983 0.09741 0.27191 0.0
C601 C 0.64786 0.12099 0.22135 0.0
C602 C 0.64578 0.21275 0.24611 0.0
C603 C 0.71667 0.12057 0.26731 0.0
O604 O 0.65644 0.14771 0.22819 0.0
O605 O 0.64379 0.09798 0.23392 0.0
O606 O 0.66415 0.17885 0.2881 0.0
O607 O 0.64174 0.1372 0.27502 0.0
C608 C 0.22572 0.88407 0.27667 0.0
C609 C 0.21516 0.91205 0.26785 0.0
C610 C 0.2538 0.87085 0.26994 0.0
C611 C 0.2724 0.88534 0.25432 0.0
H612 H 0.21299 0.87311 0.28964 0.0
H613 H 0.26167 0.84997 0.27776 0.0
S614 S 0.25259 0.95604 0.22369 0.0
N615 N 0.2235 0.95155 0.24073 0.0
N616 N 0.2765 0.92715 0.22837 0.0
C617 C 0.26118 0.91229 0.24447 0.0
C618 C 0.23251 0.92553 0.25116 0.0
C619 C 0.1002 0.71798 0.51334 0.0
C620 C 0.12167 0.69991 0.52476 0.0
C621 C 0.10703 0.7485 0.50767 0.0
C622 C 0.13557 0.7622 0.51324 0.0
H623 H 0.07803 0.70836 0.5086 0.0
H624 H 0.08982 0.76135 0.4987 0.0
S625 S 0.19875 0.7254 0.54465 0.0
N626 N 0.17192 0.69842 0.54254 0.0
N627 N 0.18493 0.7556 0.53168 0.0
C628 C 0.15709 0.74448 0.52492 0.0
C629 C 0.15011 0.71342 0.53071 0.0
C630 C 0.29462 0.63564 0.77732 0.0
C631 C 0.30734 0.60581 0.77609 0.0
C632 C 0.26318 0.64089 0.77282 0.0
C633 C 0.24327 0.61645 0.76708 0.0
H634 H 0.30874 0.65487 0.78269 0.0
H635 H 0.25417 0.66404 0.77474 0.0
S636 S 0.26638 0.53487 0.75835 0.0
N637 N 0.29851 0.55222 0.76628 0.0
N638 N 0.23945 0.56186 0.75812 0.0
C639 C 0.25614 0.5868 0.76469 0.0
C640 C 0.28813 0.58154 0.76913 0.0
C641 C 0.38759 0.79643 0.0122 0.0
C642 C 0.40973 0.8072 0.02718 0.0
C643 C 0.38102 0.76479 0.01014 0.0
C644 C 0.39632 0.74281 0.02302 0.0
H645 H 0.37551 0.81253 0.00184 0.0
H646 H 0.36422 0.75751 -0.0019 0.0
S647 S 0.45341 0.75968 0.06659 0.0
N648 N 0.44487 0.79373 0.05642 0.0
N649 N 0.43286 0.73452 0.05248 0.0
C650 C 0.41786 0.75348 0.03849 0.0
C651 C 0.42448 0.78558 0.04058 0.0
C652 C 0.22535 0.60514 0.97014 0.0
C653 C 0.19966 0.6225 0.97728 0.0
C654 C 0.25571 0.61378 0.97551 0.0
C655 C 0.26164 0.64053 0.98773 0.0
H656 H 0.22207 0.58489 0.96006 0.0
H657 H 0.27474 0.59962 0.96981 0.0
S658 S 0.20317 0.69285 0.01185 0.0
N659 N 0.18258 0.66662 -0.00126 0.0
N660 N 0.23979 0.68364 0.00768 0.0
C661 C 0.23644 0.65814 0.995 0.0
C662 C 0.20544 0.64895 0.99005 0.0
C663 C 0.43447 0.72163 0.23343 0.0
C664 C 0.4095 0.70252 0.22755 0.0
C665 C 0.43035 0.75331 0.23689 0.0
C666 C 0.40105 0.76724 0.23471 0.0
H667 H 0.45755 0.71211 0.23498 0.0
H668 H 0.45048 0.76707 0.24103 0.0
S669 S 0.328 0.72736 0.2196 0.0
N670 N 0.35434 0.6998 0.21966 0.0
N671 N 0.34648 0.75922 0.22661 0.0
C672 C 0.37566 0.74823 0.22948 0.0
C673 C 0.37991 0.71595 0.2258 0.0
C674 C 0.2739 0.92934 0.46193 0.0
C675 C 0.29758 0.91399 0.47323 0.0
C676 C 0.24263 0.92297 0.46588 0.0
C677 C 0.2336 0.90079 0.48121 0.0
H678 H 0.27955 0.94589 0.44946 0.0
H679 H 0.22541 0.9351 0.45642 0.0
S680 S 0.28653 0.85577 0.51638 0.0
N681 N 0.30987 0.87696 0.50138 0.0
N682 N 0.25103 0.86448 0.50856 0.0
C683 C 0.25702 0.88559 0.49292 0.0
C684 C 0.28897 0.8923 0.489 0.0
C685 C 0.1007 0.79457 0.74197 0.0
C686 C 0.1183 0.8123 0.72746 0.0
C687 C 0.10988 0.76473 0.74773 0.0
C688 C 0.13714 0.7515 0.73936 0.0
H689 H 0.07965 0.80384 0.74896 0.0
H690 H 0.09554 0.752 0.75897 0.0
S691 S 0.19048 0.78737 0.69975 0.0
N692 N 0.16353 0.8137 0.70397 0.0
N693 N 0.18117 0.75798 0.71533 0.0
C694 C 0.15502 0.76891 0.72488 0.0
C695 C 0.14551 0.79921 0.71881 0.0
C696 C 0.72807 0.41296 0.77667 0.0
C697 C 0.70227 0.39659 0.76856 0.0
C698 C 0.75845 0.40385 0.77171 0.0
C699 C 0.76415 0.37761 0.75892 0.0
H700 H 0.72487 0.43258 0.78736 0.0
H701 H 0.7776 0.41702 0.77835 0.0
S702 S 0.70535 0.3286 0.73174 0.0
N703 N 0.68492 0.35451 0.74522 0.0
N704 N 0.742 0.33653 0.73701 0.0
C705 C 0.7388 0.3613 0.75041 0.0
C706 C 0.70788 0.37099 0.75495 0.0
C707 C 0.64902 0.21703 0.02681 0.0
C708 C 0.61957 0.20435 0.02261 0.0
C709 C 0.65665 0.24698 0.02025 0.0
C710 C 0.63513 0.26559 0.00929 0.0
H711 H 0.66623 0.20388 0.03557 0.0
H712 H 0.67957 0.25567 0.02402 0.0
S713 S 0.55533 0.24269 0.99331 0.0
N714 N 0.5692 0.21224 0.00598 0.0
N715 N 0.58326 0.26869 0.99392 0.0
C716 C 0.60563 0.25311 0.00482 0.0
C717 C 0.59792 0.22251 0.01143 0.0
C718 C 0.79547 0.08241 0.27261 0.0
C719 C 0.81572 0.10738 0.27585 0.0
C720 C 0.76371 0.08706 0.26941 0.0
C721 C 0.75078 0.1169 0.26929 0.0
H722 H 0.80419 0.059 0.27285 0.0
H723 H 0.74913 0.06695 0.26723 0.0
S724 S 0.79389 0.19016 0.27716 0.0
N725 N 0.82065 0.16311 0.27886 0.0
N726 N 0.76099 0.17189 0.27246 0.0
C727 C 0.7709 0.14217 0.27197 0.0
C728 C 0.80332 0.1374 0.27535 0.0
C729 C 0.86552 0.30674 0.51359 0.0
C730 C 0.89321 0.31229 0.52513 0.0
C731 C 0.85603 0.27668 0.50827 0.0
C732 C 0.87416 0.25108 0.51391 0.0
H733 H 0.85116 0.32579 0.50842 0.0
H734 H 0.83478 0.27352 0.49917 0.0
S735 S 0.94691 0.2523 0.54579 0.0
N736 N 0.93715 0.28894 0.5436 0.0
N737 N 0.92008 0.23275 0.53248 0.0
C738 C 0.90164 0.2561 0.52557 0.0
C739 C 0.91099 0.2866 0.53143 0.0
C740 C 0.71402 0.13688 0.47491 0.0
C741 C 0.70176 0.1068 0.47536 0.0
C742 C 0.74575 0.14232 0.47834 0.0
C743 C 0.76637 0.11783 0.48225 0.0
H744 H 0.69919 0.15624 0.47109 0.0
H745 H 0.75429 0.16573 0.47722 0.0
S746 S 0.74481 0.03526 0.488 0.0
N747 N 0.71194 0.05272 0.48212 0.0
N748 N 0.7714 0.06262 0.4885 0.0
C749 C 0.754 0.0878 0.48372 0.0
C750 C 0.72178 0.08236 0.48028 0.0
C751 C 0.91667 0.22514 0.70744 0.0
C752 C 0.90269 0.20324 0.72108 0.0
C753 C 0.91251 0.25683 0.71079 0.0
C754 C 0.89378 0.268 0.72772 0.0
H755 H 0.93052 0.21778 0.69374 0.0
H756 H 0.92369 0.2727 0.69979 0.0
S757 S 0.85358 0.22072 0.76896 0.0
N758 N 0.87079 0.19525 0.75305 0.0
N759 N 0.8621 0.25486 0.75886 0.0
C760 C 0.87974 0.24651 0.74158 0.0
C761 C 0.88439 0.21416 0.73838 0.0
C762 C 0.79371 0.37885 0.97065 0.0
C763 C 0.80824 0.40744 0.97465 0.0
C764 C 0.76204 0.37453 0.9747 0.0
C765 C 0.74356 0.39874 0.98263 0.0
H766 H 0.80662 0.35992 0.96358 0.0
H767 H 0.75173 0.35241 0.97077 0.0
S768 S 0.7709 0.47677 -0.0015 0.0
N769 N 0.80219 0.45927 0.98925 0.0
N770 N 0.7425 0.45146 0.99614 0.0
C771 C 0.75794 0.42707 0.98747 0.0
C772 C 0.79028 0.43134 0.98365 0.0
C773 C 0.59174 0.28086 0.24066 0.0
C774 C 0.6063 0.29938 0.22507 0.0
C775 C 0.6052 0.25334 0.24766 0.0
C776 C 0.63389 0.24326 0.23948 0.0
H777 H 0.56937 0.28736 0.24717 0.0
H778 H 0.59272 0.23964 0.2594 0.0
S779 S 0.68201 0.28364 0.19881 0.0
N780 N 0.65133 0.30594 0.20186 0.0
N781 N 0.67699 0.25441 0.21548 0.0
C782 C 0.64936 0.26208 0.22452 0.0
C783 C 0.63549 0.2901 0.21722 0.0
C784 C 0.10744 0.90247 0.4145 0.0
C785 C 0.13026 0.89937 0.39846 0.0
C786 C 0.11057 0.88772 0.43452 0.0
C787 C 0.1363 0.86889 0.43898 0.0
H788 H 0.08757 0.9172 0.41181 0.0
H789 H 0.09283 0.89132 0.44668 0.0
S790 S 0.20173 0.85238 0.40181 0.0
N791 N 0.17894 0.87565 0.38794 0.0
N792 N 0.18459 0.84734 0.42544 0.0
C793 C 0.15879 0.86484 0.42277 0.0
C794 C 0.15584 0.88028 0.40253 0.0
C795 C 0.10591 0.5979 0.66694 0.0
C796 C 0.12106 0.61527 0.65102 0.0
C797 C 0.11153 0.60312 0.68898 0.0
C798 C 0.13229 0.62618 0.69602 0.0
H799 H 0.09012 0.57958 0.6623 0.0
H800 H 0.09956 0.58876 0.70058 0.0
S801 S 0.17635 0.67935 0.66049 0.0
N802 N 0.15661 0.65726 0.64352 0.0
N803 N 0.16718 0.66742 0.68503 0.0
C804 C 0.14696 0.64436 0.68018 0.0
C805 C 0.14141 0.63877 0.65768 0.0
C806 C 0.42804 0.63595 0.91663 0.0
C807 C 0.40467 0.6247 0.90289 0.0
C808 C 0.42195 0.64233 0.9385 0.0
C809 C 0.39211 0.63828 0.94726 0.0
H810 H 0.45135 0.63912 0.91054 0.0
H811 H 0.44079 0.65047 0.94864 0.0
S812 S 0.32269 0.61053 0.91749 0.0
N813 N 0.35057 0.61036 0.89916 0.0
N814 N 0.33878 0.62306 0.94019 0.0
C815 C 0.36833 0.62787 0.93344 0.0
C816 C 0.37472 0.62084 0.91127 0.0
C817 C 0.37208 0.88407 0.14807 0.0
C818 C 0.40261 0.89419 0.14475 0.0
C819 C 0.36226 0.87403 0.16847 0.0
C820 C 0.38247 0.87422 0.18638 0.0
H821 H 0.35571 0.8838 0.13475 0.0
H822 H 0.3384 0.86673 0.17028 0.0
S823 S 0.46498 0.89823 0.18596 0.0
N824 N 0.45321 0.9033 0.16076 0.0
N825 N 0.43468 0.88491 0.19927 0.0
C826 C 0.41318 0.88406 0.1832 0.0
C827 C 0.42327 0.8939 0.16233 0.0
C828 C 0.11753 0.604 0.83482 0.0
C829 C 0.11782 0.62326 0.85317 0.0
C830 C 0.12686 0.61509 0.81455 0.0
C831 C 0.13733 0.64562 0.81206 0.0
H832 H 0.10948 0.58042 0.83608 0.0
H833 H 0.12575 0.59961 0.80074 0.0
S834 S 0.14405 0.70454 0.85566 0.0
N835 N 0.13027 0.67374 0.86796 0.0
N836 N 0.14832 0.69456 0.82998 0.0
C837 C 0.13849 0.66481 0.83049 0.0
C838 C 0.12856 0.65363 0.85103 0.0
C839 C 0.39441 0.60271 0.08607 0.0
C840 C 0.38065 0.61518 0.10481 0.0
C841 C 0.38578 0.61275 0.06538 0.0
C842 C 0.36302 0.6356 0.06263 0.0
H843 H 0.41171 0.58474 0.0874 0.0
H844 H 0.39676 0.60216 0.05143 0.0
S845 S 0.32187 0.67749 0.1066 0.0
N846 N 0.34462 0.65301 0.11938 0.0
N847 N 0.32801 0.67155 0.08051 0.0
C848 C 0.34947 0.64867 0.08126 0.0
C849 C 0.35836 0.63852 0.10233 0.0
C850 C 0.40388 0.87211 0.34017 0.0
C851 C 0.39957 0.90299 0.34675 0.0
C852 C 0.40037 0.86317 0.31843 0.0
C853 C 0.39237 0.88478 0.30257 0.0
H854 H 0.41007 0.85469 0.35192 0.0
H855 H 0.40439 0.83933 0.31394 0.0
S856 S 0.37837 0.96814 0.31087 0.0
N857 N 0.38693 0.95513 0.33525 0.0
N858 N 0.37987 0.93793 0.29449 0.0
C859 C 0.38755 0.91549 0.3088 0.0
C860 C 0.39119 0.9247 0.33089 0.0
C861 C 0.10889 0.9252 0.58404 0.0
C862 C 0.10966 0.90108 0.59909 0.0
C863 C 0.11545 0.91994 0.56213 0.0
C864 C 0.12329 0.89033 0.55434 0.0
H865 H 0.10276 0.94832 0.58919 0.0
H866 H 0.11444 0.93942 0.55126 0.0
S867 S 0.12951 0.81943 0.5876 0.0
N868 N 0.11956 0.84665 0.60505 0.0
N869 N 0.13183 0.83652 0.56382 0.0
C870 C 0.12442 0.86598 0.56936 0.0
C871 C 0.11757 0.87139 0.59171 0.0
C872 C 0.60258 0.40157 0.91329 0.0
C873 C 0.62044 0.39463 0.89493 0.0
C874 C 0.61125 0.39088 0.93379 0.0
C875 C 0.63768 0.37229 0.9365 0.0
H876 H 0.58184 0.41545 0.91178 0.0
H877 H 0.59678 0.39672 0.94754 0.0
S878 S 0.69215 0.34783 0.89331 0.0
N879 N 0.66583 0.36861 0.88057 0.0
N880 N 0.68182 0.34777 0.91908 0.0
C881 C 0.65571 0.36519 0.91821 0.0
C882 C 0.64717 0.37658 0.89741 0.0
C883 C 0.62642 0.13806 0.16291 0.0
C884 C 0.63056 0.10941 0.15258 0.0
C885 C 0.63255 0.14173 0.18511 0.0
C886 C 0.64239 0.1167 0.19782 0.0
H887 H 0.61854 0.15778 0.15374 0.0
H888 H 0.62902 0.16422 0.19242 0.0
S889 S 0.65669 0.03689 0.17824 0.0
N890 N 0.64524 0.05572 0.15648 0.0
N891 N 0.65642 0.06237 0.19822 0.0
C892 C 0.64659 0.08792 0.1876 0.0
C893 C 0.64079 0.08435 0.16496 0.0
C894 C 0.90259 0.16511 0.40485 0.0
C895 C 0.90054 0.13471 0.39679 0.0
C896 C 0.89094 0.17298 0.42532 0.0
C897 C 0.87753 0.15063 0.43873 0.0
H898 H 0.91357 0.18299 0.39538 0.0
H899 H 0.89312 0.19661 0.4309 0.0
S900 S 0.86405 0.06853 0.42505 0.0
N901 N 0.88142 0.08272 0.40347 0.0
N902 N 0.86153 0.09737 0.44251 0.0
C903 C 0.87519 0.12028 0.43104 0.0
C904 C 0.88623 0.11234 0.40994 0.0
C905 C 0.91368 0.39765 0.66554 0.0
C906 C 0.89401 0.39926 0.64743 0.0
C907 C 0.90243 0.38802 0.68573 0.0
C908 C 0.8713 0.37911 0.68835 0.0
H909 H 0.93779 0.40427 0.66412 0.0
H910 H 0.91828 0.38745 0.69934 0.0
S911 S 0.8109 0.37805 0.64547 0.0
N912 N 0.84235 0.39052 0.6331 0.0
N913 N 0.82119 0.37204 0.67087 0.0
C914 C 0.85159 0.38013 0.67019 0.0
C915 C 0.86295 0.39033 0.64978 0.0
C916 C 0.62927 0.1093 0.3427 0.0
C917 C 0.61286 0.13141 0.35502 0.0
C918 C 0.64115 0.11634 0.32216 0.0
C919 C 0.63782 0.14596 0.31352 0.0
H920 H 0.63337 0.08644 0.34905 0.0
H921 H 0.65347 0.0987 0.31317 0.0
S922 S 0.59488 0.21141 0.33786 0.0
N923 N 0.59181 0.18351 0.35582 0.0
N924 N 0.61595 0.19711 0.3179 0.0
C925 C 0.62148 0.16824 0.32544 0.0
C926 C 0.60859 0.1609 0.34603 0.0
C927 C 0.87344 0.0887 0.58508 0.0
C928 C 0.88255 0.11267 0.59908 0.0
C929 C 0.86835 0.09411 0.56302 0.0
C930 C 0.87165 0.12381 0.55423 0.0
H931 H 0.87092 0.06544 0.59113 0.0
H932 H 0.86171 0.07483 0.55279 0.0
S933 S 0.89402 0.19463 0.58442 0.0
N934 N 0.89411 0.16724 0.60292 0.0
N935 N 0.88397 0.17766 0.56144 0.0
C936 C 0.88006 0.14815 0.56821 0.0
C937 C 0.88573 0.1425 0.59063 0.0
C938 C 0.92474 0.37139 0.83643 0.0
C939 C 0.90077 0.38312 0.84943 0.0
C940 C 0.92012 0.36571 0.8143 0.0
C941 C 0.89119 0.37102 0.80445 0.0
H942 H 0.94748 0.36741 0.84331 0.0
H943 H 0.93943 0.35719 0.80481 0.0
S944 S 0.82053 0.40027 0.83188 0.0
N945 N 0.84694 0.39906 0.85125 0.0
N946 N 0.83793 0.38783 0.80967 0.0
C947 C 0.86674 0.38188 0.81748 0.0
C948 C 0.87164 0.38813 0.83996 0.0
C949 C 0.61159 0.36469 0.08523 0.0
C950 C 0.60236 0.39288 0.09453 0.0
C951 C 0.62355 0.36331 0.06415 0.0
C952 C 0.62646 0.39006 0.05147 0.0
H953 H 0.60925 0.34347 0.09425 0.0
H954 H 0.62974 0.34094 0.05757 0.0
S955 S 0.60643 0.46981 0.06886 0.0
N956 N 0.59749 0.44819 0.08987 0.0
N957 N 0.62023 0.44591 0.05036 0.0
C958 C 0.61801 0.41855 0.06089 0.0
C959 C 0.60593 0.41989 0.08238 0.0
loop_
_geom_bond_atom_site_label_1
_geom_bond_atom_site_label_2
_geom_bond_distance
_geom_bond_site_symmetry_2
_ccdc_geom_bond_type
H0 C27 0.929 . S
N1 C26 1.433 . S
N1 C32 1.435 . S
N1 C38 1.423 . S
H2 C28 0.930 . S
H3 C31 0.931 . S
H4 C30 0.929 . S
H5 C33 0.930 . S
H6 C34 0.932 . S
H7 C37 0.929 . S
H8 C36 0.931 . S
H9 C39 0.929 . S
H10 C43 0.932 . S
H11 C40 0.931 . S
H12 C42 0.929 . S
H13 C45 0.929 . S
H14 C46 0.930 . S
H15 C48 0.929 . S
H16 C49 0.931 . S
H17 C51 0.930 . S
H18 C52 0.932 . S
H19 C54 0.931 . S
H20 C55 0.929 . S
H21 C57 0.929 . S
H22 C58 0.931 . S
H23 C60 0.929 . S
N24 C44 1.433 . S
N24 C50 1.435 . S
N24 C56 1.423 . S
H25 C61 0.932 . S
C26 N1 1.433 . S
C26 C27 1.363 . S
C26 C31 1.370 . S
C27 H0 0.929 . S
C27 C26 1.363 . S
C27 C28 1.385 . S
C28 H2 0.930 . S
C28 C27 1.385 . S
C28 C29 1.357 . S
C29 C28 1.357 . S
C29 C30 1.406 . S
C30 H4 0.929 . S
C30 C29 1.406 . S
C30 C31 1.391 . S
C31 H3 0.931 . S
C31 C26 1.370 . S
C31 C30 1.391 . S
C32 N1 1.435 . S
C32 C33 1.358 . S
C32 C37 1.371 . S
C33 H5 0.930 . S
C33 C32 1.358 . S
C33 C34 1.405 . S
C34 H6 0.932 . S
C34 C33 1.405 . S
C34 C35 1.383 . S
C35 C34 1.383 . S
C35 C36 1.393 . S
C36 H8 0.931 . S
C36 C35 1.393 . S
C36 C37 1.382 . S
C37 H7 0.929 . S
C37 C32 1.371 . S
C37 C36 1.382 . S
C38 N1 1.423 . S
C38 C39 1.362 . S
C38 C43 1.388 . S
C39 H9 0.929 . S
C39 C38 1.362 . S
C39 C40 1.376 1_565 S
C40 H11 0.931 . S
C40 C39 1.376 1_545 S
C40 C41 1.396 . S
C41 C40 1.396 . S
C41 C42 1.348 1_545 S
C41 C59 1.472 . S
C42 H12 0.929 . S
C42 C41 1.348 1_565 S
C42 C43 1.443 . S
C43 H10 0.932 . S
C43 C38 1.388 . S
C43 C42 1.443 . S
C44 N24 1.433 . S
C44 C45 1.363 . S
C44 C49 1.370 . S
C45 H13 0.929 . S
C45 C44 1.363 . S
C45 C46 1.385 . S
C46 H14 0.930 . S
C46 C45 1.385 . S
C46 C47 1.357 . S
C47 C46 1.357 . S
C47 C48 1.406 . S
C48 H15 0.929 . S
C48 C47 1.406 . S
C48 C49 1.391 . S
C49 H16 0.931 . S
C49 C44 1.370 . S
C49 C48 1.391 . S
C50 N24 1.435 . S
C50 C51 1.358 . S
C50 C55 1.371 . S
C51 H17 0.930 . S
C51 C50 1.358 . S
C51 C52 1.405 . S
C52 H18 0.932 . S
C52 C51 1.405 . S
C52 C53 1.383 . S
C53 C52 1.383 . S
C53 C54 1.393 . S
C54 H19 0.931 . S
C54 C53 1.393 . S
C54 C55 1.382 . S
C55 H20 0.929 . S
C55 C50 1.371 . S
C55 C54 1.382 . S
C56 N24 1.423 . S
C56 C57 1.362 . S
C56 C61 1.388 . S
C57 H21 0.929 . S
C57 C56 1.362 . S
C57 C58 1.376 1_655 S
C58 H22 0.931 . S
C58 C57 1.376 1_455 S
C58 C59 1.396 . S
C59 C41 1.472 . S
C59 C58 1.396 . S
C59 C60 1.348 1_455 S
C60 H23 0.929 . S
C60 C59 1.348 1_655 S
C60 C61 1.443 . S
C61 H25 0.932 . S
C61 C56 1.388 . S
C61 C60 1.443 . S
H62 C89 0.929 . S
N63 C88 1.433 . S
N63 C94 1.435 . S
N63 C100 1.423 . S
H64 C90 0.930 . S
H65 C93 0.931 . S
H66 C92 0.929 . S
H67 C95 0.930 . S
H68 C96 0.932 . S
H69 C99 0.929 . S
H70 C98 0.931 . S
H71 C101 0.933 . S
H72 C105 0.932 . S
H73 C102 0.931 . S
H74 C104 0.929 . S
H75 C107 0.929 . S
H76 C108 0.930 . S
H77 C110 0.929 . S
H78 C111 0.931 . S
H79 C113 0.930 . S
H80 C114 0.932 . S
H81 C116 0.931 . S
H82 C117 0.929 . S
H83 C119 0.929 . S
H84 C120 0.931 . S
H85 C122 0.929 . S
N86 C106 1.433 . S
N86 C112 1.435 . S
N86 C118 1.423 . S
H87 C123 0.932 . S
C88 N63 1.433 . S
C88 C89 1.363 . S
C88 C93 1.370 . S
C89 H62 0.929 . S
C89 C88 1.363 . S
C89 C90 1.385 . S
C90 H64 0.930 . S
C90 C89 1.385 . S
C90 C91 1.357 . S
C91 C90 1.357 . S
C91 C92 1.406 . S
C92 H66 0.929 . S
C92 C91 1.406 . S
C92 C93 1.391 . S
C93 H65 0.931 . S
C93 C88 1.370 . S
C93 C92 1.391 . S
C94 N63 1.435 . S
C94 C95 1.358 . S
C94 C99 1.371 . S
C95 H67 0.930 . S
C95 C94 1.358 . S
C95 C96 1.405 . S
C96 H68 0.932 . S
C96 C95 1.405 . S
C96 C97 1.383 . S
C97 C96 1.383 . S
C97 C98 1.393 . S
C98 H70 0.931 . S
C98 C97 1.393 . S
C98 C99 1.382 . S
C99 H69 0.929 . S
C99 C94 1.371 . S
C99 C98 1.382 . S
C100 N63 1.423 . S
C100 C101 1.362 . S
C100 C105 1.388 . S
C101 H71 0.933 . S
C101 C100 1.362 . S
C101 C102 1.376 1_655 S
C102 H73 0.931 . S
C102 C101 1.376 1_455 S
C102 C103 1.396 . S
C103 C102 1.396 . S
C103 C104 1.348 1_455 S
C103 C121 1.472 . S
C104 H74 0.929 . S
C104 C103 1.348 1_655 S
C104 C105 1.443 . S
C105 H72 0.932 . S
C105 C100 1.388 . S
C105 C104 1.443 . S
C106 N86 1.433 . S
C106 C107 1.363 . S
C106 C111 1.370 . S
C107 H75 0.929 . S
C107 C106 1.363 . S
C107 C108 1.385 . S
C108 H76 0.930 . S
C108 C107 1.385 . S
C108 C109 1.357 . S
C109 C108 1.357 . S
C109 C110 1.406 . S
C110 H77 0.929 . S
C110 C109 1.406 . S
C110 C111 1.391 . S
C111 H78 0.931 . S
C111 C106 1.370 . S
C111 C110 1.391 . S
C112 N86 1.435 . S
C112 C113 1.358 . S
C112 C117 1.371 . S
C113 H79 0.930 . S
C113 C112 1.358 . S
C113 C114 1.405 . S
C114 H80 0.932 . S
C114 C113 1.405 . S
C114 C115 1.383 . S
C115 C114 1.383 . S
C115 C116 1.393 . S
C116 H81 0.931 . S
C116 C115 1.393 . S
C116 C117 1.382 . S
C117 H82 0.929 . S
C117 C112 1.371 . S
C117 C116 1.382 . S
C118 N86 1.423 . S
C118 C119 1.362 . S
C118 C123 1.388 . S
C119 H83 0.929 . S
C119 C118 1.362 . S
C119 C120 1.376 . S
C120 H84 0.931 . S
C120 C119 1.376 . S
C120 C121 1.396 . S
C121 C103 1.472 . S
C121 C120 1.396 . S
C121 C122 1.348 . S
C122 H85 0.929 . S
C122 C121 1.348 . S
C122 C123 1.443 . S
C123 H87 0.932 . S
C123 C118 1.388 . S
C123 C122 1.443 . S
H124 C151 0.929 . S
N125 C150 1.433 . S
N125 C156 1.435 . S
N125 C162 1.423 . S
H126 C152 0.930 . S
H127 C155 0.931 . S
H128 C154 0.929 . S
H129 C157 0.930 . S
H130 C158 0.932 . S
H131 C161 0.929 . S
H132 C160 0.931 . S
H133 C163 0.929 . S
H134 C167 0.932 . S
H135 C164 0.931 . S
H136 C166 0.929 . S
H137 C169 0.929 . S
H138 C170 0.930 . S
H139 C172 0.929 . S
H140 C173 0.931 . S
H141 C175 0.930 . S
H142 C176 0.932 . S
H143 C178 0.931 . S
H144 C179 0.929 . S
H145 C181 0.929 . S
H146 C182 0.931 . S
H147 C184 0.929 . S
N148 C168 1.433 . S
N148 C174 1.435 . S
N148 C180 1.423 . S
H149 C185 0.932 . S
C150 N125 1.433 . S
C150 C151 1.363 . S
C150 C155 1.370 . S
C151 H124 0.929 . S
C151 C150 1.363 . S
C151 C152 1.385 . S
C152 H126 0.930 . S
C152 C151 1.385 . S
C152 C153 1.357 . S
C153 C152 1.357 . S
C153 C154 1.406 . S
C154 H128 0.929 . S
C154 C153 1.406 . S
C154 C155 1.391 . S
C155 H127 0.931 . S
C155 C150 1.370 . S
C155 C154 1.391 . S
C156 N125 1.435 . S
C156 C157 1.358 . S
C156 C161 1.371 . S
C157 H129 0.930 . S
C157 C156 1.358 . S
C157 C158 1.405 . S
C158 H130 0.932 . S
C158 C157 1.405 . S
C158 C159 1.383 . S
C159 C158 1.383 . S
C159 C160 1.393 . S
C160 H132 0.931 . S
C160 C159 1.393 . S
C160 C161 1.382 . S
C161 H131 0.929 . S
C161 C156 1.371 . S
C161 C160 1.382 . S
C162 N125 1.423 . S
C162 C163 1.362 . S
C162 C167 1.388 . S
C163 H133 0.929 . S
C163 C162 1.362 . S
C163 C164 1.376 . S
C164 H135 0.931 . S
C164 C163 1.376 . S
C164 C165 1.396 . S
C165 C164 1.396 . S
C165 C166 1.348 . S
C165 C183 1.472 . S
C166 H136 0.929 . S
C166 C165 1.348 . S
C166 C167 1.443 . S
C167 H134 0.932 . S
C167 C162 1.388 . S
C167 C166 1.443 . S
C168 N148 1.433 . S
C168 C169 1.363 . S
C168 C173 1.370 . S
C169 H137 0.929 . S
C169 C168 1.363 . S
C169 C170 1.385 . S
C170 H138 0.930 . S
C170 C169 1.385 . S
C170 C171 1.357 . S
C171 C170 1.357 . S
C171 C172 1.406 . S
C172 H139 0.929 . S
C172 C171 1.406 . S
C172 C173 1.391 . S
C173 H140 0.931 . S
C173 C168 1.370 . S
C173 C172 1.391 . S
C174 N148 1.435 . S
C174 C175 1.358 . S
C174 C179 1.371 . S
C175 H141 0.930 . S
C175 C174 1.358 . S
C175 C176 1.405 . S
C176 H142 0.932 . S
C176 C175 1.405 . S
C176 C177 1.383 . S
C177 C176 1.383 . S
C177 C178 1.393 . S
C178 H143 0.931 . S
C178 C177 1.393 . S
C178 C179 1.382 . S
C179 H144 0.929 . S
C179 C174 1.371 . S
C179 C178 1.382 . S
C180 N148 1.423 . S
C180 C181 1.362 . S
C180 C185 1.388 . S
C181 H145 0.929 . S
C181 C180 1.362 . S
C181 C182 1.376 . S
C182 H146 0.931 . S
C182 C181 1.376 . S
C182 C183 1.396 . S
C183 C165 1.472 . S
C183 C182 1.396 . S
C183 C184 1.348 . S
C184 H147 0.929 . S
C184 C183 1.348 . S
C184 C185 1.443 . S
C185 H149 0.932 . S
C185 C180 1.388 . S
C185 C184 1.443 . S
H186 C213 0.929 . S
N187 C212 1.433 . S
N187 C218 1.435 . S
N187 C224 1.423 . S
H188 C214 0.930 . S
H189 C217 0.931 . S
H190 C216 0.929 . S
H191 C219 0.930 . S
H192 C220 0.932 . S
H193 C223 0.929 . S
H194 C222 0.931 1_556 S
H195 C225 0.929 . S
H196 C229 0.932 . S
H197 C226 0.931 . S
H198 C228 0.929 . S
H199 C231 0.929 . S
H200 C232 0.930 . S
H201 C234 0.929 . S
H202 C235 0.931 . S
H203 C237 0.930 . S
H204 C238 0.932 . S
H205 C240 0.931 1_556 S
H206 C241 0.929 . S
H207 C243 0.929 . S
H208 C244 0.931 1_565 S
H209 C246 0.929 . S
N210 C230 1.433 . S
N210 C236 1.435 . S
N210 C242 1.423 . S
H211 C247 0.932 . S
C212 N187 1.433 . S
C212 C213 1.363 . S
C212 C217 1.370 . S
C213 H186 0.929 . S
C213 C212 1.363 . S
C213 C214 1.385 . S
C214 H188 0.930 . S
C214 C213 1.385 . S
C214 C215 1.357 . S
C215 C214 1.357 . S
C215 C216 1.406 . S
C216 H190 0.929 . S
C216 C215 1.406 . S
C216 C217 1.391 . S
C217 H189 0.931 . S
C217 C212 1.370 . S
C217 C216 1.391 . S
C218 N187 1.435 . S
C218 C219 1.358 . S
C218 C223 1.371 . S
C219 H191 0.930 . S
C219 C218 1.358 . S
C219 C220 1.405 . S
C220 H192 0.932 . S
C220 C219 1.405 . S
C220 C221 1.383 . S
C221 C220 1.383 . S
C221 C222 1.393 . S
C222 H194 0.931 1_554 S
C222 C221 1.393 . S
C222 C223 1.382 . S
C223 H193 0.929 . S
C223 C218 1.371 . S
C223 C222 1.382 . S
C224 N187 1.423 . S
C224 C225 1.362 . S
C224 C229 1.388 . S
C225 H195 0.929 . S
C225 C224 1.362 . S
C225 C226 1.376 . S
C226 H197 0.931 . S
C226 C225 1.376 . S
C226 C227 1.396 . S
C227 C226 1.396 . S
C227 C228 1.348 . S
C227 C245 1.472 1_565 S
C228 H198 0.929 . S
C228 C227 1.348 . S
C228 C229 1.443 . S
C229 H196 0.932 . S
C229 C224 1.388 . S
C229 C228 1.443 . S
C230 N210 1.433 . S
C230 C231 1.363 . S
C230 C235 1.370 . S
C231 H199 0.929 . S
C231 C230 1.363 . S
C231 C232 1.385 . S
C232 H200 0.930 . S
C232 C231 1.385 . S
C232 C233 1.357 . S
C233 C232 1.357 . S
C233 C234 1.406 . S
C234 H201 0.929 . S
C234 C233 1.406 . S
C234 C235 1.391 . S
C235 H202 0.931 . S
C235 C230 1.370 . S
C235 C234 1.391 . S
C236 N210 1.435 . S
C236 C237 1.358 . S
C236 C241 1.371 . S
C237 H203 0.930 . S
C237 C236 1.358 . S
C237 C238 1.405 . S
C238 H204 0.932 . S
C238 C237 1.405 . S
C238 C239 1.383 . S
C239 C238 1.383 . S
C239 C240 1.393 . S
C240 H205 0.931 1_554 S
C240 C239 1.393 . S
C240 C241 1.382 . S
C241 H206 0.929 . S
C241 C236 1.371 . S
C241 C240 1.382 . S
C242 N210 1.423 . S
C242 C243 1.362 . S
C242 C247 1.388 . S
C243 H207 0.929 . S
C243 C242 1.362 . S
C243 C244 1.376 . S
C244 H208 0.931 1_545 S
C244 C243 1.376 . S
C244 C245 1.396 . S
C245 C227 1.472 1_545 S
C245 C244 1.396 . S
C245 C246 1.348 . S
C246 H209 0.929 . S
C246 C245 1.348 . S
C246 C247 1.443 . S
C247 H211 0.932 . S
C247 C242 1.388 . S
C247 C246 1.443 . S
H248 C275 0.929 . S
N249 C274 1.433 . S
N249 C280 1.435 . S
N249 C286 1.423 . S
H250 C276 0.930 . S
H251 C279 0.931 . S
H252 C278 0.929 . S
H253 C281 0.930 . S
H254 C282 0.932 . S
H255 C285 0.929 . S
H256 C284 0.931 1_554 S
H257 C287 0.929 . S
H258 C291 0.932 . S
H259 C288 0.931 . S
H260 C290 0.929 . S
H261 C293 0.929 . S
H262 C294 0.930 . S
H263 C296 0.929 . S
H264 C297 0.931 . S
H265 C299 0.930 . S
H266 C300 0.932 . S
H267 C302 0.931 1_554 S
H268 C303 0.929 . S
H269 C305 0.929 . S
H270 C306 0.931 1_455 S
H271 C308 0.929 . S
N272 C292 1.433 . S
N272 C298 1.435 . S
N272 C304 1.423 . S
H273 C309 0.932 . S
C274 N249 1.433 . S
C274 C275 1.363 . S
C274 C279 1.370 . S
C275 H248 0.929 . S
C275 C274 1.363 . S
C275 C276 1.385 . S
C276 H250 0.930 . S
C276 C275 1.385 . S
C276 C277 1.357 . S
C277 C276 1.357 . S
C277 C278 1.406 . S
C278 H252 0.929 . S
C278 C277 1.406 . S
C278 C279 1.391 . S
C279 H251 0.931 . S
C279 C274 1.370 . S
C279 C278 1.391 . S
C280 N249 1.435 . S
C280 C281 1.358 . S
C280 C285 1.371 . S
C281 H253 0.930 . S
C281 C280 1.358 . S
C281 C282 1.405 . S
C282 H254 0.932 . S
C282 C281 1.405 . S
C282 C283 1.383 . S
C283 C282 1.383 . S
C283 C284 1.393 . S
C284 H256 0.931 1_556 S
C284 C283 1.393 . S
C284 C285 1.382 . S
C285 H255 0.929 . S
C285 C280 1.371 . S
C285 C284 1.382 . S
C286 N249 1.423 . S
C286 C287 1.362 . S
C286 C291 1.388 . S
C287 H257 0.929 . S
C287 C286 1.362 . S
C287 C288 1.376 . S
C288 H259 0.931 . S
C288 C287 1.376 . S
C288 C289 1.396 . S
C289 C288 1.396 . S
C289 C290 1.348 . S
C289 C307 1.472 . S
C290 H260 0.929 . S
C290 C289 1.348 . S
C290 C291 1.443 . S
C291 H258 0.932 . S
C291 C286 1.388 . S
C291 C290 1.443 . S
C292 N272 1.433 . S
C292 C293 1.363 . S
C292 C297 1.370 . S
C293 H261 0.929 . S
C293 C292 1.363 . S
C293 C294 1.385 . S
C294 H262 0.930 . S
C294 C293 1.385 . S
C294 C295 1.357 . S
C295 C294 1.357 . S
C295 C296 1.406 . S
C296 H263 0.929 . S
C296 C295 1.406 . S
C296 C297 1.391 . S
C297 H264 0.931 . S
C297 C292 1.370 . S
C297 C296 1.391 . S
C298 N272 1.435 . S
C298 C299 1.358 . S
C298 C303 1.371 . S
C299 H265 0.930 . S
C299 C298 1.358 . S
C299 C300 1.405 . S
C300 H266 0.932 . S
C300 C299 1.405 . S
C300 C301 1.383 . S
C301 C300 1.383 . S
C301 C302 1.393 . S
C302 H267 0.931 1_556 S
C302 C301 1.393 . S
C302 C303 1.382 . S
C303 H268 0.929 . S
C303 C298 1.371 . S
C303 C302 1.382 . S
C304 N272 1.423 . S
C304 C305 1.362 . S
C304 C309 1.388 . S
C305 H269 0.929 . S
C305 C304 1.362 . S
C305 C306 1.376 . S
C306 H270 0.931 1_655 S
C306 C305 1.376 . S
C306 C307 1.396 1_655 S
C307 C289 1.472 . S
C307 C306 1.396 1_455 S
C307 C308 1.348 1_455 S
C308 H271 0.929 . S
C308 C307 1.348 1_655 S
C308 C309 1.443 . S
C309 H273 0.932 . S
C309 C304 1.388 . S
C309 C308 1.443 . S
H310 C337 0.929 . S
N311 C336 1.433 . S
N311 C342 1.435 . S
N311 C348 1.423 . S
H312 C338 0.930 . S
H313 C341 0.931 . S
H314 C340 0.929 . S
H315 C343 0.930 . S
H316 C344 0.932 . S
H317 C347 0.929 . S
H318 C346 0.931 . S
H319 C349 0.929 . S
H320 C353 0.932 . S
H321 C350 0.931 . S
H322 C352 0.929 . S
H323 C355 0.929 . S
H324 C356 0.930 . S
H325 C358 0.929 . S
H326 C359 0.931 . S
H327 C361 0.930 . S
H328 C362 0.932 . S
H329 C364 0.931 . S
H330 C365 0.929 . S
H331 C367 0.929 . S
H332 C368 0.931 . S
H333 C370 0.929 . S
N334 C354 1.433 . S
N334 C360 1.435 . S
N334 C366 1.423 . S
H335 C371 0.932 . S
C336 N311 1.433 . S
C336 C337 1.363 . S
C336 C341 1.370 . S
C337 H310 0.929 . S
C337 C336 1.363 . S
C337 C338 1.385 . S
C338 H312 0.930 . S
C338 C337 1.385 . S
C338 C339 1.357 . S
C339 C338 1.357 . S
C339 C340 1.406 . S
C340 H314 0.929 . S
C340 C339 1.406 . S
C340 C341 1.391 . S
C341 H313 0.931 . S
C341 C336 1.370 . S
C341 C340 1.391 . S
C342 N311 1.435 . S
C342 C343 1.358 . S
C342 C347 1.371 . S
C343 H315 0.930 . S
C343 C342 1.358 . S
C343 C344 1.405 . S
C344 H316 0.932 . S
C344 C343 1.405 . S
C344 C345 1.383 . S
C345 C344 1.383 . S
C345 C346 1.393 . S
C346 H318 0.931 . S
C346 C345 1.393 . S
C346 C347 1.382 . S
C347 H317 0.929 . S
C347 C342 1.371 . S
C347 C346 1.382 . S
C348 N311 1.423 . S
C348 C349 1.362 . S
C348 C353 1.388 . S
C349 H319 0.929 . S
C349 C348 1.362 . S
C349 C350 1.376 . S
C350 H321 0.931 . S
C350 C349 1.376 . S
C350 C351 1.396 . S
C351 C350 1.396 . S
C351 C352 1.348 . S
C351 C369 1.472 . S
C352 H322 0.929 . S
C352 C351 1.348 . S
C352 C353 1.443 . S
C353 H320 0.932 . S
C353 C348 1.388 . S
C353 C352 1.443 . S
C354 N334 1.433 . S
C354 C355 1.363 . S
C354 C359 1.370 . S
C355 H323 0.929 . S
C355 C354 1.363 . S
C355 C356 1.385 . S
C356 H324 0.930 . S
C356 C355 1.385 . S
C356 C357 1.357 . S
C357 C356 1.357 . S
C357 C358 1.406 . S
C358 H325 0.929 . S
C358 C357 1.406 . S
C358 C359 1.391 . S
C359 H326 0.931 . S
C359 C354 1.370 . S
C359 C358 1.391 . S
C360 N334 1.435 . S
C360 C361 1.358 . S
C360 C365 1.371 . S
C361 H327 0.930 . S
C361 C360 1.358 . S
C361 C362 1.405 . S
C362 H328 0.932 . S
C362 C361 1.405 . S
C362 C363 1.383 . S
C363 C362 1.383 . S
C363 C364 1.393 . S
C364 H329 0.931 . S
C364 C363 1.393 . S
C364 C365 1.382 . S
C365 H330 0.929 . S
C365 C360 1.371 . S
C365 C364 1.382 . S
C366 N334 1.423 . S
C366 C367 1.362 . S
C366 C371 1.388 . S
C367 H331 0.929 . S
C367 C366 1.362 . S
C367 C368 1.376 . S
C368 H332 0.931 . S
C368 C367 1.376 . S
C368 C369 1.396 . S
C369 C351 1.472 . S
C369 C368 1.396 . S
C369 C370 1.348 . S
C370 H333 0.929 . S
C370 C369 1.348 . S
C370 C371 1.443 . S
C371 H335 0.932 . S
C371 C366 1.388 . S
C371 C370 1.443 . S
H372 C399 0.929 . S
N373 C398 1.433 . S
N373 C404 1.435 . S
N373 C410 1.423 . S
H374 C400 0.930 . S
H375 C403 0.931 . S
H376 C402 0.929 . S
H377 C405 0.930 . S
H378 C406 0.932 . S
H379 C409 0.929 . S
H380 C408 0.931 . S
H381 C411 0.929 . S
H382 C415 0.932 . S
H383 C412 0.931 . S
H384 C414 0.929 . S
H385 C417 0.929 . S
H386 C418 0.930 . S
H387 C420 0.929 . S
H388 C421 0.931 . S
H389 C423 0.930 . S
H390 C424 0.932 . S
H391 C426 0.931 . S
H392 C427 0.929 . S
H393 C429 0.929 . S
H394 C430 0.931 . S
H395 C432 0.929 . S
N396 C416 1.433 . S
N396 C422 1.435 . S
N396 C428 1.423 . S
H397 C433 0.932 . S
C398 N373 1.433 . S
C398 C399 1.363 . S
C398 C403 1.370 . S
C399 H372 0.929 . S
C399 C398 1.363 . S
C399 C400 1.385 . S
C400 H374 0.930 . S
C400 C399 1.385 . S
C400 C401 1.357 . S
C401 C400 1.357 . S
C401 C402 1.406 . S
C402 H376 0.929 . S
C402 C401 1.406 . S
C402 C403 1.391 . S
C403 H375 0.931 . S
C403 C398 1.370 . S
C403 C402 1.391 . S
C404 N373 1.435 . S
C404 C405 1.358 . S
C404 C409 1.371 . S
C405 H377 0.930 . S
C405 C404 1.358 . S
C405 C406 1.405 . S
C406 H378 0.932 . S
C406 C405 1.405 . S
C406 C407 1.383 . S
C407 C406 1.383 . S
C407 C408 1.393 . S
C408 H380 0.931 . S
C408 C407 1.393 . S
C408 C409 1.382 . S
C409 H379 0.929 . S
C409 C404 1.371 . S
C409 C408 1.382 . S
C410 N373 1.423 . S
C410 C411 1.362 . S
C410 C415 1.388 . S
C411 H381 0.929 . S
C411 C410 1.362 . S
C411 C412 1.376 1_565 S
C412 H383 0.931 . S
C412 C411 1.376 1_545 S
C412 C413 1.396 . S
C413 C412 1.396 . S
C413 C414 1.348 1_545 S
C413 C431 1.472 . S
C414 H384 0.929 . S
C414 C413 1.348 1_565 S
C414 C415 1.443 . S
C415 H382 0.932 . S
C415 C410 1.388 . S
C415 C414 1.443 . S
C416 N396 1.433 . S
C416 C417 1.363 . S
C416 C421 1.370 . S
C417 H385 0.929 . S
C417 C416 1.363 . S
C417 C418 1.385 . S
C418 H386 0.930 . S
C418 C417 1.385 . S
C418 C419 1.357 . S
C419 C418 1.357 . S
C419 C420 1.406 . S
C420 H387 0.929 . S
C420 C419 1.406 . S
C420 C421 1.391 . S
C421 H388 0.931 . S
C421 C416 1.370 . S
C421 C420 1.391 . S
C422 N396 1.435 . S
C422 C423 1.358 . S
C422 C427 1.371 . S
C423 H389 0.930 . S
C423 C422 1.358 . S
C423 C424 1.405 . S
C424 H390 0.932 . S
C424 C423 1.405 . S
C424 C425 1.383 . S
C425 C424 1.383 . S
C425 C426 1.393 . S
C426 H391 0.931 . S
C426 C425 1.393 . S
C426 C427 1.382 . S
C427 H392 0.929 . S
C427 C422 1.371 . S
C427 C426 1.382 . S
C428 N396 1.423 . S
C428 C429 1.362 . S
C428 C433 1.388 . S
C429 H393 0.929 . S
C429 C428 1.362 . S
C429 C430 1.376 . S
C430 H394 0.931 . S
C430 C429 1.376 . S
C430 C431 1.396 . S
C431 C413 1.472 . S
C431 C430 1.396 . S
C431 C432 1.348 . S
C432 H395 0.929 . S
C432 C431 1.348 . S
C432 C433 1.443 . S
C433 H397 0.932 . S
C433 C428 1.388 . S
C433 C432 1.443 . S
H434 C461 0.929 . S
N435 C460 1.433 . S
N435 C466 1.435 . S
N435 C472 1.423 . S
H436 C462 0.930 . S
H437 C465 0.931 . S
H438 C464 0.929 . S
H439 C467 0.930 . S
H440 C468 0.932 . S
H441 C471 0.929 . S
H442 C470 0.931 . S
H443 C473 0.929 . S
H444 C477 0.932 . S
H445 C474 0.931 . S
H446 C476 0.929 . S
H447 C479 0.929 . S
H448 C480 0.930 . S
H449 C482 0.929 . S
H450 C483 0.931 . S
H451 C485 0.930 . S
H452 C486 0.932 . S
H453 C488 0.931 . S
H454 C489 0.929 . S
H455 C491 0.929 . S
H456 C492 0.931 1_565 S
H457 C494 0.929 . S
N458 C478 1.433 . S
N458 C484 1.435 . S
N458 C490 1.423 . S
H459 C495 0.932 . S
C460 N435 1.433 . S
C460 C461 1.363 . S
C460 C465 1.370 . S
C461 H434 0.929 . S
C461 C460 1.363 . S
C461 C462 1.385 . S
C462 H436 0.930 . S
C462 C461 1.385 . S
C462 C463 1.357 . S
C463 C462 1.357 . S
C463 C464 1.406 . S
C464 H438 0.929 . S
C464 C463 1.406 . S
C464 C465 1.391 . S
C465 H437 0.931 . S
C465 C460 1.370 . S
C465 C464 1.391 . S
C466 N435 1.435 . S
C466 C467 1.358 . S
C466 C471 1.371 . S
C467 H439 0.930 . S
C467 C466 1.358 . S
C467 C468 1.405 . S
C468 H440 0.932 . S
C468 C467 1.405 . S
C468 C469 1.383 . S
C469 C468 1.383 . S
C469 C470 1.393 . S
C470 H442 0.931 . S
C470 C469 1.393 . S
C470 C471 1.382 . S
C471 H441 0.929 . S
C471 C466 1.371 . S
C471 C470 1.382 . S
C472 N435 1.423 . S
C472 C473 1.362 . S
C472 C477 1.388 . S
C473 H443 0.929 . S
C473 C472 1.362 . S
C473 C474 1.376 1_455 S
C474 H445 0.931 . S
C474 C473 1.376 1_655 S
C474 C475 1.396 . S
C475 C474 1.396 . S
C475 C476 1.348 1_655 S
C475 C493 1.472 1_565 S
C476 H446 0.929 . S
C476 C475 1.348 1_455 S
C476 C477 1.443 . S
C477 H444 0.932 . S
C477 C472 1.388 . S
C477 C476 1.443 . S
C478 N458 1.433 . S
C478 C479 1.363 . S
C478 C483 1.370 . S
C479 H447 0.929 . S
C479 C478 1.363 . S
C479 C480 1.385 . S
C480 H448 0.930 . S
C480 C479 1.385 . S
C480 C481 1.357 . S
C481 C480 1.357 . S
C481 C482 1.406 . S
C482 H449 0.929 . S
C482 C481 1.406 . S
C482 C483 1.391 . S
C483 H450 0.931 . S
C483 C478 1.370 . S
C483 C482 1.391 . S
C484 N458 1.435 . S
C484 C485 1.358 . S
C484 C489 1.371 . S
C485 H451 0.930 . S
C485 C484 1.358 . S
C485 C486 1.405 . S
C486 H452 0.932 . S
C486 C485 1.405 . S
C486 C487 1.383 . S
C487 C486 1.383 . S
C487 C488 1.393 . S
C488 H453 0.931 . S
C488 C487 1.393 . S
C488 C489 1.382 . S
C489 H454 0.929 . S
C489 C484 1.371 . S
C489 C488 1.382 . S
C490 N458 1.423 . S
C490 C491 1.362 . S
C490 C495 1.388 . S
C491 H455 0.929 . S
C491 C490 1.362 . S
C491 C492 1.376 . S
C492 H456 0.931 1_545 S
C492 C491 1.376 . S
C492 C493 1.396 . S
C493 C475 1.472 1_545 S
C493 C492 1.396 . S
C493 C494 1.348 . S
C494 H457 0.929 . S
C494 C493 1.348 . S
C494 C495 1.443 . S
C495 H459 0.932 . S
C495 C490 1.388 . S
C495 C494 1.443 . S
Co496 O497 2.211 1_554 S
Co496 O498 2.082 1_554 S
Co496 O500 2.004 . S
Co496 O506 2.021 1_554 S
Co496 O508 2.137 . S
Co496 O509 2.244 . S
O497 Co496 2.211 1_556 S
O497 C504 1.251 . S
O498 Co496 2.082 1_556 S
O498 C504 1.267 . S
C499 O508 1.247 . S
C499 O509 1.272 . S
O500 Co496 2.004 . S
O500 C505 1.259 . S
Co501 O502 2.061 . S
Co501 O507 2.052 1_554 S
Co501 O509 2.135 . S
O502 Co501 2.061 . S
O502 C505 1.235 . S
C503 O506 1.238 . S
C503 O507 1.241 . S
C504 O497 1.251 . S
C504 O498 1.267 . S
C505 O500 1.259 . S
C505 O502 1.235 . S
O506 Co496 2.021 1_556 S
O506 C503 1.238 . S
O507 Co501 2.052 1_556 S
O507 C503 1.241 . S
O508 Co496 2.137 . S
O508 C499 1.247 . S
O509 Co496 2.244 . S
O509 C499 1.272 . S
O509 Co501 2.135 . S
Co510 O511 2.216 . S
Co510 O512 2.091 . S
Co510 O514 2.004 . S
Co510 O520 2.021 . S
Co510 O522 2.137 . S
Co510 O523 2.244 . S
O511 Co510 2.216 . S
O511 C518 1.247 . S
O512 Co510 2.091 . S
O512 C518 1.261 . S
C513 O522 1.247 . S
C513 O523 1.272 . S
O514 Co510 2.004 . S
O514 C519 1.259 . S
Co515 O516 2.061 . S
Co515 O521 2.052 . S
Co515 O523 2.135 . S
O516 Co515 2.061 . S
O516 C519 1.235 . S
C517 O520 1.238 . S
C517 O521 1.241 . S
C518 O511 1.247 . S
C518 O512 1.261 . S
C519 O514 1.259 . S
C519 O516 1.235 . S
O520 Co510 2.021 . S
O520 C517 1.238 . S
O521 Co515 2.052 . S
O521 C517 1.241 . S
O522 Co510 2.137 . S
O522 C513 1.247 . S
O523 Co510 2.244 . S
O523 C513 1.272 . S
O523 Co515 2.135 . S
Co524 O525 2.216 . S
Co524 O526 2.091 . S
Co524 O528 2.004 . S
Co524 O534 2.021 . S
Co524 O536 2.137 . S
Co524 O537 2.244 . S
O525 Co524 2.216 . S
O525 C532 1.247 . S
O526 Co524 2.091 . S
O526 C532 1.261 . S
C527 O536 1.247 . S
C527 O537 1.272 . S
O528 Co524 2.004 . S
O528 C533 1.259 . S
Co529 O530 2.061 . S
Co529 O535 2.052 . S
Co529 O537 2.135 . S
O530 Co529 2.061 . S
O530 C533 1.235 . S
C531 O534 1.238 . S
C531 O535 1.241 . S
C532 O525 1.247 . S
C532 O526 1.261 . S
C533 O528 1.259 . S
C533 O530 1.235 . S
O534 Co524 2.021 . S
O534 C531 1.238 . S
O535 Co529 2.052 . S
O535 C531 1.241 . S
O536 Co524 2.137 . S
O536 C527 1.247 . S
O537 Co524 2.244 . S
O537 C527 1.272 . S
O537 Co529 2.135 . S
Co538 O539 2.216 . S
Co538 O540 2.091 . S
Co538 O542 2.004 . S
Co538 O548 2.021 . S
Co538 O550 2.137 . S
Co538 O551 2.244 . S
O539 Co538 2.216 . S
O539 C546 1.247 . S
O540 Co538 2.091 . S
O540 C546 1.261 . S
C541 O550 1.247 . S
C541 O551 1.272 . S
O542 Co538 2.004 . S
O542 C547 1.259 . S
Co543 O544 2.061 . S
Co543 O549 2.052 . S
Co543 O551 2.135 . S
O544 Co543 2.061 . S
O544 C547 1.235 . S
C545 O548 1.238 . S
C545 O549 1.241 . S
C546 O539 1.247 . S
C546 O540 1.261 . S
C547 O542 1.259 . S
C547 O544 1.235 . S
O548 Co538 2.021 . S
O548 C545 1.238 . S
O549 Co543 2.052 . S
O549 C545 1.241 . S
O550 Co538 2.137 . S
O550 C541 1.247 . S
O551 Co538 2.244 . S
O551 C541 1.272 . S
O551 Co543 2.135 . S
Co552 O553 2.216 . S
Co552 O554 2.091 . S
Co552 O556 2.004 . S
Co552 O562 2.021 . S
Co552 O564 2.137 . S
Co552 O565 2.244 . S
O553 Co552 2.216 . S
O553 C560 1.247 . S
O554 Co552 2.091 . S
O554 C560 1.261 . S
C555 O564 1.247 . S
C555 O565 1.272 . S
O556 Co552 2.004 . S
O556 C561 1.259 . S
Co557 O558 2.061 . S
Co557 O563 2.052 . S
Co557 O565 2.135 . S
O558 Co557 2.061 . S
O558 C561 1.235 . S
C559 O562 1.238 . S
C559 O563 1.241 . S
C560 O553 1.247 . S
C560 O554 1.261 . S
C561 O556 1.259 . S
C561 O558 1.235 . S
O562 Co552 2.021 . S
O562 C559 1.238 . S
O563 Co557 2.052 . S
O563 C559 1.241 . S
O564 Co552 2.137 . S
O564 C555 1.247 . S
O565 Co552 2.244 . S
O565 C555 1.272 . S
O565 Co557 2.135 . S
Co566 O567 2.216 . S
Co566 O568 2.091 . S
Co566 O570 2.004 . S
Co566 O576 2.021 . S
Co566 O578 2.137 . S
Co566 O579 2.244 . S
O567 Co566 2.216 . S
O567 C574 1.247 . S
O568 Co566 2.091 . S
O568 C574 1.261 . S
C569 O578 1.247 . S
C569 O579 1.272 . S
O570 Co566 2.004 . S
O570 C575 1.259 . S
Co571 O572 2.061 . S
Co571 O577 2.052 . S
Co571 O579 2.135 . S
O572 Co571 2.061 . S
O572 C575 1.235 . S
C573 O576 1.238 . S
C573 O577 1.241 . S
C574 O567 1.247 . S
C574 O568 1.261 . S
C575 O570 1.259 . S
C575 O572 1.235 . S
O576 Co566 2.021 . S
O576 C573 1.238 . S
O577 Co571 2.052 . S
O577 C573 1.241 . S
O578 Co566 2.137 . S
O578 C569 1.247 . S
O579 Co566 2.244 . S
O579 C569 1.272 . S
O579 Co571 2.135 . S
Co580 O581 2.216 1_556 S
Co580 O582 2.091 1_556 S
Co580 O584 2.004 . S
Co580 O590 2.021 1_556 S
Co580 O592 2.137 . S
Co580 O593 2.244 . S
O581 Co580 2.216 1_554 S
O581 C588 1.247 . S
O582 Co580 2.091 1_554 S
O582 C588 1.261 . S
C583 O592 1.247 . S
C583 O593 1.272 . S
O584 Co580 2.004 . S
O584 C589 1.259 . S
Co585 O586 2.061 . S
Co585 O591 2.052 1_556 S
Co585 O593 2.135 . S
O586 Co585 2.061 . S
O586 C589 1.235 . S
C587 O590 1.238 . S
C587 O591 1.241 . S
C588 O581 1.247 . S
C588 O582 1.261 . S
C589 O584 1.259 . S
C589 O586 1.235 . S
O590 Co580 2.021 1_554 S
O590 C587 1.238 . S
O591 Co585 2.052 1_554 S
O591 C587 1.241 . S
O592 Co580 2.137 . S
O592 C583 1.247 . S
O593 Co580 2.244 . S
O593 C583 1.272 . S
O593 Co585 2.135 . S
Co594 O595 2.216 . S
Co594 O596 2.091 . S
Co594 O598 2.004 . S
Co594 O604 2.021 . S
Co594 O606 2.137 . S
Co594 O607 2.244 . S
O595 Co594 2.216 . S
O595 C602 1.247 . S
O596 Co594 2.091 . S
O596 C602 1.261 . S
C597 O606 1.247 . S
C597 O607 1.272 . S
O598 Co594 2.004 . S
O598 C603 1.259 . S
Co599 O600 2.061 . S
Co599 O605 2.052 . S
Co599 O607 2.135 . S
O600 Co599 2.061 . S
O600 C603 1.235 . S
C601 O604 1.238 . S
C601 O605 1.241 . S
C602 O595 1.247 . S
C602 O596 1.261 . S
C603 O598 1.259 . S
C603 O600 1.235 . S
O604 Co594 2.021 . S
O604 C601 1.238 . S
O605 Co599 2.052 . S
O605 C601 1.241 . S
O606 Co594 2.137 . S
O606 C597 1.247 . S
O607 Co594 2.244 . S
O607 C597 1.272 . S
O607 Co599 2.135 . S
C608 C609 1.369 . S
C608 C610 1.419 . S
C608 H612 0.930 . S
C609 C608 1.369 . S
C609 C618 1.429 . S
C610 C608 1.419 . S
C610 C611 1.363 . S
C610 H613 0.929 . S
C611 C610 1.363 . S
C611 C617 1.428 . S
H612 C608 0.930 . S
H613 C610 0.929 . S
S614 N615 1.613 . S
S614 N616 1.610 . S
N615 S614 1.613 . S
N615 C618 1.350 . S
N616 S614 1.610 . S
N616 C617 1.351 . S
C617 C611 1.428 . S
C617 N616 1.351 . S
C617 C618 1.434 . S
C618 C609 1.429 . S
C618 N615 1.350 . S
C618 C617 1.434 . S
C619 C620 1.369 . S
C619 C621 1.419 . S
C619 H623 0.930 . S
C620 C619 1.369 . S
C620 C629 1.429 . S
C621 C619 1.419 . S
C621 C622 1.363 . S
C621 H624 0.929 . S
C622 C621 1.363 . S
C622 C628 1.428 . S
H623 C619 0.930 . S
H624 C621 0.929 . S
S625 N626 1.613 . S
S625 N627 1.610 . S
N626 S625 1.613 . S
N626 C629 1.350 . S
N627 S625 1.610 . S
N627 C628 1.351 . S
C628 C622 1.428 . S
C628 N627 1.351 . S
C628 C629 1.434 . S
C629 C620 1.429 . S
C629 N626 1.350 . S
C629 C628 1.434 . S
C630 C631 1.369 . S
C630 C632 1.419 . S
C630 H634 0.930 . S
C631 C630 1.369 . S
C631 C640 1.429 . S
C632 C630 1.419 . S
C632 C633 1.363 . S
C632 H635 0.929 . S
C633 C632 1.363 . S
C633 C639 1.428 . S
H634 C630 0.930 . S
H635 C632 0.929 . S
S636 N637 1.613 . S
S636 N638 1.610 . S
N637 S636 1.613 . S
N637 C640 1.350 . S
N638 S636 1.610 . S
N638 C639 1.351 . S
C639 C633 1.428 . S
C639 N638 1.351 . S
C639 C640 1.434 . S
C640 C631 1.429 . S
C640 N637 1.350 . S
C640 C639 1.434 . S
C641 C642 1.369 1_556 S
C641 C643 1.419 . S
C641 H645 0.930 . S
C642 C641 1.369 1_554 S
C642 C651 1.429 . S
C643 C641 1.419 . S
C643 C644 1.363 1_556 S
C643 H646 0.929 . S
C644 C643 1.363 1_554 S
C644 C650 1.428 . S
H645 C641 0.930 . S
H646 C643 0.929 . S
S647 N648 1.613 . S
S647 N649 1.610 . S
N648 S647 1.613 . S
N648 C651 1.350 . S
N649 S647 1.610 . S
N649 C650 1.351 . S
C650 C644 1.428 . S
C650 N649 1.351 . S
C650 C651 1.434 . S
C651 C642 1.429 . S
C651 N648 1.350 . S
C651 C650 1.434 . S
C652 C653 1.369 . S
C652 C654 1.419 . S
C652 H656 0.930 . S
C653 C652 1.369 . S
C653 C662 1.429 1_554 S
C654 C652 1.419 . S
C654 C655 1.363 1_554 S
C654 H657 0.929 . S
C655 C654 1.363 1_556 S
C655 C661 1.428 . S
H656 C652 0.930 . S
H657 C654 0.929 . S
S658 N659 1.613 . S
S658 N660 1.610 . S
N659 S658 1.613 . S
N659 C662 1.350 . S
N660 S658 1.610 . S
N660 C661 1.351 . S
C661 C655 1.428 . S
C661 N660 1.351 . S
C661 C662 1.434 . S
C662 C653 1.429 1_556 S
C662 N659 1.350 . S
C662 C661 1.434 . S
C663 C664 1.369 . S
C663 C665 1.419 . S
C663 H667 0.930 . S
C664 C663 1.369 . S
C664 C673 1.429 . S
C665 C663 1.419 . S
C665 C666 1.363 . S
C665 H668 0.929 . S
C666 C665 1.363 . S
C666 C672 1.428 . S
H667 C663 0.930 . S
H668 C665 0.929 . S
S669 N670 1.613 . S
S669 N671 1.610 . S
N670 S669 1.613 . S
N670 C673 1.350 . S
N671 S669 1.610 . S
N671 C672 1.351 . S
C672 C666 1.428 . S
C672 N671 1.351 . S
C672 C673 1.434 . S
C673 C664 1.429 . S
C673 N670 1.350 . S
C673 C672 1.434 . S
C674 C675 1.369 . S
C674 C676 1.419 . S
C674 H678 0.930 . S
C675 C674 1.369 . S
C675 C684 1.429 . S
C676 C674 1.419 . S
C676 C677 1.363 . S
C676 H679 0.929 . S
C677 C676 1.363 . S
C677 C683 1.428 . S
H678 C674 0.930 . S
H679 C676 0.929 . S
S680 N681 1.613 . S
S680 N682 1.610 . S
N681 S680 1.613 . S
N681 C684 1.350 . S
N682 S680 1.610 . S
N682 C683 1.351 . S
C683 C677 1.428 . S
C683 N682 1.351 . S
C683 C684 1.434 . S
C684 C675 1.429 . S
C684 N681 1.350 . S
C684 C683 1.434 . S
C685 C686 1.369 . S
C685 C687 1.419 . S
C685 H689 0.930 . S
C686 C685 1.369 . S
C686 C695 1.429 . S
C687 C685 1.419 . S
C687 C688 1.363 . S
C687 H690 0.929 . S
C688 C687 1.363 . S
C688 C694 1.428 . S
H689 C685 0.930 . S
H690 C687 0.929 . S
S691 N692 1.613 . S
S691 N693 1.610 . S
N692 S691 1.613 . S
N692 C695 1.350 . S
N693 S691 1.610 . S
N693 C694 1.351 . S
C694 C688 1.428 . S
C694 N693 1.351 . S
C694 C695 1.434 . S
C695 C686 1.429 . S
C695 N692 1.350 . S
C695 C694 1.434 . S
C696 C697 1.369 . S
C696 C698 1.419 . S
C696 H700 0.930 . S
C697 C696 1.369 . S
C697 C706 1.429 . S
C698 C696 1.419 . S
C698 C699 1.363 . S
C698 H701 0.929 . S
C699 C698 1.363 . S
C699 C705 1.428 . S
H700 C696 0.930 . S
H701 C698 0.929 . S
S702 N703 1.613 . S
S702 N704 1.610 . S
N703 S702 1.613 . S
N703 C706 1.350 . S
N704 S702 1.610 . S
N704 C705 1.351 . S
C705 C699 1.428 . S
C705 N704 1.351 . S
C705 C706 1.434 . S
C706 C697 1.429 . S
C706 N703 1.350 . S
C706 C705 1.434 . S
C707 C708 1.368 1_556 S
C707 C709 1.418 1_556 S
C707 H711 0.930 . S
C708 C707 1.368 1_554 S
C708 C717 1.436 . S
C709 C707 1.418 1_554 S
C709 C710 1.363 . S
C709 H712 0.929 . S
C710 C709 1.363 . S
C710 C716 1.428 . S
H711 C707 0.930 . S
H712 C709 0.929 . S
S713 N714 1.613 . S
S713 N715 1.610 . S
N714 S713 1.613 . S
N714 C717 1.350 . S
N715 S713 1.610 . S
N715 C716 1.351 . S
C716 C710 1.428 . S
C716 N715 1.351 . S
C716 C717 1.434 . S
C717 C708 1.436 . S
C717 N714 1.350 . S
C717 C716 1.434 . S
C718 C719 1.369 . S
C718 C720 1.419 . S
C718 H722 0.930 . S
C719 C718 1.369 . S
C719 C728 1.429 . S
C720 C718 1.419 . S
C720 C721 1.363 . S
C720 H723 0.929 . S
C721 C720 1.363 . S
C721 C727 1.428 . S
H722 C718 0.930 . S
H723 C720 0.929 . S
S724 N725 1.613 . S
S724 N726 1.610 . S
N725 S724 1.613 . S
N725 C728 1.350 . S
N726 S724 1.610 . S
N726 C727 1.351 . S
C727 C721 1.428 . S
C727 N726 1.351 . S
C727 C728 1.434 . S
C728 C719 1.429 . S
C728 N725 1.350 . S
C728 C727 1.434 . S
C729 C730 1.369 . S
C729 C731 1.419 . S
C729 H733 0.930 . S
C730 C729 1.369 . S
C730 C739 1.429 . S
C731 C729 1.419 . S
C731 C732 1.363 . S
C731 H734 0.929 . S
C732 C731 1.363 . S
C732 C738 1.428 . S
H733 C729 0.930 . S
H734 C731 0.929 . S
S735 N736 1.613 . S
S735 N737 1.610 . S
N736 S735 1.613 . S
N736 C739 1.350 . S
N737 S735 1.610 . S
N737 C738 1.351 . S
C738 C732 1.428 . S
C738 N737 1.351 . S
C738 C739 1.434 . S
C739 C730 1.429 . S
C739 N736 1.350 . S
C739 C738 1.434 . S
C740 C741 1.369 . S
C740 C742 1.419 . S
C740 H744 0.930 . S
C741 C740 1.369 . S
C741 C750 1.429 . S
C742 C740 1.419 . S
C742 C743 1.363 . S
C742 H745 0.929 . S
C743 C742 1.363 . S
C743 C749 1.428 . S
H744 C740 0.930 . S
H745 C742 0.929 . S
S746 N747 1.613 . S
S746 N748 1.610 . S
N747 S746 1.613 . S
N747 C750 1.350 . S
N748 S746 1.610 . S
N748 C749 1.351 . S
C749 C743 1.428 . S
C749 N748 1.351 . S
C749 C750 1.434 . S
C750 C741 1.429 . S
C750 N747 1.350 . S
C750 C749 1.434 . S
C751 C752 1.369 . S
C751 C753 1.419 . S
C751 H755 0.930 . S
C752 C751 1.369 . S
C752 C761 1.429 . S
C753 C751 1.419 . S
C753 C754 1.363 . S
C753 H756 0.929 . S
C754 C753 1.363 . S
C754 C760 1.428 . S
H755 C751 0.930 . S
H756 C753 0.929 . S
S757 N758 1.613 . S
S757 N759 1.610 . S
N758 S757 1.613 . S
N758 C761 1.350 . S
N759 S757 1.610 . S
N759 C760 1.351 . S
C760 C754 1.428 . S
C760 N759 1.351 . S
C760 C761 1.434 . S
C761 C752 1.429 . S
C761 N758 1.350 . S
C761 C760 1.434 . S
C762 C763 1.333 1_556 S
C762 C764 1.419 . S
C762 H766 0.930 . S
C763 C762 1.333 1_554 S
C763 C772 1.460 . S
C764 C762 1.419 . S
C764 C765 1.363 . S
C764 H767 0.929 . S
C765 C764 1.363 . S
C765 C771 1.428 1_556 S
H766 C762 0.930 . S
H767 C764 0.929 . S
S768 N769 1.613 . S
S768 N770 1.610 . S
N769 S768 1.613 . S
N769 C772 1.350 . S
N770 S768 1.610 . S
N770 C771 1.351 . S
C771 C765 1.428 1_554 S
C771 N770 1.351 . S
C771 C772 1.434 . S
C772 C763 1.460 . S
C772 N769 1.350 . S
C772 C771 1.434 . S
C773 C774 1.369 . S
C773 C775 1.419 . S
C773 H777 0.930 . S
C774 C773 1.369 . S
C774 C783 1.429 . S
C775 C773 1.419 . S
C775 C776 1.363 . S
C775 H778 0.929 . S
C776 C775 1.363 . S
C776 C782 1.428 . S
H777 C773 0.930 . S
H778 C775 0.929 . S
S779 N780 1.613 . S
S779 N781 1.610 . S
N780 S779 1.613 . S
N780 C783 1.350 . S
N781 S779 1.610 . S
N781 C782 1.351 . S
C782 C776 1.428 . S
C782 N781 1.351 . S
C782 C783 1.434 . S
C783 C774 1.429 . S
C783 N780 1.350 . S
C783 C782 1.434 . S
C784 C785 1.369 . S
C784 C786 1.419 . S
C784 H788 0.930 . S
C785 C784 1.369 . S
C785 C794 1.429 . S
C786 C784 1.419 . S
C786 C787 1.363 . S
C786 H789 0.929 . S
C787 C786 1.363 . S
C787 C793 1.428 . S
H788 C784 0.930 . S
H789 C786 0.929 . S
S790 N791 1.613 . S
S790 N792 1.610 . S
N791 S790 1.613 . S
N791 C794 1.350 . S
N792 S790 1.610 . S
N792 C793 1.351 . S
C793 C787 1.428 . S
C793 N792 1.351 . S
C793 C794 1.434 . S
C794 C785 1.429 . S
C794 N791 1.350 . S
C794 C793 1.434 . S
C795 C796 1.369 . S
C795 C797 1.419 . S
C795 H799 0.930 . S
C796 C795 1.369 . S
C796 C805 1.429 . S
C797 C795 1.419 . S
C797 C798 1.363 . S
C797 H800 0.929 . S
C798 C797 1.363 . S
C798 C804 1.428 . S
H799 C795 0.930 . S
H800 C797 0.929 . S
S801 N802 1.613 . S
S801 N803 1.610 . S
N802 S801 1.613 . S
N802 C805 1.350 . S
N803 S801 1.610 . S
N803 C804 1.351 . S
C804 C798 1.428 . S
C804 N803 1.351 . S
C804 C805 1.434 . S
C805 C796 1.429 . S
C805 N802 1.350 . S
C805 C804 1.434 . S
C806 C807 1.369 . S
C806 C808 1.419 . S
C806 H810 0.930 . S
C807 C806 1.369 . S
C807 C816 1.429 . S
C808 C806 1.419 . S
C808 C809 1.363 . S
C808 H811 0.929 . S
C809 C808 1.363 . S
C809 C815 1.428 . S
H810 C806 0.930 . S
H811 C808 0.929 . S
S812 N813 1.613 . S
S812 N814 1.610 . S
N813 S812 1.613 . S
N813 C816 1.350 . S
N814 S812 1.610 . S
N814 C815 1.351 . S
C815 C809 1.428 . S
C815 N814 1.351 . S
C815 C816 1.434 . S
C816 C807 1.429 . S
C816 N813 1.350 . S
C816 C815 1.434 . S
C817 C818 1.369 . S
C817 C819 1.419 . S
C817 H821 0.930 . S
C818 C817 1.369 . S
C818 C827 1.429 . S
C819 C817 1.419 . S
C819 C820 1.363 . S
C819 H822 0.929 . S
C820 C819 1.363 . S
C820 C826 1.428 . S
H821 C817 0.930 . S
H822 C819 0.929 . S
S823 N824 1.613 . S
S823 N825 1.610 . S
N824 S823 1.613 . S
N824 C827 1.350 . S
N825 S823 1.610 . S
N825 C826 1.351 . S
C826 C820 1.428 . S
C826 N825 1.351 . S
C826 C827 1.434 . S
C827 C818 1.429 . S
C827 N824 1.350 . S
C827 C826 1.434 . S
C828 C829 1.369 . S
C828 C830 1.419 . S
C828 H832 0.930 . S
C829 C828 1.369 . S
C829 C838 1.429 . S
C830 C828 1.419 . S
C830 C831 1.363 . S
C830 H833 0.929 . S
C831 C830 1.363 . S
C831 C837 1.428 . S
H832 C828 0.930 . S
H833 C830 0.929 . S
S834 N835 1.613 . S
S834 N836 1.610 . S
N835 S834 1.613 . S
N835 C838 1.350 . S
N836 S834 1.610 . S
N836 C837 1.351 . S
C837 C831 1.428 . S
C837 N836 1.351 . S
C837 C838 1.434 . S
C838 C829 1.429 . S
C838 N835 1.350 . S
C838 C837 1.434 . S
C839 C840 1.369 . S
C839 C841 1.419 . S
C839 H843 0.930 . S
C840 C839 1.369 . S
C840 C849 1.429 . S
C841 C839 1.419 . S
C841 C842 1.363 . S
C841 H844 0.929 . S
C842 C841 1.363 . S
C842 C848 1.428 . S
H843 C839 0.930 . S
H844 C841 0.929 . S
S845 N846 1.613 . S
S845 N847 1.610 . S
N846 S845 1.613 . S
N846 C849 1.350 . S
N847 S845 1.610 . S
N847 C848 1.351 . S
C848 C842 1.428 . S
C848 N847 1.351 . S
C848 C849 1.434 . S
C849 C840 1.429 . S
C849 N846 1.350 . S
C849 C848 1.434 . S
C850 C851 1.369 . S
C850 C852 1.419 . S
C850 H854 0.930 . S
C851 C850 1.369 . S
C851 C860 1.429 . S
C852 C850 1.419 . S
C852 C853 1.363 . S
C852 H855 0.929 . S
C853 C852 1.363 . S
C853 C859 1.428 . S
H854 C850 0.930 . S
H855 C852 0.929 . S
S856 N857 1.613 . S
S856 N858 1.610 . S
N857 S856 1.613 . S
N857 C860 1.350 . S
N858 S856 1.610 . S
N858 C859 1.351 . S
C859 C853 1.428 . S
C859 N858 1.351 . S
C859 C860 1.434 . S
C860 C851 1.429 . S
C860 N857 1.350 . S
C860 C859 1.434 . S
C861 C862 1.369 . S
C861 C863 1.419 . S
C861 H865 0.930 . S
C862 C861 1.369 . S
C862 C871 1.429 . S
C863 C861 1.419 . S
C863 C864 1.363 . S
C863 H866 0.929 . S
C864 C863 1.363 . S
C864 C870 1.428 . S
H865 C861 0.930 . S
H866 C863 0.929 . S
S867 N868 1.613 . S
S867 N869 1.610 . S
N868 S867 1.613 . S
N868 C871 1.350 . S
N869 S867 1.610 . S
N869 C870 1.351 . S
C870 C864 1.428 . S
C870 N869 1.351 . S
C870 C871 1.434 . S
C871 C862 1.429 . S
C871 N868 1.350 . S
C871 C870 1.434 . S
C872 C873 1.369 . S
C872 C874 1.419 . S
C872 H876 0.930 . S
C873 C872 1.369 . S
C873 C882 1.429 . S
C874 C872 1.419 . S
C874 C875 1.363 . S
C874 H877 0.929 . S
C875 C874 1.363 . S
C875 C881 1.428 . S
H876 C872 0.930 . S
H877 C874 0.929 . S
S878 N879 1.613 . S
S878 N880 1.610 . S
N879 S878 1.613 . S
N879 C882 1.350 . S
N880 S878 1.610 . S
N880 C881 1.351 . S
C881 C875 1.428 . S
C881 N880 1.351 . S
C881 C882 1.434 . S
C882 C873 1.429 . S
C882 N879 1.350 . S
C882 C881 1.434 . S
C883 C884 1.369 . S
C883 C885 1.419 . S
C883 H887 0.930 . S
C884 C883 1.369 . S
C884 C893 1.429 . S
C885 C883 1.419 . S
C885 C886 1.363 . S
C885 H888 0.929 . S
C886 C885 1.363 . S
C886 C892 1.428 . S
H887 C883 0.930 . S
H888 C885 0.929 . S
S889 N890 1.613 . S
S889 N891 1.610 . S
N890 S889 1.613 . S
N890 C893 1.350 . S
N891 S889 1.610 . S
N891 C892 1.351 . S
C892 C886 1.428 . S
C892 N891 1.351 . S
C892 C893 1.434 . S
C893 C884 1.429 . S
C893 N890 1.350 . S
C893 C892 1.434 . S
C894 C895 1.369 . S
C894 C896 1.419 . S
C894 H898 0.930 . S
C895 C894 1.369 . S
C895 C904 1.429 . S
C896 C894 1.419 . S
C896 C897 1.363 . S
C896 H899 0.929 . S
C897 C896 1.363 . S
C897 C903 1.428 . S
H898 C894 0.930 . S
H899 C896 0.929 . S
S900 N901 1.613 . S
S900 N902 1.610 . S
N901 S900 1.613 . S
N901 C904 1.350 . S
N902 S900 1.610 . S
N902 C903 1.351 . S
C903 C897 1.428 . S
C903 N902 1.351 . S
C903 C904 1.434 . S
C904 C895 1.429 . S
C904 N901 1.350 . S
C904 C903 1.434 . S
C905 C906 1.369 . S
C905 C907 1.419 . S
C905 H909 0.930 . S
C906 C905 1.369 . S
C906 C915 1.429 . S
C907 C905 1.419 . S
C907 C908 1.363 . S
C907 H910 0.929 . S
C908 C907 1.363 . S
C908 C914 1.428 . S
H909 C905 0.930 . S
H910 C907 0.929 . S
S911 N912 1.613 . S
S911 N913 1.610 . S
N912 S911 1.613 . S
N912 C915 1.350 . S
N913 S911 1.610 . S
N913 C914 1.351 . S
C914 C908 1.428 . S
C914 N913 1.351 . S
C914 C915 1.434 . S
C915 C906 1.429 . S
C915 N912 1.350 . S
C915 C914 1.434 . S
C916 C917 1.369 . S
C916 C918 1.419 . S
C916 H920 0.930 . S
C917 C916 1.369 . S
C917 C926 1.429 . S
C918 C916 1.419 . S
C918 C919 1.363 . S
C918 H921 0.929 . S
C919 C918 1.363 . S
C919 C925 1.428 . S
H920 C916 0.930 . S
H921 C918 0.929 . S
S922 N923 1.613 . S
S922 N924 1.610 . S
N923 S922 1.613 . S
N923 C926 1.350 . S
N924 S922 1.610 . S
N924 C925 1.351 . S
C925 C919 1.428 . S
C925 N924 1.351 . S
C925 C926 1.434 . S
C926 C917 1.429 . S
C926 N923 1.350 . S
C926 C925 1.434 . S
C927 C928 1.369 . S
C927 C929 1.419 . S
C927 H931 0.930 . S
C928 C927 1.369 . S
C928 C937 1.429 . S
C929 C927 1.419 . S
C929 C930 1.363 . S
C929 H932 0.929 . S
C930 C929 1.363 . S
C930 C936 1.428 . S
H931 C927 0.930 . S
H932 C929 0.929 . S
S933 N934 1.613 . S
S933 N935 1.610 . S
N934 S933 1.613 . S
N934 C937 1.350 . S
N935 S933 1.610 . S
N935 C936 1.351 . S
C936 C930 1.428 . S
C936 N935 1.351 . S
C936 C937 1.434 . S
C937 C928 1.429 . S
C937 N934 1.350 . S
C937 C936 1.434 . S
C938 C939 1.369 . S
C938 C940 1.419 . S
C938 H942 0.930 . S
C939 C938 1.369 . S
C939 C948 1.429 . S
C940 C938 1.419 . S
C940 C941 1.363 . S
C940 H943 0.929 . S
C941 C940 1.363 . S
C941 C947 1.428 . S
H942 C938 0.930 . S
H943 C940 0.929 . S
S944 N945 1.613 . S
S944 N946 1.610 . S
N945 S944 1.613 . S
N945 C948 1.350 . S
N946 S944 1.610 . S
N946 C947 1.351 . S
C947 C941 1.428 . S
C947 N946 1.351 . S
C947 C948 1.434 . S
C948 C939 1.429 . S
C948 N945 1.350 . S
C948 C947 1.434 . S
C949 C950 1.369 . S
C949 C951 1.419 . S
C949 H953 0.930 . S
C950 C949 1.369 . S
C950 C959 1.429 . S
C951 C949 1.419 . S
C951 C952 1.363 . S
C951 H954 0.929 . S
C952 C951 1.363 . S
C952 C958 1.428 . S
H953 C949 0.930 . S
H954 C951 0.929 . S
S955 N956 1.613 . S
S955 N957 1.610 . S
N956 S955 1.613 . S
N956 C959 1.350 . S
N957 S955 1.610 . S
N957 C958 1.351 . S
C958 C952 1.428 . S
C958 N957 1.351 . S
C958 C959 1.434 . S
C959 C950 1.429 . S
C959 N956 1.350 . S
C959 C958 1.434 . S
C611 C518 1.586 . S
C609 C35 1.371 . S
C622 C532 1.582 . S
C620 C115 1.375 . S
C633 C547 1.589 . S
C631 C177 1.390 . S
C642 C221 1.353 . S
C644 C505 1.576 . S
C653 C283 1.348 1_554 S
C655 C504 1.577 . S
C664 C363 1.379 . S
C666 C519 1.582 . S
C677 C533 1.627 . S
C675 C407 1.392 . S
C688 C546 1.598 . S
C686 C469 1.366 . S
C697 C159 1.363 . S
C699 C574 1.576 . S
C710 C588 1.612 . S
C708 C239 1.426 . S
C719 C53 1.384 . S
C721 C603 1.589 . S
C732 C560 1.561 . S
C730 C97 1.336 . S
C741 C425 1.397 . S
C743 C561 1.591 . S
C752 C487 1.393 . S
C754 C575 1.584 . S
C765 C589 1.589 . S
C763 C301 1.380 1_554 S
C774 C345 1.375 . S
C776 C602 1.608 . S
C787 C527 1.905 . S
C785 C29 1.900 . S
C798 C545 1.891 . S
C796 C109 1.850 . S
C807 C171 1.861 . S
C809 C503 1.899 . S
C818 C215 1.922 . S
C820 C513 1.921 . S
C829 C277 1.901 . S
C831 C541 1.902 . S
C842 C499 1.916 . S
C840 C357 1.853 . S
C853 C517 1.889 . S
C851 C401 1.909 . S
C864 C531 1.887 . S
C862 C463 1.903 . S
C875 C583 1.902 . S
C873 C153 1.898 . S
C886 C601 1.878 . S
C884 C233 1.846 . S
C895 C47 1.854 . S
C897 C555 1.906 . S
C908 C569 1.904 . S
C906 C91 1.903 . S
C919 C597 1.922 . S
C917 C419 1.859 . S
C928 C481 1.866 . S
C930 C559 1.908 . S
C941 C573 1.900 . S
C939 C295 1.864 . S
C952 C587 1.885 . S
C950 C339 1.908 . S
