# Generated by pormake.
# Topology anh, (6,3)-cn, num edge types: 1
# Building blocks:
#     Node 0, Type 0, BuildingBlock: MIFKUJ_clean_sbu_0, # of connection points: 6
#     Node 1, Type 0, BuildingBlock: MIFKUJ_clean_sbu_0, # of connection points: 6
#     Node 2, Type 0, BuildingBlock: MIFKUJ_clean_sbu_0, # of connection points: 6
#     Node 3, Type 1, BuildingBlock: QEWDON_clean_linker_0, # of connection points: 3
#     Node 4, Type 1, BuildingBlock: QEWDON_clean_linker_0, # of connection points: 3
#     Node 5, Type 1, BuildingBlock: QEWDON_clean_linker_0, # of connection points: 3
#     Node 6, Type 1, BuildingBlock: QEWDON_clean_linker_0, # of connection points: 3
#     Node 7, Type 1, BuildingBlock: QEWDON_clean_linker_0, # of connection points: 3
#     Node 8, Type 1, BuildingBlock: QEWDON_clean_linker_0, # of connection points: 3
#     Edge 9, Type (0, 1), BuildingBlock: CIFDUS_clean_linker_0, # of connection points: 2
#     Edge 10, Type (0, 1), BuildingBlock: CIFDUS_clean_linker_0, # of connection points: 2
#     Edge 11, Type (0, 1), BuildingBlock: CIFDUS_clean_linker_0, # of connection points: 2
#     Edge 12, Type (0, 1), BuildingBlock: CIFDUS_clean_linker_0, # of connection points: 2
#     Edge 13, Type (0, 1), BuildingBlock: CIFDUS_clean_linker_0, # of connection points: 2
#     Edge 14, Type (0, 1), BuildingBlock: CIFDUS_clean_linker_0, # of connection points: 2
#     Edge 15, Type (0, 1), BuildingBlock: CIFDUS_clean_linker_0, # of connection points: 2
#     Edge 16, Type (0, 1), BuildingBlock: CIFDUS_clean_linker_0, # of connection points: 2
#     Edge 17, Type (0, 1), BuildingBlock: CIFDUS_clean_linker_0, # of connection points: 2
#     Edge 18, Type (0, 1), BuildingBlock: CIFDUS_clean_linker_0, # of connection points: 2
#     Edge 19, Type (0, 1), BuildingBlock: CIFDUS_clean_linker_0, # of connection points: 2
#     Edge 20, Type (0, 1), BuildingBlock: CIFDUS_clean_linker_0, # of connection points: 2
#     Edge 21, Type (0, 1), BuildingBlock: CIFDUS_clean_linker_0, # of connection points: 2
#     Edge 22, Type (0, 1), BuildingBlock: CIFDUS_clean_linker_0, # of connection points: 2
#     Edge 23, Type (0, 1), BuildingBlock: CIFDUS_clean_linker_0, # of connection points: 2
#     Edge 24, Type (0, 1), BuildingBlock: CIFDUS_clean_linker_0, # of connection points: 2
#     Edge 25, Type (0, 1), BuildingBlock: CIFDUS_clean_linker_0, # of connection points: 2
#     Edge 26, Type (0, 1), BuildingBlock: CIFDUS_clean_linker_0, # of connection points: 2
# Relax obj value: 0.063
# Max RMSD: 0.126
# Mean RMSD: 0.112
data_MOF--net-anh--node1-MIFKUJ_clean_sbu_0--node2-QEWDON_clean_linker_0--edge1-CIFDUS_clean_linker_0
_symmetry_space_group_name_H-M    P1
_symmetry_Int_Tables_number       1
_symmetry_cell_setting            triclinic
loop_
_symmetry_equiv_pos_as_xyz
'x, y, z'
_cell_length_a     29.829654
_cell_length_b     29.723998
_cell_length_c     39.882102
_cell_angle_alpha  98.528413
_cell_angle_beta   95.382454
_cell_angle_gamma 119.75588
loop_
_atom_site_label
_atom_site_type_symbol
_atom_site_fract_x
_atom_site_fract_y
_atom_site_fract_z
_atom_type_partial_charge
Zn0 Zn 0.12229 0.56683 0.17087 0.0
Zn1 Zn 0.95615 0.46249 0.15153 0.0
C2 C 0.21263 0.56923 0.2021 0.0
O3 O 0.19812 0.58528 0.22922 0.0
C4 C 0.90081 0.52116 0.16917 0.0
O5 O 0.93068 0.54134 0.20016 0.0
O6 O 0.14882 0.64339 0.17111 0.0
O7 O 0.06674 0.52293 0.12978 0.0
O8 O 0.98435 0.46548 0.10691 0.0
C9 C 0.18302 0.66646 0.15313 0.0
O10 O 0.1998 0.63937 0.13484 0.0
O11 O 0.18478 0.55672 0.17229 0.0
C12 C 0.87681 0.37616 0.17256 0.0
O13 O 0.8898 0.41481 0.19934 0.0
O14 O 0.90448 0.38594 0.14929 0.0
O15 O 0.00491 0.49613 0.19949 0.0
O16 O 0.09219 0.55049 0.21305 0.0
O17 O 0.90787 0.49131 0.14676 0.0
C18 C 0.03124 0.49484 0.10319 0.0
C19 C 0.04793 0.52392 0.2217 0.0
Zn20 Zn 0.59756 0.11949 0.49424 0.0
Zn21 Zn 0.49737 0.95655 0.48147 0.0
C22 C 0.69512 0.21036 0.52814 0.0
O23 O 0.66926 0.20182 0.55367 0.0
C24 C 0.39812 0.90257 0.50105 0.0
O25 O 0.42655 0.89458 0.52393 0.0
O26 O 0.56138 0.16124 0.49742 0.0
O27 O 0.57144 0.07504 0.44622 0.0
O28 O 0.51713 0.98812 0.43984 0.0
C29 C 0.5713 0.19144 0.47618 0.0
O30 O 0.60036 0.19002 0.45371 0.0
O31 O 0.67357 0.17701 0.49921 0.0
C32 C 0.52523 0.87388 0.48708 0.0
O33 O 0.56625 0.9095 0.51103 0.0
O34 O 0.49523 0.88699 0.47231 0.0
O35 O 0.53799 0.99789 0.52979 0.0
O36 O 0.59019 0.08481 0.53459 0.0
O37 O 0.42095 0.93207 0.48063 0.0
C38 C 0.54257 0.02856 0.42727 0.0
C39 C 0.57102 0.04434 0.54783 0.0
Zn40 Zn 0.59012 0.50945 0.83049 0.0
Zn41 Zn 0.50719 0.57113 0.84064 0.0
C42 C 0.58886 0.41435 0.8358 0.0
O43 O 0.62382 0.44717 0.86369 0.0
C44 C 0.55576 0.66532 0.81692 0.0
O45 O 0.51582 0.63396 0.79117 0.0
O46 O 0.66861 0.54674 0.83686 0.0
O47 O 0.56434 0.5289 0.78942 0.0
O48 O 0.48716 0.51906 0.79541 0.0
C49 C 0.68871 0.5388 0.81157 0.0
O50 O 0.65767 0.51055 0.78144 0.0
O51 O 0.56671 0.43152 0.81688 0.0
C52 C 0.39906 0.55247 0.82995 0.0
O53 O 0.38251 0.504 0.8128 0.0
O54 O 0.44747 0.58357 0.84345 0.0
O55 O 0.52047 0.55254 0.88511 0.0
O56 O 0.57247 0.52023 0.87737 0.0
O57 O 0.56542 0.64487 0.84036 0.0
C58 C 0.52069 0.52334 0.77677 0.0
C59 C 0.54788 0.53436 0.89649 0.0
H60 H 0.51199 0.10894 0.22696 0.0
C61 C 0.47802 0.07057 0.21414 0.0
C62 C 0.45398 0.03212 0.2335 0.0
C63 C 0.45973 0.05915 0.17823 0.0
H64 H 0.39009 0.95316 0.23181 0.0
C65 C 0.40924 0.98298 0.21703 0.0
C66 C 0.39016 0.97083 0.18141 0.0
C67 C 0.41579 0.00878 0.16206 0.0
C68 C 0.48837 0.09862 0.15745 0.0
H69 H 0.40212 0.9984 0.13433 0.0
C70 C 0.54351 0.13195 0.16634 0.0
C71 C 0.57108 0.16918 0.14703 0.0
C72 C 0.46127 0.10304 0.12845 0.0
H73 H 0.41878 0.07885 0.12114 0.0
C74 C 0.48879 0.1394 0.10872 0.0
H75 H 0.56559 0.12859 0.18799 0.0
C76 C 0.54348 0.1723 0.11786 0.0
H77 H 0.56409 0.20093 0.10266 0.0
H78 H 0.46757 0.14246 0.08647 0.0
H79 H 0.48535 0.53593 0.55733 0.0
C80 C 0.48898 0.50165 0.54927 0.0
C81 C 0.50168 0.47967 0.57463 0.0
C82 C 0.48115 0.47935 0.51386 0.0
H83 H 0.51523 0.41809 0.58484 0.0
C84 C 0.50493 0.43442 0.56493 0.0
C85 C 0.4962 0.41081 0.53004 0.0
C86 C 0.48539 0.43404 0.50466 0.0
C87 C 0.46878 0.50301 0.48644 0.0
H88 H 0.48033 0.4166 0.47774 0.0
C89 C 0.48937 0.55833 0.49189 0.0
C90 C 0.47767 0.58047 0.46594 0.0
C91 C 0.43618 0.47022 0.4544 0.0
H92 H 0.41811 0.42745 0.44941 0.0
C93 C 0.42576 0.49205 0.4283 0.0
H94 H 0.51413 0.5842 0.5164 0.0
C95 C 0.44646 0.54667 0.43387 0.0
H96 H 0.4378 0.56238 0.41299 0.0
H97 H 0.40113 0.4664 0.40368 0.0
H98 H 0.09124 0.57109 0.90792 0.0
C99 C 0.05626 0.57229 0.89976 0.0
C100 C 0.01383 0.5496 0.91685 0.0
C101 C 0.05369 0.59683 0.87252 0.0
H102 H 0.93711 0.53684 0.92107 0.0
C103 C 0.96947 0.55319 0.90741 0.0
C104 C 0.96655 0.57825 0.88093 0.0
C105 C 0.00816 0.59894 0.86307 0.0
C106 C 0.09876 0.62131 0.85447 0.0
H107 H 0.00515 0.61725 0.84209 0.0
C108 C 0.12923 0.59798 0.84826 0.0
C109 C 0.17291 0.62215 0.83234 0.0
C110 C 0.11222 0.66885 0.84383 0.0
H111 H 0.09053 0.68865 0.84879 0.0
C112 C 0.15473 0.69221 0.82727 0.0
H113 H 0.11961 0.56148 0.85628 0.0
C114 C 0.18505 0.6692 0.82162 0.0
H115 H 0.21817 0.68833 0.80899 0.0
H116 H 0.16465 0.72871 0.81918 0.0
H117 H 0.96077 0.54417 0.42845 0.0
C118 C -0.00074 0.57893 0.43963 0.0
C119 C 0.03643 0.5998 0.41849 0.0
C120 C 0.01183 0.60251 0.47517 0.0
H121 H 0.11473 0.6617 0.4168 0.0
C122 C 0.08596 0.64534 0.43303 0.0
C123 C 0.09932 0.66942 0.46833 0.0
C124 C 0.06215 0.64759 0.4893 0.0
C125 C 0.9727 0.5801 0.49767 0.0
H126 H 0.07258 0.66559 0.51669 0.0
C127 C 0.94141 0.52469 0.49439 0.0
C128 C 0.90484 0.50361 0.51601 0.0
C129 C 0.96673 0.61421 0.52283 0.0
H130 H 0.98961 0.65692 0.52567 0.0
C131 C 0.93055 0.59357 0.54428 0.0
H132 H 0.94636 0.49802 0.47556 0.0
C133 C 0.89979 0.53874 0.54096 0.0
H134 H 0.87135 0.52382 0.55755 0.0
H135 H 0.92606 0.62019 0.56341 0.0
H136 H 0.55674 0.99797 0.76002 0.0
C137 C 0.56465 0.03728 0.77113 0.0
C138 C 0.56908 0.0711 0.74893 0.0
C139 C 0.5705 0.05396 0.80711 0.0
H140 H 0.57905 0.14689 0.74524 0.0
C141 C 0.57653 0.1211 0.7625 0.0
C142 C 0.58048 0.1381 0.79795 0.0
C143 C 0.57895 0.105 0.8202 0.0
C144 C 0.56669 0.01771 0.83065 0.0
H145 H 0.58383 0.11912 0.84766 0.0
C146 C 0.57964 0.97831 0.82171 0.0
C147 C 0.57231 0.9416 0.84236 0.0
C148 C 0.5482 0.02074 0.86169 0.0
H149 H 0.53613 0.04893 0.86932 0.0
C150 C 0.54332 0.98604 0.88308 0.0
H151 H 0.59522 0.97554 0.79857 0.0
C152 C 0.55494 0.94652 0.87346 0.0
H153 H 0.54833 0.91853 0.88973 0.0
H154 H 0.52889 0.98878 0.90676 0.0
H155 H 0.55501 0.607 0.11947 0.0
C156 C 0.58747 0.6017 0.12743 0.0
C157 C 0.61189 0.58925 0.10223 0.0
C158 C 0.60496 0.60792 0.16277 0.0
H159 H 0.67572 0.57727 0.09366 0.0
C160 C 0.65497 0.58401 0.11282 0.0
C161 C 0.67256 0.58885 0.14784 0.0
C162 C 0.64713 0.60063 0.17264 0.0
C163 C 0.58019 0.62364 0.1893 0.0
H164 H 0.65965 0.60329 0.19961 0.0
C165 C 0.52579 0.60491 0.18275 0.0
C166 C 0.50301 0.62259 0.20679 0.0
C167 C 0.6113 0.65941 0.22085 0.0
H168 H 0.65335 0.67552 0.22657 0.0
C169 C 0.58882 0.67625 0.24507 0.0
H170 H 0.50098 0.57626 0.15901 0.0
C171 C 0.53522 0.65834 0.23809 0.0
H172 H 0.51931 0.67355 0.25693 0.0
H173 H 0.61327 0.70417 0.26911 0.0
H174 H 0.27349 0.5747 0.15399 0.0
H175 H 0.26525 0.56749 0.26068 0.0
H176 H 0.35267 0.57922 0.27081 0.0
H177 H 0.43364 0.59725 0.25058 0.0
H178 H 0.44487 0.61027 0.14496 0.0
H179 H 0.35399 0.58943 0.13307 0.0
C180 C 0.29059 0.57494 0.17929 0.0
C181 C 0.26301 0.57043 0.20657 0.0
C182 C 0.34155 0.58292 0.1852 0.0
C183 C 0.28581 0.57124 0.2393 0.0
C184 C 0.33584 0.57798 0.24515 0.0
C185 C 0.41632 0.59569 0.22496 0.0
C186 C 0.44633 0.60569 0.19883 0.0
C187 C 0.3645 0.58497 0.2185 0.0
C188 C 0.42268 0.60228 0.16555 0.0
C189 C 0.37076 0.59075 0.15877 0.0
H190 H 0.73738 0.25729 0.47625 0.0
H191 H 0.75999 0.28152 0.58737 0.0
H192 H 0.83039 0.37355 0.59336 0.0
H193 H 0.87959 0.44923 0.56719 0.0
H194 H 0.85366 0.42662 0.45616 0.0
H195 H 0.79124 0.33179 0.44998 0.0
C196 C 0.75844 0.28239 0.50176 0.0
C197 C 0.7433 0.26267 0.53133 0.0
C198 C 0.79797 0.33576 0.50504 0.0
C199 C 0.7707 0.29584 0.56421 0.0
C200 C 0.81084 0.34853 0.56766 0.0
C201 C 0.86032 0.42354 0.54163 0.0
C202 C 0.87089 0.44516 0.51221 0.0
C203 C 0.82372 0.36931 0.53828 0.0
C204 C 0.84647 0.41105 0.47926 0.0
C205 C 0.8105 0.35684 0.4757 0.0
H206 H 0.54011 0.72082 0.7737 0.0
H207 H 0.61979 0.74066 0.87572 0.0
H208 H 0.63721 0.83121 0.89159 0.0
H209 H 0.61877 0.89986 0.87907 0.0
H210 H 0.53635 0.87805 0.77758 0.0
H211 H 0.5317 0.79369 0.7589 0.0
C212 C 0.56226 0.74527 0.79919 0.0
C213 C 0.57779 0.72354 0.82363 0.0
C214 C 0.57112 0.79689 0.80842 0.0
C215 C 0.60703 0.75612 0.85641 0.0
C216 C 0.61668 0.80786 0.86563 0.0
C217 C 0.60035 0.87687 0.85276 0.0
C218 C 0.57747 0.89499 0.8299 0.0
C219 C 0.59706 0.82785 0.84229 0.0
C220 C 0.55452 0.86524 0.79569 0.0
C221 C 0.55149 0.81674 0.78502 0.0
H222 H 0.8789 0.59064 0.20634 0.0
H223 H 0.82038 0.46699 0.11344 0.0
H224 H 0.74408 0.47542 0.09989 0.0
H225 H 0.69356 0.51704 0.1141 0.0
H226 H 0.75315 0.64448 0.20477 0.0
H227 H 0.82845 0.63427 0.21993 0.0
C228 C 0.84951 0.56568 0.1831 0.0
C229 C 0.85564 0.52843 0.16091 0.0
C230 C 0.80557 0.57096 0.17518 0.0
C231 C 0.81709 0.49635 0.13089 0.0
C232 C 0.77319 0.50092 0.12314 0.0
C233 C 0.72327 0.54317 0.13698 0.0
C234 C 0.71762 0.58168 0.15808 0.0
C235 C 0.76709 0.53811 0.14503 0.0
C236 C 0.75599 0.61405 0.18817 0.0
C237 C 0.79938 0.60857 0.19672 0.0
H238 H 0.33783 0.8305 0.53673 0.0
H239 H 0.32721 0.90139 0.45162 0.0
H240 H 0.23245 0.83828 0.43601 0.0
H241 H 0.15433 0.75735 0.44289 0.0
H242 H 0.16542 0.68483 0.52682 0.0
H243 H 0.25802 0.75466 0.54684 0.0
C244 C 0.31474 0.83271 0.51505 0.0
C245 C 0.33984 0.87026 0.49512 0.0
C246 C 0.26033 0.79573 0.50586 0.0
C247 C 0.3091 0.87273 0.46729 0.0
C248 C 0.25486 0.83649 0.45825 0.0
C249 C 0.17699 0.75711 0.46571 0.0
C250 C 0.15321 0.71567 0.48312 0.0
C251 C 0.23037 0.79689 0.47673 0.0
C252 C 0.18271 0.71637 0.51303 0.0
C253 C 0.23577 0.75608 0.52434 0.0
H254 H 0.63551 0.36935 0.86811 0.0
H255 H 0.51842 0.33571 0.78037 0.0
H256 H 0.5042 0.24674 0.76194 0.0
H257 H 0.52675 0.17956 0.76973 0.0
H258 H 0.6458 0.214 0.8563 0.0
H259 H 0.65677 0.3013 0.87655 0.0
C260 C 0.60665 0.34252 0.84505 0.0
C261 C 0.57819 0.35937 0.82561 0.0
C262 C 0.59896 0.29153 0.83442 0.0
C263 C 0.54096 0.32393 0.7958 0.0
C264 C 0.53282 0.27302 0.78521 0.0
C265 C 0.55538 0.20629 0.79292 0.0
C266 C 0.58571 0.19034 0.8113 0.0
C267 C 0.56199 0.25664 0.80412 0.0
C268 C 0.6217 0.22503 0.84176 0.0
C269 C 0.62822 0.27511 0.85323 0.0
H270 H 0.58275 0.83106 0.50847 0.0
H271 H 0.43448 0.7895 0.4475 0.0
H272 H 0.40732 0.69602 0.4359 0.0
H273 H 0.42371 0.62573 0.44441 0.0
H274 H 0.57295 0.66552 0.5027 0.0
H275 H 0.60102 0.75977 0.51458 0.0
C276 C 0.54462 0.80156 0.49254 0.0
C277 C 0.51078 0.81747 0.47898 0.0
C278 C 0.52909 0.74744 0.48573 0.0
C279 C 0.46152 0.77863 0.45826 0.0
C280 C 0.44576 0.72499 0.45165 0.0
C281 C 0.46282 0.65491 0.45919 0.0
C282 C 0.49607 0.63825 0.47254 0.0
C283 C 0.47907 0.70895 0.46537 0.0
C284 C 0.5461 0.67691 0.49244 0.0
C285 C 0.56238 0.73094 0.49906 0.0
H286 H 0.75896 0.5854 0.87236 0.0
H287 H 0.74312 0.52329 0.76417 0.0
H288 H 0.83039 0.53454 0.77564 0.0
H289 H 0.9073 0.55355 0.81743 0.0
H290 H 0.92099 0.61275 0.92568 0.0
H291 H 0.83841 0.61105 0.91316 0.0
C292 C 0.77482 0.57501 0.85116 0.0
C293 C 0.74432 0.55306 0.81753 0.0
C294 C 0.82444 0.5805 0.85803 0.0
C295 C 0.76564 0.54001 0.79037 0.0
C296 C 0.81549 0.54625 0.79691 0.0
C297 C 0.89255 0.56692 0.83812 0.0
C298 C 0.91973 0.58269 0.87243 0.0
C299 C 0.84466 0.56517 0.83078 0.0
C300 C 0.90019 0.59966 0.89911 0.0
C301 C 0.85312 0.59883 0.89197 0.0
H302 H 0.2555 0.72672 0.11758 0.0
H303 H 0.16687 0.73626 0.19513 0.0
H304 H 0.21846 0.83312 0.20666 0.0
H305 H 0.29671 0.91433 0.20066 0.0
H306 H 0.38779 0.90481 0.1251 0.0
H307 H 0.32643 0.80883 0.10615 0.0
C308 C 0.24698 0.74996 0.13668 0.0
C309 C 0.20826 0.72435 0.15604 0.0
C310 C 0.27731 0.80565 0.14356 0.0
C311 C 0.197 0.75499 0.18021 0.0
C312 C 0.22652 0.81041 0.18687 0.0
C313 C 0.30242 0.89123 0.1796 0.0
C314 C 0.34691 0.9162 0.16459 0.0
C315 C 0.26798 0.83605 0.16962 0.0
C316 C 0.35369 0.88634 0.13698 0.0
C317 C 0.31895 0.83143 0.1264 0.0
H318 H 0.51 0.20438 0.51839 0.0
H319 H 0.5981 0.26941 0.44022 0.0
H320 H 0.57998 0.34131 0.44842 0.0
H321 H 0.54473 0.3895 0.48081 0.0
H322 H 0.45563 0.32389 0.55837 0.0
H323 H 0.46876 0.24869 0.54746 0.0
C324 C 0.52483 0.23399 0.50292 0.0
C325 C 0.55569 0.2317 0.47896 0.0
C326 C 0.51449 0.27546 0.50785 0.0
C327 C 0.57434 0.27024 0.45896 0.0
C328 C 0.56413 0.31153 0.46367 0.0
C329 C 0.52736 0.35825 0.49486 0.0
C330 C 0.49977 0.36262 0.52062 0.0
C331 C 0.53499 0.31504 0.48844 0.0
C332 C 0.47792 0.32198 0.53884 0.0
C333 C 0.48521 0.27885 0.53254 0.0
H334 H 0.2916 0.4961 0.81201 0.0
H335 H 0.42549 0.6549 0.8528 0.0
H336 H 0.36744 0.69005 0.85618 0.0
H337 H 0.27905 0.67622 0.84845 0.0
H338 H 0.14418 0.5183 0.80856 0.0
H339 H 0.20212 0.48226 0.80416 0.0
C340 C 0.30799 0.53836 0.82162 0.0
C341 C 0.3628 0.57269 0.8322 0.0
C342 C 0.27426 0.55852 0.82373 0.0
C343 C 0.38345 0.6274 0.84468 0.0
C344 C 0.35031 0.64769 0.84656 0.0
C345 C 0.26237 0.63399 0.8384 0.0
C346 C 0.20755 0.60002 0.82864 0.0
C347 C 0.29575 0.61367 0.8362 0.0
C348 C 0.18636 0.54521 0.81638 0.0
C349 C 0.21944 0.52464 0.81378 0.0
H350 H 0.80533 0.34617 0.21452 0.0
H351 H 0.82942 0.29682 0.11379 0.0
H352 H 0.7367 0.22689 0.09724 0.0
H353 H 0.64682 0.18557 0.10937 0.0
H354 H 0.6232 0.23447 0.21014 0.0
H355 H 0.7176 0.29905 0.22863 0.0
C356 C 0.79056 0.31959 0.18914 0.0
C357 C 0.82413 0.32729 0.16529 0.0
C358 C 0.73705 0.27996 0.17958 0.0
C359 C 0.8044 0.29206 0.13263 0.0
C360 C 0.75125 0.25225 0.12301 0.0
C361 C 0.66261 0.21035 0.13537 0.0
C362 C 0.62846 0.206 0.15829 0.0
C363 C 0.71691 0.24695 0.14589 0.0
C364 C 0.64905 0.23745 0.19212 0.0
C365 C 0.70289 0.27429 0.20267 0.0
H366 H 0.96675 0.43685 0.04078 0.0
H367 H 0.12052 0.57239 0.08763 0.0
H368 H 0.13208 0.59803 0.03236 0.0
H369 H 0.09282 0.58904 0.97277 0.0
H370 H 0.93849 0.45401 0.92624 0.0
H371 H 0.93302 0.4207 0.97904 0.0
C372 C 0.00321 0.47141 0.03876 0.0
C373 C 0.04236 0.50323 0.06849 0.0
C374 C 0.00925 0.4863 0.00692 0.0
C375 C 0.08963 0.54746 0.06527 0.0
C376 C 0.09617 0.56231 0.03364 0.0
C377 C 0.05868 0.5516 0.97392 0.0
C378 C 0.01579 0.52443 0.94594 0.0
C379 C 0.05544 0.5331 0.00458 0.0
C380 C 0.97163 0.47605 0.94776 0.0
C381 C 0.96845 0.45701 0.97791 0.0
H382 H 0.54909 0.10342 0.39345 0.0
H383 H 0.50974 0.94007 0.37644 0.0
H384 H 0.48177 0.92803 0.31445 0.0
H385 H 0.46427 0.96258 0.26597 0.0
H386 H 0.4962 0.12357 0.28403 0.0
H387 H 0.53234 0.1382 0.34485 0.0
C388 C 0.53524 0.06541 0.37613 0.0
C389 C 0.53173 0.02273 0.38947 0.0
C390 C 0.5176 0.05831 0.34083 0.0
C391 C 0.51283 0.97349 0.36676 0.0
C392 C 0.49671 0.96658 0.33139 0.0
C393 C 0.47853 0.00073 0.28324 0.0
C394 C 0.47696 0.04174 0.27044 0.0
C395 C 0.49794 0.00841 0.3183 0.0
C396 C 0.49716 0.0914 0.29306 0.0
C397 C 0.5176 0.09971 0.32789 0.0
H398 H 0.58943 0.5565 0.73354 0.0
H399 H 0.42363 0.48047 0.73574 0.0
H400 H 0.40308 0.46625 0.67282 0.0
H401 H 0.4322 0.46747 0.61662 0.0
H402 H 0.59782 0.54247 0.61518 0.0
H403 H 0.61879 0.56599 0.67844 0.0
C404 C 0.54878 0.53704 0.72029 0.0
C405 C 0.50806 0.51863 0.73918 0.0
C406 C 0.53734 0.52914 0.68427 0.0
C407 C 0.45568 0.49456 0.72173 0.0
C408 C 0.4439 0.4864 0.68577 0.0
C409 C 0.47279 0.4903 0.63037 0.0
C410 C 0.51359 0.50387 0.61171 0.0
C411 C 0.48435 0.50253 0.6667 0.0
C412 C 0.56609 0.53242 0.62936 0.0
C413 C 0.57796 0.54536 0.6654 0.0
H414 H 0.51569 0.97752 0.58807 0.0
H415 H 0.65341 0.13069 0.59327 0.0
H416 H 0.66641 0.15104 0.65614 0.0
H417 H 0.63491 0.1284 0.7093 0.0
H418 H 0.4962 0.97655 0.70457 0.0
H419 H 0.48772 0.95227 0.6419 0.0
C420 C 0.54904 0.015 0.60297 0.0
C421 C 0.58312 0.05283 0.5859 0.0
C422 C 0.55587 0.02684 0.63919 0.0
C423 C 0.62611 0.1012 0.60567 0.0
C424 C 0.63361 0.1129 0.64165 0.0
C425 C 0.60285 0.08998 0.69451 0.0
C426 C 0.5659 0.05456 0.7114 0.0
C427 C 0.59798 0.07661 0.6586 0.0
C428 C 0.52518 0.00445 0.6921 0.0
C429 C 0.52021 0.99067 0.65629 0.0
H430 H 0.53916 0.59602 0.94983 0.0
H431 H 0.57334 0.47106 0.92617 0.0
H432 H 0.59276 0.47477 0.98776 0.0
H433 H 0.60414 0.51636 0.04819 0.0
H434 H 0.57746 0.64669 0.07195 0.0
H435 H 0.54991 0.6372 0.01048 0.0
C436 C 0.55019 0.56912 0.95815 0.0
C437 C 0.55475 0.53327 0.93349 0.0
C438 C 0.56277 0.57252 0.99362 0.0
C439 C 0.56972 0.49913 0.94467 0.0
C440 C 0.58088 0.50127 0.97987 0.0
C441 C 0.59274 0.54305 0.03998 0.0
C442 C 0.59316 0.58233 0.06481 0.0
C443 C 0.57843 0.53845 0.00456 0.0
C444 C 0.57698 0.61565 0.05358 0.0
C445 C 0.56157 0.61054 0.01836 0.0
H446 H 0.97071 0.51868 0.25601 0.0
H447 H 0.12488 0.53776 0.27122 0.0
H448 H 0.1321 0.55726 0.33362 0.0
H449 H 0.09896 0.57755 0.38367 0.0
H450 H 0.94768 0.56475 0.36987 0.0
H451 H 0.9344 0.53316 0.30728 0.0
C452 C 0.00543 0.5263 0.27304 0.0
C453 C 0.04751 0.5275 0.25903 0.0
C454 C 0.00999 0.53898 0.30914 0.0
C455 C 0.09231 0.53741 0.28138 0.0
C456 C 0.09649 0.54854 0.31707 0.0
C457 C 0.063 0.56774 0.36697 0.0
C458 C 0.02479 0.57432 0.38126 0.0
C459 C 0.05633 0.55101 0.3312 0.0
C460 C 0.97775 0.56008 0.35945 0.0
C461 C 0.97032 0.54235 0.32366 0.0
loop_
_geom_bond_atom_site_label_1
_geom_bond_atom_site_label_2
_geom_bond_distance
_geom_bond_site_symmetry_2
_ccdc_geom_bond_type
Zn0 O6 1.969 . S
Zn0 O7 1.965 . S
Zn0 O11 2.024 . S
Zn0 O16 1.969 . S
Zn1 O8 1.969 . S
Zn1 O14 1.969 . S
Zn1 O15 1.965 . S
Zn1 O17 2.024 . S
C2 O3 1.229 . S
C2 O11 1.058 . S
O3 C2 1.229 . S
C4 O5 1.229 . S
C4 O17 1.058 . S
O5 C4 1.229 . S
O6 Zn0 1.969 . S
O6 C9 1.267 . S
O7 Zn0 1.965 . S
O7 C18 1.260 . S
O8 Zn1 1.969 . S
O8 C18 1.258 1_655 S
C9 O6 1.267 . S
C9 O10 1.228 . S
O10 C9 1.228 . S
O11 Zn0 2.024 . S
O11 C2 1.058 . S
C12 O13 1.228 . S
C12 O14 1.267 . S
O13 C12 1.228 . S
O14 Zn1 1.969 . S
O14 C12 1.267 . S
O15 Zn1 1.965 . S
O15 C19 1.260 1_655 S
O16 Zn0 1.969 . S
O16 C19 1.258 . S
O17 Zn1 2.024 . S
O17 C4 1.058 . S
C18 O7 1.260 . S
C18 O8 1.258 1_455 S
C19 O15 1.260 1_455 S
C19 O16 1.258 . S
Zn20 O26 1.969 . S
Zn20 O27 1.965 . S
Zn20 O31 2.024 . S
Zn20 O36 1.969 . S
Zn21 O28 1.969 . S
Zn21 O34 1.969 . S
Zn21 O35 1.965 1_565 S
Zn21 O37 2.024 . S
C22 O23 1.229 . S
C22 O31 1.058 . S
O23 C22 1.229 . S
C24 O25 1.229 . S
C24 O37 1.058 . S
O25 C24 1.229 . S
O26 Zn20 1.969 . S
O26 C29 1.267 . S
O27 Zn20 1.965 . S
O27 C38 1.260 . S
O28 Zn21 1.969 . S
O28 C38 1.258 1_565 S
C29 O26 1.267 . S
C29 O30 1.228 . S
O30 C29 1.228 . S
O31 Zn20 2.024 . S
O31 C22 1.058 . S
C32 O33 1.228 . S
C32 O34 1.267 . S
O33 C32 1.228 . S
O34 Zn21 1.969 . S
O34 C32 1.267 . S
O35 Zn21 1.965 1_545 S
O35 C39 1.260 . S
O36 Zn20 1.969 . S
O36 C39 1.258 . S
O37 Zn21 2.024 . S
O37 C24 1.058 . S
C38 O27 1.260 . S
C38 O28 1.258 1_545 S
C39 O35 1.260 . S
C39 O36 1.258 . S
Zn40 O46 1.969 . S
Zn40 O47 1.965 . S
Zn40 O51 2.024 . S
Zn40 O56 1.969 . S
Zn41 O48 1.969 . S
Zn41 O54 1.969 . S
Zn41 O55 1.965 . S
Zn41 O57 2.024 . S
C42 O43 1.229 . S
C42 O51 1.058 . S
O43 C42 1.229 . S
C44 O45 1.229 . S
C44 O57 1.058 . S
O45 C44 1.229 . S
O46 Zn40 1.969 . S
O46 C49 1.267 . S
O47 Zn40 1.965 . S
O47 C58 1.260 . S
O48 Zn41 1.969 . S
O48 C58 1.258 . S
C49 O46 1.267 . S
C49 O50 1.228 . S
O50 C49 1.228 . S
O51 Zn40 2.024 . S
O51 C42 1.058 . S
C52 O53 1.228 . S
C52 O54 1.267 . S
O53 C52 1.228 . S
O54 Zn41 1.969 . S
O54 C52 1.267 . S
O55 Zn41 1.965 . S
O55 C59 1.260 . S
O56 Zn40 1.969 . S
O56 C59 1.258 . S
O57 Zn41 2.024 . S
O57 C44 1.058 . S
C58 O47 1.260 . S
C58 O48 1.258 . S
C59 O55 1.260 . S
C59 O56 1.258 . S
H60 C61 0.949 . S
C61 H60 0.949 . S
C61 C62 1.395 . S
C61 C63 1.391 . S
C62 C61 1.395 . S
C62 C65 1.390 1_545 S
C63 C61 1.391 . S
C63 C67 1.387 . S
C63 C68 1.491 . S
H64 C65 0.950 . S
C65 C62 1.390 1_565 S
C65 H64 0.950 . S
C65 C66 1.378 . S
C66 C65 1.378 . S
C66 C67 1.409 1_565 S
C67 C63 1.387 . S
C67 C66 1.409 1_545 S
C67 H69 0.951 . S
C68 C63 1.491 . S
C68 C70 1.382 . S
C68 C72 1.404 . S
H69 C67 0.951 . S
C70 C68 1.382 . S
C70 C71 1.390 . S
C70 H75 0.949 . S
C71 C70 1.390 . S
C71 C76 1.399 . S
C72 C68 1.404 . S
C72 H73 0.950 . S
C72 C74 1.375 . S
H73 C72 0.950 . S
C74 C72 1.375 . S
C74 C76 1.382 . S
C74 H78 0.950 . S
H75 C70 0.949 . S
C76 C71 1.399 . S
C76 C74 1.382 . S
C76 H77 0.952 . S
H77 C76 0.952 . S
H78 C74 0.950 . S
H79 C80 0.949 . S
C80 H79 0.949 . S
C80 C81 1.395 . S
C80 C82 1.391 . S
C81 C80 1.395 . S
C81 C84 1.390 . S
C82 C80 1.391 . S
C82 C86 1.387 . S
C82 C87 1.491 . S
H83 C84 0.950 . S
C84 C81 1.390 . S
C84 H83 0.950 . S
C84 C85 1.378 . S
C85 C84 1.378 . S
C85 C86 1.409 . S
C86 C82 1.387 . S
C86 C85 1.409 . S
C86 H88 0.951 . S
C87 C82 1.491 . S
C87 C89 1.382 . S
C87 C91 1.404 . S
H88 C86 0.951 . S
C89 C87 1.382 . S
C89 C90 1.390 . S
C89 H94 0.949 . S
C90 C89 1.390 . S
C90 C95 1.399 . S
C91 C87 1.404 . S
C91 H92 0.950 . S
C91 C93 1.375 . S
H92 C91 0.950 . S
C93 C91 1.375 . S
C93 C95 1.382 . S
C93 H97 0.950 . S
H94 C89 0.949 . S
C95 C90 1.399 . S
C95 C93 1.382 . S
C95 H96 0.952 . S
H96 C95 0.952 . S
H97 C93 0.950 . S
H98 C99 0.949 . S
C99 H98 0.949 . S
C99 C100 1.395 . S
C99 C101 1.391 . S
C100 C99 1.395 . S
C100 C103 1.390 1_455 S
C101 C99 1.391 . S
C101 C105 1.387 . S
C101 C106 1.491 . S
H102 C103 0.950 . S
C103 C100 1.390 1_655 S
C103 H102 0.950 . S
C103 C104 1.378 . S
C104 C103 1.378 . S
C104 C105 1.409 1_655 S
C105 C101 1.387 . S
C105 C104 1.409 1_455 S
C105 H107 0.951 . S
C106 C101 1.491 . S
C106 C108 1.382 . S
C106 C110 1.404 . S
H107 C105 0.951 . S
C108 C106 1.382 . S
C108 C109 1.390 . S
C108 H113 0.949 . S
C109 C108 1.390 . S
C109 C114 1.399 . S
C110 C106 1.404 . S
C110 H111 0.950 . S
C110 C112 1.375 . S
H111 C110 0.950 . S
C112 C110 1.375 . S
C112 C114 1.382 . S
C112 H116 0.950 . S
H113 C108 0.949 . S
C114 C109 1.399 . S
C114 C112 1.382 . S
C114 H115 0.952 . S
H115 C114 0.952 . S
H116 C112 0.950 . S
H117 C118 0.949 1_655 S
C118 H117 0.949 1_455 S
C118 C119 1.395 . S
C118 C120 1.391 . S
C119 C118 1.395 . S
C119 C122 1.390 . S
C120 C118 1.391 . S
C120 C124 1.387 . S
C120 C125 1.491 1_455 S
H121 C122 0.950 . S
C122 C119 1.390 . S
C122 H121 0.950 . S
C122 C123 1.378 . S
C123 C122 1.378 . S
C123 C124 1.409 . S
C124 C120 1.387 . S
C124 C123 1.409 . S
C124 H126 0.951 . S
C125 C120 1.491 1_655 S
C125 C127 1.382 . S
C125 C129 1.404 . S
H126 C124 0.951 . S
C127 C125 1.382 . S
C127 C128 1.390 . S
C127 H132 0.949 . S
C128 C127 1.390 . S
C128 C133 1.399 . S
C129 C125 1.404 . S
C129 H130 0.948 1_655 S
C129 C131 1.375 . S
H130 C129 0.948 1_455 S
C131 C129 1.375 . S
C131 C133 1.382 . S
C131 H135 0.950 . S
H132 C127 0.949 . S
C133 C128 1.399 . S
C133 C131 1.382 . S
C133 H134 0.952 . S
H134 C133 0.952 . S
H135 C131 0.950 . S
H136 C137 0.949 1_565 S
C137 H136 0.949 1_545 S
C137 C138 1.395 . S
C137 C139 1.391 . S
C138 C137 1.395 . S
C138 C141 1.390 . S
C139 C137 1.391 . S
C139 C143 1.387 . S
C139 C144 1.491 1_545 S
H140 C141 0.950 . S
C141 C138 1.390 . S
C141 H140 0.950 . S
C141 C142 1.378 . S
C142 C141 1.378 . S
C142 C143 1.409 . S
C143 C139 1.387 . S
C143 C142 1.409 . S
C143 H145 0.951 . S
C144 C139 1.491 1_565 S
C144 C146 1.382 . S
C144 C148 1.404 . S
H145 C143 0.951 . S
C146 C144 1.382 . S
C146 C147 1.390 . S
C146 H151 0.949 . S
C147 C146 1.390 . S
C147 C152 1.399 . S
C148 C144 1.404 . S
C148 H149 0.950 1_565 S
C148 C150 1.375 . S
H149 C148 0.950 1_545 S
C150 C148 1.375 . S
C150 C152 1.382 . S
C150 H154 0.950 . S
H151 C146 0.949 . S
C152 C147 1.399 . S
C152 C150 1.382 . S
C152 H153 0.952 . S
H153 C152 0.952 . S
H154 C150 0.950 . S
H155 C156 0.949 . S
C156 H155 0.949 . S
C156 C157 1.395 . S
C156 C158 1.391 . S
C157 C156 1.395 . S
C157 C160 1.390 . S
C158 C156 1.391 . S
C158 C162 1.387 . S
C158 C163 1.491 . S
H159 C160 0.950 . S
C160 C157 1.390 . S
C160 H159 0.950 . S
C160 C161 1.378 . S
C161 C160 1.378 . S
C161 C162 1.409 . S
C162 C158 1.387 . S
C162 C161 1.409 . S
C162 H164 0.951 . S
C163 C158 1.491 . S
C163 C165 1.382 . S
C163 C167 1.404 . S
H164 C162 0.951 . S
C165 C163 1.382 . S
C165 C166 1.390 . S
C165 H170 0.949 . S
C166 C165 1.390 . S
C166 C171 1.399 . S
C167 C163 1.404 . S
C167 H168 0.950 . S
C167 C169 1.375 . S
H168 C167 0.950 . S
C169 C167 1.375 . S
C169 C171 1.382 . S
C169 H173 0.950 . S
H170 C165 0.949 . S
C171 C166 1.399 . S
C171 C169 1.382 . S
C171 H172 0.952 . S
H172 C171 0.952 . S
H173 C169 0.950 . S
H174 C180 0.930 . S
H175 C183 0.930 . S
H176 C184 0.930 . S
H177 C185 0.930 . S
H178 C188 0.930 . S
H179 C189 0.930 . S
C180 H174 0.930 . S
C180 C181 1.355 . S
C180 C182 1.415 . S
C181 C180 1.355 . S
C181 C183 1.419 . S
C182 C180 1.415 . S
C182 C187 1.425 . S
C182 C189 1.409 . S
C183 H175 0.930 . S
C183 C181 1.419 . S
C183 C184 1.362 . S
C184 H176 0.930 . S
C184 C183 1.362 . S
C184 C187 1.409 . S
C185 H177 0.930 . S
C185 C186 1.355 . S
C185 C187 1.415 . S
C186 C185 1.355 . S
C186 C188 1.419 . S
C187 C182 1.425 . S
C187 C184 1.409 . S
C187 C185 1.415 . S
C188 H178 0.930 . S
C188 C186 1.419 . S
C188 C189 1.362 . S
C189 H179 0.930 . S
C189 C182 1.409 . S
C189 C188 1.362 . S
H190 C196 0.930 . S
H191 C199 0.930 . S
H192 C200 0.930 . S
H193 C201 0.930 . S
H194 C204 0.930 . S
H195 C205 0.930 . S
C196 H190 0.930 . S
C196 C197 1.355 . S
C196 C198 1.415 . S
C197 C196 1.355 . S
C197 C199 1.419 . S
C198 C196 1.415 . S
C198 C203 1.425 . S
C198 C205 1.409 . S
C199 H191 0.930 . S
C199 C197 1.419 . S
C199 C200 1.362 . S
C200 H192 0.930 . S
C200 C199 1.362 . S
C200 C203 1.409 . S
C201 H193 0.930 . S
C201 C202 1.355 . S
C201 C203 1.415 . S
C202 C201 1.355 . S
C202 C204 1.419 . S
C203 C198 1.425 . S
C203 C200 1.409 . S
C203 C201 1.415 . S
C204 H194 0.930 . S
C204 C202 1.419 . S
C204 C205 1.362 . S
C205 H195 0.930 . S
C205 C198 1.409 . S
C205 C204 1.362 . S
H206 C212 0.930 . S
H207 C215 0.930 . S
H208 C216 0.930 . S
H209 C217 0.930 . S
H210 C220 0.930 . S
H211 C221 0.930 . S
C212 H206 0.930 . S
C212 C213 1.355 . S
C212 C214 1.415 . S
C213 C212 1.355 . S
C213 C215 1.419 . S
C214 C212 1.415 . S
C214 C219 1.425 . S
C214 C221 1.409 . S
C215 H207 0.930 . S
C215 C213 1.419 . S
C215 C216 1.362 . S
C216 H208 0.930 . S
C216 C215 1.362 . S
C216 C219 1.409 . S
C217 H209 0.930 . S
C217 C218 1.355 . S
C217 C219 1.415 . S
C218 C217 1.355 . S
C218 C220 1.419 . S
C219 C214 1.425 . S
C219 C216 1.409 . S
C219 C217 1.415 . S
C220 H210 0.930 . S
C220 C218 1.419 . S
C220 C221 1.362 . S
C221 H211 0.930 . S
C221 C214 1.409 . S
C221 C220 1.362 . S
H222 C228 0.930 . S
H223 C231 0.930 . S
H224 C232 0.930 . S
H225 C233 0.930 . S
H226 C236 0.930 . S
H227 C237 0.930 . S
C228 H222 0.930 . S
C228 C229 1.355 . S
C228 C230 1.415 . S
C229 C228 1.355 . S
C229 C231 1.419 . S
C230 C228 1.415 . S
C230 C235 1.425 . S
C230 C237 1.409 . S
C231 H223 0.930 . S
C231 C229 1.419 . S
C231 C232 1.362 . S
C232 H224 0.930 . S
C232 C231 1.362 . S
C232 C235 1.409 . S
C233 H225 0.930 . S
C233 C234 1.355 . S
C233 C235 1.415 . S
C234 C233 1.355 . S
C234 C236 1.419 . S
C235 C230 1.425 . S
C235 C232 1.409 . S
C235 C233 1.415 . S
C236 H226 0.930 . S
C236 C234 1.419 . S
C236 C237 1.362 . S
C237 H227 0.930 . S
C237 C230 1.409 . S
C237 C236 1.362 . S
H238 C244 0.930 . S
H239 C247 0.930 . S
H240 C248 0.930 . S
H241 C249 0.930 . S
H242 C252 0.930 . S
H243 C253 0.930 . S
C244 H238 0.930 . S
C244 C245 1.355 . S
C244 C246 1.415 . S
C245 C244 1.355 . S
C245 C247 1.419 . S
C246 C244 1.415 . S
C246 C251 1.425 . S
C246 C253 1.409 . S
C247 H239 0.930 . S
C247 C245 1.419 . S
C247 C248 1.362 . S
C248 H240 0.930 . S
C248 C247 1.362 . S
C248 C251 1.409 . S
C249 H241 0.930 . S
C249 C250 1.355 . S
C249 C251 1.415 . S
C250 C249 1.355 . S
C250 C252 1.419 . S
C251 C246 1.425 . S
C251 C248 1.409 . S
C251 C249 1.415 . S
C252 H242 0.930 . S
C252 C250 1.419 . S
C252 C253 1.362 . S
C253 H243 0.930 . S
C253 C246 1.409 . S
C253 C252 1.362 . S
H254 C260 0.930 . S
H255 C263 0.930 . S
H256 C264 0.930 . S
H257 C265 0.930 . S
H258 C268 0.930 . S
H259 C269 0.930 . S
C260 H254 0.930 . S
C260 C261 1.355 . S
C260 C262 1.415 . S
C261 C260 1.355 . S
C261 C263 1.419 . S
C262 C260 1.415 . S
C262 C267 1.425 . S
C262 C269 1.409 . S
C263 H255 0.930 . S
C263 C261 1.419 . S
C263 C264 1.362 . S
C264 H256 0.930 . S
C264 C263 1.362 . S
C264 C267 1.409 . S
C265 H257 0.930 . S
C265 C266 1.355 . S
C265 C267 1.415 . S
C266 C265 1.355 . S
C266 C268 1.419 . S
C267 C262 1.425 . S
C267 C264 1.409 . S
C267 C265 1.415 . S
C268 H258 0.930 . S
C268 C266 1.419 . S
C268 C269 1.362 . S
C269 H259 0.930 . S
C269 C262 1.409 . S
C269 C268 1.362 . S
H270 C276 0.930 . S
H271 C279 0.930 . S
H272 C280 0.930 . S
H273 C281 0.930 . S
H274 C284 0.930 . S
H275 C285 0.930 . S
C276 H270 0.930 . S
C276 C277 1.355 . S
C276 C278 1.415 . S
C277 C276 1.355 . S
C277 C279 1.419 . S
C278 C276 1.415 . S
C278 C283 1.425 . S
C278 C285 1.409 . S
C279 H271 0.930 . S
C279 C277 1.419 . S
C279 C280 1.362 . S
C280 H272 0.930 . S
C280 C279 1.362 . S
C280 C283 1.409 . S
C281 H273 0.930 . S
C281 C282 1.355 . S
C281 C283 1.415 . S
C282 C281 1.355 . S
C282 C284 1.419 . S
C283 C278 1.425 . S
C283 C280 1.409 . S
C283 C281 1.415 . S
C284 H274 0.930 . S
C284 C282 1.419 . S
C284 C285 1.362 . S
C285 H275 0.930 . S
C285 C278 1.409 . S
C285 C284 1.362 . S
H286 C292 0.930 . S
H287 C295 0.930 . S
H288 C296 0.930 . S
H289 C297 0.930 . S
H290 C300 0.930 . S
H291 C301 0.930 . S
C292 H286 0.930 . S
C292 C293 1.355 . S
C292 C294 1.415 . S
C293 C292 1.355 . S
C293 C295 1.419 . S
C294 C292 1.415 . S
C294 C299 1.425 . S
C294 C301 1.409 . S
C295 H287 0.930 . S
C295 C293 1.419 . S
C295 C296 1.362 . S
C296 H288 0.930 . S
C296 C295 1.362 . S
C296 C299 1.409 . S
C297 H289 0.930 . S
C297 C298 1.355 . S
C297 C299 1.415 . S
C298 C297 1.355 . S
C298 C300 1.419 . S
C299 C294 1.425 . S
C299 C296 1.409 . S
C299 C297 1.415 . S
C300 H290 0.930 . S
C300 C298 1.419 . S
C300 C301 1.362 . S
C301 H291 0.930 . S
C301 C294 1.409 . S
C301 C300 1.362 . S
H302 C308 0.930 . S
H303 C311 0.930 . S
H304 C312 0.930 . S
H305 C313 0.930 . S
H306 C316 0.930 . S
H307 C317 0.930 . S
C308 H302 0.930 . S
C308 C309 1.355 . S
C308 C310 1.415 . S
C309 C308 1.355 . S
C309 C311 1.419 . S
C310 C308 1.415 . S
C310 C315 1.425 . S
C310 C317 1.409 . S
C311 H303 0.930 . S
C311 C309 1.419 . S
C311 C312 1.362 . S
C312 H304 0.930 . S
C312 C311 1.362 . S
C312 C315 1.409 . S
C313 H305 0.930 . S
C313 C314 1.355 . S
C313 C315 1.415 . S
C314 C313 1.355 . S
C314 C316 1.419 . S
C315 C310 1.425 . S
C315 C312 1.409 . S
C315 C313 1.415 . S
C316 H306 0.930 . S
C316 C314 1.419 . S
C316 C317 1.362 . S
C317 H307 0.930 . S
C317 C310 1.409 . S
C317 C316 1.362 . S
H318 C324 0.930 . S
H319 C327 0.930 . S
H320 C328 0.930 . S
H321 C329 0.930 . S
H322 C332 0.930 . S
H323 C333 0.930 . S
C324 H318 0.930 . S
C324 C325 1.355 . S
C324 C326 1.415 . S
C325 C324 1.355 . S
C325 C327 1.419 . S
C326 C324 1.415 . S
C326 C331 1.425 . S
C326 C333 1.409 . S
C327 H319 0.930 . S
C327 C325 1.419 . S
C327 C328 1.362 . S
C328 H320 0.930 . S
C328 C327 1.362 . S
C328 C331 1.409 . S
C329 H321 0.930 . S
C329 C330 1.355 . S
C329 C331 1.415 . S
C330 C329 1.355 . S
C330 C332 1.419 . S
C331 C326 1.425 . S
C331 C328 1.409 . S
C331 C329 1.415 . S
C332 H322 0.930 . S
C332 C330 1.419 . S
C332 C333 1.362 . S
C333 H323 0.930 . S
C333 C326 1.409 . S
C333 C332 1.362 . S
H334 C340 0.930 . S
H335 C343 0.930 . S
H336 C344 0.930 . S
H337 C345 0.930 . S
H338 C348 0.930 . S
H339 C349 0.930 . S
C340 H334 0.930 . S
C340 C341 1.355 . S
C340 C342 1.415 . S
C341 C340 1.355 . S
C341 C343 1.419 . S
C342 C340 1.415 . S
C342 C347 1.425 . S
C342 C349 1.409 . S
C343 H335 0.930 . S
C343 C341 1.419 . S
C343 C344 1.362 . S
C344 H336 0.930 . S
C344 C343 1.362 . S
C344 C347 1.409 . S
C345 H337 0.930 . S
C345 C346 1.355 . S
C345 C347 1.415 . S
C346 C345 1.355 . S
C346 C348 1.419 . S
C347 C342 1.425 . S
C347 C344 1.409 . S
C347 C345 1.415 . S
C348 H338 0.930 . S
C348 C346 1.419 . S
C348 C349 1.362 . S
C349 H339 0.930 . S
C349 C342 1.409 . S
C349 C348 1.362 . S
H350 C356 0.930 . S
H351 C359 0.930 . S
H352 C360 0.930 . S
H353 C361 0.930 . S
H354 C364 0.930 . S
H355 C365 0.930 . S
C356 H350 0.930 . S
C356 C357 1.355 . S
C356 C358 1.415 . S
C357 C356 1.355 . S
C357 C359 1.419 . S
C358 C356 1.415 . S
C358 C363 1.425 . S
C358 C365 1.409 . S
C359 H351 0.930 . S
C359 C357 1.419 . S
C359 C360 1.362 . S
C360 H352 0.930 . S
C360 C359 1.362 . S
C360 C363 1.409 . S
C361 H353 0.930 . S
C361 C362 1.355 . S
C361 C363 1.415 . S
C362 C361 1.355 . S
C362 C364 1.419 . S
C363 C358 1.425 . S
C363 C360 1.409 . S
C363 C361 1.415 . S
C364 H354 0.930 . S
C364 C362 1.419 . S
C364 C365 1.362 . S
C365 H355 0.930 . S
C365 C358 1.409 . S
C365 C364 1.362 . S
H366 C372 0.930 . S
H367 C375 0.930 . S
H368 C376 0.930 . S
H369 C377 0.933 . S
H370 C380 0.930 . S
H371 C381 0.930 . S
C372 H366 0.930 . S
C372 C373 1.355 . S
C372 C374 1.415 . S
C373 C372 1.355 . S
C373 C375 1.419 1_455 S
C374 C372 1.415 . S
C374 C379 1.425 . S
C374 C381 1.409 . S
C375 H367 0.930 . S
C375 C373 1.419 1_655 S
C375 C376 1.362 . S
C376 H368 0.930 . S
C376 C375 1.362 . S
C376 C379 1.409 1_655 S
C377 H369 0.933 . S
C377 C378 1.355 . S
C377 C379 1.415 1_556 S
C378 C377 1.355 . S
C378 C380 1.419 . S
C379 C374 1.425 . S
C379 C376 1.409 1_455 S
C379 C377 1.415 1_554 S
C380 H370 0.930 . S
C380 C378 1.419 . S
C380 C381 1.362 1_556 S
C381 H371 0.930 . S
C381 C374 1.409 . S
C381 C380 1.362 1_554 S
H382 C388 0.930 . S
H383 C391 0.930 . S
H384 C392 0.930 . S
H385 C393 0.930 1_565 S
H386 C396 0.930 . S
H387 C397 0.930 . S
C388 H382 0.930 . S
C388 C389 1.355 . S
C388 C390 1.415 . S
C389 C388 1.355 . S
C389 C391 1.419 1_545 S
C390 C388 1.415 . S
C390 C395 1.425 . S
C390 C397 1.409 . S
C391 H383 0.930 . S
C391 C389 1.419 1_565 S
C391 C392 1.362 . S
C392 H384 0.930 . S
C392 C391 1.362 . S
C392 C395 1.409 1_565 S
C393 H385 0.930 1_545 S
C393 C394 1.355 . S
C393 C395 1.415 . S
C394 C393 1.355 . S
C394 C396 1.419 . S
C395 C390 1.425 . S
C395 C392 1.409 1_545 S
C395 C393 1.415 . S
C396 H386 0.930 . S
C396 C394 1.419 . S
C396 C397 1.362 . S
C397 H387 0.930 . S
C397 C390 1.409 . S
C397 C396 1.362 . S
H398 C404 0.930 . S
H399 C407 0.930 . S
H400 C408 0.930 . S
H401 C409 0.930 . S
H402 C412 0.930 . S
H403 C413 0.930 . S
C404 H398 0.930 . S
C404 C405 1.355 . S
C404 C406 1.415 . S
C405 C404 1.355 . S
C405 C407 1.419 . S
C406 C404 1.415 . S
C406 C411 1.425 . S
C406 C413 1.409 . S
C407 H399 0.930 . S
C407 C405 1.419 . S
C407 C408 1.362 . S
C408 H400 0.930 . S
C408 C407 1.362 . S
C408 C411 1.409 . S
C409 H401 0.930 . S
C409 C410 1.355 . S
C409 C411 1.415 . S
C410 C409 1.355 . S
C410 C412 1.419 . S
C411 C406 1.425 . S
C411 C408 1.409 . S
C411 C409 1.415 . S
C412 H402 0.930 . S
C412 C410 1.419 . S
C412 C413 1.362 . S
C413 H403 0.930 . S
C413 C406 1.409 . S
C413 C412 1.362 . S
H414 C420 0.930 . S
H415 C423 0.930 . S
H416 C424 0.930 . S
H417 C425 0.930 . S
H418 C428 0.930 . S
H419 C429 0.930 . S
C420 H414 0.930 . S
C420 C421 1.355 . S
C420 C422 1.415 . S
C421 C420 1.355 . S
C421 C423 1.419 . S
C422 C420 1.415 . S
C422 C427 1.425 . S
C422 C429 1.409 . S
C423 H415 0.930 . S
C423 C421 1.419 . S
C423 C424 1.362 . S
C424 H416 0.930 . S
C424 C423 1.362 . S
C424 C427 1.409 . S
C425 H417 0.930 . S
C425 C426 1.355 . S
C425 C427 1.415 . S
C426 C425 1.355 . S
C426 C428 1.419 . S
C427 C422 1.425 . S
C427 C424 1.409 . S
C427 C425 1.415 . S
C428 H418 0.930 . S
C428 C426 1.419 . S
C428 C429 1.362 . S
C429 H419 0.930 . S
C429 C422 1.409 . S
C429 C428 1.362 . S
H430 C436 0.930 . S
H431 C439 0.930 . S
H432 C440 0.930 . S
H433 C441 0.930 . S
H434 C444 0.930 . S
H435 C445 0.930 . S
C436 H430 0.930 . S
C436 C437 1.355 . S
C436 C438 1.415 . S
C437 C436 1.355 . S
C437 C439 1.419 . S
C438 C436 1.415 . S
C438 C443 1.425 . S
C438 C445 1.409 1_556 S
C439 H431 0.930 . S
C439 C437 1.419 . S
C439 C440 1.362 . S
C440 H432 0.930 . S
C440 C439 1.362 . S
C440 C443 1.409 . S
C441 H433 0.930 . S
C441 C442 1.355 . S
C441 C443 1.415 1_554 S
C442 C441 1.355 . S
C442 C444 1.419 . S
C443 C438 1.425 . S
C443 C440 1.409 . S
C443 C441 1.415 1_556 S
C444 H434 0.930 . S
C444 C442 1.419 . S
C444 C445 1.362 . S
C445 H435 0.930 . S
C445 C438 1.409 1_554 S
C445 C444 1.362 . S
H446 C452 0.912 1_655 S
H447 C455 0.930 . S
H448 C456 0.930 . S
H449 C457 0.930 . S
H450 C460 0.930 1_655 S
H451 C461 0.930 1_655 S
C452 H446 0.912 1_455 S
C452 C453 1.355 . S
C452 C454 1.415 . S
C453 C452 1.355 . S
C453 C455 1.419 . S
C454 C452 1.415 . S
C454 C459 1.425 . S
C454 C461 1.409 . S
C455 H447 0.930 . S
C455 C453 1.419 . S
C455 C456 1.362 . S
C456 H448 0.930 . S
C456 C455 1.362 . S
C456 C459 1.409 . S
C457 H449 0.930 . S
C457 C458 1.355 . S
C457 C459 1.415 . S
C458 C457 1.355 . S
C458 C460 1.419 . S
C459 C454 1.425 . S
C459 C456 1.409 . S
C459 C457 1.415 . S
C460 H450 0.930 1_455 S
C460 C458 1.419 . S
C460 C461 1.362 . S
C461 H451 0.930 1_455 S
C461 C454 1.409 . S
C461 C460 1.362 . S
C181 C2 1.505 . S
C186 C166 1.552 . S
C197 C22 1.501 . S
C202 C128 1.558 . S
C213 C44 1.559 . S
C218 C147 1.512 . S
C229 C4 1.426 . S
C234 C161 1.494 . S
C250 C123 1.544 . S
C245 C24 1.485 . S
C266 C142 1.525 . S
C261 C42 1.443 . S
C277 C32 1.484 . S
C282 C90 1.453 . S
C293 C49 1.117 . S
C298 C104 1.171 . S
C309 C9 1.174 . S
C314 C66 1.212 . S
C330 C85 1.177 . S
C325 C29 1.152 . S
C346 C109 1.405 . S
C341 C52 1.356 . S
C357 C12 1.413 . S
C362 C71 1.335 . S
C378 C100 1.545 . S
C373 C18 1.548 . S
C389 C38 1.501 . S
C394 C62 1.518 . S
C405 C58 1.495 . S
C410 C81 1.537 . S
C426 C138 1.537 . S
C421 C39 1.511 . S
C442 C157 1.551 . S
C437 C59 1.534 . S
C453 C19 1.509 . S
C458 C119 1.562 . S
