# Generated by pormake.
# Topology llj, (12,3)-cn, num edge types: 1
# Building blocks:
#     Node 0, Type 0, BuildingBlock: QEWDON_clean_sbu_0, # of connection points: 12
#     Node 1, Type 0, BuildingBlock: QEWDON_clean_sbu_0, # of connection points: 12
#     Node 2, Type 1, BuildingBlock: ESEHIV_clean_linker_0, # of connection points: 3
#     Node 3, Type 1, BuildingBlock: ESEHIV_clean_linker_0, # of connection points: 3
#     Node 4, Type 1, BuildingBlock: ESEHIV_clean_linker_0, # of connection points: 3
#     Node 5, Type 1, BuildingBlock: ESEHIV_clean_linker_0, # of connection points: 3
#     Node 6, Type 1, BuildingBlock: ESEHIV_clean_linker_0, # of connection points: 3
#     Node 7, Type 1, BuildingBlock: ESEHIV_clean_linker_0, # of connection points: 3
#     Node 8, Type 1, BuildingBlock: ESEHIV_clean_linker_0, # of connection points: 3
#     Node 9, Type 1, BuildingBlock: ESEHIV_clean_linker_0, # of connection points: 3
#     Edge 10, Type (0, 1), BuildingBlock: OJICUG_clean_linker_0, # of connection points: 2
#     Edge 11, Type (0, 1), BuildingBlock: OJICUG_clean_linker_0, # of connection points: 2
#     Edge 12, Type (0, 1), BuildingBlock: OJICUG_clean_linker_0, # of connection points: 2
#     Edge 13, Type (0, 1), BuildingBlock: OJICUG_clean_linker_0, # of connection points: 2
#     Edge 14, Type (0, 1), BuildingBlock: OJICUG_clean_linker_0, # of connection points: 2
#     Edge 15, Type (0, 1), BuildingBlock: OJICUG_clean_linker_0, # of connection points: 2
#     Edge 16, Type (0, 1), BuildingBlock: OJICUG_clean_linker_0, # of connection points: 2
#     Edge 17, Type (0, 1), BuildingBlock: OJICUG_clean_linker_0, # of connection points: 2
#     Edge 18, Type (0, 1), BuildingBlock: OJICUG_clean_linker_0, # of connection points: 2
#     Edge 19, Type (0, 1), BuildingBlock: OJICUG_clean_linker_0, # of connection points: 2
#     Edge 20, Type (0, 1), BuildingBlock: OJICUG_clean_linker_0, # of connection points: 2
#     Edge 21, Type (0, 1), BuildingBlock: OJICUG_clean_linker_0, # of connection points: 2
#     Edge 22, Type (0, 1), BuildingBlock: OJICUG_clean_linker_0, # of connection points: 2
#     Edge 23, Type (0, 1), BuildingBlock: OJICUG_clean_linker_0, # of connection points: 2
#     Edge 24, Type (0, 1), BuildingBlock: OJICUG_clean_linker_0, # of connection points: 2
#     Edge 25, Type (0, 1), BuildingBlock: OJICUG_clean_linker_0, # of connection points: 2
#     Edge 26, Type (0, 1), BuildingBlock: OJICUG_clean_linker_0, # of connection points: 2
#     Edge 27, Type (0, 1), BuildingBlock: OJICUG_clean_linker_0, # of connection points: 2
#     Edge 28, Type (0, 1), BuildingBlock: OJICUG_clean_linker_0, # of connection points: 2
#     Edge 29, Type (0, 1), BuildingBlock: OJICUG_clean_linker_0, # of connection points: 2
#     Edge 30, Type (0, 1), BuildingBlock: OJICUG_clean_linker_0, # of connection points: 2
#     Edge 31, Type (0, 1), BuildingBlock: OJICUG_clean_linker_0, # of connection points: 2
#     Edge 32, Type (0, 1), BuildingBlock: OJICUG_clean_linker_0, # of connection points: 2
#     Edge 33, Type (0, 1), BuildingBlock: OJICUG_clean_linker_0, # of connection points: 2
# Relax obj value: 0.011
# Max RMSD: 0.060
# Mean RMSD: 0.055
data_MOF--net-llj--node1-QEWDON_clean_sbu_0--node2-ESEHIV_clean_linker_0--edge1-OJICUG_clean_linker_0
_symmetry_space_group_name_H-M    P1
_symmetry_Int_Tables_number       1
_symmetry_cell_setting            triclinic
loop_
_symmetry_equiv_pos_as_xyz
'x, y, z'
_cell_length_a     27.163159
_cell_length_b     27.135823
_cell_length_c     18.892915
_cell_angle_alpha  89.987304
_cell_angle_beta   90.009077
_cell_angle_gamma 89.98894
loop_
_atom_site_label
_atom_site_type_symbol
_atom_site_fract_x
_atom_site_fract_y
_atom_site_fract_z
_atom_type_partial_charge
Zn0 Zn 0.93322 0.108 0.91174 0.0
Zn1 Zn 0.92286 0.09585 0.07838 0.0
O2 O 0.96768 0.08156 -0.00286 0.0
H3 H 0.9906 0.05448 -0.00542 0.0
C4 C 0.8728 0.01371 0.81256 0.0
O5 O 0.87157 0.03765 0.87292 0.0
Zn6 Zn 0.06195 0.89075 0.07761 0.0
Zn7 Zn 0.05374 0.87969 0.91038 0.0
O8 O 0.01786 0.90503 -0.00453 0.0
H9 H -0.00554 0.93171 -0.00678 0.0
Zn10 Zn 0.87853 0.93096 0.90904 0.0
O11 O 0.90222 0.96749 -0.0055 0.0
Zn12 Zn 0.88845 0.92303 0.07637 0.0
H13 H 0.92835 0.99147 -0.00794 0.0
Zn14 Zn 0.10703 0.05664 0.91127 0.0
O15 O 0.08267 0.01992 -0.00397 0.0
H16 H 0.05698 -0.00451 -0.00709 0.0
Zn17 Zn 0.09618 0.06391 0.07844 0.0
C18 C 0.11517 0.97398 0.81526 0.0
O19 O 0.11756 0.95024 0.87575 0.0
O20 O 0.87812 0.15657 0.93341 0.0
O21 O 0.86971 0.14636 0.0499 0.0
O22 O 0.10848 0.83087 0.93336 0.0
O23 O 0.11555 0.84043 0.05016 0.0
O24 O 0.83013 0.87571 0.93136 0.0
O25 O 0.8391 0.86884 0.0483 0.0
C26 C 0.01059 0.11129 0.16076 0.0
O27 O 0.15599 0.11112 0.93476 0.0
O28 O 0.14654 0.1177 0.05164 0.0
O29 O 0.01743 0.87543 0.81499 0.0
C30 C 0.85697 0.16687 -0.00833 0.0
O31 O 0.97002 0.11148 0.81693 0.0
C32 C 0.97381 0.87541 0.15933 0.0
O33 O 0.8754 0.96702 0.81327 0.0
C34 C 0.12893 0.8202 -0.00797 0.0
O35 O 0.11091 0.02054 0.81574 0.0
C36 C 0.87249 0.01067 0.1587 0.0
O37 O 0.96447 0.1196 0.16018 0.0
O38 O 0.03003 0.09247 0.10577 0.0
C39 C 0.81939 0.85518 -0.01003 0.0
O40 O 0.01985 0.86679 0.15863 0.0
O41 O 0.95447 0.89465 0.10453 0.0
C42 C 0.11037 0.97569 0.16032 0.0
O43 O 0.86342 0.96469 0.15717 0.0
O44 O 0.89315 0.03004 0.10503 0.0
C45 C 0.16677 0.13128 -0.00638 0.0
O46 O 0.11964 0.02165 0.15958 0.0
O47 O 0.09119 0.95652 0.10539 0.0
C48 C 0.97111 0.86948 0.81437 0.0
O49 O 0.94747 0.86576 0.87476 0.0
C50 C 0.01625 0.11801 0.81614 0.0
O51 O 0.03987 0.12291 0.87638 0.0
Zn52 Zn 0.4275 0.6066 0.41009 0.0
Zn53 Zn 0.42026 0.59626 0.57743 0.0
O54 O 0.46466 0.58336 0.49517 0.0
H55 H 0.48918 0.55773 0.49237 0.0
C56 C 0.37027 0.51164 0.31475 0.0
O57 O 0.36533 0.5349 0.37529 0.0
Zn58 Zn 0.56379 0.38981 0.57746 0.0
Zn59 Zn 0.5629 0.38635 0.4099 0.0
O60 O 0.52045 0.40183 0.49424 0.0
H61 H 0.49447 0.42601 0.49233 0.0
Zn62 Zn 0.38336 0.42913 0.41041 0.0
O63 O 0.40519 0.46669 0.49617 0.0
Zn64 Zn 0.39115 0.42228 0.57806 0.0
H65 H 0.43151 0.49051 0.49424 0.0
Zn66 Zn 0.60186 0.55769 0.40969 0.0
O67 O 0.57949 0.51995 0.49499 0.0
H68 H 0.55407 0.49517 0.49258 0.0
Zn69 Zn 0.59317 0.56431 0.5771 0.0
C70 C 0.61897 0.47651 0.31401 0.0
O71 O 0.62808 0.45439 0.37444 0.0
O72 O 0.37188 0.65431 0.43314 0.0
O73 O 0.36555 0.64533 0.55014 0.0
O74 O 0.62271 0.34292 0.43319 0.0
O75 O 0.61853 0.34131 0.55106 0.0
O76 O 0.33512 0.37368 0.43249 0.0
O77 O 0.34208 0.36802 0.54985 0.0
C78 C 0.50778 0.61221 0.65958 0.0
O79 O 0.65028 0.61283 0.43227 0.0
O80 O 0.64259 0.61861 0.54947 0.0
O81 O 0.52721 0.37756 0.3142 0.0
C82 C 0.35152 0.66492 0.49188 0.0
O83 O 0.46368 0.61169 0.31474 0.0
C84 C 0.47661 0.37393 0.66019 0.0
O85 O 0.37823 0.46556 0.3151 0.0
C86 C 0.63838 0.32769 0.49287 0.0
O87 O 0.60694 0.52168 0.31424 0.0
C88 C 0.37394 0.51003 0.65986 0.0
O89 O 0.46176 0.62089 0.65861 0.0
O90 O 0.52717 0.59277 0.60501 0.0
C91 C 0.32342 0.35374 0.49112 0.0
O92 O 0.52256 0.36508 0.65856 0.0
O93 O 0.45699 0.39366 0.606 0.0
C94 C 0.61003 0.47643 0.65919 0.0
O95 O 0.36624 0.46378 0.65911 0.0
O96 O 0.39276 0.52976 0.60508 0.0
C97 C 0.66172 0.63278 0.49098 0.0
O98 O 0.61785 0.52265 0.65813 0.0
O99 O 0.59099 0.45658 0.60464 0.0
C100 C 0.48098 0.37058 0.31431 0.0
O101 O 0.45758 0.36852 0.37506 0.0
C102 C 0.50987 0.6186 0.31432 0.0
O103 O 0.53331 0.62289 0.37481 0.0
H104 H 0.42315 0.37914 -0.01318 0.0
H105 H 0.32663 0.28315 0.10246 0.0
H106 H 0.31869 0.28951 0.87527 0.0
C107 C 0.39366 0.35227 -0.01247 0.0
C108 C 0.37408 0.33528 0.92324 0.0
C109 C 0.37697 0.33363 0.05249 0.0
C110 C 0.33804 0.29955 0.05285 0.0
C111 C 0.31605 0.28386 -0.01065 0.0
C112 C 0.33424 0.3023 0.9247 0.0
H113 H 0.60581 0.41997 -0.01488 0.0
H114 H 0.70416 0.32457 0.09877 0.0
H115 H 0.69752 0.31819 0.87175 0.0
C116 C 0.63335 0.3911 -0.01466 0.0
C117 C 0.65076 0.37246 0.92068 0.0
C118 C 0.65247 0.3743 0.05001 0.0
C119 C 0.68725 0.336 0.04953 0.0
C120 C 0.70301 0.31458 -0.01426 0.0
C121 C 0.68442 0.33313 0.9214 0.0
H122 H 0.56504 0.60546 -0.01476 0.0
H123 H 0.66771 0.69597 0.87161 0.0
H124 H 0.66251 0.70162 0.09888 0.0
C125 C 0.59444 0.63243 -0.01465 0.0
C126 C 0.61187 0.65096 0.04999 0.0
C127 C 0.61309 0.64978 0.92069 0.0
C128 C 0.65284 0.68289 0.92132 0.0
C129 C 0.67182 0.70111 -0.0144 0.0
C130 C 0.65065 0.6852 0.04951 0.0
H131 H 0.38035 0.56719 -0.01457 0.0
H132 H 0.28324 0.66312 0.10018 0.0
H133 H 0.28772 0.6686 0.87286 0.0
C134 C 0.35287 0.59613 -0.01413 0.0
C135 C 0.33493 0.61457 0.92139 0.0
C136 C 0.33439 0.61321 0.05074 0.0
C137 C 0.29958 0.6515 0.05065 0.0
C138 C 0.28309 0.67256 -0.01307 0.0
C139 C 0.30122 0.65385 0.92242 0.0
H140 H 0.91632 0.88234 0.48482 0.0
H141 H 0.81889 0.78641 0.59887 0.0
H142 H 0.81371 0.79153 0.37154 0.0
C143 C 0.88693 0.85535 0.48503 0.0
C144 C 0.86832 0.83784 0.42042 0.0
C145 C 0.86948 0.83698 0.54974 0.0
C146 C 0.83074 0.80271 0.54941 0.0
C147 C 0.80956 0.78663 0.48559 0.0
C148 C 0.82857 0.80471 0.4212 0.0
H149 H 0.10052 0.91803 0.4862 0.0
H150 H 0.19648 0.82066 0.6005 0.0
H151 H 0.1915 0.81538 0.37323 0.0
C152 C 0.12746 0.88858 0.48648 0.0
C153 C 0.14503 0.86993 0.42194 0.0
C154 C 0.14586 0.8712 0.55123 0.0
C155 C 0.18015 0.83245 0.55103 0.0
C156 C 0.19633 0.81132 0.48724 0.0
C157 C 0.17821 0.83022 0.42284 0.0
H158 H 0.06951 0.10368 0.48604 0.0
H159 H 0.17121 0.1949 0.37172 0.0
H160 H 0.16741 0.19972 0.59903 0.0
C161 C 0.09883 0.13073 0.48594 0.0
C162 C 0.11668 0.14906 0.55047 0.0
C163 C 0.11698 0.1484 0.42116 0.0
C164 C 0.15669 0.1816 0.42151 0.0
C165 C 0.1761 0.19956 0.48568 0.0
C166 C 0.15533 0.18339 0.54971 0.0
H167 H 0.88177 0.06752 0.48115 0.0
H168 H 0.79826 0.17271 0.60096 0.0
H169 H 0.78567 0.16861 0.3741 0.0
C170 C 0.85576 0.09777 0.48312 0.0
C171 C 0.83567 0.11596 0.41986 0.0
C172 C 0.84132 0.11688 0.54889 0.0
C173 C 0.80928 0.1575 0.55048 0.0
C174 C 0.78947 0.17723 0.48777 0.0
C175 C 0.80283 0.15592 0.42255 0.0
C176 C 0.20635 0.20609 0.04744 0.0
C177 C 0.20456 0.17043 -0.00629 0.0
H178 H 0.24159 0.27109 0.08683 0.0
C179 C 0.23923 0.17245 0.93863 0.0
H180 H 0.17985 0.20559 0.09029 0.0
C181 C 0.27522 0.20903 0.93743 0.0
C182 C 0.27691 0.24533 -0.00952 0.0
H183 H 0.23917 0.14512 0.89683 0.0
H184 H 0.30226 0.20809 0.89538 0.0
C185 C 0.24187 0.24347 0.04548 0.0
C186 C 0.78117 0.20526 0.04383 0.0
C187 C 0.81736 0.20415 -0.00912 0.0
H188 H 0.71548 0.23954 0.08219 0.0
C189 C 0.81533 0.23891 0.93582 0.0
H190 H 0.78159 0.17863 0.08656 0.0
C191 C 0.77831 0.27447 0.93408 0.0
C192 C 0.74168 0.27561 -0.01338 0.0
H193 H 0.843 0.23928 0.89452 0.0
H194 H 0.77919 0.30167 0.89218 0.0
C195 C 0.74342 0.24031 0.04133 0.0
C196 C 0.74742 0.81333 0.9347 0.0
C197 C 0.78228 0.81545 -0.01048 0.0
H198 H 0.68451 0.77727 0.89176 0.0
C199 C 0.78129 0.77937 0.04272 0.0
H200 H 0.74694 0.84095 0.89329 0.0
C201 C 0.74625 0.74159 0.04065 0.0
C202 C 0.71082 0.73977 -0.01384 0.0
H203 H 0.80801 0.77991 0.0853 0.0
H204 H 0.74712 0.71372 0.08165 0.0
C205 C 0.71184 0.77635 0.93345 0.0
C206 C 0.17035 0.74776 0.93712 0.0
C207 C 0.16841 0.78278 -0.00821 0.0
H208 H 0.20639 0.68483 0.89399 0.0
C209 C 0.20462 0.78183 0.04476 0.0
H210 H 0.14262 0.74723 0.89589 0.0
C211 C 0.24241 0.74679 0.04248 0.0
C212 C 0.24416 0.71132 -0.012 0.0
H213 H 0.20423 0.80866 0.08722 0.0
H214 H 0.27043 0.74777 0.08322 0.0
C215 C 0.20736 0.71219 0.93564 0.0
C216 C 0.70019 0.70846 0.54355 0.0
C217 C 0.69895 0.67239 0.49038 0.0
H218 H 0.73452 0.7741 0.58213 0.0
C219 C 0.73361 0.67448 0.43531 0.0
H220 H 0.67361 0.70795 0.5863 0.0
C221 C 0.76924 0.71141 0.43376 0.0
C222 C 0.7705 0.74801 0.48643 0.0
H223 H 0.73388 0.64685 0.3939 0.0
H224 H 0.79641 0.71045 0.39188 0.0
C225 C 0.73525 0.74622 0.54116 0.0
C226 C 0.30927 0.73678 0.4369 0.0
C227 C 0.31157 0.7018 0.4916 0.0
H228 H 0.2728 0.79948 0.39395 0.0
C229 C 0.27543 0.70241 0.54465 0.0
H230 H 0.33696 0.73757 0.39563 0.0
C231 C 0.23736 0.73716 0.54247 0.0
C232 C 0.23531 0.77265 0.48802 0.0
H233 H 0.27613 0.6756 0.58713 0.0
H234 H 0.20944 0.73601 0.58333 0.0
C235 C 0.27202 0.77206 0.43555 0.0
C236 C 0.25167 0.31193 0.43527 0.0
C237 C 0.28643 0.31395 0.49022 0.0
H238 H 0.18883 0.27592 0.39203 0.0
C239 C 0.28553 0.27768 0.54311 0.0
H240 H 0.2512 0.33972 0.39408 0.0
C241 C 0.25063 0.23982 0.54067 0.0
C242 C 0.21516 0.23815 0.48621 0.0
H243 H 0.31224 0.27813 0.5857 0.0
H244 H 0.2516 0.21179 0.58144 0.0
C245 C 0.21614 0.27489 0.43371 0.0
C246 C 0.68232 0.25696 0.54894 0.0
C247 C 0.67893 0.29153 0.494 0.0
H248 H 0.71783 0.19263 0.58856 0.0
C249 C 0.71298 0.28951 0.43812 0.0
H250 H 0.65615 0.25729 0.59221 0.0
C251 C 0.74957 0.2533 0.43696 0.0
C252 C 0.75223 0.21759 0.49085 0.0
H253 H 0.71136 0.31597 0.39522 0.0
H254 H 0.77565 0.2533 0.39363 0.0
C255 C 0.71808 0.22003 0.54694 0.0
C256 C 0.09049 0.12207 0.22682 0.0
C257 C 0.03884 0.11983 0.22659 0.0
H258 H 0.15607 0.13125 0.28851 0.0
C259 C 0.01345 0.12608 0.29072 0.0
H260 H 0.11104 0.11844 0.17825 0.0
C261 C 0.03898 0.13446 0.35348 0.0
C262 C 0.09073 0.13647 0.35414 0.0
H263 H 0.97361 0.12469 0.2926 0.0
H264 H 0.01786 0.14056 0.4013 0.0
C265 C 0.11625 0.13002 0.29 0.0
C266 C 0.86149 0.09043 0.22531 0.0
C267 C 0.8627 0.03868 0.22436 0.0
H268 H 0.85274 0.15576 0.28805 0.0
C269 C 0.85459 0.01289 0.28779 0.0
H270 H 0.86662 0.11129 0.17725 0.0
C271 C 0.84599 0.03811 0.35073 0.0
C272 C 0.84544 0.08988 0.35216 0.0
H273 H 0.85511 0.97297 0.2891 0.0
H274 H 0.83914 0.01684 0.39825 0.0
C275 C 0.85301 0.11585 0.28867 0.0
C276 C 0.89397 0.86464 0.22581 0.0
C277 C 0.94564 0.86667 0.22519 0.0
H278 H 0.82862 0.85543 0.28808 0.0
C279 C 0.97124 0.86007 0.28909 0.0
H280 H 0.87325 0.86855 0.17739 0.0
C281 C 0.94597 0.85157 0.35199 0.0
C282 C 0.89423 0.84978 0.35311 0.0
H283 H 0.0111 0.8613 0.29071 0.0
H284 H 0.9673 0.84524 0.39958 0.0
C285 C 0.86845 0.85652 0.28921 0.0
C286 C 0.11986 0.89577 0.22704 0.0
C287 C 0.11816 0.94749 0.22638 0.0
H288 H 0.12808 0.8303 0.28946 0.0
C289 C 0.12414 0.97309 0.2904 0.0
H290 H 0.11636 0.87506 0.17854 0.0
C291 C 0.13184 0.94774 0.35348 0.0
C292 C 0.13342 0.89595 0.3546 0.0
H293 H 0.12309 0.013 0.29197 0.0
H294 H 0.13782 0.96905 0.40118 0.0
C295 C 0.12715 0.87018 0.29058 0.0
C296 C 0.12212 0.97346 0.68352 0.0
C297 C 0.11955 0.94728 0.74752 0.0
H298 H 0.13351 0.97029 0.57201 0.0
C299 C 0.12263 0.89562 0.74621 0.0
H300 H 0.1199 0.01333 0.68269 0.0
C301 C 0.12914 0.87067 0.68224 0.0
C302 C 0.13352 0.89695 0.61838 0.0
H303 H 0.12055 0.87439 0.79465 0.0
H304 H 0.13139 0.83083 0.68297 0.0
C305 C 0.12938 0.94864 0.61979 0.0
C306 C 0.01584 0.12445 0.68443 0.0
C307 C 0.04247 0.12239 0.74806 0.0
H308 H 0.018 0.13566 0.57288 0.0
C309 C 0.09402 0.126 0.74598 0.0
H310 H 0.97605 0.12185 0.68421 0.0
C311 C 0.11839 0.13252 0.68157 0.0
C312 C 0.09162 0.13651 0.61806 0.0
H313 H 0.11558 0.12424 0.79413 0.0
H314 H 0.15817 0.13512 0.68169 0.0
C315 C 0.04006 0.13183 0.6203 0.0
C316 C 0.86444 0.01422 0.68097 0.0
C317 C 0.86886 0.04041 0.74471 0.0
H318 H 0.85116 0.01748 0.57001 0.0
C319 C 0.86789 0.09215 0.7431 0.0
H320 H 0.86501 0.9743 0.68037 0.0
C321 C 0.86164 0.1172 0.67914 0.0
C322 C 0.85498 0.09101 0.61559 0.0
H323 H 0.8713 0.11339 0.79135 0.0
H324 H 0.8612 0.15709 0.67983 0.0
C325 C 0.85713 0.03917 0.61733 0.0
C326 C 0.97105 0.86194 0.68267 0.0
C327 C 0.94467 0.86454 0.74647 0.0
H328 H 0.96835 0.85006 0.57123 0.0
C329 C 0.8931 0.86095 0.74482 0.0
H330 H 0.01085 0.86451 0.68211 0.0
C331 C 0.86845 0.85398 0.68072 0.0
C332 C 0.89492 0.84959 0.61706 0.0
H333 H 0.87173 0.86309 0.7931 0.0
H334 H 0.82866 0.85143 0.68121 0.0
C335 C 0.94652 0.85418 0.61882 0.0
C336 C 0.58752 0.62286 0.7262 0.0
C337 C 0.53586 0.62103 0.72547 0.0
H338 H 0.65284 0.63185 0.78859 0.0
C339 C 0.51019 0.62775 0.78927 0.0
H340 H 0.60828 0.61882 0.67786 0.0
C341 C 0.53544 0.63619 0.85222 0.0
C342 C 0.58718 0.63779 0.85344 0.0
H343 H 0.47033 0.62666 0.79078 0.0
H344 H 0.5141 0.64264 0.89975 0.0
C345 C 0.613 0.6309 0.78963 0.0
C346 C 0.35867 0.51213 0.78965 0.0
C347 C 0.3648 0.53798 0.72584 0.0
H348 H 0.34386 0.51566 0.90018 0.0
C349 C 0.36193 0.58965 0.72665 0.0
H350 H 0.36053 0.47226 0.79114 0.0
C351 C 0.35345 0.61496 0.79014 0.0
C352 C 0.34718 0.58894 0.85396 0.0
H353 H 0.3655 0.61054 0.67831 0.0
H354 H 0.35171 0.65481 0.78915 0.0
C355 C 0.3498 0.53719 0.85266 0.0
C356 C 0.3974 0.36342 0.72838 0.0
C357 C 0.44907 0.36489 0.72648 0.0
H358 H 0.33276 0.35431 0.79228 0.0
C359 C 0.4754 0.35749 0.78958 0.0
H360 H 0.37612 0.368 0.68056 0.0
C361 C 0.45087 0.34873 0.85297 0.0
C362 C 0.39916 0.34748 0.85542 0.0
H363 H 0.51528 0.35828 0.79023 0.0
H364 H 0.47273 0.34178 0.89987 0.0
C365 C 0.37261 0.35501 0.79233 0.0
C366 C 0.62609 0.4746 0.78879 0.0
C367 C 0.61951 0.44862 0.7252 0.0
H368 H 0.64168 0.47132 0.89911 0.0
C369 C 0.62235 0.39694 0.72626 0.0
H370 H 0.62427 0.51448 0.79009 0.0
C371 C 0.63126 0.37178 0.78976 0.0
C372 C 0.63801 0.39794 0.85333 0.0
H373 H 0.61845 0.37594 0.67812 0.0
H374 H 0.63296 0.33192 0.78895 0.0
C375 C 0.63539 0.44969 0.85179 0.0
C376 C 0.62486 0.47589 0.18219 0.0
C377 C 0.62453 0.4499 0.24643 0.0
H378 H 0.63536 0.47295 0.07054 0.0
C379 C 0.63075 0.39854 0.2455 0.0
H380 H 0.62035 0.51556 0.18116 0.0
C381 C 0.6377 0.37368 0.18159 0.0
C382 C 0.63985 0.39982 0.11734 0.0
H383 H 0.63039 0.37747 0.29416 0.0
H384 H 0.64192 0.33401 0.18273 0.0
C385 C 0.63292 0.45124 0.11849 0.0
C386 C 0.58796 0.62749 0.24512 0.0
C387 C 0.53639 0.62373 0.24656 0.0
H388 H 0.65249 0.637 0.18173 0.0
C389 C 0.51012 0.6262 0.18265 0.0
H390 H 0.60925 0.62546 0.29349 0.0
C391 C 0.53474 0.63392 0.11888 0.0
C392 C 0.58633 0.63857 0.1173 0.0
H393 H 0.47032 0.62352 0.18195 0.0
H394 H 0.51298 0.63791 0.0712 0.0
C395 C 0.61271 0.6344 0.18109 0.0
C396 C 0.36231 0.51184 0.1831 0.0
C397 C 0.36434 0.53812 0.24703 0.0
H398 H 0.35002 0.51449 0.07177 0.0
C399 C 0.3592 0.58962 0.2457 0.0
H400 H 0.36601 0.47208 0.18231 0.0
C401 C 0.35142 0.61429 0.18177 0.0
C402 C 0.34765 0.58786 0.11795 0.0
H403 H 0.36081 0.61093 0.2941 0.0
H404 H 0.34782 0.65403 0.18253 0.0
C405 C 0.35365 0.53634 0.11943 0.0
C406 C 0.40255 0.35945 0.24661 0.0
C407 C 0.45412 0.3635 0.24713 0.0
H408 H 0.33754 0.34863 0.18461 0.0
C409 C 0.47993 0.35976 0.18298 0.0
H410 H 0.3816 0.36234 0.29517 0.0
C411 C 0.4548 0.35086 0.11987 0.0
C412 C 0.40317 0.34623 0.11922 0.0
H413 H 0.5197 0.36258 0.18159 0.0
H414 H 0.47615 0.34621 0.07194 0.0
C415 C 0.37731 0.35128 0.18327 0.0
loop_
_geom_bond_atom_site_label_1
_geom_bond_atom_site_label_2
_geom_bond_distance
_geom_bond_site_symmetry_2
_ccdc_geom_bond_type
Zn0 O2 1.933 1_556 S
Zn0 O20 1.985 . S
Zn0 O31 1.955 . S
Zn1 O2 1.911 . S
Zn1 O21 1.970 . S
Zn1 O37 1.945 . S
Zn1 O44 1.981 . S
O2 Zn0 1.933 1_554 S
O2 Zn1 1.911 . S
O2 H3 0.841 1_655 S
H3 O2 0.841 1_455 S
C4 O5 1.246 . S
C4 O33 1.276 1_545 S
O5 C4 1.246 . S
Zn6 O8 1.911 . S
Zn6 O23 1.970 . S
Zn6 O40 1.945 . S
Zn6 O47 1.981 . S
Zn7 O8 1.933 1_556 S
Zn7 O22 1.985 . S
Zn7 O29 1.955 . S
O8 Zn6 1.911 . S
O8 Zn7 1.933 1_554 S
O8 H9 0.841 1_455 S
H9 O8 0.841 1_655 S
Zn10 O11 1.933 1_556 S
Zn10 O24 1.985 . S
Zn10 O33 1.955 . S
O11 Zn10 1.933 1_554 S
O11 Zn12 1.911 . S
O11 H13 0.841 1_565 S
Zn12 O11 1.911 . S
Zn12 O25 1.970 . S
Zn12 O41 1.981 . S
Zn12 O43 1.945 . S
H13 O11 0.841 1_545 S
Zn14 O15 1.933 1_556 S
Zn14 O27 1.985 . S
Zn14 O35 1.955 . S
O15 Zn14 1.933 1_554 S
O15 H16 0.841 1_545 S
O15 Zn17 1.911 . S
H16 O15 0.841 1_565 S
Zn17 O15 1.911 . S
Zn17 O28 1.970 . S
Zn17 O38 1.981 . S
Zn17 O46 1.945 . S
C18 O19 1.246 . S
C18 O35 1.276 1_565 S
O19 C18 1.246 . S
O20 Zn0 1.985 . S
O20 C30 1.245 1_556 S
O21 Zn1 1.970 . S
O21 C30 1.263 . S
O22 Zn7 1.985 . S
O22 C34 1.245 1_556 S
O23 Zn6 1.970 . S
O23 C34 1.263 . S
O24 Zn10 1.985 . S
O24 C39 1.245 1_556 S
O25 Zn12 1.970 . S
O25 C39 1.263 . S
C26 O37 1.262 1_455 S
C26 O38 1.245 . S
O27 Zn14 1.985 . S
O27 C45 1.245 1_556 S
O28 Zn17 1.970 . S
O28 C45 1.263 . S
O29 Zn7 1.955 . S
O29 C48 1.276 1_455 S
C30 O20 1.245 1_554 S
C30 O21 1.263 . S
O31 Zn0 1.955 . S
O31 C50 1.276 1_655 S
C32 O40 1.262 1_655 S
C32 O41 1.245 . S
O33 C4 1.276 1_565 S
O33 Zn10 1.955 . S
C34 O22 1.245 1_554 S
C34 O23 1.263 . S
O35 Zn14 1.955 . S
O35 C18 1.276 1_545 S
C36 O43 1.262 1_545 S
C36 O44 1.245 . S
O37 Zn1 1.945 . S
O37 C26 1.262 1_655 S
O38 Zn17 1.981 . S
O38 C26 1.245 . S
C39 O24 1.245 1_554 S
C39 O25 1.263 . S
O40 Zn6 1.945 . S
O40 C32 1.262 1_455 S
O41 Zn12 1.981 . S
O41 C32 1.245 . S
C42 O46 1.262 1_565 S
C42 O47 1.245 . S
O43 Zn12 1.945 . S
O43 C36 1.262 1_565 S
O44 Zn1 1.981 . S
O44 C36 1.245 . S
C45 O27 1.245 1_554 S
C45 O28 1.263 . S
O46 Zn17 1.945 . S
O46 C42 1.262 1_545 S
O47 Zn6 1.981 . S
O47 C42 1.245 . S
C48 O29 1.276 1_655 S
C48 O49 1.246 . S
O49 C48 1.246 . S
C50 O31 1.276 1_455 S
C50 O51 1.246 . S
O51 C50 1.246 . S
Zn52 O54 1.933 . S
Zn52 O72 1.985 . S
Zn52 O83 1.955 . S
Zn53 O54 1.911 . S
Zn53 O73 1.970 . S
Zn53 O89 1.945 . S
Zn53 O96 1.981 . S
O54 Zn52 1.933 . S
O54 Zn53 1.911 . S
O54 H55 0.841 . S
H55 O54 0.841 . S
C56 O57 1.246 . S
C56 O85 1.276 . S
O57 C56 1.246 . S
Zn58 O60 1.911 . S
Zn58 O75 1.970 . S
Zn58 O92 1.945 . S
Zn58 O99 1.981 . S
Zn59 O60 1.933 . S
Zn59 O74 1.985 . S
Zn59 O81 1.955 . S
O60 Zn58 1.911 . S
O60 Zn59 1.933 . S
O60 H61 0.841 . S
H61 O60 0.841 . S
Zn62 O63 1.933 . S
Zn62 O76 1.985 . S
Zn62 O85 1.955 . S
O63 Zn62 1.933 . S
O63 Zn64 1.911 . S
O63 H65 0.841 . S
Zn64 O63 1.911 . S
Zn64 O77 1.970 . S
Zn64 O93 1.981 . S
Zn64 O95 1.945 . S
H65 O63 0.841 . S
Zn66 O67 1.933 . S
Zn66 O79 1.985 . S
Zn66 O87 1.955 . S
O67 Zn66 1.933 . S
O67 H68 0.841 . S
O67 Zn69 1.911 . S
H68 O67 0.841 . S
Zn69 O67 1.911 . S
Zn69 O80 1.970 . S
Zn69 O90 1.981 . S
Zn69 O98 1.945 . S
C70 O71 1.246 . S
C70 O87 1.276 . S
O71 C70 1.246 . S
O72 Zn52 1.985 . S
O72 C82 1.245 . S
O73 Zn53 1.970 . S
O73 C82 1.263 . S
O74 Zn59 1.985 . S
O74 C86 1.245 . S
O75 Zn58 1.970 . S
O75 C86 1.263 . S
O76 Zn62 1.985 . S
O76 C91 1.245 . S
O77 Zn64 1.970 . S
O77 C91 1.263 . S
C78 O89 1.262 . S
C78 O90 1.245 . S
O79 Zn66 1.985 . S
O79 C97 1.245 . S
O80 Zn69 1.970 . S
O80 C97 1.263 . S
O81 Zn59 1.955 . S
O81 C100 1.276 . S
C82 O72 1.245 . S
C82 O73 1.263 . S
O83 Zn52 1.955 . S
O83 C102 1.276 . S
C84 O92 1.262 . S
C84 O93 1.245 . S
O85 C56 1.276 . S
O85 Zn62 1.955 . S
C86 O74 1.245 . S
C86 O75 1.263 . S
O87 Zn66 1.955 . S
O87 C70 1.276 . S
C88 O95 1.262 . S
C88 O96 1.245 . S
O89 Zn53 1.945 . S
O89 C78 1.262 . S
O90 Zn69 1.981 . S
O90 C78 1.245 . S
C91 O76 1.245 . S
C91 O77 1.263 . S
O92 Zn58 1.945 . S
O92 C84 1.262 . S
O93 Zn64 1.981 . S
O93 C84 1.245 . S
C94 O98 1.262 . S
C94 O99 1.245 . S
O95 Zn64 1.945 . S
O95 C88 1.262 . S
O96 Zn53 1.981 . S
O96 C88 1.245 . S
C97 O79 1.245 . S
C97 O80 1.263 . S
O98 Zn69 1.945 . S
O98 C94 1.262 . S
O99 Zn58 1.981 . S
O99 C94 1.245 . S
C100 O81 1.276 . S
C100 O101 1.246 . S
O101 C100 1.246 . S
C102 O83 1.276 . S
C102 O103 1.246 . S
O103 C102 1.246 . S
H104 C107 0.931 . S
H105 C110 0.928 . S
H106 C112 0.930 . S
C107 H104 0.931 . S
C107 C108 1.413 1_554 S
C107 C109 1.360 . S
C108 C107 1.413 1_556 S
C108 C112 1.429 . S
C109 C107 1.360 . S
C109 C110 1.372 . S
C110 H105 0.928 . S
C110 C109 1.372 . S
C110 C111 1.404 . S
C111 C110 1.404 . S
C111 C112 1.391 1_554 S
C112 H106 0.930 . S
C112 C108 1.429 . S
C112 C111 1.391 1_556 S
H113 C116 0.931 . S
H114 C119 0.928 . S
H115 C121 0.930 . S
C116 H113 0.931 . S
C116 C117 1.413 1_554 S
C116 C118 1.360 . S
C117 C116 1.413 1_556 S
C117 C121 1.429 . S
C118 C116 1.360 . S
C118 C119 1.372 . S
C119 H114 0.928 . S
C119 C118 1.372 . S
C119 C120 1.404 . S
C120 C119 1.404 . S
C120 C121 1.391 1_554 S
C121 H115 0.930 . S
C121 C117 1.429 . S
C121 C120 1.391 1_556 S
H122 C125 0.931 . S
H123 C128 0.928 . S
H124 C130 0.930 . S
C125 H122 0.931 . S
C125 C126 1.413 . S
C125 C127 1.360 1_554 S
C126 C125 1.413 . S
C126 C130 1.429 . S
C127 C125 1.360 1_556 S
C127 C128 1.372 . S
C128 H123 0.928 . S
C128 C127 1.372 . S
C128 C129 1.404 1_556 S
C129 C128 1.404 1_554 S
C129 C130 1.391 . S
C130 H124 0.930 . S
C130 C126 1.429 . S
C130 C129 1.391 . S
H131 C134 0.931 . S
H132 C137 0.928 . S
H133 C139 0.930 . S
C134 H131 0.931 . S
C134 C135 1.413 1_554 S
C134 C136 1.360 . S
C135 C134 1.413 1_556 S
C135 C139 1.429 . S
C136 C134 1.360 . S
C136 C137 1.372 . S
C137 H132 0.928 . S
C137 C136 1.372 . S
C137 C138 1.404 . S
C138 C137 1.404 . S
C138 C139 1.391 1_554 S
C139 H133 0.930 . S
C139 C135 1.429 . S
C139 C138 1.391 1_556 S
H140 C143 0.931 . S
H141 C146 0.928 . S
H142 C148 0.930 . S
C143 H140 0.931 . S
C143 C144 1.413 . S
C143 C145 1.360 . S
C144 C143 1.413 . S
C144 C148 1.429 . S
C145 C143 1.360 . S
C145 C146 1.372 . S
C146 H141 0.928 . S
C146 C145 1.372 . S
C146 C147 1.404 . S
C147 C146 1.404 . S
C147 C148 1.391 . S
C148 H142 0.930 . S
C148 C144 1.429 . S
C148 C147 1.391 . S
H149 C152 0.931 . S
H150 C155 0.928 . S
H151 C157 0.930 . S
C152 H149 0.931 . S
C152 C153 1.413 . S
C152 C154 1.360 . S
C153 C152 1.413 . S
C153 C157 1.429 . S
C154 C152 1.360 . S
C154 C155 1.372 . S
C155 H150 0.928 . S
C155 C154 1.372 . S
C155 C156 1.404 . S
C156 C155 1.404 . S
C156 C157 1.391 . S
C157 H151 0.930 . S
C157 C153 1.429 . S
C157 C156 1.391 . S
H158 C161 0.931 . S
H159 C164 0.928 . S
H160 C166 0.930 . S
C161 H158 0.931 . S
C161 C162 1.413 . S
C161 C163 1.360 . S
C162 C161 1.413 . S
C162 C166 1.429 . S
C163 C161 1.360 . S
C163 C164 1.372 . S
C164 H159 0.928 . S
C164 C163 1.372 . S
C164 C165 1.404 . S
C165 C164 1.404 . S
C165 C166 1.391 . S
C166 H160 0.930 . S
C166 C162 1.429 . S
C166 C165 1.391 . S
H167 C170 0.931 . S
H168 C173 0.928 . S
H169 C175 0.930 . S
C170 H167 0.931 . S
C170 C171 1.413 . S
C170 C172 1.360 . S
C171 C170 1.413 . S
C171 C175 1.429 . S
C172 C170 1.360 . S
C172 C173 1.372 . S
C173 H168 0.928 . S
C173 C172 1.372 . S
C173 C174 1.404 . S
C174 C173 1.404 . S
C174 C175 1.391 . S
C175 H169 0.930 . S
C175 C171 1.429 . S
C175 C174 1.391 . S
C176 C177 1.387 . S
C176 H180 0.950 . S
C176 C185 1.390 . S
C177 C176 1.387 . S
C177 C179 1.387 1_554 S
H178 C185 0.950 . S
C179 C177 1.387 1_556 S
C179 C181 1.390 . S
C179 H183 0.950 . S
H180 C176 0.950 . S
C181 C179 1.390 . S
C181 C182 1.387 1_556 S
C181 H184 0.950 . S
C182 C181 1.387 1_554 S
C182 C185 1.387 . S
H183 C179 0.950 . S
H184 C181 0.950 . S
C185 C176 1.390 . S
C185 H178 0.950 . S
C185 C182 1.387 . S
C186 C187 1.387 . S
C186 H190 0.950 . S
C186 C195 1.390 . S
C187 C186 1.387 . S
C187 C189 1.387 1_554 S
H188 C195 0.950 . S
C189 C187 1.387 1_556 S
C189 C191 1.390 . S
C189 H193 0.950 . S
H190 C186 0.950 . S
C191 C189 1.390 . S
C191 C192 1.387 1_556 S
C191 H194 0.950 . S
C192 C191 1.387 1_554 S
C192 C195 1.387 . S
H193 C189 0.950 . S
H194 C191 0.950 . S
C195 C186 1.390 . S
C195 H188 0.950 . S
C195 C192 1.387 . S
C196 C197 1.387 1_556 S
C196 H200 0.950 . S
C196 C205 1.390 . S
C197 C196 1.387 1_554 S
C197 C199 1.387 . S
H198 C205 0.950 . S
C199 C197 1.387 . S
C199 C201 1.390 . S
C199 H203 0.950 . S
H200 C196 0.950 . S
C201 C199 1.390 . S
C201 C202 1.387 . S
C201 H204 0.950 . S
C202 C201 1.387 . S
C202 C205 1.387 1_554 S
H203 C199 0.950 . S
H204 C201 0.950 . S
C205 C196 1.390 . S
C205 H198 0.950 . S
C205 C202 1.387 1_556 S
C206 C207 1.387 1_556 S
C206 H210 0.950 . S
C206 C215 1.390 . S
C207 C206 1.387 1_554 S
C207 C209 1.387 . S
H208 C215 0.950 . S
C209 C207 1.387 . S
C209 C211 1.390 . S
C209 H213 0.950 . S
H210 C206 0.950 . S
C211 C209 1.390 . S
C211 C212 1.387 . S
C211 H214 0.950 . S
C212 C211 1.387 . S
C212 C215 1.387 1_554 S
H213 C209 0.950 . S
H214 C211 0.950 . S
C215 C206 1.390 . S
C215 H208 0.950 . S
C215 C212 1.387 1_556 S
C216 C217 1.387 . S
C216 H220 0.950 . S
C216 C225 1.390 . S
C217 C216 1.387 . S
C217 C219 1.387 . S
H218 C225 0.950 . S
C219 C217 1.387 . S
C219 C221 1.390 . S
C219 H223 0.950 . S
H220 C216 0.950 . S
C221 C219 1.390 . S
C221 C222 1.387 . S
C221 H224 0.950 . S
C222 C221 1.387 . S
C222 C225 1.387 . S
H223 C219 0.950 . S
H224 C221 0.950 . S
C225 C216 1.390 . S
C225 H218 0.950 . S
C225 C222 1.387 . S
C226 C227 1.387 . S
C226 H230 0.950 . S
C226 C235 1.390 . S
C227 C226 1.387 . S
C227 C229 1.387 . S
H228 C235 0.950 . S
C229 C227 1.387 . S
C229 C231 1.390 . S
C229 H233 0.950 . S
H230 C226 0.950 . S
C231 C229 1.390 . S
C231 C232 1.387 . S
C231 H234 0.950 . S
C232 C231 1.387 . S
C232 C235 1.387 . S
H233 C229 0.950 . S
H234 C231 0.950 . S
C235 C226 1.390 . S
C235 H228 0.950 . S
C235 C232 1.387 . S
C236 C237 1.387 . S
C236 H240 0.950 . S
C236 C245 1.390 . S
C237 C236 1.387 . S
C237 C239 1.387 . S
H238 C245 0.950 . S
C239 C237 1.387 . S
C239 C241 1.390 . S
C239 H243 0.950 . S
H240 C236 0.950 . S
C241 C239 1.390 . S
C241 C242 1.387 . S
C241 H244 0.950 . S
C242 C241 1.387 . S
C242 C245 1.387 . S
H243 C239 0.950 . S
H244 C241 0.950 . S
C245 C236 1.390 . S
C245 H238 0.950 . S
C245 C242 1.387 . S
C246 C247 1.387 . S
C246 H250 0.950 . S
C246 C255 1.390 . S
C247 C246 1.387 . S
C247 C249 1.387 . S
H248 C255 0.950 . S
C249 C247 1.387 . S
C249 C251 1.390 . S
C249 H253 0.950 . S
H250 C246 0.950 . S
C251 C249 1.390 . S
C251 C252 1.387 . S
C251 H254 0.950 . S
C252 C251 1.387 . S
C252 C255 1.387 . S
H253 C249 0.950 . S
H254 C251 0.950 . S
C255 C246 1.390 . S
C255 H248 0.950 . S
C255 C252 1.387 . S
C256 C257 1.387 . S
C256 H260 0.950 . S
C256 C265 1.390 . S
C257 C256 1.387 . S
C257 C259 1.387 . S
H258 C265 0.950 . S
C259 C257 1.387 . S
C259 C261 1.390 . S
C259 H263 0.950 1_455 S
H260 C256 0.950 . S
C261 C259 1.390 . S
C261 C262 1.387 . S
C261 H264 0.950 1_455 S
C262 C261 1.387 . S
C262 C265 1.387 . S
H263 C259 0.950 1_655 S
H264 C261 0.950 1_655 S
C265 C256 1.390 . S
C265 H258 0.950 . S
C265 C262 1.387 . S
C266 C267 1.387 . S
C266 H270 0.950 . S
C266 C275 1.390 . S
C267 C266 1.387 . S
C267 C269 1.387 . S
H268 C275 0.950 . S
C269 C267 1.387 . S
C269 C271 1.390 . S
C269 H273 0.950 1_545 S
H270 C266 0.950 . S
C271 C269 1.390 . S
C271 C272 1.387 . S
C271 H274 0.950 . S
C272 C271 1.387 . S
C272 C275 1.387 . S
H273 C269 0.950 1_565 S
H274 C271 0.950 . S
C275 C266 1.390 . S
C275 H268 0.950 . S
C275 C272 1.387 . S
C276 C277 1.387 . S
C276 H280 0.950 . S
C276 C285 1.390 . S
C277 C276 1.387 . S
C277 C279 1.387 . S
H278 C285 0.950 . S
C279 C277 1.387 . S
C279 C281 1.390 . S
C279 H283 0.950 1_655 S
H280 C276 0.950 . S
C281 C279 1.390 . S
C281 C282 1.387 . S
C281 H284 0.950 . S
C282 C281 1.387 . S
C282 C285 1.387 . S
H283 C279 0.950 1_455 S
H284 C281 0.950 . S
C285 C276 1.390 . S
C285 H278 0.950 . S
C285 C282 1.387 . S
C286 C287 1.387 . S
C286 H290 0.950 . S
C286 C295 1.390 . S
C287 C286 1.387 . S
C287 C289 1.387 . S
H288 C295 0.950 . S
C289 C287 1.387 . S
C289 C291 1.390 . S
C289 H293 0.950 1_565 S
H290 C286 0.950 . S
C291 C289 1.390 . S
C291 C292 1.387 . S
C291 H294 0.943 1_565 S
C292 C291 1.387 . S
C292 C295 1.387 . S
H293 C289 0.950 1_545 S
H294 C291 0.943 1_545 S
C295 C286 1.390 . S
C295 H288 0.950 . S
C295 C292 1.387 . S
C296 C297 1.387 . S
C296 H300 0.950 1_565 S
C296 C305 1.390 . S
C297 C296 1.387 . S
C297 C299 1.387 . S
H298 C305 0.950 1_545 S
C299 C297 1.387 . S
C299 C301 1.390 . S
C299 H303 0.950 . S
H300 C296 0.950 1_545 S
C301 C299 1.390 . S
C301 C302 1.387 . S
C301 H304 0.950 . S
C302 C301 1.387 . S
C302 C305 1.387 . S
H303 C299 0.950 . S
H304 C301 0.950 . S
C305 C296 1.390 . S
C305 H298 0.950 1_565 S
C305 C302 1.387 . S
C306 C307 1.387 . S
C306 H310 0.950 1_455 S
C306 C315 1.390 . S
C307 C306 1.387 . S
C307 C309 1.387 . S
H308 C315 0.959 . S
C309 C307 1.387 . S
C309 C311 1.390 . S
C309 H313 0.950 . S
H310 C306 0.950 1_655 S
C311 C309 1.390 . S
C311 C312 1.387 . S
C311 H314 0.950 . S
C312 C311 1.387 . S
C312 C315 1.387 . S
H313 C309 0.950 . S
H314 C311 0.950 . S
C315 C306 1.390 . S
C315 H308 0.959 . S
C315 C312 1.387 . S
C316 C317 1.387 . S
C316 H320 0.950 1_545 S
C316 C325 1.390 . S
C317 C316 1.387 . S
C317 C319 1.387 . S
H318 C325 0.950 1_565 S
C319 C317 1.387 . S
C319 C321 1.390 . S
C319 H323 0.950 . S
H320 C316 0.950 1_565 S
C321 C319 1.390 . S
C321 C322 1.387 . S
C321 H324 0.950 . S
C322 C321 1.387 . S
C322 C325 1.387 . S
H323 C319 0.950 . S
H324 C321 0.950 . S
C325 C316 1.390 . S
C325 H318 0.950 1_545 S
C325 C322 1.387 . S
C326 C327 1.387 . S
C326 H330 0.950 1_655 S
C326 C335 1.390 . S
C327 C326 1.387 . S
C327 C329 1.387 . S
H328 C335 0.950 . S
C329 C327 1.387 . S
C329 C331 1.390 . S
C329 H333 0.950 . S
H330 C326 0.950 1_455 S
C331 C329 1.390 . S
C331 C332 1.387 . S
C331 H334 0.950 . S
C332 C331 1.387 . S
C332 C335 1.387 . S
H333 C329 0.950 . S
H334 C331 0.950 . S
C335 C326 1.390 . S
C335 H328 0.950 . S
C335 C332 1.387 . S
C336 C337 1.387 . S
C336 H340 0.950 . S
C336 C345 1.390 . S
C337 C336 1.387 . S
C337 C339 1.387 . S
H338 C345 0.950 . S
C339 C337 1.387 . S
C339 C341 1.390 . S
C339 H343 0.950 . S
H340 C336 0.950 . S
C341 C339 1.390 . S
C341 C342 1.387 . S
C341 H344 0.950 . S
C342 C341 1.387 . S
C342 C345 1.387 . S
H343 C339 0.950 . S
H344 C341 0.950 . S
C345 C336 1.390 . S
C345 H338 0.950 . S
C345 C342 1.387 . S
C346 C347 1.387 . S
C346 H350 0.950 . S
C346 C355 1.390 . S
C347 C346 1.387 . S
C347 C349 1.387 . S
H348 C355 0.950 . S
C349 C347 1.387 . S
C349 C351 1.390 . S
C349 H353 0.950 . S
H350 C346 0.950 . S
C351 C349 1.390 . S
C351 C352 1.387 . S
C351 H354 0.950 . S
C352 C351 1.387 . S
C352 C355 1.387 . S
H353 C349 0.950 . S
H354 C351 0.950 . S
C355 C346 1.390 . S
C355 H348 0.950 . S
C355 C352 1.387 . S
C356 C357 1.387 . S
C356 H360 0.950 . S
C356 C365 1.390 . S
C357 C356 1.387 . S
C357 C359 1.387 . S
H358 C365 0.950 . S
C359 C357 1.387 . S
C359 C361 1.390 . S
C359 H363 0.950 . S
H360 C356 0.950 . S
C361 C359 1.390 . S
C361 C362 1.387 . S
C361 H364 0.950 . S
C362 C361 1.387 . S
C362 C365 1.387 . S
H363 C359 0.950 . S
H364 C361 0.950 . S
C365 C356 1.390 . S
C365 H358 0.950 . S
C365 C362 1.387 . S
C366 C367 1.387 . S
C366 H370 0.950 . S
C366 C375 1.390 . S
C367 C366 1.387 . S
C367 C369 1.387 . S
H368 C375 0.950 . S
C369 C367 1.387 . S
C369 C371 1.390 . S
C369 H373 0.950 . S
H370 C366 0.950 . S
C371 C369 1.390 . S
C371 C372 1.387 . S
C371 H374 0.950 . S
C372 C371 1.387 . S
C372 C375 1.387 . S
H373 C369 0.950 . S
H374 C371 0.950 . S
C375 C366 1.390 . S
C375 H368 0.950 . S
C375 C372 1.387 . S
C376 C377 1.387 . S
C376 H380 0.950 . S
C376 C385 1.390 . S
C377 C376 1.387 . S
C377 C379 1.387 . S
H378 C385 0.950 . S
C379 C377 1.387 . S
C379 C381 1.390 . S
C379 H383 0.950 . S
H380 C376 0.950 . S
C381 C379 1.390 . S
C381 C382 1.387 . S
C381 H384 0.950 . S
C382 C381 1.387 . S
C382 C385 1.387 . S
H383 C379 0.950 . S
H384 C381 0.950 . S
C385 C376 1.390 . S
C385 H378 0.950 . S
C385 C382 1.387 . S
C386 C387 1.387 . S
C386 H390 0.950 . S
C386 C395 1.390 . S
C387 C386 1.387 . S
C387 C389 1.387 . S
H388 C395 0.950 . S
C389 C387 1.387 . S
C389 C391 1.390 . S
C389 H393 0.950 . S
H390 C386 0.950 . S
C391 C389 1.390 . S
C391 C392 1.387 . S
C391 H394 0.950 . S
C392 C391 1.387 . S
C392 C395 1.387 . S
H393 C389 0.950 . S
H394 C391 0.950 . S
C395 C386 1.390 . S
C395 H388 0.950 . S
C395 C392 1.387 . S
C396 C397 1.387 . S
C396 H400 0.950 . S
C396 C405 1.390 . S
C397 C396 1.387 . S
C397 C399 1.387 . S
H398 C405 0.950 . S
C399 C397 1.387 . S
C399 C401 1.390 . S
C399 H403 0.950 . S
H400 C396 0.950 . S
C401 C399 1.390 . S
C401 C402 1.387 . S
C401 H404 0.950 . S
C402 C401 1.387 . S
C402 C405 1.387 . S
H403 C399 0.950 . S
H404 C401 0.950 . S
C405 C396 1.390 . S
C405 H398 0.950 . S
C405 C402 1.387 . S
C406 C407 1.387 . S
C406 H410 0.950 . S
C406 C415 1.390 . S
C407 C406 1.387 . S
C407 C409 1.387 . S
H408 C415 0.950 . S
C409 C407 1.387 . S
C409 C411 1.390 . S
C409 H413 0.950 . S
H410 C406 0.950 . S
C411 C409 1.390 . S
C411 C412 1.387 . S
C411 H414 0.950 . S
C412 C411 1.387 . S
C412 C415 1.387 . S
H413 C409 0.950 . S
H414 C411 0.950 . S
C415 C406 1.390 . S
C415 H408 0.950 . S
C415 C412 1.387 . S
C177 C45 1.534 . S
C182 C111 1.545 . S
C187 C30 1.534 . S
C192 C120 1.546 . S
C197 C39 1.531 . S
C202 C129 1.540 . S
C212 C138 1.545 . S
C207 C34 1.532 . S
C217 C97 1.534 . S
C222 C147 1.546 . S
C232 C156 1.545 . S
C227 C82 1.531 . S
C242 C165 1.540 . S
C237 C91 1.531 . S
C252 C174 1.546 . S
C247 C86 1.534 . S
C262 C163 1.477 . S
C257 C26 1.439 . S
C272 C171 1.480 . S
C267 C36 1.438 . S
C282 C144 1.482 . S
C277 C32 1.440 . S
C292 C153 1.480 . S
C287 C42 1.438 . S
C297 C18 1.484 . S
C302 C154 1.546 . S
C312 C162 1.540 . S
C307 C50 1.482 . S
C317 C4 1.484 . S
C322 C172 1.546 . S
C327 C48 1.482 . S
C332 C145 1.545 . S
C342 C127 1.477 . S
C337 C78 1.439 . S
C347 C88 1.435 . S
C352 C135 1.479 . S
C362 C108 1.481 . S
C357 C84 1.438 . S
C372 C117 1.479 . S
C367 C94 1.435 . S
C382 C118 1.546 . S
C377 C70 1.484 . S
C392 C126 1.538 . S
C387 C102 1.480 . S
C397 C56 1.484 . S
C402 C136 1.546 . S
C407 C100 1.480 . S
C412 C109 1.543 . S
