# Generated by pormake.
# Topology zzz, (3,6)-cn, num edge types: 1
# Building blocks:
#     Node 0, Type 0, BuildingBlock: QEWDON_clean_linker_0, # of connection points: 3
#     Node 1, Type 0, BuildingBlock: QEWDON_clean_linker_0, # of connection points: 3
#     Node 2, Type 0, BuildingBlock: QEWDON_clean_linker_0, # of connection points: 3
#     Node 3, Type 0, BuildingBlock: QEWDON_clean_linker_0, # of connection points: 3
#     Node 4, Type 0, BuildingBlock: QEWDON_clean_linker_0, # of connection points: 3
#     Node 5, Type 0, BuildingBlock: QEWDON_clean_linker_0, # of connection points: 3
#     Node 6, Type 0, BuildingBlock: QEWDON_clean_linker_0, # of connection points: 3
#     Node 7, Type 0, BuildingBlock: QEWDON_clean_linker_0, # of connection points: 3
#     Node 8, Type 1, BuildingBlock: MIFKUJ_clean_sbu_0, # of connection points: 6
#     Node 9, Type 1, BuildingBlock: MIFKUJ_clean_sbu_0, # of connection points: 6
#     Node 10, Type 1, BuildingBlock: MIFKUJ_clean_sbu_0, # of connection points: 6
#     Node 11, Type 1, BuildingBlock: MIFKUJ_clean_sbu_0, # of connection points: 6
#     Edge 12, Type (0, 1), BuildingBlock: ZUJKAS_clean_linker_0, # of connection points: 2
#     Edge 13, Type (0, 1), BuildingBlock: ZUJKAS_clean_linker_0, # of connection points: 2
#     Edge 14, Type (0, 1), BuildingBlock: ZUJKAS_clean_linker_0, # of connection points: 2
#     Edge 15, Type (0, 1), BuildingBlock: ZUJKAS_clean_linker_0, # of connection points: 2
#     Edge 16, Type (0, 1), BuildingBlock: ZUJKAS_clean_linker_0, # of connection points: 2
#     Edge 17, Type (0, 1), BuildingBlock: ZUJKAS_clean_linker_0, # of connection points: 2
#     Edge 18, Type (0, 1), BuildingBlock: ZUJKAS_clean_linker_0, # of connection points: 2
#     Edge 19, Type (0, 1), BuildingBlock: ZUJKAS_clean_linker_0, # of connection points: 2
#     Edge 20, Type (0, 1), BuildingBlock: ZUJKAS_clean_linker_0, # of connection points: 2
#     Edge 21, Type (0, 1), BuildingBlock: ZUJKAS_clean_linker_0, # of connection points: 2
#     Edge 22, Type (0, 1), BuildingBlock: ZUJKAS_clean_linker_0, # of connection points: 2
#     Edge 23, Type (0, 1), BuildingBlock: ZUJKAS_clean_linker_0, # of connection points: 2
#     Edge 24, Type (0, 1), BuildingBlock: ZUJKAS_clean_linker_0, # of connection points: 2
#     Edge 25, Type (0, 1), BuildingBlock: ZUJKAS_clean_linker_0, # of connection points: 2
#     Edge 26, Type (0, 1), BuildingBlock: ZUJKAS_clean_linker_0, # of connection points: 2
#     Edge 27, Type (0, 1), BuildingBlock: ZUJKAS_clean_linker_0, # of connection points: 2
#     Edge 28, Type (0, 1), BuildingBlock: ZUJKAS_clean_linker_0, # of connection points: 2
#     Edge 29, Type (0, 1), BuildingBlock: ZUJKAS_clean_linker_0, # of connection points: 2
#     Edge 30, Type (0, 1), BuildingBlock: ZUJKAS_clean_linker_0, # of connection points: 2
#     Edge 31, Type (0, 1), BuildingBlock: ZUJKAS_clean_linker_0, # of connection points: 2
#     Edge 32, Type (0, 1), BuildingBlock: ZUJKAS_clean_linker_0, # of connection points: 2
#     Edge 33, Type (0, 1), BuildingBlock: ZUJKAS_clean_linker_0, # of connection points: 2
#     Edge 34, Type (0, 1), BuildingBlock: ZUJKAS_clean_linker_0, # of connection points: 2
#     Edge 35, Type (0, 1), BuildingBlock: ZUJKAS_clean_linker_0, # of connection points: 2
# Relax obj value: 0.053
# Max RMSD: 0.100
# Mean RMSD: 0.040
data_MOF--net-zzz--node1-MIFKUJ_clean_sbu_0--node2-QEWDON_clean_linker_0--edge1-ZUJKAS_clean_linker_0
_symmetry_space_group_name_H-M    P1
_symmetry_Int_Tables_number       1
_symmetry_cell_setting            triclinic
loop_
_symmetry_equiv_pos_as_xyz
'x, y, z'
_cell_length_a     70.005429
_cell_length_b     70.095655
_cell_length_c     19.914577
_cell_angle_alpha  89.805559
_cell_angle_beta   90.162856
_cell_angle_gamma 90.010765
loop_
_atom_site_label
_atom_site_type_symbol
_atom_site_fract_x
_atom_site_fract_y
_atom_site_fract_z
_atom_type_partial_charge
H0 H 0.75832 0.50908 0.98625 0.0
C1 C 0.76595 0.50741 0.03331 0.0
C2 C 0.78306 0.49703 0.03398 0.0
C3 C 0.75926 0.51636 0.09213 0.0
H4 H 0.80746 0.4886 0.09244 0.0
C5 C 0.79369 0.49571 0.09335 0.0
C6 C 0.78791 0.50507 0.15177 0.0
C7 C 0.77054 0.51517 0.15131 0.0
C8 C 0.74132 0.52801 0.09014 0.0
H9 H 0.766 0.52216 0.19696 0.0
C10 C 0.72574 0.52297 0.04819 0.0
C11 C 0.70935 0.53466 0.04378 0.0
C12 C 0.73997 0.54481 0.12838 0.0
H13 H 0.7517 0.54955 0.15967 0.0
C14 C 0.72362 0.55612 0.12552 0.0
H15 H 0.72644 0.51013 0.0182 0.0
C16 C 0.70845 0.55115 0.08363 0.0
H17 H 0.69595 0.56025 0.08261 0.0
H18 H 0.72278 0.56897 0.15541 0.0
H19 H 0.98947 0.75197 0.00152 0.0
C20 C 0.99046 0.76015 0.04745 0.0
C21 C 0.99929 0.77812 0.04577 0.0
C22 C 0.98203 0.75324 0.10701 0.0
H23 H 0.00569 0.80347 0.10226 0.0
C24 C 0.99983 0.78915 0.10427 0.0
C25 C 0.99109 0.78289 0.16346 0.0
C26 C 0.98233 0.76487 0.16491 0.0
C27 C 0.97172 0.73458 0.10694 0.0
H28 H 0.97565 0.76009 0.21097 0.0
C29 C 0.97842 0.71904 0.06861 0.0
C30 C 0.96813 0.70174 0.06595 0.0
C31 C 0.95463 0.73244 0.14324 0.0
H32 H 0.94874 0.74414 0.17183 0.0
C33 C 0.94454 0.7153 0.14151 0.0
H34 H 0.99173 0.7203 0.04141 0.0
C35 C 0.95114 0.7001 0.10308 0.0
H36 H 0.94267 0.68718 0.10132 0.0
H37 H 0.93133 0.71391 0.16924 0.0
H38 H 0.76288 0.99535 0.99071 0.0
C39 C 0.75547 0.99622 0.03828 0.0
C40 C 0.73833 0.00652 0.04152 0.0
C41 C 0.76247 0.98633 0.09508 0.0
H42 H 0.71429 0.014 0.10303 0.0
C43 C 0.72806 0.00691 0.10168 0.0
C44 C 0.7342 0.99651 0.15775 0.0
C45 C 0.75151 0.98644 0.15471 0.0
C46 C 0.78044 0.97489 0.09046 0.0
H47 H 0.75623 0.97859 0.19866 0.0
C48 C 0.79588 0.98105 0.05018 0.0
C49 C 0.81244 0.96976 0.04335 0.0
C50 C 0.78204 0.95734 0.1246 0.0
H51 H 0.77039 0.95183 0.15455 0.0
C52 C 0.79855 0.94635 0.11923 0.0
H53 H 0.79495 0.99448 0.02338 0.0
C54 C 0.81363 0.95245 0.07895 0.0
H55 H 0.82628 0.9436 0.07588 0.0
H56 H 0.79959 0.93291 0.14592 0.0
H57 H 0.51079 0.7614 0.98759 0.0
C58 C 0.50911 0.7532 0.0334 0.0
C59 C 0.50054 0.73511 0.03008 0.0
C60 C 0.51636 0.76022 0.09473 0.0
H61 H 0.49357 0.70962 0.08529 0.0
C62 C 0.49919 0.72401 0.08848 0.0
C63 C 0.50674 0.73033 0.14955 0.0
C64 C 0.51515 0.74852 0.15273 0.0
C65 C 0.52637 0.77909 0.09692 0.0
H66 H 0.5208 0.75339 0.20035 0.0
C67 C 0.52049 0.79456 0.0558 0.0
C68 C 0.53039 0.81211 0.05695 0.0
C69 C 0.54237 0.78158 0.13897 0.0
H70 H 0.54774 0.76999 0.1697 0.0
C71 C 0.55207 0.79893 0.14071 0.0
H72 H 0.50808 0.79309 0.02365 0.0
C73 C 0.54619 0.81407 0.10013 0.0
H74 H 0.55431 0.82721 0.10151 0.0
H75 H 0.56442 0.80057 0.17305 0.0
H76 H 0.2577 0.51787 0.19679 0.0
C77 C 0.24898 0.51233 0.15628 0.0
C78 C 0.2298 0.5079 0.16889 0.0
C79 C 0.25668 0.51005 0.09138 0.0
H80 H 0.20313 0.49879 0.1261 0.0
C81 C 0.21816 0.50143 0.11654 0.0
C82 C 0.22517 0.49969 0.0512 0.0
C83 C 0.24448 0.50391 0.03873 0.0
C84 C 0.27719 0.51477 0.07833 0.0
H85 H 0.24991 0.50226 0.98822 0.0
C86 C 0.29152 0.51109 0.127 0.0
C87 C 0.31081 0.5157 0.11442 0.0
C88 C 0.28255 0.52329 0.01713 0.0
H89 H 0.272 0.52683 0.97927 0.0
C90 C 0.30161 0.52778 0.00439 0.0
H91 H 0.28779 0.50428 0.17408 0.0
C92 C 0.31564 0.52402 0.05244 0.0
H93 H 0.33027 0.52797 0.04152 0.0
H94 H 0.30551 0.5344 0.95718 0.0
H95 H 0.99374 0.26087 0.19388 0.0
C96 C 0.99964 0.25245 0.1534 0.0
C97 C 0.00519 0.23359 0.16643 0.0
C98 C 1.00119 0.26016 0.08804 0.0
H99 H 0.01541 0.20738 0.12394 0.0
C100 C 0.01201 0.22224 0.11411 0.0
C101 C 0.01287 0.22922 0.0484 0.0
C102 C 0.00769 0.24824 0.03557 0.0
C103 C 0.99533 0.2803 0.07409 0.0
H104 H 0.00873 0.25361 0.98466 0.0
C105 C 0.99831 0.29487 0.12197 0.0
C106 C 0.99262 0.31385 0.10877 0.0
C107 C 0.98649 0.28508 0.01272 0.0
H108 H 0.98343 0.2743 0.97542 0.0
C109 C 0.98118 0.30384 0.99886 0.0
H110 H 0.00495 0.29143 0.16963 0.0
C111 C 0.98426 0.31813 0.04615 0.0
H112 H 0.98017 0.33258 0.03333 0.0
H113 H 0.97455 0.30733 0.95121 0.0
H114 H 0.25633 0.99721 0.18805 0.0
C115 C 0.26417 1.00202 0.14431 0.0
C116 C 0.28267 0.00924 0.15281 0.0
C117 C 0.25615 1.00027 0.07955 0.0
H118 H 0.3079 0.01943 0.10295 0.0
C119 C 0.29324 0.01473 0.09647 0.0
C120 C 0.28596 0.01241 0.03158 0.0
C121 C 0.26736 0.00527 0.02313 0.0
C122 C 0.23662 0.99211 0.07117 0.0
H123 H 0.26176 0.00354 0.97275 0.0
C124 C 0.22194 0.9964 0.11724 0.0
C125 C 0.20385 0.98773 0.11184 0.0
C126 C 0.23271 0.97932 0.01859 0.0
H127 H 0.24368 0.97538 0.98302 0.0
C128 C 0.21471 0.97096 0.01237 0.0
H129 H 0.22465 0.00625 0.158 0.0
C130 C 0.2004 0.97502 0.05875 0.0
H131 H 0.18656 0.96829 0.05294 0.0
H132 H 0.2119 0.96109 0.97181 0.0
H133 H 0.51618 0.25738 0.18618 0.0
C134 C 0.5103 0.26595 0.14575 0.0
C135 C 0.50517 0.28489 0.15882 0.0
C136 C 0.50841 0.25836 0.08051 0.0
H137 H 0.49542 0.31137 0.11644 0.0
C138 C 0.49844 0.29645 0.10655 0.0
C139 C 0.49715 0.28961 0.04084 0.0
C140 C 0.50196 0.27049 0.02801 0.0
C141 C 0.5141 0.23816 0.06687 0.0
H142 H 0.50065 0.2652 0.97718 0.0
C143 C 0.51141 0.22361 0.11545 0.0
C144 C 0.51752 0.20474 0.10332 0.0
C145 C 0.52282 0.23338 0.0056 0.0
H146 H 0.52564 0.24412 0.96773 0.0
C147 C 0.52848 0.21468 0.99276 0.0
H148 H 0.50476 0.22697 0.16298 0.0
C149 C 0.52587 0.20048 0.04099 0.0
H150 H 0.53035 0.18608 0.02924 0.0
H151 H 0.53509 0.21121 0.94527 0.0
Zn152 Zn 0.00541 0.03019 0.57772 0.0
Zn153 Zn 0.01221 0.97914 0.60993 0.0
C154 C 0.99808 0.05783 0.67479 0.0
O155 O 0.98142 0.05595 0.64495 0.0
C156 C 0.00711 0.95872 0.48969 0.0
O157 O 0.02575 0.96084 0.49037 0.0
O158 O 0.99742 0.05086 0.51302 0.0
O159 O 0.03018 0.01934 0.54095 0.0
O160 O 0.03681 0.98998 0.57546 0.0
C161 C 0.01028 0.06344 0.50436 0.0
O162 O 0.02734 0.06046 0.53003 0.0
O163 O 0.01143 0.04634 0.65927 0.0
C164 C 0.00409 0.94436 0.66927 0.0
O165 O 0.98713 0.95081 0.65227 0.0
O166 O 0.01857 0.95505 0.66045 0.0
O167 O 0.99562 0.99454 0.67234 0.0
O168 O 0.9821 0.01389 0.59894 0.0
O169 O 0.9972 0.96786 0.53235 0.0
C170 C 0.04144 0.00513 0.54444 0.0
C171 C 0.98106 0.00363 0.65159 0.0
Zn172 Zn 0.48656 0.00553 0.58131 0.0
Zn173 Zn 0.53649 0.01493 0.61802 0.0
C174 C 0.46189 0.99701 0.68635 0.0
O175 O 0.46416 0.9804 0.657 0.0
C176 C 0.56092 0.0136 0.50634 0.0
O177 O 0.55869 0.03206 0.51421 0.0
O178 O 0.46418 0.99823 0.52274 0.0
O179 O 0.49609 0.03022 0.54049 0.0
O180 O 0.52416 0.03889 0.58171 0.0
C181 C 0.45124 0.01098 0.52444 0.0
O182 O 0.45479 0.027 0.55623 0.0
O183 O 0.47255 0.0108 0.66814 0.0
C184 C 0.57042 0.01026 0.68914 0.0
O185 O 0.56647 0.99272 0.67061 0.0
O186 O 0.55843 0.02339 0.676 0.0
O187 O 0.52196 0.9953 0.67326 0.0
O188 O 0.50373 0.98249 0.59504 0.0
O189 O 0.55103 1.00227 0.54227 0.0
C190 C 0.50941 0.04241 0.54653 0.0
C191 C 0.5132 0.98093 0.64938 0.0
Zn192 Zn 0.513 0.48759 0.56757 0.0
Zn193 Zn 0.50144 0.53136 0.618 0.0
C194 C 0.51523 0.4628 0.67761 0.0
O195 O 0.5332 0.46454 0.6597 0.0
C196 C 0.49638 0.55519 0.50725 0.0
O197 O 0.47893 0.55286 0.53004 0.0
O198 O 0.52092 0.46505 0.51195 0.0
O199 O 0.49158 0.50031 0.51489 0.0
O200 O 0.47787 0.51545 0.5985 0.0
C201 C 0.50745 0.45311 0.50344 0.0
O202 O 0.49019 0.45768 0.52367 0.0
O203 O 0.50283 0.47343 0.64921 0.0
C204 C 0.50678 0.5669 0.67218 0.0
O205 O 0.52343 0.56254 0.64602 0.0
O206 O 0.49362 0.55437 0.67206 0.0
O207 O 0.52397 0.52035 0.66952 0.0
O208 O 0.53711 0.50192 0.59294 0.0
O209 O 0.50967 0.54496 0.53226 0.0
C210 C 0.47668 0.5073 0.54168 0.0
C211 C 0.53847 0.51169 0.64642 0.0
Zn212 Zn 0.02723 0.51296 0.57593 0.0
Zn213 Zn 0.98639 0.49815 0.63367 0.0
C214 C 0.05209 0.51452 0.68627 0.0
O215 O 0.04991 0.53262 0.67078 0.0
C216 C 0.96105 0.49396 0.52586 0.0
O217 O 0.9637 0.47633 0.54644 0.0
O218 O 0.04948 0.52229 0.52106 0.0
O219 O 0.01483 0.49198 0.52093 0.0
O220 O 1.00335 0.4761 0.60711 0.0
C221 C 0.06156 0.5091 0.51021 0.0
O222 O 0.05716 0.49155 0.52773 0.0
O223 O 0.04181 0.50222 0.65607 0.0
C224 C 0.95202 0.50023 0.70044 0.0
O225 O 0.95497 0.51783 0.68 0.0
O226 O 0.96499 0.48785 0.69056 0.0
O227 O 0.99719 0.5203 0.68642 0.0
O228 O 0.01169 0.53586 0.6049 0.0
O229 O 0.97108 0.50714 0.5523 0.0
C230 C 0.00966 0.47628 0.54738 0.0
C231 C 1.00332 0.53584 0.66149 0.0
H232 H 0.19201 0.02224 0.16118 0.0
H233 H 0.16614 0.02817 0.24171 0.0
H234 H 0.15566 0.9677 0.25616 0.0
H235 H 0.18138 0.96167 0.17594 0.0
H236 H 0.12529 0.01331 0.22322 0.0
H237 H 0.16187 0.98878 0.45613 0.0
H238 H 0.17477 0.99701 0.38302 0.0
H239 H 0.16418 0.9737 0.38362 0.0
C240 C 0.18429 0.01022 0.18206 0.0
C241 C 0.18868 0.99149 0.16216 0.0
C242 C 0.16951 0.01363 0.22778 0.0
C243 C 0.15913 0.99835 0.25512 0.0
C244 C 0.16363 0.97966 0.23598 0.0
H245 H 0.06602 0.97557 0.52096 0.0
H246 H 0.09488 0.97583 0.45268 0.0
C247 C 0.17822 0.97626 0.18984 0.0
C248 C 0.14305 1.00181 0.30173 0.0
H249 H 0.12851 0.99418 0.46307 0.0
C250 C 0.126 0.00938 0.2759 0.0
C251 C 0.14407 0.99651 0.37014 0.0
C252 C 0.16222 0.98866 0.40035 0.0
C253 C 0.10962 0.01108 0.31614 0.0
C254 C 0.11053 0.00555 0.38463 0.0
C255 C 0.1278 0.99844 0.41072 0.0
C256 C 0.09346 0.00595 0.42896 0.0
C257 C 0.0913 0.01792 0.28399 0.0
C258 C 0.08323 0.0229 0.43984 0.0
C259 C 0.06654 0.02277 0.47845 0.0
C260 C 0.05991 0.00573 0.5079 0.0
C261 C 0.07065 0.98896 0.49912 0.0
C262 C 0.0872 0.98907 0.46002 0.0
H263 H 0.09177 0.01683 0.22837 0.0
H264 H 0.07887 0.00959 0.30245 0.0
H265 H 0.089 0.03313 0.29691 0.0
H266 H 0.08805 0.03621 0.41796 0.0
H267 H 0.05874 0.03599 0.48464 0.0
H268 H 0.5433 0.17682 0.13586 0.0
H269 H 0.53951 0.15056 0.21552 0.0
H270 H 0.48394 0.17176 0.27021 0.0
H271 H 0.48739 0.19801 0.18922 0.0
H272 H 0.50893 0.16015 0.38236 0.0
H273 H 0.50217 0.1049 0.18456 0.0
H274 H 0.52245 0.12041 0.17568 0.0
H275 H 0.49875 0.13001 0.16774 0.0
C276 C 0.53016 0.17586 0.16427 0.0
C277 C 0.51553 0.18944 0.15526 0.0
C278 C 0.52807 0.16086 0.21002 0.0
C279 C 0.51134 0.15904 0.24805 0.0
C280 C 0.49694 0.17286 0.24111 0.0
H281 H 0.48084 0.05441 0.4618 0.0
H282 H 0.47989 0.08349 0.39369 0.0
C283 C 0.49898 0.1879 0.195 0.0
C284 C 0.50892 0.1425 0.29413 0.0
H285 H 0.50652 0.09383 0.29639 0.0
C286 C 0.50826 0.14565 0.36367 0.0
C287 C 0.50783 0.12362 0.26958 0.0
C288 C 0.50766 0.11945 0.1953 0.0
C289 C 0.50716 0.13033 0.4094 0.0
C290 C 0.50685 0.11139 0.38487 0.0
C291 C 0.5069 0.10832 0.31523 0.0
C292 C 0.50683 0.09449 0.43028 0.0
C293 C 0.50626 0.13452 0.48354 0.0
C294 C 0.52229 0.09099 0.47368 0.0
C295 C 0.52292 0.07433 0.51269 0.0
C296 C 0.50811 0.06077 0.50895 0.0
C297 C 0.49249 0.06451 0.46619 0.0
C298 C 0.49191 0.08114 0.42709 0.0
H299 H 0.50153 0.14939 0.49321 0.0
H300 H 0.49637 0.12455 0.50945 0.0
H301 H 0.52069 0.1327 0.50582 0.0
H302 H 0.53414 0.10089 0.47605 0.0
H303 H 0.53522 0.07192 0.5447 0.0
H304 H 0.34626 0.50031 0.0951 0.0
H305 H 0.37232 0.49738 0.17646 0.0
H306 H 0.33611 0.52046 0.33092 0.0
H307 H 0.30992 0.52364 0.24928 0.0
H308 H 0.37288 0.53833 0.31905 0.0
H309 H 0.37909 0.45956 0.33427 0.0
H310 H 0.37879 0.46888 0.25013 0.0
H311 H 0.35802 0.47139 0.30218 0.0
C312 C 0.34378 0.50465 0.14649 0.0
C313 C 0.32601 0.51224 0.16567 0.0
C314 C 0.35866 0.50282 0.19309 0.0
C315 C 0.35613 0.50852 0.25997 0.0
C316 C 0.33834 0.51586 0.27966 0.0
H317 H 0.44178 0.52109 0.58194 0.0
H318 H 0.41176 0.52116 0.51851 0.0
C319 C 0.32336 0.51756 0.23308 0.0
C320 C 0.37247 0.50782 0.30789 0.0
H321 H 0.40498 0.47754 0.37942 0.0
C322 C 0.37978 0.52503 0.33301 0.0
C323 C 0.3815 0.49047 0.32573 0.0
C324 C 0.37388 0.47149 0.30223 0.0
C325 C 0.39632 0.52544 0.37333 0.0
C326 C 0.40556 0.50809 0.39035 0.0
C327 C 0.39796 0.49084 0.36638 0.0
C328 C 0.42356 0.50757 0.43045 0.0
C329 C 0.40419 0.54452 0.39484 0.0
C330 C 0.44009 0.49934 0.40318 0.0
C331 C 0.45721 0.49908 0.43958 0.0
C332 C 0.45824 0.50704 0.50431 0.0
C333 C 0.44157 0.51496 0.5321 0.0
C334 C 0.4244 0.51513 0.49567 0.0
H335 H 0.39839 0.55639 0.36381 0.0
H336 H 0.40016 0.54719 0.44782 0.0
H337 H 0.42002 0.54475 0.39144 0.0
H338 H 0.43981 0.49333 0.35313 0.0
H339 H 0.4697 0.49279 0.41657 0.0
H340 H 0.96838 0.34348 0.13644 0.0
H341 H 0.97312 0.36967 0.21465 0.0
H342 H 0.02639 0.34474 0.27976 0.0
H343 H 0.0224 0.31907 0.19807 0.0
H344 H 0.97565 0.37088 0.34608 0.0
H345 H 0.04354 0.398 0.23915 0.0
H346 H 0.02924 0.38022 0.19742 0.0
H347 H 0.04481 0.37355 0.26564 0.0
C348 C 0.98131 0.34368 0.16637 0.0
C349 C 0.99515 0.32923 0.15983 0.0
C350 C 0.9839 0.35861 0.21176 0.0
C351 C 1.00029 0.35945 0.25234 0.0
C352 C 0.01385 0.34472 0.24781 0.0
H353 H 0.00474 0.43949 0.59108 0.0
H354 H 0.00347 0.4105 0.52311 0.0
C355 C 0.01139 0.32985 0.20168 0.0
C356 C 1.00293 0.37574 0.29933 0.0
H357 H 0.03292 0.41248 0.33951 0.0
C358 C 0.98819 0.37996 0.34467 0.0
C359 C 0.01918 0.38777 0.29698 0.0
C360 C 0.03501 0.38481 0.24677 0.0
C361 C 0.98912 0.39593 0.38706 0.0
C362 C 0.00557 0.4077 0.38582 0.0
C363 C 0.02039 0.40337 0.34095 0.0
C364 C 0.00728 0.4251 0.42809 0.0
C365 C 0.97212 0.40039 0.43074 0.0
C366 C 0.01066 0.44291 0.39783 0.0
C367 C 0.01178 0.45945 0.4367 0.0
C368 C 0.00942 0.45858 0.50676 0.0
C369 C 0.00641 0.44069 0.53718 0.0
C370 C 0.00554 0.4241 0.4983 0.0
H371 H 0.95892 0.39336 0.41203 0.0
H372 H 0.97487 0.39506 0.48239 0.0
H373 H 0.96952 0.416 0.43323 0.0
H374 H 0.01212 0.44407 0.34383 0.0
H375 H 0.01412 0.47298 0.41159 0.0
H376 H 0.82817 0.00547 0.02765 0.0
H377 H 0.85507 0.01464 0.95572 0.0
H378 H 0.86002 0.95653 0.88757 0.0
H379 H 0.8329 0.94742 0.95732 0.0
H380 H 0.89209 1.00127 0.96093 0.0
H381 H 0.8605 0.98612 0.71169 0.0
H382 H 0.84625 0.98794 0.78684 0.0
H383 H 0.85877 0.96618 0.76808 0.0
C384 C 0.83479 0.99472 0.99647 0.0
C385 C 0.82837 0.9757 0.99835 0.0
C386 C 0.85023 0.99996 0.95569 0.0
C387 C 0.8594 0.98633 0.91549 0.0
C388 C 0.85295 0.96738 0.91705 0.0
H389 H 0.9735 0.98147 0.76159 0.0
H390 H 0.94376 0.97923 0.8247 0.0
C391 C 0.83758 0.96214 0.95772 0.0
C392 C 0.87634 0.99156 0.8745 0.0
H393 H 0.89464 0.98904 0.71587 0.0
C394 C 0.89257 0.99881 0.90722 0.0
C395 C 0.87691 0.98862 0.80422 0.0
C396 C 0.8596 0.98198 0.76549 0.0
C397 C 0.90958 1.0024 0.8721 0.0
C398 C 0.9105 0.99835 0.80258 0.0
C399 C 0.89402 0.99192 0.7693 0.0
C400 C 0.9286 0.99999 0.76413 0.0
C401 C 0.92645 0.01047 0.90985 0.0
C402 C 0.92985 0.01204 0.70782 0.0
C403 C 0.94686 0.01329 0.67116 0.0
C404 C 0.96292 1.0024 0.68991 0.0
C405 C 0.9615 0.9902 0.74596 0.0
C406 C 0.94452 0.98897 0.78245 0.0
H407 H 0.92188 0.01801 0.9561 0.0
H408 H 0.93606 0.99863 0.92511 0.0
H409 H 0.9347 0.02054 0.87802 0.0
H410 H 0.91768 0.02057 0.69248 0.0
H411 H 0.94743 0.02281 0.62825 0.0
H412 H 0.52046 0.81105 0.92336 0.0
H413 H 0.51497 0.8383 0.84769 0.0
H414 H 0.52286 0.87699 0.01307 0.0
H415 H 0.52811 0.84997 0.08905 0.0
H416 H 0.48687 0.87884 0.89123 0.0
H417 H 0.5645 0.8826 0.83081 0.0
H418 H 0.55276 0.85996 0.84446 0.0
H419 H 0.55685 0.87564 0.91385 0.0
C420 C 0.52063 0.82534 0.94388 0.0
C421 C 0.52486 0.82833 0.01222 0.0
C422 C 0.51758 0.84087 0.90053 0.0
C423 C 0.51859 0.85961 0.92489 0.0
C424 C 0.52206 0.86262 0.99337 0.0
H425 H 0.53266 0.97257 0.7651 0.0
H426 H 0.53295 0.94261 0.82796 0.0
C427 C 0.52516 0.84716 0.0366 0.0
C428 C 0.51724 0.87619 0.87865 0.0
H429 H 0.54482 0.90686 0.78717 0.0
C430 C 0.49946 0.8849 0.86777 0.0
C431 C 0.53374 0.88408 0.84884 0.0
C432 C 0.55312 0.87518 0.85964 0.0
C433 C 0.49781 0.90161 0.82867 0.0
C434 C 0.51439 0.90963 0.79917 0.0
C435 C 0.53212 0.90069 0.80953 0.0
C436 C 0.51387 0.92781 0.76022 0.0
C437 C 0.47849 0.91091 0.82132 0.0
C438 C 0.50318 0.92946 0.70065 0.0
C439 C 0.50295 0.94666 0.66443 0.0
C440 C 0.51349 0.96253 0.68691 0.0
C441 C 0.52431 0.96071 0.74627 0.0
C442 C 0.52453 0.94356 0.78233 0.0
H443 H 0.46816 0.90551 0.85915 0.0
H444 H 0.47963 0.92664 0.82643 0.0
H445 H 0.47265 0.90777 0.77069 0.0
H446 H 0.49514 0.9174 0.68183 0.0
H447 H 0.49451 0.9475 0.61885 0.0
H448 H 0.68953 0.55932 0.963 0.0
H449 H 0.66171 0.55267 0.89273 0.0
H450 H 0.66511 0.49308 0.9458 0.0
H451 H 0.69274 0.49975 0.01823 0.0
H452 H 0.65689 0.52901 0.78313 0.0
H453 H 0.60997 0.50675 0.99403 0.0
H454 H 0.63253 0.51863 0.00733 0.0
H455 H 0.63195 0.4937 0.98677 0.0
C456 C 0.68431 0.5448 0.96024 0.0
C457 C 0.69324 0.53011 0.99716 0.0
C458 C 0.66847 0.541 0.91955 0.0
C459 C 0.6611 0.52244 0.91473 0.0
C460 C 0.67032 0.50759 0.94967 0.0
H461 H 0.57191 0.49257 0.6198 0.0
H462 H 0.60198 0.49393 0.68286 0.0
C463 C 0.68624 0.51138 0.99053 0.0
C464 C 0.64359 0.51894 0.87386 0.0
H465 H 0.59677 0.50543 0.88511 0.0
C466 C 0.64378 0.52373 0.80529 0.0
C467 C 0.6264 0.51227 0.90299 0.0
C468 C 0.62503 0.50768 0.97691 0.0
C469 C 0.62725 0.52221 0.76527 0.0
C470 C 0.61009 0.51546 0.79434 0.0
C471 C 0.60995 0.51049 0.86274 0.0
C472 C 0.59186 0.5144 0.75567 0.0
C473 C 0.62814 0.52852 0.69282 0.0
C474 C 0.57601 0.52514 0.77625 0.0
C475 C 0.55879 0.52433 0.74056 0.0
C476 C 0.55695 0.51267 0.68346 0.0
C477 C 0.57283 0.50182 0.66313 0.0
C478 C 0.59008 0.50263 0.69901 0.0
H479 H 0.64096 0.53739 0.68257 0.0
H480 H 0.6288 0.51575 0.66012 0.0
H481 H 0.61521 0.53681 0.67878 0.0
H482 H 0.57701 0.5343 0.81984 0.0
H483 H 0.5469 0.53288 0.75785 0.0
H484 H 0.9672 0.66352 0.09529 0.0
H485 H 0.9749 0.63691 0.02123 0.0
H486 H 0.99163 0.67644 0.86596 0.0
H487 H 0.98355 0.70326 0.93922 0.0
H488 H 0.95723 0.63162 0.88899 0.0
H489 H 0.03654 0.63673 0.87907 0.0
H490 H 0.02277 0.64715 0.94621 0.0
H491 H 0.02316 0.65832 0.86507 0.0
C492 C 0.97251 0.66661 0.04542 0.0
C493 C 0.97462 0.68558 0.02316 0.0
C494 C 0.97701 0.65136 0.00331 0.0
C495 C 0.98392 0.6547 0.93831 0.0
C496 C 0.98657 0.67356 0.91633 0.0
H497 H 0.01375 0.57224 0.62444 0.0
H498 H 0.0089 0.6018 0.68777 0.0
C499 C 0.98198 0.68887 0.95838 0.0
C500 C 0.9872 0.63838 0.89252 0.0
H501 H 0.022 0.61276 0.81358 0.0
C502 C 0.97138 0.6275 0.87235 0.0
C503 C 0.00564 0.63321 0.87032 0.0
C504 C 0.02309 0.64434 0.89138 0.0
C505 C 0.97351 0.61147 0.831 0.0
C506 C 0.99203 0.60586 0.81065 0.0
C507 C 0.00782 0.61703 0.82943 0.0
C508 C 0.99529 0.58799 0.77237 0.0
C509 C 0.95584 0.60082 0.80902 0.0
C510 C 0.98957 0.57038 0.79937 0.0
C511 C 0.99221 0.55354 0.76332 0.0
C512 C 1.00085 0.55385 0.69959 0.0
C513 C 0.00697 0.57147 0.67318 0.0
C514 C 0.00424 0.58838 0.70934 0.0
H515 H 0.94295 0.61005 0.8108 0.0
H516 H 0.9574 0.59522 0.75723 0.0
H517 H 0.95343 0.58858 0.84348 0.0
H518 H 0.98307 0.56965 0.8486 0.0
H519 H 0.98746 0.54025 0.78559 0.0
H520 H 0.97125 0.22665 0.22724 0.0
H521 H 0.96553 0.20192 0.31243 0.0
H522 H 0.02634 0.19378 0.33357 0.0
H523 H 0.03199 0.21836 0.24883 0.0
H524 H 0.97778 0.16592 0.27873 0.0
H525 H 0.00802 0.18545 0.52548 0.0
H526 H 1.00157 0.20307 0.46288 0.0
H527 H 0.0242 0.19091 0.45844 0.0
C528 C 0.98334 0.22024 0.25282 0.0
C529 C 1.00205 0.22437 0.23211 0.0
C530 C 0.98008 0.20606 0.30106 0.0
C531 C 0.99551 0.19608 0.32962 0.0
C532 C 0.01423 0.20154 0.31339 0.0
H533 H 0.03528 0.09104 0.46628 0.0
H534 H 0.02803 0.12346 0.42958 0.0
C535 C 0.01748 0.21557 0.2649 0.0
C536 C 0.99238 0.17766 0.36452 0.0
H537 H 0.00767 0.15159 0.49918 0.0
C538 C 0.98382 0.16285 0.32781 0.0
C539 C 1.00034 0.17371 0.42831 0.0
C540 C 0.00888 0.1892 0.47132 0.0
C541 C 0.98441 0.14391 0.35069 0.0
C542 C 0.99348 0.13978 0.41255 0.0
C543 C 1.00086 0.15478 0.45144 0.0
C544 C 0.99736 0.11993 0.43423 0.0
C545 C 0.97656 0.12834 0.30627 0.0
C546 C 0.98247 0.1071 0.44825 0.0
C547 C 0.98659 0.0884 0.46851 0.0
C548 C 0.00565 0.08235 0.47572 0.0
C549 C 0.02045 0.09523 0.46106 0.0
C550 C 0.01634 0.11381 0.44051 0.0
H551 H 0.97307 0.13362 0.25501 0.0
H552 H 0.98695 0.11645 0.30193 0.0
H553 H 0.96328 0.12256 0.32882 0.0
H554 H 0.96772 0.11163 0.44456 0.0
H555 H 0.97488 0.07888 0.48043 0.0
H556 H 0.28817 0.97845 0.23403 0.0
H557 H 0.31341 0.97535 0.31918 0.0
H558 H 0.32564 0.03541 0.30078 0.0
H559 H 0.30052 0.03856 0.21578 0.0
H560 H 0.35492 0.00459 0.25637 0.0
H561 H 0.32766 0.99877 0.51842 0.0
H562 H 0.31496 0.98747 0.45018 0.0
H563 H 0.31531 0.01295 0.45593 0.0
C564 C 0.29561 0.99114 0.25072 0.0
C565 C 0.29253 0.00873 0.21843 0.0
C566 C 0.31005 0.98934 0.29907 0.0
C567 C 0.32133 0.00515 0.31585 0.0
C568 C 0.31696 0.02309 0.28857 0.0
H569 H 0.42009 0.03376 0.53725 0.0
H570 H 0.38831 0.02901 0.49033 0.0
C571 C 0.30263 0.02489 0.24023 0.0
C572 C 0.33984 1.00248 0.3501 0.0
H573 H 0.36115 0.99852 0.5037 0.0
C574 C 0.35634 0.00303 0.31039 0.0
C575 C 0.34145 1.00044 0.42032 0.0
C576 C 0.32397 0.99987 0.46424 0.0
C577 C 0.37456 1.00227 0.33932 0.0
C578 C 0.37628 1.00062 0.40984 0.0
C579 C 0.35973 0.99957 0.44956 0.0
C580 C 0.3951 1.00212 0.44319 0.0
C581 C 0.39183 0.00416 0.2945 0.0
C582 C 0.40939 0.98839 0.43289 0.0
C583 C 0.42773 0.99111 0.45939 0.0
C584 C 0.43197 0.00762 0.49643 0.0
C585 C 0.4174 0.02101 0.50814 0.0
C586 C 0.39915 0.01825 0.48192 0.0
H587 H 0.38791 0.00859 0.24263 0.0
H588 H 0.40203 0.01475 0.3153 0.0
H589 H 0.39926 0.99021 0.29166 0.0
H590 H 0.40643 0.97574 0.40355 0.0
H591 H 0.4386 0.98044 0.45023 0.0
H592 H 0.47924 0.30236 0.23837 0.0
H593 H 0.4864 0.32626 0.32393 0.0
H594 H 0.54636 0.31277 0.30992 0.0
H595 H 0.53919 0.2888 0.22375 0.0
H596 H 0.50855 0.32955 0.45019 0.0
H597 H 0.53969 0.36772 0.22971 0.0
H598 H 0.52497 0.34679 0.21987 0.0
H599 H 0.54899 0.34451 0.25051 0.0
C600 C 0.49384 0.30394 0.25573 0.0
C601 C 0.50869 0.2939 0.22455 0.0
C602 C 0.49793 0.31759 0.30445 0.0
C603 C 0.51693 0.32146 0.32223 0.0
C604 C 0.53163 0.31004 0.29633 0.0
H605 H 0.542 0.43699 0.47124 0.0
H606 H 0.54794 0.40388 0.43753 0.0
C607 C 0.52751 0.29628 0.24764 0.0
C608 C 0.52119 0.33941 0.35798 0.0
H609 H 0.53432 0.38548 0.32662 0.0
C610 C 0.51458 0.3417 0.42386 0.0
C611 C 0.52908 0.35522 0.32334 0.0
C612 C 0.53603 0.35361 0.25184 0.0
C613 C 0.51483 0.35965 0.45493 0.0
C614 C 0.52142 0.3757 0.41842 0.0
C615 C 0.52922 0.37315 0.35432 0.0
C616 C 0.51823 0.39544 0.44205 0.0
C617 C 0.50755 0.36135 0.52588 0.0
C618 C 0.49954 0.40175 0.45396 0.0
C619 C 0.4961 0.42058 0.47265 0.0
C620 C 0.51128 0.43357 0.4793 0.0
C621 C 0.53 0.42734 0.46632 0.0
C622 C 0.53344 0.40841 0.44755 0.0
H623 H 0.50949 0.34777 0.55405 0.0
H624 H 0.51494 0.37297 0.55342 0.0
H625 H 0.49203 0.36456 0.52467 0.0
H626 H 0.48753 0.39216 0.44787 0.0
H627 H 0.4815 0.4249 0.48204 0.0
H628 H 0.21172 0.48226 0.2483 0.0
H629 H 0.18798 0.4897 0.33397 0.0
H630 H 0.20272 0.54934 0.32029 0.0
H631 H 0.22651 0.54187 0.23376 0.0
H632 H 0.18513 0.51076 0.45959 0.0
H633 H 0.14761 0.54506 0.24293 0.0
H634 H 0.16827 0.53009 0.23128 0.0
H635 H 0.17101 0.55367 0.26481 0.0
C636 C 0.21043 0.49684 0.26566 0.0
C637 C 0.22078 0.51152 0.23448 0.0
C638 C 0.19686 0.50109 0.31446 0.0
C639 C 0.19338 0.5201 0.33241 0.0
C640 C 0.2051 0.5346 0.30646 0.0
H641 H 0.07761 0.54417 0.48428 0.0
H642 H 0.11083 0.55074 0.45212 0.0
C643 C 0.21878 0.53032 0.25761 0.0
C644 C 0.17556 0.52458 0.36885 0.0
H645 H 0.12967 0.53878 0.33888 0.0
C646 C 0.1731 0.51731 0.43395 0.0
C647 C 0.1599 0.53316 0.33519 0.0
C648 C 0.16165 0.54089 0.26458 0.0
C649 C 0.1551 0.51743 0.46484 0.0
C650 C 0.13916 0.52463 0.42895 0.0
C651 C 0.14191 0.5332 0.36604 0.0
C652 C 0.11932 0.52106 0.45133 0.0
C653 C 0.1532 0.50924 0.53467 0.0
C654 C 0.11301 0.50222 0.45953 0.0
C655 C 0.09415 0.49843 0.47722 0.0
C656 C 0.0811 0.51342 0.48664 0.0
C657 C 0.08732 0.53232 0.4772 0.0
C658 C 0.10629 0.53611 0.45934 0.0
H659 H 0.16673 0.5108 0.56345 0.0
H660 H 0.14151 0.51626 0.5629 0.0
H661 H 0.14998 0.49377 0.53114 0.0
H662 H 0.12265 0.49036 0.45141 0.0
H663 H 0.08984 0.4837 0.48378 0.0
H664 H 0.03226 0.79759 0.01952 0.0
H665 H 0.03641 0.82144 0.93075 0.0
H666 H 0.98347 0.80352 0.83969 0.0
H667 H 0.97904 0.77989 0.92888 0.0
H668 H 0.03252 0.82463 0.77591 0.0
H669 H 0.9757 0.85799 0.93192 0.0
H670 H 0.9899 0.83821 0.9617 0.0
H671 H 0.9711 0.83427 0.90184 0.0
C672 C 0.02189 0.79825 0.97909 0.0
C673 C 0.00516 0.78715 0.98168 0.0
C674 C 0.02433 0.81181 0.92831 0.0
C675 C 0.0101 0.81436 0.8795 0.0
C676 C 0.99457 0.80173 0.87722 0.0
H677 H 0.97729 0.91638 0.66523 0.0
H678 H 0.97993 0.88377 0.70701 0.0
C679 C 0.9921 0.78817 0.92806 0.0
C680 C 0.0094 0.83243 0.84129 0.0
H681 H 0.98673 0.87547 0.83952 0.0
C682 C 0.02246 0.83574 0.78926 0.0
C683 C 0.99638 0.84691 0.85972 0.0
C684 C 0.98254 0.84434 0.91712 0.0
C685 C 0.02263 0.85323 0.75434 0.0
C686 C 0.00965 0.86772 0.77317 0.0
C687 C 0.99661 0.86429 0.82509 0.0
C688 C 0.0092 0.88671 0.74058 0.0
C689 C 0.03644 0.856 0.69718 0.0
C690 C 0.02486 0.89917 0.74529 0.0
C691 C 0.02339 0.91792 0.72137 0.0
C692 C 0.00616 0.92451 0.6933 0.0
C693 C 0.99068 0.91184 0.68749 0.0
C694 C 0.9922 0.89315 0.71087 0.0
H695 H 0.04199 0.84216 0.67837 0.0
H696 H 0.02956 0.86379 0.65491 0.0
H697 H 0.04877 0.86459 0.71488 0.0
H698 H 0.03798 0.8946 0.76937 0.0
H699 H 0.03557 0.92736 0.72629 0.0
H700 H 0.7294 0.98722 0.92813 0.0
H701 H 0.70472 0.99615 0.84744 0.0
H702 H 0.70067 0.05183 0.93823 0.0
H703 H 0.725 0.04258 0.02071 0.0
H704 H 0.66804 0.03409 0.94459 0.0
H705 H 0.69351 0.02724 0.6843 0.0
H706 H 0.69964 0.00628 0.73126 0.0
H707 H 0.70979 0.02897 0.75457 0.0
C708 C 0.72391 1.00167 0.92874 0.0
C709 C 0.72901 0.01421 0.98054 0.0
C710 C 0.7098 0.00682 0.88241 0.0
C711 C 0.70083 0.02472 0.88648 0.0
C712 C 0.70739 0.03796 0.93405 0.0
H713 H 0.58417 0.0451 0.72953 0.0
H714 H 0.61626 0.05224 0.77262 0.0
C715 C 0.72132 0.03272 0.98093 0.0
C716 C 0.68236 0.02789 0.85141 0.0
H717 H 0.65946 0.02084 0.70199 0.0
C718 C 0.66625 0.03176 0.89112 0.0
C719 C 0.67997 0.02477 0.78176 0.0
C720 C 0.69672 0.02179 0.73556 0.0
C721 C 0.64776 0.03124 0.8641 0.0
C722 C 0.64533 0.02687 0.79548 0.0
C723 C 0.66142 0.02407 0.7548 0.0
C724 C 0.62619 0.02307 0.76709 0.0
C725 C 0.63088 0.03412 0.90999 0.0
C726 C 0.62128 0.00435 0.74964 0.0
C727 C 0.60303 1.00021 0.72555 0.0
C728 C 0.58935 0.01475 0.71805 0.0
C729 C 0.59434 0.03356 0.73525 0.0
C730 C 0.61265 0.03769 0.75964 0.0
H731 H 0.63519 0.03511 0.9636 0.0
H732 H 0.62339 0.0475 0.89593 0.0
H733 H 0.62057 0.02218 0.90444 0.0
H734 H 0.63154 0.99288 0.7554 0.0
H735 H 0.59973 0.9856 0.7124 0.0
H736 H 0.52266 0.73323 0.918 0.0
H737 H 0.51984 0.70933 0.82953 0.0
H738 H 0.46565 0.69128 0.91036 0.0
H739 H 0.46813 0.71553 0.99756 0.0
H740 H 0.52009 0.67302 0.87884 0.0
H741 H 0.45756 0.68203 0.7107 0.0
H742 H 0.46769 0.70156 0.75798 0.0
H743 H 0.45183 0.68484 0.79791 0.0
C744 C 0.50966 0.72489 0.91469 0.0
C745 C 0.49573 0.72604 0.9651 0.0
C746 C 0.50811 0.71115 0.86432 0.0
C747 C 0.49258 0.69845 0.86352 0.0
C748 C 0.47762 0.70105 0.90928 0.0
H749 H 0.47704 0.5804 0.74844 0.0
H750 H 0.47267 0.6132 0.78915 0.0
C751 C 0.47913 0.71484 0.95946 0.0
C752 C 0.49409 0.68023 0.82646 0.0
H753 H 0.47068 0.65033 0.71891 0.0
C754 C 0.50945 0.66822 0.84296 0.0
C755 C 0.47997 0.67383 0.7809 0.0
C756 C 0.46341 0.68631 0.76033 0.0
C757 C 0.5109 0.64984 0.81638 0.0
C758 C 0.49678 0.64338 0.77097 0.0
C759 C 0.48145 0.65537 0.75385 0.0
C760 C 0.49806 0.62419 0.74079 0.0
C761 C 0.52725 0.63726 0.83879 0.0
C762 C 0.51351 0.61972 0.6992 0.0
C763 C 0.51618 0.6011 0.67696 0.0
C764 C 0.5033 0.5866 0.69518 0.0
C765 C 0.48729 0.59125 0.73427 0.0
C766 C 0.48472 0.60996 0.75712 0.0
H767 H 0.53406 0.64257 0.88561 0.0
H768 H 0.52234 0.62239 0.84745 0.0
H769 H 0.53831 0.637 0.79898 0.0
H770 H 0.52378 0.63059 0.68522 0.0
H771 H 0.52843 0.59809 0.64564 0.0
H772 H 0.79227 0.51792 0.92415 0.0
H773 H 0.81717 0.50989 0.84374 0.0
H774 H 0.81994 0.45277 0.92471 0.0
H775 H 0.79535 0.46104 0.00676 0.0
H776 H 0.85267 0.47039 0.93891 0.0
H777 H 0.82963 0.48111 0.67676 0.0
H778 H 0.82296 0.50128 0.72641 0.0
H779 H 0.81272 0.47822 0.74444 0.0
C780 C 0.79748 0.50337 0.92239 0.0
C781 C 0.792 0.4901 0.97155 0.0
C782 C 0.81173 0.49875 0.87626 0.0
C783 C 0.82046 0.48069 0.878 0.0
C784 C 0.81341 0.46677 0.92237 0.0
H785 H 0.93922 0.46452 0.73596 0.0
H786 H 0.90697 0.45584 0.77358 0.0
C787 C 0.79932 0.47146 0.96897 0.0
C788 C 0.83922 0.47793 0.84493 0.0
H789 H 0.86347 0.48735 0.70016 0.0
C790 C 0.85496 0.47352 0.88616 0.0
C791 C 0.84225 0.48209 0.77626 0.0
C792 C 0.82592 0.48574 0.72841 0.0
C793 C 0.8737 0.47458 0.86191 0.0
C794 C 0.87676 0.48003 0.79449 0.0
C795 C 0.86103 0.48328 0.75205 0.0
C796 C 0.89609 0.48471 0.7697 0.0
C797 C 0.89014 0.4712 0.90974 0.0
C798 C 0.90054 0.50375 0.75503 0.0
C799 C 0.91884 0.50875 0.73401 0.0
C800 C 0.93308 0.49476 0.7269 0.0
C801 C 0.9286 0.47563 0.74156 0.0
C802 C 0.91021 0.47064 0.7628 0.0
H803 H 0.8853 0.46941 0.96248 0.0
H804 H 0.89789 0.45809 0.89479 0.0
H805 H 0.90038 0.48329 0.90753 0.0
H806 H 0.88985 0.51482 0.76048 0.0
H807 H 0.92175 0.5236 0.72289 0.0
H808 H 0.99043 0.22111 0.94048 0.0
H809 H 0.99247 0.19269 0.86954 0.0
H810 H 0.04608 0.17769 0.96308 0.0
H811 H 0.04374 0.20578 0.03553 0.0
H812 H 0.01726 0.17647 0.77988 0.0
H813 H 0.01298 0.13252 0.01215 0.0
H814 H 0.00942 0.15799 0.01247 0.0
H815 H 0.03318 0.14825 0.00938 0.0
C816 C 1.00292 0.21205 0.94436 0.0
C817 C 0.01687 0.21553 0.99365 0.0
C818 C 0.00403 0.19575 0.90415 0.0
C819 C 0.01915 0.18275 0.91244 0.0
C820 C 0.03401 0.18721 0.95721 0.0
H821 H 0.0313 0.06782 0.74014 0.0
H822 H 0.0382 0.09815 0.79684 0.0
C823 C 0.03278 0.20335 0.99799 0.0
C824 C 0.01843 0.16389 0.8786 0.0
H825 H 0.01548 0.11595 0.90985 0.0
C826 C 0.01699 0.16325 0.80829 0.0
C827 C 0.01794 0.14659 0.91577 0.0
C828 C 0.01828 0.14629 0.9916 0.0
C829 C 0.01495 0.14582 0.77428 0.0
C830 C 0.01426 0.12863 0.81157 0.0
C831 C 0.01616 0.12918 0.88156 0.0
C832 C 0.01014 0.11009 0.77917 0.0
C833 C 0.01335 0.14588 0.6987 0.0
C834 C 0.99194 0.10662 0.75249 0.0
C835 C 0.98788 0.08931 0.72106 0.0
C836 C 1.00199 0.07511 0.71537 0.0
C837 C 0.02012 0.07843 0.74378 0.0
C838 C 0.02411 0.09576 0.77585 0.0
H839 H 0.01824 0.1596 0.67656 0.0
H840 H 0.02186 0.13406 0.67684 0.0
H841 H 0.9982 0.14368 0.68413 0.0
H842 H 0.98088 0.11739 0.75557 0.0
H843 H 0.97378 0.08729 0.69979 0.0
H844 H 0.29652 0.98606 0.93889 0.0
H845 H 0.32547 0.98713 0.86997 0.0
H846 H 0.33493 0.04551 0.92918 0.0
H847 H 0.30627 0.04429 -0.00058 0.0
H848 H 0.34136 0.00941 0.76726 0.0
H849 H 0.38131 0.01799 0.00696 0.0
H850 H 0.3562 0.01232 0.00447 0.0
H851 H 0.3641 0.0364 0.99026 0.0
C852 C 0.3044 0.99932 0.93513 0.0
C853 C 0.29926 0.01507 0.97457 0.0
C854 C 0.32102 0.99989 0.89619 0.0
C855 C 0.33265 0.01623 0.89603 0.0
C856 C 0.32643 0.0326 0.92995 0.0
H857 H 0.44889 0.03094 0.73817 0.0
H858 H 0.41747 0.037 0.78827 0.0
C859 C 0.30996 0.03198 0.96939 0.0
C860 C 0.35209 0.01544 0.86637 0.0
H861 H 0.39952 0.01735 0.90768 0.0
C862 C 0.35407 0.01125 0.79785 0.0
C863 C 0.36869 0.0177 0.90654 0.0
C864 C 0.36756 0.02118 0.98124 0.0
C865 C 0.3722 0.00926 0.7685 0.0
C866 C 0.38872 0.01133 0.8089 0.0
C867 C 0.38678 0.01588 0.87696 0.0
C868 C 0.40809 0.00766 0.78219 0.0
C869 C 0.37362 0.00486 0.69456 0.0
C870 C 0.41342 0.98907 0.76475 0.0
C871 C 0.43137 0.98551 0.73713 0.0
C872 C 0.44436 1.00052 0.72607 0.0
C873 C 0.43927 0.01906 0.74619 0.0
C874 C 0.42129 0.02258 0.77437 0.0
H875 H 0.35998 0.00774 0.66771 0.0
H876 H 0.38516 0.0134 0.67082 0.0
H877 H 0.37719 0.98955 0.68812 0.0
H878 H 0.40354 0.97732 0.77158 0.0
H879 H 0.43479 0.97105 0.72241 0.0
H880 H 0.51823 0.29698 0.92853 0.0
H881 H 0.51647 0.32586 0.85874 0.0
H882 H 0.46542 0.34314 0.96266 0.0
H883 H 0.4672 0.31441 0.03273 0.0
H884 H 0.48789 0.34537 0.77535 0.0
H885 H 0.50617 0.38417 0.01011 0.0
H886 H 0.50821 0.3586 0.00297 0.0
H887 H 0.4852 0.36943 0.01427 0.0
C888 C 0.50624 0.30658 0.93468 0.0
C889 C 0.49293 0.30354 0.98634 0.0
C890 C 0.50531 0.32313 0.8951 0.0
C891 C 0.49105 0.33684 0.90657 0.0
C892 C 0.47672 0.33291 0.95376 0.0
H893 H 0.4799 0.44586 0.68697 0.0
H894 H 0.47223 0.4155 0.74276 0.0
C895 C 0.47769 0.31645 0.99345 0.0
C896 C 0.49244 0.35606 0.87526 0.0
H897 H 0.50158 0.40274 0.91275 0.0
C898 C 0.49072 0.35796 0.8053 0.0
C899 C 0.49643 0.37242 0.91447 0.0
C900 C 0.49928 0.37114 0.98955 0.0
C901 C 0.49289 0.37581 0.77354 0.0
C902 C 0.49675 0.39215 0.81292 0.0
C903 C 0.4984 0.39023 0.88281 0.0
C904 C 0.50072 0.4111 0.78228 0.0
C905 C 0.49171 0.37698 0.69798 0.0
C906 C 0.51905 0.41902 0.78817 0.0
C907 C 0.52343 0.43632 0.75676 0.0
C908 C 0.50951 0.4462 0.71931 0.0
C909 C 0.49089 0.43868 0.7159 0.0
C910 C 0.48655 0.42123 0.74703 0.0
H911 H 0.49181 0.36264 0.67436 0.0
H912 H 0.47827 0.38431 0.68327 0.0
H913 H 0.50382 0.38543 0.67768 0.0
H914 H 0.53016 0.41152 0.81552 0.0
H915 H 0.53789 0.44171 0.76038 0.0
H916 H 0.20062 0.46961 0.04517 0.0
H917 H 0.17232 0.46684 0.9735 0.0
H918 H 0.18918 0.51764 0.8662 0.0
H919 H 0.2177 0.52027 0.93738 0.0
H920 H 0.145 0.49404 0.97642 0.0
H921 H 0.16925 0.48451 0.71402 0.0
H922 H 0.18469 0.4802 0.78536 0.0
H923 H 0.18061 0.50414 0.7558 0.0
C924 C 0.19862 0.47979 0.00467 0.0
C925 C 0.21136 0.49514 0.99672 0.0
C926 C 0.18241 0.47824 0.96394 0.0
C927 C 0.17857 0.492 0.91429 0.0
C928 C 0.19197 0.50663 0.90323 0.0
H929 H 0.07173 0.53643 0.77521 0.0
H930 H 0.10186 0.52889 0.8316 0.0
C931 C 0.2083 0.50812 0.94387 0.0
C932 C 0.15946 0.49251 0.88118 0.0
H933 H 0.13679 0.49459 0.72898 0.0
C934 C 0.14323 0.4939 0.92229 0.0
C935 C 0.15707 0.49227 0.81057 0.0
C936 C 0.17381 0.49001 0.76381 0.0
C937 C 0.12482 0.49567 0.89489 0.0
C938 C 0.1225 0.49624 0.82442 0.0
C939 C 0.13861 0.49421 0.78309 0.0
C940 C 0.10362 0.50014 0.79303 0.0
C941 C 0.10795 0.4971 0.94161 0.0
C942 C 0.0945 0.4864 0.75298 0.0
C943 C 0.07709 0.49061 0.72113 0.0
C944 C 0.0687 0.50875 0.72801 0.0
C945 C 0.07774 0.52229 0.7692 0.0
C946 C 0.09498 0.51802 0.80145 0.0
H947 H 0.11146 0.49172 0.99273 0.0
H948 H 0.10363 0.51228 0.94597 0.0
H949 H 0.09557 0.48895 0.92177 0.0
H950 H 0.10097 0.47253 0.7457 0.0
H951 H 0.07063 0.47997 0.68894 0.0
H952 H 0.95839 0.79536 0.22303 0.0
H953 H 0.95496 0.82412 0.29223 0.0
H954 H 0.01616 0.83084 0.29579 0.0
H955 H 0.01964 0.80224 0.22654 0.0
H956 H 0.99408 0.83999 0.42417 0.0
H957 H 0.96921 0.87596 0.1895 0.0
H958 H 0.95774 0.85406 0.21443 0.0
H959 H 0.98218 0.85371 0.1878 0.0
C960 C 0.97111 0.80258 0.24078 0.0
C961 C 0.98929 0.79662 0.21957 0.0
C962 C 0.96913 0.81907 0.27976 0.0
C963 C 0.9853 0.82967 0.29841 0.0
C964 C 0.00351 0.82284 0.28189 0.0
H965 H 0.02147 0.94142 0.37894 0.0
H966 H 0.01237 0.9103 0.33389 0.0
C967 C 0.00549 0.8065 0.24251 0.0
C968 C 0.98341 0.84898 0.32776 0.0
H969 H 0.97479 0.89533 0.28334 0.0
C970 C 0.9895 0.85207 0.39401 0.0
C971 C 0.97764 0.86469 0.28777 0.0
C972 C 0.97138 0.86212 0.21577 0.0
C973 C 0.99044 0.87059 0.42079 0.0
C974 C 0.98521 0.88634 0.38003 0.0
C975 C 0.97861 0.88318 0.31448 0.0
C976 C 0.9887 0.90622 0.40196 0.0
C977 C 0.99793 0.87335 0.49125 0.0
C978 C 0.97786 0.91457 0.45327 0.0
C979 C 0.98287 0.93253 0.47853 0.0
C980 C 0.99892 0.94227 0.45325 0.0
C981 C 0.00903 0.93428 0.39936 0.0
C982 C 0.00389 0.91648 0.37371 0.0
H983 H 1.00311 0.8598 0.51399 0.0
H984 H 0.00982 0.88384 0.49125 0.0
H985 H 0.98641 0.87915 0.52342 0.0
H986 H 0.96599 0.9069 0.47532 0.0
H987 H 0.9749 0.93821 0.52047 0.0
H988 H 0.71823 0.02466 0.23295 0.0
H989 H 0.68988 0.02176 0.30432 0.0
H990 H 0.69027 0.96079 0.27689 0.0
H991 H 0.71888 0.96361 0.20632 0.0
H992 H 0.65526 0.98618 0.23037 0.0
H993 H 0.67819 0.99331 0.497 0.0
H994 H 0.68974 0.00825 0.43539 0.0
H995 H 0.69338 0.98295 0.43347 0.0
C996 C 0.71269 0.01059 0.24441 0.0
C997 C 0.72079 0.99434 0.21471 0.0
C998 C 0.6965 0.00895 0.28491 0.0
C999 C 0.68804 0.99107 0.2958 0.0
C1000 C 0.69672 0.97469 0.26943 0.0
H1001 H 0.58016 0.97969 0.51942 0.0
H1002 H 0.61057 0.97105 0.46618 0.0
C1003 C 0.71311 0.9763 0.22964 0.0
C1004 C 0.66884 0.98999 0.32652 0.0
H1005 H 0.64499 0.9961 0.47416 0.0
C1006 C 0.65299 0.98803 0.28381 0.0
C1007 C 0.66599 0.99241 0.3961 0.0
C1008 C 0.68267 0.99426 0.44362 0.0
C1009 C 0.63427 0.98925 0.30863 0.0
C1010 C 0.63139 0.99252 0.37785 0.0
C1011 C 0.64726 0.99359 0.42106 0.0
C1012 C 0.61216 0.9966 0.40525 0.0
C1013 C 0.61771 0.98752 0.26046 0.0
C1014 C 0.60292 0.01367 0.38785 0.0
C1015 C 0.58569 0.01866 0.41825 0.0
C1016 C 0.57728 0.00662 0.46641 0.0
C1017 C 0.58616 0.98913 0.48183 0.0
C1018 C 0.60358 0.98425 0.45189 0.0
H1019 H 0.62199 0.98048 0.21292 0.0
H1020 H 0.60582 0.97932 0.28347 0.0
H1021 H 0.6123 1.002 0.248 0.0
H1022 H 0.60941 0.02349 0.35251 0.0
H1023 H 0.57925 0.03226 0.40557 0.0
H1024 H 0.53806 0.71904 0.2218 0.0
H1025 H 0.54044 0.69081 0.29497 0.0
H1026 H 0.47978 0.68168 0.27511 0.0
H1027 H 0.47734 0.70985 0.20268 0.0
H1028 H 0.49487 0.67443 0.40751 0.0
H1029 H 0.53554 0.63742 0.20623 0.0
H1030 H 0.545 0.65975 0.23558 0.0
H1031 H 0.52269 0.65934 0.19101 0.0
C1032 C 0.52517 0.71135 0.23493 0.0
C1033 C 0.50751 0.71659 0.20652 0.0
C1034 C 0.52658 0.6951 0.27597 0.0
C1035 C 0.51035 0.68392 0.28932 0.0
C1036 C 0.49251 0.69001 0.26514 0.0
H1037 H 0.47105 0.57749 0.43934 0.0
H1038 H 0.47675 0.60879 0.38936 0.0
C1039 C 0.49111 0.70613 0.22395 0.0
C1040 C 0.51188 0.66515 0.32393 0.0
H1041 H 0.52713 0.61926 0.30099 0.0
C1042 C 0.50212 0.66243 0.38464 0.0
C1043 C 0.52137 0.64948 0.29403 0.0
C1044 C 0.53167 0.65148 0.22791 0.0
C1045 C 0.50121 0.64438 0.41545 0.0
C1046 C 0.50996 0.62856 0.384 0.0
C1047 C 0.52039 0.63141 0.3248 0.0
C1048 C 0.50713 0.60881 0.40939 0.0
C1049 C 0.49069 0.64232 0.48112 0.0
C1050 C 0.5225 0.59798 0.43428 0.0
C1051 C 0.5193 0.57991 0.46271 0.0
C1052 C 0.50068 0.57238 0.46627 0.0
C1053 C 0.48555 0.58288 0.43781 0.0
C1054 C 0.48875 0.60086 0.40963 0.0
H1055 H 0.4894 0.6562 0.50747 0.0
H1056 H 0.47606 0.63691 0.47112 0.0
H1057 H 0.49802 0.632 0.51488 0.0
H1058 H 0.53683 0.6038 0.43396 0.0
H1059 H 0.53125 0.57226 0.48458 0.0
H1060 H 0.8065 0.47535 0.21152 0.0
H1061 H 0.83513 0.4772 0.28186 0.0
H1062 H 0.8298 0.53842 0.28882 0.0
H1063 H 0.80109 0.53665 0.21787 0.0
H1064 H 0.86744 0.49953 0.23055 0.0
H1065 H 0.84462 0.52173 0.48638 0.0
H1066 H 0.82862 0.5097 0.42904 0.0
H1067 H 0.83467 0.53425 0.41526 0.0
C1068 C 0.81108 0.48916 0.22978 0.0
C1069 C 0.80157 0.50586 0.20908 0.0
C1070 C 0.82748 0.4902 0.26975 0.0
C1071 C 0.83464 0.50794 0.2904 0.0
C1072 C 0.82441 0.52457 0.27402 0.0
H1073 H 0.94352 0.52859 0.50322 0.0
H1074 H 0.9135 0.53427 0.44194 0.0
C1075 C 0.80795 0.52353 0.2338 0.0
C1076 C 0.85393 0.50897 0.32155 0.0
H1077 H 0.87765 0.51752 0.46862 0.0
C1078 C 0.86968 0.50356 0.28253 0.0
C1079 C 0.85685 0.51451 0.38896 0.0
C1080 C 0.84035 0.52032 0.43285 0.0
C1081 C 0.88823 0.50311 0.30947 0.0
C1082 C 0.8911 0.5078 0.37781 0.0
C1083 C 0.87544 0.5139 0.41627 0.0
C1084 C 0.9099 0.50489 0.41137 0.0
C1085 C 0.90458 0.49754 0.26439 0.0
C1086 C 0.91792 0.48656 0.41417 0.0
C1087 C 0.935 0.48331 0.44869 0.0
C1088 C 0.94449 0.4983 0.48166 0.0
C1089 C 0.9367 0.51679 0.47767 0.0
C1090 C 0.91948 0.52002 0.44315 0.0
H1091 H 0.9012 0.50043 0.21077 0.0
H1092 H 0.91786 0.50531 0.27793 0.0
H1093 H 0.9073 0.48201 0.26978 0.0
H1094 H 0.91065 0.47459 0.39116 0.0
H1095 H 0.94051 0.46888 0.45102 0.0
loop_
_geom_bond_atom_site_label_1
_geom_bond_atom_site_label_2
_geom_bond_distance
_geom_bond_site_symmetry_2
_ccdc_geom_bond_type
H0 C1 0.949 . S
C1 H0 0.949 . S
C1 C2 1.395 . S
C1 C3 1.391 1_556 S
C2 C1 1.395 . S
C2 C5 1.390 1_556 S
C3 C1 1.391 1_554 S
C3 C7 1.387 . S
C3 C8 1.491 . S
H4 C5 0.950 . S
C5 C2 1.390 1_554 S
C5 H4 0.950 . S
C5 C6 1.378 . S
C6 C5 1.378 . S
C6 C7 1.409 . S
C7 C3 1.387 . S
C7 C6 1.409 . S
C7 H9 0.951 . S
C8 C3 1.491 . S
C8 C10 1.382 1_554 S
C8 C12 1.404 . S
H9 C7 0.951 . S
C10 C8 1.382 1_556 S
C10 C11 1.390 . S
C10 H15 0.949 . S
C11 C10 1.390 . S
C11 C16 1.399 1_556 S
C12 C8 1.404 . S
C12 H13 0.950 . S
C12 C14 1.375 . S
H13 C12 0.950 . S
C14 C12 1.375 . S
C14 C16 1.382 . S
C14 H18 0.950 . S
H15 C10 0.949 . S
C16 C11 1.399 1_554 S
C16 C14 1.382 . S
C16 H17 0.952 . S
H17 C16 0.952 . S
H18 C14 0.950 . S
H19 C20 0.949 . S
C20 H19 0.949 . S
C20 C21 1.395 . S
C20 C22 1.391 1_556 S
C21 C20 1.395 . S
C21 C24 1.390 1_556 S
C22 C20 1.391 1_554 S
C22 C26 1.387 . S
C22 C27 1.491 . S
H23 C24 0.950 . S
C24 C21 1.390 1_554 S
C24 H23 0.950 . S
C24 C25 1.378 . S
C25 C24 1.378 . S
C25 C26 1.409 . S
C26 C22 1.387 . S
C26 C25 1.409 . S
C26 H28 0.951 . S
C27 C22 1.491 . S
C27 C29 1.382 1_554 S
C27 C31 1.404 . S
H28 C26 0.951 . S
C29 C27 1.382 1_556 S
C29 C30 1.390 . S
C29 H34 0.949 . S
C30 C29 1.390 . S
C30 C35 1.399 1_556 S
C31 C27 1.404 . S
C31 H32 0.950 . S
C31 C33 1.375 . S
H32 C31 0.950 . S
C33 C31 1.375 . S
C33 C35 1.382 . S
C33 H37 0.950 . S
H34 C29 0.949 . S
C35 C30 1.399 1_554 S
C35 C33 1.382 . S
C35 H36 0.952 . S
H36 C35 0.952 . S
H37 C33 0.950 . S
H38 C39 0.949 . S
C39 H38 0.949 . S
C39 C40 1.395 . S
C39 C41 1.391 1_556 S
C40 C39 1.395 . S
C40 C43 1.390 1_556 S
C41 C39 1.391 1_554 S
C41 C45 1.387 . S
C41 C46 1.491 . S
H42 C43 0.950 . S
C43 C40 1.390 1_554 S
C43 H42 0.950 . S
C43 C44 1.378 . S
C44 C43 1.378 . S
C44 C45 1.409 . S
C45 C41 1.387 . S
C45 C44 1.409 . S
C45 H47 0.951 . S
C46 C41 1.491 . S
C46 C48 1.382 1_554 S
C46 C50 1.404 . S
H47 C45 0.951 . S
C48 C46 1.382 1_556 S
C48 C49 1.390 . S
C48 H53 0.949 . S
C49 C48 1.390 . S
C49 C54 1.399 1_556 S
C50 C46 1.404 . S
C50 H51 0.950 . S
C50 C52 1.375 . S
H51 C50 0.950 . S
C52 C50 1.375 . S
C52 C54 1.382 . S
C52 H56 0.950 . S
H53 C48 0.949 . S
C54 C49 1.399 1_554 S
C54 C52 1.382 . S
C54 H55 0.952 . S
H55 C54 0.952 . S
H56 C52 0.950 . S
H57 C58 0.949 . S
C58 H57 0.949 . S
C58 C59 1.395 . S
C58 C60 1.391 1_556 S
C59 C58 1.395 . S
C59 C62 1.390 1_556 S
C60 C58 1.391 1_554 S
C60 C64 1.387 . S
C60 C65 1.491 . S
H61 C62 0.950 . S
C62 C59 1.390 1_554 S
C62 H61 0.950 . S
C62 C63 1.378 . S
C63 C62 1.378 . S
C63 C64 1.409 . S
C64 C60 1.387 . S
C64 C63 1.409 . S
C64 H66 0.951 . S
C65 C60 1.491 . S
C65 C67 1.382 1_554 S
C65 C69 1.404 . S
H66 C64 0.951 . S
C67 C65 1.382 1_556 S
C67 C68 1.390 . S
C67 H72 0.949 . S
C68 C67 1.390 . S
C68 C73 1.399 1_556 S
C69 C65 1.404 . S
C69 H70 0.950 . S
C69 C71 1.375 . S
H70 C69 0.950 . S
C71 C69 1.375 . S
C71 C73 1.382 . S
C71 H75 0.950 . S
H72 C67 0.949 . S
C73 C68 1.399 1_554 S
C73 C71 1.382 . S
C73 H74 0.952 . S
H74 C73 0.952 . S
H75 C71 0.950 . S
H76 C77 0.949 . S
C77 H76 0.949 . S
C77 C78 1.395 . S
C77 C79 1.391 . S
C78 C77 1.395 . S
C78 C81 1.390 . S
C79 C77 1.391 . S
C79 C83 1.387 . S
C79 C84 1.491 . S
H80 C81 0.950 . S
C81 C78 1.390 . S
C81 H80 0.950 . S
C81 C82 1.378 . S
C82 C81 1.378 . S
C82 C83 1.409 . S
C83 C79 1.387 . S
C83 C82 1.409 . S
C83 H85 0.951 . S
C84 C79 1.491 . S
C84 C86 1.382 . S
C84 C88 1.404 . S
H85 C83 0.951 . S
C86 C84 1.382 . S
C86 C87 1.390 . S
C86 H91 0.949 . S
C87 C86 1.390 . S
C87 C92 1.399 . S
C88 C84 1.404 . S
C88 H89 0.950 . S
C88 C90 1.375 . S
H89 C88 0.950 . S
C90 C88 1.375 . S
C90 C92 1.382 . S
C90 H94 0.950 . S
H91 C86 0.949 . S
C92 C87 1.399 . S
C92 C90 1.382 . S
C92 H93 0.952 . S
H93 C92 0.952 . S
H94 C90 0.950 . S
H95 C96 0.949 . S
C96 H95 0.949 . S
C96 C97 1.395 . S
C96 C98 1.391 . S
C97 C96 1.395 . S
C97 C100 1.390 . S
C98 C96 1.391 . S
C98 C102 1.387 . S
C98 C103 1.491 . S
H99 C100 0.950 . S
C100 C97 1.390 . S
C100 H99 0.950 . S
C100 C101 1.378 . S
C101 C100 1.378 . S
C101 C102 1.409 . S
C102 C98 1.387 . S
C102 C101 1.409 . S
C102 H104 0.951 . S
C103 C98 1.491 . S
C103 C105 1.382 . S
C103 C107 1.434 . S
H104 C102 0.951 . S
C105 C103 1.382 . S
C105 C106 1.390 . S
C105 H110 0.949 . S
C106 C105 1.390 . S
C106 C111 1.399 . S
C107 C103 1.434 . S
C107 H108 0.930 1_455 S
C107 C109 1.366 1_455 S
H108 C107 0.930 1_655 S
C109 C107 1.366 1_655 S
C109 C111 1.382 1_655 S
C109 H113 0.950 . S
H110 C105 0.949 . S
C111 C106 1.399 . S
C111 C109 1.382 1_455 S
C111 H112 0.952 . S
H112 C111 0.952 . S
H113 C109 0.950 . S
H114 C115 0.949 . S
C115 H114 0.949 . S
C115 C116 1.395 . S
C115 C117 1.391 . S
C116 C115 1.395 . S
C116 C119 1.390 . S
C117 C115 1.391 . S
C117 C121 1.387 . S
C117 C122 1.491 . S
H118 C119 0.950 . S
C119 C116 1.390 . S
C119 H118 0.950 . S
C119 C120 1.378 . S
C120 C119 1.378 . S
C120 C121 1.409 . S
C121 C117 1.387 . S
C121 C120 1.409 . S
C121 H123 0.951 . S
C122 C117 1.491 . S
C122 C124 1.382 . S
C122 C126 1.404 . S
H123 C121 0.951 . S
C124 C122 1.382 . S
C124 C125 1.390 . S
C124 H129 0.949 . S
C125 C124 1.390 . S
C125 C130 1.399 . S
C126 C122 1.404 . S
C126 H127 0.950 1_545 S
C126 C128 1.375 1_545 S
H127 C126 0.950 1_565 S
C128 C126 1.375 1_565 S
C128 C130 1.382 1_565 S
C128 H132 0.950 . S
H129 C124 0.949 . S
C130 C125 1.399 . S
C130 C128 1.382 1_545 S
C130 H131 0.952 . S
H131 C130 0.952 . S
H132 C128 0.950 . S
H133 C134 0.949 . S
C134 H133 0.949 . S
C134 C135 1.395 . S
C134 C136 1.391 . S
C135 C134 1.395 . S
C135 C138 1.390 . S
C136 C134 1.391 . S
C136 C140 1.387 . S
C136 C141 1.491 . S
H137 C138 0.950 . S
C138 C135 1.390 . S
C138 H137 0.950 . S
C138 C139 1.378 . S
C139 C138 1.378 . S
C139 C140 1.409 . S
C140 C136 1.387 . S
C140 C139 1.409 . S
C140 H142 0.951 . S
C141 C136 1.491 . S
C141 C143 1.382 . S
C141 C145 1.404 . S
H142 C140 0.951 . S
C143 C141 1.382 . S
C143 C144 1.390 . S
C143 H148 0.949 . S
C144 C143 1.390 . S
C144 C149 1.399 . S
C145 C141 1.404 . S
C145 H146 0.950 . S
C145 C147 1.375 . S
H146 C145 0.950 . S
C147 C145 1.375 . S
C147 C149 1.382 . S
C147 H151 0.950 . S
H148 C143 0.949 . S
C149 C144 1.399 . S
C149 C147 1.382 . S
C149 H150 0.952 . S
H150 C149 0.952 . S
H151 C147 0.950 . S
Zn152 O158 1.969 1_455 S
Zn152 O159 1.965 . S
Zn152 O163 2.024 . S
Zn152 O168 1.969 1_455 S
Zn153 O160 1.969 . S
Zn153 O166 1.969 . S
Zn153 O167 1.965 1_455 S
Zn153 O169 2.024 1_455 S
C154 O155 1.229 1_455 S
C154 O163 1.058 . S
O155 C154 1.229 1_655 S
C156 O157 1.229 1_655 S
C156 O169 1.058 . S
O157 C156 1.229 1_455 S
O158 Zn152 1.969 1_655 S
O158 C161 1.267 1_655 S
O159 Zn152 1.965 . S
O159 C170 1.260 . S
O160 Zn153 1.969 . S
O160 C170 1.258 1_565 S
C161 O158 1.267 1_455 S
C161 O162 1.228 . S
O162 C161 1.228 . S
O163 Zn152 2.024 . S
O163 C154 1.058 . S
C164 O165 1.228 1_455 S
C164 O166 1.267 . S
O165 C164 1.228 1_655 S
O166 Zn153 1.969 . S
O166 C164 1.267 . S
O167 Zn153 1.965 1_655 S
O167 C171 1.260 1_565 S
O168 Zn152 1.969 1_655 S
O168 C171 1.258 . S
O169 Zn153 2.024 1_655 S
O169 C156 1.058 . S
C170 O159 1.260 . S
C170 O160 1.258 1_545 S
C171 O167 1.260 1_545 S
C171 O168 1.258 . S
Zn172 O178 1.969 1_545 S
Zn172 O179 1.965 . S
Zn172 O183 2.024 . S
Zn172 O188 1.969 1_545 S
Zn173 O180 1.969 . S
Zn173 O186 1.969 . S
Zn173 O187 1.965 1_545 S
Zn173 O189 2.024 1_545 S
C174 O175 1.229 1_545 S
C174 O183 1.058 . S
O175 C174 1.229 1_565 S
C176 O177 1.229 1_565 S
C176 O189 1.058 . S
O177 C176 1.229 1_545 S
O178 Zn172 1.969 1_565 S
O178 C181 1.267 1_565 S
O179 Zn172 1.965 . S
O179 C190 1.260 . S
O180 Zn173 1.969 . S
O180 C190 1.258 . S
C181 O178 1.267 1_545 S
C181 O182 1.228 . S
O182 C181 1.228 . S
O183 Zn172 2.024 . S
O183 C174 1.058 . S
C184 O185 1.228 1_545 S
C184 O186 1.267 . S
O185 C184 1.228 1_565 S
O186 Zn173 1.969 . S
O186 C184 1.267 . S
O187 Zn173 1.965 1_565 S
O187 C191 1.260 . S
O188 Zn172 1.969 1_565 S
O188 C191 1.258 . S
O189 Zn173 2.024 1_565 S
O189 C176 1.058 . S
C190 O179 1.260 . S
C190 O180 1.258 . S
C191 O187 1.260 . S
C191 O188 1.258 . S
Zn192 O198 1.969 . S
Zn192 O199 1.965 . S
Zn192 O203 2.024 . S
Zn192 O208 1.969 . S
Zn193 O200 1.969 . S
Zn193 O206 1.969 . S
Zn193 O207 1.965 . S
Zn193 O209 2.024 . S
C194 O195 1.229 . S
C194 O203 1.058 . S
O195 C194 1.229 . S
C196 O197 1.229 . S
C196 O209 1.058 . S
O197 C196 1.229 . S
O198 Zn192 1.969 . S
O198 C201 1.267 . S
O199 Zn192 1.965 . S
O199 C210 1.260 . S
O200 Zn193 1.969 . S
O200 C210 1.258 . S
C201 O198 1.267 . S
C201 O202 1.228 . S
O202 C201 1.228 . S
O203 Zn192 2.024 . S
O203 C194 1.058 . S
C204 O205 1.228 . S
C204 O206 1.267 . S
O205 C204 1.228 . S
O206 Zn193 1.969 . S
O206 C204 1.267 . S
O207 Zn193 1.965 . S
O207 C211 1.260 . S
O208 Zn192 1.969 . S
O208 C211 1.258 . S
O209 Zn193 2.024 . S
O209 C196 1.058 . S
C210 O199 1.260 . S
C210 O200 1.258 . S
C211 O207 1.260 . S
C211 O208 1.258 . S
Zn212 O218 1.969 . S
Zn212 O219 1.965 . S
Zn212 O223 2.024 . S
Zn212 O228 1.969 . S
Zn213 O220 1.969 . S
Zn213 O226 1.969 . S
Zn213 O227 1.965 . S
Zn213 O229 2.024 . S
C214 O215 1.229 . S
C214 O223 1.058 . S
O215 C214 1.229 . S
C216 O217 1.229 . S
C216 O229 1.058 . S
O217 C216 1.229 . S
O218 Zn212 1.969 . S
O218 C221 1.267 . S
O219 Zn212 1.965 . S
O219 C230 1.260 . S
O220 Zn213 1.969 . S
O220 C230 1.258 1_655 S
C221 O218 1.267 . S
C221 O222 1.228 . S
O222 C221 1.228 . S
O223 Zn212 2.024 . S
O223 C214 1.058 . S
C224 O225 1.228 . S
C224 O226 1.267 . S
O225 C224 1.228 . S
O226 Zn213 1.969 . S
O226 C224 1.267 . S
O227 Zn213 1.965 . S
O227 C231 1.260 1_655 S
O228 Zn212 1.969 . S
O228 C231 1.258 . S
O229 Zn213 2.024 . S
O229 C216 1.058 . S
C230 O219 1.260 . S
C230 O220 1.258 1_455 S
C231 O227 1.260 1_455 S
C231 O228 1.258 . S
H232 C240 0.929 . S
H233 C242 0.930 . S
H234 C244 0.930 1_565 S
H235 C247 0.929 1_565 S
H236 C250 0.930 . S
H237 C252 0.960 . S
H238 C252 0.960 . S
H239 C252 0.960 . S
C240 H232 0.929 . S
C240 C241 1.377 . S
C240 C242 1.384 . S
C241 C240 1.377 . S
C241 C247 1.390 . S
C242 H233 0.930 . S
C242 C240 1.384 . S
C242 C243 1.372 . S
C243 C242 1.372 . S
C243 C244 1.400 . S
C243 C248 1.490 . S
C244 H234 0.930 1_545 S
C244 C243 1.400 . S
C244 C247 1.386 . S
H245 C261 0.930 . S
H246 C262 0.931 . S
C247 H235 0.929 1_545 S
C247 C241 1.390 . S
C247 C244 1.386 . S
C248 C243 1.490 . S
C248 C250 1.395 . S
C248 C251 1.403 . S
H249 C255 0.930 1_565 S
C250 H236 0.930 . S
C250 C248 1.395 . S
C250 C253 1.403 . S
C251 C248 1.403 . S
C251 C252 1.524 1_545 S
C251 C255 1.400 . S
C252 H237 0.960 . S
C252 H238 0.960 . S
C252 H239 0.960 . S
C252 C251 1.524 1_565 S
C253 C250 1.403 . S
C253 C254 1.392 . S
C253 C257 1.495 . S
C254 C253 1.392 . S
C254 C255 1.385 . S
C254 C256 1.478 . S
C255 H249 0.930 1_545 S
C255 C251 1.400 . S
C255 C254 1.385 . S
C256 C254 1.478 . S
C256 C258 1.381 . S
C256 C262 1.383 1_545 S
C257 C253 1.495 . S
C257 H263 0.959 . S
C257 H264 0.961 . S
C257 H265 0.960 . S
C258 C256 1.381 . S
C258 C259 1.394 . S
C258 H266 0.930 . S
C259 C258 1.394 . S
C259 C260 1.383 . S
C259 H267 0.929 . S
C260 C259 1.383 . S
C260 C261 1.377 1_545 S
C261 H245 0.930 . S
C261 C260 1.377 1_565 S
C261 C262 1.379 . S
C262 H246 0.931 . S
C262 C256 1.383 1_565 S
C262 C261 1.379 . S
H263 C257 0.959 . S
H264 C257 0.961 . S
H265 C257 0.960 . S
H266 C258 0.930 . S
H267 C259 0.929 . S
H268 C276 0.929 . S
H269 C278 0.930 . S
H270 C280 0.930 . S
H271 C283 0.929 . S
H272 C286 0.930 . S
H273 C288 0.960 . S
H274 C288 0.960 . S
H275 C288 0.960 . S
C276 H268 0.929 . S
C276 C277 1.377 . S
C276 C278 1.384 . S
C277 C276 1.377 . S
C277 C283 1.390 . S
C278 H269 0.930 . S
C278 C276 1.384 . S
C278 C279 1.372 . S
C279 C278 1.372 . S
C279 C280 1.400 . S
C279 C284 1.490 . S
C280 H270 0.930 . S
C280 C279 1.400 . S
C280 C283 1.386 . S
H281 C297 0.930 . S
H282 C298 0.931 . S
C283 H271 0.929 . S
C283 C277 1.390 . S
C283 C280 1.386 . S
C284 C279 1.490 . S
C284 C286 1.395 . S
C284 C287 1.403 . S
H285 C291 0.930 . S
C286 H272 0.930 . S
C286 C284 1.395 . S
C286 C289 1.403 . S
C287 C284 1.403 . S
C287 C288 1.524 . S
C287 C291 1.400 . S
C288 H273 0.960 . S
C288 H274 0.960 . S
C288 H275 0.960 . S
C288 C287 1.524 . S
C289 C286 1.403 . S
C289 C290 1.392 . S
C289 C293 1.495 . S
C290 C289 1.392 . S
C290 C291 1.385 . S
C290 C292 1.478 . S
C291 H285 0.930 . S
C291 C287 1.400 . S
C291 C290 1.385 . S
C292 C290 1.478 . S
C292 C294 1.381 . S
C292 C298 1.383 . S
C293 C289 1.495 . S
C293 H299 0.959 . S
C293 H300 0.961 . S
C293 H301 0.960 . S
C294 C292 1.381 . S
C294 C295 1.394 . S
C294 H302 0.930 . S
C295 C294 1.394 . S
C295 C296 1.383 . S
C295 H303 0.929 . S
C296 C295 1.383 . S
C296 C297 1.377 . S
C297 H281 0.930 . S
C297 C296 1.377 . S
C297 C298 1.379 . S
C298 H282 0.931 . S
C298 C292 1.383 . S
C298 C297 1.379 . S
H299 C293 0.959 . S
H300 C293 0.961 . S
H301 C293 0.960 . S
H302 C294 0.930 . S
H303 C295 0.929 . S
H304 C312 0.929 . S
H305 C314 0.930 . S
H306 C316 0.930 . S
H307 C319 0.929 . S
H308 C322 0.930 . S
H309 C324 0.960 . S
H310 C324 0.960 . S
H311 C324 0.960 . S
C312 H304 0.929 . S
C312 C313 1.377 . S
C312 C314 1.384 . S
C313 C312 1.377 . S
C313 C319 1.390 . S
C314 H305 0.930 . S
C314 C312 1.384 . S
C314 C315 1.372 . S
C315 C314 1.372 . S
C315 C316 1.400 . S
C315 C320 1.490 . S
C316 H306 0.930 . S
C316 C315 1.400 . S
C316 C319 1.386 . S
H317 C333 0.930 . S
H318 C334 0.931 . S
C319 H307 0.929 . S
C319 C313 1.390 . S
C319 C316 1.386 . S
C320 C315 1.490 . S
C320 C322 1.395 . S
C320 C323 1.403 . S
H321 C327 0.930 . S
C322 H308 0.930 . S
C322 C320 1.395 . S
C322 C325 1.403 . S
C323 C320 1.403 . S
C323 C324 1.524 . S
C323 C327 1.400 . S
C324 H309 0.960 . S
C324 H310 0.960 . S
C324 H311 0.960 . S
C324 C323 1.524 . S
C325 C322 1.403 . S
C325 C326 1.392 . S
C325 C329 1.495 . S
C326 C325 1.392 . S
C326 C327 1.385 . S
C326 C328 1.478 . S
C327 H321 0.930 . S
C327 C323 1.400 . S
C327 C326 1.385 . S
C328 C326 1.478 . S
C328 C330 1.381 . S
C328 C334 1.383 . S
C329 C325 1.495 . S
C329 H335 0.959 . S
C329 H336 0.961 . S
C329 H337 0.960 . S
C330 C328 1.381 . S
C330 C331 1.394 . S
C330 H338 0.930 . S
C331 C330 1.394 . S
C331 C332 1.383 . S
C331 H339 0.929 . S
C332 C331 1.383 . S
C332 C333 1.377 . S
C333 H317 0.930 . S
C333 C332 1.377 . S
C333 C334 1.379 . S
C334 H318 0.931 . S
C334 C328 1.383 . S
C334 C333 1.379 . S
H335 C329 0.959 . S
H336 C329 0.961 . S
H337 C329 0.960 . S
H338 C330 0.930 . S
H339 C331 0.929 . S
H340 C348 0.950 . S
H341 C350 0.930 1_655 S
H342 C352 0.930 . S
H343 C355 0.929 . S
H344 C358 0.930 . S
H345 C360 0.960 . S
H346 C360 0.960 . S
H347 C360 0.960 . S
C348 H340 0.950 . S
C348 C349 1.377 . S
C348 C350 1.384 . S
C349 C348 1.377 . S
C349 C355 1.390 . S
C350 H341 0.930 1_455 S
C350 C348 1.384 . S
C350 C351 1.372 . S
C351 C350 1.372 . S
C351 C352 1.400 . S
C351 C356 1.490 . S
C352 H342 0.930 . S
C352 C351 1.400 . S
C352 C355 1.386 . S
H353 C369 0.930 . S
H354 C370 0.931 . S
C355 H343 0.929 . S
C355 C349 1.390 . S
C355 C352 1.386 . S
C356 C351 1.490 . S
C356 C358 1.395 1_455 S
C356 C359 1.403 . S
H357 C363 0.930 . S
C358 H344 0.930 . S
C358 C356 1.395 1_655 S
C358 C361 1.403 . S
C359 C356 1.403 . S
C359 C360 1.524 . S
C359 C363 1.400 . S
C360 H345 0.960 . S
C360 H346 0.960 . S
C360 H347 0.960 . S
C360 C359 1.524 . S
C361 C358 1.403 . S
C361 C362 1.392 1_655 S
C361 C365 1.495 . S
C362 C361 1.392 1_455 S
C362 C363 1.385 . S
C362 C364 1.478 . S
C363 H357 0.930 . S
C363 C359 1.400 . S
C363 C362 1.385 . S
C364 C362 1.478 . S
C364 C366 1.381 1_455 S
C364 C370 1.383 . S
C365 C361 1.495 . S
C365 H371 0.959 . S
C365 H372 0.961 . S
C365 H373 0.960 . S
C366 C364 1.381 1_655 S
C366 C367 1.394 . S
C366 H374 0.930 . S
C367 C366 1.394 . S
C367 C368 1.383 1_655 S
C367 H375 0.929 . S
C368 C367 1.383 1_455 S
C368 C369 1.377 . S
C369 H353 0.930 . S
C369 C368 1.377 . S
C369 C370 1.379 . S
C370 H354 0.931 . S
C370 C364 1.383 . S
C370 C369 1.379 . S
H371 C365 0.959 . S
H372 C365 0.961 . S
H373 C365 0.960 . S
H374 C366 0.930 . S
H375 C367 0.929 . S
H376 C384 0.929 . S
H377 C386 0.930 . S
H378 C388 0.930 . S
H379 C391 0.929 . S
H380 C394 0.930 . S
H381 C396 0.960 . S
H382 C396 0.960 . S
H383 C396 0.960 . S
C384 H376 0.929 . S
C384 C385 1.377 1_545 S
C384 C386 1.384 . S
C385 C384 1.377 1_565 S
C385 C391 1.390 . S
C386 H377 0.930 . S
C386 C384 1.384 . S
C386 C387 1.372 1_545 S
C387 C386 1.372 1_565 S
C387 C388 1.400 . S
C387 C392 1.490 . S
C388 H378 0.930 . S
C388 C387 1.400 . S
C388 C391 1.386 . S
H389 C405 0.930 . S
H390 C406 0.931 . S
C391 H379 0.929 . S
C391 C385 1.390 . S
C391 C388 1.386 . S
C392 C387 1.490 . S
C392 C394 1.395 1_565 S
C392 C395 1.403 . S
H393 C399 0.930 . S
C394 H380 0.930 . S
C394 C392 1.395 1_545 S
C394 C397 1.403 . S
C395 C392 1.403 . S
C395 C396 1.524 . S
C395 C399 1.400 . S
C396 H381 0.960 . S
C396 H382 0.960 . S
C396 H383 0.960 . S
C396 C395 1.524 . S
C397 C394 1.403 . S
C397 C398 1.392 1_545 S
C397 C401 1.495 . S
C398 C397 1.392 1_565 S
C398 C399 1.385 . S
C398 C400 1.478 . S
C399 H393 0.930 . S
C399 C395 1.400 . S
C399 C398 1.385 . S
C400 C398 1.478 . S
C400 C402 1.381 1_565 S
C400 C406 1.383 . S
C401 C397 1.495 . S
C401 H407 0.959 . S
C401 H408 0.961 . S
C401 H409 0.960 . S
C402 C400 1.381 1_545 S
C402 C403 1.394 . S
C402 H410 0.930 . S
C403 C402 1.394 . S
C403 C404 1.435 . S
C403 H411 0.929 . S
C404 C403 1.435 . S
C404 C405 1.322 1_545 S
C405 H389 0.930 . S
C405 C404 1.322 1_565 S
C405 C406 1.379 . S
C406 H390 0.931 . S
C406 C400 1.383 . S
C406 C405 1.379 . S
H407 C401 0.959 . S
H408 C401 0.961 . S
H409 C401 0.960 . S
H410 C402 0.930 . S
H411 C403 0.929 . S
H412 C420 0.929 . S
H413 C422 0.930 . S
H414 C424 0.930 . S
H415 C427 0.923 1_554 S
H416 C430 0.930 . S
H417 C432 0.960 . S
H418 C432 0.960 . S
H419 C432 0.960 . S
C420 H412 0.929 . S
C420 C421 1.377 . S
C420 C422 1.384 . S
C421 C420 1.377 . S
C421 C427 1.390 . S
C422 H413 0.930 . S
C422 C420 1.384 . S
C422 C423 1.372 . S
C423 C422 1.372 . S
C423 C424 1.400 . S
C423 C428 1.490 . S
C424 H414 0.930 . S
C424 C423 1.400 . S
C424 C427 1.386 . S
H425 C441 0.930 . S
H426 C442 0.931 . S
C427 H415 0.923 1_556 S
C427 C421 1.390 . S
C427 C424 1.386 . S
C428 C423 1.490 . S
C428 C430 1.395 . S
C428 C431 1.403 . S
H429 C435 0.930 . S
C430 H416 0.930 . S
C430 C428 1.395 . S
C430 C433 1.403 . S
C431 C428 1.403 . S
C431 C432 1.524 . S
C431 C435 1.400 . S
C432 H417 0.960 . S
C432 H418 0.960 . S
C432 H419 0.960 . S
C432 C431 1.524 . S
C433 C430 1.403 . S
C433 C434 1.392 . S
C433 C437 1.495 . S
C434 C433 1.392 . S
C434 C435 1.385 . S
C434 C436 1.478 . S
C435 H429 0.930 . S
C435 C431 1.400 . S
C435 C434 1.385 . S
C436 C434 1.478 . S
C436 C438 1.381 . S
C436 C442 1.383 . S
C437 C433 1.495 . S
C437 H443 0.959 . S
C437 H444 0.961 . S
C437 H445 0.960 . S
C438 C436 1.381 . S
C438 C439 1.394 . S
C438 H446 0.930 . S
C439 C438 1.394 . S
C439 C440 1.383 . S
C439 H447 0.929 . S
C440 C439 1.383 . S
C440 C441 1.377 . S
C441 H425 0.930 . S
C441 C440 1.377 . S
C441 C442 1.379 . S
C442 H426 0.931 . S
C442 C436 1.383 . S
C442 C441 1.379 . S
H443 C437 0.959 . S
H444 C437 0.961 . S
H445 C437 0.960 . S
H446 C438 0.930 . S
H447 C439 0.929 . S
H448 C456 0.929 . S
H449 C458 0.930 . S
H450 C460 0.930 . S
H451 C463 0.929 . S
H452 C466 0.930 . S
H453 C468 0.960 . S
H454 C468 0.960 . S
H455 C468 0.960 . S
C456 H448 0.929 . S
C456 C457 1.377 . S
C456 C458 1.384 . S
C457 C456 1.377 . S
C457 C463 1.390 . S
C458 H449 0.930 . S
C458 C456 1.384 . S
C458 C459 1.372 . S
C459 C458 1.372 . S
C459 C460 1.400 . S
C459 C464 1.490 . S
C460 H450 0.930 . S
C460 C459 1.400 . S
C460 C463 1.386 . S
H461 C477 0.930 . S
H462 C478 0.931 . S
C463 H451 0.929 . S
C463 C457 1.390 . S
C463 C460 1.386 . S
C464 C459 1.490 . S
C464 C466 1.395 . S
C464 C467 1.403 . S
H465 C471 0.930 . S
C466 H452 0.930 . S
C466 C464 1.395 . S
C466 C469 1.403 . S
C467 C464 1.403 . S
C467 C468 1.524 . S
C467 C471 1.400 . S
C468 H453 0.960 . S
C468 H454 0.960 . S
C468 H455 0.960 . S
C468 C467 1.524 . S
C469 C466 1.403 . S
C469 C470 1.392 . S
C469 C473 1.495 . S
C470 C469 1.392 . S
C470 C471 1.385 . S
C470 C472 1.478 . S
C471 H465 0.930 . S
C471 C467 1.400 . S
C471 C470 1.385 . S
C472 C470 1.478 . S
C472 C474 1.381 . S
C472 C478 1.383 . S
C473 C469 1.495 . S
C473 H479 0.959 . S
C473 H480 0.961 . S
C473 H481 0.960 . S
C474 C472 1.381 . S
C474 C475 1.394 . S
C474 H482 0.930 . S
C475 C474 1.394 . S
C475 C476 1.383 . S
C475 H483 0.929 . S
C476 C475 1.383 . S
C476 C477 1.377 . S
C477 H461 0.930 . S
C477 C476 1.377 . S
C477 C478 1.379 . S
C478 H462 0.931 . S
C478 C472 1.383 . S
C478 C477 1.379 . S
H479 C473 0.959 . S
H480 C473 0.961 . S
H481 C473 0.960 . S
H482 C474 0.930 . S
H483 C475 0.929 . S
H484 C492 0.929 1_554 S
H485 C494 0.930 . S
H486 C496 0.930 . S
H487 C499 0.929 . S
H488 C502 0.930 . S
H489 C504 0.960 . S
H490 C504 0.960 . S
H491 C504 0.960 . S
C492 H484 0.929 1_556 S
C492 C493 1.377 . S
C492 C494 1.384 . S
C493 C492 1.377 . S
C493 C499 1.390 . S
C494 H485 0.930 . S
C494 C492 1.384 . S
C494 C495 1.372 . S
C495 C494 1.372 . S
C495 C496 1.400 . S
C495 C500 1.490 . S
C496 H486 0.930 . S
C496 C495 1.400 . S
C496 C499 1.386 . S
H497 C513 0.935 . S
H498 C514 0.931 . S
C499 H487 0.929 . S
C499 C493 1.390 . S
C499 C496 1.386 . S
C500 C495 1.490 . S
C500 C502 1.395 . S
C500 C503 1.403 1_655 S
H501 C507 0.930 . S
C502 H488 0.930 . S
C502 C500 1.395 . S
C502 C505 1.403 . S
C503 C500 1.403 1_455 S
C503 C504 1.524 . S
C503 C507 1.400 . S
C504 H489 0.960 . S
C504 H490 0.960 . S
C504 H491 0.960 . S
C504 C503 1.524 . S
C505 C502 1.403 . S
C505 C506 1.392 . S
C505 C509 1.495 . S
C506 C505 1.392 . S
C506 C507 1.385 1_655 S
C506 C508 1.478 . S
C507 H501 0.930 . S
C507 C503 1.400 . S
C507 C506 1.385 1_455 S
C508 C506 1.478 . S
C508 C510 1.381 . S
C508 C514 1.383 . S
C509 C505 1.495 . S
C509 H515 0.959 . S
C509 H516 0.961 . S
C509 H517 0.960 . S
C510 C508 1.381 . S
C510 C511 1.394 . S
C510 H518 0.930 . S
C511 C510 1.394 . S
C511 C512 1.383 . S
C511 H519 0.929 . S
C512 C511 1.383 . S
C512 C513 1.375 1_655 S
C513 H497 0.935 . S
C513 C512 1.375 1_455 S
C513 C514 1.377 1_455 S
C514 H498 0.931 . S
C514 C508 1.383 . S
C514 C513 1.377 1_655 S
H515 C509 0.959 . S
H516 C509 0.961 . S
H517 C509 0.960 . S
H518 C510 0.930 . S
H519 C511 0.929 . S
H520 C528 0.929 . S
H521 C530 0.930 . S
H522 C532 0.930 . S
H523 C535 0.929 . S
H524 C538 0.930 . S
H525 C540 0.960 . S
H526 C540 0.960 . S
H527 C540 0.960 . S
C528 H520 0.929 . S
C528 C529 1.377 . S
C528 C530 1.384 . S
C529 C528 1.377 . S
C529 C535 1.390 . S
C530 H521 0.930 . S
C530 C528 1.384 . S
C530 C531 1.372 . S
C531 C530 1.372 . S
C531 C532 1.400 . S
C531 C536 1.490 . S
C532 H522 0.930 . S
C532 C531 1.400 . S
C532 C535 1.386 . S
H533 C549 0.930 . S
H534 C550 0.931 . S
C535 H523 0.929 . S
C535 C529 1.390 . S
C535 C532 1.386 . S
C536 C531 1.490 . S
C536 C538 1.395 1_455 S
C536 C539 1.403 . S
H537 C543 0.930 . S
C538 H524 0.930 . S
C538 C536 1.395 1_655 S
C538 C541 1.403 . S
C539 C536 1.403 . S
C539 C540 1.524 . S
C539 C543 1.400 . S
C540 H525 0.960 . S
C540 H526 0.960 . S
C540 H527 0.960 . S
C540 C539 1.524 . S
C541 C538 1.403 . S
C541 C542 1.392 1_655 S
C541 C545 1.495 . S
C542 C541 1.392 1_455 S
C542 C543 1.385 . S
C542 C544 1.478 . S
C543 H537 0.930 . S
C543 C539 1.400 . S
C543 C542 1.385 . S
C544 C542 1.478 . S
C544 C546 1.381 1_455 S
C544 C550 1.383 . S
C545 C541 1.495 . S
C545 H551 0.959 . S
C545 H552 0.961 . S
C545 H553 0.960 . S
C546 C544 1.381 1_655 S
C546 C547 1.394 . S
C546 H554 0.930 . S
C547 C546 1.394 . S
C547 C548 1.390 . S
C547 H555 0.929 . S
C548 C547 1.390 . S
C548 C549 1.369 1_655 S
C549 H533 0.930 . S
C549 C548 1.369 1_455 S
C549 C550 1.379 . S
C550 H534 0.931 . S
C550 C544 1.383 . S
C550 C549 1.379 . S
H551 C545 0.959 . S
H552 C545 0.961 . S
H553 C545 0.960 . S
H554 C546 0.930 . S
H555 C547 0.929 . S
H556 C564 0.929 . S
H557 C566 0.930 . S
H558 C568 0.930 . S
H559 C571 0.929 . S
H560 C574 0.930 . S
H561 C576 0.960 . S
H562 C576 0.960 . S
H563 C576 0.960 . S
C564 H556 0.929 . S
C564 C565 1.377 . S
C564 C566 1.384 . S
C565 C564 1.377 . S
C565 C571 1.390 . S
C566 H557 0.930 . S
C566 C564 1.384 . S
C566 C567 1.372 . S
C567 C566 1.372 . S
C567 C568 1.400 . S
C567 C572 1.490 . S
C568 H558 0.930 . S
C568 C567 1.400 . S
C568 C571 1.386 . S
H569 C585 0.930 . S
H570 C586 0.931 . S
C571 H559 0.929 . S
C571 C565 1.390 . S
C571 C568 1.386 . S
C572 C567 1.490 . S
C572 C574 1.395 . S
C572 C575 1.403 . S
H573 C579 0.930 1_565 S
C574 H560 0.930 . S
C574 C572 1.395 . S
C574 C577 1.403 . S
C575 C572 1.403 . S
C575 C576 1.524 1_545 S
C575 C579 1.400 . S
C576 H561 0.960 . S
C576 H562 0.960 . S
C576 H563 0.960 . S
C576 C575 1.524 1_565 S
C577 C574 1.403 . S
C577 C578 1.392 . S
C577 C581 1.495 . S
C578 C577 1.392 . S
C578 C579 1.385 . S
C578 C580 1.478 . S
C579 H573 0.930 1_545 S
C579 C575 1.400 . S
C579 C578 1.385 . S
C580 C578 1.478 . S
C580 C582 1.380 . S
C580 C586 1.383 . S
C581 C577 1.495 . S
C581 H587 0.959 . S
C581 H588 0.961 . S
C581 H589 0.960 . S
C582 C580 1.380 . S
C582 C583 1.395 1_545 S
C582 H590 0.931 1_545 S
C583 C582 1.395 1_565 S
C583 C584 1.383 1_565 S
C583 H591 0.929 . S
C584 C583 1.383 1_545 S
C584 C585 1.377 . S
C585 H569 0.930 . S
C585 C584 1.377 . S
C585 C586 1.379 . S
C586 H570 0.931 . S
C586 C580 1.383 . S
C586 C585 1.379 . S
H587 C581 0.959 . S
H588 C581 0.961 . S
H589 C581 0.960 . S
H590 C582 0.931 1_565 S
H591 C583 0.929 . S
H592 C600 0.929 . S
H593 C602 0.930 . S
H594 C604 0.930 . S
H595 C607 0.929 . S
H596 C610 0.930 . S
H597 C612 0.960 . S
H598 C612 0.960 . S
H599 C612 0.960 . S
C600 H592 0.929 . S
C600 C601 1.377 . S
C600 C602 1.384 . S
C601 C600 1.377 . S
C601 C607 1.390 . S
C602 H593 0.930 . S
C602 C600 1.384 . S
C602 C603 1.372 . S
C603 C602 1.372 . S
C603 C604 1.400 . S
C603 C608 1.490 . S
C604 H594 0.930 . S
C604 C603 1.400 . S
C604 C607 1.386 . S
H605 C621 0.930 . S
H606 C622 0.931 . S
C607 H595 0.929 . S
C607 C601 1.390 . S
C607 C604 1.386 . S
C608 C603 1.490 . S
C608 C610 1.395 . S
C608 C611 1.403 . S
H609 C615 0.930 . S
C610 H596 0.930 . S
C610 C608 1.395 . S
C610 C613 1.403 . S
C611 C608 1.403 . S
C611 C612 1.524 . S
C611 C615 1.400 . S
C612 H597 0.960 . S
C612 H598 0.960 . S
C612 H599 0.960 . S
C612 C611 1.524 . S
C613 C610 1.403 . S
C613 C614 1.392 . S
C613 C617 1.495 . S
C614 C613 1.392 . S
C614 C615 1.385 . S
C614 C616 1.478 . S
C615 H609 0.930 . S
C615 C611 1.400 . S
C615 C614 1.385 . S
C616 C614 1.478 . S
C616 C618 1.381 . S
C616 C622 1.383 . S
C617 C613 1.495 . S
C617 H623 0.959 . S
C617 H624 0.961 . S
C617 H625 0.960 . S
C618 C616 1.381 . S
C618 C619 1.394 . S
C618 H626 0.930 . S
C619 C618 1.394 . S
C619 C620 1.383 . S
C619 H627 0.929 . S
C620 C619 1.383 . S
C620 C621 1.377 . S
C621 H605 0.930 . S
C621 C620 1.377 . S
C621 C622 1.379 . S
C622 H606 0.931 . S
C622 C616 1.383 . S
C622 C621 1.379 . S
H623 C617 0.959 . S
H624 C617 0.961 . S
H625 C617 0.960 . S
H626 C618 0.930 . S
H627 C619 0.929 . S
H628 C636 0.929 . S
H629 C638 0.930 . S
H630 C640 0.930 . S
H631 C643 0.929 . S
H632 C646 0.930 . S
H633 C648 0.960 . S
H634 C648 0.960 . S
H635 C648 0.960 . S
C636 H628 0.929 . S
C636 C637 1.377 . S
C636 C638 1.384 . S
C637 C636 1.377 . S
C637 C643 1.390 . S
C638 H629 0.930 . S
C638 C636 1.384 . S
C638 C639 1.372 . S
C639 C638 1.372 . S
C639 C640 1.400 . S
C639 C644 1.490 . S
C640 H630 0.930 . S
C640 C639 1.400 . S
C640 C643 1.386 . S
H641 C657 0.930 . S
H642 C658 0.931 . S
C643 H631 0.929 . S
C643 C637 1.390 . S
C643 C640 1.386 . S
C644 C639 1.490 . S
C644 C646 1.395 . S
C644 C647 1.403 . S
H645 C651 0.930 . S
C646 H632 0.930 . S
C646 C644 1.395 . S
C646 C649 1.403 . S
C647 C644 1.403 . S
C647 C648 1.524 . S
C647 C651 1.400 . S
C648 H633 0.960 . S
C648 H634 0.960 . S
C648 H635 0.960 . S
C648 C647 1.524 . S
C649 C646 1.403 . S
C649 C650 1.392 . S
C649 C653 1.495 . S
C650 C649 1.392 . S
C650 C651 1.385 . S
C650 C652 1.478 . S
C651 H645 0.930 . S
C651 C647 1.400 . S
C651 C650 1.385 . S
C652 C650 1.478 . S
C652 C654 1.381 . S
C652 C658 1.383 . S
C653 C649 1.495 . S
C653 H659 0.959 . S
C653 H660 0.961 . S
C653 H661 0.960 . S
C654 C652 1.381 . S
C654 C655 1.394 . S
C654 H662 0.930 . S
C655 C654 1.394 . S
C655 C656 1.383 . S
C655 H663 0.929 . S
C656 C655 1.383 . S
C656 C657 1.377 . S
C657 H641 0.930 . S
C657 C656 1.377 . S
C657 C658 1.379 . S
C658 H642 0.931 . S
C658 C652 1.383 . S
C658 C657 1.379 . S
H659 C653 0.959 . S
H660 C653 0.961 . S
H661 C653 0.960 . S
H662 C654 0.930 . S
H663 C655 0.929 . S
H664 C672 0.936 1_455 S
H665 C674 0.930 . S
H666 C676 0.930 . S
H667 C679 0.929 . S
H668 C682 0.930 . S
H669 C684 0.960 . S
H670 C684 0.960 . S
H671 C684 0.960 . S
C672 H664 0.936 1_655 S
C672 C673 1.377 . S
C672 C674 1.384 1_655 S
C673 C672 1.377 . S
C673 C679 1.390 . S
C674 H665 0.930 . S
C674 C672 1.384 1_455 S
C674 C675 1.372 1_455 S
C675 C674 1.372 1_655 S
C675 C676 1.400 . S
C675 C680 1.490 . S
C676 H666 0.930 . S
C676 C675 1.400 . S
C676 C679 1.386 . S
H677 C693 0.930 . S
H678 C694 0.931 . S
C679 H667 0.929 . S
C679 C673 1.390 . S
C679 C676 1.386 . S
C680 C675 1.490 . S
C680 C682 1.395 1_655 S
C680 C683 1.403 . S
H681 C687 0.930 . S
C682 H668 0.930 . S
C682 C680 1.395 1_455 S
C682 C685 1.403 . S
C683 C680 1.403 . S
C683 C684 1.524 . S
C683 C687 1.400 . S
C684 H669 0.960 . S
C684 H670 0.960 . S
C684 H671 0.960 . S
C684 C683 1.524 . S
C685 C682 1.403 . S
C685 C686 1.399 . S
C685 C689 1.495 . S
C686 C685 1.399 . S
C686 C687 1.376 1_455 S
C686 C688 1.479 . S
C687 H681 0.930 . S
C687 C683 1.400 . S
C687 C686 1.376 1_655 S
C688 C686 1.479 . S
C688 C690 1.381 . S
C688 C694 1.383 1_455 S
C689 C685 1.495 . S
C689 H695 0.959 . S
C689 H696 0.961 . S
C689 H697 0.960 . S
C690 C688 1.381 . S
C690 C691 1.394 . S
C690 H698 0.930 . S
C691 C690 1.394 . S
C691 C692 1.383 . S
C691 H699 0.929 . S
C692 C691 1.383 . S
C692 C693 1.377 1_455 S
C693 H677 0.930 . S
C693 C692 1.377 1_655 S
C693 C694 1.379 . S
C694 H678 0.931 . S
C694 C688 1.383 1_655 S
C694 C693 1.379 . S
H695 C689 0.959 . S
H696 C689 0.961 . S
H697 C689 0.960 . S
H698 C690 0.930 . S
H699 C691 0.929 . S
H700 C708 0.929 1_554 S
H701 C710 0.930 . S
H702 C712 0.930 . S
H703 C715 0.929 . S
H704 C718 0.930 . S
H705 C720 0.960 . S
H706 C720 0.960 . S
H707 C720 0.960 . S
C708 H700 0.929 1_556 S
C708 C709 1.377 . S
C708 C710 1.384 . S
C709 C708 1.377 . S
C709 C715 1.390 . S
C710 H701 0.930 . S
C710 C708 1.384 . S
C710 C711 1.372 . S
C711 C710 1.372 . S
C711 C712 1.400 . S
C711 C716 1.490 . S
C712 H702 0.930 . S
C712 C711 1.400 . S
C712 C715 1.386 . S
H713 C729 0.930 . S
H714 C730 0.931 . S
C715 H703 0.929 . S
C715 C709 1.390 . S
C715 C712 1.386 . S
C716 C711 1.490 . S
C716 C718 1.395 1_565 S
C716 C719 1.403 . S
H717 C723 0.930 . S
C718 H704 0.930 . S
C718 C716 1.395 1_545 S
C718 C721 1.403 . S
C719 C716 1.403 . S
C719 C720 1.524 . S
C719 C723 1.400 . S
C720 H705 0.960 . S
C720 H706 0.960 . S
C720 H707 0.960 . S
C720 C719 1.524 . S
C721 C718 1.403 . S
C721 C722 1.385 1_545 S
C721 C725 1.495 . S
C722 C721 1.385 1_565 S
C722 C723 1.395 . S
C722 C724 1.475 1_565 S
C723 H717 0.930 . S
C723 C719 1.400 . S
C723 C722 1.395 . S
C724 C722 1.475 1_545 S
C724 C726 1.381 1_545 S
C724 C730 1.383 . S
C725 C721 1.495 . S
C725 H731 0.959 . S
C725 H732 0.961 . S
C725 H733 0.960 . S
C726 C724 1.381 1_565 S
C726 C727 1.396 . S
C726 H734 0.930 . S
C727 C726 1.396 . S
C727 C728 1.376 1_565 S
C727 H735 0.935 . S
C728 C727 1.376 1_545 S
C728 C729 1.377 . S
C729 H713 0.930 . S
C729 C728 1.377 . S
C729 C730 1.379 . S
C730 H714 0.931 . S
C730 C724 1.383 . S
C730 C729 1.379 . S
H731 C725 0.959 . S
H732 C725 0.961 . S
H733 C725 0.960 . S
H734 C726 0.930 . S
H735 C727 0.935 . S
H736 C744 0.929 . S
H737 C746 0.930 . S
H738 C748 0.930 . S
H739 C751 0.929 . S
H740 C754 0.930 . S
H741 C756 0.960 . S
H742 C756 0.960 . S
H743 C756 0.960 . S
C744 H736 0.929 . S
C744 C745 1.377 . S
C744 C746 1.384 . S
C745 C744 1.377 . S
C745 C751 1.390 . S
C746 H737 0.930 . S
C746 C744 1.384 . S
C746 C747 1.372 . S
C747 C746 1.372 . S
C747 C748 1.400 . S
C747 C752 1.490 . S
C748 H738 0.930 . S
C748 C747 1.400 . S
C748 C751 1.386 . S
H749 C765 0.930 . S
H750 C766 0.931 . S
C751 H739 0.929 . S
C751 C745 1.390 . S
C751 C748 1.386 . S
C752 C747 1.490 . S
C752 C754 1.395 . S
C752 C755 1.403 . S
H753 C759 0.930 . S
C754 H740 0.930 . S
C754 C752 1.395 . S
C754 C757 1.403 . S
C755 C752 1.403 . S
C755 C756 1.524 . S
C755 C759 1.400 . S
C756 H741 0.960 . S
C756 H742 0.960 . S
C756 H743 0.960 . S
C756 C755 1.524 . S
C757 C754 1.403 . S
C757 C758 1.392 . S
C757 C761 1.495 . S
C758 C757 1.392 . S
C758 C759 1.385 . S
C758 C760 1.478 . S
C759 H753 0.930 . S
C759 C755 1.400 . S
C759 C758 1.385 . S
C760 C758 1.478 . S
C760 C762 1.381 . S
C760 C766 1.383 . S
C761 C757 1.495 . S
C761 H767 0.959 . S
C761 H768 0.961 . S
C761 H769 0.960 . S
C762 C760 1.381 . S
C762 C763 1.394 . S
C762 H770 0.930 . S
C763 C762 1.394 . S
C763 C764 1.383 . S
C763 H771 0.929 . S
C764 C763 1.383 . S
C764 C765 1.377 . S
C765 H749 0.930 . S
C765 C764 1.377 . S
C765 C766 1.379 . S
C766 H750 0.931 . S
C766 C760 1.383 . S
C766 C765 1.379 . S
H767 C761 0.959 . S
H768 C761 0.961 . S
H769 C761 0.960 . S
H770 C762 0.930 . S
H771 C763 0.929 . S
H772 C780 0.929 1_554 S
H773 C782 0.930 . S
H774 C784 0.930 . S
H775 C787 0.929 . S
H776 C790 0.930 . S
H777 C792 0.960 . S
H778 C792 0.960 . S
H779 C792 0.960 . S
C780 H772 0.929 1_556 S
C780 C781 1.377 . S
C780 C782 1.384 . S
C781 C780 1.377 . S
C781 C787 1.390 . S
C782 H773 0.930 . S
C782 C780 1.384 . S
C782 C783 1.372 . S
C783 C782 1.372 . S
C783 C784 1.400 . S
C783 C788 1.490 . S
C784 H774 0.930 . S
C784 C783 1.400 . S
C784 C787 1.386 . S
H785 C801 0.930 . S
H786 C802 0.931 . S
C787 H775 0.929 . S
C787 C781 1.390 . S
C787 C784 1.386 . S
C788 C783 1.490 . S
C788 C790 1.395 . S
C788 C791 1.403 . S
H789 C795 0.930 . S
C790 H776 0.930 . S
C790 C788 1.395 . S
C790 C793 1.403 . S
C791 C788 1.403 . S
C791 C792 1.524 . S
C791 C795 1.400 . S
C792 H777 0.960 . S
C792 H778 0.960 . S
C792 H779 0.960 . S
C792 C791 1.524 . S
C793 C790 1.403 . S
C793 C794 1.392 . S
C793 C797 1.495 . S
C794 C793 1.392 . S
C794 C795 1.385 . S
C794 C796 1.478 . S
C795 H789 0.930 . S
C795 C791 1.400 . S
C795 C794 1.385 . S
C796 C794 1.478 . S
C796 C798 1.381 . S
C796 C802 1.383 . S
C797 C793 1.495 . S
C797 H803 0.959 . S
C797 H804 0.961 . S
C797 H805 0.960 . S
C798 C796 1.381 . S
C798 C799 1.394 . S
C798 H806 0.930 . S
C799 C798 1.394 . S
C799 C800 1.383 . S
C799 H807 0.929 . S
C800 C799 1.383 . S
C800 C801 1.377 . S
C801 H785 0.930 . S
C801 C800 1.377 . S
C801 C802 1.379 . S
C802 H786 0.931 . S
C802 C796 1.383 . S
C802 C801 1.379 . S
H803 C797 0.959 . S
H804 C797 0.961 . S
H805 C797 0.960 . S
H806 C798 0.930 . S
H807 C799 0.929 . S
H808 C816 0.929 1_655 S
H809 C818 0.930 1_655 S
H810 C820 0.930 1_554 S
H811 C823 0.929 . S
H812 C826 0.930 . S
H813 C828 0.960 . S
H814 C828 0.960 . S
H815 C828 0.960 . S
C816 H808 0.929 1_455 S
C816 C817 1.369 1_556 S
C816 C818 1.393 . S
C817 C816 1.369 1_554 S
C817 C823 1.390 . S
C818 H809 0.930 1_455 S
C818 C816 1.393 . S
C818 C819 1.372 . S
C819 C818 1.372 . S
C819 C820 1.404 . S
C819 C824 1.490 . S
C820 H810 0.930 1_556 S
C820 C819 1.404 . S
C820 C823 1.382 1_556 S
H821 C837 0.930 . S
H822 C838 0.931 . S
C823 H811 0.929 . S
C823 C817 1.390 . S
C823 C820 1.382 1_554 S
C824 C819 1.490 . S
C824 C826 1.395 . S
C824 C827 1.403 . S
H825 C831 0.930 . S
C826 H812 0.930 . S
C826 C824 1.395 . S
C826 C829 1.403 . S
C827 C824 1.403 . S
C827 C828 1.524 1_556 S
C827 C831 1.400 . S
C828 H813 0.960 . S
C828 H814 0.960 . S
C828 H815 0.960 . S
C828 C827 1.524 1_554 S
C829 C826 1.403 . S
C829 C830 1.392 . S
C829 C833 1.495 . S
C830 C829 1.392 . S
C830 C831 1.385 . S
C830 C832 1.478 . S
C831 H825 0.930 . S
C831 C827 1.400 . S
C831 C830 1.385 . S
C832 C830 1.478 . S
C832 C834 1.381 1_455 S
C832 C838 1.383 . S
C833 C829 1.495 . S
C833 H839 0.959 . S
C833 H840 0.961 . S
C833 H841 0.955 . S
C834 C832 1.381 1_655 S
C834 C835 1.394 . S
C834 H842 0.930 . S
C835 C834 1.394 . S
C835 C836 1.383 1_655 S
C835 H843 0.929 . S
C836 C835 1.383 1_455 S
C836 C837 1.377 . S
C837 H821 0.930 . S
C837 C836 1.377 . S
C837 C838 1.379 . S
C838 H822 0.931 . S
C838 C832 1.383 . S
C838 C837 1.379 . S
H839 C833 0.959 . S
H840 C833 0.961 . S
H841 C833 0.955 . S
H842 C834 0.930 . S
H843 C835 0.929 . S
H844 C852 0.931 . S
H845 C854 0.930 1_565 S
H846 C856 0.930 . S
H847 C859 0.929 . S
H848 C862 0.930 . S
H849 C864 0.960 . S
H850 C864 0.991 . S
H851 C864 0.960 . S
C852 H844 0.931 . S
C852 C853 1.377 1_556 S
C852 C854 1.384 . S
C853 C852 1.377 1_554 S
C853 C859 1.390 . S
C854 H845 0.930 1_545 S
C854 C852 1.384 . S
C854 C855 1.372 . S
C855 C854 1.372 . S
C855 C856 1.400 1_556 S
C855 C860 1.490 . S
C856 H846 0.930 . S
C856 C855 1.400 1_554 S
C856 C859 1.386 . S
H857 C873 0.930 . S
H858 C874 0.931 . S
C859 H847 0.929 . S
C859 C853 1.390 . S
C859 C856 1.386 . S
C860 C855 1.490 . S
C860 C862 1.395 . S
C860 C863 1.403 . S
H861 C867 0.930 . S
C862 H848 0.930 . S
C862 C860 1.395 . S
C862 C865 1.403 . S
C863 C860 1.403 . S
C863 C864 1.524 1_556 S
C863 C867 1.400 . S
C864 H849 0.960 . S
C864 H850 0.991 . S
C864 H851 0.960 . S
C864 C863 1.524 1_554 S
C865 C862 1.403 . S
C865 C866 1.392 . S
C865 C869 1.495 . S
C866 C865 1.392 . S
C866 C867 1.385 . S
C866 C868 1.478 . S
C867 H861 0.930 . S
C867 C863 1.400 . S
C867 C866 1.385 . S
C868 C866 1.478 . S
C868 C870 1.381 . S
C868 C874 1.383 . S
C869 C865 1.495 . S
C869 H875 0.959 . S
C869 H876 0.961 . S
C869 H877 0.960 . S
C870 C868 1.381 . S
C870 C871 1.399 . S
C870 H878 0.930 1_545 S
C871 C870 1.399 . S
C871 C872 1.423 . S
C871 H879 0.887 1_545 S
C872 C871 1.423 . S
C872 C873 1.377 . S
C873 H857 0.930 . S
C873 C872 1.377 . S
C873 C874 1.379 . S
C874 H858 0.931 . S
C874 C868 1.383 . S
C874 C873 1.379 . S
H875 C869 0.959 . S
H876 C869 0.961 . S
H877 C869 0.960 . S
H878 C870 0.930 1_565 S
H879 C871 0.887 1_565 S
H880 C888 0.929 . S
H881 C890 0.930 . S
H882 C892 0.930 . S
H883 C895 0.929 . S
H884 C898 0.930 . S
H885 C900 0.960 . S
H886 C900 0.960 1_554 S
H887 C900 0.960 . S
C888 H880 0.929 . S
C888 C889 1.377 . S
C888 C890 1.384 . S
C889 C888 1.377 . S
C889 C895 1.390 1_554 S
C890 H881 0.930 . S
C890 C888 1.384 . S
C890 C891 1.372 1_554 S
C891 C890 1.372 1_556 S
C891 C892 1.400 . S
C891 C896 1.490 . S
C892 H882 0.930 . S
C892 C891 1.400 . S
C892 C895 1.386 . S
H893 C909 0.930 . S
H894 C910 0.931 . S
C895 H883 0.929 . S
C895 C889 1.390 1_556 S
C895 C892 1.386 . S
C896 C891 1.490 . S
C896 C898 1.395 . S
C896 C899 1.403 . S
H897 C903 0.930 . S
C898 H884 0.930 . S
C898 C896 1.395 . S
C898 C901 1.403 . S
C899 C896 1.403 . S
C899 C900 1.524 . S
C899 C903 1.400 . S
C900 H885 0.960 . S
C900 H886 0.960 1_556 S
C900 H887 0.960 . S
C900 C899 1.524 . S
C901 C898 1.403 . S
C901 C902 1.392 . S
C901 C905 1.495 . S
C902 C901 1.392 . S
C902 C903 1.385 . S
C902 C904 1.478 . S
C903 H897 0.930 . S
C903 C899 1.400 . S
C903 C902 1.385 . S
C904 C902 1.478 . S
C904 C906 1.381 . S
C904 C910 1.383 . S
C905 C901 1.495 . S
C905 H911 0.959 . S
C905 H912 0.961 . S
C905 H913 0.960 . S
C906 C904 1.381 . S
C906 C907 1.394 . S
C906 H914 0.930 . S
C907 C906 1.394 . S
C907 C908 1.383 . S
C907 H915 0.929 . S
C908 C907 1.383 . S
C908 C909 1.377 . S
C909 H893 0.930 . S
C909 C908 1.377 . S
C909 C910 1.379 . S
C910 H894 0.931 . S
C910 C904 1.383 . S
C910 C909 1.379 . S
H911 C905 0.959 . S
H912 C905 0.961 . S
H913 C905 0.960 . S
H914 C906 0.930 . S
H915 C907 0.929 . S
H916 C924 0.929 . S
H917 C926 0.930 . S
H918 C928 0.930 . S
H919 C931 0.929 . S
H920 C934 0.930 . S
H921 C936 0.960 . S
H922 C936 0.960 . S
H923 C936 0.960 . S
C924 H916 0.929 . S
C924 C925 1.377 1_556 S
C924 C926 1.384 . S
C925 C924 1.377 1_554 S
C925 C931 1.390 . S
C926 H917 0.930 . S
C926 C924 1.384 . S
C926 C927 1.372 . S
C927 C926 1.372 . S
C927 C928 1.400 1_556 S
C927 C932 1.490 . S
C928 H918 0.930 . S
C928 C927 1.400 1_554 S
C928 C931 1.386 . S
H929 C945 0.930 . S
H930 C946 0.931 . S
C931 H919 0.929 . S
C931 C925 1.390 . S
C931 C928 1.386 . S
C932 C927 1.490 . S
C932 C934 1.395 . S
C932 C935 1.403 . S
H933 C939 0.930 . S
C934 H920 0.930 . S
C934 C932 1.395 . S
C934 C937 1.403 . S
C935 C932 1.403 . S
C935 C936 1.524 . S
C935 C939 1.400 . S
C936 H921 0.960 . S
C936 H922 0.960 . S
C936 H923 0.960 . S
C936 C935 1.524 . S
C937 C934 1.403 . S
C937 C938 1.392 . S
C937 C941 1.495 . S
C938 C937 1.392 . S
C938 C939 1.385 . S
C938 C940 1.478 . S
C939 H933 0.930 . S
C939 C935 1.400 . S
C939 C938 1.385 . S
C940 C938 1.478 . S
C940 C942 1.381 . S
C940 C946 1.383 . S
C941 C937 1.495 . S
C941 H947 0.959 . S
C941 H948 0.961 . S
C941 H949 0.960 . S
C942 C940 1.381 . S
C942 C943 1.394 . S
C942 H950 0.930 . S
C943 C942 1.394 . S
C943 C944 1.383 . S
C943 H951 0.929 . S
C944 C943 1.383 . S
C944 C945 1.377 . S
C945 H929 0.930 . S
C945 C944 1.377 . S
C945 C946 1.379 . S
C946 H930 0.931 . S
C946 C940 1.383 . S
C946 C945 1.379 . S
H947 C941 0.959 . S
H948 C941 0.961 . S
H949 C941 0.960 . S
H950 C942 0.930 . S
H951 C943 0.929 . S
H952 C960 0.929 . S
H953 C962 0.930 . S
H954 C964 0.930 1_455 S
H955 C967 0.929 1_455 S
H956 C970 0.930 . S
H957 C972 0.960 . S
H958 C972 0.960 . S
H959 C972 0.960 . S
C960 H952 0.929 . S
C960 C961 1.377 . S
C960 C962 1.384 . S
C961 C960 1.377 . S
C961 C967 1.390 . S
C962 H953 0.930 . S
C962 C960 1.384 . S
C962 C963 1.372 . S
C963 C962 1.372 . S
C963 C964 1.400 . S
C963 C968 1.490 . S
C964 H954 0.930 1_655 S
C964 C963 1.400 . S
C964 C967 1.386 . S
H965 C981 0.930 . S
H966 C982 0.931 . S
C967 H955 0.929 1_655 S
C967 C961 1.390 . S
C967 C964 1.386 . S
C968 C963 1.490 . S
C968 C970 1.395 . S
C968 C971 1.403 . S
H969 C975 0.930 . S
C970 H956 0.930 . S
C970 C968 1.395 . S
C970 C973 1.403 . S
C971 C968 1.403 . S
C971 C972 1.524 . S
C971 C975 1.400 . S
C972 H957 0.960 . S
C972 H958 0.960 . S
C972 H959 0.960 . S
C972 C971 1.524 . S
C973 C970 1.403 . S
C973 C974 1.392 . S
C973 C977 1.495 . S
C974 C973 1.392 . S
C974 C975 1.385 . S
C974 C976 1.478 . S
C975 H969 0.930 . S
C975 C971 1.400 . S
C975 C974 1.385 . S
C976 C974 1.478 . S
C976 C978 1.381 . S
C976 C982 1.383 1_655 S
C977 C973 1.495 . S
C977 H983 0.959 . S
C977 H984 0.961 1_655 S
C977 H985 0.960 . S
C978 C976 1.381 . S
C978 C979 1.394 . S
C978 H986 0.930 . S
C979 C978 1.394 . S
C979 C980 1.383 . S
C979 H987 0.929 . S
C980 C979 1.383 . S
C980 C981 1.377 1_655 S
C981 H965 0.930 . S
C981 C980 1.377 1_455 S
C981 C982 1.379 . S
C982 H966 0.931 . S
C982 C976 1.383 1_455 S
C982 C981 1.379 . S
H983 C977 0.959 . S
H984 C977 0.961 1_455 S
H985 C977 0.960 . S
H986 C978 0.930 . S
H987 C979 0.929 . S
H988 C996 0.929 . S
H989 C998 0.930 . S
H990 C1000 0.930 . S
H991 C1003 0.929 . S
H992 C1006 0.909 1_545 S
H993 C1008 0.960 . S
H994 C1008 0.960 . S
H995 C1008 0.960 . S
C996 H988 0.929 . S
C996 C997 1.377 1_545 S
C996 C998 1.384 . S
C997 C996 1.377 1_565 S
C997 C1003 1.390 . S
C998 H989 0.930 . S
C998 C996 1.384 . S
C998 C999 1.372 1_545 S
C999 C998 1.372 1_565 S
C999 C1000 1.400 . S
C999 C1004 1.490 . S
C1000 H990 0.930 . S
C1000 C999 1.400 . S
C1000 C1003 1.386 . S
H1001 C1017 0.930 . S
H1002 C1018 0.931 . S
C1003 H991 0.929 . S
C1003 C997 1.390 . S
C1003 C1000 1.386 . S
C1004 C999 1.490 . S
C1004 C1006 1.421 . S
C1004 C1007 1.403 . S
H1005 C1011 0.930 . S
C1006 H992 0.909 1_565 S
C1006 C1004 1.421 . S
C1006 C1009 1.398 1_565 S
C1007 C1004 1.403 . S
C1007 C1008 1.524 . S
C1007 C1011 1.400 . S
C1008 H993 0.960 . S
C1008 H994 0.960 . S
C1008 H995 0.960 . S
C1008 C1007 1.524 . S
C1009 C1006 1.398 1_545 S
C1009 C1010 1.367 1_545 S
C1009 C1013 1.527 . S
C1010 C1009 1.367 1_565 S
C1010 C1011 1.385 . S
C1010 C1012 1.478 . S
C1011 H1005 0.930 . S
C1011 C1007 1.400 . S
C1011 C1010 1.385 . S
C1012 C1010 1.478 . S
C1012 C1014 1.381 1_565 S
C1012 C1018 1.383 . S
C1013 C1009 1.527 . S
C1013 H1019 0.959 . S
C1013 H1020 0.961 . S
C1013 H1021 0.960 . S
C1014 C1012 1.381 1_545 S
C1014 C1015 1.394 . S
C1014 H1022 0.930 . S
C1015 C1014 1.394 . S
C1015 C1016 1.383 1_545 S
C1015 H1023 0.929 . S
C1016 C1015 1.383 1_565 S
C1016 C1017 1.377 . S
C1017 H1001 0.930 . S
C1017 C1016 1.377 . S
C1017 C1018 1.379 . S
C1018 H1002 0.931 . S
C1018 C1012 1.383 . S
C1018 C1017 1.379 . S
H1019 C1013 0.959 . S
H1020 C1013 0.961 . S
H1021 C1013 0.960 . S
H1022 C1014 0.930 . S
H1023 C1015 0.929 . S
H1024 C1032 0.929 . S
H1025 C1034 0.930 . S
H1026 C1036 0.930 . S
H1027 C1039 0.929 . S
H1028 C1042 0.930 . S
H1029 C1044 0.960 . S
H1030 C1044 0.960 . S
H1031 C1044 0.960 . S
C1032 H1024 0.929 . S
C1032 C1033 1.377 . S
C1032 C1034 1.384 . S
C1033 C1032 1.377 . S
C1033 C1039 1.390 . S
C1034 H1025 0.930 . S
C1034 C1032 1.384 . S
C1034 C1035 1.372 . S
C1035 C1034 1.372 . S
C1035 C1036 1.400 . S
C1035 C1040 1.490 . S
C1036 H1026 0.930 . S
C1036 C1035 1.400 . S
C1036 C1039 1.386 . S
H1037 C1053 0.930 . S
H1038 C1054 0.931 . S
C1039 H1027 0.929 . S
C1039 C1033 1.390 . S
C1039 C1036 1.386 . S
C1040 C1035 1.490 . S
C1040 C1042 1.395 . S
C1040 C1043 1.403 . S
H1041 C1047 0.930 . S
C1042 H1028 0.930 . S
C1042 C1040 1.395 . S
C1042 C1045 1.403 . S
C1043 C1040 1.403 . S
C1043 C1044 1.524 . S
C1043 C1047 1.400 . S
C1044 H1029 0.960 . S
C1044 H1030 0.960 . S
C1044 H1031 0.960 . S
C1044 C1043 1.524 . S
C1045 C1042 1.403 . S
C1045 C1046 1.392 . S
C1045 C1049 1.495 . S
C1046 C1045 1.392 . S
C1046 C1047 1.385 . S
C1046 C1048 1.478 . S
C1047 H1041 0.930 . S
C1047 C1043 1.400 . S
C1047 C1046 1.385 . S
C1048 C1046 1.478 . S
C1048 C1050 1.381 . S
C1048 C1054 1.383 . S
C1049 C1045 1.495 . S
C1049 H1055 0.959 . S
C1049 H1056 0.961 . S
C1049 H1057 0.960 . S
C1050 C1048 1.381 . S
C1050 C1051 1.394 . S
C1050 H1058 0.930 . S
C1051 C1050 1.394 . S
C1051 C1052 1.383 . S
C1051 H1059 0.929 . S
C1052 C1051 1.383 . S
C1052 C1053 1.377 . S
C1053 H1037 0.930 . S
C1053 C1052 1.377 . S
C1053 C1054 1.379 . S
C1054 H1038 0.931 . S
C1054 C1048 1.383 . S
C1054 C1053 1.379 . S
H1055 C1049 0.959 . S
H1056 C1049 0.961 . S
H1057 C1049 0.960 . S
H1058 C1050 0.930 . S
H1059 C1051 0.929 . S
H1060 C1068 0.929 . S
H1061 C1070 0.930 . S
H1062 C1072 0.930 . S
H1063 C1075 0.929 . S
H1064 C1078 0.930 . S
H1065 C1080 0.960 . S
H1066 C1080 0.960 . S
H1067 C1080 0.960 . S
C1068 H1060 0.929 . S
C1068 C1069 1.377 . S
C1068 C1070 1.384 . S
C1069 C1068 1.377 . S
C1069 C1075 1.390 . S
C1070 H1061 0.930 . S
C1070 C1068 1.384 . S
C1070 C1071 1.372 . S
C1071 C1070 1.372 . S
C1071 C1072 1.400 . S
C1071 C1076 1.490 . S
C1072 H1062 0.930 . S
C1072 C1071 1.400 . S
C1072 C1075 1.386 . S
H1073 C1089 0.930 . S
H1074 C1090 0.931 . S
C1075 H1063 0.929 . S
C1075 C1069 1.390 . S
C1075 C1072 1.386 . S
C1076 C1071 1.490 . S
C1076 C1078 1.395 . S
C1076 C1079 1.403 . S
H1077 C1083 0.930 . S
C1078 H1064 0.930 . S
C1078 C1076 1.395 . S
C1078 C1081 1.403 . S
C1079 C1076 1.403 . S
C1079 C1080 1.524 . S
C1079 C1083 1.400 . S
C1080 H1065 0.960 . S
C1080 H1066 0.960 . S
C1080 H1067 0.960 . S
C1080 C1079 1.524 . S
C1081 C1078 1.403 . S
C1081 C1082 1.392 . S
C1081 C1085 1.495 . S
C1082 C1081 1.392 . S
C1082 C1083 1.385 . S
C1082 C1084 1.478 . S
C1083 H1077 0.930 . S
C1083 C1079 1.400 . S
C1083 C1082 1.385 . S
C1084 C1082 1.478 . S
C1084 C1086 1.381 . S
C1084 C1090 1.383 . S
C1085 C1081 1.495 . S
C1085 H1091 0.959 . S
C1085 H1092 0.961 . S
C1085 H1093 0.960 . S
C1086 C1084 1.381 . S
C1086 C1087 1.394 . S
C1086 H1094 0.930 . S
C1087 C1086 1.394 . S
C1087 C1088 1.383 . S
C1087 H1095 0.929 . S
C1088 C1087 1.383 . S
C1088 C1089 1.377 . S
C1089 H1073 0.930 . S
C1089 C1088 1.377 . S
C1089 C1090 1.379 . S
C1090 H1074 0.931 . S
C1090 C1084 1.383 . S
C1090 C1089 1.379 . S
H1091 C1085 0.959 . S
H1092 C1085 0.961 . S
H1093 C1085 0.960 . S
H1094 C1086 0.930 . S
H1095 C1087 0.929 . S
C241 C125 1.468 . S
C260 C170 1.506 . S
C296 C190 1.530 . S
C277 C144 1.456 . S
C332 C210 1.501 . S
C313 C87 1.462 . S
C368 C230 1.510 . S
C349 C106 1.460 . S
C404 C171 1.502 . S
C385 C49 1.504 . S
C421 C68 1.495 . S
C440 C191 1.523 . S
C457 C11 1.494 . S
C476 C211 1.530 . S
C493 C30 1.499 . S
C512 C231 1.521 1_655 S
C548 C161 0.804 1_655 S
C529 C97 0.787 . S
C584 C181 0.779 . S
C565 C116 0.770 . S
C620 C201 0.745 . S
C601 C135 0.766 . S
C637 C78 0.778 . S
C656 C221 0.754 . S
C673 C21 0.765 . S
C692 C164 0.783 . S
C728 C184 0.831 . S
C709 C40 0.774 . S
C764 C204 0.782 . S
C745 C59 0.787 . S
C781 C2 0.774 . S
C800 C224 0.831 . S
C817 C101 1.511 . S
C836 C154 1.410 . S
C853 C120 1.512 . S
C872 C174 1.416 . S
C908 C194 1.415 . S
C889 C139 1.509 . S
C944 C214 1.478 . S
C925 C82 1.520 . S
C961 C25 1.514 . S
C980 C156 1.408 . S
C1016 C176 1.468 . S
C997 C44 1.520 . S
C1052 C196 1.409 . S
C1033 C63 1.517 . S
C1069 C6 1.517 . S
C1088 C216 1.482 . S
