# Generated by pormake.
# Topology zzz, (3,6)-cn, num edge types: 1
# Building blocks:
#     Node 0, Type 0, BuildingBlock: VETTIZ_charged_linker_0, # of connection points: 3
#     Node 1, Type 0, BuildingBlock: VETTIZ_charged_linker_0, # of connection points: 3
#     Node 2, Type 0, BuildingBlock: VETTIZ_charged_linker_0, # of connection points: 3
#     Node 3, Type 0, BuildingBlock: VETTIZ_charged_linker_0, # of connection points: 3
#     Node 4, Type 0, BuildingBlock: VETTIZ_charged_linker_0, # of connection points: 3
#     Node 5, Type 0, BuildingBlock: VETTIZ_charged_linker_0, # of connection points: 3
#     Node 6, Type 0, BuildingBlock: VETTIZ_charged_linker_0, # of connection points: 3
#     Node 7, Type 0, BuildingBlock: VETTIZ_charged_linker_0, # of connection points: 3
#     Node 8, Type 1, BuildingBlock: KUMJIN_clean_sbu_0, # of connection points: 6
#     Node 9, Type 1, BuildingBlock: KUMJIN_clean_sbu_0, # of connection points: 6
#     Node 10, Type 1, BuildingBlock: KUMJIN_clean_sbu_0, # of connection points: 6
#     Node 11, Type 1, BuildingBlock: KUMJIN_clean_sbu_0, # of connection points: 6
#     Edge 12, Type (0, 1), BuildingBlock: ZUJKAS_clean_linker_0, # of connection points: 2
#     Edge 13, Type (0, 1), BuildingBlock: ZUJKAS_clean_linker_0, # of connection points: 2
#     Edge 14, Type (0, 1), BuildingBlock: ZUJKAS_clean_linker_0, # of connection points: 2
#     Edge 15, Type (0, 1), BuildingBlock: ZUJKAS_clean_linker_0, # of connection points: 2
#     Edge 16, Type (0, 1), BuildingBlock: ZUJKAS_clean_linker_0, # of connection points: 2
#     Edge 17, Type (0, 1), BuildingBlock: ZUJKAS_clean_linker_0, # of connection points: 2
#     Edge 18, Type (0, 1), BuildingBlock: ZUJKAS_clean_linker_0, # of connection points: 2
#     Edge 19, Type (0, 1), BuildingBlock: ZUJKAS_clean_linker_0, # of connection points: 2
#     Edge 20, Type (0, 1), BuildingBlock: ZUJKAS_clean_linker_0, # of connection points: 2
#     Edge 21, Type (0, 1), BuildingBlock: ZUJKAS_clean_linker_0, # of connection points: 2
#     Edge 22, Type (0, 1), BuildingBlock: ZUJKAS_clean_linker_0, # of connection points: 2
#     Edge 23, Type (0, 1), BuildingBlock: ZUJKAS_clean_linker_0, # of connection points: 2
#     Edge 24, Type (0, 1), BuildingBlock: ZUJKAS_clean_linker_0, # of connection points: 2
#     Edge 25, Type (0, 1), BuildingBlock: ZUJKAS_clean_linker_0, # of connection points: 2
#     Edge 26, Type (0, 1), BuildingBlock: ZUJKAS_clean_linker_0, # of connection points: 2
#     Edge 27, Type (0, 1), BuildingBlock: ZUJKAS_clean_linker_0, # of connection points: 2
#     Edge 28, Type (0, 1), BuildingBlock: ZUJKAS_clean_linker_0, # of connection points: 2
#     Edge 29, Type (0, 1), BuildingBlock: ZUJKAS_clean_linker_0, # of connection points: 2
#     Edge 30, Type (0, 1), BuildingBlock: ZUJKAS_clean_linker_0, # of connection points: 2
#     Edge 31, Type (0, 1), BuildingBlock: ZUJKAS_clean_linker_0, # of connection points: 2
#     Edge 32, Type (0, 1), BuildingBlock: ZUJKAS_clean_linker_0, # of connection points: 2
#     Edge 33, Type (0, 1), BuildingBlock: ZUJKAS_clean_linker_0, # of connection points: 2
#     Edge 34, Type (0, 1), BuildingBlock: ZUJKAS_clean_linker_0, # of connection points: 2
#     Edge 35, Type (0, 1), BuildingBlock: ZUJKAS_clean_linker_0, # of connection points: 2
# Relax obj value: 0.280
# Max RMSD: 0.230
# Mean RMSD: 0.213
data_MOF--net-zzz--node1-KUMJIN_clean_sbu_0--node2-VETTIZ_charged_linker_0--edge1-ZUJKAS_clean_linker_0
_symmetry_space_group_name_H-M    P1
_symmetry_Int_Tables_number       1
_symmetry_cell_setting            triclinic
loop_
_symmetry_equiv_pos_as_xyz
'x, y, z'
_cell_length_a     70.679651
_cell_length_b     70.653818
_cell_length_c     24.75274
_cell_angle_alpha  90.646865
_cell_angle_beta   90.207533
_cell_angle_gamma 89.906175
loop_
_atom_site_label
_atom_site_type_symbol
_atom_site_fract_x
_atom_site_fract_y
_atom_site_fract_z
_atom_type_partial_charge
C0 C 0.78824 0.5394 0.21206 0.0
C1 C 0.80495 0.5477 0.23359 0.0
C2 C 0.81131 0.56491 0.21251 0.0
C3 C 0.78636 0.56438 0.14537 0.0
C4 C 0.77891 0.54828 0.16812 0.0
C5 C 0.76055 0.54264 0.13975 0.0
H6 H 0.70402 0.55494 0.91493 0.0
C7 C 0.77535 0.56901 0.09654 0.0
C8 C 0.7599 0.5565 0.09246 0.0
H9 H 0.69087 0.51993 0.05147 0.0
H10 H 0.72062 0.52923 0.09482 0.0
H11 H 0.71882 0.59102 0.98126 0.0
H12 H 0.74572 0.54312 0.90597 0.0
H13 H 0.76268 0.56118 0.90352 0.0
H14 H 0.74037 0.564 0.86852 0.0
H15 H 0.71945 0.58652 0.90969 0.0
H16 H 0.73815 0.59925 0.94328 0.0
C17 C 0.74414 0.54613 0.17961 0.0
C18 C 0.76191 0.52191 0.12019 0.0
C19 C 0.80623 0.61279 0.96264 0.0
C20 C 0.80438 0.61405 0.90612 0.0
C21 C 0.78766 0.607 0.8818 0.0
C22 C 0.77411 0.59738 0.91232 0.0
C23 C 0.77748 0.5942 0.96751 0.0
C24 C 0.79324 0.60207 0.9918 0.0
C25 C 0.79611 0.59518 0.04846 0.0
C26 C 0.77965 0.58148 0.05373 0.0
C27 C 0.7685 0.58143 1.00697 0.0
C28 C 0.7938 0.6124 0.08722 0.0
C29 C 0.81575 0.58515 0.05172 0.0
C30 C 0.70745 0.54912 0.95406 0.0
C31 C 0.69501 0.5366 0.97939 0.0
C32 C 0.7001 0.52971 0.03097 0.0
C33 C 0.71733 0.53516 0.0562 0.0
C34 C 0.72949 0.54792 0.03012 0.0
C35 C 0.72425 0.55463 0.97984 0.0
C36 C 0.73836 0.56813 0.95717 0.0
C37 C 0.75238 0.56958 1.00331 0.0
C38 C 0.74767 0.55738 0.046 0.0
C39 C 0.72827 0.58726 0.94689 0.0
C40 C 0.74722 0.5588 0.90599 0.0
H41 H 0.80802 0.58618 0.15443 0.0
H42 H 0.78275 0.52641 0.22864 0.0
H43 H 0.77491 0.51974 0.09571 0.0
H44 H 0.74974 0.51779 0.09457 0.0
H45 H 0.76249 0.51214 0.15502 0.0
H46 H 0.74589 0.55999 0.20083 0.0
H47 H 0.74373 0.53491 0.21067 0.0
H48 H 0.73027 0.5468 0.15928 0.0
H49 H 0.81852 0.61844 0.98343 0.0
H50 H 0.78555 0.60762 0.83854 0.0
H51 H 0.76203 0.59192 0.89104 0.0
H52 H 0.78221 0.62186 0.07327 0.0
H53 H 0.80699 0.62091 0.08919 0.0
H54 H 0.78972 0.60828 0.12854 0.0
H55 H 0.82166 0.5818 0.01112 0.0
H56 H 0.81504 0.57121 0.07148 0.0
H57 H 0.82634 0.59408 0.07324 0.0
H58 H 0.82389 0.57164 0.22889 0.0
C59 C 0.80212 0.57328 0.16898 0.0
C60 C 0.91604 0.79617 0.8997 0.0
C61 C 0.91098 0.81543 0.90238 0.0
C62 C 0.91322 0.82526 0.95188 0.0
C63 C 0.92914 0.79812 0.99032 0.0
C64 C 0.92528 0.78791 0.94376 0.0
C65 C 0.93384 0.76844 0.94494 0.0
H66 H 0.99697 0.70637 0.04567 0.0
C67 C 0.94205 0.78666 0.02411 0.0
C68 C 0.94489 0.76928 0.99792 0.0
H69 H 0.95642 0.69922 0.91577 0.0
H70 H 0.94375 0.72989 0.93391 0.0
H71 H 1.00589 0.7545 0.02704 0.0
H72 H 0.96434 0.72926 0.1336 0.0
H73 H 0.98016 0.7455 0.1656 0.0
H74 H 0.98905 0.7234 0.1396 0.0
H75 H 0.0131 0.73826 0.07875 0.0
H76 H 0.00716 0.76234 0.09552 0.0
C77 C 0.94707 0.76629 0.8953 0.0
C78 C 0.91738 0.7539 0.94674 0.0
C79 C 0.9697 0.81841 0.18972 0.0
C80 C 0.98421 0.81437 0.22649 0.0
C81 C 0.99413 0.79703 0.2198 0.0
C82 C 0.98923 0.78395 0.17782 0.0
C83 C 0.97447 0.78837 0.14143 0.0
C84 C 0.96527 0.80558 0.14804 0.0
C85 C 0.95118 0.80934 0.10444 0.0
C86 C 0.95252 0.79129 0.07136 0.0
C87 C 0.9661 0.77862 0.09246 0.0
C88 C 0.95801 0.82693 0.07261 0.0
C89 C 0.93142 0.81155 0.13089 0.0
C90 C 0.98537 0.71163 0.02139 0.0
C91 C 0.97774 0.70034 0.97859 0.0
C92 C 0.96252 0.70751 0.94858 0.0
C93 C 0.95513 0.72544 0.95928 0.0
C94 C 0.96291 0.73675 1.00063 0.0
C95 C 0.97744 0.72983 0.03231 0.0
C96 C 0.9826 0.74414 0.07681 0.0
C97 C 0.96886 0.76056 0.06565 0.0
C98 C 0.95782 0.75596 0.01973 0.0
C99 C 1.00336 0.75016 0.06945 0.0
C100 C 0.97891 0.73513 0.13212 0.0
H101 H 0.92409 0.82521 0.03152 0.0
H102 H 0.91412 0.78811 0.86262 0.0
H103 H 0.90381 0.76053 0.95964 0.0
H104 H 0.91999 0.74264 0.97675 0.0
H105 H 0.91486 0.74726 0.90647 0.0
H106 H 0.95542 0.77944 0.88942 0.0
H107 H 0.93879 0.76358 0.85779 0.0
H108 H 0.95766 0.75493 0.89939 0.0
H109 H 0.96218 0.83177 0.19213 0.0
H110 H 1.00554 0.79352 0.24725 0.0
H111 H 0.99716 0.77101 0.17473 0.0
H112 H 0.97348 0.82935 0.07755 0.0
H113 H 0.95071 0.84003 0.08651 0.0
H114 H 0.95607 0.82531 0.02844 0.0
H115 H 0.92968 0.80136 0.16447 0.0
H116 H 0.91966 0.80839 0.10266 0.0
H117 H 0.92945 0.82603 0.1479 0.0
H118 H 0.90949 0.84009 0.95544 0.0
C119 C 0.92212 0.81667 0.99589 0.0
C120 C 0.81217 0.98503 0.05295 0.0
C121 C 0.82483 0.97673 0.01507 0.0
C122 C 0.8199 0.95951 0.98995 0.0
C123 C 0.78932 0.96021 0.03311 0.0
C124 C 0.7945 0.97613 0.06236 0.0
C125 C 0.77924 0.98135 0.1033 0.0
H126 H 0.68831 0.96422 0.19025 0.0
C127 C 0.76983 0.95505 0.04708 0.0
C128 C 0.76373 0.96682 0.08995 0.0
H129 H 0.72693 1.00487 0.26074 0.0
H130 H 0.75132 0.9951 0.19612 0.0
H131 H 0.69448 0.97412 0.07932 0.0
H132 H 0.7179 0.92992 0.17405 0.0
H133 H 0.71237 0.91989 0.11043 0.0
H134 H 0.69396 0.93108 0.14976 0.0
H135 H 0.68395 0.95116 0.07899 0.0
H136 H 0.70148 0.95772 0.02977 0.0
C137 C 0.77258 1.00178 0.09319 0.0
C138 C 0.78745 0.97852 0.16045 0.0
C139 C 0.73175 0.91842 0.90802 0.0
C140 C 0.71211 0.91559 0.90342 0.0
C141 C 0.70099 0.91677 0.95057 0.0
C142 C 0.70883 0.9232 0.99938 0.0
C143 C 0.72784 0.92893 1.00087 0.0
C144 C 0.73925 0.92545 0.95675 0.0
C145 C 0.75912 0.93245 0.96579 0.0
C146 C 0.75704 0.9426 0.02031 0.0
C147 C 0.73869 0.94052 0.04022 0.0
C148 C 0.76407 0.94627 0.91972 0.0
C149 C 0.77242 0.91495 0.96884 0.0
C150 C 0.70197 0.97115 0.19215 0.0
C151 C 0.70549 0.98548 0.23044 0.0
C152 C 0.72374 0.99375 0.23165 0.0
C153 C 0.73788 0.98807 0.19416 0.0
C154 C 0.73382 0.97383 0.15539 0.0
C155 C 0.71601 0.9657 0.15555 0.0
C156 C 0.7133 0.95139 0.11133 0.0
C157 C 0.73264 0.95144 0.0854 0.0
C158 C 0.74488 0.96466 0.11058 0.0
C159 C 0.69749 0.9588 0.07289 0.0
C160 C 0.70902 0.93201 0.13738 0.0
H161 H 0.79945 0.93819 0.97838 0.0
H162 H 0.81593 0.99794 0.07434 0.0
H163 H 0.79498 0.96472 0.1629 0.0
H164 H 0.7764 0.97824 0.19173 0.0
H165 H 0.79771 0.98991 0.17081 0.0
H166 H 0.76876 1.0036 0.04993 0.0
H167 H 0.78396 0.01206 0.10349 0.0
H168 H 0.75994 1.00551 0.11707 0.0
H169 H 0.74073 0.91693 0.8729 0.0
H170 H 0.68586 0.91451 0.94885 0.0
H171 H 0.69943 0.92471 0.03299 0.0
H172 H 0.75276 0.95712 0.91525 0.0
H173 H 0.76553 0.9386 0.88057 0.0
H174 H 0.77736 0.95403 0.92647 0.0
H175 H 0.76453 0.90134 0.96961 0.0
H176 H 0.78106 0.91512 1.00641 0.0
H177 H 0.78203 0.91416 0.93346 0.0
H178 H 0.8295 0.95271 0.96168 0.0
C179 C 0.80239 0.95117 0.99919 0.0
C180 C 0.53647 0.72521 0.21427 0.0
C181 C 0.54234 0.707 0.23083 0.0
C182 C 0.55551 0.69698 0.1991 0.0
C183 C 0.55688 0.72266 0.13548 0.0
C184 C 0.5442 0.73291 0.16661 0.0
C185 C 0.5406 0.7523 0.14271 0.0
H186 H 0.56066 0.81433 0.93935 0.0
C187 C 0.56243 0.73415 0.08878 0.0
C188 C 0.55331 0.75183 0.09277 0.0
H189 H 0.52196 0.82403 0.07137 0.0
H190 H 0.52924 0.79275 0.10669 0.0
H191 H 0.59368 0.79525 1.00642 0.0
H192 H 0.54676 0.77328 0.91453 0.0
H193 H 0.56606 0.75858 0.89981 0.0
H194 H 0.56726 0.78332 0.88348 0.0
H195 H 0.59342 0.7949 0.93393 0.0
H196 H 0.60214 0.77506 0.97217 0.0
C197 C 0.54699 0.76751 0.18409 0.0
C198 C 0.51946 0.75368 0.12735 0.0
C199 C 0.60033 0.70318 0.93846 0.0
C200 C 0.60702 0.7096 0.88827 0.0
C201 C 0.60652 0.72925 0.87834 0.0
C202 C 0.59794 0.74183 0.91511 0.0
C203 C 0.58985 0.7348 0.96268 0.0
C204 C 0.59199 0.71593 0.97481 0.0
C205 C 0.58334 0.71104 0.02825 0.0
C206 C 0.57432 0.72982 0.04421 0.0
C207 C 0.57801 0.74357 1.00545 0.0
C208 C 0.59961 0.7054 0.06731 0.0
C209 C 0.56831 0.69539 0.01836 0.0
C210 C 0.55396 0.80998 0.97649 0.0
C211 C 0.54097 0.82187 1.00295 0.0
C212 C 0.53208 0.81519 0.05014 0.0
C213 C 0.53636 0.79705 0.07065 0.0
C214 C 0.54949 0.78538 0.04335 0.0
C215 C 0.55792 0.79206 0.99693 0.0
C216 C 0.57076 0.77785 0.97075 0.0
C217 C 0.56911 0.76153 0.00935 0.0
C218 C 0.55668 0.76577 0.05232 0.0
C219 C 0.59107 0.78612 0.97023 0.0
C220 C 0.5625 0.77299 0.91405 0.0
H221 H 0.57247 0.69602 0.12955 0.0
H222 H 0.52642 0.73327 0.23813 0.0
H223 H 0.51474 0.74049 0.10635 0.0
H224 H 0.51649 0.7653 0.0992 0.0
H225 H 0.51058 0.75565 0.16394 0.0
H226 H 0.56112 0.76388 0.201 0.0
H227 H 0.53685 0.76856 0.21819 0.0
H228 H 0.54849 0.78162 0.16603 0.0
H229 H 0.60033 0.68831 0.94829 0.0
H230 H 0.6121 0.73488 0.84118 0.0
H231 H 0.59732 0.75646 0.90406 0.0
H232 H 0.6136 0.71064 0.05347 0.0
H233 H 0.60078 0.68979 0.0709 0.0
H234 H 0.59785 0.71176 0.10814 0.0
H235 H 0.55989 0.6984 0.98136 0.0
H236 H 0.55786 0.69435 0.05117 0.0
H237 H 0.5751 0.68132 0.01278 0.0
H238 H 0.56008 0.68294 0.21067 0.0
C239 C 0.56273 0.70463 0.15184 0.0
C240 C 0.30929 0.48419 0.17247 0.0
C241 C 0.31802 0.47856 0.22147 0.0
C242 C 0.30883 0.46506 0.25342 0.0
C243 C 0.28268 0.4633 0.19018 0.0
C244 C 0.29147 0.47641 0.15773 0.0
C245 C 0.27925 0.48094 0.10872 0.0
H246 H 0.19776 0.46011 0.96633 0.0
C247 C 0.2646 0.4576 0.16473 0.0
C248 C 0.26241 0.46757 0.11607 0.0
H249 H 0.23751 0.50423 0.92836 0.0
H250 H 0.25719 0.4951 1.00542 0.0
H251 H 0.22816 0.42782 0.99976 0.0
H252 H 0.19503 0.4699 0.08172 0.0
H253 H 0.1963 0.45132 0.1275 0.0
H254 H 0.18535 0.44739 0.06244 0.0
H255 H 0.2031 0.42594 0.00961 0.0
H256 H 0.21979 0.41703 0.05864 0.0
C257 C 0.29043 0.47625 0.05695 0.0
C258 C 0.2732 0.5019 0.11289 0.0
C259 C 0.21943 0.41543 0.26779 0.0
C260 C 0.20136 0.40831 0.25498 0.0
C261 C 0.19496 0.40904 0.20112 0.0
C262 C 0.20551 0.41841 0.16187 0.0
C263 C 0.22264 0.42719 0.1766 0.0
C264 C 0.22984 0.42472 0.22791 0.0
C265 C 0.24863 0.43444 0.2354 0.0
C266 C 0.25062 0.44451 0.18161 0.0
C267 C 0.23522 0.44042 0.1479 0.0
C268 C 0.26397 0.41893 0.2431 0.0
C269 C 0.24687 0.44868 0.28328 0.0
C270 C 0.21088 0.46766 0.9736 0.0
C271 C 0.21616 0.48269 0.94048 0.0
C272 C 0.23307 0.49253 0.95315 0.0
C273 C 0.24444 0.48725 0.99794 0.0
C274 C 0.23863 0.47225 0.0312 0.0
C275 C 0.22198 0.46289 0.01827 0.0
C276 C 0.21667 0.44841 0.05899 0.0
C277 C 0.23283 0.4503 0.09884 0.0
C278 C 0.24605 0.46408 0.08277 0.0
C279 C 0.21675 0.42873 0.03057 0.0
C280 C 0.19733 0.45434 0.08394 0.0
H281 H 0.28533 0.44737 0.26487 0.0
H282 H 0.31596 0.4946 0.14708 0.0
H283 H 0.26852 0.50544 0.15467 0.0
H284 H 0.26112 0.50523 0.08637 0.0
H285 H 0.28518 0.51138 0.1028 0.0
H286 H 0.29637 0.46169 0.0589 0.0
H287 H 0.30238 0.48628 0.05193 0.0
H288 H 0.28149 0.4768 0.02039 0.0
H289 H 0.22478 0.41483 0.30879 0.0
H290 H 0.18107 0.40372 0.19025 0.0
H291 H 0.19936 0.41937 0.12233 0.0
H292 H 0.25918 0.40484 0.22788 0.0
H293 H 0.26774 0.41728 0.2864 0.0
H294 H 0.27699 0.42189 0.21983 0.0
H295 H 0.23312 0.45634 0.28141 0.0
H296 H 0.25779 0.45982 0.28313 0.0
H297 H 0.24757 0.44129 0.32261 0.0
H298 H 0.31525 0.46025 0.29067 0.0
C299 C 0.29142 0.45743 0.2381 0.0
C300 C 0.11593 0.22829 0.26365 0.0
C301 C 0.1195 0.20861 0.2633 0.0
C302 C 0.11551 0.19837 0.21509 0.0
C303 C 0.10005 0.22572 0.17679 0.0
C304 C 0.10568 0.23634 0.22099 0.0
C305 C 0.09734 0.25595 0.22024 0.0
H306 H 0.03117 0.31736 0.13239 0.0
C307 C 0.0864 0.23706 0.14516 0.0
C308 C 0.08461 0.25474 0.17039 0.0
H309 H 0.07579 0.32533 0.25068 0.0
H310 H 0.08798 0.29468 0.23048 0.0
H311 H 0.0613 0.29399 0.03785 0.0
H312 H 0.02294 0.26927 0.15466 0.0
H313 H 0.01969 0.26131 0.08674 0.0
H314 H 0.01429 0.28543 0.10452 0.0
H315 H 0.0365 0.29984 0.03728 0.0
H316 H 0.04466 0.2776 0.01035 0.0
C317 C 0.11381 0.27022 0.21283 0.0
C318 C 0.08579 0.25881 0.27299 0.0
C319 C 0.05432 0.20438 0.98787 0.0
C320 C 0.03906 0.20834 0.95363 0.0
C321 C 0.02939 0.22577 0.96136 0.0
C322 C 0.03532 0.23905 1.00173 0.0
C323 C 0.05088 0.23475 0.03544 0.0
C324 C 0.05977 0.21741 0.02799 0.0
C325 C 0.0748 0.21377 0.06899 0.0
C326 C 0.07456 0.23213 0.10088 0.0
C327 C 0.06057 0.24478 0.08194 0.0
C328 C 0.09383 0.21092 0.03887 0.0
C329 C 0.06842 0.19663 0.10344 0.0
C330 C 0.0435 0.31228 0.1539 0.0
C331 C 0.05246 0.32391 0.1938 0.0
C332 C 0.06865 0.3169 0.21997 0.0
C333 C 0.07574 0.29894 0.20822 0.0
C334 C 0.06665 0.28733 0.1699 0.0
C335 C 0.05113 0.29402 0.14186 0.0
C336 C 0.04471 0.27947 0.09938 0.0
C337 C 0.05873 0.26308 0.10807 0.0
C338 C 0.07115 0.26798 0.15078 0.0
C339 C 0.04683 0.28815 0.04295 0.0
C340 C 0.02424 0.27353 0.11171 0.0
H341 H 0.10293 0.198 0.13768 0.0
H342 H 0.11959 0.23707 0.29815 0.0
H343 H 0.07762 0.24581 0.2824 0.0
H344 H 0.07514 0.27016 0.27066 0.0
H345 H 0.09527 0.26189 0.30788 0.0
H346 H 0.12673 0.26328 0.19629 0.0
H347 H 0.11785 0.27705 0.25181 0.0
H348 H 0.11026 0.28134 0.18316 0.0
H349 H 0.0617 0.19096 0.9846 0.0
H350 H 0.01741 0.22919 0.93587 0.0
H351 H 0.02755 0.25206 1.00573 0.0
H352 H 0.09494 0.22078 1.00429 0.0
H353 H 0.09511 0.19627 0.02257 0.0
H354 H 0.10631 0.21406 0.06448 0.0
H355 H 0.05286 0.19427 0.10103 0.0
H356 H 0.07117 0.19876 0.14713 0.0
H357 H 0.07536 0.18331 0.08974 0.0
H358 H 0.11805 0.18333 0.21164 0.0
C359 C 0.10612 0.20688 0.17188 0.0
C360 C 0.29791 0.04457 0.95525 0.0
C361 C 0.31466 0.05304 0.93524 0.0
C362 C 0.32062 0.07043 0.95753 0.0
C363 C 0.2958 0.06926 0.02409 0.0
C364 C 0.28833 0.05337 0.99923 0.0
C365 C 0.26943 0.04823 0.0247 0.0
H366 H 0.20971 0.06345 0.24087 0.0
C367 C 0.28446 0.07405 0.07195 0.0
C368 C 0.26835 0.06233 0.07229 0.0
H369 H 0.19829 0.02645 0.10486 0.0
H370 H 0.22848 0.03549 0.06414 0.0
H371 H 0.2487 0.05096 0.25828 0.0
H372 H 0.2259 0.09859 0.17626 0.0
H373 H 0.24533 0.1069 0.21446 0.0
H374 H 0.22601 0.09539 0.24813 0.0
H375 H 0.24551 0.07305 0.29286 0.0
H376 H 0.26758 0.06695 0.2604 0.0
C377 C 0.27011 0.02758 0.04383 0.0
C378 C 0.25371 0.05182 0.98268 0.0
C379 C 0.3179 0.10773 0.22594 0.0
C380 C 0.31356 0.10817 0.28143 0.0
C381 C 0.29445 0.10635 0.29676 0.0
C382 C 0.28062 0.10134 0.25865 0.0
C383 C 0.28601 0.09743 0.2051 0.0
C384 C 0.30416 0.10156 0.1888 0.0
C385 C 0.30768 0.0956 0.13111 0.0
C386 C 0.28906 0.08567 0.1173 0.0
C387 C 0.27653 0.08685 0.16079 0.0
C388 C 0.32475 0.08175 0.13047 0.0
C389 C 0.3108 0.11368 0.09716 0.0
C390 C 0.21355 0.05721 0.20224 0.0
C391 C 0.2016 0.04411 0.17653 0.0
C392 C 0.20721 0.03663 0.1257 0.0
C393 C 0.22468 0.04194 0.10205 0.0
C394 C 0.23652 0.05506 0.12909 0.0
C395 C 0.23061 0.06239 0.17833 0.0
C396 C 0.24464 0.07557 0.20356 0.0
C397 C 0.25958 0.07616 0.16012 0.0
C398 C 0.25522 0.06393 0.11633 0.0
C399 C 0.25198 0.06634 0.25657 0.0
C400 C 0.23505 0.09516 0.21152 0.0
H401 H 0.31649 0.09177 0.01661 0.0
H402 H 0.29251 0.03164 0.93717 0.0
H403 H 0.25579 0.06574 0.963 0.0
H404 H 0.23952 0.05235 1.00091 0.0
H405 H 0.25384 0.04068 0.95062 0.0
H406 H 0.28265 0.02529 0.07022 0.0
H407 H 0.27109 0.01765 0.00882 0.0
H408 H 0.25746 0.02381 0.06742 0.0
H409 H 0.33224 0.11007 0.21245 0.0
H410 H 0.29034 0.10692 0.33882 0.0
H411 H 0.26654 0.09934 0.27337 0.0
H412 H 0.3226 0.07026 0.16017 0.0
H413 H 0.33809 0.08923 0.14109 0.0
H414 H 0.32712 0.07482 0.09112 0.0
H415 H 0.30788 0.12692 0.12047 0.0
H416 H 0.30112 0.11413 0.06174 0.0
H417 H 0.32563 0.11465 0.08274 0.0
H418 H 0.33309 0.07743 0.94211 0.0
C419 C 0.31117 0.07864 1.00116 0.0
C420 C 0.48311 0.29868 0.96024 0.0
C421 C 0.4766 0.31666 0.94363 0.0
C422 C 0.46303 0.32619 0.97523 0.0
C423 C 0.46251 0.30044 0.03876 0.0
C424 C 0.47559 0.29068 1.00774 0.0
C425 C 0.47992 0.27145 0.03163 0.0
H426 H 0.46004 0.20721 0.22938 0.0
C427 C 0.45728 0.28869 0.08522 0.0
C428 C 0.46702 0.27136 0.08114 0.0
H429 H 0.50155 0.20077 0.10314 0.0
H430 H 0.49319 0.23187 0.06832 0.0
H431 H 0.47256 0.24679 0.26062 0.0
H432 H 0.42679 0.22769 0.15955 0.0
H433 H 0.41796 0.24615 0.20067 0.0
H434 H 0.42721 0.22505 0.23159 0.0
H435 H 0.45066 0.23874 0.2884 0.0
H436 H 0.45437 0.26319 0.27122 0.0
C437 C 0.50105 0.27099 0.04771 0.0
C438 C 0.47434 0.25602 0.98995 0.0
C439 C 0.4185 0.31804 0.23611 0.0
C440 C 0.41216 0.31129 0.28629 0.0
C441 C 0.41312 0.29162 0.29564 0.0
C442 C 0.42184 0.27936 0.25824 0.0
C443 C 0.42961 0.28675 0.21069 0.0
C444 C 0.42703 0.30562 0.19919 0.0
C445 C 0.43555 0.31094 0.14594 0.0
C446 C 0.44511 0.29248 0.12956 0.0
C447 C 0.44169 0.27845 0.16772 0.0
C448 C 0.45012 0.32699 0.15623 0.0
C449 C 0.41914 0.31623 0.10694 0.0
C450 C 0.4671 0.21231 0.19358 0.0
C451 C 0.48117 0.20142 0.16835 0.0
C452 C 0.49054 0.2089 0.12304 0.0
C453 C 0.48567 0.22692 0.10296 0.0
C454 C 0.47155 0.2377 0.12914 0.0
C455 C 0.46273 0.23028 0.17404 0.0
C456 C 0.44938 0.24397 0.20042 0.0
C457 C 0.45104 0.26074 0.16332 0.0
C458 C 0.46388 0.25714 0.1209 0.0
C459 C 0.45692 0.24841 0.25826 0.0
C460 C 0.42924 0.23533 0.19851 0.0
H461 H 0.44595 0.32649 0.04463 0.0
H462 H 0.4935 0.291 0.93652 0.0
H463 H 0.46004 0.25894 0.97308 0.0
H464 H 0.47361 0.2418 1.0077 0.0
H465 H 0.48453 0.25559 0.95586 0.0
H466 H 0.50526 0.28457 0.06748 0.0
H467 H 0.51013 0.26885 0.01161 0.0
H468 H 0.5043 0.25989 0.0773 0.0
H469 H 0.41815 0.33295 0.22676 0.0
H470 H 0.40783 0.28575 0.33284 0.0
H471 H 0.42281 0.2647 0.26877 0.0
H472 H 0.45871 0.32404 0.19296 0.0
H473 H 0.44292 0.34082 0.1625 0.0
H474 H 0.46044 0.32853 0.12327 0.0
H475 H 0.40528 0.31065 0.12072 0.0
H476 H 0.42106 0.30997 0.06605 0.0
H477 H 0.41761 0.33182 0.10347 0.0
H478 H 0.45797 0.34006 0.96367 0.0
C479 C 0.45603 0.31825 0.0224 0.0
Eu480 Eu 0.02731 0.00832 0.63513 0.0
C481 C 0.95615 0.98966 0.49593 0.0
C482 C 0.96789 0.9684 0.42657 0.0
C483 C 0.93558 0.96526 0.45806 0.0
C484 C 0.97078 0.98345 0.46378 0.0
C485 C 0.93815 0.98107 0.49214 0.0
C486 C 0.95044 0.95895 0.42522 0.0
C487 C 0.92591 1.00615 0.54906 0.0
N488 N 0.95902 1.00521 0.52725 0.0
C489 C 0.94394 0.01425 0.55065 0.0
C490 C 0.92308 0.98923 0.52061 0.0
Eu491 Eu 0.99029 0.01764 0.53286 0.0
N492 N 0.98746 0.99291 0.46635 0.0
C493 C 1.00123 0.98901 0.42906 0.0
C494 C 0.98243 0.96367 0.39077 0.0
C495 C 0.99905 0.97424 0.39145 0.0
H496 H 0.94603 0.02759 0.5716 0.0
H497 H 0.01028 0.97095 0.36326 0.0
H498 H 0.9481 0.94716 0.39763 0.0
H499 H 0.9142 0.01306 0.56934 0.0
H500 H 0.01427 0.99673 0.4287 0.0
H501 H 0.00965 0.05161 0.81515 0.0
H502 H 0.98082 0.95218 0.36175 0.0
H503 H 0.07025 1.00003 0.58361 0.0
H504 H 1.00418 0.02757 0.74618 0.0
H505 H 0.10269 0.01286 0.58974 0.0
H506 H 0.92195 0.95831 0.45519 0.0
H507 H 0.04005 0.06867 0.81963 0.0
H508 H 0.07289 0.07276 0.78464 0.0
H509 H 0.90906 0.98307 0.51881 0.0
H510 H 0.09823 0.06228 0.72342 0.0
N511 N 0.03113 0.03081 0.70771 0.0
C512 C 0.01761 0.03464 0.74595 0.0
C513 C 0.03779 0.05799 0.78851 0.0
C514 C 0.05202 0.05333 0.75167 0.0
C515 C 0.02063 0.04839 0.7861 0.0
C516 C 0.04831 0.03939 0.71158 0.0
H517 H 0.10958 0.03974 0.65159 0.0
N518 N 0.05886 0.01959 0.64088 0.0
C519 C 0.09154 0.01891 0.61436 0.0
C520 C 0.06256 0.03363 0.67704 0.0
C521 C 0.07318 0.01165 0.61112 0.0
C522 C 0.09534 0.03411 0.64914 0.0
C523 C 0.08088 0.04147 0.68168 0.0
O524 O 0.04711 0.98698 0.66404 0.0
O525 O 0.0079 0.99523 0.5724 0.0
O526 O 0.9753 1.00598 0.60682 0.0
O527 O 0.99823 0.00799 0.67507 0.0
O528 O 0.03591 0.98674 0.57109 0.0
O529 O 0.01869 0.98758 0.69518 0.0
O530 O 0.97137 0.0396 0.50293 0.0
O531 O 0.00968 0.03021 0.59535 0.0
O532 O 0.04074 0.02522 0.5673 0.0
O533 O 0.01998 0.01923 0.49604 0.0
O534 O 0.98309 0.04203 0.59083 0.0
O535 O 0.99739 0.03361 0.46065 0.0
C536 C 0.01945 0.98382 0.55021 0.0
C537 C 0.03194 0.95755 0.67261 0.0
C538 C 0.01166 0.93047 0.65053 0.0
C539 C 0.01405 0.94883 0.67219 0.0
C540 C 0.02753 0.9209 0.62941 0.0
C541 C 0.04759 0.94749 0.65227 0.0
C542 C 0.04533 0.92934 0.63061 0.0
C543 C 0.98057 1.00546 0.65826 0.0
C544 C 0.03412 0.97762 0.68935 0.0
C545 C 0.08433 0.05594 0.71971 0.0
C546 C 0.06991 0.06189 0.75459 0.0
C547 C 0.99922 0.04306 0.6151 0.0
C548 C 0.98672 0.0654 0.46454 0.0
C549 C 1.00449 0.07282 0.47924 0.0
C550 C 0.00742 0.09249 0.48025 0.0
C551 C 0.99231 0.1046 0.46691 0.0
C552 C 0.97189 0.07771 0.45125 0.0
C553 C 0.97469 0.09722 0.4526 0.0
C554 C 0.03673 0.02464 0.51499 0.0
C555 C 0.98296 0.04499 0.46561 0.0
H556 H 1.00201 0.95633 0.68896 0.0
H557 H 0.02626 0.90685 0.61195 0.0
H558 H 0.06154 0.95383 0.65198 0.0
H559 H 0.05743 0.92182 0.61434 0.0
H560 H 0.01595 0.06339 0.49028 0.0
H561 H 0.99423 0.11981 0.4663 0.0
H562 H 0.95808 0.0722 0.44027 0.0
H563 H 0.96319 0.10667 0.44221 0.0
Eu564 Eu 0.5199 0.02922 0.64149 0.0
C565 C 0.5342 0.97796 0.46816 0.0
C566 C 0.53471 0.99304 0.3808 0.0
C567 C 0.55823 0.96921 0.40197 0.0
C568 C 0.52679 0.99103 0.43281 0.0
C569 C 0.54971 0.96652 0.45241 0.0
C570 C 0.5508 0.98252 0.36632 0.0
C571 C 0.5467 0.94981 0.53617 0.0
N572 N 0.52589 0.97596 0.51719 0.0
C573 C 0.5315 0.96154 0.55015 0.0
C574 C 0.55605 0.95249 0.48746 0.0
Eu575 Eu 0.50034 0.99706 0.53863 0.0
N576 N 0.51107 1.00077 0.44765 0.0
C577 C 0.5012 0.01075 0.40954 0.0
C578 C 0.52574 1.00495 0.34397 0.0
C579 C 0.50865 0.01349 0.35801 0.0
H580 H 0.52428 0.95854 0.58708 0.0
H581 H 0.50103 0.02195 0.32891 0.0
H582 H 0.55719 0.98409 0.32689 0.0
H583 H 0.55114 0.93865 0.563 0.0
H584 H 0.48747 0.0167 0.4186 0.0
H585 H 0.51744 1.00696 0.85322 0.0
H586 H 0.53138 1.0069 0.30377 0.0
H587 H 0.49807 0.06862 0.58958 0.0
H588 H 0.53153 0.01076 0.76345 0.0
H589 H 0.4717 0.08952 0.61036 0.0
H590 H 0.57028 0.96073 0.38962 0.0
H591 H 0.48758 0.02341 0.87601 0.0
H592 H 0.46275 0.04691 0.84993 0.0
H593 H 0.56788 0.94343 0.47684 0.0
H594 H 0.45082 0.07001 0.78462 0.0
N595 N 0.50863 0.02709 0.73226 0.0
C596 C 0.51796 0.01719 0.77154 0.0
C597 C 0.49344 0.02467 0.83581 0.0
C598 C 0.48507 0.03648 0.79761 0.0
C599 C 0.51024 0.01534 0.82309 0.0
C600 C 0.49325 0.0376 0.74569 0.0
H601 H 0.45424 0.08618 0.69594 0.0
N602 N 0.49512 0.05163 0.66001 0.0
C603 C 0.47549 0.07841 0.63816 0.0
C604 C 0.48651 0.0505 0.70889 0.0
C605 C 0.49035 0.06602 0.62591 0.0
C606 C 0.46575 0.07657 0.68657 0.0
C607 C 0.4714 0.06271 0.72307 0.0
O608 O 0.53563 0.05525 0.62587 0.0
O609 O 0.52621 0.01316 0.56479 0.0
O610 O 0.50337 0.9815 0.61879 0.0
O611 O 0.52261 0.99967 0.67571 0.0
O612 O 0.54572 0.01081 0.62708 0.0
O613 O 0.54188 0.03914 0.69706 0.0
O614 O 0.48609 0.97005 0.55274 0.0
O615 O 0.49416 0.01294 0.61567 0.0
O616 O 0.51747 0.04412 0.56006 0.0
O617 O 0.49647 0.02672 0.50665 0.0
O618 O 0.47405 0.01466 0.55483 0.0
O619 O 0.4787 0.98651 0.48294 0.0
C620 C 0.54226 1.00646 0.57721 0.0
C621 C 0.56776 0.05254 0.65042 0.0
C622 C 0.59787 0.03551 0.64266 0.0
C623 C 0.57945 0.03715 0.66362 0.0
C624 C 0.60493 0.05032 0.61102 0.0
C625 C 0.57509 0.0671 0.6187 0.0
C626 C 0.59364 0.06605 0.59961 0.0
C627 C 0.51362 0.98381 0.66335 0.0
C628 C 0.54752 0.05255 0.66532 0.0
C629 C 0.46258 0.06094 0.77347 0.0
C630 C 0.46935 0.04778 0.81059 0.0
C631 C 0.47798 0.01948 0.60409 0.0
C632 C 0.45446 0.96817 0.52221 0.0
C633 C 0.44122 0.98298 0.52237 0.0
C634 C 0.42193 0.97936 0.5305 0.0
C635 C 0.41585 0.96072 0.53846 0.0
C636 C 0.44825 0.94962 0.53102 0.0
C637 C 0.42902 0.94594 0.53912 0.0
C638 C 0.50642 0.04211 0.51696 0.0
C639 C 0.47464 0.97181 0.51186 0.0
H640 H 0.57403 0.02623 0.68963 0.0
H641 H 0.61898 0.04963 0.59392 0.0
H642 H 0.56634 0.07909 0.60786 0.0
H643 H 0.59915 0.07727 0.57477 0.0
H644 H 0.44575 0.99733 0.51468 0.0
H645 H 0.40099 0.95766 0.54443 0.0
H646 H 0.45824 0.93797 0.53116 0.0
H647 H 0.42431 0.93157 0.54558 0.0
Eu648 Eu 0.53066 0.50876 0.54724 0.0
C649 C 0.44863 0.48865 0.62467 0.0
C650 C 0.42659 0.50127 0.55921 0.0
C651 C 0.41834 0.47315 0.6095 0.0
C652 C 0.4443 0.50182 0.58574 0.0
C653 C 0.43552 0.47442 0.63797 0.0
C654 C 0.41387 0.48658 0.57024 0.0
C655 C 0.45644 0.46506 0.71036 0.0
N656 N 0.46522 0.49044 0.65184 0.0
C657 C 0.46892 0.47946 0.69583 0.0
C658 C 0.4398 0.46232 0.68072 0.0
Eu659 Eu 0.4861 0.51465 0.62394 0.0
N660 N 0.45697 0.51578 0.57588 0.0
C661 C 0.45214 0.53046 0.54312 0.0
C662 C 0.422 0.51579 0.52351 0.0
C663 C 0.43472 0.5306 0.51609 0.0
H664 H 0.48186 0.48141 0.71857 0.0
H665 H 0.43119 0.54208 0.48929 0.0
H666 H 0.40033 0.48578 0.54967 0.0
H667 H 0.45971 0.45604 0.7442 0.0
H668 H 0.46173 0.54201 0.53684 0.0
H669 H 0.5861 0.48159 0.68051 0.0
H670 H 0.40855 0.5159 0.50234 0.0
H671 H 0.53457 0.54195 0.45228 0.0
H672 H 0.55549 0.48142 0.63322 0.0
H673 H 0.55648 0.56751 0.42648 0.0
H674 H 0.40818 0.46219 0.6187 0.0
H675 H 0.60837 0.50812 0.66793 0.0
H676 H 0.61621 0.53842 0.62094 0.0
H677 H 0.43012 0.45119 0.69212 0.0
H678 H 0.60807 0.56195 0.55202 0.0
N679 N 0.55988 0.50783 0.59482 0.0
C680 C 0.56494 0.49311 0.62716 0.0
C681 C 0.59491 0.50811 0.64687 0.0
C682 C 0.5901 0.52266 0.61147 0.0
C683 C 0.58239 0.49311 0.65403 0.0
C684 C 0.57237 0.52195 0.58506 0.0
H685 H 0.58601 0.57269 0.47854 0.0
N686 N 0.55132 0.53312 0.51902 0.0
C687 C 0.55984 0.55854 0.46036 0.0
C688 C 0.56789 0.53508 0.54616 0.0
C689 C 0.5475 0.54403 0.47497 0.0
C690 C 0.57645 0.56147 0.48999 0.0
C691 C 0.58085 0.54944 0.5328 0.0
O692 O 0.53855 0.50185 0.46435 0.0
O693 O 0.49916 0.50566 0.54614 0.0
O694 O 0.49088 0.4834 0.60674 0.0
O695 O 0.52369 0.48275 0.59876 0.0
O696 O 0.51112 0.51551 0.47614 0.0
O697 O 0.54234 0.48098 0.52709 0.0
O698 O 0.47805 0.5215 0.70674 0.0
O699 O 0.51759 0.51756 0.62521 0.0
O700 O 0.52604 0.53997 0.56514 0.0
O701 O 0.49323 0.54069 0.57256 0.0
O702 O 0.50553 0.50781 0.69518 0.0
O703 O 0.47468 0.54252 0.64424 0.0
C704 C 0.49548 0.51066 0.49848 0.0
C705 C 0.53324 0.47028 0.44036 0.0
C706 C 0.50606 0.45039 0.41869 0.0
C707 C 0.51525 0.4633 0.45339 0.0
C708 C 0.51506 0.44476 0.37041 0.0
C709 C 0.54197 0.46456 0.3922 0.0
C710 C 0.53287 0.45185 0.35733 0.0
C711 C 0.50729 0.47439 0.60945 0.0
C712 C 0.54254 0.4843 0.47529 0.0
C713 C 0.59803 0.55089 0.56124 0.0
C714 C 0.60266 0.53749 0.60046 0.0
C715 C 0.52122 0.51253 0.6729 0.0
C716 C 0.48369 0.55295 0.73128 0.0
C717 C 0.50189 0.55953 0.71899 0.0
C718 C 0.51118 0.57226 0.75402 0.0
C719 C 0.50204 0.57811 0.80188 0.0
C720 C 0.47483 0.55888 0.77904 0.0
C721 C 0.48401 0.57141 0.81424 0.0
C722 C 0.50967 0.54903 0.56229 0.0
C723 C 0.47429 0.53911 0.69598 0.0
H724 H 0.50838 0.46802 0.49023 0.0
H725 H 0.50855 0.43454 0.34328 0.0
H726 H 0.55576 0.47001 0.38146 0.0
H727 H 0.53968 0.44739 0.32021 0.0
H728 H 0.50883 0.55464 0.68245 0.0
H729 H 0.50863 0.58821 0.82924 0.0
H730 H 0.46087 0.55373 0.78922 0.0
H731 H 0.4771 0.57604 0.85105 0.0
Eu732 Eu 0.02138 0.53386 0.53306 0.0
C733 C 0.01648 0.4509 0.60901 0.0
C734 C 1.00003 0.43587 0.53429 0.0
C735 C 0.02253 0.41775 0.587 0.0
C736 C 1.00384 0.45206 0.56664 0.0
C737 C 0.02558 0.43358 0.62061 0.0
C738 C 0.00971 0.41888 0.54403 0.0
C739 C 0.03797 0.44795 0.70209 0.0
N740 N 0.01888 0.46631 0.6413 0.0
C741 C 0.02846 0.46466 0.68921 0.0
C742 C 0.03684 0.43242 0.66702 0.0
Eu743 Eu 1.00344 0.49496 0.61616 0.0
N744 N 0.99478 0.46877 0.55816 0.0
C745 C 0.98069 0.46958 0.51991 0.0
C746 C 0.98634 0.43707 0.4937 0.0
C747 C 0.97645 0.45392 0.48708 0.0
H748 H 0.02895 0.47647 0.71734 0.0
H749 H 0.96559 0.45494 0.45627 0.0
H750 H 0.00702 0.40638 0.51942 0.0
H751 H 0.04599 0.44702 0.73929 0.0
H752 H 0.97276 0.48224 0.51261 0.0
H753 H 0.05681 0.57926 0.68321 0.0
H754 H 0.98308 0.425 0.46793 0.0
H755 H 0.99734 0.54764 0.42408 0.0
H756 H 0.04941 0.54966 0.6362 0.0
H757 H 0.98128 0.57616 0.38926 0.0
H758 H 0.02952 0.40441 0.59498 0.0
H759 H 0.0403 0.60874 0.65872 0.0
H760 H 0.01695 0.62527 0.59921 0.0
H761 H 0.04406 0.4194 0.67728 0.0
H762 H 0.99553 0.62424 0.52092 0.0
N763 N 0.02799 0.56156 0.58566 0.0
C764 C 0.0418 0.56216 0.62461 0.0
C765 C 0.03671 0.59562 0.63803 0.0
C766 C 0.02316 0.59521 0.59675 0.0
C767 C 0.04613 0.57905 0.65178 0.0
C768 C 0.01918 0.57778 0.5706 0.0
H769 H 0.98222 0.60605 0.44215 0.0
N770 N 1.00557 0.56077 0.49818 0.0
C771 C 0.98837 0.57666 0.42807 0.0
C772 C 0.00739 0.5773 0.52594 0.0
C773 C 0.99737 0.56054 0.44803 0.0
C774 C 0.98889 0.59347 0.45811 0.0
C775 C 0.99901 0.59412 0.50677 0.0
O776 O 0.03176 0.53673 0.45079 0.0
O777 O 0.01922 0.50215 0.54074 0.0
O778 O 0.03527 0.49572 0.63137 0.0
O779 O 0.04559 0.52223 0.58455 0.0
O780 O 0.01281 0.51348 0.46601 0.0
O781 O 0.05066 0.54202 0.51816 0.0
O782 O 0.99453 0.48585 0.69597 0.0
O783 O 1.00653 0.52659 0.60994 0.0
O784 O 0.98929 0.5353 0.52427 0.0
O785 O 0.97937 0.5076 0.56621 0.0
O786 O 0.01277 0.5148 0.68402 0.0
O787 O 0.97349 0.49429 0.63777 0.0
C788 C 0.01476 0.49797 0.49237 0.0
C789 C 0.06396 0.53044 0.43741 0.0
C790 C 0.07932 0.50104 0.40982 0.0
C791 C 0.06531 0.51062 0.43962 0.0
C792 C 0.09217 0.51163 0.37901 0.0
C793 C 0.0768 0.54071 0.4064 0.0
C794 C 0.0909 0.53131 0.37746 0.0
C795 C 0.04858 0.50793 0.61767 0.0
C796 C 0.04897 0.54067 0.46586 0.0
C797 C 1.00194 0.61123 0.53484 0.0
C798 C 0.01414 0.61181 0.57942 0.0
C799 C 0.01128 0.53051 0.6583 0.0
C800 C 0.96789 0.50178 0.73038 0.0
C801 C 0.95643 0.51745 0.71767 0.0
C802 C 0.94778 0.52809 0.75904 0.0
C803 C 0.95112 0.52331 0.81322 0.0
C804 C 0.9709 0.49716 0.78479 0.0
C805 C 0.96268 0.50798 0.82591 0.0
C806 C 0.97611 0.52272 0.53629 0.0
C807 C 0.97687 0.49005 0.68797 0.0
H808 H 0.05532 0.50273 0.46361 0.0
H809 H 0.10339 0.5047 0.35656 0.0
H810 H 0.07587 0.556 0.40446 0.0
H811 H 0.10086 0.53929 0.35367 0.0
H812 H 0.9538 0.5211 0.67588 0.0
H813 H 0.94469 0.5314 0.84576 0.0
H814 H 0.97967 0.48517 0.79552 0.0
H815 H 0.96514 0.50436 0.86773 0.0
H816 H 0.16533 0.04173 0.13461 0.0
H817 H 0.13565 0.03813 0.18566 0.0
H818 H 0.16763 0.03153 0.3327 0.0
H819 H 0.1971 0.03474 0.28235 0.0
H820 H 0.12644 1.00516 0.27868 0.0
H821 H 0.12821 0.08108 0.34123 0.0
H822 H 0.13834 0.07286 0.27821 0.0
H823 H 0.15006 0.06788 0.34078 0.0
C824 C 0.16602 0.03906 0.17757 0.0
C825 C 0.18363 0.03871 0.20436 0.0
C826 C 0.14905 0.03714 0.20677 0.0
C827 C 0.14942 0.03482 0.26317 0.0
C828 C 0.16697 0.0335 0.28938 0.0
H829 H 0.07182 0.04045 0.53417 0.0
H830 H 0.0984 0.04271 0.47153 0.0
C831 C 0.18382 0.03535 0.26042 0.0
C832 C 0.13167 0.03457 0.29569 0.0
H833 H 0.10499 0.06195 0.38133 0.0
C834 C 0.12158 0.0176 0.30064 0.0
C835 C 0.12555 0.05073 0.32507 0.0
C836 C 0.13598 0.06927 0.32122 0.0
C837 C 0.10575 0.01627 0.33503 0.0
C838 C 0.09951 0.0325 0.3644 0.0
C839 C 0.1096 0.04951 0.3589 0.0
C840 C 0.08293 0.03196 0.40206 0.0
C841 C 0.09639 0.99724 0.34119 0.0
C842 C 0.06504 0.0259 0.38398 0.0
C843 C 0.0499 0.02424 0.42012 0.0
C844 C 0.05217 0.02867 0.47543 0.0
C845 C 0.06972 0.03603 0.49262 0.0
C846 C 0.08492 0.03755 0.45653 0.0
H847 H 0.10592 0.98547 0.32871 0.0
H848 H 0.09198 0.99493 0.38361 0.0
H849 H 0.08361 0.9966 0.31506 0.0
H850 H 0.06279 0.02224 0.34186 0.0
H851 H 0.03651 0.01913 0.40461 0.0
H852 H 0.51609 0.18889 0.2008 0.0
H853 H 0.5231 0.16044 0.25388 0.0
H854 H 0.4645 0.14394 0.24372 0.0
H855 H 0.45743 0.17233 0.19138 0.0
H856 H 0.50251 0.1527 0.3576 0.0
H857 H 0.49605 0.09469 0.20524 0.0
H858 H 0.50149 0.11879 0.18711 0.0
H859 H 0.47773 0.1124 0.20445 0.0
C860 C 0.50484 0.17892 0.20876 0.0
C861 C 0.48623 0.18277 0.19178 0.0
C862 C 0.50882 0.16276 0.23935 0.0
C863 C 0.49434 0.15001 0.25252 0.0
C864 C 0.47593 0.15345 0.23357 0.0
H865 H 0.47799 0.04997 0.44508 0.0
H866 H 0.47618 0.07615 0.38144 0.0
C867 C 0.47191 0.16968 0.20373 0.0
C868 C 0.49795 0.13399 0.28972 0.0
H869 H 0.49732 0.08573 0.29719 0.0
C870 C 0.50161 0.13803 0.3444 0.0
C871 C 0.4965 0.1149 0.27249 0.0
C872 C 0.49286 0.10981 0.21406 0.0
C873 C 0.50327 0.12353 0.38268 0.0
C874 C 0.50182 0.10436 0.36554 0.0
C875 C 0.49845 0.10036 0.31053 0.0
C876 C 0.50321 0.08829 0.40414 0.0
C877 C 0.50571 0.12899 0.44142 0.0
C878 C 0.5191 0.08613 0.43789 0.0
C879 C 0.52007 0.07126 0.47478 0.0
C880 C 0.50536 0.05794 0.47797 0.0
C881 C 0.48965 0.05987 0.44342 0.0
C882 C 0.48858 0.07488 0.407 0.0
H883 H 0.50097 0.14376 0.4495 0.0
H884 H 0.49767 0.11938 0.46804 0.0
H885 H 0.52092 0.12809 0.4524 0.0
H886 H 0.53084 0.09591 0.43555 0.0
H887 H 0.53248 0.07004 0.50032 0.0
H888 H 0.32576 0.49333 0.32107 0.0
H889 H 0.35663 0.50002 0.36123 0.0
H890 H 0.38346 0.4873 0.20893 0.0
H891 H 0.3523 0.48015 0.16859 0.0
H892 H 0.40069 0.46885 0.29305 0.0
H893 H 0.39212 0.54425 0.34977 0.0
H894 H 0.3734 0.52993 0.37576 0.0
H895 H 0.3761 0.53233 0.30384 0.0
C896 C 0.33819 0.49232 0.29571 0.0
C897 C 0.33652 0.48627 0.24148 0.0
C898 C 0.3559 0.49624 0.31876 0.0
C899 C 0.37252 0.49438 0.28824 0.0
C900 C 0.37089 0.48893 0.23343 0.0
H901 H 0.48159 0.53238 0.4182 0.0
H902 H 0.4529 0.52749 0.36405 0.0
C903 C 0.35306 0.48504 0.21017 0.0
C904 C 0.39147 0.49696 0.31484 0.0
H905 H 0.4173 0.52764 0.39354 0.0
C906 C 0.4044 0.4818 0.3145 0.0
C907 C 0.3965 0.51384 0.34285 0.0
C908 C 0.38388 0.53107 0.34269 0.0
C909 C 0.42187 0.48289 0.3422 0.0
C910 C 0.42656 0.49949 0.37209 0.0
C911 C 0.41379 0.51479 0.37132 0.0
C912 C 0.44469 0.50158 0.40348 0.0
C913 C 0.43517 0.46623 0.33868 0.0
C914 C 0.44996 0.4886 0.44376 0.0
C915 C 0.46641 0.49147 0.47497 0.0
C916 C 0.47777 0.50752 0.46717 0.0
C917 C 0.47287 0.5201 0.42586 0.0
C918 C 0.45646 0.51729 0.39484 0.0
H919 H 0.43238 0.45741 0.30206 0.0
H920 H 0.45017 0.47087 0.33808 0.0
H921 H 0.433 0.45719 0.37445 0.0
H922 H 0.4411 0.47652 0.45219 0.0
H923 H 0.47014 0.48124 0.5055 0.0
H924 H 0.07265 0.3567 0.19373 0.0
H925 H 0.06566 0.38612 0.24238 0.0
H926 H 0.01058 0.36461 0.28361 0.0
H927 H 0.01785 0.33475 0.23571 0.0
H928 H 0.04173 0.41395 0.23879 0.0
H929 H 0.02986 0.37719 0.43198 0.0
H930 H 0.03878 0.36511 0.37275 0.0
H931 H 0.01382 0.36961 0.37979 0.0
C932 C 0.05887 0.35836 0.2122 0.0
C933 C 0.04581 0.3433 0.21064 0.0
C934 C 0.05491 0.37522 0.2405 0.0
C935 C 0.0378 0.37759 0.2686 0.0
C936 C 0.02416 0.36307 0.26398 0.0
H937 H 0.99874 0.48629 0.39839 0.0
H938 H 1.00495 0.45753 0.34552 0.0
C939 C 0.02815 0.34609 0.23554 0.0
C940 C 0.03468 0.39504 0.30329 0.0
H941 H 0.02344 0.41017 0.43148 0.0
C942 C 0.03767 0.41302 0.28088 0.0
C943 C 0.02999 0.39414 0.359 0.0
C944 C 0.02812 0.37549 0.38755 0.0
C945 C 0.0357 0.42985 0.31174 0.0
C946 C 0.02999 0.42896 0.36655 0.0
C947 C 0.02748 0.41102 0.38942 0.0
C948 C 0.02611 0.44646 0.40009 0.0
C949 C 0.04028 0.44845 0.28547 0.0
C950 C 0.03549 0.44984 0.44965 0.0
C951 C 0.03185 0.46641 0.48034 0.0
C952 C 0.01836 0.47971 0.46286 0.0
C953 C 0.00907 0.47627 0.41335 0.0
C954 C 0.01272 0.45983 0.38278 0.0
H955 H 0.05028 0.44648 0.25133 0.0
H956 H 0.02708 0.45472 0.26912 0.0
H957 H 0.04658 0.45863 0.31489 0.0
H958 H 0.0458 0.43977 0.46434 0.0
H959 H 0.0396 0.46884 0.51759 0.0
H960 H 0.86056 0.96498 0.03839 0.0
H961 H 0.88928 0.97238 0.98763 0.0
H962 H 0.85804 0.01349 0.89548 0.0
H963 H 0.82953 1.00644 0.94752 0.0
H964 H 0.89337 0.96547 0.88373 0.0
H965 H 0.90639 0.0419 0.91573 0.0
H966 H 0.89043 0.02871 0.95777 0.0
H967 H 0.88268 0.03736 0.89317 0.0
C968 C 0.86011 0.97627 0.00915 0.0
C969 C 0.84293 0.98552 0.99799 0.0
C970 C 0.87647 0.98032 0.97953 0.0
C971 C 0.87604 0.99362 0.93764 0.0
C972 C 0.85906 1.00354 0.92831 0.0
H973 H 0.94476 0.02028 0.66016 0.0
H974 H 0.92041 0.01669 0.72878 0.0
C975 C 0.84271 0.99959 0.95833 0.0
C976 C 0.89258 0.99547 0.90014 0.0
H977 H 0.9217 0.02747 0.83923 0.0
C978 C 0.8997 0.97903 0.87469 0.0
C979 C 0.90093 0.01312 0.88774 0.0
C980 C 0.89484 0.03124 0.91546 0.0
C981 C 0.9144 0.9798 0.83642 0.0
C982 C 0.92246 0.99748 0.82326 0.0
C983 C 0.91554 0.0139 0.84911 0.0
C984 C 0.93751 0.9993 0.78122 0.0
C985 C 0.92075 0.96172 0.80896 0.0
C986 C 0.95542 0.99084 0.78752 0.0
C987 C 0.96938 0.99273 0.74757 0.0
C988 C 0.96569 1.00297 0.70021 0.0
C989 C 0.94786 0.0116 0.69456 0.0
C990 C 0.93398 0.00982 0.73447 0.0
H991 H 0.91055 0.94999 0.81492 0.0
H992 H 0.92263 0.96386 0.76492 0.0
H993 H 0.93459 0.95733 0.82606 0.0
H994 H 0.95867 0.98292 0.82358 0.0
H995 H 0.98304 0.9861 0.75362 0.0
H996 H 0.56602 0.84732 0.962 0.0
H997 H 0.5591 0.87562 0.90973 0.0
H998 H 0.49946 0.86787 0.93718 0.0
H999 H 0.50627 0.83913 0.98905 0.0
H1000 H 0.5348 0.87432 0.81315 0.0
H1001 H 0.51051 0.92587 0.97004 0.0
H1002 H 0.52519 0.90573 0.98617 0.0
H1003 H 0.50059 0.9024 0.97101 0.0
C1004 C 0.55141 0.85167 0.95738 0.0
C1005 C 0.53668 0.84079 0.97931 0.0
C1006 C 0.54749 0.8679 0.92754 0.0
C1007 C 0.52878 0.87386 0.91938 0.0
C1008 C 0.51403 0.86362 0.94332 0.0
H1009 H 0.49191 0.95164 0.66564 0.0
H1010 H 0.49451 0.925 0.72777 0.0
C1011 C 0.51794 0.84724 0.97316 0.0
C1012 C 0.52489 0.88996 0.88261 0.0
H1013 H 0.51027 0.93613 0.87954 0.0
C1014 C 0.52931 0.88779 0.82759 0.0
C1015 C 0.51787 0.90757 0.90158 0.0
C1016 C 0.51333 0.91073 0.96045 0.0
C1017 C 0.52697 0.90275 0.79113 0.0
C1018 C 0.51998 0.92037 0.81004 0.0
C1019 C 0.51552 0.92257 0.86505 0.0
C1020 C 0.5179 0.93683 0.77342 0.0
C1021 C 0.53244 0.89978 0.73277 0.0
C1022 C 0.53011 0.95238 0.77855 0.0
C1023 C 0.52879 0.96757 0.74279 0.0
C1024 C 0.51501 0.96768 0.70152 0.0
C1025 C 0.5027 0.95209 0.69681 0.0
C1026 C 0.50414 0.93683 0.73236 0.0
H1027 H 0.54045 0.8864 0.72641 0.0
H1028 H 0.51945 0.89921 0.70746 0.0
H1029 H 0.54118 0.91178 0.71857 0.0
H1030 H 0.54094 0.9526 0.80962 0.0
H1031 H 0.53883 0.97902 0.74698 0.0
H1032 H 0.65901 0.53451 0.02193 0.0
H1033 H 0.6291 0.52949 0.97274 0.0
H1034 H 0.65996 0.52281 0.82387 0.0
H1035 H 0.68971 0.52733 0.87263 0.0
H1036 H 0.61394 0.55107 0.88967 0.0
H1037 H 0.62495 0.47746 0.8173 0.0
H1038 H 0.63935 0.48807 0.86979 0.0
H1039 H 0.64399 0.49298 0.7999 0.0
C1040 C 0.65944 0.53156 0.97893 0.0
C1041 C 0.67684 0.53135 0.9514 0.0
C1042 C 0.6423 0.52886 0.9507 0.0
C1043 C 0.64216 0.52561 0.89444 0.0
C1044 C 0.65956 0.52497 0.86723 0.0
H1045 H 0.54685 0.54181 0.66851 0.0
H1046 H 0.5757 0.54588 0.7233 0.0
C1047 C 0.67662 0.52772 0.89526 0.0
C1048 C 0.62394 0.52368 0.86362 0.0
H1049 H 0.59978 0.49456 0.77616 0.0
C1050 C 0.61079 0.53864 0.86517 0.0
C1051 C 0.61967 0.50747 0.8316 0.0
C1052 C 0.63264 0.4905 0.82984 0.0
C1053 C 0.59377 0.53797 0.83518 0.0
C1054 C 0.58976 0.522 0.80192 0.0
C1055 C 0.60279 0.50692 0.80106 0.0
C1056 C 0.5719 0.5202 0.76921 0.0
C1057 C 0.58018 0.55436 0.83995 0.0
C1058 C 0.56011 0.50439 0.77587 0.0
C1059 C 0.54378 0.502 0.74424 0.0
C1060 C 0.53902 0.51511 0.70415 0.0
C1061 C 0.55048 0.5312 0.69806 0.0
C1062 C 0.56682 0.53366 0.73005 0.0
H1063 H 0.58255 0.56268 0.87772 0.0
H1064 H 0.58244 0.56393 0.80539 0.0
H1065 H 0.56527 0.54946 0.83902 0.0
H1066 H 0.56354 0.49383 0.80576 0.0
H1067 H 0.53498 0.48969 0.75057 0.0
H1068 H 0.95999 0.66645 0.98934 0.0
H1069 H 0.96646 0.63714 0.93889 0.0
H1070 H 0.01696 0.66208 0.87373 0.0
H1071 H 0.01036 0.69154 0.92423 0.0
H1072 H 0.99362 0.64718 0.79429 0.0
H1073 H 1.00363 0.59352 0.95319 0.0
H1074 H 0.98221 0.60702 0.95998 0.0
H1075 H 1.00471 0.61862 0.96736 0.0
C1076 C 0.97293 0.66539 0.96613 0.0
C1077 C 0.98495 0.68119 0.96214 0.0
C1078 C 0.97657 0.6486 0.9369 0.0
C1079 C 0.99232 0.64714 0.90249 0.0
C1080 C 1.00477 0.66268 0.9001 0.0
H1081 H 0.03005 0.54224 0.7479 0.0
H1082 H 0.0251 0.57065 0.80307 0.0
C1083 C 1.00117 0.67947 0.92966 0.0
C1084 C 0.99482 0.63018 0.86564 0.0
H1085 H 0.99951 0.58192 0.86356 0.0
C1086 C 0.99507 0.63291 0.80949 0.0
C1087 C 0.99656 0.61146 0.88498 0.0
C1088 C 0.99693 0.60742 0.94467 0.0
C1089 C 0.99711 0.61767 0.77244 0.0
C1090 C 0.99882 0.59881 0.79152 0.0
C1091 C 0.99837 0.59616 0.84797 0.0
C1092 C 1.00208 0.58175 0.75476 0.0
C1093 C 0.99785 0.62227 0.7133 0.0
C1094 C 0.99102 0.57807 0.70805 0.0
C1095 C 0.99437 0.56195 0.67505 0.0
C1096 C 0.00852 0.54879 0.68865 0.0
C1097 C 0.01919 0.5522 0.73583 0.0
C1098 C 0.01624 0.56848 0.76777 0.0
H1099 H 1.00266 0.63702 0.70657 0.0
H1100 H 0.00753 0.61257 0.69184 0.0
H1101 H 0.98349 0.62081 0.69551 0.0
H1102 H 0.9795 0.58743 0.69744 0.0
H1103 H 0.98553 0.5595 0.63985 0.0
H1104 H 0.13514 0.1727 0.27881 0.0
H1105 H 0.12492 0.15177 0.35022 0.0
H1106 H 0.10455 0.19966 0.44204 0.0
H1107 H 0.11221 0.22041 0.36891 0.0
H1108 H 0.12187 0.14387 0.46118 0.0
H1109 H 0.05631 0.17665 0.37882 0.0
H1110 H 0.07923 0.1809 0.35021 0.0
H1111 H 0.07206 0.19315 0.411 0.0
C1112 C 0.12849 0.17895 0.31401 0.0
C1113 C 0.12294 0.19817 0.31501 0.0
C1114 C 0.12308 0.1669 0.35562 0.0
C1115 C 0.11298 0.17411 0.39989 0.0
C1116 C 0.11165 0.19376 0.40695 0.0
H1117 H 0.0159 0.12303 0.54368 0.0
H1118 H 0.04532 0.14102 0.54394 0.0
C1119 C 0.11622 0.20572 0.36446 0.0
C1120 C 0.09978 0.16157 0.42897 0.0
H1121 H 0.05258 0.15293 0.44172 0.0
C1122 C 0.10671 0.14595 0.45773 0.0
C1123 C 0.07996 0.16404 0.42314 0.0
C1124 C 0.0714 0.17944 0.38874 0.0
C1125 C 0.09426 0.13278 0.48092 0.0
C1126 C 0.07454 0.13541 0.47501 0.0
C1127 C 0.06772 0.15118 0.44717 0.0
C1128 C 0.06028 0.12134 0.4918 0.0
C1129 C 0.10223 0.1161 0.51084 0.0
C1130 C 0.05931 0.10373 0.46507 0.0
C1131 C 0.04249 0.09331 0.46536 0.0
C1132 C 0.02638 0.10057 0.49164 0.0
C1133 C 0.02805 0.11721 0.5228 0.0
C1134 C 0.0449 0.12743 0.52322 0.0
H1135 H 0.11688 0.11889 0.52526 0.0
H1136 H 0.09323 0.11249 0.54592 0.0
H1137 H 0.10264 0.10363 0.48319 0.0
H1138 H 0.07086 0.09891 0.43975 0.0
H1139 H 0.04162 0.08052 0.44094 0.0
H1140 H 0.3469 0.08904 0.26807 0.0
H1141 H 0.36655 0.07601 0.33799 0.0
H1142 H 0.33462 0.10624 0.45939 0.0
H1143 H 0.31483 0.12019 0.38863 0.0
H1144 H 0.38837 0.08755 0.42871 0.0
H1145 H 0.32206 0.04966 0.48363 0.0
H1146 H 0.32361 0.0634 0.42286 0.0
H1147 H 0.32232 0.07511 0.48747 0.0
C1148 C 0.3444 0.09384 0.3091 0.0
C1149 C 0.32884 0.10547 0.32237 0.0
C1150 C 0.35571 0.08615 0.34937 0.0
C1151 C 0.35172 0.08976 0.40386 0.0
C1152 C 0.33764 0.10298 0.41744 0.0
H1153 H 0.4222 0.01117 0.59154 0.0
H1154 H 0.40367 0.04025 0.57686 0.0
C1155 C 0.32632 0.11088 0.3769 0.0
C1156 C 0.36037 0.0772 0.44449 0.0
H1157 H 0.35065 0.03638 0.51147 0.0
C1158 C 0.38017 0.07666 0.44838 0.0
C1159 C 0.34953 0.06293 0.46946 0.0
C1160 C 0.32821 0.06262 0.46573 0.0
C1161 C 0.38949 0.06142 0.4728 0.0
C1162 C 0.37864 0.04653 0.49463 0.0
C1163 C 0.35885 0.04783 0.49454 0.0
C1164 C 0.38748 0.02842 0.51054 0.0
C1165 C 0.41084 0.06063 0.47102 0.0
C1166 C 0.38363 0.01192 0.48026 0.0
C1167 C 0.394 0.99538 0.48915 0.0
C1168 C 0.40839 0.99523 0.52825 0.0
C1169 C 0.41132 0.01131 0.56087 0.0
C1170 C 0.40084 0.02779 0.5524 0.0
H1171 H 0.4169 0.07182 0.44507 0.0
H1172 H 0.4166 0.06262 0.51245 0.0
H1173 H 0.41571 0.04664 0.4556 0.0
H1174 H 0.37329 0.01212 0.44782 0.0
H1175 H 0.39157 0.98312 0.46337 0.0
H1176 H 0.41806 0.30735 0.39588 0.0
H1177 H 0.42057 0.33277 0.46185 0.0
H1178 H 0.40105 0.37247 0.34259 0.0
H1179 H 0.39599 0.34681 0.27895 0.0
H1180 H 0.44658 0.35435 0.44711 0.0
H1181 H 0.38659 0.40249 0.46724 0.0
H1182 H 0.38343 0.37883 0.44035 0.0
H1183 H 0.389 0.39831 0.39629 0.0
C1184 C 0.41315 0.32124 0.38434 0.0
C1185 C 0.40762 0.32504 0.33079 0.0
C1186 C 0.41477 0.33592 0.42238 0.0
C1187 C 0.41152 0.35477 0.4073 0.0
C1188 C 0.40361 0.35819 0.35614 0.0
H1189 H 0.4755 0.44347 0.35357 0.0
H1190 H 0.44879 0.42289 0.37315 0.0
C1191 C 0.40122 0.34341 0.31884 0.0
C1192 C 0.42088 0.37057 0.43756 0.0
H1193 H 0.41837 0.41856 0.45466 0.0
C1194 C 0.44009 0.3682 0.45104 0.0
C1195 C 0.41263 0.38877 0.44354 0.0
C1196 C 0.3917 0.39209 0.43657 0.0
C1197 C 0.4517 0.38369 0.46334 0.0
C1198 C 0.44391 0.40212 0.46218 0.0
C1199 C 0.42435 0.40441 0.45467 0.0
C1200 C 0.45649 0.41869 0.45685 0.0
C1201 C 0.47262 0.38033 0.47184 0.0
C1202 C 0.46915 0.42388 0.49819 0.0
C1203 C 0.48473 0.43532 0.48668 0.0
C1204 C 0.48769 0.44184 0.43387 0.0
C1205 C 0.47385 0.43826 0.39426 0.0
C1206 C 0.45842 0.42672 0.40562 0.0
H1207 H 0.47655 0.36516 0.46741 0.0
H1208 H 0.48097 0.38858 0.4424 0.0
H1209 H 0.47674 0.38511 0.51308 0.0
H1210 H 0.46783 0.41789 0.53809 0.0
H1211 H 0.49519 0.4378 0.51797 0.0
H1212 H 0.19365 0.43003 0.34214 0.0
H1213 H 0.16602 0.42864 0.39844 0.0
H1214 H 0.14991 0.37551 0.32333 0.0
H1215 H 0.17734 0.37778 0.26324 0.0
H1216 H 0.12131 0.39353 0.32215 0.0
H1217 H 0.14365 0.40854 0.52614 0.0
H1218 H 0.1567 0.42594 0.49036 0.0
H1219 H 0.16094 0.401 0.47683 0.0
C1220 C 0.18468 0.41764 0.339 0.0
C1221 C 0.18769 0.404 0.29836 0.0
C1222 C 0.1688 0.4167 0.37193 0.0
C1223 C 0.15576 0.40174 0.36655 0.0
C1224 C 0.15963 0.38722 0.32869 0.0
H1225 H 0.07746 0.47753 0.49745 0.0
H1226 H 0.08676 0.44415 0.49996 0.0
C1227 C 0.17535 0.38845 0.29447 0.0
C1228 C 0.13678 0.40374 0.39235 0.0
H1229 H 0.11807 0.43209 0.49013 0.0
C1230 C 0.12051 0.40131 0.36005 0.0
C1231 C 0.13466 0.41243 0.44381 0.0
C1232 C 0.14998 0.41181 0.4863 0.0
C1233 C 0.10361 0.41077 0.37286 0.0
C1234 C 0.10357 0.42402 0.41618 0.0
C1235 C 0.11831 0.42309 0.45441 0.0
C1236 C 0.09205 0.44172 0.41389 0.0
C1237 C 0.08642 0.40749 0.33775 0.0
C1238 C 0.09076 0.45135 0.36453 0.0
C1239 C 0.08509 0.47019 0.36302 0.0
C1240 C 0.08102 0.48013 0.4109 0.0
C1241 C 0.08069 0.47024 0.45986 0.0
C1242 C 0.08609 0.45115 0.46131 0.0
H1243 H 0.08408 0.39205 0.33229 0.0
H1244 H 0.07348 0.4139 0.35553 0.0
H1245 H 0.08884 0.4134 0.29699 0.0
H1246 H 0.0957 0.44495 0.32726 0.0
H1247 H 0.08507 0.47733 0.32451 0.0
H1248 H 0.88578 0.84469 0.88567 0.0
H1249 H 0.88744 0.86781 0.81282 0.0
H1250 H 0.93067 0.8341 0.73505 0.0
H1251 H 0.92888 0.81118 0.80614 0.0
H1252 H 0.91724 0.88747 0.80469 0.0
H1253 H 0.90824 0.85573 0.60424 0.0
H1254 H 0.89918 0.8443 0.66375 0.0
H1255 H 0.92307 0.83983 0.64085 0.0
C1256 C 0.8951 0.84191 0.85185 0.0
C1257 C 0.90735 0.82619 0.85212 0.0
C1258 C 0.89597 0.85508 0.81008 0.0
C1259 C 0.90911 0.85275 0.76801 0.0
C1260 C 0.91998 0.8361 0.7658 0.0
H1261 H 1.00429 0.89321 0.66983 0.0
H1262 H 0.97371 0.87825 0.68201 0.0
C1263 C 0.91901 0.82292 0.80709 0.0
C1264 C 0.91505 0.86908 0.73475 0.0
H1265 H 0.93692 0.87717 0.6146 0.0
C1266 C 0.92074 0.88562 0.76233 0.0
C1267 C 0.91943 0.867 0.67923 0.0
C1268 C 0.91191 0.85079 0.64543 0.0
C1269 C 0.93301 0.8986 0.73833 0.0
C1270 C 0.93969 0.89488 0.68555 0.0
C1271 C 0.93204 0.87977 0.65552 0.0
C1272 C 0.95744 0.90361 0.66697 0.0
C1273 C 0.94048 0.91498 0.77169 0.0
C1274 C 0.95837 0.92275 0.65296 0.0
C1275 C 0.97595 0.9314 0.64551 0.0
C1276 C 0.99286 0.92103 0.65221 0.0
C1277 C 0.99168 0.90163 0.66365 0.0
C1278 C 0.97416 0.89302 0.67067 0.0
H1279 H 0.93349 0.91616 0.81172 0.0
H1280 H 0.95595 0.91327 0.77815 0.0
H1281 H 0.93823 0.92841 0.74977 0.0
H1282 H 0.94557 0.93113 0.64987 0.0
H1283 H 0.97628 0.9463 0.63589 0.0
H1284 H 0.68028 0.89654 0.86772 0.0
H1285 H 0.65932 0.90723 0.79529 0.0
H1286 H 0.70128 0.94789 0.74714 0.0
H1287 H 0.72205 0.93745 0.81834 0.0
H1288 H 0.64714 0.94208 0.80877 0.0
H1289 H 0.67707 0.93776 0.60425 0.0
H1290 H 0.68579 0.92327 0.65869 0.0
H1291 H 0.69457 0.947 0.64984 0.0
C1292 C 0.68532 0.90722 0.84024 0.0
C1293 C 0.7027 0.91638 0.84966 0.0
C1294 C 0.67336 0.91325 0.79867 0.0
C1295 C 0.67866 0.92843 0.7658 0.0
C1296 C 0.69695 0.93592 0.77102 0.0
H1297 H 0.6366 0.032 0.65457 0.0
H1298 H 0.65456 1.00336 0.67503 0.0
C1299 C 0.70889 0.92989 0.81229 0.0
C1300 C 0.66411 0.93959 0.73684 0.0
H1301 H 0.65729 0.96585 0.62339 0.0
C1302 C 0.64902 0.9468 0.7676 0.0
C1303 C 0.66664 0.94594 0.68334 0.0
C1304 C 0.68182 0.93789 0.6471 0.0
C1305 C 0.63735 0.96123 0.74804 0.0
C1306 C 0.64065 0.96841 0.69583 0.0
C1307 C 0.65497 0.96044 0.66365 0.0
C1308 C 0.63009 0.98502 0.67599 0.0
C1309 C 0.62239 0.96951 0.78485 0.0
C1310 C 0.61048 0.98408 0.66877 0.0
C1311 C 0.60017 1.00041 0.65779 0.0
C1312 C 0.60923 0.01804 0.65251 0.0
C1313 C 0.62907 0.01874 0.65754 0.0
C1314 C 0.63939 1.00236 0.66921 0.0
H1315 H 0.62417 0.96488 0.82732 0.0
H1316 H 0.62274 0.98522 0.78414 0.0
H1317 H 0.60822 0.96486 0.77067 0.0
H1318 H 0.60307 0.97078 0.67328 0.0
H1319 H 0.585 0.99915 0.65413 0.0
H1320 H 0.62228 0.67372 0.89726 0.0
H1321 H 0.61716 0.64804 0.83378 0.0
H1322 H 0.59945 0.68785 0.71259 0.0
H1323 H 0.60196 0.71336 0.77825 0.0
H1324 H 0.57288 0.66687 0.72603 0.0
H1325 H 0.63197 0.61744 0.71058 0.0
H1326 H 0.62911 0.62184 0.78129 0.0
H1327 H 0.63543 0.64109 0.73722 0.0
C1328 C 0.61742 0.67714 0.85701 0.0
C1329 C 0.61151 0.69561 0.84434 0.0
C1330 C 0.61502 0.66234 0.81982 0.0
C1331 C 0.6076 0.6658 0.76809 0.0
C1332 C 0.60486 0.68468 0.75249 0.0
H1333 H 0.52291 0.5843 0.65498 0.0
H1334 H 0.55084 0.60349 0.63562 0.0
C1335 C 0.60648 0.6994 0.79038 0.0
C1336 C 0.59815 0.65013 0.73752 0.0
H1337 H 0.59976 0.60207 0.72165 0.0
C1338 C 0.5791 0.65287 0.7228 0.0
C1339 C 0.60605 0.63176 0.73242 0.0
C1340 C 0.62685 0.62802 0.74073 0.0
C1341 C 0.56725 0.6376 0.71018 0.0
C1342 C 0.57463 0.61901 0.71227 0.0
C1343 C 0.59408 0.61634 0.72095 0.0
C1344 C 0.56167 0.60274 0.71743 0.0
C1345 C 0.54647 0.64138 0.70037 0.0
C1346 C 0.55924 0.59496 0.76879 0.0
C1347 C 0.54349 0.58381 0.77972 0.0
C1348 C 0.5298 0.58039 0.73954 0.0
C1349 C 0.53323 0.58666 0.68671 0.0
C1350 C 0.54914 0.59769 0.67562 0.0
H1351 H 0.54284 0.65664 0.70414 0.0
H1352 H 0.54254 0.63653 0.65904 0.0
H1353 H 0.53774 0.63342 0.72957 0.0
H1354 H 0.56876 0.5987 0.80162 0.0
H1355 H 0.54149 0.57876 0.82045 0.0
H1356 H 0.84181 0.60829 0.93006 0.0
H1357 H 0.86818 0.60901 0.86981 0.0
H1358 H 0.83236 0.62975 0.74209 0.0
H1359 H 0.80539 0.63009 0.804 0.0
H1360 H 0.84843 0.59627 0.71647 0.0
H1361 H 0.90536 0.64183 0.79261 0.0
H1362 H 0.89512 0.63033 0.84951 0.0
H1363 H 0.88083 0.64616 0.80953 0.0
C1364 C 0.8394 0.6141 0.89038 0.0
C1365 C 0.82113 0.61902 0.87236 0.0
C1366 C 0.85476 0.6145 0.85554 0.0
C1367 C 0.8524 0.61964 0.80141 0.0
C1368 C 0.83456 0.62587 0.78387 0.0
H1369 H 0.95308 0.55844 0.69242 0.0
H1370 H 0.93105 0.58504 0.67773 0.0
C1371 C 0.81909 0.6258 0.81925 0.0
C1372 C 0.86743 0.61408 0.76268 0.0
H1373 H 0.91528 0.60842 0.76724 0.0
C1374 C 0.8631 0.59957 0.72544 0.0
C1375 C 0.88662 0.61862 0.77279 0.0
C1376 C 0.89218 0.63527 0.80791 0.0
C1377 C 0.87728 0.5874 0.70609 0.0
C1378 C 0.89602 0.58983 0.7248 0.0
C1379 C 0.90078 0.60627 0.75404 0.0
C1380 C 0.909 0.57347 0.72793 0.0
C1381 C 0.87179 0.57075 0.67086 0.0
C1382 C 0.90392 0.5584 0.76129 0.0
C1383 C 0.91647 0.5436 0.77046 0.0
C1384 C 0.93437 0.54349 0.74626 0.0
C1385 C 0.93934 0.55829 0.71154 0.0
C1386 C 0.92681 0.57339 0.70304 0.0
H1387 H 0.8594 0.57425 0.64504 0.0
H1388 H 0.88373 0.56617 0.64472 0.0
H1389 H 0.86775 0.55872 0.69687 0.0
H1390 H 0.89037 0.55838 0.78167 0.0
H1391 H 0.91223 0.53227 0.79697 0.0
H1392 H 1.00394 0.19255 0.93229 0.0
H1393 H 0.99681 0.16509 0.8734 0.0
H1394 H 0.05505 0.16306 0.82276 0.0
H1395 H 0.06216 0.19036 0.88105 0.0
H1396 H 0.02936 0.15734 0.73654 0.0
H1397 H 0.01275 0.11018 0.90778 0.0
H1398 H 0.99945 0.13186 0.9058 0.0
H1399 H 0.02455 0.13263 0.9171 0.0
C1400 C 0.01513 0.18646 0.90782 0.0
C1401 C 0.03364 0.19372 0.91162 0.0
C1402 C 0.01111 0.17057 0.87463 0.0
C1403 C 0.02546 0.16162 0.84413 0.0
C1404 C 0.04371 0.16948 0.84596 0.0
H1405 H 0.03285 0.06303 0.61947 0.0
H1406 H 0.03994 0.09142 0.67442 0.0
C1407 C 0.04775 0.18517 0.87937 0.0
C1408 C 0.02176 0.14398 0.81098 0.0
H1409 H 0.00871 0.09737 0.81998 0.0
C1410 C 0.02485 0.14423 0.75488 0.0
C1411 C 0.01595 0.12673 0.8345 0.0
C1412 C 0.01311 0.12516 0.89464 0.0
C1413 C 0.02187 0.12804 0.72182 0.0
C1414 C 0.01612 0.11074 0.74529 0.0
C1415 C 0.01313 0.11048 0.80152 0.0
C1416 C 0.01235 0.09303 0.71224 0.0
C1417 C 0.02422 0.12987 0.66164 0.0
C1418 C 0.99473 0.08389 0.71574 0.0
C1419 C 0.99081 0.06753 0.68494 0.0
C1420 C 1.00452 0.05949 0.65052 0.0
C1421 C 0.02215 0.06857 0.64663 0.0
C1422 C 0.02608 0.08504 0.67747 0.0
H1423 H 0.0236 0.14487 0.64873 0.0
H1424 H 0.0382 0.12407 0.64966 0.0
H1425 H 0.01305 0.12182 0.63981 0.0
H1426 H 0.9838 0.0896 0.74181 0.0
H1427 H 0.97697 0.06109 0.68812 0.0
H1428 H 0.33678 0.02142 0.94322 0.0
H1429 H 0.36443 0.01374 0.88689 0.0
H1430 H 0.34913 0.05845 0.77797 0.0
H1431 H 0.3218 0.06631 0.83463 0.0
H1432 H 0.372 1.00455 0.77734 0.0
H1433 H 0.40131 0.07495 0.83182 0.0
H1434 H 0.38098 0.06512 0.86525 0.0
H1435 H 0.37842 0.0761 0.80039 0.0
C1436 C 0.33893 0.02909 0.9061 0.0
C1437 C 0.327 0.04433 0.89303 0.0
C1438 C 0.35487 0.02485 0.87421 0.0
C1439 C 0.35922 0.03584 0.82884 0.0
C1440 C 0.3464 0.05003 0.81339 0.0
H1441 H 0.44983 0.04541 0.59597 0.0
H1442 H 0.42228 0.0496 0.65504 0.0
C1443 C 0.33058 0.05432 0.8453 0.0
C1444 C 0.37769 0.03347 0.79991 0.0
H1445 H 0.41778 0.05745 0.76436 0.0
C1446 C 0.38207 0.01606 0.77487 0.0
C1447 C 0.391 0.04844 0.79684 0.0
C1448 C 0.38783 0.06715 0.82543 0.0
C1449 C 0.39899 0.01345 0.74544 0.0
C1450 C 0.4121 0.02855 0.7416 0.0
C1451 C 0.40782 0.04585 0.76725 0.0
C1452 C 0.4299 0.027 0.70919 0.0
C1453 C 0.40238 0.99471 0.71726 0.0
C1454 C 0.44399 0.01359 0.72148 0.0
C1455 C 0.46012 0.01165 0.68879 0.0
C1456 C 0.46242 0.02303 0.64302 0.0
C1457 C 0.44852 0.03662 0.63135 0.0
C1458 C 0.43271 0.03893 0.6649 0.0
H1459 H 0.3892 0.98624 0.71363 0.0
H1460 H 0.40824 0.99682 0.67623 0.0
H1461 H 0.41281 0.98641 0.74081 0.0
H1462 H 0.44244 1.00452 0.75613 0.0
H1463 H 0.47053 1.00093 0.69841 0.0
H1464 H 0.45569 0.32901 0.85891 0.0
H1465 H 0.46517 0.35173 0.79051 0.0
H1466 H 0.5225 0.35004 0.85054 0.0
H1467 H 0.51289 0.32728 0.91982 0.0
H1468 H 0.50809 0.38606 0.84705 0.0
H1469 H 0.49445 0.35073 0.65039 0.0
H1470 H 0.4745 0.34943 0.69476 0.0
H1471 H 0.49628 0.33778 0.71271 0.0
C1472 C 0.47046 0.33299 0.85631 0.0
C1473 C 0.48359 0.32627 0.89441 0.0
C1474 C 0.47589 0.34597 0.81704 0.0
C1475 C 0.49461 0.35253 0.81478 0.0
C1476 C 0.508 0.34509 0.85113 0.0
H1477 H 0.53693 0.45461 0.65376 0.0
H1478 H 0.53577 0.42407 0.69908 0.0
C1479 C 0.50256 0.33197 0.8904 0.0
C1480 C 0.49941 0.36878 0.77926 0.0
H1481 H 0.49587 0.38479 0.64958 0.0
C1482 C 0.50577 0.38567 0.80372 0.0
C1483 C 0.49619 0.3684 0.72273 0.0
C1484 C 0.49015 0.35055 0.69352 0.0
C1485 C 0.50818 0.40231 0.77382 0.0
C1486 C 0.50455 0.40204 0.71747 0.0
C1487 C 0.49865 0.38504 0.69271 0.0
C1488 C 0.50591 0.41952 0.68437 0.0
C1489 C 0.51371 0.42028 0.8034 0.0
C1490 C 0.48979 0.42672 0.65838 0.0
C1491 C 0.49047 0.44413 0.63191 0.0
C1492 C 0.5073 0.45475 0.63076 0.0
C1493 C 0.5237 0.44696 0.65405 0.0
C1494 C 0.52302 0.42953 0.6805 0.0
H1495 H 0.51161 0.41915 0.84771 0.0
H1496 H 0.5289 0.42321 0.79617 0.0
H1497 H 0.50537 0.43252 0.78858 0.0
H1498 H 0.47646 0.4192 0.66018 0.0
H1499 H 0.47766 0.44947 0.61333 0.0
H1500 H 0.20325 0.5182 0.91289 0.0
H1501 H 0.17756 0.52579 0.84939 0.0
H1502 H 0.17334 0.46684 0.8042 0.0
H1503 H 0.19917 0.45932 0.86619 0.0
H1504 H 0.16832 0.48984 0.71649 0.0
H1505 H 0.1228 0.51389 0.8866 0.0
H1506 H 0.14471 0.52646 0.87988 0.0
H1507 H 0.14499 0.50184 0.89727 0.0
C1508 C 0.19716 0.50695 0.88843 0.0
C1509 C 0.20318 0.48812 0.89514 0.0
C1510 C 0.18227 0.51125 0.8526 0.0
C1511 C 0.1731 0.49682 0.82276 0.0
C1512 C 0.17998 0.47824 0.8269 0.0
H1513 H 0.05906 0.487 0.70598 0.0
H1514 H 0.08961 0.48538 0.75074 0.0
C1515 C 0.19477 0.47395 0.86258 0.0
C1516 C 0.1557 0.50061 0.78965 0.0
H1517 H 0.10942 0.51461 0.7996 0.0
C1518 C 0.1555 0.49544 0.73456 0.0
C1519 C 0.1388 0.50765 0.81319 0.0
C1520 C 0.13767 0.51265 0.87254 0.0
C1521 C 0.13893 0.49691 0.70279 0.0
C1522 C 0.12205 0.50392 0.72643 0.0
C1523 C 0.12234 0.50934 0.78125 0.0
C1524 C 0.1036 0.50453 0.69639 0.0
C1525 C 0.13942 0.49021 0.64474 0.0
C1526 C 0.10104 0.51579 0.65038 0.0
C1527 C 0.08335 0.51662 0.62413 0.0
C1528 C 0.06778 0.5062 0.64322 0.0
C1529 C 0.07055 0.49491 0.68907 0.0
C1530 C 0.08813 0.49411 0.71526 0.0
H1531 H 0.15223 0.4816 0.63588 0.0
H1532 H 0.12669 0.48164 0.6348 0.0
H1533 H 0.1395 0.50267 0.61785 0.0
H1534 H 0.11261 0.52423 0.63534 0.0
H1535 H 0.08186 0.5256 0.58919 0.0
H1536 H 0.95959 0.83311 0.29349 0.0
H1537 H 0.96584 0.86025 0.35316 0.0
H1538 H 0.02529 0.85625 0.31693 0.0
H1539 H 0.01905 0.82903 0.25649 0.0
H1540 H 0.98879 0.86616 0.4451 0.0
H1541 H 0.01213 0.91104 0.27546 0.0
H1542 H 1.00006 0.88881 0.26487 0.0
H1543 H 0.02479 0.8891 0.28198 0.0
C1544 C 0.97406 0.83785 0.29858 0.0
C1545 C 0.98879 0.82885 0.26972 0.0
C1546 C 0.97761 0.85343 0.33288 0.0
C1547 C 0.99599 0.86069 0.33908 0.0
C1548 C 0.01091 0.85122 0.31228 0.0
H1549 H 0.0428 0.96321 0.48608 0.0
H1550 H 0.03685 0.93302 0.4401 0.0
C1551 C 0.00737 0.83547 0.27815 0.0
C1552 C 0.99928 0.87846 0.37203 0.0
H1553 H 0.01439 0.92436 0.36289 0.0
C1554 C 0.99444 0.87888 0.42714 0.0
C1555 C 1.00643 0.89524 0.34885 0.0
C1556 C 0.01101 0.8962 0.28946 0.0
C1557 C 0.9971 0.89525 0.45982 0.0
C1558 C 1.00443 0.91204 0.43673 0.0
C1559 C 0.00897 0.91162 0.38131 0.0
C1560 C 0.00811 0.93002 0.46878 0.0
C1561 C 0.99252 0.89407 0.51912 0.0
C1562 C 0.99416 0.93866 0.50158 0.0
C1563 C 0.99769 0.95603 0.52848 0.0
C1564 C 0.01504 0.96546 0.52219 0.0
C1565 C 0.02912 0.95656 0.49087 0.0
C1566 C 0.02569 0.93923 0.46441 0.0
H1567 H 0.99307 0.87924 0.53356 0.0
H1568 H 1.00246 0.90269 0.5437 0.0
H1569 H 0.97796 0.89945 0.52606 0.0
H1570 H 0.98032 0.93231 0.5053 0.0
H1571 H 0.98672 0.96227 0.55338 0.0
H1572 H 0.70664 0.99247 0.34077 0.0
H1573 H 0.6795 0.99741 0.40168 0.0
H1574 H 0.64162 0.9963 0.26498 0.0
H1575 H 0.66843 0.99176 0.20427 0.0
H1576 H 0.64748 0.02638 0.40035 0.0
H1577 H 0.62414 0.95207 0.36732 0.0
H1578 H 0.64796 0.95982 0.35338 0.0
H1579 H 0.62911 0.96522 0.30723 0.0
C1580 C 0.69257 0.99367 0.32365 0.0
C1581 C 0.68976 0.99141 0.26758 0.0
C1582 C 0.67705 0.99639 0.35853 0.0
C1583 C 0.65845 0.99685 0.33802 0.0
C1584 C 0.65576 0.99564 0.28194 0.0
H1585 H 0.54962 0.02653 0.48532 0.0
H1586 H 0.5779 0.02441 0.42791 0.0
C1587 C 0.67116 0.99302 0.24725 0.0
C1588 C 0.64168 0.99778 0.37467 0.0
H1589 H 0.60321 0.97226 0.41525 0.0
C1590 C 0.63783 0.01454 0.40373 0.0
C1591 C 0.6291 0.9823 0.37952 0.0
C1592 C 0.63277 0.96375 0.35062 0.0
C1593 C 0.62158 0.01632 0.43643 0.0
C1594 C 0.60872 1.001 0.44001 0.0
C1595 C 0.61285 0.9841 0.412 0.0
C1596 C 0.59119 1.00205 0.47367 0.0
C1597 C 0.61841 0.03449 0.46761 0.0
C1598 C 0.58888 0.98985 0.51758 0.0
C1599 C 0.57269 0.99097 0.55002 0.0
C1600 C 0.55831 1.00412 0.53904 0.0
C1601 C 0.56039 0.01611 0.49449 0.0
C1602 C 0.57665 0.01505 0.46203 0.0
H1603 H 0.63159 0.04296 0.47133 0.0
H1604 H 0.60766 0.04314 0.44635 0.0
H1605 H 0.61302 0.0315 0.50866 0.0
H1606 H 0.59976 0.97961 0.52728 0.0
H1607 H 0.57132 0.98144 0.58371 0.0
H1608 H 0.50591 0.69665 0.2536 0.0
H1609 H 0.49595 0.67387 0.3224 0.0
H1610 H 0.55301 0.672 0.38438 0.0
H1611 H 0.56283 0.69474 0.31642 0.0
H1612 H 0.51016 0.63785 0.32594 0.0
H1613 H 0.52325 0.67272 0.52354 0.0
H1614 H 0.52175 0.68581 0.46139 0.0
H1615 H 0.54338 0.67399 0.47985 0.0
C1616 C 0.51609 0.69195 0.2834 0.0
C1617 C 0.53509 0.69762 0.28009 0.0
C1618 C 0.51045 0.67879 0.32239 0.0
C1619 C 0.52367 0.67128 0.35912 0.0
C1620 C 0.54241 0.67782 0.35757 0.0
H1621 H 0.5394 0.57384 0.55951 0.0
H1622 H 0.54091 0.60418 0.51319 0.0
C1623 C 0.54804 0.69083 0.31859 0.0
C1624 C 0.51868 0.65496 0.39424 0.0
H1625 H 0.52165 0.63867 0.52375 0.0
C1626 C 0.51232 0.63815 0.36935 0.0
C1627 C 0.5217 0.65521 0.45088 0.0
C1628 C 0.52772 0.67297 0.48056 0.0
C1629 C 0.5097 0.62146 0.39891 0.0
C1630 C 0.51311 0.62159 0.45537 0.0
C1631 C 0.51902 0.63852 0.48055 0.0
C1632 C 0.51154 0.60405 0.48815 0.0
C1633 C 0.50418 0.60358 0.36888 0.0
C1634 C 0.49438 0.5941 0.49139 0.0
C1635 C 0.49352 0.57663 0.5176 0.0
C1636 C 0.5098 0.56872 0.54126 0.0
C1637 C 0.52668 0.57927 0.54071 0.0
C1638 C 0.52754 0.59672 0.5145 0.0
H1639 H 0.50643 0.60478 0.32466 0.0
H1640 H 0.51241 0.59127 0.38372 0.0
H1641 H 0.48895 0.6007 0.37565 0.0
H1642 H 0.48172 0.59965 0.47251 0.0
H1643 H 0.48025 0.56903 0.51743 0.0
H1644 H 0.80686 0.55696 0.34069 0.0
H1645 H 0.83327 0.55021 0.40221 0.0
H1646 H 0.85842 0.51402 0.28072 0.0
H1647 H 0.83167 0.52033 0.21998 0.0
H1648 H 0.86553 0.50045 0.38129 0.0
H1649 H 0.88263 0.57697 0.37702 0.0
H1650 H 0.8596 0.57211 0.40372 0.0
H1651 H 0.86472 0.56655 0.33414 0.0
C1652 C 0.81762 0.54692 0.32812 0.0
C1653 C 0.81699 0.53888 0.27593 0.0
C1654 C 0.83293 0.54334 0.3629 0.0
C1655 C 0.84824 0.53202 0.34577 0.0
C1656 C 0.84692 0.52289 0.29505 0.0
H1657 H 0.96536 0.54132 0.44411 0.0
H1658 H 0.93425 0.54312 0.40249 0.0
C1659 C 0.83151 0.52633 0.26046 0.0
C1660 C 0.86616 0.53086 0.37845 0.0
H1661 H 0.90173 0.55798 0.43286 0.0
C1662 C 0.8734 0.51304 0.39277 0.0
C1663 C 0.87675 0.54724 0.39276 0.0
C1664 C 0.87067 0.56678 0.37572 0.0
C1665 C 0.89076 0.51116 0.42075 0.0
C1666 C 0.90112 0.52757 0.43605 0.0
C1667 C 0.89382 0.54537 0.42186 0.0
C1668 C 0.92012 0.52669 0.4635 0.0
C1669 C 0.89815 0.49152 0.43175 0.0
C1670 C 0.92282 0.51716 0.51261 0.0
C1671 C 0.94086 0.51616 0.53674 0.0
C1672 C 0.95663 0.52494 0.51296 0.0
C1673 C 0.95371 0.53481 0.46459 0.0
C1674 C 0.93579 0.53569 0.4403 0.0
H1675 H 0.89129 0.48072 0.40526 0.0
H1676 H 0.91369 0.49075 0.42569 0.0
H1677 H 0.89507 0.48784 0.47427 0.0
H1678 H 0.91099 0.51049 0.53242 0.0
H1679 H 0.94244 0.50846 0.57408 0.0
loop_
_geom_bond_atom_site_label_1
_geom_bond_atom_site_label_2
_geom_bond_distance
_geom_bond_site_symmetry_2
_ccdc_geom_bond_type
C0 C1 1.391 . S
C0 C4 1.391 . S
C0 H42 0.948 . S
C1 C0 1.391 . S
C1 C2 1.391 . S
C2 C1 1.391 . S
C2 H58 0.947 . S
C2 C59 1.392 . S
C3 C4 1.391 . S
C3 C7 1.397 . S
C3 C59 1.419 . S
C4 C0 1.391 . S
C4 C3 1.391 . S
C4 C5 1.399 . S
C5 C4 1.399 . S
C5 C8 1.396 . S
C5 C17 1.453 . S
C5 C18 1.684 . S
H6 C30 0.948 . S
C7 C3 1.397 . S
C7 C8 1.394 . S
C7 C26 1.723 . S
C8 C5 1.396 . S
C8 C7 1.394 . S
C8 C38 1.723 . S
H9 C32 0.947 . S
H10 C33 0.948 . S
H11 C39 0.982 . S
H12 C40 0.979 1_554 S
H13 C40 0.980 . S
H14 C40 0.983 . S
H15 C39 0.979 1_556 S
H16 C39 0.977 1_556 S
C17 C5 1.453 . S
C17 H46 0.982 . S
C17 H47 0.979 . S
C17 H48 0.977 . S
C18 C5 1.684 . S
C18 H43 0.979 . S
C18 H44 0.980 . S
C18 H45 0.983 . S
C19 C20 1.391 1_554 S
C19 C24 1.391 . S
C19 H49 0.948 . S
C20 C19 1.391 1_556 S
C20 C21 1.391 . S
C21 C20 1.391 . S
C21 C22 1.392 . S
C21 H50 0.947 . S
C22 C21 1.392 . S
C22 C23 1.419 1_556 S
C22 H51 0.948 . S
C23 C22 1.419 1_554 S
C23 C24 1.391 . S
C23 C27 1.397 . S
C24 C19 1.391 . S
C24 C23 1.391 . S
C24 C25 1.399 . S
C25 C24 1.399 . S
C25 C26 1.396 . S
C25 C28 1.453 . S
C25 C29 1.684 . S
C26 C7 1.723 . S
C26 C25 1.396 . S
C26 C27 1.394 . S
C27 C23 1.397 . S
C27 C26 1.394 . S
C27 C37 1.723 . S
C28 C25 1.453 . S
C28 H52 0.982 . S
C28 H53 0.979 . S
C28 H54 0.977 . S
C29 C25 1.684 . S
C29 H55 0.979 . S
C29 H56 0.980 . S
C29 H57 0.983 . S
C30 H6 0.948 . S
C30 C31 1.391 . S
C30 C35 1.391 . S
C31 C30 1.391 . S
C31 C32 1.391 . S
C32 H9 0.947 . S
C32 C31 1.391 . S
C32 C33 1.392 . S
C33 H10 0.948 . S
C33 C32 1.392 . S
C33 C34 1.419 . S
C34 C33 1.419 . S
C34 C35 1.391 . S
C34 C38 1.397 . S
C35 C30 1.391 . S
C35 C34 1.391 . S
C35 C36 1.399 . S
C36 C35 1.399 . S
C36 C37 1.396 . S
C36 C39 1.453 . S
C36 C40 1.684 1_554 S
C37 C27 1.723 . S
C37 C36 1.396 . S
C37 C38 1.394 . S
C38 C8 1.723 . S
C38 C34 1.397 . S
C38 C37 1.394 . S
C39 H11 0.982 . S
C39 H15 0.979 1_554 S
C39 H16 0.977 1_554 S
C39 C36 1.453 . S
C40 H12 0.979 1_556 S
C40 H13 0.980 . S
C40 H14 0.983 . S
C40 C36 1.684 1_556 S
H41 C59 0.948 . S
H42 C0 0.948 . S
H43 C18 0.979 . S
H44 C18 0.980 . S
H45 C18 0.983 . S
H46 C17 0.982 . S
H47 C17 0.979 . S
H48 C17 0.977 . S
H49 C19 0.948 . S
H50 C21 0.947 . S
H51 C22 0.948 . S
H52 C28 0.982 . S
H53 C28 0.979 . S
H54 C28 0.977 . S
H55 C29 0.979 . S
H56 C29 0.980 . S
H57 C29 0.983 . S
H58 C2 0.947 . S
C59 C2 1.392 . S
C59 C3 1.419 . S
C59 H41 0.948 . S
C60 C61 1.391 . S
C60 C64 1.391 1_556 S
C60 H102 0.948 . S
C61 C60 1.391 . S
C61 C62 1.391 1_556 S
C62 C61 1.391 1_554 S
C62 H118 0.947 . S
C62 C119 1.392 . S
C63 C64 1.391 . S
C63 C67 1.397 . S
C63 C119 1.419 . S
C64 C60 1.391 1_554 S
C64 C63 1.391 . S
C64 C65 1.399 . S
C65 C64 1.399 . S
C65 C68 1.396 . S
C65 C77 1.461 . S
C65 C78 1.684 1_554 S
H66 C90 0.948 . S
C67 C63 1.397 . S
C67 C68 1.394 . S
C67 C86 1.723 . S
C68 C65 1.396 . S
C68 C67 1.394 . S
C68 C98 1.723 . S
H69 C92 0.947 . S
H70 C93 0.948 . S
H71 C99 0.982 . S
H72 C100 0.979 . S
H73 C100 0.980 . S
H74 C100 0.983 . S
H75 C99 0.979 . S
H76 C99 0.977 . S
C77 C65 1.461 . S
C77 H106 0.989 . S
C77 H107 0.962 1_554 S
C77 H108 0.979 . S
C78 C65 1.684 1_556 S
C78 H103 0.979 . S
C78 H104 0.980 . S
C78 H105 0.983 . S
C79 C80 1.391 . S
C79 C84 1.391 . S
C79 H109 0.948 . S
C80 C79 1.391 . S
C80 C81 1.391 . S
C81 C80 1.391 . S
C81 C82 1.392 . S
C81 H110 0.947 . S
C82 C81 1.392 . S
C82 C83 1.419 . S
C82 H111 0.948 . S
C83 C82 1.419 . S
C83 C84 1.391 . S
C83 C87 1.397 . S
C84 C79 1.391 . S
C84 C83 1.391 . S
C84 C85 1.399 . S
C85 C84 1.399 . S
C85 C86 1.396 . S
C85 C88 1.453 . S
C85 C89 1.684 . S
C86 C67 1.723 . S
C86 C85 1.396 . S
C86 C87 1.394 . S
C87 C83 1.397 . S
C87 C86 1.394 . S
C87 C97 1.723 . S
C88 C85 1.453 . S
C88 H112 0.982 . S
C88 H113 0.979 . S
C88 H114 0.977 . S
C89 C85 1.684 . S
C89 H115 0.979 . S
C89 H116 0.980 . S
C89 H117 0.983 . S
C90 H66 0.948 . S
C90 C91 1.391 . S
C90 C95 1.391 . S
C91 C90 1.391 . S
C91 C92 1.391 . S
C92 H69 0.947 . S
C92 C91 1.391 . S
C92 C93 1.392 . S
C93 H70 0.948 . S
C93 C92 1.392 . S
C93 C94 1.419 . S
C94 C93 1.419 . S
C94 C95 1.391 . S
C94 C98 1.397 . S
C95 C90 1.391 . S
C95 C94 1.391 . S
C95 C96 1.399 . S
C96 C95 1.399 . S
C96 C97 1.396 . S
C96 C99 1.453 . S
C96 C100 1.684 . S
C97 C87 1.723 . S
C97 C96 1.396 . S
C97 C98 1.394 . S
C98 C68 1.723 . S
C98 C94 1.397 . S
C98 C97 1.394 . S
C99 H71 0.982 . S
C99 H75 0.979 . S
C99 H76 0.977 . S
C99 C96 1.453 . S
C100 H72 0.979 . S
C100 H73 0.980 . S
C100 H74 0.983 . S
C100 C96 1.684 . S
H101 C119 0.948 . S
H102 C60 0.948 . S
H103 C78 0.979 . S
H104 C78 0.980 . S
H105 C78 0.983 . S
H106 C77 0.989 . S
H107 C77 0.962 1_556 S
H108 C77 0.979 . S
H109 C79 0.948 . S
H110 C81 0.947 . S
H111 C82 0.948 . S
H112 C88 0.982 . S
H113 C88 0.979 . S
H114 C88 0.977 . S
H115 C89 0.979 . S
H116 C89 0.980 . S
H117 C89 0.983 . S
H118 C62 0.947 . S
C119 C62 1.392 . S
C119 C63 1.419 . S
C119 H101 0.948 . S
C120 C121 1.391 . S
C120 C124 1.391 . S
C120 H162 0.948 . S
C121 C120 1.391 . S
C121 C122 1.391 . S
C122 C121 1.391 . S
C122 H178 0.947 . S
C122 C179 1.392 . S
C123 C124 1.391 . S
C123 C127 1.397 . S
C123 C179 1.419 . S
C124 C120 1.391 . S
C124 C123 1.391 . S
C124 C125 1.399 . S
C125 C124 1.399 . S
C125 C128 1.396 . S
C125 C137 1.453 . S
C125 C138 1.684 . S
H126 C150 0.948 . S
C127 C123 1.397 . S
C127 C128 1.394 . S
C127 C146 1.723 . S
C128 C125 1.396 . S
C128 C127 1.394 . S
C128 C158 1.723 . S
H129 C152 0.947 . S
H130 C153 0.948 . S
H131 C159 0.982 . S
H132 C160 0.979 . S
H133 C160 0.980 . S
H134 C160 0.983 . S
H135 C159 0.979 . S
H136 C159 0.977 . S
C137 C125 1.453 . S
C137 H166 0.982 . S
C137 H167 0.979 . S
C137 H168 0.977 . S
C138 C125 1.684 . S
C138 H163 0.979 . S
C138 H164 0.980 . S
C138 H165 0.983 . S
C139 C140 1.391 . S
C139 C144 1.391 1_556 S
C139 H169 0.948 . S
C140 C139 1.391 . S
C140 C141 1.391 1_556 S
C141 C140 1.391 1_554 S
C141 C142 1.392 . S
C141 H170 0.947 . S
C142 C141 1.392 . S
C142 C143 1.419 . S
C142 H171 0.948 . S
C143 C142 1.419 . S
C143 C144 1.391 . S
C143 C147 1.397 . S
C144 C139 1.391 1_554 S
C144 C143 1.391 . S
C144 C145 1.399 . S
C145 C144 1.399 . S
C145 C146 1.396 . S
C145 C148 1.453 . S
C145 C149 1.684 1_554 S
C146 C127 1.723 . S
C146 C145 1.396 . S
C146 C147 1.394 . S
C147 C143 1.397 . S
C147 C146 1.394 . S
C147 C157 1.723 . S
C148 C145 1.453 . S
C148 H172 0.982 . S
C148 H173 0.979 1_554 S
C148 H174 0.977 . S
C149 C145 1.684 1_556 S
C149 H175 0.979 . S
C149 H176 0.980 . S
C149 H177 0.983 . S
C150 H126 0.948 . S
C150 C151 1.391 . S
C150 C155 1.391 . S
C151 C150 1.391 . S
C151 C152 1.391 . S
C152 H129 0.947 . S
C152 C151 1.391 . S
C152 C153 1.392 . S
C153 H130 0.948 . S
C153 C152 1.392 . S
C153 C154 1.419 . S
C154 C153 1.419 . S
C154 C155 1.391 . S
C154 C158 1.397 . S
C155 C150 1.391 . S
C155 C154 1.391 . S
C155 C156 1.399 . S
C156 C155 1.399 . S
C156 C157 1.396 . S
C156 C159 1.453 . S
C156 C160 1.684 . S
C157 C147 1.723 . S
C157 C156 1.396 . S
C157 C158 1.394 . S
C158 C128 1.723 . S
C158 C154 1.397 . S
C158 C157 1.394 . S
C159 H131 0.982 . S
C159 H135 0.979 . S
C159 H136 0.977 . S
C159 C156 1.453 . S
C160 H132 0.979 . S
C160 H133 0.980 . S
C160 H134 0.983 . S
C160 C156 1.684 . S
H161 C179 0.948 . S
H162 C120 0.948 . S
H163 C138 0.979 . S
H164 C138 0.980 . S
H165 C138 0.983 . S
H166 C137 0.982 . S
H167 C137 0.979 . S
H168 C137 0.977 . S
H169 C139 0.948 . S
H170 C141 0.947 . S
H171 C142 0.948 . S
H172 C148 0.982 . S
H173 C148 0.979 1_556 S
H174 C148 0.977 . S
H175 C149 0.979 . S
H176 C149 0.980 . S
H177 C149 0.983 . S
H178 C122 0.947 . S
C179 C122 1.392 . S
C179 C123 1.419 . S
C179 H161 0.948 . S
C180 C181 1.391 . S
C180 C184 1.391 . S
C180 H222 0.948 . S
C181 C180 1.391 . S
C181 C182 1.391 . S
C182 C181 1.391 . S
C182 H238 0.947 . S
C182 C239 1.392 . S
C183 C184 1.391 . S
C183 C187 1.397 . S
C183 C239 1.419 . S
C184 C180 1.391 . S
C184 C183 1.391 . S
C184 C185 1.399 . S
C185 C184 1.399 . S
C185 C188 1.396 . S
C185 C197 1.453 . S
C185 C198 1.684 . S
H186 C210 0.948 . S
C187 C183 1.397 . S
C187 C188 1.394 . S
C187 C206 1.723 . S
C188 C185 1.396 . S
C188 C187 1.394 . S
C188 C218 1.723 . S
H189 C212 0.947 . S
H190 C213 0.948 . S
H191 C219 0.982 . S
H192 C220 0.979 1_554 S
H193 C220 0.980 . S
H194 C220 0.983 . S
H195 C219 0.979 1_556 S
H196 C219 0.977 1_556 S
C197 C185 1.453 . S
C197 H226 0.982 . S
C197 H227 0.979 . S
C197 H228 0.977 . S
C198 C185 1.684 . S
C198 H223 0.979 . S
C198 H224 0.980 . S
C198 H225 0.983 . S
C199 C200 1.391 1_554 S
C199 C204 1.391 . S
C199 H229 0.948 . S
C200 C199 1.391 1_556 S
C200 C201 1.391 . S
C201 C200 1.391 . S
C201 C202 1.392 . S
C201 H230 0.947 . S
C202 C201 1.392 . S
C202 C203 1.419 1_556 S
C202 H231 0.948 . S
C203 C202 1.419 1_554 S
C203 C204 1.391 . S
C203 C207 1.397 . S
C204 C199 1.391 . S
C204 C203 1.391 . S
C204 C205 1.399 . S
C205 C204 1.399 . S
C205 C206 1.396 . S
C205 C208 1.453 . S
C205 C209 1.684 . S
C206 C187 1.723 . S
C206 C205 1.396 . S
C206 C207 1.394 . S
C207 C203 1.397 . S
C207 C206 1.394 . S
C207 C217 1.723 . S
C208 C205 1.453 . S
C208 H232 0.982 . S
C208 H233 0.979 . S
C208 H234 0.977 . S
C209 C205 1.684 . S
C209 H235 0.979 . S
C209 H236 0.980 . S
C209 H237 0.983 . S
C210 H186 0.948 . S
C210 C211 1.391 . S
C210 C215 1.391 . S
C211 C210 1.391 . S
C211 C212 1.391 . S
C212 H189 0.947 . S
C212 C211 1.391 . S
C212 C213 1.392 . S
C213 H190 0.948 . S
C213 C212 1.392 . S
C213 C214 1.419 . S
C214 C213 1.419 . S
C214 C215 1.391 . S
C214 C218 1.397 . S
C215 C210 1.391 . S
C215 C214 1.391 . S
C215 C216 1.399 . S
C216 C215 1.399 . S
C216 C217 1.396 . S
C216 C219 1.453 . S
C216 C220 1.684 1_554 S
C217 C207 1.723 . S
C217 C216 1.396 . S
C217 C218 1.394 . S
C218 C188 1.723 . S
C218 C214 1.397 . S
C218 C217 1.394 . S
C219 H191 0.982 . S
C219 H195 0.979 1_554 S
C219 H196 0.977 1_554 S
C219 C216 1.453 . S
C220 H192 0.979 1_556 S
C220 H193 0.980 . S
C220 H194 0.983 . S
C220 C216 1.684 1_556 S
H221 C239 0.948 . S
H222 C180 0.948 . S
H223 C198 0.979 . S
H224 C198 0.980 . S
H225 C198 0.983 . S
H226 C197 0.982 . S
H227 C197 0.979 . S
H228 C197 0.977 . S
H229 C199 0.948 . S
H230 C201 0.947 . S
H231 C202 0.948 . S
H232 C208 0.982 . S
H233 C208 0.979 . S
H234 C208 0.977 . S
H235 C209 0.979 . S
H236 C209 0.980 . S
H237 C209 0.983 . S
H238 C182 0.947 . S
C239 C182 1.392 . S
C239 C183 1.419 . S
C239 H221 0.948 . S
C240 C241 1.391 . S
C240 C244 1.391 . S
C240 H282 0.948 1_554 S
C241 C240 1.391 . S
C241 C242 1.391 . S
C242 C241 1.391 . S
C242 H298 0.947 . S
C242 C299 1.392 . S
C243 C244 1.391 . S
C243 C247 1.397 . S
C243 C299 1.419 . S
C244 C240 1.391 . S
C244 C243 1.391 . S
C244 C245 1.399 1_554 S
C245 C244 1.399 1_556 S
C245 C248 1.396 . S
C245 C257 1.453 . S
C245 C258 1.684 . S
H246 C270 0.948 . S
C247 C243 1.397 . S
C247 C248 1.394 1_554 S
C247 C266 1.723 . S
C248 C245 1.396 . S
C248 C247 1.394 1_556 S
C248 C278 1.723 . S
H249 C272 0.947 . S
H250 C273 0.948 . S
H251 C279 0.982 . S
H252 C280 0.979 . S
H253 C280 0.980 . S
H254 C280 0.983 . S
H255 C279 0.979 . S
H256 C279 0.977 . S
C257 C245 1.453 . S
C257 H286 0.982 . S
C257 H287 0.979 . S
C257 H288 0.977 . S
C258 C245 1.684 . S
C258 H283 0.979 . S
C258 H284 0.980 . S
C258 H285 0.983 . S
C259 C260 1.391 . S
C259 C264 1.391 . S
C259 H289 0.948 . S
C260 C259 1.391 . S
C260 C261 1.391 . S
C261 C260 1.391 . S
C261 C262 1.392 . S
C261 H290 0.947 . S
C262 C261 1.392 . S
C262 C263 1.419 . S
C262 H291 0.948 . S
C263 C262 1.419 . S
C263 C264 1.391 . S
C263 C267 1.397 . S
C264 C259 1.391 . S
C264 C263 1.391 . S
C264 C265 1.399 . S
C265 C264 1.399 . S
C265 C266 1.396 . S
C265 C268 1.453 . S
C265 C269 1.684 . S
C266 C247 1.723 . S
C266 C265 1.396 . S
C266 C267 1.394 . S
C267 C263 1.397 . S
C267 C266 1.394 . S
C267 C277 1.723 1_554 S
C268 C265 1.453 . S
C268 H292 0.982 . S
C268 H293 0.979 . S
C268 H294 0.977 . S
C269 C265 1.684 . S
C269 H295 0.979 . S
C269 H296 0.980 . S
C269 H297 0.983 . S
C270 H246 0.948 . S
C270 C271 1.391 . S
C270 C275 1.391 . S
C271 C270 1.391 . S
C271 C272 1.391 . S
C272 H249 0.947 . S
C272 C271 1.391 . S
C272 C273 1.392 . S
C273 H250 0.948 . S
C273 C272 1.392 . S
C273 C274 1.419 . S
C274 C273 1.419 . S
C274 C275 1.391 . S
C274 C278 1.397 . S
C275 C270 1.391 . S
C275 C274 1.391 . S
C275 C276 1.399 . S
C276 C275 1.399 . S
C276 C277 1.396 . S
C276 C279 1.453 . S
C276 C280 1.684 . S
C277 C267 1.723 1_556 S
C277 C276 1.396 . S
C277 C278 1.394 . S
C278 C248 1.723 . S
C278 C274 1.397 . S
C278 C277 1.394 . S
C279 H251 0.982 . S
C279 H255 0.979 . S
C279 H256 0.977 . S
C279 C276 1.453 . S
C280 H252 0.979 . S
C280 H253 0.980 . S
C280 H254 0.983 . S
C280 C276 1.684 . S
H281 C299 0.948 . S
H282 C240 0.948 1_556 S
H283 C258 0.979 . S
H284 C258 0.980 . S
H285 C258 0.983 . S
H286 C257 0.982 . S
H287 C257 0.979 . S
H288 C257 0.977 . S
H289 C259 0.948 . S
H290 C261 0.947 . S
H291 C262 0.948 . S
H292 C268 0.982 . S
H293 C268 0.979 . S
H294 C268 0.977 . S
H295 C269 0.979 . S
H296 C269 0.980 . S
H297 C269 0.983 . S
H298 C242 0.947 . S
C299 C242 1.392 . S
C299 C243 1.419 . S
C299 H281 0.948 . S
C300 C301 1.391 . S
C300 C304 1.391 . S
C300 H342 0.948 . S
C301 C300 1.391 . S
C301 C302 1.391 . S
C302 C301 1.391 . S
C302 H358 0.947 . S
C302 C359 1.392 . S
C303 C304 1.391 . S
C303 C307 1.397 . S
C303 C359 1.419 . S
C304 C300 1.391 . S
C304 C303 1.391 . S
C304 C305 1.399 . S
C305 C304 1.399 . S
C305 C308 1.396 . S
C305 C317 1.453 . S
C305 C318 1.684 . S
H306 C330 0.948 1_556 S
C307 C303 1.397 . S
C307 C308 1.394 . S
C307 C326 1.723 1_554 S
C308 C305 1.396 . S
C308 C307 1.394 . S
C308 C338 1.723 . S
H309 C332 0.947 . S
H310 C333 0.948 . S
H311 C339 0.982 . S
H312 C340 0.979 . S
H313 C340 0.980 . S
H314 C340 0.983 . S
H315 C339 0.979 . S
H316 C339 0.977 . S
C317 C305 1.453 . S
C317 H346 0.982 . S
C317 H347 0.979 . S
C317 H348 0.977 . S
C318 C305 1.684 . S
C318 H343 0.979 . S
C318 H344 0.980 . S
C318 H345 0.983 . S
C319 C320 1.391 . S
C319 C324 1.391 . S
C319 H349 0.948 . S
C320 C319 1.391 . S
C320 C321 1.391 . S
C321 C320 1.391 . S
C321 C322 1.392 . S
C321 H350 0.947 . S
C322 C321 1.392 . S
C322 C323 1.419 . S
C322 H351 0.948 . S
C323 C322 1.419 . S
C323 C324 1.391 . S
C323 C327 1.397 . S
C324 C319 1.391 . S
C324 C323 1.391 . S
C324 C325 1.399 . S
C325 C324 1.399 . S
C325 C326 1.396 . S
C325 C328 1.453 . S
C325 C329 1.684 . S
C326 C307 1.723 1_556 S
C326 C325 1.396 . S
C326 C327 1.394 . S
C327 C323 1.397 . S
C327 C326 1.394 . S
C327 C337 1.723 . S
C328 C325 1.453 . S
C328 H352 0.982 . S
C328 H353 0.979 . S
C328 H354 0.977 . S
C329 C325 1.684 . S
C329 H355 0.979 . S
C329 H356 0.980 . S
C329 H357 0.983 . S
C330 H306 0.948 1_554 S
C330 C331 1.391 . S
C330 C335 1.391 . S
C331 C330 1.391 . S
C331 C332 1.391 . S
C332 H309 0.947 . S
C332 C331 1.391 . S
C332 C333 1.392 . S
C333 H310 0.948 . S
C333 C332 1.392 . S
C333 C334 1.419 . S
C334 C333 1.419 . S
C334 C335 1.391 . S
C334 C338 1.397 . S
C335 C330 1.391 . S
C335 C334 1.391 . S
C335 C336 1.399 1_554 S
C336 C335 1.399 1_556 S
C336 C337 1.396 . S
C336 C339 1.453 . S
C336 C340 1.684 . S
C337 C327 1.723 . S
C337 C336 1.396 . S
C337 C338 1.394 1_556 S
C338 C308 1.723 . S
C338 C334 1.397 . S
C338 C337 1.394 1_554 S
C339 H311 0.982 . S
C339 H315 0.979 . S
C339 H316 0.977 . S
C339 C336 1.453 . S
C340 H312 0.979 . S
C340 H313 0.980 . S
C340 H314 0.983 . S
C340 C336 1.684 . S
H341 C359 0.948 . S
H342 C300 0.948 . S
H343 C318 0.979 . S
H344 C318 0.980 . S
H345 C318 0.983 . S
H346 C317 0.982 . S
H347 C317 0.979 . S
H348 C317 0.977 . S
H349 C319 0.948 . S
H350 C321 0.947 . S
H351 C322 0.948 . S
H352 C328 0.982 . S
H353 C328 0.979 . S
H354 C328 0.977 . S
H355 C329 0.979 . S
H356 C329 0.980 . S
H357 C329 0.983 . S
H358 C302 0.947 . S
C359 C302 1.392 . S
C359 C303 1.419 . S
C359 H341 0.948 . S
C360 C361 1.391 . S
C360 C364 1.391 . S
C360 H402 0.948 . S
C361 C360 1.391 . S
C361 C362 1.391 . S
C362 C361 1.391 . S
C362 H418 0.947 . S
C362 C419 1.392 . S
C363 C364 1.391 . S
C363 C367 1.397 . S
C363 C419 1.419 . S
C364 C360 1.391 . S
C364 C363 1.391 . S
C364 C365 1.399 . S
C365 C364 1.399 . S
C365 C368 1.396 . S
C365 C377 1.453 . S
C365 C378 1.684 . S
H366 C390 0.948 . S
C367 C363 1.397 . S
C367 C368 1.394 . S
C367 C386 1.723 1_556 S
C368 C365 1.396 . S
C368 C367 1.394 . S
C368 C398 1.723 1_556 S
H369 C392 0.947 . S
H370 C393 0.948 . S
H371 C399 0.982 . S
H372 C400 0.979 . S
H373 C400 0.980 . S
H374 C400 0.983 . S
H375 C399 0.979 . S
H376 C399 0.977 . S
C377 C365 1.453 . S
C377 H406 0.982 . S
C377 H407 0.979 . S
C377 H408 0.977 . S
C378 C365 1.684 . S
C378 H403 0.979 . S
C378 H404 0.980 . S
C378 H405 0.983 . S
C379 C380 1.391 . S
C379 C384 1.391 . S
C379 H409 0.948 . S
C380 C379 1.391 . S
C380 C381 1.391 . S
C381 C380 1.391 . S
C381 C382 1.392 . S
C381 H410 0.947 . S
C382 C381 1.392 . S
C382 C383 1.419 . S
C382 H411 0.948 . S
C383 C382 1.419 . S
C383 C384 1.391 . S
C383 C387 1.397 . S
C384 C379 1.391 . S
C384 C383 1.391 . S
C384 C385 1.399 . S
C385 C384 1.399 . S
C385 C386 1.396 . S
C385 C388 1.453 . S
C385 C389 1.680 1_554 S
C386 C367 1.723 1_554 S
C386 C385 1.396 . S
C386 C387 1.394 . S
C387 C383 1.397 . S
C387 C386 1.394 . S
C387 C397 1.723 . S
C388 C385 1.453 . S
C388 H412 0.982 . S
C388 H413 0.979 . S
C388 H414 0.977 1_554 S
C389 C385 1.680 1_556 S
C389 H415 0.977 1_556 S
C389 H416 0.989 . S
C389 H417 0.980 1_556 S
C390 H366 0.948 . S
C390 C391 1.391 . S
C390 C395 1.391 . S
C391 C390 1.391 . S
C391 C392 1.391 1_554 S
C392 H369 0.947 . S
C392 C391 1.391 1_556 S
C392 C393 1.392 . S
C393 H370 0.948 . S
C393 C392 1.392 . S
C393 C394 1.419 1_556 S
C394 C393 1.419 1_554 S
C394 C395 1.391 . S
C394 C398 1.397 . S
C395 C390 1.391 . S
C395 C394 1.391 . S
C395 C396 1.399 . S
C396 C395 1.399 . S
C396 C397 1.396 . S
C396 C399 1.453 . S
C396 C400 1.684 . S
C397 C387 1.723 . S
C397 C396 1.396 . S
C397 C398 1.394 . S
C398 C368 1.723 1_554 S
C398 C394 1.397 . S
C398 C397 1.394 . S
C399 H371 0.982 . S
C399 H375 0.979 . S
C399 H376 0.977 . S
C399 C396 1.453 . S
C400 H372 0.979 . S
C400 H373 0.980 . S
C400 H374 0.983 . S
C400 C396 1.684 . S
H401 C419 0.948 . S
H402 C360 0.948 . S
H403 C378 0.979 . S
H404 C378 0.980 . S
H405 C378 0.983 . S
H406 C377 0.982 . S
H407 C377 0.979 . S
H408 C377 0.977 . S
H409 C379 0.948 . S
H410 C381 0.947 . S
H411 C382 0.948 . S
H412 C388 0.982 . S
H413 C388 0.979 . S
H414 C388 0.977 1_556 S
H415 C389 0.977 1_554 S
H416 C389 0.989 . S
H417 C389 0.980 1_554 S
H418 C362 0.947 . S
C419 C362 1.392 . S
C419 C363 1.419 . S
C419 H401 0.948 . S
C420 C421 1.391 . S
C420 C424 1.391 . S
C420 H462 0.948 . S
C421 C420 1.391 . S
C421 C422 1.391 . S
C422 C421 1.391 . S
C422 H478 0.947 . S
C422 C479 1.392 . S
C423 C424 1.391 . S
C423 C427 1.397 . S
C423 C479 1.419 . S
C424 C420 1.391 . S
C424 C423 1.391 . S
C424 C425 1.399 . S
C425 C424 1.399 . S
C425 C428 1.396 . S
C425 C437 1.453 . S
C425 C438 1.684 . S
H426 C450 0.948 . S
C427 C423 1.397 . S
C427 C428 1.394 . S
C427 C446 1.723 1_556 S
C428 C425 1.396 . S
C428 C427 1.394 . S
C428 C458 1.723 1_556 S
H429 C452 0.947 1_556 S
H430 C453 0.948 . S
H431 C459 0.982 . S
H432 C460 0.979 . S
H433 C460 0.980 . S
H434 C460 0.983 . S
H435 C459 0.979 . S
H436 C459 0.977 . S
C437 C425 1.453 . S
C437 H466 0.982 . S
C437 H467 0.979 . S
C437 H468 0.977 . S
C438 C425 1.684 . S
C438 H463 0.979 . S
C438 H464 0.980 . S
C438 H465 0.983 . S
C439 C440 1.391 . S
C439 C444 1.391 . S
C439 H469 0.948 . S
C440 C439 1.391 . S
C440 C441 1.391 . S
C441 C440 1.391 . S
C441 C442 1.392 . S
C441 H470 0.947 . S
C442 C441 1.392 . S
C442 C443 1.419 . S
C442 H471 0.948 . S
C443 C442 1.419 . S
C443 C444 1.391 . S
C443 C447 1.397 . S
C444 C439 1.391 . S
C444 C443 1.391 . S
C444 C445 1.399 . S
C445 C444 1.399 . S
C445 C446 1.396 . S
C445 C448 1.453 . S
C445 C449 1.684 . S
C446 C427 1.723 1_554 S
C446 C445 1.396 . S
C446 C447 1.394 . S
C447 C443 1.397 . S
C447 C446 1.394 . S
C447 C457 1.723 . S
C448 C445 1.453 . S
C448 H472 0.982 . S
C448 H473 0.979 . S
C448 H474 0.977 1_554 S
C449 C445 1.684 . S
C449 H475 0.979 . S
C449 H476 0.980 1_554 S
C449 H477 0.983 . S
C450 H426 0.948 . S
C450 C451 1.391 . S
C450 C455 1.391 . S
C451 C450 1.391 . S
C451 C452 1.391 . S
C452 H429 0.947 1_554 S
C452 C451 1.391 . S
C452 C453 1.392 1_554 S
C453 H430 0.948 . S
C453 C452 1.392 1_556 S
C453 C454 1.419 1_556 S
C454 C453 1.419 1_554 S
C454 C455 1.391 . S
C454 C458 1.397 . S
C455 C450 1.391 . S
C455 C454 1.391 . S
C455 C456 1.399 . S
C456 C455 1.399 . S
C456 C457 1.396 . S
C456 C459 1.453 . S
C456 C460 1.684 . S
C457 C447 1.723 . S
C457 C456 1.396 . S
C457 C458 1.394 . S
C458 C428 1.723 1_554 S
C458 C454 1.397 . S
C458 C457 1.394 . S
C459 H431 0.982 . S
C459 H435 0.979 . S
C459 H436 0.977 . S
C459 C456 1.453 . S
C460 H432 0.979 . S
C460 H433 0.980 . S
C460 H434 0.983 . S
C460 C456 1.684 . S
H461 C479 0.948 . S
H462 C420 0.948 . S
H463 C438 0.979 . S
H464 C438 0.980 . S
H465 C438 0.983 . S
H466 C437 0.982 . S
H467 C437 0.979 . S
H468 C437 0.977 . S
H469 C439 0.948 . S
H470 C441 0.947 . S
H471 C442 0.948 . S
H472 C448 0.982 . S
H473 C448 0.979 . S
H474 C448 0.977 1_556 S
H475 C449 0.979 . S
H476 C449 0.980 1_556 S
H477 C449 0.983 . S
H478 C422 0.947 . S
C479 C422 1.392 . S
C479 C423 1.419 . S
C479 H461 0.948 . S
Eu480 N511 2.657 1_565 S
Eu480 N518 2.609 . S
Eu480 O524 2.558 . S
Eu480 O525 2.612 1_455 S
Eu480 O527 2.339 1_455 S
Eu480 O528 2.563 . S
Eu480 O529 2.419 . S
Eu480 O531 2.380 1_565 S
Eu480 O532 2.432 . S
Eu480 C544 2.848 . S
C481 C484 1.416 1_545 S
C481 C485 1.411 . S
C481 N488 1.377 . S
C482 C484 1.439 . S
C482 C486 1.423 . S
C482 C494 1.392 . S
C483 C485 1.420 1_565 S
C483 C486 1.351 . S
C483 H506 0.931 . S
C484 C481 1.416 1_565 S
C484 C482 1.439 . S
C484 N492 1.357 1_565 S
C485 C481 1.411 . S
C485 C483 1.420 1_545 S
C485 C490 1.395 . S
C486 C482 1.423 . S
C486 C483 1.351 . S
C486 H498 0.930 . S
C487 C489 1.400 . S
C487 C490 1.386 . S
C487 H499 0.930 . S
N488 C481 1.377 . S
N488 C489 1.321 . S
N488 Eu491 2.609 . S
C489 C487 1.400 . S
C489 N488 1.321 . S
C489 H496 0.930 . S
C490 C485 1.395 . S
C490 C487 1.386 . S
C490 H509 0.930 . S
Eu491 N488 2.609 . S
Eu491 N492 2.657 . S
Eu491 O525 2.380 1_545 S
Eu491 O526 2.432 . S
Eu491 O530 2.558 . S
Eu491 O531 2.612 1_655 S
Eu491 O533 2.339 1_655 S
Eu491 O534 2.563 1_655 S
Eu491 O535 2.419 . S
Eu491 C555 2.848 . S
N492 C484 1.357 1_545 S
N492 Eu491 2.657 . S
N492 C493 1.334 1_645 S
C493 N492 1.334 1_465 S
C493 C495 1.413 . S
C493 H500 0.929 . S
C494 C482 1.392 . S
C494 C495 1.367 1_655 S
C494 H502 0.930 . S
C495 C493 1.413 . S
C495 C494 1.367 1_455 S
C495 H497 0.930 . S
H496 C489 0.930 . S
H497 C495 0.930 . S
H498 C486 0.930 . S
H499 C487 0.930 . S
H500 C493 0.929 . S
H501 C515 0.930 1_655 S
H502 C494 0.930 . S
H503 C521 0.930 . S
H504 C512 0.929 1_655 S
H505 C519 0.930 . S
H506 C483 0.931 . S
H507 C513 0.930 . S
H508 C546 0.930 . S
H509 C490 0.930 . S
H510 C545 0.931 . S
N511 Eu480 2.657 1_545 S
N511 C512 1.334 . S
N511 C516 1.362 . S
C512 H504 0.929 1_455 S
C512 N511 1.334 . S
C512 C515 1.413 . S
C513 H507 0.930 . S
C513 C514 1.392 . S
C513 C515 1.367 . S
C514 C513 1.392 . S
C514 C516 1.420 . S
C514 C546 1.423 . S
C515 H501 0.930 1_455 S
C515 C512 1.413 . S
C515 C513 1.367 . S
C516 N511 1.362 . S
C516 C514 1.420 . S
C516 C520 1.429 . S
H517 C522 0.930 . S
N518 Eu480 2.609 . S
N518 C520 1.377 1_565 S
N518 C521 1.321 . S
C519 H505 0.930 . S
C519 C521 1.400 . S
C519 C522 1.386 . S
C520 C516 1.429 . S
C520 N518 1.377 1_545 S
C520 C523 1.411 . S
C521 H503 0.930 . S
C521 N518 1.321 . S
C521 C519 1.400 . S
C522 H517 0.930 . S
C522 C519 1.386 . S
C522 C523 1.395 1_565 S
C523 C520 1.411 . S
C523 C522 1.395 1_545 S
C523 C545 1.420 . S
O524 Eu480 2.558 . S
O524 C544 1.257 . S
O525 Eu480 2.612 1_655 S
O525 Eu491 2.380 1_565 S
O525 C536 1.276 . S
O526 Eu491 2.432 . S
O526 C543 1.264 . S
O527 Eu480 2.339 1_655 S
O527 C543 1.254 1_565 S
O528 Eu480 2.563 . S
O528 C536 1.235 1_455 S
O529 Eu480 2.419 . S
O529 C544 1.249 . S
O530 Eu491 2.558 . S
O530 C555 1.257 . S
O531 Eu480 2.380 1_545 S
O531 Eu491 2.612 1_455 S
O531 C547 1.276 . S
O532 Eu480 2.432 . S
O532 C554 1.264 1_565 S
O533 Eu491 2.339 1_455 S
O533 C554 1.254 . S
O534 Eu491 2.563 1_455 S
O534 C547 1.235 . S
O535 Eu491 2.419 . S
O535 C555 1.249 . S
C536 O525 1.276 . S
C536 O528 1.235 1_655 S
C537 C539 1.393 . S
C537 C541 1.395 . S
C537 C544 1.492 . S
C538 C539 1.392 . S
C538 C540 1.386 . S
C539 C537 1.393 . S
C539 C538 1.392 . S
C539 H556 0.930 1_455 S
C540 C538 1.386 . S
C540 C542 1.395 . S
C540 H557 0.930 . S
C541 C537 1.395 . S
C541 C542 1.379 . S
C541 H558 0.930 . S
C542 C540 1.395 . S
C542 C541 1.379 . S
C542 H559 0.930 . S
C543 O526 1.264 . S
C543 O527 1.254 1_545 S
C544 Eu480 2.848 . S
C544 O524 1.257 . S
C544 O529 1.249 . S
C544 C537 1.492 . S
C545 H510 0.931 . S
C545 C523 1.420 . S
C545 C546 1.351 . S
C546 H508 0.930 . S
C546 C514 1.423 . S
C546 C545 1.351 . S
C547 O531 1.276 . S
C547 O534 1.235 . S
C548 C549 1.393 . S
C548 C552 1.395 . S
C548 C555 1.492 . S
C549 C548 1.393 . S
C549 C550 1.392 . S
C549 H560 0.930 1_655 S
C550 C549 1.392 . S
C550 C551 1.386 . S
C551 C550 1.386 . S
C551 C553 1.395 . S
C551 H561 0.930 . S
C552 C548 1.395 . S
C552 C553 1.379 . S
C552 H562 0.930 . S
C553 C551 1.395 . S
C553 C552 1.379 . S
C553 H563 0.930 . S
C554 O532 1.264 1_545 S
C554 O533 1.254 . S
C555 Eu491 2.848 . S
C555 O530 1.257 . S
C555 O535 1.249 . S
C555 C548 1.492 . S
H556 C539 0.930 1_655 S
H557 C540 0.930 . S
H558 C541 0.930 . S
H559 C542 0.930 . S
H560 C549 0.930 1_455 S
H561 C551 0.930 . S
H562 C552 0.930 . S
H563 C553 0.930 . S
Eu564 N595 2.657 . S
Eu564 N602 2.609 . S
Eu564 O608 2.558 . S
Eu564 O609 2.612 1_545 S
Eu564 O611 2.339 1_545 S
Eu564 O612 2.563 . S
Eu564 O613 2.419 . S
Eu564 O615 2.380 . S
Eu564 O616 2.432 . S
Eu564 C628 2.848 . S
C565 C568 1.429 . S
C565 C569 1.411 . S
C565 N572 1.377 . S
C566 C568 1.420 . S
C566 C570 1.423 . S
C566 C578 1.392 . S
C567 C569 1.420 . S
C567 C570 1.351 . S
C567 H590 0.931 . S
C568 C565 1.429 . S
C568 C566 1.420 . S
C568 N576 1.362 . S
C569 C565 1.411 . S
C569 C567 1.420 . S
C569 C574 1.395 . S
C570 C566 1.423 . S
C570 C567 1.351 . S
C570 H582 0.930 . S
C571 C573 1.400 . S
C571 C574 1.386 . S
C571 H583 0.930 . S
N572 C565 1.377 . S
N572 C573 1.321 . S
N572 Eu575 2.609 . S
C573 C571 1.400 . S
C573 N572 1.321 . S
C573 H580 0.930 . S
C574 C569 1.395 . S
C574 C571 1.386 . S
C574 H593 0.930 . S
Eu575 N572 2.609 . S
Eu575 N576 2.657 . S
Eu575 O609 2.380 . S
Eu575 O610 2.432 . S
Eu575 O614 2.558 . S
Eu575 O615 2.612 1_565 S
Eu575 O617 2.339 1_565 S
Eu575 O618 2.563 1_565 S
Eu575 O619 2.419 . S
Eu575 C639 2.848 . S
N576 C568 1.362 . S
N576 Eu575 2.657 . S
N576 C577 1.334 1_565 S
C577 N576 1.334 1_545 S
C577 C579 1.413 . S
C577 H584 0.929 . S
C578 C566 1.392 . S
C578 C579 1.367 1_565 S
C578 H586 0.930 . S
C579 C577 1.413 . S
C579 C578 1.367 1_545 S
C579 H581 0.930 . S
H580 C573 0.930 . S
H581 C579 0.930 . S
H582 C570 0.930 . S
H583 C571 0.930 . S
H584 C577 0.929 . S
H585 C599 0.930 1_565 S
H586 C578 0.930 . S
H587 C605 0.930 . S
H588 C596 0.929 1_565 S
H589 C603 0.930 . S
H590 C567 0.931 . S
H591 C597 0.930 . S
H592 C630 0.930 . S
H593 C574 0.930 . S
H594 C629 0.931 . S
N595 Eu564 2.657 . S
N595 C596 1.334 . S
N595 C600 1.362 . S
C596 H588 0.929 1_545 S
C596 N595 1.334 . S
C596 C599 1.413 . S
C597 H591 0.930 . S
C597 C598 1.392 . S
C597 C599 1.367 . S
C598 C597 1.392 . S
C598 C600 1.420 . S
C598 C630 1.423 . S
C599 H585 0.930 1_545 S
C599 C596 1.413 . S
C599 C597 1.367 . S
C600 N595 1.362 . S
C600 C598 1.420 . S
C600 C604 1.429 . S
H601 C606 0.930 . S
N602 Eu564 2.609 . S
N602 C604 1.377 . S
N602 C605 1.321 . S
C603 H589 0.930 . S
C603 C605 1.400 . S
C603 C606 1.386 . S
C604 C600 1.429 . S
C604 N602 1.377 . S
C604 C607 1.411 . S
C605 H587 0.930 . S
C605 N602 1.321 . S
C605 C603 1.400 . S
C606 H601 0.930 . S
C606 C603 1.386 . S
C606 C607 1.395 . S
C607 C604 1.411 . S
C607 C606 1.395 . S
C607 C629 1.420 . S
O608 Eu564 2.558 . S
O608 C628 1.257 . S
O609 Eu564 2.612 1_565 S
O609 Eu575 2.380 . S
O609 C620 1.276 . S
O610 Eu575 2.432 . S
O610 C627 1.264 . S
O611 Eu564 2.339 1_565 S
O611 C627 1.254 . S
O612 Eu564 2.563 . S
O612 C620 1.235 1_545 S
O613 Eu564 2.419 . S
O613 C628 1.249 . S
O614 Eu575 2.558 . S
O614 C639 1.257 . S
O615 Eu564 2.380 . S
O615 Eu575 2.612 1_545 S
O615 C631 1.276 . S
O616 Eu564 2.432 . S
O616 C638 1.264 . S
O617 Eu575 2.339 1_545 S
O617 C638 1.254 . S
O618 Eu575 2.563 1_545 S
O618 C631 1.235 . S
O619 Eu575 2.419 . S
O619 C639 1.249 . S
C620 O609 1.276 . S
C620 O612 1.235 1_565 S
C621 C623 1.393 . S
C621 C625 1.395 . S
C621 C628 1.492 . S
C622 C623 1.392 . S
C622 C624 1.386 . S
C623 C621 1.393 . S
C623 C622 1.392 . S
C623 H640 0.951 . S
C624 C622 1.386 . S
C624 C626 1.395 . S
C624 H641 0.930 . S
C625 C621 1.395 . S
C625 C626 1.379 . S
C625 H642 0.930 . S
C626 C624 1.395 . S
C626 C625 1.379 . S
C626 H643 0.930 . S
C627 O610 1.264 . S
C627 O611 1.254 . S
C628 Eu564 2.848 . S
C628 O608 1.257 . S
C628 O613 1.249 . S
C628 C621 1.492 . S
C629 H594 0.931 . S
C629 C607 1.420 . S
C629 C630 1.351 . S
C630 H592 0.930 . S
C630 C598 1.423 . S
C630 C629 1.351 . S
C631 O615 1.276 . S
C631 O618 1.235 . S
C632 C633 1.393 . S
C632 C636 1.395 . S
C632 C639 1.492 . S
C633 C632 1.393 . S
C633 C634 1.392 . S
C633 H644 0.930 1_565 S
C634 C633 1.392 . S
C634 C635 1.386 . S
C635 C634 1.386 . S
C635 C637 1.395 . S
C635 H645 0.930 . S
C636 C632 1.395 . S
C636 C637 1.379 . S
C636 H646 0.930 . S
C637 C635 1.395 . S
C637 C636 1.379 . S
C637 H647 0.930 . S
C638 O616 1.264 . S
C638 O617 1.254 . S
C639 Eu575 2.848 . S
C639 O614 1.257 . S
C639 O619 1.249 . S
C639 C632 1.492 . S
H640 C623 0.951 . S
H641 C624 0.930 . S
H642 C625 0.930 . S
H643 C626 0.930 . S
H644 C633 0.930 1_545 S
H645 C635 0.930 . S
H646 C636 0.930 . S
H647 C637 0.930 . S
Eu648 N679 2.657 . S
Eu648 N686 2.609 . S
Eu648 O692 2.558 . S
Eu648 O693 2.612 . S
Eu648 O695 2.339 . S
Eu648 O696 2.563 . S
Eu648 O697 2.419 . S
Eu648 O699 2.380 . S
Eu648 O700 2.432 . S
Eu648 C712 2.848 . S
C649 C652 1.429 . S
C649 C653 1.411 . S
C649 N656 1.377 . S
C650 C652 1.420 . S
C650 C654 1.423 . S
C650 C662 1.392 . S
C651 C653 1.420 . S
C651 C654 1.351 . S
C651 H674 0.931 . S
C652 C649 1.429 . S
C652 C650 1.420 . S
C652 N660 1.362 . S
C653 C649 1.411 . S
C653 C651 1.420 . S
C653 C658 1.395 . S
C654 C650 1.423 . S
C654 C651 1.351 . S
C654 H666 0.930 . S
C655 C657 1.400 . S
C655 C658 1.386 . S
C655 H667 0.930 . S
N656 C649 1.377 . S
N656 C657 1.321 . S
N656 Eu659 2.609 . S
C657 C655 1.400 . S
C657 N656 1.321 . S
C657 H664 0.930 . S
C658 C653 1.395 . S
C658 C655 1.386 . S
C658 H677 0.930 . S
Eu659 N656 2.609 . S
Eu659 N660 2.657 . S
Eu659 O693 2.380 . S
Eu659 O694 2.432 . S
Eu659 O698 2.558 . S
Eu659 O699 2.612 . S
Eu659 O701 2.339 . S
Eu659 O702 2.563 . S
Eu659 O703 2.419 . S
Eu659 C723 2.848 . S
N660 C652 1.362 . S
N660 Eu659 2.657 . S
N660 C661 1.334 . S
C661 N660 1.334 . S
C661 C663 1.413 . S
C661 H668 0.929 . S
C662 C650 1.392 . S
C662 C663 1.367 . S
C662 H670 0.930 . S
C663 C661 1.413 . S
C663 C662 1.367 . S
C663 H665 0.930 . S
H664 C657 0.930 . S
H665 C663 0.930 . S
H666 C654 0.930 . S
H667 C655 0.930 . S
H668 C661 0.929 . S
H669 C683 0.930 . S
H670 C662 0.930 . S
H671 C689 0.930 . S
H672 C680 0.929 . S
H673 C687 0.930 . S
H674 C651 0.931 . S
H675 C681 0.930 . S
H676 C714 0.930 . S
H677 C658 0.930 . S
H678 C713 0.931 . S
N679 Eu648 2.657 . S
N679 C680 1.334 . S
N679 C684 1.362 . S
C680 H672 0.929 . S
C680 N679 1.334 . S
C680 C683 1.413 . S
C681 H675 0.930 . S
C681 C682 1.392 . S
C681 C683 1.367 . S
C682 C681 1.392 . S
C682 C684 1.420 . S
C682 C714 1.423 . S
C683 H669 0.930 . S
C683 C680 1.413 . S
C683 C681 1.367 . S
C684 N679 1.362 . S
C684 C682 1.420 . S
C684 C688 1.429 . S
H685 C690 0.930 . S
N686 Eu648 2.609 . S
N686 C688 1.377 . S
N686 C689 1.321 . S
C687 H673 0.930 . S
C687 C689 1.400 . S
C687 C690 1.386 . S
C688 C684 1.429 . S
C688 N686 1.377 . S
C688 C691 1.411 . S
C689 H671 0.930 . S
C689 N686 1.321 . S
C689 C687 1.400 . S
C690 H685 0.930 . S
C690 C687 1.386 . S
C690 C691 1.395 . S
C691 C688 1.411 . S
C691 C690 1.395 . S
C691 C713 1.420 . S
O692 Eu648 2.558 . S
O692 C712 1.257 . S
O693 Eu648 2.612 . S
O693 Eu659 2.380 . S
O693 C704 1.276 . S
O694 Eu659 2.432 . S
O694 C711 1.264 . S
O695 Eu648 2.339 . S
O695 C711 1.254 . S
O696 Eu648 2.563 . S
O696 C704 1.235 . S
O697 Eu648 2.419 . S
O697 C712 1.249 . S
O698 Eu659 2.558 . S
O698 C723 1.257 . S
O699 Eu648 2.380 . S
O699 Eu659 2.612 . S
O699 C715 1.276 . S
O700 Eu648 2.432 . S
O700 C722 1.264 . S
O701 Eu659 2.339 . S
O701 C722 1.254 . S
O702 Eu659 2.563 . S
O702 C715 1.235 . S
O703 Eu659 2.419 . S
O703 C723 1.249 . S
C704 O693 1.276 . S
C704 O696 1.235 . S
C705 C707 1.393 . S
C705 C709 1.395 . S
C705 C712 1.492 . S
C706 C707 1.392 . S
C706 C708 1.386 . S
C707 C705 1.393 . S
C707 C706 1.392 . S
C707 H724 0.930 . S
C708 C706 1.386 . S
C708 C710 1.395 . S
C708 H725 0.930 . S
C709 C705 1.395 . S
C709 C710 1.379 . S
C709 H726 0.930 . S
C710 C708 1.395 . S
C710 C709 1.379 . S
C710 H727 0.930 . S
C711 O694 1.264 . S
C711 O695 1.254 . S
C712 Eu648 2.848 . S
C712 O692 1.257 . S
C712 O697 1.249 . S
C712 C705 1.492 . S
C713 H678 0.931 . S
C713 C691 1.420 . S
C713 C714 1.351 . S
C714 H676 0.930 . S
C714 C682 1.423 . S
C714 C713 1.351 . S
C715 O699 1.276 . S
C715 O702 1.235 . S
C716 C717 1.393 . S
C716 C720 1.395 . S
C716 C723 1.492 . S
C717 C716 1.393 . S
C717 C718 1.392 . S
C717 H728 0.930 . S
C718 C717 1.392 . S
C718 C719 1.386 . S
C719 C718 1.386 . S
C719 C721 1.395 . S
C719 H729 0.930 . S
C720 C716 1.395 . S
C720 C721 1.379 . S
C720 H730 0.930 . S
C721 C719 1.395 . S
C721 C720 1.379 . S
C721 H731 0.930 . S
C722 O700 1.264 . S
C722 O701 1.254 . S
C723 Eu659 2.848 . S
C723 O698 1.257 . S
C723 O703 1.249 . S
C723 C716 1.492 . S
H724 C707 0.930 . S
H725 C708 0.930 . S
H726 C709 0.930 . S
H727 C710 0.930 . S
H728 C717 0.930 . S
H729 C719 0.930 . S
H730 C720 0.930 . S
H731 C721 0.930 . S
Eu732 N763 2.657 . S
Eu732 N770 2.609 . S
Eu732 O776 2.558 . S
Eu732 O777 2.612 . S
Eu732 O779 2.339 . S
Eu732 O780 2.563 . S
Eu732 O781 2.419 . S
Eu732 O783 2.402 . S
Eu732 O784 2.432 1_455 S
Eu732 C796 2.848 . S
C733 C736 1.429 . S
C733 C737 1.411 . S
C733 N740 1.377 . S
C734 C736 1.420 . S
C734 C738 1.423 . S
C734 C746 1.392 . S
C735 C737 1.420 . S
C735 C738 1.351 . S
C735 H758 0.931 . S
C736 C733 1.429 . S
C736 C734 1.420 . S
C736 N744 1.362 . S
C737 C733 1.411 . S
C737 C735 1.420 . S
C737 C742 1.395 . S
C738 C734 1.423 . S
C738 C735 1.351 . S
C738 H750 0.930 . S
C739 C741 1.400 . S
C739 C742 1.386 1_455 S
C739 H751 0.930 . S
N740 C733 1.377 . S
N740 C741 1.321 1_655 S
N740 Eu743 2.609 . S
C741 C739 1.400 . S
C741 N740 1.321 1_455 S
C741 H748 0.930 . S
C742 C737 1.395 . S
C742 C739 1.386 1_655 S
C742 H761 0.930 . S
Eu743 N740 2.609 . S
Eu743 N744 2.657 . S
Eu743 O777 2.380 1_655 S
Eu743 O778 2.432 1_655 S
Eu743 O782 2.558 . S
Eu743 O783 2.599 1_655 S
Eu743 O785 2.339 . S
Eu743 O786 2.563 . S
Eu743 O787 2.419 . S
Eu743 C807 2.848 . S
N744 C736 1.362 . S
N744 Eu743 2.657 . S
N744 C745 1.334 . S
C745 N744 1.334 . S
C745 C747 1.413 . S
C745 H752 0.929 . S
C746 C734 1.392 . S
C746 C747 1.367 . S
C746 H754 0.930 . S
C747 C745 1.413 . S
C747 C746 1.367 . S
C747 H749 0.930 . S
H748 C741 0.930 . S
H749 C747 0.930 . S
H750 C738 0.930 . S
H751 C739 0.930 . S
H752 C745 0.929 . S
H753 C767 0.930 . S
H754 C746 0.930 . S
H755 C773 0.930 1_655 S
H756 C764 0.929 . S
H757 C771 0.930 1_655 S
H758 C735 0.931 . S
H759 C765 0.930 . S
H760 C798 0.930 . S
H761 C742 0.930 . S
H762 C797 0.931 . S
N763 Eu732 2.657 . S
N763 C764 1.334 . S
N763 C768 1.362 . S
C764 H756 0.929 . S
C764 N763 1.334 . S
C764 C767 1.413 . S
C765 H759 0.930 . S
C765 C766 1.392 . S
C765 C767 1.367 . S
C766 C765 1.392 . S
C766 C768 1.420 . S
C766 C798 1.423 . S
C767 H753 0.930 . S
C767 C764 1.413 . S
C767 C765 1.367 . S
C768 N763 1.362 . S
C768 C766 1.420 . S
C768 C772 1.429 . S
H769 C774 0.930 . S
N770 Eu732 2.609 . S
N770 C772 1.377 . S
N770 C773 1.321 . S
C771 H757 0.930 1_455 S
C771 C773 1.400 . S
C771 C774 1.386 . S
C772 C768 1.429 . S
C772 N770 1.377 . S
C772 C775 1.411 . S
C773 H755 0.930 1_455 S
C773 N770 1.321 . S
C773 C771 1.400 . S
C774 H769 0.930 . S
C774 C771 1.386 . S
C774 C775 1.395 . S
C775 C772 1.411 . S
C775 C774 1.395 . S
C775 C797 1.420 . S
O776 Eu732 2.558 . S
O776 C796 1.257 . S
O777 Eu732 2.612 . S
O777 Eu743 2.380 1_455 S
O777 C788 1.276 . S
O778 Eu743 2.432 1_455 S
O778 C795 1.264 . S
O779 Eu732 2.339 . S
O779 C795 1.254 . S
O780 Eu732 2.563 . S
O780 C788 1.235 . S
O781 Eu732 2.419 . S
O781 C796 1.249 . S
O782 Eu743 2.558 . S
O782 C807 1.257 . S
O783 Eu732 2.402 . S
O783 Eu743 2.599 1_455 S
O783 C799 1.262 1_455 S
O784 Eu732 2.432 1_655 S
O784 C806 1.264 . S
O785 Eu743 2.339 . S
O785 C806 1.254 . S
O786 Eu743 2.563 . S
O786 C799 1.235 . S
O787 Eu743 2.419 . S
O787 C807 1.249 . S
C788 O777 1.276 . S
C788 O780 1.235 . S
C789 C791 1.393 . S
C789 C793 1.395 . S
C789 C796 1.492 . S
C790 C791 1.392 . S
C790 C792 1.386 . S
C791 C789 1.393 . S
C791 C790 1.392 . S
C791 H808 0.930 . S
C792 C790 1.386 . S
C792 C794 1.395 . S
C792 H809 0.930 . S
C793 C789 1.395 . S
C793 C794 1.379 . S
C793 H810 0.930 . S
C794 C792 1.395 . S
C794 C793 1.379 . S
C794 H811 0.930 . S
C795 O778 1.264 . S
C795 O779 1.254 . S
C796 Eu732 2.848 . S
C796 O776 1.257 . S
C796 O781 1.249 . S
C796 C789 1.492 . S
C797 H762 0.931 . S
C797 C775 1.420 . S
C797 C798 1.351 . S
C798 H760 0.930 . S
C798 C766 1.423 . S
C798 C797 1.351 . S
C799 O783 1.262 1_655 S
C799 O786 1.235 . S
C800 C801 1.393 . S
C800 C804 1.395 . S
C800 C807 1.492 . S
C801 C800 1.393 . S
C801 C802 1.392 . S
C801 H812 0.930 . S
C802 C801 1.392 . S
C802 C803 1.386 . S
C803 C802 1.386 . S
C803 C805 1.395 . S
C803 H813 0.930 . S
C804 C800 1.395 . S
C804 C805 1.379 . S
C804 H814 0.930 . S
C805 C803 1.395 . S
C805 C804 1.379 . S
C805 H815 0.930 . S
C806 O784 1.264 . S
C806 O785 1.254 . S
C807 Eu743 2.848 . S
C807 O782 1.257 . S
C807 O787 1.249 . S
C807 C800 1.492 . S
H808 C791 0.930 . S
H809 C792 0.930 . S
H810 C793 0.930 . S
H811 C794 0.930 . S
H812 C801 0.930 . S
H813 C803 0.930 . S
H814 C804 0.930 . S
H815 C805 0.930 . S
H816 C824 0.929 . S
H817 C826 0.930 . S
H818 C828 0.930 . S
H819 C831 0.929 . S
H820 C834 0.930 . S
H821 C836 0.960 . S
H822 C836 0.960 . S
H823 C836 0.960 . S
C824 H816 0.929 . S
C824 C825 1.377 . S
C824 C826 1.384 . S
C825 C824 1.377 . S
C825 C831 1.390 . S
C826 H817 0.930 . S
C826 C824 1.384 . S
C826 C827 1.372 . S
C827 C826 1.372 . S
C827 C828 1.400 . S
C827 C832 1.490 . S
C828 H818 0.930 . S
C828 C827 1.400 . S
C828 C831 1.386 . S
H829 C845 0.930 . S
H830 C846 0.931 . S
C831 H819 0.929 . S
C831 C825 1.390 . S
C831 C828 1.386 . S
C832 C827 1.490 . S
C832 C834 1.395 . S
C832 C835 1.403 . S
H833 C839 0.930 . S
C834 H820 0.930 . S
C834 C832 1.395 . S
C834 C837 1.403 . S
C835 C832 1.403 . S
C835 C836 1.524 . S
C835 C839 1.400 . S
C836 H821 0.960 . S
C836 H822 0.960 . S
C836 H823 0.960 . S
C836 C835 1.524 . S
C837 C834 1.403 . S
C837 C838 1.392 . S
C837 C841 1.495 . S
C838 C837 1.392 . S
C838 C839 1.385 . S
C838 C840 1.478 . S
C839 H833 0.930 . S
C839 C835 1.400 . S
C839 C838 1.385 . S
C840 C838 1.478 . S
C840 C842 1.381 . S
C840 C846 1.383 . S
C841 C837 1.495 . S
C841 H847 0.959 1_545 S
C841 H848 0.961 1_545 S
C841 H849 0.960 . S
C842 C840 1.381 . S
C842 C843 1.394 . S
C842 H850 0.930 . S
C843 C842 1.394 . S
C843 C844 1.383 . S
C843 H851 0.929 . S
C844 C843 1.383 . S
C844 C845 1.377 . S
C845 H829 0.930 . S
C845 C844 1.377 . S
C845 C846 1.379 . S
C846 H830 0.931 . S
C846 C840 1.383 . S
C846 C845 1.379 . S
H847 C841 0.959 1_565 S
H848 C841 0.961 1_565 S
H849 C841 0.960 . S
H850 C842 0.930 . S
H851 C843 0.929 . S
H852 C860 0.929 . S
H853 C862 0.930 . S
H854 C864 0.930 . S
H855 C867 0.929 . S
H856 C870 0.930 . S
H857 C872 0.960 . S
H858 C872 0.960 . S
H859 C872 0.960 . S
C860 H852 0.929 . S
C860 C861 1.377 . S
C860 C862 1.384 . S
C861 C860 1.377 . S
C861 C867 1.390 . S
C862 H853 0.930 . S
C862 C860 1.384 . S
C862 C863 1.372 . S
C863 C862 1.372 . S
C863 C864 1.400 . S
C863 C868 1.490 . S
C864 H854 0.930 . S
C864 C863 1.400 . S
C864 C867 1.386 . S
H865 C881 0.930 . S
H866 C882 0.931 . S
C867 H855 0.929 . S
C867 C861 1.390 . S
C867 C864 1.386 . S
C868 C863 1.490 . S
C868 C870 1.395 . S
C868 C871 1.403 . S
H869 C875 0.930 . S
C870 H856 0.930 . S
C870 C868 1.395 . S
C870 C873 1.403 . S
C871 C868 1.403 . S
C871 C872 1.524 . S
C871 C875 1.400 . S
C872 H857 0.960 . S
C872 H858 0.960 . S
C872 H859 0.960 . S
C872 C871 1.524 . S
C873 C870 1.403 . S
C873 C874 1.392 . S
C873 C877 1.495 . S
C874 C873 1.392 . S
C874 C875 1.385 . S
C874 C876 1.478 . S
C875 H869 0.930 . S
C875 C871 1.400 . S
C875 C874 1.385 . S
C876 C874 1.478 . S
C876 C878 1.381 . S
C876 C882 1.383 . S
C877 C873 1.495 . S
C877 H883 0.959 . S
C877 H884 0.961 . S
C877 H885 0.960 . S
C878 C876 1.381 . S
C878 C879 1.394 . S
C878 H886 0.930 . S
C879 C878 1.394 . S
C879 C880 1.383 . S
C879 H887 0.929 . S
C880 C879 1.383 . S
C880 C881 1.377 . S
C881 H865 0.930 . S
C881 C880 1.377 . S
C881 C882 1.379 . S
C882 H866 0.931 . S
C882 C876 1.383 . S
C882 C881 1.379 . S
H883 C877 0.959 . S
H884 C877 0.961 . S
H885 C877 0.960 . S
H886 C878 0.930 . S
H887 C879 0.929 . S
H888 C896 0.929 . S
H889 C898 0.930 . S
H890 C900 0.930 . S
H891 C903 0.929 . S
H892 C906 0.930 . S
H893 C908 0.960 . S
H894 C908 0.960 . S
H895 C908 0.960 . S
C896 H888 0.929 . S
C896 C897 1.377 . S
C896 C898 1.384 . S
C897 C896 1.377 . S
C897 C903 1.390 . S
C898 H889 0.930 . S
C898 C896 1.384 . S
C898 C899 1.372 . S
C899 C898 1.372 . S
C899 C900 1.400 . S
C899 C904 1.490 . S
C900 H890 0.930 . S
C900 C899 1.400 . S
C900 C903 1.386 . S
H901 C917 0.930 . S
H902 C918 0.931 . S
C903 H891 0.929 . S
C903 C897 1.390 . S
C903 C900 1.386 . S
C904 C899 1.490 . S
C904 C906 1.395 . S
C904 C907 1.403 . S
H905 C911 0.930 . S
C906 H892 0.930 . S
C906 C904 1.395 . S
C906 C909 1.403 . S
C907 C904 1.403 . S
C907 C908 1.524 . S
C907 C911 1.400 . S
C908 H893 0.960 . S
C908 H894 0.960 . S
C908 H895 0.960 . S
C908 C907 1.524 . S
C909 C906 1.403 . S
C909 C910 1.392 . S
C909 C913 1.495 . S
C910 C909 1.392 . S
C910 C911 1.385 . S
C910 C912 1.478 . S
C911 H905 0.930 . S
C911 C907 1.400 . S
C911 C910 1.385 . S
C912 C910 1.478 . S
C912 C914 1.381 . S
C912 C918 1.383 . S
C913 C909 1.495 . S
C913 H919 0.959 . S
C913 H920 0.961 . S
C913 H921 0.960 . S
C914 C912 1.381 . S
C914 C915 1.394 . S
C914 H922 0.930 . S
C915 C914 1.394 . S
C915 C916 1.383 . S
C915 H923 0.929 . S
C916 C915 1.383 . S
C916 C917 1.377 . S
C917 H901 0.930 . S
C917 C916 1.377 . S
C917 C918 1.379 . S
C918 H902 0.931 . S
C918 C912 1.383 . S
C918 C917 1.379 . S
H919 C913 0.959 . S
H920 C913 0.961 . S
H921 C913 0.960 . S
H922 C914 0.930 . S
H923 C915 0.929 . S
H924 C932 0.929 . S
H925 C934 0.930 . S
H926 C936 0.930 . S
H927 C939 0.929 . S
H928 C942 0.930 . S
H929 C944 0.960 . S
H930 C944 0.960 . S
H931 C944 0.960 . S
C932 H924 0.929 . S
C932 C933 1.377 . S
C932 C934 1.384 . S
C933 C932 1.377 . S
C933 C939 1.390 . S
C934 H925 0.930 . S
C934 C932 1.384 . S
C934 C935 1.372 . S
C935 C934 1.372 . S
C935 C936 1.400 . S
C935 C940 1.490 . S
C936 H926 0.930 . S
C936 C935 1.400 . S
C936 C939 1.386 . S
H937 C953 0.930 1_655 S
H938 C954 0.931 . S
C939 H927 0.929 . S
C939 C933 1.390 . S
C939 C936 1.386 . S
C940 C935 1.490 . S
C940 C942 1.395 . S
C940 C943 1.403 . S
H941 C947 0.930 . S
C942 H928 0.930 . S
C942 C940 1.395 . S
C942 C945 1.403 . S
C943 C940 1.403 . S
C943 C944 1.524 . S
C943 C947 1.400 . S
C944 H929 0.960 . S
C944 H930 0.960 . S
C944 H931 0.960 . S
C944 C943 1.524 . S
C945 C942 1.403 . S
C945 C946 1.392 . S
C945 C949 1.495 . S
C946 C945 1.392 . S
C946 C947 1.385 . S
C946 C948 1.478 . S
C947 H941 0.930 . S
C947 C943 1.400 . S
C947 C946 1.385 . S
C948 C946 1.478 . S
C948 C950 1.381 . S
C948 C954 1.383 . S
C949 C945 1.495 . S
C949 H955 0.959 . S
C949 H956 0.961 . S
C949 H957 0.960 . S
C950 C948 1.381 . S
C950 C951 1.394 . S
C950 H958 0.930 . S
C951 C950 1.394 . S
C951 C952 1.383 . S
C951 H959 0.929 . S
C952 C951 1.383 . S
C952 C953 1.377 . S
C953 H937 0.930 1_455 S
C953 C952 1.377 . S
C953 C954 1.379 . S
C954 H938 0.931 . S
C954 C948 1.383 . S
C954 C953 1.379 . S
H955 C949 0.959 . S
H956 C949 0.961 . S
H957 C949 0.960 . S
H958 C950 0.930 . S
H959 C951 0.929 . S
H960 C968 0.929 . S
H961 C970 0.930 . S
H962 C972 0.930 . S
H963 C975 0.929 . S
H964 C978 0.930 . S
H965 C980 0.960 1_545 S
H966 C980 0.960 . S
H967 C980 0.960 . S
C968 H960 0.929 . S
C968 C969 1.377 . S
C968 C970 1.384 . S
C969 C968 1.377 . S
C969 C975 1.390 . S
C970 H961 0.930 . S
C970 C968 1.384 . S
C970 C971 1.372 1_554 S
C971 C970 1.372 1_556 S
C971 C972 1.400 . S
C971 C976 1.490 . S
C972 H962 0.930 . S
C972 C971 1.400 . S
C972 C975 1.386 1_556 S
H973 C989 0.930 . S
H974 C990 0.931 . S
C975 H963 0.929 . S
C975 C969 1.390 . S
C975 C972 1.386 1_554 S
C976 C971 1.490 . S
C976 C978 1.395 . S
C976 C979 1.403 . S
H977 C983 0.930 . S
C978 H964 0.930 . S
C978 C976 1.395 . S
C978 C981 1.403 . S
C979 C976 1.403 . S
C979 C980 1.524 . S
C979 C983 1.400 . S
C980 H965 0.960 1_565 S
C980 H966 0.960 . S
C980 H967 0.960 . S
C980 C979 1.524 . S
C981 C978 1.403 . S
C981 C982 1.392 . S
C981 C985 1.495 . S
C982 C981 1.392 . S
C982 C983 1.385 . S
C982 C984 1.478 . S
C983 H977 0.930 . S
C983 C979 1.400 . S
C983 C982 1.385 . S
C984 C982 1.478 . S
C984 C986 1.381 . S
C984 C990 1.383 . S
C985 C981 1.495 . S
C985 H991 0.959 . S
C985 H992 0.961 . S
C985 H993 0.960 . S
C986 C984 1.381 . S
C986 C987 1.394 . S
C986 H994 0.930 . S
C987 C986 1.394 . S
C987 C988 1.383 . S
C987 H995 0.929 . S
C988 C987 1.383 . S
C988 C989 1.377 . S
C989 H973 0.930 . S
C989 C988 1.377 . S
C989 C990 1.379 . S
C990 H974 0.931 . S
C990 C984 1.383 . S
C990 C989 1.379 . S
H991 C985 0.959 . S
H992 C985 0.961 . S
H993 C985 0.960 . S
H994 C986 0.930 . S
H995 C987 0.929 . S
H996 C1004 0.929 . S
H997 C1006 0.930 . S
H998 C1008 0.930 . S
H999 C1011 0.929 . S
H1000 C1014 0.930 . S
H1001 C1016 0.960 . S
H1002 C1016 0.960 . S
H1003 C1016 0.960 . S
C1004 H996 0.929 . S
C1004 C1005 1.377 . S
C1004 C1006 1.384 1_554 S
C1005 C1004 1.377 . S
C1005 C1011 1.390 . S
C1006 H997 0.930 . S
C1006 C1004 1.384 1_556 S
C1006 C1007 1.372 . S
C1007 C1006 1.372 . S
C1007 C1008 1.400 . S
C1007 C1012 1.490 . S
C1008 H998 0.930 . S
C1008 C1007 1.400 . S
C1008 C1011 1.386 1_556 S
H1009 C1025 0.930 . S
H1010 C1026 0.931 . S
C1011 H999 0.929 . S
C1011 C1005 1.390 . S
C1011 C1008 1.386 1_554 S
C1012 C1007 1.490 . S
C1012 C1014 1.395 . S
C1012 C1015 1.403 . S
H1013 C1019 0.930 . S
C1014 H1000 0.930 . S
C1014 C1012 1.395 . S
C1014 C1017 1.403 . S
C1015 C1012 1.403 . S
C1015 C1016 1.524 . S
C1015 C1019 1.400 . S
C1016 H1001 0.960 . S
C1016 H1002 0.960 . S
C1016 H1003 0.960 . S
C1016 C1015 1.524 . S
C1017 C1014 1.403 . S
C1017 C1018 1.392 . S
C1017 C1021 1.495 . S
C1018 C1017 1.392 . S
C1018 C1019 1.385 . S
C1018 C1020 1.478 . S
C1019 H1013 0.930 . S
C1019 C1015 1.400 . S
C1019 C1018 1.385 . S
C1020 C1018 1.478 . S
C1020 C1022 1.381 . S
C1020 C1026 1.383 . S
C1021 C1017 1.495 . S
C1021 H1027 0.959 . S
C1021 H1028 0.961 . S
C1021 H1029 0.960 . S
C1022 C1020 1.381 . S
C1022 C1023 1.394 . S
C1022 H1030 0.930 . S
C1023 C1022 1.394 . S
C1023 C1024 1.383 . S
C1023 H1031 0.929 . S
C1024 C1023 1.383 . S
C1024 C1025 1.377 . S
C1025 H1009 0.930 . S
C1025 C1024 1.377 . S
C1025 C1026 1.379 . S
C1026 H1010 0.931 . S
C1026 C1020 1.383 . S
C1026 C1025 1.379 . S
H1027 C1021 0.959 . S
H1028 C1021 0.961 . S
H1029 C1021 0.960 . S
H1030 C1022 0.930 . S
H1031 C1023 0.929 . S
H1032 C1040 0.929 . S
H1033 C1042 0.928 1_554 S
H1034 C1044 0.930 . S
H1035 C1047 0.929 . S
H1036 C1050 0.930 . S
H1037 C1052 0.960 . S
H1038 C1052 0.960 . S
H1039 C1052 0.960 . S
C1040 H1032 0.929 . S
C1040 C1041 1.377 . S
C1040 C1042 1.372 1_554 S
C1041 C1040 1.377 . S
C1041 C1047 1.390 1_554 S
C1042 H1033 0.928 1_556 S
C1042 C1040 1.372 1_556 S
C1042 C1043 1.386 . S
C1043 C1042 1.386 . S
C1043 C1044 1.400 . S
C1043 C1048 1.490 . S
C1044 H1034 0.930 . S
C1044 C1043 1.400 . S
C1044 C1047 1.386 . S
H1045 C1061 0.930 . S
H1046 C1062 0.931 . S
C1047 H1035 0.929 . S
C1047 C1041 1.390 1_556 S
C1047 C1044 1.386 . S
C1048 C1043 1.490 . S
C1048 C1050 1.395 . S
C1048 C1051 1.403 . S
H1049 C1055 0.930 . S
C1050 H1036 0.930 . S
C1050 C1048 1.395 . S
C1050 C1053 1.403 . S
C1051 C1048 1.403 . S
C1051 C1052 1.524 . S
C1051 C1055 1.400 . S
C1052 H1037 0.960 . S
C1052 H1038 0.960 . S
C1052 H1039 0.960 . S
C1052 C1051 1.524 . S
C1053 C1050 1.403 . S
C1053 C1054 1.392 . S
C1053 C1057 1.495 . S
C1054 C1053 1.392 . S
C1054 C1055 1.385 . S
C1054 C1056 1.478 . S
C1055 H1049 0.930 . S
C1055 C1051 1.400 . S
C1055 C1054 1.385 . S
C1056 C1054 1.478 . S
C1056 C1058 1.381 . S
C1056 C1062 1.383 . S
C1057 C1053 1.495 . S
C1057 H1063 0.959 . S
C1057 H1064 0.961 . S
C1057 H1065 0.960 . S
C1058 C1056 1.381 . S
C1058 C1059 1.394 . S
C1058 H1066 0.930 . S
C1059 C1058 1.394 . S
C1059 C1060 1.383 . S
C1059 H1067 0.929 . S
C1060 C1059 1.383 . S
C1060 C1061 1.377 . S
C1061 H1045 0.930 . S
C1061 C1060 1.377 . S
C1061 C1062 1.379 . S
C1062 H1046 0.931 . S
C1062 C1056 1.383 . S
C1062 C1061 1.379 . S
H1063 C1057 0.959 . S
H1064 C1057 0.961 . S
H1065 C1057 0.960 . S
H1066 C1058 0.930 . S
H1067 C1059 0.929 . S
H1068 C1076 0.929 . S
H1069 C1078 0.930 . S
H1070 C1080 0.930 . S
H1071 C1083 0.929 . S
H1072 C1086 0.930 . S
H1073 C1088 0.960 . S
H1074 C1088 0.960 . S
H1075 C1088 0.960 . S
C1076 H1068 0.929 . S
C1076 C1077 1.377 . S
C1076 C1078 1.384 1_554 S
C1077 C1076 1.377 . S
C1077 C1083 1.390 . S
C1078 H1069 0.930 . S
C1078 C1076 1.384 1_556 S
C1078 C1079 1.372 . S
C1079 C1078 1.372 . S
C1079 C1080 1.400 . S
C1079 C1084 1.490 . S
C1080 H1070 0.930 . S
C1080 C1079 1.400 . S
C1080 C1083 1.386 1_556 S
H1081 C1097 0.930 1_455 S
H1082 C1098 0.931 . S
C1083 H1071 0.929 . S
C1083 C1077 1.390 . S
C1083 C1080 1.386 1_554 S
C1084 C1079 1.490 . S
C1084 C1086 1.395 . S
C1084 C1087 1.403 . S
H1085 C1091 0.930 . S
C1086 H1072 0.930 . S
C1086 C1084 1.395 . S
C1086 C1089 1.403 . S
C1087 C1084 1.403 . S
C1087 C1088 1.524 . S
C1087 C1091 1.400 . S
C1088 H1073 0.960 . S
C1088 H1074 0.960 . S
C1088 H1075 0.960 . S
C1088 C1087 1.524 . S
C1089 C1086 1.403 . S
C1089 C1090 1.392 . S
C1089 C1093 1.495 . S
C1090 C1089 1.392 . S
C1090 C1091 1.385 . S
C1090 C1092 1.478 . S
C1091 H1085 0.930 . S
C1091 C1087 1.400 . S
C1091 C1090 1.385 . S
C1092 C1090 1.478 . S
C1092 C1094 1.381 . S
C1092 C1098 1.383 . S
C1093 C1089 1.495 . S
C1093 H1099 0.959 . S
C1093 H1100 0.961 . S
C1093 H1101 0.960 . S
C1094 C1092 1.381 . S
C1094 C1095 1.394 . S
C1094 H1102 0.930 . S
C1095 C1094 1.394 . S
C1095 C1096 1.383 . S
C1095 H1103 0.929 . S
C1096 C1095 1.383 . S
C1096 C1097 1.377 . S
C1097 H1081 0.930 1_655 S
C1097 C1096 1.377 . S
C1097 C1098 1.379 . S
C1098 H1082 0.931 . S
C1098 C1092 1.383 . S
C1098 C1097 1.379 . S
H1099 C1093 0.959 . S
H1100 C1093 0.961 . S
H1101 C1093 0.960 . S
H1102 C1094 0.930 . S
H1103 C1095 0.929 . S
H1104 C1112 0.929 . S
H1105 C1114 0.930 . S
H1106 C1116 0.930 . S
H1107 C1119 0.929 . S
H1108 C1122 0.930 . S
H1109 C1124 0.960 . S
H1110 C1124 0.960 . S
H1111 C1124 0.960 . S
C1112 H1104 0.929 . S
C1112 C1113 1.377 . S
C1112 C1114 1.384 . S
C1113 C1112 1.377 . S
C1113 C1119 1.390 . S
C1114 H1105 0.930 . S
C1114 C1112 1.384 . S
C1114 C1115 1.372 . S
C1115 C1114 1.372 . S
C1115 C1116 1.400 . S
C1115 C1120 1.490 . S
C1116 H1106 0.930 . S
C1116 C1115 1.400 . S
C1116 C1119 1.386 . S
H1117 C1133 0.930 . S
H1118 C1134 0.931 . S
C1119 H1107 0.929 . S
C1119 C1113 1.390 . S
C1119 C1116 1.386 . S
C1120 C1115 1.490 . S
C1120 C1122 1.395 . S
C1120 C1123 1.403 . S
H1121 C1127 0.930 . S
C1122 H1108 0.930 . S
C1122 C1120 1.395 . S
C1122 C1125 1.403 . S
C1123 C1120 1.403 . S
C1123 C1124 1.524 . S
C1123 C1127 1.400 . S
C1124 H1109 0.960 . S
C1124 H1110 0.960 . S
C1124 H1111 0.960 . S
C1124 C1123 1.524 . S
C1125 C1122 1.403 . S
C1125 C1126 1.392 . S
C1125 C1129 1.495 . S
C1126 C1125 1.392 . S
C1126 C1127 1.385 . S
C1126 C1128 1.478 . S
C1127 H1121 0.930 . S
C1127 C1123 1.400 . S
C1127 C1126 1.385 . S
C1128 C1126 1.478 . S
C1128 C1130 1.381 . S
C1128 C1134 1.383 . S
C1129 C1125 1.495 . S
C1129 H1135 0.959 . S
C1129 H1136 0.961 . S
C1129 H1137 0.960 . S
C1130 C1128 1.381 . S
C1130 C1131 1.394 . S
C1130 H1138 0.930 . S
C1131 C1130 1.394 . S
C1131 C1132 1.383 . S
C1131 H1139 0.929 . S
C1132 C1131 1.383 . S
C1132 C1133 1.377 . S
C1133 H1117 0.930 . S
C1133 C1132 1.377 . S
C1133 C1134 1.379 . S
C1134 H1118 0.931 . S
C1134 C1128 1.383 . S
C1134 C1133 1.379 . S
H1135 C1129 0.959 . S
H1136 C1129 0.961 . S
H1137 C1129 0.960 . S
H1138 C1130 0.930 . S
H1139 C1131 0.929 . S
H1140 C1148 0.929 . S
H1141 C1150 0.930 . S
H1142 C1152 0.930 . S
H1143 C1155 0.929 . S
H1144 C1158 0.930 . S
H1145 C1160 0.960 . S
H1146 C1160 0.960 . S
H1147 C1160 0.960 . S
C1148 H1140 0.929 . S
C1148 C1149 1.377 . S
C1148 C1150 1.384 . S
C1149 C1148 1.377 . S
C1149 C1155 1.390 . S
C1150 H1141 0.930 . S
C1150 C1148 1.384 . S
C1150 C1151 1.372 . S
C1151 C1150 1.372 . S
C1151 C1152 1.400 . S
C1151 C1156 1.490 . S
C1152 H1142 0.930 . S
C1152 C1151 1.400 . S
C1152 C1155 1.386 . S
H1153 C1169 0.930 . S
H1154 C1170 0.931 . S
C1155 H1143 0.929 . S
C1155 C1149 1.390 . S
C1155 C1152 1.386 . S
C1156 C1151 1.490 . S
C1156 C1158 1.395 . S
C1156 C1159 1.403 . S
H1157 C1163 0.930 . S
C1158 H1144 0.930 . S
C1158 C1156 1.395 . S
C1158 C1161 1.403 . S
C1159 C1156 1.403 . S
C1159 C1160 1.524 . S
C1159 C1163 1.400 . S
C1160 H1145 0.960 . S
C1160 H1146 0.960 . S
C1160 H1147 0.960 . S
C1160 C1159 1.524 . S
C1161 C1158 1.403 . S
C1161 C1162 1.392 . S
C1161 C1165 1.495 . S
C1162 C1161 1.392 . S
C1162 C1163 1.385 . S
C1162 C1164 1.478 . S
C1163 H1157 0.930 . S
C1163 C1159 1.400 . S
C1163 C1162 1.385 . S
C1164 C1162 1.478 . S
C1164 C1166 1.381 . S
C1164 C1170 1.383 . S
C1165 C1161 1.495 . S
C1165 H1171 0.959 . S
C1165 H1172 0.961 . S
C1165 H1173 0.960 . S
C1166 C1164 1.381 . S
C1166 C1167 1.394 1_545 S
C1166 H1174 0.930 . S
C1167 C1166 1.394 1_565 S
C1167 C1168 1.383 1_565 S
C1167 H1175 0.929 . S
C1168 C1167 1.383 1_545 S
C1168 C1169 1.377 . S
C1169 H1153 0.930 . S
C1169 C1168 1.377 . S
C1169 C1170 1.379 . S
C1170 H1154 0.931 . S
C1170 C1164 1.383 . S
C1170 C1169 1.379 . S
H1171 C1165 0.959 . S
H1172 C1165 0.961 . S
H1173 C1165 0.960 . S
H1174 C1166 0.930 . S
H1175 C1167 0.929 . S
H1176 C1184 0.929 . S
H1177 C1186 0.930 . S
H1178 C1188 0.930 . S
H1179 C1191 0.929 . S
H1180 C1194 0.930 . S
H1181 C1196 0.960 . S
H1182 C1196 0.960 . S
H1183 C1196 0.960 . S
C1184 H1176 0.929 . S
C1184 C1185 1.377 . S
C1184 C1186 1.384 . S
C1185 C1184 1.377 . S
C1185 C1191 1.390 . S
C1186 H1177 0.930 . S
C1186 C1184 1.384 . S
C1186 C1187 1.372 . S
C1187 C1186 1.372 . S
C1187 C1188 1.400 . S
C1187 C1192 1.490 . S
C1188 H1178 0.930 . S
C1188 C1187 1.400 . S
C1188 C1191 1.386 . S
H1189 C1205 0.930 . S
H1190 C1206 0.931 . S
C1191 H1179 0.929 . S
C1191 C1185 1.390 . S
C1191 C1188 1.386 . S
C1192 C1187 1.490 . S
C1192 C1194 1.395 . S
C1192 C1195 1.403 . S
H1193 C1199 0.930 . S
C1194 H1180 0.930 . S
C1194 C1192 1.395 . S
C1194 C1197 1.403 . S
C1195 C1192 1.403 . S
C1195 C1196 1.524 . S
C1195 C1199 1.400 . S
C1196 H1181 0.960 . S
C1196 H1182 0.960 . S
C1196 H1183 0.960 . S
C1196 C1195 1.524 . S
C1197 C1194 1.403 . S
C1197 C1198 1.392 . S
C1197 C1201 1.495 . S
C1198 C1197 1.392 . S
C1198 C1199 1.385 . S
C1198 C1200 1.478 . S
C1199 H1193 0.930 . S
C1199 C1195 1.400 . S
C1199 C1198 1.385 . S
C1200 C1198 1.478 . S
C1200 C1202 1.381 . S
C1200 C1206 1.383 . S
C1201 C1197 1.495 . S
C1201 H1207 0.959 . S
C1201 H1208 0.961 . S
C1201 H1209 0.960 . S
C1202 C1200 1.381 . S
C1202 C1203 1.394 . S
C1202 H1210 0.930 . S
C1203 C1202 1.394 . S
C1203 C1204 1.383 . S
C1203 H1211 0.929 . S
C1204 C1203 1.383 . S
C1204 C1205 1.377 . S
C1205 H1189 0.930 . S
C1205 C1204 1.377 . S
C1205 C1206 1.379 . S
C1206 H1190 0.931 . S
C1206 C1200 1.383 . S
C1206 C1205 1.379 . S
H1207 C1201 0.959 . S
H1208 C1201 0.961 . S
H1209 C1201 0.960 . S
H1210 C1202 0.930 . S
H1211 C1203 0.929 . S
H1212 C1220 0.929 . S
H1213 C1222 0.930 . S
H1214 C1224 0.930 . S
H1215 C1227 0.929 . S
H1216 C1230 0.930 . S
H1217 C1232 0.960 . S
H1218 C1232 0.960 . S
H1219 C1232 0.960 . S
C1220 H1212 0.929 . S
C1220 C1221 1.377 . S
C1220 C1222 1.384 . S
C1221 C1220 1.377 . S
C1221 C1227 1.390 . S
C1222 H1213 0.930 . S
C1222 C1220 1.384 . S
C1222 C1223 1.372 . S
C1223 C1222 1.372 . S
C1223 C1224 1.400 . S
C1223 C1228 1.490 . S
C1224 H1214 0.930 . S
C1224 C1223 1.400 . S
C1224 C1227 1.386 . S
H1225 C1241 0.930 . S
H1226 C1242 0.931 . S
C1227 H1215 0.929 . S
C1227 C1221 1.390 . S
C1227 C1224 1.386 . S
C1228 C1223 1.490 . S
C1228 C1230 1.395 . S
C1228 C1231 1.403 . S
H1229 C1235 0.930 . S
C1230 H1216 0.930 . S
C1230 C1228 1.395 . S
C1230 C1233 1.403 . S
C1231 C1228 1.403 . S
C1231 C1232 1.524 . S
C1231 C1235 1.400 . S
C1232 H1217 0.960 . S
C1232 H1218 0.960 . S
C1232 H1219 0.960 . S
C1232 C1231 1.524 . S
C1233 C1230 1.403 . S
C1233 C1234 1.392 . S
C1233 C1237 1.495 . S
C1234 C1233 1.392 . S
C1234 C1235 1.385 . S
C1234 C1236 1.478 . S
C1235 H1229 0.930 . S
C1235 C1231 1.400 . S
C1235 C1234 1.385 . S
C1236 C1234 1.478 . S
C1236 C1238 1.381 . S
C1236 C1242 1.383 . S
C1237 C1233 1.495 . S
C1237 H1243 0.959 . S
C1237 H1244 0.961 . S
C1237 H1245 0.960 . S
C1238 C1236 1.381 . S
C1238 C1239 1.394 . S
C1238 H1246 0.930 . S
C1239 C1238 1.394 . S
C1239 C1240 1.383 . S
C1239 H1247 0.929 . S
C1240 C1239 1.383 . S
C1240 C1241 1.377 . S
C1241 H1225 0.930 . S
C1241 C1240 1.377 . S
C1241 C1242 1.379 . S
C1242 H1226 0.931 . S
C1242 C1236 1.383 . S
C1242 C1241 1.379 . S
H1243 C1237 0.959 . S
H1244 C1237 0.961 . S
H1245 C1237 0.960 . S
H1246 C1238 0.930 . S
H1247 C1239 0.929 . S
H1248 C1256 0.929 . S
H1249 C1258 0.930 . S
H1250 C1260 0.930 . S
H1251 C1263 0.929 1_554 S
H1252 C1266 0.930 . S
H1253 C1268 0.960 . S
H1254 C1268 0.960 . S
H1255 C1268 0.960 . S
C1256 H1248 0.929 . S
C1256 C1257 1.377 . S
C1256 C1258 1.384 . S
C1257 C1256 1.377 . S
C1257 C1263 1.390 . S
C1258 H1249 0.930 . S
C1258 C1256 1.384 . S
C1258 C1259 1.372 . S
C1259 C1258 1.372 . S
C1259 C1260 1.400 . S
C1259 C1264 1.490 . S
C1260 H1250 0.930 . S
C1260 C1259 1.400 . S
C1260 C1263 1.386 . S
H1261 C1277 0.930 . S
H1262 C1278 0.955 . S
C1263 H1251 0.929 1_556 S
C1263 C1257 1.390 . S
C1263 C1260 1.386 . S
C1264 C1259 1.490 . S
C1264 C1266 1.395 . S
C1264 C1267 1.403 . S
H1265 C1271 0.930 . S
C1266 H1252 0.930 . S
C1266 C1264 1.395 . S
C1266 C1269 1.403 . S
C1267 C1264 1.403 . S
C1267 C1268 1.524 . S
C1267 C1271 1.400 . S
C1268 H1253 0.960 . S
C1268 H1254 0.960 . S
C1268 H1255 0.960 . S
C1268 C1267 1.524 . S
C1269 C1266 1.403 . S
C1269 C1270 1.392 . S
C1269 C1273 1.495 . S
C1270 C1269 1.392 . S
C1270 C1271 1.385 . S
C1270 C1272 1.478 . S
C1271 H1265 0.930 . S
C1271 C1267 1.400 . S
C1271 C1270 1.385 . S
C1272 C1270 1.478 . S
C1272 C1274 1.381 . S
C1272 C1278 1.330 1_655 S
C1273 C1269 1.495 . S
C1273 H1279 0.959 . S
C1273 H1280 0.961 . S
C1273 H1281 0.960 . S
C1274 C1272 1.381 . S
C1274 C1275 1.394 . S
C1274 H1282 0.930 . S
C1275 C1274 1.394 . S
C1275 C1276 1.383 1_655 S
C1275 H1283 0.929 . S
C1276 C1275 1.383 1_455 S
C1276 C1277 1.377 . S
C1277 H1261 0.930 . S
C1277 C1276 1.377 . S
C1277 C1278 1.410 . S
C1278 H1262 0.955 . S
C1278 C1272 1.330 1_455 S
C1278 C1277 1.410 . S
H1279 C1273 0.959 . S
H1280 C1273 0.961 . S
H1281 C1273 0.960 . S
H1282 C1274 0.930 . S
H1283 C1275 0.929 . S
H1284 C1292 0.929 . S
H1285 C1294 0.930 . S
H1286 C1296 0.930 . S
H1287 C1299 0.929 . S
H1288 C1302 0.930 . S
H1289 C1304 0.960 . S
H1290 C1304 0.960 . S
H1291 C1304 0.960 . S
C1292 H1284 0.929 . S
C1292 C1293 1.377 . S
C1292 C1294 1.384 . S
C1293 C1292 1.377 . S
C1293 C1299 1.390 . S
C1294 H1285 0.930 . S
C1294 C1292 1.384 . S
C1294 C1295 1.372 . S
C1295 C1294 1.372 . S
C1295 C1296 1.400 . S
C1295 C1300 1.490 . S
C1296 H1286 0.930 . S
C1296 C1295 1.400 . S
C1296 C1299 1.386 . S
H1297 C1313 0.930 . S
H1298 C1314 0.931 . S
C1299 H1287 0.929 . S
C1299 C1293 1.390 . S
C1299 C1296 1.386 . S
C1300 C1295 1.490 . S
C1300 C1302 1.395 . S
C1300 C1303 1.403 . S
H1301 C1307 0.930 . S
C1302 H1288 0.930 . S
C1302 C1300 1.395 . S
C1302 C1305 1.403 . S
C1303 C1300 1.403 . S
C1303 C1304 1.524 . S
C1303 C1307 1.400 . S
C1304 H1289 0.960 . S
C1304 H1290 0.960 . S
C1304 H1291 0.960 . S
C1304 C1303 1.524 . S
C1305 C1302 1.403 . S
C1305 C1306 1.392 . S
C1305 C1309 1.495 . S
C1306 C1305 1.392 . S
C1306 C1307 1.385 . S
C1306 C1308 1.478 . S
C1307 H1301 0.930 . S
C1307 C1303 1.400 . S
C1307 C1306 1.385 . S
C1308 C1306 1.478 . S
C1308 C1310 1.381 . S
C1308 C1314 1.383 1_565 S
C1309 C1305 1.495 . S
C1309 H1315 0.959 . S
C1309 H1316 0.961 . S
C1309 H1317 0.960 . S
C1310 C1308 1.381 . S
C1310 C1311 1.394 . S
C1310 H1318 0.930 . S
C1311 C1310 1.394 . S
C1311 C1312 1.383 1_565 S
C1311 H1319 0.929 . S
C1312 C1311 1.383 1_545 S
C1312 C1313 1.377 . S
C1313 H1297 0.930 . S
C1313 C1312 1.377 . S
C1313 C1314 1.379 . S
C1314 H1298 0.931 . S
C1314 C1308 1.383 1_545 S
C1314 C1313 1.379 . S
H1315 C1309 0.959 . S
H1316 C1309 0.961 . S
H1317 C1309 0.960 . S
H1318 C1310 0.930 . S
H1319 C1311 0.929 . S
H1320 C1328 0.929 1_554 S
H1321 C1330 0.930 . S
H1322 C1332 0.930 . S
H1323 C1335 0.929 . S
H1324 C1338 0.930 . S
H1325 C1340 0.960 . S
H1326 C1340 0.960 . S
H1327 C1340 0.960 . S
C1328 H1320 0.929 1_556 S
C1328 C1329 1.377 . S
C1328 C1330 1.384 . S
C1329 C1328 1.377 . S
C1329 C1335 1.390 . S
C1330 H1321 0.930 . S
C1330 C1328 1.384 . S
C1330 C1331 1.372 . S
C1331 C1330 1.372 . S
C1331 C1332 1.400 . S
C1331 C1336 1.490 . S
C1332 H1322 0.930 . S
C1332 C1331 1.400 . S
C1332 C1335 1.386 . S
H1333 C1349 0.930 . S
H1334 C1350 0.931 . S
C1335 H1323 0.929 . S
C1335 C1329 1.390 . S
C1335 C1332 1.386 . S
C1336 C1331 1.490 . S
C1336 C1338 1.395 . S
C1336 C1339 1.403 . S
H1337 C1343 0.930 . S
C1338 H1324 0.930 . S
C1338 C1336 1.395 . S
C1338 C1341 1.403 . S
C1339 C1336 1.403 . S
C1339 C1340 1.524 . S
C1339 C1343 1.400 . S
C1340 H1325 0.960 . S
C1340 H1326 0.960 . S
C1340 H1327 0.960 . S
C1340 C1339 1.524 . S
C1341 C1338 1.403 . S
C1341 C1342 1.392 . S
C1341 C1345 1.495 . S
C1342 C1341 1.392 . S
C1342 C1343 1.385 . S
C1342 C1344 1.478 . S
C1343 H1337 0.930 . S
C1343 C1339 1.400 . S
C1343 C1342 1.385 . S
C1344 C1342 1.478 . S
C1344 C1346 1.381 . S
C1344 C1350 1.383 . S
C1345 C1341 1.495 . S
C1345 H1351 0.959 . S
C1345 H1352 0.961 . S
C1345 H1353 0.960 . S
C1346 C1344 1.381 . S
C1346 C1347 1.394 . S
C1346 H1354 0.930 . S
C1347 C1346 1.394 . S
C1347 C1348 1.383 . S
C1347 H1355 0.929 . S
C1348 C1347 1.383 . S
C1348 C1349 1.377 . S
C1349 H1333 0.930 . S
C1349 C1348 1.377 . S
C1349 C1350 1.379 . S
C1350 H1334 0.931 . S
C1350 C1344 1.383 . S
C1350 C1349 1.379 . S
H1351 C1345 0.959 . S
H1352 C1345 0.961 . S
H1353 C1345 0.960 . S
H1354 C1346 0.930 . S
H1355 C1347 0.929 . S
H1356 C1364 0.929 1_554 S
H1357 C1366 0.930 . S
H1358 C1368 0.930 . S
H1359 C1371 0.929 . S
H1360 C1374 0.930 . S
H1361 C1376 0.960 . S
H1362 C1376 0.960 . S
H1363 C1376 0.960 . S
C1364 H1356 0.929 1_556 S
C1364 C1365 1.377 . S
C1364 C1366 1.384 . S
C1365 C1364 1.377 . S
C1365 C1371 1.390 . S
C1366 H1357 0.930 . S
C1366 C1364 1.384 . S
C1366 C1367 1.372 . S
C1367 C1366 1.372 . S
C1367 C1368 1.400 . S
C1367 C1372 1.490 . S
C1368 H1358 0.930 . S
C1368 C1367 1.400 . S
C1368 C1371 1.386 . S
H1369 C1385 0.930 . S
H1370 C1386 0.931 . S
C1371 H1359 0.929 . S
C1371 C1365 1.390 . S
C1371 C1368 1.386 . S
C1372 C1367 1.490 . S
C1372 C1374 1.395 . S
C1372 C1375 1.403 . S
H1373 C1379 0.930 . S
C1374 H1360 0.930 . S
C1374 C1372 1.395 . S
C1374 C1377 1.403 . S
C1375 C1372 1.403 . S
C1375 C1376 1.524 . S
C1375 C1379 1.400 . S
C1376 H1361 0.960 . S
C1376 H1362 0.960 . S
C1376 H1363 0.960 . S
C1376 C1375 1.524 . S
C1377 C1374 1.403 . S
C1377 C1378 1.392 . S
C1377 C1381 1.495 . S
C1378 C1377 1.392 . S
C1378 C1379 1.385 . S
C1378 C1380 1.478 . S
C1379 H1373 0.930 . S
C1379 C1375 1.400 . S
C1379 C1378 1.385 . S
C1380 C1378 1.478 . S
C1380 C1382 1.381 . S
C1380 C1386 1.383 . S
C1381 C1377 1.495 . S
C1381 H1387 0.959 . S
C1381 H1388 0.961 . S
C1381 H1389 0.960 . S
C1382 C1380 1.381 . S
C1382 C1383 1.394 . S
C1382 H1390 0.930 . S
C1383 C1382 1.394 . S
C1383 C1384 1.383 . S
C1383 H1391 0.929 . S
C1384 C1383 1.383 . S
C1384 C1385 1.377 . S
C1385 H1369 0.930 . S
C1385 C1384 1.377 . S
C1385 C1386 1.379 . S
C1386 H1370 0.931 . S
C1386 C1380 1.383 . S
C1386 C1385 1.379 . S
H1387 C1381 0.959 . S
H1388 C1381 0.961 . S
H1389 C1381 0.960 . S
H1390 C1382 0.930 . S
H1391 C1383 0.929 . S
H1392 C1400 0.929 . S
H1393 C1402 0.930 . S
H1394 C1404 0.930 . S
H1395 C1407 0.929 . S
H1396 C1410 0.930 . S
H1397 C1412 0.960 . S
H1398 C1412 0.960 . S
H1399 C1412 0.960 . S
C1400 H1392 0.929 . S
C1400 C1401 1.377 . S
C1400 C1402 1.384 . S
C1401 C1400 1.377 . S
C1401 C1407 1.390 . S
C1402 H1393 0.930 . S
C1402 C1400 1.384 . S
C1402 C1403 1.372 . S
C1403 C1402 1.372 . S
C1403 C1404 1.400 . S
C1403 C1408 1.490 . S
C1404 H1394 0.930 . S
C1404 C1403 1.400 . S
C1404 C1407 1.386 . S
H1405 C1421 0.930 . S
H1406 C1422 0.931 . S
C1407 H1395 0.929 . S
C1407 C1401 1.390 . S
C1407 C1404 1.386 . S
C1408 C1403 1.490 . S
C1408 C1410 1.395 . S
C1408 C1411 1.403 . S
H1409 C1415 0.930 . S
C1410 H1396 0.930 . S
C1410 C1408 1.395 . S
C1410 C1413 1.403 . S
C1411 C1408 1.403 . S
C1411 C1412 1.524 . S
C1411 C1415 1.400 . S
C1412 H1397 0.960 . S
C1412 H1398 0.960 . S
C1412 H1399 0.960 . S
C1412 C1411 1.524 . S
C1413 C1410 1.403 . S
C1413 C1414 1.392 . S
C1413 C1417 1.495 . S
C1414 C1413 1.392 . S
C1414 C1415 1.385 . S
C1414 C1416 1.478 . S
C1415 H1409 0.930 . S
C1415 C1411 1.400 . S
C1415 C1414 1.385 . S
C1416 C1414 1.478 . S
C1416 C1418 1.381 . S
C1416 C1422 1.383 . S
C1417 C1413 1.495 . S
C1417 H1423 0.959 . S
C1417 H1424 0.961 . S
C1417 H1425 0.960 . S
C1418 C1416 1.381 . S
C1418 C1419 1.394 . S
C1418 H1426 0.930 . S
C1419 C1418 1.394 . S
C1419 C1420 1.383 . S
C1419 H1427 0.929 . S
C1420 C1419 1.383 . S
C1420 C1421 1.377 . S
C1421 H1405 0.930 . S
C1421 C1420 1.377 . S
C1421 C1422 1.379 . S
C1422 H1406 0.931 . S
C1422 C1416 1.383 . S
C1422 C1421 1.379 . S
H1423 C1417 0.959 . S
H1424 C1417 0.961 . S
H1425 C1417 0.960 . S
H1426 C1418 0.930 . S
H1427 C1419 0.929 . S
H1428 C1436 0.929 . S
H1429 C1438 0.930 . S
H1430 C1440 0.930 . S
H1431 C1443 0.929 . S
H1432 C1446 0.930 . S
H1433 C1448 0.960 . S
H1434 C1448 0.960 . S
H1435 C1448 0.960 . S
C1436 H1428 0.929 . S
C1436 C1437 1.377 . S
C1436 C1438 1.384 . S
C1437 C1436 1.377 . S
C1437 C1443 1.390 . S
C1438 H1429 0.930 . S
C1438 C1436 1.384 . S
C1438 C1439 1.372 . S
C1439 C1438 1.372 . S
C1439 C1440 1.400 . S
C1439 C1444 1.490 . S
C1440 H1430 0.930 . S
C1440 C1439 1.400 . S
C1440 C1443 1.386 . S
H1441 C1457 0.930 . S
H1442 C1458 0.931 . S
C1443 H1431 0.929 . S
C1443 C1437 1.390 . S
C1443 C1440 1.386 . S
C1444 C1439 1.490 . S
C1444 C1446 1.395 . S
C1444 C1447 1.403 . S
H1445 C1451 0.930 . S
C1446 H1432 0.930 . S
C1446 C1444 1.395 . S
C1446 C1449 1.403 . S
C1447 C1444 1.403 . S
C1447 C1448 1.524 . S
C1447 C1451 1.400 . S
C1448 H1433 0.960 . S
C1448 H1434 0.960 . S
C1448 H1435 0.960 . S
C1448 C1447 1.524 . S
C1449 C1446 1.403 . S
C1449 C1450 1.392 . S
C1449 C1453 1.495 . S
C1450 C1449 1.392 . S
C1450 C1451 1.385 . S
C1450 C1452 1.478 . S
C1451 H1445 0.930 . S
C1451 C1447 1.400 . S
C1451 C1450 1.385 . S
C1452 C1450 1.478 . S
C1452 C1454 1.381 . S
C1452 C1458 1.383 . S
C1453 C1449 1.495 . S
C1453 H1459 0.959 . S
C1453 H1460 0.961 . S
C1453 H1461 0.960 . S
C1454 C1452 1.381 . S
C1454 C1455 1.394 . S
C1454 H1462 0.930 . S
C1455 C1454 1.394 . S
C1455 C1456 1.383 . S
C1455 H1463 0.929 . S
C1456 C1455 1.383 . S
C1456 C1457 1.377 . S
C1457 H1441 0.930 . S
C1457 C1456 1.377 . S
C1457 C1458 1.379 . S
C1458 H1442 0.931 . S
C1458 C1452 1.383 . S
C1458 C1457 1.379 . S
H1459 C1453 0.959 . S
H1460 C1453 0.961 . S
H1461 C1453 0.960 . S
H1462 C1454 0.930 . S
H1463 C1455 0.929 . S
H1464 C1472 0.929 . S
H1465 C1474 0.930 . S
H1466 C1476 0.930 . S
H1467 C1479 0.929 . S
H1468 C1482 0.930 . S
H1469 C1484 0.960 . S
H1470 C1484 0.960 . S
H1471 C1484 0.960 . S
C1472 H1464 0.929 . S
C1472 C1473 1.377 . S
C1472 C1474 1.384 . S
C1473 C1472 1.377 . S
C1473 C1479 1.390 . S
C1474 H1465 0.930 . S
C1474 C1472 1.384 . S
C1474 C1475 1.372 . S
C1475 C1474 1.372 . S
C1475 C1476 1.400 . S
C1475 C1480 1.490 . S
C1476 H1466 0.930 . S
C1476 C1475 1.400 . S
C1476 C1479 1.386 . S
H1477 C1493 0.930 . S
H1478 C1494 0.931 . S
C1479 H1467 0.929 . S
C1479 C1473 1.390 . S
C1479 C1476 1.386 . S
C1480 C1475 1.490 . S
C1480 C1482 1.395 . S
C1480 C1483 1.403 . S
H1481 C1487 0.930 . S
C1482 H1468 0.930 . S
C1482 C1480 1.395 . S
C1482 C1485 1.403 . S
C1483 C1480 1.403 . S
C1483 C1484 1.524 . S
C1483 C1487 1.400 . S
C1484 H1469 0.960 . S
C1484 H1470 0.960 . S
C1484 H1471 0.960 . S
C1484 C1483 1.524 . S
C1485 C1482 1.403 . S
C1485 C1486 1.392 . S
C1485 C1489 1.495 . S
C1486 C1485 1.392 . S
C1486 C1487 1.385 . S
C1486 C1488 1.478 . S
C1487 H1481 0.930 . S
C1487 C1483 1.400 . S
C1487 C1486 1.385 . S
C1488 C1486 1.478 . S
C1488 C1490 1.381 . S
C1488 C1494 1.383 . S
C1489 C1485 1.495 . S
C1489 H1495 0.959 . S
C1489 H1496 0.961 . S
C1489 H1497 0.960 . S
C1490 C1488 1.381 . S
C1490 C1491 1.394 . S
C1490 H1498 0.930 . S
C1491 C1490 1.394 . S
C1491 C1492 1.383 . S
C1491 H1499 0.929 . S
C1492 C1491 1.383 . S
C1492 C1493 1.377 . S
C1493 H1477 0.930 . S
C1493 C1492 1.377 . S
C1493 C1494 1.379 . S
C1494 H1478 0.931 . S
C1494 C1488 1.383 . S
C1494 C1493 1.379 . S
H1495 C1489 0.959 . S
H1496 C1489 0.961 . S
H1497 C1489 0.960 . S
H1498 C1490 0.930 . S
H1499 C1491 0.929 . S
H1500 C1508 0.929 . S
H1501 C1510 0.930 . S
H1502 C1512 0.930 . S
H1503 C1515 0.929 . S
H1504 C1518 0.930 . S
H1505 C1520 0.960 . S
H1506 C1520 0.960 . S
H1507 C1520 0.960 . S
C1508 H1500 0.929 . S
C1508 C1509 1.377 . S
C1508 C1510 1.384 . S
C1509 C1508 1.377 . S
C1509 C1515 1.390 . S
C1510 H1501 0.930 . S
C1510 C1508 1.384 . S
C1510 C1511 1.372 . S
C1511 C1510 1.372 . S
C1511 C1512 1.400 . S
C1511 C1516 1.490 . S
C1512 H1502 0.930 . S
C1512 C1511 1.400 . S
C1512 C1515 1.386 . S
H1513 C1529 0.930 . S
H1514 C1530 0.931 . S
C1515 H1503 0.929 . S
C1515 C1509 1.390 . S
C1515 C1512 1.386 . S
C1516 C1511 1.490 . S
C1516 C1518 1.395 . S
C1516 C1519 1.403 . S
H1517 C1523 0.930 . S
C1518 H1504 0.930 . S
C1518 C1516 1.395 . S
C1518 C1521 1.403 . S
C1519 C1516 1.403 . S
C1519 C1520 1.524 . S
C1519 C1523 1.400 . S
C1520 H1505 0.960 . S
C1520 H1506 0.960 . S
C1520 H1507 0.960 . S
C1520 C1519 1.524 . S
C1521 C1518 1.403 . S
C1521 C1522 1.392 . S
C1521 C1525 1.495 . S
C1522 C1521 1.392 . S
C1522 C1523 1.385 . S
C1522 C1524 1.478 . S
C1523 H1517 0.930 . S
C1523 C1519 1.400 . S
C1523 C1522 1.385 . S
C1524 C1522 1.478 . S
C1524 C1526 1.381 . S
C1524 C1530 1.383 . S
C1525 C1521 1.495 . S
C1525 H1531 0.959 . S
C1525 H1532 0.961 . S
C1525 H1533 0.960 . S
C1526 C1524 1.381 . S
C1526 C1527 1.394 . S
C1526 H1534 0.930 . S
C1527 C1526 1.394 . S
C1527 C1528 1.383 . S
C1527 H1535 0.929 . S
C1528 C1527 1.383 . S
C1528 C1529 1.377 . S
C1529 H1513 0.930 . S
C1529 C1528 1.377 . S
C1529 C1530 1.379 . S
C1530 H1514 0.931 . S
C1530 C1524 1.383 . S
C1530 C1529 1.379 . S
H1531 C1525 0.959 . S
H1532 C1525 0.961 . S
H1533 C1525 0.960 . S
H1534 C1526 0.930 . S
H1535 C1527 0.929 . S
H1536 C1544 0.929 . S
H1537 C1546 0.930 . S
H1538 C1548 0.930 . S
H1539 C1551 0.929 . S
H1540 C1554 0.930 . S
H1541 C1556 0.960 . S
H1542 C1556 0.960 . S
H1543 C1556 0.960 . S
C1544 H1536 0.929 . S
C1544 C1545 1.377 . S
C1544 C1546 1.384 . S
C1545 C1544 1.377 . S
C1545 C1551 1.390 . S
C1546 H1537 0.930 . S
C1546 C1544 1.384 . S
C1546 C1547 1.372 . S
C1547 C1546 1.372 . S
C1547 C1548 1.400 . S
C1547 C1552 1.490 . S
C1548 H1538 0.930 . S
C1548 C1547 1.400 . S
C1548 C1551 1.386 . S
H1549 C1565 0.930 1_455 S
H1550 C1566 0.931 . S
C1551 H1539 0.929 . S
C1551 C1545 1.390 . S
C1551 C1548 1.386 . S
C1552 C1547 1.490 . S
C1552 C1554 1.395 . S
C1552 C1555 1.403 . S
H1553 C1559 0.930 . S
C1554 H1540 0.930 . S
C1554 C1552 1.395 . S
C1554 C1557 1.403 . S
C1555 C1552 1.403 . S
C1555 C1556 1.524 . S
C1555 C1559 1.400 . S
C1556 H1541 0.960 . S
C1556 H1542 0.960 . S
C1556 H1543 0.960 . S
C1556 C1555 1.524 . S
C1557 C1554 1.403 . S
C1557 C1558 1.392 . S
C1557 C1561 1.495 . S
C1558 C1557 1.392 . S
C1558 C1559 1.385 . S
C1558 C1560 1.478 . S
C1559 H1553 0.930 . S
C1559 C1555 1.400 . S
C1559 C1558 1.385 . S
C1560 C1558 1.478 . S
C1560 C1562 1.381 . S
C1560 C1566 1.383 . S
C1561 C1557 1.495 . S
C1561 H1567 0.959 . S
C1561 H1568 0.961 . S
C1561 H1569 0.960 . S
C1562 C1560 1.381 . S
C1562 C1563 1.394 . S
C1562 H1570 0.930 . S
C1563 C1562 1.394 . S
C1563 C1564 1.383 . S
C1563 H1571 0.929 . S
C1564 C1563 1.383 . S
C1564 C1565 1.377 . S
C1565 H1549 0.930 1_655 S
C1565 C1564 1.377 . S
C1565 C1566 1.379 . S
C1566 H1550 0.931 . S
C1566 C1560 1.383 . S
C1566 C1565 1.379 . S
H1567 C1561 0.959 . S
H1568 C1561 0.961 . S
H1569 C1561 0.960 . S
H1570 C1562 0.930 . S
H1571 C1563 0.929 . S
H1572 C1580 0.929 . S
H1573 C1582 0.930 . S
H1574 C1584 0.930 . S
H1575 C1587 0.929 . S
H1576 C1590 0.930 . S
H1577 C1592 0.960 . S
H1578 C1592 0.960 . S
H1579 C1592 0.960 . S
C1580 H1572 0.929 . S
C1580 C1581 1.377 . S
C1580 C1582 1.384 . S
C1581 C1580 1.377 . S
C1581 C1587 1.390 . S
C1582 H1573 0.930 . S
C1582 C1580 1.384 . S
C1582 C1583 1.372 . S
C1583 C1582 1.372 . S
C1583 C1584 1.400 . S
C1583 C1588 1.490 . S
C1584 H1574 0.930 . S
C1584 C1583 1.400 . S
C1584 C1587 1.386 . S
H1585 C1601 0.930 . S
H1586 C1602 0.931 . S
C1587 H1575 0.929 . S
C1587 C1581 1.390 . S
C1587 C1584 1.386 . S
C1588 C1583 1.490 . S
C1588 C1590 1.395 . S
C1588 C1591 1.403 . S
H1589 C1595 0.930 . S
C1590 H1576 0.930 . S
C1590 C1588 1.395 . S
C1590 C1593 1.403 . S
C1591 C1588 1.403 . S
C1591 C1592 1.524 . S
C1591 C1595 1.400 . S
C1592 H1577 0.960 . S
C1592 H1578 0.960 . S
C1592 H1579 0.960 . S
C1592 C1591 1.524 . S
C1593 C1590 1.403 . S
C1593 C1594 1.392 . S
C1593 C1597 1.547 . S
C1594 C1593 1.392 . S
C1594 C1595 1.385 . S
C1594 C1596 1.478 . S
C1595 H1589 0.930 . S
C1595 C1591 1.400 . S
C1595 C1594 1.385 . S
C1596 C1594 1.478 . S
C1596 C1598 1.381 . S
C1596 C1602 1.383 . S
C1597 C1593 1.547 . S
C1597 H1603 0.938 1_565 S
C1597 H1604 0.922 1_565 S
C1597 H1605 0.974 . S
C1598 C1596 1.381 . S
C1598 C1599 1.394 . S
C1598 H1606 0.930 . S
C1599 C1598 1.394 . S
C1599 C1600 1.383 . S
C1599 H1607 0.929 . S
C1600 C1599 1.383 . S
C1600 C1601 1.377 . S
C1601 H1585 0.930 . S
C1601 C1600 1.377 . S
C1601 C1602 1.379 . S
C1602 H1586 0.931 . S
C1602 C1596 1.383 . S
C1602 C1601 1.379 . S
H1603 C1597 0.938 1_545 S
H1604 C1597 0.922 1_545 S
H1605 C1597 0.974 . S
H1606 C1598 0.930 . S
H1607 C1599 0.929 . S
H1608 C1616 0.929 . S
H1609 C1618 0.930 . S
H1610 C1620 0.930 . S
H1611 C1623 0.929 . S
H1612 C1626 0.930 . S
H1613 C1628 0.960 . S
H1614 C1628 0.960 . S
H1615 C1628 0.960 . S
C1616 H1608 0.929 . S
C1616 C1617 1.377 . S
C1616 C1618 1.384 . S
C1617 C1616 1.377 . S
C1617 C1623 1.390 . S
C1618 H1609 0.930 . S
C1618 C1616 1.384 . S
C1618 C1619 1.372 . S
C1619 C1618 1.372 . S
C1619 C1620 1.400 . S
C1619 C1624 1.490 . S
C1620 H1610 0.930 . S
C1620 C1619 1.400 . S
C1620 C1623 1.386 . S
H1621 C1637 0.930 . S
H1622 C1638 0.931 . S
C1623 H1611 0.929 . S
C1623 C1617 1.390 . S
C1623 C1620 1.386 . S
C1624 C1619 1.490 . S
C1624 C1626 1.395 . S
C1624 C1627 1.403 . S
H1625 C1631 0.930 . S
C1626 H1612 0.930 . S
C1626 C1624 1.395 . S
C1626 C1629 1.403 . S
C1627 C1624 1.403 . S
C1627 C1628 1.524 . S
C1627 C1631 1.400 . S
C1628 H1613 0.960 . S
C1628 H1614 0.960 . S
C1628 H1615 0.960 . S
C1628 C1627 1.524 . S
C1629 C1626 1.403 . S
C1629 C1630 1.392 . S
C1629 C1633 1.495 . S
C1630 C1629 1.392 . S
C1630 C1631 1.385 . S
C1630 C1632 1.478 . S
C1631 H1625 0.930 . S
C1631 C1627 1.400 . S
C1631 C1630 1.385 . S
C1632 C1630 1.478 . S
C1632 C1634 1.381 . S
C1632 C1638 1.383 . S
C1633 C1629 1.495 . S
C1633 H1639 0.959 . S
C1633 H1640 0.961 . S
C1633 H1641 0.960 . S
C1634 C1632 1.381 . S
C1634 C1635 1.394 . S
C1634 H1642 0.930 . S
C1635 C1634 1.394 . S
C1635 C1636 1.383 . S
C1635 H1643 0.929 . S
C1636 C1635 1.383 . S
C1636 C1637 1.377 . S
C1637 H1621 0.930 . S
C1637 C1636 1.377 . S
C1637 C1638 1.379 . S
C1638 H1622 0.931 . S
C1638 C1632 1.383 . S
C1638 C1637 1.379 . S
H1639 C1633 0.959 . S
H1640 C1633 0.961 . S
H1641 C1633 0.960 . S
H1642 C1634 0.930 . S
H1643 C1635 0.929 . S
H1644 C1652 0.929 . S
H1645 C1654 0.930 . S
H1646 C1656 0.930 . S
H1647 C1659 0.929 . S
H1648 C1662 0.930 . S
H1649 C1664 0.960 . S
H1650 C1664 0.960 . S
H1651 C1664 0.960 . S
C1652 H1644 0.929 . S
C1652 C1653 1.377 . S
C1652 C1654 1.384 . S
C1653 C1652 1.377 . S
C1653 C1659 1.390 . S
C1654 H1645 0.930 . S
C1654 C1652 1.384 . S
C1654 C1655 1.372 . S
C1655 C1654 1.372 . S
C1655 C1656 1.400 . S
C1655 C1660 1.490 . S
C1656 H1646 0.930 . S
C1656 C1655 1.400 . S
C1656 C1659 1.386 . S
H1657 C1673 0.930 . S
H1658 C1674 0.931 . S
C1659 H1647 0.929 . S
C1659 C1653 1.390 . S
C1659 C1656 1.386 . S
C1660 C1655 1.490 . S
C1660 C1662 1.395 . S
C1660 C1663 1.403 . S
H1661 C1667 0.930 . S
C1662 H1648 0.930 . S
C1662 C1660 1.395 . S
C1662 C1665 1.403 . S
C1663 C1660 1.403 . S
C1663 C1664 1.524 . S
C1663 C1667 1.400 . S
C1664 H1649 0.960 . S
C1664 H1650 0.960 . S
C1664 H1651 0.960 . S
C1664 C1663 1.524 . S
C1665 C1662 1.403 . S
C1665 C1666 1.392 . S
C1665 C1669 1.495 . S
C1666 C1665 1.392 . S
C1666 C1667 1.385 . S
C1666 C1668 1.478 . S
C1667 H1661 0.930 . S
C1667 C1663 1.400 . S
C1667 C1666 1.385 . S
C1668 C1666 1.478 . S
C1668 C1670 1.381 . S
C1668 C1674 1.383 . S
C1669 C1665 1.495 . S
C1669 H1675 0.959 . S
C1669 H1676 0.961 . S
C1669 H1677 0.960 . S
C1670 C1668 1.381 . S
C1670 C1671 1.394 . S
C1670 H1678 0.930 . S
C1671 C1670 1.394 . S
C1671 C1672 1.383 . S
C1671 H1679 0.929 . S
C1672 C1671 1.383 . S
C1672 C1673 1.377 . S
C1673 H1657 0.930 . S
C1673 C1672 1.377 . S
C1673 C1674 1.379 . S
C1674 H1658 0.931 . S
C1674 C1668 1.383 . S
C1674 C1673 1.379 . S
H1675 C1669 0.959 . S
H1676 C1669 0.961 . S
H1677 C1669 0.960 . S
H1678 C1670 0.930 . S
H1679 C1671 0.929 . S
C825 C391 2.159 . S
C844 C554 2.087 . S
C880 C638 2.140 . S
C861 C451 2.193 . S
C916 C704 2.137 . S
C897 C241 2.051 . S
C952 C788 2.062 . S
C933 C331 2.024 . S
C988 C543 2.112 1_565 S
C969 C121 1.954 . S
C1005 C211 2.134 . S
C1024 C627 2.159 . S
C1041 C31 2.263 . S
C1060 C715 2.097 . S
C1077 C91 2.102 . S
C1096 C799 2.096 . S
C1132 C550 0.504 1_455 S
C1113 C301 0.559 . S
C1168 C634 0.438 1_545 S
C1149 C380 0.302 . S
C1204 C706 0.365 . S
C1185 C440 0.286 . S
C1221 C260 0.578 . S
C1240 C790 0.411 . S
C1257 C61 0.490 . S
C1276 C538 0.475 . S
C1312 C622 0.442 . S
C1293 C140 0.463 . S
C1348 C718 0.365 . S
C1329 C200 0.496 . S
C1365 C20 0.490 . S
C1384 C802 0.488 . S
C1401 C320 2.683 . S
C1420 C547 2.698 . S
C1437 C361 2.379 . S
C1456 C631 2.649 . S
C1492 C711 2.649 . S
C1473 C421 2.259 . S
C1528 C795 2.694 . S
C1509 C271 2.535 . S
C1545 C80 2.738 . S
C1564 C536 2.705 . S
C1600 C620 2.636 . S
C1581 C151 2.692 . S
C1636 C722 2.651 . S
C1617 C181 2.192 . S
C1653 C1 2.236 . S
C1672 C806 2.684 . S
