# Generated by pormake.
# Topology anh, (6,3)-cn, num edge types: 1
# Building blocks:
#     Node 0, Type 0, BuildingBlock: BETFAJ_clean_sbu_0, # of connection points: 6
#     Node 1, Type 0, BuildingBlock: BETFAJ_clean_sbu_0, # of connection points: 6
#     Node 2, Type 0, BuildingBlock: BETFAJ_clean_sbu_0, # of connection points: 6
#     Node 3, Type 1, BuildingBlock: BETDAH_clean_linker_0, # of connection points: 3
#     Node 4, Type 1, BuildingBlock: BETDAH_clean_linker_0, # of connection points: 3
#     Node 5, Type 1, BuildingBlock: BETDAH_clean_linker_0, # of connection points: 3
#     Node 6, Type 1, BuildingBlock: BETDAH_clean_linker_0, # of connection points: 3
#     Node 7, Type 1, BuildingBlock: BETDAH_clean_linker_0, # of connection points: 3
#     Node 8, Type 1, BuildingBlock: BETDAH_clean_linker_0, # of connection points: 3
#     Edge 9, Type (0, 1), BuildingBlock: MIFKUJ_clean_linker_0, # of connection points: 2
#     Edge 10, Type (0, 1), BuildingBlock: MIFKUJ_clean_linker_0, # of connection points: 2
#     Edge 11, Type (0, 1), BuildingBlock: MIFKUJ_clean_linker_0, # of connection points: 2
#     Edge 12, Type (0, 1), BuildingBlock: MIFKUJ_clean_linker_0, # of connection points: 2
#     Edge 13, Type (0, 1), BuildingBlock: MIFKUJ_clean_linker_0, # of connection points: 2
#     Edge 14, Type (0, 1), BuildingBlock: MIFKUJ_clean_linker_0, # of connection points: 2
#     Edge 15, Type (0, 1), BuildingBlock: MIFKUJ_clean_linker_0, # of connection points: 2
#     Edge 16, Type (0, 1), BuildingBlock: MIFKUJ_clean_linker_0, # of connection points: 2
#     Edge 17, Type (0, 1), BuildingBlock: MIFKUJ_clean_linker_0, # of connection points: 2
#     Edge 18, Type (0, 1), BuildingBlock: MIFKUJ_clean_linker_0, # of connection points: 2
#     Edge 19, Type (0, 1), BuildingBlock: MIFKUJ_clean_linker_0, # of connection points: 2
#     Edge 20, Type (0, 1), BuildingBlock: MIFKUJ_clean_linker_0, # of connection points: 2
#     Edge 21, Type (0, 1), BuildingBlock: MIFKUJ_clean_linker_0, # of connection points: 2
#     Edge 22, Type (0, 1), BuildingBlock: MIFKUJ_clean_linker_0, # of connection points: 2
#     Edge 23, Type (0, 1), BuildingBlock: MIFKUJ_clean_linker_0, # of connection points: 2
#     Edge 24, Type (0, 1), BuildingBlock: MIFKUJ_clean_linker_0, # of connection points: 2
#     Edge 25, Type (0, 1), BuildingBlock: MIFKUJ_clean_linker_0, # of connection points: 2
#     Edge 26, Type (0, 1), BuildingBlock: MIFKUJ_clean_linker_0, # of connection points: 2
# Relax obj value: 0.119
# Max RMSD: 0.167
# Mean RMSD: 0.106
data_MOF--net-anh--node1-BETFAJ_clean_sbu_0--node2-BETDAH_clean_linker_0--edge1-MIFKUJ_clean_linker_0
_symmetry_space_group_name_H-M    P1
_symmetry_Int_Tables_number       1
_symmetry_cell_setting            triclinic
loop_
_symmetry_equiv_pos_as_xyz
'x, y, z'
_cell_length_a     42.278699
_cell_length_b     47.566702
_cell_length_c     64.250465
_cell_angle_alpha  94.435348
_cell_angle_beta   91.774886
_cell_angle_gamma 128.43125
loop_
_atom_site_label
_atom_site_type_symbol
_atom_site_fract_x
_atom_site_fract_y
_atom_site_fract_z
_atom_type_partial_charge
Sm0 Sm 0.0913 0.54826 0.15071 0.0
Sm1 Sm 0.05071 0.57795 0.16807 0.0
C2 C 0.13185 0.53472 0.12735 0.0
C3 C 0.17403 0.55016 0.12518 0.0
C4 C 0.18321 0.53934 0.10705 0.0
C5 C 0.22221 0.55031 0.10569 0.0
C6 C 0.25259 0.57222 0.12251 0.0
C7 C 0.2438 0.58469 0.1402 0.0
C8 C 0.20475 0.57382 0.1415 0.0
C9 C 0.09197 0.55245 0.19354 0.0
C10 C 0.14567 0.63766 0.16383 0.0
C11 C 1.00279 0.58549 0.18824 0.0
C12 C 0.95816 0.56019 0.18582 0.0
C13 C 0.93643 0.54848 0.20349 0.0
C14 C 0.8946 0.51985 0.2011 0.0
C15 C 0.87408 0.50243 0.18099 0.0
C16 C 0.89589 0.51492 0.16337 0.0
C17 C 0.93743 0.54328 0.16575 0.0
C18 C 0.04905 0.57164 0.12494 0.0
C19 C 0.99757 0.48884 0.15861 0.0
O20 O 0.12086 0.55357 0.12166 0.0
O21 O 0.11753 0.52051 0.14467 0.0
O22 O 0.09816 0.57608 0.18263 0.0
O23 O 0.08872 0.5269 0.18209 0.0
O24 O 0.14211 0.61098 0.15265 0.0
O25 O 0.11555 0.63122 0.17405 0.0
O26 O 1.01947 0.57263 0.19642 0.0
O27 O 1.0203 0.60255 0.17207 0.0
O28 O 0.04264 0.54856 0.13638 0.0
O29 O 0.05442 0.5985 0.13607 0.0
O30 O 1.00209 0.51632 0.16906 0.0
O31 O 1.02613 0.49421 0.14735 0.0
H32 H 0.15978 0.52116 0.09431 0.0
H33 H 0.22783 0.53976 0.09201 0.0
H34 H 0.26669 0.60168 0.15334 0.0
H35 H 0.19812 0.5827 0.15554 0.0
H36 H 0.95204 0.56062 0.21913 0.0
H37 H 0.87856 0.51073 0.21496 0.0
H38 H 0.88088 0.50266 0.14764 0.0
H39 H 0.95349 0.55118 0.15184 0.0
Sm40 Sm 0.60575 0.05475 0.48857 0.0
Sm41 Sm 0.55489 0.07682 0.47697 0.0
C42 C 0.63813 0.02762 0.50549 0.0
C43 C 0.62693 0.99311 0.51081 0.0
C44 C 0.5878 0.96519 0.51583 0.0
C45 C 0.57838 0.93278 0.52096 0.0
C46 C 0.608 0.92788 0.52121 0.0
C47 C 0.64695 0.95592 0.5159 0.0
C48 C 0.65627 0.98815 0.51081 0.0
C49 C 0.59955 0.06039 0.44666 0.0
C50 C 0.5065 0.99194 0.47763 0.0
C51 C 0.52306 0.10573 0.46218 0.0
C52 C 0.52718 0.13838 0.46847 0.0
C53 C 0.52032 0.15431 0.4534 0.0
C54 C 0.52372 0.18511 0.45933 0.0
C55 C 0.53381 0.20033 0.48048 0.0
C56 C 0.54112 0.18447 0.49549 0.0
C57 C 0.53804 0.1539 0.48953 0.0
C58 C 0.56332 0.07376 0.51925 0.0
C59 C 0.6557 0.13939 0.4842 0.0
O60 O 0.62436 0.04157 0.51648 0.0
O61 O 0.63728 0.031 0.48553 0.0
O62 O 0.57065 0.04629 0.45806 0.0
O63 O 0.63252 0.07015 0.45692 0.0
O64 O 0.53933 1.00217 0.48915 0.0
O65 O 0.50713 0.01541 0.46752 0.0
O66 O 0.55487 0.11102 0.45517 0.0
O67 O 0.50547 0.08089 0.47488 0.0
O68 O 0.5913 0.08668 0.50735 0.0
O69 O 0.53035 0.06423 0.50927 0.0
O70 O 0.62065 0.12965 0.47595 0.0
O71 O 0.65776 0.11618 0.49288 0.0
H72 H 0.56467 0.9685 0.51591 0.0
H73 H 0.54819 0.9119 0.52511 0.0
H74 H 0.67026 0.95286 0.51545 0.0
H75 H 0.68654 0.0093 0.50683 0.0
H76 H 0.51208 0.14278 0.43707 0.0
H77 H 0.51767 0.19659 0.44744 0.0
H78 H 0.54952 0.19587 0.51184 0.0
H79 H 0.54397 0.14228 0.50138 0.0
Sm80 Sm 0.59939 0.59189 0.85209 0.0
Sm81 Sm 0.54016 0.50721 0.85111 0.0
C82 C 0.63786 0.6601 0.84553 0.0
C83 C 0.62954 0.68425 0.83919 0.0
C84 C 0.59372 0.67094 0.82691 0.0
C85 C 0.58679 0.6947 0.82117 0.0
C86 C 0.61542 0.73212 0.82777 0.0
C87 C 0.65117 0.74514 0.84008 0.0
C88 C 0.65811 0.72145 0.8457 0.0
C89 C 0.58777 0.56534 0.8898 0.0
C90 C 0.49596 0.54778 0.85206 0.0
C91 C 0.50428 0.44214 0.86227 0.0
C92 C 0.50601 0.41278 0.85531 0.0
C93 C 0.50725 0.39315 0.87006 0.0
C94 C 0.51184 0.36706 0.86382 0.0
C95 C 0.51534 0.36009 0.84264 0.0
C96 C 0.51361 0.37963 0.82789 0.0
C97 C 0.50922 0.40577 0.83416 0.0
C98 C 0.55495 0.52389 0.81043 0.0
C99 C 0.6439 0.55208 0.85183 0.0
O100 O 0.63031 0.63502 0.83115 0.0
O101 O 0.62756 0.64883 0.86391 0.0
O102 O 0.56095 0.55361 0.87489 0.0
O103 O 0.62309 0.5934 0.8855 0.0
O104 O 0.53347 0.57814 0.84975 0.0
O105 O 0.49114 0.51738 0.85412 0.0
O106 O 0.53777 0.47142 0.87242 0.0
O107 O 0.48669 0.44906 0.84873 0.0
O108 O 0.56906 0.5456 0.82698 0.0
O109 O 0.53102 0.49107 0.81513 0.0
O110 O 0.60649 0.522 0.85434 0.0
O111 O 0.64855 0.5821 0.84891 0.0
H112 H 0.57112 0.64223 0.82182 0.0
H113 H 0.55878 0.68375 0.81186 0.0
H114 H 0.67411 0.77378 0.84518 0.0
H115 H 0.68596 0.73224 0.85515 0.0
H116 H 0.5054 0.39846 0.8865 0.0
H117 H 0.51361 0.35298 0.87567 0.0
H118 H 0.51558 0.3747 0.81142 0.0
H119 H 0.5088 0.42078 0.82246 0.0
H120 H 0.50116 1.00382 0.2279 0.0
H121 H 0.61057 0.10675 0.21662 0.0
H122 H 0.53276 0.02394 0.16483 0.0
C123 C 0.52121 0.02195 0.21698 0.0
C124 C 0.51211 0.00959 0.19545 0.0
C125 C 0.55654 0.05677 0.22477 0.0
C126 C 0.5834 0.07985 0.21067 0.0
C127 C 0.57478 0.06817 0.18895 0.0
C128 C 0.53935 0.03291 0.18153 0.0
N129 N 0.60068 0.09089 0.17406 0.0
C130 C 0.63613 0.12675 0.17848 0.0
H131 H 0.56244 0.49613 0.59039 0.0
H132 H 0.55865 0.58356 0.58431 0.0
H133 H 0.55026 0.52096 0.52924 0.0
C134 C 0.55954 0.51214 0.58061 0.0
C135 C 0.55582 0.50474 0.55872 0.0
C136 C 0.56025 0.54025 0.59007 0.0
C137 C 0.55839 0.562 0.57723 0.0
C138 C 0.55502 0.55505 0.55521 0.0
C139 C 0.5537 0.52651 0.54619 0.0
N140 N 0.55205 0.57545 0.54143 0.0
C141 C 0.55373 0.60511 0.5474 0.0
H142 H 0.9946 0.55212 0.90021 0.0
H143 H 0.09628 0.55258 0.89482 0.0
H144 H 0.03189 0.54786 0.83903 0.0
C145 C 1.01457 0.55179 0.89018 0.0
C146 C 1.00757 0.54996 0.86843 0.0
C147 C 0.04612 0.55297 0.89959 0.0
C148 C 0.07239 0.5517 0.88722 0.0
C149 C 0.0688 0.55003 0.86529 0.0
C150 C 0.0358 0.54934 0.8559 0.0
N151 N 0.09722 0.54903 0.85277 0.0
C152 C 0.13159 0.54949 0.8581 0.0
H153 H 0.13746 0.62859 0.41202 0.0
H154 H 0.03712 0.52235 0.42493 0.0
H155 H 0.12179 0.60398 0.47576 0.0
C156 C 0.12032 0.60999 0.42337 0.0
C157 C 0.13406 0.62132 0.44482 0.0
C158 C 0.08541 0.57465 0.41611 0.0
C159 C 0.06399 0.54962 0.43053 0.0
C160 C 0.07704 0.56015 0.45215 0.0
C161 C 0.1121 0.59592 0.45911 0.0
N162 N 0.05574 0.53586 0.46738 0.0
C163 C 1.0202 0.49992 0.46342 0.0
H164 H 0.56075 0.10147 0.73758 0.0
H165 H 0.58375 0.02747 0.7494 0.0
H166 H 0.57702 0.0863 0.801 0.0
C167 C 0.56641 0.08856 0.7486 0.0
C168 C 0.56815 0.09712 0.77023 0.0
C169 C 0.57205 0.06357 0.74097 0.0
C170 C 0.57932 0.04667 0.75522 0.0
C171 C 0.58053 0.0546 0.77696 0.0
C172 C 0.57519 0.07986 0.78423 0.0
N173 N 0.58754 0.03841 0.79219 0.0
C174 C 0.58873 0.00989 0.78832 0.0
H175 H 0.52897 0.37829 0.07721 0.0
H176 H 0.43959 0.39428 0.07937 0.0
H177 H 0.456 0.34794 0.12908 0.0
C178 C 0.50464 0.37531 0.08477 0.0
C179 C 0.4947 0.36138 0.10415 0.0
C180 C 0.48466 0.38699 0.07557 0.0
C181 C 0.45447 0.38454 0.08603 0.0
C182 C 0.44424 0.37053 0.10534 0.0
C183 C 0.46366 0.35821 0.11402 0.0
N184 N 0.4163 0.37055 0.11695 0.0
C185 C 0.41137 0.39667 0.11588 0.0
H186 H 0.30185 0.59013 0.09087 0.0
H187 H 0.35171 0.57989 0.08809 0.0
H188 H 0.33749 0.55294 0.15152 0.0
H189 H 0.28832 0.56351 0.15446 0.0
H190 H 0.41338 0.58117 0.14106 0.0
H191 H 0.27237 0.48915 0.11121 0.0
H192 H 0.21247 0.46773 0.0875 0.0
H193 H 0.28057 0.49011 0.03435 0.0
H194 H 0.34111 0.51224 0.05783 0.0
H195 H 0.39823 0.42635 0.14816 0.0
H196 H 0.39159 0.47394 0.14744 0.0
H197 H 0.41241 0.47904 0.08203 0.0
H198 H 0.41845 0.43103 0.08267 0.0
H199 H 0.34732 0.47307 0.08819 0.0
H200 H 0.48343 0.54967 0.11919 0.0
H201 H 0.54159 0.56974 0.14385 0.0
H202 H 0.48267 0.57502 0.19548 0.0
H203 H 0.42386 0.55446 0.17118 0.0
C204 C 0.31046 0.58322 0.10443 0.0
C205 C 0.29065 0.57691 0.12273 0.0
C206 C 0.33899 0.57749 0.10286 0.0
C207 C 0.34744 0.56476 0.11942 0.0
C208 C 0.3313 0.56263 0.13852 0.0
C209 C 0.30311 0.56868 0.14018 0.0
C210 C 0.36599 0.54697 0.11581 0.0
C211 C 0.39922 0.55765 0.12945 0.0
C212 C 0.34786 0.51668 0.10038 0.0
C213 C 0.31131 0.50272 0.08626 0.0
C214 C 0.27458 0.48965 0.09447 0.0
C215 C 0.24054 0.4774 0.08108 0.0
C216 C 0.24274 0.47765 0.05943 0.0
C217 C 0.27895 0.49003 0.05113 0.0
C218 C 0.31314 0.50244 0.06446 0.0
C219 C 0.40162 0.43792 0.13371 0.0
C220 C 0.40852 0.42519 0.11545 0.0
C221 C 0.3983 0.4653 0.13334 0.0
C222 C 0.40217 0.48045 0.11473 0.0
C223 C 0.40968 0.46792 0.09654 0.0
C224 C 0.41295 0.44049 0.09691 0.0
C225 C 0.39421 0.5066 0.11382 0.0
C226 C 0.36263 0.49729 0.09937 0.0
C227 C 0.41375 0.5379 0.1286 0.0
C228 C 0.44909 0.55032 0.14333 0.0
C229 C 0.48272 0.55485 0.13581 0.0
C230 C 0.51584 0.56636 0.14974 0.0
C231 C 0.51581 0.5736 0.17122 0.0
C232 C 0.48266 0.5694 0.17883 0.0
C233 C 0.44945 0.55788 0.16498 0.0
H234 H 0.54148 0.58252 0.18197 0.0
H235 H 0.21636 0.46817 0.04909 0.0
H236 H 0.66268 0.19427 0.46763 0.0
H237 H 0.7244 0.25444 0.46339 0.0
H238 H 0.79672 0.23009 0.49256 0.0
H239 H 0.73486 0.16977 0.49714 0.0
H240 H 0.82589 0.29718 0.50666 0.0
H241 H 0.78676 0.22934 0.43884 0.0
H242 H 0.74031 0.1901 0.40721 0.0
H243 H 0.72869 0.27056 0.39391 0.0
H244 H 0.77455 0.31006 0.42568 0.0
H245 H 1.01545 0.44541 0.47718 0.0
H246 H 0.95387 0.3837 0.47976 0.0
H247 H 0.88097 0.40855 0.45192 0.0
H248 H 0.94289 0.47033 0.44915 0.0
H249 H 0.85222 0.34086 0.43674 0.0
H250 H 0.89003 0.40781 0.50505 0.0
H251 H 0.93581 0.44657 0.53696 0.0
H252 H 0.94967 0.3671 0.54921 0.0
H253 H 0.90438 0.32805 0.5172 0.0
C254 C 0.69164 0.20161 0.47325 0.0
C255 C 0.69356 0.17686 0.48269 0.0
C256 C 0.72707 0.23613 0.47068 0.0
C257 C 0.76553 0.24687 0.47731 0.0
C258 C 0.76755 0.22256 0.48721 0.0
C259 C 0.73205 0.18797 0.48981 0.0
C260 C 0.80348 0.28339 0.47396 0.0
C261 C 0.83186 0.30643 0.49129 0.0
C262 C 0.81114 0.2961 0.45401 0.0
C263 C 0.78382 0.27254 0.43477 0.0
C264 C 0.77407 0.23857 0.42927 0.0
C265 C 0.74787 0.21628 0.4113 0.0
C266 C 0.73149 0.22779 0.39858 0.0
C267 C 0.74137 0.26166 0.40379 0.0
C268 C 0.76748 0.28402 0.42177 0.0
C269 C 0.98628 0.43748 0.47137 0.0
C270 C 0.98382 0.46246 0.46289 0.0
C271 C 0.95103 0.40228 0.47298 0.0
C272 C 0.91245 0.39136 0.46633 0.0
C273 C 0.9102 0.41614 0.45721 0.0
C274 C 0.94556 0.45143 0.45562 0.0
C275 C 0.87462 0.35458 0.46944 0.0
C276 C 0.84626 0.33153 0.45208 0.0
C277 C 0.86695 0.34178 0.48935 0.0
C278 C 0.89415 0.36518 0.50861 0.0
C279 C 0.9031 0.39873 0.51446 0.0
C280 C 0.92891 0.42073 0.53258 0.0
C281 C 0.94573 0.40935 0.54507 0.0
C282 C 0.93668 0.3759 0.5395 0.0
C283 C 0.91092 0.35381 0.52138 0.0
H284 H 0.96569 0.42642 0.55909 0.0
H285 H 0.71123 0.2105 0.38467 0.0
H286 H 0.58503 0.73334 0.78968 0.0
H287 H 0.57587 0.777 0.78018 0.0
H288 H 0.62128 0.83265 0.84314 0.0
H289 H 0.6296 0.78879 0.85283 0.0
H290 H 0.55556 0.82532 0.82944 0.0
H291 H 0.68105 0.86491 0.80267 0.0
H292 H 0.72407 0.85805 0.78153 0.0
H293 H 0.65027 0.83513 0.7253 0.0
H294 H 0.60646 0.84139 0.74616 0.0
H295 H 0.61561 0.99813 0.82196 0.0
H296 H 0.61555 0.94729 0.8257 0.0
H297 H 0.5652 0.90445 0.76118 0.0
H298 H 0.56552 0.95591 0.75743 0.0
H299 H 0.62614 0.90018 0.77216 0.0
H300 H 0.50431 0.86623 0.79894 0.0
H301 H 0.46202 0.87375 0.82029 0.0
H302 H 0.52893 0.88602 0.87664 0.0
H303 H 0.57203 0.87911 0.85561 0.0
C304 C 0.59266 0.75467 0.80155 0.0
C305 C 0.6083 0.75769 0.82199 0.0
C306 C 0.58774 0.77979 0.79604 0.0
C307 C 0.59833 0.80841 0.81087 0.0
C308 C 0.61303 0.81093 0.83139 0.0
C309 C 0.61808 0.78597 0.83687 0.0
C310 C 0.59445 0.836 0.80518 0.0
C311 C 0.57125 0.84184 0.81701 0.0
C312 C 0.61388 0.85689 0.78854 0.0
C313 C 0.64021 0.85318 0.77599 0.0
C314 C 0.67379 0.8581 0.78581 0.0
C315 C 0.69835 0.85438 0.77388 0.0
C316 C 0.68983 0.84604 0.75209 0.0
C317 C 0.65678 0.84151 0.74218 0.0
C318 C 0.63209 0.84516 0.75405 0.0
C319 C 0.60481 0.97795 0.80855 0.0
C320 C 0.59059 0.98069 0.78944 0.0
C321 C 0.60457 0.94884 0.81071 0.0
C322 C 0.58982 0.92172 0.79382 0.0
C323 C 0.57657 0.92497 0.77444 0.0
C324 C 0.57672 0.95424 0.7723 0.0
C325 C 0.588 0.88999 0.79675 0.0
C326 C 0.61005 0.88335 0.78441 0.0
C327 C 0.56753 0.86832 0.81295 0.0
C328 C 0.54162 0.87243 0.82568 0.0
C329 C 0.51022 0.87082 0.81588 0.0
C330 C 0.48606 0.87492 0.82793 0.0
C331 C 0.49283 0.88043 0.84981 0.0
C332 C 0.52373 0.88178 0.85969 0.0
C333 C 0.54801 0.87772 0.84771 0.0
H334 H 0.47409 0.8836 0.85911 0.0
H335 H 0.70889 0.84318 0.74288 0.0
H336 H 0.81394 0.4958 0.20103 0.0
H337 H 0.7408 0.451 0.19119 0.0
H338 H 0.76132 0.39612 0.14378 0.0
H339 H 0.83439 0.44006 0.15397 0.0
H340 H 0.72246 0.42316 0.1288 0.0
H341 H 0.70772 0.3492 0.17985 0.0
H342 H 0.71695 0.3358 0.21478 0.0
H343 H 0.65387 0.37213 0.24068 0.0
H344 H 0.64447 0.38602 0.20591 0.0
H345 H 0.52244 0.32595 0.08838 0.0
H346 H 0.57777 0.32892 0.10466 0.0
H347 H 0.58167 0.38692 0.16104 0.0
H348 H 0.52647 0.38383 0.145 0.0
H349 H 0.60542 0.34642 0.16992 0.0
H350 H 0.63452 0.43312 0.12317 0.0
H351 H 0.62553 0.45033 0.08957 0.0
H352 H 0.66498 0.39612 0.05739 0.0
H353 H 0.67344 0.37797 0.0908 0.0
C354 C 0.80282 0.47349 0.18902 0.0
C355 C 0.82991 0.47187 0.17797 0.0
C356 C 0.76103 0.4479 0.18343 0.0
C357 C 0.74583 0.42043 0.16671 0.0
C358 C 0.77258 0.41722 0.15668 0.0
C359 C 0.81427 0.44253 0.1624 0.0
C360 C 0.70333 0.3992 0.15758 0.0
C361 C 0.69675 0.40548 0.13754 0.0
C362 C 0.67011 0.37719 0.16931 0.0
C363 C 0.67561 0.36886 0.19027 0.0
C364 C 0.69607 0.3546 0.19302 0.0
C365 C 0.70129 0.34686 0.21279 0.0
C366 C 0.68614 0.35322 0.22996 0.0
C367 C 0.6656 0.36723 0.22737 0.0
C368 C 0.66022 0.37495 0.20761 0.0
C369 C 0.53439 0.33841 0.10445 0.0
C370 C 0.52066 0.35518 0.1153 0.0
C371 C 0.56576 0.3399 0.11377 0.0
C372 C 0.58422 0.35872 0.1339 0.0
C373 C 0.56779 0.37222 0.14551 0.0
C374 C 0.53626 0.37051 0.13628 0.0
C375 C 0.62476 0.37053 0.14122 0.0
C376 C 0.63105 0.36303 0.16094 0.0
C377 C 0.65809 0.39212 0.12941 0.0
C378 C 0.65412 0.40381 0.10941 0.0
C379 C 0.64106 0.4247 0.1089 0.0
C380 C 0.63603 0.4346 0.0899 0.0
C381 C 0.64455 0.42422 0.07135 0.0
C382 C 0.65829 0.40405 0.07178 0.0
C383 C 0.66317 0.39392 0.09073 0.0
H384 H 0.64061 0.43189 0.05665 0.0
H385 H 0.69025 0.34723 0.24525 0.0
H386 H 0.48964 0.93883 0.50098 0.0
H387 H 0.42708 0.87646 0.49887 0.0
H388 H 0.37502 0.89528 0.44842 0.0
H389 H 0.43704 0.95802 0.45092 0.0
H390 H 0.32053 0.85842 0.47447 0.0
H391 H 0.41427 0.84614 0.44141 0.0
H392 H 0.47854 0.85543 0.44112 0.0
H393 H 0.45057 0.79778 0.49468 0.0
H394 H 0.38625 0.78837 0.49536 0.0
H395 H 0.15708 0.68306 0.42923 0.0
H396 H 0.22001 0.74437 0.43766 0.0
H397 H 0.25851 0.70947 0.48526 0.0
H398 H 0.196 0.64704 0.47599 0.0
H399 H 0.3205 0.75393 0.46491 0.0
H400 H 0.22623 0.76131 0.49732 0.0
H401 H 0.1632 0.75338 0.50044 0.0
H402 H 0.19282 0.82127 0.45203 0.0
H403 H 0.25579 0.82922 0.44841 0.0
C404 C 0.46496 0.92972 0.48936 0.0
C405 C 0.46862 0.95359 0.47605 0.0
C406 C 0.42911 0.89383 0.48811 0.0
C407 C 0.3962 0.88063 0.47324 0.0
C408 C 0.39979 0.90454 0.46002 0.0
C409 C 0.43544 0.94052 0.46143 0.0
C410 C 0.35785 0.84219 0.47149 0.0
C411 C 0.32057 0.83562 0.4721 0.0
C412 C 0.35762 0.81214 0.46937 0.0
C413 C 0.39563 0.8168 0.46852 0.0
C414 C 0.42188 0.83551 0.45314 0.0
C415 C 0.4583 0.84079 0.45291 0.0
C416 C 0.46867 0.82727 0.4679 0.0
C417 C 0.4425 0.80824 0.48308 0.0
C418 C 0.40603 0.80286 0.48337 0.0
C419 C 0.17889 0.68814 0.44143 0.0
C420 C 0.17125 0.65966 0.45176 0.0
C421 C 0.21489 0.72358 0.44646 0.0
C422 C 0.24419 0.73207 0.46234 0.0
C423 C 0.23652 0.70388 0.47297 0.0
C424 C 0.20046 0.66814 0.4678 0.0
C425 C 0.28302 0.77015 0.46726 0.0
C426 C 0.32038 0.77669 0.46734 0.0
C427 C 0.28342 0.80025 0.47034 0.0
C428 C 0.2456 0.79563 0.47248 0.0
C429 C 0.21917 0.77435 0.48723 0.0
C430 C 0.18347 0.76988 0.48911 0.0
C431 C 0.17397 0.78675 0.47641 0.0
C432 C 0.20021 0.8082 0.46185 0.0
C433 C 0.23594 0.81273 0.45989 0.0
H434 H 0.14632 0.78326 0.47789 0.0
H435 H 0.49694 0.83151 0.46775 0.0
H436 H 0.56419 0.36464 0.81361 0.0
H437 H 0.57246 0.31969 0.80186 0.0
H438 H 0.48932 0.24946 0.84488 0.0
H439 H 0.48028 0.29409 0.85652 0.0
H440 H 0.5563 0.25256 0.84549 0.0
H441 H 0.4583 0.23259 0.7933 0.0
H442 H 0.43174 0.25003 0.76692 0.0
H443 H 0.53146 0.28475 0.73078 0.0
H444 H 0.55894 0.26797 0.75711 0.0
H445 H 0.52443 0.09346 0.80211 0.0
H446 H 0.51582 0.13787 0.81495 0.0
H447 H 0.59131 0.20651 0.76917 0.0
H448 H 0.59987 0.16213 0.75621 0.0
H449 H 0.5273 0.20376 0.77026 0.0
H450 H 0.62624 0.22501 0.82202 0.0
H451 H 0.65444 0.2089 0.84834 0.0
H452 H 0.55542 0.17347 0.88521 0.0
H453 H 0.52631 0.18891 0.85894 0.0
C454 C 0.54725 0.33949 0.82045 0.0
C455 C 0.52124 0.33296 0.83591 0.0
C456 C 0.55216 0.31383 0.81375 0.0
C457 C 0.53115 0.28096 0.82229 0.0
C458 C 0.50585 0.27461 0.83805 0.0
C459 C 0.50083 0.30025 0.84474 0.0
C460 C 0.53544 0.2532 0.81467 0.0
C461 C 0.54941 0.24149 0.82909 0.0
C462 C 0.52745 0.23939 0.79319 0.0
C463 C 0.51088 0.24934 0.77728 0.0
C464 C 0.47474 0.2442 0.77981 0.0
C465 C 0.45949 0.25393 0.76485 0.0
C466 C 0.47996 0.26858 0.74721 0.0
C467 C 0.51567 0.27344 0.74446 0.0
C468 C 0.53107 0.2638 0.75939 0.0
C469 C 0.53952 0.11816 0.7949 0.0
C470 C 0.56294 0.12422 0.77815 0.0
C471 C 0.53456 0.14357 0.80226 0.0
C472 C 0.55331 0.17585 0.79323 0.0
C473 C 0.57648 0.18185 0.77641 0.0
C474 C 0.58127 0.15637 0.76897 0.0
C475 C 0.54833 0.20314 0.80106 0.0
C476 C 0.53419 0.21476 0.78667 0.0
C477 C 0.55642 0.21702 0.82256 0.0
C478 C 0.57388 0.20777 0.8384 0.0
C479 C 0.6103 0.21351 0.83565 0.0
C480 C 0.62648 0.20455 0.85058 0.0
C481 C 0.60667 0.19008 0.86841 0.0
C482 C 0.57069 0.18463 0.87138 0.0
C483 C 0.55436 0.19351 0.85648 0.0
H484 H 0.61925 0.18317 0.87995 0.0
H485 H 0.4681 0.27608 0.73564 0.0
H486 H 0.53817 0.85785 0.51046 0.0
H487 H 0.52552 0.80215 0.51814 0.0
H488 H 0.6445 0.86513 0.55201 0.0
H489 H 0.65703 0.92076 0.5449 0.0
H490 H 0.6293 0.81149 0.52284 0.0
H491 H 0.56279 0.82337 0.57829 0.0
H492 H 0.5144 0.83031 0.59284 0.0
H493 H 0.41513 0.73044 0.55687 0.0
H494 H 0.46303 0.72315 0.54188 0.0
H495 H 0.61725 0.67286 0.56418 0.0
H496 H 0.62338 0.72755 0.56295 0.0
H497 H 0.50065 0.66236 0.53333 0.0
H498 H 0.49446 0.60773 0.53491 0.0
H499 H 0.51627 0.71663 0.56042 0.0
H500 H 0.57977 0.70454 0.50406 0.0
H501 H 0.62615 0.69686 0.48744 0.0
H502 H 0.72857 0.79604 0.5225 0.0
H503 H 0.68272 0.80405 0.53957 0.0
C504 C 0.56138 0.85987 0.51986 0.0
C505 C 0.59879 0.89385 0.5269 0.0
C506 C 0.55413 0.82799 0.52418 0.0
C507 C 0.58412 0.8295 0.53564 0.0
C508 C 0.62107 0.86333 0.54302 0.0
C509 C 0.62823 0.89512 0.53884 0.0
C510 C 0.57794 0.79597 0.53921 0.0
C511 C 0.60496 0.791 0.53135 0.0
C512 C 0.54539 0.76872 0.54969 0.0
C513 C 0.51653 0.7729 0.55881 0.0
C514 C 0.53067 0.80303 0.57336 0.0
C515 C 0.50333 0.807 0.58171 0.0
C516 C 0.46172 0.78088 0.57574 0.0
C517 C 0.44737 0.75067 0.56146 0.0
C518 C 0.4746 0.74659 0.55305 0.0
C519 C 0.59141 0.67032 0.55786 0.0
C520 C 0.55537 0.63642 0.54972 0.0
C521 C 0.59495 0.70148 0.55702 0.0
C522 C 0.56266 0.69913 0.54775 0.0
C523 C 0.52594 0.66488 0.54054 0.0
C524 C 0.52241 0.63374 0.54144 0.0
C525 C 0.56803 0.7324 0.54432 0.0
C526 C 0.54077 0.73722 0.55205 0.0
C527 C 0.6001 0.75942 0.53347 0.0
C528 C 0.62778 0.75468 0.52327 0.0
C529 C 0.61216 0.72455 0.50837 0.0
C530 C 0.63835 0.72017 0.49884 0.0
C531 C 0.68027 0.74589 0.50396 0.0
C532 C 0.69608 0.7761 0.51859 0.0
C533 C 0.67001 0.78058 0.52819 0.0
H534 H 0.70051 0.74246 0.49656 0.0
H535 H 0.4406 0.784 0.58222 0.0
H536 H 0.72634 0.60602 0.84435 0.0
H537 H 0.78441 0.60593 0.84564 0.0
H538 H 0.70821 0.49773 0.8623 0.0
H539 H 0.65013 0.49799 0.86117 0.0
H540 H 0.77672 0.5249 0.88234 0.0
H541 H 0.75561 0.53053 0.80971 0.0
H542 H 0.74812 0.55487 0.77907 0.0
H543 H 0.86705 0.65608 0.79654 0.0
H544 H 0.87504 0.63246 0.82743 0.0
H545 H 0.92466 0.49548 0.87124 0.0
H546 H 0.86672 0.49517 0.86726 0.0
H547 H 0.94411 0.60167 0.84818 0.0
H548 H 1.00222 0.60125 0.85155 0.0
H549 H 0.87538 0.57612 0.82926 0.0
H550 H 0.89651 0.57106 0.90198 0.0
H551 H 0.90413 0.54719 0.93283 0.0
H552 H 0.78529 0.44575 0.91564 0.0
H553 H 0.77718 0.46888 0.88453 0.0
C554 C 0.7213 0.58186 0.84823 0.0
C555 C 0.68158 0.55196 0.85249 0.0
C556 C 0.75542 0.58166 0.84883 0.0
C557 C 0.75289 0.55152 0.85374 0.0
C558 C 0.71325 0.52184 0.85833 0.0
C559 C 0.67904 0.52194 0.85759 0.0
C560 C 0.7905 0.55097 0.85436 0.0
C561 C 0.79759 0.53581 0.87037 0.0
C562 C 0.82038 0.56557 0.83951 0.0
C563 C 0.81574 0.57986 0.821 0.0
C564 C 0.78005 0.55805 0.80709 0.0
C565 C 0.77573 0.57171 0.78967 0.0
C566 C 0.80704 0.60703 0.7859 0.0
C567 C 0.84279 0.62874 0.79951 0.0
C568 C 0.84724 0.61523 0.81697 0.0
C569 C 0.92972 0.51873 0.86561 0.0
C570 C 0.96967 0.54778 0.8611 0.0
C571 C 0.89578 0.51896 0.86376 0.0
C572 C 0.89883 0.54885 0.85788 0.0
C573 C 0.93864 0.57771 0.85283 0.0
C574 C 0.97273 0.57734 0.85456 0.0
C575 C 0.86156 0.54994 0.85723 0.0
C576 C 0.85452 0.5652 0.84123 0.0
C577 C 0.83175 0.53553 0.87214 0.0
C578 C 0.83642 0.52158 0.89082 0.0
C579 C 0.8721 0.5436 0.90472 0.0
C580 C 0.8765 0.53021 0.92225 0.0
C581 C 0.84525 0.49495 0.92616 0.0
C582 C 0.80949 0.47304 0.91257 0.0
C583 C 0.80497 0.48627 0.89499 0.0
H584 H 0.84872 0.48463 0.93974 0.0
H585 H 0.80364 0.61756 0.77241 0.0
H586 H 0.1638 0.69887 0.18534 0.0
H587 H 0.22642 0.76094 0.18728 0.0
H588 H 0.27824 0.72515 0.14735 0.0
H589 H 0.2156 0.66257 0.14555 0.0
H590 H 0.33334 0.77414 0.17893 0.0
H591 H 0.24437 0.76866 0.12825 0.0
H592 H 0.18102 0.75545 0.11395 0.0
H593 H 0.19545 0.83001 0.16326 0.0
H594 H 0.25862 0.84328 0.17804 0.0
H595 H 0.50243 0.95745 0.16723 0.0
H596 H 0.44128 0.89415 0.15829 0.0
H597 H 0.37537 0.91369 0.19849 0.0
H598 H 0.4359 0.97674 0.20717 0.0
H599 H 0.32879 0.87199 0.16283 0.0
H600 H 0.41486 0.87334 0.21484 0.0
H601 H 0.47802 0.88616 0.22911 0.0
H602 H 0.469 0.81914 0.17659 0.0
H603 H 0.40603 0.80633 0.16185 0.0
C604 C 0.18842 0.70403 0.17694 0.0
C605 C 0.18436 0.67552 0.16519 0.0
C606 C 0.22428 0.73973 0.17799 0.0
C607 C 0.25705 0.74805 0.1672 0.0
C608 C 0.25343 0.71959 0.15575 0.0
C609 C 0.21747 0.68376 0.1547 0.0
C610 C 0.29493 0.78642 0.16804 0.0
C611 C 0.33239 0.79541 0.17503 0.0
C612 C 0.29394 0.81448 0.16325 0.0
C613 C 0.25608 0.80675 0.15435 0.0
C614 C 0.23389 0.78205 0.13613 0.0
C615 C 0.19803 0.77458 0.12793 0.0
C616 C 0.18418 0.79182 0.13772 0.0
C617 C 0.20621 0.81665 0.15571 0.0
C618 C 0.24207 0.82419 0.16399 0.0
C619 C 0.4747 0.94836 0.17388 0.0
C620 C 0.4742 0.97215 0.18804 0.0
C621 C 0.43983 0.91206 0.16891 0.0
C622 C 0.40368 0.89884 0.17794 0.0
C623 C 0.40277 0.92302 0.19136 0.0
C624 C 0.43754 0.9591 0.19641 0.0
C625 C 0.36703 0.85977 0.17405 0.0
C626 C 0.32979 0.85065 0.16649 0.0
C627 C 0.36826 0.83161 0.17826 0.0
C628 C 0.40603 0.83923 0.18712 0.0
C629 C 0.42654 0.86159 0.20625 0.0
C630 C 0.46226 0.8688 0.21443 0.0
C631 C 0.47759 0.85357 0.20373 0.0
C632 C 0.45714 0.83099 0.18484 0.0
C633 C 0.42143 0.82373 0.17656 0.0
H634 H 0.50524 0.85918 0.2101 0.0
H635 H 0.1564 0.786 0.13134 0.0
H636 H 0.50254 0.21067 0.51402 0.0
H637 H 0.50647 0.26324 0.52495 0.0
H638 H 0.57373 0.31467 0.4726 0.0
H639 H 0.57026 0.26215 0.46167 0.0
H640 H 0.60732 0.36096 0.51011 0.0
H641 H 0.47756 0.27981 0.47006 0.0
H642 H 0.40944 0.22173 0.45964 0.0
H643 H 0.37454 0.22585 0.52115 0.0
H644 H 0.44269 0.28373 0.53204 0.0
H645 H 0.592 0.50224 0.5246 0.0
H646 H 0.58795 0.4513 0.5091 0.0
H647 H 0.51107 0.38688 0.55582 0.0
H648 H 0.51372 0.43711 0.57088 0.0
H649 H 0.48268 0.34804 0.51834 0.0
H650 H 0.61271 0.42646 0.55925 0.0
H651 H 0.68104 0.48386 0.57045 0.0
H652 H 0.7156 0.48434 0.50825 0.0
H653 H 0.64724 0.42716 0.49661 0.0
C654 C 0.51837 0.23325 0.5049 0.0
C655 C 0.5361 0.23227 0.48698 0.0
C656 C 0.52033 0.26315 0.51107 0.0
C657 C 0.5401 0.29273 0.49948 0.0
C658 C 0.55822 0.29206 0.48172 0.0
C659 C 0.55599 0.26198 0.47542 0.0
C660 C 0.54199 0.32438 0.50612 0.0
C661 C 0.5801 0.35831 0.51158 0.0
C662 C 0.50645 0.32072 0.50843 0.0
C663 C 0.46536 0.28597 0.50192 0.0
C664 C 0.45547 0.26819 0.48142 0.0
C665 C 0.41683 0.23533 0.47542 0.0
C666 C 0.38771 0.22007 0.48974 0.0
C667 C 0.39714 0.23769 0.51008 0.0
C668 C 0.43576 0.27055 0.51617 0.0
C669 C 0.57391 0.47711 0.53145 0.0
C670 C 0.55339 0.47386 0.54907 0.0
C671 C 0.57193 0.44811 0.52269 0.0
C672 C 0.54961 0.41537 0.53145 0.0
C673 C 0.5286 0.4119 0.54882 0.0
C674 C 0.53048 0.44079 0.55755 0.0
C675 C 0.54805 0.38463 0.52263 0.0
C676 C 0.50995 0.35082 0.51675 0.0
C677 C 0.58361 0.38839 0.52003 0.0
C678 C 0.62472 0.42276 0.527 0.0
C679 C 0.63477 0.43897 0.54792 0.0
C680 C 0.67353 0.47143 0.55435 0.0
C681 C 0.70261 0.4878 0.54006 0.0
C682 C 0.69302 0.47167 0.5193 0.0
C683 C 0.65428 0.43923 0.51277 0.0
H684 H 0.7326 0.51292 0.54507 0.0
H685 H 0.35781 0.19462 0.48506 0.0
H686 H 0.48873 0.60143 0.84322 0.0
H687 H 0.43118 0.60192 0.8437 0.0
H688 H 0.35765 0.49587 0.86358 0.0
H689 H 0.41496 0.4948 0.86205 0.0
H690 H 0.30426 0.49323 0.84466 0.0
H691 H 0.40524 0.59532 0.89487 0.0
H692 H 0.47209 0.65353 0.90742 0.0
H693 H 0.45747 0.70388 0.85955 0.0
H694 H 0.39067 0.64587 0.8466 0.0
H695 H 0.13952 0.49795 0.87016 0.0
H696 H 0.1974 0.49757 0.8698 0.0
H697 H 0.26856 0.60072 0.8463 0.0
H698 H 0.21077 0.60133 0.84718 0.0
H699 H 0.32302 0.60497 0.8672 0.0
H700 H 0.2216 0.50309 0.81745 0.0
H701 H 0.15499 0.4448 0.80473 0.0
H702 H 0.17051 0.39398 0.8519 0.0
H703 H 0.23704 0.45208 0.86504 0.0
C704 C 0.46053 0.57797 0.84781 0.0
C705 C 0.45849 0.54814 0.85266 0.0
C706 C 0.42663 0.5784 0.84838 0.0
C707 C 0.3878 0.54937 0.85436 0.0
C708 C 0.38575 0.51936 0.85896 0.0
C709 C 0.41954 0.51875 0.85813 0.0
C710 C 0.35012 0.54984 0.8555 0.0
C711 C 0.30917 0.51796 0.84997 0.0
C712 C 0.35332 0.58134 0.86184 0.0
C713 C 0.3932 0.61622 0.86966 0.0
C714 C 0.41638 0.61879 0.88698 0.0
C715 C 0.45424 0.65174 0.89416 0.0
C716 C 0.46907 0.68236 0.88425 0.0
C717 C 0.44598 0.68013 0.86719 0.0
C718 C 0.40811 0.64724 0.85994 0.0
C719 C 0.16737 0.52087 0.86495 0.0
C720 C 0.16878 0.54978 0.85884 0.0
C721 C 0.20135 0.52048 0.86445 0.0
C722 C 0.23956 0.54877 0.85752 0.0
C723 C 0.24095 0.57792 0.85174 0.0
C724 C 0.20698 0.5783 0.85226 0.0
C725 C 0.27723 0.54834 0.85645 0.0
C726 C 0.31815 0.58023 0.86195 0.0
C727 C 0.27399 0.51684 0.85015 0.0
C728 C 0.23406 0.48199 0.84236 0.0
C729 C 0.21067 0.47952 0.82519 0.0
C730 C 0.17296 0.44652 0.81789 0.0
C731 C 0.15847 0.41574 0.82754 0.0
C732 C 0.18173 0.41787 0.84447 0.0
C733 C 0.21945 0.45081 0.85184 0.0
H734 H 0.12927 0.39021 0.82187 0.0
H735 H 0.4984 0.70783 0.88982 0.0
H736 H 0.98257 0.42415 0.14779 0.0
H737 H 0.92177 0.36339 0.15235 0.0
H738 H 0.86572 0.40797 0.1772 0.0
H739 H 0.92689 0.46876 0.1734 0.0
H740 H 0.84975 0.35892 0.19975 0.0
H741 H 0.83887 0.36095 0.1257 0.0
H742 H 0.86139 0.36975 0.09017 0.0
H743 H 0.87481 0.28765 0.09259 0.0
H744 H 0.85286 0.27868 0.12827 0.0
H745 H 0.6468 0.18874 0.18907 0.0
H746 H 0.70843 0.25086 0.18692 0.0
H747 H 0.77092 0.20984 0.16726 0.0
H748 H 0.70922 0.14789 0.16923 0.0
H749 H 0.78283 0.25731 0.1423 0.0
H750 H 0.79011 0.25483 0.21707 0.0
H751 H 0.76494 0.24649 0.25199 0.0
H752 H 0.75497 0.33034 0.24739 0.0
H753 H 0.77958 0.33886 0.21231 0.0
C754 C 0.9572 0.42101 0.15408 0.0
C755 C 0.95973 0.45146 0.16011 0.0
C756 C 0.92226 0.38613 0.15665 0.0
C757 C 0.88857 0.38068 0.1649 0.0
C758 C 0.89107 0.41114 0.17085 0.0
C759 C 0.92616 0.44602 0.16855 0.0
C760 C 0.85101 0.34342 0.16756 0.0
C761 C 0.83486 0.33687 0.18706 0.0
C762 C 0.83155 0.31419 0.15121 0.0
C763 C 0.84459 0.3194 0.12973 0.0
C764 C 0.84689 0.34495 0.11871 0.0
C765 C 0.85951 0.34994 0.09854 0.0
C766 C 0.86962 0.32934 0.08915 0.0
C767 C 0.86702 0.30362 0.09989 0.0
C768 C 0.85445 0.29855 0.12008 0.0
C769 C 0.67397 0.19319 0.18464 0.0
C770 C 0.67356 0.16372 0.17953 0.0
C771 C 0.70921 0.22867 0.1834 0.0
C772 C 0.74468 0.2353 0.17704 0.0
C773 C 0.74414 0.20563 0.17221 0.0
C774 C 0.70898 0.17024 0.17347 0.0
C775 C 0.78176 0.27278 0.1745 0.0
C776 C 0.79776 0.27938 0.15499 0.0
C777 C 0.80067 0.3021 0.19076 0.0
C778 C 0.78619 0.29715 0.21193 0.0
C779 C 0.78222 0.27128 0.22342 0.0
C780 C 0.76812 0.26657 0.24326 0.0
C781 C 0.75822 0.28778 0.25187 0.0
C782 C 0.76256 0.31387 0.24069 0.0
C783 C 0.7766 0.31866 0.22083 0.0
H784 H 0.74729 0.28407 0.26722 0.0
H785 H 0.8794 0.33324 0.07353 0.0
H786 H 0.05676 0.61687 0.0982 0.0
H787 H 0.05712 0.61143 0.06002 0.0
H788 H 0.04262 0.51348 0.06121 0.0
H789 H 0.0419 0.51864 0.0995 0.0
H790 H 0.10135 0.56062 0.03534 0.0
H791 H 0.96327 0.50653 0.04521 0.0
H792 H 0.90778 0.50315 0.05963 0.0
H793 H 0.94415 0.59632 0.0307 0.0
H794 H 1.00028 0.60059 0.01636 0.0
H795 H 0.05339 0.51145 0.92349 0.0
H796 H 0.05529 0.51277 0.96179 0.0
H797 H 0.05237 0.60212 0.96649 0.0
H798 H 0.04959 0.60029 0.92833 0.0
H799 H 1.00024 0.55479 0.98963 0.0
H800 H 0.13994 0.61086 0.98089 0.0
H801 H 0.19633 0.61531 0.96683 0.0
H802 H 0.15821 0.51995 0.99366 0.0
H803 H 0.10122 0.51465 0.00765 0.0
C804 C 0.05356 0.59412 0.09033 0.0
C805 C 0.04915 0.56811 0.10182 0.0
C806 C 0.05374 0.59103 0.06851 0.0
C807 C 0.04963 0.56191 0.05771 0.0
C808 C 0.04584 0.53616 0.06919 0.0
C809 C 0.04529 0.53908 0.09104 0.0
C810 C 0.04886 0.55834 0.03442 0.0
C811 C 0.07891 0.55881 0.02528 0.0
C812 C 1.02003 0.55662 0.02133 0.0
C813 C 0.98622 0.55407 0.02987 0.0
C814 C 0.95965 0.52648 0.04207 0.0
C815 C 0.92804 0.52437 0.0502 0.0
C816 C 0.9225 0.54956 0.04613 0.0
C817 C 0.94851 0.57686 0.03387 0.0
C818 C 0.98021 0.57912 0.02572 0.0
C819 C 0.05373 0.53165 0.93276 0.0
C820 C 0.0512 0.55568 0.9229 0.0
C821 C 0.05484 0.53244 0.95467 0.0
C822 C 0.05416 0.55768 0.96716 0.0
C823 C 0.05266 0.58223 0.95728 0.0
C824 C 0.05114 0.58121 0.93545 0.0
C825 C 0.05331 0.55784 0.99041 0.0
C826 C 1.02274 0.55655 -0.00041 0.0
C827 C 0.0818 0.55897 0.0035 0.0
C828 C 0.11605 0.56214 0.99511 0.0
C829 C 0.14338 0.59067 0.98364 0.0
C830 C 0.17548 0.59338 0.97571 0.0
C831 C 0.18077 0.56787 0.97929 0.0
C832 C 0.15403 0.53965 0.99086 0.0
C833 C 0.12184 0.5368 -0.00119 0.0
H834 H 0.20565 0.57002 0.97314 0.0
H835 H 0.898 0.54788 0.05243 0.0
H836 H 0.53427 0.04509 0.42338 0.0
H837 H 0.52917 0.05179 0.38628 0.0
H838 H 0.65258 0.09239 0.38267 0.0
H839 H 0.6581 0.08658 0.41986 0.0
H840 H 0.63859 0.1297 0.36096 0.0
H841 H 0.57102 1.0037 0.3651 0.0
H842 H 0.52169 0.94456 0.37772 0.0
H843 H 0.42345 0.94119 0.35346 0.0
H844 H 0.47226 1.00057 0.34094 0.0
H845 H 0.62744 0.08803 0.24948 0.0
H846 H 0.63725 0.09637 0.28795 0.0
H847 H 0.51449 0.05802 0.2904 0.0
H848 H 0.50458 0.04954 0.2521 0.0
H849 H 0.52803 0.02145 0.31297 0.0
H850 H 0.59685 0.14634 0.30623 0.0
H851 H 0.64711 0.20491 0.29328 0.0
H852 H 0.74411 0.21026 0.32192 0.0
H853 H 0.69443 0.15139 0.33475 0.0
C854 C 0.56029 0.05549 0.41465 0.0
C855 C 0.5964 0.06488 0.42439 0.0
C856 C 0.55736 0.05929 0.39346 0.0
C857 C 0.5903 0.07207 0.38157 0.0
C858 C 0.62675 0.0824 0.39148 0.0
C859 C 0.62977 0.07885 0.41269 0.0
C860 C 0.58634 0.07336 0.35864 0.0
C861 C 0.61465 0.10597 0.35041 0.0
C862 C 0.55472 0.04257 0.34491 0.0
C863 C 0.52531 0.00673 0.35228 0.0
C864 C 0.53891 0.99045 0.36259 0.0
C865 C 0.51105 0.95688 0.3697 0.0
C866 C 0.46947 0.93918 0.36645 0.0
C867 C 0.45567 0.95496 0.356 0.0
C868 C 0.48341 0.98856 0.34888 0.0
C869 C 0.60296 0.08228 0.25826 0.0
C870 C 0.56514 0.06784 0.24781 0.0
C871 C 0.60855 0.08701 0.28024 0.0
C872 C 0.57654 0.07771 0.29209 0.0
C873 C 0.53952 0.06513 0.28162 0.0
C874 C 0.5339 0.0603 0.25973 0.0
C875 C 0.58015 0.07785 0.3152 0.0
C876 C 0.55183 0.04535 0.32348 0.0
C877 C 0.61189 0.10869 0.32888 0.0
C878 C 0.64186 0.1442 0.32125 0.0
C879 C 0.62889 0.15982 0.3096 0.0
C880 C 0.65728 0.19311 0.30231 0.0
C881 C 0.69877 0.21123 0.30671 0.0
C882 C 0.71196 0.19615 0.31848 0.0
C883 C 0.68369 0.16283 0.32578 0.0
H884 H 0.7207 0.237 0.30103 0.0
H885 H 0.44795 0.9132 0.37198 0.0
H886 H 0.52422 0.477 0.77495 0.0
H887 H 0.53437 0.49039 0.73884 0.0
H888 H 0.61177 0.60469 0.76031 0.0
H889 H 0.60108 0.59119 0.79682 0.0
H890 H 0.55894 0.58659 0.72621 0.0
H891 H 0.65468 0.56879 0.74273 0.0
H892 H 0.68075 0.53932 0.757 0.0
H893 H 0.59644 0.44412 0.71332 0.0
H894 H 0.56943 0.47281 0.69898 0.0
H895 H 0.60587 0.60442 0.61659 0.0
H896 H 0.61302 0.61199 0.65519 0.0
H897 H 0.52694 0.49627 0.65451 0.0
H898 H 0.5189 0.48856 0.6163 0.0
H899 H 0.60004 0.52872 0.67944 0.0
H900 H 0.49936 0.54635 0.6669 0.0
H901 H 0.47539 0.57772 0.65297 0.0
H902 H 0.57442 0.67709 0.68944 0.0
H903 H 0.5993 0.64639 0.70336 0.0
C904 C 0.54349 0.50504 0.77205 0.0
C905 C 0.56208 0.5331 0.78873 0.0
C906 C 0.5494 0.51266 0.75137 0.0
C907 C 0.57436 0.54857 0.74685 0.0
C908 C 0.59257 0.57679 0.76345 0.0
C909 C 0.5866 0.5691 0.78428 0.0
C910 C 0.58065 0.55583 0.72466 0.0
C911 C 0.56882 0.57466 0.71606 0.0
C912 C 0.59359 0.54032 0.71138 0.0
C913 C 0.60989 0.52293 0.71984 0.0
C914 C 0.64151 0.54149 0.73625 0.0
C915 C 0.65649 0.52493 0.74435 0.0
C916 C 0.64023 0.48986 0.73609 0.0
C917 C 0.60901 0.4713 0.7197 0.0
C918 C 0.5939 0.48772 0.71155 0.0
C919 C 0.58799 0.58068 0.62471 0.0
C920 C 0.56226 0.54585 0.61336 0.0
C921 C 0.59224 0.58504 0.64673 0.0
C922 C 0.5708 0.55464 0.65768 0.0
C923 C 0.54416 0.52006 0.64637 0.0
C924 C 0.53971 0.51571 0.62451 0.0
C925 C 0.57666 0.55805 0.68089 0.0
C926 C 0.59098 0.5413 0.68968 0.0
C927 C 0.56654 0.57586 0.69428 0.0
C928 C 0.55148 0.5942 0.68595 0.0
C929 C 0.51624 0.57497 0.67179 0.0
C930 C 0.50244 0.59261 0.66393 0.0
C931 C 0.52345 0.6294 0.67026 0.0
C932 C 0.55823 0.64861 0.68451 0.0
C933 C 0.57218 0.63111 0.6924 0.0
H934 H 0.51272 0.64301 0.66416 0.0
H935 H 0.65185 0.47708 0.74239 0.0
H936 H 0.6302 0.0928 0.54341 0.0
H937 H 0.63558 0.08838 0.58106 0.0
H938 H 0.51159 0.04654 0.58366 0.0
H939 H 0.50588 0.05033 0.54623 0.0
H940 H 0.56547 0.10275 0.61525 0.0
H941 H 0.53372 0.99105 0.58332 0.0
H942 H 0.54621 0.95563 0.56025 0.0
H943 H 0.66141 0.00807 0.59558 0.0
H944 H 0.64992 0.04428 0.61866 0.0
H945 H 0.51078 0.04028 0.71137 0.0
H946 H 0.5127 0.03826 0.67333 0.0
H947 H 0.63314 0.07 0.68064 0.0
H948 H 0.63071 0.07099 0.7189 0.0
H949 H 0.58967 0.02326 0.64442 0.0
H950 H 0.62257 0.13315 0.67686 0.0
H951 H 0.61311 0.17057 0.70016 0.0
H952 H 0.5011 0.12566 0.66372 0.0
H953 H 0.50948 0.08741 0.64043 0.0
C954 C 0.60408 0.08245 0.55203 0.0
C955 C 0.56758 0.07179 0.5419 0.0
C956 C 0.60717 0.07992 0.57349 0.0
C957 C 0.5739 0.06698 0.58512 0.0
C958 C 0.53762 0.05661 0.57499 0.0
C959 C 0.53441 0.05878 0.5536 0.0
C960 C 0.57664 0.06486 0.60796 0.0
C961 C 0.57043 0.08514 0.6216 0.0
C962 C 0.58456 0.04285 0.6163 0.0
C963 C 0.59116 0.02068 0.60259 0.0
C964 C 0.56188 0.99526 0.58607 0.0
C965 C 0.56875 0.97501 0.573 0.0
C966 C 0.60464 0.97968 0.57641 0.0
C967 C 0.63366 0.00454 0.59294 0.0
C968 C 0.62698 0.02492 0.60602 0.0
C969 C 0.53729 0.04605 0.7048 0.0
C970 C 0.57074 0.05611 0.718 0.0
C971 C 0.53845 0.04501 0.6831 0.0
C972 C 0.57347 0.05484 0.67416 0.0
C973 C 0.6059 0.06249 0.68719 0.0
C974 C 0.60451 0.06305 0.709 0.0
C975 C 0.57725 0.06036 0.6516 0.0
C976 C 0.58494 0.041 0.63807 0.0
C977 C 0.57125 0.08364 0.64329 0.0
C978 C 0.56651 0.1072 0.65698 0.0
C979 C 0.5958 0.1311 0.67388 0.0
C980 C 0.59063 0.15245 0.68709 0.0
C981 C 0.5565 0.15045 0.68344 0.0
C982 C 0.52751 0.12716 0.66653 0.0
C983 C 0.53247 0.10564 0.65331 0.0
H984 H 0.55253 0.16699 0.6937 0.0
H985 H 0.60992 0.96396 0.56632 0.0
H986 H 0.64265 0.57919 0.92122 0.0
H987 H 0.62766 0.54906 0.95305 0.0
H988 H 0.49946 0.48254 0.93348 0.0
H989 H 0.51417 0.51229 0.90179 0.0
H990 H 0.51889 0.51233 0.97496 0.0
H991 H 0.54481 0.44702 0.92779 0.0
H992 H 0.58499 0.44124 0.90348 0.0
H993 H 0.68055 0.48671 0.9531 0.0
H994 H 0.64122 0.49336 0.97765 0.0
H995 H 0.43546 0.37666 0.04211 0.0
H996 H 0.45575 0.40767 0.01072 0.0
H997 H 0.58174 0.46658 0.03286 0.0
H998 H 0.5617 0.43585 0.06439 0.0
H999 H 0.56691 0.44332 0.99091 0.0
H1000 H 0.53744 0.50562 0.03856 0.0
H1001 H 0.49662 0.5124 0.06178 0.0
H1002 H 0.40601 0.47201 0.01019 0.0
H1003 H 0.44584 0.46427 0.98675 0.0
C1004 C 0.61133 0.55819 0.92379 0.0
C1005 C 0.57956 0.54805 0.90912 0.0
C1006 C 0.60282 0.54095 0.94188 0.0
C1007 C 0.56245 0.51352 0.94554 0.0
C1008 C 0.53078 0.50369 0.93096 0.0
C1009 C 0.53925 0.52064 0.91287 0.0
C1010 C 0.55285 0.49501 0.96459 0.0
C1011 C 0.52903 0.49693 0.97838 0.0
C1012 C 0.56682 0.47557 0.96915 0.0
C1013 C 0.59026 0.47107 0.95451 0.0
C1014 C 0.57453 0.45606 0.93349 0.0
C1015 C 0.59712 0.45258 0.91967 0.0
C1016 C 0.63534 0.46369 0.92673 0.0
C1017 C 0.65097 0.47817 0.94765 0.0
C1018 C 0.62853 0.48179 0.96153 0.0
C1019 C 0.46749 0.39625 0.04032 0.0
C1020 C 0.49694 0.40392 0.05581 0.0
C1021 C 0.47904 0.41391 0.02236 0.0
C1022 C 0.52027 0.43981 0.01961 0.0
C1023 C 0.54976 0.44671 0.03469 0.0
C1024 C 0.53823 0.42901 0.05266 0.0
C1025 C 0.53251 0.46031 0.00124 0.0
C1026 C 0.5569 0.45883 0.98758 0.0
C1027 C 0.51881 0.48002 -0.0033 0.0
C1028 C 0.49451 0.48409 0.01092 0.0
C1029 C 0.50861 0.4978 0.03221 0.0
C1030 C 0.48567 0.50187 0.04541 0.0
C1031 C 0.44877 0.49265 0.03745 0.0
C1032 C 0.4346 0.47914 0.01633 0.0
C1033 C 0.45733 0.4749 0.00308 0.0
H1034 H 0.43123 0.49615 0.0476 0.0
H1035 H 0.65281 0.461 0.916 0.0
H1036 H 0.07729 0.5027 0.2186 0.0
H1037 H 0.06902 0.50286 0.25611 0.0
H1038 H 0.08795 0.6032 0.25719 0.0
H1039 H 0.09715 0.60353 0.21971 0.0
H1040 H 0.12989 0.60588 0.28978 0.0
H1041 H 0.99318 0.52232 0.25843 0.0
H1042 H 0.93592 0.4694 0.23498 0.0
H1043 H 0.94499 0.39921 0.26802 0.0
H1044 H 1.00283 0.4518 0.29145 0.0
H1045 H 0.07381 0.61031 0.38991 0.0
H1046 H 0.06586 0.60138 0.35156 0.0
H1047 H 0.06147 0.5084 0.35215 0.0
H1048 H 0.06901 0.51708 0.39074 0.0
H1049 H 1.00983 0.50097 0.31871 0.0
H1050 H 0.14932 0.58697 0.34908 0.0
H1051 H 0.20509 0.64079 0.37265 0.0
H1052 H 0.18844 0.70751 0.34084 0.0
H1053 H 0.13205 0.65395 0.31731 0.0
C1054 C 0.07978 0.52483 0.22686 0.0
C1055 C 0.08784 0.5531 0.21627 0.0
C1056 C 0.07474 0.52475 0.24826 0.0
C1057 C 0.07727 0.55276 0.25944 0.0
C1058 C 0.08574 0.58124 0.24889 0.0
C1059 C 0.09094 0.58139 0.22749 0.0
C1060 C 0.07214 0.55284 0.28223 0.0
C1061 C 0.10333 0.58312 0.29602 0.0
C1062 C 0.03781 0.52287 0.29048 0.0
C1063 C 1.00263 0.49108 0.27659 0.0
C1064 C 0.98318 0.49563 0.26061 0.0
C1065 C 0.95059 0.46569 0.24732 0.0
C1066 C 0.93688 0.43097 0.24998 0.0
C1067 C 0.95567 0.42613 0.26597 0.0
C1068 C 0.98835 0.456 0.27927 0.0
C1069 C 0.0703 0.58752 0.38185 0.0
C1070 C 0.07256 0.56465 0.39324 0.0
C1071 C 0.06575 0.58244 0.35996 0.0
C1072 C 0.06387 0.55466 0.34901 0.0
C1073 C 0.06298 0.53007 0.36031 0.0
C1074 C 0.06727 0.53501 0.38232 0.0
C1075 C 0.06751 0.55402 0.32609 0.0
C1076 C 0.03622 0.52367 0.31235 0.0
C1077 C 0.10159 0.58403 0.3178 0.0
C1078 C 0.13625 0.61641 0.33155 0.0
C1079 C 0.15742 0.6131 0.34718 0.0
C1080 C 0.18913 0.64355 0.36054 0.0
C1081 C 0.20024 0.67754 0.35827 0.0
C1082 C 0.17977 0.68116 0.34259 0.0
C1083 C 0.14794 0.65077 0.32923 0.0
H1084 H 0.22477 0.70108 0.36865 0.0
H1085 H 0.91165 0.40782 0.23967 0.0
loop_
_geom_bond_atom_site_label_1
_geom_bond_atom_site_label_2
_geom_bond_distance
_geom_bond_site_symmetry_2
_ccdc_geom_bond_type
Sm0 C2 2.846 . S
Sm0 O20 2.543 . S
Sm0 O21 2.450 . S
Sm0 O22 2.681 . S
Sm0 O23 2.464 . S
Sm0 O24 2.396 . S
Sm0 O28 2.386 . S
Sm0 O31 2.408 1_455 S
Sm1 C11 2.846 1_455 S
Sm1 O22 2.386 . S
Sm1 O25 2.408 . S
Sm1 O26 2.543 1_455 S
Sm1 O27 2.450 1_455 S
Sm1 O28 2.681 . S
Sm1 O29 2.464 . S
Sm1 O30 2.396 1_455 S
C2 Sm0 2.846 . S
C2 C3 1.506 . S
C2 O20 1.261 . S
C2 O21 1.242 . S
C3 C2 1.506 . S
C3 C4 1.358 . S
C3 C8 1.382 . S
C4 C3 1.358 . S
C4 C5 1.385 . S
C4 H32 0.930 . S
C5 C4 1.385 . S
C5 C6 1.395 . S
C5 H33 0.929 . S
C6 C5 1.395 . S
C6 C7 1.335 . S
C7 C6 1.335 . S
C7 C8 1.398 . S
C7 H34 0.930 . S
C8 C3 1.382 . S
C8 C7 1.398 . S
C8 H35 0.929 . S
C9 O22 1.271 . S
C9 O23 1.251 . S
C10 O24 1.252 . S
C10 O25 1.272 . S
C11 Sm1 2.846 1_655 S
C11 C12 1.506 . S
C11 O26 1.261 . S
C11 O27 1.242 . S
C12 C11 1.506 . S
C12 C13 1.358 . S
C12 C17 1.382 . S
C13 C12 1.358 . S
C13 C14 1.385 . S
C13 H36 0.930 . S
C14 C13 1.385 . S
C14 C15 1.395 . S
C14 H37 0.929 . S
C15 C14 1.395 . S
C15 C16 1.335 . S
C16 C15 1.335 . S
C16 C17 1.398 . S
C16 H38 0.930 . S
C17 C12 1.382 . S
C17 C16 1.398 . S
C17 H39 0.929 . S
C18 O28 1.271 . S
C18 O29 1.251 . S
C19 O30 1.252 . S
C19 O31 1.272 . S
O20 Sm0 2.543 . S
O20 C2 1.261 . S
O21 Sm0 2.450 . S
O21 C2 1.242 . S
O22 Sm0 2.681 . S
O22 Sm1 2.386 . S
O22 C9 1.271 . S
O23 Sm0 2.464 . S
O23 C9 1.251 . S
O24 Sm0 2.396 . S
O24 C10 1.252 . S
O25 Sm1 2.408 . S
O25 C10 1.272 . S
O26 Sm1 2.543 1_655 S
O26 C11 1.261 . S
O27 Sm1 2.450 1_655 S
O27 C11 1.242 . S
O28 Sm0 2.386 . S
O28 Sm1 2.681 . S
O28 C18 1.271 . S
O29 Sm1 2.464 . S
O29 C18 1.251 . S
O30 Sm1 2.396 1_655 S
O30 C19 1.252 . S
O31 Sm0 2.408 1_655 S
O31 C19 1.272 . S
H32 C4 0.930 . S
H33 C5 0.929 . S
H34 C7 0.930 . S
H35 C8 0.929 . S
H36 C13 0.930 . S
H37 C14 0.929 . S
H38 C16 0.930 . S
H39 C17 0.929 . S
Sm40 C42 2.846 1_545 S
Sm40 O60 2.543 1_545 S
Sm40 O61 2.450 1_545 S
Sm40 O62 2.681 . S
Sm40 O63 2.464 . S
Sm40 O64 2.396 1_545 S
Sm40 O68 2.386 . S
Sm40 O71 2.408 . S
Sm41 C51 2.846 . S
Sm41 O62 2.386 . S
Sm41 O65 2.408 1_545 S
Sm41 O66 2.543 . S
Sm41 O67 2.450 . S
Sm41 O68 2.681 . S
Sm41 O69 2.464 . S
Sm41 O70 2.396 . S
C42 Sm40 2.846 1_565 S
C42 C43 1.506 . S
C42 O60 1.261 . S
C42 O61 1.242 . S
C43 C42 1.506 . S
C43 C44 1.358 . S
C43 C48 1.382 . S
C44 C43 1.358 . S
C44 C45 1.385 . S
C44 H72 0.930 . S
C45 C44 1.385 . S
C45 C46 1.395 . S
C45 H73 0.929 . S
C46 C45 1.395 . S
C46 C47 1.335 . S
C47 C46 1.335 . S
C47 C48 1.398 . S
C47 H74 0.930 . S
C48 C43 1.382 . S
C48 C47 1.398 . S
C48 H75 0.929 . S
C49 O62 1.271 . S
C49 O63 1.251 . S
C50 O64 1.252 . S
C50 O65 1.272 . S
C51 Sm41 2.846 . S
C51 C52 1.506 . S
C51 O66 1.261 . S
C51 O67 1.242 . S
C52 C51 1.506 . S
C52 C53 1.358 . S
C52 C57 1.382 . S
C53 C52 1.358 . S
C53 C54 1.385 . S
C53 H76 0.930 . S
C54 C53 1.385 . S
C54 C55 1.395 . S
C54 H77 0.929 . S
C55 C54 1.395 . S
C55 C56 1.335 . S
C56 C55 1.335 . S
C56 C57 1.398 . S
C56 H78 0.930 . S
C57 C52 1.382 . S
C57 C56 1.398 . S
C57 H79 0.929 . S
C58 O68 1.271 . S
C58 O69 1.251 . S
C59 O70 1.252 . S
C59 O71 1.272 . S
O60 Sm40 2.543 1_565 S
O60 C42 1.261 . S
O61 Sm40 2.450 1_565 S
O61 C42 1.242 . S
O62 Sm40 2.681 . S
O62 Sm41 2.386 . S
O62 C49 1.271 . S
O63 Sm40 2.464 . S
O63 C49 1.251 . S
O64 Sm40 2.396 1_565 S
O64 C50 1.252 . S
O65 Sm41 2.408 1_565 S
O65 C50 1.272 . S
O66 Sm41 2.543 . S
O66 C51 1.261 . S
O67 Sm41 2.450 . S
O67 C51 1.242 . S
O68 Sm40 2.386 . S
O68 Sm41 2.681 . S
O68 C58 1.271 . S
O69 Sm41 2.464 . S
O69 C58 1.251 . S
O70 Sm41 2.396 . S
O70 C59 1.252 . S
O71 Sm40 2.408 . S
O71 C59 1.272 . S
H72 C44 0.930 . S
H73 C45 0.929 . S
H74 C47 0.930 . S
H75 C48 0.929 . S
H76 C53 0.930 . S
H77 C54 0.929 . S
H78 C56 0.930 . S
H79 C57 0.929 . S
Sm80 C82 2.846 . S
Sm80 O100 2.543 . S
Sm80 O101 2.450 . S
Sm80 O102 2.681 . S
Sm80 O103 2.464 . S
Sm80 O104 2.396 . S
Sm80 O108 2.386 . S
Sm80 O111 2.408 . S
Sm81 C91 2.846 . S
Sm81 O102 2.386 . S
Sm81 O105 2.408 . S
Sm81 O106 2.543 . S
Sm81 O107 2.450 . S
Sm81 O108 2.681 . S
Sm81 O109 2.464 . S
Sm81 O110 2.396 . S
C82 Sm80 2.846 . S
C82 C83 1.506 . S
C82 O100 1.261 . S
C82 O101 1.242 . S
C83 C82 1.506 . S
C83 C84 1.358 . S
C83 C88 1.382 . S
C84 C83 1.358 . S
C84 C85 1.385 . S
C84 H112 0.930 . S
C85 C84 1.385 . S
C85 C86 1.395 . S
C85 H113 0.929 . S
C86 C85 1.395 . S
C86 C87 1.335 . S
C87 C86 1.335 . S
C87 C88 1.398 . S
C87 H114 0.930 . S
C88 C83 1.382 . S
C88 C87 1.398 . S
C88 H115 0.929 . S
C89 O102 1.271 . S
C89 O103 1.251 . S
C90 O104 1.252 . S
C90 O105 1.272 . S
C91 Sm81 2.846 . S
C91 C92 1.506 . S
C91 O106 1.261 . S
C91 O107 1.242 . S
C92 C91 1.506 . S
C92 C93 1.358 . S
C92 C97 1.382 . S
C93 C92 1.358 . S
C93 C94 1.385 . S
C93 H116 0.930 . S
C94 C93 1.385 . S
C94 C95 1.395 . S
C94 H117 0.929 . S
C95 C94 1.395 . S
C95 C96 1.335 . S
C96 C95 1.335 . S
C96 C97 1.398 . S
C96 H118 0.930 . S
C97 C92 1.382 . S
C97 C96 1.398 . S
C97 H119 0.929 . S
C98 O108 1.271 . S
C98 O109 1.251 . S
C99 O110 1.252 . S
C99 O111 1.272 . S
O100 Sm80 2.543 . S
O100 C82 1.261 . S
O101 Sm80 2.450 . S
O101 C82 1.242 . S
O102 Sm80 2.681 . S
O102 Sm81 2.386 . S
O102 C89 1.271 . S
O103 Sm80 2.464 . S
O103 C89 1.251 . S
O104 Sm80 2.396 . S
O104 C90 1.252 . S
O105 Sm81 2.408 . S
O105 C90 1.272 . S
O106 Sm81 2.543 . S
O106 C91 1.261 . S
O107 Sm81 2.450 . S
O107 C91 1.242 . S
O108 Sm80 2.386 . S
O108 Sm81 2.681 . S
O108 C98 1.271 . S
O109 Sm81 2.464 . S
O109 C98 1.251 . S
O110 Sm81 2.396 . S
O110 C99 1.252 . S
O111 Sm80 2.408 . S
O111 C99 1.272 . S
H112 C84 0.930 . S
H113 C85 0.929 . S
H114 C87 0.930 . S
H115 C88 0.929 . S
H116 C93 0.930 . S
H117 C94 0.929 . S
H118 C96 0.930 . S
H119 C97 0.929 . S
H120 C123 0.929 1_565 S
H121 C126 0.929 . S
H122 C128 0.930 . S
C123 H120 0.929 1_545 S
C123 C124 1.398 . S
C123 C125 1.396 . S
C124 C123 1.398 . S
C124 C128 1.407 . S
C125 C123 1.396 . S
C125 C126 1.394 . S
C126 H121 0.929 . S
C126 C125 1.394 . S
C126 C127 1.382 . S
C127 C126 1.382 . S
C127 C128 1.392 . S
C127 N129 1.420 . S
C128 H122 0.930 . S
C128 C124 1.407 . S
C128 C127 1.392 . S
N129 C127 1.420 . S
N129 C130 1.244 . S
C130 N129 1.244 . S
H131 C134 0.929 . S
H132 C137 0.929 . S
H133 C139 0.930 . S
C134 H131 0.929 . S
C134 C135 1.398 . S
C134 C136 1.396 . S
C135 C134 1.398 . S
C135 C139 1.407 . S
C136 C134 1.396 . S
C136 C137 1.394 . S
C137 H132 0.929 . S
C137 C136 1.394 . S
C137 C138 1.382 . S
C138 C137 1.382 . S
C138 C139 1.392 . S
C138 N140 1.420 . S
C139 H133 0.930 . S
C139 C135 1.407 . S
C139 C138 1.392 . S
N140 C138 1.420 . S
N140 C141 1.244 . S
C141 N140 1.244 . S
H142 C145 0.929 . S
H143 C148 0.929 . S
H144 C150 0.930 . S
C145 H142 0.929 . S
C145 C146 1.398 . S
C145 C147 1.396 . S
C146 C145 1.398 . S
C146 C150 1.407 . S
C147 C145 1.396 . S
C147 C148 1.394 . S
C148 H143 0.929 . S
C148 C147 1.394 . S
C148 C149 1.382 . S
C149 C148 1.382 . S
C149 C150 1.392 . S
C149 N151 1.420 . S
C150 H144 0.930 . S
C150 C146 1.407 . S
C150 C149 1.392 . S
N151 C149 1.420 . S
N151 C152 1.244 . S
C152 N151 1.244 . S
H153 C156 0.929 . S
H154 C159 0.929 . S
H155 C161 0.930 . S
C156 H153 0.929 . S
C156 C157 1.398 . S
C156 C158 1.396 . S
C157 C156 1.398 . S
C157 C161 1.407 . S
C158 C156 1.396 . S
C158 C159 1.394 1_455 S
C159 H154 0.929 . S
C159 C158 1.394 1_655 S
C159 C160 1.382 . S
C160 C159 1.382 . S
C160 C161 1.392 1_655 S
C160 N162 1.420 . S
C161 H155 0.930 . S
C161 C157 1.407 . S
C161 C160 1.392 1_455 S
N162 C160 1.420 . S
N162 C163 1.244 . S
C163 N162 1.244 . S
H164 C167 0.929 . S
H165 C170 0.915 1_565 S
H166 C172 0.930 . S
C167 H164 0.929 . S
C167 C168 1.398 . S
C167 C169 1.396 . S
C168 C167 1.398 . S
C168 C172 1.407 . S
C169 C167 1.396 . S
C169 C170 1.394 . S
C170 H165 0.915 1_545 S
C170 C169 1.394 . S
C170 C171 1.382 . S
C171 C170 1.382 . S
C171 C172 1.392 . S
C171 N173 1.420 . S
C172 H166 0.930 . S
C172 C168 1.407 . S
C172 C171 1.392 . S
N173 C171 1.420 . S
N173 C174 1.244 1_545 S
C174 N173 1.244 1_565 S
H175 C178 0.929 . S
H176 C181 0.929 . S
H177 C183 0.930 . S
C178 H175 0.929 . S
C178 C179 1.398 . S
C178 C180 1.396 . S
C179 C178 1.398 . S
C179 C183 1.407 . S
C180 C178 1.396 . S
C180 C181 1.394 . S
C181 H176 0.929 . S
C181 C180 1.394 . S
C181 C182 1.382 . S
C182 C181 1.382 . S
C182 C183 1.392 . S
C182 N184 1.420 . S
C183 H177 0.930 . S
C183 C179 1.407 . S
C183 C182 1.392 . S
N184 C182 1.420 . S
N184 C185 1.244 . S
C185 N184 1.244 . S
H186 C204 0.951 . S
H187 C206 0.951 . S
H188 C208 0.950 . S
H189 C209 0.950 . S
H190 C211 0.950 . S
H191 C214 0.950 . S
H192 C215 0.950 . S
H193 C217 0.950 . S
H194 C218 0.950 . S
H195 C219 0.951 . S
H196 C221 0.951 . S
H197 C223 0.950 . S
H198 C224 0.950 . S
H199 C226 0.950 . S
H200 C229 0.950 . S
H201 C230 0.950 . S
H202 C232 0.950 . S
H203 C233 0.950 . S
C204 H186 0.951 . S
C204 C205 1.366 . S
C204 C206 1.388 . S
C205 C204 1.366 . S
C205 C209 1.385 . S
C206 H187 0.951 . S
C206 C204 1.388 . S
C206 C207 1.366 . S
C207 C206 1.366 . S
C207 C208 1.414 . S
C207 C210 1.499 . S
C208 H188 0.950 . S
C208 C207 1.414 . S
C208 C209 1.374 . S
C209 H189 0.950 . S
C209 C205 1.385 . S
C209 C208 1.374 . S
C210 C207 1.499 . S
C210 C211 1.373 . S
C210 C212 1.389 . S
C211 H190 0.950 . S
C211 C210 1.373 . S
C211 C227 1.377 . S
C212 C210 1.389 . S
C212 C213 1.524 . S
C212 C226 1.377 . S
C213 C212 1.524 . S
C213 C214 1.397 . S
C213 C218 1.363 . S
C214 H191 0.950 . S
C214 C213 1.397 . S
C214 C215 1.334 . S
C215 H192 0.950 . S
C215 C214 1.334 . S
C215 C216 1.287 . S
C216 C215 1.287 . S
C216 C217 1.524 . S
C216 H235 0.913 . S
C217 H193 0.950 . S
C217 C216 1.524 . S
C217 C218 1.415 . S
C218 H194 0.950 . S
C218 C213 1.363 . S
C218 C217 1.415 . S
C219 H195 0.951 . S
C219 C220 1.366 . S
C219 C221 1.388 . S
C220 C219 1.366 . S
C220 C224 1.385 . S
C221 H196 0.951 . S
C221 C219 1.388 . S
C221 C222 1.366 . S
C222 C221 1.366 . S
C222 C223 1.414 . S
C222 C225 1.499 . S
C223 H197 0.950 . S
C223 C222 1.414 . S
C223 C224 1.374 . S
C224 H198 0.950 . S
C224 C220 1.385 . S
C224 C223 1.374 . S
C225 C222 1.499 . S
C225 C226 1.373 . S
C225 C227 1.389 . S
C226 H199 0.950 . S
C226 C212 1.377 . S
C226 C225 1.373 . S
C227 C211 1.377 . S
C227 C225 1.389 . S
C227 C228 1.524 . S
C228 C227 1.524 . S
C228 C229 1.397 . S
C228 C233 1.363 . S
C229 H200 0.950 . S
C229 C228 1.397 . S
C229 C230 1.334 . S
C230 H201 0.950 . S
C230 C229 1.334 . S
C230 C231 1.287 . S
C231 C230 1.287 . S
C231 C232 1.524 . S
C231 H234 0.999 . S
C232 H202 0.950 . S
C232 C231 1.524 . S
C232 C233 1.415 . S
C233 H203 0.950 . S
C233 C228 1.363 . S
C233 C232 1.415 . S
H234 C231 0.999 . S
H235 C216 0.913 . S
H236 C254 0.951 . S
H237 C256 0.951 . S
H238 C258 0.950 . S
H239 C259 0.950 . S
H240 C261 0.950 . S
H241 C264 0.950 . S
H242 C265 0.950 . S
H243 C267 0.950 . S
H244 C268 0.950 . S
H245 C269 0.951 . S
H246 C271 0.951 . S
H247 C273 0.950 . S
H248 C274 0.950 . S
H249 C276 0.950 . S
H250 C279 0.950 . S
H251 C280 0.950 . S
H252 C282 0.950 . S
H253 C283 0.950 . S
C254 H236 0.951 . S
C254 C255 1.366 . S
C254 C256 1.388 . S
C255 C254 1.366 . S
C255 C259 1.385 . S
C256 H237 0.951 . S
C256 C254 1.388 . S
C256 C257 1.366 . S
C257 C256 1.366 . S
C257 C258 1.414 . S
C257 C260 1.499 . S
C258 H238 0.950 . S
C258 C257 1.414 . S
C258 C259 1.374 . S
C259 H239 0.950 . S
C259 C255 1.385 . S
C259 C258 1.374 . S
C260 C257 1.499 . S
C260 C261 1.373 . S
C260 C262 1.389 . S
C261 H240 0.950 . S
C261 C260 1.373 . S
C261 C277 1.377 . S
C262 C260 1.389 . S
C262 C263 1.524 . S
C262 C276 1.377 . S
C263 C262 1.524 . S
C263 C264 1.397 . S
C263 C268 1.363 . S
C264 H241 0.950 . S
C264 C263 1.397 . S
C264 C265 1.334 . S
C265 H242 0.950 . S
C265 C264 1.334 . S
C265 C266 1.287 . S
C266 C265 1.287 . S
C266 C267 1.524 . S
C266 H285 0.913 . S
C267 H243 0.950 . S
C267 C266 1.524 . S
C267 C268 1.415 . S
C268 H244 0.950 . S
C268 C263 1.363 . S
C268 C267 1.415 . S
C269 H245 0.951 . S
C269 C270 1.366 . S
C269 C271 1.388 . S
C270 C269 1.366 . S
C270 C274 1.385 . S
C271 H246 0.951 . S
C271 C269 1.388 . S
C271 C272 1.366 . S
C272 C271 1.366 . S
C272 C273 1.414 . S
C272 C275 1.499 . S
C273 H247 0.950 . S
C273 C272 1.414 . S
C273 C274 1.374 . S
C274 H248 0.950 . S
C274 C270 1.385 . S
C274 C273 1.374 . S
C275 C272 1.499 . S
C275 C276 1.373 . S
C275 C277 1.389 . S
C276 H249 0.950 . S
C276 C262 1.377 . S
C276 C275 1.373 . S
C277 C261 1.377 . S
C277 C275 1.389 . S
C277 C278 1.524 . S
C278 C277 1.524 . S
C278 C279 1.397 . S
C278 C283 1.363 . S
C279 H250 0.950 . S
C279 C278 1.397 . S
C279 C280 1.334 . S
C280 H251 0.950 . S
C280 C279 1.334 . S
C280 C281 1.287 . S
C281 C280 1.287 . S
C281 C282 1.524 . S
C281 H284 0.999 . S
C282 H252 0.950 . S
C282 C281 1.524 . S
C282 C283 1.415 . S
C283 H253 0.950 . S
C283 C278 1.363 . S
C283 C282 1.415 . S
H284 C281 0.999 . S
H285 C266 0.913 . S
H286 C304 0.951 . S
H287 C306 0.951 . S
H288 C308 0.950 . S
H289 C309 0.950 . S
H290 C311 0.950 . S
H291 C314 0.950 . S
H292 C315 0.950 . S
H293 C317 0.950 . S
H294 C318 0.950 . S
H295 C319 0.951 . S
H296 C321 0.951 . S
H297 C323 0.950 . S
H298 C324 0.950 . S
H299 C326 0.950 . S
H300 C329 0.950 . S
H301 C330 0.950 . S
H302 C332 0.950 . S
H303 C333 0.950 . S
C304 H286 0.951 . S
C304 C305 1.366 . S
C304 C306 1.388 . S
C305 C304 1.366 . S
C305 C309 1.385 . S
C306 H287 0.951 . S
C306 C304 1.388 . S
C306 C307 1.366 . S
C307 C306 1.366 . S
C307 C308 1.414 . S
C307 C310 1.499 . S
C308 H288 0.950 . S
C308 C307 1.414 . S
C308 C309 1.374 . S
C309 H289 0.950 . S
C309 C305 1.385 . S
C309 C308 1.374 . S
C310 C307 1.499 . S
C310 C311 1.373 . S
C310 C312 1.389 . S
C311 H290 0.950 . S
C311 C310 1.373 . S
C311 C327 1.377 . S
C312 C310 1.389 . S
C312 C313 1.524 . S
C312 C326 1.377 . S
C313 C312 1.524 . S
C313 C314 1.397 . S
C313 C318 1.363 . S
C314 H291 0.950 . S
C314 C313 1.397 . S
C314 C315 1.334 . S
C315 H292 0.950 . S
C315 C314 1.334 . S
C315 C316 1.287 . S
C316 C315 1.287 . S
C316 C317 1.524 . S
C316 H335 0.913 . S
C317 H293 0.950 . S
C317 C316 1.524 . S
C317 C318 1.415 . S
C318 H294 0.950 . S
C318 C313 1.363 . S
C318 C317 1.415 . S
C319 H295 0.951 . S
C319 C320 1.366 . S
C319 C321 1.388 . S
C320 C319 1.366 . S
C320 C324 1.385 . S
C321 H296 0.951 . S
C321 C319 1.388 . S
C321 C322 1.366 . S
C322 C321 1.366 . S
C322 C323 1.414 . S
C322 C325 1.499 . S
C323 H297 0.950 . S
C323 C322 1.414 . S
C323 C324 1.374 . S
C324 H298 0.950 . S
C324 C320 1.385 . S
C324 C323 1.374 . S
C325 C322 1.499 . S
C325 C326 1.373 . S
C325 C327 1.389 . S
C326 H299 0.950 . S
C326 C312 1.377 . S
C326 C325 1.373 . S
C327 C311 1.377 . S
C327 C325 1.389 . S
C327 C328 1.524 . S
C328 C327 1.524 . S
C328 C329 1.397 . S
C328 C333 1.363 . S
C329 H300 0.950 . S
C329 C328 1.397 . S
C329 C330 1.334 . S
C330 H301 0.950 . S
C330 C329 1.334 . S
C330 C331 1.287 . S
C331 C330 1.287 . S
C331 C332 1.524 . S
C331 H334 0.999 . S
C332 H302 0.950 . S
C332 C331 1.524 . S
C332 C333 1.415 . S
C333 H303 0.950 . S
C333 C328 1.363 . S
C333 C332 1.415 . S
H334 C331 0.999 . S
H335 C316 0.913 . S
H336 C354 0.951 . S
H337 C356 0.951 . S
H338 C358 0.950 . S
H339 C359 0.950 . S
H340 C361 0.950 . S
H341 C364 0.950 . S
H342 C365 0.950 . S
H343 C367 0.950 . S
H344 C368 0.950 . S
H345 C369 0.951 . S
H346 C371 0.951 . S
H347 C373 0.950 . S
H348 C374 0.950 . S
H349 C376 0.950 . S
H350 C379 0.950 . S
H351 C380 0.950 . S
H352 C382 0.950 . S
H353 C383 0.950 . S
C354 H336 0.951 . S
C354 C355 1.366 . S
C354 C356 1.388 . S
C355 C354 1.366 . S
C355 C359 1.385 . S
C356 H337 0.951 . S
C356 C354 1.388 . S
C356 C357 1.366 . S
C357 C356 1.366 . S
C357 C358 1.414 . S
C357 C360 1.499 . S
C358 H338 0.950 . S
C358 C357 1.414 . S
C358 C359 1.374 . S
C359 H339 0.950 . S
C359 C355 1.385 . S
C359 C358 1.374 . S
C360 C357 1.499 . S
C360 C361 1.373 . S
C360 C362 1.389 . S
C361 H340 0.950 . S
C361 C360 1.373 . S
C361 C377 1.377 . S
C362 C360 1.389 . S
C362 C363 1.524 . S
C362 C376 1.377 . S
C363 C362 1.524 . S
C363 C364 1.397 . S
C363 C368 1.363 . S
C364 H341 0.950 . S
C364 C363 1.397 . S
C364 C365 1.334 . S
C365 H342 0.950 . S
C365 C364 1.334 . S
C365 C366 1.287 . S
C366 C365 1.287 . S
C366 C367 1.524 . S
C366 H385 0.913 . S
C367 H343 0.950 . S
C367 C366 1.524 . S
C367 C368 1.415 . S
C368 H344 0.950 . S
C368 C363 1.363 . S
C368 C367 1.415 . S
C369 H345 0.951 . S
C369 C370 1.366 . S
C369 C371 1.388 . S
C370 C369 1.366 . S
C370 C374 1.385 . S
C371 H346 0.951 . S
C371 C369 1.388 . S
C371 C372 1.366 . S
C372 C371 1.366 . S
C372 C373 1.414 . S
C372 C375 1.499 . S
C373 H347 0.950 . S
C373 C372 1.414 . S
C373 C374 1.374 . S
C374 H348 0.950 . S
C374 C370 1.385 . S
C374 C373 1.374 . S
C375 C372 1.499 . S
C375 C376 1.373 . S
C375 C377 1.389 . S
C376 H349 0.950 . S
C376 C362 1.377 . S
C376 C375 1.373 . S
C377 C361 1.377 . S
C377 C375 1.389 . S
C377 C378 1.524 . S
C378 C377 1.524 . S
C378 C379 1.397 . S
C378 C383 1.363 . S
C379 H350 0.950 . S
C379 C378 1.397 . S
C379 C380 1.334 . S
C380 H351 0.950 . S
C380 C379 1.334 . S
C380 C381 1.287 . S
C381 C380 1.287 . S
C381 C382 1.524 . S
C381 H384 0.999 . S
C382 H352 0.950 . S
C382 C381 1.524 . S
C382 C383 1.415 . S
C383 H353 0.950 . S
C383 C378 1.363 . S
C383 C382 1.415 . S
H384 C381 0.999 . S
H385 C366 0.913 . S
H386 C404 0.951 . S
H387 C406 0.951 . S
H388 C408 0.950 . S
H389 C409 0.950 . S
H390 C411 0.950 . S
H391 C414 0.950 . S
H392 C415 0.950 . S
H393 C417 0.950 . S
H394 C418 0.950 . S
H395 C419 0.951 . S
H396 C421 0.951 . S
H397 C423 0.950 . S
H398 C424 0.950 . S
H399 C426 0.950 . S
H400 C429 0.950 . S
H401 C430 0.950 . S
H402 C432 0.950 . S
H403 C433 0.950 . S
C404 H386 0.951 . S
C404 C405 1.366 . S
C404 C406 1.388 . S
C405 C404 1.366 . S
C405 C409 1.385 . S
C406 H387 0.951 . S
C406 C404 1.388 . S
C406 C407 1.366 . S
C407 C406 1.366 . S
C407 C408 1.414 . S
C407 C410 1.499 . S
C408 H388 0.950 . S
C408 C407 1.414 . S
C408 C409 1.374 . S
C409 H389 0.950 . S
C409 C405 1.385 . S
C409 C408 1.374 . S
C410 C407 1.499 . S
C410 C411 1.373 . S
C410 C412 1.389 . S
C411 H390 0.950 . S
C411 C410 1.373 . S
C411 C427 1.377 . S
C412 C410 1.389 . S
C412 C413 1.524 . S
C412 C426 1.377 . S
C413 C412 1.524 . S
C413 C414 1.397 . S
C413 C418 1.363 . S
C414 H391 0.950 . S
C414 C413 1.397 . S
C414 C415 1.334 . S
C415 H392 0.950 . S
C415 C414 1.334 . S
C415 C416 1.287 . S
C416 C415 1.287 . S
C416 C417 1.524 . S
C416 H435 0.913 . S
C417 H393 0.950 . S
C417 C416 1.524 . S
C417 C418 1.415 . S
C418 H394 0.950 . S
C418 C413 1.363 . S
C418 C417 1.415 . S
C419 H395 0.951 . S
C419 C420 1.366 . S
C419 C421 1.388 . S
C420 C419 1.366 . S
C420 C424 1.385 . S
C421 H396 0.951 . S
C421 C419 1.388 . S
C421 C422 1.366 . S
C422 C421 1.366 . S
C422 C423 1.414 . S
C422 C425 1.499 . S
C423 H397 0.950 . S
C423 C422 1.414 . S
C423 C424 1.374 . S
C424 H398 0.950 . S
C424 C420 1.385 . S
C424 C423 1.374 . S
C425 C422 1.499 . S
C425 C426 1.373 . S
C425 C427 1.389 . S
C426 H399 0.950 . S
C426 C412 1.377 . S
C426 C425 1.373 . S
C427 C411 1.377 . S
C427 C425 1.389 . S
C427 C428 1.524 . S
C428 C427 1.524 . S
C428 C429 1.397 . S
C428 C433 1.363 . S
C429 H400 0.950 . S
C429 C428 1.397 . S
C429 C430 1.334 . S
C430 H401 0.950 . S
C430 C429 1.334 . S
C430 C431 1.287 . S
C431 C430 1.287 . S
C431 C432 1.524 . S
C431 H434 0.999 . S
C432 H402 0.950 . S
C432 C431 1.524 . S
C432 C433 1.415 . S
C433 H403 0.950 . S
C433 C428 1.363 . S
C433 C432 1.415 . S
H434 C431 0.999 . S
H435 C416 0.913 . S
H436 C454 0.951 . S
H437 C456 0.951 . S
H438 C458 0.950 . S
H439 C459 0.950 . S
H440 C461 0.950 . S
H441 C464 0.950 . S
H442 C465 0.950 . S
H443 C467 0.950 . S
H444 C468 0.950 . S
H445 C469 0.951 . S
H446 C471 0.951 . S
H447 C473 0.950 . S
H448 C474 0.950 . S
H449 C476 0.950 . S
H450 C479 0.950 . S
H451 C480 0.950 . S
H452 C482 0.950 . S
H453 C483 0.950 . S
C454 H436 0.951 . S
C454 C455 1.366 . S
C454 C456 1.388 . S
C455 C454 1.366 . S
C455 C459 1.385 . S
C456 H437 0.951 . S
C456 C454 1.388 . S
C456 C457 1.366 . S
C457 C456 1.366 . S
C457 C458 1.414 . S
C457 C460 1.499 . S
C458 H438 0.950 . S
C458 C457 1.414 . S
C458 C459 1.374 . S
C459 H439 0.950 . S
C459 C455 1.385 . S
C459 C458 1.374 . S
C460 C457 1.499 . S
C460 C461 1.373 . S
C460 C462 1.389 . S
C461 H440 0.950 . S
C461 C460 1.373 . S
C461 C477 1.377 . S
C462 C460 1.389 . S
C462 C463 1.524 . S
C462 C476 1.377 . S
C463 C462 1.524 . S
C463 C464 1.397 . S
C463 C468 1.363 . S
C464 H441 0.950 . S
C464 C463 1.397 . S
C464 C465 1.334 . S
C465 H442 0.950 . S
C465 C464 1.334 . S
C465 C466 1.287 . S
C466 C465 1.287 . S
C466 C467 1.524 . S
C466 H485 0.913 . S
C467 H443 0.950 . S
C467 C466 1.524 . S
C467 C468 1.415 . S
C468 H444 0.950 . S
C468 C463 1.363 . S
C468 C467 1.415 . S
C469 H445 0.951 . S
C469 C470 1.366 . S
C469 C471 1.388 . S
C470 C469 1.366 . S
C470 C474 1.385 . S
C471 H446 0.951 . S
C471 C469 1.388 . S
C471 C472 1.366 . S
C472 C471 1.366 . S
C472 C473 1.414 . S
C472 C475 1.499 . S
C473 H447 0.950 . S
C473 C472 1.414 . S
C473 C474 1.374 . S
C474 H448 0.950 . S
C474 C470 1.385 . S
C474 C473 1.374 . S
C475 C472 1.499 . S
C475 C476 1.373 . S
C475 C477 1.389 . S
C476 H449 0.950 . S
C476 C462 1.377 . S
C476 C475 1.373 . S
C477 C461 1.377 . S
C477 C475 1.389 . S
C477 C478 1.524 . S
C478 C477 1.524 . S
C478 C479 1.397 . S
C478 C483 1.363 . S
C479 H450 0.950 . S
C479 C478 1.397 . S
C479 C480 1.334 . S
C480 H451 0.950 . S
C480 C479 1.334 . S
C480 C481 1.287 . S
C481 C480 1.287 . S
C481 C482 1.524 . S
C481 H484 0.999 . S
C482 H452 0.950 . S
C482 C481 1.524 . S
C482 C483 1.415 . S
C483 H453 0.950 . S
C483 C478 1.363 . S
C483 C482 1.415 . S
H484 C481 0.999 . S
H485 C466 0.913 . S
H486 C504 0.951 . S
H487 C506 0.951 . S
H488 C508 0.950 . S
H489 C509 0.950 . S
H490 C511 0.950 . S
H491 C514 0.950 . S
H492 C515 0.950 . S
H493 C517 0.950 . S
H494 C518 0.950 . S
H495 C519 0.951 . S
H496 C521 0.951 . S
H497 C523 0.950 . S
H498 C524 0.950 . S
H499 C526 0.950 . S
H500 C529 0.950 . S
H501 C530 0.950 . S
H502 C532 0.950 . S
H503 C533 0.950 . S
C504 H486 0.951 . S
C504 C505 1.366 . S
C504 C506 1.388 . S
C505 C504 1.366 . S
C505 C509 1.385 . S
C506 H487 0.951 . S
C506 C504 1.388 . S
C506 C507 1.366 . S
C507 C506 1.366 . S
C507 C508 1.414 . S
C507 C510 1.499 . S
C508 H488 0.950 . S
C508 C507 1.414 . S
C508 C509 1.374 . S
C509 H489 0.950 . S
C509 C505 1.385 . S
C509 C508 1.374 . S
C510 C507 1.499 . S
C510 C511 1.373 . S
C510 C512 1.389 . S
C511 H490 0.950 . S
C511 C510 1.373 . S
C511 C527 1.377 . S
C512 C510 1.389 . S
C512 C513 1.524 . S
C512 C526 1.377 . S
C513 C512 1.524 . S
C513 C514 1.397 . S
C513 C518 1.363 . S
C514 H491 0.950 . S
C514 C513 1.397 . S
C514 C515 1.334 . S
C515 H492 0.950 . S
C515 C514 1.334 . S
C515 C516 1.287 . S
C516 C515 1.287 . S
C516 C517 1.524 . S
C516 H535 0.913 . S
C517 H493 0.950 . S
C517 C516 1.524 . S
C517 C518 1.415 . S
C518 H494 0.950 . S
C518 C513 1.363 . S
C518 C517 1.415 . S
C519 H495 0.951 . S
C519 C520 1.366 . S
C519 C521 1.388 . S
C520 C519 1.366 . S
C520 C524 1.385 . S
C521 H496 0.951 . S
C521 C519 1.388 . S
C521 C522 1.366 . S
C522 C521 1.366 . S
C522 C523 1.414 . S
C522 C525 1.499 . S
C523 H497 0.950 . S
C523 C522 1.414 . S
C523 C524 1.374 . S
C524 H498 0.950 . S
C524 C520 1.385 . S
C524 C523 1.374 . S
C525 C522 1.499 . S
C525 C526 1.373 . S
C525 C527 1.389 . S
C526 H499 0.950 . S
C526 C512 1.377 . S
C526 C525 1.373 . S
C527 C511 1.377 . S
C527 C525 1.389 . S
C527 C528 1.524 . S
C528 C527 1.524 . S
C528 C529 1.397 . S
C528 C533 1.363 . S
C529 H500 0.950 . S
C529 C528 1.397 . S
C529 C530 1.334 . S
C530 H501 0.950 . S
C530 C529 1.334 . S
C530 C531 1.287 . S
C531 C530 1.287 . S
C531 C532 1.524 . S
C531 H534 0.999 . S
C532 H502 0.950 . S
C532 C531 1.524 . S
C532 C533 1.415 . S
C533 H503 0.950 . S
C533 C528 1.363 . S
C533 C532 1.415 . S
H534 C531 0.999 . S
H535 C516 0.913 . S
H536 C554 0.951 . S
H537 C556 0.951 . S
H538 C558 0.950 . S
H539 C559 0.950 . S
H540 C561 0.950 . S
H541 C564 0.950 . S
H542 C565 0.950 . S
H543 C567 0.950 . S
H544 C568 0.950 . S
H545 C569 0.951 . S
H546 C571 0.951 . S
H547 C573 0.950 . S
H548 C574 0.950 . S
H549 C576 0.950 . S
H550 C579 0.950 . S
H551 C580 0.950 . S
H552 C582 0.950 . S
H553 C583 0.950 . S
C554 H536 0.951 . S
C554 C555 1.366 . S
C554 C556 1.388 . S
C555 C554 1.366 . S
C555 C559 1.385 . S
C556 H537 0.951 . S
C556 C554 1.388 . S
C556 C557 1.366 . S
C557 C556 1.366 . S
C557 C558 1.414 . S
C557 C560 1.499 . S
C558 H538 0.950 . S
C558 C557 1.414 . S
C558 C559 1.374 . S
C559 H539 0.950 . S
C559 C555 1.385 . S
C559 C558 1.374 . S
C560 C557 1.499 . S
C560 C561 1.373 . S
C560 C562 1.389 . S
C561 H540 0.950 . S
C561 C560 1.373 . S
C561 C577 1.377 . S
C562 C560 1.389 . S
C562 C563 1.524 . S
C562 C576 1.377 . S
C563 C562 1.524 . S
C563 C564 1.397 . S
C563 C568 1.363 . S
C564 H541 0.950 . S
C564 C563 1.397 . S
C564 C565 1.334 . S
C565 H542 0.950 . S
C565 C564 1.334 . S
C565 C566 1.287 . S
C566 C565 1.287 . S
C566 C567 1.524 . S
C566 H585 0.913 . S
C567 H543 0.950 . S
C567 C566 1.524 . S
C567 C568 1.415 . S
C568 H544 0.950 . S
C568 C563 1.363 . S
C568 C567 1.415 . S
C569 H545 0.951 . S
C569 C570 1.366 . S
C569 C571 1.388 . S
C570 C569 1.366 . S
C570 C574 1.385 . S
C571 H546 0.951 . S
C571 C569 1.388 . S
C571 C572 1.366 . S
C572 C571 1.366 . S
C572 C573 1.414 . S
C572 C575 1.499 . S
C573 H547 0.950 . S
C573 C572 1.414 . S
C573 C574 1.374 . S
C574 H548 0.950 . S
C574 C570 1.385 . S
C574 C573 1.374 . S
C575 C572 1.499 . S
C575 C576 1.373 . S
C575 C577 1.389 . S
C576 H549 0.950 . S
C576 C562 1.377 . S
C576 C575 1.373 . S
C577 C561 1.377 . S
C577 C575 1.389 . S
C577 C578 1.524 . S
C578 C577 1.524 . S
C578 C579 1.397 . S
C578 C583 1.363 . S
C579 H550 0.950 . S
C579 C578 1.397 . S
C579 C580 1.334 . S
C580 H551 0.950 . S
C580 C579 1.334 . S
C580 C581 1.287 . S
C581 C580 1.287 . S
C581 C582 1.524 . S
C581 H584 0.999 . S
C582 H552 0.950 . S
C582 C581 1.524 . S
C582 C583 1.415 . S
C583 H553 0.950 . S
C583 C578 1.363 . S
C583 C582 1.415 . S
H584 C581 0.999 . S
H585 C566 0.913 . S
H586 C604 0.951 . S
H587 C606 0.951 . S
H588 C608 0.950 . S
H589 C609 0.950 . S
H590 C611 0.950 . S
H591 C614 0.950 . S
H592 C615 0.950 . S
H593 C617 0.950 . S
H594 C618 0.950 . S
H595 C619 0.951 . S
H596 C621 0.951 . S
H597 C623 0.950 . S
H598 C624 0.950 . S
H599 C626 0.950 . S
H600 C629 0.950 . S
H601 C630 0.950 . S
H602 C632 0.950 . S
H603 C633 0.950 . S
C604 H586 0.951 . S
C604 C605 1.366 . S
C604 C606 1.388 . S
C605 C604 1.366 . S
C605 C609 1.385 . S
C606 H587 0.951 . S
C606 C604 1.388 . S
C606 C607 1.366 . S
C607 C606 1.366 . S
C607 C608 1.414 . S
C607 C610 1.499 . S
C608 H588 0.950 . S
C608 C607 1.414 . S
C608 C609 1.374 . S
C609 H589 0.950 . S
C609 C605 1.385 . S
C609 C608 1.374 . S
C610 C607 1.499 . S
C610 C611 1.373 . S
C610 C612 1.389 . S
C611 H590 0.950 . S
C611 C610 1.373 . S
C611 C627 1.377 . S
C612 C610 1.389 . S
C612 C613 1.524 . S
C612 C626 1.377 . S
C613 C612 1.524 . S
C613 C614 1.397 . S
C613 C618 1.363 . S
C614 H591 0.950 . S
C614 C613 1.397 . S
C614 C615 1.334 . S
C615 H592 0.950 . S
C615 C614 1.334 . S
C615 C616 1.287 . S
C616 C615 1.287 . S
C616 C617 1.524 . S
C616 H635 0.913 . S
C617 H593 0.950 . S
C617 C616 1.524 . S
C617 C618 1.415 . S
C618 H594 0.950 . S
C618 C613 1.363 . S
C618 C617 1.415 . S
C619 H595 0.951 . S
C619 C620 1.366 . S
C619 C621 1.388 . S
C620 C619 1.366 . S
C620 C624 1.385 . S
C621 H596 0.951 . S
C621 C619 1.388 . S
C621 C622 1.366 . S
C622 C621 1.366 . S
C622 C623 1.414 . S
C622 C625 1.499 . S
C623 H597 0.950 . S
C623 C622 1.414 . S
C623 C624 1.374 . S
C624 H598 0.950 . S
C624 C620 1.385 . S
C624 C623 1.374 . S
C625 C622 1.499 . S
C625 C626 1.373 . S
C625 C627 1.389 . S
C626 H599 0.950 . S
C626 C612 1.377 . S
C626 C625 1.373 . S
C627 C611 1.377 . S
C627 C625 1.389 . S
C627 C628 1.524 . S
C628 C627 1.524 . S
C628 C629 1.397 . S
C628 C633 1.363 . S
C629 H600 0.950 . S
C629 C628 1.397 . S
C629 C630 1.334 . S
C630 H601 0.950 . S
C630 C629 1.334 . S
C630 C631 1.287 . S
C631 C630 1.287 . S
C631 C632 1.524 . S
C631 H634 0.999 . S
C632 H602 0.950 . S
C632 C631 1.524 . S
C632 C633 1.415 . S
C633 H603 0.950 . S
C633 C628 1.363 . S
C633 C632 1.415 . S
H634 C631 0.999 . S
H635 C616 0.913 . S
H636 C654 0.951 . S
H637 C656 0.951 . S
H638 C658 0.950 . S
H639 C659 0.950 . S
H640 C661 0.950 . S
H641 C664 0.950 . S
H642 C665 0.950 . S
H643 C667 0.950 . S
H644 C668 0.950 . S
H645 C669 0.951 . S
H646 C671 0.951 . S
H647 C673 0.950 . S
H648 C674 0.950 . S
H649 C676 0.950 . S
H650 C679 0.950 . S
H651 C680 0.950 . S
H652 C682 0.950 . S
H653 C683 0.950 . S
C654 H636 0.951 . S
C654 C655 1.366 . S
C654 C656 1.388 . S
C655 C654 1.366 . S
C655 C659 1.385 . S
C656 H637 0.951 . S
C656 C654 1.388 . S
C656 C657 1.366 . S
C657 C656 1.366 . S
C657 C658 1.414 . S
C657 C660 1.499 . S
C658 H638 0.950 . S
C658 C657 1.414 . S
C658 C659 1.374 . S
C659 H639 0.950 . S
C659 C655 1.385 . S
C659 C658 1.374 . S
C660 C657 1.499 . S
C660 C661 1.373 . S
C660 C662 1.389 . S
C661 H640 0.950 . S
C661 C660 1.373 . S
C661 C677 1.377 . S
C662 C660 1.389 . S
C662 C663 1.524 . S
C662 C676 1.377 . S
C663 C662 1.524 . S
C663 C664 1.397 . S
C663 C668 1.363 . S
C664 H641 0.950 . S
C664 C663 1.397 . S
C664 C665 1.334 . S
C665 H642 0.950 . S
C665 C664 1.334 . S
C665 C666 1.287 . S
C666 C665 1.287 . S
C666 C667 1.524 . S
C666 H685 0.913 . S
C667 H643 0.950 . S
C667 C666 1.524 . S
C667 C668 1.415 . S
C668 H644 0.950 . S
C668 C663 1.363 . S
C668 C667 1.415 . S
C669 H645 0.951 . S
C669 C670 1.366 . S
C669 C671 1.388 . S
C670 C669 1.366 . S
C670 C674 1.385 . S
C671 H646 0.951 . S
C671 C669 1.388 . S
C671 C672 1.366 . S
C672 C671 1.366 . S
C672 C673 1.414 . S
C672 C675 1.499 . S
C673 H647 0.950 . S
C673 C672 1.414 . S
C673 C674 1.374 . S
C674 H648 0.950 . S
C674 C670 1.385 . S
C674 C673 1.374 . S
C675 C672 1.499 . S
C675 C676 1.373 . S
C675 C677 1.389 . S
C676 H649 0.950 . S
C676 C662 1.377 . S
C676 C675 1.373 . S
C677 C661 1.377 . S
C677 C675 1.389 . S
C677 C678 1.524 . S
C678 C677 1.524 . S
C678 C679 1.397 . S
C678 C683 1.363 . S
C679 H650 0.950 . S
C679 C678 1.397 . S
C679 C680 1.334 . S
C680 H651 0.950 . S
C680 C679 1.334 . S
C680 C681 1.287 . S
C681 C680 1.287 . S
C681 C682 1.524 . S
C681 H684 0.999 . S
C682 H652 0.950 . S
C682 C681 1.524 . S
C682 C683 1.415 . S
C683 H653 0.950 . S
C683 C678 1.363 . S
C683 C682 1.415 . S
H684 C681 0.999 . S
H685 C666 0.913 . S
H686 C704 0.951 . S
H687 C706 0.951 . S
H688 C708 0.950 . S
H689 C709 0.950 . S
H690 C711 0.950 . S
H691 C714 0.950 . S
H692 C715 0.950 . S
H693 C717 0.950 . S
H694 C718 0.950 . S
H695 C719 0.951 . S
H696 C721 0.951 . S
H697 C723 0.950 . S
H698 C724 0.950 . S
H699 C726 0.950 . S
H700 C729 0.950 . S
H701 C730 0.950 . S
H702 C732 0.950 . S
H703 C733 0.950 . S
C704 H686 0.951 . S
C704 C705 1.366 . S
C704 C706 1.388 . S
C705 C704 1.366 . S
C705 C709 1.385 . S
C706 H687 0.951 . S
C706 C704 1.388 . S
C706 C707 1.366 . S
C707 C706 1.366 . S
C707 C708 1.414 . S
C707 C710 1.499 . S
C708 H688 0.950 . S
C708 C707 1.414 . S
C708 C709 1.374 . S
C709 H689 0.950 . S
C709 C705 1.385 . S
C709 C708 1.374 . S
C710 C707 1.499 . S
C710 C711 1.373 . S
C710 C712 1.389 . S
C711 H690 0.950 . S
C711 C710 1.373 . S
C711 C727 1.377 . S
C712 C710 1.389 . S
C712 C713 1.524 . S
C712 C726 1.377 . S
C713 C712 1.524 . S
C713 C714 1.397 . S
C713 C718 1.363 . S
C714 H691 0.950 . S
C714 C713 1.397 . S
C714 C715 1.334 . S
C715 H692 0.950 . S
C715 C714 1.334 . S
C715 C716 1.287 . S
C716 C715 1.287 . S
C716 C717 1.524 . S
C716 H735 0.913 . S
C717 H693 0.950 . S
C717 C716 1.524 . S
C717 C718 1.415 . S
C718 H694 0.950 . S
C718 C713 1.363 . S
C718 C717 1.415 . S
C719 H695 0.951 . S
C719 C720 1.366 . S
C719 C721 1.388 . S
C720 C719 1.366 . S
C720 C724 1.385 . S
C721 H696 0.951 . S
C721 C719 1.388 . S
C721 C722 1.366 . S
C722 C721 1.366 . S
C722 C723 1.414 . S
C722 C725 1.499 . S
C723 H697 0.950 . S
C723 C722 1.414 . S
C723 C724 1.374 . S
C724 H698 0.950 . S
C724 C720 1.385 . S
C724 C723 1.374 . S
C725 C722 1.499 . S
C725 C726 1.373 . S
C725 C727 1.389 . S
C726 H699 0.950 . S
C726 C712 1.377 . S
C726 C725 1.373 . S
C727 C711 1.377 . S
C727 C725 1.389 . S
C727 C728 1.524 . S
C728 C727 1.524 . S
C728 C729 1.397 . S
C728 C733 1.363 . S
C729 H700 0.950 . S
C729 C728 1.397 . S
C729 C730 1.334 . S
C730 H701 0.950 . S
C730 C729 1.334 . S
C730 C731 1.287 . S
C731 C730 1.287 . S
C731 C732 1.524 . S
C731 H734 0.999 . S
C732 H702 0.950 . S
C732 C731 1.524 . S
C732 C733 1.415 . S
C733 H703 0.950 . S
C733 C728 1.363 . S
C733 C732 1.415 . S
H734 C731 0.999 . S
H735 C716 0.913 . S
H736 C754 0.951 . S
H737 C756 0.951 . S
H738 C758 0.950 . S
H739 C759 0.950 . S
H740 C761 0.950 . S
H741 C764 0.950 . S
H742 C765 0.950 . S
H743 C767 0.950 . S
H744 C768 0.950 . S
H745 C769 0.951 . S
H746 C771 0.951 . S
H747 C773 0.950 . S
H748 C774 0.950 . S
H749 C776 0.950 . S
H750 C779 0.950 . S
H751 C780 0.950 . S
H752 C782 0.950 . S
H753 C783 0.950 . S
C754 H736 0.951 . S
C754 C755 1.366 . S
C754 C756 1.388 . S
C755 C754 1.366 . S
C755 C759 1.385 . S
C756 H737 0.951 . S
C756 C754 1.388 . S
C756 C757 1.366 . S
C757 C756 1.366 . S
C757 C758 1.414 . S
C757 C760 1.499 . S
C758 H738 0.950 . S
C758 C757 1.414 . S
C758 C759 1.374 . S
C759 H739 0.950 . S
C759 C755 1.385 . S
C759 C758 1.374 . S
C760 C757 1.499 . S
C760 C761 1.373 . S
C760 C762 1.389 . S
C761 H740 0.950 . S
C761 C760 1.373 . S
C761 C777 1.377 . S
C762 C760 1.389 . S
C762 C763 1.524 . S
C762 C776 1.377 . S
C763 C762 1.524 . S
C763 C764 1.397 . S
C763 C768 1.363 . S
C764 H741 0.950 . S
C764 C763 1.397 . S
C764 C765 1.334 . S
C765 H742 0.950 . S
C765 C764 1.334 . S
C765 C766 1.287 . S
C766 C765 1.287 . S
C766 C767 1.524 . S
C766 H785 0.913 . S
C767 H743 0.950 . S
C767 C766 1.524 . S
C767 C768 1.415 . S
C768 H744 0.950 . S
C768 C763 1.363 . S
C768 C767 1.415 . S
C769 H745 0.951 . S
C769 C770 1.366 . S
C769 C771 1.388 . S
C770 C769 1.366 . S
C770 C774 1.385 . S
C771 H746 0.951 . S
C771 C769 1.388 . S
C771 C772 1.366 . S
C772 C771 1.366 . S
C772 C773 1.414 . S
C772 C775 1.499 . S
C773 H747 0.950 . S
C773 C772 1.414 . S
C773 C774 1.374 . S
C774 H748 0.950 . S
C774 C770 1.385 . S
C774 C773 1.374 . S
C775 C772 1.499 . S
C775 C776 1.373 . S
C775 C777 1.389 . S
C776 H749 0.950 . S
C776 C762 1.377 . S
C776 C775 1.373 . S
C777 C761 1.377 . S
C777 C775 1.389 . S
C777 C778 1.524 . S
C778 C777 1.524 . S
C778 C779 1.397 . S
C778 C783 1.363 . S
C779 H750 0.950 . S
C779 C778 1.397 . S
C779 C780 1.334 . S
C780 H751 0.950 . S
C780 C779 1.334 . S
C780 C781 1.287 . S
C781 C780 1.287 . S
C781 C782 1.524 . S
C781 H784 0.999 . S
C782 H752 0.950 . S
C782 C781 1.524 . S
C782 C783 1.415 . S
C783 H753 0.950 . S
C783 C778 1.363 . S
C783 C782 1.415 . S
H784 C781 0.999 . S
H785 C766 0.913 . S
H786 C804 0.951 . S
H787 C806 0.951 . S
H788 C808 0.950 . S
H789 C809 0.950 . S
H790 C811 0.950 . S
H791 C814 0.950 . S
H792 C815 0.950 . S
H793 C817 0.950 . S
H794 C818 0.950 . S
H795 C819 0.951 . S
H796 C821 0.951 . S
H797 C823 0.950 . S
H798 C824 0.950 . S
H799 C826 0.950 1_656 S
H800 C829 0.950 . S
H801 C830 0.950 . S
H802 C832 0.950 . S
H803 C833 0.950 . S
C804 H786 0.951 . S
C804 C805 1.366 . S
C804 C806 1.388 . S
C805 C804 1.366 . S
C805 C809 1.385 . S
C806 H787 0.951 . S
C806 C804 1.388 . S
C806 C807 1.366 . S
C807 C806 1.366 . S
C807 C808 1.414 . S
C807 C810 1.499 . S
C808 H788 0.950 . S
C808 C807 1.414 . S
C808 C809 1.374 . S
C809 H789 0.950 . S
C809 C805 1.385 . S
C809 C808 1.374 . S
C810 C807 1.499 . S
C810 C811 1.373 . S
C810 C812 1.389 . S
C811 H790 0.950 . S
C811 C810 1.373 . S
C811 C827 1.377 . S
C812 C810 1.389 . S
C812 C813 1.524 1_455 S
C812 C826 1.377 . S
C813 C812 1.524 1_655 S
C813 C814 1.397 . S
C813 C818 1.363 . S
C814 H791 0.950 . S
C814 C813 1.397 . S
C814 C815 1.334 . S
C815 H792 0.950 . S
C815 C814 1.334 . S
C815 C816 1.287 . S
C816 C815 1.287 . S
C816 C817 1.524 . S
C816 H835 0.913 . S
C817 H793 0.950 . S
C817 C816 1.524 . S
C817 C818 1.415 . S
C818 H794 0.950 . S
C818 C813 1.363 . S
C818 C817 1.415 . S
C819 H795 0.951 . S
C819 C820 1.366 . S
C819 C821 1.388 . S
C820 C819 1.366 . S
C820 C824 1.385 . S
C821 H796 0.951 . S
C821 C819 1.388 . S
C821 C822 1.366 . S
C822 C821 1.366 . S
C822 C823 1.414 . S
C822 C825 1.499 . S
C823 H797 0.950 . S
C823 C822 1.414 . S
C823 C824 1.374 . S
C824 H798 0.950 . S
C824 C820 1.385 . S
C824 C823 1.374 . S
C825 C822 1.499 . S
C825 C826 1.373 1_556 S
C825 C827 1.389 1_556 S
C826 H799 0.950 1_454 S
C826 C812 1.377 . S
C826 C825 1.373 1_554 S
C827 C811 1.377 . S
C827 C825 1.389 1_554 S
C827 C828 1.524 . S
C828 C827 1.524 . S
C828 C829 1.397 1_554 S
C828 C833 1.363 . S
C829 H800 0.950 . S
C829 C828 1.397 1_556 S
C829 C830 1.334 . S
C830 H801 0.950 . S
C830 C829 1.334 . S
C830 C831 1.287 . S
C831 C830 1.287 . S
C831 C832 1.524 1_556 S
C831 H834 0.999 . S
C832 H802 0.950 . S
C832 C831 1.524 1_554 S
C832 C833 1.415 . S
C833 H803 0.950 . S
C833 C828 1.363 . S
C833 C832 1.415 . S
H834 C831 0.999 . S
H835 C816 0.913 . S
H836 C854 0.951 . S
H837 C856 0.951 . S
H838 C858 0.950 . S
H839 C859 0.950 . S
H840 C861 0.950 . S
H841 C864 0.950 . S
H842 C865 0.950 . S
H843 C867 0.950 . S
H844 C868 0.950 . S
H845 C869 0.951 . S
H846 C871 0.951 . S
H847 C873 0.950 . S
H848 C874 0.950 . S
H849 C876 0.950 1_565 S
H850 C879 0.950 . S
H851 C880 0.950 . S
H852 C882 0.950 . S
H853 C883 0.950 . S
C854 H836 0.951 . S
C854 C855 1.366 . S
C854 C856 1.388 . S
C855 C854 1.366 . S
C855 C859 1.385 . S
C856 H837 0.951 . S
C856 C854 1.388 . S
C856 C857 1.366 . S
C857 C856 1.366 . S
C857 C858 1.414 . S
C857 C860 1.499 . S
C858 H838 0.950 . S
C858 C857 1.414 . S
C858 C859 1.374 . S
C859 H839 0.950 . S
C859 C855 1.385 . S
C859 C858 1.374 . S
C860 C857 1.499 . S
C860 C861 1.373 . S
C860 C862 1.389 . S
C861 H840 0.950 . S
C861 C860 1.373 . S
C861 C877 1.377 . S
C862 C860 1.389 . S
C862 C863 1.524 1_545 S
C862 C876 1.377 . S
C863 C862 1.524 1_565 S
C863 C864 1.397 . S
C863 C868 1.363 . S
C864 H841 0.950 . S
C864 C863 1.397 . S
C864 C865 1.334 . S
C865 H842 0.950 . S
C865 C864 1.334 . S
C865 C866 1.287 . S
C866 C865 1.287 . S
C866 C867 1.524 . S
C866 H885 0.913 . S
C867 H843 0.950 . S
C867 C866 1.524 . S
C867 C868 1.415 . S
C868 H844 0.950 . S
C868 C863 1.363 . S
C868 C867 1.415 . S
C869 H845 0.951 . S
C869 C870 1.366 . S
C869 C871 1.388 . S
C870 C869 1.366 . S
C870 C874 1.385 . S
C871 H846 0.951 . S
C871 C869 1.388 . S
C871 C872 1.366 . S
C872 C871 1.366 . S
C872 C873 1.414 . S
C872 C875 1.499 . S
C873 H847 0.950 . S
C873 C872 1.414 . S
C873 C874 1.374 . S
C874 H848 0.950 . S
C874 C870 1.385 . S
C874 C873 1.374 . S
C875 C872 1.499 . S
C875 C876 1.373 . S
C875 C877 1.389 . S
C876 H849 0.950 1_545 S
C876 C862 1.377 . S
C876 C875 1.373 . S
C877 C861 1.377 . S
C877 C875 1.389 . S
C877 C878 1.524 . S
C878 C877 1.524 . S
C878 C879 1.397 . S
C878 C883 1.363 . S
C879 H850 0.950 . S
C879 C878 1.397 . S
C879 C880 1.334 . S
C880 H851 0.950 . S
C880 C879 1.334 . S
C880 C881 1.287 . S
C881 C880 1.287 . S
C881 C882 1.524 . S
C881 H884 0.999 . S
C882 H852 0.950 . S
C882 C881 1.524 . S
C882 C883 1.415 . S
C883 H853 0.950 . S
C883 C878 1.363 . S
C883 C882 1.415 . S
H884 C881 0.999 . S
H885 C866 0.913 . S
H886 C904 0.951 . S
H887 C906 0.951 . S
H888 C908 0.950 . S
H889 C909 0.950 . S
H890 C911 0.950 . S
H891 C914 0.950 . S
H892 C915 0.950 . S
H893 C917 0.950 . S
H894 C918 0.950 . S
H895 C919 0.951 . S
H896 C921 0.951 . S
H897 C923 0.950 . S
H898 C924 0.950 . S
H899 C926 0.950 . S
H900 C929 0.950 . S
H901 C930 0.950 . S
H902 C932 0.950 . S
H903 C933 0.950 . S
C904 H886 0.951 . S
C904 C905 1.366 . S
C904 C906 1.388 . S
C905 C904 1.366 . S
C905 C909 1.385 . S
C906 H887 0.951 . S
C906 C904 1.388 . S
C906 C907 1.366 . S
C907 C906 1.366 . S
C907 C908 1.414 . S
C907 C910 1.499 . S
C908 H888 0.950 . S
C908 C907 1.414 . S
C908 C909 1.374 . S
C909 H889 0.950 . S
C909 C905 1.385 . S
C909 C908 1.374 . S
C910 C907 1.499 . S
C910 C911 1.373 . S
C910 C912 1.389 . S
C911 H890 0.950 . S
C911 C910 1.373 . S
C911 C927 1.377 . S
C912 C910 1.389 . S
C912 C913 1.524 . S
C912 C926 1.377 . S
C913 C912 1.524 . S
C913 C914 1.397 . S
C913 C918 1.363 . S
C914 H891 0.950 . S
C914 C913 1.397 . S
C914 C915 1.334 . S
C915 H892 0.950 . S
C915 C914 1.334 . S
C915 C916 1.287 . S
C916 C915 1.287 . S
C916 C917 1.524 . S
C916 H935 0.913 . S
C917 H893 0.950 . S
C917 C916 1.524 . S
C917 C918 1.415 . S
C918 H894 0.950 . S
C918 C913 1.363 . S
C918 C917 1.415 . S
C919 H895 0.951 . S
C919 C920 1.366 . S
C919 C921 1.388 . S
C920 C919 1.366 . S
C920 C924 1.385 . S
C921 H896 0.951 . S
C921 C919 1.388 . S
C921 C922 1.366 . S
C922 C921 1.366 . S
C922 C923 1.414 . S
C922 C925 1.499 . S
C923 H897 0.950 . S
C923 C922 1.414 . S
C923 C924 1.374 . S
C924 H898 0.950 . S
C924 C920 1.385 . S
C924 C923 1.374 . S
C925 C922 1.499 . S
C925 C926 1.373 . S
C925 C927 1.389 . S
C926 H899 0.950 . S
C926 C912 1.377 . S
C926 C925 1.373 . S
C927 C911 1.377 . S
C927 C925 1.389 . S
C927 C928 1.524 . S
C928 C927 1.524 . S
C928 C929 1.397 . S
C928 C933 1.363 . S
C929 H900 0.950 . S
C929 C928 1.397 . S
C929 C930 1.334 . S
C930 H901 0.950 . S
C930 C929 1.334 . S
C930 C931 1.287 . S
C931 C930 1.287 . S
C931 C932 1.524 . S
C931 H934 0.999 . S
C932 H902 0.950 . S
C932 C931 1.524 . S
C932 C933 1.415 . S
C933 H903 0.950 . S
C933 C928 1.363 . S
C933 C932 1.415 . S
H934 C931 0.999 . S
H935 C916 0.913 . S
H936 C954 0.951 . S
H937 C956 0.951 . S
H938 C958 0.950 . S
H939 C959 0.950 . S
H940 C961 0.950 . S
H941 C964 0.950 . S
H942 C965 0.950 . S
H943 C967 0.950 . S
H944 C968 0.950 . S
H945 C969 0.951 . S
H946 C971 0.951 . S
H947 C973 0.950 . S
H948 C974 0.950 . S
H949 C976 0.950 . S
H950 C979 0.950 . S
H951 C980 0.950 . S
H952 C982 0.950 . S
H953 C983 0.950 . S
C954 H936 0.951 . S
C954 C955 1.366 . S
C954 C956 1.388 . S
C955 C954 1.366 . S
C955 C959 1.385 . S
C956 H937 0.951 . S
C956 C954 1.388 . S
C956 C957 1.366 . S
C957 C956 1.366 . S
C957 C958 1.414 . S
C957 C960 1.499 . S
C958 H938 0.950 . S
C958 C957 1.414 . S
C958 C959 1.374 . S
C959 H939 0.950 . S
C959 C955 1.385 . S
C959 C958 1.374 . S
C960 C957 1.499 . S
C960 C961 1.373 . S
C960 C962 1.389 . S
C961 H940 0.950 . S
C961 C960 1.373 . S
C961 C977 1.377 . S
C962 C960 1.389 . S
C962 C963 1.524 . S
C962 C976 1.377 . S
C963 C962 1.524 . S
C963 C964 1.397 1_545 S
C963 C968 1.363 . S
C964 H941 0.950 . S
C964 C963 1.397 1_565 S
C964 C965 1.334 . S
C965 H942 0.950 . S
C965 C964 1.334 . S
C965 C966 1.287 . S
C966 C965 1.287 . S
C966 C967 1.524 1_565 S
C966 H985 0.913 . S
C967 H943 0.950 . S
C967 C966 1.524 1_545 S
C967 C968 1.415 . S
C968 H944 0.950 . S
C968 C963 1.363 . S
C968 C967 1.415 . S
C969 H945 0.951 . S
C969 C970 1.366 . S
C969 C971 1.388 . S
C970 C969 1.366 . S
C970 C974 1.385 . S
C971 H946 0.951 . S
C971 C969 1.388 . S
C971 C972 1.366 . S
C972 C971 1.366 . S
C972 C973 1.414 . S
C972 C975 1.499 . S
C973 H947 0.950 . S
C973 C972 1.414 . S
C973 C974 1.374 . S
C974 H948 0.950 . S
C974 C970 1.385 . S
C974 C973 1.374 . S
C975 C972 1.499 . S
C975 C976 1.373 . S
C975 C977 1.389 . S
C976 H949 0.950 . S
C976 C962 1.377 . S
C976 C975 1.373 . S
C977 C961 1.377 . S
C977 C975 1.389 . S
C977 C978 1.524 . S
C978 C977 1.524 . S
C978 C979 1.397 . S
C978 C983 1.363 . S
C979 H950 0.950 . S
C979 C978 1.397 . S
C979 C980 1.334 . S
C980 H951 0.950 . S
C980 C979 1.334 . S
C980 C981 1.287 . S
C981 C980 1.287 . S
C981 C982 1.524 . S
C981 H984 0.999 . S
C982 H952 0.950 . S
C982 C981 1.524 . S
C982 C983 1.415 . S
C983 H953 0.950 . S
C983 C978 1.363 . S
C983 C982 1.415 . S
H984 C981 0.999 . S
H985 C966 0.913 . S
H986 C1004 0.951 . S
H987 C1006 0.951 . S
H988 C1008 0.950 . S
H989 C1009 0.950 . S
H990 C1011 0.950 . S
H991 C1014 0.950 . S
H992 C1015 0.950 . S
H993 C1017 0.950 . S
H994 C1018 0.950 . S
H995 C1019 0.951 . S
H996 C1021 0.951 . S
H997 C1023 0.950 . S
H998 C1024 0.950 . S
H999 C1026 0.950 1_554 S
H1000 C1029 0.950 . S
H1001 C1030 0.950 . S
H1002 C1032 0.950 . S
H1003 C1033 0.950 . S
C1004 H986 0.951 . S
C1004 C1005 1.366 . S
C1004 C1006 1.388 . S
C1005 C1004 1.366 . S
C1005 C1009 1.385 . S
C1006 H987 0.951 . S
C1006 C1004 1.388 . S
C1006 C1007 1.366 . S
C1007 C1006 1.366 . S
C1007 C1008 1.414 . S
C1007 C1010 1.499 . S
C1008 H988 0.950 . S
C1008 C1007 1.414 . S
C1008 C1009 1.374 . S
C1009 H989 0.950 . S
C1009 C1005 1.385 . S
C1009 C1008 1.374 . S
C1010 C1007 1.499 . S
C1010 C1011 1.373 . S
C1010 C1012 1.389 . S
C1011 H990 0.950 . S
C1011 C1010 1.373 . S
C1011 C1027 1.377 . S
C1012 C1010 1.389 . S
C1012 C1013 1.524 . S
C1012 C1026 1.377 . S
C1013 C1012 1.524 . S
C1013 C1014 1.397 . S
C1013 C1018 1.363 . S
C1014 H991 0.950 . S
C1014 C1013 1.397 . S
C1014 C1015 1.334 . S
C1015 H992 0.950 . S
C1015 C1014 1.334 . S
C1015 C1016 1.287 . S
C1016 C1015 1.287 . S
C1016 C1017 1.524 . S
C1016 H1035 0.913 . S
C1017 H993 0.950 . S
C1017 C1016 1.524 . S
C1017 C1018 1.415 . S
C1018 H994 0.950 . S
C1018 C1013 1.363 . S
C1018 C1017 1.415 . S
C1019 H995 0.951 . S
C1019 C1020 1.366 . S
C1019 C1021 1.388 . S
C1020 C1019 1.366 . S
C1020 C1024 1.385 . S
C1021 H996 0.951 . S
C1021 C1019 1.388 . S
C1021 C1022 1.366 . S
C1022 C1021 1.366 . S
C1022 C1023 1.414 . S
C1022 C1025 1.499 . S
C1023 H997 0.950 . S
C1023 C1022 1.414 . S
C1023 C1024 1.374 . S
C1024 H998 0.950 . S
C1024 C1020 1.385 . S
C1024 C1023 1.374 . S
C1025 C1022 1.499 . S
C1025 C1026 1.373 1_554 S
C1025 C1027 1.389 1_554 S
C1026 H999 0.950 1_556 S
C1026 C1012 1.377 . S
C1026 C1025 1.373 1_556 S
C1027 C1011 1.377 . S
C1027 C1025 1.389 1_556 S
C1027 C1028 1.524 . S
C1028 C1027 1.524 . S
C1028 C1029 1.397 1_556 S
C1028 C1033 1.363 . S
C1029 H1000 0.950 . S
C1029 C1028 1.397 1_554 S
C1029 C1030 1.334 . S
C1030 H1001 0.950 . S
C1030 C1029 1.334 . S
C1030 C1031 1.287 . S
C1031 C1030 1.287 . S
C1031 C1032 1.524 1_554 S
C1031 H1034 0.999 . S
C1032 H1002 0.950 . S
C1032 C1031 1.524 1_556 S
C1032 C1033 1.415 . S
C1033 H1003 0.950 . S
C1033 C1028 1.363 . S
C1033 C1032 1.415 . S
H1034 C1031 0.999 . S
H1035 C1016 0.913 . S
H1036 C1054 0.951 . S
H1037 C1056 0.951 . S
H1038 C1058 0.950 . S
H1039 C1059 0.950 . S
H1040 C1061 0.950 . S
H1041 C1064 0.950 1_655 S
H1042 C1065 0.950 . S
H1043 C1067 0.950 . S
H1044 C1068 0.950 . S
H1045 C1069 0.951 . S
H1046 C1071 0.951 . S
H1047 C1073 0.950 . S
H1048 C1074 0.950 . S
H1049 C1076 0.950 . S
H1050 C1079 0.950 . S
H1051 C1080 0.950 . S
H1052 C1082 0.950 . S
H1053 C1083 0.950 . S
C1054 H1036 0.951 . S
C1054 C1055 1.366 . S
C1054 C1056 1.388 . S
C1055 C1054 1.366 . S
C1055 C1059 1.385 1_455 S
C1056 H1037 0.951 . S
C1056 C1054 1.388 . S
C1056 C1057 1.366 . S
C1057 C1056 1.366 . S
C1057 C1058 1.414 1_455 S
C1057 C1060 1.499 . S
C1058 H1038 0.950 . S
C1058 C1057 1.414 1_655 S
C1058 C1059 1.374 . S
C1059 H1039 0.950 . S
C1059 C1055 1.385 1_655 S
C1059 C1058 1.374 . S
C1060 C1057 1.499 . S
C1060 C1061 1.373 . S
C1060 C1062 1.389 . S
C1061 H1040 0.950 . S
C1061 C1060 1.373 . S
C1061 C1077 1.377 . S
C1062 C1060 1.389 . S
C1062 C1063 1.524 . S
C1062 C1076 1.377 . S
C1063 C1062 1.524 . S
C1063 C1064 1.397 . S
C1063 C1068 1.363 . S
C1064 H1041 0.950 1_455 S
C1064 C1063 1.397 . S
C1064 C1065 1.334 . S
C1065 H1042 0.950 . S
C1065 C1064 1.334 . S
C1065 C1066 1.287 . S
C1066 C1065 1.287 . S
C1066 C1067 1.524 . S
C1066 H1085 0.913 . S
C1067 H1043 0.950 . S
C1067 C1066 1.524 . S
C1067 C1068 1.415 . S
C1068 H1044 0.950 . S
C1068 C1063 1.363 . S
C1068 C1067 1.415 . S
C1069 H1045 0.951 . S
C1069 C1070 1.366 1_655 S
C1069 C1071 1.388 . S
C1070 C1069 1.366 1_455 S
C1070 C1074 1.385 . S
C1071 H1046 0.951 . S
C1071 C1069 1.388 . S
C1071 C1072 1.366 1_655 S
C1072 C1071 1.366 1_455 S
C1072 C1073 1.414 . S
C1072 C1075 1.499 . S
C1073 H1047 0.950 . S
C1073 C1072 1.414 . S
C1073 C1074 1.374 . S
C1074 H1048 0.950 . S
C1074 C1070 1.385 . S
C1074 C1073 1.374 . S
C1075 C1072 1.499 . S
C1075 C1076 1.373 . S
C1075 C1077 1.389 . S
C1076 H1049 0.950 . S
C1076 C1062 1.377 . S
C1076 C1075 1.373 . S
C1077 C1061 1.377 . S
C1077 C1075 1.389 . S
C1077 C1078 1.523 1_455 S
C1078 C1077 1.523 1_655 S
C1078 C1079 1.396 1_655 S
C1078 C1083 1.365 . S
C1079 H1050 0.950 . S
C1079 C1078 1.396 1_455 S
C1079 C1080 1.334 . S
C1080 H1051 0.950 . S
C1080 C1079 1.334 . S
C1080 C1081 1.287 1_455 S
C1081 C1080 1.287 1_655 S
C1081 C1082 1.524 . S
C1081 H1084 0.999 . S
C1082 H1052 0.950 . S
C1082 C1081 1.524 . S
C1082 C1083 1.415 . S
C1083 H1053 0.950 . S
C1083 C1078 1.365 . S
C1083 C1082 1.415 . S
H1084 C1081 0.999 . S
H1085 C1066 0.913 . S
C205 C6 0.573 . S
C220 C185 0.570 . S
C255 C59 1.929 . S
C270 C163 1.884 . S
C305 C86 1.229 . S
C320 C174 1.218 . S
C355 C15 0.254 . S
C370 C179 0.193 . S
C420 C157 1.815 . S
C405 C50 1.837 . S
C470 C168 1.117 . S
C455 C95 1.124 . S
C505 C46 1.273 . S
C520 C141 1.261 . S
C555 C99 2.992 . S
C570 C146 2.953 1_655 S
C605 C10 1.853 . S
C620 C124 1.837 1_565 S
C670 C135 1.101 . S
C655 C55 1.105 . S
C720 C152 2.975 . S
C705 C90 3.008 . S
C755 C19 1.931 . S
C770 C130 1.893 . S
C820 C147 1.715 . S
C805 C18 1.679 . S
C855 C49 1.421 . S
C870 C125 1.480 . S
C905 C98 1.513 . S
C920 C136 1.546 . S
C970 C169 1.530 . S
C955 C58 1.513 . S
C1020 C180 1.296 . S
C1005 C89 1.266 . S
C1055 C9 1.401 . S
C1070 C158 1.448 . S
