# Generated by pormake.
# Topology pyr, (3,6)-cn, num edge types: 1
# Building blocks:
#     Node 0, Type 0, BuildingBlock: PAMTOO_clean_linker_0, # of connection points: 3
#     Node 1, Type 0, BuildingBlock: PAMTOO_clean_linker_0, # of connection points: 3
#     Node 2, Type 0, BuildingBlock: PAMTOO_clean_linker_0, # of connection points: 3
#     Node 3, Type 0, BuildingBlock: PAMTOO_clean_linker_0, # of connection points: 3
#     Node 4, Type 0, BuildingBlock: PAMTOO_clean_linker_0, # of connection points: 3
#     Node 5, Type 0, BuildingBlock: PAMTOO_clean_linker_0, # of connection points: 3
#     Node 6, Type 0, BuildingBlock: PAMTOO_clean_linker_0, # of connection points: 3
#     Node 7, Type 0, BuildingBlock: PAMTOO_clean_linker_0, # of connection points: 3
#     Node 8, Type 1, BuildingBlock: INOVEN_clean_sbu_0, # of connection points: 6
#     Node 9, Type 1, BuildingBlock: INOVEN_clean_sbu_0, # of connection points: 6
#     Node 10, Type 1, BuildingBlock: INOVEN_clean_sbu_0, # of connection points: 6
#     Node 11, Type 1, BuildingBlock: INOVEN_clean_sbu_0, # of connection points: 6
#     Edge 12, Type (0, 1), BuildingBlock: ZUJKAS_clean_linker_0, # of connection points: 2
#     Edge 13, Type (0, 1), BuildingBlock: ZUJKAS_clean_linker_0, # of connection points: 2
#     Edge 14, Type (0, 1), BuildingBlock: ZUJKAS_clean_linker_0, # of connection points: 2
#     Edge 15, Type (0, 1), BuildingBlock: ZUJKAS_clean_linker_0, # of connection points: 2
#     Edge 16, Type (0, 1), BuildingBlock: ZUJKAS_clean_linker_0, # of connection points: 2
#     Edge 17, Type (0, 1), BuildingBlock: ZUJKAS_clean_linker_0, # of connection points: 2
#     Edge 18, Type (0, 1), BuildingBlock: ZUJKAS_clean_linker_0, # of connection points: 2
#     Edge 19, Type (0, 1), BuildingBlock: ZUJKAS_clean_linker_0, # of connection points: 2
#     Edge 20, Type (0, 1), BuildingBlock: ZUJKAS_clean_linker_0, # of connection points: 2
#     Edge 21, Type (0, 1), BuildingBlock: ZUJKAS_clean_linker_0, # of connection points: 2
#     Edge 22, Type (0, 1), BuildingBlock: ZUJKAS_clean_linker_0, # of connection points: 2
#     Edge 23, Type (0, 1), BuildingBlock: ZUJKAS_clean_linker_0, # of connection points: 2
#     Edge 24, Type (0, 1), BuildingBlock: ZUJKAS_clean_linker_0, # of connection points: 2
#     Edge 25, Type (0, 1), BuildingBlock: ZUJKAS_clean_linker_0, # of connection points: 2
#     Edge 26, Type (0, 1), BuildingBlock: ZUJKAS_clean_linker_0, # of connection points: 2
#     Edge 27, Type (0, 1), BuildingBlock: ZUJKAS_clean_linker_0, # of connection points: 2
#     Edge 28, Type (0, 1), BuildingBlock: ZUJKAS_clean_linker_0, # of connection points: 2
#     Edge 29, Type (0, 1), BuildingBlock: ZUJKAS_clean_linker_0, # of connection points: 2
#     Edge 30, Type (0, 1), BuildingBlock: ZUJKAS_clean_linker_0, # of connection points: 2
#     Edge 31, Type (0, 1), BuildingBlock: ZUJKAS_clean_linker_0, # of connection points: 2
#     Edge 32, Type (0, 1), BuildingBlock: ZUJKAS_clean_linker_0, # of connection points: 2
#     Edge 33, Type (0, 1), BuildingBlock: ZUJKAS_clean_linker_0, # of connection points: 2
#     Edge 34, Type (0, 1), BuildingBlock: ZUJKAS_clean_linker_0, # of connection points: 2
#     Edge 35, Type (0, 1), BuildingBlock: ZUJKAS_clean_linker_0, # of connection points: 2
# Relax obj value: 0.132
# Max RMSD: 0.214
# Mean RMSD: 0.147
data_MOF--net-pyr--node1-INOVEN_clean_sbu_0--node2-PAMTOO_clean_linker_0--edge1-ZUJKAS_clean_linker_0
_symmetry_space_group_name_H-M    P1
_symmetry_Int_Tables_number       1
_symmetry_cell_setting            triclinic
loop_
_symmetry_equiv_pos_as_xyz
'x, y, z'
_cell_length_a     48.9775
_cell_length_b     51.882476
_cell_length_c     46.47286
_cell_angle_alpha  91.931625
_cell_angle_beta   89.209291
_cell_angle_gamma 103.88209
loop_
_atom_site_label
_atom_site_type_symbol
_atom_site_fract_x
_atom_site_fract_y
_atom_site_fract_z
_atom_type_partial_charge
H0 H 0.32968 0.3109 0.28728 0.0
H1 H 0.37657 0.25224 0.26984 0.0
H2 H 0.37081 0.30737 0.20487 0.0
H3 H 0.42905 0.27406 0.24378 0.0
C4 C 0.42271 0.2732 0.22079 0.0
O5 O 0.39373 0.26836 0.21869 0.0
H6 H 0.43223 0.29276 0.21135 0.0
C7 C 0.34325 0.30274 0.27284 0.0
C8 C 0.34801 0.3117 0.24457 0.0
C9 C 0.35267 0.28092 0.28168 0.0
C10 C 0.37005 0.26976 0.26349 0.0
C11 C 0.37793 0.2803 0.23646 0.0
C12 C 0.3666 0.30105 0.22678 0.0
H13 H 0.29493 0.92466 0.66304 0.0
H14 H 0.24906 0.86087 0.60825 0.0
H15 H 0.32298 0.85236 0.65115 0.0
H16 H 0.29763 0.84728 0.57593 0.0
C17 C 0.29107 0.82771 0.58644 0.0
O18 O 0.28296 0.83036 0.61469 0.0
H19 H 0.27271 0.81596 0.57414 0.0
C20 C 0.2923 0.90487 0.65345 0.0
C21 C 0.31139 0.88966 0.65981 0.0
C22 C 0.26987 0.89471 0.63479 0.0
C23 C 0.26659 0.86925 0.62238 0.0
C24 C 0.28599 0.85437 0.62786 0.0
C25 C 0.30846 0.86445 0.64649 0.0
H26 H 0.73135 0.3371 0.90647 0.0
H27 H 0.66764 0.32988 0.8414 0.0
H28 H 0.73615 0.39956 0.84702 0.0
H29 H 0.67917 0.40868 0.83696 0.0
C30 C 0.6717 0.39278 0.82022 0.0
O31 O 0.6903 0.37632 0.8183 0.0
H32 H 0.65083 0.38102 0.8275 0.0
C33 C 0.72277 0.34471 0.88811 0.0
C34 C 0.73693 0.3696 0.87807 0.0
C35 C 0.69782 0.3298 0.87526 0.0
C36 C 0.68653 0.34099 0.85208 0.0
C37 C 0.70017 0.36631 0.84189 0.0
C38 C 0.72531 0.38046 0.85515 0.0
H39 H 0.86988 0.73001 0.42943 0.0
H40 H 0.87189 0.66303 0.37297 0.0
H41 H 0.93813 0.73424 0.36887 0.0
H42 H 0.92353 0.70468 0.30997 0.0
C43 C 0.91336 0.68494 0.31858 0.0
O44 O 0.91937 0.68501 0.34767 0.0
H45 H 0.89024 0.68187 0.31571 0.0
C46 C 0.88033 0.72081 0.4127 0.0
C47 C 0.90566 0.73538 0.40082 0.0
C48 C 0.86782 0.69485 0.40279 0.0
C49 C 0.88101 0.68321 0.38053 0.0
C50 C 0.90632 0.69727 0.3682 0.0
C51 C 0.91847 0.7235 0.37819 0.0
H52 H 0.70949 0.82445 0.8284 0.0
H53 H 0.70331 0.77546 0.90243 0.0
H54 H 0.75904 0.76661 0.83281 0.0
H55 H 0.72669 0.7181 0.8553 0.0
C56 C 0.73138 0.72286 0.87853 0.0
O57 O 0.74098 0.74996 0.88327 0.0
H58 H 0.71147 0.71582 0.8908 0.0
C59 C 0.71464 0.80802 0.83918 0.0
C60 C 0.73497 0.79593 0.82705 0.0
C61 C 0.7032 0.80107 0.86651 0.0
C62 C 0.71147 0.78077 0.8811 0.0
C63 C 0.73127 0.76804 0.8686 0.0
C64 C 0.74301 0.7758 0.84177 0.0
H65 H 0.7974 0.17833 0.40921 0.0
H66 H 0.75463 0.24165 0.41872 0.0
H67 H 0.82242 0.2395 0.47492 0.0
H68 H 0.7809 0.25899 0.50736 0.0
C69 C 0.76705 0.25868 0.48852 0.0
O70 O 0.7833 0.26325 0.46402 0.0
H71 H 0.75181 0.23886 0.48741 0.0
C72 C 0.79522 0.19676 0.41964 0.0
C73 C 0.81252 0.20769 0.44276 0.0
C74 C 0.77445 0.209 0.41062 0.0
C75 C 0.77089 0.2321 0.42511 0.0
C76 C 0.7883 0.24283 0.44819 0.0
C77 C 0.8093 0.23097 0.45675 0.0
H78 H 0.36139 0.74211 0.16611 0.0
H79 H 0.35533 0.68686 0.23467 0.0
H80 H 0.42496 0.75461 0.23183 0.0
H81 H 0.44127 0.70679 0.24993 0.0
C82 C 0.42076 0.6952 0.25825 0.0
O83 O 0.40194 0.7114 0.25976 0.0
H84 H 0.41266 0.67831 0.24277 0.0
C85 C 0.36961 0.73589 0.18549 0.0
C86 C 0.39476 0.75177 0.19736 0.0
C87 C 0.35495 0.71218 0.19841 0.0
C88 C 0.36618 0.70452 0.22372 0.0
C89 C 0.3914 0.71961 0.2356 0.0
C90 C 0.40546 0.74322 0.22251 0.0
H91 H 0.13533 0.35692 0.74812 0.0
H92 H 0.20073 0.42978 0.74821 0.0
H93 H 0.20131 0.36925 0.68401 0.0
H94 H 0.2548 0.39741 0.71862 0.0
C95 C 0.25304 0.4178 0.71361 0.0
O96 O 0.22657 0.41662 0.70284 0.0
H97 H 0.256 0.43012 0.73387 0.0
C98 C 0.15423 0.36935 0.73905 0.0
C99 C 0.16696 0.35965 0.71475 0.0
C100 C 0.16604 0.39483 0.75173 0.0
C101 C 0.19056 0.41049 0.73898 0.0
C102 C 0.20305 0.40123 0.71472 0.0
C103 C 0.19136 0.37597 0.70285 0.0
Gd104 Gd 0.04181 0.06029 0.52344 0.0
Gd105 Gd 0.02443 0.03946 0.58323 0.0
C106 C 0.05976 0.09867 0.58103 0.0
C107 C 0.05422 0.08839 0.47836 0.0
C108 C 0.07912 0.1088 0.46998 0.0
C109 C 0.10623 0.10669 0.47724 0.0
C110 C 0.07591 0.1305 0.45441 0.0
C111 C 0.12677 0.14696 0.45175 0.0
C112 C 0.09953 0.14947 0.44539 0.0
C113 C 0.12982 0.12548 0.46804 0.0
C114 C 0.07694 1.03548 0.54817 0.0
C115 C 0.00621 1.00085 0.52544 0.0
C116 C 0.01021 1.0119 0.62821 0.0
C117 C 0.98419 0.99245 0.63581 0.0
C118 C 0.95762 0.99762 0.63153 0.0
C119 C 0.98587 0.96831 0.64727 0.0
C120 C 0.93492 0.95544 0.65216 0.0
C121 C 0.96146 0.94992 0.65533 0.0
C122 C 0.93318 0.97928 0.63976 0.0
C123 C 0.98937 0.06394 0.55802 0.0
O124 O 0.05294 0.09706 0.55341 0.0
O125 O 0.05577 0.07718 0.5966 0.0
O126 O 0.05788 0.06432 0.47999 0.0
O127 O 0.03921 0.09494 0.49967 0.0
O128 O 0.07288 1.03471 0.52072 0.0
O129 O 0.06458 0.05113 0.56073 0.0
O130 O 0.01214 1.00272 0.55335 0.0
O131 O 0.01132 1.02225 0.5096 0.0
O132 O 0.0082 0.0365 0.62663 0.0
O133 O 0.02536 1.00462 0.60741 0.0
O134 O 0.99369 0.06546 0.58544 0.0
O135 O 1.00184 0.04818 0.54597 0.0
H136 H 0.10922 0.09022 0.48956 0.0
H137 H 0.05512 0.13259 0.44897 0.0
H138 H 0.09645 0.166 0.43325 0.0
H139 H 0.15045 0.12268 0.47296 0.0
H140 H 0.9557 1.01597 0.62225 0.0
H141 H 0.00611 0.96379 0.65025 0.0
H142 H 0.96339 0.93144 0.66429 0.0
H143 H 0.91305 0.98412 0.63721 0.0
Gd144 Gd 0.58163 0.04102 0.05364 0.0
Gd145 Gd 0.53209 1.03 1.01671 0.0
C146 C 0.53501 0.07151 0.06988 0.0
C147 C 0.62929 0.05417 0.07903 0.0
C148 C 0.63754 0.0718 0.10433 0.0
C149 C 0.6342 0.06125 0.13193 0.0
C150 C 0.64568 0.09948 0.10138 0.0
C151 C 0.64532 0.10569 0.15308 0.0
C152 C 0.64958 0.11633 0.12565 0.0
C153 C 0.63791 0.07809 0.15612 0.0
C154 C 0.53839 1.00238 0.07326 0.0
C155 C 0.58186 1.00327 0.99659 0.0
C156 C 0.48514 1.00666 0.99376 0.0
C157 C 0.47939 0.99541 0.9646 0.0
C158 C 0.48823 1.01082 0.94035 0.0
C159 C 0.46716 0.96821 0.96099 0.0
C160 C 0.47021 0.97231 0.90928 0.0
C161 C 0.46267 0.9567 0.93351 0.0
C162 C 0.48357 0.99931 0.9128 0.0
C163 C 0.56626 0.07443 0.99512 0.0
O164 O 0.56237 0.07385 0.06969 0.0
O165 O 0.51817 0.0521 0.05496 0.0
O166 O 0.61082 1.03197 0.08381 0.0
O167 O 0.62392 0.06558 0.05581 0.0
O168 O 0.5529 1.02156 0.08942 0.0
O169 O 0.54705 1.0053 0.04758 0.0
O170 O 0.55712 1.00707 0.98971 0.0
O171 O 0.5952 1.01453 1.01991 0.0
O172 O 0.49333 1.03254 0.9965 0.0
O173 O 0.49961 0.99429 1.00938 0.0
O174 O 0.54272 0.06162 0.98392 0.0
O175 O 0.57191 0.0622 1.01658 0.0
H176 H 0.62807 0.04 0.13487 0.0
H177 H 0.64841 0.10818 0.08035 0.0
H178 H 0.65563 0.13762 0.12302 0.0
H179 H 0.63534 0.06953 0.17723 0.0
H180 H 0.49845 1.03174 0.94258 0.0
H181 H 0.46101 0.95589 0.97947 0.0
H182 H 0.45259 0.93575 0.93113 0.0
H183 H 0.48932 1.01171 0.89432 0.0
Gd184 Gd 0.55237 0.54038 0.52587 0.0
Gd185 Gd 0.55249 0.58113 0.56879 0.0
C186 C 0.57662 0.53354 0.59017 0.0
C187 C 0.565 0.50495 0.49223 0.0
C188 C 0.57632 0.48231 0.4993 0.0
C189 C 0.55816 0.45699 0.50105 0.0
C190 C 0.60467 0.4862 0.50705 0.0
C191 C 0.59654 0.43976 0.51792 0.0
C192 C 0.61468 0.46508 0.5163 0.0
C193 C 0.56818 0.43586 0.51045 0.0
C194 C 0.50259 0.53431 0.55354 0.0
C195 C 0.52804 0.58664 0.5042 0.0
C196 C 0.53937 0.61719 0.60158 0.0
C197 C 0.52403 0.63754 0.59551 0.0
C198 C 0.53857 0.66258 0.58601 0.0
C199 C 0.49455 0.63158 0.59747 0.0
C200 C 0.49441 0.67509 0.58009 0.0
C201 C 0.47989 0.65016 0.58979 0.0
C202 C 0.52387 0.68116 0.57829 0.0
C203 C 0.60211 0.5872 0.54091 0.0
O204 O 0.57518 0.52596 0.56259 0.0
O205 O 0.56661 0.55394 0.59902 0.0
O206 O 0.53928 0.50365 0.50112 0.0
O207 O 0.58187 0.52842 0.49664 0.0
O208 O 0.50514 0.53106 0.52597 0.0
O209 O 0.52644 0.54038 0.56534 0.0
O210 O 0.52734 0.5932 0.53201 0.0
O211 O 0.54078 0.56817 0.49559 0.0
O212 O 0.56407 0.62013 0.58935 0.0
O213 O 0.5246 0.59255 0.60048 0.0
O214 O 0.59971 0.59055 0.5685 0.0
O215 O 0.5782 0.58115 0.52924 0.0
H216 H 0.53616 0.45358 0.49542 0.0
H217 H 0.6192 0.50553 0.50607 0.0
H218 H 0.63683 0.46841 0.52123 0.0
H219 H 0.5539 0.41641 0.51147 0.0
H220 H 0.56129 0.66774 0.58423 0.0
H221 H 0.48272 0.61249 0.6048 0.0
H222 H 0.4572 0.64518 0.59201 0.0
H223 H 0.53554 0.70025 0.57082 0.0
Gd224 Gd 0.04826 0.49433 0.07158 0.0
Gd225 Gd 0.03716 0.54502 0.04249 0.0
C226 C 0.09574 0.55194 0.07585 0.0
C227 C 0.07003 0.45689 0.08994 0.0
C228 C 0.09562 0.45199 0.10371 0.0
C229 C 0.09745 0.45092 0.13385 0.0
C230 C 0.11721 0.44557 0.08675 0.0
C231 C 0.14155 0.43664 0.12961 0.0
C232 C 0.1398 0.43805 0.09948 0.0
C233 C 0.12012 0.44345 0.14661 0.0
C234 C 0.01813 0.52322 0.10289 0.0
C235 C 0.99214 0.48735 0.0348 0.0
C236 C 0.01173 0.58237 0.03385 0.0
C237 C 0.98798 0.58701 1.01671 0.0
C238 C 0.98832 0.58683 0.98642 0.0
C239 C 0.96464 0.59257 0.03127 0.0
C240 C 0.94287 0.59886 0.98586 0.0
C241 C 0.94246 0.59841 1.01615 0.0
C242 C 0.96603 0.59268 0.97119 0.0
C243 C 0.05962 0.51546 1.00281 0.0
O244 O 0.08888 0.52588 0.07982 0.0
O245 O 0.07864 0.56439 0.06316 0.0
O246 O 0.05367 0.46839 0.10563 0.0
O247 O 0.07202 0.46446 0.0632 0.0
O248 O 0.01275 0.4974 0.10233 0.0
O249 O 0.03932 0.5323 0.08719 0.0
O250 O 0.99694 0.51355 0.036 0.0
O251 O 0.01062 0.47466 0.04424 0.0
O252 O 0.03514 0.58083 1.02048 0.0
O253 O 1.00482 0.56537 0.0545 0.0
O254 O 0.05398 0.53807 0.99762 0.0
O255 O 0.05344 0.51063 0.02884 0.0
H256 H 0.08107 0.45536 0.14765 0.0
H257 H 0.11631 0.44566 0.06349 0.0
H258 H 0.15544 0.4325 0.08549 0.0
H259 H 0.12073 0.44294 0.16986 0.0
H260 H 0.00589 0.58244 0.97447 0.0
H261 H 0.96377 0.59292 0.05459 0.0
H262 H 0.92542 0.60345 0.02841 0.0
H263 H 0.96703 0.59242 0.9479 0.0
H264 H 0.31433 0.23474 0.27763 0.0
H265 H 0.28035 0.21526 0.31422 0.0
H266 H 0.32296 0.27417 0.37684 0.0
H267 H 0.35591 0.29501 0.33914 0.0
H268 H 0.28141 0.19296 0.36168 0.0
H269 H 0.24672 0.28603 0.38577 0.0
H270 H 0.27106 0.28352 0.35698 0.0
H271 H 0.28287 0.288 0.39376 0.0
C272 C 0.31681 0.2431 0.2994 0.0
C273 C 0.33779 0.26604 0.30585 0.0
C274 C 0.29729 0.23211 0.32028 0.0
C275 C 0.29865 0.24359 0.34819 0.0
C276 C 0.3209 0.2655 0.35524 0.0
H277 H 0.17746 0.16721 0.47829 0.0
H278 H 0.22071 0.19312 0.45638 0.0
C279 C 0.34004 0.27704 0.33397 0.0
C280 C 0.276 0.23267 0.36905 0.0
H281 H 0.22259 0.24778 0.4093 0.0
C282 C 0.26878 0.20505 0.37229 0.0
C283 C 0.25936 0.24845 0.38284 0.0
C284 C 0.26519 0.27811 0.37952 0.0
C285 C 0.24481 0.19268 0.38777 0.0
C286 C 0.22809 0.20837 0.40103 0.0
C287 C 0.23574 0.236 0.39903 0.0
C288 C 0.20152 0.19589 0.41539 0.0
C289 C 0.23669 0.1628 0.38881 0.0
C290 C 0.17657 0.18947 0.39954 0.0
C291 C 0.15197 0.1744 0.41176 0.0
C292 C 0.15198 0.16563 0.44007 0.0
C293 C 0.17686 0.17327 0.45629 0.0
C294 C 0.20149 0.18824 0.44397 0.0
H295 H 0.25223 0.15346 0.37758 0.0
H296 H 0.23477 0.15667 0.41154 0.0
H297 H 0.21585 0.15514 0.37856 0.0
H298 H 0.17643 0.19517 0.37734 0.0
H299 H 0.13333 0.1686 0.39854 0.0
H300 H 0.36709 0.88933 0.65687 0.0
H301 H 0.40238 0.90418 0.69482 0.0
H302 H 0.3398 0.92722 0.74938 0.0
H303 H 0.30446 0.91222 0.71199 0.0
H304 H 0.40888 0.9635 0.73586 0.0
H305 H 0.38043 0.8629 0.78264 0.0
H306 H 0.37798 0.86737 0.74443 0.0
H307 H 0.35317 0.87693 0.76875 0.0
C308 C 0.36099 0.89767 0.67694 0.0
C309 C 0.33317 0.89965 0.68162 0.0
C310 C 0.3811 0.9063 0.69833 0.0
C311 C 0.37345 0.91683 0.72449 0.0
C312 C 0.34592 0.91936 0.72903 0.0
H313 H 0.41775 0.94563 0.89561 0.0
H314 H 0.39913 0.93146 0.848 0.0
C315 C 0.32587 0.91081 0.70773 0.0
C316 C 0.39337 0.92305 0.74829 0.0
H317 H 0.41087 0.89685 0.80944 0.0
C318 C 0.40987 0.94897 0.75182 0.0
C319 C 0.39397 0.90389 0.76887 0.0
C320 C 0.37553 0.87612 0.76616 0.0
C321 C 0.42626 0.95664 0.77651 0.0
C322 C 0.42649 0.93753 0.79747 0.0
C323 C 0.41088 0.91129 0.79309 0.0
C324 C 0.43904 0.94502 0.82598 0.0
C325 C 0.4417 0.98538 0.78077 0.0
C326 C 0.46777 0.95696 0.82931 0.0
C327 C 0.47843 0.9654 0.85664 0.0
C328 C 0.46048 0.96137 0.88075 0.0
C329 C 0.43204 0.94853 0.87736 0.0
C330 C 0.4214 0.94054 0.8502 0.0
H331 H 0.43475 0.99837 0.76534 0.0
H332 H 0.4385 0.9927 0.80299 0.0
H333 H 0.46455 0.98724 0.7774 0.0
H334 H 0.48176 0.96005 0.81084 0.0
H335 H 0.50048 0.97523 0.85897 0.0
H336 H 0.69205 0.44479 0.80426 0.0
H337 H 0.67854 0.46701 0.76289 0.0
H338 H 0.62897 0.39194 0.72996 0.0
H339 H 0.64197 0.36978 0.77181 0.0
H340 H 0.68297 0.46468 0.70511 0.0
H341 H 0.56989 0.43393 0.73367 0.0
H342 H 0.59706 0.42916 0.75726 0.0
H343 H 0.58565 0.4064 0.72726 0.0
C344 C 0.67859 0.43292 0.78799 0.0
C345 C 0.66792 0.40545 0.79162 0.0
C346 C 0.67076 0.44571 0.76427 0.0
C347 C 0.65192 0.43148 0.74342 0.0
C348 C 0.64275 0.40372 0.74602 0.0
H349 H 0.58835 0.48414 0.58364 0.0
H350 H 0.60759 0.45954 0.61943 0.0
C351 C 0.65053 0.39092 0.76982 0.0
C352 C 0.64128 0.44581 0.71973 0.0
H353 H 0.5811 0.45623 0.68996 0.0
C354 C 0.66067 0.46271 0.70187 0.0
C355 C 0.61215 0.44378 0.71533 0.0
C356 C 0.58996 0.42756 0.73455 0.0
C357 C 0.65178 0.47705 0.67987 0.0
C358 C 0.62274 0.47468 0.67536 0.0
C359 C 0.60337 0.45792 0.69314 0.0
C360 C 0.61207 0.49011 0.65301 0.0
C361 C 0.67346 0.4949 0.66156 0.0
C362 C 0.60799 0.51554 0.65978 0.0
C363 C 0.5967 0.52959 0.63943 0.0
C364 C 0.58928 0.51868 0.6116 0.0
C365 C 0.5938 0.49331 0.60474 0.0
C366 C 0.60484 0.47916 0.62523 0.0
H367 H 0.69522 0.4938 0.66674 0.0
H368 H 0.66937 0.48935 0.63845 0.0
H369 H 0.67175 0.51575 0.66486 0.0
H370 H 0.61332 0.52448 0.68099 0.0
H371 H 0.5938 0.54908 0.64557 0.0
H372 H 0.8826 0.64273 0.28614 0.0
H373 H 0.89975 0.61296 0.25223 0.0
H374 H 0.98513 0.65034 0.27626 0.0
H375 H 0.96788 0.68002 0.31052 0.0
H376 H 0.93145 0.62641 0.20532 0.0
H377 H 0.98788 0.57329 0.27625 0.0
H378 H 0.96397 0.59236 0.29011 0.0
H379 H 0.9995 0.60872 0.28056 0.0
C380 C 0.90501 0.64421 0.28471 0.0
C381 C 0.92386 0.66368 0.30126 0.0
C382 C 0.91484 0.62723 0.26513 0.0
C383 C 0.94382 0.62906 0.26161 0.0
C384 C 0.96267 0.64797 0.27881 0.0
H385 H 0.04108 0.57395 0.12345 0.0
H386 H 0.02273 0.59896 0.16195 0.0
C387 C 0.95281 0.66502 0.29841 0.0
C388 C 0.9542 0.61262 0.23854 0.0
H389 H 0.99651 0.56941 0.22575 0.0
C390 C 0.94554 0.61386 0.20995 0.0
C391 C 0.9725 0.59595 0.24426 0.0
C392 C 0.9813 0.59223 0.27449 0.0
C393 C 0.95511 0.59957 0.18715 0.0
C394 C 0.97391 0.58354 0.1928 0.0
C395 C 0.98232 0.58191 0.22133 0.0
C396 C 0.98493 0.56834 0.16923 0.0
C397 C 0.94525 0.60174 0.15696 0.0
C398 C 0.96979 0.5428 0.16036 0.0
C399 C 0.98036 0.52837 0.13852 0.0
C400 C 0.00616 0.53926 0.12479 0.0
C401 C 0.02105 0.56504 0.13337 0.0
C402 C 0.01065 0.57932 0.15549 0.0
H403 H 0.93145 0.61582 0.1558 0.0
H404 H 0.96368 0.60843 0.14253 0.0
H405 H 0.93348 0.58188 0.1488 0.0
H406 H 0.94986 0.53394 0.1705 0.0
H407 H 0.96836 0.50861 0.1324 0.0
H408 H 0.39935 0.21902 0.21809 0.0
H409 H 0.41868 0.18407 0.1946 0.0
H410 H 0.49138 0.2432 0.16739 0.0
H411 H 0.47208 0.27814 0.19071 0.0
H412 H 0.43325 0.18 0.13496 0.0
H413 H 0.52577 0.18743 0.20512 0.0
H414 H 0.49662 0.20151 0.21558 0.0
H415 H 0.52266 0.21823 0.19054 0.0
C416 C 0.4193 0.22456 0.20682 0.0
C417 C 0.43379 0.25144 0.20547 0.0
C418 C 0.43042 0.20458 0.19358 0.0
C419 C 0.4566 0.21095 0.17936 0.0
C420 C 0.47132 0.23771 0.17848 0.0
H421 H 0.56161 0.12233 0.08595 0.0
H422 H 0.54193 0.15548 0.11202 0.0
C423 C 0.46013 0.2577 0.19153 0.0
C424 C 0.46792 0.18979 0.1644 0.0
H425 H 0.52312 0.16002 0.16303 0.0
C426 C 0.45282 0.17549 0.14117 0.0
C427 C 0.49361 0.1841 0.17231 0.0
C428 C 0.51056 0.19844 0.1974 0.0
C429 C 0.46296 0.15617 0.12517 0.0
C430 C 0.48855 0.15015 0.13324 0.0
C431 C 0.50353 0.16442 0.1567 0.0
C432 C 0.50044 0.1296 0.11744 0.0
C433 C 0.44655 0.1433 0.09909 0.0
C434 C 0.48402 0.10368 0.112 0.0
C435 C 0.49509 0.08486 0.0964 0.0
C436 C 0.52317 0.09119 0.08676 0.0
C437 C 0.5399 0.11678 0.09311 0.0
C438 C 0.52863 0.13578 0.10807 0.0
H439 H 0.43339 0.15601 0.09059 0.0
H440 H 0.46068 0.13918 0.08157 0.0
H441 H 0.43217 0.12429 0.10526 0.0
H442 H 0.4626 0.0979 0.11988 0.0
H443 H 0.48176 0.06522 0.09223 0.0
H444 H 0.24828 0.90149 0.58277 0.0
H445 H 0.21156 0.92487 0.57343 0.0
H446 H 0.20905 0.94662 0.66364 0.0
H447 H 0.24533 0.92283 0.67339 0.0
H448 H 0.15318 0.91488 0.62107 0.0
H449 H 0.2226 1.01364 0.59539 0.0
H450 H 0.23238 0.98338 0.58429 0.0
H451 H 0.23287 0.99294 0.62171 0.0
C452 C 0.23982 0.9112 0.60059 0.0
C453 C 0.24937 0.91029 0.62881 0.0
C454 C 0.21905 0.92452 0.59521 0.0
C455 C 0.20783 0.93706 0.61798 0.0
C456 C 0.21768 0.93681 0.64601 0.0
H457 H 0.09498 0.04037 0.60329 0.0
H458 H 0.1221 1.01272 0.6262 0.0
C459 C 0.23843 0.92347 0.65144 0.0
C460 C 0.18537 0.95015 0.61247 0.0
H461 H 0.17379 1.00855 0.59115 0.0
C462 C 0.15748 0.93542 0.61479 0.0
C463 C 0.19155 0.97679 0.6043 0.0
C464 C 0.22145 0.99281 0.60122 0.0
C465 C 0.13525 0.94683 0.60846 0.0
C466 C 0.14148 0.97337 0.59987 0.0
C467 C 0.16937 0.98823 0.59821 0.0
C468 C 0.11983 0.9856 0.58944 0.0
C469 C 0.10538 0.93055 0.61042 0.0
C470 C 0.10944 0.97885 0.5616 0.0
C471 C 0.09467 0.99484 0.54832 0.0
C472 C 0.09011 1.01748 0.56297 0.0
C473 C 0.0987 1.02308 0.59162 0.0
C474 C 0.11383 1.00728 0.60475 0.0
H475 H 0.10388 0.91204 0.62232 0.0
H476 H 0.09181 0.94234 0.62123 0.0
H477 H 0.09712 0.92503 0.58836 0.0
H478 H 0.11431 0.96226 0.54953 0.0
H479 H 0.08763 0.98998 0.52637 0.0
H480 H 0.78276 0.34945 0.88536 0.0
H481 H 0.8259 0.36942 0.91196 0.0
H482 H 0.79606 0.44019 0.92883 0.0
H483 H 0.75273 0.42021 0.90192 0.0
H484 H 0.86763 0.41868 0.90405 0.0
H485 H 0.81313 0.41552 1.01001 0.0
H486 H 0.79713 0.3964 0.97881 0.0
H487 H 0.79907 0.43138 0.98181 0.0
C488 C 0.78551 0.36938 0.89451 0.0
C489 C 0.76432 0.38327 0.89156 0.0
C490 C 0.81019 0.38077 0.90971 0.0
C491 C 0.81415 0.40617 0.92277 0.0
C492 C 0.79337 0.42043 0.91925 0.0
H493 H 0.9442 0.50464 0.02982 0.0
H494 H 0.90151 0.4836 1.00352 0.0
C495 C 0.76874 0.40913 0.90366 0.0
C496 C 0.8398 0.41727 0.94048 0.0
H497 H 0.86186 0.43543 1.00941 0.0
C498 C 0.86638 0.42229 0.92709 0.0
C499 C 0.83825 0.42188 0.97059 0.0
C500 C 0.81043 0.41587 0.98634 0.0
C501 C 0.89128 0.43229 0.94285 0.0
C502 C 0.88975 0.43683 0.973 0.0
C503 C 0.86315 0.43177 0.98638 0.0
C504 C 0.91535 0.44835 0.99067 0.0
C505 C 0.91902 0.43871 0.92696 0.0
C506 C 0.93729 0.43525 0.99305 0.0
C507 C 0.96191 0.44724 1.0084 0.0
C508 C 0.9651 0.47262 1.02149 0.0
C509 C 0.94265 0.48517 1.01984 0.0
C510 C 0.9181 0.47314 1.00481 0.0
H511 H 0.91616 0.43963 0.90337 0.0
H512 H 0.93238 0.45801 0.93488 0.0
H513 H 0.93039 0.42305 0.93076 0.0
H514 H 0.93552 0.4159 0.98275 0.0
H515 H 0.97877 0.43706 1.00916 0.0
H516 H 0.85377 0.69139 0.45989 0.0
H517 H 0.80839 0.67031 0.4813 0.0
H518 H 0.77518 0.64508 0.39674 0.0
H519 H 0.82076 0.66579 0.37523 0.0
H520 H 0.75894 0.68227 0.47406 0.0
H521 H 0.74913 0.57726 0.43888 0.0
H522 H 0.78173 0.60221 0.43613 0.0
H523 H 0.75464 0.59975 0.4097 0.0
C524 C 0.83685 0.68117 0.44586 0.0
C525 C 0.84085 0.68024 0.41584 0.0
C526 C 0.81093 0.66909 0.45813 0.0
C527 C 0.78839 0.65581 0.44071 0.0
C528 C 0.7924 0.6546 0.41073 0.0
H529 H 0.61101 0.58809 0.48249 0.0
H530 H 0.65592 0.60436 0.45707 0.0
C531 C 0.81845 0.66651 0.39843 0.0
C532 C 0.76038 0.6446 0.45394 0.0
H533 H 0.70864 0.58761 0.46061 0.0
C534 C 0.74804 0.66154 0.47117 0.0
C535 C 0.74601 0.61757 0.45009 0.0
C536 C 0.75864 0.59807 0.43292 0.0
C537 C 0.7218 0.65228 0.48453 0.0
C538 C 0.70755 0.62526 0.48084 0.0
C539 C 0.71961 0.60834 0.46333 0.0
C540 C 0.68059 0.61417 0.49592 0.0
C541 C 0.70936 0.67156 0.5023 0.0
C542 C 0.67972 0.61379 0.52609 0.0
C543 C 0.65424 0.60455 0.54057 0.0
C544 C 0.6291 0.59542 0.52517 0.0
C545 C 0.63006 0.5951 0.4949 0.0
C546 C 0.65565 0.60434 0.48039 0.0
H547 H 0.71934 0.69251 0.49726 0.0
H548 H 0.68635 0.66786 0.4987 0.0
H549 H 0.71277 0.66892 0.52546 0.0
H550 H 0.69878 0.62087 0.53848 0.0
H551 H 0.6542 0.60486 0.56389 0.0
H552 H 0.36098 0.34997 0.20276 0.0
H553 H 0.32982 0.37584 0.18322 0.0
H554 H 0.26388 0.33871 0.24123 0.0
H555 H 0.29344 0.3118 0.25935 0.0
H556 H 0.26851 0.34852 0.16071 0.0
H557 H 0.27427 0.42399 0.24968 0.0
H558 H 0.3026 0.408 0.24163 0.0
H559 H 0.2715 0.3902 0.25966 0.0
C560 C 0.33986 0.34725 0.21134 0.0
C561 C 0.33025 0.32898 0.23317 0.0
C562 C 0.32214 0.36221 0.20029 0.0
C563 C 0.29469 0.35949 0.21116 0.0
C564 C 0.28515 0.34153 0.23294 0.0
H565 H 0.14001 0.40602 0.17743 0.0
H566 H 0.17817 0.38926 0.19747 0.0
C567 C 0.30246 0.3263 0.24354 0.0
C568 C 0.27489 0.37381 0.19882 0.0
H569 H 0.23797 0.42068 0.21534 0.0
C570 C 0.26218 0.36463 0.17236 0.0
C571 C 0.2662 0.39437 0.21443 0.0
C572 C 0.27939 0.40495 0.24289 0.0
C573 C 0.24065 0.37513 0.16135 0.0
C574 C 0.23185 0.39563 0.17696 0.0
C575 C 0.24474 0.405 0.20335 0.0
C576 C 0.20918 0.40738 0.16603 0.0
C577 C 0.22666 0.36361 0.13355 0.0
C578 C 0.21403 0.42358 0.14203 0.0
C579 C 0.19237 0.43351 0.13069 0.0
C580 C 0.16516 0.42736 0.14295 0.0
C581 C 0.16062 0.41154 0.16749 0.0
C582 C 0.18241 0.40177 0.17895 0.0
H583 H 0.23298 0.34525 0.12627 0.0
H584 H 0.20343 0.35895 0.13611 0.0
H585 H 0.23251 0.37846 0.11652 0.0
H586 H 0.23461 0.42839 0.1319 0.0
H587 H 0.19703 0.44604 0.11223 0.0
H588 H 0.64123 0.30424 0.87968 0.0
H589 H 0.62051 0.26107 0.90093 0.0
H590 H 0.70331 0.25076 0.91805 0.0
H591 H 0.72422 0.2929 0.89602 0.0
H592 H 0.65189 0.20472 0.88568 0.0
H593 H 0.63653 0.24495 0.99573 0.0
H594 H 0.63178 0.26305 0.96436 0.0
H595 H 0.66631 0.26036 0.97374 0.0
C596 C 0.6551 0.29271 0.88761 0.0
C597 C 0.68453 0.30261 0.88635 0.0
C598 C 0.64318 0.2681 0.90002 0.0
C599 C 0.66037 0.25284 0.91148 0.0
C600 C 0.68961 0.26227 0.90968 0.0
H601 H 0.61527 0.10869 1.01632 0.0
H602 H 0.63994 0.15188 0.99677 0.0
C603 C 0.70151 0.28665 0.89718 0.0
C604 C 0.64807 0.22679 0.92486 0.0
H605 H 0.62248 0.19848 0.98834 0.0
C606 C 0.64536 0.20335 0.90808 0.0
C607 C 0.64026 0.22493 0.95427 0.0
C608 C 0.64379 0.24956 0.97333 0.0
C609 C 0.63452 0.17819 0.91974 0.0
C610 C 0.62559 0.17624 0.94897 0.0
C611 C 0.62908 0.19976 0.96596 0.0
C612 C 0.61105 0.15015 0.96148 0.0
C613 C 0.63314 0.15385 0.90061 0.0
C614 C 0.58642 0.1349 0.94862 0.0
C615 C 0.57258 0.11039 0.95955 0.0
C616 C 0.58265 0.10032 0.98396 0.0
C617 C 0.60711 0.11568 0.99731 0.0
C618 C 0.62113 0.14043 0.98621 0.0
H619 H 0.64879 0.15799 0.88279 0.0
H620 H 0.63695 0.13713 0.91299 0.0
H621 H 0.61195 0.14759 0.89083 0.0
H622 H 0.57765 0.14206 0.93009 0.0
H623 H 0.55365 0.09937 0.94885 0.0
H624 H 0.92672 0.7812 0.37134 0.0
H625 H 0.94336 0.82667 0.39155 0.0
H626 H 0.92821 0.79709 0.47731 0.0
H627 H 0.91198 0.75187 0.45739 0.0
H628 H 0.91328 0.8561 0.42889 0.0
H629 H 0.00952 0.84195 0.48129 0.0
H630 H 0.99091 0.81901 0.45405 0.0
H631 H 0.97785 0.81799 0.49044 0.0
C632 C 0.92741 0.78437 0.39449 0.0
C633 C 0.91814 0.76283 0.41269 0.0
C634 C 0.93668 0.81039 0.40604 0.0
C635 C 0.93732 0.81536 0.43601 0.0
C636 C 0.92833 0.79383 0.45417 0.0
H637 H 0.98957 0.95328 0.55212 0.0
H638 H 0.97128 0.90919 0.53015 0.0
C639 C 0.91891 0.76795 0.44269 0.0
C640 C 0.94692 0.84298 0.44847 0.0
H641 H 0.99629 0.88207 0.49278 0.0
C642 C 0.93157 0.86186 0.44267 0.0
C643 C 0.97057 0.85049 0.46678 0.0
C644 C 0.98835 0.8314 0.47338 0.0
C645 C 0.9389 0.8878 0.45505 0.0
C646 C 0.96274 0.89538 0.47318 0.0
C647 C 0.97805 0.87644 0.47892 0.0
C648 C 0.97228 0.92273 0.48652 0.0
C649 C 0.92045 0.90651 0.44932 0.0
C650 C 0.97904 0.94532 0.46947 0.0
C651 C 0.98945 0.97074 0.48206 0.0
C652 C 0.99364 0.97416 0.51201 0.0
C653 C 0.98667 0.95153 0.52901 0.0
C654 C 0.97619 0.92619 0.51644 0.0
H655 H 0.89901 0.89557 0.44255 0.0
H656 H 0.91859 0.91911 0.46869 0.0
H657 H 0.92984 0.91968 0.43164 0.0
H658 H 0.97693 0.94328 0.4463 0.0
H659 H 0.99475 0.98762 0.46822 0.0
H660 H 0.28903 0.77584 0.57242 0.0
H661 H 0.32831 0.7541 0.57003 0.0
H662 H 0.38542 0.82764 0.59704 0.0
H663 H 0.34614 0.84959 0.59912 0.0
H664 H 0.38085 0.77572 0.53404 0.0
H665 H 0.39798 0.76623 0.6512 0.0
H666 H 0.36453 0.76893 0.63729 0.0
H667 H 0.39355 0.79755 0.63889 0.0
C668 C 0.31 0.7873 0.57775 0.0
C669 C 0.31489 0.81437 0.58538 0.0
C670 C 0.33227 0.77492 0.57648 0.0
C671 C 0.35953 0.7894 0.58331 0.0
C672 C 0.36439 0.81628 0.59177 0.0
H673 H 0.50796 0.72745 0.5963 0.0
H674 H 0.47851 0.75906 0.59257 0.0
C675 C 0.34212 0.82873 0.59283 0.0
C676 C 0.383 0.77649 0.58031 0.0
H677 H 0.42719 0.74955 0.61882 0.0
C678 C 0.39122 0.77014 0.55249 0.0
C679 C 0.39635 0.76954 0.60453 0.0
C680 C 0.38771 0.77573 0.63476 0.0
C681 C 0.41242 0.75649 0.54823 0.0
C682 C 0.42516 0.74871 0.57247 0.0
C683 C 0.41741 0.75573 0.60029 0.0
C684 C 0.44499 0.73148 0.56979 0.0
C685 C 0.42086 0.75045 0.51789 0.0
C686 C 0.43609 0.70583 0.55749 0.0
C687 C 0.45296 0.68785 0.55932 0.0
C688 C 0.47878 0.69521 0.57382 0.0
C689 C 0.48827 0.72135 0.58478 0.0
C690 C 0.47145 0.73935 0.58281 0.0
H691 H 0.41618 0.76483 0.50262 0.0
H692 H 0.44361 0.75087 0.51643 0.0
H693 H 0.4087 0.73033 0.511 0.0
H694 H 0.41549 0.69927 0.5478 0.0
H695 H 0.44533 0.66789 0.55038 0.0
H696 H 0.71404 0.8073 0.77582 0.0
H697 H 0.74123 0.82936 0.73485 0.0
H698 H 0.81819 0.83351 0.78089 0.0
H699 H 0.79142 0.81104 0.82106 0.0
H700 H 0.77572 0.878 0.73361 0.0
H701 H 0.83748 0.80503 0.70448 0.0
H702 H 0.80668 0.79691 0.72733 0.0
H703 H 0.84054 0.81305 0.74225 0.0
C704 C 0.7368 0.81253 0.77678 0.0
C705 C 0.75074 0.80706 0.80125 0.0
C706 C 0.75223 0.82509 0.7535 0.0
C707 C 0.78172 0.83235 0.75454 0.0
C708 C 0.79552 0.8271 0.77912 0.0
H709 H 0.92937 0.93015 0.70279 0.0
H710 H 0.88805 0.89922 0.72152 0.0
C711 C 0.78021 0.81432 0.80211 0.0
C712 C 0.79849 0.84723 0.73117 0.0
H713 H 0.85952 0.85101 0.69379 0.0
C714 C 0.79364 0.87187 0.7242 0.0
C715 C 0.82153 0.83895 0.71861 0.0
C716 C 0.82663 0.81188 0.72335 0.0
C717 C 0.81291 0.88956 0.70723 0.0
C718 C 0.8374 0.8822 0.69712 0.0
C719 C 0.84087 0.85669 0.70199 0.0
C720 C 0.86159 0.90162 0.68526 0.0
C721 C 0.80794 0.91657 0.70185 0.0
C722 C 0.86029 0.91319 0.65865 0.0
C723 C 0.88406 0.9309 0.64776 0.0
C724 C 0.90941 0.93697 0.66329 0.0
C725 C 0.91037 0.92544 0.69003 0.0
C726 C 0.88673 0.90791 0.70085 0.0
H727 H 0.78947 0.9202 0.71403 0.0
H728 H 0.82678 0.93239 0.70792 0.0
H729 H 0.80415 0.91812 0.67856 0.0
H730 H 0.84111 0.90823 0.64618 0.0
H731 H 0.88278 0.93942 0.62701 0.0
H732 H 0.79134 0.19115 0.35957 0.0
H733 H 0.76198 0.17332 0.31806 0.0
H734 H 0.68829 0.18283 0.36517 0.0
H735 H 0.71756 0.20058 0.40702 0.0
H736 H 0.71268 0.12934 0.31362 0.0
H737 H 0.69354 0.22849 0.29184 0.0
H738 H 0.72135 0.22435 0.31504 0.0
H739 H 0.68557 0.21648 0.3276 0.0
C740 C 0.76884 0.18914 0.36116 0.0
C741 C 0.7566 0.19746 0.38619 0.0
C742 C 0.75219 0.17899 0.33756 0.0
C743 C 0.72324 0.17719 0.33879 0.0
C744 C 0.71076 0.18455 0.36402 0.0
H745 H 0.61182 0.10461 0.20028 0.0
H746 H 0.62678 0.12537 0.24746 0.0
C747 C 0.72742 0.19476 0.38767 0.0
C748 C 0.7065 0.16902 0.31292 0.0
H749 H 0.67344 0.19318 0.25971 0.0
C750 C 0.70369 0.14307 0.30199 0.0
C751 C 0.69543 0.18739 0.29788 0.0
C752 C 0.69922 0.21583 0.30847 0.0
C753 C 0.69018 0.13503 0.27585 0.0
C754 C 0.67921 0.15345 0.26081 0.0
C755 C 0.68163 0.17924 0.27187 0.0
C756 C 0.66759 0.14665 0.23218 0.0
C757 C 0.68866 0.10734 0.2638 0.0
C758 C 0.68534 0.15308 0.20832 0.0
C759 C 0.67699 0.1413 0.1816 0.0
C760 C 0.6509 0.123 0.17882 0.0
C761 C 0.63216 0.11852 0.20225 0.0
C762 C 0.64053 0.13035 0.22897 0.0
H763 H 0.69912 0.09578 0.2779 0.0
H764 H 0.66633 0.0965 0.26114 0.0
H765 H 0.69879 0.10838 0.2422 0.0
H766 H 0.70639 0.1656 0.21082 0.0
H767 H 0.69178 0.1448 0.16378 0.0
H768 H 0.41483 0.71439 0.31483 0.0
H769 H 0.42956 0.69774 0.35975 0.0
H770 H 0.45497 0.63511 0.31123 0.0
H771 H 0.44033 0.65148 0.26669 0.0
H772 H 0.41514 0.64515 0.38651 0.0
H773 H 0.52714 0.67519 0.35363 0.0
H774 H 0.50003 0.68716 0.33625 0.0
H775 H 0.50494 0.65457 0.32721 0.0
C776 C 0.42306 0.69678 0.31383 0.0
C777 C 0.42598 0.68401 0.2871 0.0
C778 C 0.43156 0.68731 0.33954 0.0
C779 C 0.44374 0.6653 0.33896 0.0
C780 C 0.44596 0.65225 0.31237 0.0
H781 H 0.52529 0.57553 0.44636 0.0
H782 H 0.50337 0.59547 0.40924 0.0
C783 C 0.43737 0.66154 0.28688 0.0
C784 C 0.45548 0.65646 0.36556 0.0
H785 H 0.51654 0.64684 0.39332 0.0
C786 C 0.43736 0.64583 0.38821 0.0
C787 C 0.48449 0.65725 0.36792 0.0
C788 C 0.50537 0.66938 0.3451 0.0
C789 C 0.44731 0.63503 0.41241 0.0
C790 C 0.47625 0.63525 0.41436 0.0
C791 C 0.49436 0.64653 0.39201 0.0
C792 C 0.48821 0.62251 0.4382 0.0
C793 C 0.42653 0.62244 0.43508 0.0
C794 C 0.48727 0.63095 0.46729 0.0
C795 C 0.50001 0.61946 0.48894 0.0
C796 C 0.51412 0.59935 0.48194 0.0
C797 C 0.51482 0.59098 0.45281 0.0
C798 C 0.50217 0.60239 0.43137 0.0
H799 H 0.40447 0.61886 0.42754 0.0
H800 H 0.43058 0.60327 0.44147 0.0
H801 H 0.42888 0.63586 0.45446 0.0
H802 H 0.47716 0.64678 0.47321 0.0
H803 H 0.49901 0.62646 0.51106 0.0
H804 H 0.16578 0.44674 0.76736 0.0
H805 H 0.14941 0.46383 0.81196 0.0
H806 H 0.11893 0.38394 0.84096 0.0
H807 H 0.13751 0.36667 0.79734 0.0
H808 H 0.10089 0.46027 0.83411 0.0
H809 H 0.1583 0.41474 0.91203 0.0
H810 H 0.16532 0.41387 0.87388 0.0
H811 H 0.13574 0.39057 0.88906 0.0
C812 C 0.15625 0.43263 0.78337 0.0
C813 C 0.15364 0.40513 0.77847 0.0
C814 C 0.14652 0.44255 0.80898 0.0
C815 C 0.13341 0.4254 0.83057 0.0
C816 C 0.12977 0.39788 0.82536 0.0
H817 H 0.05396 0.46097 0.99565 0.0
H818 H 0.07184 0.43786 0.95479 0.0
C819 C 0.13997 0.38791 0.79989 0.0
C820 C 0.12282 0.43655 0.85776 0.0
H821 H 0.12445 0.43656 0.93164 0.0
C822 C 0.10621 0.45505 0.85537 0.0
C823 C 0.12946 0.4299 0.88583 0.0
C824 C 0.1484 0.41139 0.89043 0.0
C825 C 0.09609 0.46684 0.87975 0.0
C826 C 0.10288 0.46039 0.90779 0.0
C827 C 0.11908 0.44157 0.91032 0.0
C828 C 0.09416 0.47385 0.93439 0.0
C829 C 0.07781 0.48597 0.87506 0.0
C830 C 0.10158 0.50169 0.93744 0.0
C831 C 0.09107 0.51477 0.96033 0.0
C832 C 0.0735 0.50049 0.9815 0.0
C833 C 0.06754 0.47255 0.97977 0.0
C834 C 0.0777 0.45935 0.95634 0.0
H835 H 0.06755 0.48253 0.85364 0.0
H836 H 0.06123 0.48429 0.8919 0.0
H837 H 0.09109 0.50657 0.87588 0.0
H838 H 0.11501 0.51347 0.92159 0.0
H839 H 0.09636 0.53629 0.96118 0.0
H840 H 0.65761 0.81573 0.84481 0.0
H841 H 0.63436 0.84931 0.86522 0.0
H842 H 0.68753 0.85892 0.93986 0.0
H843 H 0.71067 0.82527 0.91973 0.0
H844 H 0.60876 0.85295 0.92838 0.0
H845 H 0.69944 0.93413 0.89614 0.0
H846 H 0.69128 0.90182 0.87809 0.0
H847 H 0.70705 0.9059 0.91306 0.0
C848 C 0.66391 0.82464 0.86585 0.0
C849 C 0.68583 0.81775 0.8808 0.0
C850 C 0.65067 0.8438 0.87743 0.0
C851 C 0.65937 0.85666 0.90394 0.0
C852 C 0.68052 0.84918 0.91936 0.0
H853 H 0.6318 0.98986 1.00534 0.0
H854 H 0.64942 0.95468 0.98098 0.0
C855 C 0.69355 0.82981 0.90797 0.0
C856 C 0.64754 0.87895 0.91481 0.0
H857 H 0.6638 0.9465 0.92419 0.0
C858 C 0.62063 0.87344 0.92732 0.0
C859 C 0.66312 0.90559 0.91332 0.0
C860 C 0.69179 0.91245 0.8993 0.0
C861 C 0.60923 0.89391 0.93923 0.0
C862 C 0.62494 0.92062 0.938 0.0
C863 C 0.65171 0.92608 0.92506 0.0
C864 C 0.6146 0.94302 0.9514 0.0
C865 C 0.58093 0.88669 0.954 0.0
C866 C 0.58945 0.94872 0.94242 0.0
C867 C 0.57921 0.96891 0.95637 0.0
C868 C 0.59402 0.98392 0.97949 0.0
C869 C 0.61975 0.97876 0.98766 0.0
C870 C 0.62991 0.9586 0.97375 0.0
H871 H 0.57457 0.86524 0.9588 0.0
H872 H 0.58112 0.89845 0.97444 0.0
H873 H 0.5648 0.8912 0.93975 0.0
H874 H 0.57756 0.93736 0.92481 0.0
H875 H 0.55938 0.97233 0.94945 0.0
H876 H 0.85051 0.18918 0.41051 0.0
H877 H 0.88507 0.16622 0.42772 0.0
H878 H 0.8557 0.17352 0.51493 0.0
H879 H 0.82065 0.19595 0.49784 0.0
H880 H 0.92779 0.18735 0.47182 0.0
H881 H 0.85138 0.09285 0.49848 0.0
H882 H 0.84262 0.11682 0.47518 0.0
H883 H 0.84384 0.1228 0.51348 0.0
C884 C 0.85141 0.18569 0.4333 0.0
C885 C 0.83325 0.19423 0.45298 0.0
C886 C 0.8711 0.17283 0.44302 0.0
C887 C 0.87257 0.16839 0.47239 0.0
C888 C 0.85452 0.17688 0.49214 0.0
H889 H 0.97915 0.1099 0.57914 0.0
H890 H 0.95653 0.13958 0.55358 0.0
C891 C 0.83481 0.18974 0.48244 0.0
C892 C 0.89307 0.1547 0.48233 0.0
H893 H 0.89879 0.09726 0.51173 0.0
C894 C 0.92163 0.1676 0.48042 0.0
C895 C 0.88448 0.129 0.49326 0.0
C896 C 0.85392 0.11439 0.49508 0.0
C897 C 0.94214 0.15536 0.48991 0.0
C898 C 0.93346 0.12991 0.50121 0.0
C899 C 0.90498 0.11686 0.50272 0.0
C900 C 0.95323 0.11669 0.51346 0.0
C901 C 0.9728 0.16946 0.48811 0.0
C902 C 0.95903 0.09467 0.49874 0.0
C903 C 0.97164 0.07772 0.51322 0.0
C904 C 0.97806 0.08267 0.54248 0.0
C905 C 0.97373 0.1056 0.55667 0.0
C906 C 0.96135 0.12268 0.5421 0.0
H907 H 0.97617 0.18818 0.47619 0.0
H908 H 0.98129 0.17422 0.51019 0.0
H909 H 0.98486 0.15625 0.47732 0.0
H910 H 0.95239 0.08987 0.47665 0.0
H911 H 0.97526 0.06021 0.50192 0.0
H912 H 0.31373 0.72821 0.16798 0.0
H913 H 0.27069 0.70061 0.14686 0.0
H914 H 0.29061 0.63066 0.17938 0.0
H915 H 0.3345 0.65763 0.19922 0.0
H916 H 0.26947 0.64481 0.10714 0.0
H917 H 0.20421 0.64087 0.20675 0.0
H918 H 0.23284 0.66916 0.19951 0.0
H919 H 0.24026 0.63844 0.20927 0.0
C920 C 0.30944 0.70694 0.17036 0.0
C921 C 0.32809 0.69543 0.18556 0.0
C922 C 0.28454 0.69119 0.1584 0.0
C923 C 0.27736 0.66359 0.16162 0.0
C924 C 0.29565 0.65195 0.17674 0.0
H925 H 0.12987 0.53734 0.11552 0.0
H926 H 0.17392 0.56409 0.13587 0.0
C927 C 0.32073 0.66758 0.18837 0.0
C928 C 0.25084 0.64689 0.14906 0.0
H929 H 0.18258 0.61689 0.1658 0.0
C930 C 0.25044 0.63877 0.11991 0.0
C931 C 0.22611 0.63883 0.16579 0.0
C932 C 0.22555 0.64722 0.1971 0.0
C933 C 0.22596 0.62277 0.10712 0.0
C934 C 0.20106 0.615 0.12375 0.0
C935 C 0.20158 0.62293 0.15299 0.0
C936 C 0.17432 0.5987 0.11109 0.0
C937 C 0.22697 0.61381 0.07602 0.0
C938 C 0.15968 0.60925 0.09045 0.0
C939 C 0.1343 0.59409 0.07893 0.0
C940 C 0.12307 0.5679 0.08757 0.0
C941 C 0.13791 0.55734 0.10814 0.0
C942 C 0.1631 0.57265 0.11992 0.0
H943 H 0.24889 0.61709 0.06778 0.0
H944 H 0.21646 0.59239 0.07327 0.0
H945 H 0.21554 0.62514 0.06275 0.0
H946 H 0.16776 0.62937 0.08345 0.0
H947 H 0.12351 0.6029 0.06319 0.0
H948 H 0.25356 0.45443 0.67077 0.0
H949 H 0.29351 0.4755 0.64015 0.0
H950 H 0.34558 0.43164 0.68153 0.0
H951 H 0.30577 0.41014 0.71138 0.0
H952 H 0.34498 0.50698 0.6551 0.0
H953 H 0.36027 0.41616 0.598 0.0
H954 H 0.32885 0.41667 0.61855 0.0
H955 H 0.3602 0.41325 0.63633 0.0
C956 C 0.27336 0.44885 0.67282 0.0
C957 C 0.27629 0.42987 0.69279 0.0
C958 C 0.29622 0.46104 0.65547 0.0
C959 C 0.32239 0.45462 0.65798 0.0
C960 C 0.32541 0.43624 0.67843 0.0
H961 H 0.49404 0.52631 0.61124 0.0
H962 H 0.44897 0.50879 0.63586 0.0
C963 C 0.30265 0.42399 0.69554 0.0
C964 C 0.34704 0.4677 0.64023 0.0
H965 H 0.39893 0.45444 0.59631 0.0
C966 C 0.35658 0.4955 0.64201 0.0
C967 C 0.36212 0.45279 0.62288 0.0
C968 C 0.35217 0.42309 0.61856 0.0
C969 C 0.38138 0.50857 0.62788 0.0
C970 C 0.39702 0.49349 0.61176 0.0
C971 C 0.38704 0.46588 0.6091 0.0
C972 C 0.42388 0.50597 0.59742 0.0
C973 C 0.39097 0.5384 0.63027 0.0
C974 C 0.42454 0.51016 0.56777 0.0
C975 C 0.45015 0.52006 0.55371 0.0
C976 C 0.47554 0.52582 0.56907 0.0
C977 C 0.47478 0.52215 0.59892 0.0
C978 C 0.44911 0.51217 0.61297 0.0
H979 H 0.37564 0.54744 0.64227 0.0
H980 H 0.41152 0.54409 0.64146 0.0
H981 H 0.39411 0.54668 0.60842 0.0
H982 H 0.40526 0.5054 0.55545 0.0
H983 H 0.45012 0.52282 0.53071 0.0
H984 H 0.73054 0.69124 0.92504 0.0
H985 H 0.76602 0.6678 0.93908 0.0
H986 H 0.81712 0.6988 0.86596 0.0
H987 H 0.78169 0.72249 0.85206 0.0
H988 H 0.78812 0.62918 0.90831 0.0
H989 H 0.87163 0.72007 0.93337 0.0
H990 H 0.83534 0.72089 0.92863 0.0
H991 H 0.8572 0.71816 0.89782 0.0
C992 C 0.7494 0.69311 0.91205 0.0
C993 C 0.75343 0.70873 0.88751 0.0
C994 C 0.76962 0.67963 0.92001 0.0
C995 C 0.79444 0.68172 0.90379 0.0
C996 C 0.7984 0.6972 0.87912 0.0
H997 H 0.94718 0.62842 0.93708 0.0
H998 H 0.91064 0.64527 0.91424 0.0
C999 C 0.77816 0.71067 0.87114 0.0
C1000 C 0.81622 0.66791 0.91292 0.0
H1001 H 0.88403 0.67916 0.93636 0.0
C1002 C 0.80912 0.64009 0.91443 0.0
C1003 C 0.84369 0.68205 0.92073 0.0
C1004 C 0.85247 0.71196 0.92033 0.0
C1005 C 0.82874 0.6261 0.92333 0.0
C1006 C 0.85609 0.64032 0.93178 0.0
C1007 C 0.8632 0.66812 0.92989 0.0
C1008 C 0.87744 0.62716 0.94363 0.0
C1009 C 0.82001 0.59618 0.923 0.0
C1010 C 0.87112 0.6109 0.96759 0.0
C1011 C 0.89194 0.6008 0.98044 0.0
C1012 C 0.91989 0.60707 0.97007 0.0
C1013 C 0.92597 0.6228 0.9456 0.0
C1014 C 0.90505 0.6327 0.9326 0.0
H1015 H 0.8032 0.5884 0.90695 0.0
H1016 H 0.83806 0.58727 0.91798 0.0
H1017 H 0.81146 0.58962 0.94449 0.0
H1018 H 0.85026 0.6067 0.97705 0.0
H1019 H 0.88617 0.58842 0.99891 0.0
H1020 H 0.42288 0.79902 0.22368 0.0
H1021 H 0.44618 0.84057 0.20125 0.0
H1022 H 0.4239 0.8044 0.11732 0.0
H1023 H 0.40081 0.76273 0.13947 0.0
H1024 H 0.48999 0.85306 0.16453 0.0
H1025 H 0.39604 0.87077 0.11096 0.0
H1026 H 0.39358 0.84586 0.13767 0.0
H1027 H 0.40318 0.8393 0.1011 0.0
C1028 C 0.42303 0.79972 0.20042 0.0
C1029 C 0.4096 0.77727 0.18356 0.0
C1030 C 0.43629 0.82368 0.18759 0.0
C1031 C 0.43637 0.82603 0.15752 0.0
C1032 C 0.42347 0.80355 0.14057 0.0
H1033 H 0.51319 0.95619 0.04331 0.0
H1034 H 0.48836 0.9135 0.06307 0.0
C1035 C 0.41022 0.77958 0.15337 0.0
C1036 C 0.45053 0.85176 0.14401 0.0
H1037 H 0.43993 0.89951 0.09909 0.0
C1038 C 0.47893 0.86322 0.15034 0.0
C1039 C 0.43633 0.86517 0.12529 0.0
C1040 C 0.40554 0.85481 0.11853 0.0
C1041 C 0.49346 0.88733 0.13838 0.0
C1042 C 0.47923 0.90083 0.11985 0.0
C1043 C 0.45093 0.88928 0.11325 0.0
C1044 C 0.49328 0.92715 0.10763 0.0
C1045 C 0.5242 0.89789 0.14528 0.0
C1046 C 0.50376 0.94937 0.12592 0.0
C1047 C 0.51774 0.97384 0.11466 0.0
C1048 C 0.52161 0.97681 0.08479 0.0
C1049 C 0.51052 0.95471 0.06641 0.0
C1050 C 0.49637 0.93023 0.0777 0.0
H1051 H 0.53373 0.88214 0.15335 0.0
H1052 H 0.53619 0.90653 0.12602 0.0
H1053 H 0.52641 0.91376 0.1623 0.0
H1054 H 0.50123 0.94779 0.14902 0.0
H1055 H 0.5259 0.99039 0.12946 0.0
H1056 H 0.19604 0.32289 0.69718 0.0
H1057 H 0.17801 0.27947 0.6734 0.0
H1058 H 0.09385 0.29112 0.67845 0.0
H1059 H 0.11185 0.3349 0.70212 0.0
H1060 H 0.13756 0.23545 0.69446 0.0
H1061 H 0.10252 0.26974 0.59254 0.0
H1062 H 0.12669 0.29153 0.61683 0.0
H1063 H 0.08973 0.28278 0.62499 0.0
C1064 C 0.17367 0.31633 0.69313 0.0
C1065 C 0.15541 0.33251 0.70156 0.0
C1066 C 0.16339 0.29142 0.67955 0.0
C1067 C 0.13461 0.28208 0.67369 0.0
C1068 C 0.11621 0.29802 0.68229 0.0
H1069 H 0.03357 0.13891 0.58855 0.0
H1070 H 0.05212 0.18287 0.61135 0.0
C1071 C 0.12647 0.32293 0.69615 0.0
C1072 C 0.12393 0.25529 0.65951 0.0
H1073 H 0.09116 0.22348 0.59917 0.0
C1074 C 0.12743 0.23281 0.6736 0.0
C1075 C 0.11075 0.25178 0.63227 0.0
C1076 C 0.10733 0.2752 0.61556 0.0
C1077 C 0.11746 0.20696 0.6617 0.0
C1078 C 0.10433 0.20332 0.63431 0.0
C1079 C 0.10109 0.22596 0.62012 0.0
C1080 C 0.09321 0.17634 0.62032 0.0
C1081 C 0.12031 0.18385 0.67931 0.0
C1082 C 0.11 0.15779 0.61724 0.0
C1083 C 0.09901 0.13232 0.60504 0.0
C1084 C 0.07138 0.1252 0.59462 0.0
C1085 C 0.05491 0.14392 0.59661 0.0
C1086 C 0.0656 0.1691 0.60954 0.0
H1087 H 0.12233 0.18938 0.70262 0.0
H1088 H 0.10195 0.16668 0.67637 0.0
H1089 H 0.13964 0.17764 0.67252 0.0
H1090 H 0.13169 0.163 0.62412 0.0
H1091 H 0.11229 0.11837 0.6032 0.0
H1092 H 0.72527 0.26516 0.45386 0.0
H1093 H 0.69701 0.29821 0.45967 0.0
H1094 H 0.74493 0.3315 0.53505 0.0
H1095 H 0.77344 0.29884 0.52904 0.0
H1096 H 0.66627 0.29934 0.51306 0.0
H1097 H 0.73801 0.39701 0.48895 0.0
H1098 H 0.74301 0.36589 0.47382 0.0
H1099 H 0.75224 0.37529 0.51058 0.0
C1100 C 0.72982 0.27978 0.47143 0.0
C1101 C 0.75091 0.27941 0.49143 0.0
C1102 C 0.71395 0.29861 0.47457 0.0
C1103 C 0.71922 0.31715 0.49764 0.0
C1104 C 0.74103 0.31748 0.5169 0.0
H1105 H 0.6339 0.43579 0.5596 0.0
H1106 H 0.66231 0.40282 0.55981 0.0
C1107 C 0.75696 0.29872 0.5137 0.0
C1108 C 0.69954 0.33368 0.50402 0.0
H1109 H 0.69412 0.39769 0.51039 0.0
C1110 C 0.67223 0.32085 0.51245 0.0
C1111 C 0.70782 0.36159 0.50339 0.0
C1112 C 0.7368 0.37588 0.49351 0.0
C1113 C 0.65274 0.33542 0.52053 0.0
C1114 C 0.66086 0.36333 0.51967 0.0
C1115 C 0.68828 0.3762 0.51143 0.0
C1116 C 0.64042 0.37949 0.52393 0.0
C1117 C 0.62369 0.32087 0.52995 0.0
C1118 C 0.61835 0.37643 0.50435 0.0
C1119 C 0.60226 0.39503 0.50417 0.0
C1120 C 0.60833 0.41703 0.5234 0.0
C1121 C 0.62908 0.419 0.54446 0.0
C1122 C 0.6452 0.40029 0.54463 0.0
H1123 H 0.62365 0.30099 0.53812 0.0
H1124 H 0.61524 0.33238 0.547 0.0
H1125 H 0.60934 0.31791 0.51121 0.0
H1126 H 0.61487 0.36076 0.48784 0.0
H1127 H 0.58671 0.39335 0.48742 0.0
loop_
_geom_bond_atom_site_label_1
_geom_bond_atom_site_label_2
_geom_bond_distance
_geom_bond_site_symmetry_2
_ccdc_geom_bond_type
H0 C7 0.929 . S
H1 C10 0.930 . S
H2 C12 0.929 . S
H3 C4 0.969 . S
C4 H3 0.969 . S
C4 O5 1.550 . S
C4 H6 0.973 . S
O5 C4 1.550 . S
O5 C11 1.412 . S
H6 C4 0.973 . S
C7 H0 0.929 . S
C7 C8 1.400 . S
C7 C9 1.364 . S
C8 C7 1.400 . S
C8 C12 1.377 . S
C9 C7 1.364 . S
C9 C10 1.374 . S
C10 H1 0.930 . S
C10 C9 1.374 . S
C10 C11 1.383 . S
C11 O5 1.412 . S
C11 C10 1.383 . S
C11 C12 1.394 . S
C12 H2 0.929 . S
C12 C8 1.377 . S
C12 C11 1.394 . S
H13 C20 0.929 . S
H14 C23 0.930 . S
H15 C25 0.929 . S
H16 C17 0.969 . S
C17 H16 0.969 . S
C17 O18 1.550 . S
C17 H19 0.973 . S
O18 C17 1.550 . S
O18 C24 1.412 . S
H19 C17 0.973 . S
C20 H13 0.929 . S
C20 C21 1.400 . S
C20 C22 1.364 . S
C21 C20 1.400 . S
C21 C25 1.377 . S
C22 C20 1.364 . S
C22 C23 1.374 . S
C23 H14 0.930 . S
C23 C22 1.374 . S
C23 C24 1.383 . S
C24 O18 1.412 . S
C24 C23 1.383 . S
C24 C25 1.394 . S
C25 H15 0.929 . S
C25 C21 1.377 . S
C25 C24 1.394 . S
H26 C33 0.929 . S
H27 C36 0.930 . S
H28 C38 0.929 . S
H29 C30 0.969 . S
C30 H29 0.969 . S
C30 O31 1.550 . S
C30 H32 0.973 . S
O31 C30 1.550 . S
O31 C37 1.412 . S
H32 C30 0.973 . S
C33 H26 0.929 . S
C33 C34 1.400 . S
C33 C35 1.364 . S
C34 C33 1.400 . S
C34 C38 1.377 . S
C35 C33 1.364 . S
C35 C36 1.374 . S
C36 H27 0.930 . S
C36 C35 1.374 . S
C36 C37 1.383 . S
C37 O31 1.412 . S
C37 C36 1.383 . S
C37 C38 1.394 . S
C38 H28 0.929 . S
C38 C34 1.377 . S
C38 C37 1.394 . S
H39 C46 0.929 . S
H40 C49 0.930 . S
H41 C51 0.929 . S
H42 C43 0.969 . S
C43 H42 0.969 . S
C43 O44 1.550 . S
C43 H45 0.973 . S
O44 C43 1.550 . S
O44 C50 1.412 . S
H45 C43 0.973 . S
C46 H39 0.929 . S
C46 C47 1.400 . S
C46 C48 1.364 . S
C47 C46 1.400 . S
C47 C51 1.377 . S
C48 C46 1.364 . S
C48 C49 1.374 . S
C49 H40 0.930 . S
C49 C48 1.374 . S
C49 C50 1.383 . S
C50 O44 1.412 . S
C50 C49 1.383 . S
C50 C51 1.394 . S
C51 H41 0.929 . S
C51 C47 1.377 . S
C51 C50 1.394 . S
H52 C59 0.929 . S
H53 C62 0.930 . S
H54 C64 0.929 . S
H55 C56 0.969 . S
C56 H55 0.969 . S
C56 O57 1.550 . S
C56 H58 0.973 . S
O57 C56 1.550 . S
O57 C63 1.412 . S
H58 C56 0.973 . S
C59 H52 0.929 . S
C59 C60 1.400 . S
C59 C61 1.364 . S
C60 C59 1.400 . S
C60 C64 1.377 . S
C61 C59 1.364 . S
C61 C62 1.374 . S
C62 H53 0.930 . S
C62 C61 1.374 . S
C62 C63 1.383 . S
C63 O57 1.412 . S
C63 C62 1.383 . S
C63 C64 1.394 . S
C64 H54 0.929 . S
C64 C60 1.377 . S
C64 C63 1.394 . S
H65 C72 0.929 . S
H66 C75 0.930 . S
H67 C77 0.929 . S
H68 C69 0.969 . S
C69 H68 0.969 . S
C69 O70 1.550 . S
C69 H71 0.973 . S
O70 C69 1.550 . S
O70 C76 1.412 . S
H71 C69 0.973 . S
C72 H65 0.929 . S
C72 C73 1.400 . S
C72 C74 1.364 . S
C73 C72 1.400 . S
C73 C77 1.377 . S
C74 C72 1.364 . S
C74 C75 1.374 . S
C75 H66 0.930 . S
C75 C74 1.374 . S
C75 C76 1.383 . S
C76 O70 1.412 . S
C76 C75 1.383 . S
C76 C77 1.394 . S
C77 H67 0.929 . S
C77 C73 1.377 . S
C77 C76 1.394 . S
H78 C85 0.929 . S
H79 C88 0.930 . S
H80 C90 0.929 . S
H81 C82 0.969 . S
C82 H81 0.969 . S
C82 O83 1.550 . S
C82 H84 0.973 . S
O83 C82 1.550 . S
O83 C89 1.412 . S
H84 C82 0.973 . S
C85 H78 0.929 . S
C85 C86 1.400 . S
C85 C87 1.364 . S
C86 C85 1.400 . S
C86 C90 1.377 . S
C87 C85 1.364 . S
C87 C88 1.374 . S
C88 H79 0.930 . S
C88 C87 1.374 . S
C88 C89 1.383 . S
C89 O83 1.412 . S
C89 C88 1.383 . S
C89 C90 1.394 . S
C90 H80 0.929 . S
C90 C86 1.377 . S
C90 C89 1.394 . S
H91 C98 0.929 . S
H92 C101 0.930 . S
H93 C103 0.929 . S
H94 C95 0.969 . S
C95 H94 0.969 . S
C95 O96 1.550 . S
C95 H97 0.973 . S
O96 C95 1.550 . S
O96 C102 1.412 . S
H97 C95 0.973 . S
C98 H91 0.929 . S
C98 C99 1.400 . S
C98 C100 1.364 . S
C99 C98 1.400 . S
C99 C103 1.377 . S
C100 C98 1.364 . S
C100 C101 1.374 . S
C101 H92 0.930 . S
C101 C100 1.374 . S
C101 C102 1.383 . S
C102 O96 1.412 . S
C102 C101 1.383 . S
C102 C103 1.394 . S
C103 H93 0.929 . S
C103 C99 1.377 . S
C103 C102 1.394 . S
Gd104 C107 2.818 . S
Gd104 O124 2.377 . S
Gd104 O126 2.448 . S
Gd104 O127 2.506 . S
Gd104 O128 2.435 . S
Gd104 O129 2.717 . S
Gd104 O131 2.395 1_545 S
Gd104 O135 2.327 . S
Gd105 C116 2.818 1_545 S
Gd105 O125 2.395 1_655 S
Gd105 O129 2.327 1_655 S
Gd105 O130 2.377 1_545 S
Gd105 O132 2.448 1_545 S
Gd105 O133 2.506 1_545 S
Gd105 O134 2.435 . S
Gd105 O135 2.717 1_655 S
C106 O124 1.240 . S
C106 O125 1.240 . S
C107 Gd104 2.818 . S
C107 C108 1.510 . S
C107 O126 1.249 . S
C107 O127 1.252 . S
C108 C107 1.510 . S
C108 C109 1.404 . S
C108 C110 1.352 . S
C109 C108 1.404 . S
C109 C113 1.389 . S
C109 H136 0.930 . S
C110 C108 1.352 . S
C110 C112 1.374 . S
C110 H137 0.931 . S
C111 C112 1.359 . S
C111 C113 1.364 . S
C112 C110 1.374 . S
C112 C111 1.359 . S
C112 H138 0.931 . S
C113 C109 1.389 . S
C113 C111 1.364 . S
C113 H139 0.931 . S
C114 O128 1.256 1_565 S
C114 O129 1.257 1_565 S
C115 O130 1.240 . S
C115 O131 1.240 1_655 S
C116 Gd105 2.818 1_565 S
C116 C117 1.510 . S
C116 O132 1.249 . S
C116 O133 1.252 . S
C117 C116 1.510 . S
C117 C118 1.404 . S
C117 C119 1.352 . S
C118 C117 1.404 . S
C118 C122 1.389 . S
C118 H140 0.930 . S
C119 C117 1.352 . S
C119 C121 1.374 . S
C119 H141 0.931 . S
C120 C121 1.359 . S
C120 C122 1.364 . S
C121 C119 1.374 . S
C121 C120 1.359 . S
C121 H142 0.931 . S
C122 C118 1.389 . S
C122 C120 1.364 . S
C122 H143 0.931 . S
C123 O134 1.256 . S
C123 O135 1.257 1_655 S
O124 Gd104 2.377 . S
O124 C106 1.240 . S
O125 Gd105 2.395 1_455 S
O125 C106 1.240 . S
O126 Gd104 2.448 . S
O126 C107 1.249 . S
O127 Gd104 2.506 . S
O127 C107 1.252 . S
O128 Gd104 2.435 . S
O128 C114 1.256 1_545 S
O129 Gd104 2.717 . S
O129 Gd105 2.327 1_455 S
O129 C114 1.257 1_545 S
O130 Gd105 2.377 1_565 S
O130 C115 1.240 . S
O131 Gd104 2.395 1_565 S
O131 C115 1.240 1_455 S
O132 Gd105 2.448 1_565 S
O132 C116 1.249 . S
O133 Gd105 2.506 1_565 S
O133 C116 1.252 . S
O134 Gd105 2.435 . S
O134 C123 1.256 . S
O135 Gd104 2.327 . S
O135 Gd105 2.717 1_455 S
O135 C123 1.257 1_455 S
H136 C109 0.930 . S
H137 C110 0.931 . S
H138 C112 0.931 . S
H139 C113 0.931 . S
H140 C118 0.930 . S
H141 C119 0.931 . S
H142 C121 0.931 . S
H143 C122 0.931 . S
Gd144 C147 2.818 . S
Gd144 O164 2.377 . S
Gd144 O166 2.448 . S
Gd144 O167 2.506 . S
Gd144 O168 2.435 1_545 S
Gd144 O169 2.717 1_545 S
Gd144 O171 2.395 1_544 S
Gd144 O175 2.323 1_554 S
Gd145 C156 2.818 1_545 S
Gd145 O165 2.395 1_556 S
Gd145 O169 2.327 1_546 S
Gd145 O170 2.377 1_545 S
Gd145 O172 2.448 1_545 S
Gd145 O173 2.506 1_545 S
Gd145 O174 2.435 . S
Gd145 O175 2.719 . S
C146 O164 1.240 . S
C146 O165 1.240 . S
C147 Gd144 2.818 . S
C147 C148 1.510 . S
C147 O166 1.249 . S
C147 O167 1.252 . S
C148 C147 1.510 . S
C148 C149 1.404 . S
C148 C150 1.352 . S
C149 C148 1.404 . S
C149 C153 1.389 . S
C149 H176 0.930 . S
C150 C148 1.352 . S
C150 C152 1.374 . S
C150 H177 0.931 . S
C151 C152 1.359 . S
C151 C153 1.364 . S
C152 C150 1.374 . S
C152 C151 1.359 . S
C152 H178 0.931 . S
C153 C149 1.389 . S
C153 C151 1.364 . S
C153 H179 0.931 . S
C154 O168 1.256 . S
C154 O169 1.257 . S
C155 O170 1.240 . S
C155 O171 1.240 . S
C156 Gd145 2.818 1_565 S
C156 C157 1.510 . S
C156 O172 1.249 . S
C156 O173 1.252 . S
C157 C156 1.510 . S
C157 C158 1.404 . S
C157 C159 1.352 . S
C158 C157 1.404 . S
C158 C162 1.389 . S
C158 H180 0.930 . S
C159 C157 1.352 . S
C159 C161 1.374 . S
C159 H181 0.931 . S
C160 C161 1.359 . S
C160 C162 1.364 . S
C161 C159 1.374 . S
C161 C160 1.359 . S
C161 H182 0.931 . S
C162 C158 1.389 . S
C162 C160 1.364 . S
C162 H183 0.931 . S
C163 O174 1.256 . S
C163 O175 1.262 . S
O164 Gd144 2.377 . S
O164 C146 1.240 . S
O165 Gd145 2.395 1_554 S
O165 C146 1.240 . S
O166 Gd144 2.448 . S
O166 C147 1.249 . S
O167 Gd144 2.506 . S
O167 C147 1.252 . S
O168 Gd144 2.435 1_565 S
O168 C154 1.256 . S
O169 Gd144 2.717 1_565 S
O169 Gd145 2.327 1_564 S
O169 C154 1.257 . S
O170 Gd145 2.377 1_565 S
O170 C155 1.240 . S
O171 Gd144 2.395 1_566 S
O171 C155 1.240 . S
O172 Gd145 2.448 1_565 S
O172 C156 1.249 . S
O173 Gd145 2.506 1_565 S
O173 C156 1.252 . S
O174 Gd145 2.435 . S
O174 C163 1.256 . S
O175 Gd144 2.323 1_556 S
O175 Gd145 2.719 . S
O175 C163 1.262 . S
H176 C149 0.930 . S
H177 C150 0.931 . S
H178 C152 0.931 . S
H179 C153 0.931 . S
H180 C158 0.930 . S
H181 C159 0.931 . S
H182 C161 0.931 . S
H183 C162 0.931 . S
Gd184 C187 2.818 . S
Gd184 O204 2.377 . S
Gd184 O206 2.448 . S
Gd184 O207 2.506 . S
Gd184 O208 2.435 . S
Gd184 O209 2.717 . S
Gd184 O211 2.395 . S
Gd184 O215 2.327 . S
Gd185 C196 2.818 . S
Gd185 O205 2.395 . S
Gd185 O209 2.327 . S
Gd185 O210 2.377 . S
Gd185 O212 2.448 . S
Gd185 O213 2.506 . S
Gd185 O214 2.435 . S
Gd185 O215 2.717 . S
C186 O204 1.240 . S
C186 O205 1.240 . S
C187 Gd184 2.818 . S
C187 C188 1.510 . S
C187 O206 1.249 . S
C187 O207 1.252 . S
C188 C187 1.510 . S
C188 C189 1.404 . S
C188 C190 1.352 . S
C189 C188 1.404 . S
C189 C193 1.389 . S
C189 H216 0.930 . S
C190 C188 1.352 . S
C190 C192 1.374 . S
C190 H217 0.931 . S
C191 C192 1.359 . S
C191 C193 1.364 . S
C192 C190 1.374 . S
C192 C191 1.359 . S
C192 H218 0.931 . S
C193 C189 1.389 . S
C193 C191 1.364 . S
C193 H219 0.931 . S
C194 O208 1.256 . S
C194 O209 1.257 . S
C195 O210 1.240 . S
C195 O211 1.240 . S
C196 Gd185 2.818 . S
C196 C197 1.510 . S
C196 O212 1.249 . S
C196 O213 1.252 . S
C197 C196 1.510 . S
C197 C198 1.404 . S
C197 C199 1.352 . S
C198 C197 1.404 . S
C198 C202 1.389 . S
C198 H220 0.930 . S
C199 C197 1.352 . S
C199 C201 1.374 . S
C199 H221 0.931 . S
C200 C201 1.359 . S
C200 C202 1.364 . S
C201 C199 1.374 . S
C201 C200 1.359 . S
C201 H222 0.931 . S
C202 C198 1.389 . S
C202 C200 1.364 . S
C202 H223 0.931 . S
C203 O214 1.256 . S
C203 O215 1.257 . S
O204 Gd184 2.377 . S
O204 C186 1.240 . S
O205 Gd185 2.395 . S
O205 C186 1.240 . S
O206 Gd184 2.448 . S
O206 C187 1.249 . S
O207 Gd184 2.506 . S
O207 C187 1.252 . S
O208 Gd184 2.435 . S
O208 C194 1.256 . S
O209 Gd184 2.717 . S
O209 Gd185 2.327 . S
O209 C194 1.257 . S
O210 Gd185 2.377 . S
O210 C195 1.240 . S
O211 Gd184 2.395 . S
O211 C195 1.240 . S
O212 Gd185 2.448 . S
O212 C196 1.249 . S
O213 Gd185 2.506 . S
O213 C196 1.252 . S
O214 Gd185 2.435 . S
O214 C203 1.256 . S
O215 Gd184 2.327 . S
O215 Gd185 2.717 . S
O215 C203 1.257 . S
H216 C189 0.930 . S
H217 C190 0.931 . S
H218 C192 0.931 . S
H219 C193 0.931 . S
H220 C198 0.930 . S
H221 C199 0.931 . S
H222 C201 0.931 . S
H223 C202 0.931 . S
Gd224 C227 2.818 . S
Gd224 O244 2.377 . S
Gd224 O246 2.448 . S
Gd224 O247 2.506 . S
Gd224 O248 2.435 . S
Gd224 O249 2.717 . S
Gd224 O251 2.395 1_455 S
Gd224 O255 2.327 . S
Gd225 C236 2.818 1_454 S
Gd225 O245 2.395 . S
Gd225 O249 2.327 . S
Gd225 O250 2.377 1_455 S
Gd225 O252 2.448 1_554 S
Gd225 O253 2.506 1_455 S
Gd225 O254 2.435 1_554 S
Gd225 O255 2.717 . S
C226 O244 1.240 . S
C226 O245 1.240 . S
C227 Gd224 2.818 . S
C227 C228 1.510 . S
C227 O246 1.249 . S
C227 O247 1.252 . S
C228 C227 1.510 . S
C228 C229 1.404 . S
C228 C230 1.352 . S
C229 C228 1.404 . S
C229 C233 1.389 . S
C229 H256 0.930 . S
C230 C228 1.352 . S
C230 C232 1.374 . S
C230 H257 0.931 . S
C231 C232 1.359 . S
C231 C233 1.364 . S
C232 C230 1.374 . S
C232 C231 1.359 . S
C232 H258 0.931 . S
C233 C229 1.389 . S
C233 C231 1.364 . S
C233 H259 0.931 . S
C234 O248 1.256 . S
C234 O249 1.257 . S
C235 O250 1.240 . S
C235 O251 1.240 . S
C236 Gd225 2.818 1_656 S
C236 C237 1.510 . S
C236 O252 1.249 1_655 S
C236 O253 1.252 1_556 S
C237 C236 1.510 . S
C237 C238 1.404 . S
C237 C239 1.352 . S
C238 C237 1.404 . S
C238 C242 1.389 . S
C238 H260 0.930 . S
C239 C237 1.352 . S
C239 C241 1.374 . S
C239 H261 0.931 1_556 S
C240 C241 1.359 . S
C240 C242 1.364 . S
C241 C239 1.374 . S
C241 C240 1.359 . S
C241 H262 0.931 . S
C242 C238 1.389 . S
C242 C240 1.364 . S
C242 H263 0.931 . S
C243 O254 1.256 . S
C243 O255 1.257 1_556 S
O244 Gd224 2.377 . S
O244 C226 1.240 . S
O245 Gd225 2.395 . S
O245 C226 1.240 . S
O246 Gd224 2.448 . S
O246 C227 1.249 . S
O247 Gd224 2.506 . S
O247 C227 1.252 . S
O248 Gd224 2.435 . S
O248 C234 1.256 . S
O249 Gd224 2.717 . S
O249 Gd225 2.327 . S
O249 C234 1.257 . S
O250 Gd225 2.377 1_655 S
O250 C235 1.240 . S
O251 Gd224 2.395 1_655 S
O251 C235 1.240 . S
O252 Gd225 2.448 1_556 S
O252 C236 1.249 1_455 S
O253 Gd225 2.506 1_655 S
O253 C236 1.252 1_554 S
O254 Gd225 2.435 1_556 S
O254 C243 1.256 . S
O255 Gd224 2.327 . S
O255 Gd225 2.717 . S
O255 C243 1.257 1_554 S
H256 C229 0.930 . S
H257 C230 0.931 . S
H258 C232 0.931 . S
H259 C233 0.931 . S
H260 C238 0.930 . S
H261 C239 0.931 1_554 S
H262 C241 0.931 . S
H263 C242 0.931 . S
H264 C272 0.929 . S
H265 C274 0.930 . S
H266 C276 0.930 . S
H267 C279 0.929 . S
H268 C282 0.930 . S
H269 C284 0.960 . S
H270 C284 0.960 . S
H271 C284 0.960 . S
C272 H264 0.929 . S
C272 C273 1.377 . S
C272 C274 1.384 . S
C273 C272 1.377 . S
C273 C279 1.390 . S
C274 H265 0.930 . S
C274 C272 1.384 . S
C274 C275 1.372 . S
C275 C274 1.372 . S
C275 C276 1.400 . S
C275 C280 1.490 . S
C276 H266 0.930 . S
C276 C275 1.400 . S
C276 C279 1.386 . S
H277 C293 0.930 . S
H278 C294 0.931 . S
C279 H267 0.929 . S
C279 C273 1.390 . S
C279 C276 1.386 . S
C280 C275 1.490 . S
C280 C282 1.395 . S
C280 C283 1.403 . S
H281 C287 0.930 . S
C282 H268 0.930 . S
C282 C280 1.395 . S
C282 C285 1.403 . S
C283 C280 1.403 . S
C283 C284 1.524 . S
C283 C287 1.400 . S
C284 H269 0.960 . S
C284 H270 0.960 . S
C284 H271 0.960 . S
C284 C283 1.524 . S
C285 C282 1.403 . S
C285 C286 1.392 . S
C285 C289 1.495 . S
C286 C285 1.392 . S
C286 C287 1.385 . S
C286 C288 1.478 . S
C287 H281 0.930 . S
C287 C283 1.400 . S
C287 C286 1.385 . S
C288 C286 1.478 . S
C288 C290 1.381 . S
C288 C294 1.383 . S
C289 C285 1.495 . S
C289 H295 0.959 . S
C289 H296 0.961 . S
C289 H297 0.960 . S
C290 C288 1.381 . S
C290 C291 1.394 . S
C290 H298 0.930 . S
C291 C290 1.394 . S
C291 C292 1.383 . S
C291 H299 0.929 . S
C292 C291 1.383 . S
C292 C293 1.377 . S
C293 H277 0.930 . S
C293 C292 1.377 . S
C293 C294 1.379 . S
C294 H278 0.931 . S
C294 C288 1.383 . S
C294 C293 1.379 . S
H295 C289 0.959 . S
H296 C289 0.961 . S
H297 C289 0.960 . S
H298 C290 0.930 . S
H299 C291 0.929 . S
H300 C308 0.929 . S
H301 C310 0.930 . S
H302 C312 0.930 . S
H303 C315 0.929 . S
H304 C318 0.930 . S
H305 C320 0.960 . S
H306 C320 0.960 . S
H307 C320 0.960 . S
C308 H300 0.929 . S
C308 C309 1.377 . S
C308 C310 1.384 . S
C309 C308 1.377 . S
C309 C315 1.390 . S
C310 H301 0.930 . S
C310 C308 1.384 . S
C310 C311 1.372 . S
C311 C310 1.372 . S
C311 C312 1.400 . S
C311 C316 1.490 . S
C312 H302 0.930 . S
C312 C311 1.400 . S
C312 C315 1.386 . S
H313 C329 0.930 . S
H314 C330 0.931 . S
C315 H303 0.929 . S
C315 C309 1.390 . S
C315 C312 1.386 . S
C316 C311 1.490 . S
C316 C318 1.395 . S
C316 C319 1.403 . S
H317 C323 0.930 . S
C318 H304 0.930 . S
C318 C316 1.395 . S
C318 C321 1.403 . S
C319 C316 1.403 . S
C319 C320 1.524 . S
C319 C323 1.400 . S
C320 H305 0.960 . S
C320 H306 0.960 . S
C320 H307 0.960 . S
C320 C319 1.524 . S
C321 C318 1.403 . S
C321 C322 1.392 . S
C321 C325 1.495 . S
C322 C321 1.392 . S
C322 C323 1.385 . S
C322 C324 1.478 . S
C323 H317 0.930 . S
C323 C319 1.400 . S
C323 C322 1.385 . S
C324 C322 1.478 . S
C324 C326 1.381 . S
C324 C330 1.383 . S
C325 C321 1.495 . S
C325 H331 0.959 . S
C325 H332 0.961 . S
C325 H333 0.960 . S
C326 C324 1.381 . S
C326 C327 1.394 . S
C326 H334 0.930 . S
C327 C326 1.394 . S
C327 C328 1.383 . S
C327 H335 0.929 . S
C328 C327 1.383 . S
C328 C329 1.377 . S
C329 H313 0.930 . S
C329 C328 1.377 . S
C329 C330 1.379 . S
C330 H314 0.931 . S
C330 C324 1.383 . S
C330 C329 1.379 . S
H331 C325 0.959 . S
H332 C325 0.961 . S
H333 C325 0.960 . S
H334 C326 0.930 . S
H335 C327 0.929 . S
H336 C344 0.929 . S
H337 C346 0.930 . S
H338 C348 0.930 . S
H339 C351 0.929 . S
H340 C354 0.930 . S
H341 C356 0.960 . S
H342 C356 0.960 . S
H343 C356 0.960 . S
C344 H336 0.929 . S
C344 C345 1.377 . S
C344 C346 1.384 . S
C345 C344 1.377 . S
C345 C351 1.390 . S
C346 H337 0.930 . S
C346 C344 1.384 . S
C346 C347 1.372 . S
C347 C346 1.372 . S
C347 C348 1.400 . S
C347 C352 1.490 . S
C348 H338 0.930 . S
C348 C347 1.400 . S
C348 C351 1.386 . S
H349 C365 0.930 . S
H350 C366 0.931 . S
C351 H339 0.929 . S
C351 C345 1.390 . S
C351 C348 1.386 . S
C352 C347 1.490 . S
C352 C354 1.395 . S
C352 C355 1.403 . S
H353 C359 0.930 . S
C354 H340 0.930 . S
C354 C352 1.395 . S
C354 C357 1.403 . S
C355 C352 1.403 . S
C355 C356 1.524 . S
C355 C359 1.400 . S
C356 H341 0.960 . S
C356 H342 0.960 . S
C356 H343 0.960 . S
C356 C355 1.524 . S
C357 C354 1.403 . S
C357 C358 1.392 . S
C357 C361 1.495 . S
C358 C357 1.392 . S
C358 C359 1.385 . S
C358 C360 1.478 . S
C359 H353 0.930 . S
C359 C355 1.400 . S
C359 C358 1.385 . S
C360 C358 1.478 . S
C360 C362 1.381 . S
C360 C366 1.383 . S
C361 C357 1.495 . S
C361 H367 0.959 . S
C361 H368 0.961 . S
C361 H369 0.960 . S
C362 C360 1.381 . S
C362 C363 1.394 . S
C362 H370 0.930 . S
C363 C362 1.394 . S
C363 C364 1.383 . S
C363 H371 0.929 . S
C364 C363 1.383 . S
C364 C365 1.377 . S
C365 H349 0.930 . S
C365 C364 1.377 . S
C365 C366 1.379 . S
C366 H350 0.931 . S
C366 C360 1.383 . S
C366 C365 1.379 . S
H367 C361 0.959 . S
H368 C361 0.961 . S
H369 C361 0.960 . S
H370 C362 0.930 . S
H371 C363 0.929 . S
H372 C380 0.929 . S
H373 C382 0.930 . S
H374 C384 0.930 . S
H375 C387 0.929 . S
H376 C390 0.930 . S
H377 C392 0.960 . S
H378 C392 0.960 . S
H379 C392 0.960 . S
C380 H372 0.929 . S
C380 C381 1.377 . S
C380 C382 1.384 . S
C381 C380 1.377 . S
C381 C387 1.390 . S
C382 H373 0.930 . S
C382 C380 1.384 . S
C382 C383 1.372 . S
C383 C382 1.372 . S
C383 C384 1.400 . S
C383 C388 1.490 . S
C384 H374 0.930 . S
C384 C383 1.400 . S
C384 C387 1.386 . S
H385 C401 0.930 . S
H386 C402 0.931 1_455 S
C387 H375 0.929 . S
C387 C381 1.390 . S
C387 C384 1.386 . S
C388 C383 1.490 . S
C388 C390 1.395 . S
C388 C391 1.403 . S
H389 C395 0.930 . S
C390 H376 0.930 . S
C390 C388 1.395 . S
C390 C393 1.403 . S
C391 C388 1.403 . S
C391 C392 1.524 . S
C391 C395 1.400 . S
C392 H377 0.960 . S
C392 H378 0.960 . S
C392 H379 0.960 . S
C392 C391 1.524 . S
C393 C390 1.403 . S
C393 C394 1.392 . S
C393 C397 1.495 . S
C394 C393 1.392 . S
C394 C395 1.385 . S
C394 C396 1.478 . S
C395 H389 0.930 . S
C395 C391 1.400 . S
C395 C394 1.385 . S
C396 C394 1.478 . S
C396 C398 1.381 . S
C396 C402 1.383 . S
C397 C393 1.495 . S
C397 H403 0.959 . S
C397 H404 0.961 . S
C397 H405 0.960 . S
C398 C396 1.381 . S
C398 C399 1.394 . S
C398 H406 0.930 . S
C399 C398 1.394 . S
C399 C400 1.383 . S
C399 H407 0.929 . S
C400 C399 1.383 . S
C400 C401 1.377 1_655 S
C401 H385 0.930 . S
C401 C400 1.377 1_455 S
C401 C402 1.379 1_455 S
C402 H386 0.931 1_655 S
C402 C396 1.383 . S
C402 C401 1.379 1_655 S
H403 C397 0.959 . S
H404 C397 0.961 . S
H405 C397 0.960 . S
H406 C398 0.930 . S
H407 C399 0.929 . S
H408 C416 0.929 . S
H409 C418 0.930 . S
H410 C420 0.930 . S
H411 C423 0.929 . S
H412 C426 0.930 . S
H413 C428 0.960 . S
H414 C428 0.960 . S
H415 C428 0.960 . S
C416 H408 0.929 . S
C416 C417 1.377 . S
C416 C418 1.384 . S
C417 C416 1.377 . S
C417 C423 1.390 . S
C418 H409 0.930 . S
C418 C416 1.384 . S
C418 C419 1.372 . S
C419 C418 1.372 . S
C419 C420 1.400 . S
C419 C424 1.490 . S
C420 H410 0.930 . S
C420 C419 1.400 . S
C420 C423 1.386 . S
H421 C437 0.930 . S
H422 C438 0.931 . S
C423 H411 0.929 . S
C423 C417 1.390 . S
C423 C420 1.386 . S
C424 C419 1.490 . S
C424 C426 1.395 . S
C424 C427 1.403 . S
H425 C431 0.930 . S
C426 H412 0.930 . S
C426 C424 1.395 . S
C426 C429 1.403 . S
C427 C424 1.403 . S
C427 C428 1.524 . S
C427 C431 1.400 . S
C428 H413 0.960 . S
C428 H414 0.960 . S
C428 H415 0.960 . S
C428 C427 1.524 . S
C429 C426 1.403 . S
C429 C430 1.392 . S
C429 C433 1.495 . S
C430 C429 1.392 . S
C430 C431 1.385 . S
C430 C432 1.478 . S
C431 H425 0.930 . S
C431 C427 1.400 . S
C431 C430 1.385 . S
C432 C430 1.478 . S
C432 C434 1.381 . S
C432 C438 1.383 . S
C433 C429 1.495 . S
C433 H439 0.959 . S
C433 H440 0.961 . S
C433 H441 0.960 . S
C434 C432 1.381 . S
C434 C435 1.394 . S
C434 H442 0.930 . S
C435 C434 1.394 . S
C435 C436 1.383 . S
C435 H443 0.929 . S
C436 C435 1.383 . S
C436 C437 1.377 . S
C437 H421 0.930 . S
C437 C436 1.377 . S
C437 C438 1.379 . S
C438 H422 0.931 . S
C438 C432 1.383 . S
C438 C437 1.379 . S
H439 C433 0.959 . S
H440 C433 0.961 . S
H441 C433 0.960 . S
H442 C434 0.930 . S
H443 C435 0.929 . S
H444 C452 0.929 . S
H445 C454 0.930 . S
H446 C456 0.930 . S
H447 C459 0.929 . S
H448 C462 0.930 . S
H449 C464 0.960 . S
H450 C464 0.960 . S
H451 C464 0.960 . S
C452 H444 0.929 . S
C452 C453 1.377 . S
C452 C454 1.384 . S
C453 C452 1.377 . S
C453 C459 1.390 . S
C454 H445 0.930 . S
C454 C452 1.384 . S
C454 C455 1.372 . S
C455 C454 1.372 . S
C455 C456 1.400 . S
C455 C460 1.490 . S
C456 H446 0.930 . S
C456 C455 1.400 . S
C456 C459 1.386 . S
H457 C473 0.930 . S
H458 C474 0.931 . S
C459 H447 0.929 . S
C459 C453 1.390 . S
C459 C456 1.386 . S
C460 C455 1.490 . S
C460 C462 1.395 . S
C460 C463 1.403 . S
H461 C467 0.930 . S
C462 H448 0.930 . S
C462 C460 1.395 . S
C462 C465 1.403 . S
C463 C460 1.403 . S
C463 C464 1.524 . S
C463 C467 1.400 . S
C464 H449 0.960 . S
C464 H450 0.960 . S
C464 H451 0.960 . S
C464 C463 1.524 . S
C465 C462 1.403 . S
C465 C466 1.392 . S
C465 C469 1.495 . S
C466 C465 1.392 . S
C466 C467 1.385 . S
C466 C468 1.478 . S
C467 H461 0.930 . S
C467 C463 1.400 . S
C467 C466 1.385 . S
C468 C466 1.478 . S
C468 C470 1.381 . S
C468 C474 1.383 . S
C469 C465 1.495 . S
C469 H475 0.959 . S
C469 H476 0.961 . S
C469 H477 0.960 . S
C470 C468 1.381 . S
C470 C471 1.394 . S
C470 H478 0.930 . S
C471 C470 1.394 . S
C471 C472 1.383 . S
C471 H479 0.929 . S
C472 C471 1.383 . S
C472 C473 1.377 . S
C473 H457 0.930 . S
C473 C472 1.377 . S
C473 C474 1.379 . S
C474 H458 0.931 . S
C474 C468 1.383 . S
C474 C473 1.379 . S
H475 C469 0.959 . S
H476 C469 0.961 . S
H477 C469 0.960 . S
H478 C470 0.930 . S
H479 C471 0.929 . S
H480 C488 0.929 . S
H481 C490 0.930 . S
H482 C492 0.930 . S
H483 C495 0.929 . S
H484 C498 0.930 . S
H485 C500 0.960 . S
H486 C500 0.960 . S
H487 C500 0.960 . S
C488 H480 0.929 . S
C488 C489 1.377 . S
C488 C490 1.384 . S
C489 C488 1.377 . S
C489 C495 1.390 . S
C490 H481 0.930 . S
C490 C488 1.384 . S
C490 C491 1.372 . S
C491 C490 1.372 . S
C491 C492 1.400 . S
C491 C496 1.490 . S
C492 H482 0.930 . S
C492 C491 1.400 . S
C492 C495 1.386 . S
H493 C509 0.930 1_554 S
H494 C510 0.931 . S
C495 H483 0.929 . S
C495 C489 1.390 . S
C495 C492 1.386 . S
C496 C491 1.490 . S
C496 C498 1.395 . S
C496 C499 1.403 . S
H497 C503 0.930 . S
C498 H484 0.930 . S
C498 C496 1.395 . S
C498 C501 1.403 . S
C499 C496 1.403 . S
C499 C500 1.524 . S
C499 C503 1.400 . S
C500 H485 0.960 . S
C500 H486 0.960 . S
C500 H487 0.960 . S
C500 C499 1.524 . S
C501 C498 1.403 . S
C501 C502 1.392 . S
C501 C505 1.495 . S
C502 C501 1.392 . S
C502 C503 1.385 . S
C502 C504 1.478 . S
C503 H497 0.930 . S
C503 C499 1.400 . S
C503 C502 1.385 . S
C504 C502 1.478 . S
C504 C506 1.381 . S
C504 C510 1.383 . S
C505 C501 1.495 . S
C505 H511 0.959 . S
C505 H512 0.961 . S
C505 H513 0.960 . S
C506 C504 1.381 . S
C506 C507 1.394 . S
C506 H514 0.930 . S
C507 C506 1.394 . S
C507 C508 1.397 . S
C507 H515 0.929 . S
C508 C507 1.397 . S
C508 C509 1.384 . S
C509 H493 0.930 1_556 S
C509 C508 1.384 . S
C509 C510 1.379 . S
C510 H494 0.931 . S
C510 C504 1.383 . S
C510 C509 1.379 . S
H511 C505 0.959 . S
H512 C505 0.961 . S
H513 C505 0.960 . S
H514 C506 0.930 . S
H515 C507 0.929 . S
H516 C524 0.929 . S
H517 C526 0.930 . S
H518 C528 0.930 . S
H519 C531 0.929 . S
H520 C534 0.930 . S
H521 C536 0.960 . S
H522 C536 0.960 . S
H523 C536 0.960 . S
C524 H516 0.929 . S
C524 C525 1.377 . S
C524 C526 1.384 . S
C525 C524 1.377 . S
C525 C531 1.390 . S
C526 H517 0.930 . S
C526 C524 1.384 . S
C526 C527 1.372 . S
C527 C526 1.372 . S
C527 C528 1.400 . S
C527 C532 1.490 . S
C528 H518 0.930 . S
C528 C527 1.400 . S
C528 C531 1.386 . S
H529 C545 0.930 . S
H530 C546 0.931 . S
C531 H519 0.929 . S
C531 C525 1.390 . S
C531 C528 1.386 . S
C532 C527 1.490 . S
C532 C534 1.395 . S
C532 C535 1.403 . S
H533 C539 0.930 . S
C534 H520 0.930 . S
C534 C532 1.395 . S
C534 C537 1.403 . S
C535 C532 1.403 . S
C535 C536 1.524 . S
C535 C539 1.400 . S
C536 H521 0.960 . S
C536 H522 0.960 . S
C536 H523 0.960 . S
C536 C535 1.524 . S
C537 C534 1.403 . S
C537 C538 1.392 . S
C537 C541 1.495 . S
C538 C537 1.392 . S
C538 C539 1.385 . S
C538 C540 1.478 . S
C539 H533 0.930 . S
C539 C535 1.400 . S
C539 C538 1.385 . S
C540 C538 1.478 . S
C540 C542 1.381 . S
C540 C546 1.383 . S
C541 C537 1.495 . S
C541 H547 0.959 . S
C541 H548 0.961 . S
C541 H549 0.960 . S
C542 C540 1.381 . S
C542 C543 1.394 . S
C542 H550 0.930 . S
C543 C542 1.394 . S
C543 C544 1.383 . S
C543 H551 0.929 . S
C544 C543 1.383 . S
C544 C545 1.377 . S
C545 H529 0.930 . S
C545 C544 1.377 . S
C545 C546 1.379 . S
C546 H530 0.931 . S
C546 C540 1.383 . S
C546 C545 1.379 . S
H547 C541 0.959 . S
H548 C541 0.961 . S
H549 C541 0.960 . S
H550 C542 0.930 . S
H551 C543 0.929 . S
H552 C560 0.929 . S
H553 C562 0.930 . S
H554 C564 0.930 . S
H555 C567 0.929 . S
H556 C570 0.930 . S
H557 C572 0.960 . S
H558 C572 0.960 . S
H559 C572 0.960 . S
C560 H552 0.929 . S
C560 C561 1.377 . S
C560 C562 1.384 . S
C561 C560 1.377 . S
C561 C567 1.390 . S
C562 H553 0.930 . S
C562 C560 1.384 . S
C562 C563 1.372 . S
C563 C562 1.372 . S
C563 C564 1.400 . S
C563 C568 1.490 . S
C564 H554 0.930 . S
C564 C563 1.400 . S
C564 C567 1.386 . S
H565 C581 0.930 . S
H566 C582 0.931 . S
C567 H555 0.929 . S
C567 C561 1.390 . S
C567 C564 1.386 . S
C568 C563 1.490 . S
C568 C570 1.395 . S
C568 C571 1.403 . S
H569 C575 0.930 . S
C570 H556 0.930 . S
C570 C568 1.395 . S
C570 C573 1.403 . S
C571 C568 1.403 . S
C571 C572 1.524 . S
C571 C575 1.400 . S
C572 H557 0.960 . S
C572 H558 0.960 . S
C572 H559 0.960 . S
C572 C571 1.524 . S
C573 C570 1.403 . S
C573 C574 1.392 . S
C573 C577 1.495 . S
C574 C573 1.392 . S
C574 C575 1.385 . S
C574 C576 1.478 . S
C575 H569 0.930 . S
C575 C571 1.400 . S
C575 C574 1.385 . S
C576 C574 1.478 . S
C576 C578 1.381 . S
C576 C582 1.383 . S
C577 C573 1.495 . S
C577 H583 0.959 . S
C577 H584 0.961 . S
C577 H585 0.960 . S
C578 C576 1.381 . S
C578 C579 1.394 . S
C578 H586 0.930 . S
C579 C578 1.394 . S
C579 C580 1.383 . S
C579 H587 0.929 . S
C580 C579 1.383 . S
C580 C581 1.377 . S
C581 H565 0.930 . S
C581 C580 1.377 . S
C581 C582 1.379 . S
C582 H566 0.931 . S
C582 C576 1.383 . S
C582 C581 1.379 . S
H583 C577 0.959 . S
H584 C577 0.961 . S
H585 C577 0.960 . S
H586 C578 0.930 . S
H587 C579 0.929 . S
H588 C596 0.929 . S
H589 C598 0.930 . S
H590 C600 0.930 . S
H591 C603 0.929 . S
H592 C606 0.930 . S
H593 C608 0.960 . S
H594 C608 0.960 . S
H595 C608 0.960 . S
C596 H588 0.929 . S
C596 C597 1.377 . S
C596 C598 1.384 . S
C597 C596 1.377 . S
C597 C603 1.390 . S
C598 H589 0.930 . S
C598 C596 1.384 . S
C598 C599 1.372 . S
C599 C598 1.372 . S
C599 C600 1.400 . S
C599 C604 1.490 . S
C600 H590 0.930 . S
C600 C599 1.400 . S
C600 C603 1.386 . S
H601 C617 0.930 . S
H602 C618 0.931 . S
C603 H591 0.929 . S
C603 C597 1.390 . S
C603 C600 1.386 . S
C604 C599 1.490 . S
C604 C606 1.395 . S
C604 C607 1.403 . S
H605 C611 0.930 . S
C606 H592 0.930 . S
C606 C604 1.395 . S
C606 C609 1.403 . S
C607 C604 1.403 . S
C607 C608 1.524 . S
C607 C611 1.400 . S
C608 H593 0.960 . S
C608 H594 0.960 . S
C608 H595 0.960 . S
C608 C607 1.524 . S
C609 C606 1.403 . S
C609 C610 1.392 . S
C609 C613 1.495 . S
C610 C609 1.392 . S
C610 C611 1.385 . S
C610 C612 1.478 . S
C611 H605 0.930 . S
C611 C607 1.400 . S
C611 C610 1.385 . S
C612 C610 1.478 . S
C612 C614 1.381 . S
C612 C618 1.383 . S
C613 C609 1.495 . S
C613 H619 0.959 . S
C613 H620 0.961 . S
C613 H621 0.960 . S
C614 C612 1.381 . S
C614 C615 1.394 . S
C614 H622 0.930 . S
C615 C614 1.394 . S
C615 C616 1.383 . S
C615 H623 0.929 . S
C616 C615 1.383 . S
C616 C617 1.377 . S
C617 H601 0.930 . S
C617 C616 1.377 . S
C617 C618 1.379 . S
C618 H602 0.931 . S
C618 C612 1.383 . S
C618 C617 1.379 . S
H619 C613 0.959 . S
H620 C613 0.961 . S
H621 C613 0.960 . S
H622 C614 0.930 . S
H623 C615 0.929 . S
H624 C632 0.929 . S
H625 C634 0.930 . S
H626 C636 0.930 . S
H627 C639 0.929 . S
H628 C642 0.930 . S
H629 C644 0.960 . S
H630 C644 0.960 . S
H631 C644 0.960 . S
C632 H624 0.929 . S
C632 C633 1.377 . S
C632 C634 1.384 . S
C633 C632 1.377 . S
C633 C639 1.390 . S
C634 H625 0.930 . S
C634 C632 1.384 . S
C634 C635 1.372 . S
C635 C634 1.372 . S
C635 C636 1.400 . S
C635 C640 1.490 . S
C636 H626 0.930 . S
C636 C635 1.400 . S
C636 C639 1.386 . S
H637 C653 0.930 . S
H638 C654 0.931 . S
C639 H627 0.929 . S
C639 C633 1.390 . S
C639 C636 1.386 . S
C640 C635 1.490 . S
C640 C642 1.395 . S
C640 C643 1.403 . S
H641 C647 0.930 . S
C642 H628 0.930 . S
C642 C640 1.395 . S
C642 C645 1.403 . S
C643 C640 1.403 . S
C643 C644 1.524 . S
C643 C647 1.400 . S
C644 H629 0.960 . S
C644 H630 0.960 . S
C644 H631 0.960 . S
C644 C643 1.524 . S
C645 C642 1.403 . S
C645 C646 1.392 . S
C645 C649 1.495 . S
C646 C645 1.392 . S
C646 C647 1.385 . S
C646 C648 1.478 . S
C647 H641 0.930 . S
C647 C643 1.400 . S
C647 C646 1.385 . S
C648 C646 1.478 . S
C648 C650 1.381 . S
C648 C654 1.383 . S
C649 C645 1.495 . S
C649 H655 0.959 . S
C649 H656 0.961 . S
C649 H657 0.960 . S
C650 C648 1.381 . S
C650 C651 1.394 . S
C650 H658 0.930 . S
C651 C650 1.394 . S
C651 C652 1.383 . S
C651 H659 0.929 . S
C652 C651 1.383 . S
C652 C653 1.377 . S
C653 H637 0.930 . S
C653 C652 1.377 . S
C653 C654 1.379 . S
C654 H638 0.931 . S
C654 C648 1.383 . S
C654 C653 1.379 . S
H655 C649 0.959 . S
H656 C649 0.961 . S
H657 C649 0.960 . S
H658 C650 0.930 . S
H659 C651 0.929 . S
H660 C668 0.929 . S
H661 C670 0.930 . S
H662 C672 0.930 . S
H663 C675 0.929 . S
H664 C678 0.930 . S
H665 C680 0.960 . S
H666 C680 0.960 . S
H667 C680 0.960 . S
C668 H660 0.929 . S
C668 C669 1.377 . S
C668 C670 1.384 . S
C669 C668 1.377 . S
C669 C675 1.390 . S
C670 H661 0.930 . S
C670 C668 1.384 . S
C670 C671 1.372 . S
C671 C670 1.372 . S
C671 C672 1.400 . S
C671 C676 1.490 . S
C672 H662 0.930 . S
C672 C671 1.400 . S
C672 C675 1.386 . S
H673 C689 0.930 . S
H674 C690 0.931 . S
C675 H663 0.929 . S
C675 C669 1.390 . S
C675 C672 1.386 . S
C676 C671 1.490 . S
C676 C678 1.395 . S
C676 C679 1.403 . S
H677 C683 0.930 . S
C678 H664 0.930 . S
C678 C676 1.395 . S
C678 C681 1.403 . S
C679 C676 1.403 . S
C679 C680 1.524 . S
C679 C683 1.400 . S
C680 H665 0.960 . S
C680 H666 0.960 . S
C680 H667 0.960 . S
C680 C679 1.524 . S
C681 C678 1.403 . S
C681 C682 1.392 . S
C681 C685 1.495 . S
C682 C681 1.392 . S
C682 C683 1.385 . S
C682 C684 1.478 . S
C683 H677 0.930 . S
C683 C679 1.400 . S
C683 C682 1.385 . S
C684 C682 1.478 . S
C684 C686 1.381 . S
C684 C690 1.383 . S
C685 C681 1.495 . S
C685 H691 0.959 . S
C685 H692 0.961 . S
C685 H693 0.960 . S
C686 C684 1.381 . S
C686 C687 1.394 . S
C686 H694 0.930 . S
C687 C686 1.394 . S
C687 C688 1.383 . S
C687 H695 0.929 . S
C688 C687 1.383 . S
C688 C689 1.377 . S
C689 H673 0.930 . S
C689 C688 1.377 . S
C689 C690 1.379 . S
C690 H674 0.931 . S
C690 C684 1.383 . S
C690 C689 1.379 . S
H691 C685 0.959 . S
H692 C685 0.961 . S
H693 C685 0.960 . S
H694 C686 0.930 . S
H695 C687 0.929 . S
H696 C704 0.929 . S
H697 C706 0.930 . S
H698 C708 0.930 . S
H699 C711 0.929 . S
H700 C714 0.930 . S
H701 C716 0.960 . S
H702 C716 0.960 . S
H703 C716 0.960 . S
C704 H696 0.929 . S
C704 C705 1.377 . S
C704 C706 1.384 . S
C705 C704 1.377 . S
C705 C711 1.390 . S
C706 H697 0.930 . S
C706 C704 1.384 . S
C706 C707 1.372 . S
C707 C706 1.372 . S
C707 C708 1.400 . S
C707 C712 1.490 . S
C708 H698 0.930 . S
C708 C707 1.400 . S
C708 C711 1.386 . S
H709 C725 0.930 . S
H710 C726 0.931 . S
C711 H699 0.929 . S
C711 C705 1.390 . S
C711 C708 1.386 . S
C712 C707 1.490 . S
C712 C714 1.395 . S
C712 C715 1.403 . S
H713 C719 0.930 . S
C714 H700 0.930 . S
C714 C712 1.395 . S
C714 C717 1.403 . S
C715 C712 1.403 . S
C715 C716 1.524 . S
C715 C719 1.400 . S
C716 H701 0.960 . S
C716 H702 0.960 . S
C716 H703 0.960 . S
C716 C715 1.524 . S
C717 C714 1.403 . S
C717 C718 1.392 . S
C717 C721 1.495 . S
C718 C717 1.392 . S
C718 C719 1.385 . S
C718 C720 1.478 . S
C719 H713 0.930 . S
C719 C715 1.400 . S
C719 C718 1.385 . S
C720 C718 1.478 . S
C720 C722 1.381 . S
C720 C726 1.383 . S
C721 C717 1.495 . S
C721 H727 0.959 . S
C721 H728 0.961 . S
C721 H729 0.960 . S
C722 C720 1.381 . S
C722 C723 1.394 . S
C722 H730 0.930 . S
C723 C722 1.394 . S
C723 C724 1.383 . S
C723 H731 0.929 . S
C724 C723 1.383 . S
C724 C725 1.377 . S
C725 H709 0.930 . S
C725 C724 1.377 . S
C725 C726 1.379 . S
C726 H710 0.931 . S
C726 C720 1.383 . S
C726 C725 1.379 . S
H727 C721 0.959 . S
H728 C721 0.961 . S
H729 C721 0.960 . S
H730 C722 0.930 . S
H731 C723 0.929 . S
H732 C740 0.929 . S
H733 C742 0.930 . S
H734 C744 0.930 . S
H735 C747 0.929 . S
H736 C750 0.930 . S
H737 C752 0.960 . S
H738 C752 0.960 . S
H739 C752 0.960 . S
C740 H732 0.929 . S
C740 C741 1.377 . S
C740 C742 1.384 . S
C741 C740 1.377 . S
C741 C747 1.390 . S
C742 H733 0.930 . S
C742 C740 1.384 . S
C742 C743 1.372 . S
C743 C742 1.372 . S
C743 C744 1.400 . S
C743 C748 1.490 . S
C744 H734 0.930 . S
C744 C743 1.400 . S
C744 C747 1.386 . S
H745 C761 0.930 . S
H746 C762 0.931 . S
C747 H735 0.929 . S
C747 C741 1.390 . S
C747 C744 1.386 . S
C748 C743 1.490 . S
C748 C750 1.395 . S
C748 C751 1.403 . S
H749 C755 0.930 . S
C750 H736 0.930 . S
C750 C748 1.395 . S
C750 C753 1.403 . S
C751 C748 1.403 . S
C751 C752 1.524 . S
C751 C755 1.400 . S
C752 H737 0.960 . S
C752 H738 0.960 . S
C752 H739 0.960 . S
C752 C751 1.524 . S
C753 C750 1.403 . S
C753 C754 1.392 . S
C753 C757 1.495 . S
C754 C753 1.392 . S
C754 C755 1.385 . S
C754 C756 1.478 . S
C755 H749 0.930 . S
C755 C751 1.400 . S
C755 C754 1.385 . S
C756 C754 1.478 . S
C756 C758 1.381 . S
C756 C762 1.383 . S
C757 C753 1.495 . S
C757 H763 0.959 . S
C757 H764 0.961 . S
C757 H765 0.960 . S
C758 C756 1.381 . S
C758 C759 1.394 . S
C758 H766 0.930 . S
C759 C758 1.394 . S
C759 C760 1.383 . S
C759 H767 0.929 . S
C760 C759 1.383 . S
C760 C761 1.377 . S
C761 H745 0.930 . S
C761 C760 1.377 . S
C761 C762 1.379 . S
C762 H746 0.931 . S
C762 C756 1.383 . S
C762 C761 1.379 . S
H763 C757 0.959 . S
H764 C757 0.961 . S
H765 C757 0.960 . S
H766 C758 0.930 . S
H767 C759 0.929 . S
H768 C776 0.929 . S
H769 C778 0.930 . S
H770 C780 0.930 . S
H771 C783 0.929 . S
H772 C786 0.930 . S
H773 C788 0.960 . S
H774 C788 0.960 . S
H775 C788 0.960 . S
C776 H768 0.929 . S
C776 C777 1.377 . S
C776 C778 1.384 . S
C777 C776 1.377 . S
C777 C783 1.390 . S
C778 H769 0.930 . S
C778 C776 1.384 . S
C778 C779 1.372 . S
C779 C778 1.372 . S
C779 C780 1.400 . S
C779 C784 1.490 . S
C780 H770 0.930 . S
C780 C779 1.400 . S
C780 C783 1.386 . S
H781 C797 0.930 . S
H782 C798 0.931 . S
C783 H771 0.929 . S
C783 C777 1.390 . S
C783 C780 1.386 . S
C784 C779 1.490 . S
C784 C786 1.395 . S
C784 C787 1.403 . S
H785 C791 0.930 . S
C786 H772 0.930 . S
C786 C784 1.395 . S
C786 C789 1.403 . S
C787 C784 1.403 . S
C787 C788 1.524 . S
C787 C791 1.400 . S
C788 H773 0.960 . S
C788 H774 0.960 . S
C788 H775 0.960 . S
C788 C787 1.524 . S
C789 C786 1.403 . S
C789 C790 1.392 . S
C789 C793 1.495 . S
C790 C789 1.392 . S
C790 C791 1.385 . S
C790 C792 1.478 . S
C791 H785 0.930 . S
C791 C787 1.400 . S
C791 C790 1.385 . S
C792 C790 1.478 . S
C792 C794 1.381 . S
C792 C798 1.383 . S
C793 C789 1.495 . S
C793 H799 0.959 . S
C793 H800 0.961 . S
C793 H801 0.960 . S
C794 C792 1.381 . S
C794 C795 1.394 . S
C794 H802 0.930 . S
C795 C794 1.394 . S
C795 C796 1.383 . S
C795 H803 0.929 . S
C796 C795 1.383 . S
C796 C797 1.377 . S
C797 H781 0.930 . S
C797 C796 1.377 . S
C797 C798 1.379 . S
C798 H782 0.931 . S
C798 C792 1.383 . S
C798 C797 1.379 . S
H799 C793 0.959 . S
H800 C793 0.961 . S
H801 C793 0.960 . S
H802 C794 0.930 . S
H803 C795 0.929 . S
H804 C812 0.929 . S
H805 C814 0.930 . S
H806 C816 0.930 . S
H807 C819 0.929 . S
H808 C822 0.930 . S
H809 C824 0.960 . S
H810 C824 0.960 . S
H811 C824 0.960 . S
C812 H804 0.929 . S
C812 C813 1.377 . S
C812 C814 1.384 . S
C813 C812 1.377 . S
C813 C819 1.390 . S
C814 H805 0.930 . S
C814 C812 1.384 . S
C814 C815 1.372 . S
C815 C814 1.372 . S
C815 C816 1.400 . S
C815 C820 1.490 . S
C816 H806 0.930 . S
C816 C815 1.400 . S
C816 C819 1.386 . S
H817 C833 0.930 . S
H818 C834 0.931 . S
C819 H807 0.929 . S
C819 C813 1.390 . S
C819 C816 1.386 . S
C820 C815 1.490 . S
C820 C822 1.395 . S
C820 C823 1.403 . S
H821 C827 0.930 . S
C822 H808 0.930 . S
C822 C820 1.395 . S
C822 C825 1.403 . S
C823 C820 1.403 . S
C823 C824 1.524 . S
C823 C827 1.400 . S
C824 H809 0.960 . S
C824 H810 0.960 . S
C824 H811 0.960 . S
C824 C823 1.524 . S
C825 C822 1.403 . S
C825 C826 1.392 . S
C825 C829 1.495 . S
C826 C825 1.392 . S
C826 C827 1.385 . S
C826 C828 1.478 . S
C827 H821 0.930 . S
C827 C823 1.400 . S
C827 C826 1.385 . S
C828 C826 1.478 . S
C828 C830 1.381 . S
C828 C834 1.383 . S
C829 C825 1.495 . S
C829 H835 0.959 . S
C829 H836 0.961 . S
C829 H837 0.960 . S
C830 C828 1.381 . S
C830 C831 1.394 . S
C830 H838 0.930 . S
C831 C830 1.394 . S
C831 C832 1.383 . S
C831 H839 0.929 . S
C832 C831 1.383 . S
C832 C833 1.377 . S
C833 H817 0.930 . S
C833 C832 1.377 . S
C833 C834 1.379 . S
C834 H818 0.931 . S
C834 C828 1.383 . S
C834 C833 1.379 . S
H835 C829 0.959 . S
H836 C829 0.961 . S
H837 C829 0.960 . S
H838 C830 0.930 . S
H839 C831 0.929 . S
H840 C848 0.929 . S
H841 C850 0.930 . S
H842 C852 0.930 . S
H843 C855 0.929 . S
H844 C858 0.930 . S
H845 C860 0.960 . S
H846 C860 0.960 . S
H847 C860 0.960 . S
C848 H840 0.929 . S
C848 C849 1.377 . S
C848 C850 1.384 . S
C849 C848 1.377 . S
C849 C855 1.390 . S
C850 H841 0.930 . S
C850 C848 1.384 . S
C850 C851 1.372 . S
C851 C850 1.372 . S
C851 C852 1.400 . S
C851 C856 1.490 . S
C852 H842 0.930 . S
C852 C851 1.400 . S
C852 C855 1.386 . S
H853 C869 0.930 . S
H854 C870 0.931 . S
C855 H843 0.929 . S
C855 C849 1.390 . S
C855 C852 1.386 . S
C856 C851 1.490 . S
C856 C858 1.395 . S
C856 C859 1.403 . S
H857 C863 0.930 . S
C858 H844 0.930 . S
C858 C856 1.395 . S
C858 C861 1.403 . S
C859 C856 1.403 . S
C859 C860 1.524 . S
C859 C863 1.400 . S
C860 H845 0.960 . S
C860 H846 0.960 . S
C860 H847 0.960 . S
C860 C859 1.524 . S
C861 C858 1.403 . S
C861 C862 1.392 . S
C861 C865 1.495 . S
C862 C861 1.392 . S
C862 C863 1.385 . S
C862 C864 1.478 . S
C863 H857 0.930 . S
C863 C859 1.400 . S
C863 C862 1.385 . S
C864 C862 1.478 . S
C864 C866 1.381 . S
C864 C870 1.383 . S
C865 C861 1.495 . S
C865 H871 0.959 . S
C865 H872 0.961 . S
C865 H873 0.960 . S
C866 C864 1.381 . S
C866 C867 1.394 . S
C866 H874 0.930 . S
C867 C866 1.394 . S
C867 C868 1.383 . S
C867 H875 0.929 . S
C868 C867 1.383 . S
C868 C869 1.377 . S
C869 H853 0.930 . S
C869 C868 1.377 . S
C869 C870 1.379 . S
C870 H854 0.931 . S
C870 C864 1.383 . S
C870 C869 1.379 . S
H871 C865 0.959 . S
H872 C865 0.961 . S
H873 C865 0.960 . S
H874 C866 0.930 . S
H875 C867 0.929 . S
H876 C884 0.929 . S
H877 C886 0.930 . S
H878 C888 0.930 . S
H879 C891 0.929 . S
H880 C894 0.930 . S
H881 C896 0.960 . S
H882 C896 0.960 . S
H883 C896 0.960 . S
C884 H876 0.929 . S
C884 C885 1.377 . S
C884 C886 1.384 . S
C885 C884 1.377 . S
C885 C891 1.390 . S
C886 H877 0.930 . S
C886 C884 1.384 . S
C886 C887 1.372 . S
C887 C886 1.372 . S
C887 C888 1.400 . S
C887 C892 1.490 . S
C888 H878 0.930 . S
C888 C887 1.400 . S
C888 C891 1.386 . S
H889 C905 0.930 . S
H890 C906 0.931 . S
C891 H879 0.929 . S
C891 C885 1.390 . S
C891 C888 1.386 . S
C892 C887 1.490 . S
C892 C894 1.395 . S
C892 C895 1.403 . S
H893 C899 0.930 . S
C894 H880 0.930 . S
C894 C892 1.395 . S
C894 C897 1.403 . S
C895 C892 1.403 . S
C895 C896 1.524 . S
C895 C899 1.400 . S
C896 H881 0.960 . S
C896 H882 0.960 . S
C896 H883 0.960 . S
C896 C895 1.524 . S
C897 C894 1.403 . S
C897 C898 1.392 . S
C897 C901 1.495 . S
C898 C897 1.392 . S
C898 C899 1.385 . S
C898 C900 1.478 . S
C899 H893 0.930 . S
C899 C895 1.400 . S
C899 C898 1.385 . S
C900 C898 1.478 . S
C900 C902 1.381 . S
C900 C906 1.383 . S
C901 C897 1.495 . S
C901 H907 0.959 . S
C901 H908 0.961 . S
C901 H909 0.960 . S
C902 C900 1.381 . S
C902 C903 1.394 . S
C902 H910 0.930 . S
C903 C902 1.394 . S
C903 C904 1.383 . S
C903 H911 0.929 . S
C904 C903 1.383 . S
C904 C905 1.377 . S
C905 H889 0.930 . S
C905 C904 1.377 . S
C905 C906 1.379 . S
C906 H890 0.931 . S
C906 C900 1.383 . S
C906 C905 1.379 . S
H907 C901 0.959 . S
H908 C901 0.961 . S
H909 C901 0.960 . S
H910 C902 0.930 . S
H911 C903 0.929 . S
H912 C920 0.929 . S
H913 C922 0.930 . S
H914 C924 0.930 . S
H915 C927 0.929 . S
H916 C930 0.930 . S
H917 C932 0.960 . S
H918 C932 0.960 . S
H919 C932 0.960 . S
C920 H912 0.929 . S
C920 C921 1.377 . S
C920 C922 1.384 . S
C921 C920 1.377 . S
C921 C927 1.390 . S
C922 H913 0.930 . S
C922 C920 1.384 . S
C922 C923 1.372 . S
C923 C922 1.372 . S
C923 C924 1.400 . S
C923 C928 1.490 . S
C924 H914 0.930 . S
C924 C923 1.400 . S
C924 C927 1.386 . S
H925 C941 0.930 . S
H926 C942 0.931 . S
C927 H915 0.929 . S
C927 C921 1.390 . S
C927 C924 1.386 . S
C928 C923 1.490 . S
C928 C930 1.395 . S
C928 C931 1.403 . S
H929 C935 0.930 . S
C930 H916 0.930 . S
C930 C928 1.395 . S
C930 C933 1.403 . S
C931 C928 1.403 . S
C931 C932 1.524 . S
C931 C935 1.400 . S
C932 H917 0.960 . S
C932 H918 0.960 . S
C932 H919 0.960 . S
C932 C931 1.524 . S
C933 C930 1.403 . S
C933 C934 1.392 . S
C933 C937 1.495 . S
C934 C933 1.392 . S
C934 C935 1.385 . S
C934 C936 1.478 . S
C935 H929 0.930 . S
C935 C931 1.400 . S
C935 C934 1.385 . S
C936 C934 1.478 . S
C936 C938 1.381 . S
C936 C942 1.383 . S
C937 C933 1.495 . S
C937 H943 0.959 . S
C937 H944 0.961 . S
C937 H945 0.960 . S
C938 C936 1.381 . S
C938 C939 1.394 . S
C938 H946 0.930 . S
C939 C938 1.394 . S
C939 C940 1.383 . S
C939 H947 0.929 . S
C940 C939 1.383 . S
C940 C941 1.377 . S
C941 H925 0.930 . S
C941 C940 1.377 . S
C941 C942 1.379 . S
C942 H926 0.931 . S
C942 C936 1.383 . S
C942 C941 1.379 . S
H943 C937 0.959 . S
H944 C937 0.961 . S
H945 C937 0.960 . S
H946 C938 0.930 . S
H947 C939 0.929 . S
H948 C956 0.929 . S
H949 C958 0.930 . S
H950 C960 0.930 . S
H951 C963 0.929 . S
H952 C966 0.930 . S
H953 C968 0.960 . S
H954 C968 0.960 . S
H955 C968 0.960 . S
C956 H948 0.929 . S
C956 C957 1.377 . S
C956 C958 1.384 . S
C957 C956 1.377 . S
C957 C963 1.390 . S
C958 H949 0.930 . S
C958 C956 1.384 . S
C958 C959 1.372 . S
C959 C958 1.372 . S
C959 C960 1.400 . S
C959 C964 1.490 . S
C960 H950 0.930 . S
C960 C959 1.400 . S
C960 C963 1.386 . S
H961 C977 0.930 . S
H962 C978 0.931 . S
C963 H951 0.929 . S
C963 C957 1.390 . S
C963 C960 1.386 . S
C964 C959 1.490 . S
C964 C966 1.395 . S
C964 C967 1.403 . S
H965 C971 0.930 . S
C966 H952 0.930 . S
C966 C964 1.395 . S
C966 C969 1.403 . S
C967 C964 1.403 . S
C967 C968 1.524 . S
C967 C971 1.400 . S
C968 H953 0.960 . S
C968 H954 0.960 . S
C968 H955 0.960 . S
C968 C967 1.524 . S
C969 C966 1.403 . S
C969 C970 1.392 . S
C969 C973 1.495 . S
C970 C969 1.392 . S
C970 C971 1.385 . S
C970 C972 1.478 . S
C971 H965 0.930 . S
C971 C967 1.400 . S
C971 C970 1.385 . S
C972 C970 1.478 . S
C972 C974 1.381 . S
C972 C978 1.383 . S
C973 C969 1.495 . S
C973 H979 0.959 . S
C973 H980 0.961 . S
C973 H981 0.960 . S
C974 C972 1.381 . S
C974 C975 1.394 . S
C974 H982 0.930 . S
C975 C974 1.394 . S
C975 C976 1.383 . S
C975 H983 0.929 . S
C976 C975 1.383 . S
C976 C977 1.377 . S
C977 H961 0.930 . S
C977 C976 1.377 . S
C977 C978 1.379 . S
C978 H962 0.931 . S
C978 C972 1.383 . S
C978 C977 1.379 . S
H979 C973 0.959 . S
H980 C973 0.961 . S
H981 C973 0.960 . S
H982 C974 0.930 . S
H983 C975 0.929 . S
H984 C992 0.929 . S
H985 C994 0.930 . S
H986 C996 0.930 . S
H987 C999 0.929 . S
H988 C1002 0.930 . S
H989 C1004 0.960 . S
H990 C1004 0.960 . S
H991 C1004 0.960 . S
C992 H984 0.929 . S
C992 C993 1.377 . S
C992 C994 1.384 . S
C993 C992 1.377 . S
C993 C999 1.390 . S
C994 H985 0.930 . S
C994 C992 1.384 . S
C994 C995 1.372 . S
C995 C994 1.372 . S
C995 C996 1.400 . S
C995 C1000 1.490 . S
C996 H986 0.930 . S
C996 C995 1.400 . S
C996 C999 1.386 . S
H997 C1013 0.930 . S
H998 C1014 0.931 . S
C999 H987 0.929 . S
C999 C993 1.390 . S
C999 C996 1.386 . S
C1000 C995 1.490 . S
C1000 C1002 1.395 . S
C1000 C1003 1.403 . S
H1001 C1007 0.930 . S
C1002 H988 0.930 . S
C1002 C1000 1.395 . S
C1002 C1005 1.403 . S
C1003 C1000 1.403 . S
C1003 C1004 1.524 . S
C1003 C1007 1.400 . S
C1004 H989 0.960 . S
C1004 H990 0.960 . S
C1004 H991 0.960 . S
C1004 C1003 1.524 . S
C1005 C1002 1.403 . S
C1005 C1006 1.392 . S
C1005 C1009 1.495 . S
C1006 C1005 1.392 . S
C1006 C1007 1.385 . S
C1006 C1008 1.478 . S
C1007 H1001 0.930 . S
C1007 C1003 1.400 . S
C1007 C1006 1.385 . S
C1008 C1006 1.478 . S
C1008 C1010 1.381 . S
C1008 C1014 1.383 . S
C1009 C1005 1.495 . S
C1009 H1015 0.959 . S
C1009 H1016 0.961 . S
C1009 H1017 0.960 . S
C1010 C1008 1.381 . S
C1010 C1011 1.394 . S
C1010 H1018 0.930 . S
C1011 C1010 1.394 . S
C1011 C1012 1.383 . S
C1011 H1019 0.929 . S
C1012 C1011 1.383 . S
C1012 C1013 1.377 . S
C1013 H997 0.930 . S
C1013 C1012 1.377 . S
C1013 C1014 1.379 . S
C1014 H998 0.931 . S
C1014 C1008 1.383 . S
C1014 C1013 1.379 . S
H1015 C1009 0.959 . S
H1016 C1009 0.961 . S
H1017 C1009 0.960 . S
H1018 C1010 0.930 . S
H1019 C1011 0.929 . S
H1020 C1028 0.929 . S
H1021 C1030 0.930 . S
H1022 C1032 0.930 . S
H1023 C1035 0.929 . S
H1024 C1038 0.930 . S
H1025 C1040 0.960 . S
H1026 C1040 0.960 . S
H1027 C1040 0.960 . S
C1028 H1020 0.929 . S
C1028 C1029 1.377 . S
C1028 C1030 1.384 . S
C1029 C1028 1.377 . S
C1029 C1035 1.390 . S
C1030 H1021 0.930 . S
C1030 C1028 1.384 . S
C1030 C1031 1.372 . S
C1031 C1030 1.372 . S
C1031 C1032 1.400 . S
C1031 C1036 1.490 . S
C1032 H1022 0.930 . S
C1032 C1031 1.400 . S
C1032 C1035 1.386 . S
H1033 C1049 0.930 . S
H1034 C1050 0.931 . S
C1035 H1023 0.929 . S
C1035 C1029 1.390 . S
C1035 C1032 1.386 . S
C1036 C1031 1.490 . S
C1036 C1038 1.395 . S
C1036 C1039 1.403 . S
H1037 C1043 0.930 . S
C1038 H1024 0.930 . S
C1038 C1036 1.395 . S
C1038 C1041 1.403 . S
C1039 C1036 1.403 . S
C1039 C1040 1.524 . S
C1039 C1043 1.400 . S
C1040 H1025 0.960 . S
C1040 H1026 0.960 . S
C1040 H1027 0.960 . S
C1040 C1039 1.524 . S
C1041 C1038 1.403 . S
C1041 C1042 1.392 . S
C1041 C1045 1.495 . S
C1042 C1041 1.392 . S
C1042 C1043 1.385 . S
C1042 C1044 1.478 . S
C1043 H1037 0.930 . S
C1043 C1039 1.400 . S
C1043 C1042 1.385 . S
C1044 C1042 1.478 . S
C1044 C1046 1.381 . S
C1044 C1050 1.383 . S
C1045 C1041 1.495 . S
C1045 H1051 0.959 . S
C1045 H1052 0.961 . S
C1045 H1053 0.960 . S
C1046 C1044 1.381 . S
C1046 C1047 1.394 . S
C1046 H1054 0.930 . S
C1047 C1046 1.394 . S
C1047 C1048 1.383 . S
C1047 H1055 0.929 . S
C1048 C1047 1.383 . S
C1048 C1049 1.377 . S
C1049 H1033 0.930 . S
C1049 C1048 1.377 . S
C1049 C1050 1.379 . S
C1050 H1034 0.931 . S
C1050 C1044 1.383 . S
C1050 C1049 1.379 . S
H1051 C1045 0.959 . S
H1052 C1045 0.961 . S
H1053 C1045 0.960 . S
H1054 C1046 0.930 . S
H1055 C1047 0.929 . S
H1056 C1064 0.929 . S
H1057 C1066 0.930 . S
H1058 C1068 0.930 . S
H1059 C1071 0.929 . S
H1060 C1074 0.930 . S
H1061 C1076 0.960 . S
H1062 C1076 0.960 . S
H1063 C1076 0.960 . S
C1064 H1056 0.929 . S
C1064 C1065 1.377 . S
C1064 C1066 1.384 . S
C1065 C1064 1.377 . S
C1065 C1071 1.390 . S
C1066 H1057 0.930 . S
C1066 C1064 1.384 . S
C1066 C1067 1.372 . S
C1067 C1066 1.372 . S
C1067 C1068 1.400 . S
C1067 C1072 1.490 . S
C1068 H1058 0.930 . S
C1068 C1067 1.400 . S
C1068 C1071 1.386 . S
H1069 C1085 0.930 . S
H1070 C1086 0.931 . S
C1071 H1059 0.929 . S
C1071 C1065 1.390 . S
C1071 C1068 1.386 . S
C1072 C1067 1.490 . S
C1072 C1074 1.395 . S
C1072 C1075 1.403 . S
H1073 C1079 0.930 . S
C1074 H1060 0.930 . S
C1074 C1072 1.395 . S
C1074 C1077 1.403 . S
C1075 C1072 1.403 . S
C1075 C1076 1.524 . S
C1075 C1079 1.400 . S
C1076 H1061 0.960 . S
C1076 H1062 0.960 . S
C1076 H1063 0.960 . S
C1076 C1075 1.524 . S
C1077 C1074 1.403 . S
C1077 C1078 1.392 . S
C1077 C1081 1.495 . S
C1078 C1077 1.392 . S
C1078 C1079 1.385 . S
C1078 C1080 1.478 . S
C1079 H1073 0.930 . S
C1079 C1075 1.400 . S
C1079 C1078 1.385 . S
C1080 C1078 1.478 . S
C1080 C1082 1.381 . S
C1080 C1086 1.383 . S
C1081 C1077 1.495 . S
C1081 H1087 0.959 . S
C1081 H1088 0.961 . S
C1081 H1089 0.960 . S
C1082 C1080 1.381 . S
C1082 C1083 1.394 . S
C1082 H1090 0.930 . S
C1083 C1082 1.394 . S
C1083 C1084 1.383 . S
C1083 H1091 0.929 . S
C1084 C1083 1.383 . S
C1084 C1085 1.377 . S
C1085 H1069 0.930 . S
C1085 C1084 1.377 . S
C1085 C1086 1.379 . S
C1086 H1070 0.931 . S
C1086 C1080 1.383 . S
C1086 C1085 1.379 . S
H1087 C1081 0.959 . S
H1088 C1081 0.961 . S
H1089 C1081 0.960 . S
H1090 C1082 0.930 . S
H1091 C1083 0.929 . S
H1092 C1100 0.929 . S
H1093 C1102 0.930 . S
H1094 C1104 0.930 . S
H1095 C1107 0.929 . S
H1096 C1110 0.930 . S
H1097 C1112 0.960 . S
H1098 C1112 0.960 . S
H1099 C1112 0.960 . S
C1100 H1092 0.929 . S
C1100 C1101 1.377 . S
C1100 C1102 1.384 . S
C1101 C1100 1.377 . S
C1101 C1107 1.390 . S
C1102 H1093 0.930 . S
C1102 C1100 1.384 . S
C1102 C1103 1.372 . S
C1103 C1102 1.372 . S
C1103 C1104 1.400 . S
C1103 C1108 1.490 . S
C1104 H1094 0.930 . S
C1104 C1103 1.400 . S
C1104 C1107 1.386 . S
H1105 C1121 0.930 . S
H1106 C1122 0.931 . S
C1107 H1095 0.929 . S
C1107 C1101 1.390 . S
C1107 C1104 1.386 . S
C1108 C1103 1.490 . S
C1108 C1110 1.395 . S
C1108 C1111 1.403 . S
H1109 C1115 0.930 . S
C1110 H1096 0.930 . S
C1110 C1108 1.395 . S
C1110 C1113 1.403 . S
C1111 C1108 1.403 . S
C1111 C1112 1.524 . S
C1111 C1115 1.400 . S
C1112 H1097 0.960 . S
C1112 H1098 0.960 . S
C1112 H1099 0.960 . S
C1112 C1111 1.524 . S
C1113 C1110 1.403 . S
C1113 C1114 1.392 . S
C1113 C1117 1.495 . S
C1114 C1113 1.392 . S
C1114 C1115 1.385 . S
C1114 C1116 1.478 . S
C1115 H1109 0.930 . S
C1115 C1111 1.400 . S
C1115 C1114 1.385 . S
C1116 C1114 1.478 . S
C1116 C1118 1.381 . S
C1116 C1122 1.383 . S
C1117 C1113 1.495 . S
C1117 H1123 0.959 . S
C1117 H1124 0.961 . S
C1117 H1125 0.960 . S
C1118 C1116 1.381 . S
C1118 C1119 1.394 . S
C1118 H1126 0.930 . S
C1119 C1118 1.394 . S
C1119 C1120 1.383 . S
C1119 H1127 0.929 . S
C1120 C1119 1.383 . S
C1120 C1121 1.377 . S
C1121 H1105 0.930 . S
C1121 C1120 1.377 . S
C1121 C1122 1.379 . S
C1122 H1106 0.931 . S
C1122 C1116 1.383 . S
C1122 C1121 1.379 . S
H1123 C1117 0.959 . S
H1124 C1117 0.961 . S
H1125 C1117 0.960 . S
H1126 C1118 0.930 . S
H1127 C1119 0.929 . S
C273 C9 1.505 . S
C292 C111 1.524 . S
C309 C21 1.037 . S
C328 C160 1.027 . S
C364 C186 2.085 . S
C345 C30 2.060 . S
C381 C43 2.069 . S
C400 C234 2.140 1_655 S
C436 C146 2.152 . S
C417 C4 1.933 . S
C472 C114 1.723 . S
C453 C22 1.762 . S
C508 C235 1.407 1_556 S
C489 C34 1.469 . S
C544 C203 1.324 . S
C525 C48 1.365 . S
C561 C8 1.635 . S
C580 C231 1.660 . S
C616 C163 2.244 . S
C597 C35 2.312 . S
C633 C47 2.566 . S
C652 C115 2.555 . S
C669 C17 0.698 . S
C688 C200 0.696 . S
C724 C120 1.044 . S
C705 C60 1.044 . S
C741 C74 1.121 . S
C760 C151 1.100 . S
C777 C82 1.790 . S
C796 C195 1.848 . S
C813 C100 2.697 . S
C832 C243 2.611 . S
C849 C61 2.601 . S
C868 C155 2.676 . S
C904 C123 0.922 . S
C885 C73 0.909 . S
C940 C226 2.125 . S
C921 C87 2.157 . S
C976 C194 1.127 . S
C957 C95 1.103 . S
C993 C56 1.587 . S
C1012 C240 1.593 . S
C1048 C154 2.444 . S
C1029 C86 2.521 . S
C1084 C106 2.283 . S
C1065 C99 2.294 . S
C1101 C69 0.655 . S
C1120 C191 0.645 . S
