# Generated by pormake.
# Topology anh, (6,3)-cn, num edge types: 1
# Building blocks:
#     Node 0, Type 0, BuildingBlock: BETFEN_clean_sbu_0, # of connection points: 6
#     Node 1, Type 0, BuildingBlock: BETFEN_clean_sbu_0, # of connection points: 6
#     Node 2, Type 0, BuildingBlock: BETFEN_clean_sbu_0, # of connection points: 6
#     Node 3, Type 1, BuildingBlock: BETDIP_clean_linker_0, # of connection points: 3
#     Node 4, Type 1, BuildingBlock: BETDIP_clean_linker_0, # of connection points: 3
#     Node 5, Type 1, BuildingBlock: BETDIP_clean_linker_0, # of connection points: 3
#     Node 6, Type 1, BuildingBlock: BETDIP_clean_linker_0, # of connection points: 3
#     Node 7, Type 1, BuildingBlock: BETDIP_clean_linker_0, # of connection points: 3
#     Node 8, Type 1, BuildingBlock: BETDIP_clean_linker_0, # of connection points: 3
#     Edge 9, Type (0, 1), BuildingBlock: CIFDUS_clean_linker_0, # of connection points: 2
#     Edge 10, Type (0, 1), BuildingBlock: CIFDUS_clean_linker_0, # of connection points: 2
#     Edge 11, Type (0, 1), BuildingBlock: CIFDUS_clean_linker_0, # of connection points: 2
#     Edge 12, Type (0, 1), BuildingBlock: CIFDUS_clean_linker_0, # of connection points: 2
#     Edge 13, Type (0, 1), BuildingBlock: CIFDUS_clean_linker_0, # of connection points: 2
#     Edge 14, Type (0, 1), BuildingBlock: CIFDUS_clean_linker_0, # of connection points: 2
#     Edge 15, Type (0, 1), BuildingBlock: CIFDUS_clean_linker_0, # of connection points: 2
#     Edge 16, Type (0, 1), BuildingBlock: CIFDUS_clean_linker_0, # of connection points: 2
#     Edge 17, Type (0, 1), BuildingBlock: CIFDUS_clean_linker_0, # of connection points: 2
#     Edge 18, Type (0, 1), BuildingBlock: CIFDUS_clean_linker_0, # of connection points: 2
#     Edge 19, Type (0, 1), BuildingBlock: CIFDUS_clean_linker_0, # of connection points: 2
#     Edge 20, Type (0, 1), BuildingBlock: CIFDUS_clean_linker_0, # of connection points: 2
#     Edge 21, Type (0, 1), BuildingBlock: CIFDUS_clean_linker_0, # of connection points: 2
#     Edge 22, Type (0, 1), BuildingBlock: CIFDUS_clean_linker_0, # of connection points: 2
#     Edge 23, Type (0, 1), BuildingBlock: CIFDUS_clean_linker_0, # of connection points: 2
#     Edge 24, Type (0, 1), BuildingBlock: CIFDUS_clean_linker_0, # of connection points: 2
#     Edge 25, Type (0, 1), BuildingBlock: CIFDUS_clean_linker_0, # of connection points: 2
#     Edge 26, Type (0, 1), BuildingBlock: CIFDUS_clean_linker_0, # of connection points: 2
# Relax obj value: 0.184
# Max RMSD: 0.191
# Mean RMSD: 0.135
data_MOF--net-anh--node1-BETFEN_clean_sbu_0--node2-BETDIP_clean_linker_0--edge1-CIFDUS_clean_linker_0
_symmetry_space_group_name_H-M    P1
_symmetry_Int_Tables_number       1
_symmetry_cell_setting            triclinic
loop_
_symmetry_equiv_pos_as_xyz
'x, y, z'
_cell_length_a     26.231086
_cell_length_b     27.259614
_cell_length_c     43.689731
_cell_angle_alpha  93.720595
_cell_angle_beta   93.176582
_cell_angle_gamma 100.95254
loop_
_atom_site_label
_atom_site_type_symbol
_atom_site_fract_x
_atom_site_fract_y
_atom_site_fract_z
_atom_type_partial_charge
Pr0 Pr 0.04484 0.57306 0.144 0.0
Pr1 Pr 0.05911 0.68074 0.12981 0.0
C2 C 1.0141 0.48374 0.1673 0.0
C3 C 0.96493 0.45675 0.17788 0.0
C4 C 0.95427 0.40425 0.17641 0.0
C5 C 0.9074 0.37844 0.18627 0.0
C6 C 0.87041 0.40481 0.19776 0.0
C7 C 0.88114 0.45748 0.19882 0.0
C8 C 0.92794 0.48316 0.18903 0.0
C9 C 0.04477 0.58591 0.08135 0.0
C10 C 0.94036 0.6276 0.13651 0.0
C11 C 0.09235 0.77297 0.11119 0.0
C12 C 0.14061 0.81011 0.11962 0.0
C13 C 0.139 0.86119 0.12419 0.0
C14 C 0.18298 0.8955 0.13688 0.0
C15 C 0.22915 0.8791 0.14535 0.0
C16 C 0.23125 0.82827 0.1393 0.0
C17 C 0.18743 0.79415 0.12671 0.0
C18 C 0.06279 0.66718 0.19255 0.0
C19 C 0.16346 0.62464 0.1327 0.0
O20 O 1.03677 0.52432 0.18405 0.0
O21 O 1.01481 0.48903 0.13781 0.0
O22 O 1.02108 0.60922 0.10012 0.0
O23 O 0.06865 0.55455 0.09467 0.0
O24 O 0.96878 0.66223 0.12159 0.0
O25 O 0.96214 0.59439 0.15056 0.0
O26 O 0.09718 0.73194 0.09527 0.0
O27 O 0.06101 0.76439 0.13328 0.0
O28 O 0.08471 0.64416 0.17287 0.0
O29 O 1.03951 0.6997 0.1803 0.0
O30 O 0.13626 0.58715 0.14611 0.0
O31 O 0.14109 0.66037 0.12227 0.0
H32 H 0.9823 0.38323 0.16778 0.0
H33 H 0.90054 0.33791 0.18542 0.0
H34 H 0.85319 0.47892 0.20706 0.0
H35 H 0.93523 0.52371 0.19024 0.0
H36 H 0.10312 0.8742 0.11916 0.0
H37 H 0.18002 0.93434 0.14148 0.0
H38 H 0.26643 0.81456 0.14516 0.0
H39 H 0.18974 0.75497 0.12365 0.0
Pr40 Pr 0.61578 0.12101 0.50218 0.0
Pr41 Pr 0.51275 0.09429 0.5257 0.0
C42 C 0.6986 0.15693 0.47074 0.0
C43 C 0.72605 0.20574 0.46205 0.0
C44 C 0.73369 0.24877 0.48258 0.0
C45 C 0.75982 0.29478 0.4738 0.0
C46 C 0.7781 0.2986 0.44424 0.0
C47 C 0.76993 0.25553 0.42369 0.0
C48 C 0.74426 0.20948 0.43258 0.0
C49 C 0.62252 0.10627 0.56408 0.0
C50 C 0.55507 0.21637 0.52447 0.0
C51 C 0.42467 1.05354 0.55086 0.0
C52 C 0.38768 1.00571 0.54317 0.0
C53 C 0.33445 1.00575 0.53777 0.0
C54 C 0.30033 0.96248 0.52505 0.0
C55 C 0.319 0.91848 0.51739 0.0
C56 C 0.37177 0.91777 0.5245 0.0
C57 C 0.40576 0.96092 0.53721 0.0
C58 C 0.51109 0.09894 0.46184 0.0
C59 C 0.57588 0.99869 0.50973 0.0
O60 O 0.652 0.14047 0.45752 0.0
O61 O 0.70215 0.14873 0.49985 0.0
O62 O 0.59102 0.13101 0.55218 0.0
O63 O 0.65133 0.08978 0.54417 0.0
O64 O 0.52403 0.1817 0.53829 0.0
O65 O 0.59036 0.20225 0.5069 0.0
O66 O 0.47105 1.05086 0.56251 0.0
O67 O 0.42596 0.0861 0.53013 0.0
O68 O 0.54072 0.07798 0.47775 0.0
O69 O 0.47997 0.11849 0.47875 0.0
O70 O 0.6106 1.0323 0.49726 0.0
O71 O 0.53651 1.01329 0.52307 0.0
H72 H 0.71937 0.24689 0.50535 0.0
H73 H 0.76504 0.32751 0.48994 0.0
H74 H 0.78396 0.25734 0.40085 0.0
H75 H 0.73856 0.17672 0.41641 0.0
H76 H 0.3197 1.03993 0.542 0.0
H77 H 0.25997 0.96433 0.51965 0.0
H78 H 0.38716 0.88424 0.5193 0.0
H79 H 0.44656 0.95961 0.54115 0.0
Pr80 Pr 0.47603 0.54078 0.82335 0.0
Pr81 Pr 0.49203 0.64964 0.82739 0.0
C82 C 0.45039 0.44028 0.81548 0.0
C83 C 0.47366 0.40074 0.82851 0.0
C84 C 0.47009 0.35477 0.81158 0.0
C85 C 0.49813 0.31969 0.82196 0.0
C86 C 0.5303 0.33017 0.84945 0.0
C87 C 0.53124 0.37516 0.86724 0.0
C88 C 0.50327 0.41023 0.8568 0.0
C89 C 0.49325 0.58172 0.88387 0.0
C90 C 0.59781 0.59709 0.83191 0.0
C91 C 0.5204 0.74923 0.84142 0.0
C92 C 0.56177 0.79025 0.83433 0.0
C93 C 0.59147 0.78498 0.80903 0.0
C94 C 0.63052 0.82455 0.80237 0.0
C95 C 0.64067 0.86977 0.82106 0.0
C96 C 0.61128 0.87447 0.84667 0.0
C97 C 0.57206 0.83498 0.85321 0.0
C98 C 0.48665 0.60779 0.76639 0.0
C99 C 0.37266 0.59392 0.82101 0.0
O100 O 0.4784 0.4673 0.7965 0.0
O101 O 0.42885 0.46701 0.83495 0.0
O102 O 0.46329 0.59567 0.86392 0.0
O103 O 0.51522 0.54652 0.87261 0.0
O104 O 0.57772 0.63739 0.83761 0.0
O105 O 0.56736 0.55371 0.82261 0.0
O106 O 0.48675 0.72938 0.8187 0.0
O107 O 0.53483 0.71602 0.85849 0.0
O108 O 0.51123 0.59477 0.78897 0.0
O109 O 0.46409 0.64445 0.7747 0.0
O110 O 0.39246 0.55694 0.80838 0.0
O111 O 0.40396 0.63273 0.8356 0.0
H112 H 0.44756 0.34697 0.78966 0.0
H113 H 0.49726 0.28582 0.80737 0.0
H114 H 0.55543 0.38418 0.88853 0.0
H115 H 0.50645 0.44559 0.87026 0.0
H116 H 0.58431 0.75037 0.79441 0.0
H117 H 0.65295 0.81971 0.78269 0.0
H118 H 0.61789 0.90905 0.86128 0.0
H119 H 0.54953 0.83946 0.8729 0.0
H120 H 0.49551 0.12647 0.1929 0.0
H121 H 0.55855 0.18013 0.28468 0.0
H122 H 0.41414 1.0747 0.27138 0.0
H123 H 0.59289 0.24869 0.26061 0.0
C124 C 0.60497 0.23256 0.23946 0.0
C125 C 0.49226 0.12724 0.21754 0.0
C126 C 0.45007 0.09641 0.22966 0.0
C127 C 0.53094 0.15862 0.23708 0.0
C128 C 0.52797 0.15799 0.26914 0.0
C129 C 0.48568 0.1281 0.28146 0.0
C130 C 0.44668 0.09787 0.2617 0.0
N131 N 0.57327 0.1889 0.22394 0.0
H132 H 0.56667 0.55538 0.5018 0.0
H133 H 0.5385 0.65377 0.57759 0.0
H134 H 0.53092 0.49791 0.58982 0.0
H135 H 0.61603 0.70683 0.54902 0.0
C136 C 0.58463 0.70391 0.53129 0.0
C137 C 0.55781 0.561 0.52552 0.0
C138 C 0.54977 0.51881 0.54426 0.0
C139 C 0.55421 0.61062 0.53767 0.0
C140 C 0.54181 0.61678 0.56826 0.0
C141 C 0.53217 0.5763 0.5868 0.0
C142 C 0.53718 0.5283 0.57487 0.0
N143 N 0.55916 0.65375 0.51935 0.0
H144 H 0.93412 0.57836 0.8142 0.0
H145 H 0.04348 0.60164 0.89333 0.0
H146 H 0.88034 0.59041 0.90538 0.0
H147 H 0.0711 0.66894 0.84841 0.0
C148 C 0.07909 0.63439 0.83753 0.0
C149 C 0.94193 0.58269 0.83893 0.0
C150 C 0.9007 0.58452 0.85833 0.0
C151 C 0.99381 0.58971 0.85165 0.0
C152 C 1.00365 0.59615 0.8837 0.0
C153 C 0.96307 0.59612 0.90329 0.0
C154 C 0.91194 0.59068 0.89037 0.0
N155 N 1.03677 0.59263 0.83268 0.0
H156 H 0.06547 0.66163 0.46323 0.0
H157 H 1.01091 0.6074 0.37015 0.0
H158 H 0.12255 0.74452 0.3873 0.0
H159 H 0.9395 0.57343 0.39258 0.0
C160 C 0.95441 0.56089 0.41377 0.0
C161 C 0.06566 0.66609 0.43876 0.0
C162 C 0.0987 0.70713 0.42781 0.0
C163 C 1.03291 0.63047 0.41829 0.0
C164 C 1.03448 0.6353 0.38646 0.0
C165 C 0.06635 0.67658 0.37532 0.0
C166 C 0.09814 0.71246 0.39601 0.0
N167 N 0.99961 0.58979 0.43028 0.0
H168 H 0.77191 0.15808 0.82644 0.0
H169 H 0.79382 0.1447 0.72954 0.0
H170 H 0.64431 0.15912 0.76053 0.0
H171 H 0.89457 0.12636 0.81983 0.0
C172 C 0.8564 0.11501 0.80778 0.0
C173 C 0.75625 0.15519 0.80277 0.0
C174 C 0.70407 0.1582 0.7963 0.0
C175 C 0.78853 0.14956 0.77862 0.0
C176 C 0.76867 0.14838 0.74807 0.0
C177 C 0.71639 0.15144 0.74146 0.0
C178 C 0.68444 0.15589 0.76564 0.0
N179 N 0.8411 0.14506 0.78483 0.0
H180 H 0.50417 0.61 0.15621 0.0
H181 H 0.59385 0.59464 0.07798 0.0
H182 H 0.4309 0.59716 0.06443 0.0
H183 H 0.60773 0.52599 0.12811 0.0
C184 C 0.62871 0.56361 0.13553 0.0
C185 C 0.50631 0.606 0.13151 0.0
C186 C 0.46138 0.60476 0.11175 0.0
C187 C 0.55403 0.60158 0.11918 0.0
C188 C 0.55675 0.59673 0.08722 0.0
C189 C 0.51278 0.59599 0.06727 0.0
C190 C 0.4654 0.5997 0.07976 0.0
N191 N 0.59989 0.60284 0.13851 0.0
H192 H 0.23341 0.5725 0.15943 0.0
H193 H 0.22121 0.68378 0.09473 0.0
H194 H 0.31224 0.69055 0.0851 0.0
H195 H 0.39486 0.66313 0.09278 0.0
H196 H 0.41035 0.55172 0.15638 0.0
H197 H 0.31962 0.54769 0.16915 0.0
C198 C 0.25073 0.5982 0.14326 0.0
C199 C 0.21989 0.62746 0.12785 0.0
C200 C 0.30408 0.60224 0.1377 0.0
C201 C 0.24346 0.66086 0.10715 0.0
C202 C 0.29581 0.66482 0.1015 0.0
C203 C 0.37854 0.63816 0.10962 0.0
C204 C 0.40936 0.60755 0.12343 0.0
C205 C 0.32637 0.63552 0.11641 0.0
C206 C 0.3877 0.57597 0.14554 0.0
C207 C 0.33559 0.5733 0.15259 0.0
H208 H 0.85634 0.36527 0.47616 0.0
H209 H 0.76107 0.34095 0.39081 0.0
H210 H 0.80688 0.42044 0.37428 0.0
H211 H 0.87454 0.49639 0.38385 0.0
H212 H 0.97146 0.52021 0.46855 0.0
H213 H 0.92433 0.44162 0.48573 0.0
C214 C 0.84542 0.37767 0.45407 0.0
C215 C 0.80544 0.34736 0.43471 0.0
C216 C 0.87222 0.42322 0.44462 0.0
C217 C 0.79206 0.36345 0.40596 0.0
C218 C 0.81808 0.40894 0.39656 0.0
C219 C 0.88518 0.48434 0.4061 0.0
C220 C 0.92622 0.51392 0.4249 0.0
C221 C 0.85832 0.43899 0.41564 0.0
C222 C 0.93997 0.49801 0.45363 0.0
C223 C 0.91302 0.4531 0.46347 0.0
H224 H 0.71439 0.93018 0.86002 0.0
H225 H 0.65638 0.90513 0.76479 0.0
H226 H 0.71983 0.97738 0.75203 0.0
H227 H 0.79001 1.04866 0.76808 0.0
H228 H 0.84763 1.07563 0.86317 0.0
H229 H 0.78665 1.00091 0.8759 0.0
C230 C 0.71563 0.94069 0.83651 0.0
C231 C 0.68071 0.91247 0.81339 0.0
C232 C 0.75209 0.98239 0.82936 0.0
C233 C 0.6832 0.92597 0.78293 0.0
C234 C 0.71926 0.96739 0.77564 0.0
C235 C 0.78876 1.03851 0.79166 0.0
C236 C 0.82203 1.06811 0.8149 0.0
C237 C 0.75354 0.99603 0.7987 0.0
C238 C 0.82179 1.05345 0.84506 0.0
C239 C 0.78688 1.01097 0.85231 0.0
H240 H 0.86629 0.54992 0.15171 0.0
H241 H 0.88525 0.70008 0.12252 0.0
H242 H 0.79126 0.69586 0.12238 0.0
H243 H 0.70238 0.64785 0.12832 0.0
H244 H 0.68402 0.49571 0.15376 0.0
H245 H 0.77849 0.50256 0.15808 0.0
C246 C 0.85001 0.58192 0.14555 0.0
C247 C 0.88311 0.62529 0.13718 0.0
C248 C 0.79568 0.57891 0.14497 0.0
C249 C 0.86091 0.66611 0.12894 0.0
C250 C 0.80702 0.66378 0.12892 0.0
C251 C 0.71923 0.61661 0.13532 0.0
C252 C 0.68627 0.57152 0.14116 0.0
C253 C 0.77385 0.62023 0.13666 0.0
C254 C 0.70861 0.53091 0.14942 0.0
C255 C 0.76264 0.53472 0.15175 0.0
H256 H 0.21824 0.87608 0.52633 0.0
H257 H 0.34319 0.86427 0.46769 0.0
H258 H 0.28676 0.79673 0.43572 0.0
H259 H 0.20107 0.74339 0.42295 0.0
H260 H 0.0753 0.75453 0.48086 0.0
H261 H 0.13278 0.81976 0.51461 0.0
C262 C 0.23304 0.85861 0.50657 0.0
C263 C 0.28489 0.87518 0.49948 0.0
C264 C 0.2002 0.8198 0.48809 0.0
C265 C 0.3037 0.85182 0.47397 0.0
C266 C 0.27134 0.81342 0.4555 0.0
C267 C 0.18627 0.7602 0.44295 0.0
C268 C 0.134 0.74457 0.44929 0.0
C269 C 0.21943 0.7975 0.46214 0.0
C270 C 0.1155 0.76589 0.47558 0.0
C271 C 0.14827 0.8033 0.49478 0.0
H272 H 0.51505 0.22821 0.84526 0.0
H273 H 0.63286 0.36114 0.86832 0.0
H274 H 0.70083 0.31245 0.86271 0.0
H275 H 0.72553 0.23886 0.8369 0.0
H276 H 0.6078 0.10857 0.80824 0.0
H277 H 0.54141 0.1486 0.83087 0.0
C278 C 0.55561 0.24614 0.84985 0.0
C279 C 0.56887 0.29836 0.85627 0.0
C280 C 0.59467 0.21835 0.84508 0.0
C281 C 0.62145 0.32103 0.86311 0.0
C282 C 0.66052 0.29326 0.85958 0.0
C283 C 0.68578 0.21841 0.83701 0.0
C284 C 0.67107 0.17148 0.82054 0.0
C285 C 0.64755 0.24277 0.84849 0.0
C286 C 0.61958 0.14509 0.82063 0.0
C287 C 0.58161 0.16819 0.83323 0.0
H288 H 0.50273 0.90771 0.50653 0.0
H289 H 0.66785 0.96682 0.51671 0.0
H290 H 0.68459 0.88281 0.52311 0.0
H291 H 0.65325 0.79219 0.52831 0.0
H292 H 0.48968 0.72953 0.51342 0.0
H293 H 0.47173 0.81374 0.50613 0.0
C294 C 0.54245 0.90224 0.50992 0.0
C295 C 0.584 0.94478 0.51123 0.0
C296 C 0.5522 0.85252 0.51268 0.0
C297 C 0.63498 0.93578 0.51538 0.0
C298 C 0.64465 0.88734 0.51917 0.0
C299 C 0.61362 0.7966 0.52286 0.0
C300 C 0.57302 0.75358 0.52121 0.0
C301 C 0.60374 0.84536 0.5181 0.0
C302 C 0.52202 0.76101 0.51436 0.0
C303 C 0.51172 0.80964 0.51047 0.0
H304 H 0.66116 0.53295 0.81115 0.0
H305 H 0.66473 0.67236 0.86499 0.0
H306 H 0.758 0.68195 0.87586 0.0
H307 H 0.83861 0.65012 0.8722 0.0
H308 H 0.83885 0.51248 0.81805 0.0
H309 H 0.74493 0.50336 0.80476 0.0
C310 C 0.68241 0.5654 0.82522 0.0
C311 C 0.65538 0.60168 0.83734 0.0
C312 C 0.73703 0.57126 0.83122 0.0
C313 C 0.68396 0.64375 0.85526 0.0
C314 C 0.73758 0.64938 0.86157 0.0
C315 C 0.81819 0.61831 0.85723 0.0
C316 C 0.84569 0.58193 0.84625 0.0
C317 C 0.76446 0.61333 0.8499 0.0
C318 C 0.81873 0.54119 0.82665 0.0
C319 C 0.7649 0.5358 0.81929 0.0
H320 H 0.272 0.97567 0.13461 0.0
H321 H 0.28517 0.86002 0.1959 0.0
H322 H 0.35559 0.91627 0.22642 0.0
H323 H 0.41177 0.99877 0.23682 0.0
H324 H 0.39931 0.11563 0.17652 0.0
H325 H 0.33064 1.05849 0.14441 0.0
C326 C 0.29031 0.9629 0.15466 0.0
C327 C 0.2734 0.91362 0.16286 0.0
C328 C 0.33088 0.99564 0.17231 0.0
C329 C 0.29787 0.89746 0.18876 0.0
C330 C 0.33796 0.92971 0.20639 0.0
C331 C 0.39383 1.01182 0.21673 0.0
C332 C 0.41017 1.06147 0.20923 0.0
C333 C 0.35449 0.97892 0.19853 0.0
C334 C 0.38745 0.07751 0.18272 0.0
C335 C 0.34804 1.04494 0.16446 0.0
H336 H 0.61025 0.30534 0.50129 0.0
H337 H 0.48406 0.25342 0.55789 0.0
H338 H 0.46959 0.33837 0.56661 0.0
H339 H 0.49167 0.42826 0.55955 0.0
H340 H 0.61879 0.48463 0.50498 0.0
H341 H 0.6322 0.39854 0.49364 0.0
C342 C 0.57955 0.31243 0.51556 0.0
C343 C 0.54857 0.2713 0.52893 0.0
C344 C 0.57098 0.36295 0.5208 0.0
C345 C 0.50903 0.28282 0.5472 0.0
C346 C 0.50045 0.33202 0.55226 0.0
C347 C 0.52287 0.42245 0.54533 0.0
C348 C 0.55449 0.4647 0.53364 0.0
C349 C 0.53114 0.37254 0.53939 0.0
C350 C 0.59327 0.45415 0.51441 0.0
C351 C 0.60134 0.4044 0.50811 0.0
H352 H 0.32341 0.67066 0.83462 0.0
H353 H 0.29233 0.51355 0.80428 0.0
H354 H 0.19839 0.51124 0.80542 0.0
H355 H 0.12438 0.55405 0.81736 0.0
H356 H 0.1591 0.71163 0.84704 0.0
H357 H 0.25163 0.71342 0.84374 0.0
C358 C 0.29626 0.63579 0.82813 0.0
C359 C 0.31525 0.59228 0.81957 0.0
C360 C 0.24249 0.63482 0.82878 0.0
C361 C 0.27904 0.5477 0.81097 0.0
C362 C 0.22519 0.54634 0.81171 0.0
C363 C 0.15224 0.58875 0.82281 0.0
C364 C 0.13462 0.63272 0.83253 0.0
C365 C 0.20629 0.58965 0.82088 0.0
C366 C 0.17142 0.67729 0.83954 0.0
C367 C 0.22452 0.6784 0.83772 0.0
H368 H 0.80618 0.3195 0.17203 0.0
H369 H 0.82443 0.42939 0.24955 0.0
H370 H 0.74378 0.3861 0.26872 0.0
H371 H 0.66834 0.31674 0.26387 0.0
H372 H 0.64982 0.20605 0.1869 0.0
H373 H 0.73041 0.24956 0.16728 0.0
C374 C 0.79269 0.33373 0.19323 0.0
C375 C 0.82131 0.37776 0.20925 0.0
C376 C 0.74623 0.30849 0.20424 0.0
C377 C 0.80286 0.39604 0.2365 0.0
C378 C 0.75687 0.37115 0.2476 0.0
C379 C 0.68199 0.30224 0.24276 0.0
C380 C 0.65324 0.25841 0.22686 0.0
C381 C 0.72825 0.3274 0.23167 0.0
C382 C 0.67122 0.23984 0.19957 0.0
C383 C 0.71733 0.26468 0.18835 0.0
H384 H 0.98232 0.63561 0.04836 0.0
H385 H 0.09112 0.53603 0.0387 0.0
H386 H 0.07617 0.53117 0.98287 0.0
H387 H 1.02969 0.55223 0.93695 0.0
H388 H 0.92127 0.65231 0.946 0.0
H389 H 0.93795 0.65931 0.00187 0.0
C390 C 1.00293 0.61312 0.03398 0.0
C391 C 1.03756 0.58602 0.0476 0.0
C392 C 0.99385 0.61017 0.00182 0.0
C393 C 0.06408 0.55706 0.02874 0.0
C394 C 0.05553 0.5542 -0.00318 0.0
C395 C 1.01019 0.57613 0.95108 0.0
C396 C 0.97419 0.60158 0.93725 0.0
C397 C 1.02015 0.58019 0.98313 0.0
C398 C 0.94863 0.63171 0.95604 0.0
C399 C 0.95838 0.63599 0.98799 0.0
H400 H 0.44424 0.13381 0.42262 0.0
H401 H 0.58104 1.06744 0.42559 0.0
H402 H 0.58678 1.073 0.37037 0.0
H403 H 0.55274 0.09627 0.32094 0.0
H404 H 0.41227 0.15624 0.31667 0.0
H405 H 0.40778 0.15359 0.37253 0.0
C406 C 0.47521 0.12057 0.4111 0.0
C407 C 0.51258 0.10093 0.4282 0.0
C408 C 0.47754 0.12272 0.37911 0.0
C409 C 0.55218 0.08332 0.41299 0.0
C410 C 0.55545 0.08636 0.38139 0.0
C411 C 0.52137 0.1089 0.3324 0.0
C412 C 0.48317 0.12685 0.31509 0.0
C413 C 0.51845 0.10607 0.36423 0.0
C414 C 0.44212 0.14245 0.32981 0.0
C415 C 0.43959 0.14092 0.36164 0.0
H416 H 0.44866 0.6412 0.71382 0.0
H417 H 0.54646 0.54247 0.74673 0.0
H418 H 0.56838 0.52307 0.69433 0.0
H419 H 0.56331 0.53718 0.63934 0.0
H420 H 0.46337 0.63385 0.60605 0.0
H421 H 0.43946 0.65134 0.65821 0.0
C422 C 0.47445 0.61519 0.70945 0.0
C423 C 0.49612 0.59361 0.73417 0.0
C424 C 0.48704 0.60416 0.67916 0.0
C425 C 0.52935 0.55979 0.72813 0.0
C426 C 0.54203 0.5487 0.69815 0.0
C427 C 0.53574 0.56152 0.64338 0.0
C428 C 0.51577 0.58455 0.61867 0.0
C429 C 0.52159 0.57108 0.67349 0.0
C430 C 0.4804 0.61641 0.6246 0.0
C431 C 0.46633 0.62621 0.65445 0.0
H432 H 0.60819 0.17226 0.61125 0.0
H433 H 0.66712 1.03741 0.59051 0.0
H434 H 0.70192 1.0395 0.64355 0.0
H435 H 0.72003 0.08197 0.69518 0.0
H436 H 0.66219 0.21699 0.71669 0.0
H437 H 0.62298 0.21293 0.66417 0.0
C438 C 0.62786 0.14301 0.6186 0.0
C439 C 0.63536 0.1049 0.59715 0.0
C440 C 0.64879 0.14495 0.64912 0.0
C441 C 0.66123 1.06731 0.60673 0.0
C442 C 0.68135 1.06855 0.63698 0.0
C443 C 0.69916 0.11063 0.6882 0.0
C444 C 0.6944 0.14993 0.70946 0.0
C445 C 0.67639 0.10776 0.65819 0.0
C446 C 0.66638 0.18641 0.70051 0.0
C447 C 0.6439 0.18406 0.67056 0.0
H448 H 0.54459 0.54224 0.928 0.0
H449 H 0.44344 0.64781 0.91469 0.0
H450 H 0.44176 0.66282 0.97062 0.0
H451 H 0.46745 0.64374 0.02314 0.0
H452 H 0.56534 0.53468 0.03516 0.0
H453 H 0.57032 0.52367 0.97973 0.0
C454 C 0.52228 0.56874 0.93728 0.0
C455 C 0.49398 0.59377 0.91732 0.0
C456 C 0.52096 0.5765 0.96919 0.0
C457 C 0.46543 0.62804 0.92967 0.0
C458 C 0.46441 0.63651 0.96159 0.0
C459 C 0.48957 0.61731 0.01361 0.0
C460 C 0.51605 0.59015 0.03338 0.0
C461 C 0.49162 0.61049 0.98156 0.0
C462 C 0.54521 0.55664 0.02062 0.0
C463 C 0.54783 0.55005 0.98888 0.0
H464 H 1.03943 0.72971 0.23793 0.0
H465 H 0.09936 0.59423 0.22191 0.0
H466 H 0.10494 0.58445 0.27722 0.0
H467 H 0.09162 0.61425 0.33027 0.0
H468 H 1.03815 0.75308 0.34625 0.0
H469 H 1.03155 0.76221 0.29084 0.0
C470 C 0.05373 0.69807 0.24658 0.0
C471 C 0.06813 0.66225 0.22593 0.0
C472 C 0.05814 0.69351 0.27837 0.0
C473 C 0.08736 0.62187 0.23739 0.0
C474 C 0.09071 0.61637 0.26899 0.0
C475 C 0.07871 0.64647 0.32146 0.0
C476 C 0.06512 0.68288 0.342 0.0
C477 C 0.07597 0.65184 0.28968 0.0
C478 C 0.04889 0.72479 0.33065 0.0
C479 C 0.04498 0.72989 0.29906 0.0
loop_
_geom_bond_atom_site_label_1
_geom_bond_atom_site_label_2
_geom_bond_distance
_geom_bond_site_symmetry_2
_ccdc_geom_bond_type
Pr0 C2 2.880 1_455 S
Pr0 O20 2.562 1_455 S
Pr0 O21 2.490 1_455 S
Pr0 O22 2.695 . S
Pr0 O23 2.512 . S
Pr0 O25 2.437 1_455 S
Pr0 O28 2.436 . S
Pr0 O30 2.438 . S
Pr1 C11 2.880 . S
Pr1 O22 2.436 . S
Pr1 O24 2.438 1_455 S
Pr1 O26 2.562 . S
Pr1 O27 2.490 . S
Pr1 O28 2.695 . S
Pr1 O29 2.512 . S
Pr1 O31 2.437 . S
C2 Pr0 2.880 1_655 S
C2 C3 1.491 . S
C2 O20 1.254 . S
C2 O21 1.225 . S
C3 C2 1.491 . S
C3 C4 1.392 . S
C3 C8 1.356 . S
C4 C3 1.392 . S
C4 C5 1.368 . S
C4 H32 0.929 . S
C5 C4 1.368 . S
C5 C6 1.386 . S
C5 H33 0.929 . S
C6 C5 1.386 . S
C6 C7 1.373 . S
C7 C6 1.373 . S
C7 C8 1.409 . S
C7 H34 0.931 . S
C8 C3 1.356 . S
C8 C7 1.409 . S
C8 H35 0.930 . S
C9 O22 1.270 . S
C9 O23 1.248 . S
C10 O24 1.267 . S
C10 O25 1.278 . S
C11 Pr1 2.880 . S
C11 C12 1.491 . S
C11 O26 1.254 . S
C11 O27 1.225 . S
C12 C11 1.491 . S
C12 C13 1.392 . S
C12 C17 1.356 . S
C13 C12 1.392 . S
C13 C14 1.368 . S
C13 H36 0.929 . S
C14 C13 1.368 . S
C14 C15 1.386 . S
C14 H37 0.929 . S
C15 C14 1.386 . S
C15 C16 1.373 . S
C16 C15 1.373 . S
C16 C17 1.409 . S
C16 H38 0.931 . S
C17 C12 1.356 . S
C17 C16 1.409 . S
C17 H39 0.930 . S
C18 O28 1.270 . S
C18 O29 1.248 . S
C19 O30 1.267 . S
C19 O31 1.278 . S
O20 Pr0 2.562 1_655 S
O20 C2 1.254 . S
O21 Pr0 2.490 1_655 S
O21 C2 1.225 . S
O22 Pr0 2.695 . S
O22 Pr1 2.436 . S
O22 C9 1.270 . S
O23 Pr0 2.512 . S
O23 C9 1.248 . S
O24 Pr1 2.438 1_655 S
O24 C10 1.267 . S
O25 Pr0 2.437 1_655 S
O25 C10 1.278 . S
O26 Pr1 2.562 . S
O26 C11 1.254 . S
O27 Pr1 2.490 . S
O27 C11 1.225 . S
O28 Pr0 2.436 . S
O28 Pr1 2.695 . S
O28 C18 1.270 . S
O29 Pr1 2.512 . S
O29 C18 1.248 . S
O30 Pr0 2.438 . S
O30 C19 1.267 . S
O31 Pr1 2.437 . S
O31 C19 1.278 . S
H32 C4 0.929 . S
H33 C5 0.929 . S
H34 C7 0.931 . S
H35 C8 0.930 . S
H36 C13 0.929 . S
H37 C14 0.929 . S
H38 C16 0.931 . S
H39 C17 0.930 . S
Pr40 C42 2.880 . S
Pr40 O60 2.562 . S
Pr40 O61 2.490 . S
Pr40 O62 2.695 . S
Pr40 O63 2.512 . S
Pr40 O65 2.437 . S
Pr40 O68 2.436 . S
Pr40 O70 2.438 1_545 S
Pr41 C51 2.880 1_545 S
Pr41 O62 2.436 . S
Pr41 O64 2.438 . S
Pr41 O66 2.562 1_545 S
Pr41 O67 2.490 1_545 S
Pr41 O68 2.695 . S
Pr41 O69 2.512 . S
Pr41 O71 2.437 1_545 S
C42 Pr40 2.880 . S
C42 C43 1.491 . S
C42 O60 1.254 . S
C42 O61 1.225 . S
C43 C42 1.491 . S
C43 C44 1.392 . S
C43 C48 1.356 . S
C44 C43 1.392 . S
C44 C45 1.368 . S
C44 H72 0.929 . S
C45 C44 1.368 . S
C45 C46 1.386 . S
C45 H73 0.929 . S
C46 C45 1.386 . S
C46 C47 1.373 . S
C47 C46 1.373 . S
C47 C48 1.409 . S
C47 H74 0.931 . S
C48 C43 1.356 . S
C48 C47 1.409 . S
C48 H75 0.930 . S
C49 O62 1.270 . S
C49 O63 1.248 . S
C50 O64 1.267 . S
C50 O65 1.278 . S
C51 Pr41 2.880 1_565 S
C51 C52 1.491 . S
C51 O66 1.254 . S
C51 O67 1.225 . S
C52 C51 1.491 . S
C52 C53 1.392 . S
C52 C57 1.356 . S
C53 C52 1.392 . S
C53 C54 1.368 . S
C53 H76 0.929 . S
C54 C53 1.368 . S
C54 C55 1.386 . S
C54 H77 0.929 . S
C55 C54 1.386 . S
C55 C56 1.373 . S
C56 C55 1.373 . S
C56 C57 1.409 . S
C56 H78 0.931 . S
C57 C52 1.356 . S
C57 C56 1.409 . S
C57 H79 0.930 . S
C58 O68 1.270 . S
C58 O69 1.248 . S
C59 O70 1.267 . S
C59 O71 1.278 . S
O60 Pr40 2.562 . S
O60 C42 1.254 . S
O61 Pr40 2.490 . S
O61 C42 1.225 . S
O62 Pr40 2.695 . S
O62 Pr41 2.436 . S
O62 C49 1.270 . S
O63 Pr40 2.512 . S
O63 C49 1.248 . S
O64 Pr41 2.438 . S
O64 C50 1.267 . S
O65 Pr40 2.437 . S
O65 C50 1.278 . S
O66 Pr41 2.562 1_565 S
O66 C51 1.254 . S
O67 Pr41 2.490 1_565 S
O67 C51 1.225 . S
O68 Pr40 2.436 . S
O68 Pr41 2.695 . S
O68 C58 1.270 . S
O69 Pr41 2.512 . S
O69 C58 1.248 . S
O70 Pr40 2.438 1_565 S
O70 C59 1.267 . S
O71 Pr41 2.437 1_565 S
O71 C59 1.278 . S
H72 C44 0.929 . S
H73 C45 0.929 . S
H74 C47 0.931 . S
H75 C48 0.930 . S
H76 C53 0.929 . S
H77 C54 0.929 . S
H78 C56 0.931 . S
H79 C57 0.930 . S
Pr80 C82 2.880 . S
Pr80 O100 2.562 . S
Pr80 O101 2.490 . S
Pr80 O102 2.695 . S
Pr80 O103 2.512 . S
Pr80 O105 2.437 . S
Pr80 O108 2.436 . S
Pr80 O110 2.438 . S
Pr81 C91 2.880 . S
Pr81 O102 2.436 . S
Pr81 O104 2.438 . S
Pr81 O106 2.562 . S
Pr81 O107 2.490 . S
Pr81 O108 2.695 . S
Pr81 O109 2.512 . S
Pr81 O111 2.437 . S
C82 Pr80 2.880 . S
C82 C83 1.491 . S
C82 O100 1.254 . S
C82 O101 1.225 . S
C83 C82 1.491 . S
C83 C84 1.392 . S
C83 C88 1.356 . S
C84 C83 1.392 . S
C84 C85 1.368 . S
C84 H112 0.929 . S
C85 C84 1.368 . S
C85 C86 1.386 . S
C85 H113 0.929 . S
C86 C85 1.386 . S
C86 C87 1.373 . S
C87 C86 1.373 . S
C87 C88 1.409 . S
C87 H114 0.931 . S
C88 C83 1.356 . S
C88 C87 1.409 . S
C88 H115 0.930 . S
C89 O102 1.270 . S
C89 O103 1.248 . S
C90 O104 1.267 . S
C90 O105 1.278 . S
C91 Pr81 2.880 . S
C91 C92 1.491 . S
C91 O106 1.254 . S
C91 O107 1.225 . S
C92 C91 1.491 . S
C92 C93 1.392 . S
C92 C97 1.356 . S
C93 C92 1.392 . S
C93 C94 1.368 . S
C93 H116 0.929 . S
C94 C93 1.368 . S
C94 C95 1.386 . S
C94 H117 0.929 . S
C95 C94 1.386 . S
C95 C96 1.373 . S
C96 C95 1.373 . S
C96 C97 1.409 . S
C96 H118 0.931 . S
C97 C92 1.356 . S
C97 C96 1.409 . S
C97 H119 0.930 . S
C98 O108 1.270 . S
C98 O109 1.248 . S
C99 O110 1.267 . S
C99 O111 1.278 . S
O100 Pr80 2.562 . S
O100 C82 1.254 . S
O101 Pr80 2.490 . S
O101 C82 1.225 . S
O102 Pr80 2.695 . S
O102 Pr81 2.436 . S
O102 C89 1.270 . S
O103 Pr80 2.512 . S
O103 C89 1.248 . S
O104 Pr81 2.438 . S
O104 C90 1.267 . S
O105 Pr80 2.437 . S
O105 C90 1.278 . S
O106 Pr81 2.562 . S
O106 C91 1.254 . S
O107 Pr81 2.490 . S
O107 C91 1.225 . S
O108 Pr80 2.436 . S
O108 Pr81 2.695 . S
O108 C98 1.270 . S
O109 Pr81 2.512 . S
O109 C98 1.248 . S
O110 Pr80 2.438 . S
O110 C99 1.267 . S
O111 Pr81 2.437 . S
O111 C99 1.278 . S
H112 C84 0.929 . S
H113 C85 0.929 . S
H114 C87 0.931 . S
H115 C88 0.930 . S
H116 C93 0.929 . S
H117 C94 0.929 . S
H118 C96 0.931 . S
H119 C97 0.930 . S
H120 C125 0.930 . S
H121 C128 0.930 . S
H122 C130 0.930 1_565 S
H123 C124 1.016 . S
C124 H123 1.016 . S
C124 N131 1.286 . S
C125 H120 0.930 . S
C125 C126 1.397 . S
C125 C127 1.361 . S
C126 C125 1.397 . S
C126 C130 1.390 . S
C127 C125 1.361 . S
C127 C128 1.393 . S
C127 N131 1.413 . S
C128 H121 0.930 . S
C128 C127 1.393 . S
C128 C129 1.399 . S
C129 C128 1.399 . S
C129 C130 1.381 . S
C130 H122 0.930 1_545 S
C130 C126 1.390 . S
C130 C129 1.381 . S
N131 C124 1.286 . S
N131 C127 1.413 . S
H132 C137 0.930 . S
H133 C140 0.930 . S
H134 C142 0.930 . S
H135 C136 1.016 . S
C136 H135 1.016 . S
C136 N143 1.286 . S
C137 H132 0.930 . S
C137 C138 1.397 . S
C137 C139 1.361 . S
C138 C137 1.397 . S
C138 C142 1.390 . S
C139 C137 1.361 . S
C139 C140 1.393 . S
C139 N143 1.413 . S
C140 H133 0.930 . S
C140 C139 1.393 . S
C140 C141 1.399 . S
C141 C140 1.399 . S
C141 C142 1.381 . S
C142 H134 0.930 . S
C142 C138 1.390 . S
C142 C141 1.381 . S
N143 C136 1.286 . S
N143 C139 1.413 . S
H144 C149 0.930 . S
H145 C152 0.930 . S
H146 C154 0.930 . S
H147 C148 1.016 . S
C148 H147 1.016 . S
C148 N155 1.286 . S
C149 H144 0.930 . S
C149 C150 1.397 . S
C149 C151 1.361 1_655 S
C150 C149 1.397 . S
C150 C154 1.390 . S
C151 C149 1.361 1_455 S
C151 C152 1.393 . S
C151 N155 1.413 . S
C152 H145 0.930 . S
C152 C151 1.393 . S
C152 C153 1.399 . S
C153 C152 1.399 . S
C153 C154 1.381 1_455 S
C154 H146 0.930 . S
C154 C150 1.390 . S
C154 C153 1.381 1_655 S
N155 C148 1.286 . S
N155 C151 1.413 . S
H156 C161 0.930 . S
H157 C164 0.930 . S
H158 C166 0.930 . S
H159 C160 1.016 . S
C160 H159 1.016 . S
C160 N167 1.286 . S
C161 H156 0.930 . S
C161 C162 1.397 . S
C161 C163 1.354 1_455 S
C162 C161 1.397 . S
C162 C166 1.390 . S
C163 C161 1.354 1_655 S
C163 C164 1.394 . S
C163 N167 1.419 . S
C164 H157 0.930 . S
C164 C163 1.394 . S
C164 C165 1.399 1_655 S
C165 C164 1.399 1_455 S
C165 C166 1.381 . S
C166 H158 0.930 . S
C166 C162 1.390 . S
C166 C165 1.381 . S
N167 C160 1.286 . S
N167 C163 1.419 . S
H168 C173 0.930 . S
H169 C176 0.930 . S
H170 C178 0.930 . S
H171 C172 1.016 . S
C172 H171 1.016 . S
C172 N179 1.286 . S
C173 H168 0.930 . S
C173 C174 1.397 . S
C173 C175 1.361 . S
C174 C173 1.397 . S
C174 C178 1.390 . S
C175 C173 1.361 . S
C175 C176 1.393 1_545 S
C175 N179 1.413 1_545 S
C176 H169 0.930 . S
C176 C175 1.393 1_565 S
C176 C177 1.399 1_565 S
C177 C176 1.399 1_545 S
C177 C178 1.381 . S
C178 H170 0.930 . S
C178 C174 1.390 . S
C178 C177 1.381 . S
N179 C172 1.286 . S
N179 C175 1.413 1_565 S
H180 C185 0.930 . S
H181 C188 0.930 . S
H182 C190 0.930 . S
H183 C184 1.016 . S
C184 H183 1.016 . S
C184 N191 1.286 . S
C185 H180 0.930 . S
C185 C186 1.397 . S
C185 C187 1.361 . S
C186 C185 1.397 . S
C186 C190 1.390 . S
C187 C185 1.361 . S
C187 C188 1.393 . S
C187 N191 1.413 . S
C188 H181 0.930 . S
C188 C187 1.393 . S
C188 C189 1.399 . S
C189 C188 1.399 . S
C189 C190 1.381 . S
C190 H182 0.930 . S
C190 C186 1.390 . S
C190 C189 1.381 . S
N191 C184 1.286 . S
N191 C187 1.413 . S
H192 C198 0.930 . S
H193 C201 0.930 . S
H194 C202 0.930 . S
H195 C203 0.930 . S
H196 C206 0.930 . S
H197 C207 0.930 . S
C198 H192 0.930 . S
C198 C199 1.355 . S
C198 C200 1.415 . S
C199 C198 1.355 . S
C199 C201 1.419 . S
C200 C198 1.415 . S
C200 C205 1.425 . S
C200 C207 1.409 . S
C201 H193 0.930 . S
C201 C199 1.419 . S
C201 C202 1.362 . S
C202 H194 0.930 . S
C202 C201 1.362 . S
C202 C205 1.409 . S
C203 H195 0.930 . S
C203 C204 1.355 . S
C203 C205 1.415 . S
C204 C203 1.355 . S
C204 C206 1.419 . S
C205 C200 1.425 . S
C205 C202 1.409 . S
C205 C203 1.415 . S
C206 H196 0.930 . S
C206 C204 1.419 . S
C206 C207 1.362 . S
C207 H197 0.930 . S
C207 C200 1.409 . S
C207 C206 1.362 . S
H208 C214 0.930 . S
H209 C217 0.930 . S
H210 C218 0.930 . S
H211 C219 0.930 . S
H212 C222 0.930 . S
H213 C223 0.930 . S
C214 H208 0.930 . S
C214 C215 1.355 . S
C214 C216 1.415 . S
C215 C214 1.355 . S
C215 C217 1.419 . S
C216 C214 1.415 . S
C216 C221 1.425 . S
C216 C223 1.409 . S
C217 H209 0.930 . S
C217 C215 1.419 . S
C217 C218 1.362 . S
C218 H210 0.930 . S
C218 C217 1.362 . S
C218 C221 1.409 . S
C219 H211 0.930 . S
C219 C220 1.355 . S
C219 C221 1.415 . S
C220 C219 1.355 . S
C220 C222 1.419 . S
C221 C216 1.425 . S
C221 C218 1.409 . S
C221 C219 1.415 . S
C222 H212 0.930 . S
C222 C220 1.419 . S
C222 C223 1.362 . S
C223 H213 0.930 . S
C223 C216 1.409 . S
C223 C222 1.362 . S
H224 C230 0.930 . S
H225 C233 0.930 . S
H226 C234 0.930 . S
H227 C235 0.930 . S
H228 C238 0.930 . S
H229 C239 0.930 . S
C230 H224 0.930 . S
C230 C231 1.355 . S
C230 C232 1.415 . S
C231 C230 1.355 . S
C231 C233 1.419 . S
C232 C230 1.415 . S
C232 C237 1.425 . S
C232 C239 1.409 . S
C233 H225 0.930 . S
C233 C231 1.419 . S
C233 C234 1.362 . S
C234 H226 0.930 . S
C234 C233 1.362 . S
C234 C237 1.409 . S
C235 H227 0.930 . S
C235 C236 1.355 . S
C235 C237 1.415 . S
C236 C235 1.355 . S
C236 C238 1.419 . S
C237 C232 1.425 . S
C237 C234 1.409 . S
C237 C235 1.415 . S
C238 H228 0.930 . S
C238 C236 1.419 . S
C238 C239 1.362 . S
C239 H229 0.930 . S
C239 C232 1.409 . S
C239 C238 1.362 . S
H240 C246 0.930 . S
H241 C249 0.930 . S
H242 C250 0.930 . S
H243 C251 0.930 . S
H244 C254 0.930 . S
H245 C255 0.930 . S
C246 H240 0.930 . S
C246 C247 1.355 . S
C246 C248 1.415 . S
C247 C246 1.355 . S
C247 C249 1.419 . S
C248 C246 1.415 . S
C248 C253 1.425 . S
C248 C255 1.409 . S
C249 H241 0.930 . S
C249 C247 1.419 . S
C249 C250 1.362 . S
C250 H242 0.930 . S
C250 C249 1.362 . S
C250 C253 1.409 . S
C251 H243 0.930 . S
C251 C252 1.355 . S
C251 C253 1.415 . S
C252 C251 1.355 . S
C252 C254 1.419 . S
C253 C248 1.425 . S
C253 C250 1.409 . S
C253 C251 1.415 . S
C254 H244 0.930 . S
C254 C252 1.419 . S
C254 C255 1.362 . S
C255 H245 0.930 . S
C255 C248 1.409 . S
C255 C254 1.362 . S
H256 C262 0.930 . S
H257 C265 0.930 . S
H258 C266 0.930 . S
H259 C267 0.930 . S
H260 C270 0.930 . S
H261 C271 0.930 . S
C262 H256 0.930 . S
C262 C263 1.355 . S
C262 C264 1.415 . S
C263 C262 1.355 . S
C263 C265 1.419 . S
C264 C262 1.415 . S
C264 C269 1.425 . S
C264 C271 1.409 . S
C265 H257 0.930 . S
C265 C263 1.419 . S
C265 C266 1.362 . S
C266 H258 0.930 . S
C266 C265 1.362 . S
C266 C269 1.409 . S
C267 H259 0.930 . S
C267 C268 1.355 . S
C267 C269 1.415 . S
C268 C267 1.355 . S
C268 C270 1.419 . S
C269 C264 1.425 . S
C269 C266 1.409 . S
C269 C267 1.415 . S
C270 H260 0.930 . S
C270 C268 1.419 . S
C270 C271 1.362 . S
C271 H261 0.930 . S
C271 C264 1.409 . S
C271 C270 1.362 . S
H272 C278 0.930 . S
H273 C281 0.930 . S
H274 C282 0.930 . S
H275 C283 0.930 . S
H276 C286 0.930 . S
H277 C287 0.930 . S
C278 H272 0.930 . S
C278 C279 1.355 . S
C278 C280 1.415 . S
C279 C278 1.355 . S
C279 C281 1.419 . S
C280 C278 1.415 . S
C280 C285 1.425 . S
C280 C287 1.409 . S
C281 H273 0.930 . S
C281 C279 1.419 . S
C281 C282 1.362 . S
C282 H274 0.930 . S
C282 C281 1.362 . S
C282 C285 1.409 . S
C283 H275 0.930 . S
C283 C284 1.355 . S
C283 C285 1.415 . S
C284 C283 1.355 . S
C284 C286 1.419 . S
C285 C280 1.425 . S
C285 C282 1.409 . S
C285 C283 1.415 . S
C286 H276 0.930 . S
C286 C284 1.419 . S
C286 C287 1.362 . S
C287 H277 0.930 . S
C287 C280 1.409 . S
C287 C286 1.362 . S
H288 C294 0.930 . S
H289 C297 0.930 . S
H290 C298 0.930 . S
H291 C299 0.930 . S
H292 C302 0.930 . S
H293 C303 0.930 . S
C294 H288 0.930 . S
C294 C295 1.355 . S
C294 C296 1.415 . S
C295 C294 1.355 . S
C295 C297 1.419 . S
C296 C294 1.415 . S
C296 C301 1.425 . S
C296 C303 1.409 . S
C297 H289 0.930 . S
C297 C295 1.419 . S
C297 C298 1.362 . S
C298 H290 0.930 . S
C298 C297 1.362 . S
C298 C301 1.409 . S
C299 H291 0.930 . S
C299 C300 1.355 . S
C299 C301 1.415 . S
C300 C299 1.355 . S
C300 C302 1.419 . S
C301 C296 1.425 . S
C301 C298 1.409 . S
C301 C299 1.415 . S
C302 H292 0.930 . S
C302 C300 1.419 . S
C302 C303 1.362 . S
C303 H293 0.930 . S
C303 C296 1.409 . S
C303 C302 1.362 . S
H304 C310 0.930 . S
H305 C313 0.930 . S
H306 C314 0.930 . S
H307 C315 0.930 . S
H308 C318 0.930 . S
H309 C319 0.930 . S
C310 H304 0.930 . S
C310 C311 1.355 . S
C310 C312 1.415 . S
C311 C310 1.355 . S
C311 C313 1.419 . S
C312 C310 1.415 . S
C312 C317 1.425 . S
C312 C319 1.409 . S
C313 H305 0.930 . S
C313 C311 1.419 . S
C313 C314 1.362 . S
C314 H306 0.930 . S
C314 C313 1.362 . S
C314 C317 1.409 . S
C315 H307 0.930 . S
C315 C316 1.355 . S
C315 C317 1.415 . S
C316 C315 1.355 . S
C316 C318 1.419 . S
C317 C312 1.425 . S
C317 C314 1.409 . S
C317 C315 1.415 . S
C318 H308 0.930 . S
C318 C316 1.419 . S
C318 C319 1.362 . S
C319 H309 0.930 . S
C319 C312 1.409 . S
C319 C318 1.362 . S
H320 C326 0.930 . S
H321 C329 0.930 . S
H322 C330 0.930 . S
H323 C331 0.930 . S
H324 C334 0.922 1_545 S
H325 C335 0.930 . S
C326 H320 0.930 . S
C326 C327 1.355 . S
C326 C328 1.415 . S
C327 C326 1.355 . S
C327 C329 1.419 . S
C328 C326 1.415 . S
C328 C333 1.425 . S
C328 C335 1.409 . S
C329 H321 0.930 . S
C329 C327 1.419 . S
C329 C330 1.362 . S
C330 H322 0.930 . S
C330 C329 1.362 . S
C330 C333 1.409 . S
C331 H323 0.930 . S
C331 C332 1.355 . S
C331 C333 1.415 . S
C332 C331 1.355 . S
C332 C334 1.419 . S
C333 C328 1.425 . S
C333 C330 1.409 . S
C333 C331 1.415 . S
C334 H324 0.922 1_565 S
C334 C332 1.419 . S
C334 C335 1.362 . S
C335 H325 0.930 . S
C335 C328 1.409 . S
C335 C334 1.362 . S
H336 C342 0.930 . S
H337 C345 0.930 . S
H338 C346 0.930 . S
H339 C347 0.930 . S
H340 C350 0.930 . S
H341 C351 0.930 . S
C342 H336 0.930 . S
C342 C343 1.355 . S
C342 C344 1.415 . S
C343 C342 1.355 . S
C343 C345 1.419 . S
C344 C342 1.415 . S
C344 C349 1.425 . S
C344 C351 1.409 . S
C345 H337 0.930 . S
C345 C343 1.419 . S
C345 C346 1.362 . S
C346 H338 0.930 . S
C346 C345 1.362 . S
C346 C349 1.409 . S
C347 H339 0.930 . S
C347 C348 1.355 . S
C347 C349 1.415 . S
C348 C347 1.355 . S
C348 C350 1.419 . S
C349 C344 1.425 . S
C349 C346 1.409 . S
C349 C347 1.415 . S
C350 H340 0.930 . S
C350 C348 1.419 . S
C350 C351 1.362 . S
C351 H341 0.930 . S
C351 C344 1.409 . S
C351 C350 1.362 . S
H352 C358 0.930 . S
H353 C361 0.930 . S
H354 C362 0.930 . S
H355 C363 0.930 . S
H356 C366 0.930 . S
H357 C367 0.930 . S
C358 H352 0.930 . S
C358 C359 1.355 . S
C358 C360 1.415 . S
C359 C358 1.355 . S
C359 C361 1.419 . S
C360 C358 1.415 . S
C360 C365 1.425 . S
C360 C367 1.409 . S
C361 H353 0.930 . S
C361 C359 1.419 . S
C361 C362 1.362 . S
C362 H354 0.930 . S
C362 C361 1.362 . S
C362 C365 1.409 . S
C363 H355 0.930 . S
C363 C364 1.355 . S
C363 C365 1.415 . S
C364 C363 1.355 . S
C364 C366 1.419 . S
C365 C360 1.425 . S
C365 C362 1.409 . S
C365 C363 1.415 . S
C366 H356 0.930 . S
C366 C364 1.419 . S
C366 C367 1.362 . S
C367 H357 0.930 . S
C367 C360 1.409 . S
C367 C366 1.362 . S
H368 C374 0.930 . S
H369 C377 0.930 . S
H370 C378 0.930 . S
H371 C379 0.930 . S
H372 C382 0.930 . S
H373 C383 0.930 . S
C374 H368 0.930 . S
C374 C375 1.355 . S
C374 C376 1.415 . S
C375 C374 1.355 . S
C375 C377 1.419 . S
C376 C374 1.415 . S
C376 C381 1.425 . S
C376 C383 1.409 . S
C377 H369 0.930 . S
C377 C375 1.419 . S
C377 C378 1.362 . S
C378 H370 0.930 . S
C378 C377 1.362 . S
C378 C381 1.409 . S
C379 H371 0.930 . S
C379 C380 1.355 . S
C379 C381 1.415 . S
C380 C379 1.355 . S
C380 C382 1.419 . S
C381 C376 1.425 . S
C381 C378 1.409 . S
C381 C379 1.415 . S
C382 H372 0.930 . S
C382 C380 1.419 . S
C382 C383 1.362 . S
C383 H373 0.930 . S
C383 C376 1.409 . S
C383 C382 1.362 . S
H384 C390 0.930 . S
H385 C393 0.930 . S
H386 C394 0.930 . S
H387 C395 0.930 . S
H388 C398 0.930 . S
H389 C399 0.930 . S
C390 H384 0.930 . S
C390 C391 1.355 . S
C390 C392 1.415 . S
C391 C390 1.355 . S
C391 C393 1.419 1_455 S
C392 C390 1.415 . S
C392 C397 1.425 . S
C392 C399 1.409 1_554 S
C393 H385 0.930 . S
C393 C391 1.419 1_655 S
C393 C394 1.362 . S
C394 H386 0.930 . S
C394 C393 1.362 . S
C394 C397 1.409 1_655 S
C395 H387 0.930 . S
C395 C396 1.355 1_655 S
C395 C397 1.415 1_656 S
C396 C395 1.355 1_455 S
C396 C398 1.419 . S
C397 C392 1.425 . S
C397 C394 1.409 1_455 S
C397 C395 1.415 1_454 S
C398 H388 0.930 . S
C398 C396 1.419 . S
C398 C399 1.362 . S
C399 H389 0.930 . S
C399 C392 1.409 1_556 S
C399 C398 1.362 . S
H400 C406 0.930 . S
H401 C409 0.930 . S
H402 C410 0.930 . S
H403 C411 0.930 . S
H404 C414 0.930 . S
H405 C415 0.930 . S
C406 H400 0.930 . S
C406 C407 1.355 . S
C406 C408 1.415 . S
C407 C406 1.355 . S
C407 C409 1.419 . S
C408 C406 1.415 . S
C408 C413 1.425 . S
C408 C415 1.409 . S
C409 H401 0.930 . S
C409 C407 1.419 . S
C409 C410 1.362 . S
C410 H402 0.930 . S
C410 C409 1.362 . S
C410 C413 1.409 . S
C411 H403 0.930 . S
C411 C412 1.355 . S
C411 C413 1.415 . S
C412 C411 1.355 . S
C412 C414 1.419 . S
C413 C408 1.425 . S
C413 C410 1.409 . S
C413 C411 1.415 . S
C414 H404 0.930 . S
C414 C412 1.419 . S
C414 C415 1.362 . S
C415 H405 0.930 . S
C415 C408 1.409 . S
C415 C414 1.362 . S
H416 C422 0.930 . S
H417 C425 0.930 . S
H418 C426 0.930 . S
H419 C427 0.930 . S
H420 C430 0.930 . S
H421 C431 0.930 . S
C422 H416 0.930 . S
C422 C423 1.355 . S
C422 C424 1.415 . S
C423 C422 1.355 . S
C423 C425 1.419 . S
C424 C422 1.415 . S
C424 C429 1.425 . S
C424 C431 1.409 . S
C425 H417 0.930 . S
C425 C423 1.419 . S
C425 C426 1.362 . S
C426 H418 0.930 . S
C426 C425 1.362 . S
C426 C429 1.409 . S
C427 H419 0.930 . S
C427 C428 1.355 . S
C427 C429 1.415 . S
C428 C427 1.355 . S
C428 C430 1.419 . S
C429 C424 1.425 . S
C429 C426 1.409 . S
C429 C427 1.415 . S
C430 H420 0.930 . S
C430 C428 1.419 . S
C430 C431 1.362 . S
C431 H421 0.930 . S
C431 C424 1.409 . S
C431 C430 1.362 . S
H432 C438 0.930 . S
H433 C441 0.930 1_565 S
H434 C442 0.930 . S
H435 C443 0.930 1_565 S
H436 C446 0.930 . S
H437 C447 0.930 . S
C438 H432 0.930 . S
C438 C439 1.355 . S
C438 C440 1.415 . S
C439 C438 1.355 . S
C439 C441 1.419 . S
C440 C438 1.415 . S
C440 C445 1.425 . S
C440 C447 1.409 . S
C441 H433 0.930 1_545 S
C441 C439 1.419 . S
C441 C442 1.362 1_545 S
C442 H434 0.930 . S
C442 C441 1.362 1_565 S
C442 C445 1.409 1_565 S
C443 H435 0.930 1_545 S
C443 C444 1.355 . S
C443 C445 1.415 . S
C444 C443 1.355 . S
C444 C446 1.419 . S
C445 C440 1.425 . S
C445 C442 1.409 1_545 S
C445 C443 1.415 . S
C446 H436 0.930 . S
C446 C444 1.419 . S
C446 C447 1.362 . S
C447 H437 0.930 . S
C447 C440 1.409 . S
C447 C446 1.362 . S
H448 C454 0.930 . S
H449 C457 0.930 . S
H450 C458 0.930 . S
H451 C459 0.930 . S
H452 C462 0.930 . S
H453 C463 0.930 . S
C454 H448 0.930 . S
C454 C455 1.355 . S
C454 C456 1.415 . S
C455 C454 1.355 . S
C455 C457 1.419 . S
C456 C454 1.415 . S
C456 C461 1.431 . S
C456 C463 1.409 1_556 S
C457 H449 0.930 . S
C457 C455 1.419 . S
C457 C458 1.362 . S
C458 H450 0.930 . S
C458 C457 1.362 . S
C458 C461 1.433 . S
C459 H451 0.930 . S
C459 C460 1.355 . S
C459 C461 1.386 1_554 S
C460 C459 1.355 . S
C460 C462 1.419 . S
C461 C456 1.431 . S
C461 C458 1.433 . S
C461 C459 1.386 1_556 S
C462 H452 0.930 . S
C462 C460 1.419 . S
C462 C463 1.362 . S
C463 H453 0.930 . S
C463 C456 1.409 1_554 S
C463 C462 1.362 . S
H464 C470 0.930 . S
H465 C473 0.930 . S
H466 C474 0.930 . S
H467 C475 0.930 . S
H468 C478 0.930 . S
H469 C479 0.930 . S
C470 H464 0.930 . S
C470 C471 1.355 1_655 S
C470 C472 1.413 1_655 S
C471 C470 1.355 1_455 S
C471 C473 1.419 . S
C472 C470 1.413 1_455 S
C472 C477 1.446 . S
C472 C479 1.391 1_455 S
C473 H465 0.930 . S
C473 C471 1.419 . S
C473 C474 1.362 . S
C474 H466 0.930 . S
C474 C473 1.362 . S
C474 C477 1.409 . S
C475 H467 0.930 . S
C475 C476 1.355 . S
C475 C477 1.415 . S
C476 C475 1.355 . S
C476 C478 1.419 1_455 S
C477 C472 1.446 . S
C477 C474 1.409 . S
C477 C475 1.415 . S
C478 H468 0.930 . S
C478 C476 1.419 1_655 S
C478 C479 1.362 . S
C479 H469 0.930 . S
C479 C472 1.391 1_655 S
C479 C478 1.362 . S
C199 C19 2.103 . S
C204 C186 2.088 . S
C215 C46 1.327 . S
C220 C160 1.295 . S
C231 C95 0.630 . S
C236 C172 0.666 . S
C247 C10 1.789 . S
C252 C184 1.725 . S
C268 C162 1.204 . S
C263 C55 1.225 . S
C284 C174 0.480 . S
C279 C86 0.448 . S
C295 C59 3.159 . S
C300 C136 3.065 . S
C311 C90 2.131 . S
C316 C150 2.173 . S
C327 C15 1.201 . S
C332 C126 1.180 1_565 S
C348 C138 2.950 . S
C343 C50 2.970 . S
C364 C148 1.681 . S
C359 C99 1.737 . S
C375 C6 1.266 . S
C380 C124 1.308 . S
C396 C153 1.481 . S
C391 C9 1.377 . S
C407 C58 1.537 . S
C412 C129 1.531 . S
C423 C98 1.637 . S
C428 C141 1.752 . S
C444 C177 1.202 . S
C439 C49 1.124 . S
C460 C189 1.484 . S
C455 C89 1.453 . S
C471 C18 1.482 . S
C476 C165 1.519 . S
