# Generated by pormake.
# Topology ssb, (4,4)-cn, num edge types: 1
# Building blocks:
#     Node 0, Type 0, BuildingBlock: GIZVER_clean_linker_0, # of connection points: 4
#     Node 1, Type 0, BuildingBlock: GIZVER_clean_linker_0, # of connection points: 4
#     Node 2, Type 0, BuildingBlock: GIZVER_clean_linker_0, # of connection points: 4
#     Node 3, Type 0, BuildingBlock: GIZVER_clean_linker_0, # of connection points: 4
#     Node 4, Type 0, BuildingBlock: GIZVER_clean_linker_0, # of connection points: 4
#     Node 5, Type 0, BuildingBlock: GIZVER_clean_linker_0, # of connection points: 4
#     Node 6, Type 0, BuildingBlock: GIZVER_clean_linker_0, # of connection points: 4
#     Node 7, Type 0, BuildingBlock: GIZVER_clean_linker_0, # of connection points: 4
#     Node 8, Type 1, BuildingBlock: NAWXER_clean_sbu_0, # of connection points: 4
#     Node 9, Type 1, BuildingBlock: NAWXER_clean_sbu_0, # of connection points: 4
#     Node 10, Type 1, BuildingBlock: NAWXER_clean_sbu_0, # of connection points: 4
#     Node 11, Type 1, BuildingBlock: NAWXER_clean_sbu_0, # of connection points: 4
#     Node 12, Type 1, BuildingBlock: NAWXER_clean_sbu_0, # of connection points: 4
#     Node 13, Type 1, BuildingBlock: NAWXER_clean_sbu_0, # of connection points: 4
#     Node 14, Type 1, BuildingBlock: NAWXER_clean_sbu_0, # of connection points: 4
#     Node 15, Type 1, BuildingBlock: NAWXER_clean_sbu_0, # of connection points: 4
#     Edge 16, Type (0, 1), BuildingBlock: UVAHIK_clean_linker_0, # of connection points: 2
#     Edge 17, Type (0, 1), BuildingBlock: UVAHIK_clean_linker_0, # of connection points: 2
#     Edge 18, Type (0, 1), BuildingBlock: UVAHIK_clean_linker_0, # of connection points: 2
#     Edge 19, Type (0, 1), BuildingBlock: UVAHIK_clean_linker_0, # of connection points: 2
#     Edge 20, Type (0, 1), BuildingBlock: UVAHIK_clean_linker_0, # of connection points: 2
#     Edge 21, Type (0, 1), BuildingBlock: UVAHIK_clean_linker_0, # of connection points: 2
#     Edge 22, Type (0, 1), BuildingBlock: UVAHIK_clean_linker_0, # of connection points: 2
#     Edge 23, Type (0, 1), BuildingBlock: UVAHIK_clean_linker_0, # of connection points: 2
#     Edge 24, Type (0, 1), BuildingBlock: UVAHIK_clean_linker_0, # of connection points: 2
#     Edge 25, Type (0, 1), BuildingBlock: UVAHIK_clean_linker_0, # of connection points: 2
#     Edge 26, Type (0, 1), BuildingBlock: UVAHIK_clean_linker_0, # of connection points: 2
#     Edge 27, Type (0, 1), BuildingBlock: UVAHIK_clean_linker_0, # of connection points: 2
#     Edge 28, Type (0, 1), BuildingBlock: UVAHIK_clean_linker_0, # of connection points: 2
#     Edge 29, Type (0, 1), BuildingBlock: UVAHIK_clean_linker_0, # of connection points: 2
#     Edge 30, Type (0, 1), BuildingBlock: UVAHIK_clean_linker_0, # of connection points: 2
#     Edge 31, Type (0, 1), BuildingBlock: UVAHIK_clean_linker_0, # of connection points: 2
#     Edge 32, Type (0, 1), BuildingBlock: UVAHIK_clean_linker_0, # of connection points: 2
#     Edge 33, Type (0, 1), BuildingBlock: UVAHIK_clean_linker_0, # of connection points: 2
#     Edge 34, Type (0, 1), BuildingBlock: UVAHIK_clean_linker_0, # of connection points: 2
#     Edge 35, Type (0, 1), BuildingBlock: UVAHIK_clean_linker_0, # of connection points: 2
#     Edge 36, Type (0, 1), BuildingBlock: UVAHIK_clean_linker_0, # of connection points: 2
#     Edge 37, Type (0, 1), BuildingBlock: UVAHIK_clean_linker_0, # of connection points: 2
#     Edge 38, Type (0, 1), BuildingBlock: UVAHIK_clean_linker_0, # of connection points: 2
#     Edge 39, Type (0, 1), BuildingBlock: UVAHIK_clean_linker_0, # of connection points: 2
#     Edge 40, Type (0, 1), BuildingBlock: UVAHIK_clean_linker_0, # of connection points: 2
#     Edge 41, Type (0, 1), BuildingBlock: UVAHIK_clean_linker_0, # of connection points: 2
#     Edge 42, Type (0, 1), BuildingBlock: UVAHIK_clean_linker_0, # of connection points: 2
#     Edge 43, Type (0, 1), BuildingBlock: UVAHIK_clean_linker_0, # of connection points: 2
#     Edge 44, Type (0, 1), BuildingBlock: UVAHIK_clean_linker_0, # of connection points: 2
#     Edge 45, Type (0, 1), BuildingBlock: UVAHIK_clean_linker_0, # of connection points: 2
#     Edge 46, Type (0, 1), BuildingBlock: UVAHIK_clean_linker_0, # of connection points: 2
#     Edge 47, Type (0, 1), BuildingBlock: UVAHIK_clean_linker_0, # of connection points: 2
# Relax obj value: 0.000
# Max RMSD: 0.030
# Mean RMSD: 0.015
data_MOF--net-ssb--node1-NAWXER_clean_sbu_0--node2-GIZVER_clean_linker_0--edge1-UVAHIK_clean_linker_0
_symmetry_space_group_name_H-M    P1
_symmetry_Int_Tables_number       1
_symmetry_cell_setting            triclinic
loop_
_symmetry_equiv_pos_as_xyz
'x, y, z'
_cell_length_a     59.682426
_cell_length_b     59.253518
_cell_length_c     51.4633
_cell_angle_alpha  90.067884
_cell_angle_beta   89.794321
_cell_angle_gamma 90.023629
loop_
_atom_site_label
_atom_site_type_symbol
_atom_site_fract_x
_atom_site_fract_y
_atom_site_fract_z
_atom_type_partial_charge
H0 H 0.23109 0.1792 0.23266 0.0
H1 H 0.18021 0.2308 0.23173 0.0
H2 H 0.20239 0.20303 0.30427 0.0
H3 H 0.21102 0.18822 0.19257 0.0
H4 H 0.18938 0.20894 0.19235 0.0
H5 H 0.25113 0.19968 0.1895 0.0
H6 H 0.26291 0.26311 0.15124 0.0
H7 H 0.19775 0.24827 0.18268 0.0
C8 C 0.22023 0.19086 0.24295 0.0
C9 C 0.21886 0.18992 0.27018 0.0
C10 C 0.20679 0.20609 0.22891 0.0
C11 C 0.19154 0.21997 0.24242 0.0
C12 C 0.19011 0.21906 0.26964 0.0
C13 C 0.20425 0.2045 0.28335 0.0
C14 C 0.20659 0.20544 0.19956 0.0
C15 C 0.22275 0.22227 0.18785 0.0
C16 C 0.24522 0.21612 0.18333 0.0
C17 C 0.25989 0.23089 0.17037 0.0
C18 C 0.25184 0.25188 0.16188 0.0
C19 C 0.22949 0.2583 0.16613 0.0
C20 C 0.21513 0.24361 0.17968 0.0
H21 H 0.78606 0.27686 0.28788 0.0
H22 H 0.73457 0.22615 0.28879 0.0
H23 H 0.76949 0.24286 0.35921 0.0
H24 H 0.77526 0.25576 0.24779 0.0
H25 H 0.75176 0.23725 0.24813 0.0
H26 H 0.76989 0.29771 0.2497 0.0
H27 H 0.70802 0.32126 0.21756 0.0
H28 H 0.71544 0.25125 0.23787 0.0
C29 C 0.77565 0.26511 0.29863 0.0
C30 C 0.77927 0.26195 0.32536 0.0
C31 C 0.75948 0.25236 0.28534 0.0
C32 C 0.74661 0.23649 0.29912 0.0
C33 C 0.74998 0.23307 0.32587 0.0
C34 C 0.76605 0.24619 0.3389 0.0
C35 C 0.75815 0.2535 0.25605 0.0
C36 C 0.74356 0.27272 0.24691 0.0
C37 C 0.75258 0.29458 0.24449 0.0
C38 C 0.73975 0.3121 0.23384 0.0
C39 C 0.71771 0.30772 0.22612 0.0
C40 C 0.70899 0.2857 0.22636 0.0
C41 C 0.72174 0.2684 0.23778 0.0
H42 H 0.79437 0.74897 0.28583 0.0
H43 H 0.74165 0.79607 0.26858 0.0
H44 H 0.80221 0.81941 0.3041 0.0
H45 H 0.75875 0.73513 0.27248 0.0
H46 H 0.73539 0.7538 0.27294 0.0
H47 H 0.77669 0.72493 0.2318 0.0
H48 H 0.74219 0.74189 0.16123 0.0
H49 H 0.72363 0.77404 0.23304 0.0
C50 C 0.78845 0.76622 0.28482 0.0
C51 C 0.80098 0.78363 0.29647 0.0
C52 C 0.76728 0.77071 0.27388 0.0
C53 C 0.7586 0.79277 0.27502 0.0
C54 C 0.77124 0.81034 0.28589 0.0
C55 C 0.79272 0.80579 0.29536 0.0
C56 C 0.75255 0.75153 0.2648 0.0
C57 C 0.75101 0.75036 0.23551 0.0
C58 C 0.7645 0.73512 0.22154 0.0
C59 C 0.76145 0.73197 0.1947 0.0
C60 C 0.74531 0.74495 0.18168 0.0
C61 C 0.73152 0.7601 0.19536 0.0
C62 C 0.7346 0.76284 0.22225 0.0
H63 H 0.22443 0.73206 0.28651 0.0
H64 H 0.27384 0.78478 0.28678 0.0
H65 H 0.24002 0.76708 0.35763 0.0
H66 H 0.23384 0.75307 0.24649 0.0
H67 H 0.25525 0.77397 0.24665 0.0
H68 H 0.24482 0.71151 0.25138 0.0
H69 H 0.30456 0.69586 0.20821 0.0
H70 H 0.2914 0.76421 0.23123 0.0
C71 C 0.2343 0.74427 0.29718 0.0
C72 C 0.23052 0.74741 0.32399 0.0
C73 C 0.24989 0.75766 0.28364 0.0
C74 C 0.26229 0.77395 0.29726 0.0
C75 C 0.25904 0.77712 0.32405 0.0
C76 C 0.24336 0.76365 0.3373 0.0
C77 C 0.25077 0.75699 0.2543 0.0
C78 C 0.26704 0.73957 0.24401 0.0
C79 C 0.26074 0.71667 0.24315 0.0
C80 C 0.27419 0.70073 0.23019 0.0
C81 C 0.29436 0.70791 0.2188 0.0
C82 C 0.30054 0.73075 0.21853 0.0
C83 C 0.28712 0.74645 0.23187 0.0
H84 H 0.29062 0.77498 0.79156 0.0
H85 H 0.24062 0.72275 0.7922 0.0
H86 H 0.27296 0.74226 0.86337 0.0
H87 H 0.28045 0.75571 0.75152 0.0
H88 H 0.2608 0.73308 0.7518 0.0
H89 H 0.26789 0.79506 0.74751 0.0
H90 H 0.20174 0.80439 0.71629 0.0
H91 H 0.22058 0.74011 0.74741 0.0
C92 C 0.28025 0.76315 0.80227 0.0
C93 C 0.28328 0.76065 0.82919 0.0
C94 C 0.26473 0.74971 0.78883 0.0
C95 C 0.25204 0.7337 0.80263 0.0
C96 C 0.25476 0.73104 0.82959 0.0
C97 C 0.27008 0.74491 0.84281 0.0
C98 C 0.26392 0.75036 0.75949 0.0
C99 C 0.24596 0.7661 0.74959 0.0
C100 C 0.25117 0.78874 0.74373 0.0
C101 C 0.23526 0.80281 0.73177 0.0
C102 C 0.21381 0.79416 0.72668 0.0
C103 C 0.20841 0.77168 0.73224 0.0
C104 C 0.22448 0.7577 0.74383 0.0
H105 H 0.29133 0.24001 0.77722 0.0
H106 H 0.24452 0.29513 0.77274 0.0
H107 H 0.31028 0.30562 0.8046 0.0
H108 H 0.25133 0.23282 0.77231 0.0
H109 H 0.23171 0.25546 0.77199 0.0
H110 H 0.27076 0.22102 0.7321 0.0
H111 H 0.23788 0.23867 0.66092 0.0
H112 H 0.22205 0.27443 0.73161 0.0
C113 C 0.28756 0.2578 0.77956 0.0
C114 C 0.3036 0.27221 0.79056 0.0
C115 C 0.26628 0.26606 0.77277 0.0
C116 C 0.26115 0.28894 0.77717 0.0
C117 C 0.277 0.30349 0.78853 0.0
C118 C 0.2983 0.29498 0.79457 0.0
C119 C 0.24822 0.24991 0.76413 0.0
C120 C 0.24688 0.24827 0.73491 0.0
C121 C 0.25934 0.23182 0.7215 0.0
C122 C 0.25643 0.22863 0.69468 0.0
C123 C 0.241 0.24214 0.68127 0.0
C124 C 0.22818 0.25855 0.69439 0.0
C125 C 0.23174 0.26187 0.72115 0.0
H126 H 0.72259 0.23508 0.78888 0.0
H127 H 0.77174 0.28802 0.78871 0.0
H128 H 0.73845 0.27026 0.8599 0.0
H129 H 0.73184 0.25545 0.74868 0.0
H130 H 0.75247 0.27715 0.74859 0.0
H131 H 0.74262 0.21538 0.74604 0.0
H132 H 0.80753 0.20226 0.71305 0.0
H133 H 0.79195 0.26836 0.7423 0.0
C134 C 0.73233 0.24746 0.79947 0.0
C135 C 0.72869 0.2506 0.82631 0.0
C136 C 0.74771 0.26097 0.7858 0.0
C137 C 0.7602 0.27725 0.79929 0.0
C138 C 0.75722 0.28034 0.82614 0.0
C139 C 0.7416 0.26688 0.83951 0.0
C140 C 0.74859 0.2601 0.75648 0.0
C141 C 0.76577 0.24343 0.74663 0.0
C142 C 0.75955 0.22091 0.74175 0.0
C143 C 0.77466 0.20593 0.72984 0.0
C144 C 0.79629 0.21343 0.72356 0.0
C145 C 0.8026 0.23593 0.7277 0.0
C146 C 0.78738 0.25081 0.73963 0.0
H147 H 0.73096 0.67861 0.72904 0.0
H148 H 0.68703 0.73626 0.73432 0.0
H149 H 0.70668 0.70057 0.80334 0.0
H150 H 0.7123 0.69258 0.69047 0.0
H151 H 0.69139 0.71394 0.69305 0.0
H152 H 0.75266 0.70305 0.68659 0.0
H153 H 0.76551 0.76875 0.65447 0.0
H154 H 0.70079 0.7535 0.68704 0.0
C155 C 0.7217 0.69075 0.74061 0.0
C156 C 0.72065 0.68816 0.76766 0.0
C157 C 0.70976 0.70828 0.72841 0.0
C158 C 0.69682 0.7232 0.74366 0.0
C159 C 0.69588 0.72075 0.77083 0.0
C160 C 0.70807 0.70331 0.78255 0.0
C161 C 0.70869 0.70942 0.69912 0.0
C162 C 0.72499 0.72647 0.68816 0.0
C163 C 0.74713 0.72006 0.68227 0.0
C164 C 0.76197 0.73535 0.67041 0.0
C165 C 0.75443 0.75725 0.66466 0.0
C166 C 0.73241 0.76405 0.67048 0.0
C167 C 0.71784 0.74855 0.68249 0.0
C168 C 0.97655 0.26653 0.54082 0.0
C169 C 0.02803 0.26605 0.46688 0.0
O170 O 0.98368 0.28633 0.53508 0.0
Zn171 Zn 0.00489 0.30171 0.50626 0.0
O172 O 0.98276 0.24975 0.52721 0.0
Zn173 Zn 0.00208 0.26598 0.50349 0.0
O174 O 0.02851 0.27816 0.52808 0.0
O175 O 0.028 0.3154 0.52753 0.0
O176 O 0.01814 0.24932 0.47728 0.0
O177 O 0.02461 0.28602 0.47579 0.0
O178 O 0.98381 0.32074 0.4873 0.0
O179 O 0.97888 0.28429 0.48033 0.0
C180 C 0.03668 0.2971 0.5356 0.0
C181 C 0.97345 0.30482 0.47594 0.0
C182 C 0.73989 0.0299 0.54653 0.0
C183 C 0.73706 0.98136 0.46987 0.0
O184 O 0.75626 0.02265 0.53305 0.0
Zn185 Zn 0.73896 0.00545 0.50824 0.0
O186 O 0.7198 0.02481 0.53996 0.0
Zn187 Zn 0.70324 0.00613 0.50981 0.0
O188 O 0.68724 0.98292 0.5294 0.0
O189 O 0.724 0.97972 0.53173 0.0
O190 O 0.71752 0.98697 0.47813 0.0
O191 O 0.75436 0.98798 0.48207 0.0
O192 O 0.72357 0.03121 0.48536 0.0
O193 O 0.68694 0.02997 0.49166 0.0
C194 C 0.70441 0.97279 0.53818 0.0
C195 C 0.70394 0.03892 0.48081 0.0
C196 C 0.97339 0.70896 0.54227 0.0
C197 C 0.03779 0.71103 0.48233 0.0
O198 O 0.98089 0.72879 0.53749 0.0
Zn199 Zn 0.00607 0.74482 0.51461 0.0
O200 O 0.98246 0.69197 0.53134 0.0
Zn201 Zn 0.00552 0.70879 0.51219 0.0
O202 O 0.02574 0.72265 0.54305 0.0
O203 O 0.024 0.75982 0.54047 0.0
O204 O 0.02794 0.69337 0.49062 0.0
O205 O 0.03096 0.73044 0.48992 0.0
O206 O 0.9884 0.76264 0.49089 0.0
O207 O 0.98564 0.72603 0.48361 0.0
C208 C 0.03143 0.7422 0.55157 0.0
C209 C 0.98042 0.74638 0.4777 0.0
C210 C 0.29714 0.03597 0.53751 0.0
C211 C 0.29839 0.97215 0.47699 0.0
O212 O 0.31434 0.02679 0.52739 0.0
Zn213 Zn 0.29845 0.00416 0.50719 0.0
O214 O 0.27755 0.02874 0.53165 0.0
Zn215 Zn 0.26282 0.00331 0.50737 0.0
O216 O 0.24683 0.98518 0.53256 0.0
O217 O 0.28356 0.98309 0.53668 0.0
O218 O 0.27854 0.97857 0.48304 0.0
O219 O 0.31521 0.98211 0.48685 0.0
O220 O 0.28259 0.02474 0.47805 0.0
O221 O 0.246 0.02056 0.48227 0.0
C222 C 0.26386 0.97734 0.54426 0.0
C223 C 0.26262 0.02942 0.47062 0.0
C224 C 0.48144 0.77067 0.03971 0.0
C225 C 0.53487 0.77141 0.96767 0.0
O226 O 0.48794 0.7907 0.0339 0.0
Zn227 Zn 0.50952 0.80654 1.00553 0.0
O228 O 0.48889 0.75394 0.02685 0.0
Zn229 Zn 0.50825 0.77069 1.00388 0.0
O230 O 0.53265 0.78421 0.03003 0.0
O231 O 0.53204 0.82139 0.02699 0.0
O232 O 0.52627 0.75443 0.97901 0.0
O233 O 0.52989 0.79135 0.97555 0.0
O234 O 0.48787 0.82433 0.98593 0.0
O235 O 0.4845 0.7876 0.97974 0.0
C236 C 0.5402 0.80355 0.0369 0.0
C237 C 0.47821 0.80781 0.97482 0.0
C238 C 0.23893 0.52681 0.04928 0.0
C239 C 0.24194 0.47802 0.97266 0.0
O240 O 0.25632 0.51925 0.03789 0.0
Zn241 Zn 0.24105 0.50248 0.01087 0.0
O242 O 0.2195 0.52175 0.04045 0.0
Zn243 Zn 0.20531 0.50252 0.00927 0.0
O244 O 0.18838 0.47928 0.02767 0.0
O245 O 0.22496 0.47618 0.0326 0.0
O246 O 0.22186 0.483 0.97958 0.0
O247 O 0.25838 0.4858 0.98552 0.0
O248 O 0.22682 0.52844 0.98721 0.0
O249 O 0.18995 0.52596 0.98949 0.0
C250 C 0.20509 0.46908 0.0375 0.0
C251 C 0.20741 0.53569 0.98072 0.0
C252 C 0.53596 0.21047 0.98407 0.0
C253 C 0.47158 0.2075 0.04402 0.0
O254 O 0.52781 0.22974 0.99025 0.0
Zn255 Zn 0.50179 0.24378 0.01362 0.0
O256 O 0.52715 0.19265 0.99344 0.0
Zn257 Zn 0.50362 0.20773 0.01377 0.0
O258 O 0.48307 0.22206 0.98376 0.0
O259 O 0.48331 0.25908 0.98853 0.0
O260 O 0.48161 0.19056 0.03417 0.0
O261 O 0.47778 0.22747 0.03778 0.0
O262 O 0.51858 0.26138 0.03814 0.0
O263 O 0.52291 0.22463 0.04342 0.0
C264 C 0.47666 0.24167 0.97633 0.0
C265 C 0.52724 0.24497 0.05042 0.0
C266 C 0.80381 0.5392 0.03565 0.0
C267 C 0.80601 0.47438 0.97644 0.0
O268 O 0.82125 0.53067 0.02529 0.0
Zn269 Zn 0.80584 0.50701 0.00602 0.0
O270 O 0.78442 0.5312 0.03021 0.0
Zn271 Zn 0.7701 0.50524 0.00636 0.0
O272 O 0.75479 0.48674 0.03182 0.0
O273 O 0.79152 0.48702 0.03677 0.0
O274 O 0.78614 0.48072 0.98237 0.0
O275 O 0.82277 0.48449 0.98626 0.0
O276 O 0.78939 0.52642 0.9764 0.0
O277 O 0.75288 0.52206 0.98116 0.0
C278 C 0.77205 0.48058 0.04439 0.0
C279 C 0.76933 0.53077 0.96902 0.0
C280 C 0.1495 0.22256 0.27982 0.0
C281 C 0.17154 0.23004 0.28387 0.0
C282 C 0.13244 0.22868 0.29712 0.0
C283 C 0.11356 0.26838 0.34609 0.0
H284 H 0.08917 0.21654 0.38239 0.0
C285 C 0.06012 0.27873 0.43912 0.0
C286 C 0.04343 0.26271 0.44462 0.0
C287 C 0.07482 0.27561 0.41821 0.0
C288 C 0.09532 0.23125 0.37217 0.0
H289 H 0.19295 0.25055 0.30817 0.0
H290 H 0.16277 0.26215 0.33789 0.0
H291 H 0.11543 0.21094 0.3467 0.0
H292 H 0.02864 0.23114 0.43218 0.0
H293 H 0.05346 0.22615 0.39498 0.0
H294 H 0.09308 0.2888 0.37083 0.0
C295 C 0.15881 0.25141 0.32149 0.0
C296 C 0.1105 0.22798 0.35179 0.0
C297 C 0.176 0.24486 0.30452 0.0
C298 C 0.04151 0.24365 0.42857 0.0
C299 C 0.05589 0.24076 0.4073 0.0
C300 C 0.09796 0.27168 0.36611 0.0
C301 C 0.13707 0.24274 0.31841 0.0
C302 C 0.1199 0.2465 0.33876 0.0
C303 C 0.0729 0.25661 0.40189 0.0
C304 C 0.08879 0.25316 0.37969 0.0
H305 H 0.14579 0.21079 0.26428 0.0
H306 H 0.11578 0.2218 0.29442 0.0
H307 H 0.12058 0.2829 0.33621 0.0
H308 H 0.06211 0.29353 0.45128 0.0
H309 H 0.08792 0.28798 0.4152 0.0
C310 C 0.73011 0.21639 0.36465 0.0
C311 C 0.73908 0.21382 0.3395 0.0
C312 C 0.72232 0.1976 0.37853 0.0
C313 C 0.73415 0.13804 0.38507 0.0
H314 H 0.67754 0.13303 0.4218 0.0
C315 C 0.71284 0.0563 0.4383 0.0
C316 C 0.70175 0.05772 0.46229 0.0
C317 C 0.71411 0.07501 0.42194 0.0
C318 C 0.69354 0.13424 0.41193 0.0
H319 H 0.74652 0.18961 0.30905 0.0
H320 H 0.73319 0.15688 0.33337 0.0
H321 H 0.68574 0.16691 0.3962 0.0
H322 H 0.68273 0.07948 0.4879 0.0
H323 H 0.68577 0.11276 0.45986 0.0
H324 H 0.74271 0.10623 0.40144 0.0
C325 C 0.73201 0.17343 0.34223 0.0
C326 C 0.69815 0.15361 0.39718 0.0
C327 C 0.73947 0.1922 0.32825 0.0
C328 C 0.69118 0.07798 0.46931 0.0
C329 C 0.69293 0.097 0.45318 0.0
C330 C 0.72976 0.11895 0.40009 0.0
C331 C 0.72374 0.17587 0.36768 0.0
C332 C 0.71844 0.15557 0.38343 0.0
C333 C 0.70497 0.09592 0.42954 0.0
C334 C 0.7093 0.11658 0.41357 0.0
H335 H 0.72957 0.23287 0.37377 0.0
H336 H 0.71613 0.19992 0.39816 0.0
H337 H 0.75013 0.1393 0.37511 0.0
H338 H 0.72099 0.04075 0.43244 0.0
H339 H 0.72279 0.07314 0.40356 0.0
C340 C 0.82361 0.79054 0.33662 0.0
C341 C 0.8208 0.77864 0.31316 0.0
C342 C 0.8417 0.78619 0.35283 0.0
C343 C 0.89776 0.75907 0.35545 0.0
H344 H 0.88781 0.76586 0.42961 0.0
C345 C 0.96063 0.73388 0.43735 0.0
C346 C 0.96442 0.75054 0.45634 0.0
C347 C 0.9443 0.737 0.41825 0.0
C348 C 0.89086 0.76405 0.40894 0.0
H349 H 0.83488 0.75232 0.2888 0.0
H350 H 0.86621 0.74395 0.31789 0.0
H351 H 0.85658 0.77011 0.39986 0.0
H352 H 0.95439 0.78369 0.4699 0.0
H353 H 0.92541 0.78885 0.4369 0.0
H354 H 0.9321 0.75218 0.3651 0.0
C355 C 0.8546 0.75722 0.32323 0.0
C356 C 0.87299 0.76657 0.3918 0.0
C357 C 0.83651 0.76184 0.30667 0.0
C358 C 0.95189 0.77059 0.45551 0.0
C359 C 0.93526 0.7735 0.43672 0.0
C360 C 0.91563 0.75613 0.37275 0.0
C361 C 0.85735 0.76932 0.34661 0.0
C362 C 0.87624 0.76462 0.36476 0.0
C363 C 0.93116 0.75662 0.41811 0.0
C364 C 0.91237 0.759 0.3996 0.0
H365 H 0.8116 0.80314 0.34285 0.0
H366 H 0.84337 0.79623 0.37031 0.0
H367 H 0.90099 0.7576 0.33481 0.0
H368 H 0.9701 0.71829 0.43742 0.0
H369 H 0.94139 0.72372 0.40417 0.0
C370 C 0.26736 0.81832 0.32792 0.0
C371 C 0.26979 0.79636 0.33765 0.0
C372 C 0.27533 0.83686 0.34194 0.0
C373 C 0.29228 0.85332 0.40911 0.0
H374 H 0.30722 0.9095 0.37455 0.0
C375 C 0.31764 0.93653 0.46269 0.0
C376 C 0.30111 0.95306 0.45879 0.0
C377 C 0.31813 0.9171 0.44709 0.0
C378 C 0.30331 0.89383 0.3844 0.0
H379 H 0.28321 0.77637 0.3691 0.0
H380 H 0.29824 0.80858 0.39308 0.0
H381 H 0.30109 0.87549 0.34875 0.0
H382 H 0.27292 0.96288 0.43493 0.0
H383 H 0.27445 0.92948 0.40702 0.0
H384 H 0.29489 0.87192 0.44479 0.0
C385 C 0.28947 0.81171 0.37507 0.0
C386 C 0.29952 0.87435 0.36966 0.0
C387 C 0.28106 0.79319 0.36125 0.0
C388 C 0.28581 0.95036 0.43835 0.0
C389 C 0.28671 0.93134 0.42235 0.0
C390 C 0.29659 0.8727 0.42384 0.0
C391 C 0.28634 0.8339 0.36588 0.0
C392 C 0.29326 0.85393 0.38173 0.0
C393 C 0.30256 0.91434 0.4269 0.0
C394 C 0.30157 0.89322 0.41157 0.0
H395 H 0.25841 0.82126 0.30996 0.0
H396 H 0.27203 0.85355 0.33435 0.0
H397 H 0.2872 0.83816 0.41926 0.0
H398 H 0.32949 0.93815 0.47848 0.0
H399 H 0.33045 0.90412 0.45094 0.0
C400 C 0.16673 0.77301 0.7282 0.0
C401 C 0.18713 0.76251 0.72202 0.0
C402 C 0.14738 0.76801 0.71408 0.0
C403 C 0.11535 0.76933 0.66904 0.0
H404 H 0.10532 0.71273 0.63319 0.0
C405 C 0.05874 0.76398 0.57875 0.0
C406 C 0.04684 0.74397 0.57396 0.0
C407 C 0.07408 0.76519 0.59919 0.0
C408 C 0.10757 0.72859 0.64329 0.0
H409 H 0.20326 0.73794 0.69712 0.0
H410 H 0.16983 0.72962 0.6719 0.0
H411 H 0.13395 0.71498 0.66649 0.0
H412 H 0.04111 0.70978 0.58739 0.0
H413 H 0.06714 0.71212 0.62358 0.0
H414 H 0.08852 0.78277 0.64648 0.0
C415 C 0.16838 0.74126 0.68804 0.0
C416 C 0.12429 0.72997 0.66221 0.0
C417 C 0.18762 0.74599 0.7025 0.0
C418 C 0.0502 0.72538 0.59042 0.0
C419 C 0.06527 0.72669 0.6111 0.0
C420 C 0.09843 0.76786 0.65042 0.0
C421 C 0.14815 0.75277 0.69306 0.0
C422 C 0.12872 0.75047 0.67502 0.0
C423 C 0.07763 0.74654 0.61563 0.0
C424 C 0.09457 0.74761 0.63689 0.0
H425 H 0.16601 0.78584 0.74319 0.0
H426 H 0.13203 0.77675 0.71906 0.0
H427 H 0.11836 0.78554 0.67809 0.0
H428 H 0.05663 0.77855 0.5663 0.0
H429 H 0.08354 0.78064 0.60165 0.0
C430 C 0.26438 0.18741 0.69023 0.0
C431 C 0.26738 0.2095 0.68109 0.0
C432 C 0.27233 0.16901 0.6759 0.0
C433 C 0.29026 0.15374 0.60854 0.0
H434 H 0.30339 0.09646 0.6415 0.0
C435 C 0.31578 0.0716 0.55281 0.0
C436 C 0.2992 0.05497 0.55596 0.0
C437 C 0.31597 0.0907 0.56893 0.0
C438 C 0.29997 0.11244 0.6321 0.0
H439 H 0.28184 0.22985 0.65047 0.0
H440 H 0.29687 0.19788 0.62601 0.0
H441 H 0.29732 0.12992 0.6683 0.0
H442 H 0.27051 0.04468 0.57902 0.0
H443 H 0.27145 0.07753 0.60779 0.0
H444 H 0.29333 0.136 0.57231 0.0
C445 C 0.28766 0.19455 0.64374 0.0
C446 C 0.29622 0.13161 0.64741 0.0
C447 C 0.27926 0.21293 0.65785 0.0
C448 C 0.28344 0.05729 0.57613 0.0
C449 C 0.28402 0.07599 0.59264 0.0
C450 C 0.29453 0.13466 0.59326 0.0
C451 C 0.28387 0.17224 0.65224 0.0
C452 C 0.29065 0.15244 0.6359 0.0
C453 C 0.30001 0.09305 0.5889 0.0
C454 C 0.29887 0.11376 0.60493 0.0
H455 H 0.25497 0.18431 0.70792 0.0
H456 H 0.26856 0.15224 0.68297 0.0
H457 H 0.28569 0.16923 0.59878 0.0
H458 H 0.32801 0.07026 0.53728 0.0
H459 H 0.32841 0.10372 0.5657 0.0
C460 C 0.82219 0.26176 0.69683 0.0
C461 C 0.82342 0.24431 0.71522 0.0
C462 C 0.84036 0.26627 0.68044 0.0
C463 C 0.87248 0.25423 0.63599 0.0
H464 H 0.9345 0.26254 0.65619 0.0
C465 C 0.94651 0.24481 0.56409 0.0
C466 C 0.96084 0.2636 0.56287 0.0
C467 C 0.93066 0.24295 0.58408 0.0
C468 C 0.91723 0.26022 0.65035 0.0
H469 H 0.845 0.21893 0.73213 0.0
H470 H 0.87711 0.22731 0.70389 0.0
H471 H 0.9052 0.26011 0.68976 0.0
H472 H 0.9704 0.29472 0.58213 0.0
H473 H 0.9431 0.29108 0.61743 0.0
H474 H 0.88445 0.25376 0.59669 0.0
C475 C 0.86202 0.23732 0.70205 0.0
C476 C 0.90054 0.25882 0.66949 0.0
C477 C 0.8437 0.23254 0.71817 0.0
C478 C 0.9595 0.28009 0.58249 0.0
C479 C 0.94398 0.27799 0.60275 0.0
C480 C 0.88917 0.25517 0.61694 0.0
C481 C 0.8602 0.25366 0.68241 0.0
C482 C 0.878 0.25593 0.66244 0.0
C483 C 0.9292 0.25958 0.60351 0.0
C484 C 0.91168 0.25821 0.62392 0.0
H485 H 0.80667 0.27088 0.69392 0.0
H486 H 0.83862 0.27905 0.66554 0.0
H487 H 0.85525 0.25173 0.63007 0.0
H488 H 0.94711 0.23187 0.54922 0.0
H489 H 0.91949 0.22853 0.58434 0.0
C490 C 0.70355 0.78978 0.65056 0.0
C491 C 0.72455 0.78688 0.66245 0.0
C492 C 0.69727 0.81082 0.64053 0.0
C493 C 0.7126 0.87198 0.64103 0.0
H494 H 0.68597 0.87215 0.5724 0.0
C495 C 0.72094 0.94652 0.57073 0.0
C496 C 0.70241 0.95305 0.55572 0.0
C497 C 0.71999 0.92734 0.58639 0.0
C498 C 0.69304 0.87241 0.59176 0.0
H499 H 0.75488 0.80416 0.67425 0.0
H500 H 0.74426 0.84052 0.65634 0.0
H501 H 0.691 0.83648 0.59533 0.0
H502 H 0.66817 0.94465 0.5457 0.0
H503 H 0.66663 0.91064 0.57294 0.0
H504 H 0.7155 0.90783 0.63692 0.0
C505 C 0.73247 0.82669 0.65491 0.0
C506 C 0.69591 0.85195 0.60495 0.0
C507 C 0.73871 0.80572 0.66494 0.0
C508 C 0.6827 0.94007 0.55707 0.0
C509 C 0.68186 0.92058 0.57255 0.0
C510 C 0.70988 0.89237 0.62777 0.0
C511 C 0.71182 0.82947 0.64219 0.0
C512 C 0.70623 0.85141 0.62952 0.0
C513 C 0.70056 0.91399 0.58731 0.0
C514 C 0.70055 0.89277 0.60274 0.0
H515 H 0.69229 0.77561 0.64813 0.0
H516 H 0.68113 0.81239 0.63117 0.0
H517 H 0.72012 0.87231 0.66015 0.0
H518 H 0.73636 0.95616 0.57025 0.0
H519 H 0.73478 0.9226 0.59724 0.0
C520 C 0.78868 0.70813 0.64893 0.0
C521 C 0.78496 0.72844 0.66246 0.0
C522 C 0.80984 0.70323 0.63841 0.0
C523 C 0.85999 0.73333 0.61522 0.0
H524 H 0.88812 0.67435 0.6132 0.0
C525 C 0.94922 0.72425 0.57756 0.0
C526 C 0.95381 0.70676 0.55987 0.0
C527 C 0.9294 0.72441 0.59192 0.0
C528 C 0.88035 0.69087 0.61343 0.0
H529 H 0.80088 0.7587 0.6772 0.0
H530 H 0.83771 0.75012 0.65919 0.0
H531 H 0.85199 0.67918 0.63549 0.0
H532 H 0.94169 0.67504 0.54438 0.0
H533 H 0.90652 0.67547 0.5694 0.0
H534 H 0.88792 0.7451 0.59308 0.0
C535 C 0.8242 0.73821 0.65607 0.0
C536 C 0.8597 0.69364 0.6262 0.0
C537 C 0.80312 0.74312 0.66647 0.0
C538 C 0.93859 0.68873 0.55788 0.0
C539 C 0.91849 0.68898 0.57222 0.0
C540 C 0.88047 0.73057 0.60251 0.0
C541 C 0.82769 0.71855 0.64126 0.0
C542 C 0.84943 0.71501 0.62751 0.0
C543 C 0.9134 0.70722 0.58882 0.0
C544 C 0.89111 0.70941 0.60172 0.0
H545 H 0.77498 0.69655 0.64538 0.0
H546 H 0.81193 0.68798 0.62704 0.0
H547 H 0.85228 0.74988 0.61515 0.0
H548 H 0.96078 0.73821 0.5799 0.0
H549 H 0.92635 0.73837 0.60507 0.0
C550 C 0.22578 0.84308 0.72122 0.0
C551 C 0.24143 0.82532 0.721 0.0
C552 C 0.22919 0.86228 0.70597 0.0
C553 C 0.27034 0.89481 0.66769 0.0
H554 H 0.22016 0.90586 0.62176 0.0
C555 C 0.27959 0.94879 0.57499 0.0
C556 C 0.26127 0.96168 0.56651 0.0
C557 C 0.27735 0.93391 0.5959 0.0
C558 C 0.23421 0.90342 0.6347 0.0
H559 H 0.27381 0.81472 0.70609 0.0
H560 H 0.28002 0.84856 0.68003 0.0
H561 H 0.21665 0.87806 0.65623 0.0
H562 H 0.22631 0.96941 0.57367 0.0
H563 H 0.22251 0.94403 0.61069 0.0
H564 H 0.2879 0.92029 0.64636 0.0
C565 C 0.26501 0.84748 0.69187 0.0
C566 C 0.23219 0.88739 0.65446 0.0
C567 C 0.26149 0.82812 0.70694 0.0
C568 C 0.24069 0.95955 0.57959 0.0
C569 C 0.23851 0.94489 0.60077 0.0
C570 C 0.27228 0.91111 0.64812 0.0
C571 C 0.24848 0.86431 0.69044 0.0
C572 C 0.2503 0.88272 0.67097 0.0
C573 C 0.25679 0.93175 0.60915 0.0
C574 C 0.25434 0.91542 0.63109 0.0
H575 H 0.21033 0.84164 0.73221 0.0
H576 H 0.21635 0.87519 0.7056 0.0
H577 H 0.28452 0.89166 0.68025 0.0
H578 H 0.29566 0.94992 0.56522 0.0
H579 H 0.29169 0.9238 0.6013 0.0
C580 C 0.2111 0.27616 0.65447 0.0
C581 C 0.2093 0.27 0.6808 0.0
C582 C 0.19232 0.28369 0.64075 0.0
C583 C 0.13097 0.27773 0.64272 0.0
H584 H 0.13263 0.31991 0.58519 0.0
C585 C 0.06432 0.27662 0.56321 0.0
C586 C 0.05607 0.29718 0.55356 0.0
C587 C 0.08252 0.27619 0.58009 0.0
C588 C 0.13182 0.3083 0.6014 0.0
H589 H 0.18635 0.26811 0.71358 0.0
H590 H 0.15402 0.28198 0.69001 0.0
H591 H 0.1656 0.31551 0.61288 0.0
H592 H 0.06067 0.33348 0.55408 0.0
H593 H 0.09269 0.33271 0.58381 0.0
H594 H 0.09734 0.27043 0.63133 0.0
C595 C 0.16984 0.28051 0.67977 0.0
C596 C 0.15078 0.30561 0.61711 0.0
C597 C 0.18854 0.27285 0.69342 0.0
C598 C 0.0666 0.31737 0.56118 0.0
C599 C 0.08498 0.31692 0.5781 0.0
C600 C 0.11211 0.28042 0.62708 0.0
C601 C 0.1713 0.28534 0.65307 0.0
C602 C 0.15068 0.29002 0.63773 0.0
C603 C 0.09305 0.2963 0.58785 0.0
C604 C 0.11244 0.29537 0.60591 0.0
H605 H 0.22689 0.27451 0.64421 0.0
H606 H 0.19409 0.28716 0.6202 0.0
H607 H 0.13029 0.26536 0.65818 0.0
H608 H 0.05673 0.26071 0.55772 0.0
H609 H 0.08855 0.25999 0.58683 0.0
C610 C 0.74881 0.18297 0.70253 0.0
C611 C 0.7671 0.18385 0.71955 0.0
C612 C 0.74453 0.16349 0.68805 0.0
C613 C 0.73446 0.11866 0.66283 0.0
H614 H 0.7874 0.08769 0.63748 0.0
C615 C 0.72713 0.04589 0.58899 0.0
C616 C 0.74362 0.04438 0.56953 0.0
C617 C 0.72994 0.06036 0.61018 0.0
C618 C 0.77242 0.09625 0.64413 0.0
H619 H 0.79431 0.16466 0.73624 0.0
H620 H 0.78623 0.13016 0.71198 0.0
H621 H 0.79127 0.11746 0.6695 0.0
H622 H 0.7761 0.05667 0.55708 0.0
H623 H 0.78064 0.08271 0.59337 0.0
H624 H 0.71578 0.09861 0.6361 0.0
C625 C 0.77563 0.14475 0.709 0.0
C626 C 0.77459 0.11311 0.66298 0.0
C627 C 0.78012 0.16438 0.72317 0.0
C628 C 0.76316 0.05739 0.57188 0.0
C629 C 0.7658 0.07222 0.59284 0.0
C630 C 0.73233 0.10206 0.64367 0.0
C631 C 0.75828 0.1443 0.69051 0.0
C632 C 0.75567 0.12478 0.67237 0.0
C633 C 0.74912 0.07406 0.6122 0.0
C634 C 0.75131 0.09078 0.6338 0.0
H635 H 0.73874 0.19787 0.69905 0.0
H636 H 0.73123 0.16405 0.67383 0.0
H637 H 0.71943 0.12693 0.66983 0.0
H638 H 0.71199 0.03584 0.58787 0.0
H639 H 0.71697 0.0608 0.62493 0.0
C640 C 0.79678 0.28159 0.36375 0.0
C641 C 0.7987 0.27281 0.33843 0.0
C642 C 0.81573 0.2895 0.37693 0.0
C643 C 0.87572 0.27908 0.37976 0.0
H644 H 0.87929 0.33413 0.42033 0.0
C645 C 0.95697 0.30054 0.43222 0.0
C646 C 0.95523 0.30918 0.45748 0.0
C647 C 0.93833 0.30014 0.41593 0.0
C648 C 0.87851 0.31859 0.40929 0.0
H649 H 0.82199 0.26589 0.30695 0.0
H650 H 0.85491 0.27965 0.3299 0.0
H651 H 0.84528 0.32575 0.39559 0.0
H652 H 0.93308 0.32474 0.48556 0.0
H653 H 0.90005 0.32333 0.45749 0.0
H654 H 0.90823 0.27117 0.39402 0.0
C655 C 0.83876 0.28046 0.33953 0.0
C656 C 0.85905 0.31385 0.39507 0.0
C657 C 0.81985 0.27278 0.3263 0.0
C658 C 0.93481 0.31834 0.46593 0.0
C659 C 0.91593 0.31749 0.4498 0.0
C660 C 0.89496 0.28362 0.39415 0.0
C661 C 0.837 0.2885 0.36516 0.0
C662 C 0.85754 0.29407 0.38007 0.0
C663 C 0.91729 0.30768 0.42486 0.0
C664 C 0.89675 0.30349 0.40904 0.0
H665 H 0.78068 0.28192 0.37354 0.0
H666 H 0.8139 0.2955 0.39671 0.0
H667 H 0.87487 0.26346 0.36883 0.0
H668 H 0.97261 0.29333 0.42538 0.0
H669 H 0.9403 0.29313 0.39662 0.0
C670 C 0.77201 0.85252 0.28726 0.0
C671 C 0.7609 0.83222 0.29288 0.0
C672 C 0.76627 0.87236 0.30044 0.0
C673 C 0.76598 0.90392 0.34631 0.0
H674 H 0.70853 0.91479 0.37922 0.0
C675 C 0.75877 0.95495 0.4412 0.0
C676 C 0.7392 0.96736 0.44617 0.0
C677 C 0.7603 0.94108 0.41926 0.0
C678 C 0.72466 0.91236 0.36995 0.0
H679 H 0.73416 0.81694 0.31526 0.0
H680 H 0.7245 0.85113 0.33875 0.0
H681 H 0.71124 0.88763 0.34403 0.0
H682 H 0.70619 0.97567 0.43156 0.0
H683 H 0.70914 0.95225 0.39283 0.0
H684 H 0.7793 0.92908 0.37169 0.0
C685 C 0.73728 0.85217 0.32382 0.0
C686 C 0.72627 0.89646 0.34992 0.0
C687 C 0.74277 0.83246 0.31029 0.0
C688 C 0.72141 0.96607 0.42842 0.0
C689 C 0.72307 0.95252 0.40625 0.0
C690 C 0.7643 0.92006 0.36603 0.0
C691 C 0.74964 0.87216 0.31994 0.0
C692 C 0.74707 0.89155 0.33828 0.0
C693 C 0.74244 0.9396 0.40148 0.0
C694 C 0.74375 0.92407 0.37865 0.0
H695 H 0.78608 0.8527 0.2739 0.0
H696 H 0.77571 0.88755 0.29631 0.0
H697 H 0.7824 0.90053 0.33819 0.0
H698 H 0.77271 0.95551 0.45462 0.0
H699 H 0.77533 0.9311 0.41664 0.0
C700 C 0.2128 0.72983 0.36379 0.0
C701 C 0.21141 0.73594 0.33742 0.0
C702 C 0.19386 0.72208 0.37725 0.0
C703 C 0.13233 0.72692 0.37405 0.0
H704 H 0.13369 0.686 0.43278 0.0
C705 C 0.06556 0.73006 0.45343 0.0
C706 C 0.05702 0.70991 0.46397 0.0
C707 C 0.08373 0.72979 0.43638 0.0
C708 C 0.13297 0.69721 0.41621 0.0
H709 H 0.18894 0.73754 0.30435 0.0
H710 H 0.15644 0.72319 0.3274 0.0
H711 H 0.16706 0.69039 0.40541 0.0
H712 H 0.06112 0.67357 0.46482 0.0
H713 H 0.09323 0.67311 0.43474 0.0
H714 H 0.09841 0.73386 0.38479 0.0
C715 C 0.17204 0.72491 0.33791 0.0
C716 C 0.15216 0.69994 0.40069 0.0
C717 C 0.19087 0.73284 0.32453 0.0
C718 C 0.06725 0.68937 0.45699 0.0
C719 C 0.08567 0.68912 0.43989 0.0
C720 C 0.11325 0.72418 0.38947 0.0
C721 C 0.17307 0.72011 0.36464 0.0
C722 C 0.1522 0.71517 0.37968 0.0
C723 C 0.094 0.70937 0.42929 0.0
C724 C 0.11347 0.70975 0.41112 0.0
H725 H 0.2284 0.73163 0.37428 0.0
H726 H 0.19533 0.71867 0.39784 0.0
H727 H 0.1317 0.73901 0.35831 0.0
H728 H 0.05823 0.74624 0.45835 0.0
H729 H 0.08995 0.74573 0.42902 0.0
C730 C 0.22247 0.14914 0.28099 0.0
C731 C 0.22952 0.17148 0.28502 0.0
C732 C 0.22818 0.13225 0.29873 0.0
C733 C 0.26632 0.11406 0.34897 0.0
H734 H 0.21418 0.09033 0.38485 0.0
C735 C 0.27536 0.06147 0.44272 0.0
C736 C 0.25925 0.04494 0.44849 0.0
C737 C 0.27247 0.07606 0.42167 0.0
C738 C 0.22898 0.09628 0.37478 0.0
H739 H 0.24889 0.19359 0.30978 0.0
H740 H 0.2598 0.16372 0.34028 0.0
H741 H 0.20931 0.1161 0.34854 0.0
H742 H 0.22769 0.03034 0.43646 0.0
H743 H 0.2231 0.05489 0.39893 0.0
H744 H 0.28612 0.09381 0.37437 0.0
C745 C 0.24969 0.15939 0.32356 0.0
C746 C 0.22612 0.11119 0.35404 0.0
C747 C 0.24353 0.1764 0.30614 0.0
C748 C 0.24026 0.04312 0.43263 0.0
C749 C 0.23761 0.05735 0.41116 0.0
C750 C 0.26922 0.0987 0.36933 0.0
C751 C 0.24143 0.13736 0.32045 0.0
C752 C 0.24475 0.12039 0.34115 0.0
C753 C 0.25362 0.07415 0.4054 0.0
C754 C 0.25058 0.08977 0.38282 0.0
H755 H 0.21133 0.14506 0.26509 0.0
H756 H 0.22163 0.11537 0.296 0.0
H757 H 0.28093 0.12092 0.33921 0.0
H758 H 0.2901 0.06338 0.45476 0.0
H759 H 0.28494 0.08904 0.41847 0.0
C760 C 0.6873 0.74213 0.81161 0.0
C761 C 0.6803 0.73423 0.78719 0.0
C762 C 0.67168 0.74992 0.82977 0.0
C763 C 0.63448 0.74408 0.86918 0.0
H764 H 0.58212 0.7809 0.8557 0.0
C765 C 0.55926 0.74691 0.93957 0.0
C766 C 0.55074 0.76837 0.94572 0.0
C767 C 0.57482 0.74425 0.91942 0.0
C768 C 0.59673 0.77068 0.85975 0.0
H769 H 0.65164 0.72991 0.76193 0.0
H770 H 0.62429 0.74377 0.79365 0.0
H771 H 0.61043 0.77575 0.82156 0.0
H772 H 0.55154 0.80381 0.93511 0.0
H773 H 0.57861 0.79908 0.89985 0.0
H774 H 0.62084 0.73882 0.90719 0.0
C775 C 0.64188 0.74391 0.79872 0.0
C776 C 0.61285 0.76764 0.84019 0.0
C777 C 0.65755 0.73606 0.78052 0.0
C778 C 0.55782 0.78704 0.93094 0.0
C779 C 0.57322 0.78434 0.91063 0.0
C780 C 0.61832 0.74693 0.88858 0.0
C781 C 0.64871 0.75004 0.8239 0.0
C782 C 0.63191 0.75431 0.84473 0.0
C783 C 0.58207 0.76295 0.90482 0.0
C784 C 0.59923 0.76018 0.88408 0.0
H785 H 0.70477 0.74118 0.81715 0.0
H786 H 0.6775 0.755 0.84881 0.0
H787 H 0.6488 0.73342 0.87318 0.0
H788 H 0.55414 0.73218 0.95052 0.0
H789 H 0.58116 0.7275 0.9152 0.0
C790 C 0.23249 0.71535 0.86708 0.0
C791 C 0.24378 0.71197 0.84341 0.0
C792 C 0.22368 0.69699 0.88091 0.0
C793 C 0.2121 0.63461 0.87506 0.0
H794 H 0.21553 0.63666 0.95025 0.0
C795 C 0.22194 0.55774 0.94315 0.0
C796 C 0.20595 0.55528 0.96304 0.0
C797 C 0.22218 0.57701 0.92755 0.0
C798 C 0.21418 0.636 0.92928 0.0
H799 H 0.25488 0.68678 0.81574 0.0
H800 H 0.24053 0.6548 0.84009 0.0
H801 H 0.22464 0.67028 0.92505 0.0
H802 H 0.17756 0.57093 0.98218 0.0
H803 H 0.17858 0.60537 0.95537 0.0
H804 H 0.20325 0.5997 0.87959 0.0
C805 C 0.23752 0.67155 0.84773 0.0
C806 C 0.21931 0.6553 0.91473 0.0
C807 C 0.2459 0.68993 0.83372 0.0
C808 C 0.18993 0.57237 0.96683 0.0
C809 C 0.19058 0.59203 0.95163 0.0
C810 C 0.20748 0.61521 0.88961 0.0
C811 C 0.22638 0.67473 0.87166 0.0
C812 C 0.21875 0.65481 0.88733 0.0
C813 C 0.20679 0.5945 0.93195 0.0
C814 C 0.20877 0.61566 0.91681 0.0
H815 H 0.23056 0.73221 0.87493 0.0
H816 H 0.21487 0.7003 0.89893 0.0
H817 H 0.2108 0.63357 0.85412 0.0
H818 H 0.23446 0.54481 0.93981 0.0
H819 H 0.23491 0.57861 0.9126 0.0
C820 C 0.34512 0.27392 0.79646 0.0
C821 C 0.32459 0.26332 0.80181 0.0
C822 C 0.36407 0.26897 0.81127 0.0
C823 C 0.39469 0.27018 0.85766 0.0
H824 H 0.40452 0.21304 0.8923 0.0
C825 C 0.44924 0.2636 0.94954 0.0
C826 C 0.46149 0.24374 0.95378 0.0
C827 C 0.43425 0.26507 0.92878 0.0
C828 C 0.40231 0.22907 0.88256 0.0
H829 H 0.30789 0.23858 0.82596 0.0
H830 H 0.34065 0.23031 0.8523 0.0
H831 H 0.37663 0.21558 0.85816 0.0
H832 H 0.4682 0.21008 0.9391 0.0
H833 H 0.44275 0.21288 0.90244 0.0
H834 H 0.42077 0.28352 0.88149 0.0
C835 C 0.34247 0.24203 0.83632 0.0
C836 C 0.38603 0.23059 0.86316 0.0
C837 C 0.32363 0.24674 0.82121 0.0
C838 C 0.45882 0.22555 0.93651 0.0
C839 C 0.4441 0.22712 0.91555 0.0
C840 C 0.41115 0.26858 0.8768 0.0
C841 C 0.36277 0.25363 0.8321 0.0
C842 C 0.38171 0.25127 0.85075 0.0
C843 C 0.43141 0.24681 0.91153 0.0
C844 C 0.41492 0.24812 0.88987 0.0
H845 H 0.34624 0.28675 0.78153 0.0
H846 H 0.37953 0.2778 0.80696 0.0
H847 H 0.39171 0.2865 0.84891 0.0
H848 H 0.45083 0.27785 0.96261 0.0
H849 H 0.42452 0.28036 0.92666 0.0
C850 C 0.77981 0.29571 0.86331 0.0
C851 C 0.76855 0.29925 0.83976 0.0
C852 C 0.7892 0.31389 0.87687 0.0
C853 C 0.80282 0.3757 0.87039 0.0
H854 H 0.79865 0.37455 0.94559 0.0
C855 C 0.79436 0.45368 0.93676 0.0
C856 C 0.80872 0.45532 0.95824 0.0
C857 C 0.79453 0.43448 0.92103 0.0
C858 C 0.80026 0.37495 0.92462 0.0
H859 H 0.75813 0.32452 0.81199 0.0
H860 H 0.77351 0.35626 0.83594 0.0
H861 H 0.78871 0.341 0.92074 0.0
H862 H 0.83472 0.43841 0.98002 0.0
H863 H 0.83439 0.40412 0.95287 0.0
H864 H 0.81278 0.41033 0.87454 0.0
C865 C 0.77602 0.33948 0.84366 0.0
C866 C 0.79464 0.35568 0.91028 0.0
C867 C 0.76703 0.32127 0.82991 0.0
C868 C 0.82368 0.4376 0.96339 0.0
C869 C 0.8234 0.41802 0.94801 0.0
C870 C 0.80797 0.39508 0.88473 0.0
C871 C 0.78713 0.33613 0.86747 0.0
C872 C 0.7954 0.35589 0.88289 0.0
C873 C 0.80864 0.41625 0.92685 0.0
C874 C 0.8064 0.39497 0.91194 0.0
H875 H 0.7813 0.27885 0.87125 0.0
H876 H 0.79796 0.31046 0.89481 0.0
H877 H 0.80427 0.37647 0.84944 0.0
H878 H 0.78263 0.46711 0.93245 0.0
H879 H 0.78287 0.43345 0.90498 0.0
C880 C 0.673 0.26388 0.21864 0.0
C881 C 0.68847 0.28055 0.21095 0.0
C882 C 0.65451 0.25869 0.20292 0.0
C883 C 0.63489 0.26561 0.13461 0.0
H884 H 0.57617 0.252 0.16302 0.0
C885 C 0.55488 0.26958 0.07341 0.0
C886 C 0.54313 0.24908 0.07187 0.0
C887 C 0.57152 0.27259 0.09211 0.0
C888 C 0.59255 0.25571 0.15494 0.0
H889 H 0.69665 0.30433 0.18014 0.0
H890 H 0.66417 0.29652 0.15422 0.0
H891 H 0.60778 0.25838 0.1925 0.0
H892 H 0.53875 0.21612 0.08949 0.0
H893 H 0.56755 0.22173 0.12271 0.0
H894 H 0.61947 0.26383 0.09719 0.0
C895 C 0.66639 0.28698 0.17196 0.0
C896 C 0.61067 0.25921 0.17175 0.0
C897 C 0.68489 0.29187 0.1873 0.0
C898 C 0.54764 0.23205 0.09014 0.0
C899 C 0.56399 0.23526 0.1092 0.0
C900 C 0.61678 0.26257 0.11797 0.0
C901 C 0.65111 0.27009 0.17925 0.0
C902 C 0.63202 0.26457 0.16176 0.0
C903 C 0.57638 0.25536 0.10994 0.0
C904 C 0.59544 0.25786 0.12797 0.0
H905 H 0.6752 0.25483 0.23671 0.0
H906 H 0.64315 0.24548 0.20909 0.0
H907 H 0.65118 0.26894 0.1261 0.0
H908 H 0.55181 0.28297 0.05957 0.0
H909 H 0.58088 0.28826 0.09242 0.0
C910 C 0.78194 0.71574 0.15611 0.0
C911 C 0.77246 0.71288 0.18096 0.0
C912 C 0.78937 0.69702 0.1418 0.0
C913 C 0.77432 0.63927 0.13153 0.0
H914 H 0.83262 0.62988 0.09984 0.0
C915 C 0.79191 0.5572 0.07693 0.0
C916 C 0.80526 0.5579 0.05449 0.0
C917 C 0.79085 0.5757 0.09365 0.0
C918 C 0.81614 0.63235 0.10823 0.0
H919 H 0.76382 0.68828 0.2105 0.0
H920 H 0.77639 0.65566 0.18532 0.0
H921 H 0.82581 0.66364 0.1263 0.0
H922 H 0.82845 0.57815 0.03208 0.0
H923 H 0.82578 0.61119 0.06059 0.0
H924 H 0.76396 0.60903 0.11276 0.0
C925 C 0.77834 0.67238 0.17711 0.0
C926 C 0.81234 0.65163 0.12349 0.0
C927 C 0.7713 0.69106 0.19156 0.0
C928 C 0.81814 0.57722 0.04942 0.0
C929 C 0.81662 0.5961 0.06584 0.0
C930 C 0.77792 0.62035 0.11593 0.0
C931 C 0.78703 0.67514 0.15192 0.0
C932 C 0.79146 0.65507 0.13549 0.0
C933 C 0.80252 0.59577 0.08793 0.0
C934 C 0.79896 0.61637 0.10428 0.0
H935 H 0.78301 0.73237 0.1475 0.0
H936 H 0.7959 0.69954 0.12235 0.0
H937 H 0.75793 0.64178 0.14018 0.0
H938 H 0.78202 0.54234 0.0814 0.0
H939 H 0.78049 0.57432 0.11088 0.0
C940 C 0.32149 0.7283 0.17648 0.0
C941 C 0.31925 0.7381 0.20125 0.0
C942 C 0.33921 0.73411 0.16019 0.0
C943 C 0.39584 0.7597 0.15991 0.0
H944 H 0.38635 0.75776 0.08538 0.0
C945 C 0.46136 0.78412 0.07963 0.0
C946 C 0.4646 0.76743 0.06051 0.0
C947 C 0.44439 0.78182 0.09827 0.0
C948 C 0.38923 0.7583 0.10615 0.0
H949 H 0.33353 0.76249 0.22786 0.0
H950 H 0.36439 0.77334 0.19881 0.0
H951 H 0.35456 0.75355 0.1147 0.0
H952 H 0.45285 0.73514 0.04614 0.0
H953 H 0.42277 0.73147 0.0783 0.0
H954 H 0.43063 0.7651 0.15088 0.0
C955 C 0.35264 0.7606 0.19239 0.0
C956 C 0.37105 0.75579 0.12302 0.0
C957 C 0.33486 0.75456 0.20895 0.0
C958 C 0.4508 0.74823 0.06067 0.0
C959 C 0.43355 0.74617 0.07896 0.0
C960 C 0.41402 0.76264 0.14293 0.0
C961 C 0.35507 0.75032 0.16782 0.0
C962 C 0.37416 0.75582 0.15014 0.0
C963 C 0.43008 0.76304 0.09775 0.0
C964 C 0.41089 0.76143 0.11593 0.0
H965 H 0.30948 0.716 0.16954 0.0
H966 H 0.34063 0.72548 0.1417 0.0
H967 H 0.39893 0.75966 0.18062 0.0
H968 H 0.47181 0.79906 0.08005 0.0
H969 H 0.44198 0.79505 0.11255 0.0
C970 C 0.2255 0.2846 0.12846 0.0
C971 C 0.22109 0.2797 0.1547 0.0
C972 C 0.2189 0.30516 0.11769 0.0
C973 C 0.19381 0.34586 0.09652 0.0
H974 H 0.2115 0.39984 0.13383 0.0
C975 C 0.18253 0.43585 0.05357 0.0
C976 C 0.2022 0.44891 0.05424 0.0
C977 C 0.18097 0.41582 0.06802 0.0
C978 C 0.20631 0.38493 0.12325 0.0
H979 H 0.20589 0.29227 0.19011 0.0
H980 H 0.19457 0.32862 0.17131 0.0
H981 H 0.21544 0.36295 0.15453 0.0
H982 H 0.23524 0.45167 0.07142 0.0
H983 H 0.2324 0.41713 0.09666 0.0
H984 H 0.18538 0.36778 0.06492 0.0
C985 C 0.20311 0.31643 0.15911 0.0
C986 C 0.2084 0.36382 0.13518 0.0
C987 C 0.20947 0.29563 0.16983 0.0
C988 C 0.21988 0.44197 0.07034 0.0
C989 C 0.2182 0.42223 0.085 0.0
C990 C 0.1915 0.36699 0.08469 0.0
C991 C 0.20791 0.32146 0.13294 0.0
C992 C 0.20273 0.34399 0.1217 0.0
C993 C 0.19889 0.40873 0.08376 0.0
C994 C 0.19827 0.38672 0.09767 0.0
H995 H 0.23425 0.27254 0.11627 0.0
H996 H 0.22308 0.30857 0.09757 0.0
H997 H 0.18911 0.3309 0.08572 0.0
H998 H 0.16864 0.44074 0.04132 0.0
H999 H 0.16584 0.4058 0.06675 0.0
C1000 C 0.28787 0.20347 0.15174 0.0
C1001 C 0.28327 0.22421 0.16395 0.0
C1002 C 0.30937 0.19885 0.14201 0.0
C1003 C 0.35855 0.22997 0.11796 0.0
H1004 H 0.38857 0.17193 0.11811 0.0
C1005 C 0.44759 0.22279 0.07942 0.0
C1006 C 0.45247 0.20502 0.06223 0.0
C1007 C 0.42804 0.22263 0.09427 0.0
C1008 C 0.38028 0.18818 0.11776 0.0
H1009 H 0.29789 0.25556 0.17738 0.0
H1010 H 0.33535 0.24742 0.1609 0.0
H1011 H 0.35235 0.17623 0.14037 0.0
H1012 H 0.44125 0.17247 0.04817 0.0
H1013 H 0.40651 0.17234 0.074 0.0
H1014 H 0.38601 0.24199 0.09524 0.0
C1015 C 0.3223 0.23496 0.15812 0.0
C1016 C 0.35958 0.19065 0.13052 0.0
C1017 C 0.30087 0.2396 0.16768 0.0
C1018 C 0.4379 0.18639 0.06128 0.0
C1019 C 0.41805 0.18633 0.07607 0.0
C1020 C 0.37908 0.22752 0.10529 0.0
C1021 C 0.32666 0.21487 0.14439 0.0
C1022 C 0.3486 0.21169 0.13098 0.0
C1023 C 0.4126 0.20483 0.09212 0.0
C1024 C 0.39038 0.2067 0.10525 0.0
H1025 H 0.27459 0.19135 0.14846 0.0
H1026 H 0.31213 0.18326 0.13148 0.0
H1027 H 0.3503 0.24624 0.11722 0.0
H1028 H 0.45868 0.23722 0.08096 0.0
H1029 H 0.42473 0.23684 0.10698 0.0
C1030 C 0.73944 0.35421 0.23024 0.0
C1031 C 0.75012 0.33354 0.2252 0.0
C1032 C 0.74487 0.37339 0.2157 0.0
C1033 C 0.74408 0.40311 0.16824 0.0
H1034 H 0.80106 0.41311 0.13386 0.0
C1035 C 0.75052 0.45371 0.07278 0.0
C1036 C 0.77002 0.46627 0.06785 0.0
C1037 C 0.74913 0.43967 0.09459 0.0
C1038 C 0.78506 0.41088 0.1435 0.0
H1039 H 0.77585 0.31704 0.20235 0.0
H1040 H 0.78506 0.35015 0.17667 0.0
H1041 H 0.79875 0.38654 0.16967 0.0
H1042 H 0.80307 0.47457 0.08243 0.0
H1043 H 0.80038 0.45083 0.1208 0.0
H1044 H 0.73049 0.42784 0.14254 0.0
C1045 C 0.77281 0.35192 0.1921 0.0
C1046 C 0.78369 0.39535 0.1639 0.0
C1047 C 0.7676 0.33285 0.20691 0.0
C1048 C 0.78789 0.46489 0.0855 0.0
C1049 C 0.78639 0.45114 0.10747 0.0
C1050 C 0.74552 0.41884 0.14808 0.0
C1051 C 0.76081 0.37219 0.19549 0.0
C1052 C 0.76308 0.39088 0.17621 0.0
C1053 C 0.76709 0.43813 0.11222 0.0
C1054 C 0.76592 0.42261 0.13503 0.0
H1055 H 0.72589 0.35513 0.24426 0.0
H1056 H 0.73574 0.38884 0.21944 0.0
H1057 H 0.72781 0.39999 0.17686 0.0
H1058 H 0.7365 0.45434 0.05948 0.0
H1059 H 0.73413 0.42965 0.09725 0.0
C1060 C 0.71453 0.78131 0.15797 0.0
C1061 C 0.71202 0.77048 0.18211 0.0
C1062 C 0.69569 0.78856 0.1441 0.0
C1063 C 0.63895 0.77178 0.13239 0.0
H1064 H 0.62797 0.83173 0.10519 0.0
C1065 C 0.55773 0.78961 0.07749 0.0
C1066 C 0.55831 0.80447 0.05632 0.0
C1067 C 0.57583 0.78817 0.09449 0.0
C1068 C 0.63089 0.81481 0.11229 0.0
H1069 H 0.68791 0.75906 0.21082 0.0
H1070 H 0.65504 0.77125 0.18631 0.0
H1071 H 0.66141 0.82459 0.13138 0.0
H1072 H 0.57796 0.82989 0.03652 0.0
H1073 H 0.61028 0.82661 0.0654 0.0
H1074 H 0.6095 0.76136 0.11249 0.0
C1075 C 0.67158 0.77444 0.17836 0.0
C1076 C 0.64999 0.81081 0.12743 0.0
C1077 C 0.69037 0.7676 0.19242 0.0
C1078 C 0.57709 0.81842 0.05286 0.0
C1079 C 0.59557 0.81654 0.06952 0.0
C1080 C 0.62021 0.7756 0.11687 0.0
C1081 C 0.67404 0.78464 0.1539 0.0
C1082 C 0.65403 0.78929 0.1378 0.0
C1083 C 0.59538 0.801 0.09029 0.0
C1084 C 0.61568 0.79722 0.10678 0.0
H1085 H 0.73104 0.7837 0.14959 0.0
H1086 H 0.698 0.79627 0.12521 0.0
H1087 H 0.64192 0.75493 0.13978 0.0
H1088 H 0.5433 0.77886 0.08073 0.0
H1089 H 0.57452 0.77664 0.11072 0.0
C1090 C 0.28085 0.65943 0.22222 0.0
C1091 C 0.26582 0.67767 0.22393 0.0
C1092 C 0.27501 0.63984 0.20869 0.0
C1093 C 0.23723 0.62446 0.15493 0.0
H1094 H 0.2647 0.56557 0.16277 0.0
C1095 C 0.22148 0.55249 0.08218 0.0
C1096 C 0.24069 0.54158 0.07245 0.0
C1097 C 0.22289 0.5669 0.10358 0.0
C1098 C 0.25697 0.58197 0.16036 0.0
H1099 H 0.23183 0.68835 0.21565 0.0
H1100 H 0.2212 0.65372 0.19355 0.0
H1101 H 0.26829 0.59353 0.19751 0.0
H1102 H 0.27638 0.53686 0.07803 0.0
H1103 H 0.2788 0.56209 0.11567 0.0
H1104 H 0.22595 0.6129 0.11784 0.0
C1105 C 0.23793 0.65497 0.2015 0.0
C1106 C 0.25901 0.59801 0.18023 0.0
C1107 C 0.24389 0.67473 0.21466 0.0
C1108 C 0.2613 0.54507 0.08499 0.0
C1109 C 0.26266 0.55937 0.10663 0.0
C1110 C 0.23497 0.60837 0.1353 0.0
C1111 C 0.25384 0.63785 0.19698 0.0
C1112 C 0.24945 0.61962 0.17761 0.0
C1113 C 0.2435 0.57062 0.11594 0.0
C1114 C 0.24507 0.58708 0.13761 0.0
H1115 H 0.29774 0.66097 0.22965 0.0
H1116 H 0.28776 0.62708 0.20582 0.0
H1117 H 0.23011 0.64102 0.15174 0.0
H1118 H 0.20532 0.55016 0.07307 0.0
H1119 H 0.20782 0.5752 0.11045 0.0
C1120 C 0.29895 0.78335 0.86633 0.0
C1121 C 0.30212 0.77226 0.84247 0.0
C1122 C 0.3172 0.79278 0.87955 0.0
C1123 C 0.37841 0.80684 0.87148 0.0
H1124 H 0.37885 0.80142 0.94655 0.0
C1125 C 0.45724 0.79722 0.93499 0.0
C1126 C 0.45921 0.81115 0.95696 0.0
C1127 C 0.43791 0.79773 0.91981 0.0
C1128 C 0.37881 0.80337 0.92562 0.0
H1129 H 0.32683 0.76217 0.81383 0.0
H1130 H 0.35861 0.77766 0.83708 0.0
H1131 H 0.345 0.79185 0.92258 0.0
H1132 H 0.44273 0.83676 0.98018 0.0
H1133 H 0.40827 0.83704 0.95399 0.0
H1134 H 0.41288 0.81677 0.87472 0.0
C1135 C 0.34208 0.78002 0.84534 0.0
C1136 C 0.35937 0.79796 0.91179 0.0
C1137 C 0.32382 0.77098 0.83197 0.0
C1138 C 0.44169 0.82607 0.96313 0.0
C1139 C 0.422 0.82613 0.94831 0.0
C1140 C 0.39796 0.81177 0.88529 0.0
C1141 C 0.33912 0.79094 0.86945 0.0
C1142 C 0.359 0.79915 0.88443 0.0
C1143 C 0.41988 0.81174 0.9267 0.0
C1144 C 0.39844 0.80973 0.91244 0.0
H1145 H 0.28235 0.78463 0.8748 0.0
H1146 H 0.31408 0.80138 0.89777 0.0
H1147 H 0.37873 0.80863 0.85056 0.0
H1148 H 0.4705 0.78551 0.9299 0.0
H1149 H 0.43661 0.78636 0.90338 0.0
C1150 C 0.28649 0.34411 0.79735 0.0
C1151 C 0.27073 0.32644 0.79789 0.0
C1152 C 0.28279 0.3639 0.8115 0.0
C1153 C 0.24082 0.39779 0.84701 0.0
H1154 H 0.28933 0.40908 0.89526 0.0
C1155 C 0.22778 0.45024 0.94003 0.0
C1156 C 0.24559 0.46315 0.94989 0.0
C1157 C 0.23098 0.43596 0.91874 0.0
C1158 C 0.27577 0.4066 0.88164 0.0
H1159 H 0.23788 0.3166 0.81213 0.0
H1160 H 0.23119 0.35142 0.83619 0.0
H1161 H 0.29401 0.38105 0.86114 0.0
H1162 H 0.28065 0.47159 0.94473 0.0
H1163 H 0.28615 0.44719 0.907 0.0
H1164 H 0.22254 0.42335 0.86738 0.0
C1165 C 0.2465 0.34983 0.82495 0.0
C1166 C 0.27847 0.39045 0.86208 0.0
C1167 C 0.2503 0.32989 0.81103 0.0
C1168 C 0.26664 0.4617 0.93773 0.0
C1169 C 0.26979 0.44762 0.91614 0.0
C1170 C 0.23821 0.4142 0.86636 0.0
C1171 C 0.2631 0.36662 0.82618 0.0
C1172 C 0.26089 0.38559 0.84486 0.0
C1173 C 0.25202 0.43443 0.90645 0.0
C1174 C 0.25549 0.4185 0.88431 0.0
H1175 H 0.30222 0.34218 0.78701 0.0
H1176 H 0.29571 0.37676 0.81177 0.0
H1177 H 0.22707 0.3945 0.83385 0.0
H1178 H 0.21136 0.45084 0.94906 0.0
H1179 H 0.217 0.42576 0.91232 0.0
C1180 C 0.68928 0.23533 0.82711 0.0
C1181 C 0.70977 0.23894 0.83993 0.0
C1182 C 0.67063 0.22705 0.84057 0.0
C1183 C 0.65137 0.2021 0.90369 0.0
H1184 H 0.5966 0.23396 0.88689 0.0
C1185 C 0.5666 0.18949 0.95983 0.0
C1186 C 0.55547 0.20973 0.96607 0.0
C1187 C 0.58517 0.18962 0.94293 0.0
C1188 C 0.61174 0.22487 0.89186 0.0
H1189 H 0.72686 0.23519 0.87683 0.0
H1190 H 0.69408 0.22174 0.90053 0.0
H1191 H 0.62981 0.23992 0.86055 0.0
H1192 H 0.55532 0.24595 0.95943 0.0
H1193 H 0.5873 0.24612 0.93054 0.0
H1194 H 0.63325 0.18799 0.93595 0.0
C1195 C 0.69252 0.22498 0.87991 0.0
C1196 C 0.63079 0.22806 0.8765 0.0
C1197 C 0.71129 0.23303 0.86636 0.0
C1198 C 0.56332 0.22997 0.95507 0.0
C1199 C 0.58165 0.23009 0.93826 0.0
C1200 C 0.63222 0.19895 0.91918 0.0
C1201 C 0.67177 0.22245 0.86734 0.0
C1202 C 0.65101 0.21705 0.88242 0.0
C1203 C 0.59278 0.20996 0.93182 0.0
C1204 C 0.61233 0.21075 0.91377 0.0
H1205 H 0.68722 0.23984 0.80689 0.0
H1206 H 0.65509 0.22489 0.83006 0.0
H1207 H 0.66655 0.1931 0.90865 0.0
H1208 H 0.56102 0.17361 0.96802 0.0
H1209 H 0.59339 0.17382 0.9383 0.0
C1210 C 0.7157 0.64999 0.78637 0.0
C1211 C 0.72995 0.66816 0.78074 0.0
C1212 C 0.7223 0.63324 0.8038 0.0
C1213 C 0.76037 0.62584 0.85961 0.0
H1214 H 0.73928 0.56398 0.85642 0.0
C1215 C 0.78349 0.55886 0.9366 0.0
C1216 C 0.76572 0.54573 0.94636 0.0
C1217 C 0.78038 0.57288 0.91511 0.0
C1218 C 0.74517 0.58125 0.8576 0.0
H1219 H 0.76244 0.68294 0.78794 0.0
H1220 H 0.77454 0.65318 0.81782 0.0
H1221 H 0.73317 0.5891 0.81954 0.0
H1222 H 0.73077 0.53692 0.94102 0.0
H1223 H 0.72541 0.56132 0.9032 0.0
H1224 H 0.77246 0.61786 0.89764 0.0
C1225 C 0.75808 0.65198 0.80915 0.0
C1226 C 0.74169 0.59567 0.83649 0.0
C1227 C 0.75136 0.66884 0.79179 0.0
C1228 C 0.74477 0.54686 0.93403 0.0
C1229 C 0.74175 0.5607 0.91228 0.0
C1230 C 0.76406 0.61135 0.88057 0.0
C1231 C 0.74335 0.63433 0.81602 0.0
C1232 C 0.74897 0.61827 0.83734 0.0
C1233 C 0.75951 0.57391 0.90265 0.0
C1234 C 0.75626 0.58899 0.87994 0.0
H1235 H 0.69893 0.64946 0.77839 0.0
H1236 H 0.71035 0.6202 0.8088 0.0
H1237 H 0.76582 0.64321 0.86129 0.0
H1238 H 0.79984 0.55842 0.94565 0.0
H1239 H 0.79442 0.58274 0.90803 0.0
loop_
_geom_bond_atom_site_label_1
_geom_bond_atom_site_label_2
_geom_bond_distance
_geom_bond_site_symmetry_2
_ccdc_geom_bond_type
H0 C8 0.930 . S
H1 C11 0.930 . S
H2 C13 0.930 . S
H3 C14 0.970 . S
H4 C14 0.970 . S
H5 C16 0.930 . S
H6 C18 0.930 . S
H7 C20 0.930 . S
C8 H0 0.930 . S
C8 C9 1.382 . S
C8 C10 1.426 . S
C9 C8 1.382 . S
C9 C13 1.389 . S
C10 C8 1.426 . S
C10 C11 1.375 . S
C10 C14 1.532 . S
C11 H1 0.930 . S
C11 C10 1.375 . S
C11 C12 1.416 . S
C12 C11 1.416 . S
C12 C13 1.371 . S
C13 H2 0.930 . S
C13 C9 1.389 . S
C13 C12 1.371 . S
C14 H3 0.970 . S
C14 H4 0.970 . S
C14 C10 1.532 . S
C14 C15 1.499 . S
C15 C14 1.499 . S
C15 C16 1.370 . S
C15 C20 1.415 . S
C16 H5 0.930 . S
C16 C15 1.370 . S
C16 C17 1.407 . S
C17 C16 1.407 . S
C17 C18 1.365 . S
C18 H6 0.930 . S
C18 C17 1.365 . S
C18 C19 1.393 . S
C19 C18 1.393 . S
C19 C20 1.387 . S
C20 H7 0.930 . S
C20 C15 1.415 . S
C20 C19 1.387 . S
H21 C29 0.930 . S
H22 C32 0.930 . S
H23 C34 0.930 . S
H24 C35 0.970 . S
H25 C35 0.970 . S
H26 C37 0.930 . S
H27 C39 0.930 . S
H28 C41 0.930 . S
C29 H21 0.930 . S
C29 C30 1.382 . S
C29 C31 1.426 . S
C30 C29 1.382 . S
C30 C34 1.389 . S
C31 C29 1.426 . S
C31 C32 1.375 . S
C31 C35 1.532 . S
C32 H22 0.930 . S
C32 C31 1.375 . S
C32 C33 1.416 . S
C33 C32 1.416 . S
C33 C34 1.371 . S
C34 H23 0.930 . S
C34 C30 1.389 . S
C34 C33 1.371 . S
C35 H24 0.970 . S
C35 H25 0.970 . S
C35 C31 1.532 . S
C35 C36 1.499 . S
C36 C35 1.499 . S
C36 C37 1.370 . S
C36 C41 1.415 . S
C37 H26 0.930 . S
C37 C36 1.370 . S
C37 C38 1.407 . S
C38 C37 1.407 . S
C38 C39 1.365 . S
C39 H27 0.930 . S
C39 C38 1.365 . S
C39 C40 1.393 . S
C40 C39 1.393 . S
C40 C41 1.387 . S
C41 H28 0.930 . S
C41 C36 1.415 . S
C41 C40 1.387 . S
H42 C50 0.930 . S
H43 C53 0.930 . S
H44 C55 0.930 . S
H45 C56 0.970 . S
H46 C56 0.970 . S
H47 C58 0.930 . S
H48 C60 0.930 . S
H49 C62 0.930 . S
C50 H42 0.930 . S
C50 C51 1.382 . S
C50 C52 1.426 . S
C51 C50 1.382 . S
C51 C55 1.389 . S
C52 C50 1.426 . S
C52 C53 1.375 . S
C52 C56 1.532 . S
C53 H43 0.930 . S
C53 C52 1.375 . S
C53 C54 1.416 . S
C54 C53 1.416 . S
C54 C55 1.371 . S
C55 H44 0.930 . S
C55 C51 1.389 . S
C55 C54 1.371 . S
C56 H45 0.970 . S
C56 H46 0.970 . S
C56 C52 1.532 . S
C56 C57 1.499 . S
C57 C56 1.499 . S
C57 C58 1.370 . S
C57 C62 1.415 . S
C58 H47 0.930 . S
C58 C57 1.370 . S
C58 C59 1.407 . S
C59 C58 1.407 . S
C59 C60 1.365 . S
C60 H48 0.930 . S
C60 C59 1.365 . S
C60 C61 1.393 . S
C61 C60 1.393 . S
C61 C62 1.387 . S
C62 H49 0.930 . S
C62 C57 1.415 . S
C62 C61 1.387 . S
H63 C71 0.930 . S
H64 C74 0.930 . S
H65 C76 0.930 . S
H66 C77 0.970 . S
H67 C77 0.970 . S
H68 C79 0.930 . S
H69 C81 0.930 . S
H70 C83 0.930 . S
C71 H63 0.930 . S
C71 C72 1.382 . S
C71 C73 1.426 . S
C72 C71 1.382 . S
C72 C76 1.389 . S
C73 C71 1.426 . S
C73 C74 1.375 . S
C73 C77 1.532 . S
C74 H64 0.930 . S
C74 C73 1.375 . S
C74 C75 1.416 . S
C75 C74 1.416 . S
C75 C76 1.371 . S
C76 H65 0.930 . S
C76 C72 1.389 . S
C76 C75 1.371 . S
C77 H66 0.970 . S
C77 H67 0.970 . S
C77 C73 1.532 . S
C77 C78 1.499 . S
C78 C77 1.499 . S
C78 C79 1.370 . S
C78 C83 1.415 . S
C79 H68 0.930 . S
C79 C78 1.370 . S
C79 C80 1.407 . S
C80 C79 1.407 . S
C80 C81 1.365 . S
C81 H69 0.930 . S
C81 C80 1.365 . S
C81 C82 1.393 . S
C82 C81 1.393 . S
C82 C83 1.387 . S
C83 H70 0.930 . S
C83 C78 1.415 . S
C83 C82 1.387 . S
H84 C92 0.930 . S
H85 C95 0.930 . S
H86 C97 0.930 . S
H87 C98 0.970 . S
H88 C98 0.970 . S
H89 C100 0.930 . S
H90 C102 0.930 . S
H91 C104 0.930 . S
C92 H84 0.930 . S
C92 C93 1.382 . S
C92 C94 1.426 . S
C93 C92 1.382 . S
C93 C97 1.389 . S
C94 C92 1.426 . S
C94 C95 1.375 . S
C94 C98 1.532 . S
C95 H85 0.930 . S
C95 C94 1.375 . S
C95 C96 1.416 . S
C96 C95 1.416 . S
C96 C97 1.371 . S
C97 H86 0.930 . S
C97 C93 1.389 . S
C97 C96 1.371 . S
C98 H87 0.970 . S
C98 H88 0.970 . S
C98 C94 1.532 . S
C98 C99 1.499 . S
C99 C98 1.499 . S
C99 C100 1.370 . S
C99 C104 1.415 . S
C100 H89 0.930 . S
C100 C99 1.370 . S
C100 C101 1.407 . S
C101 C100 1.407 . S
C101 C102 1.365 . S
C102 H90 0.930 . S
C102 C101 1.365 . S
C102 C103 1.393 . S
C103 C102 1.393 . S
C103 C104 1.387 . S
C104 H91 0.930 . S
C104 C99 1.415 . S
C104 C103 1.387 . S
H105 C113 0.930 . S
H106 C116 0.930 . S
H107 C118 0.930 . S
H108 C119 0.970 . S
H109 C119 0.970 . S
H110 C121 0.930 . S
H111 C123 0.930 . S
H112 C125 0.930 . S
C113 H105 0.930 . S
C113 C114 1.382 . S
C113 C115 1.426 . S
C114 C113 1.382 . S
C114 C118 1.389 . S
C115 C113 1.426 . S
C115 C116 1.375 . S
C115 C119 1.532 . S
C116 H106 0.930 . S
C116 C115 1.375 . S
C116 C117 1.416 . S
C117 C116 1.416 . S
C117 C118 1.371 . S
C118 H107 0.930 . S
C118 C114 1.389 . S
C118 C117 1.371 . S
C119 H108 0.970 . S
C119 H109 0.970 . S
C119 C115 1.532 . S
C119 C120 1.499 . S
C120 C119 1.499 . S
C120 C121 1.370 . S
C120 C125 1.415 . S
C121 H110 0.930 . S
C121 C120 1.370 . S
C121 C122 1.407 . S
C122 C121 1.407 . S
C122 C123 1.365 . S
C123 H111 0.930 . S
C123 C122 1.365 . S
C123 C124 1.393 . S
C124 C123 1.393 . S
C124 C125 1.387 . S
C125 H112 0.930 . S
C125 C120 1.415 . S
C125 C124 1.387 . S
H126 C134 0.930 . S
H127 C137 0.930 . S
H128 C139 0.930 . S
H129 C140 0.970 . S
H130 C140 0.970 . S
H131 C142 0.930 . S
H132 C144 0.930 . S
H133 C146 0.930 . S
C134 H126 0.930 . S
C134 C135 1.382 . S
C134 C136 1.426 . S
C135 C134 1.382 . S
C135 C139 1.389 . S
C136 C134 1.426 . S
C136 C137 1.375 . S
C136 C140 1.532 . S
C137 H127 0.930 . S
C137 C136 1.375 . S
C137 C138 1.416 . S
C138 C137 1.416 . S
C138 C139 1.371 . S
C139 H128 0.930 . S
C139 C135 1.389 . S
C139 C138 1.371 . S
C140 H129 0.970 . S
C140 H130 0.970 . S
C140 C136 1.532 . S
C140 C141 1.499 . S
C141 C140 1.499 . S
C141 C142 1.370 . S
C141 C146 1.415 . S
C142 H131 0.930 . S
C142 C141 1.370 . S
C142 C143 1.407 . S
C143 C142 1.407 . S
C143 C144 1.365 . S
C144 H132 0.930 . S
C144 C143 1.365 . S
C144 C145 1.393 . S
C145 C144 1.393 . S
C145 C146 1.387 . S
C146 H133 0.930 . S
C146 C141 1.415 . S
C146 C145 1.387 . S
H147 C155 0.930 . S
H148 C158 0.930 . S
H149 C160 0.930 . S
H150 C161 0.970 . S
H151 C161 0.970 . S
H152 C163 0.930 . S
H153 C165 0.930 . S
H154 C167 0.930 . S
C155 H147 0.930 . S
C155 C156 1.382 . S
C155 C157 1.426 . S
C156 C155 1.382 . S
C156 C160 1.389 . S
C157 C155 1.426 . S
C157 C158 1.375 . S
C157 C161 1.532 . S
C158 H148 0.930 . S
C158 C157 1.375 . S
C158 C159 1.416 . S
C159 C158 1.416 . S
C159 C160 1.371 . S
C160 H149 0.930 . S
C160 C156 1.389 . S
C160 C159 1.371 . S
C161 H150 0.970 . S
C161 H151 0.970 . S
C161 C157 1.532 . S
C161 C162 1.499 . S
C162 C161 1.499 . S
C162 C163 1.370 . S
C162 C167 1.415 . S
C163 H152 0.930 . S
C163 C162 1.370 . S
C163 C164 1.407 . S
C164 C163 1.407 . S
C164 C165 1.365 . S
C165 H153 0.930 . S
C165 C164 1.365 . S
C165 C166 1.393 . S
C166 C165 1.393 . S
C166 C167 1.387 . S
C167 H154 0.930 . S
C167 C162 1.415 . S
C167 C166 1.387 . S
C168 O170 1.247 . S
C168 O172 1.258 . S
C169 O176 1.247 . S
C169 O177 1.258 . S
O170 C168 1.247 . S
O170 Zn171 2.028 1_655 S
Zn171 O170 2.028 1_455 S
Zn171 O175 2.035 . S
Zn171 O177 2.035 . S
Zn171 O178 2.028 1_455 S
O172 C168 1.258 . S
O172 Zn173 2.035 1_655 S
Zn173 O172 2.035 1_455 S
Zn173 O174 2.028 . S
Zn173 O176 2.028 . S
Zn173 O179 2.035 1_455 S
O174 Zn173 2.028 . S
O174 C180 1.247 . S
O175 Zn171 2.035 . S
O175 C180 1.258 . S
O176 C169 1.247 . S
O176 Zn173 2.028 . S
O177 C169 1.258 . S
O177 Zn171 2.035 . S
O178 Zn171 2.028 1_655 S
O178 C181 1.247 . S
O179 Zn173 2.035 1_655 S
O179 C181 1.258 . S
C180 O174 1.247 . S
C180 O175 1.258 . S
C181 O178 1.247 . S
C181 O179 1.258 . S
C182 O184 1.247 . S
C182 O186 1.258 . S
C183 O190 1.247 . S
C183 O191 1.258 . S
O184 C182 1.247 . S
O184 Zn185 2.028 . S
Zn185 O184 2.028 . S
Zn185 O189 2.035 1_545 S
Zn185 O191 2.035 1_545 S
Zn185 O192 2.028 . S
O186 C182 1.258 . S
O186 Zn187 2.035 . S
Zn187 O186 2.035 . S
Zn187 O188 2.028 1_545 S
Zn187 O190 2.028 1_545 S
Zn187 O193 2.035 . S
O188 Zn187 2.028 1_565 S
O188 C194 1.247 . S
O189 Zn185 2.035 1_565 S
O189 C194 1.258 . S
O190 C183 1.247 . S
O190 Zn187 2.028 1_565 S
O191 C183 1.258 . S
O191 Zn185 2.035 1_565 S
O192 Zn185 2.028 . S
O192 C195 1.247 . S
O193 Zn187 2.035 . S
O193 C195 1.258 . S
C194 O188 1.247 . S
C194 O189 1.258 . S
C195 O192 1.247 . S
C195 O193 1.258 . S
C196 O198 1.247 . S
C196 O200 1.258 . S
C197 O204 1.247 . S
C197 O205 1.258 . S
O198 C196 1.247 . S
O198 Zn199 2.028 1_655 S
Zn199 O198 2.028 1_455 S
Zn199 O203 2.035 . S
Zn199 O205 2.035 . S
Zn199 O206 2.028 1_455 S
O200 C196 1.258 . S
O200 Zn201 2.035 1_655 S
Zn201 O200 2.035 1_455 S
Zn201 O202 2.028 . S
Zn201 O204 2.028 . S
Zn201 O207 2.035 1_455 S
O202 Zn201 2.028 . S
O202 C208 1.247 . S
O203 Zn199 2.035 . S
O203 C208 1.258 . S
O204 C197 1.247 . S
O204 Zn201 2.028 . S
O205 C197 1.258 . S
O205 Zn199 2.035 . S
O206 Zn199 2.028 1_655 S
O206 C209 1.247 . S
O207 Zn201 2.035 1_655 S
O207 C209 1.258 . S
C208 O202 1.247 . S
C208 O203 1.258 . S
C209 O206 1.247 . S
C209 O207 1.258 . S
C210 O212 1.247 . S
C210 O214 1.258 . S
C211 O218 1.247 . S
C211 O219 1.258 . S
O212 C210 1.247 . S
O212 Zn213 2.028 . S
Zn213 O212 2.028 . S
Zn213 O217 2.035 1_545 S
Zn213 O219 2.035 1_545 S
Zn213 O220 2.028 . S
O214 C210 1.258 . S
O214 Zn215 2.035 . S
Zn215 O214 2.035 . S
Zn215 O216 2.028 1_545 S
Zn215 O218 2.028 1_545 S
Zn215 O221 2.035 . S
O216 Zn215 2.028 1_565 S
O216 C222 1.247 . S
O217 Zn213 2.035 1_565 S
O217 C222 1.258 . S
O218 C211 1.247 . S
O218 Zn215 2.028 1_565 S
O219 C211 1.258 . S
O219 Zn213 2.035 1_565 S
O220 Zn213 2.028 . S
O220 C223 1.247 . S
O221 Zn215 2.035 . S
O221 C223 1.258 . S
C222 O216 1.247 . S
C222 O217 1.258 . S
C223 O220 1.247 . S
C223 O221 1.258 . S
C224 O226 1.247 . S
C224 O228 1.258 . S
C225 O232 1.247 . S
C225 O233 1.258 . S
O226 C224 1.247 . S
O226 Zn227 2.037 . S
Zn227 O226 2.037 . S
Zn227 O231 2.044 . S
Zn227 O233 2.026 1_554 S
Zn227 O234 2.019 1_554 S
O228 C224 1.258 . S
O228 Zn229 2.037 . S
Zn229 O228 2.037 . S
Zn229 O230 2.030 . S
Zn229 O232 2.026 1_554 S
Zn229 O235 2.033 1_554 S
O230 Zn229 2.030 . S
O230 C236 1.247 . S
O231 Zn227 2.044 . S
O231 C236 1.258 . S
O232 C225 1.247 . S
O232 Zn229 2.026 1_556 S
O233 C225 1.258 . S
O233 Zn227 2.026 1_556 S
O234 Zn227 2.019 1_556 S
O234 C237 1.247 . S
O235 Zn229 2.033 1_556 S
O235 C237 1.258 . S
C236 O230 1.247 . S
C236 O231 1.258 . S
C237 O234 1.247 . S
C237 O235 1.258 . S
C238 O240 1.247 . S
C238 O242 1.258 . S
C239 O246 1.247 . S
C239 O247 1.258 . S
O240 C238 1.247 . S
O240 Zn241 2.046 . S
Zn241 O240 2.046 . S
Zn241 O245 2.053 . S
Zn241 O247 2.018 1_554 S
Zn241 O248 2.010 1_554 S
O242 C238 1.258 . S
O242 Zn243 2.060 . S
Zn243 O242 2.060 . S
Zn243 O244 2.053 . S
Zn243 O246 2.003 1_554 S
Zn243 O249 2.010 1_554 S
O244 Zn243 2.053 . S
O244 C250 1.247 . S
O245 Zn241 2.053 . S
O245 C250 1.258 . S
O246 C239 1.247 . S
O246 Zn243 2.003 1_556 S
O247 C239 1.258 . S
O247 Zn241 2.018 1_556 S
O248 Zn241 2.010 1_556 S
O248 C251 1.247 . S
O249 Zn243 2.010 1_556 S
O249 C251 1.258 . S
C250 O244 1.247 . S
C250 O245 1.258 . S
C251 O248 1.247 . S
C251 O249 1.258 . S
C252 O254 1.247 . S
C252 O256 1.258 . S
C253 O260 1.247 . S
C253 O261 1.258 . S
O254 C252 1.247 . S
O254 Zn255 2.028 1_556 S
Zn255 O254 2.028 1_554 S
Zn255 O259 2.035 1_554 S
Zn255 O261 2.035 . S
Zn255 O262 2.028 . S
O256 C252 1.258 . S
O256 Zn257 2.035 1_556 S
Zn257 O256 2.035 1_554 S
Zn257 O258 2.028 1_554 S
Zn257 O260 2.028 . S
Zn257 O263 2.035 . S
O258 Zn257 2.028 1_556 S
O258 C264 1.247 . S
O259 Zn255 2.035 1_556 S
O259 C264 1.258 . S
O260 C253 1.247 . S
O260 Zn257 2.028 . S
O261 C253 1.258 . S
O261 Zn255 2.035 . S
O262 Zn255 2.028 . S
O262 C265 1.247 . S
O263 Zn257 2.035 . S
O263 C265 1.258 . S
C264 O258 1.247 . S
C264 O259 1.258 . S
C265 O262 1.247 . S
C265 O263 1.258 . S
C266 O268 1.247 . S
C266 O270 1.258 . S
C267 O274 1.247 . S
C267 O275 1.258 . S
O268 C266 1.247 . S
O268 Zn269 2.028 . S
Zn269 O268 2.028 . S
Zn269 O273 2.035 . S
Zn269 O275 2.035 1_554 S
Zn269 O276 2.028 1_554 S
O270 C266 1.258 . S
O270 Zn271 2.035 . S
Zn271 O270 2.035 . S
Zn271 O272 2.028 . S
Zn271 O274 2.028 1_554 S
Zn271 O277 2.035 1_554 S
O272 Zn271 2.028 . S
O272 C278 1.247 . S
O273 Zn269 2.035 . S
O273 C278 1.258 . S
O274 C267 1.247 . S
O274 Zn271 2.028 1_556 S
O275 C267 1.258 . S
O275 Zn269 2.035 1_556 S
O276 Zn269 2.028 1_556 S
O276 C279 1.247 . S
O277 Zn271 2.035 1_556 S
O277 C279 1.258 . S
C278 O272 1.247 . S
C278 O273 1.258 . S
C279 O276 1.247 . S
C279 O277 1.258 . S
C280 C281 1.349 . S
C280 C282 1.327 . S
C280 H305 0.950 . S
C281 C280 1.349 . S
C281 C297 1.349 . S
C282 C280 1.327 . S
C282 C301 1.429 . S
C282 H306 0.950 . S
C283 C300 1.574 . S
C283 C302 1.368 . S
C283 H307 0.949 . S
H284 C288 0.949 . S
C285 C286 1.349 . S
C285 C287 1.327 . S
C285 H308 0.950 . S
C286 C285 1.349 . S
C286 C298 1.349 . S
C287 C285 1.327 . S
C287 C303 1.429 . S
C287 H309 0.950 . S
C288 H284 0.949 . S
C288 C296 1.574 . S
C288 C304 1.368 . S
H289 C297 0.950 . S
H290 C295 0.950 . S
H291 C296 0.949 . S
H292 C298 0.950 . S
H293 C299 0.950 . S
H294 C300 0.949 . S
C295 H290 0.950 . S
C295 C297 1.327 . S
C295 C301 1.429 . S
C296 C288 1.574 . S
C296 H291 0.949 . S
C296 C302 1.368 . S
C297 C281 1.349 . S
C297 H289 0.950 . S
C297 C295 1.327 . S
C298 C286 1.349 . S
C298 H292 0.950 . S
C298 C299 1.327 . S
C299 H293 0.950 . S
C299 C298 1.327 . S
C299 C303 1.429 . S
C300 C283 1.574 . S
C300 H294 0.949 . S
C300 C304 1.368 . S
C301 C282 1.429 . S
C301 C295 1.429 . S
C301 C302 1.523 . S
C302 C283 1.368 . S
C302 C296 1.368 . S
C302 C301 1.523 . S
C303 C287 1.429 . S
C303 C299 1.429 . S
C303 C304 1.523 . S
C304 C288 1.368 . S
C304 C300 1.368 . S
C304 C303 1.523 . S
H305 C280 0.950 . S
H306 C282 0.950 . S
H307 C283 0.949 . S
H308 C285 0.950 . S
H309 C287 0.950 . S
C310 C311 1.349 . S
C310 C312 1.327 . S
C310 H335 0.950 . S
C311 C310 1.349 . S
C311 C327 1.349 . S
C312 C310 1.327 . S
C312 C331 1.429 . S
C312 H336 0.950 . S
C313 C330 1.574 . S
C313 C332 1.368 . S
C313 H337 0.949 . S
H314 C318 0.949 . S
C315 C316 1.349 . S
C315 C317 1.327 . S
C315 H338 0.950 . S
C316 C315 1.349 . S
C316 C328 1.349 . S
C317 C315 1.327 . S
C317 C333 1.429 . S
C317 H339 0.950 . S
C318 H314 0.949 . S
C318 C326 1.574 . S
C318 C334 1.368 . S
H319 C327 0.950 . S
H320 C325 0.950 . S
H321 C326 0.949 . S
H322 C328 0.950 . S
H323 C329 0.950 . S
H324 C330 0.949 . S
C325 H320 0.950 . S
C325 C327 1.327 . S
C325 C331 1.429 . S
C326 C318 1.574 . S
C326 H321 0.949 . S
C326 C332 1.368 . S
C327 C311 1.349 . S
C327 H319 0.950 . S
C327 C325 1.327 . S
C328 C316 1.349 . S
C328 H322 0.950 . S
C328 C329 1.327 . S
C329 H323 0.950 . S
C329 C328 1.327 . S
C329 C333 1.429 . S
C330 C313 1.574 . S
C330 H324 0.949 . S
C330 C334 1.368 . S
C331 C312 1.429 . S
C331 C325 1.429 . S
C331 C332 1.523 . S
C332 C313 1.368 . S
C332 C326 1.368 . S
C332 C331 1.523 . S
C333 C317 1.429 . S
C333 C329 1.429 . S
C333 C334 1.523 . S
C334 C318 1.368 . S
C334 C330 1.368 . S
C334 C333 1.523 . S
H335 C310 0.950 . S
H336 C312 0.950 . S
H337 C313 0.949 . S
H338 C315 0.950 . S
H339 C317 0.950 . S
C340 C341 1.349 . S
C340 C342 1.327 . S
C340 H365 0.950 . S
C341 C340 1.349 . S
C341 C357 1.349 . S
C342 C340 1.327 . S
C342 C361 1.429 . S
C342 H366 0.950 . S
C343 C360 1.574 . S
C343 C362 1.368 . S
C343 H367 0.949 . S
H344 C348 0.949 . S
C345 C346 1.349 . S
C345 C347 1.327 . S
C345 H368 0.950 . S
C346 C345 1.349 . S
C346 C358 1.349 . S
C347 C345 1.327 . S
C347 C363 1.429 . S
C347 H369 0.950 . S
C348 H344 0.949 . S
C348 C356 1.574 . S
C348 C364 1.368 . S
H349 C357 0.950 . S
H350 C355 0.950 . S
H351 C356 0.949 . S
H352 C358 0.950 . S
H353 C359 0.950 . S
H354 C360 0.949 . S
C355 H350 0.950 . S
C355 C357 1.327 . S
C355 C361 1.429 . S
C356 C348 1.574 . S
C356 H351 0.949 . S
C356 C362 1.368 . S
C357 C341 1.349 . S
C357 H349 0.950 . S
C357 C355 1.327 . S
C358 C346 1.349 . S
C358 H352 0.950 . S
C358 C359 1.327 . S
C359 H353 0.950 . S
C359 C358 1.327 . S
C359 C363 1.429 . S
C360 C343 1.574 . S
C360 H354 0.949 . S
C360 C364 1.368 . S
C361 C342 1.429 . S
C361 C355 1.429 . S
C361 C362 1.523 . S
C362 C343 1.368 . S
C362 C356 1.368 . S
C362 C361 1.523 . S
C363 C347 1.429 . S
C363 C359 1.429 . S
C363 C364 1.523 . S
C364 C348 1.368 . S
C364 C360 1.368 . S
C364 C363 1.523 . S
H365 C340 0.950 . S
H366 C342 0.950 . S
H367 C343 0.949 . S
H368 C345 0.950 . S
H369 C347 0.950 . S
C370 C371 1.349 . S
C370 C372 1.327 . S
C370 H395 0.950 . S
C371 C370 1.349 . S
C371 C387 1.349 . S
C372 C370 1.327 . S
C372 C391 1.429 . S
C372 H396 0.950 . S
C373 C390 1.574 . S
C373 C392 1.368 . S
C373 H397 0.949 . S
H374 C378 0.949 . S
C375 C376 1.349 . S
C375 C377 1.327 . S
C375 H398 0.950 . S
C376 C375 1.349 . S
C376 C388 1.349 . S
C377 C375 1.327 . S
C377 C393 1.429 . S
C377 H399 0.950 . S
C378 H374 0.949 . S
C378 C386 1.574 . S
C378 C394 1.368 . S
H379 C387 0.950 . S
H380 C385 0.950 . S
H381 C386 0.949 . S
H382 C388 0.950 . S
H383 C389 0.950 . S
H384 C390 0.949 . S
C385 H380 0.950 . S
C385 C387 1.327 . S
C385 C391 1.429 . S
C386 C378 1.574 . S
C386 H381 0.949 . S
C386 C392 1.368 . S
C387 C371 1.349 . S
C387 H379 0.950 . S
C387 C385 1.327 . S
C388 C376 1.349 . S
C388 H382 0.950 . S
C388 C389 1.327 . S
C389 H383 0.950 . S
C389 C388 1.327 . S
C389 C393 1.429 . S
C390 C373 1.574 . S
C390 H384 0.949 . S
C390 C394 1.368 . S
C391 C372 1.429 . S
C391 C385 1.429 . S
C391 C392 1.523 . S
C392 C373 1.368 . S
C392 C386 1.368 . S
C392 C391 1.523 . S
C393 C377 1.429 . S
C393 C389 1.429 . S
C393 C394 1.523 . S
C394 C378 1.368 . S
C394 C390 1.368 . S
C394 C393 1.523 . S
H395 C370 0.950 . S
H396 C372 0.950 . S
H397 C373 0.949 . S
H398 C375 0.950 . S
H399 C377 0.950 . S
C400 C401 1.349 . S
C400 C402 1.327 . S
C400 H425 0.950 . S
C401 C400 1.349 . S
C401 C417 1.349 . S
C402 C400 1.327 . S
C402 C421 1.429 . S
C402 H426 0.950 . S
C403 C420 1.574 . S
C403 C422 1.368 . S
C403 H427 0.949 . S
H404 C408 0.949 . S
C405 C406 1.349 . S
C405 C407 1.327 . S
C405 H428 0.950 . S
C406 C405 1.349 . S
C406 C418 1.349 . S
C407 C405 1.327 . S
C407 C423 1.429 . S
C407 H429 0.950 . S
C408 H404 0.949 . S
C408 C416 1.574 . S
C408 C424 1.368 . S
H409 C417 0.950 . S
H410 C415 0.950 . S
H411 C416 0.949 . S
H412 C418 0.950 . S
H413 C419 0.950 . S
H414 C420 0.949 . S
C415 H410 0.950 . S
C415 C417 1.327 . S
C415 C421 1.429 . S
C416 C408 1.574 . S
C416 H411 0.949 . S
C416 C422 1.368 . S
C417 C401 1.349 . S
C417 H409 0.950 . S
C417 C415 1.327 . S
C418 C406 1.349 . S
C418 H412 0.950 . S
C418 C419 1.327 . S
C419 H413 0.950 . S
C419 C418 1.327 . S
C419 C423 1.429 . S
C420 C403 1.574 . S
C420 H414 0.949 . S
C420 C424 1.368 . S
C421 C402 1.429 . S
C421 C415 1.429 . S
C421 C422 1.523 . S
C422 C403 1.368 . S
C422 C416 1.368 . S
C422 C421 1.523 . S
C423 C407 1.429 . S
C423 C419 1.429 . S
C423 C424 1.523 . S
C424 C408 1.368 . S
C424 C420 1.368 . S
C424 C423 1.523 . S
H425 C400 0.950 . S
H426 C402 0.950 . S
H427 C403 0.949 . S
H428 C405 0.950 . S
H429 C407 0.950 . S
C430 C431 1.349 . S
C430 C432 1.327 . S
C430 H455 0.950 . S
C431 C430 1.349 . S
C431 C447 1.349 . S
C432 C430 1.327 . S
C432 C451 1.429 . S
C432 H456 0.950 . S
C433 C450 1.574 . S
C433 C452 1.368 . S
C433 H457 0.949 . S
H434 C438 0.949 . S
C435 C436 1.349 . S
C435 C437 1.327 . S
C435 H458 0.950 . S
C436 C435 1.349 . S
C436 C448 1.349 . S
C437 C435 1.327 . S
C437 C453 1.429 . S
C437 H459 0.950 . S
C438 H434 0.949 . S
C438 C446 1.574 . S
C438 C454 1.368 . S
H439 C447 0.950 . S
H440 C445 0.950 . S
H441 C446 0.949 . S
H442 C448 0.950 . S
H443 C449 0.950 . S
H444 C450 0.949 . S
C445 H440 0.950 . S
C445 C447 1.327 . S
C445 C451 1.429 . S
C446 C438 1.574 . S
C446 H441 0.949 . S
C446 C452 1.368 . S
C447 C431 1.349 . S
C447 H439 0.950 . S
C447 C445 1.327 . S
C448 C436 1.349 . S
C448 H442 0.950 . S
C448 C449 1.327 . S
C449 H443 0.950 . S
C449 C448 1.327 . S
C449 C453 1.429 . S
C450 C433 1.574 . S
C450 H444 0.949 . S
C450 C454 1.368 . S
C451 C432 1.429 . S
C451 C445 1.429 . S
C451 C452 1.523 . S
C452 C433 1.368 . S
C452 C446 1.368 . S
C452 C451 1.523 . S
C453 C437 1.429 . S
C453 C449 1.429 . S
C453 C454 1.523 . S
C454 C438 1.368 . S
C454 C450 1.368 . S
C454 C453 1.523 . S
H455 C430 0.950 . S
H456 C432 0.950 . S
H457 C433 0.949 . S
H458 C435 0.950 . S
H459 C437 0.950 . S
C460 C461 1.349 . S
C460 C462 1.327 . S
C460 H485 0.950 . S
C461 C460 1.349 . S
C461 C477 1.349 . S
C462 C460 1.327 . S
C462 C481 1.429 . S
C462 H486 0.950 . S
C463 C480 1.574 . S
C463 C482 1.368 . S
C463 H487 0.949 . S
H464 C468 0.949 . S
C465 C466 1.349 . S
C465 C467 1.327 . S
C465 H488 0.950 . S
C466 C465 1.349 . S
C466 C478 1.349 . S
C467 C465 1.327 . S
C467 C483 1.429 . S
C467 H489 0.950 . S
C468 H464 0.949 . S
C468 C476 1.574 . S
C468 C484 1.368 . S
H469 C477 0.950 . S
H470 C475 0.950 . S
H471 C476 0.949 . S
H472 C478 0.950 . S
H473 C479 0.950 . S
H474 C480 0.949 . S
C475 H470 0.950 . S
C475 C477 1.327 . S
C475 C481 1.429 . S
C476 C468 1.574 . S
C476 H471 0.949 . S
C476 C482 1.368 . S
C477 C461 1.349 . S
C477 H469 0.950 . S
C477 C475 1.327 . S
C478 C466 1.349 . S
C478 H472 0.950 . S
C478 C479 1.327 . S
C479 H473 0.950 . S
C479 C478 1.327 . S
C479 C483 1.429 . S
C480 C463 1.574 . S
C480 H474 0.949 . S
C480 C484 1.368 . S
C481 C462 1.429 . S
C481 C475 1.429 . S
C481 C482 1.523 . S
C482 C463 1.368 . S
C482 C476 1.368 . S
C482 C481 1.523 . S
C483 C467 1.429 . S
C483 C479 1.429 . S
C483 C484 1.523 . S
C484 C468 1.368 . S
C484 C480 1.368 . S
C484 C483 1.523 . S
H485 C460 0.950 . S
H486 C462 0.950 . S
H487 C463 0.949 . S
H488 C465 0.950 . S
H489 C467 0.950 . S
C490 C491 1.349 . S
C490 C492 1.327 . S
C490 H515 0.950 . S
C491 C490 1.349 . S
C491 C507 1.349 . S
C492 C490 1.327 . S
C492 C511 1.429 . S
C492 H516 0.950 . S
C493 C510 1.574 . S
C493 C512 1.368 . S
C493 H517 0.949 . S
H494 C498 0.949 . S
C495 C496 1.349 . S
C495 C497 1.327 . S
C495 H518 0.950 . S
C496 C495 1.349 . S
C496 C508 1.349 . S
C497 C495 1.327 . S
C497 C513 1.429 . S
C497 H519 0.950 . S
C498 H494 0.949 . S
C498 C506 1.574 . S
C498 C514 1.368 . S
H499 C507 0.950 . S
H500 C505 0.950 . S
H501 C506 0.949 . S
H502 C508 0.950 . S
H503 C509 0.950 . S
H504 C510 0.949 . S
C505 H500 0.950 . S
C505 C507 1.327 . S
C505 C511 1.429 . S
C506 C498 1.574 . S
C506 H501 0.949 . S
C506 C512 1.368 . S
C507 C491 1.349 . S
C507 H499 0.950 . S
C507 C505 1.327 . S
C508 C496 1.349 . S
C508 H502 0.950 . S
C508 C509 1.327 . S
C509 H503 0.950 . S
C509 C508 1.327 . S
C509 C513 1.429 . S
C510 C493 1.574 . S
C510 H504 0.949 . S
C510 C514 1.368 . S
C511 C492 1.429 . S
C511 C505 1.429 . S
C511 C512 1.523 . S
C512 C493 1.368 . S
C512 C506 1.368 . S
C512 C511 1.523 . S
C513 C497 1.429 . S
C513 C509 1.429 . S
C513 C514 1.523 . S
C514 C498 1.368 . S
C514 C510 1.368 . S
C514 C513 1.523 . S
H515 C490 0.950 . S
H516 C492 0.950 . S
H517 C493 0.949 . S
H518 C495 0.950 . S
H519 C497 0.950 . S
C520 C521 1.349 . S
C520 C522 1.327 . S
C520 H545 0.950 . S
C521 C520 1.349 . S
C521 C537 1.349 . S
C522 C520 1.327 . S
C522 C541 1.429 . S
C522 H546 0.950 . S
C523 C540 1.574 . S
C523 C542 1.368 . S
C523 H547 0.949 . S
H524 C528 0.949 . S
C525 C526 1.349 . S
C525 C527 1.327 . S
C525 H548 0.950 . S
C526 C525 1.349 . S
C526 C538 1.349 . S
C527 C525 1.327 . S
C527 C543 1.429 . S
C527 H549 0.950 . S
C528 H524 0.949 . S
C528 C536 1.574 . S
C528 C544 1.368 . S
H529 C537 0.950 . S
H530 C535 0.950 . S
H531 C536 0.949 . S
H532 C538 0.950 . S
H533 C539 0.950 . S
H534 C540 0.949 . S
C535 H530 0.950 . S
C535 C537 1.327 . S
C535 C541 1.429 . S
C536 C528 1.574 . S
C536 H531 0.949 . S
C536 C542 1.368 . S
C537 C521 1.349 . S
C537 H529 0.950 . S
C537 C535 1.327 . S
C538 C526 1.349 . S
C538 H532 0.950 . S
C538 C539 1.327 . S
C539 H533 0.950 . S
C539 C538 1.327 . S
C539 C543 1.429 . S
C540 C523 1.574 . S
C540 H534 0.949 . S
C540 C544 1.368 . S
C541 C522 1.429 . S
C541 C535 1.429 . S
C541 C542 1.523 . S
C542 C523 1.368 . S
C542 C536 1.368 . S
C542 C541 1.523 . S
C543 C527 1.429 . S
C543 C539 1.429 . S
C543 C544 1.523 . S
C544 C528 1.368 . S
C544 C540 1.368 . S
C544 C543 1.523 . S
H545 C520 0.950 . S
H546 C522 0.950 . S
H547 C523 0.949 . S
H548 C525 0.950 . S
H549 C527 0.950 . S
C550 C551 1.349 . S
C550 C552 1.327 . S
C550 H575 0.950 . S
C551 C550 1.349 . S
C551 C567 1.349 . S
C552 C550 1.327 . S
C552 C571 1.429 . S
C552 H576 0.950 . S
C553 C570 1.574 . S
C553 C572 1.368 . S
C553 H577 0.949 . S
H554 C558 0.949 . S
C555 C556 1.349 . S
C555 C557 1.327 . S
C555 H578 0.950 . S
C556 C555 1.349 . S
C556 C568 1.349 . S
C557 C555 1.327 . S
C557 C573 1.429 . S
C557 H579 0.950 . S
C558 H554 0.949 . S
C558 C566 1.574 . S
C558 C574 1.368 . S
H559 C567 0.950 . S
H560 C565 0.950 . S
H561 C566 0.949 . S
H562 C568 0.950 . S
H563 C569 0.950 . S
H564 C570 0.949 . S
C565 H560 0.950 . S
C565 C567 1.327 . S
C565 C571 1.429 . S
C566 C558 1.574 . S
C566 H561 0.949 . S
C566 C572 1.368 . S
C567 C551 1.349 . S
C567 H559 0.950 . S
C567 C565 1.327 . S
C568 C556 1.349 . S
C568 H562 0.950 . S
C568 C569 1.327 . S
C569 H563 0.950 . S
C569 C568 1.327 . S
C569 C573 1.429 . S
C570 C553 1.574 . S
C570 H564 0.949 . S
C570 C574 1.368 . S
C571 C552 1.429 . S
C571 C565 1.429 . S
C571 C572 1.523 . S
C572 C553 1.368 . S
C572 C566 1.368 . S
C572 C571 1.523 . S
C573 C557 1.429 . S
C573 C569 1.429 . S
C573 C574 1.523 . S
C574 C558 1.368 . S
C574 C570 1.368 . S
C574 C573 1.523 . S
H575 C550 0.950 . S
H576 C552 0.950 . S
H577 C553 0.949 . S
H578 C555 0.950 . S
H579 C557 0.950 . S
C580 C581 1.349 . S
C580 C582 1.327 . S
C580 H605 0.950 . S
C581 C580 1.349 . S
C581 C597 1.349 . S
C582 C580 1.327 . S
C582 C601 1.429 . S
C582 H606 0.950 . S
C583 C600 1.574 . S
C583 C602 1.368 . S
C583 H607 0.949 . S
H584 C588 0.949 . S
C585 C586 1.349 . S
C585 C587 1.327 . S
C585 H608 0.950 . S
C586 C585 1.349 . S
C586 C598 1.349 . S
C587 C585 1.327 . S
C587 C603 1.429 . S
C587 H609 0.950 . S
C588 H584 0.949 . S
C588 C596 1.574 . S
C588 C604 1.368 . S
H589 C597 0.950 . S
H590 C595 0.950 . S
H591 C596 0.949 . S
H592 C598 0.950 . S
H593 C599 0.950 . S
H594 C600 0.949 . S
C595 H590 0.950 . S
C595 C597 1.327 . S
C595 C601 1.429 . S
C596 C588 1.574 . S
C596 H591 0.949 . S
C596 C602 1.368 . S
C597 C581 1.349 . S
C597 H589 0.950 . S
C597 C595 1.327 . S
C598 C586 1.349 . S
C598 H592 0.950 . S
C598 C599 1.327 . S
C599 H593 0.950 . S
C599 C598 1.327 . S
C599 C603 1.429 . S
C600 C583 1.574 . S
C600 H594 0.949 . S
C600 C604 1.368 . S
C601 C582 1.429 . S
C601 C595 1.429 . S
C601 C602 1.523 . S
C602 C583 1.368 . S
C602 C596 1.368 . S
C602 C601 1.523 . S
C603 C587 1.429 . S
C603 C599 1.429 . S
C603 C604 1.523 . S
C604 C588 1.368 . S
C604 C600 1.368 . S
C604 C603 1.523 . S
H605 C580 0.950 . S
H606 C582 0.950 . S
H607 C583 0.949 . S
H608 C585 0.950 . S
H609 C587 0.950 . S
C610 C611 1.349 . S
C610 C612 1.327 . S
C610 H635 0.950 . S
C611 C610 1.349 . S
C611 C627 1.349 . S
C612 C610 1.327 . S
C612 C631 1.429 . S
C612 H636 0.950 . S
C613 C630 1.574 . S
C613 C632 1.368 . S
C613 H637 0.949 . S
H614 C618 0.949 . S
C615 C616 1.349 . S
C615 C617 1.327 . S
C615 H638 0.950 . S
C616 C615 1.349 . S
C616 C628 1.349 . S
C617 C615 1.327 . S
C617 C633 1.429 . S
C617 H639 0.950 . S
C618 H614 0.949 . S
C618 C626 1.574 . S
C618 C634 1.368 . S
H619 C627 0.950 . S
H620 C625 0.950 . S
H621 C626 0.949 . S
H622 C628 0.950 . S
H623 C629 0.950 . S
H624 C630 0.949 . S
C625 H620 0.950 . S
C625 C627 1.327 . S
C625 C631 1.429 . S
C626 C618 1.574 . S
C626 H621 0.949 . S
C626 C632 1.368 . S
C627 C611 1.349 . S
C627 H619 0.950 . S
C627 C625 1.327 . S
C628 C616 1.349 . S
C628 H622 0.950 . S
C628 C629 1.327 . S
C629 H623 0.950 . S
C629 C628 1.327 . S
C629 C633 1.429 . S
C630 C613 1.574 . S
C630 H624 0.949 . S
C630 C634 1.368 . S
C631 C612 1.429 . S
C631 C625 1.429 . S
C631 C632 1.523 . S
C632 C613 1.368 . S
C632 C626 1.368 . S
C632 C631 1.523 . S
C633 C617 1.429 . S
C633 C629 1.429 . S
C633 C634 1.523 . S
C634 C618 1.368 . S
C634 C630 1.368 . S
C634 C633 1.523 . S
H635 C610 0.950 . S
H636 C612 0.950 . S
H637 C613 0.949 . S
H638 C615 0.950 . S
H639 C617 0.950 . S
C640 C641 1.349 . S
C640 C642 1.327 . S
C640 H665 0.950 . S
C641 C640 1.349 . S
C641 C657 1.349 . S
C642 C640 1.327 . S
C642 C661 1.429 . S
C642 H666 0.950 . S
C643 C660 1.574 . S
C643 C662 1.368 . S
C643 H667 0.949 . S
H644 C648 0.949 . S
C645 C646 1.349 . S
C645 C647 1.327 . S
C645 H668 0.950 . S
C646 C645 1.349 . S
C646 C658 1.349 . S
C647 C645 1.327 . S
C647 C663 1.429 . S
C647 H669 0.950 . S
C648 H644 0.949 . S
C648 C656 1.574 . S
C648 C664 1.368 . S
H649 C657 0.950 . S
H650 C655 0.950 . S
H651 C656 0.949 . S
H652 C658 0.950 . S
H653 C659 0.950 . S
H654 C660 0.949 . S
C655 H650 0.950 . S
C655 C657 1.327 . S
C655 C661 1.429 . S
C656 C648 1.574 . S
C656 H651 0.949 . S
C656 C662 1.368 . S
C657 C641 1.349 . S
C657 H649 0.950 . S
C657 C655 1.327 . S
C658 C646 1.349 . S
C658 H652 0.950 . S
C658 C659 1.327 . S
C659 H653 0.950 . S
C659 C658 1.327 . S
C659 C663 1.429 . S
C660 C643 1.574 . S
C660 H654 0.949 . S
C660 C664 1.368 . S
C661 C642 1.429 . S
C661 C655 1.429 . S
C661 C662 1.523 . S
C662 C643 1.368 . S
C662 C656 1.368 . S
C662 C661 1.523 . S
C663 C647 1.429 . S
C663 C659 1.429 . S
C663 C664 1.523 . S
C664 C648 1.368 . S
C664 C660 1.368 . S
C664 C663 1.523 . S
H665 C640 0.950 . S
H666 C642 0.950 . S
H667 C643 0.949 . S
H668 C645 0.950 . S
H669 C647 0.950 . S
C670 C671 1.349 . S
C670 C672 1.327 . S
C670 H695 0.950 . S
C671 C670 1.349 . S
C671 C687 1.349 . S
C672 C670 1.327 . S
C672 C691 1.429 . S
C672 H696 0.950 . S
C673 C690 1.574 . S
C673 C692 1.368 . S
C673 H697 0.949 . S
H674 C678 0.949 . S
C675 C676 1.349 . S
C675 C677 1.327 . S
C675 H698 0.950 . S
C676 C675 1.349 . S
C676 C688 1.349 . S
C677 C675 1.327 . S
C677 C693 1.429 . S
C677 H699 0.950 . S
C678 H674 0.949 . S
C678 C686 1.574 . S
C678 C694 1.368 . S
H679 C687 0.950 . S
H680 C685 0.950 . S
H681 C686 0.949 . S
H682 C688 0.950 . S
H683 C689 0.950 . S
H684 C690 0.949 . S
C685 H680 0.950 . S
C685 C687 1.327 . S
C685 C691 1.429 . S
C686 C678 1.574 . S
C686 H681 0.949 . S
C686 C692 1.368 . S
C687 C671 1.349 . S
C687 H679 0.950 . S
C687 C685 1.327 . S
C688 C676 1.349 . S
C688 H682 0.950 . S
C688 C689 1.327 . S
C689 H683 0.950 . S
C689 C688 1.327 . S
C689 C693 1.429 . S
C690 C673 1.574 . S
C690 H684 0.949 . S
C690 C694 1.368 . S
C691 C672 1.429 . S
C691 C685 1.429 . S
C691 C692 1.523 . S
C692 C673 1.368 . S
C692 C686 1.368 . S
C692 C691 1.523 . S
C693 C677 1.429 . S
C693 C689 1.429 . S
C693 C694 1.523 . S
C694 C678 1.368 . S
C694 C690 1.368 . S
C694 C693 1.523 . S
H695 C670 0.950 . S
H696 C672 0.950 . S
H697 C673 0.949 . S
H698 C675 0.950 . S
H699 C677 0.950 . S
C700 C701 1.349 . S
C700 C702 1.327 . S
C700 H725 0.950 . S
C701 C700 1.349 . S
C701 C717 1.349 . S
C702 C700 1.327 . S
C702 C721 1.429 . S
C702 H726 0.950 . S
C703 C720 1.574 . S
C703 C722 1.368 . S
C703 H727 0.949 . S
H704 C708 0.949 . S
C705 C706 1.349 . S
C705 C707 1.327 . S
C705 H728 0.950 . S
C706 C705 1.349 . S
C706 C718 1.349 . S
C707 C705 1.327 . S
C707 C723 1.429 . S
C707 H729 0.950 . S
C708 H704 0.949 . S
C708 C716 1.574 . S
C708 C724 1.368 . S
H709 C717 0.950 . S
H710 C715 0.950 . S
H711 C716 0.949 . S
H712 C718 0.950 . S
H713 C719 0.950 . S
H714 C720 0.949 . S
C715 H710 0.950 . S
C715 C717 1.327 . S
C715 C721 1.429 . S
C716 C708 1.574 . S
C716 H711 0.949 . S
C716 C722 1.368 . S
C717 C701 1.349 . S
C717 H709 0.950 . S
C717 C715 1.327 . S
C718 C706 1.349 . S
C718 H712 0.950 . S
C718 C719 1.327 . S
C719 H713 0.950 . S
C719 C718 1.327 . S
C719 C723 1.429 . S
C720 C703 1.574 . S
C720 H714 0.949 . S
C720 C724 1.368 . S
C721 C702 1.429 . S
C721 C715 1.429 . S
C721 C722 1.523 . S
C722 C703 1.368 . S
C722 C716 1.368 . S
C722 C721 1.523 . S
C723 C707 1.429 . S
C723 C719 1.429 . S
C723 C724 1.523 . S
C724 C708 1.368 . S
C724 C720 1.368 . S
C724 C723 1.523 . S
H725 C700 0.950 . S
H726 C702 0.950 . S
H727 C703 0.949 . S
H728 C705 0.950 . S
H729 C707 0.950 . S
C730 C731 1.349 . S
C730 C732 1.327 . S
C730 H755 0.950 . S
C731 C730 1.349 . S
C731 C747 1.349 . S
C732 C730 1.327 . S
C732 C751 1.429 . S
C732 H756 0.950 . S
C733 C750 1.574 . S
C733 C752 1.368 . S
C733 H757 0.949 . S
H734 C738 0.949 . S
C735 C736 1.349 . S
C735 C737 1.327 . S
C735 H758 0.950 . S
C736 C735 1.349 . S
C736 C748 1.349 . S
C737 C735 1.327 . S
C737 C753 1.429 . S
C737 H759 0.950 . S
C738 H734 0.949 . S
C738 C746 1.574 . S
C738 C754 1.368 . S
H739 C747 0.950 . S
H740 C745 0.950 . S
H741 C746 0.949 . S
H742 C748 0.950 . S
H743 C749 0.950 . S
H744 C750 0.949 . S
C745 H740 0.950 . S
C745 C747 1.327 . S
C745 C751 1.429 . S
C746 C738 1.574 . S
C746 H741 0.949 . S
C746 C752 1.368 . S
C747 C731 1.349 . S
C747 H739 0.950 . S
C747 C745 1.327 . S
C748 C736 1.349 . S
C748 H742 0.950 . S
C748 C749 1.327 . S
C749 H743 0.950 . S
C749 C748 1.327 . S
C749 C753 1.429 . S
C750 C733 1.574 . S
C750 H744 0.949 . S
C750 C754 1.368 . S
C751 C732 1.429 . S
C751 C745 1.429 . S
C751 C752 1.523 . S
C752 C733 1.368 . S
C752 C746 1.368 . S
C752 C751 1.523 . S
C753 C737 1.429 . S
C753 C749 1.429 . S
C753 C754 1.523 . S
C754 C738 1.368 . S
C754 C750 1.368 . S
C754 C753 1.523 . S
H755 C730 0.950 . S
H756 C732 0.950 . S
H757 C733 0.949 . S
H758 C735 0.950 . S
H759 C737 0.950 . S
C760 C761 1.349 . S
C760 C762 1.327 . S
C760 H785 0.950 . S
C761 C760 1.349 . S
C761 C777 1.349 . S
C762 C760 1.327 . S
C762 C781 1.429 . S
C762 H786 0.950 . S
C763 C780 1.574 . S
C763 C782 1.368 . S
C763 H787 0.949 . S
H764 C768 0.949 . S
C765 C766 1.349 . S
C765 C767 1.327 . S
C765 H788 0.950 . S
C766 C765 1.349 . S
C766 C778 1.349 . S
C767 C765 1.327 . S
C767 C783 1.429 . S
C767 H789 0.950 . S
C768 H764 0.949 . S
C768 C776 1.574 . S
C768 C784 1.368 . S
H769 C777 0.950 . S
H770 C775 0.950 . S
H771 C776 0.949 . S
H772 C778 0.950 . S
H773 C779 0.950 . S
H774 C780 0.949 . S
C775 H770 0.950 . S
C775 C777 1.327 . S
C775 C781 1.429 . S
C776 C768 1.574 . S
C776 H771 0.949 . S
C776 C782 1.368 . S
C777 C761 1.349 . S
C777 H769 0.950 . S
C777 C775 1.327 . S
C778 C766 1.349 . S
C778 H772 0.950 . S
C778 C779 1.327 . S
C779 H773 0.950 . S
C779 C778 1.327 . S
C779 C783 1.429 . S
C780 C763 1.574 . S
C780 H774 0.949 . S
C780 C784 1.368 . S
C781 C762 1.429 . S
C781 C775 1.429 . S
C781 C782 1.523 . S
C782 C763 1.368 . S
C782 C776 1.368 . S
C782 C781 1.523 . S
C783 C767 1.429 . S
C783 C779 1.429 . S
C783 C784 1.523 . S
C784 C768 1.368 . S
C784 C780 1.368 . S
C784 C783 1.523 . S
H785 C760 0.950 . S
H786 C762 0.950 . S
H787 C763 0.949 . S
H788 C765 0.950 . S
H789 C767 0.950 . S
C790 C791 1.349 . S
C790 C792 1.327 . S
C790 H815 0.950 . S
C791 C790 1.349 . S
C791 C807 1.349 . S
C792 C790 1.327 . S
C792 C811 1.429 . S
C792 H816 0.950 . S
C793 C810 1.574 . S
C793 C812 1.368 . S
C793 H817 0.949 . S
H794 C798 0.949 . S
C795 C796 1.349 . S
C795 C797 1.327 . S
C795 H818 0.950 . S
C796 C795 1.349 . S
C796 C808 1.349 . S
C797 C795 1.327 . S
C797 C813 1.429 . S
C797 H819 0.950 . S
C798 H794 0.949 . S
C798 C806 1.574 . S
C798 C814 1.368 . S
H799 C807 0.950 . S
H800 C805 0.950 . S
H801 C806 0.949 . S
H802 C808 0.950 . S
H803 C809 0.950 . S
H804 C810 0.949 . S
C805 H800 0.950 . S
C805 C807 1.327 . S
C805 C811 1.429 . S
C806 C798 1.574 . S
C806 H801 0.949 . S
C806 C812 1.368 . S
C807 C791 1.349 . S
C807 H799 0.950 . S
C807 C805 1.327 . S
C808 C796 1.349 . S
C808 H802 0.950 . S
C808 C809 1.327 . S
C809 H803 0.950 . S
C809 C808 1.327 . S
C809 C813 1.429 . S
C810 C793 1.574 . S
C810 H804 0.949 . S
C810 C814 1.368 . S
C811 C792 1.429 . S
C811 C805 1.429 . S
C811 C812 1.523 . S
C812 C793 1.368 . S
C812 C806 1.368 . S
C812 C811 1.523 . S
C813 C797 1.429 . S
C813 C809 1.429 . S
C813 C814 1.523 . S
C814 C798 1.368 . S
C814 C810 1.368 . S
C814 C813 1.523 . S
H815 C790 0.950 . S
H816 C792 0.950 . S
H817 C793 0.949 . S
H818 C795 0.950 . S
H819 C797 0.950 . S
C820 C821 1.349 . S
C820 C822 1.327 . S
C820 H845 0.950 . S
C821 C820 1.349 . S
C821 C837 1.349 . S
C822 C820 1.327 . S
C822 C841 1.429 . S
C822 H846 0.950 . S
C823 C840 1.574 . S
C823 C842 1.368 . S
C823 H847 0.949 . S
H824 C828 0.949 . S
C825 C826 1.349 . S
C825 C827 1.327 . S
C825 H848 0.950 . S
C826 C825 1.349 . S
C826 C838 1.349 . S
C827 C825 1.327 . S
C827 C843 1.429 . S
C827 H849 0.950 . S
C828 H824 0.949 . S
C828 C836 1.574 . S
C828 C844 1.368 . S
H829 C837 0.950 . S
H830 C835 0.950 . S
H831 C836 0.949 . S
H832 C838 0.950 . S
H833 C839 0.950 . S
H834 C840 0.949 . S
C835 H830 0.950 . S
C835 C837 1.327 . S
C835 C841 1.429 . S
C836 C828 1.574 . S
C836 H831 0.949 . S
C836 C842 1.368 . S
C837 C821 1.349 . S
C837 H829 0.950 . S
C837 C835 1.327 . S
C838 C826 1.349 . S
C838 H832 0.950 . S
C838 C839 1.327 . S
C839 H833 0.950 . S
C839 C838 1.327 . S
C839 C843 1.429 . S
C840 C823 1.574 . S
C840 H834 0.949 . S
C840 C844 1.368 . S
C841 C822 1.429 . S
C841 C835 1.429 . S
C841 C842 1.523 . S
C842 C823 1.368 . S
C842 C836 1.368 . S
C842 C841 1.523 . S
C843 C827 1.429 . S
C843 C839 1.429 . S
C843 C844 1.523 . S
C844 C828 1.368 . S
C844 C840 1.368 . S
C844 C843 1.523 . S
H845 C820 0.950 . S
H846 C822 0.950 . S
H847 C823 0.949 . S
H848 C825 0.950 . S
H849 C827 0.950 . S
C850 C851 1.349 . S
C850 C852 1.327 . S
C850 H875 0.950 . S
C851 C850 1.349 . S
C851 C867 1.349 . S
C852 C850 1.327 . S
C852 C871 1.429 . S
C852 H876 0.950 . S
C853 C870 1.574 . S
C853 C872 1.368 . S
C853 H877 0.949 . S
H854 C858 0.949 . S
C855 C856 1.349 . S
C855 C857 1.327 . S
C855 H878 0.950 . S
C856 C855 1.349 . S
C856 C868 1.349 . S
C857 C855 1.327 . S
C857 C873 1.429 . S
C857 H879 0.950 . S
C858 H854 0.949 . S
C858 C866 1.574 . S
C858 C874 1.368 . S
H859 C867 0.950 . S
H860 C865 0.950 . S
H861 C866 0.949 . S
H862 C868 0.950 . S
H863 C869 0.950 . S
H864 C870 0.949 . S
C865 H860 0.950 . S
C865 C867 1.327 . S
C865 C871 1.429 . S
C866 C858 1.574 . S
C866 H861 0.949 . S
C866 C872 1.368 . S
C867 C851 1.349 . S
C867 H859 0.950 . S
C867 C865 1.327 . S
C868 C856 1.349 . S
C868 H862 0.950 . S
C868 C869 1.327 . S
C869 H863 0.950 . S
C869 C868 1.327 . S
C869 C873 1.429 . S
C870 C853 1.574 . S
C870 H864 0.949 . S
C870 C874 1.368 . S
C871 C852 1.429 . S
C871 C865 1.429 . S
C871 C872 1.523 . S
C872 C853 1.368 . S
C872 C866 1.368 . S
C872 C871 1.523 . S
C873 C857 1.429 . S
C873 C869 1.429 . S
C873 C874 1.523 . S
C874 C858 1.368 . S
C874 C870 1.368 . S
C874 C873 1.523 . S
H875 C850 0.950 . S
H876 C852 0.950 . S
H877 C853 0.949 . S
H878 C855 0.950 . S
H879 C857 0.950 . S
C880 C881 1.349 . S
C880 C882 1.327 . S
C880 H905 0.950 . S
C881 C880 1.349 . S
C881 C897 1.349 . S
C882 C880 1.327 . S
C882 C901 1.429 . S
C882 H906 0.950 . S
C883 C900 1.574 . S
C883 C902 1.368 . S
C883 H907 0.949 . S
H884 C888 0.949 . S
C885 C886 1.349 . S
C885 C887 1.327 . S
C885 H908 0.950 . S
C886 C885 1.349 . S
C886 C898 1.349 . S
C887 C885 1.327 . S
C887 C903 1.429 . S
C887 H909 0.950 . S
C888 H884 0.949 . S
C888 C896 1.574 . S
C888 C904 1.368 . S
H889 C897 0.950 . S
H890 C895 0.950 . S
H891 C896 0.949 . S
H892 C898 0.950 . S
H893 C899 0.950 . S
H894 C900 0.949 . S
C895 H890 0.950 . S
C895 C897 1.327 . S
C895 C901 1.429 . S
C896 C888 1.574 . S
C896 H891 0.949 . S
C896 C902 1.368 . S
C897 C881 1.349 . S
C897 H889 0.950 . S
C897 C895 1.327 . S
C898 C886 1.349 . S
C898 H892 0.950 . S
C898 C899 1.327 . S
C899 H893 0.950 . S
C899 C898 1.327 . S
C899 C903 1.429 . S
C900 C883 1.574 . S
C900 H894 0.949 . S
C900 C904 1.368 . S
C901 C882 1.429 . S
C901 C895 1.429 . S
C901 C902 1.523 . S
C902 C883 1.368 . S
C902 C896 1.368 . S
C902 C901 1.523 . S
C903 C887 1.429 . S
C903 C899 1.429 . S
C903 C904 1.523 . S
C904 C888 1.368 . S
C904 C900 1.368 . S
C904 C903 1.523 . S
H905 C880 0.950 . S
H906 C882 0.950 . S
H907 C883 0.949 . S
H908 C885 0.950 . S
H909 C887 0.950 . S
C910 C911 1.349 . S
C910 C912 1.327 . S
C910 H935 0.950 . S
C911 C910 1.349 . S
C911 C927 1.349 . S
C912 C910 1.327 . S
C912 C931 1.429 . S
C912 H936 0.950 . S
C913 C930 1.574 . S
C913 C932 1.368 . S
C913 H937 0.949 . S
H914 C918 0.949 . S
C915 C916 1.349 . S
C915 C917 1.327 . S
C915 H938 0.950 . S
C916 C915 1.349 . S
C916 C928 1.349 . S
C917 C915 1.327 . S
C917 C933 1.429 . S
C917 H939 0.950 . S
C918 H914 0.949 . S
C918 C926 1.574 . S
C918 C934 1.368 . S
H919 C927 0.950 . S
H920 C925 0.950 . S
H921 C926 0.949 . S
H922 C928 0.950 . S
H923 C929 0.950 . S
H924 C930 0.949 . S
C925 H920 0.950 . S
C925 C927 1.327 . S
C925 C931 1.429 . S
C926 C918 1.574 . S
C926 H921 0.949 . S
C926 C932 1.368 . S
C927 C911 1.349 . S
C927 H919 0.950 . S
C927 C925 1.327 . S
C928 C916 1.349 . S
C928 H922 0.950 . S
C928 C929 1.327 . S
C929 H923 0.950 . S
C929 C928 1.327 . S
C929 C933 1.429 . S
C930 C913 1.574 . S
C930 H924 0.949 . S
C930 C934 1.368 . S
C931 C912 1.429 . S
C931 C925 1.429 . S
C931 C932 1.523 . S
C932 C913 1.368 . S
C932 C926 1.368 . S
C932 C931 1.523 . S
C933 C917 1.429 . S
C933 C929 1.429 . S
C933 C934 1.523 . S
C934 C918 1.368 . S
C934 C930 1.368 . S
C934 C933 1.523 . S
H935 C910 0.950 . S
H936 C912 0.950 . S
H937 C913 0.949 . S
H938 C915 0.950 . S
H939 C917 0.950 . S
C940 C941 1.349 . S
C940 C942 1.327 . S
C940 H965 0.950 . S
C941 C940 1.349 . S
C941 C957 1.349 . S
C942 C940 1.327 . S
C942 C961 1.429 . S
C942 H966 0.950 . S
C943 C960 1.574 . S
C943 C962 1.368 . S
C943 H967 0.949 . S
H944 C948 0.949 . S
C945 C946 1.349 . S
C945 C947 1.327 . S
C945 H968 0.950 . S
C946 C945 1.349 . S
C946 C958 1.349 . S
C947 C945 1.327 . S
C947 C963 1.429 . S
C947 H969 0.950 . S
C948 H944 0.949 . S
C948 C956 1.574 . S
C948 C964 1.368 . S
H949 C957 0.950 . S
H950 C955 0.950 . S
H951 C956 0.949 . S
H952 C958 0.950 . S
H953 C959 0.950 . S
H954 C960 0.949 . S
C955 H950 0.950 . S
C955 C957 1.327 . S
C955 C961 1.429 . S
C956 C948 1.574 . S
C956 H951 0.949 . S
C956 C962 1.368 . S
C957 C941 1.349 . S
C957 H949 0.950 . S
C957 C955 1.327 . S
C958 C946 1.349 . S
C958 H952 0.950 . S
C958 C959 1.327 . S
C959 H953 0.950 . S
C959 C958 1.327 . S
C959 C963 1.429 . S
C960 C943 1.574 . S
C960 H954 0.949 . S
C960 C964 1.368 . S
C961 C942 1.429 . S
C961 C955 1.429 . S
C961 C962 1.523 . S
C962 C943 1.368 . S
C962 C956 1.368 . S
C962 C961 1.523 . S
C963 C947 1.429 . S
C963 C959 1.429 . S
C963 C964 1.523 . S
C964 C948 1.368 . S
C964 C960 1.368 . S
C964 C963 1.523 . S
H965 C940 0.950 . S
H966 C942 0.950 . S
H967 C943 0.949 . S
H968 C945 0.950 . S
H969 C947 0.950 . S
C970 C971 1.349 . S
C970 C972 1.327 . S
C970 H995 0.950 . S
C971 C970 1.349 . S
C971 C987 1.349 . S
C972 C970 1.327 . S
C972 C991 1.429 . S
C972 H996 0.950 . S
C973 C990 1.574 . S
C973 C992 1.368 . S
C973 H997 0.949 . S
H974 C978 0.949 . S
C975 C976 1.349 . S
C975 C977 1.327 . S
C975 H998 0.950 . S
C976 C975 1.349 . S
C976 C988 1.349 . S
C977 C975 1.327 . S
C977 C993 1.429 . S
C977 H999 0.950 . S
C978 H974 0.949 . S
C978 C986 1.574 . S
C978 C994 1.368 . S
H979 C987 0.950 . S
H980 C985 0.950 . S
H981 C986 0.949 . S
H982 C988 0.950 . S
H983 C989 0.950 . S
H984 C990 0.949 . S
C985 H980 0.950 . S
C985 C987 1.327 . S
C985 C991 1.429 . S
C986 C978 1.574 . S
C986 H981 0.949 . S
C986 C992 1.368 . S
C987 C971 1.349 . S
C987 H979 0.950 . S
C987 C985 1.327 . S
C988 C976 1.349 . S
C988 H982 0.950 . S
C988 C989 1.327 . S
C989 H983 0.950 . S
C989 C988 1.327 . S
C989 C993 1.429 . S
C990 C973 1.574 . S
C990 H984 0.949 . S
C990 C994 1.368 . S
C991 C972 1.429 . S
C991 C985 1.429 . S
C991 C992 1.523 . S
C992 C973 1.368 . S
C992 C986 1.368 . S
C992 C991 1.523 . S
C993 C977 1.429 . S
C993 C989 1.429 . S
C993 C994 1.523 . S
C994 C978 1.368 . S
C994 C990 1.368 . S
C994 C993 1.523 . S
H995 C970 0.950 . S
H996 C972 0.950 . S
H997 C973 0.949 . S
H998 C975 0.950 . S
H999 C977 0.950 . S
C1000 C1001 1.349 . S
C1000 C1002 1.327 . S
C1000 H1025 0.950 . S
C1001 C1000 1.349 . S
C1001 C1017 1.349 . S
C1002 C1000 1.327 . S
C1002 C1021 1.429 . S
C1002 H1026 0.950 . S
C1003 C1020 1.574 . S
C1003 C1022 1.368 . S
C1003 H1027 0.949 . S
H1004 C1008 0.949 . S
C1005 C1006 1.349 . S
C1005 C1007 1.327 . S
C1005 H1028 0.950 . S
C1006 C1005 1.349 . S
C1006 C1018 1.349 . S
C1007 C1005 1.327 . S
C1007 C1023 1.429 . S
C1007 H1029 0.950 . S
C1008 H1004 0.949 . S
C1008 C1016 1.574 . S
C1008 C1024 1.368 . S
H1009 C1017 0.950 . S
H1010 C1015 0.950 . S
H1011 C1016 0.949 . S
H1012 C1018 0.950 . S
H1013 C1019 0.950 . S
H1014 C1020 0.949 . S
C1015 H1010 0.950 . S
C1015 C1017 1.327 . S
C1015 C1021 1.429 . S
C1016 C1008 1.574 . S
C1016 H1011 0.949 . S
C1016 C1022 1.368 . S
C1017 C1001 1.349 . S
C1017 H1009 0.950 . S
C1017 C1015 1.327 . S
C1018 C1006 1.349 . S
C1018 H1012 0.950 . S
C1018 C1019 1.327 . S
C1019 H1013 0.950 . S
C1019 C1018 1.327 . S
C1019 C1023 1.429 . S
C1020 C1003 1.574 . S
C1020 H1014 0.949 . S
C1020 C1024 1.368 . S
C1021 C1002 1.429 . S
C1021 C1015 1.429 . S
C1021 C1022 1.523 . S
C1022 C1003 1.368 . S
C1022 C1016 1.368 . S
C1022 C1021 1.523 . S
C1023 C1007 1.429 . S
C1023 C1019 1.429 . S
C1023 C1024 1.523 . S
C1024 C1008 1.368 . S
C1024 C1020 1.368 . S
C1024 C1023 1.523 . S
H1025 C1000 0.950 . S
H1026 C1002 0.950 . S
H1027 C1003 0.949 . S
H1028 C1005 0.950 . S
H1029 C1007 0.950 . S
C1030 C1031 1.349 . S
C1030 C1032 1.327 . S
C1030 H1055 0.950 . S
C1031 C1030 1.349 . S
C1031 C1047 1.349 . S
C1032 C1030 1.327 . S
C1032 C1051 1.429 . S
C1032 H1056 0.950 . S
C1033 C1050 1.574 . S
C1033 C1052 1.368 . S
C1033 H1057 0.949 . S
H1034 C1038 0.949 . S
C1035 C1036 1.349 . S
C1035 C1037 1.327 . S
C1035 H1058 0.950 . S
C1036 C1035 1.349 . S
C1036 C1048 1.349 . S
C1037 C1035 1.327 . S
C1037 C1053 1.429 . S
C1037 H1059 0.950 . S
C1038 H1034 0.949 . S
C1038 C1046 1.574 . S
C1038 C1054 1.368 . S
H1039 C1047 0.950 . S
H1040 C1045 0.950 . S
H1041 C1046 0.949 . S
H1042 C1048 0.950 . S
H1043 C1049 0.950 . S
H1044 C1050 0.949 . S
C1045 H1040 0.950 . S
C1045 C1047 1.327 . S
C1045 C1051 1.429 . S
C1046 C1038 1.574 . S
C1046 H1041 0.949 . S
C1046 C1052 1.368 . S
C1047 C1031 1.349 . S
C1047 H1039 0.950 . S
C1047 C1045 1.327 . S
C1048 C1036 1.349 . S
C1048 H1042 0.950 . S
C1048 C1049 1.327 . S
C1049 H1043 0.950 . S
C1049 C1048 1.327 . S
C1049 C1053 1.429 . S
C1050 C1033 1.574 . S
C1050 H1044 0.949 . S
C1050 C1054 1.368 . S
C1051 C1032 1.429 . S
C1051 C1045 1.429 . S
C1051 C1052 1.523 . S
C1052 C1033 1.368 . S
C1052 C1046 1.368 . S
C1052 C1051 1.523 . S
C1053 C1037 1.429 . S
C1053 C1049 1.429 . S
C1053 C1054 1.523 . S
C1054 C1038 1.368 . S
C1054 C1050 1.368 . S
C1054 C1053 1.523 . S
H1055 C1030 0.950 . S
H1056 C1032 0.950 . S
H1057 C1033 0.949 . S
H1058 C1035 0.950 . S
H1059 C1037 0.950 . S
C1060 C1061 1.349 . S
C1060 C1062 1.327 . S
C1060 H1085 0.950 . S
C1061 C1060 1.349 . S
C1061 C1077 1.349 . S
C1062 C1060 1.327 . S
C1062 C1081 1.429 . S
C1062 H1086 0.950 . S
C1063 C1080 1.574 . S
C1063 C1082 1.368 . S
C1063 H1087 0.949 . S
H1064 C1068 0.949 . S
C1065 C1066 1.349 . S
C1065 C1067 1.327 . S
C1065 H1088 0.950 . S
C1066 C1065 1.349 . S
C1066 C1078 1.349 . S
C1067 C1065 1.327 . S
C1067 C1083 1.429 . S
C1067 H1089 0.950 . S
C1068 H1064 0.949 . S
C1068 C1076 1.574 . S
C1068 C1084 1.368 . S
H1069 C1077 0.950 . S
H1070 C1075 0.950 . S
H1071 C1076 0.949 . S
H1072 C1078 0.950 . S
H1073 C1079 0.950 . S
H1074 C1080 0.949 . S
C1075 H1070 0.950 . S
C1075 C1077 1.327 . S
C1075 C1081 1.429 . S
C1076 C1068 1.574 . S
C1076 H1071 0.949 . S
C1076 C1082 1.368 . S
C1077 C1061 1.349 . S
C1077 H1069 0.950 . S
C1077 C1075 1.327 . S
C1078 C1066 1.349 . S
C1078 H1072 0.950 . S
C1078 C1079 1.327 . S
C1079 H1073 0.950 . S
C1079 C1078 1.327 . S
C1079 C1083 1.429 . S
C1080 C1063 1.574 . S
C1080 H1074 0.949 . S
C1080 C1084 1.368 . S
C1081 C1062 1.429 . S
C1081 C1075 1.429 . S
C1081 C1082 1.523 . S
C1082 C1063 1.368 . S
C1082 C1076 1.368 . S
C1082 C1081 1.523 . S
C1083 C1067 1.429 . S
C1083 C1079 1.429 . S
C1083 C1084 1.523 . S
C1084 C1068 1.368 . S
C1084 C1080 1.368 . S
C1084 C1083 1.523 . S
H1085 C1060 0.950 . S
H1086 C1062 0.950 . S
H1087 C1063 0.949 . S
H1088 C1065 0.950 . S
H1089 C1067 0.950 . S
C1090 C1091 1.349 . S
C1090 C1092 1.327 . S
C1090 H1115 0.950 . S
C1091 C1090 1.349 . S
C1091 C1107 1.349 . S
C1092 C1090 1.327 . S
C1092 C1111 1.429 . S
C1092 H1116 0.950 . S
C1093 C1110 1.574 . S
C1093 C1112 1.368 . S
C1093 H1117 0.949 . S
H1094 C1098 0.949 . S
C1095 C1096 1.349 . S
C1095 C1097 1.327 . S
C1095 H1118 0.950 . S
C1096 C1095 1.349 . S
C1096 C1108 1.349 . S
C1097 C1095 1.327 . S
C1097 C1113 1.429 . S
C1097 H1119 0.950 . S
C1098 H1094 0.949 . S
C1098 C1106 1.574 . S
C1098 C1114 1.368 . S
H1099 C1107 0.950 . S
H1100 C1105 0.950 . S
H1101 C1106 0.949 . S
H1102 C1108 0.950 . S
H1103 C1109 0.950 . S
H1104 C1110 0.949 . S
C1105 H1100 0.950 . S
C1105 C1107 1.327 . S
C1105 C1111 1.429 . S
C1106 C1098 1.574 . S
C1106 H1101 0.949 . S
C1106 C1112 1.368 . S
C1107 C1091 1.349 . S
C1107 H1099 0.950 . S
C1107 C1105 1.327 . S
C1108 C1096 1.349 . S
C1108 H1102 0.950 . S
C1108 C1109 1.327 . S
C1109 H1103 0.950 . S
C1109 C1108 1.327 . S
C1109 C1113 1.429 . S
C1110 C1093 1.574 . S
C1110 H1104 0.949 . S
C1110 C1114 1.368 . S
C1111 C1092 1.429 . S
C1111 C1105 1.429 . S
C1111 C1112 1.523 . S
C1112 C1093 1.368 . S
C1112 C1106 1.368 . S
C1112 C1111 1.523 . S
C1113 C1097 1.429 . S
C1113 C1109 1.429 . S
C1113 C1114 1.523 . S
C1114 C1098 1.368 . S
C1114 C1110 1.368 . S
C1114 C1113 1.523 . S
H1115 C1090 0.950 . S
H1116 C1092 0.950 . S
H1117 C1093 0.949 . S
H1118 C1095 0.950 . S
H1119 C1097 0.950 . S
C1120 C1121 1.349 . S
C1120 C1122 1.327 . S
C1120 H1145 0.950 . S
C1121 C1120 1.349 . S
C1121 C1137 1.349 . S
C1122 C1120 1.327 . S
C1122 C1141 1.429 . S
C1122 H1146 0.950 . S
C1123 C1140 1.574 . S
C1123 C1142 1.368 . S
C1123 H1147 0.949 . S
H1124 C1128 0.949 . S
C1125 C1126 1.349 . S
C1125 C1127 1.327 . S
C1125 H1148 0.950 . S
C1126 C1125 1.349 . S
C1126 C1138 1.349 . S
C1127 C1125 1.327 . S
C1127 C1143 1.429 . S
C1127 H1149 0.950 . S
C1128 H1124 0.949 . S
C1128 C1136 1.574 . S
C1128 C1144 1.368 . S
H1129 C1137 0.950 . S
H1130 C1135 0.950 . S
H1131 C1136 0.949 . S
H1132 C1138 0.950 . S
H1133 C1139 0.950 . S
H1134 C1140 0.949 . S
C1135 H1130 0.950 . S
C1135 C1137 1.327 . S
C1135 C1141 1.429 . S
C1136 C1128 1.574 . S
C1136 H1131 0.949 . S
C1136 C1142 1.368 . S
C1137 C1121 1.349 . S
C1137 H1129 0.950 . S
C1137 C1135 1.327 . S
C1138 C1126 1.349 . S
C1138 H1132 0.950 . S
C1138 C1139 1.327 . S
C1139 H1133 0.950 . S
C1139 C1138 1.327 . S
C1139 C1143 1.429 . S
C1140 C1123 1.574 . S
C1140 H1134 0.949 . S
C1140 C1144 1.368 . S
C1141 C1122 1.429 . S
C1141 C1135 1.429 . S
C1141 C1142 1.523 . S
C1142 C1123 1.368 . S
C1142 C1136 1.368 . S
C1142 C1141 1.523 . S
C1143 C1127 1.429 . S
C1143 C1139 1.429 . S
C1143 C1144 1.523 . S
C1144 C1128 1.368 . S
C1144 C1140 1.368 . S
C1144 C1143 1.523 . S
H1145 C1120 0.950 . S
H1146 C1122 0.950 . S
H1147 C1123 0.949 . S
H1148 C1125 0.950 . S
H1149 C1127 0.950 . S
C1150 C1151 1.349 . S
C1150 C1152 1.327 . S
C1150 H1175 0.950 . S
C1151 C1150 1.349 . S
C1151 C1167 1.349 . S
C1152 C1150 1.327 . S
C1152 C1171 1.429 . S
C1152 H1176 0.950 . S
C1153 C1170 1.574 . S
C1153 C1172 1.368 . S
C1153 H1177 0.949 . S
H1154 C1158 0.949 . S
C1155 C1156 1.349 . S
C1155 C1157 1.327 . S
C1155 H1178 0.950 . S
C1156 C1155 1.349 . S
C1156 C1168 1.349 . S
C1157 C1155 1.327 . S
C1157 C1173 1.429 . S
C1157 H1179 0.950 . S
C1158 H1154 0.949 . S
C1158 C1166 1.574 . S
C1158 C1174 1.368 . S
H1159 C1167 0.950 . S
H1160 C1165 0.950 . S
H1161 C1166 0.949 . S
H1162 C1168 0.950 . S
H1163 C1169 0.950 . S
H1164 C1170 0.949 . S
C1165 H1160 0.950 . S
C1165 C1167 1.327 . S
C1165 C1171 1.429 . S
C1166 C1158 1.574 . S
C1166 H1161 0.949 . S
C1166 C1172 1.368 . S
C1167 C1151 1.349 . S
C1167 H1159 0.950 . S
C1167 C1165 1.327 . S
C1168 C1156 1.349 . S
C1168 H1162 0.950 . S
C1168 C1169 1.327 . S
C1169 H1163 0.950 . S
C1169 C1168 1.327 . S
C1169 C1173 1.429 . S
C1170 C1153 1.574 . S
C1170 H1164 0.949 . S
C1170 C1174 1.368 . S
C1171 C1152 1.429 . S
C1171 C1165 1.429 . S
C1171 C1172 1.523 . S
C1172 C1153 1.368 . S
C1172 C1166 1.368 . S
C1172 C1171 1.523 . S
C1173 C1157 1.429 . S
C1173 C1169 1.429 . S
C1173 C1174 1.523 . S
C1174 C1158 1.368 . S
C1174 C1170 1.368 . S
C1174 C1173 1.523 . S
H1175 C1150 0.950 . S
H1176 C1152 0.950 . S
H1177 C1153 0.949 . S
H1178 C1155 0.950 . S
H1179 C1157 0.950 . S
C1180 C1181 1.349 . S
C1180 C1182 1.327 . S
C1180 H1205 0.950 . S
C1181 C1180 1.349 . S
C1181 C1197 1.349 . S
C1182 C1180 1.327 . S
C1182 C1201 1.429 . S
C1182 H1206 0.950 . S
C1183 C1200 1.574 . S
C1183 C1202 1.368 . S
C1183 H1207 0.949 . S
H1184 C1188 0.949 . S
C1185 C1186 1.349 . S
C1185 C1187 1.327 . S
C1185 H1208 0.950 . S
C1186 C1185 1.349 . S
C1186 C1198 1.349 . S
C1187 C1185 1.327 . S
C1187 C1203 1.429 . S
C1187 H1209 0.950 . S
C1188 H1184 0.949 . S
C1188 C1196 1.574 . S
C1188 C1204 1.368 . S
H1189 C1197 0.950 . S
H1190 C1195 0.950 . S
H1191 C1196 0.949 . S
H1192 C1198 0.950 . S
H1193 C1199 0.950 . S
H1194 C1200 0.949 . S
C1195 H1190 0.950 . S
C1195 C1197 1.327 . S
C1195 C1201 1.429 . S
C1196 C1188 1.574 . S
C1196 H1191 0.949 . S
C1196 C1202 1.368 . S
C1197 C1181 1.349 . S
C1197 H1189 0.950 . S
C1197 C1195 1.327 . S
C1198 C1186 1.349 . S
C1198 H1192 0.950 . S
C1198 C1199 1.327 . S
C1199 H1193 0.950 . S
C1199 C1198 1.327 . S
C1199 C1203 1.429 . S
C1200 C1183 1.574 . S
C1200 H1194 0.949 . S
C1200 C1204 1.368 . S
C1201 C1182 1.429 . S
C1201 C1195 1.429 . S
C1201 C1202 1.523 . S
C1202 C1183 1.368 . S
C1202 C1196 1.368 . S
C1202 C1201 1.523 . S
C1203 C1187 1.429 . S
C1203 C1199 1.429 . S
C1203 C1204 1.523 . S
C1204 C1188 1.368 . S
C1204 C1200 1.368 . S
C1204 C1203 1.523 . S
H1205 C1180 0.950 . S
H1206 C1182 0.950 . S
H1207 C1183 0.949 . S
H1208 C1185 0.950 . S
H1209 C1187 0.950 . S
C1210 C1211 1.349 . S
C1210 C1212 1.327 . S
C1210 H1235 0.950 . S
C1211 C1210 1.349 . S
C1211 C1227 1.349 . S
C1212 C1210 1.327 . S
C1212 C1231 1.429 . S
C1212 H1236 0.950 . S
C1213 C1230 1.574 . S
C1213 C1232 1.368 . S
C1213 H1237 0.949 . S
H1214 C1218 0.949 . S
C1215 C1216 1.349 . S
C1215 C1217 1.327 . S
C1215 H1238 0.950 . S
C1216 C1215 1.349 . S
C1216 C1228 1.349 . S
C1217 C1215 1.327 . S
C1217 C1233 1.429 . S
C1217 H1239 0.950 . S
C1218 H1214 0.949 . S
C1218 C1226 1.574 . S
C1218 C1234 1.368 . S
H1219 C1227 0.950 . S
H1220 C1225 0.950 . S
H1221 C1226 0.949 . S
H1222 C1228 0.950 . S
H1223 C1229 0.950 . S
H1224 C1230 0.949 . S
C1225 H1220 0.950 . S
C1225 C1227 1.327 . S
C1225 C1231 1.429 . S
C1226 C1218 1.574 . S
C1226 H1221 0.949 . S
C1226 C1232 1.368 . S
C1227 C1211 1.349 . S
C1227 H1219 0.950 . S
C1227 C1225 1.327 . S
C1228 C1216 1.349 . S
C1228 H1222 0.950 . S
C1228 C1229 1.327 . S
C1229 H1223 0.950 . S
C1229 C1228 1.327 . S
C1229 C1233 1.429 . S
C1230 C1213 1.574 . S
C1230 H1224 0.949 . S
C1230 C1234 1.368 . S
C1231 C1212 1.429 . S
C1231 C1225 1.429 . S
C1231 C1232 1.523 . S
C1232 C1213 1.368 . S
C1232 C1226 1.368 . S
C1232 C1231 1.523 . S
C1233 C1217 1.429 . S
C1233 C1229 1.429 . S
C1233 C1234 1.523 . S
C1234 C1218 1.368 . S
C1234 C1230 1.368 . S
C1234 C1233 1.523 . S
H1235 C1210 0.950 . S
H1236 C1212 0.950 . S
H1237 C1213 0.949 . S
H1238 C1215 0.950 . S
H1239 C1217 0.950 . S
C286 C169 1.509 . S
C281 C12 1.398 . S
C316 C195 1.514 . S
C311 C33 1.403 . S
C346 C209 1.506 . S
C341 C51 1.421 . S
C376 C211 1.511 . S
C371 C75 1.402 . S
C401 C103 1.430 . S
C406 C208 1.503 . S
C436 C210 1.509 . S
C431 C122 1.408 . S
C466 C168 1.495 . S
C461 C145 1.422 . S
C496 C194 1.499 . S
C491 C166 1.426 . S
C526 C196 1.512 . S
C521 C164 1.412 . S
C556 C222 1.516 . S
C551 C101 1.416 . S
C586 C180 1.502 . S
C581 C124 1.427 . S
C616 C182 1.508 . S
C611 C143 1.408 . S
C646 C181 1.506 . S
C641 C30 1.418 . S
C676 C183 1.512 . S
C671 C54 1.404 . S
C706 C197 1.504 . S
C701 C72 1.417 . S
C736 C223 1.509 . S
C731 C9 1.423 . S
C766 C225 1.508 . S
C761 C159 1.398 . S
C791 C96 1.403 . S
C796 C251 1.514 . S
C821 C114 1.420 . S
C826 C264 1.505 . S
C851 C138 1.402 . S
C856 C267 1.511 . S
C881 C40 1.430 . S
C886 C265 1.503 . S
C911 C59 1.408 . S
C916 C266 1.509 . S
C941 C82 1.422 . S
C946 C224 1.495 . S
C976 C250 1.499 . S
C971 C19 1.426 . S
C1006 C253 1.512 . S
C1001 C17 1.412 . S
C1031 C38 1.416 . S
C1036 C278 1.516 . S
C1061 C61 1.426 . S
C1066 C236 1.502 . S
C1091 C80 1.408 . S
C1096 C238 1.508 . S
C1126 C237 1.506 . S
C1121 C93 1.418 . S
C1156 C239 1.511 . S
C1151 C117 1.404 . S
C1181 C135 1.417 . S
C1186 C252 1.504 . S
C1216 C279 1.509 . S
C1211 C156 1.423 . S
