# Generated by pormake.
# Topology zzz, (3,6)-cn, num edge types: 1
# Building blocks:
#     Node 0, Type 0, BuildingBlock: BETDIP_clean_linker_0, # of connection points: 3
#     Node 1, Type 0, BuildingBlock: BETDIP_clean_linker_0, # of connection points: 3
#     Node 2, Type 0, BuildingBlock: BETDIP_clean_linker_0, # of connection points: 3
#     Node 3, Type 0, BuildingBlock: BETDIP_clean_linker_0, # of connection points: 3
#     Node 4, Type 0, BuildingBlock: BETDIP_clean_linker_0, # of connection points: 3
#     Node 5, Type 0, BuildingBlock: BETDIP_clean_linker_0, # of connection points: 3
#     Node 6, Type 0, BuildingBlock: BETDIP_clean_linker_0, # of connection points: 3
#     Node 7, Type 0, BuildingBlock: BETDIP_clean_linker_0, # of connection points: 3
#     Node 8, Type 1, BuildingBlock: HISSIN_clean_sbu_0, # of connection points: 6
#     Node 9, Type 1, BuildingBlock: HISSIN_clean_sbu_0, # of connection points: 6
#     Node 10, Type 1, BuildingBlock: HISSIN_clean_sbu_0, # of connection points: 6
#     Node 11, Type 1, BuildingBlock: HISSIN_clean_sbu_0, # of connection points: 6
#     Edge 12, Type (0, 1), BuildingBlock: XIVTED_clean_linker_0, # of connection points: 2
#     Edge 13, Type (0, 1), BuildingBlock: XIVTED_clean_linker_0, # of connection points: 2
#     Edge 14, Type (0, 1), BuildingBlock: XIVTED_clean_linker_0, # of connection points: 2
#     Edge 15, Type (0, 1), BuildingBlock: XIVTED_clean_linker_0, # of connection points: 2
#     Edge 16, Type (0, 1), BuildingBlock: XIVTED_clean_linker_0, # of connection points: 2
#     Edge 17, Type (0, 1), BuildingBlock: XIVTED_clean_linker_0, # of connection points: 2
#     Edge 18, Type (0, 1), BuildingBlock: XIVTED_clean_linker_0, # of connection points: 2
#     Edge 19, Type (0, 1), BuildingBlock: XIVTED_clean_linker_0, # of connection points: 2
#     Edge 20, Type (0, 1), BuildingBlock: XIVTED_clean_linker_0, # of connection points: 2
#     Edge 21, Type (0, 1), BuildingBlock: XIVTED_clean_linker_0, # of connection points: 2
#     Edge 22, Type (0, 1), BuildingBlock: XIVTED_clean_linker_0, # of connection points: 2
#     Edge 23, Type (0, 1), BuildingBlock: XIVTED_clean_linker_0, # of connection points: 2
#     Edge 24, Type (0, 1), BuildingBlock: XIVTED_clean_linker_0, # of connection points: 2
#     Edge 25, Type (0, 1), BuildingBlock: XIVTED_clean_linker_0, # of connection points: 2
#     Edge 26, Type (0, 1), BuildingBlock: XIVTED_clean_linker_0, # of connection points: 2
#     Edge 27, Type (0, 1), BuildingBlock: XIVTED_clean_linker_0, # of connection points: 2
#     Edge 28, Type (0, 1), BuildingBlock: XIVTED_clean_linker_0, # of connection points: 2
#     Edge 29, Type (0, 1), BuildingBlock: XIVTED_clean_linker_0, # of connection points: 2
#     Edge 30, Type (0, 1), BuildingBlock: XIVTED_clean_linker_0, # of connection points: 2
#     Edge 31, Type (0, 1), BuildingBlock: XIVTED_clean_linker_0, # of connection points: 2
#     Edge 32, Type (0, 1), BuildingBlock: XIVTED_clean_linker_0, # of connection points: 2
#     Edge 33, Type (0, 1), BuildingBlock: XIVTED_clean_linker_0, # of connection points: 2
#     Edge 34, Type (0, 1), BuildingBlock: XIVTED_clean_linker_0, # of connection points: 2
#     Edge 35, Type (0, 1), BuildingBlock: XIVTED_clean_linker_0, # of connection points: 2
# Relax obj value: 0.269
# Max RMSD: 0.187
# Mean RMSD: 0.096
data_MOF--net-zzz--node1-HISSIN_clean_sbu_0--node2-BETDIP_clean_linker_0--edge1-XIVTED_clean_linker_0
_symmetry_space_group_name_H-M    P1
_symmetry_Int_Tables_number       1
_symmetry_cell_setting            triclinic
loop_
_symmetry_equiv_pos_as_xyz
'x, y, z'
_cell_length_a     50.224572
_cell_length_b     50.531915
_cell_length_c     16.243705
_cell_angle_alpha  90.227446
_cell_angle_beta   91.66669
_cell_angle_gamma 90.552634
loop_
_atom_site_label
_atom_site_type_symbol
_atom_site_fract_x
_atom_site_fract_y
_atom_site_fract_z
_atom_type_partial_charge
H0 H 0.75331 0.53861 0.47455 0.0
H1 H 0.74249 0.56943 0.22847 0.0
H2 H 0.81904 0.57452 0.35159 0.0
H3 H 0.69897 0.58471 0.33639 0.0
C4 C 0.69681 0.56391 0.3199 0.0
C5 C 0.76119 0.54878 0.42185 0.0
C6 C 0.7882 0.55723 0.42291 0.0
C7 C 0.74427 0.55429 0.35249 0.0
C8 C 0.75492 0.56667 0.28339 0.0
C9 C 0.78184 0.57384 0.28253 0.0
C10 C 0.79795 0.56973 0.35304 0.0
N11 N 0.71697 0.5462 0.34889 0.0
H12 H 1.0019 0.76489 0.42432 0.0
H13 H 0.97398 0.75048 0.1743 0.0
H14 H 0.97274 0.82901 0.27401 0.0
H15 H 0.95601 0.71121 0.26404 0.0
C16 C 0.97724 0.70714 0.26496 0.0
C17 C 0.99324 0.77206 0.3669 0.0
C18 C 0.98649 0.79927 0.35876 0.0
C19 C 0.98786 0.75406 0.30051 0.0
C20 C 0.97707 0.76379 0.22624 0.0
C21 C 0.97205 0.79067 0.21567 0.0
C22 C 0.97607 0.80802 0.2826 0.0
N23 N 0.99429 0.7265 0.30493 0.0
H24 H 0.78531 0.01566 0.37278 0.0
H25 H 0.80642 0.96541 0.17033 0.0
H26 H 0.72884 0.95887 0.27258 0.0
H27 H 0.85003 0.97137 0.27465 0.0
C28 C 0.84785 0.99052 0.24502 0.0
C29 C 0.78031 0.99974 0.33013 0.0
C30 C 0.75522 0.98645 0.33447 0.0
C31 C 0.79919 0.99163 0.27134 0.0
C32 C 0.79234 0.97108 0.21631 0.0
C33 C 0.76678 0.95984 0.21375 0.0
C34 C 0.74888 0.96701 0.27478 0.0
N35 N 0.8242 1.00507 0.26152 0.0
H36 H 0.55172 0.77411 0.3594 0.0
H37 H 0.49159 0.79293 0.17471 0.0
H38 H 0.4814 0.72535 0.33033 0.0
H39 H 0.53975 0.79149 0.10811 0.0
C40 C 0.54225 0.80951 0.14451 0.0
C41 C 0.53248 0.77015 0.32989 0.0
C42 C 0.51677 0.74838 0.35583 0.0
C43 C 0.52338 0.78625 0.26359 0.0
C44 C 0.49859 0.78054 0.22499 0.0
C45 C 0.48333 0.75859 0.248 0.0
C46 C 0.49244 0.74303 0.31418 0.0
N47 N 0.53933 0.80726 0.23159 0.0
H48 H 0.28069 0.50427 0.04548 0.0
H49 H 0.30063 0.55743 0.24672 0.0
H50 H 0.22486 0.56328 0.11882 0.0
H51 H 0.34383 0.55268 0.13927 0.0
C52 C 0.34303 0.53355 0.16957 0.0
C53 C 0.27558 0.52073 0.08466 0.0
C54 C 0.25078 0.53344 0.07303 0.0
C55 C 0.29408 0.53004 0.1459 0.0
C56 C 0.28696 0.551 0.1976 0.0
C57 C 0.262 0.56294 0.18875 0.0
C58 C 0.2444 0.55444 0.12525 0.0
N59 N 0.31938 0.51787 0.15858 0.0
H60 H 1.01734 0.2828 0.03681 0.0
H61 H 0.08112 0.29843 0.21434 0.0
H62 H 0.08313 0.22969 0.05831 0.0
H63 H 0.03369 0.30119 0.28293 0.0
C64 C 0.03209 0.31914 0.24641 0.0
C65 C 0.03684 0.27813 0.06265 0.0
C66 C 0.05 0.25489 0.03697 0.0
C67 C 0.04848 0.29438 0.12602 0.0
C68 C 0.07284 0.28682 0.16336 0.0
C69 C 0.08516 0.26312 0.14155 0.0
C70 C 0.07442 0.24848 0.07467 0.0
N71 N 0.03477 0.31661 0.15917 0.0
H72 H 0.286 0.04467 0.08233 0.0
H73 H 0.26014 0.98168 0.24031 0.0
H74 H 0.33168 0.97329 0.10428 0.0
H75 H 0.21705 1.00086 0.15224 0.0
C76 C 0.22167 0.01721 0.19418 0.0
C77 C 0.28871 0.02504 0.10753 0.0
C78 C 0.31066 1.00951 0.0834 0.0
C79 C 0.26984 0.01459 0.16285 0.0
C80 C 0.27394 0.98931 0.19597 0.0
C81 C 0.29635 0.97448 0.17663 0.0
C82 C 0.31407 0.98444 0.11875 0.0
N83 N 0.24741 0.02948 0.18911 0.0
H84 H 0.5199 0.27202 0.06549 0.0
H85 H 0.57841 0.26088 0.26204 0.0
H86 H 0.57943 0.33192 0.11905 0.0
H87 H 0.57456 0.2181 0.21428 0.0
C88 C 0.55302 0.21652 0.21782 0.0
C89 C 0.53726 0.27884 0.1009 0.0
C90 C 0.549 0.30374 0.08326 0.0
C91 C 0.54845 0.26261 0.1638 0.0
C92 C 0.57044 0.27234 0.21102 0.0
C93 C 0.58182 0.29714 0.19511 0.0
C94 C 0.57123 0.31237 0.13035 0.0
N95 N 0.53717 0.23717 0.18213 0.0
Eu96 Eu 1.01204 0.03559 0.63767 0.0
Eu97 Eu 0.0517 0.01462 0.77727 0.0
C98 C 0.03803 0.0761 0.77342 0.0
C99 C 1.00838 0.07805 0.46624 0.0
C100 C 0.03478 0.08101 0.49558 0.0
C101 C 1.01691 0.11166 0.36361 0.0
C102 C 0.05193 0.09915 0.46115 0.0
C103 C 0.99947 0.09325 0.39907 0.0
C104 C 0.04312 0.11499 0.39594 0.0
C105 C 0.99136 0.05938 0.5106 0.0
O106 O 1.01063 1.00431 0.82409 0.0
O107 O 0.98421 0.03184 0.74563 0.0
C108 C 0.98779 0.01645 0.81043 0.0
O109 O 1.00104 0.99198 0.63843 0.0
O110 O 0.06382 1.00635 0.90464 0.0
O111 O 0.08939 0.99503 0.80614 0.0
O112 O 0.04107 0.97901 0.69447 0.0
C113 C 0.01853 0.97329 0.65422 0.0
O114 O 0.05074 0.02279 0.58072 0.0
O115 O 0.07843 0.03493 0.68563 0.0
O116 O 0.04283 0.05603 0.82237 0.0
O117 O 0.99926 0.03491 0.50768 0.0
O118 O 0.9865 0.06661 0.58588 0.0
O119 O 0.03287 0.07185 0.69479 0.0
C120 C 0.07841 0.96255 0.90343 0.0
C121 C 0.07791 0.94318 0.84063 0.0
C122 C 0.05146 0.93366 0.98632 0.0
C123 C 0.06266 0.92019 0.84841 0.0
C124 C 0.06676 0.95662 0.97866 0.0
C125 C 0.04793 0.91618 0.91924 0.0
C126 C 0.08267 0.99054 0.88182 0.0
C127 C 0.07462 0.03008 0.60689 0.0
H128 H 0.04215 0.06965 0.5469 0.0
H129 H 1.00974 0.12388 0.31317 0.0
H130 H 0.07205 0.10113 0.48665 0.0
H131 H 0.97917 0.09127 0.37535 0.0
H132 H 0.08694 0.9469 0.782 0.0
H133 H 0.04103 0.93041 0.04291 0.0
H134 H 0.06066 0.90673 0.79647 0.0
H135 H 0.06703 0.97104 0.02825 0.0
Eu136 Eu 0.54391 0.03747 0.76615 0.0
Eu137 Eu 0.51866 0.99992 0.62298 0.0
C138 C 0.53608 0.97494 0.79506 0.0
C139 C 0.59885 0.05214 0.90063 0.0
C140 C 0.61666 0.04828 0.83634 0.0
C141 C 0.62414 0.02093 0.98376 0.0
C142 C 0.63673 0.02954 0.84358 0.0
C143 C 0.60376 0.03942 0.97603 0.0
C144 C 0.63988 0.01474 0.91604 0.0
C145 C 0.57169 0.06133 0.88021 0.0
O146 O 0.48188 1.01139 0.69457 0.0
O147 O 0.50074 0.03529 0.80296 0.0
C148 C 0.47982 0.02433 0.76505 0.0
O149 O 0.52444 0.06644 0.67874 0.0
O150 O 0.51951 0.96244 0.55653 0.0
O151 O 0.49237 0.9932 0.51564 0.0
O152 O 0.52565 0.04013 0.56408 0.0
C153 C 0.52374 0.06368 0.59825 0.0
O154 O 0.57683 0.03369 0.67379 0.0
O155 O 0.56361 0.99474 0.61433 0.0
O156 O 0.51712 0.97531 0.73804 0.0
O157 O 0.56807 0.07156 0.80709 0.0
O158 O 0.55306 0.04414 0.89685 0.0
O159 O 0.55301 0.99486 0.80199 0.0
C160 C 0.47874 0.94907 0.49385 0.0
C161 C 0.47127 0.94144 0.4137 0.0
C162 C 0.44223 0.92294 0.5465 0.0
C163 C 0.44883 0.92547 0.3995 0.0
C164 C 0.46467 0.93913 0.56056 0.0
C165 C 0.4334 0.91677 0.46549 0.0
C166 C 0.50002 0.9688 0.50587 0.0
C167 C 0.58207 0.01297 0.62842 0.0
H168 H 0.61365 0.05783 0.77731 0.0
H169 H 0.62679 1.01066 0.04177 0.0
H170 H 0.64857 0.02554 0.79036 0.0
H171 H 0.59034 0.04197 0.02646 0.0
H172 H 0.48202 0.94893 0.36164 0.0
H173 H 0.43107 0.91636 0.5988 0.0
H174 H 0.4426 0.92168 0.33617 0.0
H175 H 0.47039 0.94476 0.6231 0.0
Eu176 Eu 0.50168 0.53295 0.77933 0.0
Eu177 Eu 0.55186 0.51878 0.66524 0.0
C178 C 0.56123 0.53412 0.85601 0.0
C179 C 0.44774 0.57056 0.88656 0.0
C180 C 0.45971 0.59452 0.86446 0.0
C181 C 0.41325 0.59473 0.95547 0.0
C182 C 0.44879 0.61845 0.88866 0.0
C183 C 0.42426 0.57071 0.93106 0.0
C184 C 0.42561 0.61888 0.93542 0.0
C185 C 0.45971 0.54553 0.86236 0.0
O186 O 0.5374 0.47854 0.70953 0.0
O187 O 0.51218 0.49135 0.81851 0.0
C188 C 0.5245 0.47293 0.77707 0.0
O189 O 0.48578 0.51003 0.66845 0.0
O190 O 0.59443 0.52086 0.64072 0.0
O191 O 0.56707 0.50156 0.55349 0.0
O192 O 0.51598 0.52606 0.58041 0.0
C193 C 0.4921 0.51653 0.59351 0.0
O194 O 0.50857 0.57032 0.70486 0.0
O195 O 0.5513 0.5636 0.6636 0.0
O196 O 0.56755 0.51771 0.79702 0.0
O197 O 0.45921 0.54088 0.78347 0.0
O198 O 0.48284 0.54025 0.89674 0.0
O199 O 0.53861 0.54708 0.85163 0.0
C200 C 0.60986 0.48399 0.56721 0.0
C201 C 0.60361 0.45999 0.60527 0.0
C202 C 0.64543 0.46248 0.4956 0.0
C203 C 0.61723 0.43705 0.58518 0.0
C204 C 0.63154 0.48541 0.51512 0.0
C205 C 0.63747 0.43777 0.5269 0.0
C206 C 0.59194 0.50655 0.57391 0.0
C207 C 0.53057 0.57904 0.67144 0.0
H208 H 0.47784 0.59469 0.82987 0.0
H209 H 0.39537 0.59439 0.99116 0.0
H210 H 0.45926 0.63655 0.87371 0.0
H211 H 0.41468 0.55228 0.94786 0.0
H212 H 0.587 0.45866 0.64619 0.0
H213 H 0.66129 0.46388 0.45202 0.0
H214 H 0.61026 0.4185 0.6102 0.0
H215 H 0.63677 0.50392 0.48597 0.0
Eu216 Eu 0.02878 0.54486 0.65925 0.0
Eu217 Eu 1.01345 0.5035 0.80297 0.0
C218 C 0.07451 0.51748 0.77687 0.0
C219 C 0.07012 0.59409 0.54051 0.0
C220 C 0.08924 0.59624 0.60496 0.0
C221 C 0.10138 0.61365 0.44722 0.0
C222 C 0.11462 0.60641 0.59 0.0
C223 C 0.07603 0.6036 0.46238 0.0
C224 C 0.12129 0.61432 0.51015 0.0
C225 C 0.04528 0.57925 0.55149 0.0
O226 O 0.02199 0.54271 0.8672 0.0
O227 O 1.01099 0.56983 0.76066 0.0
C228 C 1.01501 0.56607 0.84002 0.0
O229 O 0.98523 0.53777 0.63048 0.0
O230 O 0.01922 0.48879 0.92856 0.0
O231 O 0.98689 0.47325 0.85133 0.0
O232 O 0.97396 0.52049 0.75536 0.0
C233 C 0.96721 0.53018 0.68257 0.0
O234 O 0.02908 0.5048 0.59305 0.0
O235 O 1.01765 0.47576 0.69541 0.0
O236 O 0.05778 0.49814 0.79261 0.0
O237 O 0.0471 0.55374 0.54241 0.0
O238 O 0.03146 0.58555 0.61508 0.0
O239 O 0.06629 0.53898 0.73877 0.0
C240 C 0.97598 0.48847 0.98138 0.0
C241 C 0.97925 0.51478 1.00885 0.0
C242 C 0.92891 0.49099 1.00972 0.0
C243 C 0.95735 0.5295 0.03146 0.0
C244 C 0.95086 0.47631 0.98593 0.0
C245 C 0.93173 0.51812 0.02859 0.0
C246 C 0.99584 0.47725 0.92661 0.0
C247 C 0.02387 0.48059 0.61878 0.0
H248 H 0.08496 0.58893 0.66582 0.0
H249 H 0.10583 0.61911 0.38467 0.0
H250 H 0.12935 0.60692 0.64002 0.0
H251 H 0.0615 0.60194 0.41193 0.0
H252 H 0.99831 0.52487 1.00602 0.0
H253 H 0.90955 0.48137 1.00959 0.0
H254 H 0.96039 0.55029 0.04555 0.0
H255 H 0.9478 0.45613 0.96463 0.0
H256 H 0.22661 0.04404 0.34568 0.0
H257 H 0.07145 0.0212 0.44085 0.0
H258 H 0.16943 1.0047 0.18344 0.0
H259 H 0.12862 0.04205 0.63412 0.0
H260 H 0.10704 0.02118 0.34247 0.0
H261 H 0.19135 0.04938 0.44793 0.0
C262 C 0.20662 0.03694 0.33094 0.0
C263 C 0.20096 0.02403 0.25539 0.0
C264 C 0.11197 0.02579 0.40629 0.0
C265 C 0.16059 0.02996 0.37209 0.0
C266 C 0.09151 0.02582 0.46298 0.0
C267 C 0.09684 0.03136 0.54679 0.0
C268 C 0.13836 0.03148 0.43236 0.0
C269 C 0.12345 0.03748 0.57046 0.0
C270 C 0.18655 0.03979 0.38959 0.0
C271 C 0.17476 0.01485 0.24048 0.0
N272 N 0.14318 0.03732 0.51376 0.0
N273 N 0.15575 0.01802 0.29768 0.0
H274 H 0.51028 0.18146 0.20093 0.0
H275 H 0.53742 0.11459 0.64189 0.0
H276 H 0.57401 0.20582 0.36829 0.0
H277 H 0.50957 0.06793 0.43317 0.0
H278 H 0.54064 0.15323 0.55209 0.0
H279 H 0.49973 0.14465 0.29526 0.0
C280 C 0.52159 0.17943 0.2583 0.0
C281 C 0.54292 0.19676 0.27733 0.0
C282 C 0.53357 0.13459 0.52612 0.0
C283 C 0.53097 0.15509 0.38504 0.0
C284 C 0.5316 0.1125 0.57744 0.0
C285 C 0.52333 0.08781 0.54521 0.0
C286 C 0.52673 0.13232 0.44187 0.0
C287 C 0.51622 0.08647 0.46074 0.0
C288 C 0.51576 0.15833 0.31158 0.0
C289 C 0.55733 0.19295 0.35161 0.0
N290 N 0.51804 0.10838 0.41205 0.0
N291 N 0.55104 0.17271 0.40275 0.0
H292 H 0.34526 0.49609 0.2944 0.0
H293 H 0.49501 0.5366 0.43704 0.0
H294 H 0.39232 0.55558 0.17484 0.0
H295 H 0.44178 0.4942 0.59453 0.0
H296 H 0.45973 0.53773 0.33008 0.0
H297 H 0.3824 0.48925 0.39444 0.0
C298 C 0.36352 0.5074 0.28842 0.0
C299 C 0.36574 0.52642 0.22609 0.0
C300 C 0.45578 0.52804 0.38786 0.0
C301 C 0.40823 0.51876 0.3402 0.0
C302 C 0.47601 0.52729 0.44901 0.0
C303 C 0.47145 0.51538 0.52541 0.0
C304 C 0.4307 0.51662 0.4024 0.0
C305 C 0.44626 0.5037 0.5369 0.0
C306 C 0.38464 0.50363 0.34582 0.0
C307 C 0.38977 0.54072 0.2219 0.0
N308 N 0.42688 0.50465 0.4763 0.0
N309 N 0.40998 0.53662 0.27789 0.0
H310 H 0.03557 0.37191 0.1928 0.0
H311 H 1.01585 0.42806 0.65225 0.0
H312 H 0.02245 0.32426 0.4075 0.0
H313 H 0.03372 0.48001 0.45059 0.0
H314 H 1.01676 0.39049 0.55883 0.0
H315 H 0.03331 0.41209 0.28013 0.0
C316 C 0.03197 0.36988 0.25787 0.0
C317 C 0.0291 0.3446 0.29278 0.0
C318 C 0.02051 0.41004 0.53444 0.0
C319 C 0.02668 0.39039 0.39307 0.0
C320 C 0.02 0.4317 0.58821 0.0
C321 C 0.02476 0.45754 0.56001 0.0
C322 C 0.02579 0.41379 0.45069 0.0
C323 C 0.02998 0.46055 0.47562 0.0
C324 C 0.03081 0.39281 0.30782 0.0
C325 C 0.02473 0.34325 0.37768 0.0
N326 N 0.03036 0.43901 0.42408 0.0
N327 N 0.02368 0.36559 0.42436 0.0
H328 H 0.84718 0.03025 0.12396 0.0
H329 H 0.98625 0.98168 0.93969 0.0
H330 H 0.8942 0.96582 0.21932 0.0
H331 H 0.93964 0.04299 0.82287 0.0
H332 H 0.95253 0.97706 0.04347 0.0
H333 H 0.8804 0.03709 0.0161 0.0
C334 C 0.86455 0.01775 0.12289 0.0
C335 C 0.86792 0.99748 0.18141 0.0
C336 C 0.94949 0.99154 0.99524 0.0
C337 C 0.90593 1.00502 0.05762 0.0
C338 C 0.96888 0.99419 0.93539 0.0
C339 C 0.96603 0.01276 0.87151 0.0
C340 C 0.92675 1.00763 0.9927 0.0
C341 C 0.9428 0.0283 0.87036 0.0
C342 C 0.88346 0.02155 0.06096 0.0
C343 C 0.89073 0.98173 0.17599 0.0
N344 N 0.92418 0.02545 0.92992 0.0
N345 N 0.90865 0.9858 0.11586 0.0
H346 H 0.53348 0.81524 0.98177 0.0
H347 H 0.5642 0.96999 0.94374 0.0
H348 H 0.55187 0.86165 0.1996 0.0
H349 H 0.51301 0.92607 0.77349 0.0
H350 H 0.5663 0.93074 0.03373 0.0
H351 H 0.53273 0.85555 0.90001 0.0
C352 C 0.53746 0.834 0.01253 0.0
C353 C 0.54262 0.83498 0.09787 0.0
C354 C 0.55459 0.92983 0.97672 0.0
C355 C 0.54204 0.88168 1.00351 0.0
C356 C 0.55349 0.95215 0.92504 0.0
C357 C 0.53839 0.95144 0.85057 0.0
C358 C 0.54096 0.90644 0.953 0.0
C359 C 0.52486 0.92773 0.83005 0.0
C360 C 0.53693 0.85707 0.96565 0.0
C361 C 0.54767 0.85995 0.13406 0.0
N362 N 0.52664 0.90631 0.88038 0.0
N363 N 0.5474 0.88235 0.0866 0.0
H364 H 0.69075 0.51824 0.22463 0.0
H365 H 0.55963 0.57094 0.98167 0.0
H366 H 0.65435 0.59336 0.27323 0.0
H367 H 0.60577 0.50518 0.89673 0.0
H368 H 0.59126 0.57651 0.09843 0.0
H369 H 0.65685 0.50997 0.11457 0.0
C370 C 0.67544 0.53281 0.21296 0.0
C371 C 0.67534 0.55652 0.25836 0.0
C372 C 0.59445 0.56082 0.0543 0.0
C373 C 0.63656 0.54728 0.13232 0.0
C374 C 0.57633 0.55761 0.98752 0.0
C375 C 0.57999 0.53765 0.9286 0.0
C376 C 0.61638 0.54381 0.06317 0.0
C377 C 0.60212 0.52098 0.94002 0.0
C378 C 0.65619 0.52818 0.14977 0.0
C379 C 0.65516 0.5748 0.23984 0.0
N380 N 0.61937 0.52441 1.00571 0.0
N381 N 0.63667 0.56984 0.17858 0.0
H382 H 0.02404 0.6777 0.25903 0.0
H383 H 0.98679 0.61215 0.81867 0.0
H384 H 0.95022 0.69229 0.12603 0.0
H385 H 0.03472 0.5706 0.99979 0.0
H386 H 0.97966 0.64726 0.92038 0.0
H387 H 0.03477 0.64379 0.15478 0.0
C388 C 1.01029 0.67403 0.20758 0.0
C389 C 0.98618 0.68787 0.2013 0.0
C390 C 0.99185 0.63051 0.93774 0.0
C391 C 0.99843 0.64949 0.0815 0.0
C392 C 0.99602 0.61046 0.87951 0.0
C393 C 1.01133 0.58822 0.90035 0.0
C394 C 1.00352 0.62878 0.01738 0.0
C395 C 0.02265 0.58725 0.98078 0.0
C396 C 1.01632 0.6546 0.14842 0.0
C397 C 0.96899 0.68209 0.13354 0.0
N398 N 0.01866 0.60722 0.03601 0.0
N399 N 0.97548 0.66361 0.07641 0.0
H400 H 0.12705 0.22899 0.11325 0.0
H401 H 0.05863 0.12457 0.23859 0.0
H402 H 0.08375 0.264 0.31084 0.0
H403 H 0.06867 0.15262 0.48872 0.0
H404 H 0.08757 0.16076 0.19351 0.0
H405 H 0.12871 0.18744 0.18985 0.0
C406 C 0.119 0.22843 0.17438 0.0
C407 C 0.1028 0.24905 0.20191 0.0
C408 C 0.08417 0.15847 0.25863 0.0
C409 C 0.10533 0.20237 0.28985 0.0
C410 C 0.0672 0.13822 0.28385 0.0
C411 C 0.06109 0.13599 0.36699 0.0
C412 C 0.09455 0.17681 0.31696 0.0
C413 C 0.07287 0.15389 0.42383 0.0
C414 C 0.11971 0.2046 0.21746 0.0
C415 C 0.09477 0.24799 0.28401 0.0
N416 N 0.08853 0.17398 0.3975 0.0
N417 N 0.09507 0.2245 0.32398 0.0
H418 H 0.31871 0.92788 0.12459 0.0
H419 H 0.38795 0.92631 0.55049 0.0
H420 H 0.29123 0.96717 0.34228 0.0
H421 H 0.4157 0.88333 0.33984 0.0
H422 H 0.34319 0.92465 0.49148 0.0
H423 H 0.34355 0.89708 0.21245 0.0
C424 C 0.31734 0.92962 0.19081 0.0
C425 C 0.30377 0.95084 0.22601 0.0
C426 C 0.35889 0.91494 0.45882 0.0
C427 C 0.33219 0.9158 0.32683 0.0
C428 C 0.38464 0.91565 0.49312 0.0
C429 C 0.40604 0.90624 0.4479 0.0
C430 C 0.35472 0.90552 0.37792 0.0
C431 C 0.40004 0.89225 0.37463 0.0
C432 C 0.3314 0.91192 0.24104 0.0
C433 C 0.30182 0.95151 0.31205 0.0
N434 N 0.3751 0.8932 0.34023 0.0
N435 N 0.31648 0.93473 0.35946 0.0
H436 H 0.58503 0.29479 0.36355 0.0
H437 H 0.64596 0.38881 0.59826 0.0
H438 H 0.62595 0.32643 0.15512 0.0
H439 H 0.64798 0.42911 0.36446 0.0
H440 H 0.64453 0.34648 0.52479 0.0
H441 H 0.61224 0.32277 0.45439 0.0
C442 C 0.60045 0.30691 0.33699 0.0
C443 C 0.60274 0.30873 0.25127 0.0
C444 C 0.64562 0.36461 0.48977 0.0
C445 C 0.63408 0.34118 0.35545 0.0
C446 C 0.64657 0.38881 0.53167 0.0
C447 C 0.64593 0.41269 0.48756 0.0
C448 C 0.64386 0.36442 0.4033 0.0
C449 C 0.648 0.41138 0.40156 0.0
C450 C 0.61616 0.32295 0.38927 0.0
C451 C 0.62294 0.32503 0.22068 0.0
N452 N 0.64627 0.38768 0.36226 0.0
N453 N 0.63733 0.34116 0.27253 0.0
H454 H 0.26688 0.55888 0.35613 0.0
H455 H 0.14163 0.65026 0.40058 0.0
H456 H 0.23485 0.60926 0.16446 0.0
H457 H 0.16551 0.5885 0.56942 0.0
H458 H 0.18517 0.64772 0.33764 0.0
H459 H 0.2404 0.58231 0.45617 0.0
C460 C 0.25495 0.57546 0.33547 0.0
C461 C 0.25248 0.5817 0.25153 0.0
C462 C 0.18108 0.63524 0.3899 0.0
C463 C 0.22168 0.60814 0.3653 0.0
C464 C 0.1562 0.63659 0.42569 0.0
C465 C 0.14952 0.61896 0.48865 0.0
C466 C 0.19934 0.61607 0.41721 0.0
C467 C 0.16953 0.60232 0.52049 0.0
C468 C 0.23967 0.58872 0.39259 0.0
C469 C 0.23671 0.60336 0.22836 0.0
N470 N 0.1933 0.60087 0.48322 0.0
N471 N 0.22142 0.61544 0.28465 0.0
H472 H 0.9387 0.83075 0.16464 0.0
H473 H 0.05174 0.86445 0.86925 0.0
H474 H 0.99628 0.77558 0.0748 0.0
H475 H 0.99704 0.92039 0.97032 0.0
H476 H 0.01986 0.82883 0.89523 0.0
H477 H 0.94646 0.85878 0.04553 0.0
C478 C 0.95234 0.82413 0.11857 0.0
C479 C 0.96789 0.80155 0.13182 0.0
C480 C 1.01457 0.84897 0.9102 0.0
C481 C 0.9772 0.83355 0.99691 0.0
C482 C 0.03283 0.86926 0.89571 0.0
C483 C 0.02749 0.89508 0.92167 0.0
C484 C 0.99113 0.85465 0.95197 0.0
C485 C 1.00245 0.90043 0.95348 0.0
C486 C 0.95675 0.84009 0.05046 0.0
C487 C 0.98441 0.79325 0.06859 0.0
N488 N 0.98542 0.88029 0.96955 0.0
N489 N 0.9893 0.80971 1.0051 0.0
H490 H 0.72852 0.91989 0.19706 0.0
H491 H 0.68905 1.01161 0.84627 0.0
H492 H 0.78139 0.96778 0.05322 0.0
H493 H 0.63446 0.96685 0.99345 0.0
H494 H 0.72307 0.97887 0.87502 0.0
H495 H 0.69729 0.91795 0.07942 0.0
C496 C 0.73404 0.92929 0.14016 0.0
C497 C 0.75649 0.94608 0.13778 0.0
C498 C 0.70349 0.97586 0.89984 0.0
C499 C 0.72112 0.94377 1.00348 0.0
C500 C 0.68398 0.99468 0.88351 0.0
C501 C 0.65924 0.99276 0.92109 0.0
C502 C 0.69855 0.95556 0.95648 0.0
C503 C 0.65381 0.97 0.9673 0.0
C504 C 0.71621 0.92807 0.07271 0.0
C505 C 0.7636 0.95591 0.0605 0.0
N506 N 0.67356 0.95268 0.98572 0.0
N507 N 0.74547 0.95546 0.9972 0.0
H508 H 0.47741 0.761 0.07954 0.0
H509 H 0.40758 0.62802 0.09061 0.0
H510 H 0.43679 0.7341 0.29504 0.0
H511 H 0.4238 0.66792 0.86273 0.0
H512 H 0.40688 0.67062 0.16031 0.0
H513 H 0.44776 0.73381 0.99424 0.0
C514 C 0.46172 0.75009 0.10914 0.0
C515 C 0.46039 0.74909 0.19536 0.0
C516 C 0.40984 0.67021 0.09455 0.0
C517 C 0.42693 0.71683 0.09735 0.0
C518 C 0.41013 0.64577 0.05444 0.0
C519 C 0.41682 0.6443 0.97126 0.0
C520 C 0.4169 0.69319 0.05154 0.0
C521 C 0.41973 0.66808 0.92782 0.0
C522 C 0.44478 0.73431 0.05999 0.0
C523 C 0.43942 0.73451 0.22916 0.0
N524 N 0.42056 0.69151 0.96895 0.0
N525 N 0.42407 0.71825 0.18036 0.0
H526 H 0.77599 0.54822 0.13519 0.0
H527 H 0.92665 0.56016 0.1347 0.0
H528 H 0.81867 0.61295 0.25382 0.0
H529 H 0.88293 0.51498 0.94821 0.0
H530 H 0.88701 0.58587 0.15811 0.0
H531 H 0.81196 0.54362 0.03945 0.0
C532 C 0.79234 0.56235 0.13865 0.0
C533 C 0.79503 0.5802 0.20477 0.0
C534 C 0.88614 0.57065 0.11098 0.0
C535 C 0.83668 0.57429 0.098 0.0
C536 C 0.90884 0.55581 0.0978 0.0
C537 C 0.90803 0.53483 0.04091 0.0
C538 C 0.8622 0.56409 0.06851 0.0
C539 C 0.88423 0.53023 0.99517 0.0
C540 C 0.81312 0.55951 0.08439 0.0
C541 C 0.81645 0.59822 0.20544 0.0
N542 N 0.86212 0.54438 1.01114 0.0
N543 N 0.83706 0.59414 0.15497 0.0
H544 H 1.01733 0.21501 0.08442 0.0
H545 H 0.04234 0.12322 0.6892 0.0
H546 H 0.05862 0.24396 0.87409 0.0
H547 H 0.03233 0.09257 0.93381 0.0
H548 H 0.04011 0.16845 0.74499 0.0
H549 H 1.01266 0.17153 0.01734 0.0
C550 C 0.02421 0.21261 0.02224 0.0
C551 C 0.03766 0.23353 0.98392 0.0
C552 C 0.03838 0.15182 0.78638 0.0
C553 C 0.03338 0.1832 0.90765 0.0
C554 C 0.03971 0.12593 0.75464 0.0
C555 C 0.03778 0.10385 0.80684 0.0
C556 C 0.03445 0.15587 0.87088 0.0
C557 C 0.03423 0.10883 0.89113 0.0
C558 C 0.02208 0.18757 0.9847 0.0
C559 C 0.04737 0.22873 0.90487 0.0
N560 N 0.03253 0.13415 0.92022 0.0
N561 N 0.04516 0.20414 0.86959 0.0
H562 H 0.31897 0.99014 0.92941 0.0
H563 H 0.46666 0.05183 0.90525 0.0
H564 H 0.35101 0.04658 0.10574 0.0
H565 H 0.43184 1.00006 0.71895 0.0
H566 H 0.42408 0.05211 0.97499 0.0
H567 H 0.35872 0.99602 0.84685 0.0
C568 C 0.33404 1.00443 0.94943 0.0
C569 C 0.33124 0.01836 0.0238 0.0
C570 C 0.42564 0.04081 0.91858 0.0
C571 C 0.37777 0.02444 0.93076 0.0
C572 C 0.45008 0.0406 0.87843 0.0
C573 C 0.45319 0.02585 0.80553 0.0
C574 C 0.40381 0.02604 0.88649 0.0
C575 C 0.43066 1.01178 0.77461 0.0
C576 C 0.35695 1.00757 0.90268 0.0
C577 C 0.35193 0.03594 0.04794 0.0
N578 N 0.40717 1.01211 0.81526 0.0
N579 N 0.37431 0.03829 1.00216 0.0
H580 H 0.50438 0.3344 0.08826 0.0
H581 H 0.55378 0.43004 0.72664 0.0
H582 H 0.57159 0.31763 0.93887 0.0
H583 H 0.49554 0.45235 0.90357 0.0
H584 H 0.55572 0.38591 0.78869 0.0
H585 H 0.49541 0.37406 1.00495 0.0
C586 C 0.5166 0.33851 0.03587 0.0
C587 C 0.53843 0.32238 0.01945 0.0
C588 C 0.54236 0.4004 0.81356 0.0
C589 C 0.52896 0.36833 0.92544 0.0
C590 C 0.54121 0.42568 0.77798 0.0
C591 C 0.52459 0.44523 0.80994 0.0
C592 C 0.52666 0.39436 0.88153 0.0
C593 C 0.50881 0.43814 0.87685 0.0
C594 C 0.51177 0.36139 0.98907 0.0
C595 C 0.55425 0.32923 0.95261 0.0
N596 N 0.51029 0.41346 0.91033 0.0
N597 N 0.54934 0.35169 0.90859 0.0
H598 H 0.23517 0.56092 0.93695 0.0
H599 H 0.09815 0.47927 0.8749 0.0
H600 H 0.21812 0.48946 0.06948 0.0
H601 H 0.11565 0.55261 0.75157 0.0
H602 H 0.14361 0.47945 0.93424 0.0
H603 H 0.19399 0.55452 0.85459 0.0
C604 C 0.22312 0.54338 0.94675 0.0
C605 C 0.23033 0.52544 1.00911 0.0
C606 C 0.13757 0.49538 0.89366 0.0
C607 C 0.18234 0.51845 0.91717 0.0
C608 C 0.11155 0.4953 0.85954 0.0
C609 C 0.10279 0.51605 0.80827 0.0
C610 C 0.15517 0.51635 0.87652 0.0
C611 C 0.12127 0.53624 0.79098 0.0
C612 C 0.1994 0.53988 0.90043 0.0
C613 C 0.21358 0.50345 0.02088 0.0
N614 N 0.14638 0.53593 0.82522 0.0
N615 N 0.19025 0.50071 0.97605 0.0
H616 H 0.94919 0.83185 0.42139 0.0
H617 H 0.05341 0.9313 0.65151 0.0
H618 H 0.03308 0.81553 0.44185 0.0
H619 H 0.97263 0.95162 0.5827 0.0
H620 H 0.04567 0.88683 0.59348 0.0
H621 H 0.95659 0.87264 0.50063 0.0
C622 C 0.96914 0.8365 0.44454 0.0
C623 C 0.99048 0.81994 0.42518 0.0
C624 C 0.0296 0.90096 0.59138 0.0
C625 C 0.99934 0.86753 0.51521 0.0
C626 C 0.03396 0.92645 0.62483 0.0
C627 C 1.01368 0.94557 0.62219 0.0
C628 C 1.00466 0.89417 0.55525 0.0
C629 C 0.98897 0.93783 0.5862 0.0
C630 C 0.97342 0.86004 0.48914 0.0
C631 C 1.01595 0.82736 0.45614 0.0
N632 N 0.98522 0.91293 0.55443 0.0
N633 N 0.0197 0.85064 0.49889 0.0
H634 H 0.72794 0.95112 0.42732 0.0
H635 H 0.62125 0.05129 0.61053 0.0
H636 H 0.73301 0.03482 0.38 0.0
H637 H 0.60531 0.96856 0.5632 0.0
H638 H 0.66516 0.04648 0.54872 0.0
H639 H 0.68716 0.95816 0.50231 0.0
C640 C 0.72076 0.97115 0.43398 0.0
C641 C 0.73413 0.99236 0.39641 0.0
C642 C 0.65206 0.0294 0.552 0.0
C643 C 0.68665 1.0006 0.48311 0.0
C644 C 0.62693 0.03207 0.58754 0.0
C645 C 0.60922 1.01031 0.59213 0.0
C646 C 0.66002 1.00463 0.52205 0.0
C647 C 0.61798 0.98597 0.56094 0.0
C648 C 0.69724 0.9751 0.47644 0.0
C649 C 0.72366 0.01785 0.40806 0.0
N650 N 0.64261 0.98381 0.52797 0.0
N651 N 0.70052 0.02123 0.44983 0.0
H652 H 0.56106 0.71641 0.36182 0.0
H653 H 0.49404 0.61895 0.68753 0.0
H654 H 0.4904 0.73469 0.49385 0.0
H655 H 0.56904 0.60226 0.57626 0.0
H656 H 0.49436 0.66268 0.62374 0.0
H657 H 0.56704 0.67666 0.44757 0.0
C658 C 0.54735 0.71258 0.41071 0.0
C659 C 0.52533 0.72909 0.42105 0.0
C660 C 0.51089 0.64958 0.61362 0.0
C661 C 0.53145 0.68306 0.51771 0.0
C662 C 0.5107 0.62446 0.65014 0.0
C663 C 0.5315 0.60661 0.63742 0.0
C664 C 0.53192 0.65713 0.56295 0.0
C665 C 0.55253 0.6152 0.58814 0.0
C666 C 0.55053 0.68966 0.45899 0.0
C667 C 0.50776 0.72266 0.48405 0.0
N668 N 0.5521 0.63964 0.55235 0.0
N669 N 0.51102 0.70015 0.52901 0.0
H670 H 0.81732 0.59433 0.50752 0.0
H671 H 0.92393 0.49936 0.72464 0.0
H672 H 0.80601 0.5099 0.48913 0.0
H673 H 0.94491 0.5688 0.58657 0.0
H674 H 0.87697 0.50491 0.6784 0.0
H675 H 0.85967 0.58739 0.58213 0.0
C676 C 0.82326 0.57429 0.52206 0.0
C677 C 0.80796 0.55268 0.49208 0.0
C678 C 0.89192 0.51893 0.65882 0.0
C679 C 0.85689 0.54458 0.5769 0.0
C680 C 0.91866 0.51587 0.68531 0.0
C681 C 0.93847 0.53357 0.65905 0.0
C682 C 0.88482 0.54036 0.60809 0.0
C683 C 0.93045 0.55456 0.60787 0.0
C684 C 0.84763 0.57036 0.56366 0.0
C685 C 0.81695 0.52712 0.51185 0.0
N686 N 0.90435 0.55747 0.5848 0.0
N687 N 0.84098 0.52374 0.55237 0.0
loop_
_geom_bond_atom_site_label_1
_geom_bond_atom_site_label_2
_geom_bond_distance
_geom_bond_site_symmetry_2
_ccdc_geom_bond_type
H0 C5 0.930 . S
H1 C8 0.930 . S
H2 C10 0.930 . S
H3 C4 1.016 . S
C4 H3 1.016 . S
C4 N11 1.286 . S
C5 H0 0.930 . S
C5 C6 1.397 . S
C5 C7 1.361 . S
C6 C5 1.397 . S
C6 C10 1.390 . S
C7 C5 1.361 . S
C7 C8 1.393 . S
C7 N11 1.413 . S
C8 H1 0.930 . S
C8 C7 1.393 . S
C8 C9 1.399 . S
C9 C8 1.399 . S
C9 C10 1.381 . S
C10 H2 0.930 . S
C10 C6 1.390 . S
C10 C9 1.381 . S
N11 C4 1.286 . S
N11 C7 1.413 . S
H12 C17 0.930 . S
H13 C20 0.930 . S
H14 C22 0.930 . S
H15 C16 1.016 . S
C16 H15 1.016 . S
C16 N23 1.286 . S
C17 H12 0.930 . S
C17 C18 1.397 . S
C17 C19 1.361 . S
C18 C17 1.397 . S
C18 C22 1.390 . S
C19 C17 1.361 . S
C19 C20 1.393 . S
C19 N23 1.413 . S
C20 H13 0.930 . S
C20 C19 1.393 . S
C20 C21 1.399 . S
C21 C20 1.399 . S
C21 C22 1.381 . S
C22 H14 0.930 . S
C22 C18 1.390 . S
C22 C21 1.381 . S
N23 C16 1.286 . S
N23 C19 1.413 . S
H24 C29 0.930 . S
H25 C32 0.930 . S
H26 C34 0.930 . S
H27 C28 1.016 . S
C28 H27 1.016 . S
C28 N35 1.286 . S
C29 H24 0.930 . S
C29 C30 1.397 . S
C29 C31 1.361 . S
C30 C29 1.397 . S
C30 C34 1.390 . S
C31 C29 1.361 . S
C31 C32 1.393 . S
C31 N35 1.413 . S
C32 H25 0.930 . S
C32 C31 1.393 . S
C32 C33 1.399 . S
C33 C32 1.399 . S
C33 C34 1.381 . S
C34 H26 0.930 . S
C34 C30 1.390 . S
C34 C33 1.381 . S
N35 C28 1.286 . S
N35 C31 1.413 . S
H36 C41 0.930 . S
H37 C44 0.930 . S
H38 C46 0.930 . S
H39 C40 1.016 . S
C40 H39 1.016 . S
C40 N47 1.286 . S
C41 H36 0.930 . S
C41 C42 1.397 . S
C41 C43 1.361 . S
C42 C41 1.397 . S
C42 C46 1.390 . S
C43 C41 1.361 . S
C43 C44 1.393 . S
C43 N47 1.413 . S
C44 H37 0.930 . S
C44 C43 1.393 . S
C44 C45 1.399 . S
C45 C44 1.399 . S
C45 C46 1.381 . S
C46 H38 0.930 . S
C46 C42 1.390 . S
C46 C45 1.381 . S
N47 C40 1.286 . S
N47 C43 1.413 . S
H48 C53 0.930 1_556 S
H49 C56 0.930 . S
H50 C58 0.930 . S
H51 C52 1.016 . S
C52 H51 1.016 . S
C52 N59 1.286 . S
C53 H48 0.930 1_554 S
C53 C54 1.397 1_554 S
C53 C55 1.361 . S
C54 C53 1.397 1_556 S
C54 C58 1.389 1_556 S
C55 C53 1.361 . S
C55 C56 1.393 . S
C55 N59 1.413 . S
C56 H49 0.930 . S
C56 C55 1.393 . S
C56 C57 1.399 . S
C57 C56 1.399 . S
C57 C58 1.381 . S
C58 H50 0.930 . S
C58 C54 1.389 1_554 S
C58 C57 1.381 . S
N59 C52 1.286 . S
N59 C55 1.413 . S
H60 C65 0.930 . S
H61 C68 0.930 . S
H62 C70 0.930 . S
H63 C64 1.016 . S
C64 H63 1.016 . S
C64 N71 1.286 . S
C65 H60 0.930 . S
C65 C66 1.397 . S
C65 C67 1.361 1_556 S
C66 C65 1.397 . S
C66 C70 1.390 1_556 S
C67 C65 1.361 1_554 S
C67 C68 1.393 . S
C67 N71 1.413 . S
C68 H61 0.930 . S
C68 C67 1.393 . S
C68 C69 1.399 . S
C69 C68 1.399 . S
C69 C70 1.381 . S
C70 H62 0.930 . S
C70 C66 1.390 1_554 S
C70 C69 1.381 . S
N71 C64 1.286 . S
N71 C67 1.413 . S
H72 C77 0.930 . S
H73 C80 0.930 . S
H74 C82 0.930 1_556 S
H75 C76 1.016 . S
C76 H75 1.016 . S
C76 N83 1.286 . S
C77 H72 0.930 . S
C77 C78 1.397 . S
C77 C79 1.361 1_556 S
C78 C77 1.397 . S
C78 C82 1.390 1_556 S
C79 C77 1.361 1_554 S
C79 C80 1.393 . S
C79 N83 1.413 . S
C80 H73 0.930 . S
C80 C79 1.393 . S
C80 C81 1.399 . S
C81 C80 1.399 . S
C81 C82 1.381 . S
C82 H74 0.930 1_554 S
C82 C78 1.390 1_554 S
C82 C81 1.381 . S
N83 C76 1.286 . S
N83 C79 1.413 . S
H84 C89 0.920 1_556 S
H85 C92 0.930 . S
H86 C94 0.930 . S
H87 C88 1.016 . S
C88 H87 1.016 . S
C88 N95 1.286 . S
C89 H84 0.920 1_554 S
C89 C90 1.395 1_554 S
C89 C91 1.373 . S
C90 C89 1.395 1_556 S
C90 C94 1.390 1_556 S
C91 C89 1.373 . S
C91 C92 1.393 . S
C91 N95 1.413 . S
C92 H85 0.930 . S
C92 C91 1.393 . S
C92 C93 1.399 . S
C93 C92 1.399 . S
C93 C94 1.381 . S
C94 H86 0.930 . S
C94 C90 1.390 1_554 S
C94 C93 1.381 . S
N95 C88 1.286 . S
N95 C91 1.413 . S
Eu96 C105 2.828 . S
Eu96 O107 2.392 . S
Eu96 O109 2.418 1_545 S
Eu96 O114 2.373 1_655 S
Eu96 O117 2.488 . S
Eu96 O118 2.469 1_655 S
Eu96 O119 2.349 1_655 S
Eu97 O106 2.373 1_455 S
Eu97 O110 2.488 . S
Eu97 O111 2.471 . S
Eu97 O112 2.349 . S
Eu97 O115 2.392 1_565 S
Eu97 O116 2.418 1_565 S
Eu97 C126 2.828 . S
C98 O116 1.244 . S
C98 O119 1.265 . S
C99 C100 1.379 1_655 S
C99 C103 1.373 . S
C99 C105 1.505 . S
C100 C99 1.379 1_455 S
C100 C102 1.369 . S
C100 H128 0.930 . S
C101 C103 1.383 . S
C101 C104 1.382 1_655 S
C101 H129 0.930 . S
C102 C100 1.369 . S
C102 C104 1.392 . S
C102 H130 0.930 . S
C103 C99 1.373 . S
C103 C101 1.383 . S
C103 H131 0.931 . S
C104 C101 1.382 1_455 S
C104 C102 1.392 . S
C105 Eu96 2.828 . S
C105 C99 1.505 . S
C105 O117 1.249 . S
C105 O118 1.243 1_655 S
O106 Eu97 2.373 1_655 S
O106 C108 1.258 1_565 S
O107 Eu96 2.392 . S
O107 C108 1.242 . S
C108 O106 1.258 1_545 S
C108 O107 1.242 . S
O109 Eu96 2.418 1_565 S
O109 C113 1.244 . S
O110 Eu97 2.488 . S
O110 C126 1.249 . S
O111 Eu97 2.471 . S
O111 C126 1.244 . S
O112 Eu97 2.349 . S
O112 C113 1.265 1_455 S
C113 O109 1.244 . S
C113 O112 1.265 1_655 S
O114 Eu96 2.373 1_455 S
O114 C127 1.258 . S
O115 Eu97 2.392 1_545 S
O115 C127 1.242 . S
O116 Eu97 2.418 1_545 S
O116 C98 1.244 . S
O117 Eu96 2.488 . S
O117 C105 1.249 . S
O118 Eu96 2.469 1_455 S
O118 C105 1.243 1_455 S
O119 Eu96 2.349 1_455 S
O119 C98 1.265 . S
C120 C121 1.379 . S
C120 C124 1.373 1_556 S
C120 C126 1.505 . S
C121 C120 1.379 . S
C121 C123 1.369 1_556 S
C121 H132 0.930 1_455 S
C122 C124 1.383 . S
C122 C125 1.382 . S
C122 H133 0.930 . S
C123 C121 1.369 1_554 S
C123 C125 1.392 . S
C123 H134 0.930 1_455 S
C124 C120 1.373 1_554 S
C124 C122 1.383 . S
C124 H135 0.931 . S
C125 C122 1.382 . S
C125 C123 1.392 . S
C126 Eu97 2.828 . S
C126 O110 1.249 . S
C126 O111 1.244 . S
C126 C120 1.505 . S
C127 O114 1.258 . S
C127 O115 1.242 . S
H128 C100 0.930 . S
H129 C101 0.930 . S
H130 C102 0.930 . S
H131 C103 0.931 . S
H132 C121 0.930 1_655 S
H133 C122 0.930 . S
H134 C123 0.930 1_655 S
H135 C124 0.931 . S
Eu136 C145 2.828 . S
Eu136 O147 2.392 . S
Eu136 O149 2.418 . S
Eu136 O154 2.373 . S
Eu136 O157 2.488 . S
Eu136 O158 2.471 . S
Eu136 O159 2.349 1_545 S
Eu137 O146 2.373 1_565 S
Eu137 O150 2.488 . S
Eu137 O151 2.471 1_565 S
Eu137 O152 2.349 1_565 S
Eu137 O155 2.392 . S
Eu137 O156 2.418 . S
Eu137 C166 2.828 . S
C138 O156 1.244 . S
C138 O159 1.265 . S
C139 C140 1.379 . S
C139 C143 1.373 . S
C139 C145 1.505 . S
C140 C139 1.379 . S
C140 C142 1.369 . S
C140 H168 0.930 1_545 S
C141 C143 1.383 . S
C141 C144 1.382 1_556 S
C141 H169 0.930 . S
C142 C140 1.369 . S
C142 C144 1.392 1_556 S
C142 H170 0.930 1_546 S
C143 C139 1.373 . S
C143 C141 1.383 . S
C143 H171 0.931 . S
C144 C141 1.382 1_554 S
C144 C142 1.392 1_554 S
C145 Eu136 2.828 . S
C145 C139 1.505 . S
C145 O157 1.249 . S
C145 O158 1.244 . S
O146 Eu137 2.373 1_545 S
O146 C148 1.258 . S
O147 Eu136 2.392 . S
O147 C148 1.242 . S
C148 O146 1.258 . S
C148 O147 1.242 . S
O149 Eu136 2.418 . S
O149 C153 1.244 . S
O150 Eu137 2.488 . S
O150 C166 1.249 . S
O151 Eu137 2.471 1_545 S
O151 C166 1.244 1_545 S
O152 Eu137 2.349 1_545 S
O152 C153 1.265 . S
C153 O149 1.244 . S
C153 O152 1.265 . S
O154 Eu136 2.373 . S
O154 C167 1.258 1_545 S
O155 Eu137 2.392 . S
O155 C167 1.242 . S
O156 Eu137 2.418 . S
O156 C138 1.244 . S
O157 Eu136 2.488 . S
O157 C145 1.249 . S
O158 Eu136 2.471 . S
O158 C145 1.244 . S
O159 Eu136 2.349 1_565 S
O159 C138 1.265 . S
C160 C161 1.379 1_565 S
C160 C164 1.373 . S
C160 C166 1.505 . S
C161 C160 1.379 1_545 S
C161 C163 1.369 . S
C161 H172 0.930 . S
C162 C164 1.383 . S
C162 C165 1.382 . S
C162 H173 0.930 . S
C163 C161 1.369 . S
C163 C165 1.392 1_545 S
C163 H174 0.930 . S
C164 C160 1.373 . S
C164 C162 1.383 . S
C164 H175 0.931 . S
C165 C162 1.382 . S
C165 C163 1.392 1_565 S
C166 Eu137 2.828 . S
C166 O150 1.249 . S
C166 O151 1.244 1_565 S
C166 C160 1.505 . S
C167 O154 1.258 1_565 S
C167 O155 1.242 . S
H168 C140 0.930 1_565 S
H169 C141 0.930 . S
H170 C142 0.930 1_564 S
H171 C143 0.931 . S
H172 C161 0.930 . S
H173 C162 0.930 . S
H174 C163 0.930 . S
H175 C164 0.931 . S
Eu176 C185 2.828 . S
Eu176 O187 2.392 . S
Eu176 O189 2.418 . S
Eu176 O194 2.373 . S
Eu176 O197 2.488 . S
Eu176 O198 2.471 . S
Eu176 O199 2.349 . S
Eu177 O186 2.373 . S
Eu177 O190 2.488 . S
Eu177 O191 2.471 . S
Eu177 O192 2.349 . S
Eu177 O195 2.392 . S
Eu177 O196 2.418 . S
Eu177 C206 2.828 . S
C178 O196 1.244 . S
C178 O199 1.265 . S
C179 C180 1.379 . S
C179 C183 1.373 . S
C179 C185 1.505 . S
C180 C179 1.379 . S
C180 C182 1.369 . S
C180 H208 0.930 . S
C181 C183 1.383 . S
C181 C184 1.382 . S
C181 H209 0.930 . S
C182 C180 1.369 . S
C182 C184 1.392 . S
C182 H210 0.930 . S
C183 C179 1.373 . S
C183 C181 1.383 . S
C183 H211 0.931 . S
C184 C181 1.382 . S
C184 C182 1.392 . S
C185 Eu176 2.828 . S
C185 C179 1.505 . S
C185 O197 1.249 . S
C185 O198 1.244 . S
O186 Eu177 2.373 . S
O186 C188 1.258 . S
O187 Eu176 2.392 . S
O187 C188 1.242 . S
C188 O186 1.258 . S
C188 O187 1.242 . S
O189 Eu176 2.418 . S
O189 C193 1.244 . S
O190 Eu177 2.488 . S
O190 C206 1.249 . S
O191 Eu177 2.471 . S
O191 C206 1.244 . S
O192 Eu177 2.349 . S
O192 C193 1.265 . S
C193 O189 1.244 . S
C193 O192 1.265 . S
O194 Eu176 2.373 . S
O194 C207 1.258 . S
O195 Eu177 2.392 . S
O195 C207 1.242 . S
O196 Eu177 2.418 . S
O196 C178 1.244 . S
O197 Eu176 2.488 . S
O197 C185 1.249 . S
O198 Eu176 2.471 . S
O198 C185 1.244 . S
O199 Eu176 2.349 . S
O199 C178 1.265 . S
C200 C201 1.379 . S
C200 C204 1.373 . S
C200 C206 1.505 . S
C201 C200 1.379 . S
C201 C203 1.369 . S
C201 H212 0.930 . S
C202 C204 1.383 . S
C202 C205 1.382 . S
C202 H213 0.930 . S
C203 C201 1.369 . S
C203 C205 1.392 . S
C203 H214 0.930 . S
C204 C200 1.373 . S
C204 C202 1.383 . S
C204 H215 0.931 . S
C205 C202 1.382 . S
C205 C203 1.392 . S
C206 Eu177 2.828 . S
C206 O190 1.249 . S
C206 O191 1.244 . S
C206 C200 1.505 . S
C207 O194 1.258 . S
C207 O195 1.242 . S
H208 C180 0.930 . S
H209 C181 0.930 . S
H210 C182 0.930 . S
H211 C183 0.931 . S
H212 C201 0.930 . S
H213 C202 0.930 . S
H214 C203 0.930 . S
H215 C204 0.931 . S
Eu216 C225 2.828 . S
Eu216 O227 2.392 . S
Eu216 O229 2.418 1_455 S
Eu216 O234 2.373 . S
Eu216 O237 2.488 . S
Eu216 O238 2.471 . S
Eu216 O239 2.349 . S
Eu217 O226 2.373 . S
Eu217 O230 2.488 . S
Eu217 O231 2.471 . S
Eu217 O232 2.349 . S
Eu217 O235 2.392 1_655 S
Eu217 O236 2.418 1_655 S
Eu217 C246 2.828 . S
C218 O236 1.244 . S
C218 O239 1.265 . S
C219 C220 1.379 . S
C219 C223 1.373 . S
C219 C225 1.505 . S
C220 C219 1.379 . S
C220 C222 1.369 . S
C220 H248 0.930 . S
C221 C223 1.383 . S
C221 C224 1.382 . S
C221 H249 0.930 . S
C222 C220 1.369 . S
C222 C224 1.392 . S
C222 H250 0.930 . S
C223 C219 1.373 . S
C223 C221 1.383 . S
C223 H251 0.931 . S
C224 C221 1.382 . S
C224 C222 1.392 . S
C225 Eu216 2.828 . S
C225 C219 1.505 . S
C225 O237 1.249 . S
C225 O238 1.244 . S
O226 Eu217 2.373 . S
O226 C228 1.258 1_655 S
O227 Eu216 2.392 . S
O227 C228 1.242 . S
C228 O226 1.258 1_455 S
C228 O227 1.242 . S
O229 Eu216 2.418 1_655 S
O229 C233 1.244 . S
O230 Eu217 2.488 . S
O230 C246 1.249 . S
O231 Eu217 2.471 . S
O231 C246 1.244 . S
O232 Eu217 2.349 . S
O232 C233 1.265 . S
C233 O229 1.244 . S
C233 O232 1.265 . S
O234 Eu216 2.373 . S
O234 C247 1.258 . S
O235 Eu217 2.392 1_455 S
O235 C247 1.242 . S
O236 Eu217 2.418 1_455 S
O236 C218 1.244 . S
O237 Eu216 2.488 . S
O237 C225 1.249 . S
O238 Eu216 2.471 . S
O238 C225 1.244 . S
O239 Eu216 2.349 . S
O239 C218 1.265 . S
C240 C241 1.379 . S
C240 C244 1.373 1_556 S
C240 C246 1.505 . S
C241 C240 1.379 . S
C241 C243 1.369 1_556 S
C241 H252 0.930 . S
C242 C244 1.383 . S
C242 C245 1.382 . S
C242 H253 0.930 . S
C243 C241 1.369 1_554 S
C243 C245 1.392 . S
C243 H254 0.930 1_554 S
C244 C240 1.373 1_554 S
C244 C242 1.383 . S
C244 H255 0.931 . S
C245 C242 1.382 . S
C245 C243 1.392 . S
C246 Eu217 2.828 . S
C246 O230 1.249 . S
C246 O231 1.244 . S
C246 C240 1.505 . S
C247 O234 1.258 . S
C247 O235 1.242 . S
H248 C220 0.930 . S
H249 C221 0.930 . S
H250 C222 0.930 . S
H251 C223 0.931 . S
H252 C241 0.930 . S
H253 C242 0.930 . S
H254 C243 0.930 1_556 S
H255 C244 0.931 . S
H256 C262 0.930 . S
H257 C266 0.930 . S
H258 C271 0.929 . S
H259 C269 0.929 . S
H260 C264 0.929 . S
H261 C270 0.929 . S
C262 H256 0.930 . S
C262 C263 1.367 . S
C262 C270 1.378 . S
C263 C262 1.367 . S
C263 C271 1.433 . S
C264 H260 0.929 . S
C264 C266 1.378 . S
C264 C268 1.350 . S
C265 C268 1.463 . S
C265 C270 1.350 . S
C265 N273 1.427 . S
C266 H257 0.930 . S
C266 C264 1.378 . S
C266 C267 1.367 . S
C267 C266 1.367 . S
C267 C269 1.433 . S
C268 C264 1.350 . S
C268 C265 1.463 . S
C268 N272 1.427 . S
C269 H259 0.929 . S
C269 C267 1.433 . S
C269 N272 1.384 . S
C270 H261 0.929 . S
C270 C262 1.378 . S
C270 C265 1.350 . S
C271 H258 0.929 . S
C271 C263 1.433 . S
C271 N273 1.384 . S
N272 C268 1.427 . S
N272 C269 1.384 . S
N273 C265 1.427 . S
N273 C271 1.384 . S
H274 C280 0.930 . S
H275 C284 0.930 . S
H276 C289 0.929 . S
H277 C287 0.929 . S
H278 C282 0.929 . S
H279 C288 0.929 . S
C280 H274 0.930 . S
C280 C281 1.367 . S
C280 C288 1.378 . S
C281 C280 1.367 . S
C281 C289 1.433 . S
C282 H278 0.929 . S
C282 C284 1.378 . S
C282 C286 1.350 . S
C283 C286 1.463 . S
C283 C288 1.350 . S
C283 N291 1.427 . S
C284 H275 0.930 . S
C284 C282 1.378 . S
C284 C285 1.367 . S
C285 C284 1.367 . S
C285 C287 1.433 . S
C286 C282 1.350 . S
C286 C283 1.463 . S
C286 N290 1.427 . S
C287 H277 0.929 . S
C287 C285 1.433 . S
C287 N290 1.384 . S
C288 H279 0.929 . S
C288 C280 1.378 . S
C288 C283 1.350 . S
C289 H276 0.929 . S
C289 C281 1.433 . S
C289 N291 1.384 . S
N290 C286 1.427 . S
N290 C287 1.384 . S
N291 C283 1.427 . S
N291 C289 1.384 . S
H292 C298 0.930 . S
H293 C302 0.930 . S
H294 C307 0.929 . S
H295 C305 0.929 . S
H296 C300 0.929 . S
H297 C306 0.929 . S
C298 H292 0.930 . S
C298 C299 1.367 . S
C298 C306 1.378 . S
C299 C298 1.367 . S
C299 C307 1.433 . S
C300 H296 0.929 . S
C300 C302 1.378 . S
C300 C304 1.350 . S
C301 C304 1.463 . S
C301 C306 1.350 . S
C301 N309 1.427 . S
C302 H293 0.930 . S
C302 C300 1.378 . S
C302 C303 1.367 . S
C303 C302 1.367 . S
C303 C305 1.433 . S
C304 C300 1.350 . S
C304 C301 1.463 . S
C304 N308 1.427 . S
C305 H295 0.929 . S
C305 C303 1.433 . S
C305 N308 1.384 . S
C306 H297 0.929 . S
C306 C298 1.378 . S
C306 C301 1.350 . S
C307 H294 0.929 . S
C307 C299 1.433 . S
C307 N309 1.384 . S
N308 C304 1.427 . S
N308 C305 1.384 . S
N309 C301 1.427 . S
N309 C307 1.384 . S
H310 C316 0.930 . S
H311 C320 0.930 . S
H312 C325 0.929 . S
H313 C323 0.929 . S
H314 C318 0.929 . S
H315 C324 0.929 . S
C316 H310 0.930 . S
C316 C317 1.367 . S
C316 C324 1.378 . S
C317 C316 1.367 . S
C317 C325 1.433 . S
C318 H314 0.929 . S
C318 C320 1.378 . S
C318 C322 1.350 . S
C319 C322 1.463 . S
C319 C324 1.350 . S
C319 N327 1.427 . S
C320 H311 0.930 . S
C320 C318 1.378 . S
C320 C321 1.367 . S
C321 C320 1.367 . S
C321 C323 1.433 . S
C322 C318 1.350 . S
C322 C319 1.463 . S
C322 N326 1.427 . S
C323 H313 0.929 . S
C323 C321 1.433 . S
C323 N326 1.384 . S
C324 H315 0.929 . S
C324 C316 1.378 . S
C324 C319 1.350 . S
C325 H312 0.929 . S
C325 C317 1.433 . S
C325 N327 1.384 . S
N326 C322 1.427 . S
N326 C323 1.384 . S
N327 C319 1.427 . S
N327 C325 1.384 . S
H328 C334 0.930 . S
H329 C338 0.930 . S
H330 C343 0.909 1_545 S
H331 C341 0.929 . S
H332 C336 0.929 . S
H333 C342 0.929 . S
C334 H328 0.930 . S
C334 C335 1.367 . S
C334 C342 1.378 . S
C335 C334 1.367 . S
C335 C343 1.459 . S
C336 H332 0.929 . S
C336 C338 1.378 1_554 S
C336 C340 1.350 1_545 S
C337 C340 1.463 . S
C337 C342 1.350 . S
C337 N345 1.427 1_565 S
C338 H329 0.930 . S
C338 C336 1.378 1_556 S
C338 C339 1.367 1_545 S
C339 C338 1.367 1_565 S
C339 C341 1.433 . S
C340 C336 1.350 1_565 S
C340 C337 1.463 . S
C340 N344 1.427 1_554 S
C341 H331 0.929 . S
C341 C339 1.433 . S
C341 N344 1.384 . S
C342 H333 0.929 . S
C342 C334 1.378 . S
C342 C337 1.350 . S
C343 H330 0.909 1_565 S
C343 C335 1.459 . S
C343 N345 1.381 1_565 S
N344 C340 1.427 1_556 S
N344 C341 1.384 . S
N345 C337 1.427 1_545 S
N345 C343 1.381 1_545 S
H346 C352 0.930 . S
H347 C356 0.930 . S
H348 C361 0.929 . S
H349 C359 0.929 . S
H350 C354 0.929 1_554 S
H351 C360 0.929 . S
C352 H346 0.930 . S
C352 C353 1.367 . S
C352 C360 1.378 . S
C353 C352 1.367 . S
C353 C361 1.433 . S
C354 H350 0.929 1_556 S
C354 C356 1.378 . S
C354 C358 1.352 . S
C355 C358 1.453 1_554 S
C355 C360 1.350 . S
C355 N363 1.427 . S
C356 H347 0.930 . S
C356 C354 1.378 . S
C356 C357 1.367 . S
C357 C356 1.367 . S
C357 C359 1.433 . S
C358 C354 1.352 . S
C358 C355 1.453 1_556 S
C358 N362 1.435 . S
C359 H349 0.929 . S
C359 C357 1.433 . S
C359 N362 1.384 . S
C360 H351 0.929 . S
C360 C352 1.378 . S
C360 C355 1.350 . S
C361 H348 0.929 . S
C361 C353 1.433 . S
C361 N363 1.384 . S
N362 C358 1.435 . S
N362 C359 1.384 . S
N363 C355 1.427 . S
N363 C361 1.384 . S
H364 C370 0.930 . S
H365 C374 0.930 . S
H366 C379 0.929 . S
H367 C377 0.929 . S
H368 C372 0.929 . S
H369 C378 0.932 . S
C370 H364 0.930 . S
C370 C371 1.367 . S
C370 C378 1.378 . S
C371 C370 1.367 . S
C371 C379 1.433 . S
C372 H368 0.929 . S
C372 C374 1.378 1_554 S
C372 C376 1.350 1_554 S
C373 C376 1.463 1_554 S
C373 C378 1.350 . S
C373 N381 1.427 . S
C374 H365 0.930 . S
C374 C372 1.378 1_556 S
C374 C375 1.367 . S
C375 C374 1.367 . S
C375 C377 1.433 . S
C376 C372 1.350 1_556 S
C376 C373 1.463 1_556 S
C376 N380 1.427 . S
C377 H367 0.929 . S
C377 C375 1.433 . S
C377 N380 1.384 . S
C378 H369 0.932 . S
C378 C370 1.378 . S
C378 C373 1.350 . S
C379 H366 0.929 . S
C379 C371 1.433 . S
C379 N381 1.384 . S
N380 C376 1.427 . S
N380 C377 1.384 . S
N381 C373 1.427 . S
N381 C379 1.384 . S
H382 C388 0.930 1_455 S
H383 C392 0.930 . S
H384 C397 0.929 . S
H385 C395 0.929 . S
H386 C390 0.929 . S
H387 C396 0.929 1_455 S
C388 H382 0.930 1_655 S
C388 C389 1.367 . S
C388 C396 1.378 . S
C389 C388 1.367 . S
C389 C397 1.433 . S
C390 H386 0.929 . S
C390 C392 1.378 . S
C390 C394 1.350 1_556 S
C391 C394 1.463 . S
C391 C396 1.350 . S
C391 N399 1.427 . S
C392 H383 0.930 . S
C392 C390 1.378 . S
C392 C393 1.367 . S
C393 C392 1.367 . S
C393 C395 1.433 1_655 S
C394 C390 1.350 1_554 S
C394 C391 1.463 . S
C394 N398 1.427 1_655 S
C395 H385 0.929 . S
C395 C393 1.433 1_455 S
C395 N398 1.384 1_556 S
C396 H387 0.929 1_655 S
C396 C388 1.378 . S
C396 C391 1.350 . S
C397 H384 0.929 . S
C397 C389 1.433 . S
C397 N399 1.384 . S
N398 C394 1.427 1_455 S
N398 C395 1.384 1_554 S
N399 C391 1.427 . S
N399 C397 1.384 . S
H400 C406 0.930 . S
H401 C410 0.930 . S
H402 C415 0.929 . S
H403 C413 0.929 . S
H404 C408 0.929 . S
H405 C414 0.929 . S
C406 H400 0.930 . S
C406 C407 1.367 . S
C406 C414 1.378 . S
C407 C406 1.367 . S
C407 C415 1.433 . S
C408 H404 0.929 . S
C408 C410 1.378 . S
C408 C412 1.350 . S
C409 C412 1.463 . S
C409 C414 1.350 . S
C409 N417 1.427 . S
C410 H401 0.930 . S
C410 C408 1.378 . S
C410 C411 1.367 . S
C411 C410 1.367 . S
C411 C413 1.433 . S
C412 C408 1.350 . S
C412 C409 1.463 . S
C412 N416 1.427 . S
C413 H403 0.929 . S
C413 C411 1.433 . S
C413 N416 1.384 . S
C414 H405 0.929 . S
C414 C406 1.378 . S
C414 C409 1.350 . S
C415 H402 0.929 . S
C415 C407 1.433 . S
C415 N417 1.384 . S
N416 C412 1.427 . S
N416 C413 1.384 . S
N417 C409 1.427 . S
N417 C415 1.384 . S
H418 C424 0.930 . S
H419 C428 0.930 . S
H420 C433 0.929 . S
H421 C431 0.929 . S
H422 C426 0.929 . S
H423 C432 0.929 1_565 S
C424 H418 0.930 . S
C424 C425 1.367 . S
C424 C432 1.378 . S
C425 C424 1.367 . S
C425 C433 1.433 . S
C426 H422 0.929 . S
C426 C428 1.378 . S
C426 C430 1.350 . S
C427 C430 1.463 . S
C427 C432 1.350 . S
C427 N435 1.427 . S
C428 H419 0.930 . S
C428 C426 1.378 . S
C428 C429 1.367 1_545 S
C429 C428 1.367 1_565 S
C429 C431 1.433 . S
C430 C426 1.350 . S
C430 C427 1.463 . S
C430 N434 1.427 1_545 S
C431 H421 0.929 . S
C431 C429 1.433 . S
C431 N434 1.384 . S
C432 H423 0.929 1_545 S
C432 C424 1.378 . S
C432 C427 1.350 . S
C433 H420 0.929 . S
C433 C425 1.433 . S
C433 N435 1.384 . S
N434 C430 1.427 1_565 S
N434 C431 1.384 . S
N435 C427 1.427 . S
N435 C433 1.384 . S
H436 C442 0.930 . S
H437 C446 0.930 . S
H438 C451 0.929 . S
H439 C449 0.929 . S
H440 C444 0.929 . S
H441 C450 0.929 . S
C442 H436 0.930 . S
C442 C443 1.367 . S
C442 C450 1.378 . S
C443 C442 1.367 . S
C443 C451 1.433 . S
C444 H440 0.929 . S
C444 C446 1.378 . S
C444 C448 1.350 . S
C445 C448 1.463 . S
C445 C450 1.350 . S
C445 N453 1.427 . S
C446 H437 0.930 . S
C446 C444 1.378 . S
C446 C447 1.367 . S
C447 C446 1.367 . S
C447 C449 1.433 . S
C448 C444 1.350 . S
C448 C445 1.463 . S
C448 N452 1.427 . S
C449 H439 0.929 . S
C449 C447 1.433 . S
C449 N452 1.384 . S
C450 H441 0.929 . S
C450 C442 1.378 . S
C450 C445 1.350 . S
C451 H438 0.929 . S
C451 C443 1.433 . S
C451 N453 1.384 . S
N452 C448 1.427 . S
N452 C449 1.384 . S
N453 C445 1.427 . S
N453 C451 1.384 . S
H454 C460 0.930 . S
H455 C464 0.930 . S
H456 C469 0.929 . S
H457 C467 0.929 . S
H458 C462 0.929 . S
H459 C468 0.929 . S
C460 H454 0.930 . S
C460 C461 1.367 . S
C460 C468 1.378 . S
C461 C460 1.367 . S
C461 C469 1.433 . S
C462 H458 0.929 . S
C462 C464 1.378 . S
C462 C466 1.350 . S
C463 C466 1.463 . S
C463 C468 1.350 . S
C463 N471 1.427 . S
C464 H455 0.930 . S
C464 C462 1.378 . S
C464 C465 1.367 . S
C465 C464 1.367 . S
C465 C467 1.433 . S
C466 C462 1.350 . S
C466 C463 1.463 . S
C466 N470 1.427 . S
C467 H457 0.929 . S
C467 C465 1.433 . S
C467 N470 1.384 . S
C468 H459 0.929 . S
C468 C460 1.378 . S
C468 C463 1.350 . S
C469 H456 0.929 . S
C469 C461 1.433 . S
C469 N471 1.384 . S
N470 C466 1.427 . S
N470 C467 1.384 . S
N471 C463 1.427 . S
N471 C469 1.384 . S
H472 C478 0.930 . S
H473 C482 0.930 . S
H474 C487 0.915 1_455 S
H475 C485 0.929 . S
H476 C480 0.929 . S
H477 C486 0.929 . S
C478 H472 0.930 . S
C478 C479 1.367 . S
C478 C486 1.378 . S
C479 C478 1.367 . S
C479 C487 1.433 . S
C480 H476 0.929 . S
C480 C482 1.378 . S
C480 C484 1.350 1_455 S
C481 C484 1.463 . S
C481 C486 1.350 . S
C481 N489 1.422 1_655 S
C482 H473 0.930 . S
C482 C480 1.378 . S
C482 C483 1.367 . S
C483 C482 1.367 . S
C483 C485 1.433 1_455 S
C484 C480 1.350 1_655 S
C484 C481 1.463 . S
C484 N488 1.427 . S
C485 H475 0.929 . S
C485 C483 1.433 1_655 S
C485 N488 1.384 . S
C486 H477 0.929 . S
C486 C478 1.378 . S
C486 C481 1.350 . S
C487 H474 0.915 1_655 S
C487 C479 1.433 . S
C487 N489 1.380 1_655 S
N488 C484 1.427 . S
N488 C485 1.384 . S
N489 C481 1.422 1_455 S
N489 C487 1.380 1_455 S
H490 C496 0.930 . S
H491 C500 0.930 . S
H492 C505 0.929 . S
H493 C503 0.943 . S
H494 C498 0.929 . S
H495 C504 0.929 . S
C496 H490 0.930 . S
C496 C497 1.367 . S
C496 C504 1.378 . S
C497 C496 1.367 . S
C497 C505 1.433 1_565 S
C498 H494 0.929 . S
C498 C500 1.378 . S
C498 C502 1.350 . S
C499 C502 1.463 1_565 S
C499 C504 1.350 . S
C499 N507 1.427 1_565 S
C500 H491 0.930 . S
C500 C498 1.378 . S
C500 C501 1.367 . S
C501 C500 1.367 . S
C501 C503 1.411 1_545 S
C502 C498 1.350 . S
C502 C499 1.463 1_545 S
C502 N506 1.427 1_545 S
C503 H493 0.943 . S
C503 C501 1.411 1_565 S
C503 N506 1.392 . S
C504 H495 0.929 . S
C504 C496 1.378 . S
C504 C499 1.350 . S
C505 H492 0.929 . S
C505 C497 1.433 1_545 S
C505 N507 1.384 . S
N506 C502 1.427 1_565 S
N506 C503 1.392 . S
N507 C499 1.427 1_545 S
N507 C505 1.384 . S
H508 C514 0.930 . S
H509 C518 0.930 . S
H510 C523 0.929 . S
H511 C521 0.929 . S
H512 C516 0.929 . S
H513 C522 0.929 . S
C514 H508 0.930 . S
C514 C515 1.367 . S
C514 C522 1.378 . S
C515 C514 1.367 . S
C515 C523 1.433 . S
C516 H512 0.929 . S
C516 C518 1.378 . S
C516 C520 1.350 . S
C517 C520 1.463 . S
C517 C522 1.350 . S
C517 N525 1.427 . S
C518 H509 0.930 . S
C518 C516 1.378 . S
C518 C519 1.367 1_554 S
C519 C518 1.367 1_556 S
C519 C521 1.433 . S
C520 C516 1.350 . S
C520 C517 1.463 . S
C520 N524 1.427 . S
C521 H511 0.929 . S
C521 C519 1.433 . S
C521 N524 1.384 1_556 S
C522 H513 0.929 . S
C522 C514 1.378 . S
C522 C517 1.350 . S
C523 H510 0.929 . S
C523 C515 1.433 . S
C523 N525 1.384 . S
N524 C520 1.427 . S
N524 C521 1.384 1_554 S
N525 C517 1.427 . S
N525 C523 1.384 . S
H526 C532 0.930 . S
H527 C536 0.930 . S
H528 C541 0.929 . S
H529 C539 0.929 . S
H530 C534 0.929 . S
H531 C540 0.929 . S
C532 H526 0.930 . S
C532 C533 1.367 . S
C532 C540 1.378 . S
C533 C532 1.367 . S
C533 C541 1.433 . S
C534 H530 0.929 . S
C534 C536 1.378 . S
C534 C538 1.350 . S
C535 C538 1.463 . S
C535 C540 1.350 . S
C535 N543 1.427 . S
C536 H527 0.930 . S
C536 C534 1.378 . S
C536 C537 1.367 . S
C537 C536 1.367 . S
C537 C539 1.433 . S
C538 C534 1.350 . S
C538 C535 1.463 . S
C538 N542 1.427 . S
C539 H529 0.929 . S
C539 C537 1.433 . S
C539 N542 1.384 . S
C540 H531 0.929 . S
C540 C532 1.378 . S
C540 C535 1.350 . S
C541 H528 0.929 . S
C541 C533 1.433 . S
C541 N543 1.384 . S
N542 C538 1.427 . S
N542 C539 1.384 . S
N543 C535 1.427 . S
N543 C541 1.384 . S
H544 C550 0.930 1_554 S
H545 C554 0.930 . S
H546 C559 0.929 . S
H547 C557 0.929 . S
H548 C552 0.929 . S
H549 C558 0.929 . S
C550 H544 0.930 1_556 S
C550 C551 1.367 . S
C550 C558 1.378 . S
C551 C550 1.367 . S
C551 C559 1.433 . S
C552 H548 0.929 . S
C552 C554 1.378 . S
C552 C556 1.350 . S
C553 C556 1.463 . S
C553 C558 1.350 . S
C553 N561 1.427 . S
C554 H545 0.930 . S
C554 C552 1.378 . S
C554 C555 1.367 . S
C555 C554 1.367 . S
C555 C557 1.433 . S
C556 C552 1.350 . S
C556 C553 1.463 . S
C556 N560 1.427 . S
C557 H547 0.929 . S
C557 C555 1.433 . S
C557 N560 1.384 . S
C558 H549 0.929 . S
C558 C550 1.378 . S
C558 C553 1.350 . S
C559 H546 0.929 . S
C559 C551 1.433 . S
C559 N561 1.384 . S
N560 C556 1.427 . S
N560 C557 1.384 . S
N561 C553 1.427 . S
N561 C559 1.384 . S
H562 C568 0.930 . S
H563 C572 0.930 . S
H564 C577 0.929 . S
H565 C575 0.929 . S
H566 C570 0.929 . S
H567 C576 0.929 . S
C568 H562 0.930 . S
C568 C569 1.367 . S
C568 C576 1.378 . S
C569 C568 1.367 . S
C569 C577 1.433 . S
C570 H566 0.929 . S
C570 C572 1.378 . S
C570 C574 1.350 . S
C571 C574 1.463 . S
C571 C576 1.350 . S
C571 N579 1.427 . S
C572 H563 0.930 . S
C572 C570 1.378 . S
C572 C573 1.367 . S
C573 C572 1.367 . S
C573 C575 1.433 . S
C574 C570 1.350 . S
C574 C571 1.463 . S
C574 N578 1.427 . S
C575 H565 0.929 . S
C575 C573 1.433 . S
C575 N578 1.384 . S
C576 H567 0.929 . S
C576 C568 1.378 . S
C576 C571 1.350 . S
C577 H564 0.929 . S
C577 C569 1.433 . S
C577 N579 1.384 . S
N578 C574 1.427 . S
N578 C575 1.384 . S
N579 C571 1.427 . S
N579 C577 1.384 . S
H580 C586 0.930 . S
H581 C590 0.930 . S
H582 C595 0.929 . S
H583 C593 0.929 . S
H584 C588 0.929 . S
H585 C594 0.929 . S
C586 H580 0.930 . S
C586 C587 1.367 . S
C586 C594 1.378 . S
C587 C586 1.367 . S
C587 C595 1.433 . S
C588 H584 0.929 . S
C588 C590 1.378 . S
C588 C592 1.350 . S
C589 C592 1.463 . S
C589 C594 1.350 . S
C589 N597 1.427 . S
C590 H581 0.930 . S
C590 C588 1.378 . S
C590 C591 1.367 . S
C591 C590 1.367 . S
C591 C593 1.433 . S
C592 C588 1.350 . S
C592 C589 1.463 . S
C592 N596 1.427 . S
C593 H583 0.929 . S
C593 C591 1.433 . S
C593 N596 1.384 . S
C594 H585 0.929 . S
C594 C586 1.378 . S
C594 C589 1.350 . S
C595 H582 0.929 . S
C595 C587 1.433 . S
C595 N597 1.384 . S
N596 C592 1.427 . S
N596 C593 1.384 . S
N597 C589 1.427 . S
N597 C595 1.384 . S
H598 C604 0.930 . S
H599 C608 0.930 . S
H600 C613 0.929 1_554 S
H601 C611 0.929 . S
H602 C606 0.929 . S
H603 C612 0.929 . S
C604 H598 0.930 . S
C604 C605 1.367 . S
C604 C612 1.378 . S
C605 C604 1.367 . S
C605 C613 1.433 . S
C606 H602 0.929 . S
C606 C608 1.378 . S
C606 C610 1.350 . S
C607 C610 1.463 . S
C607 C612 1.350 . S
C607 N615 1.427 . S
C608 H599 0.930 . S
C608 C606 1.378 . S
C608 C609 1.367 . S
C609 C608 1.367 . S
C609 C611 1.433 . S
C610 C606 1.350 . S
C610 C607 1.463 . S
C610 N614 1.427 . S
C611 H601 0.929 . S
C611 C609 1.433 . S
C611 N614 1.384 . S
C612 H603 0.929 . S
C612 C604 1.378 . S
C612 C607 1.350 . S
C613 H600 0.929 1_556 S
C613 C605 1.433 . S
C613 N615 1.384 . S
N614 C610 1.427 . S
N614 C611 1.384 . S
N615 C607 1.427 . S
N615 C613 1.384 . S
H616 C622 0.930 . S
H617 C626 0.930 . S
H618 C631 0.911 1_455 S
H619 C629 0.929 . S
H620 C624 0.929 . S
H621 C630 0.929 . S
C622 H616 0.930 . S
C622 C623 1.367 . S
C622 C630 1.378 . S
C623 C622 1.367 . S
C623 C631 1.433 . S
C624 H620 0.929 . S
C624 C626 1.378 . S
C624 C628 1.350 1_455 S
C625 C628 1.463 . S
C625 C630 1.350 . S
C625 N633 1.427 . S
C626 H617 0.930 . S
C626 C624 1.378 . S
C626 C627 1.367 1_455 S
C627 C626 1.367 1_655 S
C627 C629 1.433 . S
C628 C624 1.350 1_655 S
C628 C625 1.463 . S
C628 N632 1.427 . S
C629 H619 0.929 . S
C629 C627 1.433 . S
C629 N632 1.384 . S
C630 H621 0.929 . S
C630 C622 1.378 . S
C630 C625 1.350 . S
C631 H618 0.911 1_655 S
C631 C623 1.433 . S
C631 N633 1.384 . S
N632 C628 1.427 . S
N632 C629 1.384 . S
N633 C625 1.427 . S
N633 C631 1.384 . S
H634 C640 0.930 . S
H635 C644 0.930 . S
H636 C649 0.929 . S
H637 C647 0.929 . S
H638 C642 0.929 . S
H639 C648 0.929 . S
C640 H634 0.930 . S
C640 C641 1.367 . S
C640 C648 1.378 . S
C641 C640 1.367 . S
C641 C649 1.433 1_565 S
C642 H638 0.929 . S
C642 C644 1.378 . S
C642 C646 1.350 1_545 S
C643 C646 1.463 . S
C643 C648 1.350 . S
C643 N651 1.427 1_565 S
C644 H635 0.930 . S
C644 C642 1.378 . S
C644 C645 1.367 1_545 S
C645 C644 1.367 1_565 S
C645 C647 1.433 . S
C646 C642 1.350 1_565 S
C646 C643 1.463 . S
C646 N650 1.427 . S
C647 H637 0.929 . S
C647 C645 1.433 . S
C647 N650 1.384 . S
C648 H639 0.929 . S
C648 C640 1.378 . S
C648 C643 1.350 . S
C649 H636 0.929 . S
C649 C641 1.433 1_545 S
C649 N651 1.384 . S
N650 C646 1.427 . S
N650 C647 1.384 . S
N651 C643 1.427 1_545 S
N651 C649 1.384 . S
H652 C658 0.930 . S
H653 C662 0.930 . S
H654 C667 0.929 . S
H655 C665 0.929 . S
H656 C660 0.929 . S
H657 C666 0.929 . S
C658 H652 0.930 . S
C658 C659 1.367 . S
C658 C666 1.378 . S
C659 C658 1.367 . S
C659 C667 1.433 . S
C660 H656 0.929 . S
C660 C662 1.378 . S
C660 C664 1.350 . S
C661 C664 1.463 . S
C661 C666 1.350 . S
C661 N669 1.427 . S
C662 H653 0.930 . S
C662 C660 1.378 . S
C662 C663 1.367 . S
C663 C662 1.367 . S
C663 C665 1.433 . S
C664 C660 1.350 . S
C664 C661 1.463 . S
C664 N668 1.427 . S
C665 H655 0.929 . S
C665 C663 1.433 . S
C665 N668 1.384 . S
C666 H657 0.929 . S
C666 C658 1.378 . S
C666 C661 1.350 . S
C667 H654 0.929 . S
C667 C659 1.433 . S
C667 N669 1.384 . S
N668 C664 1.427 . S
N668 C665 1.384 . S
N669 C661 1.427 . S
N669 C667 1.384 . S
H670 C676 0.930 . S
H671 C680 0.930 . S
H672 C685 0.929 . S
H673 C683 0.929 . S
H674 C678 0.929 . S
H675 C684 0.929 . S
C676 H670 0.930 . S
C676 C677 1.367 . S
C676 C684 1.378 . S
C677 C676 1.367 . S
C677 C685 1.433 . S
C678 H674 0.929 . S
C678 C680 1.378 . S
C678 C682 1.350 . S
C679 C682 1.463 . S
C679 C684 1.350 . S
C679 N687 1.427 . S
C680 H671 0.930 . S
C680 C678 1.378 . S
C680 C681 1.367 . S
C681 C680 1.367 . S
C681 C683 1.433 . S
C682 C678 1.350 . S
C682 C679 1.463 . S
C682 N686 1.427 . S
C683 H673 0.929 . S
C683 C681 1.433 . S
C683 N686 1.384 . S
C684 H675 0.929 . S
C684 C676 1.378 . S
C684 C679 1.350 . S
C685 H672 0.929 . S
C685 C677 1.433 . S
C685 N687 1.384 . S
N686 C682 1.427 . S
N686 C683 1.384 . S
N687 C679 1.427 . S
N687 C685 1.384 . S
C263 C76 2.132 . S
C267 C127 2.337 . S
C285 C153 1.895 . S
C281 C88 1.716 . S
C303 C193 1.963 . S
C299 C52 1.803 . S
C321 C247 2.385 . S
C317 C64 2.209 . S
C339 C108 2.338 1_565 S
C335 C28 2.140 . S
C353 C40 1.710 . S
C357 C138 1.900 . S
C371 C4 1.804 . S
C375 C178 1.964 . S
C389 C16 2.216 . S
C393 C228 2.385 1_655 S
C411 C104 0.536 . S
C407 C69 0.561 . S
C429 C165 0.662 . S
C425 C81 0.648 . S
C447 C205 0.558 . S
C443 C93 0.529 . S
C461 C57 0.449 . S
C465 C224 0.406 . S
C479 C21 0.572 . S
C483 C125 0.531 . S
C501 C144 0.674 . S
C497 C33 0.672 . S
C519 C184 0.536 . S
C515 C45 0.550 . S
C533 C9 0.466 . S
C537 C245 0.420 . S
C551 C66 1.906 . S
C555 C98 2.133 . S
C569 C78 2.403 . S
C573 C148 2.611 . S
C591 C188 2.393 . S
C587 C90 2.190 . S
C609 C218 1.896 . S
C605 C54 1.718 . S
C623 C18 1.897 . S
C627 C113 2.134 . S
C645 C167 2.608 . S
C641 C30 2.390 . S
C663 C207 2.394 . S
C659 C42 2.203 . S
C677 C6 1.713 . S
C681 C233 1.898 . S
