# Generated by pormake.
# Topology nom, (4,4)-cn, num edge types: 1
# Building blocks:
#     Node 0, Type 0, BuildingBlock: AZAVOO_clean_linker_0, # of connection points: 4
#     Node 1, Type 0, BuildingBlock: AZAVOO_clean_linker_0, # of connection points: 4
#     Node 2, Type 0, BuildingBlock: AZAVOO_clean_linker_0, # of connection points: 4
#     Node 3, Type 0, BuildingBlock: AZAVOO_clean_linker_0, # of connection points: 4
#     Node 4, Type 0, BuildingBlock: AZAVOO_clean_linker_0, # of connection points: 4
#     Node 5, Type 0, BuildingBlock: AZAVOO_clean_linker_0, # of connection points: 4
#     Node 6, Type 1, BuildingBlock: QUQFOY_clean_sbu_3, # of connection points: 4
#     Node 7, Type 1, BuildingBlock: QUQFOY_clean_sbu_3, # of connection points: 4
#     Node 8, Type 1, BuildingBlock: QUQFOY_clean_sbu_3, # of connection points: 4
#     Node 9, Type 1, BuildingBlock: QUQFOY_clean_sbu_3, # of connection points: 4
#     Node 10, Type 1, BuildingBlock: QUQFOY_clean_sbu_3, # of connection points: 4
#     Node 11, Type 1, BuildingBlock: QUQFOY_clean_sbu_3, # of connection points: 4
#     Edge 12, Type (0, 1), BuildingBlock: EZIPEK_clean_linker_0, # of connection points: 2
#     Edge 13, Type (0, 1), BuildingBlock: EZIPEK_clean_linker_0, # of connection points: 2
#     Edge 14, Type (0, 1), BuildingBlock: EZIPEK_clean_linker_0, # of connection points: 2
#     Edge 15, Type (0, 1), BuildingBlock: EZIPEK_clean_linker_0, # of connection points: 2
#     Edge 16, Type (0, 1), BuildingBlock: EZIPEK_clean_linker_0, # of connection points: 2
#     Edge 17, Type (0, 1), BuildingBlock: EZIPEK_clean_linker_0, # of connection points: 2
#     Edge 18, Type (0, 1), BuildingBlock: EZIPEK_clean_linker_0, # of connection points: 2
#     Edge 19, Type (0, 1), BuildingBlock: EZIPEK_clean_linker_0, # of connection points: 2
#     Edge 20, Type (0, 1), BuildingBlock: EZIPEK_clean_linker_0, # of connection points: 2
#     Edge 21, Type (0, 1), BuildingBlock: EZIPEK_clean_linker_0, # of connection points: 2
#     Edge 22, Type (0, 1), BuildingBlock: EZIPEK_clean_linker_0, # of connection points: 2
#     Edge 23, Type (0, 1), BuildingBlock: EZIPEK_clean_linker_0, # of connection points: 2
#     Edge 24, Type (0, 1), BuildingBlock: EZIPEK_clean_linker_0, # of connection points: 2
#     Edge 25, Type (0, 1), BuildingBlock: EZIPEK_clean_linker_0, # of connection points: 2
#     Edge 26, Type (0, 1), BuildingBlock: EZIPEK_clean_linker_0, # of connection points: 2
#     Edge 27, Type (0, 1), BuildingBlock: EZIPEK_clean_linker_0, # of connection points: 2
#     Edge 28, Type (0, 1), BuildingBlock: EZIPEK_clean_linker_0, # of connection points: 2
#     Edge 29, Type (0, 1), BuildingBlock: EZIPEK_clean_linker_0, # of connection points: 2
#     Edge 30, Type (0, 1), BuildingBlock: EZIPEK_clean_linker_0, # of connection points: 2
#     Edge 31, Type (0, 1), BuildingBlock: EZIPEK_clean_linker_0, # of connection points: 2
#     Edge 32, Type (0, 1), BuildingBlock: EZIPEK_clean_linker_0, # of connection points: 2
#     Edge 33, Type (0, 1), BuildingBlock: EZIPEK_clean_linker_0, # of connection points: 2
#     Edge 34, Type (0, 1), BuildingBlock: EZIPEK_clean_linker_0, # of connection points: 2
#     Edge 35, Type (0, 1), BuildingBlock: EZIPEK_clean_linker_0, # of connection points: 2
# Relax obj value: 0.155
# Max RMSD: 0.231
# Mean RMSD: 0.148
data_MOF--net-nom--node1-QUQFOY_clean_sbu_3--node2-AZAVOO_clean_linker_0--edge1-EZIPEK_clean_linker_0
_symmetry_space_group_name_H-M    P1
_symmetry_Int_Tables_number       1
_symmetry_cell_setting            triclinic
loop_
_symmetry_equiv_pos_as_xyz
'x, y, z'
_cell_length_a     37.139894
_cell_length_b     39.665318
_cell_length_c     46.31962
_cell_angle_alpha  90.133412
_cell_angle_beta   89.84424
_cell_angle_gamma 121.49311
loop_
_atom_site_label
_atom_site_type_symbol
_atom_site_fract_x
_atom_site_fract_y
_atom_site_fract_z
_atom_type_partial_charge
H0 H 0.09236 0.45359 0.11501 0.0
H1 H 0.30181 0.66757 0.38628 0.0
H2 H -0.00467 0.41368 0.25574 0.0
H3 H 0.95028 0.3868 0.21323 0.0
H4 H 0.91129 0.4712 0.22417 0.0
H5 H 0.96111 0.5018 0.26408 0.0
H6 H 0.08642 0.45314 0.24127 0.0
H7 H 0.09305 0.44564 0.18939 0.0
H8 H 0.05163 0.52719 0.172 0.0
H9 H 0.04468 0.53407 0.22393 0.0
H10 H 0.15811 0.49922 0.28103 0.0
H11 H 0.23262 0.54359 0.26677 0.0
H12 H 0.20542 0.63339 0.2439 0.0
H13 H 0.13125 0.58876 0.25677 0.0
H14 H 0.13268 0.49549 0.3469 0.0
H15 H 0.19924 0.53201 0.37354 0.0
H16 H 0.21513 0.64211 0.34337 0.0
H17 H 0.14754 0.60525 0.31805 0.0
H18 H 0.05972 0.47407 0.37332 0.0
H19 H 0.08563 0.50264 0.42125 0.0
H20 H 0.07741 0.60366 0.39811 0.0
H21 H 0.05489 0.57657 0.34933 0.0
H22 H 0.95163 0.42751 0.33401 0.0
H23 H 0.88665 0.421 0.35436 0.0
H24 H 0.93309 0.54282 0.3331 0.0
H25 H -0.0026 0.5492 0.31283 0.0
O26 O 0.0897 0.4571 0.13543 0.0
O27 O 0.06734 0.49851 0.12768 0.0
O28 O 0.26592 0.59495 0.39076 0.0
O29 O 0.27536 0.65236 0.37602 0.0
C30 C 0.02082 0.48438 0.28083 0.0
C31 C 0.06087 0.49842 0.26781 0.0
C32 C 0.09788 0.51937 0.28431 0.0
C33 C 0.09542 0.52545 0.314 0.0
C34 C 0.05599 0.51343 0.32688 0.0
C35 C 0.01871 0.49412 0.31006 0.0
C36 C 0.98225 0.4602 0.26296 0.0
C37 C 0.97644 0.42596 0.2494 0.0
C38 C 0.95064 0.41052 0.22513 0.0
C39 C 0.92808 0.42754 0.21505 0.0
C40 C 0.92894 0.45799 0.2313 0.0
C41 C 0.9569 0.4751 0.2545 0.0
C42 C 0.06469 0.49383 0.23629 0.0
C43 C 0.0787 0.46927 0.22619 0.0
C44 C 0.08245 0.46505 0.19656 0.0
C45 C 0.07258 0.48562 0.17654 0.0
C46 C 0.05914 0.51068 0.18683 0.0
C47 C 0.05511 0.51464 0.21645 0.0
C48 C 0.1396 0.54102 0.26995 0.0
C49 C 0.1681 0.52797 0.27197 0.0
C50 C 0.21039 0.55321 0.26406 0.0
C51 C 0.22442 0.59197 0.25508 0.0
C52 C 0.19515 0.60374 0.25117 0.0
C53 C 0.15293 0.5783 0.25833 0.0
C54 C 0.13508 0.54777 0.33095 0.0
C55 C 0.15031 0.5275 0.34647 0.0
C56 C 0.18844 0.54843 0.36149 0.0
C57 C 0.21238 0.59002 0.36074 0.0
C58 C 0.19738 0.61014 0.34456 0.0
C59 C 0.15876 0.58919 0.33014 0.0
C60 C 0.05538 0.52317 0.35779 0.0
C61 C 0.06203 0.50168 0.37888 0.0
C62 C 0.077 0.51808 0.40616 0.0
C63 C 0.08435 0.55568 0.41295 0.0
C64 C 0.07234 0.57479 0.39314 0.0
C65 C 0.05895 0.55909 0.36543 0.0
C66 C 0.97913 0.48885 0.32206 0.0
C67 C 0.94765 0.45268 0.33379 0.0
C68 C 0.91086 0.44904 0.3454 0.0
C69 C 0.90543 0.48155 0.34527 0.0
C70 C 0.93693 0.51755 0.33348 0.0
C71 C 0.9735 0.52118 0.32201 0.0
C72 C 0.07635 0.48092 0.14508 0.0
C73 C 0.25279 0.61243 0.37677 0.0
H74 H 0.5265 0.07942 0.28879 0.0
H75 H 0.516 0.27411 0.55448 0.0
H76 H 0.52374 0.00018 0.45052 0.0
H77 H 0.52219 0.95497 0.41363 0.0
H78 H 0.38975 0.90922 0.39964 0.0
H79 H 0.39119 0.95414 0.43704 0.0
H80 H 0.54457 0.07893 0.41421 0.0
H81 H 0.54989 0.08464 0.36153 0.0
H82 H 0.4141 0.02796 0.35607 0.0
H83 H 0.40939 0.02304 0.40879 0.0
H84 H 0.56366 0.14311 0.45157 0.0
H85 H 0.58744 0.20811 0.43015 0.0
H86 H 0.4579 0.17356 0.41571 0.0
H87 H 0.43408 0.10835 0.4372 0.0
H88 H 0.55892 0.13705 0.51411 0.0
H89 H 0.58218 0.20195 0.53523 0.0
H90 H 0.45639 0.18081 0.52438 0.0
H91 H 0.43385 0.11634 0.50279 0.0
H92 H 0.52418 0.03909 0.53994 0.0
H93 H 0.54665 0.06215 0.58959 0.0
H94 H 0.44948 0.09027 0.59694 0.0
H95 H 0.42566 0.06546 0.54777 0.0
H96 H 0.48961 0.9655 0.5026 0.0
H97 H 0.45092 0.89783 0.52219 0.0
H98 H 0.34281 0.90836 0.53826 0.0
H99 H 0.38116 0.97565 0.5184 0.0
O100 O 0.5237 0.07695 0.30958 0.0
O101 O 0.45384 0.0481 0.30797 0.0
O102 O 0.57119 0.2571 0.55285 0.0
O103 O 0.5076 0.24851 0.54639 0.0
C104 C 0.46193 0.01446 0.46262 0.0
C105 C 0.47373 0.04946 0.44715 0.0
C106 C 0.48313 0.08402 0.46202 0.0
C107 C 0.4816 0.08409 0.4924 0.0
C108 C 0.46928 0.04902 0.5081 0.0
C109 C 0.45808 0.01371 0.49308 0.0
C110 C 0.45753 0.98022 0.44649 0.0
C111 C 0.49398 0.97922 0.44039 0.0
C112 C 0.49313 0.95355 0.41938 0.0
C113 C 0.4559 0.92895 0.40397 0.0
C114 C 0.41864 0.92784 0.41152 0.0
C115 C 0.41943 0.95335 0.43279 0.0
C116 C 0.47659 0.05035 0.41519 0.0
C117 C 0.51605 0.06764 0.40154 0.0
C118 C 0.51898 0.07099 0.37148 0.0
C119 C 0.48242 0.05687 0.35458 0.0
C120 C 0.44287 0.03919 0.36843 0.0
C121 C 0.44004 0.03611 0.39849 0.0
C122 C 0.49721 0.12123 0.44594 0.0
C123 C 0.54047 0.14933 0.44332 0.0
C124 C 0.55397 0.18622 0.43111 0.0
C125 C 0.52436 0.19541 0.4214 0.0
C126 C 0.48109 0.16676 0.42299 0.0
C127 C 0.46757 0.12978 0.43521 0.0
C128 C 0.49459 0.12185 0.50742 0.0
C129 C 0.53638 0.14638 0.51661 0.0
C130 C 0.54959 0.18346 0.52854 0.0
C131 C 0.52105 0.19646 0.53168 0.0
C132 C 0.47911 0.17163 0.52246 0.0
C133 C 0.46608 0.13474 0.51026 0.0
C134 C 0.47371 0.0512 0.54005 0.0
C135 C 0.50643 0.04847 0.55268 0.0
C136 C 0.51938 0.06176 0.58091 0.0
C137 C 0.50007 0.07839 0.59663 0.0
C138 C 0.46481 0.07766 0.58503 0.0
C139 C 0.45133 0.06361 0.55702 0.0
C140 C 0.43802 0.97535 0.50872 0.0
C141 C 0.45778 0.9534 0.51064 0.0
C142 C 0.43588 0.915 0.52196 0.0
C143 C 0.39406 0.89823 0.53162 0.0
C144 C 0.3751 0.92091 0.53102 0.0
C145 C 0.39696 0.9592 0.51971 0.0
C146 C 0.48561 0.06033 0.32265 0.0
C147 C 0.53495 0.23585 0.5443 0.0
H148 H 0.59539 0.57393 0.84421 0.0
H149 H 0.578 0.33993 0.57953 0.0
H150 H 0.59062 0.62204 0.69104 0.0
H151 H 0.58199 0.66442 0.72319 0.0
H152 H 0.44577 0.58761 0.71531 0.0
H153 H 0.45611 0.54576 0.68347 0.0
H154 H 0.61508 0.56525 0.71951 0.0
H155 H 0.6197 0.5741 0.77198 0.0
H156 H 0.48354 0.51385 0.77689 0.0
H157 H 0.47938 0.50472 0.72448 0.0
H158 H 0.63139 0.51628 0.68504 0.0
H159 H 0.64609 0.46682 0.70414 0.0
H160 H 0.51262 0.38504 0.71615 0.0
H161 H 0.49796 0.43435 0.69686 0.0
H162 H 0.63046 0.51943 0.62604 0.0
H163 H 0.65144 0.47495 0.60609 0.0
H164 H 0.5207 0.37945 0.60629 0.0
H165 H 0.5004 0.42405 0.627 0.0
H166 H 0.6008 0.57407 0.59162 0.0
H167 H 0.61503 0.56277 0.54192 0.0
H168 H 0.49399 0.45387 0.53913 0.0
H169 H 0.48 0.46499 0.58909 0.0
H170 H 0.54661 0.62164 0.62653 0.0
H171 H 0.49984 0.64239 0.60609 0.0
H172 H 0.40038 0.52017 0.59766 0.0
H173 H 0.4466 0.49953 0.61813 0.0
O174 O 0.59283 0.56962 0.82355 0.0
O175 O 0.52278 0.539 0.82481 0.0
O176 O 0.63742 0.40797 0.58848 0.0
O177 O 0.57054 0.35823 0.58716 0.0
C178 C 0.5306 0.55169 0.6698 0.0
C179 C 0.54427 0.53045 0.68632 0.0
C180 C 0.55397 0.50454 0.67251 0.0
C181 C 0.55188 0.50109 0.64218 0.0
C182 C 0.53735 0.52157 0.62573 0.0
C183 C 0.52477 0.54549 0.63966 0.0
C184 C 0.52406 0.58131 0.68445 0.0
C185 C 0.55896 0.61569 0.69535 0.0
C186 C 0.55356 0.64064 0.71366 0.0
C187 C 0.51285 0.63281 0.72109 0.0
C188 C 0.47791 0.59793 0.70932 0.0
C189 C 0.48351 0.57293 0.69105 0.0
C190 C 0.54692 0.53436 0.71825 0.0
C191 C 0.5863 0.55367 0.73201 0.0
C192 C 0.58884 0.55883 0.76196 0.0
C193 C 0.55199 0.54478 0.77863 0.0
C194 C 0.51253 0.52509 0.76471 0.0
C195 C 0.51006 0.51985 0.73479 0.0
C196 C 0.56364 0.47872 0.68959 0.0
C197 C 0.60547 0.48811 0.69258 0.0
C198 C 0.61381 0.46004 0.70343 0.0
C199 C 0.58037 0.42247 0.71148 0.0
C200 C 0.53872 0.41403 0.71018 0.0
C201 C 0.53041 0.44205 0.69927 0.0
C202 C 0.56396 0.47491 0.62783 0.0
C203 C 0.60644 0.48893 0.62162 0.0
C204 C 0.61833 0.46343 0.61035 0.0
C205 C 0.58775 0.42355 0.60476 0.0
C206 C 0.54504 0.40992 0.6104 0.0
C207 C 0.53331 0.43534 0.62209 0.0
C208 C 0.53936 0.5204 0.59386 0.0
C209 C 0.57661 0.54862 0.57989 0.0
C210 C 0.58476 0.54214 0.55163 0.0
C211 C 0.55564 0.50743 0.53704 0.0
C212 C 0.51667 0.48092 0.55008 0.0
C213 C 0.50866 0.48729 0.57847 0.0
C214 C 0.50006 0.55905 0.62366 0.0
C215 C 0.51499 0.5994 0.61979 0.0
C216 C 0.48842 0.61119 0.60823 0.0
C217 C 0.44676 0.5827 0.60049 0.0
C218 C 0.43245 0.54248 0.60348 0.0
C219 C 0.45889 0.53076 0.61495 0.0
C220 C 0.5548 0.55085 0.81038 0.0
C221 C 0.60023 0.39625 0.59299 0.0
H222 H 0.10986 0.43128 0.00403 0.0
H223 H 0.3019 0.52603 0.70337 0.0
H224 H 0.0174 0.45715 0.87054 0.0
H225 H 0.96489 0.4291 0.90946 0.0
H226 H 0.92281 0.31151 0.87863 0.0
H227 H 0.97561 0.33975 0.83944 0.0
H228 H 0.10995 0.48406 0.8862 0.0
H229 H 0.11602 0.47372 0.93761 0.0
H230 H 0.0595 0.34852 0.92176 0.0
H231 H 0.05368 0.35935 0.87039 0.0
H232 H 0.17854 0.519 0.8392 0.0
H233 H 0.24827 0.53555 0.85684 0.0
H234 H 0.20837 0.41206 0.85521 0.0
H235 H 0.13835 0.39544 0.83763 0.0
H236 H 0.14946 0.52999 0.77714 0.0
H237 H 0.21232 0.56345 0.74642 0.0
H238 H 0.21701 0.45679 0.74414 0.0
H239 H 0.15371 0.42352 0.77449 0.0
H240 H 0.06344 0.50223 0.76132 0.0
H241 H 0.07858 0.52474 0.71199 0.0
H242 H 0.08846 0.42311 0.69105 0.0
H243 H 0.07325 0.40207 0.73972 0.0
H244 H 0.97518 0.44579 0.81244 0.0
H245 H 0.89975 0.40825 0.79968 0.0
H246 H 0.9179 0.32391 0.75324 0.0
H247 H 0.99292 0.36082 0.76645 0.0
O248 O 0.1077 0.43478 0.98357 0.0
O249 O 0.07848 0.37065 0.97428 0.0
O250 O 0.27257 0.56725 0.71685 0.0
O251 O 0.27693 0.51345 0.71545 0.0
C252 C 0.03674 0.41755 0.83234 0.0
C253 C 0.07672 0.42881 0.84367 0.0
C254 C 0.11239 0.44633 0.82559 0.0
C255 C 0.10869 0.45414 0.79645 0.0
C256 C 0.06856 0.44233 0.78489 0.0
C257 C 0.03233 0.42328 0.80272 0.0
C258 C 6e-05 0.40044 0.8522 0.0
C259 C -0.00381 0.42539 0.87176 0.0
C260 C 0.9665 0.40944 0.89394 0.0
C261 C 0.94031 0.36836 0.89684 0.0
C262 C 0.94284 0.3433 0.87658 0.0
C263 C 0.97263 0.35933 0.85426 0.0
C264 C 0.0813 0.42244 0.87469 0.0
C265 C 0.09908 0.45448 0.8939 0.0
C266 C 0.10243 0.44845 0.92323 0.0
C267 C 0.08814 0.41027 0.93381 0.0
C268 C 0.07078 0.37829 0.91434 0.0
C269 C 0.06735 0.38436 0.88503 0.0
C270 C 0.15375 0.45613 0.83716 0.0
C271 C 0.18481 0.49556 0.8428 0.0
C272 C 0.22428 0.5049 0.85286 0.0
C273 C 0.233 0.47491 0.85729 0.0
C274 C 0.20183 0.43538 0.85194 0.0
C275 C 0.16221 0.42601 0.84199 0.0
C276 C 0.147 0.47433 0.77791 0.0
C277 C 0.16401 0.51387 0.76984 0.0
C278 C 0.19996 0.53292 0.75236 0.0
C279 C 0.2197 0.51277 0.74279 0.0
C280 C 0.2026 0.47316 0.75109 0.0
C281 C 0.16651 0.4541 0.76846 0.0
C282 C 0.06553 0.44964 0.75388 0.0
C283 C 0.06616 0.48369 0.74533 0.0
C284 C 0.07447 0.49625 0.71656 0.0
C285 C 0.08081 0.47431 0.69504 0.0
C286 C 0.08004 0.43994 0.70454 0.0
C287 C 0.07173 0.42753 0.73321 0.0
C288 C 0.98949 0.40602 0.79033 0.0
C289 C 0.96306 0.41971 0.79899 0.0
C290 C 0.9202 0.39837 0.7918 0.0
C291 C 0.90355 0.36338 0.77566 0.0
C292 C 0.93041 0.35093 0.76565 0.0
C293 C 0.97312 0.37208 0.77301 0.0
C294 C 0.09111 0.40388 0.96506 0.0
C295 C 0.25796 0.53292 0.72426 0.0
H296 H 0.32642 0.93315 0.80739 0.0
H297 H 0.38701 0.74802 0.07689 0.0
H298 H 0.41848 0.04061 0.94374 0.0
H299 H 0.45015 0.08894 0.90402 0.0
H300 H 0.55933 0.07737 0.90531 0.0
H301 H 0.5278 0.02925 0.94447 0.0
H302 H 0.34663 0.9441 0.93297 0.0
H303 H 0.32619 0.93707 0.88206 0.0
H304 H 0.44864 0.95793 0.85752 0.0
H305 H 0.46868 0.9651 0.90843 0.0
H306 H 0.32648 0.86038 0.97495 0.0
H307 H 0.30533 0.79251 0.96021 0.0
H308 H 0.42997 0.83684 0.92527 0.0
H309 H 0.45071 0.90374 0.93958 0.0
H310 H 0.35193 0.8904 0.03791 0.0
H311 H 0.33127 0.83061 0.06593 0.0
H312 H 0.43763 0.82786 0.03059 0.0
H313 H 0.45842 0.88811 0.0033 0.0
H314 H 0.40834 0.96086 0.065 0.0
H315 H 0.42855 0.94701 0.11197 0.0
H316 H 0.54377 0.96513 0.07447 0.0
H317 H 0.52203 0.97577 0.02729 0.0
H318 H 0.45286 0.05962 0.01844 0.0
H319 H 0.50941 0.12682 0.03263 0.0
H320 H 0.60279 0.09716 0.01157 0.0
H321 H 0.54682 0.03092 -0.00312 0.0
O322 O 0.335 0.93573 0.82739 0.0
O323 O 0.3985 0.94684 0.81594 0.0
O324 O 0.33939 0.77359 0.08293 0.0
O325 O 0.39434 0.77159 0.06602 0.0
C326 C 0.44972 -0.00241 0.96692 0.0
C327 C 0.42135 0.95985 0.95522 0.0
C328 C 0.40717 0.92582 0.97228 0.0
C329 C 0.41901 0.92959 0.0016 0.0
C330 C 0.44693 0.96734 0.01347 0.0
C331 C 0.46272 0.00129 -0.004 0.0
C332 C 0.47116 0.03192 0.94718 0.0
C333 C 0.44974 0.04946 0.93597 0.0
C334 C 0.46767 0.07682 0.91341 0.0
C335 C 0.5069 0.08638 0.90183 0.0
C336 C 0.52913 0.07038 0.91411 0.0
C337 C 0.51133 0.04323 0.93656 0.0
C338 C 0.4092 0.95547 0.92431 0.0
C339 C 0.36896 0.94719 0.91653 0.0
C340 C 0.35739 0.94317 0.88746 0.0
C341 C 0.38584 0.94708 0.86571 0.0
C342 C 0.42601 0.95483 0.8737 0.0
C343 C 0.4376 0.9591 0.90275 0.0
C344 C 0.39 0.8869 0.95807 0.0
C345 C 0.3486 0.85544 0.96322 0.0
C346 C 0.33666 0.81694 0.95498 0.0
C347 C 0.36641 0.80991 0.94206 0.0
C348 C 0.40672 0.8418 0.93529 0.0
C349 C 0.41842 0.87995 0.94323 0.0
C350 C 0.40672 0.89357 0.01877 0.0
C351 C 0.3708 0.87691 0.03643 0.0
C352 C 0.35905 0.84275 0.05231 0.0
C353 C 0.38291 0.82453 0.05057 0.0
C354 C 0.41864 0.84118 0.03252 0.0
C355 C 0.43061 0.87557 0.01692 0.0
C356 C 0.46401 0.96994 0.04282 0.0
C357 C 0.43854 0.96308 0.06716 0.0
C358 C 0.45008 0.95527 0.09387 0.0
C359 C 0.48756 0.95498 0.09654 0.0
C360 C 0.51491 0.96555 0.0728 0.0
C361 C 0.50271 0.97203 0.04596 0.0
C362 C 0.49584 0.04033 0.00713 0.0
C363 C 0.48551 0.06754 0.01739 0.0
C364 C 0.51755 0.10561 0.02549 0.0
C365 C 0.56002 0.1165 0.02339 0.0
C366 C 0.57012 0.08896 0.01367 0.0
C367 C 0.53827 0.05122 0.00546 0.0
C368 C 0.37365 0.94321 0.83484 0.0
C369 C 0.37075 0.78838 0.0675 0.0
H370 H 0.62304 0.56136 0.93281 0.0
H371 H 0.75309 0.47681 0.21617 0.0
H372 H 0.56597 0.6044 0.08692 0.0
H373 H 0.54373 0.63124 0.04798 0.0
H374 H 0.66883 0.7352 0.04469 0.0
H375 H 0.69115 0.70817 0.0839 0.0
H376 H 0.59507 0.55344 0.05761 0.0
H377 H 0.59495 0.54686 0.00502 0.0
H378 H 0.71905 0.65288 0.00105 0.0
H379 H 0.7184 0.65935 0.05364 0.0
H380 H 0.62549 0.50652 0.10126 0.0
H381 H 0.6527 0.46589 0.08249 0.0
H382 H 0.77083 0.57175 0.06115 0.0
H383 H 0.7439 0.61228 0.0802 0.0
H384 H 0.61397 0.52175 0.16795 0.0
H385 H 0.62938 0.47869 0.19619 0.0
H386 H 0.76118 0.55128 0.17266 0.0
H387 H 0.74529 0.59395 0.14437 0.0
H388 H 0.59355 0.58985 0.19037 0.0
H389 H 0.59375 0.57384 0.24154 0.0
H390 H 0.7269 0.61662 0.23551 0.0
H391 H 0.72768 0.63731 0.18588 0.0
H392 H 0.56827 0.62355 0.14328 0.0
H393 H 0.54893 0.66644 0.16852 0.0
H394 H 0.67995 0.74832 0.18868 0.0
H395 H 0.69937 0.70528 0.16338 0.0
O396 O 0.62364 0.56464 0.95355 0.0
O397 O 0.68765 0.61899 0.95271 0.0
O398 O 0.67825 0.45778 0.21741 0.0
O399 O 0.74608 0.49322 0.20503 0.0
C400 C 0.64548 0.63342 0.1057 0.0
C401 C 0.65752 0.60944 0.09124 0.0
C402 C 0.66928 0.58659 0.10714 0.0
C403 C 0.669 0.58742 0.13752 0.0
C404 C 0.65881 0.61278 0.15216 0.0
C405 C 0.64669 0.63561 0.13619 0.0
C406 C 0.63001 0.65452 0.0883 0.0
C407 C 0.58812 0.63365 0.07862 0.0
C408 C 0.57554 0.64885 0.05638 0.0
C409 C 0.60475 0.68501 0.0435 0.0
C410 C 0.64591 0.70733 0.05457 0.0
C411 C 0.65853 0.69205 0.0769 0.0
C412 C 0.6566 0.60699 0.05927 0.0
C413 C 0.62199 0.57537 0.04526 0.0
C414 C 0.62212 0.57161 0.01527 0.0
C415 C 0.65707 0.59926 -0.00116 0.0
C416 C 0.69169 0.63101 0.01306 0.0
C417 C 0.69133 0.63492 0.04304 0.0
C418 C 0.68285 0.56219 0.09205 0.0
C419 C 0.6569 0.52084 0.09199 0.0
C420 C 0.67227 0.49782 0.0813 0.0
C421 C 0.7136 0.51608 0.07051 0.0
C422 C 0.73877 0.5574 0.06927 0.0
C423 C 0.72346 0.58038 0.08005 0.0
C424 C 0.67848 0.56086 0.15408 0.0
C425 C 0.64611 0.52819 0.16886 0.0
C426 C 0.65502 0.50371 0.185 0.0
C427 C 0.69655 0.51159 0.18672 0.0
C428 C 0.72888 0.54437 0.17181 0.0
C429 C 0.71988 0.56869 0.15553 0.0
C430 C 0.6605 0.61409 0.18422 0.0
C431 C 0.62318 0.59778 0.20055 0.0
C432 C 0.62318 0.58805 0.22958 0.0
C433 C 0.65998 0.59259 0.24203 0.0
C434 C 0.69794 0.61221 0.22634 0.0
C435 C 0.69841 0.62404 0.198 0.0
C436 C 0.63521 0.66156 0.15134 0.0
C437 C 0.5928 0.65079 0.15303 0.0
C438 C 0.5818 0.67502 0.16752 0.0
C439 C 0.61308 0.7103 0.18042 0.0
C440 C 0.65551 0.72108 0.17887 0.0
C441 C 0.66651 0.6967 0.16445 0.0
C442 C 0.65722 0.59501 0.967 0.0
C443 C 0.70623 0.48583 0.204 0.0
C444 C 0.76135 0.48577 0.38786 0.0
O445 O 0.76844 0.517 0.40065 0.0
Cd446 Cd 0.71258 0.52827 0.41449 0.0
O447 O 0.72377 0.45796 0.38262 0.0
Cd448 Cd 0.65166 0.44416 0.39089 0.0
C449 C 0.6697 0.52019 0.34825 0.0
O450 O 0.65605 0.47262 0.43852 0.0
O451 O 0.60213 0.45994 0.41216 0.0
O452 O 0.63359 0.38074 0.40997 0.0
C453 C 0.62064 0.47016 0.4364 0.0
O454 O 0.68542 0.54119 0.37084 0.0
C455 C 0.60348 0.35999 0.39273 0.0
O456 O 0.6585 0.4838 0.34816 0.0
O457 O 0.59569 0.37816 0.37348 0.0
C458 C 0.31175 0.6018 0.56051 0.0
O459 O 0.28621 0.57342 0.54437 0.0
Cd460 Cd 0.21837 0.56162 0.53025 0.0
O461 O 0.30425 0.62838 0.56833 0.0
Cd462 Cd 0.24992 0.64625 0.55957 0.0
C463 C 0.18072 0.56578 0.59799 0.0
O464 O 0.22532 0.62002 0.51126 0.0
O465 O 0.18399 0.63188 0.53657 0.0
O466 O 0.30515 0.70969 0.54137 0.0
C467 C 0.19183 0.62114 0.51276 0.0
O468 O 0.17882 0.54711 0.57505 0.0
C469 C 0.29828 0.73091 0.55826 0.0
O470 O 0.20672 0.60304 0.60019 0.0
O471 O 0.26939 0.71305 0.57716 0.0
C472 C 0.72635 0.25434 0.75413 0.0
O473 O 0.71574 0.21859 0.75055 0.0
Cd474 Cd 0.64505 0.16725 0.73834 0.0
O475 O 0.69932 0.26473 0.75212 0.0
Cd476 Cd 0.62255 0.23166 0.74244 0.0
C477 C 0.59031 0.1668 0.79725 0.0
O478 O 0.61965 0.19171 0.70101 0.0
O479 O 0.55948 0.17961 0.71745 0.0
O480 O 0.63571 0.29152 0.71817 0.0
C481 C 0.5799 0.17388 0.69813 0.0
O482 O 0.60189 0.14747 0.78192 0.0
C483 C 0.6108 0.29628 0.73404 0.0
O484 O 0.59699 0.20015 0.7891 0.0
O485 O 0.59141 0.27117 0.7539 0.0
C486 C 0.40252 0.56142 0.89065 0.0
O487 O 0.43378 0.55701 0.89371 0.0
Cd488 Cd 0.50273 0.61518 0.89793 0.0
O489 O 0.40682 0.59537 0.89205 0.0
Cd490 Cd 0.45806 0.66569 0.9003 0.0
C491 C 0.49805 0.66067 0.83605 0.0
O492 O 0.49513 0.65213 0.93655 0.0
O493 O 0.52485 0.7137 0.92422 0.0
O494 O 0.40015 0.66465 0.9264 0.0
C495 C 0.52362 0.68786 0.94093 0.0
O496 O 0.51196 0.64123 0.84861 0.0
C497 C 0.40738 0.6971 0.91579 0.0
O498 O 0.47782 0.67328 0.84985 0.0
O499 O 0.43724 0.71413 0.89758 0.0
C500 C 0.7946 0.42979 0.04302 0.0
O501 O 0.83298 0.44957 0.03515 0.0
Cd502 Cd 0.87394 0.41967 0.02852 0.0
O503 O 0.77568 0.39268 0.04732 0.0
Cd504 Cd 0.79065 0.33912 0.04494 0.0
C505 C 0.86201 0.38655 0.09821 0.0
O506 O 0.82901 0.36252 0.0001 0.0
O507 O 0.83372 0.31616 0.02061 0.0
O508 O 0.71816 0.30032 0.0284 0.0
C509 C 0.84078 0.33789 -0.0013 0.0
O510 O 0.88707 0.40838 0.0783 0.0
C511 C 0.70949 0.26927 0.04209 0.0
O512 O 0.82405 0.35996 0.09243 0.0
O513 O 0.73807 0.27108 0.05821 0.0
C514 C 0.3735 0.73957 0.24099 0.0
O515 O 0.35986 0.76189 0.23425 0.0
Cd516 Cd 0.40431 0.83168 0.22967 0.0
O517 O 0.41271 0.75326 0.24472 0.0
Cd518 Cd 0.48009 0.8176 0.24035 0.0
C519 C 0.45354 0.85556 0.29586 0.0
O520 O 0.45971 0.84017 0.19885 0.0
O521 O 0.51889 0.88428 0.21808 0.0
O522 O 0.50216 0.77948 0.21353 0.0
C523 C 0.49235 0.87444 0.1978 0.0
O524 O 0.42849 0.85731 0.27811 0.0
C525 C 0.53557 0.79025 0.2277 0.0
O526 O 0.47554 0.84074 0.28871 0.0
O527 O 0.54395 0.81414 0.24857 0.0
C528 C 0.29386 0.64265 0.27611 0.0
C529 C 0.2698 0.62213 0.25139 0.0
C530 C 0.32373 0.67326 0.22001 0.0
C531 C 0.34286 0.69703 0.24476 0.0
N532 N 0.34829 0.70517 0.29642 0.0
N533 N 0.26262 0.61477 0.19983 0.0
C534 C 0.32919 0.68162 0.27289 0.0
C535 C 0.28549 0.63621 0.22326 0.0
N536 N 0.28252 0.6251 0.30262 0.0
N537 N 0.34228 0.6864 0.19358 0.0
H538 H 0.23581 0.58651 0.20179 0.0
H539 H 0.26928 0.62511 0.1787 0.0
H540 H 0.37046 0.71347 0.19084 0.0
H541 H 0.33191 0.66949 0.17482 0.0
H542 H 0.30118 0.6368 0.32096 0.0
H543 H 0.2563 0.59692 0.30588 0.0
H544 H 0.33649 0.6977 0.31736 0.0
H545 H 0.37511 0.73345 0.29486 0.0
C546 C 0.556 0.24902 0.38393 0.0
C547 C 0.53899 0.23634 0.41203 0.0
C548 C 0.55412 0.3028 0.42343 0.0
C549 C 0.57674 0.31674 0.39711 0.0
N550 N 0.60134 0.30426 0.35251 0.0
N551 N 0.52484 0.25137 0.45975 0.0
C552 C 0.5778 0.29009 0.37716 0.0
C553 C 0.53848 0.2632 0.43206 0.0
N554 N 0.55103 0.22169 0.36376 0.0
N555 N 0.54689 0.32737 0.43988 0.0
H556 H 0.51252 0.22244 0.46689 0.0
H557 H 0.52855 0.27079 0.47626 0.0
H558 H 0.55712 0.35633 0.43375 0.0
H559 H 0.52728 0.31802 0.45795 0.0
H560 H 0.55907 0.22839 0.3421 0.0
H561 H 0.53557 0.1915 0.36824 0.0
H562 H 0.60747 0.2871 0.3387 0.0
H563 H 0.61699 0.33401 0.34667 0.0
C564 C 0.41296 0.59984 0.56085 0.0
C565 C 0.4167 0.5943 0.59068 0.0
C566 C 0.35311 0.59635 0.60115 0.0
C567 C 0.34978 0.6027 0.57135 0.0
N568 N 0.38084 0.61894 0.52385 0.0
N569 N 0.39653 0.59566 0.63995 0.0
C570 C 0.3811 0.60704 0.55149 0.0
C571 C 0.3888 0.59543 0.61108 0.0
N572 N 0.43894 0.59685 0.54142 0.0
N573 N 0.32098 0.58878 0.61967 0.0
H574 H 0.42203 0.59438 0.64795 0.0
H575 H 0.37997 0.60055 0.65592 0.0
H576 H 0.29416 0.58895 0.61334 0.0
H577 H 0.3192 0.57929 0.64085 0.0
H578 H 0.43464 0.59582 0.51917 0.0
H579 H 0.46359 0.59306 0.54763 0.0
H580 H 0.40501 0.62641 0.50905 0.0
H581 H 0.35812 0.62475 0.51642 0.0
C582 C 0.83943 0.3404 0.74484 0.0
C583 C 0.8574 0.33783 0.77108 0.0
C584 C 0.78794 0.28473 0.78785 0.0
C585 C 0.77093 0.28438 0.7604 0.0
N586 N 0.78033 0.30889 0.71165 0.0
N587 N 0.85056 0.30594 0.8168 0.0
C588 C 0.79655 0.31164 0.73863 0.0
C589 C 0.8321 0.30966 0.79247 0.0
N590 N 0.8633 0.37068 0.72611 0.0
N591 N 0.7616 0.26201 0.8097 0.0
H592 H 0.88262 0.32436 0.82137 0.0
H593 H 0.83483 0.28306 0.83163 0.0
H594 H 0.72907 0.24334 0.80701 0.0
H595 H 0.77122 0.26402 0.83105 0.0
H596 H 0.85105 0.37678 0.70805 0.0
H597 H 0.89501 0.39182 0.72984 0.0
H598 H 0.7985 0.32481 0.69391 0.0
H599 H 0.74894 0.28853 0.70636 0.0
C600 C 0.35358 0.75494 0.90914 0.0
C601 C 0.35848 0.76963 0.93763 0.0
C602 C 0.38509 0.72802 0.95367 0.0
C603 C 0.38332 0.71555 0.92466 0.0
N604 N 0.35417 0.70681 0.87694 0.0
N605 N 0.36423 0.76061 0.98836 0.0
C606 C 0.36343 0.72552 0.90309 0.0
C607 C 0.36881 0.75246 0.9604 0.0
N608 N 0.34169 0.7708 0.88778 0.0
N609 N 0.40546 0.71949 0.97428 0.0
H610 H 0.35258 0.77867 0.99377 0.0
H611 H 0.36774 0.74636 0.00601 0.0
H612 H 0.4181 0.70184 0.97046 0.0
H613 H 0.41248 0.73213 0.99479 0.0
H614 H 0.34238 0.7651 0.8659 0.0
H615 H 0.33235 0.79097 0.89217 0.0
H616 H 0.33688 0.71051 0.86096 0.0
H617 H 0.3606 0.68471 0.87228 0.0
C618 C 0.73459 0.48263 0.03418 0.0
C619 C 0.73235 0.49218 0.06337 0.0
C620 C 0.76744 0.45762 0.07922 0.0
C621 C 0.77256 0.45069 0.04986 0.0
N622 N 0.76488 0.45875 -0.00088 0.0
N623 N 0.75019 0.4933 0.11356 0.0
C624 C 0.75723 0.46382 0.02721 0.0
C625 C 0.74954 0.48072 0.08591 0.0
N626 N 0.71419 0.49076 0.01334 0.0
N627 N 0.77957 0.44197 0.10069 0.0
H628 H 0.73654 0.50954 0.11945 0.0
H629 H 0.76661 0.49007 0.13042 0.0
H630 H 0.79507 0.4268 0.09679 0.0
H631 H 0.77208 0.44181 0.12238 0.0
H632 H 0.71086 0.48111 0.99206 0.0
H633 H 0.69776 0.50496 0.01777 0.0
H634 H 0.75874 0.47139 0.98163 0.0
H635 H 0.77979 0.44359 0.99326 0.0
C636 C 0.34079 0.82798 0.51861 0.0
C637 C 0.3685 0.85559 0.53945 0.0
C638 C 0.34932 0.80147 0.57373 0.0
C639 C 0.32 0.77423 0.55336 0.0
N640 N 0.28064 0.76244 0.50932 0.0
N641 N 0.39477 0.87017 0.5882 0.0
C642 C 0.31366 0.7878 0.52663 0.0
C643 C 0.37142 0.84278 0.56748 0.0
N644 N 0.34136 0.8399 0.49084 0.0
N645 N 0.35729 0.78775 0.59845 0.0
H646 H 0.4119 0.9005 0.58412 0.0
H647 H 0.39478 0.86316 0.60984 0.0
H648 H 0.34122 0.75782 0.60384 0.0
H649 H 0.38161 0.80556 0.61267 0.0
H650 H 0.32555 0.82033 0.47392 0.0
H651 H 0.36046 0.86915 0.48405 0.0
H652 H 0.27171 0.77143 0.491 0.0
H653 H 0.25938 0.73302 0.51484 0.0
C654 C 0.58149 0.36279 0.69549 0.0
C655 C 0.58844 0.39034 0.71762 0.0
C656 C 0.61334 0.35802 0.74998 0.0
C657 C 0.60303 0.32861 0.72861 0.0
N658 N 0.57003 0.29856 0.68317 0.0
N659 N 0.60545 0.41177 0.76704 0.0
C660 C 0.58518 0.32979 0.7019 0.0
C661 C 0.6028 0.38728 0.74524 0.0
N662 N 0.5724 0.36874 0.66809 0.0
N663 N 0.63469 0.35888 0.77425 0.0
H664 H 0.59865 0.43394 0.76409 0.0
H665 H 0.61129 0.4083 0.78846 0.0
H666 H 0.64318 0.3381 0.77836 0.0
H667 H 0.64705 0.38191 0.78917 0.0
H668 H 0.57175 0.35227 0.65034 0.0
H669 H 0.56893 0.39234 0.66263 0.0
H670 H 0.55245 0.29577 0.66487 0.0
H671 H 0.57153 0.27346 0.6872 0.0
C672 C 0.28546 0.49033 0.89633 0.0
C673 C 0.27578 0.48589 0.86649 0.0
C674 C 0.35059 0.51672 0.85427 0.0
C675 C 0.36042 0.5276 0.88363 0.0
N676 N 0.33932 0.52312 0.93325 0.0
N677 N 0.29726 0.49209 0.81669 0.0
C678 C 0.32839 0.51318 0.90497 0.0
C679 C 0.3078 0.4975 0.84532 0.0
N680 N 0.25347 0.47319 0.91615 0.0
N681 N 0.38236 0.52572 0.83503 0.0
H682 H 0.26603 0.47672 0.80953 0.0
H683 H 0.31911 0.50402 0.79993 0.0
H684 H 0.41404 0.54031 0.84109 0.0
H685 H 0.37743 0.5162 0.81366 0.0
H686 H 0.25815 0.47272 0.93824 0.0
H687 H 0.22172 0.45669 0.91022 0.0
H688 H 0.31783 0.51765 0.94972 0.0
H689 H 0.37069 0.53811 0.94015 0.0
C690 C 0.60788 0.17155 0.05722 0.0
C691 C 0.59464 0.1577 0.02868 0.0
C692 C 0.65682 0.21648 0.00909 0.0
C693 C 0.66899 0.23166 0.03754 0.0
N694 N 0.65172 0.22776 0.08816 0.0
N695 N 0.60037 0.17072 0.97755 0.0
C696 C 0.6432 0.2104 0.06151 0.0
C697 C 0.61711 0.18152 0.00465 0.0
N698 N 0.58767 0.14713 0.08013 0.0
N699 N 0.68426 0.23383 0.9865 0.0
H700 H 0.57124 0.14513 0.97347 0.0
H701 H 0.61337 0.18904 0.95962 0.0
H702 H 0.71459 0.25846 0.98879 0.0
H703 H 0.67868 0.2214 0.96594 0.0
H704 H 0.59886 0.15389 0.10123 0.0
H705 H 0.56117 0.1188 0.07778 0.0
H706 H 0.6317 0.21523 0.10586 0.0
H707 H 0.67688 0.25646 0.09195 0.0
C708 C 0.58767 0.72952 0.22397 0.0
C709 C 0.60093 0.73637 0.19471 0.0
C710 C 0.58326 0.78766 0.19123 0.0
C711 C 0.56393 0.77639 0.21881 0.0
N712 N 0.54641 0.73645 0.26167 0.0
N713 N 0.61098 0.7709 0.14981 0.0
C714 C 0.56642 0.74777 0.23553 0.0
C715 C 0.59914 0.76555 0.17823 0.0
N716 N 0.59538 0.70551 0.24056 0.0
N717 N 0.58678 0.8199 0.17774 0.0
H718 H 0.62417 0.75623 0.13982 0.0
H719 H 0.6056 0.78813 0.13564 0.0
H720 H 0.57583 0.83691 0.187 0.0
H721 H 0.60384 0.83198 0.15879 0.0
H722 H 0.59021 0.70217 0.26275 0.0
H723 H 0.61022 0.69122 0.2325 0.0
H724 H 0.54259 0.71245 0.27341 0.0
H725 H 0.53145 0.74987 0.27106 0.0
C726 C 0.83474 0.47346 0.3373 0.0
C727 C 0.86644 0.47835 0.35683 0.0
C728 C 0.82629 0.48278 0.39728 0.0
C729 C 0.79715 0.48247 0.37734 0.0
N730 N 0.77698 0.48364 0.32798 0.0
N731 N 0.89539 0.49171 0.40492 0.0
C732 C 0.80206 0.47916 0.34722 0.0
C733 C 0.86299 0.48398 0.38674 0.0
N734 N 0.83573 0.46298 0.30929 0.0
N735 N 0.81815 0.48058 0.42624 0.0
H736 H 0.9222 0.49171 0.39812 0.0
H737 H 0.89707 0.5007 0.42626 0.0
H738 H 0.79145 0.47939 0.4347 0.0
H739 H 0.83581 0.47652 0.44172 0.0
H740 H 0.81116 0.45485 0.29476 0.0
H741 H 0.8595 0.45898 0.30122 0.0
H742 H 0.7821 0.4859 0.30577 0.0
H743 H 0.75326 0.48877 0.33423 0.0
C744 C 0.15125 0.60959 0.43638 0.0
C745 C 0.10934 0.5765 0.43922 0.0
C746 C 0.12058 0.57371 0.49111 0.0
C747 C 0.16186 0.60755 0.48829 0.0
N748 N 0.21238 0.66353 0.46013 0.0
N749 N 0.05087 0.53338 0.47005 0.0
C750 C 0.17584 0.62734 0.46149 0.0
C751 C 0.09296 0.56062 0.46691 0.0
N752 N 0.16863 0.62281 0.40969 0.0
N753 N 0.1085 0.55275 0.51633 0.0
H754 H 0.02985 0.5236 0.45272 0.0
H755 H 0.03618 0.52344 0.49004 0.0
H756 H 0.12783 0.56099 0.53448 0.0
H757 H 0.08065 0.52541 0.51854 0.0
H758 H 0.20048 0.64364 0.40637 0.0
H759 H 0.15221 0.61083 0.39059 0.0
H760 H 0.22186 0.68144 0.44186 0.0
H761 H 0.23122 0.67746 0.47815 0.0
C762 C 0.50703 0.08514 0.65078 0.0
C763 C 0.52065 0.1021 0.62299 0.0
C764 C 0.56931 0.16671 0.64476 0.0
C765 C 0.55866 0.14907 0.67249 0.0
N766 N 0.52182 0.09071 0.70218 0.0
N767 N 0.56954 0.15726 0.59323 0.0
C768 C 0.52853 0.10805 0.67564 0.0
C769 C 0.55327 0.14237 0.61991 0.0
N770 N 0.47333 0.04734 0.65336 0.0
N771 N 0.59318 0.20698 0.64217 0.0
H772 H 0.55831 0.14065 0.57437 0.0
H773 H 0.59652 0.18498 0.58999 0.0
H774 H 0.6049 0.22602 0.65988 0.0
H775 H 0.59792 0.22176 0.62266 0.0
H776 H 0.45883 0.03468 0.67296 0.0
H777 H 0.458 0.02936 0.63555 0.0
H778 H 0.50361 0.0603 0.70548 0.0
H779 H 0.53721 0.10647 0.7208 0.0
C780 C 0.46712 0.64303 0.75697 0.0
C781 C 0.50719 0.65642 0.74469 0.0
C782 C 0.54019 0.68819 0.79043 0.0
C783 C 0.50067 0.66408 0.80427 0.0
N784 N 0.42477 0.61975 0.80018 0.0
N785 N 0.57498 0.71651 0.74478 0.0
C786 C 0.46336 0.64254 0.78741 0.0
C787 C 0.54228 0.68677 0.75986 0.0
N788 N 0.43409 0.63525 0.7396 0.0
N789 N 0.57564 0.71154 0.80634 0.0
H790 H 0.57402 0.71767 0.72227 0.0
H791 H 0.59995 0.74151 0.75451 0.0
H792 H 0.57479 0.7145 0.82868 0.0
H793 H 0.60586 0.7264 0.79739 0.0
H794 H 0.40482 0.62861 0.7476 0.0
H795 H 0.43826 0.64031 0.71737 0.0
H796 H 0.39769 0.60054 0.78845 0.0
H797 H 0.42028 0.61778 0.82248 0.0
C798 C 0.93071 0.35396 0.94968 0.0
C799 C 0.91241 0.35222 0.92246 0.0
C800 C 0.84415 0.32889 0.94572 0.0
C801 C 0.8642 0.33721 0.97307 0.0
N802 N 0.92728 0.3602 0.00149 0.0
N803 N 0.85234 0.33937 0.89394 0.0
C804 C 0.90755 0.34977 0.97526 0.0
C805 C 0.86909 0.3395 0.92022 0.0
N806 N 0.97029 0.35963 0.95095 0.0
N807 N 0.80116 0.31042 0.94426 0.0
H808 H 0.86953 0.34624 0.87475 0.0
H809 H 0.8223 0.33484 0.89127 0.0
H810 H 0.7821 0.30199 0.96263 0.0
H811 H 0.78416 0.30017 0.92511 0.0
H812 H 0.98394 0.35748 0.96992 0.0
H813 H 0.988 0.36287 0.9325 0.0
H814 H 0.95985 0.37412 0.00397 0.0
H815 H 0.91154 0.35759 0.02079 0.0
C816 C 0.49112 0.90011 0.12029 0.0
C817 C 0.49467 0.93746 0.12256 0.0
C818 C 0.50171 0.93625 0.17511 0.0
C819 C 0.49985 0.89972 0.17242 0.0
N820 N 0.50581 0.85333 0.14222 0.0
N821 N 0.51233 0.99507 0.15094 0.0
C822 C 0.49887 0.88383 0.14487 0.0
C823 C 0.50293 0.95689 0.14965 0.0
N824 N 0.47779 0.87891 0.09518 0.0
N825 N 0.50006 0.95013 0.2018 0.0
H826 H 0.51347 0.01086 0.13262 0.0
H827 H 0.52253 0.0121 0.16968 0.0
H828 H 0.49955 0.93602 0.22089 0.0
H829 H 0.4964 0.97418 0.20498 0.0
H830 H 0.4701 0.84968 0.09349 0.0
H831 H 0.47036 0.88897 0.07674 0.0
H832 H 0.50944 0.84304 0.12236 0.0
H833 H 0.51251 0.84122 0.15989 0.0
C834 C 0.63121 0.53332 0.27535 0.0
C835 C 0.65894 0.57452 0.27047 0.0
C836 C 0.69682 0.5787 0.31462 0.0
C837 C 0.66553 0.53896 0.32164 0.0
N838 N 0.59535 0.48316 0.31179 0.0
N839 N 0.71015 0.6381 0.29056 0.0
C840 C 0.63033 0.51759 0.30299 0.0
C841 C 0.68905 0.5978 0.29185 0.0
N842 N 0.60737 0.50857 0.25349 0.0
N843 N 0.73518 0.59756 0.32807 0.0
H844 H 0.70401 0.65312 0.27473 0.0
H845 H 0.73008 0.65613 0.30702 0.0
H846 H 0.74458 0.58357 0.34256 0.0
H847 H 0.75973 0.6255 0.32182 0.0
H848 H 0.58985 0.47791 0.2558 0.0
H849 H 0.60874 0.51796 0.23233 0.0
H850 H 0.56788 0.46849 0.29945 0.0
H851 H 0.59174 0.47204 0.33266 0.0
C852 C 0.44214 0.86857 0.37629 0.0
C853 C 0.45776 0.90971 0.37695 0.0
C854 C 0.47894 0.91557 0.32616 0.0
C855 C 0.45886 0.87392 0.32456 0.0
N856 N 0.41871 0.80982 0.34695 0.0
N857 N 0.48613 0.97187 0.35186 0.0
C858 C 0.44002 0.85008 0.34939 0.0
C859 C 0.47507 0.93314 0.35173 0.0
N860 N 0.42999 0.84744 0.40143 0.0
N861 N 0.5024 0.93835 0.30332 0.0
H862 H 0.48379 0.98598 0.37013 0.0
H863 H 0.49431 0.98918 0.33333 0.0
H864 H 0.50601 0.92637 0.28423 0.0
H865 H 0.52147 0.96904 0.3042 0.0
H866 H 0.42223 0.81821 0.40297 0.0
H867 H 0.43062 0.86012 0.42133 0.0
H868 H 0.40018 0.79059 0.36335 0.0
H869 H 0.41753 0.79546 0.32776 0.0
C870 C 0.57308 0.51571 0.48401 0.0
C871 C 0.56906 0.49603 0.51039 0.0
C872 C 0.5927 0.45557 0.48674 0.0
C873 C 0.60155 0.47843 0.46136 0.0
N874 N 0.60547 0.53372 0.43655 0.0
N875 N 0.58185 0.45195 0.53826 0.0
C876 C 0.5929 0.50932 0.46005 0.0
C877 C 0.58056 0.46711 0.51212 0.0
N878 N 0.55738 0.54002 0.48179 0.0
N879 N 0.59456 0.42202 0.4864 0.0
H880 H 0.57339 0.45963 0.5575 0.0
H881 H 0.59499 0.43456 0.54115 0.0
H882 H 0.60308 0.41231 0.46815 0.0
H883 H 0.58376 0.40178 0.50334 0.0
H884 H 0.55545 0.55214 0.46236 0.0
H885 H 0.54292 0.54538 0.49905 0.0
H886 H 0.6041 0.55926 0.43565 0.0
H887 H 0.62063 0.53039 0.41878 0.0
C888 C 0.0921 0.52343 0.65456 0.0
C889 C 0.09469 0.49091 0.6646 0.0
C890 C 0.15018 0.50633 0.62971 0.0
C891 C 0.15261 0.54216 0.62233 0.0
N892 N 0.12302 0.58376 0.62614 0.0
N893 N 0.09886 0.43907 0.64082 0.0
C894 C 0.12261 0.55047 0.63423 0.0
C895 C 0.11607 0.47823 0.64657 0.0
N896 N 0.05717 0.52491 0.66134 0.0
N897 N 0.18037 0.49877 0.62087 0.0
H898 H 0.06813 0.4182 0.64735 0.0
H899 H 0.11205 0.42879 0.6259 0.0
H900 H 0.20754 0.51939 0.60975 0.0
H901 H 0.18008 0.47345 0.62742 0.0
H902 H 0.05079 0.54557 0.65297 0.0
H903 H 0.03204 0.50216 0.67289 0.0
H904 H 0.10548 0.59379 0.63654 0.0
H905 H 0.14243 0.60255 0.60982 0.0
C906 C 0.50718 0.09164 0.84793 0.0
C907 C 0.52354 0.10996 0.87506 0.0
C908 C 0.58304 0.16692 0.85117 0.0
C909 C 0.56623 0.14889 0.82404 0.0
N910 N 0.50722 0.09967 0.79611 0.0
N911 N 0.57048 0.16818 0.90252 0.0
C912 C 0.52667 0.11293 0.82227 0.0
C913 C 0.5594 0.14875 0.87664 0.0
N914 N 0.47426 0.05329 0.84664 0.0
N915 N 0.62244 0.20017 0.85274 0.0
H916 H 0.55324 0.15552 0.92138 0.0
H917 H 0.594 0.19784 0.90476 0.0
H918 H 0.64085 0.21422 0.83456 0.0
H919 H 0.63827 0.21214 0.87209 0.0
H920 H 0.46459 0.03678 0.82765 0.0
H921 H 0.4582 0.03694 0.86487 0.0
H922 H 0.47643 0.0758 0.7938 0.0
H923 H 0.52029 0.11484 0.77685 0.0
C924 C 0.56752 0.71292 0.01693 0.0
C925 C 0.59306 0.69612 0.0161 0.0
C926 C 0.58418 0.68809 0.96363 0.0
C927 C 0.55297 0.69821 0.96537 0.0
N928 N 0.51475 0.7213 0.99275 0.0
N929 N 0.6264 0.6676 0.98913 0.0
C930 C 0.54516 0.71173 0.99167 0.0
C931 C 0.6023 0.68438 0.98946 0.0
N932 N 0.56468 0.72972 0.04196 0.0
N933 N 0.5963 0.68202 0.93718 0.0
H934 H 0.6412 0.6654 0.00747 0.0
H935 H 0.63 0.65396 0.97108 0.0
H936 H 0.58335 0.68465 0.91796 0.0
H937 H 0.62156 0.67799 0.93403 0.0
H938 H 0.54945 0.74544 0.04359 0.0
H939 H 0.58076 0.73071 0.06069 0.0
H940 H 0.50386 0.72689 0.01182 0.0
H941 H 0.49886 0.72199 0.97444 0.0
C942 C 0.9205 0.44633 0.16435 0.0
C943 C 0.90816 0.4167 0.18582 0.0
C944 C 0.86739 0.36598 0.14918 0.0
C945 C 0.87608 0.39606 0.1288 0.0
N946 N 0.89846 0.46475 0.12145 0.0
N947 N 0.861 0.34872 0.19988 0.0
C948 C 0.89883 0.43622 0.13771 0.0
C949 C 0.87879 0.37656 0.17862 0.0
N950 N 0.95424 0.48375 0.1685 0.0
N951 N 0.85018 0.32768 0.14043 0.0
H952 H 0.86744 0.35571 0.22172 0.0
H953 H 0.83666 0.31972 0.19601 0.0
H954 H 0.84312 0.31888 0.11893 0.0
H955 H 0.84701 0.30543 0.15408 0.0
H956 H 0.96638 0.50489 0.15212 0.0
H957 H 0.97307 0.49239 0.18687 0.0
H958 H 0.91192 0.49387 0.12854 0.0
H959 H 0.88025 0.45846 0.10286 0.0
loop_
_geom_bond_atom_site_label_1
_geom_bond_atom_site_label_2
_geom_bond_distance
_geom_bond_site_symmetry_2
_ccdc_geom_bond_type
H0 O26 0.856 . S
H1 O29 0.854 . S
H2 C37 0.930 1_455 S
H3 C38 0.930 . S
H4 C40 0.930 . S
H5 C41 0.930 . S
H6 C43 0.931 . S
H7 C44 0.930 . S
H8 C46 0.930 . S
H9 C47 0.929 . S
H10 C49 0.930 . S
H11 C50 0.931 . S
H12 C52 0.930 . S
H13 C53 0.929 . S
H14 C55 0.931 . S
H15 C56 0.930 . S
H16 C58 0.930 . S
H17 C59 0.932 . S
H18 C61 0.930 . S
H19 C62 0.929 . S
H20 C64 0.931 . S
H21 C65 0.930 . S
H22 C67 0.929 . S
H23 C68 0.931 . S
H24 C70 0.930 . S
H25 C71 0.929 . S
O26 H0 0.856 . S
O26 C72 1.300 . S
O27 C72 1.209 . S
O28 C73 1.199 . S
O29 H1 0.854 . S
O29 C73 1.297 . S
C30 C31 1.404 . S
C30 C35 1.397 . S
C30 C36 1.492 . S
C31 C30 1.404 . S
C31 C32 1.396 . S
C31 C42 1.492 . S
C32 C31 1.396 . S
C32 C33 1.397 . S
C32 C48 1.509 . S
C33 C32 1.397 . S
C33 C34 1.412 . S
C33 C54 1.485 . S
C34 C33 1.412 . S
C34 C35 1.388 . S
C34 C60 1.490 . S
C35 C30 1.397 . S
C35 C34 1.388 . S
C35 C66 1.519 1_455 S
C36 C30 1.492 . S
C36 C37 1.363 1_455 S
C36 C41 1.390 1_455 S
C37 H2 0.930 1_655 S
C37 C36 1.363 1_655 S
C37 C38 1.372 . S
C38 H3 0.930 . S
C38 C37 1.372 . S
C38 C39 1.383 . S
C39 C38 1.383 . S
C39 C40 1.395 . S
C40 H4 0.930 . S
C40 C39 1.395 . S
C40 C41 1.362 . S
C41 H5 0.930 . S
C41 C36 1.390 1_655 S
C41 C40 1.362 . S
C42 C31 1.492 . S
C42 C43 1.377 . S
C42 C47 1.397 . S
C43 H6 0.931 . S
C43 C42 1.377 . S
C43 C44 1.376 . S
C44 H7 0.930 . S
C44 C43 1.376 . S
C44 C45 1.376 . S
C45 C44 1.376 . S
C45 C46 1.378 . S
C45 C72 1.486 . S
C46 H8 0.930 . S
C46 C45 1.378 . S
C46 C47 1.376 . S
C47 H9 0.929 . S
C47 C42 1.397 . S
C47 C46 1.376 . S
C48 C32 1.509 . S
C48 C49 1.391 . S
C48 C53 1.386 . S
C49 H10 0.930 . S
C49 C48 1.391 . S
C49 C50 1.375 . S
C50 H11 0.931 . S
C50 C49 1.375 . S
C50 C51 1.375 . S
C51 C50 1.375 . S
C51 C52 1.361 . S
C52 H12 0.930 . S
C52 C51 1.361 . S
C52 C53 1.399 . S
C53 H13 0.929 . S
C53 C48 1.386 . S
C53 C52 1.399 . S
C54 C33 1.485 . S
C54 C55 1.394 . S
C54 C59 1.360 . S
C55 H14 0.931 . S
C55 C54 1.394 . S
C55 C56 1.372 . S
C56 H15 0.930 . S
C56 C55 1.372 . S
C56 C57 1.397 . S
C57 C56 1.397 . S
C57 C58 1.390 . S
C57 C73 1.476 . S
C58 H16 0.930 . S
C58 C57 1.390 . S
C58 C59 1.366 . S
C59 H17 0.932 . S
C59 C54 1.360 . S
C59 C58 1.366 . S
C60 C34 1.490 . S
C60 C61 1.380 . S
C60 C65 1.386 . S
C61 H18 0.930 . S
C61 C60 1.380 . S
C61 C62 1.381 . S
C62 H19 0.929 . S
C62 C61 1.381 . S
C62 C63 1.371 . S
C63 C62 1.371 . S
C63 C64 1.380 . S
C64 H20 0.931 . S
C64 C63 1.380 . S
C64 C65 1.387 . S
C65 H21 0.930 . S
C65 C60 1.386 . S
C65 C64 1.387 . S
C66 C35 1.519 1_655 S
C66 C67 1.377 . S
C66 C71 1.361 . S
C67 H22 0.929 . S
C67 C66 1.377 . S
C67 C68 1.386 . S
C68 H23 0.931 . S
C68 C67 1.386 . S
C68 C69 1.363 . S
C69 C68 1.363 . S
C69 C70 1.385 . S
C70 H24 0.930 . S
C70 C69 1.385 . S
C70 C71 1.396 . S
C71 H25 0.929 . S
C71 C66 1.361 . S
C71 C70 1.396 . S
C72 O26 1.300 . S
C72 O27 1.209 . S
C72 C45 1.486 . S
C73 O28 1.199 . S
C73 O29 1.297 . S
C73 C57 1.476 . S
H74 O100 0.856 . S
H75 O103 0.854 . S
H76 C111 0.921 1_545 S
H77 C112 0.930 . S
H78 C114 0.930 . S
H79 C115 0.930 . S
H80 C117 0.931 . S
H81 C118 0.930 . S
H82 C120 0.930 . S
H83 C121 0.929 . S
H84 C123 0.930 . S
H85 C124 0.931 . S
H86 C126 0.930 . S
H87 C127 0.929 . S
H88 C129 0.931 . S
H89 C130 0.930 . S
H90 C132 0.930 . S
H91 C133 0.932 . S
H92 C135 0.930 . S
H93 C136 0.929 . S
H94 C138 0.931 . S
H95 C139 0.930 . S
H96 C141 0.929 . S
H97 C142 0.931 . S
H98 C144 0.930 . S
H99 C145 0.929 . S
O100 H74 0.856 . S
O100 C146 1.300 . S
O101 C146 1.209 . S
O102 C147 1.199 . S
O103 H75 0.854 . S
O103 C147 1.297 . S
C104 C105 1.404 . S
C104 C109 1.397 . S
C104 C110 1.492 . S
C105 C104 1.404 . S
C105 C106 1.396 . S
C105 C116 1.492 . S
C106 C105 1.396 . S
C106 C107 1.397 . S
C106 C122 1.509 . S
C107 C106 1.397 . S
C107 C108 1.412 . S
C107 C128 1.485 . S
C108 C107 1.412 . S
C108 C109 1.388 . S
C108 C134 1.490 . S
C109 C104 1.397 . S
C109 C108 1.388 . S
C109 C140 1.519 1_545 S
C110 C104 1.492 . S
C110 C111 1.346 1_545 S
C110 C115 1.390 1_545 S
C111 H76 0.921 1_565 S
C111 C110 1.346 1_565 S
C111 C112 1.400 . S
C112 H77 0.930 . S
C112 C111 1.400 . S
C112 C113 1.383 . S
C113 C112 1.383 . S
C113 C114 1.395 . S
C114 H78 0.930 . S
C114 C113 1.395 . S
C114 C115 1.362 . S
C115 H79 0.930 . S
C115 C110 1.390 1_565 S
C115 C114 1.362 . S
C116 C105 1.492 . S
C116 C117 1.377 . S
C116 C121 1.397 . S
C117 H80 0.931 . S
C117 C116 1.377 . S
C117 C118 1.376 . S
C118 H81 0.930 . S
C118 C117 1.376 . S
C118 C119 1.376 . S
C119 C118 1.376 . S
C119 C120 1.378 . S
C119 C146 1.486 . S
C120 H82 0.930 . S
C120 C119 1.378 . S
C120 C121 1.376 . S
C121 H83 0.929 . S
C121 C116 1.397 . S
C121 C120 1.376 . S
C122 C106 1.509 . S
C122 C123 1.391 . S
C122 C127 1.386 . S
C123 H84 0.930 . S
C123 C122 1.391 . S
C123 C124 1.375 . S
C124 H85 0.931 . S
C124 C123 1.375 . S
C124 C125 1.375 . S
C125 C124 1.375 . S
C125 C126 1.361 . S
C126 H86 0.930 . S
C126 C125 1.361 . S
C126 C127 1.399 . S
C127 H87 0.929 . S
C127 C122 1.386 . S
C127 C126 1.399 . S
C128 C107 1.485 . S
C128 C129 1.394 . S
C128 C133 1.360 . S
C129 H88 0.931 . S
C129 C128 1.394 . S
C129 C130 1.372 . S
C130 H89 0.930 . S
C130 C129 1.372 . S
C130 C131 1.397 . S
C131 C130 1.397 . S
C131 C132 1.390 . S
C131 C147 1.476 . S
C132 H90 0.930 . S
C132 C131 1.390 . S
C132 C133 1.366 . S
C133 H91 0.932 . S
C133 C128 1.360 . S
C133 C132 1.366 . S
C134 C108 1.490 . S
C134 C135 1.380 . S
C134 C139 1.386 . S
C135 H92 0.930 . S
C135 C134 1.380 . S
C135 C136 1.381 . S
C136 H93 0.929 . S
C136 C135 1.381 . S
C136 C137 1.371 . S
C137 C136 1.371 . S
C137 C138 1.380 . S
C138 H94 0.931 . S
C138 C137 1.380 . S
C138 C139 1.387 . S
C139 H95 0.930 . S
C139 C134 1.386 . S
C139 C138 1.387 . S
C140 C109 1.519 1_565 S
C140 C141 1.377 . S
C140 C145 1.361 . S
C141 H96 0.929 . S
C141 C140 1.377 . S
C141 C142 1.386 . S
C142 H97 0.931 . S
C142 C141 1.386 . S
C142 C143 1.363 . S
C143 C142 1.363 . S
C143 C144 1.385 . S
C144 H98 0.930 . S
C144 C143 1.385 . S
C144 C145 1.396 . S
C145 H99 0.929 . S
C145 C140 1.361 . S
C145 C144 1.396 . S
C146 O100 1.300 . S
C146 O101 1.209 . S
C146 C119 1.486 . S
C147 O102 1.199 . S
C147 O103 1.297 . S
C147 C131 1.476 . S
H148 O174 0.856 . S
H149 O177 0.854 . S
H150 C185 0.930 . S
H151 C186 0.930 . S
H152 C188 0.930 . S
H153 C189 0.930 . S
H154 C191 0.931 . S
H155 C192 0.930 . S
H156 C194 0.930 . S
H157 C195 0.929 . S
H158 C197 0.930 . S
H159 C198 0.931 . S
H160 C200 0.930 . S
H161 C201 0.929 . S
H162 C203 0.931 . S
H163 C204 0.930 . S
H164 C206 0.930 . S
H165 C207 0.932 . S
H166 C209 0.930 . S
H167 C210 0.929 . S
H168 C212 0.931 . S
H169 C213 0.930 . S
H170 C215 0.929 . S
H171 C216 0.931 . S
H172 C218 0.930 . S
H173 C219 0.929 . S
O174 H148 0.856 . S
O174 C220 1.300 . S
O175 C220 1.209 . S
O176 C221 1.199 . S
O177 H149 0.854 . S
O177 C221 1.297 . S
C178 C179 1.404 . S
C178 C183 1.397 . S
C178 C184 1.492 . S
C179 C178 1.404 . S
C179 C180 1.396 . S
C179 C190 1.492 . S
C180 C179 1.396 . S
C180 C181 1.397 . S
C180 C196 1.509 . S
C181 C180 1.397 . S
C181 C182 1.412 . S
C181 C202 1.485 . S
C182 C181 1.412 . S
C182 C183 1.388 . S
C182 C208 1.490 . S
C183 C178 1.397 . S
C183 C182 1.388 . S
C183 C214 1.519 . S
C184 C178 1.492 . S
C184 C185 1.363 . S
C184 C189 1.390 . S
C185 H150 0.930 . S
C185 C184 1.363 . S
C185 C186 1.372 . S
C186 H151 0.930 . S
C186 C185 1.372 . S
C186 C187 1.383 . S
C187 C186 1.383 . S
C187 C188 1.395 . S
C188 H152 0.930 . S
C188 C187 1.395 . S
C188 C189 1.362 . S
C189 H153 0.930 . S
C189 C184 1.390 . S
C189 C188 1.362 . S
C190 C179 1.492 . S
C190 C191 1.377 . S
C190 C195 1.397 . S
C191 H154 0.931 . S
C191 C190 1.377 . S
C191 C192 1.376 . S
C192 H155 0.930 . S
C192 C191 1.376 . S
C192 C193 1.376 . S
C193 C192 1.376 . S
C193 C194 1.378 . S
C193 C220 1.486 . S
C194 H156 0.930 . S
C194 C193 1.378 . S
C194 C195 1.376 . S
C195 H157 0.929 . S
C195 C190 1.397 . S
C195 C194 1.376 . S
C196 C180 1.509 . S
C196 C197 1.391 . S
C196 C201 1.386 . S
C197 H158 0.930 . S
C197 C196 1.391 . S
C197 C198 1.375 . S
C198 H159 0.931 . S
C198 C197 1.375 . S
C198 C199 1.375 . S
C199 C198 1.375 . S
C199 C200 1.361 . S
C200 H160 0.930 . S
C200 C199 1.361 . S
C200 C201 1.399 . S
C201 H161 0.929 . S
C201 C196 1.386 . S
C201 C200 1.399 . S
C202 C181 1.485 . S
C202 C203 1.394 . S
C202 C207 1.360 . S
C203 H162 0.931 . S
C203 C202 1.394 . S
C203 C204 1.372 . S
C204 H163 0.930 . S
C204 C203 1.372 . S
C204 C205 1.397 . S
C205 C204 1.397 . S
C205 C206 1.390 . S
C205 C221 1.476 . S
C206 H164 0.930 . S
C206 C205 1.390 . S
C206 C207 1.366 . S
C207 H165 0.932 . S
C207 C202 1.360 . S
C207 C206 1.366 . S
C208 C182 1.490 . S
C208 C209 1.380 . S
C208 C213 1.386 . S
C209 H166 0.930 . S
C209 C208 1.380 . S
C209 C210 1.381 . S
C210 H167 0.929 . S
C210 C209 1.381 . S
C210 C211 1.371 . S
C211 C210 1.371 . S
C211 C212 1.380 . S
C212 H168 0.931 . S
C212 C211 1.380 . S
C212 C213 1.387 . S
C213 H169 0.930 . S
C213 C208 1.386 . S
C213 C212 1.387 . S
C214 C183 1.519 . S
C214 C215 1.377 . S
C214 C219 1.361 . S
C215 H170 0.929 . S
C215 C214 1.377 . S
C215 C216 1.386 . S
C216 H171 0.931 . S
C216 C215 1.386 . S
C216 C217 1.363 . S
C217 C216 1.363 . S
C217 C218 1.385 . S
C218 H172 0.930 . S
C218 C217 1.385 . S
C218 C219 1.396 . S
C219 H173 0.929 . S
C219 C214 1.361 . S
C219 C218 1.396 . S
C220 O174 1.300 . S
C220 O175 1.209 . S
C220 C193 1.486 . S
C221 O176 1.199 . S
C221 O177 1.297 . S
C221 C205 1.476 . S
H222 O248 0.856 1_554 S
H223 O251 0.854 . S
H224 C259 0.930 1_455 S
H225 C260 0.930 . S
H226 C262 0.930 . S
H227 C263 0.930 . S
H228 C265 0.931 . S
H229 C266 0.930 . S
H230 C268 0.930 . S
H231 C269 0.929 . S
H232 C271 0.930 . S
H233 C272 0.931 . S
H234 C274 0.930 . S
H235 C275 0.929 . S
H236 C277 0.931 . S
H237 C278 0.930 . S
H238 C280 0.930 . S
H239 C281 0.932 . S
H240 C283 0.930 . S
H241 C284 0.929 . S
H242 C286 0.931 . S
H243 C287 0.930 . S
H244 C289 0.929 . S
H245 C290 0.931 . S
H246 C292 0.930 . S
H247 C293 0.929 . S
O248 H222 0.856 1_556 S
O248 C294 1.300 . S
O249 C294 1.209 . S
O250 C295 1.199 . S
O251 H223 0.854 . S
O251 C295 1.297 . S
C252 C253 1.404 . S
C252 C257 1.397 . S
C252 C258 1.492 1_455 S
C253 C252 1.404 . S
C253 C254 1.396 . S
C253 C264 1.492 . S
C254 C253 1.396 . S
C254 C255 1.397 . S
C254 C270 1.509 . S
C255 C254 1.397 . S
C255 C256 1.412 . S
C255 C276 1.485 . S
C256 C255 1.412 . S
C256 C257 1.388 . S
C256 C282 1.490 . S
C257 C252 1.397 . S
C257 C256 1.388 . S
C257 C288 1.519 1_455 S
C258 C252 1.492 1_655 S
C258 C259 1.363 . S
C258 C263 1.390 . S
C259 H224 0.930 1_655 S
C259 C258 1.363 . S
C259 C260 1.372 . S
C260 H225 0.930 . S
C260 C259 1.372 . S
C260 C261 1.383 . S
C261 C260 1.383 . S
C261 C262 1.395 . S
C262 H226 0.930 . S
C262 C261 1.395 . S
C262 C263 1.362 . S
C263 H227 0.930 . S
C263 C258 1.390 . S
C263 C262 1.362 . S
C264 C253 1.492 . S
C264 C265 1.377 . S
C264 C269 1.397 . S
C265 H228 0.931 . S
C265 C264 1.377 . S
C265 C266 1.376 . S
C266 H229 0.930 . S
C266 C265 1.376 . S
C266 C267 1.376 . S
C267 C266 1.376 . S
C267 C268 1.378 . S
C267 C294 1.486 . S
C268 H230 0.930 . S
C268 C267 1.378 . S
C268 C269 1.376 . S
C269 H231 0.929 . S
C269 C264 1.397 . S
C269 C268 1.376 . S
C270 C254 1.509 . S
C270 C271 1.391 . S
C270 C275 1.386 . S
C271 H232 0.930 . S
C271 C270 1.391 . S
C271 C272 1.375 . S
C272 H233 0.931 . S
C272 C271 1.375 . S
C272 C273 1.375 . S
C273 C272 1.375 . S
C273 C274 1.361 . S
C274 H234 0.930 . S
C274 C273 1.361 . S
C274 C275 1.399 . S
C275 H235 0.929 . S
C275 C270 1.386 . S
C275 C274 1.399 . S
C276 C255 1.485 . S
C276 C277 1.394 . S
C276 C281 1.360 . S
C277 H236 0.931 . S
C277 C276 1.394 . S
C277 C278 1.372 . S
C278 H237 0.930 . S
C278 C277 1.372 . S
C278 C279 1.397 . S
C279 C278 1.397 . S
C279 C280 1.390 . S
C279 C295 1.476 . S
C280 H238 0.930 . S
C280 C279 1.390 . S
C280 C281 1.366 . S
C281 H239 0.932 . S
C281 C276 1.360 . S
C281 C280 1.366 . S
C282 C256 1.490 . S
C282 C283 1.380 . S
C282 C287 1.386 . S
C283 H240 0.930 . S
C283 C282 1.380 . S
C283 C284 1.381 . S
C284 H241 0.929 . S
C284 C283 1.381 . S
C284 C285 1.371 . S
C285 C284 1.371 . S
C285 C286 1.380 . S
C286 H242 0.931 . S
C286 C285 1.380 . S
C286 C287 1.387 . S
C287 H243 0.930 . S
C287 C282 1.386 . S
C287 C286 1.387 . S
C288 C257 1.519 1_655 S
C288 C289 1.377 . S
C288 C293 1.361 . S
C289 H244 0.929 . S
C289 C288 1.377 . S
C289 C290 1.386 . S
C290 H245 0.931 . S
C290 C289 1.386 . S
C290 C291 1.363 . S
C291 C290 1.363 . S
C291 C292 1.385 . S
C292 H246 0.930 . S
C292 C291 1.385 . S
C292 C293 1.396 . S
C293 H247 0.929 . S
C293 C288 1.361 . S
C293 C292 1.396 . S
C294 O248 1.300 . S
C294 O249 1.209 . S
C294 C267 1.486 . S
C295 O250 1.199 . S
C295 O251 1.297 . S
C295 C279 1.476 . S
H296 O322 0.856 . S
H297 O325 0.854 . S
H298 C333 0.930 . S
H299 C334 0.930 . S
H300 C336 0.930 . S
H301 C337 0.930 . S
H302 C339 0.931 . S
H303 C340 0.930 . S
H304 C342 0.930 . S
H305 C343 0.929 . S
H306 C345 0.930 . S
H307 C346 0.931 . S
H308 C348 0.930 . S
H309 C349 0.929 . S
H310 C351 0.931 . S
H311 C352 0.930 . S
H312 C354 0.930 . S
H313 C355 0.932 . S
H314 C357 0.930 . S
H315 C358 0.929 1_545 S
H316 C360 0.931 . S
H317 C361 0.930 . S
H318 C363 0.929 1_556 S
H319 C364 0.931 . S
H320 C366 0.930 . S
H321 C367 0.929 . S
O322 H296 0.856 . S
O322 C368 1.300 . S
O323 C368 1.209 . S
O324 C369 1.199 . S
O325 H297 0.854 . S
O325 C369 1.297 . S
C326 C327 1.404 1_545 S
C326 C331 1.397 . S
C326 C332 1.492 . S
C327 C326 1.404 1_565 S
C327 C328 1.396 . S
C327 C338 1.492 . S
C328 C327 1.396 . S
C328 C329 1.397 . S
C328 C344 1.509 . S
C329 C328 1.397 . S
C329 C330 1.412 1_556 S
C329 C350 1.485 1_556 S
C330 C329 1.412 1_554 S
C330 C331 1.388 1_564 S
C330 C356 1.490 . S
C331 C326 1.397 . S
C331 C330 1.388 1_546 S
C331 C362 1.519 1_556 S
C332 C326 1.492 . S
C332 C333 1.363 . S
C332 C337 1.390 . S
C333 H298 0.930 . S
C333 C332 1.363 . S
C333 C334 1.372 . S
C334 H299 0.930 . S
C334 C333 1.372 . S
C334 C335 1.383 . S
C335 C334 1.383 . S
C335 C336 1.395 . S
C336 H300 0.930 . S
C336 C335 1.395 . S
C336 C337 1.362 . S
C337 H301 0.930 . S
C337 C332 1.390 . S
C337 C336 1.362 . S
C338 C327 1.492 . S
C338 C339 1.377 . S
C338 C343 1.397 . S
C339 H302 0.931 . S
C339 C338 1.377 . S
C339 C340 1.376 . S
C340 H303 0.930 . S
C340 C339 1.376 . S
C340 C341 1.376 . S
C341 C340 1.376 . S
C341 C342 1.378 . S
C341 C368 1.486 . S
C342 H304 0.930 . S
C342 C341 1.378 . S
C342 C343 1.376 . S
C343 H305 0.929 . S
C343 C338 1.397 . S
C343 C342 1.376 . S
C344 C328 1.509 . S
C344 C345 1.391 . S
C344 C349 1.386 . S
C345 H306 0.930 . S
C345 C344 1.391 . S
C345 C346 1.375 . S
C346 H307 0.931 . S
C346 C345 1.375 . S
C346 C347 1.375 . S
C347 C346 1.375 . S
C347 C348 1.361 . S
C348 H308 0.930 . S
C348 C347 1.361 . S
C348 C349 1.399 . S
C349 H309 0.929 . S
C349 C344 1.386 . S
C349 C348 1.399 . S
C350 C329 1.485 1_554 S
C350 C351 1.394 . S
C350 C355 1.360 . S
C351 H310 0.931 . S
C351 C350 1.394 . S
C351 C352 1.372 . S
C352 H311 0.930 . S
C352 C351 1.372 . S
C352 C353 1.397 . S
C353 C352 1.397 . S
C353 C354 1.390 . S
C353 C369 1.476 . S
C354 H312 0.930 . S
C354 C353 1.390 . S
C354 C355 1.366 . S
C355 H313 0.932 . S
C355 C350 1.360 . S
C355 C354 1.366 . S
C356 C330 1.490 . S
C356 C357 1.380 . S
C356 C361 1.386 . S
C357 H314 0.930 . S
C357 C356 1.380 . S
C357 C358 1.381 . S
C358 H315 0.929 1_565 S
C358 C357 1.381 . S
C358 C359 1.371 . S
C359 C358 1.371 . S
C359 C360 1.380 . S
C360 H316 0.931 . S
C360 C359 1.380 . S
C360 C361 1.387 . S
C361 H317 0.930 . S
C361 C356 1.386 . S
C361 C360 1.387 . S
C362 C331 1.519 1_554 S
C362 C363 1.377 . S
C362 C367 1.361 . S
C363 H318 0.929 1_554 S
C363 C362 1.377 . S
C363 C364 1.386 . S
C364 H319 0.931 . S
C364 C363 1.386 . S
C364 C365 1.363 . S
C365 C364 1.363 . S
C365 C366 1.385 . S
C366 H320 0.930 . S
C366 C365 1.385 . S
C366 C367 1.396 . S
C367 H321 0.929 . S
C367 C362 1.361 . S
C367 C366 1.396 . S
C368 O322 1.300 . S
C368 O323 1.209 . S
C368 C341 1.486 . S
C369 O324 1.199 . S
C369 O325 1.297 . S
C369 C353 1.476 . S
H370 O396 0.856 . S
H371 O399 0.854 . S
H372 C407 0.930 . S
H373 C408 0.930 . S
H374 C410 0.930 . S
H375 C411 0.930 . S
H376 C413 0.931 . S
H377 C414 0.930 . S
H378 C416 0.930 . S
H379 C417 0.929 . S
H380 C419 0.930 . S
H381 C420 0.931 . S
H382 C422 0.930 . S
H383 C423 0.929 . S
H384 C425 0.931 . S
H385 C426 0.930 . S
H386 C428 0.930 . S
H387 C429 0.932 . S
H388 C431 0.930 . S
H389 C432 0.929 . S
H390 C434 0.931 . S
H391 C435 0.930 . S
H392 C437 0.929 . S
H393 C438 0.931 . S
H394 C440 0.930 . S
H395 C441 0.929 . S
O396 H370 0.856 . S
O396 C442 1.300 . S
O397 C442 1.209 . S
O398 C443 1.199 . S
O399 H371 0.854 . S
O399 C443 1.297 . S
C400 C401 1.404 . S
C400 C405 1.397 . S
C400 C406 1.492 . S
C401 C400 1.404 . S
C401 C402 1.396 . S
C401 C412 1.492 . S
C402 C401 1.396 . S
C402 C403 1.397 . S
C402 C418 1.509 . S
C403 C402 1.397 . S
C403 C404 1.412 . S
C403 C424 1.485 . S
C404 C403 1.412 . S
C404 C405 1.388 . S
C404 C430 1.490 . S
C405 C400 1.397 . S
C405 C404 1.388 . S
C405 C436 1.519 . S
C406 C400 1.492 . S
C406 C407 1.363 . S
C406 C411 1.390 . S
C407 H372 0.930 . S
C407 C406 1.363 . S
C407 C408 1.372 . S
C408 H373 0.930 . S
C408 C407 1.372 . S
C408 C409 1.383 . S
C409 C408 1.383 . S
C409 C410 1.395 . S
C410 H374 0.930 . S
C410 C409 1.395 . S
C410 C411 1.362 . S
C411 H375 0.930 . S
C411 C406 1.390 . S
C411 C410 1.362 . S
C412 C401 1.492 . S
C412 C413 1.377 . S
C412 C417 1.397 . S
C413 H376 0.931 . S
C413 C412 1.377 . S
C413 C414 1.376 . S
C414 H377 0.930 . S
C414 C413 1.376 . S
C414 C415 1.376 . S
C415 C414 1.376 . S
C415 C416 1.378 . S
C415 C442 1.486 1_554 S
C416 H378 0.930 . S
C416 C415 1.378 . S
C416 C417 1.376 . S
C417 H379 0.929 . S
C417 C412 1.397 . S
C417 C416 1.376 . S
C418 C402 1.509 . S
C418 C419 1.391 . S
C418 C423 1.386 . S
C419 H380 0.930 . S
C419 C418 1.391 . S
C419 C420 1.375 . S
C420 H381 0.931 . S
C420 C419 1.375 . S
C420 C421 1.375 . S
C421 C420 1.375 . S
C421 C422 1.361 . S
C422 H382 0.930 . S
C422 C421 1.361 . S
C422 C423 1.399 . S
C423 H383 0.929 . S
C423 C418 1.386 . S
C423 C422 1.399 . S
C424 C403 1.485 . S
C424 C425 1.394 . S
C424 C429 1.360 . S
C425 H384 0.931 . S
C425 C424 1.394 . S
C425 C426 1.372 . S
C426 H385 0.930 . S
C426 C425 1.372 . S
C426 C427 1.397 . S
C427 C426 1.397 . S
C427 C428 1.390 . S
C427 C443 1.476 . S
C428 H386 0.930 . S
C428 C427 1.390 . S
C428 C429 1.366 . S
C429 H387 0.932 . S
C429 C424 1.360 . S
C429 C428 1.366 . S
C430 C404 1.490 . S
C430 C431 1.380 . S
C430 C435 1.386 . S
C431 H388 0.930 . S
C431 C430 1.380 . S
C431 C432 1.381 . S
C432 H389 0.929 . S
C432 C431 1.381 . S
C432 C433 1.371 . S
C433 C432 1.371 . S
C433 C434 1.380 . S
C434 H390 0.931 . S
C434 C433 1.380 . S
C434 C435 1.387 . S
C435 H391 0.930 . S
C435 C430 1.386 . S
C435 C434 1.387 . S
C436 C405 1.519 . S
C436 C437 1.377 . S
C436 C441 1.361 . S
C437 H392 0.929 . S
C437 C436 1.377 . S
C437 C438 1.386 . S
C438 H393 0.931 . S
C438 C437 1.386 . S
C438 C439 1.363 . S
C439 C438 1.363 . S
C439 C440 1.385 . S
C440 H394 0.930 . S
C440 C439 1.385 . S
C440 C441 1.396 . S
C441 H395 0.929 . S
C441 C436 1.361 . S
C441 C440 1.396 . S
C442 O396 1.300 . S
C442 O397 1.209 . S
C442 C415 1.486 1_556 S
C443 O398 1.199 . S
C443 O399 1.297 . S
C443 C427 1.476 . S
C444 O445 1.306 . S
C444 O447 1.160 . S
O445 C444 1.306 . S
O445 Cd446 2.228 . S
Cd446 O445 2.228 . S
Cd446 O450 2.273 . S
Cd446 O454 2.277 . S
O447 C444 1.160 . S
O447 Cd448 2.203 . S
Cd448 O447 2.203 . S
Cd448 O450 2.411 . S
Cd448 O451 2.333 . S
Cd448 O452 2.352 . S
Cd448 O456 2.277 . S
Cd448 O457 2.356 . S
C449 O454 1.209 . S
C449 O456 1.226 . S
O450 Cd446 2.273 . S
O450 Cd448 2.411 . S
O450 C453 1.320 . S
O451 Cd448 2.333 . S
O451 C453 1.214 . S
O452 Cd448 2.352 . S
O452 C455 1.258 . S
C453 O450 1.320 . S
C453 O451 1.214 . S
O454 Cd446 2.277 . S
O454 C449 1.209 . S
C455 O452 1.258 . S
C455 O457 1.282 . S
O456 Cd448 2.277 . S
O456 C449 1.226 . S
O457 Cd448 2.356 . S
O457 C455 1.282 . S
C458 O459 1.306 . S
C458 O461 1.160 . S
O459 C458 1.306 . S
O459 Cd460 2.228 . S
Cd460 O459 2.228 . S
Cd460 O464 2.273 . S
Cd460 O468 2.277 . S
O461 C458 1.160 . S
O461 Cd462 2.203 . S
Cd462 O461 2.203 . S
Cd462 O464 2.411 . S
Cd462 O465 2.333 . S
Cd462 O466 2.352 . S
Cd462 O470 2.277 . S
Cd462 O471 2.356 . S
C463 O468 1.209 . S
C463 O470 1.226 . S
O464 Cd460 2.273 . S
O464 Cd462 2.411 . S
O464 C467 1.320 . S
O465 Cd462 2.333 . S
O465 C467 1.214 . S
O466 Cd462 2.352 . S
O466 C469 1.258 . S
C467 O464 1.320 . S
C467 O465 1.214 . S
O468 Cd460 2.277 . S
O468 C463 1.209 . S
C469 O466 1.258 . S
C469 O471 1.282 . S
O470 Cd462 2.277 . S
O470 C463 1.226 . S
O471 Cd462 2.356 . S
O471 C469 1.282 . S
C472 O473 1.306 . S
C472 O475 1.160 . S
O473 C472 1.306 . S
O473 Cd474 2.228 . S
Cd474 O473 2.228 . S
Cd474 O478 2.273 . S
Cd474 O482 2.277 . S
O475 C472 1.160 . S
O475 Cd476 2.203 . S
Cd476 O475 2.203 . S
Cd476 O478 2.411 . S
Cd476 O479 2.333 . S
Cd476 O480 2.352 . S
Cd476 O484 2.277 . S
Cd476 O485 2.356 . S
C477 O482 1.209 . S
C477 O484 1.226 . S
O478 Cd474 2.273 . S
O478 Cd476 2.411 . S
O478 C481 1.320 . S
O479 Cd476 2.333 . S
O479 C481 1.214 . S
O480 Cd476 2.352 . S
O480 C483 1.258 . S
C481 O478 1.320 . S
C481 O479 1.214 . S
O482 Cd474 2.277 . S
O482 C477 1.209 . S
C483 O480 1.258 . S
C483 O485 1.282 . S
O484 Cd476 2.277 . S
O484 C477 1.226 . S
O485 Cd476 2.356 . S
O485 C483 1.282 . S
C486 O487 1.306 . S
C486 O489 1.160 . S
O487 C486 1.306 . S
O487 Cd488 2.228 . S
Cd488 O487 2.228 . S
Cd488 O492 2.273 . S
Cd488 O496 2.277 . S
O489 C486 1.160 . S
O489 Cd490 2.203 . S
Cd490 O489 2.203 . S
Cd490 O492 2.411 . S
Cd490 O493 2.333 . S
Cd490 O494 2.352 . S
Cd490 O498 2.277 . S
Cd490 O499 2.356 . S
C491 O496 1.209 . S
C491 O498 1.226 . S
O492 Cd488 2.273 . S
O492 Cd490 2.411 . S
O492 C495 1.320 . S
O493 Cd490 2.333 . S
O493 C495 1.214 . S
O494 Cd490 2.352 . S
O494 C497 1.258 . S
C495 O492 1.320 . S
C495 O493 1.214 . S
O496 Cd488 2.277 . S
O496 C491 1.209 . S
C497 O494 1.258 . S
C497 O499 1.282 . S
O498 Cd490 2.277 . S
O498 C491 1.226 . S
O499 Cd490 2.356 . S
O499 C497 1.282 . S
C500 O501 1.306 . S
C500 O503 1.160 . S
O501 C500 1.306 . S
O501 Cd502 2.228 . S
Cd502 O501 2.228 . S
Cd502 O506 2.273 . S
Cd502 O510 2.277 . S
O503 C500 1.160 . S
O503 Cd504 2.203 . S
Cd504 O503 2.203 . S
Cd504 O506 2.411 . S
Cd504 O507 2.333 . S
Cd504 O508 2.352 . S
Cd504 O512 2.277 . S
Cd504 O513 2.356 . S
C505 O510 1.209 . S
C505 O512 1.226 . S
O506 Cd502 2.273 . S
O506 Cd504 2.411 . S
O506 C509 1.320 . S
O507 Cd504 2.333 . S
O507 C509 1.214 . S
O508 Cd504 2.352 . S
O508 C511 1.258 . S
C509 O506 1.320 . S
C509 O507 1.214 . S
O510 Cd502 2.277 . S
O510 C505 1.209 . S
C511 O508 1.258 . S
C511 O513 1.282 . S
O512 Cd504 2.277 . S
O512 C505 1.226 . S
O513 Cd504 2.356 . S
O513 C511 1.282 . S
C514 O515 1.306 . S
C514 O517 1.160 . S
O515 C514 1.306 . S
O515 Cd516 2.228 . S
Cd516 O515 2.228 . S
Cd516 O520 2.273 . S
Cd516 O524 2.277 . S
O517 C514 1.160 . S
O517 Cd518 2.203 . S
Cd518 O517 2.203 . S
Cd518 O520 2.411 . S
Cd518 O521 2.333 . S
Cd518 O522 2.352 . S
Cd518 O526 2.277 . S
Cd518 O527 2.356 . S
C519 O524 1.209 . S
C519 O526 1.226 . S
O520 Cd516 2.273 . S
O520 Cd518 2.411 . S
O520 C523 1.320 . S
O521 Cd518 2.333 . S
O521 C523 1.214 . S
O522 Cd518 2.352 . S
O522 C525 1.258 . S
C523 O520 1.320 . S
C523 O521 1.214 . S
O524 Cd516 2.277 . S
O524 C519 1.209 . S
C525 O522 1.258 . S
C525 O527 1.282 . S
O526 Cd518 2.277 . S
O526 C519 1.226 . S
O527 Cd518 2.356 . S
O527 C525 1.282 . S
C528 C529 1.363 . S
C528 C534 1.379 . S
C528 N536 1.356 . S
C529 C528 1.363 . S
C529 C535 1.363 . S
C530 C531 1.363 . S
C530 C535 1.379 . S
C530 N537 1.356 . S
C531 C530 1.363 . S
C531 C534 1.363 . S
N532 C534 1.356 . S
N532 H544 0.984 . S
N532 H545 0.985 . S
N533 C535 1.356 . S
N533 H538 0.984 . S
N533 H539 0.985 . S
C534 C528 1.379 . S
C534 C531 1.363 . S
C534 N532 1.356 . S
C535 C529 1.363 . S
C535 C530 1.379 . S
C535 N533 1.356 . S
N536 C528 1.356 . S
N536 H542 0.984 . S
N536 H543 0.984 . S
N537 C530 1.356 . S
N537 H540 0.984 . S
N537 H541 0.985 . S
H538 N533 0.984 . S
H539 N533 0.985 . S
H540 N537 0.984 . S
H541 N537 0.985 . S
H542 N536 0.984 . S
H543 N536 0.984 . S
H544 N532 0.984 . S
H545 N532 0.985 . S
C546 C547 1.363 . S
C546 C552 1.379 . S
C546 N554 1.356 . S
C547 C546 1.363 . S
C547 C553 1.363 . S
C548 C549 1.363 . S
C548 C553 1.379 . S
C548 N555 1.356 . S
C549 C548 1.363 . S
C549 C552 1.363 . S
N550 C552 1.356 . S
N550 H562 0.984 . S
N550 H563 0.985 . S
N551 C553 1.356 . S
N551 H556 0.984 . S
N551 H557 0.985 . S
C552 C546 1.379 . S
C552 C549 1.363 . S
C552 N550 1.356 . S
C553 C547 1.363 . S
C553 C548 1.379 . S
C553 N551 1.356 . S
N554 C546 1.356 . S
N554 H560 0.984 . S
N554 H561 0.984 . S
N555 C548 1.356 . S
N555 H558 0.984 . S
N555 H559 0.985 . S
H556 N551 0.984 . S
H557 N551 0.985 . S
H558 N555 0.984 . S
H559 N555 0.985 . S
H560 N554 0.984 . S
H561 N554 0.984 . S
H562 N550 0.984 . S
H563 N550 0.985 . S
C564 C565 1.363 . S
C564 C570 1.379 . S
C564 N572 1.356 . S
C565 C564 1.363 . S
C565 C571 1.363 . S
C566 C567 1.363 . S
C566 C571 1.379 . S
C566 N573 1.356 . S
C567 C566 1.363 . S
C567 C570 1.363 . S
N568 C570 1.356 . S
N568 H580 0.984 . S
N568 H581 0.985 . S
N569 C571 1.356 . S
N569 H574 0.984 . S
N569 H575 0.985 . S
C570 C564 1.379 . S
C570 C567 1.363 . S
C570 N568 1.356 . S
C571 C565 1.363 . S
C571 C566 1.379 . S
C571 N569 1.356 . S
N572 C564 1.356 . S
N572 H578 0.984 . S
N572 H579 0.984 . S
N573 C566 1.356 . S
N573 H576 0.984 . S
N573 H577 0.985 . S
H574 N569 0.984 . S
H575 N569 0.985 . S
H576 N573 0.984 . S
H577 N573 0.985 . S
H578 N572 0.984 . S
H579 N572 0.984 . S
H580 N568 0.984 . S
H581 N568 0.985 . S
C582 C583 1.363 . S
C582 C588 1.379 . S
C582 N590 1.356 . S
C583 C582 1.363 . S
C583 C589 1.363 . S
C584 C585 1.363 . S
C584 C589 1.379 . S
C584 N591 1.356 . S
C585 C584 1.363 . S
C585 C588 1.363 . S
N586 C588 1.356 . S
N586 H598 0.984 . S
N586 H599 0.985 . S
N587 C589 1.356 . S
N587 H592 0.984 . S
N587 H593 0.985 . S
C588 C582 1.379 . S
C588 C585 1.363 . S
C588 N586 1.356 . S
C589 C583 1.363 . S
C589 C584 1.379 . S
C589 N587 1.356 . S
N590 C582 1.356 . S
N590 H596 0.984 . S
N590 H597 0.984 . S
N591 C584 1.356 . S
N591 H594 0.984 . S
N591 H595 0.985 . S
H592 N587 0.984 . S
H593 N587 0.985 . S
H594 N591 0.984 . S
H595 N591 0.985 . S
H596 N590 0.984 . S
H597 N590 0.984 . S
H598 N586 0.984 . S
H599 N586 0.985 . S
C600 C601 1.363 . S
C600 C606 1.379 . S
C600 N608 1.356 . S
C601 C600 1.363 . S
C601 C607 1.363 . S
C602 C603 1.363 . S
C602 C607 1.379 . S
C602 N609 1.356 . S
C603 C602 1.363 . S
C603 C606 1.363 . S
N604 C606 1.356 . S
N604 H616 0.984 . S
N604 H617 0.985 . S
N605 C607 1.356 . S
N605 H610 0.984 . S
N605 H611 0.985 . S
C606 C600 1.379 . S
C606 C603 1.363 . S
C606 N604 1.356 . S
C607 C601 1.363 . S
C607 C602 1.379 . S
C607 N605 1.356 . S
N608 C600 1.356 . S
N608 H614 0.984 . S
N608 H615 0.984 . S
N609 C602 1.356 . S
N609 H612 0.984 . S
N609 H613 0.985 . S
H610 N605 0.984 . S
H611 N605 0.985 . S
H612 N609 0.984 . S
H613 N609 0.985 . S
H614 N608 0.984 . S
H615 N608 0.984 . S
H616 N604 0.984 . S
H617 N604 0.985 . S
C618 C619 1.363 . S
C618 C624 1.379 . S
C618 N626 1.356 . S
C619 C618 1.363 . S
C619 C625 1.363 . S
C620 C621 1.363 . S
C620 C625 1.379 . S
C620 N627 1.356 . S
C621 C620 1.363 . S
C621 C624 1.363 . S
N622 C624 1.356 . S
N622 H634 0.984 . S
N622 H635 0.985 . S
N623 C625 1.356 . S
N623 H628 0.984 . S
N623 H629 0.985 . S
C624 C618 1.379 . S
C624 C621 1.363 . S
C624 N622 1.356 . S
C625 C619 1.363 . S
C625 C620 1.379 . S
C625 N623 1.356 . S
N626 C618 1.356 . S
N626 H632 0.984 . S
N626 H633 0.984 . S
N627 C620 1.356 . S
N627 H630 0.984 . S
N627 H631 0.985 . S
H628 N623 0.984 . S
H629 N623 0.985 . S
H630 N627 0.984 . S
H631 N627 0.985 . S
H632 N626 0.984 . S
H633 N626 0.984 . S
H634 N622 0.984 . S
H635 N622 0.985 . S
C636 C637 1.363 . S
C636 C642 1.379 . S
C636 N644 1.356 . S
C637 C636 1.363 . S
C637 C643 1.363 . S
C638 C639 1.363 . S
C638 C643 1.379 . S
C638 N645 1.356 . S
C639 C638 1.363 . S
C639 C642 1.363 . S
N640 C642 1.356 . S
N640 H652 0.984 . S
N640 H653 0.985 . S
N641 C643 1.356 . S
N641 H646 0.984 . S
N641 H647 0.985 . S
C642 C636 1.379 . S
C642 C639 1.363 . S
C642 N640 1.356 . S
C643 C637 1.363 . S
C643 C638 1.379 . S
C643 N641 1.356 . S
N644 C636 1.356 . S
N644 H650 0.984 . S
N644 H651 0.984 . S
N645 C638 1.356 . S
N645 H648 0.984 . S
N645 H649 0.985 . S
H646 N641 0.984 . S
H647 N641 0.985 . S
H648 N645 0.984 . S
H649 N645 0.985 . S
H650 N644 0.984 . S
H651 N644 0.984 . S
H652 N640 0.984 . S
H653 N640 0.985 . S
C654 C655 1.363 . S
C654 C660 1.379 . S
C654 N662 1.356 . S
C655 C654 1.363 . S
C655 C661 1.363 . S
C656 C657 1.363 . S
C656 C661 1.379 . S
C656 N663 1.356 . S
C657 C656 1.363 . S
C657 C660 1.363 . S
N658 C660 1.356 . S
N658 H670 0.984 . S
N658 H671 0.985 . S
N659 C661 1.356 . S
N659 H664 0.984 . S
N659 H665 0.985 . S
C660 C654 1.379 . S
C660 C657 1.363 . S
C660 N658 1.356 . S
C661 C655 1.363 . S
C661 C656 1.379 . S
C661 N659 1.356 . S
N662 C654 1.356 . S
N662 H668 0.984 . S
N662 H669 0.984 . S
N663 C656 1.356 . S
N663 H666 0.984 . S
N663 H667 0.985 . S
H664 N659 0.984 . S
H665 N659 0.985 . S
H666 N663 0.984 . S
H667 N663 0.985 . S
H668 N662 0.984 . S
H669 N662 0.984 . S
H670 N658 0.984 . S
H671 N658 0.985 . S
C672 C673 1.363 . S
C672 C678 1.379 . S
C672 N680 1.356 . S
C673 C672 1.363 . S
C673 C679 1.363 . S
C674 C675 1.363 . S
C674 C679 1.379 . S
C674 N681 1.356 . S
C675 C674 1.363 . S
C675 C678 1.363 . S
N676 C678 1.356 . S
N676 H688 0.984 . S
N676 H689 0.985 . S
N677 C679 1.356 . S
N677 H682 0.984 . S
N677 H683 0.985 . S
C678 C672 1.379 . S
C678 C675 1.363 . S
C678 N676 1.356 . S
C679 C673 1.363 . S
C679 C674 1.379 . S
C679 N677 1.356 . S
N680 C672 1.356 . S
N680 H686 0.984 . S
N680 H687 0.984 . S
N681 C674 1.356 . S
N681 H684 0.984 . S
N681 H685 0.985 . S
H682 N677 0.984 . S
H683 N677 0.985 . S
H684 N681 0.984 . S
H685 N681 0.985 . S
H686 N680 0.984 . S
H687 N680 0.984 . S
H688 N676 0.984 . S
H689 N676 0.985 . S
C690 C691 1.363 . S
C690 C696 1.379 . S
C690 N698 1.356 . S
C691 C690 1.363 . S
C691 C697 1.363 . S
C692 C693 1.363 . S
C692 C697 1.379 . S
C692 N699 1.356 . S
C693 C692 1.363 . S
C693 C696 1.363 . S
N694 C696 1.356 . S
N694 H706 0.984 . S
N694 H707 0.985 . S
N695 C697 1.356 1_556 S
N695 H700 0.984 . S
N695 H701 0.985 . S
C696 C690 1.379 . S
C696 C693 1.363 . S
C696 N694 1.356 . S
C697 C691 1.363 . S
C697 C692 1.379 . S
C697 N695 1.356 1_554 S
N698 C690 1.356 . S
N698 H704 0.984 . S
N698 H705 0.984 . S
N699 C692 1.356 . S
N699 H702 0.984 . S
N699 H703 0.985 1_554 S
H700 N695 0.984 . S
H701 N695 0.985 . S
H702 N699 0.984 . S
H703 N699 0.985 1_556 S
H704 N698 0.984 . S
H705 N698 0.984 . S
H706 N694 0.984 . S
H707 N694 0.985 . S
C708 C709 1.363 . S
C708 C714 1.379 . S
C708 N716 1.356 . S
C709 C708 1.363 . S
C709 C715 1.363 . S
C710 C711 1.363 . S
C710 C715 1.379 . S
C710 N717 1.356 . S
C711 C710 1.363 . S
C711 C714 1.363 . S
N712 C714 1.356 . S
N712 H724 0.984 . S
N712 H725 0.985 . S
N713 C715 1.356 . S
N713 H718 0.984 . S
N713 H719 0.985 . S
C714 C708 1.379 . S
C714 C711 1.363 . S
C714 N712 1.356 . S
C715 C709 1.363 . S
C715 C710 1.379 . S
C715 N713 1.356 . S
N716 C708 1.356 . S
N716 H722 0.984 . S
N716 H723 0.984 . S
N717 C710 1.356 . S
N717 H720 0.984 . S
N717 H721 0.985 . S
H718 N713 0.984 . S
H719 N713 0.985 . S
H720 N717 0.984 . S
H721 N717 0.985 . S
H722 N716 0.984 . S
H723 N716 0.984 . S
H724 N712 0.984 . S
H725 N712 0.985 . S
C726 C727 1.363 . S
C726 C732 1.379 . S
C726 N734 1.356 . S
C727 C726 1.363 . S
C727 C733 1.363 . S
C728 C729 1.363 . S
C728 C733 1.379 . S
C728 N735 1.356 . S
C729 C728 1.363 . S
C729 C732 1.363 . S
N730 C732 1.356 . S
N730 H742 0.984 . S
N730 H743 0.985 . S
N731 C733 1.356 . S
N731 H736 0.984 . S
N731 H737 0.985 . S
C732 C726 1.379 . S
C732 C729 1.363 . S
C732 N730 1.356 . S
C733 C727 1.363 . S
C733 C728 1.379 . S
C733 N731 1.356 . S
N734 C726 1.356 . S
N734 H740 0.984 . S
N734 H741 0.984 . S
N735 C728 1.356 . S
N735 H738 0.984 . S
N735 H739 0.985 . S
H736 N731 0.984 . S
H737 N731 0.985 . S
H738 N735 0.984 . S
H739 N735 0.985 . S
H740 N734 0.984 . S
H741 N734 0.984 . S
H742 N730 0.984 . S
H743 N730 0.985 . S
C744 C745 1.363 . S
C744 C750 1.379 . S
C744 N752 1.356 . S
C745 C744 1.363 . S
C745 C751 1.363 . S
C746 C747 1.363 . S
C746 C751 1.379 . S
C746 N753 1.356 . S
C747 C746 1.363 . S
C747 C750 1.363 . S
N748 C750 1.356 . S
N748 H760 0.984 . S
N748 H761 0.985 . S
N749 C751 1.356 . S
N749 H754 0.984 . S
N749 H755 0.985 . S
C750 C744 1.379 . S
C750 C747 1.363 . S
C750 N748 1.356 . S
C751 C745 1.363 . S
C751 C746 1.379 . S
C751 N749 1.356 . S
N752 C744 1.356 . S
N752 H758 0.984 . S
N752 H759 0.984 . S
N753 C746 1.356 . S
N753 H756 0.984 . S
N753 H757 0.985 . S
H754 N749 0.984 . S
H755 N749 0.985 . S
H756 N753 0.984 . S
H757 N753 0.985 . S
H758 N752 0.984 . S
H759 N752 0.984 . S
H760 N748 0.984 . S
H761 N748 0.985 . S
C762 C763 1.363 . S
C762 C768 1.379 . S
C762 N770 1.356 . S
C763 C762 1.363 . S
C763 C769 1.363 . S
C764 C765 1.363 . S
C764 C769 1.379 . S
C764 N771 1.356 . S
C765 C764 1.363 . S
C765 C768 1.363 . S
N766 C768 1.356 . S
N766 H778 0.984 . S
N766 H779 0.985 . S
N767 C769 1.356 . S
N767 H772 0.984 . S
N767 H773 0.985 . S
C768 C762 1.379 . S
C768 C765 1.363 . S
C768 N766 1.356 . S
C769 C763 1.363 . S
C769 C764 1.379 . S
C769 N767 1.356 . S
N770 C762 1.356 . S
N770 H776 0.984 . S
N770 H777 0.984 . S
N771 C764 1.356 . S
N771 H774 0.984 . S
N771 H775 0.985 . S
H772 N767 0.984 . S
H773 N767 0.985 . S
H774 N771 0.984 . S
H775 N771 0.985 . S
H776 N770 0.984 . S
H777 N770 0.984 . S
H778 N766 0.984 . S
H779 N766 0.985 . S
C780 C781 1.363 . S
C780 C786 1.379 . S
C780 N788 1.356 . S
C781 C780 1.363 . S
C781 C787 1.363 . S
C782 C783 1.363 . S
C782 C787 1.379 . S
C782 N789 1.356 . S
C783 C782 1.363 . S
C783 C786 1.363 . S
N784 C786 1.356 . S
N784 H796 0.984 . S
N784 H797 0.985 . S
N785 C787 1.356 . S
N785 H790 0.984 . S
N785 H791 0.985 . S
C786 C780 1.379 . S
C786 C783 1.363 . S
C786 N784 1.356 . S
C787 C781 1.363 . S
C787 C782 1.379 . S
C787 N785 1.356 . S
N788 C780 1.356 . S
N788 H794 0.984 . S
N788 H795 0.984 . S
N789 C782 1.356 . S
N789 H792 0.984 . S
N789 H793 0.985 . S
H790 N785 0.984 . S
H791 N785 0.985 . S
H792 N789 0.984 . S
H793 N789 0.985 . S
H794 N788 0.984 . S
H795 N788 0.984 . S
H796 N784 0.984 . S
H797 N784 0.985 . S
C798 C799 1.363 . S
C798 C804 1.379 . S
C798 N806 1.356 . S
C799 C798 1.363 . S
C799 C805 1.363 . S
C800 C801 1.363 . S
C800 C805 1.379 . S
C800 N807 1.356 . S
C801 C800 1.363 . S
C801 C804 1.363 . S
N802 C804 1.373 . S
N802 H814 0.987 . S
N802 H815 0.966 1_556 S
N803 C805 1.356 . S
N803 H808 0.984 . S
N803 H809 0.985 . S
C804 C798 1.379 . S
C804 C801 1.363 . S
C804 N802 1.373 . S
C805 C799 1.363 . S
C805 C800 1.379 . S
C805 N803 1.356 . S
N806 C798 1.356 . S
N806 H812 0.984 . S
N806 H813 0.984 . S
N807 C800 1.356 . S
N807 H810 0.984 1_556 S
N807 H811 0.985 . S
H808 N803 0.984 . S
H809 N803 0.985 . S
H810 N807 0.984 1_554 S
H811 N807 0.985 . S
H812 N806 0.984 . S
H813 N806 0.984 . S
H814 N802 0.987 . S
H815 N802 0.966 1_554 S
C816 C817 1.363 . S
C816 C822 1.379 . S
C816 N824 1.356 . S
C817 C816 1.363 . S
C817 C823 1.363 . S
C818 C819 1.363 . S
C818 C823 1.379 . S
C818 N825 1.356 . S
C819 C818 1.363 . S
C819 C822 1.363 . S
N820 C822 1.356 . S
N820 H832 0.984 . S
N820 H833 0.985 . S
N821 C823 1.356 1_545 S
N821 H826 0.984 . S
N821 H827 0.985 . S
C822 C816 1.379 . S
C822 C819 1.363 . S
C822 N820 1.356 . S
C823 C817 1.363 . S
C823 C818 1.379 . S
C823 N821 1.356 1_565 S
N824 C816 1.356 . S
N824 H830 0.984 . S
N824 H831 0.984 . S
N825 C818 1.356 . S
N825 H828 0.984 . S
N825 H829 0.985 . S
H826 N821 0.984 . S
H827 N821 0.985 . S
H828 N825 0.984 . S
H829 N825 0.985 . S
H830 N824 0.984 . S
H831 N824 0.984 . S
H832 N820 0.984 . S
H833 N820 0.985 . S
C834 C835 1.363 . S
C834 C840 1.379 . S
C834 N842 1.356 . S
C835 C834 1.363 . S
C835 C841 1.363 . S
C836 C837 1.363 . S
C836 C841 1.379 . S
C836 N843 1.356 . S
C837 C836 1.363 . S
C837 C840 1.363 . S
N838 C840 1.356 . S
N838 H850 0.984 . S
N838 H851 0.985 . S
N839 C841 1.356 . S
N839 H844 0.984 . S
N839 H845 0.985 . S
C840 C834 1.379 . S
C840 C837 1.363 . S
C840 N838 1.356 . S
C841 C835 1.363 . S
C841 C836 1.379 . S
C841 N839 1.356 . S
N842 C834 1.356 . S
N842 H848 0.984 . S
N842 H849 0.984 . S
N843 C836 1.356 . S
N843 H846 0.984 . S
N843 H847 0.985 . S
H844 N839 0.984 . S
H845 N839 0.985 . S
H846 N843 0.984 . S
H847 N843 0.985 . S
H848 N842 0.984 . S
H849 N842 0.984 . S
H850 N838 0.984 . S
H851 N838 0.985 . S
C852 C853 1.363 . S
C852 C858 1.379 . S
C852 N860 1.356 . S
C853 C852 1.363 . S
C853 C859 1.363 . S
C854 C855 1.363 . S
C854 C859 1.379 . S
C854 N861 1.356 . S
C855 C854 1.363 . S
C855 C858 1.363 . S
N856 C858 1.356 . S
N856 H868 0.984 . S
N856 H869 0.985 . S
N857 C859 1.356 . S
N857 H862 0.984 . S
N857 H863 0.985 . S
C858 C852 1.379 . S
C858 C855 1.363 . S
C858 N856 1.356 . S
C859 C853 1.363 . S
C859 C854 1.379 . S
C859 N857 1.356 . S
N860 C852 1.356 . S
N860 H866 0.984 . S
N860 H867 0.984 . S
N861 C854 1.356 . S
N861 H864 0.984 . S
N861 H865 0.985 . S
H862 N857 0.984 . S
H863 N857 0.985 . S
H864 N861 0.984 . S
H865 N861 0.985 . S
H866 N860 0.984 . S
H867 N860 0.984 . S
H868 N856 0.984 . S
H869 N856 0.985 . S
C870 C871 1.363 . S
C870 C876 1.379 . S
C870 N878 1.356 . S
C871 C870 1.363 . S
C871 C877 1.363 . S
C872 C873 1.363 . S
C872 C877 1.379 . S
C872 N879 1.356 . S
C873 C872 1.363 . S
C873 C876 1.363 . S
N874 C876 1.356 . S
N874 H886 0.984 . S
N874 H887 0.985 . S
N875 C877 1.356 . S
N875 H880 0.984 . S
N875 H881 0.985 . S
C876 C870 1.379 . S
C876 C873 1.363 . S
C876 N874 1.356 . S
C877 C871 1.363 . S
C877 C872 1.379 . S
C877 N875 1.356 . S
N878 C870 1.356 . S
N878 H884 0.984 . S
N878 H885 0.984 . S
N879 C872 1.356 . S
N879 H882 0.984 . S
N879 H883 0.985 . S
H880 N875 0.984 . S
H881 N875 0.985 . S
H882 N879 0.984 . S
H883 N879 0.985 . S
H884 N878 0.984 . S
H885 N878 0.984 . S
H886 N874 0.984 . S
H887 N874 0.985 . S
C888 C889 1.363 . S
C888 C894 1.379 . S
C888 N896 1.356 . S
C889 C888 1.363 . S
C889 C895 1.363 . S
C890 C891 1.363 . S
C890 C895 1.379 . S
C890 N897 1.356 . S
C891 C890 1.363 . S
C891 C894 1.363 . S
N892 C894 1.356 . S
N892 H904 0.984 . S
N892 H905 0.985 . S
N893 C895 1.356 . S
N893 H898 0.984 . S
N893 H899 0.985 . S
C894 C888 1.379 . S
C894 C891 1.363 . S
C894 N892 1.356 . S
C895 C889 1.363 . S
C895 C890 1.379 . S
C895 N893 1.356 . S
N896 C888 1.356 . S
N896 H902 0.984 . S
N896 H903 0.984 . S
N897 C890 1.356 . S
N897 H900 0.984 . S
N897 H901 0.985 . S
H898 N893 0.984 . S
H899 N893 0.985 . S
H900 N897 0.984 . S
H901 N897 0.985 . S
H902 N896 0.984 . S
H903 N896 0.984 . S
H904 N892 0.984 . S
H905 N892 0.985 . S
C906 C907 1.363 . S
C906 C912 1.379 . S
C906 N914 1.356 . S
C907 C906 1.363 . S
C907 C913 1.363 . S
C908 C909 1.363 . S
C908 C913 1.379 . S
C908 N915 1.356 . S
C909 C908 1.363 . S
C909 C912 1.363 . S
N910 C912 1.356 . S
N910 H922 0.984 . S
N910 H923 0.985 . S
N911 C913 1.356 . S
N911 H916 0.984 . S
N911 H917 0.985 . S
C912 C906 1.379 . S
C912 C909 1.363 . S
C912 N910 1.356 . S
C913 C907 1.363 . S
C913 C908 1.379 . S
C913 N911 1.356 . S
N914 C906 1.356 . S
N914 H920 0.984 . S
N914 H921 0.984 . S
N915 C908 1.356 . S
N915 H918 0.984 . S
N915 H919 0.985 . S
H916 N911 0.984 . S
H917 N911 0.985 . S
H918 N915 0.984 . S
H919 N915 0.985 . S
H920 N914 0.984 . S
H921 N914 0.984 . S
H922 N910 0.984 . S
H923 N910 0.985 . S
C924 C925 1.363 . S
C924 C930 1.379 1_554 S
C924 N932 1.356 . S
C925 C924 1.363 . S
C925 C931 1.363 . S
C926 C927 1.363 . S
C926 C931 1.379 1_556 S
C926 N933 1.356 . S
C927 C926 1.363 . S
C927 C930 1.363 . S
N928 C930 1.356 . S
N928 H940 0.984 . S
N928 H941 0.985 . S
N929 C931 1.356 . S
N929 H934 0.984 . S
N929 H935 0.985 . S
C930 C924 1.379 1_556 S
C930 C927 1.363 . S
C930 N928 1.356 . S
C931 C925 1.363 . S
C931 C926 1.379 1_554 S
C931 N929 1.356 . S
N932 C924 1.356 . S
N932 H938 0.984 . S
N932 H939 0.984 . S
N933 C926 1.356 . S
N933 H936 0.984 . S
N933 H937 0.985 . S
H934 N929 0.984 . S
H935 N929 0.985 . S
H936 N933 0.984 . S
H937 N933 0.985 . S
H938 N932 0.984 . S
H939 N932 0.984 . S
H940 N928 0.984 . S
H941 N928 0.985 . S
C942 C943 1.363 . S
C942 C948 1.379 . S
C942 N950 1.356 . S
C943 C942 1.363 . S
C943 C949 1.363 . S
C944 C945 1.363 . S
C944 C949 1.379 . S
C944 N951 1.356 . S
C945 C944 1.363 . S
C945 C948 1.363 . S
N946 C948 1.356 . S
N946 H958 0.984 . S
N946 H959 0.985 . S
N947 C949 1.356 . S
N947 H952 0.984 . S
N947 H953 0.985 . S
C948 C942 1.379 . S
C948 C945 1.363 . S
C948 N946 1.356 . S
C949 C943 1.363 . S
C949 C944 1.379 . S
C949 N947 1.356 . S
N950 C942 1.356 . S
N950 H956 0.984 . S
N950 H957 0.984 . S
N951 C944 1.356 . S
N951 H954 0.984 . S
N951 H955 0.985 . S
H952 N947 0.984 . S
H953 N947 0.985 . S
H954 N951 0.984 . S
H955 N951 0.985 . S
H956 N950 0.984 . S
H957 N950 0.984 . S
H958 N946 0.984 . S
H959 N946 0.985 . S
C531 C514 1.568 . S
C529 C51 1.491 . S
C547 C125 1.472 . S
C549 C455 1.481 . S
C565 C217 2.520 . S
C567 C458 2.585 . S
C583 C291 1.583 . S
C585 C472 1.589 . S
C603 C497 1.212 . S
C601 C347 1.158 . S
C619 C421 1.086 . S
C621 C500 1.090 . S
C637 C143 2.164 . S
C639 C469 2.173 . S
C655 C199 1.567 . S
C657 C483 1.608 . S
C673 C273 0.762 . S
C675 C486 0.763 . S
C693 C511 1.770 . S
C691 C365 1.704 . S
C711 C525 1.800 . S
C709 C439 1.803 . S
C729 C444 2.480 . S
C727 C69 2.403 . S
C745 C63 1.500 . S
C747 C467 1.666 . S
C763 C137 1.630 . S
C765 C481 1.759 . S
C783 C491 1.513 . S
C781 C187 1.430 . S
C799 C261 1.554 . S
C801 C509 1.590 1_556 S
C819 C523 1.821 . S
C817 C359 1.585 . S
C837 C449 1.405 . S
C835 C433 1.296 . S
C855 C519 1.755 . S
C853 C113 1.720 . S
C871 C211 1.420 . S
C873 C453 1.566 . S
C891 C463 1.806 . S
C889 C285 1.642 . S
C907 C335 1.510 . S
C909 C477 1.629 . S
C925 C409 1.434 . S
C927 C495 1.460 . S
C943 C39 1.628 . S
C945 C505 1.677 . S
