# Generated by pormake.
# Topology anh, (6,3)-cn, num edge types: 1
# Building blocks:
#     Node 0, Type 0, BuildingBlock: BETDIP_clean_sbu_0, # of connection points: 6
#     Node 1, Type 0, BuildingBlock: BETDIP_clean_sbu_0, # of connection points: 6
#     Node 2, Type 0, BuildingBlock: BETDIP_clean_sbu_0, # of connection points: 6
#     Node 3, Type 1, BuildingBlock: BETDAH_clean_linker_0, # of connection points: 3
#     Node 4, Type 1, BuildingBlock: BETDAH_clean_linker_0, # of connection points: 3
#     Node 5, Type 1, BuildingBlock: BETDAH_clean_linker_0, # of connection points: 3
#     Node 6, Type 1, BuildingBlock: BETDAH_clean_linker_0, # of connection points: 3
#     Node 7, Type 1, BuildingBlock: BETDAH_clean_linker_0, # of connection points: 3
#     Node 8, Type 1, BuildingBlock: BETDAH_clean_linker_0, # of connection points: 3
#     Edge 9, Type (0, 1), BuildingBlock: XUDNAN_clean_linker_2, # of connection points: 2
#     Edge 10, Type (0, 1), BuildingBlock: XUDNAN_clean_linker_2, # of connection points: 2
#     Edge 11, Type (0, 1), BuildingBlock: XUDNAN_clean_linker_2, # of connection points: 2
#     Edge 12, Type (0, 1), BuildingBlock: XUDNAN_clean_linker_2, # of connection points: 2
#     Edge 13, Type (0, 1), BuildingBlock: XUDNAN_clean_linker_2, # of connection points: 2
#     Edge 14, Type (0, 1), BuildingBlock: XUDNAN_clean_linker_2, # of connection points: 2
#     Edge 15, Type (0, 1), BuildingBlock: XUDNAN_clean_linker_2, # of connection points: 2
#     Edge 16, Type (0, 1), BuildingBlock: XUDNAN_clean_linker_2, # of connection points: 2
#     Edge 17, Type (0, 1), BuildingBlock: XUDNAN_clean_linker_2, # of connection points: 2
#     Edge 18, Type (0, 1), BuildingBlock: XUDNAN_clean_linker_2, # of connection points: 2
#     Edge 19, Type (0, 1), BuildingBlock: XUDNAN_clean_linker_2, # of connection points: 2
#     Edge 20, Type (0, 1), BuildingBlock: XUDNAN_clean_linker_2, # of connection points: 2
#     Edge 21, Type (0, 1), BuildingBlock: XUDNAN_clean_linker_2, # of connection points: 2
#     Edge 22, Type (0, 1), BuildingBlock: XUDNAN_clean_linker_2, # of connection points: 2
#     Edge 23, Type (0, 1), BuildingBlock: XUDNAN_clean_linker_2, # of connection points: 2
#     Edge 24, Type (0, 1), BuildingBlock: XUDNAN_clean_linker_2, # of connection points: 2
#     Edge 25, Type (0, 1), BuildingBlock: XUDNAN_clean_linker_2, # of connection points: 2
#     Edge 26, Type (0, 1), BuildingBlock: XUDNAN_clean_linker_2, # of connection points: 2
# Relax obj value: 0.252
# Max RMSD: 0.148
# Mean RMSD: 0.115
data_MOF--net-anh--node1-BETDIP_clean_sbu_0--node2-BETDAH_clean_linker_0--edge1-XUDNAN_clean_linker_2
_symmetry_space_group_name_H-M    P1
_symmetry_Int_Tables_number       1
_symmetry_cell_setting            triclinic
loop_
_symmetry_equiv_pos_as_xyz
'x, y, z'
_cell_length_a     30.181694
_cell_length_b     30.25566
_cell_length_c     49.442028
_cell_angle_alpha  92.396298
_cell_angle_beta   90.605303
_cell_angle_gamma 119.72969
loop_
_atom_site_label
_atom_site_type_symbol
_atom_site_fract_x
_atom_site_fract_y
_atom_site_fract_z
_atom_type_partial_charge
Tb0 Tb 0.14049 0.68959 0.158 0.0
Tb1 Tb 1.10571 0.58334 0.16991 0.0
C2 C 0.17949 0.78494 0.16041 0.0
C3 C 0.22453 0.83051 0.15175 0.0
C4 C 0.26513 0.82769 0.13996 0.0
C5 C 0.3094 0.87236 0.1339 0.0
C6 C 0.31345 0.92023 0.13958 0.0
C7 C 0.27135 0.92243 0.1499 0.0
C8 C 0.22722 0.87783 0.15595 0.0
C9 C 1.10793 0.62627 0.11473 0.0
C10 C 0.22315 0.65091 0.15764 0.0
C11 C 1.06486 0.48799 0.17192 0.0
C12 C 1.02887 0.44056 0.15623 0.0
C13 C 1.04605 0.42095 0.13504 0.0
C14 C 1.01432 0.37209 0.12331 0.0
C15 C 0.965 0.34167 0.13271 0.0
C16 C 0.9469 0.36252 0.1528 0.0
C17 C 0.97854 0.41138 0.16445 0.0
C18 C 0.1381 0.6468 0.21381 0.0
C19 C 1.02369 0.61966 0.15917 0.0
O20 O 0.187 0.75973 0.17915 0.0
O21 O 0.14781 0.75495 0.14102 0.0
O22 O 1.1322 0.62467 0.135 0.0
O23 O 1.10626 0.66816 0.1165 0.0
O24 O 0.21475 0.69023 0.15748 0.0
O25 O 0.18465 0.60418 0.16038 0.0
O26 O 1.10875 0.51676 0.16124 0.0
O27 O 1.04664 0.51474 0.18378 0.0
O28 O 1.11146 0.64737 0.19403 0.0
O29 O 0.14606 0.60913 0.20916 0.0
O30 O 1.0337 0.58146 0.1564 0.0
O31 O 1.06112 0.66633 0.16535 0.0
H32 H 0.26326 0.79124 0.13636 0.0
H33 H 0.34154 0.86954 0.12636 0.0
H34 H 0.2735 0.9588 0.15443 0.0
H35 H 0.19579 0.88041 0.16476 0.0
H36 H 1.08471 0.44244 0.1282 0.0
H37 H 1.02918 0.35727 0.10774 0.0
H38 H 0.90944 0.33986 0.16092 0.0
H39 H 0.9644 0.42521 0.18089 0.0
Tb40 Tb 0.66465 0.12296 0.50347 0.0
Tb41 Tb 0.59435 0.17077 0.49325 0.0
C42 C 0.72474 0.09665 0.52266 0.0
C43 C 0.7391 1.05689 0.51908 0.0
C44 C 0.74504 1.03453 0.54206 0.0
C45 C 0.766 1.00255 0.54003 0.0
C46 C 0.78173 0.99259 0.51494 0.0
C47 C 0.77354 1.01311 0.49168 0.0
C48 C 0.7522 1.04486 0.4937 0.0
C49 C 0.63504 0.11878 0.45305 0.0
C50 C 0.54235 1.0497 0.49594 0.0
C51 C 0.55282 0.21412 0.47048 0.0
C52 C 0.57669 0.26576 0.46035 0.0
C53 C 0.55545 0.2969 0.46622 0.0
C54 C 0.58534 0.34987 0.46516 0.0
C55 C 0.63725 0.37243 0.45875 0.0
C56 C 0.65613 0.34047 0.44963 0.0
C57 C 0.62614 0.28774 0.45047 0.0
C58 C 0.61167 0.16463 0.54622 0.0
C59 C 0.71595 0.24528 0.49795 0.0
O60 O 0.68 1.08328 0.53269 0.0
O61 O 0.73605 0.12811 0.50311 0.0
O62 O 0.64564 0.15441 0.47065 0.0
O63 O 0.64525 1.0858 0.46321 0.0
O64 O 0.58674 1.05562 0.50566 0.0
O65 O 0.53795 0.08892 0.48799 0.0
O66 O 0.56257 0.18117 0.45768 0.0
O67 O 0.55736 0.21363 0.49681 0.0
O68 O 0.6276 0.15345 0.52536 0.0
O69 O 0.58116 0.17991 0.53737 0.0
O70 O 0.67011 0.23896 0.49179 0.0
O71 O 0.72186 0.20631 0.50506 0.0
H72 H 0.73547 1.04354 0.56183 0.0
H73 H 0.77238 0.98785 0.55838 0.0
H74 H 0.78485 1.00564 0.47206 0.0
H75 H 0.74774 1.06142 0.47558 0.0
H76 H 0.51723 0.28072 0.47378 0.0
H77 H 0.56889 0.37319 0.47141 0.0
H78 H 0.69569 0.35584 0.44454 0.0
H79 H 0.64358 0.26477 0.44589 0.0
Tb80 Tb 0.63773 0.62937 0.82819 0.0
Tb81 Tb 0.75108 0.69969 0.82945 0.0
C82 C 0.54604 0.58313 0.84113 0.0
C83 C 0.49442 0.57519 0.836 0.0
C84 C 0.46547 0.5733 0.85833 0.0
C85 C 0.41268 0.55211 0.85529 0.0
C86 C 0.38785 0.5322 0.82982 0.0
C87 C 0.41749 0.53828 0.80706 0.0
C88 C 0.47042 0.55968 0.8101 0.0
C89 C 0.67871 0.64042 0.78074 0.0
C90 C 0.68358 0.75183 0.82292 0.0
C91 C 0.84374 0.73846 0.81925 0.0
C92 C 0.87424 0.71339 0.81355 0.0
C93 C 0.86453 0.68164 0.79003 0.0
C94 C 0.88484 0.64904 0.78786 0.0
C95 C 0.91477 0.64712 0.80929 0.0
C96 C 0.92766 0.68197 0.83179 0.0
C97 C 0.90804 0.71502 0.83373 0.0
C98 C 0.70878 0.68383 0.87734 0.0
C99 C 0.7054 0.57764 0.82758 0.0
O100 O 0.58049 0.62578 0.85367 0.0
O101 O 0.56488 0.56681 0.82203 0.0
O102 O 0.69149 0.67411 0.79963 0.0
O103 O 0.63703 0.60026 0.78694 0.0
O104 O 0.64313 0.70537 0.82511 0.0
O105 O 0.73063 0.7588 0.82295 0.0
O106 O 0.80844 0.73063 0.80104 0.0
O107 O 0.82711 0.73438 0.84387 0.0
O108 O 0.69739 0.65131 0.85786 0.0
O109 O 0.74737 0.72664 0.87081 0.0
O110 O 0.74435 0.62335 0.82294 0.0
O111 O 0.66089 0.57232 0.83466 0.0
H112 H 0.48312 0.58463 0.8785 0.0
H113 H 0.39102 0.54762 0.87331 0.0
H114 H 0.39946 0.52393 0.78713 0.0
H115 H 0.49193 0.56089 0.79248 0.0
H116 H 0.83901 0.67979 0.77394 0.0
H117 H 0.87504 0.62367 0.76996 0.0
H118 H 0.94992 0.68148 0.84896 0.0
H119 H 0.91637 0.73928 0.852 0.0
H120 H 0.63045 0.13226 0.2444 0.0
H121 H 0.71381 1.05646 0.26507 0.0
H122 H 0.65382 1.03944 0.18419 0.0
C123 C 0.64676 0.10873 0.23831 0.0
C124 C 0.63889 0.08788 0.21158 0.0
C125 C 0.67199 0.09611 0.25792 0.0
C126 C 0.69333 1.06563 0.25023 0.0
C127 C 0.68941 1.04799 0.22323 0.0
C128 C 0.6608 1.05773 0.20429 0.0
N129 N 0.71493 1.02119 0.2151 0.0
C130 C 0.74133 1.03298 0.19123 0.0
H131 H 0.82783 0.61272 0.60449 0.0
H132 H 0.94642 0.75977 0.63583 0.0
H133 H 0.92463 0.7259 0.55007 0.0
C134 C 0.85974 0.65006 0.6011 0.0
C135 C 0.8737 0.66432 0.57442 0.0
C136 C 0.88502 0.68435 0.62343 0.0
C137 C 0.92666 0.73261 0.61894 0.0
C138 C 0.94088 0.74739 0.59255 0.0
C139 C 0.91434 0.71334 0.57041 0.0
N140 N 0.97833 0.79836 0.58834 0.0
C141 C 0.96683 0.82635 0.57096 0.0
H142 H 0.97483 0.46067 0.93036 0.0
H143 H 1.01147 0.34839 0.95738 0.0
H144 H 0.98086 0.35353 0.87301 0.0
C145 C 0.98074 0.42856 0.92621 0.0
C146 C 0.97599 0.40933 0.89937 0.0
C147 C 0.99327 0.40691 0.94753 0.0
C148 C 0.99965 0.36449 0.94157 0.0
C149 C 0.99538 0.34541 0.91479 0.0
C150 C 0.98296 0.36756 0.89379 0.0
N151 N 1.01043 0.30877 0.90868 0.0
C152 C 1.04843 0.32039 0.89021 0.0
H153 H 0.22448 0.7506 0.41137 0.0
H154 H 1.08087 0.61378 0.42136 0.0
H155 H 0.18419 0.68923 0.49018 0.0
C156 C 0.19785 0.72244 0.42455 0.0
C157 C 0.21062 0.72648 0.4524 0.0
C158 C 0.15147 0.6821 0.41319 0.0
C159 C 1.11635 0.64482 0.43007 0.0
C160 C 1.128 0.64666 0.45794 0.0
C161 C 0.17529 0.68758 0.46875 0.0
N162 N 1.0946 0.60809 0.47569 0.0
C163 C 1.04449 0.56662 0.47068 0.0
H164 H 0.67636 0.25788 0.74295 0.0
H165 H 0.67819 0.11767 0.75242 0.0
H166 H 0.70979 0.22215 0.82128 0.0
C167 C 0.67991 0.23172 0.75592 0.0
C168 C 0.69257 0.24574 0.78366 0.0
C169 C 0.67572 0.18625 0.74433 0.0
C170 C 0.6817 0.15274 0.76117 0.0
C171 C 0.69338 0.16493 0.78906 0.0
C172 C 0.69964 0.21198 0.79994 0.0
N173 N 0.70104 0.13228 0.80659 0.0
C174 C 0.69161 1.08213 0.80089 0.0
H175 H 0.73351 0.64187 0.0728 0.0
H176 H 0.59177 0.64238 0.08194 0.0
H177 H 0.66579 0.62003 0.15081 0.0
C178 C 0.70408 0.6404 0.08574 0.0
C179 C 0.70578 0.6314 0.11335 0.0
C180 C 0.6627 0.64332 0.07414 0.0
C181 C 0.6235 0.6401 0.09081 0.0
C182 C 0.62465 0.63276 0.1187 0.0
C183 C 0.66544 0.62731 0.12956 0.0
N184 N 0.58505 0.62858 0.13626 0.0
C185 C 0.54435 0.63788 0.13086 0.0
H186 H 0.25736 0.58024 0.15845 0.0
H187 H 0.31008 0.73933 0.14521 0.0
H188 H 0.39578 0.7523 0.13552 0.0
H189 H 0.37445 0.6007 0.19175 0.0
H190 H 0.37026 0.54338 0.17671 0.0
H191 H 0.31296 0.5465 0.1823 0.0
H192 H 0.28652 0.52224 0.13156 0.0
H193 H 0.3439 0.51934 0.12578 0.0
H194 H 0.3297 0.56006 0.10624 0.0
H195 H 0.47774 0.74801 0.12673 0.0
H196 H 0.5475 0.72755 0.12208 0.0
H197 H 0.44347 0.5719 0.14159 0.0
C198 C 0.28685 0.61792 0.15355 0.0
C199 C 0.27608 0.65874 0.15263 0.0
C200 C 0.31652 0.70726 0.14615 0.0
C201 C 0.36566 0.71502 0.14051 0.0
C202 C 0.37477 0.67404 0.14144 0.0
C203 C 0.33647 0.62644 0.14799 0.0
C204 C 0.35655 0.58895 0.14805 0.0
C205 C 0.35336 0.56869 0.17639 0.0
C206 C 0.32743 0.54505 0.12664 0.0
C207 C 0.41201 0.62269 0.14049 0.0
C208 C 0.42168 0.67167 0.13663 0.0
C209 C 0.47024 0.70969 0.12968 0.0
C210 C 0.50978 0.6977 0.12693 0.0
C211 C 0.50114 0.64805 0.13106 0.0
C212 C 0.45131 0.6101 0.13788 0.0
H213 H 0.82111 0.27693 0.49463 0.0
H214 H 0.71557 0.33521 0.49494 0.0
H215 H 0.7861 0.42076 0.48652 0.0
H216 H 0.92794 0.39114 0.52875 0.0
H217 H 0.97605 0.38729 0.50916 0.0
H218 H 0.91725 0.33013 0.5154 0.0
H219 H 0.90137 0.30819 0.46385 0.0
H220 H 0.9599 0.36551 0.45742 0.0
H221 H 0.90051 0.35388 0.44189 0.0
H222 H 0.86874 0.50173 0.4769 0.0
H223 H 0.95684 0.57105 0.46978 0.0
H224 H 1.01204 0.46416 0.47639 0.0
C225 C 0.81285 0.30773 0.49318 0.0
C226 C 0.76174 0.2982 0.49528 0.0
C227 C 0.75352 0.34034 0.49308 0.0
C228 C 0.79369 0.38958 0.48831 0.0
C229 C 0.84306 0.39742 0.4858 0.0
C230 C 0.85302 0.3578 0.48843 0.0
C231 C 0.91003 0.37719 0.48509 0.0
C232 C 0.93425 0.37107 0.51115 0.0
C233 C 0.91844 0.34953 0.46061 0.0
C234 C 0.93035 0.43355 0.48009 0.0
C235 C 0.89083 0.44425 0.4805 0.0
C236 C 0.89979 0.49352 0.47648 0.0
C237 C 0.95011 0.53283 0.47228 0.0
C238 C 0.99159 0.52335 0.47204 0.0
C239 C 0.98122 0.47272 0.47599 0.0
H240 H 0.75572 0.8557 0.82137 0.0
H241 H 0.59254 0.75046 0.81461 0.0
H242 H 0.57771 0.82213 0.80658 0.0
H243 H 0.74737 0.95863 0.85681 0.0
H244 H 0.79992 1.00837 0.83986 0.0
H245 H 0.79798 0.94872 0.84454 0.0
H246 H 0.80573 0.9378 0.79294 0.0
H247 H 0.80741 0.99731 0.78808 0.0
H248 H 0.76022 0.93984 0.76986 0.0
H249 H 0.58005 0.90649 0.79899 0.0
H250 H 0.5995 0.99575 0.79501 0.0
H251 H 0.76064 1.04813 0.80744 0.0
C252 C 0.7168 0.84757 0.81819 0.0
C253 C 0.67533 0.7966 0.81863 0.0
C254 C 0.62516 0.78853 0.81446 0.0
C255 C 0.61629 0.82927 0.80978 0.0
C256 C 0.65783 0.87872 0.80937 0.0
C257 C 0.70716 0.88811 0.81364 0.0
C258 C 0.74495 0.94515 0.81277 0.0
C259 C 0.77429 0.96647 0.84012 0.0
C260 C 0.78176 0.95563 0.78953 0.0
C261 C 0.7093 0.96636 0.80737 0.0
C262 C 0.65915 0.92723 0.8053 0.0
C263 C 0.61925 0.93722 0.80053 0.0
C264 C 0.63063 0.98815 0.79815 0.0
C265 C 0.68151 1.02905 0.80053 0.0
C266 C 0.72134 1.01772 0.80513 0.0
H267 H 0.99516 0.68597 0.13858 0.0
H268 H 0.93111 0.53428 0.16821 0.0
H269 H 0.84399 0.52219 0.16175 0.0
H270 H 0.90504 0.71936 0.16647 0.0
H271 H 0.90219 0.75153 0.13719 0.0
H272 H 0.95921 0.74891 0.14514 0.0
H273 H 0.9545 0.7083 0.09734 0.0
H274 H 0.89765 0.71108 0.08917 0.0
H275 H 0.89691 0.65116 0.08581 0.0
H276 H 0.76236 0.52905 0.15393 0.0
H277 H 0.69527 0.54881 0.13984 0.0
H278 H 0.81146 0.69262 0.11096 0.0
C279 C 0.96282 0.6502 0.14383 0.0
C280 C 0.97046 0.61125 0.15432 0.0
C281 C 0.9267 0.56478 0.1603 0.0
C282 C 0.87691 0.5577 0.15677 0.0
C283 C 0.87081 0.59699 0.14661 0.0
C284 C 0.91272 0.642 0.13971 0.0
C285 C 0.89581 0.6772 0.12773 0.0
C286 C 0.91682 0.72721 0.14517 0.0
C287 C 0.91219 0.68754 0.09826 0.0
C288 C 0.83788 0.64539 0.12915 0.0
C289 C 0.82423 0.59955 0.14053 0.0
C290 C 0.77294 0.56469 0.14479 0.0
C291 C 0.73491 0.5764 0.13687 0.0
C292 C 0.74758 0.62227 0.12425 0.0
C293 C 0.80015 0.65713 0.12046 0.0
H294 H 0.4519 1.01566 0.46523 0.0
H295 H 0.52555 0.96254 0.5206 0.0
H296 H 0.44932 0.87632 0.51678 0.0
H297 H 0.32257 0.93977 0.48792 0.0
H298 H 0.29347 0.92685 0.45438 0.0
H299 H 0.35304 0.98464 0.46209 0.0
H300 H 0.39461 0.96167 0.42248 0.0
H301 H 0.33514 0.90387 0.41463 0.0
H302 H 0.39252 0.90102 0.42115 0.0
H303 H 0.36202 0.79392 0.5072 0.0
H304 H 0.2773 0.72425 0.49056 0.0
H305 H 0.26095 0.82927 0.4399 0.0
C306 C 0.45206 0.98607 0.47673 0.0
C307 C 0.49542 0.99683 0.49348 0.0
C308 C 0.49346 0.9561 0.5077 0.0
C309 C 0.44996 0.90669 0.50567 0.0
C310 C 0.40809 0.89752 0.48905 0.0
C311 C 0.40906 0.93614 0.47462 0.0
C312 C 0.35979 0.9159 0.45743 0.0
C313 C 0.33049 0.94344 0.46597 0.0
C314 C 0.37121 0.92092 0.42713 0.0
C315 C 0.33081 0.86001 0.46444 0.0
C316 C 0.35912 0.85024 0.48293 0.0
C317 C 0.33987 0.80149 0.49267 0.0
C318 C 0.29118 0.76192 0.48318 0.0
C319 C 0.2615 0.77033 0.46375 0.0
C320 C 0.28221 0.82066 0.45449 0.0
H321 H 0.63741 0.48137 0.80499 0.0
H322 H 0.78915 0.56964 0.84218 0.0
H323 H 0.80051 0.49398 0.83749 0.0
H324 H 0.60292 0.3588 0.83149 0.0
H325 H 0.57159 0.32284 0.80041 0.0
H326 H 0.57393 0.38261 0.80849 0.0
H327 H 0.61589 0.41642 0.7629 0.0
H328 H 0.61354 0.35671 0.75463 0.0
H329 H 0.6735 0.41557 0.75465 0.0
H330 H 0.79385 0.40588 0.82971 0.0
H331 H 0.77502 0.31903 0.81442 0.0
H332 H 0.63136 0.29003 0.77775 0.0
C333 C 0.67286 0.4846 0.81238 0.0
C334 C 0.71198 0.53148 0.82458 0.0
C335 C 0.75835 0.53428 0.83313 0.0
C336 C 0.76515 0.49133 0.8305 0.0
C337 C 0.72589 0.44572 0.81843 0.0
C338 C 0.68098 0.44245 0.80902 0.0
C339 C 0.6462 0.39011 0.7951 0.0
C340 C 0.59566 0.36193 0.80975 0.0
C341 C 0.63673 0.395 0.76504 0.0
C342 C 0.67811 0.36416 0.79836 0.0
C343 C 0.72363 0.39663 0.81228 0.0
C344 C 0.75858 0.38057 0.8185 0.0
C345 C 0.74733 0.3308 0.8099 0.0
C346 C 0.70172 0.29717 0.79478 0.0
C347 C 0.66673 0.31456 0.7891 0.0
H348 H 0.76088 0.90579 0.54013 0.0
H349 H 0.86955 1.01871 0.48824 0.0
H350 H 0.92567 0.98141 0.49259 0.0
H351 H 0.84785 0.91041 0.58631 0.0
H352 H 0.81542 0.84337 0.59236 0.0
H353 H 0.77952 0.87247 0.58117 0.0
H354 H 0.74197 0.80701 0.54011 0.0
H355 H 0.77742 0.77723 0.55134 0.0
H356 H 0.78444 0.79932 0.51752 0.0
H357 H 0.97593 0.94063 0.50851 0.0
H358 H 1.01355 0.89625 0.53305 0.0
H359 H 0.87211 0.81064 0.57426 0.0
C360 C 0.79592 0.92186 0.52917 0.0
C361 C 0.8108 0.96496 0.51378 0.0
C362 C 0.85701 0.98513 0.49978 0.0
C363 C 0.88923 0.96433 0.50222 0.0
C364 C 0.87434 0.923 0.51842 0.0
C365 C 0.82835 0.90147 0.53132 0.0
C366 C 0.82305 0.86011 0.54938 0.0
C367 C 0.81608 0.87237 0.57905 0.0
C368 C 0.77911 0.80782 0.53895 0.0
C369 C 0.87425 0.86346 0.5457 0.0
C370 C 0.90313 0.8994 0.52747 0.0
C371 C 0.9533 0.91169 0.52239 0.0
C372 C 0.97443 0.88664 0.53641 0.0
C373 C 0.94527 0.8503 0.55519 0.0
C374 C 0.89465 0.83813 0.55965 0.0
H375 H 0.99983 0.65029 0.83212 0.0
H376 H 0.85518 0.54755 0.79004 0.0
H377 H 0.86506 0.47464 0.80136 0.0
H378 H 1.06348 0.56961 0.82164 0.0
H379 H 1.09087 0.58686 0.85563 0.0
H380 H 1.08134 0.63159 0.83695 0.0
H381 H 1.02886 0.6395 0.87611 0.0
H382 H 1.03744 0.59443 0.89468 0.0
H383 H 0.97393 0.58288 0.887 0.0
H384 H 0.8807 0.41207 0.82519 0.0
H385 H 0.90075 0.36669 0.85959 0.0
H386 H 1.03029 0.50977 0.88949 0.0
C387 C 0.9708 0.61261 0.82465 0.0
C388 C 0.92673 0.60501 0.8102 0.0
C389 C 0.88992 0.55491 0.80066 0.0
C390 C 0.89503 0.51296 0.80715 0.0
C391 C 0.9371 0.52162 0.82318 0.0
C392 C 0.97467 0.57036 0.83159 0.0
C393 C 1.01137 0.56939 0.85232 0.0
C394 C 1.06494 0.59061 0.84094 0.0
C395 C 1.01292 0.59822 0.87909 0.0
C396 C 0.98667 0.5127 0.85558 0.0
C397 C 0.94489 0.48557 0.83797 0.0
C398 C 0.91381 0.43285 0.83875 0.0
C399 C 0.92531 0.40742 0.85832 0.0
C400 C 0.96678 0.43503 0.8771 0.0
C401 C 0.99831 0.48802 0.8753 0.0
H402 H 0.35676 0.99209 0.1802 0.0
H403 H 0.38494 0.95034 0.10012 0.0
H404 H 0.47624 1.01508 0.10643 0.0
H405 H 0.46857 0.1336 0.18469 0.0
H406 H 0.47955 0.12694 0.2198 0.0
H407 H 0.41548 0.09444 0.20517 0.0
H408 H 0.4036 1.00861 0.22079 0.0
H409 H 0.46697 1.04058 0.23528 0.0
H410 H 0.44832 0.98852 0.21042 0.0
H411 H 0.56475 1.06597 0.12539 0.0
H412 H 0.63935 0.08932 0.15554 0.0
H413 H 0.55217 0.09008 0.22463 0.0
C414 C 0.38166 0.99885 0.16338 0.0
C415 C 0.36394 0.96699 0.13956 0.0
C416 C 0.39788 0.9749 0.11843 0.0
C417 C 0.44969 1.01189 0.1218 0.0
C418 C 0.4668 1.04053 0.1464 0.0
C419 C 0.43346 1.03458 0.16681 0.0
C420 C 0.46174 1.05997 0.19338 0.0
C421 C 0.456 0.10652 0.20121 0.0
C422 C 0.44416 1.02214 0.21625 0.0
C423 C 0.51573 1.07624 0.18552 0.0
C424 C 0.51839 1.06747 0.15807 0.0
C425 C 0.5632 1.07373 0.14682 0.0
C426 C 0.60527 1.08633 0.16422 0.0
C427 C 0.60158 0.09057 0.19268 0.0
C428 C 0.5571 0.08826 0.20307 0.0
H429 H 0.63255 0.42848 0.50239 0.0
H430 H 0.72644 0.43937 0.4342 0.0
H431 H 0.79623 0.5201 0.4548 0.0
H432 H 0.68169 0.56979 0.51247 0.0
H433 H 0.67696 0.56477 0.54865 0.0
H434 H 0.63244 0.51242 0.52628 0.0
H435 H 0.65688 0.45261 0.55026 0.0
H436 H 0.70253 0.50475 0.57214 0.0
H437 H 0.72268 0.46771 0.55163 0.0
H438 H 0.86044 0.59052 0.48716 0.0
H439 H 0.90981 0.65058 0.52558 0.0
H440 H 0.77034 0.59747 0.56985 0.0
C441 C 0.6666 0.44874 0.49092 0.0
C442 C 0.67373 0.42698 0.46665 0.0
C443 C 0.72006 0.4546 0.45302 0.0
C444 C 0.75993 0.50073 0.46449 0.0
C445 C 0.75241 0.51945 0.48921 0.0
C446 C 0.7063 0.49502 0.50183 0.0
C447 C 0.70875 0.52091 0.52908 0.0
C448 C 0.67284 0.54332 0.52911 0.0
C449 C 0.69703 0.48431 0.55211 0.0
C450 C 0.76406 0.56243 0.53038 0.0
C451 C 0.78872 0.56118 0.50723 0.0
C452 C 0.84115 0.59288 0.50503 0.0
C453 C 0.86888 0.62694 0.52699 0.0
C454 C 0.84414 0.6291 0.55085 0.0
C455 C 0.79084 0.59669 0.55217 0.0
H456 H 0.31564 0.54709 0.85532 0.0
H457 H 0.33355 0.44017 0.80178 0.0
H458 H 0.24309 0.3763 0.80672 0.0
H459 H 0.24638 0.46295 0.90155 0.0
H460 H 0.20428 0.48769 0.90927 0.0
H461 H 0.26655 0.529 0.8969 0.0
H462 H 0.22638 0.5523 0.85729 0.0
H463 H 0.16375 0.51152 0.86976 0.0
H464 H 0.17774 0.50229 0.83532 0.0
H465 H 0.15602 0.31896 0.8242 0.0
H466 H 1.07747 0.27549 0.85071 0.0
H467 H 1.11688 0.41931 0.89282 0.0
C468 C 0.30006 0.5108 0.84398 0.0
C469 C 0.33157 0.49879 0.82804 0.0
C470 C 0.30995 0.45069 0.81367 0.0
C471 C 0.25859 0.41398 0.81647 0.0
C472 C 0.22921 0.42616 0.83343 0.0
C473 C 0.24893 0.47379 0.84656 0.0
C474 C 0.21121 0.47569 0.86581 0.0
C475 C 0.23345 0.48963 0.8951 0.0
C476 C 0.19373 0.51264 0.85648 0.0
C477 C 0.16839 0.42103 0.86254 0.0
C478 C 0.17899 0.39312 0.84347 0.0
C479 C 0.14674 0.34066 0.8387 0.0
C480 C 1.10255 0.31624 0.85385 0.0
C481 C 1.0918 0.34452 0.87344 0.0
C482 C 1.12455 0.39734 0.8776 0.0
H483 H 0.86196 0.28281 0.1229 0.0
H484 H 1.00148 0.27535 0.12753 0.0
H485 H 0.95138 0.18231 0.12919 0.0
H486 H 0.80711 0.21088 0.17158 0.0
H487 H 0.74208 0.17731 0.15834 0.0
H488 H 0.78586 0.23838 0.14638 0.0
H489 H 0.76789 0.20006 0.097 0.0
H490 H 0.72346 0.13842 0.10896 0.0
H491 H 0.77545 0.14574 0.08842 0.0
H492 H 0.89175 0.09937 0.14641 0.0
H493 H 0.82764 1.03476 0.17512 0.0
H494 H 0.72519 0.09255 0.15915 0.0
C495 C 0.8817 0.26116 0.12299 0.0
C496 C 0.93548 0.28629 0.12511 0.0
C497 C 0.96029 0.25701 0.12542 0.0
C498 C 0.93201 0.20389 0.12641 0.0
C499 C 0.87895 0.18048 0.12666 0.0
C500 C 0.85386 0.20813 0.12428 0.0
C501 C 0.79793 0.17627 0.13042 0.0
C502 C 0.78244 0.20224 0.15303 0.0
C503 C 0.7642 0.16441 0.10465 0.0
C504 C 0.7969 0.12871 0.13963 0.0
C505 C 0.84345 0.13093 0.13635 0.0
C506 C 0.85446 0.09597 0.14799 0.0
C507 C 0.81797 1.05939 0.16428 0.0
C508 C 0.7714 1.05833 0.1686 0.0
C509 C 0.75989 0.09166 0.15522 0.0
H510 H 1.10277 0.63754 0.06027 0.0
H511 H 1.05986 0.52469 0.12037 0.0
H512 H 1.022 0.45567 0.08442 0.0
H513 H 0.9926 0.56547 0.01391 0.0
H514 H 1.0295 0.58645 0.98395 0.0
H515 H 1.04998 0.62682 0.0146 0.0
H516 H 0.13802 0.63147 0.01325 0.0
H517 H 1.11784 0.59125 0.98259 0.0
H518 H 0.14078 0.57325 0.01158 0.0
H519 H 0.99043 0.3993 0.04203 0.0
H520 H 0.9702 0.35912 -0.00427 0.0
H521 H 1.03935 0.50913 0.96287 0.0
C522 C 1.08492 0.59822 0.06575 0.0
C523 C 1.08421 0.58598 0.093 0.0
C524 C 1.06133 0.53442 0.09955 0.0
C525 C 1.03945 0.49512 0.0793 0.0
C526 C 1.04142 0.50823 0.05253 0.0
C527 C 1.06386 0.5585 0.04565 0.0
C528 C 1.06356 0.56214 0.01519 0.0
C529 C 1.03202 0.58667 0.00641 0.0
C530 C 1.1183 0.59124 0.00507 0.0
C531 C 1.03747 0.50614 0.00614 0.0
C532 C 1.02456 0.47568 0.02799 0.0
C533 C 1.00044 0.42274 0.0247 0.0
C534 C 0.98943 0.40028 -0.00169 0.0
C535 C 1.00304 0.43075 0.97552 0.0
C536 C 1.02736 0.48445 0.97971 0.0
H537 H 0.6139 1.04564 0.41348 0.0
H538 H 0.65955 0.20518 0.4267 0.0
H539 H 0.6722 0.21702 0.37763 0.0
H540 H 0.70568 1.06296 0.36675 0.0
H541 H 0.66545 1.00631 0.34576 0.0
H542 H 0.65335 1.00869 0.38121 0.0
H543 H 0.56046 0.9869 0.36966 0.0
H544 H 0.57187 0.9833 0.33415 0.0
H545 H 0.54922 1.02515 0.34656 0.0
H546 H 0.68636 0.21228 0.32759 0.0
H547 H 0.69616 0.19035 0.28003 0.0
H548 H 0.64427 1.03451 0.30044 0.0
C549 C 0.62534 1.08276 0.40591 0.0
C550 C 0.63484 0.12443 0.42367 0.0
C551 C 0.65065 0.17262 0.41323 0.0
C552 C 0.65847 0.17972 0.38546 0.0
C553 C 0.65029 0.13812 0.36856 0.0
C554 C 0.63356 0.09045 0.37836 0.0
C555 C 0.63013 1.05258 0.35632 0.0
C556 C 0.66578 1.03142 0.36292 0.0
C557 C 0.57462 1.00944 0.35138 0.0
C558 C 0.64859 1.08662 0.33268 0.0
C559 C 0.6597 0.13572 0.34005 0.0
C560 C 0.67751 0.17389 0.32155 0.0
C561 C 0.68311 0.16118 0.29468 0.0
C562 C 0.67135 0.11091 0.28673 0.0
C563 C 0.65438 1.07344 0.30609 0.0
H564 H 0.7476 0.7198 0.75204 0.0
H565 H 0.686 0.55849 0.76271 0.0
H566 H 0.74196 0.55517 0.72758 0.0
H567 H 0.75064 0.71177 0.68125 0.0
H568 H 0.80908 0.77138 0.67866 0.0
H569 H 0.76919 0.76234 0.70703 0.0
H570 H 0.84579 0.78475 0.74005 0.0
H571 H 0.88579 0.79375 0.7116 0.0
H572 H 0.87949 0.74966 0.7367 0.0
H573 H 0.79937 0.56764 0.6892 0.0
H574 H 0.84896 0.59332 0.64772 0.0
H575 H 0.8707 0.74573 0.66046 0.0
C576 C 0.7466 0.68408 0.74714 0.0
C577 C 0.71294 0.63949 0.76004 0.0
C578 C 0.71164 0.59306 0.75293 0.0
C579 C 0.74355 0.59089 0.7332 0.0
C580 C 0.77617 0.63543 0.72061 0.0
C581 C 0.7777 0.6811 0.72713 0.0
C582 C 0.81287 0.72224 0.70889 0.0
C583 C 0.78369 0.74313 0.69302 0.0
C584 C 0.85871 0.76514 0.72529 0.0
C585 C 0.82928 0.69208 0.69045 0.0
C586 C 0.80863 0.64241 0.69798 0.0
C587 C 0.81609 0.60654 0.6832 0.0
C588 C 0.8441 0.6214 0.65961 0.0
C589 C 0.86375 0.67151 0.65082 0.0
C590 C 0.85721 0.7075 0.66692 0.0
H591 H 0.57001 0.17952 0.59285 0.0
H592 H 0.68938 0.15132 0.56451 0.0
H593 H 0.71398 0.14717 0.61164 0.0
H594 H 0.6461 0.26461 0.64884 0.0
H595 H 0.59367 0.24453 0.67132 0.0
H596 H 0.58206 0.24041 0.63525 0.0
H597 H 0.51653 0.14423 0.63713 0.0
H598 H 0.52801 0.14806 0.67322 0.0
H599 H 0.53573 0.10263 0.65197 0.0
H600 H 0.72599 0.14639 0.66193 0.0
H601 H 0.73052 0.15742 0.71181 0.0
H602 H 0.60841 0.19369 0.70866 0.0
C603 C 0.60088 0.17182 0.59663 0.0
C604 C 0.62619 0.16302 0.57486 0.0
C605 C 0.66749 0.1549 0.58068 0.0
C606 C 0.68222 0.1533 0.60748 0.0
C607 C 0.65603 0.16117 0.62848 0.0
C608 C 0.61674 0.17109 0.62344 0.0
C609 C 0.59738 0.18171 0.64983 0.0
C610 C 0.60529 0.23604 0.65139 0.0
C611 C 0.54107 0.14177 0.65323 0.0
C612 C 0.63192 0.17621 0.67041 0.0
C613 C 0.66499 0.16371 0.6576 0.0
C614 C 0.70029 0.15621 0.67218 0.0
C615 C 0.70236 0.16224 0.70056 0.0
C616 C 0.66975 0.17621 0.71426 0.0
C617 C 0.63395 0.18311 0.69883 0.0
H618 H 0.75786 0.7368 0.92505 0.0
H619 H 0.6217 0.60115 0.89333 0.0
H620 H 0.5925 0.57961 0.93997 0.0
H621 H 0.77756 0.67589 0.98107 0.0
H622 H 0.80216 0.73142 0.00403 0.0
H623 H 0.80998 0.73874 0.96814 0.0
H624 H 0.76577 0.79344 0.96922 0.0
H625 H 0.75768 0.78616 0.00512 0.0
H626 H 0.70306 0.76799 0.9828 0.0
H627 H 0.57763 0.57346 0.99038 0.0
H628 H 0.58302 0.57711 0.04048 0.0
H629 H 0.73291 0.71169 0.03994 0.0
C630 C 0.72157 0.70292 0.92793 0.0
C631 C 0.69129 0.67133 0.90545 0.0
C632 C 0.64488 0.62652 0.91014 0.0
C633 C 0.62807 0.61393 0.9366 0.0
C634 C 0.65869 0.6459 0.95833 0.0
C635 C 0.70492 0.68901 0.95431 0.0
C636 C 0.73245 0.71464 0.98121 0.0
C637 C 0.78356 0.71518 0.98375 0.0
C638 C 0.74018 0.76877 0.98479 0.0
C639 C 0.69442 0.67938 0.00099 0.0
C640 C 0.65173 0.64047 0.98735 0.0
C641 C 0.61098 0.60366 0.00122 0.0
C642 C 0.61423 0.60618 0.02969 0.0
C643 C 0.65826 0.64468 0.04411 0.0
C644 C 0.69878 0.68181 0.02946 0.0
H645 H 0.20305 0.65994 0.25589 0.0
H646 H 1.06702 0.66795 0.23639 0.0
H647 H 1.05561 0.67895 0.2854 0.0
H648 H 0.15955 0.58932 0.31345 0.0
H649 H 0.21935 0.62253 0.33259 0.0
H650 H 0.21892 0.61928 0.29615 0.0
H651 H 0.27115 0.71777 0.29607 0.0
H652 H 0.27249 0.72135 0.33256 0.0
H653 H 0.24824 0.75527 0.31391 0.0
H654 H 1.05417 0.67874 0.33752 0.0
H655 H 1.06949 0.67968 0.38706 0.0
H656 H 0.2094 0.67728 0.37201 0.0
C657 C 0.17157 0.66532 0.26193 0.0
C658 C 0.1361 0.66346 0.24231 0.0
C659 C 1.09506 0.66999 0.251 0.0
C660 C 1.08808 0.67582 0.27884 0.0
C661 C 1.12296 0.6759 0.29774 0.0
C662 C 0.1646 0.67201 0.28953 0.0
C663 C 0.19642 0.67269 0.3137 0.0
C664 C 0.19866 0.623 0.31397 0.0
C665 C 0.25026 0.71957 0.31408 0.0
C666 C 0.1658 0.67656 0.33689 0.0
C667 C 1.12326 0.67789 0.32735 0.0
C668 C 1.08784 0.67856 0.34511 0.0
C669 C 1.09661 0.67875 0.37321 0.0
C670 C 0.14077 0.67896 0.38338 0.0
C671 C 0.17562 0.67777 0.36484 0.0
loop_
_geom_bond_atom_site_label_1
_geom_bond_atom_site_label_2
_geom_bond_distance
_geom_bond_site_symmetry_2
_ccdc_geom_bond_type
Tb0 C2 2.809 . S
Tb0 O20 2.484 . S
Tb0 O21 2.440 . S
Tb0 O22 2.658 . S
Tb0 O23 2.409 . S
Tb0 O24 2.378 . S
Tb0 O28 2.325 . S
Tb0 O31 2.341 1_455 S
Tb1 C11 2.809 . S
Tb1 O22 2.325 1_655 S
Tb1 O25 2.341 1_655 S
Tb1 O26 2.484 . S
Tb1 O27 2.440 . S
Tb1 O28 2.658 1_655 S
Tb1 O29 2.410 1_655 S
Tb1 O30 2.378 . S
C2 Tb0 2.809 . S
C2 C3 1.514 . S
C2 O20 1.248 . S
C2 O21 1.266 . S
C3 C2 1.514 . S
C3 C4 1.359 . S
C3 C8 1.348 . S
C4 C3 1.359 . S
C4 C5 1.380 . S
C4 H32 0.929 . S
C5 C4 1.380 . S
C5 C6 1.347 . S
C5 H33 0.931 . S
C6 C5 1.347 . S
C6 C7 1.369 . S
C7 C6 1.369 . S
C7 C8 1.408 . S
C7 H34 0.930 . S
C8 C3 1.348 . S
C8 C7 1.408 . S
C8 H35 0.930 . S
C9 O22 1.281 . S
C9 O23 1.254 . S
C10 O24 1.236 . S
C10 O25 1.266 . S
C11 Tb1 2.809 . S
C11 C12 1.514 . S
C11 O26 1.248 . S
C11 O27 1.266 . S
C12 C11 1.514 . S
C12 C13 1.359 . S
C12 C17 1.348 . S
C13 C12 1.359 . S
C13 C14 1.380 . S
C13 H36 0.929 . S
C14 C13 1.380 . S
C14 C15 1.347 . S
C14 H37 0.931 . S
C15 C14 1.347 . S
C15 C16 1.369 . S
C16 C15 1.369 . S
C16 C17 1.408 . S
C16 H38 0.930 . S
C17 C12 1.348 . S
C17 C16 1.408 . S
C17 H39 0.930 . S
C18 O28 1.281 . S
C18 O29 1.254 . S
C19 O30 1.236 . S
C19 O31 1.266 . S
O20 Tb0 2.484 . S
O20 C2 1.248 . S
O21 Tb0 2.440 . S
O21 C2 1.266 . S
O22 Tb0 2.658 . S
O22 Tb1 2.325 1_455 S
O22 C9 1.281 . S
O23 Tb0 2.409 . S
O23 C9 1.254 . S
O24 Tb0 2.378 . S
O24 C10 1.236 . S
O25 Tb1 2.341 1_455 S
O25 C10 1.266 . S
O26 Tb1 2.484 . S
O26 C11 1.248 . S
O27 Tb1 2.440 . S
O27 C11 1.266 . S
O28 Tb0 2.325 . S
O28 Tb1 2.658 1_455 S
O28 C18 1.281 . S
O29 Tb1 2.410 1_455 S
O29 C18 1.254 . S
O30 Tb1 2.378 . S
O30 C19 1.236 . S
O31 Tb0 2.341 1_655 S
O31 C19 1.266 . S
H32 C4 0.929 . S
H33 C5 0.931 . S
H34 C7 0.930 . S
H35 C8 0.930 . S
H36 C13 0.929 . S
H37 C14 0.931 . S
H38 C16 0.930 . S
H39 C17 0.930 . S
Tb40 C42 2.809 1_545 S
Tb40 O60 2.484 1_545 S
Tb40 O61 2.440 1_545 S
Tb40 O62 2.658 . S
Tb40 O63 2.409 . S
Tb40 O64 2.378 1_545 S
Tb40 O68 2.325 . S
Tb40 O71 2.341 . S
Tb41 C51 2.809 . S
Tb41 O62 2.325 . S
Tb41 O65 2.341 1_545 S
Tb41 O66 2.484 . S
Tb41 O67 2.440 . S
Tb41 O68 2.658 . S
Tb41 O69 2.409 . S
Tb41 O70 2.378 . S
C42 Tb40 2.809 1_565 S
C42 C43 1.514 . S
C42 O60 1.248 . S
C42 O61 1.266 . S
C43 C42 1.514 . S
C43 C44 1.359 . S
C43 C48 1.348 . S
C44 C43 1.359 . S
C44 C45 1.380 . S
C44 H72 0.929 . S
C45 C44 1.380 . S
C45 C46 1.347 . S
C45 H73 0.931 . S
C46 C45 1.347 . S
C46 C47 1.369 . S
C47 C46 1.369 . S
C47 C48 1.408 . S
C47 H74 0.930 . S
C48 C43 1.348 . S
C48 C47 1.408 . S
C48 H75 0.930 . S
C49 O62 1.281 . S
C49 O63 1.254 . S
C50 O64 1.236 . S
C50 O65 1.266 . S
C51 Tb41 2.809 . S
C51 C52 1.514 . S
C51 O66 1.248 . S
C51 O67 1.266 . S
C52 C51 1.514 . S
C52 C53 1.359 . S
C52 C57 1.348 . S
C53 C52 1.359 . S
C53 C54 1.380 . S
C53 H76 0.929 . S
C54 C53 1.380 . S
C54 C55 1.347 . S
C54 H77 0.931 . S
C55 C54 1.347 . S
C55 C56 1.369 . S
C56 C55 1.369 . S
C56 C57 1.408 . S
C56 H78 0.930 . S
C57 C52 1.348 . S
C57 C56 1.408 . S
C57 H79 0.930 . S
C58 O68 1.281 . S
C58 O69 1.254 . S
C59 O70 1.236 . S
C59 O71 1.266 . S
O60 Tb40 2.484 1_565 S
O60 C42 1.248 . S
O61 Tb40 2.440 1_565 S
O61 C42 1.266 . S
O62 Tb40 2.658 . S
O62 Tb41 2.325 . S
O62 C49 1.281 . S
O63 Tb40 2.409 . S
O63 C49 1.254 . S
O64 Tb40 2.378 1_565 S
O64 C50 1.236 . S
O65 Tb41 2.341 1_565 S
O65 C50 1.266 . S
O66 Tb41 2.484 . S
O66 C51 1.248 . S
O67 Tb41 2.440 . S
O67 C51 1.266 . S
O68 Tb40 2.325 . S
O68 Tb41 2.658 . S
O68 C58 1.281 . S
O69 Tb41 2.409 . S
O69 C58 1.254 . S
O70 Tb41 2.378 . S
O70 C59 1.236 . S
O71 Tb40 2.341 . S
O71 C59 1.266 . S
H72 C44 0.929 . S
H73 C45 0.931 . S
H74 C47 0.930 . S
H75 C48 0.930 . S
H76 C53 0.929 . S
H77 C54 0.931 . S
H78 C56 0.930 . S
H79 C57 0.930 . S
Tb80 C82 2.809 . S
Tb80 O100 2.484 . S
Tb80 O101 2.440 . S
Tb80 O102 2.658 . S
Tb80 O103 2.409 . S
Tb80 O104 2.378 . S
Tb80 O108 2.325 . S
Tb80 O111 2.341 . S
Tb81 C91 2.809 . S
Tb81 O102 2.325 . S
Tb81 O105 2.341 . S
Tb81 O106 2.484 . S
Tb81 O107 2.440 . S
Tb81 O108 2.658 . S
Tb81 O109 2.409 . S
Tb81 O110 2.378 . S
C82 Tb80 2.809 . S
C82 C83 1.514 . S
C82 O100 1.248 . S
C82 O101 1.266 . S
C83 C82 1.514 . S
C83 C84 1.359 . S
C83 C88 1.348 . S
C84 C83 1.359 . S
C84 C85 1.380 . S
C84 H112 0.929 . S
C85 C84 1.380 . S
C85 C86 1.347 . S
C85 H113 0.931 . S
C86 C85 1.347 . S
C86 C87 1.369 . S
C87 C86 1.369 . S
C87 C88 1.408 . S
C87 H114 0.930 . S
C88 C83 1.348 . S
C88 C87 1.408 . S
C88 H115 0.930 . S
C89 O102 1.281 . S
C89 O103 1.254 . S
C90 O104 1.236 . S
C90 O105 1.266 . S
C91 Tb81 2.809 . S
C91 C92 1.514 . S
C91 O106 1.248 . S
C91 O107 1.266 . S
C92 C91 1.514 . S
C92 C93 1.359 . S
C92 C97 1.348 . S
C93 C92 1.359 . S
C93 C94 1.380 . S
C93 H116 0.929 . S
C94 C93 1.380 . S
C94 C95 1.347 . S
C94 H117 0.931 . S
C95 C94 1.347 . S
C95 C96 1.369 . S
C96 C95 1.369 . S
C96 C97 1.408 . S
C96 H118 0.930 . S
C97 C92 1.348 . S
C97 C96 1.408 . S
C97 H119 0.930 . S
C98 O108 1.281 . S
C98 O109 1.254 . S
C99 O110 1.236 . S
C99 O111 1.266 . S
O100 Tb80 2.484 . S
O100 C82 1.248 . S
O101 Tb80 2.440 . S
O101 C82 1.266 . S
O102 Tb80 2.658 . S
O102 Tb81 2.325 . S
O102 C89 1.281 . S
O103 Tb80 2.409 . S
O103 C89 1.254 . S
O104 Tb80 2.378 . S
O104 C90 1.236 . S
O105 Tb81 2.341 . S
O105 C90 1.266 . S
O106 Tb81 2.484 . S
O106 C91 1.248 . S
O107 Tb81 2.440 . S
O107 C91 1.266 . S
O108 Tb80 2.325 . S
O108 Tb81 2.658 . S
O108 C98 1.281 . S
O109 Tb81 2.409 . S
O109 C98 1.254 . S
O110 Tb81 2.378 . S
O110 C99 1.236 . S
O111 Tb80 2.341 . S
O111 C99 1.266 . S
H112 C84 0.929 . S
H113 C85 0.931 . S
H114 C87 0.930 . S
H115 C88 0.930 . S
H116 C93 0.929 . S
H117 C94 0.931 . S
H118 C96 0.930 . S
H119 C97 0.930 . S
H120 C123 0.929 . S
H121 C126 0.929 . S
H122 C128 0.930 . S
C123 H120 0.929 . S
C123 C124 1.398 . S
C123 C125 1.396 . S
C124 C123 1.398 . S
C124 C128 1.407 . S
C125 C123 1.396 . S
C125 C126 1.394 . S
C126 H121 0.929 . S
C126 C125 1.394 . S
C126 C127 1.382 . S
C127 C126 1.382 . S
C127 C128 1.392 . S
C127 N129 1.420 . S
C128 H122 0.930 . S
C128 C124 1.407 . S
C128 C127 1.392 . S
N129 C127 1.420 . S
N129 C130 1.244 . S
C130 N129 1.244 . S
H131 C134 0.929 . S
H132 C137 0.929 . S
H133 C139 0.930 . S
C134 H131 0.929 . S
C134 C135 1.398 . S
C134 C136 1.396 . S
C135 C134 1.398 . S
C135 C139 1.407 . S
C136 C134 1.396 . S
C136 C137 1.394 . S
C137 H132 0.929 . S
C137 C136 1.394 . S
C137 C138 1.382 . S
C138 C137 1.382 . S
C138 C139 1.392 . S
C138 N140 1.420 . S
C139 H133 0.930 . S
C139 C135 1.407 . S
C139 C138 1.392 . S
N140 C138 1.420 . S
N140 C141 1.244 . S
C141 N140 1.244 . S
H142 C145 0.929 . S
H143 C148 0.929 . S
H144 C150 0.930 . S
C145 H142 0.929 . S
C145 C146 1.398 . S
C145 C147 1.396 1_655 S
C146 C145 1.398 . S
C146 C150 1.407 . S
C147 C145 1.396 1_455 S
C147 C148 1.394 . S
C148 H143 0.929 . S
C148 C147 1.394 . S
C148 C149 1.382 . S
C149 C148 1.382 . S
C149 C150 1.392 1_455 S
C149 N151 1.420 . S
C150 H144 0.930 . S
C150 C146 1.407 . S
C150 C149 1.392 1_655 S
N151 C149 1.420 . S
N151 C152 1.244 . S
C152 N151 1.244 . S
H153 C156 0.929 . S
H154 C159 0.929 1_655 S
H155 C161 0.930 . S
C156 H153 0.929 . S
C156 C157 1.398 . S
C156 C158 1.396 . S
C157 C156 1.398 . S
C157 C161 1.407 . S
C158 C156 1.396 . S
C158 C159 1.394 . S
C159 H154 0.929 1_455 S
C159 C158 1.394 . S
C159 C160 1.382 . S
C160 C159 1.382 . S
C160 C161 1.392 . S
C160 N162 1.420 1_455 S
C161 H155 0.930 . S
C161 C157 1.407 . S
C161 C160 1.392 . S
N162 C160 1.420 1_655 S
N162 C163 1.244 . S
C163 N162 1.244 . S
H164 C167 0.929 . S
H165 C170 0.929 1_565 S
H166 C172 0.930 . S
C167 H164 0.929 . S
C167 C168 1.398 . S
C167 C169 1.396 . S
C168 C167 1.398 . S
C168 C172 1.407 . S
C169 C167 1.396 . S
C169 C170 1.394 . S
C170 H165 0.929 1_545 S
C170 C169 1.394 . S
C170 C171 1.382 . S
C171 C170 1.382 . S
C171 C172 1.392 . S
C171 N173 1.420 1_545 S
C172 H166 0.930 . S
C172 C168 1.407 . S
C172 C171 1.392 . S
N173 C171 1.420 1_565 S
N173 C174 1.244 . S
C174 N173 1.244 . S
H175 C178 0.929 . S
H176 C181 0.929 . S
H177 C183 0.930 . S
C178 H175 0.929 . S
C178 C179 1.398 . S
C178 C180 1.396 . S
C179 C178 1.398 . S
C179 C183 1.407 . S
C180 C178 1.396 . S
C180 C181 1.394 . S
C181 H176 0.929 . S
C181 C180 1.394 . S
C181 C182 1.382 . S
C182 C181 1.382 . S
C182 C183 1.392 . S
C182 N184 1.420 . S
C183 H177 0.930 . S
C183 C179 1.407 . S
C183 C182 1.392 . S
N184 C182 1.420 . S
N184 C185 1.244 . S
C185 N184 1.244 . S
H186 C198 0.930 . S
H187 C200 0.930 . S
H188 C201 0.930 . S
H189 C205 0.959 . S
H190 C205 0.959 . S
H191 C205 0.961 . S
H192 C206 0.960 . S
H193 C206 0.961 . S
H194 C206 0.959 . S
H195 C209 0.929 . S
H196 C210 0.931 . S
H197 C212 0.930 . S
C198 H186 0.930 . S
C198 C199 1.399 . S
C198 C203 1.399 . S
C199 C198 1.399 . S
C199 C200 1.376 . S
C200 H187 0.930 . S
C200 C199 1.376 . S
C200 C201 1.388 . S
C201 H188 0.930 . S
C201 C200 1.388 . S
C201 C202 1.390 . S
C202 C201 1.390 . S
C202 C203 1.394 . S
C202 C208 1.465 . S
C203 C198 1.399 . S
C203 C202 1.394 . S
C203 C204 1.516 . S
C204 C203 1.516 . S
C204 C205 1.502 . S
C204 C206 1.561 . S
C204 C207 1.526 . S
C205 H189 0.959 . S
C205 H190 0.959 . S
C205 H191 0.961 . S
C205 C204 1.502 . S
C206 H192 0.960 . S
C206 H193 0.961 . S
C206 H194 0.959 . S
C206 C204 1.561 . S
C207 C204 1.526 . S
C207 C208 1.396 . S
C207 C212 1.390 . S
C208 C202 1.465 . S
C208 C207 1.396 . S
C208 C209 1.399 . S
C209 H195 0.929 . S
C209 C208 1.399 . S
C209 C210 1.385 . S
C210 H196 0.931 . S
C210 C209 1.385 . S
C210 C211 1.389 . S
C211 C210 1.389 . S
C211 C212 1.387 . S
C212 H197 0.930 . S
C212 C207 1.390 . S
C212 C211 1.387 . S
H213 C225 0.930 . S
H214 C227 0.930 . S
H215 C228 0.930 . S
H216 C232 0.959 . S
H217 C232 0.959 . S
H218 C232 0.961 . S
H219 C233 0.960 . S
H220 C233 0.961 . S
H221 C233 0.959 . S
H222 C236 0.929 . S
H223 C237 0.931 . S
H224 C239 0.930 . S
C225 H213 0.930 . S
C225 C226 1.399 . S
C225 C230 1.399 . S
C226 C225 1.399 . S
C226 C227 1.376 . S
C227 H214 0.930 . S
C227 C226 1.376 . S
C227 C228 1.388 . S
C228 H215 0.930 . S
C228 C227 1.388 . S
C228 C229 1.390 . S
C229 C228 1.390 . S
C229 C230 1.394 . S
C229 C235 1.465 . S
C230 C225 1.399 . S
C230 C229 1.394 . S
C230 C231 1.516 . S
C231 C230 1.516 . S
C231 C232 1.502 . S
C231 C233 1.561 . S
C231 C234 1.526 . S
C232 H216 0.959 . S
C232 H217 0.959 . S
C232 H218 0.961 . S
C232 C231 1.502 . S
C233 H219 0.960 . S
C233 H220 0.961 . S
C233 H221 0.959 . S
C233 C231 1.561 . S
C234 C231 1.526 . S
C234 C235 1.396 . S
C234 C239 1.390 . S
C235 C229 1.465 . S
C235 C234 1.396 . S
C235 C236 1.399 . S
C236 H222 0.929 . S
C236 C235 1.399 . S
C236 C237 1.385 . S
C237 H223 0.931 . S
C237 C236 1.385 . S
C237 C238 1.389 . S
C238 C237 1.389 . S
C238 C239 1.387 . S
C239 H224 0.930 . S
C239 C234 1.390 . S
C239 C238 1.387 . S
H240 C252 0.930 . S
H241 C254 0.930 . S
H242 C255 0.930 . S
H243 C259 0.959 . S
H244 C259 0.959 . S
H245 C259 0.961 . S
H246 C260 0.960 . S
H247 C260 0.961 . S
H248 C260 0.959 . S
H249 C263 0.929 . S
H250 C264 0.931 . S
H251 C266 0.930 . S
C252 H240 0.930 . S
C252 C253 1.399 . S
C252 C257 1.399 . S
C253 C252 1.399 . S
C253 C254 1.376 . S
C254 H241 0.930 . S
C254 C253 1.376 . S
C254 C255 1.388 . S
C255 H242 0.930 . S
C255 C254 1.388 . S
C255 C256 1.390 . S
C256 C255 1.390 . S
C256 C257 1.394 . S
C256 C262 1.465 . S
C257 C252 1.399 . S
C257 C256 1.394 . S
C257 C258 1.516 . S
C258 C257 1.516 . S
C258 C259 1.502 . S
C258 C260 1.561 . S
C258 C261 1.526 . S
C259 H243 0.959 . S
C259 H244 0.959 . S
C259 H245 0.961 . S
C259 C258 1.502 . S
C260 H246 0.960 . S
C260 H247 0.961 . S
C260 H248 0.959 . S
C260 C258 1.561 . S
C261 C258 1.526 . S
C261 C262 1.396 . S
C261 C266 1.390 . S
C262 C256 1.465 . S
C262 C261 1.396 . S
C262 C263 1.399 . S
C263 H249 0.929 . S
C263 C262 1.399 . S
C263 C264 1.385 . S
C264 H250 0.931 . S
C264 C263 1.385 . S
C264 C265 1.389 . S
C265 C264 1.389 . S
C265 C266 1.387 . S
C266 H251 0.930 . S
C266 C261 1.390 . S
C266 C265 1.387 . S
H267 C279 0.930 . S
H268 C281 0.930 . S
H269 C282 0.930 . S
H270 C286 0.959 . S
H271 C286 0.959 . S
H272 C286 0.961 . S
H273 C287 0.960 . S
H274 C287 0.961 . S
H275 C287 0.959 . S
H276 C290 0.929 . S
H277 C291 0.931 . S
H278 C293 0.930 . S
C279 H267 0.930 . S
C279 C280 1.399 . S
C279 C284 1.399 . S
C280 C279 1.399 . S
C280 C281 1.376 . S
C281 H268 0.930 . S
C281 C280 1.376 . S
C281 C282 1.388 . S
C282 H269 0.930 . S
C282 C281 1.388 . S
C282 C283 1.390 . S
C283 C282 1.390 . S
C283 C284 1.394 . S
C283 C289 1.465 . S
C284 C279 1.399 . S
C284 C283 1.394 . S
C284 C285 1.516 . S
C285 C284 1.516 . S
C285 C286 1.502 . S
C285 C287 1.561 . S
C285 C288 1.526 . S
C286 H270 0.959 . S
C286 H271 0.959 . S
C286 H272 0.961 . S
C286 C285 1.502 . S
C287 H273 0.960 . S
C287 H274 0.961 . S
C287 H275 0.959 . S
C287 C285 1.561 . S
C288 C285 1.526 . S
C288 C289 1.396 . S
C288 C293 1.390 . S
C289 C283 1.465 . S
C289 C288 1.396 . S
C289 C290 1.399 . S
C290 H276 0.929 . S
C290 C289 1.399 . S
C290 C291 1.385 . S
C291 H277 0.931 . S
C291 C290 1.385 . S
C291 C292 1.389 . S
C292 C291 1.389 . S
C292 C293 1.387 . S
C293 H278 0.930 . S
C293 C288 1.390 . S
C293 C292 1.387 . S
H294 C306 0.930 . S
H295 C308 0.930 . S
H296 C309 0.930 . S
H297 C313 0.959 . S
H298 C313 0.959 . S
H299 C313 0.961 . S
H300 C314 0.960 . S
H301 C314 0.961 . S
H302 C314 0.959 . S
H303 C317 0.929 . S
H304 C318 0.931 . S
H305 C320 0.930 . S
C306 H294 0.930 . S
C306 C307 1.399 . S
C306 C311 1.399 . S
C307 C306 1.399 . S
C307 C308 1.376 . S
C308 H295 0.930 . S
C308 C307 1.376 . S
C308 C309 1.388 . S
C309 H296 0.930 . S
C309 C308 1.388 . S
C309 C310 1.390 . S
C310 C309 1.390 . S
C310 C311 1.394 . S
C310 C316 1.465 . S
C311 C306 1.399 . S
C311 C310 1.394 . S
C311 C312 1.516 . S
C312 C311 1.516 . S
C312 C313 1.502 . S
C312 C314 1.561 . S
C312 C315 1.526 . S
C313 H297 0.959 . S
C313 H298 0.959 . S
C313 H299 0.961 . S
C313 C312 1.502 . S
C314 H300 0.960 . S
C314 H301 0.961 . S
C314 H302 0.959 . S
C314 C312 1.561 . S
C315 C312 1.526 . S
C315 C316 1.396 . S
C315 C320 1.390 . S
C316 C310 1.465 . S
C316 C315 1.396 . S
C316 C317 1.399 . S
C317 H303 0.929 . S
C317 C316 1.399 . S
C317 C318 1.385 . S
C318 H304 0.931 . S
C318 C317 1.385 . S
C318 C319 1.389 . S
C319 C318 1.389 . S
C319 C320 1.387 . S
C320 H305 0.930 . S
C320 C315 1.390 . S
C320 C319 1.387 . S
H321 C333 0.930 . S
H322 C335 0.930 . S
H323 C336 0.930 . S
H324 C340 0.959 . S
H325 C340 0.959 . S
H326 C340 0.961 . S
H327 C341 0.960 . S
H328 C341 0.961 . S
H329 C341 0.959 . S
H330 C344 0.929 . S
H331 C345 0.931 . S
H332 C347 0.930 . S
C333 H321 0.930 . S
C333 C334 1.399 . S
C333 C338 1.399 . S
C334 C333 1.399 . S
C334 C335 1.376 . S
C335 H322 0.930 . S
C335 C334 1.376 . S
C335 C336 1.388 . S
C336 H323 0.930 . S
C336 C335 1.388 . S
C336 C337 1.390 . S
C337 C336 1.390 . S
C337 C338 1.394 . S
C337 C343 1.465 . S
C338 C333 1.399 . S
C338 C337 1.394 . S
C338 C339 1.516 . S
C339 C338 1.516 . S
C339 C340 1.502 . S
C339 C341 1.561 . S
C339 C342 1.526 . S
C340 H324 0.959 . S
C340 H325 0.959 . S
C340 H326 0.961 . S
C340 C339 1.502 . S
C341 H327 0.960 . S
C341 H328 0.961 . S
C341 H329 0.959 . S
C341 C339 1.561 . S
C342 C339 1.526 . S
C342 C343 1.396 . S
C342 C347 1.390 . S
C343 C337 1.465 . S
C343 C342 1.396 . S
C343 C344 1.399 . S
C344 H330 0.929 . S
C344 C343 1.399 . S
C344 C345 1.385 . S
C345 H331 0.931 . S
C345 C344 1.385 . S
C345 C346 1.389 . S
C346 C345 1.389 . S
C346 C347 1.387 . S
C347 H332 0.930 . S
C347 C342 1.390 . S
C347 C346 1.387 . S
H348 C360 0.930 . S
H349 C362 0.930 . S
H350 C363 0.930 . S
H351 C367 0.959 . S
H352 C367 0.959 . S
H353 C367 0.961 . S
H354 C368 0.960 . S
H355 C368 0.961 . S
H356 C368 0.959 . S
H357 C371 0.929 . S
H358 C372 0.931 . S
H359 C374 0.930 . S
C360 H348 0.930 . S
C360 C361 1.399 . S
C360 C365 1.399 . S
C361 C360 1.399 . S
C361 C362 1.376 . S
C362 H349 0.930 . S
C362 C361 1.376 . S
C362 C363 1.388 . S
C363 H350 0.930 . S
C363 C362 1.388 . S
C363 C364 1.390 . S
C364 C363 1.390 . S
C364 C365 1.394 . S
C364 C370 1.465 . S
C365 C360 1.399 . S
C365 C364 1.394 . S
C365 C366 1.516 . S
C366 C365 1.516 . S
C366 C367 1.502 . S
C366 C368 1.561 . S
C366 C369 1.526 . S
C367 H351 0.959 . S
C367 H352 0.959 . S
C367 H353 0.961 . S
C367 C366 1.502 . S
C368 H354 0.960 . S
C368 H355 0.961 . S
C368 H356 0.959 . S
C368 C366 1.561 . S
C369 C366 1.526 . S
C369 C370 1.396 . S
C369 C374 1.390 . S
C370 C364 1.465 . S
C370 C369 1.396 . S
C370 C371 1.399 . S
C371 H357 0.929 . S
C371 C370 1.399 . S
C371 C372 1.385 . S
C372 H358 0.931 . S
C372 C371 1.385 . S
C372 C373 1.389 . S
C373 C372 1.389 . S
C373 C374 1.387 . S
C374 H359 0.930 . S
C374 C369 1.390 . S
C374 C373 1.387 . S
H375 C387 0.930 . S
H376 C389 0.930 . S
H377 C390 0.930 . S
H378 C394 0.959 . S
H379 C394 0.959 . S
H380 C394 0.961 . S
H381 C395 0.960 . S
H382 C395 0.961 . S
H383 C395 0.959 . S
H384 C398 0.929 . S
H385 C399 0.931 . S
H386 C401 0.930 . S
C387 H375 0.930 . S
C387 C388 1.399 . S
C387 C392 1.399 . S
C388 C387 1.399 . S
C388 C389 1.376 . S
C389 H376 0.930 . S
C389 C388 1.376 . S
C389 C390 1.388 . S
C390 H377 0.930 . S
C390 C389 1.388 . S
C390 C391 1.390 . S
C391 C390 1.390 . S
C391 C392 1.394 . S
C391 C397 1.465 . S
C392 C387 1.399 . S
C392 C391 1.394 . S
C392 C393 1.516 . S
C393 C392 1.516 . S
C393 C394 1.502 . S
C393 C395 1.561 . S
C393 C396 1.526 . S
C394 H378 0.959 . S
C394 H379 0.959 . S
C394 H380 0.961 . S
C394 C393 1.502 . S
C395 H381 0.960 . S
C395 H382 0.961 . S
C395 H383 0.959 . S
C395 C393 1.561 . S
C396 C393 1.526 . S
C396 C397 1.396 . S
C396 C401 1.390 . S
C397 C391 1.465 . S
C397 C396 1.396 . S
C397 C398 1.399 . S
C398 H384 0.929 . S
C398 C397 1.399 . S
C398 C399 1.385 . S
C399 H385 0.931 . S
C399 C398 1.385 . S
C399 C400 1.389 . S
C400 C399 1.389 . S
C400 C401 1.387 . S
C401 H386 0.930 . S
C401 C396 1.390 . S
C401 C400 1.387 . S
H402 C414 0.930 . S
H403 C416 0.930 . S
H404 C417 0.930 . S
H405 C421 0.959 . S
H406 C421 0.959 . S
H407 C421 0.961 . S
H408 C422 0.960 . S
H409 C422 0.961 . S
H410 C422 0.959 . S
H411 C425 0.929 . S
H412 C426 0.931 . S
H413 C428 0.930 . S
C414 H402 0.930 . S
C414 C415 1.399 . S
C414 C419 1.399 . S
C415 C414 1.399 . S
C415 C416 1.376 . S
C416 H403 0.930 . S
C416 C415 1.376 . S
C416 C417 1.388 . S
C417 H404 0.930 . S
C417 C416 1.388 . S
C417 C418 1.390 . S
C418 C417 1.390 . S
C418 C419 1.394 . S
C418 C424 1.465 . S
C419 C414 1.399 . S
C419 C418 1.394 . S
C419 C420 1.516 . S
C420 C419 1.516 . S
C420 C421 1.502 . S
C420 C422 1.561 . S
C420 C423 1.526 . S
C421 H405 0.959 . S
C421 H406 0.959 . S
C421 H407 0.961 . S
C421 C420 1.502 . S
C422 H408 0.960 . S
C422 H409 0.961 . S
C422 H410 0.959 . S
C422 C420 1.561 . S
C423 C420 1.526 . S
C423 C424 1.396 . S
C423 C428 1.390 . S
C424 C418 1.465 . S
C424 C423 1.396 . S
C424 C425 1.399 . S
C425 H411 0.929 . S
C425 C424 1.399 . S
C425 C426 1.385 1_565 S
C426 H412 0.931 . S
C426 C425 1.385 1_545 S
C426 C427 1.389 . S
C427 C426 1.389 . S
C427 C428 1.387 1_545 S
C428 H413 0.930 . S
C428 C423 1.390 . S
C428 C427 1.387 1_565 S
H429 C441 0.930 . S
H430 C443 0.930 . S
H431 C444 0.930 . S
H432 C448 0.959 . S
H433 C448 0.959 . S
H434 C448 0.961 . S
H435 C449 0.960 . S
H436 C449 0.961 . S
H437 C449 0.959 . S
H438 C452 0.929 . S
H439 C453 0.931 . S
H440 C455 0.930 . S
C441 H429 0.930 . S
C441 C442 1.399 . S
C441 C446 1.399 . S
C442 C441 1.399 . S
C442 C443 1.376 . S
C443 H430 0.930 . S
C443 C442 1.376 . S
C443 C444 1.388 . S
C444 H431 0.930 . S
C444 C443 1.388 . S
C444 C445 1.390 . S
C445 C444 1.390 . S
C445 C446 1.394 . S
C445 C451 1.465 . S
C446 C441 1.399 . S
C446 C445 1.394 . S
C446 C447 1.516 . S
C447 C446 1.516 . S
C447 C448 1.502 . S
C447 C449 1.561 . S
C447 C450 1.526 . S
C448 H432 0.959 . S
C448 H433 0.959 . S
C448 H434 0.961 . S
C448 C447 1.502 . S
C449 H435 0.960 . S
C449 H436 0.961 . S
C449 H437 0.959 . S
C449 C447 1.561 . S
C450 C447 1.526 . S
C450 C451 1.396 . S
C450 C455 1.390 . S
C451 C445 1.465 . S
C451 C450 1.396 . S
C451 C452 1.399 . S
C452 H438 0.929 . S
C452 C451 1.399 . S
C452 C453 1.385 . S
C453 H439 0.931 . S
C453 C452 1.385 . S
C453 C454 1.389 . S
C454 C453 1.389 . S
C454 C455 1.387 . S
C455 H440 0.930 . S
C455 C450 1.390 . S
C455 C454 1.387 . S
H456 C468 0.930 . S
H457 C470 0.930 . S
H458 C471 0.930 . S
H459 C475 0.959 . S
H460 C475 0.959 . S
H461 C475 0.961 . S
H462 C476 0.960 . S
H463 C476 0.961 . S
H464 C476 0.959 . S
H465 C479 0.929 . S
H466 C480 0.931 . S
H467 C482 0.930 . S
C468 H456 0.930 . S
C468 C469 1.399 . S
C468 C473 1.399 . S
C469 C468 1.399 . S
C469 C470 1.376 . S
C470 H457 0.930 . S
C470 C469 1.376 . S
C470 C471 1.388 . S
C471 H458 0.930 . S
C471 C470 1.388 . S
C471 C472 1.390 . S
C472 C471 1.390 . S
C472 C473 1.394 . S
C472 C478 1.465 . S
C473 C468 1.399 . S
C473 C472 1.394 . S
C473 C474 1.516 . S
C474 C473 1.516 . S
C474 C475 1.502 . S
C474 C476 1.561 . S
C474 C477 1.526 . S
C475 H459 0.959 . S
C475 H460 0.959 . S
C475 H461 0.961 . S
C475 C474 1.502 . S
C476 H462 0.960 . S
C476 H463 0.961 . S
C476 H464 0.959 . S
C476 C474 1.561 . S
C477 C474 1.526 . S
C477 C478 1.396 . S
C477 C482 1.390 . S
C478 C472 1.465 . S
C478 C477 1.396 . S
C478 C479 1.399 . S
C479 H465 0.929 . S
C479 C478 1.399 . S
C479 C480 1.385 . S
C480 H466 0.931 . S
C480 C479 1.385 . S
C480 C481 1.389 . S
C481 C480 1.389 . S
C481 C482 1.387 . S
C482 H467 0.930 . S
C482 C477 1.390 . S
C482 C481 1.387 . S
H483 C495 0.930 . S
H484 C497 0.930 . S
H485 C498 0.930 . S
H486 C502 0.959 . S
H487 C502 0.959 . S
H488 C502 0.961 . S
H489 C503 0.960 . S
H490 C503 0.961 . S
H491 C503 0.959 . S
H492 C506 0.929 . S
H493 C507 0.931 . S
H494 C509 0.930 . S
C495 H483 0.930 . S
C495 C496 1.399 . S
C495 C500 1.399 . S
C496 C495 1.399 . S
C496 C497 1.376 . S
C497 H484 0.930 . S
C497 C496 1.376 . S
C497 C498 1.388 . S
C498 H485 0.930 . S
C498 C497 1.388 . S
C498 C499 1.390 . S
C499 C498 1.390 . S
C499 C500 1.394 . S
C499 C505 1.465 . S
C500 C495 1.399 . S
C500 C499 1.394 . S
C500 C501 1.516 . S
C501 C500 1.516 . S
C501 C502 1.502 . S
C501 C503 1.561 . S
C501 C504 1.526 . S
C502 H486 0.959 . S
C502 H487 0.959 . S
C502 H488 0.961 . S
C502 C501 1.502 . S
C503 H489 0.960 . S
C503 H490 0.961 . S
C503 H491 0.959 . S
C503 C501 1.561 . S
C504 C501 1.526 . S
C504 C505 1.396 . S
C504 C509 1.390 . S
C505 C499 1.465 . S
C505 C504 1.396 . S
C505 C506 1.399 . S
C506 H492 0.929 . S
C506 C505 1.399 . S
C506 C507 1.385 . S
C507 H493 0.931 . S
C507 C506 1.385 . S
C507 C508 1.389 . S
C508 C507 1.389 . S
C508 C509 1.387 . S
C509 H494 0.930 . S
C509 C504 1.390 . S
C509 C508 1.387 . S
H510 C522 0.930 . S
H511 C524 0.930 . S
H512 C525 0.930 . S
H513 C529 0.959 1_655 S
H514 C529 0.959 1_556 S
H515 C529 0.961 . S
H516 C530 0.960 . S
H517 C530 0.961 1_556 S
H518 C530 0.959 . S
H519 C533 0.929 1_554 S
H520 C534 0.931 . S
H521 C536 0.930 . S
C522 H510 0.930 . S
C522 C523 1.399 . S
C522 C527 1.399 . S
C523 C522 1.399 . S
C523 C524 1.376 1_455 S
C524 H511 0.930 . S
C524 C523 1.376 1_655 S
C524 C525 1.388 . S
C525 H512 0.930 . S
C525 C524 1.388 . S
C525 C526 1.390 1_655 S
C526 C525 1.390 1_455 S
C526 C527 1.394 . S
C526 C532 1.465 . S
C527 C522 1.399 . S
C527 C526 1.394 . S
C527 C528 1.516 . S
C528 C527 1.516 . S
C528 C529 1.502 . S
C528 C530 1.561 . S
C528 C531 1.526 1_554 S
C529 H513 0.959 1_455 S
C529 H514 0.959 1_554 S
C529 H515 0.961 . S
C529 C528 1.502 . S
C530 H516 0.960 . S
C530 H517 0.961 1_554 S
C530 H518 0.959 . S
C530 C528 1.561 . S
C531 C528 1.526 1_556 S
C531 C532 1.396 1_556 S
C531 C536 1.390 . S
C532 C526 1.465 . S
C532 C531 1.396 1_554 S
C532 C533 1.399 1_454 S
C533 H519 0.929 1_556 S
C533 C532 1.399 1_656 S
C533 C534 1.385 . S
C534 H520 0.931 . S
C534 C533 1.385 . S
C534 C535 1.389 1_655 S
C535 C534 1.389 1_455 S
C535 C536 1.387 . S
C536 H521 0.930 . S
C536 C531 1.390 . S
C536 C535 1.387 . S
H537 C549 0.930 . S
H538 C551 0.930 . S
H539 C552 0.930 . S
H540 C556 0.959 . S
H541 C556 0.959 . S
H542 C556 0.961 . S
H543 C557 0.960 . S
H544 C557 0.961 . S
H545 C557 0.959 . S
H546 C560 0.929 . S
H547 C561 0.931 . S
H548 C563 0.930 . S
C549 H537 0.930 . S
C549 C550 1.399 . S
C549 C554 1.399 . S
C550 C549 1.399 . S
C550 C551 1.376 . S
C551 H538 0.930 . S
C551 C550 1.376 . S
C551 C552 1.388 . S
C552 H539 0.930 . S
C552 C551 1.388 . S
C552 C553 1.390 . S
C553 C552 1.390 . S
C553 C554 1.394 . S
C553 C559 1.465 . S
C554 C549 1.399 . S
C554 C553 1.394 . S
C554 C555 1.516 . S
C555 C554 1.516 . S
C555 C556 1.502 . S
C555 C557 1.561 . S
C555 C558 1.526 . S
C556 H540 0.959 . S
C556 H541 0.959 . S
C556 H542 0.961 . S
C556 C555 1.502 . S
C557 H543 0.960 . S
C557 H544 0.961 . S
C557 H545 0.959 . S
C557 C555 1.561 . S
C558 C555 1.526 . S
C558 C559 1.396 . S
C558 C563 1.390 . S
C559 C553 1.465 . S
C559 C558 1.396 . S
C559 C560 1.399 . S
C560 H546 0.929 . S
C560 C559 1.399 . S
C560 C561 1.385 . S
C561 H547 0.931 . S
C561 C560 1.385 . S
C561 C562 1.389 . S
C562 C561 1.389 . S
C562 C563 1.387 . S
C563 H548 0.930 . S
C563 C558 1.390 . S
C563 C562 1.387 . S
H564 C576 0.930 . S
H565 C578 0.930 . S
H566 C579 0.930 . S
H567 C583 0.959 . S
H568 C583 0.959 . S
H569 C583 0.961 . S
H570 C584 0.960 . S
H571 C584 0.961 . S
H572 C584 0.959 . S
H573 C587 0.929 . S
H574 C588 0.931 . S
H575 C590 0.930 . S
C576 H564 0.930 . S
C576 C577 1.399 . S
C576 C581 1.399 . S
C577 C576 1.399 . S
C577 C578 1.376 . S
C578 H565 0.930 . S
C578 C577 1.376 . S
C578 C579 1.388 . S
C579 H566 0.930 . S
C579 C578 1.388 . S
C579 C580 1.390 . S
C580 C579 1.390 . S
C580 C581 1.394 . S
C580 C586 1.465 . S
C581 C576 1.399 . S
C581 C580 1.394 . S
C581 C582 1.516 . S
C582 C581 1.516 . S
C582 C583 1.502 . S
C582 C584 1.561 . S
C582 C585 1.526 . S
C583 H567 0.959 . S
C583 H568 0.959 . S
C583 H569 0.961 . S
C583 C582 1.502 . S
C584 H570 0.960 . S
C584 H571 0.961 . S
C584 H572 0.959 . S
C584 C582 1.561 . S
C585 C582 1.526 . S
C585 C586 1.396 . S
C585 C590 1.390 . S
C586 C580 1.465 . S
C586 C585 1.396 . S
C586 C587 1.399 . S
C587 H573 0.929 . S
C587 C586 1.399 . S
C587 C588 1.385 . S
C588 H574 0.931 . S
C588 C587 1.385 . S
C588 C589 1.389 . S
C589 C588 1.389 . S
C589 C590 1.387 . S
C590 H575 0.930 . S
C590 C585 1.390 . S
C590 C589 1.387 . S
H591 C603 0.930 1_565 S
H592 C605 0.930 . S
H593 C606 0.930 . S
H594 C610 0.959 . S
H595 C610 0.959 . S
H596 C610 0.961 . S
H597 C611 0.960 . S
H598 C611 0.961 . S
H599 C611 0.959 . S
H600 C614 0.929 . S
H601 C615 0.931 . S
H602 C617 0.930 1_565 S
C603 H591 0.930 1_545 S
C603 C604 1.399 . S
C603 C608 1.399 . S
C604 C603 1.399 . S
C604 C605 1.376 . S
C605 H592 0.930 . S
C605 C604 1.376 . S
C605 C606 1.388 . S
C606 H593 0.930 . S
C606 C605 1.388 . S
C606 C607 1.390 . S
C607 C606 1.390 . S
C607 C608 1.394 . S
C607 C613 1.465 . S
C608 C603 1.399 . S
C608 C607 1.394 . S
C608 C609 1.516 1_545 S
C609 C608 1.516 1_565 S
C609 C610 1.502 . S
C609 C611 1.561 . S
C609 C612 1.526 1_565 S
C610 H594 0.959 . S
C610 H595 0.959 . S
C610 H596 0.961 . S
C610 C609 1.502 . S
C611 H597 0.960 . S
C611 H598 0.961 . S
C611 H599 0.959 . S
C611 C609 1.561 . S
C612 C609 1.526 1_545 S
C612 C613 1.396 . S
C612 C617 1.390 . S
C613 C607 1.465 . S
C613 C612 1.396 . S
C613 C614 1.399 . S
C614 H600 0.929 . S
C614 C613 1.399 . S
C614 C615 1.385 . S
C615 H601 0.931 . S
C615 C614 1.385 . S
C615 C616 1.389 . S
C616 C615 1.389 . S
C616 C617 1.387 . S
C617 H602 0.930 1_545 S
C617 C612 1.390 . S
C617 C616 1.387 . S
H618 C630 0.930 . S
H619 C632 0.930 . S
H620 C633 0.930 . S
H621 C637 0.959 . S
H622 C637 0.959 1_554 S
H623 C637 0.961 . S
H624 C638 0.960 . S
H625 C638 0.961 . S
H626 C638 0.959 . S
H627 C641 0.929 . S
H628 C642 0.931 . S
H629 C644 0.930 . S
C630 H618 0.930 . S
C630 C631 1.399 . S
C630 C635 1.399 . S
C631 C630 1.399 . S
C631 C632 1.376 . S
C632 H619 0.930 . S
C632 C631 1.376 . S
C632 C633 1.388 . S
C633 H620 0.930 . S
C633 C632 1.388 . S
C633 C634 1.390 . S
C634 C633 1.390 . S
C634 C635 1.394 . S
C634 C640 1.465 1_556 S
C635 C630 1.399 . S
C635 C634 1.394 . S
C635 C636 1.516 . S
C636 C635 1.516 . S
C636 C637 1.502 . S
C636 C638 1.561 . S
C636 C639 1.526 1_556 S
C637 H621 0.959 . S
C637 H622 0.959 1_556 S
C637 H623 0.961 . S
C637 C636 1.502 . S
C638 H624 0.960 . S
C638 H625 0.961 . S
C638 H626 0.959 . S
C638 C636 1.561 . S
C639 C636 1.526 1_554 S
C639 C640 1.396 . S
C639 C644 1.390 . S
C640 C634 1.465 1_554 S
C640 C639 1.396 . S
C640 C641 1.399 . S
C641 H627 0.929 . S
C641 C640 1.399 . S
C641 C642 1.385 . S
C642 H628 0.931 . S
C642 C641 1.385 . S
C642 C643 1.389 . S
C643 C642 1.389 . S
C643 C644 1.387 . S
C644 H629 0.930 . S
C644 C639 1.390 . S
C644 C643 1.387 . S
H645 C657 0.930 . S
H646 C659 0.930 . S
H647 C660 0.930 . S
H648 C664 0.959 . S
H649 C664 0.959 . S
H650 C664 0.961 . S
H651 C665 0.960 . S
H652 C665 0.961 . S
H653 C665 0.959 . S
H654 C668 0.929 . S
H655 C669 0.931 . S
H656 C671 0.930 . S
C657 H645 0.930 . S
C657 C658 1.399 . S
C657 C662 1.399 . S
C658 C657 1.399 . S
C658 C659 1.376 1_455 S
C659 H646 0.930 . S
C659 C658 1.376 1_655 S
C659 C660 1.388 . S
C660 H647 0.930 . S
C660 C659 1.388 . S
C660 C661 1.390 1_655 S
C661 C660 1.390 1_455 S
C661 C662 1.394 . S
C661 C667 1.465 . S
C662 C657 1.399 . S
C662 C661 1.394 . S
C662 C663 1.516 . S
C663 C662 1.516 . S
C663 C664 1.502 . S
C663 C665 1.561 . S
C663 C666 1.526 . S
C664 H648 0.959 . S
C664 H649 0.959 . S
C664 H650 0.961 . S
C664 C663 1.502 . S
C665 H651 0.960 . S
C665 H652 0.961 . S
C665 H653 0.959 . S
C665 C663 1.561 . S
C666 C663 1.526 . S
C666 C667 1.396 . S
C666 C671 1.390 . S
C667 C661 1.465 . S
C667 C666 1.396 . S
C667 C668 1.399 1_455 S
C668 H654 0.929 . S
C668 C667 1.399 1_655 S
C668 C669 1.385 . S
C669 H655 0.931 . S
C669 C668 1.385 . S
C669 C670 1.389 1_655 S
C670 C669 1.389 1_455 S
C670 C671 1.387 . S
C671 H656 0.930 . S
C671 C666 1.390 . S
C671 C670 1.387 . S
C199 C10 3.049 . S
C211 C185 2.999 . S
C226 C59 3.138 . S
C238 C163 3.081 . S
C253 C90 3.050 . S
C265 C174 3.001 . S
C280 C19 2.998 . S
C292 C179 2.943 . S
C319 C157 2.887 . S
C307 C50 2.919 . S
C346 C168 2.946 . S
C334 C99 3.002 . S
C361 C46 0.618 . S
C373 C141 0.651 . S
C388 C95 0.295 . S
C400 C146 0.251 . S
C415 C6 0.370 . S
C427 C124 0.347 . S
C454 C135 0.314 . S
C442 C55 0.363 . S
C481 C152 0.569 . S
C469 C86 0.550 . S
C496 C15 0.375 . S
C508 C130 0.393 . S
C535 C147 1.277 . S
C523 C9 1.275 . S
C550 C49 1.116 . S
C562 C125 1.213 . S
C577 C89 1.238 . S
C589 C136 1.220 . S
C616 C169 1.723 . S
C604 C58 1.703 . S
C643 C180 1.758 . S
C631 C98 1.725 . S
C658 C18 1.655 . S
C670 C158 1.801 . S
