# Generated by pormake.
# Topology ssa, (4,4)-cn, num edge types: 1
# Building blocks:
#     Node 0, Type 0, BuildingBlock: KOZSID_clean_sbu_0, # of connection points: 4
#     Node 1, Type 0, BuildingBlock: KOZSID_clean_sbu_0, # of connection points: 4
#     Node 2, Type 0, BuildingBlock: KOZSID_clean_sbu_0, # of connection points: 4
#     Node 3, Type 0, BuildingBlock: KOZSID_clean_sbu_0, # of connection points: 4
#     Node 4, Type 0, BuildingBlock: KOZSID_clean_sbu_0, # of connection points: 4
#     Node 5, Type 0, BuildingBlock: KOZSID_clean_sbu_0, # of connection points: 4
#     Node 6, Type 1, BuildingBlock: MIFKUJ_clean_linker_1, # of connection points: 4
#     Node 7, Type 1, BuildingBlock: MIFKUJ_clean_linker_1, # of connection points: 4
#     Node 8, Type 1, BuildingBlock: MIFKUJ_clean_linker_1, # of connection points: 4
#     Node 9, Type 1, BuildingBlock: MIFKUJ_clean_linker_1, # of connection points: 4
#     Node 10, Type 1, BuildingBlock: MIFKUJ_clean_linker_1, # of connection points: 4
#     Node 11, Type 1, BuildingBlock: MIFKUJ_clean_linker_1, # of connection points: 4
#     Edge 12, Type (0, 1), BuildingBlock: AJUNOK_clean_linker_0, # of connection points: 2
#     Edge 13, Type (0, 1), BuildingBlock: AJUNOK_clean_linker_0, # of connection points: 2
#     Edge 14, Type (0, 1), BuildingBlock: AJUNOK_clean_linker_0, # of connection points: 2
#     Edge 15, Type (0, 1), BuildingBlock: AJUNOK_clean_linker_0, # of connection points: 2
#     Edge 16, Type (0, 1), BuildingBlock: AJUNOK_clean_linker_0, # of connection points: 2
#     Edge 17, Type (0, 1), BuildingBlock: AJUNOK_clean_linker_0, # of connection points: 2
#     Edge 18, Type (0, 1), BuildingBlock: AJUNOK_clean_linker_0, # of connection points: 2
#     Edge 19, Type (0, 1), BuildingBlock: AJUNOK_clean_linker_0, # of connection points: 2
#     Edge 20, Type (0, 1), BuildingBlock: AJUNOK_clean_linker_0, # of connection points: 2
#     Edge 21, Type (0, 1), BuildingBlock: AJUNOK_clean_linker_0, # of connection points: 2
#     Edge 22, Type (0, 1), BuildingBlock: AJUNOK_clean_linker_0, # of connection points: 2
#     Edge 23, Type (0, 1), BuildingBlock: AJUNOK_clean_linker_0, # of connection points: 2
#     Edge 24, Type (0, 1), BuildingBlock: AJUNOK_clean_linker_0, # of connection points: 2
#     Edge 25, Type (0, 1), BuildingBlock: AJUNOK_clean_linker_0, # of connection points: 2
#     Edge 26, Type (0, 1), BuildingBlock: AJUNOK_clean_linker_0, # of connection points: 2
#     Edge 27, Type (0, 1), BuildingBlock: AJUNOK_clean_linker_0, # of connection points: 2
#     Edge 28, Type (0, 1), BuildingBlock: AJUNOK_clean_linker_0, # of connection points: 2
#     Edge 29, Type (0, 1), BuildingBlock: AJUNOK_clean_linker_0, # of connection points: 2
#     Edge 30, Type (0, 1), BuildingBlock: AJUNOK_clean_linker_0, # of connection points: 2
#     Edge 31, Type (0, 1), BuildingBlock: AJUNOK_clean_linker_0, # of connection points: 2
#     Edge 32, Type (0, 1), BuildingBlock: AJUNOK_clean_linker_0, # of connection points: 2
#     Edge 33, Type (0, 1), BuildingBlock: AJUNOK_clean_linker_0, # of connection points: 2
#     Edge 34, Type (0, 1), BuildingBlock: AJUNOK_clean_linker_0, # of connection points: 2
#     Edge 35, Type (0, 1), BuildingBlock: AJUNOK_clean_linker_0, # of connection points: 2
# Relax obj value: 0.006
# Max RMSD: 0.024
# Mean RMSD: 0.012
data_MOF--net-ssa--node1-KOZSID_clean_sbu_0--node2-MIFKUJ_clean_linker_1--edge1-AJUNOK_clean_linker_0
_symmetry_space_group_name_H-M    P1
_symmetry_Int_Tables_number       1
_symmetry_cell_setting            triclinic
loop_
_symmetry_equiv_pos_as_xyz
'x, y, z'
_cell_length_a     51.966279
_cell_length_b     53.376512
_cell_length_c     33.882749
_cell_angle_alpha  87.070008
_cell_angle_beta   89.932958
_cell_angle_gamma 122.64942
loop_
_atom_site_label
_atom_site_type_symbol
_atom_site_fract_x
_atom_site_fract_y
_atom_site_fract_z
_atom_type_partial_charge
C0 C 0.95113 0.51169 0.99972 0.0
C1 C 0.92598 0.50669 0.02154 0.0
C2 C 0.92442 0.49127 0.05579 0.0
C3 C 0.94873 0.48795 0.05306 0.0
N4 N 0.96611 0.50085 0.01947 0.0
Co5 Co 0.00327 0.50093 0.00306 0.0
N6 N 0.99859 0.4748 0.05078 0.0
C7 C 0.97582 0.46262 0.07882 0.0
C8 C 0.97898 0.44598 0.10828 0.0
C9 C 0.00561 0.44802 0.09884 0.0
C10 C 0.01726 0.46601 0.06415 0.0
N11 N 0.0409 0.50156 0.98717 0.0
C12 C 0.05613 0.49111 0.0073 0.0
C13 C 0.08295 0.49869 0.98719 0.0
C14 C 0.08477 0.51451 0.95326 0.0
C15 C 0.05927 0.51594 0.95469 0.0
N16 N 0.00744 0.52648 0.95481 0.0
C17 C 0.02937 0.53743 0.92573 0.0
C18 C 0.02455 0.55145 0.89434 0.0
C19 C 0.99761 0.54882 0.90344 0.0
C20 C 0.98764 0.53355 0.94027 0.0
N21 N 0.02936 0.53689 0.03325 0.0
C22 C 0.06915 0.58567 0.0784 0.0
C23 C 0.07646 0.58479 0.03896 0.0
C24 C 0.05621 0.56069 0.01699 0.0
C25 C 0.04123 0.5619 0.0945 0.0
C26 C 0.02194 0.53796 0.07171 0.0
N27 N 0.9772 0.46501 0.97283 0.0
C28 C 0.96738 0.43905 0.91265 0.0
C29 C 0.93741 0.41817 0.9257 0.0
C30 C 0.92796 0.42014 0.96325 0.0
C31 C 0.94823 0.44333 0.98643 0.0
C32 C 0.98676 0.46221 0.93648 0.0
H33 H 0.93969 0.4436 0.01487 0.0
H34 H 0.0091 0.47795 0.9244 0.0
H35 H 0.06311 0.56156 0.98712 0.0
H36 H 1.00138 0.52036 0.08612 0.0
C37 C 0.9537 0.46987 0.07901 0.0
C38 C 0.95842 0.52473 0.95925 0.0
C39 C 0.04695 0.47541 0.04634 0.0
C40 C 0.05278 0.53199 0.92716 0.0
H41 H 0.90976 0.51256 0.01284 0.0
H42 H 0.90683 0.48229 0.07901 0.0
H43 H 0.96434 0.43472 0.13436 0.0
H44 H 0.01582 0.43816 0.11613 0.0
H45 H 0.09996 0.49407 0.99647 0.0
H46 H 0.10305 0.52464 0.93088 0.0
H47 H 0.03828 0.56122 0.86725 0.0
H48 H 0.98617 0.5564 0.88435 0.0
H49 H 0.09808 0.60218 0.02518 0.0
H50 H 0.03432 0.5616 0.12479 0.0
H51 H 0.9755 0.43807 0.88365 0.0
H52 H 0.90488 0.40406 0.97447 0.0
C53 C 0.5449 0.01627 0.57338 0.0
C54 C 0.54514 0.00599 0.61176 0.0
C55 C 0.5174 0.98015 0.6191 0.0
C56 C 0.50176 0.97618 0.58505 0.0
N57 N 0.51806 0.99766 0.55606 0.0
Co58 Co 0.50323 0.00203 0.50304 0.0
N59 N 0.46101 0.9666 0.51611 0.0
C60 C 0.45072 0.94996 0.55072 0.0
C61 C 0.42075 0.92678 0.55054 0.0
C62 C 0.41156 0.92824 0.51325 0.0
C63 C 0.43669 0.95215 0.4927 0.0
N64 N 0.48843 0.00617 0.44983 0.0
C65 C 0.46196 0.98697 0.43212 0.0
C66 C 0.46208 0.99679 0.39332 0.0
C67 C 0.48959 0.02289 0.38618 0.0
C68 C 0.50482 0.02746 0.42067 0.0
N69 N 0.5454 0.03769 0.49012 0.0
C70 C 0.55543 0.05483 0.45588 0.0
C71 C 0.58507 0.07864 0.45648 0.0
C72 C 0.59433 0.07706 0.49366 0.0
C73 C 0.56964 0.05233 0.51365 0.0
N74 N 0.5145 0.97535 0.48066 0.0
C75 C 0.52417 0.93471 0.44391 0.0
C76 C 0.53555 0.96323 0.42658 0.0
C77 C 0.53058 0.98302 0.44531 0.0
C78 C 0.50876 0.92722 0.48064 0.0
C79 C 0.50451 0.94783 0.49854 0.0
N80 N 0.49192 0.02871 0.52541 0.0
C81 C 0.49624 0.07624 0.52388 0.0
C82 C 0.48215 0.06956 0.56144 0.0
C83 C 0.47217 0.0417 0.58004 0.0
C84 C 0.47723 0.02182 0.5617 0.0
C85 C 0.50049 0.05551 0.50636 0.0
H86 H 0.46958 0.00129 0.57791 0.0
H87 H 0.51144 0.06201 0.47781 0.0
H88 H 0.53941 0.00417 0.43014 0.0
H89 H 0.49239 0.94069 0.52637 0.0
C90 C 0.47064 0.9549 0.58135 0.0
C91 C 0.5697 0.04484 0.55562 0.0
C92 C 0.43731 0.95833 0.45012 0.0
C93 C 0.53569 0.04929 0.42485 0.0
H94 H 0.56297 0.01663 0.6329 0.0
H95 H 0.50902 0.96676 0.64673 0.0
H96 H 0.4076 0.90999 0.57408 0.0
H97 H 0.38936 0.91262 0.50182 0.0
H98 H 0.44478 0.98578 0.37167 0.0
H99 H 0.49815 0.03605 0.3584 0.0
H100 H 0.59798 0.09576 0.43319 0.0
H101 H 0.6164 0.09286 0.50524 0.0
H102 H 0.548 0.97019 0.39836 0.0
H103 H 0.49914 0.90524 0.49506 0.0
H104 H 0.50485 0.0977 0.50842 0.0
H105 H 0.46076 0.03533 0.60896 0.0
C106 C 0.55603 0.53317 0.94336 0.0
C107 C 0.56462 0.54934 0.90707 0.0
C108 C 0.54174 0.55354 0.89718 0.0
C109 C 0.52039 0.53951 0.92757 0.0
N110 N 0.52853 0.52721 0.95687 0.0
Co111 Co 0.50221 0.50084 0.0035 0.0
N112 N 0.46685 0.50365 0.98622 0.0
C113 C 0.46655 0.52001 0.95459 0.0
C114 C 0.44039 0.52027 0.95244 0.0
C115 C 0.4231 0.50356 0.98508 0.0
C116 C 0.43966 0.49373 0.00515 0.0
N117 N 0.47561 0.47341 0.0491 0.0
C118 C 0.44691 0.46491 0.06079 0.0
C119 C 0.43669 0.44539 0.09413 0.0
C120 C 0.46012 0.44209 0.10456 0.0
C121 C 0.48311 0.45953 0.07691 0.0
N122 N 0.53787 0.49903 0.02171 0.0
C123 C 0.53941 0.48547 0.05563 0.0
C124 C 0.56694 0.48801 0.05991 0.0
C125 C 0.58375 0.50361 0.02637 0.0
C126 C 0.56529 0.50943 0.00333 0.0
N127 N 0.5158 0.53591 0.03549 0.0
C128 C 0.52799 0.58299 0.08245 0.0
C129 C 0.52455 0.55695 0.0994 0.0
C130 C 0.51886 0.53403 0.07555 0.0
C131 C 0.5264 0.58561 0.04147 0.0
C132 C 0.52039 0.56201 0.01871 0.0
N133 N 0.48864 0.46587 0.97157 0.0
C134 C 0.48654 0.42038 0.96084 0.0
C135 C 0.4762 0.41971 0.92269 0.0
C136 C 0.4711 0.44192 0.90988 0.0
C137 C 0.47731 0.46455 0.93469 0.0
C138 C 0.49233 0.44331 0.98472 0.0
H139 H 0.47349 0.48116 0.923 0.0
H140 H 0.50041 0.44266 0.01338 0.0
H141 H 0.51644 0.51479 0.09042 0.0
H142 H 0.51889 0.56521 0.98775 0.0
C143 C 0.49169 0.53582 0.92826 0.0
C144 C 0.57364 0.52235 0.96279 0.0
C145 C 0.4294 0.4764 0.04309 0.0
C146 C 0.51318 0.46665 0.07943 0.0
H147 H 0.58477 0.55654 0.88878 0.0
H148 H 0.54024 0.56441 0.87022 0.0
H149 H 0.43496 0.53201 0.93044 0.0
H150 H 0.40118 0.49983 0.99358 0.0
H151 H 0.41498 0.43548 0.11012 0.0
H152 H 0.46084 0.42967 0.13034 0.0
H153 H 0.57336 0.47816 0.08347 0.0
H154 H 0.60644 0.50882 0.01878 0.0
H155 H 0.526 0.55418 0.13106 0.0
H156 H 0.52876 0.60539 0.02712 0.0
H157 H 0.49049 0.4034 0.97211 0.0
H158 H 0.46335 0.44244 0.88037 0.0
C159 C 0.94778 0.43968 0.50994 0.0
C160 C 0.92107 0.42057 0.49086 0.0
C161 C 0.92053 0.43629 0.4582 0.0
C162 C 0.9469 0.46392 0.45906 0.0
N163 N 0.96464 0.4666 0.48982 0.0
Co164 Co 0.00437 0.50312 0.50321 0.0
N165 N 0.00205 0.52723 0.45748 0.0
C166 C 0.97941 0.51792 0.43135 0.0
C167 C 0.98518 0.53895 0.40173 0.0
C168 C 0.0135 0.56293 0.40881 0.0
C169 C 0.02333 0.55509 0.44256 0.0
N170 N 0.04405 0.53967 0.51667 0.0
C171 C 0.06115 0.56633 0.49608 0.0
C172 C 0.08807 0.58542 0.51473 0.0
C173 C 0.08838 0.56997 0.54788 0.0
C174 C 0.06171 0.54251 0.54756 0.0
N175 N 0.00673 0.47897 0.5489 0.0
C176 C 0.02941 0.48846 0.57506 0.0
C177 C 0.0234 0.46788 0.60538 0.0
C178 C 0.995 0.44397 0.59869 0.0
C179 C 0.98536 0.45119 0.56417 0.0
N180 N 0.0272 0.49226 0.46829 0.0
C181 C 0.0637 0.48419 0.41547 0.0
C182 C 0.07191 0.49051 0.45462 0.0
C183 C 0.05348 0.49443 0.48034 0.0
C184 C 0.03623 0.48055 0.40368 0.0
C185 C 0.01837 0.48444 0.43043 0.0
N186 N 0.98156 0.51407 0.53809 0.0
C187 C 0.97198 0.52517 0.6028 0.0
C188 C 0.94546 0.52313 0.5901 0.0
C189 C 0.9379 0.51778 0.55065 0.0
C190 C 0.95605 0.51318 0.52537 0.0
C191 C 0.98979 0.52099 0.57636 0.0
H192 H 0.94856 0.50829 0.49595 0.0
H193 H 0.00976 0.52292 0.58786 0.0
H194 H 0.06132 0.49987 0.50955 0.0
H195 H 0.99781 0.48154 0.41952 0.0
C196 C 0.95453 0.48836 0.43316 0.0
C197 C 0.95503 0.43185 0.5484 0.0
C198 C 0.05395 0.57374 0.45744 0.0
C199 C 0.05414 0.51808 0.57335 0.0
H200 H 0.90334 0.3979 0.50031 0.0
H201 H 0.90253 0.42882 0.43713 0.0
H202 H 0.97113 0.53661 0.37688 0.0
H203 H 0.02596 0.5834 0.39034 0.0
H204 H 0.10609 0.60779 0.50457 0.0
H205 H 0.10652 0.5774 0.56872 0.0
H206 H 0.03725 0.4706 0.63062 0.0
H207 H 0.98245 0.42406 0.61813 0.0
H208 H 0.09295 0.49329 0.46507 0.0
H209 H 0.02859 0.47485 0.37385 0.0
H210 H 0.97882 0.52977 0.63312 0.0
H211 H 0.9175 0.51614 0.5397 0.0
C212 C 0.46032 0.99036 0.07092 0.0
C213 C 0.46094 0.00127 0.10749 0.0
C214 C 0.48905 0.02678 0.10981 0.0
C215 C 0.50408 0.02989 0.0749 0.0
N216 N 0.48703 0.00828 0.04991 0.0
Co217 Co 0.50127 0.00181 0.99856 0.0
N218 N 0.54381 0.03725 0.00427 0.0
C219 C 0.55417 0.05586 0.03417 0.0
C220 C 0.58383 0.07942 0.02845 0.0
C221 C 0.59275 0.07612 0.99222 0.0
C222 C 0.56788 0.05058 0.97803 0.0
N223 N 0.51563 0.99474 0.94785 0.0
C224 C 0.54268 0.01191 0.92748 0.0
C225 C 0.54322 0.99947 0.8928 0.0
C226 C 0.51518 0.97373 0.89078 0.0
C227 C 0.49924 0.97194 0.92424 0.0
N228 N 0.45857 0.96707 0.99206 0.0
C229 C 0.44784 0.9495 0.96108 0.0
C230 C 0.41737 0.92758 0.96508 0.0
C231 C 0.40827 0.93097 1.00116 0.0
C232 C 0.43395 0.95464 0.01726 0.0
N233 N 0.49104 0.02827 0.96913 0.0
C234 C 0.48247 0.06842 0.92344 0.0
C235 C 0.47304 0.0406 0.91005 0.0
C236 C 0.47764 0.02103 0.93314 0.0
C237 C 0.4952 0.07558 0.96051 0.0
C238 C 0.49888 0.05512 0.983 0.0
N239 N 0.51153 0.9753 0.02802 0.0
C240 C 0.50306 0.9264 0.04162 0.0
C241 C 0.52156 0.93624 0.07428 0.0
C242 C 0.53567 0.96601 0.0829 0.0
C243 C 0.53025 0.98498 0.0597 0.0
C244 C 0.49874 0.94627 0.0187 0.0
H245 H 0.54102 0.0072 0.06855 0.0
H246 H 0.48455 0.93746 0.994 0.0
H247 H 0.47084 1.00051 0.92076 0.0
H248 H 0.50868 0.06176 0.0111 0.0
C249 C 0.53492 0.05136 0.06623 0.0
C250 C 0.43484 0.96196 0.05832 0.0
C251 C 0.56747 0.04106 0.93843 0.0
C252 C 0.46778 0.95197 0.93111 0.0
H253 H 0.44346 0.99144 0.13082 0.0
H254 H 0.49797 0.04064 0.13476 0.0
H255 H 0.59703 0.09742 0.04768 0.0
H256 H 0.61471 0.09127 0.97736 0.0
H257 H 0.56157 0.00868 0.87061 0.0
H258 H 0.50683 0.959 0.86667 0.0
H259 H 0.40379 0.91025 0.94512 0.0
H260 H 0.38578 0.91663 0.01509 0.0
H261 H 0.46304 0.03437 0.88134 0.0
H262 H 0.50255 0.09699 0.97187 0.0
H263 H 0.49191 0.90344 0.03386 0.0
H264 H 0.55012 0.97441 0.10815 0.0
C265 C 0.51844 0.56788 0.49499 0.0
C266 C 0.51127 0.5864 0.51259 0.0
C267 C 0.49291 0.57062 0.54496 0.0
C268 C 0.48966 0.5434 0.54509 0.0
N269 N 0.50542 0.541 0.51529 0.0
Co270 Co 0.50379 0.5041 0.50134 0.0
N271 N 0.47458 0.48011 0.54689 0.0
C272 C 0.4636 0.48993 0.57421 0.0
C273 C 0.44565 0.46879 0.60355 0.0
C274 C 0.44581 0.44416 0.59505 0.0
C275 C 0.4639 0.45182 0.56089 0.0
N276 N 0.50099 0.46688 0.48619 0.0
C277 C 0.48682 0.43953 0.50533 0.0
C278 C 0.49106 0.42 0.4851 0.0
C279 C 0.50894 0.43573 0.4523 0.0
C280 C 0.51458 0.46385 0.45434 0.0
N281 N 0.53412 0.52835 0.45697 0.0
C282 C 0.5471 0.51907 0.43182 0.0
C283 C 0.56692 0.54083 0.40421 0.0
C284 C 0.56617 0.56531 0.4118 0.0
C285 C 0.5457 0.55693 0.44356 0.0
N286 N 0.53812 0.5134 0.53644 0.0
C287 C 0.58417 0.52236 0.58844 0.0
C288 C 0.58136 0.50974 0.55246 0.0
C289 C 0.55863 0.50583 0.52689 0.0
C290 C 0.56412 0.53113 0.59776 0.0
C291 C 0.54127 0.52632 0.57159 0.0
N292 N 0.46951 0.49479 0.46618 0.0
C293 C 0.44903 0.48754 0.40068 0.0
C294 C 0.42295 0.4858 0.41508 0.0
C295 C 0.42017 0.48806 0.45549 0.0
C296 C 0.4436 0.49262 0.48033 0.0
C297 C 0.47168 0.49165 0.4266 0.0
H298 H 0.44041 0.4948 0.51071 0.0
H299 H 0.4909 0.49256 0.41375 0.0
H300 H 0.55789 0.49625 0.49982 0.0
H301 H 0.52615 0.53278 0.58075 0.0
C302 C 0.47101 0.51928 0.57178 0.0
C303 C 0.53607 0.57602 0.45777 0.0
C304 C 0.47185 0.43213 0.54436 0.0
C305 C 0.53649 0.48884 0.43093 0.0
H306 H 0.5178 0.60869 0.50254 0.0
H307 H 0.48232 0.57779 0.56519 0.0
H308 H 0.43444 0.47122 0.62865 0.0
H309 H 0.43461 0.42317 0.61251 0.0
H310 H 0.48323 0.39715 0.49399 0.0
H311 H 0.51827 0.42808 0.43088 0.0
H312 H 0.57911 0.53867 0.38004 0.0
H313 H 0.57824 0.58653 0.39488 0.0
H314 H 0.59667 0.50284 0.5441 0.0
H315 H 0.56553 0.54087 0.62559 0.0
H316 H 0.4519 0.48568 0.36951 0.0
H317 H 0.40035 0.48706 0.46775 0.0
H318 H 0.15624 0.41815 0.17528 0.0
H319 H 0.11499 0.41824 0.14023 0.0
H320 H 0.16762 0.51458 0.13584 0.0
H321 H 0.20792 0.5141 0.17247 0.0
H322 H 0.22971 0.46044 0.14693 0.0
H323 H 0.15464 0.42661 0.26081 0.0
H324 H 0.1173 0.42937 0.30186 0.0
H325 H 0.18168 0.52386 0.30944 0.0
H326 H 0.21913 0.52092 0.26892 0.0
H327 H 0.30271 0.51916 0.27831 0.0
H328 H 0.34281 0.52178 0.31951 0.0
H329 H 0.31352 0.43225 0.29204 0.0
H330 H 0.27342 0.42968 0.25087 0.0
H331 H 0.23966 0.47817 0.29015 0.0
H332 H 0.31378 0.51435 0.17884 0.0
H333 H 0.35437 0.51541 0.14068 0.0
H334 H 0.29577 0.42027 0.13004 0.0
H335 H 0.25469 0.41986 0.16624 0.0
C336 C 0.18509 0.46612 0.17609 0.0
C337 C 0.15882 0.43922 0.16652 0.0
C338 C 0.13541 0.43936 0.14628 0.0
C339 C 0.13819 0.46646 0.13468 0.0
C340 C 0.16466 0.49333 0.14447 0.0
C341 C 0.18781 0.49314 0.16512 0.0
C342 C 0.20956 0.46629 0.19851 0.0
C343 C 0.2316 0.46373 0.17837 0.0
C344 C 0.21255 0.47156 0.23911 0.0
C345 C 0.1895 0.47359 0.26184 0.0
C346 C 0.16057 0.44793 0.2711 0.0
C347 C 0.13937 0.44949 0.29455 0.0
C348 C 0.14668 0.47684 0.30851 0.0
C349 C 0.17547 0.5026 0.29864 0.0
C350 C 0.19683 0.50094 0.2757 0.0
C351 C 0.28522 0.47428 0.26146 0.0
C352 C 0.30508 0.50019 0.28096 0.0
C353 C 0.32796 0.5017 0.30433 0.0
C354 C 0.331 0.47713 0.30909 0.0
C355 C 0.31139 0.45135 0.28911 0.0
C356 C 0.2887 0.44997 0.2654 0.0
C357 C 0.25978 0.47205 0.23879 0.0
C358 C 0.23763 0.47446 0.2588 0.0
C359 C 0.25687 0.46683 0.19807 0.0
C360 C 0.28124 0.46707 0.17505 0.0
C361 C 0.30966 0.4938 0.16791 0.0
C362 C 0.33287 0.4943 0.1463 0.0
C363 C 0.3283 0.46799 0.13179 0.0
C364 C 0.29984 0.44112 0.1396 0.0
C365 C 0.2764 0.44076 0.1606 0.0
H366 H 0.6966 0.20753 0.81277 0.0
H367 H 0.65584 0.16586 0.85402 0.0
H368 H 0.67333 0.10533 0.79805 0.0
H369 H 0.71487 0.1473 0.75769 0.0
H370 H 0.7562 0.22917 0.80982 0.0
H371 H 0.67349 0.18303 0.72113 0.0
H372 H 0.6336 0.14244 0.68447 0.0
H373 H 0.70265 0.1383 0.61946 0.0
H374 H 0.74227 0.17746 0.65809 0.0
H375 H 0.81621 0.25442 0.65327 0.0
H376 H 0.8561 0.29578 0.61165 0.0
H377 H 0.85024 0.35777 0.68248 0.0
H378 H 0.8074 0.31609 0.72058 0.0
H379 H 0.76099 0.23295 0.66343 0.0
H380 H 0.84448 0.28061 0.75488 0.0
H381 H 0.88264 0.32142 0.79331 0.0
H382 H 0.81043 0.32298 0.85404 0.0
H383 H 0.77275 0.28378 0.81393 0.0
C384 C 0.70874 0.18055 0.78205 0.0
C385 C 0.69176 0.18531 0.80947 0.0
C386 C 0.66834 0.16147 0.83281 0.0
C387 C 0.66152 0.13238 0.82939 0.0
C388 C 0.67839 0.12757 0.80174 0.0
C389 C 0.70191 0.15148 0.77841 0.0
C390 C 0.73394 0.20622 0.75794 0.0
C391 C 0.75721 0.2302 0.77774 0.0
C392 C 0.73537 0.20713 0.71613 0.0
C393 C 0.71095 0.18295 0.69312 0.0
C394 C 0.68004 0.17298 0.69959 0.0
C395 C 0.65724 0.14996 0.67828 0.0
C396 C 0.66484 0.13669 0.64949 0.0
C397 C 0.69586 0.14729 0.64227 0.0
C398 C 0.71861 0.17002 0.66398 0.0
C399 C 0.80906 0.2819 0.69094 0.0
C400 C 0.82328 0.27689 0.65973 0.0
C401 C 0.8467 0.30074 0.63635 0.0
C402 C 0.85736 0.33037 0.6444 0.0
C403 C 0.84285 0.33534 0.67539 0.0
C404 C 0.8186 0.31142 0.69779 0.0
C405 C 0.78377 0.2561 0.71524 0.0
C406 C 0.76032 0.23199 0.69549 0.0
C407 C 0.78214 0.25512 0.75721 0.0
C408 C 0.80571 0.27944 0.78087 0.0
C409 C 0.83692 0.29011 0.77599 0.0
C410 C 0.8587 0.31326 0.79822 0.0
C411 C 0.84967 0.32591 0.8262 0.0
C412 C 0.81833 0.31452 0.83184 0.0
C413 C 0.79667 0.29174 0.80927 0.0
H414 H 0.58406 0.82649 0.33905 0.0
H415 H 0.58023 0.86218 0.37715 0.0
H416 H 0.49104 0.83056 0.33065 0.0
H417 H 0.49532 0.79541 0.29194 0.0
H418 H 0.54789 0.76549 0.34137 0.0
H419 H 0.5763 0.84731 0.24817 0.0
H420 H 0.57199 0.88429 0.20842 0.0
H421 H 0.49443 0.81354 0.15077 0.0
H422 H 0.49738 0.77666 0.19262 0.0
H423 H 0.49361 0.69954 0.20917 0.0
H424 H 0.49128 0.66107 0.16985 0.0
H425 H 0.58465 0.6924 0.19752 0.0
H426 H 0.58694 0.73097 0.2367 0.0
H427 H 0.53705 0.76314 0.19592 0.0
H428 H 0.49667 0.68905 0.31469 0.0
H429 H 0.49639 0.64946 0.35485 0.0
H430 H 0.59519 0.70284 0.35452 0.0
H431 H 0.59505 0.74296 0.31603 0.0
C432 C 0.54009 0.80845 0.31244 0.0
C433 C 0.56365 0.8272 0.33719 0.0
C434 C 0.56133 0.84742 0.35916 0.0
C435 C 0.53515 0.84894 0.35728 0.0
C436 C 0.51154 0.83002 0.33257 0.0
C437 C 0.51396 0.80994 0.31044 0.0
C438 C 0.54257 0.78698 0.28914 0.0
C439 C 0.54609 0.76544 0.30947 0.0
C440 C 0.53952 0.78637 0.24755 0.0
C441 C 0.53697 0.8091 0.22377 0.0
C442 C 0.55801 0.83972 0.2275 0.0
C443 C 0.55588 0.86088 0.2042 0.0
C444 C 0.53316 0.85187 0.17596 0.0
C445 C 0.51212 0.82123 0.17235 0.0
C446 C 0.51395 0.80011 0.19605 0.0
C447 C 0.54038 0.71795 0.22594 0.0
C448 C 0.51352 0.69803 0.20685 0.0
C449 C 0.51219 0.67608 0.18455 0.0
C450 C 0.53786 0.67397 0.18049 0.0
C451 C 0.56468 0.69381 0.19985 0.0
C452 C 0.56592 0.71562 0.22246 0.0
C453 C 0.54193 0.74183 0.24827 0.0
C454 C 0.53921 0.7637 0.22776 0.0
C455 C 0.54556 0.74281 0.28949 0.0
C456 C 0.54585 0.71884 0.31275 0.0
C457 C 0.51821 0.69219 0.32353 0.0
C458 C 0.51813 0.66957 0.34624 0.0
C459 C 0.54576 0.67311 0.3583 0.0
C460 C 0.5735 0.69972 0.34669 0.0
C461 C 0.5735 0.72254 0.32444 0.0
H462 H 0.71572 0.49561 0.70454 0.0
H463 H 0.67825 0.49618 0.66258 0.0
H464 H 0.68114 0.56351 0.73171 0.0
H465 H 0.72157 0.56543 0.77072 0.0
H466 H 0.77035 0.53221 0.71287 0.0
H467 H 0.68337 0.48968 0.80191 0.0
H468 H 0.64208 0.48812 0.83849 0.0
H469 H 0.70848 0.56058 0.90635 0.0
H470 H 0.74974 0.56384 0.86709 0.0
H471 H 0.8261 0.5652 0.86636 0.0
H472 H 0.86518 0.56383 0.9044 0.0
H473 H 0.85402 0.49274 0.8357 0.0
H474 H 0.8127 0.49201 0.80088 0.0
H475 H 0.76859 0.5287 0.85932 0.0
H476 H 0.85417 0.57358 0.75752 0.0
H477 H 0.89287 0.57272 0.71653 0.0
H478 H 0.82337 0.48643 0.67828 0.0
H479 H 0.78476 0.48757 0.71841 0.0
C480 C 0.72153 0.53034 0.74116 0.0
C481 C 0.70875 0.51093 0.71036 0.0
C482 C 0.68691 0.51099 0.6866 0.0
C483 C 0.67655 0.52993 0.69351 0.0
C484 C 0.68905 0.54915 0.7247 0.0
C485 C 0.71176 0.5498 0.74771 0.0
C486 C 0.74561 0.53045 0.76521 0.0
C487 C 0.76962 0.53115 0.74495 0.0
C488 C 0.74518 0.52955 0.80721 0.0
C489 C 0.7198 0.52726 0.83109 0.0
C490 C 0.6891 0.50552 0.8243 0.0
C491 C 0.66543 0.50427 0.84586 0.0
C492 C 0.67186 0.52396 0.87587 0.0
C493 C 0.70264 0.54522 0.88328 0.0
C494 C 0.72629 0.54692 0.86108 0.0
C495 C 0.8169 0.52931 0.82979 0.0
C496 C 0.83192 0.54917 0.85962 0.0
C497 C 0.85473 0.54872 0.88093 0.0
C498 C 0.86358 0.52882 0.87233 0.0
C499 C 0.84803 0.50853 0.84302 0.0
C500 C 0.82467 0.50845 0.8225 0.0
C501 C 0.79293 0.53024 0.8068 0.0
C502 C 0.76912 0.52989 0.82726 0.0
C503 C 0.79298 0.53081 0.765 0.0
C504 C 0.8167 0.53058 0.74105 0.0
C505 C 0.84735 0.55452 0.74031 0.0
C506 C 0.86933 0.55404 0.71696 0.0
C507 C 0.86094 0.52941 0.69467 0.0
C508 C 0.83031 0.5055 0.69555 0.0
C509 C 0.80832 0.50621 0.71826 0.0
H510 H 0.26861 0.83776 0.19951 0.0
H511 H 0.30779 0.87731 0.15415 0.0
H512 H 0.37264 0.8556 0.1953 0.0
H513 H 0.33235 0.81375 0.23577 0.0
H514 H 0.2483 0.77656 0.19457 0.0
H515 H 0.27052 0.83564 0.32885 0.0
H516 H 0.30962 0.87367 0.36936 0.0
H517 H 0.3714 0.84674 0.33658 0.0
H518 H 0.33057 0.80604 0.3018 0.0
H519 H 0.22967 0.71091 0.34536 0.0
H520 H 0.18854 0.66902 0.38592 0.0
H521 H 0.1223 0.68108 0.32604 0.0
H522 H 0.16362 0.72396 0.28707 0.0
H523 H 0.24962 0.76769 0.34091 0.0
H524 H 0.21272 0.69315 0.24089 0.0
H525 H 0.17497 0.65443 0.1997 0.0
H526 H 0.14358 0.71196 0.1625 0.0
H527 H 0.18268 0.75114 0.20179 0.0
C528 C 0.29783 0.82345 0.22229 0.0
C529 C 0.29133 0.84162 0.19867 0.0
C530 C 0.31383 0.86433 0.17291 0.0
C531 C 0.34342 0.86955 0.17057 0.0
C532 C 0.34998 0.8518 0.19524 0.0
C533 C 0.32718 0.82844 0.21977 0.0
C534 C 0.27312 0.79747 0.24638 0.0
C535 C 0.2485 0.77469 0.2266 0.0
C536 C 0.27361 0.7948 0.28812 0.0
C537 C 0.29802 0.8187 0.31109 0.0
C538 C 0.29247 0.83787 0.33083 0.0
C539 C 0.31503 0.85979 0.35374 0.0
C540 C 0.34394 0.86348 0.35677 0.0
C541 C 0.34933 0.84425 0.33645 0.0
C542 C 0.32626 0.82148 0.31514 0.0
C543 C 0.19977 0.72034 0.31264 0.0
C544 C 0.20629 0.70454 0.34093 0.0
C545 C 0.18273 0.68037 0.36379 0.0
C546 C 0.15212 0.67139 0.35866 0.0
C547 C 0.14565 0.6874 0.33056 0.0
C548 C 0.16924 0.71171 0.30794 0.0
C549 C 0.22498 0.74641 0.28902 0.0
C550 C 0.24949 0.76939 0.30888 0.0
C551 C 0.22465 0.74909 0.24728 0.0
C552 C 0.20056 0.72502 0.22418 0.0
C553 C 0.19773 0.69737 0.22372 0.0
C554 C 0.17605 0.67524 0.20026 0.0
C555 C 0.15654 0.68021 0.1771 0.0
C556 C 0.1589 0.70769 0.17871 0.0
C557 C 0.181 0.73001 0.20152 0.0
H558 H 0.50546 0.32312 0.74715 0.0
H559 H 0.50734 0.3613 0.78651 0.0
H560 H 0.42175 0.29445 0.84552 0.0
H561 H 0.41971 0.25636 0.80566 0.0
H562 H 0.46269 0.24036 0.80438 0.0
H563 H 0.50792 0.30667 0.65974 0.0
H564 H 0.50919 0.34751 0.62112 0.0
H565 H 0.41841 0.31668 0.66588 0.0
H566 H 0.4174 0.27607 0.70525 0.0
H567 H 0.42347 0.17992 0.66224 0.0
H568 H 0.42685 0.14333 0.62584 0.0
H569 H 0.51622 0.17551 0.67224 0.0
H570 H 0.51211 0.21132 0.70979 0.0
H571 H 0.4642 0.24333 0.65776 0.0
H572 H 0.42884 0.15822 0.75199 0.0
H573 H 0.43423 0.12169 0.79148 0.0
H574 H 0.51009 0.19315 0.85048 0.0
H575 H 0.50577 0.22957 0.80947 0.0
C576 C 0.46225 0.28697 0.77317 0.0
C577 C 0.48682 0.31678 0.76804 0.0
C578 C 0.48799 0.33851 0.79068 0.0
C579 C 0.46456 0.33082 0.81875 0.0
C580 C 0.43982 0.30104 0.82357 0.0
C581 C 0.43874 0.27928 0.80106 0.0
C582 C 0.46196 0.26359 0.75102 0.0
C583 C 0.46284 0.24085 0.77232 0.0
C584 C 0.46251 0.26448 0.70928 0.0
C585 C 0.4626 0.28847 0.68531 0.0
C586 C 0.48828 0.30867 0.66115 0.0
C587 C 0.48904 0.33197 0.63932 0.0
C588 C 0.46392 0.33509 0.6408 0.0
C589 C 0.43798 0.31457 0.66438 0.0
C590 C 0.43743 0.29152 0.6868 0.0
C591 C 0.46749 0.19824 0.68873 0.0
C592 C 0.44381 0.17912 0.66442 0.0
C593 C 0.44591 0.15841 0.64339 0.0
C594 C 0.47205 0.15685 0.64561 0.0
C595 C 0.49576 0.1761 0.66999 0.0
C596 C 0.4935 0.19661 0.69137 0.0
C597 C 0.46496 0.21998 0.71112 0.0
C598 C 0.4637 0.24253 0.68983 0.0
C599 C 0.46472 0.2192 0.75296 0.0
C600 C 0.46724 0.1967 0.77724 0.0
C601 C 0.44698 0.16604 0.77292 0.0
C602 C 0.44989 0.14518 0.79575 0.0
C603 C 0.47291 0.15457 0.82362 0.0
C604 C 0.49269 0.18523 0.82849 0.0
C605 C 0.48998 0.20606 0.80541 0.0
C606 C 0.08257 0.48855 0.10226 0.0
C607 C 0.06892 0.47145 0.06956 0.0
C608 C 0.10448 0.48636 0.12352 0.0
C609 C 0.11365 0.46706 0.11275 0.0
H610 H 0.07651 0.504 0.1111 0.0
H611 H 0.1144 0.49999 0.14854 0.0
S612 S 0.08397 0.41718 0.02936 0.0
N613 N 0.06494 0.43392 0.02803 0.0
N614 N 0.10702 0.4305 0.06683 0.0
C615 C 0.09968 0.44949 0.08032 0.0
C616 C 0.07711 0.45153 0.05901 0.0
C617 C 0.59398 0.09315 0.58838 0.0
C618 C 0.59379 0.06747 0.58056 0.0
C619 C 0.61689 0.11527 0.61085 0.0
C620 C 0.64048 0.11252 0.62634 0.0
H621 H 0.57636 0.0962 0.57678 0.0
H622 H 0.61637 0.13492 0.61558 0.0
S623 S 0.64946 0.04878 0.61464 0.0
N624 N 0.61882 0.04031 0.58956 0.0
N625 N 0.66134 0.08122 0.6331 0.0
C626 C 0.64026 0.08666 0.61888 0.0
C627 C 0.61705 0.0643 0.59569 0.0
C628 C 0.51065 0.59909 0.13921 0.0
C629 C 0.5317 0.60657 0.10767 0.0
C630 C 0.51288 0.62101 0.1627 0.0
C631 C 0.53649 0.65114 0.15585 0.0
H632 H 0.49197 0.57617 0.14531 0.0
H633 H 0.49604 0.61434 0.18647 0.0
S634 S 0.59767 0.68225 0.07746 0.0
N635 N 0.5771 0.6461 0.07115 0.0
N636 N 0.58134 0.68735 0.1154 0.0
C637 C 0.55789 0.65887 0.12473 0.0
C638 C 0.55544 0.63659 0.10056 0.0
C639 C 0.91869 0.5477 0.61181 0.0
C640 C 0.92509 0.52539 0.61816 0.0
C641 C 0.89861 0.54949 0.63752 0.0
C642 C 0.88387 0.52865 0.66983 0.0
H643 H 0.92923 0.56379 0.58679 0.0
H644 H 0.89395 0.56678 0.63154 0.0
S645 S 0.89285 0.46598 0.69902 0.0
N646 N 0.91541 0.48227 0.65917 0.0
N647 N 0.87719 0.48528 0.707 0.0
C648 C 0.89019 0.50634 0.67652 0.0
C649 C 0.91096 0.50481 0.6508 0.0
C650 C 0.39159 0.94284 0.10864 0.0
C651 C 0.4122 0.93863 0.08776 0.0
C652 C 0.36974 0.92061 0.13568 0.0
C653 C 0.36707 0.89296 0.14195 0.0
H654 H 0.39235 0.96346 0.10398 0.0
H655 H 0.35491 0.92522 0.15184 0.0
S656 S 0.41373 0.86998 0.09062 0.0
N657 N 0.42816 0.90476 0.07382 0.0
N658 N 0.38554 0.86198 0.12185 0.0
C659 C 0.387 0.88822 0.12 0.0
C660 C 0.40982 0.91122 0.0935 0.0
C661 C 0.44675 0.37761 0.56352 0.0
C662 C 0.46928 0.40742 0.5699 0.0
C663 C 0.44464 0.35417 0.58721 0.0
C664 C 0.46508 0.35994 0.61777 0.0
H665 H 0.43091 0.37248 0.5399 0.0
H666 H 0.42735 0.33141 0.58113 0.0
S667 S 0.52607 0.43418 0.64851 0.0
N668 N 0.51103 0.44155 0.61023 0.0
N669 N 0.50709 0.39747 0.65475 0.0
C670 C 0.48711 0.38967 0.625 0.0
C671 C 0.48917 0.41344 0.60108 0.0
C672 C 0.52048 0.90889 0.38249 0.0
C673 C 0.52734 0.91269 0.42277 0.0
C674 C 0.52301 0.88824 0.3617 0.0
C675 C 0.53258 0.87057 0.38029 0.0
H676 H 0.51276 0.92179 0.36694 0.0
H677 H 0.5177 0.88632 0.33067 0.0
S678 S 0.55312 0.87173 0.48537 0.0
N679 N 0.54443 0.89723 0.48039 0.0
N680 N 0.54836 0.8578 0.44162 0.0
C681 C 0.53942 0.87404 0.4206 0.0
C682 C 0.53691 0.89516 0.44177 0.0
C683 C 0.62544 0.54937 0.92812 0.0
C684 C 0.59856 0.52241 0.94077 0.0
C685 C 0.6489 0.54965 0.90714 0.0
C686 C 0.6467 0.52294 0.89879 0.0
H687 H 0.62823 0.57041 0.93425 0.0
H688 H 0.66878 0.571 0.89701 0.0
S689 S 0.58208 0.44646 0.92969 0.0
N690 N 0.57142 0.46843 0.94528 0.0
N691 N 0.61618 0.46878 0.90807 0.0
C692 C 0.62025 0.49582 0.91264 0.0
C693 C 0.59612 0.4956 0.93324 0.0
C694 C 0.08084 0.6255 0.42555 0.0
C695 C 0.07877 0.59826 0.43163 0.0
C696 C 0.10452 0.64895 0.40167 0.0
C697 C 0.127 0.64597 0.38329 0.0
H698 H 0.06413 0.62868 0.43951 0.0
H699 H 0.10549 0.66973 0.39807 0.0
S700 S 0.13091 0.57845 0.38984 0.0
N701 N 0.10052 0.56919 0.41756 0.0
N702 N 0.14497 0.61306 0.37232 0.0
C703 C 0.12496 0.61863 0.38921 0.0
C704 C 0.10084 0.59483 0.41348 0.0
C705 C 0.45187 0.08662 0.89126 0.0
C706 C 0.48037 0.0904 0.89796 0.0
C707 C 0.44962 0.10738 0.86695 0.0
C708 C 0.4758 0.13244 0.8483 0.0
H709 H 0.43129 0.06768 0.90523 0.0
H710 H 0.42729 0.10403 0.86321 0.0
S711 S 0.55534 0.15034 0.85383 0.0
N712 N 0.53494 0.11973 0.8829 0.0
N713 N 0.53085 0.15844 0.83628 0.0
C714 C 0.50435 0.1359 0.85416 0.0
C715 C 0.5066 0.11492 0.87921 0.0
C716 C 0.40729 0.50347 0.35564 0.0
C717 C 0.39923 0.48258 0.38782 0.0
C718 C 0.38509 0.50151 0.33018 0.0
C719 C 0.35419 0.47829 0.33565 0.0
H720 H 0.43085 0.52177 0.35056 0.0
H721 H 0.39214 0.51822 0.30599 0.0
S722 S 0.3215 0.41764 0.41494 0.0
N723 N 0.35843 0.43781 0.42349 0.0
N724 N 0.31669 0.43393 0.37541 0.0
C725 C 0.34593 0.45703 0.36737 0.0
C726 C 0.36846 0.45925 0.39356 0.0
C727 C 0.9175 0.37079 0.89177 0.0
C728 C 0.91557 0.39533 0.89951 0.0
C729 C 0.89634 0.34862 0.86766 0.0
C730 C 0.8727 0.3504 0.8502 0.0
H731 H 0.93516 0.36851 0.90497 0.0
H732 H 0.89815 0.32966 0.86333 0.0
S733 S 0.86023 0.41228 0.85852 0.0
N734 N 0.88964 0.42126 0.88655 0.0
N735 N 0.85044 0.3803 0.8402 0.0
C736 C 0.87129 0.37549 0.85692 0.0
C737 C 0.8926 0.39779 0.8818 0.0
C738 C 0.90781 0.50027 0.92706 0.0
C739 C 0.93488 0.52658 0.93664 0.0
C740 C 0.88495 0.50124 0.90645 0.0
C741 C 0.88836 0.52859 0.89433 0.0
H742 H 0.90427 0.47878 0.93577 0.0
H743 H 0.86427 0.48031 0.90041 0.0
S744 S 0.95572 0.60384 0.91193 0.0
N745 N 0.96387 0.5806 0.9335 0.0
N746 N 0.9219 0.58274 0.89262 0.0
C747 C 0.91562 0.5551 0.90361 0.0
C748 C 0.93861 0.55401 0.92526 0.0
C749 C 0.39331 0.93801 0.40405 0.0
C750 C 0.41435 0.93437 0.42534 0.0
C751 C 0.3711 0.91525 0.38161 0.0
C752 C 0.36824 0.88743 0.38068 0.0
H753 H 0.39402 0.95864 0.40475 0.0
H754 H 0.35614 0.91967 0.36475 0.0
S755 S 0.41667 0.86618 0.43482 0.0
N756 N 0.43105 0.90116 0.44491 0.0
N757 N 0.38766 0.85728 0.40607 0.0
C758 C 0.38879 0.88334 0.40304 0.0
C759 C 0.41208 0.90698 0.42467 0.0
C760 C 0.49614 0.39191 0.89109 0.0
C761 C 0.47237 0.39686 0.89589 0.0
C762 C 0.49354 0.37081 0.8657 0.0
C763 C 0.46688 0.35358 0.84449 0.0
H764 H 0.51706 0.40465 0.90685 0.0
H765 H 0.51238 0.36766 0.86309 0.0
S766 S 0.39793 0.35773 0.84671 0.0
N767 N 0.42122 0.38269 0.87744 0.0
N768 N 0.41631 0.34295 0.8296 0.0
C769 C 0.44288 0.35821 0.84902 0.0
C770 C 0.44565 0.37991 0.87466 0.0
C771 C 0.09463 0.46313 0.39667 0.0
C772 C 0.08396 0.48186 0.38706 0.0
C773 C 0.11443 0.46117 0.37069 0.0
C774 C 0.1247 0.47832 0.33457 0.0
H775 H 0.08752 0.44981 0.42443 0.0
H776 H 0.12224 0.44657 0.37923 0.0
S777 S 0.10349 0.53067 0.29543 0.0
N778 N 0.08482 0.51755 0.33859 0.0
N779 N 0.12258 0.5143 0.29021 0.0
C780 C 0.1142 0.49708 0.32456 0.0
C781 C 0.09365 0.4987 0.35066 0.0
C782 C 0.58566 0.08199 0.8858 0.0
C783 C 0.59078 0.06239 0.90833 0.0
C784 C 0.60843 0.10415 0.85964 0.0
C785 C 0.63706 0.10739 0.85518 0.0
H786 H 0.56412 0.08052 0.88905 0.0
H787 H 0.60371 0.11906 0.84305 0.0
S788 S 0.66137 0.06135 0.90831 0.0
N789 N 0.62593 0.04716 0.92486 0.0
N790 N 0.66907 0.08897 0.87599 0.0
C791 C 0.64214 0.08747 0.87728 0.0
C792 C 0.61891 0.06494 0.90387 0.0
C793 C 0.5233 0.59564 0.39764 0.0
C794 C 0.54051 0.60136 0.4317 0.0
C795 C 0.52566 0.61901 0.37365 0.0
C796 C 0.54526 0.64895 0.38298 0.0
H797 H 0.50755 0.57288 0.38988 0.0
H798 H 0.51188 0.61357 0.3477 0.0
S799 S 0.59569 0.67526 0.46899 0.0
N800 N 0.57859 0.63864 0.47299 0.0
N801 N 0.58232 0.68275 0.42896 0.0
C802 C 0.56303 0.65486 0.41674 0.0
C803 C 0.56082 0.63101 0.44086 0.0
C804 C 0.48672 0.09661 0.62198 0.0
C805 C 0.47903 0.09182 0.58204 0.0
C806 C 0.48445 0.11765 0.64216 0.0
C807 C 0.47441 0.13483 0.62324 0.0
H808 H 0.49492 0.08421 0.63775 0.0
H809 H 0.49036 0.12028 0.67298 0.0
S810 S 0.45159 0.13106 0.51884 0.0
N811 N 0.46046 0.10571 0.52447 0.0
N812 N 0.45733 0.14609 0.56192 0.0
C813 C 0.46676 0.13038 0.58325 0.0
C814 C 0.46888 0.10878 0.56276 0.0
C815 C 0.40806 0.48812 0.1004 0.0
C816 C 0.40299 0.47298 0.06573 0.0
C817 C 0.38377 0.48602 0.12177 0.0
C818 C 0.35345 0.46882 0.10912 0.0
H819 H 0.43106 0.50187 0.1109 0.0
H820 H 0.38882 0.49795 0.14849 0.0
S821 S 0.32847 0.42473 0.01986 0.0
N822 N 0.36575 0.43953 0.02017 0.0
N823 N 0.3201 0.43659 0.05898 0.0
C824 C 0.34817 0.45336 0.07448 0.0
C825 C 0.37293 0.45521 0.05312 0.0
C826 C 0.90508 0.40562 0.58659 0.0
C827 C 0.93054 0.40559 0.57275 0.0
C828 C 0.88159 0.38124 0.60948 0.0
C829 C 0.88286 0.35601 0.61999 0.0
H830 H 0.90328 0.42464 0.57949 0.0
H831 H 0.86213 0.38212 0.61861 0.0
S832 S 0.94551 0.34569 0.59125 0.0
N833 N 0.95554 0.37831 0.56974 0.0
N834 N 0.91287 0.33345 0.61552 0.0
C835 C 0.90856 0.356 0.60645 0.0
C836 C 0.93201 0.38052 0.58219 0.0
C837 C 0.49949 0.89027 0.11903 0.0
C838 C 0.52527 0.91527 0.10003 0.0
C839 C 0.50233 0.87015 0.14386 0.0
C840 C 0.53106 0.87413 0.1503 0.0
H841 H 0.47701 0.88647 0.11504 0.0
H842 H 0.48185 0.85143 0.15834 0.0
S843 S 0.60538 0.93539 0.10518 0.0
N844 N 0.58023 0.94278 0.08828 0.0
N845 N 0.58569 0.90452 0.13397 0.0
C846 C 0.55702 0.89902 0.13106 0.0
C847 C 0.55409 0.91968 0.10615 0.0
C848 C 0.60656 0.4995 0.63015 0.0
C849 C 0.60719 0.52511 0.61657 0.0
C850 C 0.62838 0.50129 0.65599 0.0
C851 C 0.65248 0.52893 0.66828 0.0
H852 H 0.58905 0.47788 0.62059 0.0
H853 H 0.62639 0.48072 0.66616 0.0
S854 S 0.66535 0.60294 0.63833 0.0
N855 N 0.63368 0.57892 0.61641 0.0
N856 N 0.67612 0.5828 0.66303 0.0
C857 C 0.65348 0.55484 0.65446 0.0
C858 C 0.63059 0.55282 0.62897 0.0
C859 C 0.09597 0.60401 0.14215 0.0
C860 C 0.09091 0.61043 0.10315 0.0
C861 C 0.11692 0.62663 0.1658 0.0
C862 C 0.13391 0.65671 0.15146 0.0
H863 H 0.08399 0.58119 0.15443 0.0
H864 H 0.11974 0.62045 0.19567 0.0
S865 S 0.12909 0.68563 0.05147 0.0
N866 N 0.10392 0.64936 0.05176 0.0
N867 N 0.14451 0.69163 0.09529 0.0
C868 C 0.12907 0.6635 0.1125 0.0
C869 C 0.1074 0.64047 0.08859 0.0
loop_
_geom_bond_atom_site_label_1
_geom_bond_atom_site_label_2
_geom_bond_distance
_geom_bond_site_symmetry_2
_ccdc_geom_bond_type
C0 C1 1.443 1_556 S
C0 N4 1.376 1_556 S
C0 C38 1.389 . S
C1 C0 1.443 1_554 S
C1 C2 1.340 . S
C1 H41 0.951 1_554 S
C2 C1 1.340 . S
C2 C3 1.439 . S
C2 H42 0.950 . S
C3 C2 1.439 . S
C3 N4 1.374 . S
C3 C37 1.395 . S
N4 C0 1.376 1_554 S
N4 C3 1.374 . S
N4 Co5 2.011 1_655 S
Co5 N4 2.011 1_455 S
Co5 N6 2.007 1_455 S
Co5 N11 2.005 1_554 S
Co5 N16 1.982 1_554 S
Co5 N21 2.291 . S
Co5 N27 2.274 1_454 S
N6 Co5 2.007 1_655 S
N6 C7 1.376 . S
N6 C10 1.383 1_655 S
C7 N6 1.376 . S
C7 C8 1.446 . S
C7 C37 1.391 . S
C8 C7 1.446 . S
C8 C9 1.339 1_655 S
C8 H43 0.949 . S
C9 C8 1.339 1_455 S
C9 C10 1.439 . S
C9 H44 0.950 . S
C10 N6 1.383 1_455 S
C10 C9 1.439 . S
C10 C39 1.392 . S
N11 Co5 2.005 1_556 S
N11 C12 1.376 1_556 S
N11 C15 1.374 . S
C12 N11 1.376 1_554 S
C12 C13 1.443 1_554 S
C12 C39 1.389 . S
C13 C12 1.443 1_556 S
C13 C14 1.340 . S
C13 H45 0.951 1_556 S
C14 C13 1.340 . S
C14 C15 1.439 . S
C14 H46 0.950 . S
C15 N11 1.374 . S
C15 C14 1.439 . S
C15 C40 1.395 . S
N16 Co5 1.982 1_556 S
N16 C17 1.376 . S
N16 C20 1.383 1_455 S
C17 N16 1.376 . S
C17 C18 1.446 . S
C17 C40 1.391 . S
C18 C17 1.446 . S
C18 C19 1.339 1_455 S
C18 H47 0.949 . S
C19 C18 1.339 1_655 S
C19 C20 1.439 . S
C19 H48 0.950 . S
C20 N16 1.383 1_655 S
C20 C19 1.439 . S
C20 C38 1.392 . S
N21 Co5 2.291 . S
N21 C24 1.332 . S
N21 C26 1.332 . S
C22 C23 1.386 . S
C22 C25 1.388 . S
C23 C22 1.386 . S
C23 C24 1.382 . S
C23 H49 0.950 . S
C24 N21 1.332 . S
C24 C23 1.382 . S
C24 H35 0.952 1_554 S
C25 C22 1.388 . S
C25 C26 1.382 . S
C25 H50 0.950 . S
C26 N21 1.332 . S
C26 C25 1.382 . S
C26 H36 0.948 . S
N27 Co5 2.274 1_656 S
N27 C31 1.332 . S
N27 C32 1.332 . S
C28 C29 1.388 . S
C28 C32 1.382 . S
C28 H51 0.950 . S
C29 C28 1.388 . S
C29 C30 1.386 . S
C30 C29 1.386 . S
C30 C31 1.382 . S
C30 H52 0.950 . S
C31 N27 1.332 . S
C31 C30 1.382 . S
C31 H33 0.952 1_556 S
C32 N27 1.332 . S
C32 C28 1.382 . S
C32 H34 0.948 . S
H33 C31 0.952 1_554 S
H34 C32 0.948 . S
H35 C24 0.952 1_556 S
H36 C26 0.948 . S
C37 C3 1.395 . S
C37 C7 1.391 . S
C38 C0 1.389 . S
C38 C20 1.392 . S
C39 C10 1.392 . S
C39 C12 1.389 . S
C40 C15 1.395 . S
C40 C17 1.391 . S
H41 C1 0.951 1_556 S
H42 C2 0.950 . S
H43 C8 0.949 . S
H44 C9 0.950 . S
H45 C13 0.951 1_554 S
H46 C14 0.950 . S
H47 C18 0.949 . S
H48 C19 0.950 . S
H49 C23 0.950 . S
H50 C25 0.950 . S
H51 C28 0.950 . S
H52 C30 0.950 . S
C53 C54 1.443 . S
C53 N57 1.376 1_545 S
C53 C91 1.389 . S
C54 C53 1.443 . S
C54 C55 1.340 1_545 S
C54 H94 0.951 . S
C55 C54 1.340 1_565 S
C55 C56 1.439 . S
C55 H95 0.950 . S
C56 C55 1.439 . S
C56 N57 1.374 . S
C56 C90 1.395 . S
N57 C53 1.376 1_565 S
N57 C56 1.374 . S
N57 Co58 2.002 1_565 S
Co58 N57 2.002 1_545 S
Co58 N59 1.978 1_545 S
Co58 N64 2.015 . S
Co58 N69 2.011 . S
Co58 N74 2.251 1_545 S
Co58 N80 2.314 . S
N59 Co58 1.978 1_565 S
N59 C60 1.376 . S
N59 C63 1.383 . S
C60 N59 1.376 . S
C60 C61 1.446 . S
C60 C90 1.391 . S
C61 C60 1.446 . S
C61 C62 1.339 . S
C61 H96 0.949 . S
C62 C61 1.339 . S
C62 C63 1.439 . S
C62 H97 0.950 . S
C63 N59 1.383 . S
C63 C62 1.439 . S
C63 C92 1.392 . S
N64 Co58 2.015 . S
N64 C65 1.376 1_545 S
N64 C68 1.374 . S
C65 N64 1.376 1_565 S
C65 C66 1.443 . S
C65 C92 1.389 . S
C66 C65 1.443 . S
C66 C67 1.340 1_565 S
C66 H98 0.951 . S
C67 C66 1.340 1_545 S
C67 C68 1.439 . S
C67 H99 0.950 . S
C68 N64 1.374 . S
C68 C67 1.439 . S
C68 C93 1.395 . S
N69 Co58 2.011 . S
N69 C70 1.376 . S
N69 C73 1.383 . S
C70 N69 1.376 . S
C70 C71 1.446 . S
C70 C93 1.391 . S
C71 C70 1.446 . S
C71 C72 1.339 . S
C71 H100 0.949 . S
C72 C71 1.339 . S
C72 C73 1.439 . S
C72 H101 0.950 . S
C73 N69 1.383 . S
C73 C72 1.439 . S
C73 C91 1.392 . S
N74 Co58 2.251 1_565 S
N74 C77 1.332 . S
N74 C79 1.332 . S
C75 C76 1.386 . S
C75 C78 1.388 . S
C76 C75 1.386 . S
C76 C77 1.382 . S
C76 H102 0.950 . S
C77 N74 1.332 . S
C77 C76 1.382 . S
C77 H88 0.952 1_565 S
C78 C75 1.388 . S
C78 C79 1.382 . S
C78 H103 0.950 . S
C79 N74 1.332 . S
C79 C78 1.382 . S
C79 H89 0.948 . S
N80 Co58 2.314 . S
N80 C84 1.332 . S
N80 C85 1.332 . S
C81 C82 1.388 . S
C81 C85 1.382 . S
C81 H104 0.950 . S
C82 C81 1.388 . S
C82 C83 1.386 . S
C83 C82 1.386 . S
C83 C84 1.382 . S
C83 H105 0.950 . S
C84 N80 1.332 . S
C84 C83 1.382 . S
C84 H86 0.952 1_545 S
C85 N80 1.332 . S
C85 C81 1.382 . S
C85 H87 0.948 . S
H86 C84 0.952 1_565 S
H87 C85 0.948 . S
H88 C77 0.952 1_545 S
H89 C79 0.948 . S
C90 C56 1.395 . S
C90 C60 1.391 . S
C91 C53 1.389 . S
C91 C73 1.392 . S
C92 C63 1.392 . S
C92 C65 1.389 . S
C93 C68 1.395 . S
C93 C70 1.391 . S
H94 C54 0.951 . S
H95 C55 0.950 . S
H96 C61 0.949 . S
H97 C62 0.950 . S
H98 C66 0.951 . S
H99 C67 0.950 . S
H100 C71 0.949 . S
H101 C72 0.950 . S
H102 C76 0.950 . S
H103 C78 0.950 . S
H104 C81 0.950 . S
H105 C83 0.950 . S
C106 C107 1.443 . S
C106 N110 1.376 . S
C106 C144 1.389 . S
C107 C106 1.443 . S
C107 C108 1.340 . S
C107 H147 0.951 . S
C108 C107 1.340 . S
C108 C109 1.439 . S
C108 H148 0.950 . S
C109 C108 1.439 . S
C109 N110 1.374 . S
C109 C143 1.395 . S
N110 C106 1.376 . S
N110 C109 1.374 . S
N110 Co111 1.995 1_556 S
Co111 N110 1.995 1_554 S
Co111 N112 1.991 1_554 S
Co111 N117 2.021 . S
Co111 N122 1.999 . S
Co111 N127 2.290 . S
Co111 N133 2.275 1_554 S
N112 Co111 1.991 1_556 S
N112 C113 1.376 . S
N112 C116 1.383 1_556 S
C113 N112 1.376 . S
C113 C114 1.446 . S
C113 C143 1.391 . S
C114 C113 1.446 . S
C114 C115 1.339 . S
C114 H149 0.949 . S
C115 C114 1.339 . S
C115 C116 1.439 1_556 S
C115 H150 0.944 1_556 S
C116 N112 1.383 1_554 S
C116 C115 1.439 1_554 S
C116 C145 1.392 . S
N117 Co111 2.021 . S
N117 C118 1.376 . S
N117 C121 1.374 . S
C118 N117 1.376 . S
C118 C119 1.443 . S
C118 C145 1.389 . S
C119 C118 1.443 . S
C119 C120 1.340 . S
C119 H151 0.951 . S
C120 C119 1.340 . S
C120 C121 1.439 . S
C120 H152 0.950 . S
C121 N117 1.374 . S
C121 C120 1.439 . S
C121 C146 1.395 . S
N122 Co111 1.999 . S
N122 C123 1.376 . S
N122 C126 1.383 1_554 S
C123 N122 1.376 . S
C123 C124 1.446 . S
C123 C146 1.391 . S
C124 C123 1.446 . S
C124 C125 1.339 . S
C124 H153 0.949 . S
C125 C124 1.339 . S
C125 C126 1.439 1_554 S
C125 H154 0.955 . S
C126 N122 1.383 1_556 S
C126 C125 1.439 1_556 S
C126 C144 1.392 . S
N127 Co111 2.290 . S
N127 C130 1.332 . S
N127 C132 1.332 . S
C128 C129 1.386 . S
C128 C131 1.388 . S
C129 C128 1.386 . S
C129 C130 1.382 . S
C129 H155 0.950 . S
C130 N127 1.332 . S
C130 C129 1.382 . S
C130 H141 0.952 . S
C131 C128 1.388 . S
C131 C132 1.382 . S
C131 H156 0.950 . S
C132 N127 1.332 . S
C132 C131 1.382 . S
C132 H142 0.948 1_554 S
N133 Co111 2.275 1_556 S
N133 C137 1.332 . S
N133 C138 1.332 . S
C134 C135 1.388 . S
C134 C138 1.382 . S
C134 H157 0.950 . S
C135 C134 1.388 . S
C135 C136 1.386 . S
C136 C135 1.386 . S
C136 C137 1.382 . S
C136 H158 0.950 . S
C137 N133 1.332 . S
C137 C136 1.382 . S
C137 H139 0.952 . S
C138 N133 1.332 . S
C138 C134 1.382 . S
C138 H140 0.948 1_556 S
H139 C137 0.952 . S
H140 C138 0.948 1_554 S
H141 C130 0.952 . S
H142 C132 0.948 1_556 S
C143 C109 1.395 . S
C143 C113 1.391 . S
C144 C106 1.389 . S
C144 C126 1.392 . S
C145 C116 1.392 . S
C145 C118 1.389 . S
C146 C121 1.395 . S
C146 C123 1.391 . S
H147 C107 0.951 . S
H148 C108 0.950 . S
H149 C114 0.949 . S
H150 C115 0.944 1_554 S
H151 C119 0.951 . S
H152 C120 0.950 . S
H153 C124 0.949 . S
H154 C125 0.955 . S
H155 C129 0.950 . S
H156 C131 0.950 . S
H157 C134 0.950 . S
H158 C136 0.950 . S
C159 C160 1.443 . S
C159 N163 1.376 . S
C159 C197 1.389 . S
C160 C159 1.443 . S
C160 C161 1.340 . S
C160 H200 0.951 . S
C161 C160 1.340 . S
C161 C162 1.439 . S
C161 H201 0.950 . S
C162 C161 1.439 . S
C162 N163 1.374 . S
C162 C196 1.395 . S
N163 C159 1.376 . S
N163 C162 1.374 . S
N163 Co164 2.008 1_655 S
Co164 N163 2.008 1_455 S
Co164 N165 1.995 1_455 S
Co164 N170 2.008 . S
Co164 N175 1.995 . S
Co164 N180 2.282 . S
Co164 N186 2.282 1_455 S
N165 Co164 1.995 1_655 S
N165 C166 1.376 . S
N165 C169 1.383 1_655 S
C166 N165 1.376 . S
C166 C167 1.446 . S
C166 C196 1.391 . S
C167 C166 1.446 . S
C167 C168 1.339 1_655 S
C167 H202 0.949 . S
C168 C167 1.339 1_455 S
C168 C169 1.439 . S
C168 H203 0.950 . S
C169 N165 1.383 1_455 S
C169 C168 1.439 . S
C169 C198 1.392 . S
N170 Co164 2.008 . S
N170 C171 1.376 . S
N170 C174 1.374 . S
C171 N170 1.376 . S
C171 C172 1.443 . S
C171 C198 1.389 . S
C172 C171 1.443 . S
C172 C173 1.340 . S
C172 H204 0.951 . S
C173 C172 1.340 . S
C173 C174 1.439 . S
C173 H205 0.950 . S
C174 N170 1.374 . S
C174 C173 1.439 . S
C174 C199 1.395 . S
N175 Co164 1.995 . S
N175 C176 1.376 . S
N175 C179 1.383 1_455 S
C176 N175 1.376 . S
C176 C177 1.446 . S
C176 C199 1.391 . S
C177 C176 1.446 . S
C177 C178 1.339 1_455 S
C177 H206 0.949 . S
C178 C177 1.339 1_655 S
C178 C179 1.439 . S
C178 H207 0.950 . S
C179 N175 1.383 1_655 S
C179 C178 1.439 . S
C179 C197 1.392 . S
N180 Co164 2.282 . S
N180 C183 1.332 . S
N180 C185 1.332 . S
C181 C182 1.386 . S
C181 C184 1.388 . S
C182 C181 1.386 . S
C182 C183 1.382 . S
C182 H208 0.950 . S
C183 N180 1.332 . S
C183 C182 1.382 . S
C183 H194 0.952 . S
C184 C181 1.388 . S
C184 C185 1.382 . S
C184 H209 0.950 . S
C185 N180 1.332 . S
C185 C184 1.382 . S
C185 H195 0.948 . S
N186 Co164 2.282 1_655 S
N186 C190 1.332 . S
N186 C191 1.332 . S
C187 C188 1.388 . S
C187 C191 1.382 . S
C187 H210 0.950 . S
C188 C187 1.388 . S
C188 C189 1.386 . S
C189 C188 1.386 . S
C189 C190 1.382 . S
C189 H211 0.950 . S
C190 N186 1.332 . S
C190 C189 1.382 . S
C190 H192 0.952 . S
C191 N186 1.332 . S
C191 C187 1.382 . S
C191 H193 0.948 . S
H192 C190 0.952 . S
H193 C191 0.948 . S
H194 C183 0.952 . S
H195 C185 0.948 . S
C196 C162 1.395 . S
C196 C166 1.391 . S
C197 C159 1.389 . S
C197 C179 1.392 . S
C198 C169 1.392 . S
C198 C171 1.389 . S
C199 C174 1.395 . S
C199 C176 1.391 . S
H200 C160 0.951 . S
H201 C161 0.950 . S
H202 C167 0.949 . S
H203 C168 0.950 . S
H204 C172 0.951 . S
H205 C173 0.950 . S
H206 C177 0.949 . S
H207 C178 0.950 . S
H208 C182 0.950 . S
H209 C184 0.950 . S
H210 C187 0.950 . S
H211 C189 0.950 . S
C212 C213 1.443 . S
C212 N216 1.376 1_565 S
C212 C250 1.389 . S
C213 C212 1.443 . S
C213 C214 1.340 1_565 S
C213 H253 0.951 . S
C214 C213 1.340 1_545 S
C214 C215 1.439 . S
C214 H254 0.950 . S
C215 C214 1.439 . S
C215 N216 1.374 . S
C215 C249 1.395 . S
N216 C212 1.376 1_545 S
N216 C215 1.374 . S
N216 Co217 2.031 . S
Co217 N216 2.031 . S
Co217 N218 2.014 . S
Co217 N223 1.979 1_544 S
Co217 N228 1.976 1_544 S
Co217 N233 2.306 1_554 S
Co217 N239 2.259 1_545 S
N218 Co217 2.014 . S
N218 C219 1.376 . S
N218 C222 1.383 1_554 S
C219 N218 1.376 . S
C219 C220 1.446 . S
C219 C249 1.391 . S
C220 C219 1.446 . S
C220 C221 1.339 1_554 S
C220 H255 0.949 . S
C221 C220 1.339 1_556 S
C221 C222 1.439 . S
C221 H256 0.950 . S
C222 N218 1.383 1_556 S
C222 C221 1.439 . S
C222 C251 1.392 . S
N223 Co217 1.979 1_566 S
N223 C224 1.369 1_565 S
N223 C227 1.386 . S
C224 N223 1.369 1_545 S
C224 C225 1.443 . S
C224 C251 1.389 . S
C225 C224 1.443 . S
C225 C226 1.340 1_545 S
C225 H257 0.951 . S
C226 C225 1.340 1_565 S
C226 C227 1.439 . S
C226 H258 0.950 . S
C227 N223 1.386 . S
C227 C226 1.439 . S
C227 C252 1.395 . S
N228 Co217 1.976 1_566 S
N228 C229 1.376 . S
N228 C232 1.383 1_556 S
C229 N228 1.376 . S
C229 C230 1.446 . S
C229 C252 1.391 . S
C230 C229 1.446 . S
C230 C231 1.339 1_556 S
C230 H259 0.949 . S
C231 C230 1.339 1_554 S
C231 C232 1.439 . S
C231 H260 0.950 . S
C232 N228 1.383 1_554 S
C232 C231 1.439 . S
C232 C250 1.392 . S
N233 Co217 2.306 1_556 S
N233 C236 1.332 . S
N233 C238 1.332 . S
C234 C235 1.386 . S
C234 C237 1.388 . S
C235 C234 1.386 . S
C235 C236 1.382 . S
C235 H261 0.950 . S
C236 N233 1.332 . S
C236 C235 1.382 . S
C236 H247 0.952 1_545 S
C237 C234 1.388 . S
C237 C238 1.382 . S
C237 H262 0.950 . S
C238 N233 1.332 . S
C238 C237 1.382 . S
C238 H248 0.948 . S
N239 Co217 2.259 1_565 S
N239 C243 1.332 . S
N239 C244 1.332 . S
C240 C241 1.388 . S
C240 C244 1.382 . S
C240 H263 0.950 . S
C241 C240 1.388 . S
C241 C242 1.386 . S
C242 C241 1.386 . S
C242 C243 1.382 . S
C242 H264 0.950 . S
C243 N239 1.332 . S
C243 C242 1.382 . S
C243 H245 0.952 1_565 S
C244 N239 1.332 . S
C244 C240 1.382 . S
C244 H246 0.948 . S
H245 C243 0.952 1_545 S
H246 C244 0.948 . S
H247 C236 0.952 1_565 S
H248 C238 0.948 . S
C249 C215 1.395 . S
C249 C219 1.391 . S
C250 C212 1.389 . S
C250 C232 1.392 . S
C251 C222 1.392 . S
C251 C224 1.389 . S
C252 C227 1.395 . S
C252 C229 1.391 . S
H253 C213 0.951 . S
H254 C214 0.950 . S
H255 C220 0.949 . S
H256 C221 0.950 . S
H257 C225 0.951 . S
H258 C226 0.950 . S
H259 C230 0.949 . S
H260 C231 0.950 . S
H261 C235 0.950 . S
H262 C237 0.950 . S
H263 C240 0.950 . S
H264 C242 0.950 . S
C265 C266 1.443 . S
C265 N269 1.376 . S
C265 C303 1.389 . S
C266 C265 1.443 . S
C266 C267 1.340 . S
C266 H306 0.951 . S
C267 C266 1.340 . S
C267 C268 1.439 . S
C267 H307 0.950 . S
C268 C267 1.439 . S
C268 N269 1.374 . S
C268 C302 1.395 . S
N269 C265 1.376 . S
N269 C268 1.374 . S
N269 Co270 2.008 . S
Co270 N269 2.008 . S
Co270 N271 1.995 . S
Co270 N276 2.008 . S
Co270 N281 1.995 . S
Co270 N286 2.282 . S
Co270 N292 2.282 . S
N271 Co270 1.995 . S
N271 C272 1.376 . S
N271 C275 1.383 . S
C272 N271 1.376 . S
C272 C273 1.446 . S
C272 C302 1.391 . S
C273 C272 1.446 . S
C273 C274 1.339 . S
C273 H308 0.949 . S
C274 C273 1.339 . S
C274 C275 1.439 . S
C274 H309 0.950 . S
C275 N271 1.383 . S
C275 C274 1.439 . S
C275 C304 1.392 . S
N276 Co270 2.008 . S
N276 C277 1.376 . S
N276 C280 1.374 . S
C277 N276 1.376 . S
C277 C278 1.443 . S
C277 C304 1.389 . S
C278 C277 1.443 . S
C278 C279 1.340 . S
C278 H310 0.951 . S
C279 C278 1.340 . S
C279 C280 1.439 . S
C279 H311 0.950 . S
C280 N276 1.374 . S
C280 C279 1.439 . S
C280 C305 1.395 . S
N281 Co270 1.995 . S
N281 C282 1.376 . S
N281 C285 1.383 . S
C282 N281 1.376 . S
C282 C283 1.446 . S
C282 C305 1.391 . S
C283 C282 1.446 . S
C283 C284 1.339 . S
C283 H312 0.949 . S
C284 C283 1.339 . S
C284 C285 1.439 . S
C284 H313 0.950 . S
C285 N281 1.383 . S
C285 C284 1.439 . S
C285 C303 1.392 . S
N286 Co270 2.282 . S
N286 C289 1.332 . S
N286 C291 1.332 . S
C287 C288 1.386 . S
C287 C290 1.388 . S
C288 C287 1.386 . S
C288 C289 1.382 . S
C288 H314 0.950 . S
C289 N286 1.332 . S
C289 C288 1.382 . S
C289 H300 0.952 . S
C290 C287 1.388 . S
C290 C291 1.382 . S
C290 H315 0.950 . S
C291 N286 1.332 . S
C291 C290 1.382 . S
C291 H301 0.948 . S
N292 Co270 2.282 . S
N292 C296 1.332 . S
N292 C297 1.332 . S
C293 C294 1.388 . S
C293 C297 1.382 . S
C293 H316 0.950 . S
C294 C293 1.388 . S
C294 C295 1.386 . S
C295 C294 1.386 . S
C295 C296 1.382 . S
C295 H317 0.950 . S
C296 N292 1.332 . S
C296 C295 1.382 . S
C296 H298 0.952 . S
C297 N292 1.332 . S
C297 C293 1.382 . S
C297 H299 0.948 . S
H298 C296 0.952 . S
H299 C297 0.948 . S
H300 C289 0.952 . S
H301 C291 0.948 . S
C302 C268 1.395 . S
C302 C272 1.391 . S
C303 C265 1.389 . S
C303 C285 1.392 . S
C304 C275 1.392 . S
C304 C277 1.389 . S
C305 C280 1.395 . S
C305 C282 1.391 . S
H306 C266 0.951 . S
H307 C267 0.950 . S
H308 C273 0.949 . S
H309 C274 0.950 . S
H310 C278 0.951 . S
H311 C279 0.950 . S
H312 C283 0.949 . S
H313 C284 0.950 . S
H314 C288 0.950 . S
H315 C290 0.950 . S
H316 C293 0.950 . S
H317 C295 0.950 . S
H318 C337 0.949 . S
H319 C338 0.950 . S
H320 C340 0.950 . S
H321 C341 0.950 . S
H322 C343 0.950 . S
H323 C346 0.950 . S
H324 C347 0.950 . S
H325 C349 0.951 . S
H326 C350 0.949 . S
H327 C352 0.949 . S
H328 C353 0.950 . S
H329 C355 0.950 . S
H330 C356 0.950 . S
H331 C358 0.950 . S
H332 C361 0.950 . S
H333 C362 0.950 . S
H334 C364 0.951 . S
H335 C365 0.949 . S
C336 C337 1.376 . S
C336 C341 1.386 . S
C336 C342 1.483 . S
C337 H318 0.949 . S
C337 C336 1.376 . S
C337 C338 1.397 . S
C338 H319 0.950 . S
C338 C337 1.397 . S
C338 C339 1.391 . S
C339 C338 1.391 . S
C339 C340 1.405 . S
C340 H320 0.950 . S
C340 C339 1.405 . S
C340 C341 1.367 . S
C341 H321 0.950 . S
C341 C336 1.386 . S
C341 C340 1.367 . S
C342 C336 1.483 . S
C342 C343 1.382 . S
C342 C344 1.403 . S
C343 H322 0.950 . S
C343 C342 1.382 . S
C343 C359 1.411 . S
C344 C342 1.403 . S
C344 C345 1.489 . S
C344 C358 1.411 . S
C345 C344 1.489 . S
C345 C346 1.383 . S
C345 C350 1.382 . S
C346 H323 0.950 . S
C346 C345 1.383 . S
C346 C347 1.395 . S
C347 H324 0.950 . S
C347 C346 1.395 . S
C347 C348 1.288 . S
C348 C347 1.288 . S
C348 C349 1.392 . S
C349 H325 0.951 . S
C349 C348 1.392 . S
C349 C350 1.392 . S
C350 H326 0.949 . S
C350 C345 1.382 . S
C350 C349 1.392 . S
C351 C352 1.376 . S
C351 C356 1.386 . S
C351 C357 1.483 . S
C352 H327 0.949 . S
C352 C351 1.376 . S
C352 C353 1.397 . S
C353 H328 0.950 . S
C353 C352 1.397 . S
C353 C354 1.391 . S
C354 C353 1.391 . S
C354 C355 1.405 . S
C355 H329 0.950 . S
C355 C354 1.405 . S
C355 C356 1.367 . S
C356 H330 0.950 . S
C356 C351 1.386 . S
C356 C355 1.367 . S
C357 C351 1.483 . S
C357 C358 1.382 . S
C357 C359 1.403 . S
C358 H331 0.950 . S
C358 C344 1.411 . S
C358 C357 1.382 . S
C359 C343 1.411 . S
C359 C357 1.403 . S
C359 C360 1.489 . S
C360 C359 1.489 . S
C360 C361 1.383 . S
C360 C365 1.382 . S
C361 H332 0.950 . S
C361 C360 1.383 . S
C361 C362 1.395 . S
C362 H333 0.950 . S
C362 C361 1.395 . S
C362 C363 1.288 . S
C363 C362 1.288 . S
C363 C364 1.392 . S
C364 H334 0.951 . S
C364 C363 1.392 . S
C364 C365 1.392 . S
C365 H335 0.949 . S
C365 C360 1.382 . S
C365 C364 1.392 . S
H366 C385 0.949 . S
H367 C386 0.950 . S
H368 C388 0.950 . S
H369 C389 0.950 . S
H370 C391 0.950 . S
H371 C394 0.950 . S
H372 C395 0.950 . S
H373 C397 0.951 . S
H374 C398 0.949 . S
H375 C400 0.949 . S
H376 C401 0.950 . S
H377 C403 0.950 . S
H378 C404 0.950 . S
H379 C406 0.950 . S
H380 C409 0.950 . S
H381 C410 0.950 . S
H382 C412 0.951 . S
H383 C413 0.949 . S
C384 C385 1.376 . S
C384 C389 1.386 . S
C384 C390 1.483 . S
C385 H366 0.949 . S
C385 C384 1.376 . S
C385 C386 1.397 . S
C386 H367 0.950 . S
C386 C385 1.397 . S
C386 C387 1.391 . S
C387 C386 1.391 . S
C387 C388 1.405 . S
C388 H368 0.950 . S
C388 C387 1.405 . S
C388 C389 1.367 . S
C389 H369 0.950 . S
C389 C384 1.386 . S
C389 C388 1.367 . S
C390 C384 1.483 . S
C390 C391 1.382 . S
C390 C392 1.403 . S
C391 H370 0.950 . S
C391 C390 1.382 . S
C391 C407 1.411 . S
C392 C390 1.403 . S
C392 C393 1.489 . S
C392 C406 1.411 . S
C393 C392 1.489 . S
C393 C394 1.383 . S
C393 C398 1.382 . S
C394 H371 0.950 . S
C394 C393 1.383 . S
C394 C395 1.395 . S
C395 H372 0.950 . S
C395 C394 1.395 . S
C395 C396 1.288 . S
C396 C395 1.288 . S
C396 C397 1.392 . S
C397 H373 0.951 . S
C397 C396 1.392 . S
C397 C398 1.392 . S
C398 H374 0.949 . S
C398 C393 1.382 . S
C398 C397 1.392 . S
C399 C400 1.376 . S
C399 C404 1.386 . S
C399 C405 1.483 . S
C400 H375 0.949 . S
C400 C399 1.376 . S
C400 C401 1.397 . S
C401 H376 0.950 . S
C401 C400 1.397 . S
C401 C402 1.391 . S
C402 C401 1.391 . S
C402 C403 1.405 . S
C403 H377 0.950 . S
C403 C402 1.405 . S
C403 C404 1.367 . S
C404 H378 0.950 . S
C404 C399 1.386 . S
C404 C403 1.367 . S
C405 C399 1.483 . S
C405 C406 1.382 . S
C405 C407 1.403 . S
C406 H379 0.950 . S
C406 C392 1.411 . S
C406 C405 1.382 . S
C407 C391 1.411 . S
C407 C405 1.403 . S
C407 C408 1.489 . S
C408 C407 1.489 . S
C408 C409 1.383 . S
C408 C413 1.382 . S
C409 H380 0.950 . S
C409 C408 1.383 . S
C409 C410 1.395 . S
C410 H381 0.950 . S
C410 C409 1.395 . S
C410 C411 1.288 . S
C411 C410 1.288 . S
C411 C412 1.392 . S
C412 H382 0.951 . S
C412 C411 1.392 . S
C412 C413 1.392 . S
C413 H383 0.949 . S
C413 C408 1.382 . S
C413 C412 1.392 . S
H414 C433 0.949 . S
H415 C434 0.950 . S
H416 C436 0.950 . S
H417 C437 0.950 . S
H418 C439 0.950 . S
H419 C442 0.950 . S
H420 C443 0.950 . S
H421 C445 0.951 . S
H422 C446 0.949 . S
H423 C448 0.949 . S
H424 C449 0.950 . S
H425 C451 0.950 . S
H426 C452 0.950 . S
H427 C454 0.950 . S
H428 C457 0.950 . S
H429 C458 0.950 . S
H430 C460 0.951 . S
H431 C461 0.949 . S
C432 C433 1.376 . S
C432 C437 1.386 . S
C432 C438 1.483 . S
C433 H414 0.949 . S
C433 C432 1.376 . S
C433 C434 1.397 . S
C434 H415 0.950 . S
C434 C433 1.397 . S
C434 C435 1.391 . S
C435 C434 1.391 . S
C435 C436 1.405 . S
C436 H416 0.950 . S
C436 C435 1.405 . S
C436 C437 1.367 . S
C437 H417 0.950 . S
C437 C432 1.386 . S
C437 C436 1.367 . S
C438 C432 1.483 . S
C438 C439 1.382 . S
C438 C440 1.403 . S
C439 H418 0.950 . S
C439 C438 1.382 . S
C439 C455 1.411 . S
C440 C438 1.403 . S
C440 C441 1.489 . S
C440 C454 1.411 . S
C441 C440 1.489 . S
C441 C442 1.383 . S
C441 C446 1.382 . S
C442 H419 0.950 . S
C442 C441 1.383 . S
C442 C443 1.395 . S
C443 H420 0.950 . S
C443 C442 1.395 . S
C443 C444 1.288 . S
C444 C443 1.288 . S
C444 C445 1.392 . S
C445 H421 0.951 . S
C445 C444 1.392 . S
C445 C446 1.392 . S
C446 H422 0.949 . S
C446 C441 1.382 . S
C446 C445 1.392 . S
C447 C448 1.376 . S
C447 C452 1.386 . S
C447 C453 1.483 . S
C448 H423 0.949 . S
C448 C447 1.376 . S
C448 C449 1.397 . S
C449 H424 0.950 . S
C449 C448 1.397 . S
C449 C450 1.391 . S
C450 C449 1.391 . S
C450 C451 1.405 . S
C451 H425 0.950 . S
C451 C450 1.405 . S
C451 C452 1.367 . S
C452 H426 0.950 . S
C452 C447 1.386 . S
C452 C451 1.367 . S
C453 C447 1.483 . S
C453 C454 1.382 . S
C453 C455 1.403 . S
C454 H427 0.950 . S
C454 C440 1.411 . S
C454 C453 1.382 . S
C455 C439 1.411 . S
C455 C453 1.403 . S
C455 C456 1.489 . S
C456 C455 1.489 . S
C456 C457 1.383 . S
C456 C461 1.382 . S
C457 H428 0.950 . S
C457 C456 1.383 . S
C457 C458 1.395 . S
C458 H429 0.950 . S
C458 C457 1.395 . S
C458 C459 1.288 . S
C459 C458 1.288 . S
C459 C460 1.392 . S
C460 H430 0.951 . S
C460 C459 1.392 . S
C460 C461 1.392 . S
C461 H431 0.949 . S
C461 C456 1.382 . S
C461 C460 1.392 . S
H462 C481 0.949 . S
H463 C482 0.950 . S
H464 C484 0.950 . S
H465 C485 0.950 . S
H466 C487 0.950 . S
H467 C490 0.950 . S
H468 C491 0.950 . S
H469 C493 0.951 . S
H470 C494 0.949 . S
H471 C496 0.949 . S
H472 C497 0.950 . S
H473 C499 0.950 . S
H474 C500 0.950 . S
H475 C502 0.950 . S
H476 C505 0.950 . S
H477 C506 0.950 . S
H478 C508 0.951 . S
H479 C509 0.949 . S
C480 C481 1.376 . S
C480 C485 1.386 . S
C480 C486 1.483 . S
C481 H462 0.949 . S
C481 C480 1.376 . S
C481 C482 1.397 . S
C482 H463 0.950 . S
C482 C481 1.397 . S
C482 C483 1.391 . S
C483 C482 1.391 . S
C483 C484 1.405 . S
C484 H464 0.950 . S
C484 C483 1.405 . S
C484 C485 1.367 . S
C485 H465 0.950 . S
C485 C480 1.386 . S
C485 C484 1.367 . S
C486 C480 1.483 . S
C486 C487 1.382 . S
C486 C488 1.403 . S
C487 H466 0.950 . S
C487 C486 1.382 . S
C487 C503 1.411 . S
C488 C486 1.403 . S
C488 C489 1.489 . S
C488 C502 1.411 . S
C489 C488 1.489 . S
C489 C490 1.383 . S
C489 C494 1.382 . S
C490 H467 0.950 . S
C490 C489 1.383 . S
C490 C491 1.395 . S
C491 H468 0.950 . S
C491 C490 1.395 . S
C491 C492 1.288 . S
C492 C491 1.288 . S
C492 C493 1.392 . S
C493 H469 0.951 . S
C493 C492 1.392 . S
C493 C494 1.392 . S
C494 H470 0.949 . S
C494 C489 1.382 . S
C494 C493 1.392 . S
C495 C496 1.376 . S
C495 C500 1.386 . S
C495 C501 1.483 . S
C496 H471 0.949 . S
C496 C495 1.376 . S
C496 C497 1.397 . S
C497 H472 0.950 . S
C497 C496 1.397 . S
C497 C498 1.391 . S
C498 C497 1.391 . S
C498 C499 1.405 . S
C499 H473 0.950 . S
C499 C498 1.405 . S
C499 C500 1.367 . S
C500 H474 0.950 . S
C500 C495 1.386 . S
C500 C499 1.367 . S
C501 C495 1.483 . S
C501 C502 1.382 . S
C501 C503 1.403 . S
C502 H475 0.950 . S
C502 C488 1.411 . S
C502 C501 1.382 . S
C503 C487 1.411 . S
C503 C501 1.403 . S
C503 C504 1.489 . S
C504 C503 1.489 . S
C504 C505 1.383 . S
C504 C509 1.382 . S
C505 H476 0.950 . S
C505 C504 1.383 . S
C505 C506 1.395 . S
C506 H477 0.950 . S
C506 C505 1.395 . S
C506 C507 1.288 . S
C507 C506 1.288 . S
C507 C508 1.392 . S
C508 H478 0.951 . S
C508 C507 1.392 . S
C508 C509 1.392 . S
C509 H479 0.949 . S
C509 C504 1.382 . S
C509 C508 1.392 . S
H510 C529 0.949 . S
H511 C530 0.950 . S
H512 C532 0.950 . S
H513 C533 0.950 . S
H514 C535 0.950 . S
H515 C538 0.950 . S
H516 C539 0.950 . S
H517 C541 0.951 . S
H518 C542 0.949 . S
H519 C544 0.949 . S
H520 C545 0.950 . S
H521 C547 0.950 . S
H522 C548 0.950 . S
H523 C550 0.950 . S
H524 C553 0.950 . S
H525 C554 0.950 . S
H526 C556 0.951 . S
H527 C557 0.949 . S
C528 C529 1.376 . S
C528 C533 1.386 . S
C528 C534 1.483 . S
C529 H510 0.949 . S
C529 C528 1.376 . S
C529 C530 1.397 . S
C530 H511 0.950 . S
C530 C529 1.397 . S
C530 C531 1.391 . S
C531 C530 1.391 . S
C531 C532 1.405 . S
C532 H512 0.950 . S
C532 C531 1.405 . S
C532 C533 1.367 . S
C533 H513 0.950 . S
C533 C528 1.386 . S
C533 C532 1.367 . S
C534 C528 1.483 . S
C534 C535 1.382 . S
C534 C536 1.403 . S
C535 H514 0.950 . S
C535 C534 1.382 . S
C535 C551 1.411 . S
C536 C534 1.403 . S
C536 C537 1.489 . S
C536 C550 1.411 . S
C537 C536 1.489 . S
C537 C538 1.383 . S
C537 C542 1.382 . S
C538 H515 0.950 . S
C538 C537 1.383 . S
C538 C539 1.395 . S
C539 H516 0.950 . S
C539 C538 1.395 . S
C539 C540 1.288 . S
C540 C539 1.288 . S
C540 C541 1.392 . S
C541 H517 0.951 . S
C541 C540 1.392 . S
C541 C542 1.392 . S
C542 H518 0.949 . S
C542 C537 1.382 . S
C542 C541 1.392 . S
C543 C544 1.376 . S
C543 C548 1.386 . S
C543 C549 1.483 . S
C544 H519 0.949 . S
C544 C543 1.376 . S
C544 C545 1.397 . S
C545 H520 0.950 . S
C545 C544 1.397 . S
C545 C546 1.391 . S
C546 C545 1.391 . S
C546 C547 1.405 . S
C547 H521 0.950 . S
C547 C546 1.405 . S
C547 C548 1.367 . S
C548 H522 0.950 . S
C548 C543 1.386 . S
C548 C547 1.367 . S
C549 C543 1.483 . S
C549 C550 1.382 . S
C549 C551 1.403 . S
C550 H523 0.950 . S
C550 C536 1.411 . S
C550 C549 1.382 . S
C551 C535 1.411 . S
C551 C549 1.403 . S
C551 C552 1.489 . S
C552 C551 1.489 . S
C552 C553 1.383 . S
C552 C557 1.382 . S
C553 H524 0.950 . S
C553 C552 1.383 . S
C553 C554 1.395 . S
C554 H525 0.950 . S
C554 C553 1.395 . S
C554 C555 1.288 . S
C555 C554 1.288 . S
C555 C556 1.392 . S
C556 H526 0.951 . S
C556 C555 1.392 . S
C556 C557 1.392 . S
C557 H527 0.949 . S
C557 C552 1.382 . S
C557 C556 1.392 . S
H558 C577 0.949 . S
H559 C578 0.950 . S
H560 C580 0.950 . S
H561 C581 0.950 . S
H562 C583 0.950 . S
H563 C586 0.950 . S
H564 C587 0.950 . S
H565 C589 0.951 . S
H566 C590 0.949 . S
H567 C592 0.949 . S
H568 C593 0.950 . S
H569 C595 0.950 . S
H570 C596 0.950 . S
H571 C598 0.950 . S
H572 C601 0.950 . S
H573 C602 0.950 . S
H574 C604 0.951 . S
H575 C605 0.949 . S
C576 C577 1.376 . S
C576 C581 1.386 . S
C576 C582 1.483 . S
C577 H558 0.949 . S
C577 C576 1.376 . S
C577 C578 1.397 . S
C578 H559 0.950 . S
C578 C577 1.397 . S
C578 C579 1.391 . S
C579 C578 1.391 . S
C579 C580 1.405 . S
C580 H560 0.950 . S
C580 C579 1.405 . S
C580 C581 1.367 . S
C581 H561 0.950 . S
C581 C576 1.386 . S
C581 C580 1.367 . S
C582 C576 1.483 . S
C582 C583 1.382 . S
C582 C584 1.403 . S
C583 H562 0.950 . S
C583 C582 1.382 . S
C583 C599 1.411 . S
C584 C582 1.403 . S
C584 C585 1.489 . S
C584 C598 1.411 . S
C585 C584 1.489 . S
C585 C586 1.383 . S
C585 C590 1.382 . S
C586 H563 0.950 . S
C586 C585 1.383 . S
C586 C587 1.395 . S
C587 H564 0.950 . S
C587 C586 1.395 . S
C587 C588 1.288 . S
C588 C587 1.288 . S
C588 C589 1.392 . S
C589 H565 0.951 . S
C589 C588 1.392 . S
C589 C590 1.392 . S
C590 H566 0.949 . S
C590 C585 1.382 . S
C590 C589 1.392 . S
C591 C592 1.376 . S
C591 C596 1.386 . S
C591 C597 1.483 . S
C592 H567 0.949 . S
C592 C591 1.376 . S
C592 C593 1.397 . S
C593 H568 0.950 . S
C593 C592 1.397 . S
C593 C594 1.391 . S
C594 C593 1.391 . S
C594 C595 1.405 . S
C595 H569 0.950 . S
C595 C594 1.405 . S
C595 C596 1.367 . S
C596 H570 0.950 . S
C596 C591 1.386 . S
C596 C595 1.367 . S
C597 C591 1.483 . S
C597 C598 1.382 . S
C597 C599 1.403 . S
C598 H571 0.950 . S
C598 C584 1.411 . S
C598 C597 1.382 . S
C599 C583 1.411 . S
C599 C597 1.403 . S
C599 C600 1.489 . S
C600 C599 1.489 . S
C600 C601 1.383 . S
C600 C605 1.382 . S
C601 H572 0.950 . S
C601 C600 1.383 . S
C601 C602 1.395 . S
C602 H573 0.950 . S
C602 C601 1.395 . S
C602 C603 1.288 . S
C603 C602 1.288 . S
C603 C604 1.392 . S
C604 H574 0.951 . S
C604 C603 1.392 . S
C604 C605 1.392 . S
C605 H575 0.949 . S
C605 C600 1.382 . S
C605 C604 1.392 . S
C606 C607 1.369 . S
C606 C608 1.419 . S
C606 H610 0.930 . S
C607 C606 1.369 . S
C607 C616 1.429 . S
C608 C606 1.419 . S
C608 C609 1.363 . S
C608 H611 0.929 . S
C609 C608 1.363 . S
C609 C615 1.428 . S
H610 C606 0.930 . S
H611 C608 0.929 . S
S612 N613 1.613 . S
S612 N614 1.610 . S
N613 S612 1.613 . S
N613 C616 1.350 . S
N614 S612 1.610 . S
N614 C615 1.351 . S
C615 C609 1.428 . S
C615 N614 1.351 . S
C615 C616 1.434 . S
C616 C607 1.429 . S
C616 N613 1.350 . S
C616 C615 1.434 . S
C617 C618 1.369 . S
C617 C619 1.419 . S
C617 H621 0.930 . S
C618 C617 1.369 . S
C618 C627 1.429 . S
C619 C617 1.419 . S
C619 C620 1.363 . S
C619 H622 0.929 . S
C620 C619 1.363 . S
C620 C626 1.428 . S
H621 C617 0.930 . S
H622 C619 0.929 . S
S623 N624 1.613 . S
S623 N625 1.610 . S
N624 S623 1.613 . S
N624 C627 1.350 . S
N625 S623 1.610 . S
N625 C626 1.351 . S
C626 C620 1.428 . S
C626 N625 1.351 . S
C626 C627 1.434 . S
C627 C618 1.429 . S
C627 N624 1.350 . S
C627 C626 1.434 . S
C628 C629 1.369 . S
C628 C630 1.419 . S
C628 H632 0.930 . S
C629 C628 1.369 . S
C629 C638 1.429 . S
C630 C628 1.419 . S
C630 C631 1.363 . S
C630 H633 0.929 . S
C631 C630 1.363 . S
C631 C637 1.428 . S
H632 C628 0.930 . S
H633 C630 0.929 . S
S634 N635 1.613 . S
S634 N636 1.610 . S
N635 S634 1.613 . S
N635 C638 1.350 . S
N636 S634 1.610 . S
N636 C637 1.351 . S
C637 C631 1.428 . S
C637 N636 1.351 . S
C637 C638 1.434 . S
C638 C629 1.429 . S
C638 N635 1.350 . S
C638 C637 1.434 . S
C639 C640 1.369 . S
C639 C641 1.419 . S
C639 H643 0.930 . S
C640 C639 1.369 . S
C640 C649 1.429 . S
C641 C639 1.419 . S
C641 C642 1.363 . S
C641 H644 0.929 . S
C642 C641 1.363 . S
C642 C648 1.428 . S
H643 C639 0.930 . S
H644 C641 0.929 . S
S645 N646 1.613 . S
S645 N647 1.610 . S
N646 S645 1.613 . S
N646 C649 1.350 . S
N647 S645 1.610 . S
N647 C648 1.351 . S
C648 C642 1.428 . S
C648 N647 1.351 . S
C648 C649 1.434 . S
C649 C640 1.429 . S
C649 N646 1.350 . S
C649 C648 1.434 . S
C650 C651 1.369 . S
C650 C652 1.419 . S
C650 H654 0.930 . S
C651 C650 1.369 . S
C651 C660 1.429 . S
C652 C650 1.419 . S
C652 C653 1.363 . S
C652 H655 0.929 . S
C653 C652 1.363 . S
C653 C659 1.428 . S
H654 C650 0.930 . S
H655 C652 0.929 . S
S656 N657 1.613 . S
S656 N658 1.610 . S
N657 S656 1.613 . S
N657 C660 1.350 . S
N658 S656 1.610 . S
N658 C659 1.351 . S
C659 C653 1.428 . S
C659 N658 1.351 . S
C659 C660 1.434 . S
C660 C651 1.429 . S
C660 N657 1.350 . S
C660 C659 1.434 . S
C661 C662 1.369 . S
C661 C663 1.419 . S
C661 H665 0.930 . S
C662 C661 1.369 . S
C662 C671 1.429 . S
C663 C661 1.419 . S
C663 C664 1.363 . S
C663 H666 0.929 . S
C664 C663 1.363 . S
C664 C670 1.428 . S
H665 C661 0.930 . S
H666 C663 0.929 . S
S667 N668 1.613 . S
S667 N669 1.610 . S
N668 S667 1.613 . S
N668 C671 1.350 . S
N669 S667 1.610 . S
N669 C670 1.351 . S
C670 C664 1.428 . S
C670 N669 1.351 . S
C670 C671 1.434 . S
C671 C662 1.429 . S
C671 N668 1.350 . S
C671 C670 1.434 . S
C672 C673 1.369 . S
C672 C674 1.419 . S
C672 H676 0.930 . S
C673 C672 1.369 . S
C673 C682 1.429 . S
C674 C672 1.419 . S
C674 C675 1.363 . S
C674 H677 0.929 . S
C675 C674 1.363 . S
C675 C681 1.428 . S
H676 C672 0.930 . S
H677 C674 0.929 . S
S678 N679 1.613 . S
S678 N680 1.610 . S
N679 S678 1.613 . S
N679 C682 1.350 . S
N680 S678 1.610 . S
N680 C681 1.351 . S
C681 C675 1.428 . S
C681 N680 1.351 . S
C681 C682 1.434 . S
C682 C673 1.429 . S
C682 N679 1.350 . S
C682 C681 1.434 . S
C683 C684 1.369 . S
C683 C685 1.419 . S
C683 H687 0.930 . S
C684 C683 1.369 . S
C684 C693 1.429 . S
C685 C683 1.419 . S
C685 C686 1.363 . S
C685 H688 0.929 . S
C686 C685 1.363 . S
C686 C692 1.428 . S
H687 C683 0.930 . S
H688 C685 0.929 . S
S689 N690 1.613 . S
S689 N691 1.610 . S
N690 S689 1.613 . S
N690 C693 1.350 . S
N691 S689 1.610 . S
N691 C692 1.351 . S
C692 C686 1.428 . S
C692 N691 1.351 . S
C692 C693 1.434 . S
C693 C684 1.429 . S
C693 N690 1.350 . S
C693 C692 1.434 . S
C694 C695 1.369 . S
C694 C696 1.419 . S
C694 H698 0.930 . S
C695 C694 1.369 . S
C695 C704 1.429 . S
C696 C694 1.419 . S
C696 C697 1.363 . S
C696 H699 0.929 . S
C697 C696 1.363 . S
C697 C703 1.428 . S
H698 C694 0.930 . S
H699 C696 0.929 . S
S700 N701 1.613 . S
S700 N702 1.610 . S
N701 S700 1.613 . S
N701 C704 1.350 . S
N702 S700 1.610 . S
N702 C703 1.351 . S
C703 C697 1.428 . S
C703 N702 1.351 . S
C703 C704 1.434 . S
C704 C695 1.429 . S
C704 N701 1.350 . S
C704 C703 1.434 . S
C705 C706 1.369 . S
C705 C707 1.419 . S
C705 H709 0.930 . S
C706 C705 1.369 . S
C706 C715 1.429 . S
C707 C705 1.419 . S
C707 C708 1.363 . S
C707 H710 0.929 . S
C708 C707 1.363 . S
C708 C714 1.428 . S
H709 C705 0.930 . S
H710 C707 0.929 . S
S711 N712 1.613 . S
S711 N713 1.610 . S
N712 S711 1.613 . S
N712 C715 1.350 . S
N713 S711 1.610 . S
N713 C714 1.351 . S
C714 C708 1.428 . S
C714 N713 1.351 . S
C714 C715 1.434 . S
C715 C706 1.429 . S
C715 N712 1.350 . S
C715 C714 1.434 . S
C716 C717 1.369 . S
C716 C718 1.419 . S
C716 H720 0.930 . S
C717 C716 1.369 . S
C717 C726 1.429 . S
C718 C716 1.419 . S
C718 C719 1.363 . S
C718 H721 0.929 . S
C719 C718 1.363 . S
C719 C725 1.428 . S
H720 C716 0.930 . S
H721 C718 0.929 . S
S722 N723 1.613 . S
S722 N724 1.610 . S
N723 S722 1.613 . S
N723 C726 1.350 . S
N724 S722 1.610 . S
N724 C725 1.351 . S
C725 C719 1.428 . S
C725 N724 1.351 . S
C725 C726 1.434 . S
C726 C717 1.429 . S
C726 N723 1.350 . S
C726 C725 1.434 . S
C727 C728 1.369 . S
C727 C729 1.419 . S
C727 H731 0.930 . S
C728 C727 1.369 . S
C728 C737 1.429 . S
C729 C727 1.419 . S
C729 C730 1.363 . S
C729 H732 0.929 . S
C730 C729 1.363 . S
C730 C736 1.428 . S
H731 C727 0.930 . S
H732 C729 0.929 . S
S733 N734 1.613 . S
S733 N735 1.610 . S
N734 S733 1.613 . S
N734 C737 1.350 . S
N735 S733 1.610 . S
N735 C736 1.351 . S
C736 C730 1.428 . S
C736 N735 1.351 . S
C736 C737 1.434 . S
C737 C728 1.429 . S
C737 N734 1.350 . S
C737 C736 1.434 . S
C738 C739 1.369 . S
C738 C740 1.419 . S
C738 H742 0.930 . S
C739 C738 1.369 . S
C739 C748 1.429 . S
C740 C738 1.419 . S
C740 C741 1.363 . S
C740 H743 0.929 . S
C741 C740 1.363 . S
C741 C747 1.428 . S
H742 C738 0.930 . S
H743 C740 0.929 . S
S744 N745 1.613 . S
S744 N746 1.610 . S
N745 S744 1.613 . S
N745 C748 1.350 . S
N746 S744 1.610 . S
N746 C747 1.351 . S
C747 C741 1.428 . S
C747 N746 1.351 . S
C747 C748 1.434 . S
C748 C739 1.429 . S
C748 N745 1.350 . S
C748 C747 1.434 . S
C749 C750 1.369 . S
C749 C751 1.419 . S
C749 H753 0.930 . S
C750 C749 1.369 . S
C750 C759 1.429 . S
C751 C749 1.419 . S
C751 C752 1.363 . S
C751 H754 0.929 . S
C752 C751 1.363 . S
C752 C758 1.428 . S
H753 C749 0.930 . S
H754 C751 0.929 . S
S755 N756 1.613 . S
S755 N757 1.610 . S
N756 S755 1.613 . S
N756 C759 1.350 . S
N757 S755 1.610 . S
N757 C758 1.351 . S
C758 C752 1.428 . S
C758 N757 1.351 . S
C758 C759 1.434 . S
C759 C750 1.429 . S
C759 N756 1.350 . S
C759 C758 1.434 . S
C760 C761 1.369 . S
C760 C762 1.419 . S
C760 H764 0.930 . S
C761 C760 1.369 . S
C761 C770 1.429 . S
C762 C760 1.419 . S
C762 C763 1.363 . S
C762 H765 0.929 . S
C763 C762 1.363 . S
C763 C769 1.428 . S
H764 C760 0.930 . S
H765 C762 0.929 . S
S766 N767 1.613 . S
S766 N768 1.610 . S
N767 S766 1.613 . S
N767 C770 1.350 . S
N768 S766 1.610 . S
N768 C769 1.351 . S
C769 C763 1.428 . S
C769 N768 1.351 . S
C769 C770 1.434 . S
C770 C761 1.429 . S
C770 N767 1.350 . S
C770 C769 1.434 . S
C771 C772 1.369 . S
C771 C773 1.419 . S
C771 H775 0.930 . S
C772 C771 1.369 . S
C772 C781 1.429 . S
C773 C771 1.419 . S
C773 C774 1.363 . S
C773 H776 0.929 . S
C774 C773 1.363 . S
C774 C780 1.428 . S
H775 C771 0.930 . S
H776 C773 0.929 . S
S777 N778 1.613 . S
S777 N779 1.610 . S
N778 S777 1.613 . S
N778 C781 1.350 . S
N779 S777 1.610 . S
N779 C780 1.351 . S
C780 C774 1.428 . S
C780 N779 1.351 . S
C780 C781 1.434 . S
C781 C772 1.429 . S
C781 N778 1.350 . S
C781 C780 1.434 . S
C782 C783 1.369 . S
C782 C784 1.419 . S
C782 H786 0.930 . S
C783 C782 1.369 . S
C783 C792 1.429 . S
C784 C782 1.419 . S
C784 C785 1.363 . S
C784 H787 0.929 . S
C785 C784 1.363 . S
C785 C791 1.428 . S
H786 C782 0.930 . S
H787 C784 0.929 . S
S788 N789 1.613 . S
S788 N790 1.610 . S
N789 S788 1.613 . S
N789 C792 1.350 . S
N790 S788 1.610 . S
N790 C791 1.351 . S
C791 C785 1.428 . S
C791 N790 1.351 . S
C791 C792 1.434 . S
C792 C783 1.429 . S
C792 N789 1.350 . S
C792 C791 1.434 . S
C793 C794 1.369 . S
C793 C795 1.419 . S
C793 H797 0.930 . S
C794 C793 1.369 . S
C794 C803 1.429 . S
C795 C793 1.419 . S
C795 C796 1.363 . S
C795 H798 0.929 . S
C796 C795 1.363 . S
C796 C802 1.428 . S
H797 C793 0.930 . S
H798 C795 0.929 . S
S799 N800 1.613 . S
S799 N801 1.610 . S
N800 S799 1.613 . S
N800 C803 1.350 . S
N801 S799 1.610 . S
N801 C802 1.351 . S
C802 C796 1.428 . S
C802 N801 1.351 . S
C802 C803 1.434 . S
C803 C794 1.429 . S
C803 N800 1.350 . S
C803 C802 1.434 . S
C804 C805 1.369 . S
C804 C806 1.419 . S
C804 H808 0.930 . S
C805 C804 1.369 . S
C805 C814 1.429 . S
C806 C804 1.419 . S
C806 C807 1.363 . S
C806 H809 0.929 . S
C807 C806 1.363 . S
C807 C813 1.428 . S
H808 C804 0.930 . S
H809 C806 0.929 . S
S810 N811 1.613 . S
S810 N812 1.610 . S
N811 S810 1.613 . S
N811 C814 1.350 . S
N812 S810 1.610 . S
N812 C813 1.351 . S
C813 C807 1.428 . S
C813 N812 1.351 . S
C813 C814 1.434 . S
C814 C805 1.429 . S
C814 N811 1.350 . S
C814 C813 1.434 . S
C815 C816 1.369 . S
C815 C817 1.419 . S
C815 H819 0.930 . S
C816 C815 1.369 . S
C816 C825 1.429 . S
C817 C815 1.419 . S
C817 C818 1.363 . S
C817 H820 0.929 . S
C818 C817 1.363 . S
C818 C824 1.428 . S
H819 C815 0.930 . S
H820 C817 0.929 . S
S821 N822 1.613 1_556 S
S821 N823 1.610 1_556 S
N822 S821 1.613 1_554 S
N822 C825 1.350 . S
N823 S821 1.610 1_554 S
N823 C824 1.351 . S
C824 C818 1.428 . S
C824 N823 1.351 . S
C824 C825 1.434 . S
C825 C816 1.429 . S
C825 N822 1.350 . S
C825 C824 1.434 . S
C826 C827 1.369 . S
C826 C828 1.419 . S
C826 H830 0.930 . S
C827 C826 1.369 . S
C827 C836 1.429 . S
C828 C826 1.419 . S
C828 C829 1.363 . S
C828 H831 0.929 . S
C829 C828 1.363 . S
C829 C835 1.428 . S
H830 C826 0.930 . S
H831 C828 0.929 . S
S832 N833 1.613 . S
S832 N834 1.610 . S
N833 S832 1.613 . S
N833 C836 1.350 . S
N834 S832 1.610 . S
N834 C835 1.351 . S
C835 C829 1.428 . S
C835 N834 1.351 . S
C835 C836 1.434 . S
C836 C827 1.429 . S
C836 N833 1.350 . S
C836 C835 1.434 . S
C837 C838 1.369 . S
C837 C839 1.419 . S
C837 H841 0.930 . S
C838 C837 1.369 . S
C838 C847 1.429 . S
C839 C837 1.419 . S
C839 C840 1.363 . S
C839 H842 0.929 . S
C840 C839 1.363 . S
C840 C846 1.428 . S
H841 C837 0.930 . S
H842 C839 0.929 . S
S843 N844 1.613 . S
S843 N845 1.610 . S
N844 S843 1.613 . S
N844 C847 1.350 . S
N845 S843 1.610 . S
N845 C846 1.351 . S
C846 C840 1.428 . S
C846 N845 1.351 . S
C846 C847 1.434 . S
C847 C838 1.429 . S
C847 N844 1.350 . S
C847 C846 1.434 . S
C848 C849 1.369 . S
C848 C850 1.419 . S
C848 H852 0.930 . S
C849 C848 1.369 . S
C849 C858 1.429 . S
C850 C848 1.419 . S
C850 C851 1.363 . S
C850 H853 0.929 . S
C851 C850 1.363 . S
C851 C857 1.428 . S
H852 C848 0.930 . S
H853 C850 0.929 . S
S854 N855 1.613 . S
S854 N856 1.610 . S
N855 S854 1.613 . S
N855 C858 1.350 . S
N856 S854 1.610 . S
N856 C857 1.351 . S
C857 C851 1.428 . S
C857 N856 1.351 . S
C857 C858 1.434 . S
C858 C849 1.429 . S
C858 N855 1.350 . S
C858 C857 1.434 . S
C859 C860 1.369 . S
C859 C861 1.419 . S
C859 H863 0.930 . S
C860 C859 1.369 . S
C860 C869 1.429 . S
C861 C859 1.419 . S
C861 C862 1.363 . S
C861 H864 0.929 . S
C862 C861 1.363 . S
C862 C868 1.428 . S
H863 C859 0.930 . S
H864 C861 0.929 . S
S865 N866 1.613 . S
S865 N867 1.610 . S
N866 S865 1.613 . S
N866 C869 1.350 . S
N867 S865 1.610 . S
N867 C868 1.351 . S
C868 C862 1.428 . S
C868 N867 1.351 . S
C868 C869 1.434 . S
C869 C860 1.429 . S
C869 N866 1.350 . S
C869 C868 1.434 . S
C607 C39 1.793 . S
C609 C339 1.772 . S
C618 C91 1.729 . S
C620 C396 1.735 . S
C631 C450 1.581 . S
C629 C128 1.623 . S
C642 C507 1.501 . S
C640 C188 1.564 . S
C653 C531 1.651 . S
C651 C250 1.663 . S
C664 C588 1.762 . S
C662 C304 1.773 . S
C673 C75 1.687 . S
C675 C435 1.661 . S
C684 C144 1.780 . S
C686 C492 1.775 . S
C697 C546 1.677 . S
C695 C198 1.719 . S
C708 C603 1.522 . S
C706 C234 1.598 . S
C717 C294 1.550 . S
C719 C354 1.524 . S
C730 C411 1.515 . S
C728 C29 1.570 . S
C741 C498 1.770 . S
C739 C38 1.794 . S
C750 C92 1.732 . S
C752 C540 1.673 . S
C763 C579 1.582 . S
C761 C135 1.622 . S
C772 C181 1.564 . S
C774 C348 1.500 . S
C783 C251 1.661 . S
C785 C387 1.633 . S
C794 C303 1.769 . S
C796 C459 1.765 . S
C805 C82 1.687 . S
C807 C594 1.661 . S
C818 C363 1.776 . S
C816 C145 1.778 . S
C827 C197 1.715 . S
C829 C402 1.702 . S
C838 C241 1.594 . S
C840 C444 1.529 . S
C849 C287 1.550 . S
C851 C483 1.524 . S
C860 C22 1.568 . S
C862 C555 1.570 . S
