# Generated by pormake.
# Topology anh, (6,3)-cn, num edge types: 1
# Building blocks:
#     Node 0, Type 0, BuildingBlock: BETDAH_clean_sbu_0, # of connection points: 6
#     Node 1, Type 0, BuildingBlock: BETDAH_clean_sbu_0, # of connection points: 6
#     Node 2, Type 0, BuildingBlock: BETDAH_clean_sbu_0, # of connection points: 6
#     Node 3, Type 1, BuildingBlock: KAKCAD_clean_linker_0, # of connection points: 3
#     Node 4, Type 1, BuildingBlock: KAKCAD_clean_linker_0, # of connection points: 3
#     Node 5, Type 1, BuildingBlock: KAKCAD_clean_linker_0, # of connection points: 3
#     Node 6, Type 1, BuildingBlock: KAKCAD_clean_linker_0, # of connection points: 3
#     Node 7, Type 1, BuildingBlock: KAKCAD_clean_linker_0, # of connection points: 3
#     Node 8, Type 1, BuildingBlock: KAKCAD_clean_linker_0, # of connection points: 3
#     Edge 9, Type (0, 1), BuildingBlock: CIFDUS_clean_linker_0, # of connection points: 2
#     Edge 10, Type (0, 1), BuildingBlock: CIFDUS_clean_linker_0, # of connection points: 2
#     Edge 11, Type (0, 1), BuildingBlock: CIFDUS_clean_linker_0, # of connection points: 2
#     Edge 12, Type (0, 1), BuildingBlock: CIFDUS_clean_linker_0, # of connection points: 2
#     Edge 13, Type (0, 1), BuildingBlock: CIFDUS_clean_linker_0, # of connection points: 2
#     Edge 14, Type (0, 1), BuildingBlock: CIFDUS_clean_linker_0, # of connection points: 2
#     Edge 15, Type (0, 1), BuildingBlock: CIFDUS_clean_linker_0, # of connection points: 2
#     Edge 16, Type (0, 1), BuildingBlock: CIFDUS_clean_linker_0, # of connection points: 2
#     Edge 17, Type (0, 1), BuildingBlock: CIFDUS_clean_linker_0, # of connection points: 2
#     Edge 18, Type (0, 1), BuildingBlock: CIFDUS_clean_linker_0, # of connection points: 2
#     Edge 19, Type (0, 1), BuildingBlock: CIFDUS_clean_linker_0, # of connection points: 2
#     Edge 20, Type (0, 1), BuildingBlock: CIFDUS_clean_linker_0, # of connection points: 2
#     Edge 21, Type (0, 1), BuildingBlock: CIFDUS_clean_linker_0, # of connection points: 2
#     Edge 22, Type (0, 1), BuildingBlock: CIFDUS_clean_linker_0, # of connection points: 2
#     Edge 23, Type (0, 1), BuildingBlock: CIFDUS_clean_linker_0, # of connection points: 2
#     Edge 24, Type (0, 1), BuildingBlock: CIFDUS_clean_linker_0, # of connection points: 2
#     Edge 25, Type (0, 1), BuildingBlock: CIFDUS_clean_linker_0, # of connection points: 2
#     Edge 26, Type (0, 1), BuildingBlock: CIFDUS_clean_linker_0, # of connection points: 2
# Relax obj value: 0.193
# Max RMSD: 0.217
# Mean RMSD: 0.159
data_MOF--net-anh--node1-BETDAH_clean_sbu_0--node2-KAKCAD_clean_linker_0--edge1-CIFDUS_clean_linker_0
_symmetry_space_group_name_H-M    P1
_symmetry_Int_Tables_number       1
_symmetry_cell_setting            triclinic
loop_
_symmetry_equiv_pos_as_xyz
'x, y, z'
_cell_length_a     34.729068
_cell_length_b     39.874201
_cell_length_c     59.930657
_cell_angle_alpha  92.318507
_cell_angle_beta   89.670749
_cell_angle_gamma 129.07414
loop_
_atom_site_label
_atom_site_type_symbol
_atom_site_fract_x
_atom_site_fract_y
_atom_site_fract_z
_atom_type_partial_charge
Ho0 Ho 0.13226 0.54725 0.14905 0.0
Ho1 Ho 0.07233 0.57575 0.15617 0.0
C2 C 0.18729 0.6503 0.15206 0.0
C3 C 0.19091 0.53106 0.13733 0.0
C4 C 0.19126 0.49493 0.14027 0.0
C5 C 0.2366 0.50278 0.14059 0.0
C6 C 0.23793 0.46905 0.14374 0.0
C7 C 0.19384 0.42681 0.14661 0.0
C8 C 0.14839 0.41914 0.14656 0.0
C9 C 0.14714 0.45305 0.14355 0.0
C10 C 0.11213 0.55107 0.1921 0.0
C11 C 1.01687 0.47118 0.15397 0.0
C12 C 1.00897 0.58509 0.17024 0.0
C13 C 0.95462 0.55559 0.16871 0.0
C14 C 0.92737 0.56337 0.18194 0.0
C15 C 0.87545 0.53448 0.18064 0.0
C16 C 0.85026 0.49728 0.16622 0.0
C17 C 0.87796 0.48959 0.15316 0.0
C18 C 0.92962 0.51854 0.15435 0.0
C19 C 0.08958 0.56924 0.11262 0.0
O20 O 0.1861 0.61911 0.1424 0.0
O21 O 0.14764 0.64068 0.16207 0.0
O22 O 0.15599 0.52339 0.12414 0.0
O23 O 0.19734 0.55304 0.15567 0.0
O24 O 0.11154 0.52059 0.18324 0.0
O25 O 0.12487 0.57878 0.17797 0.0
O26 O 1.01415 0.50235 0.15905 0.0
O27 O 0.05898 0.48054 0.14754 0.0
O28 O 1.03147 0.5992 0.15126 0.0
O29 O 1.02797 0.57253 0.18282 0.0
O30 O 0.08927 0.59947 0.12113 0.0
O31 O 0.07852 0.54299 0.12737 0.0
H32 H 0.27099 0.53499 0.13825 0.0
H33 H 0.27343 0.47584 0.1433 0.0
H34 H 0.1139 0.38696 0.1488 0.0
H35 H 0.1118 0.44656 0.14368 0.0
H36 H 0.94619 0.5917 0.19323 0.0
H37 H 0.85502 0.5411 0.19095 0.0
H38 H 0.85973 0.46168 0.14161 0.0
H39 H 0.95008 0.51211 0.14392 0.0
Ho40 Ho 0.63807 0.0454 0.47422 0.0
Ho41 Ho 0.57339 0.06946 0.46845 0.0
C42 C 0.51822 0.96906 0.46688 0.0
C43 C 0.67916 0.01253 0.48605 0.0
C44 C 0.66432 0.96967 0.49027 0.0
C45 C 0.62257 0.93962 0.50282 0.0
C46 C 0.61067 0.89985 0.50719 0.0
C47 C 0.64011 0.88927 0.49898 0.0
C48 C 0.68105 0.91911 0.48592 0.0
C49 C 0.69308 0.95889 0.4817 0.0
C50 C 0.63168 0.06292 0.43214 0.0
C51 C 0.69466 0.14635 0.47419 0.0
C52 C 0.53398 0.10432 0.45775 0.0
C53 C 0.54386 0.14554 0.46388 0.0
C54 C 0.5867 0.18551 0.45696 0.0
C55 C 0.59602 0.22411 0.46375 0.0
C56 C 0.56296 0.22351 0.47772 0.0
C57 C 0.51985 0.18354 0.48432 0.0
C58 C 0.51027 0.14501 0.47736 0.0
C59 C 0.58352 0.05561 0.51112 0.0
O60 O 0.56022 0.98091 0.47585 0.0
O61 O 0.5159 0.99835 0.45911 0.0
O62 O 0.67524 0.01922 0.46534 0.0
O63 O 0.665 0.0284 0.50028 0.0
O64 O 0.67217 0.07461 0.44159 0.0
O65 O 0.59563 0.04097 0.44508 0.0
O66 O 0.65108 0.13529 0.46822 0.0
O67 O 0.69839 0.11684 0.48 0.0
O68 O 0.5178 0.07731 0.47372 0.0
O69 O 0.5666 0.10622 0.44552 0.0
O70 O 0.54274 0.04449 0.50242 0.0
O71 O 0.61757 0.07564 0.4972 0.0
H72 H 0.59951 0.94704 0.50949 0.0
H73 H 0.57913 0.87787 0.51746 0.0
H74 H 0.70393 0.91177 0.47892 0.0
H75 H 0.72518 0.98146 0.47182 0.0
H76 H 0.61337 0.18712 0.44655 0.0
H77 H 0.62968 0.25449 0.45852 0.0
H78 H 0.49341 0.18208 0.49485 0.0
H79 H 0.47678 0.1147 0.48278 0.0
Ho80 Ho 0.61018 0.57352 0.85074 0.0
Ho81 Ho 0.53538 0.47672 0.84674 0.0
C82 C 0.48671 0.52585 0.85075 0.0
C83 C 0.65848 0.65461 0.84334 0.0
C84 C 0.64706 0.68386 0.83885 0.0
C85 C 0.6057 0.67005 0.82559 0.0
C86 C 0.59736 0.6991 0.82051 0.0
C87 C 0.62999 0.74251 0.82868 0.0
C88 C 0.67074 0.75587 0.84232 0.0
C89 C 0.6792 0.72691 0.84729 0.0
C90 C 0.58335 0.53342 0.88947 0.0
C91 C 0.65949 0.52498 0.85018 0.0
C92 C 0.48754 0.39458 0.85046 0.0
C93 C 0.4953 0.36283 0.844 0.0
C94 C 0.5356 0.36651 0.85247 0.0
C95 C 0.54189 0.33601 0.846 0.0
C96 C 0.50791 0.30097 0.83099 0.0
C97 C 0.4677 0.29753 0.82257 0.0
C98 C 0.46146 0.32795 0.82903 0.0
C99 C 0.56055 0.5156 0.8076 0.0
O100 O 0.53419 0.56113 0.84784 0.0
O101 O 0.4777 0.48814 0.85316 0.0
O102 O 0.64984 0.63986 0.8634 0.0
O103 O 0.64549 0.62508 0.82771 0.0
O104 O 0.62851 0.5676 0.88575 0.0
O105 O 0.55518 0.52412 0.87312 0.0
O106 O 0.6114 0.48915 0.8502 0.0
O107 O 0.6694 0.56327 0.84909 0.0
O108 O 0.47994 0.41057 0.83406 0.0
O109 O 0.51626 0.42377 0.86634 0.0
O110 O 0.51629 0.48148 0.81208 0.0
O111 O 0.59006 0.52595 0.82365 0.0
H112 H 0.58008 0.63694 0.81896 0.0
H113 H 0.56524 0.68751 0.81022 0.0
H114 H 0.69691 0.78908 0.84873 0.0
H115 H 0.7114 0.73836 0.85748 0.0
H116 H 0.56222 0.39282 0.86417 0.0
H117 H 0.57297 0.33955 0.85305 0.0
H118 H 0.44118 0.27153 0.81071 0.0
H119 H 0.43006 0.32424 0.82223 0.0
C120 C 0.60643 0.09625 0.29132 0.0
C121 C 0.58753 0.05732 0.30116 0.0
C122 C 0.60848 0.09881 0.26805 0.0
C123 C 0.59234 0.06264 0.25407 0.0
C124 C 0.57414 0.0239 0.26408 0.0
C125 C 0.57139 0.02119 0.2873 0.0
C126 C 0.59351 0.06487 0.2292 0.0
C127 C 0.63236 0.1025 0.21875 0.0
C128 C 0.63339 0.10512 0.19533 0.0
C129 C 0.59408 0.06859 0.18215 0.0
C130 C 0.55543 0.03002 0.19246 0.0
C131 C 0.55548 0.02905 0.21582 0.0
C132 C 0.51427 0.98922 0.17991 0.0
C133 C 0.47211 0.98344 0.17239 0.0
C134 C 0.51172 0.9526 0.18043 0.0
C135 C 0.4676 0.91106 0.17452 0.0
C136 C 0.42433 0.90472 0.16819 0.0
C137 C 0.67638 0.14657 0.18552 0.0
C138 C 0.66917 0.16966 0.17142 0.0
C139 C 0.72531 0.16605 0.19257 0.0
C140 C 0.76557 0.20785 0.18645 0.0
C141 C 0.75837 0.23194 0.1732 0.0
C142 C 0.70955 0.21186 0.16547 0.0
C143 C 0.42778 0.94179 0.16658 0.0
H144 H 0.61892 0.12456 0.30163 0.0
H145 H 0.62196 0.12899 0.26103 0.0
H146 H 0.56245 0.99561 0.25401 0.0
H147 H 0.55748 0.99098 0.29445 0.0
H148 H 0.66227 0.13013 0.22892 0.0
H149 H 0.52492 0.99996 0.2236 0.0
H150 H 0.59432 0.06975 0.16412 0.0
H151 H 0.4725 0.01082 0.17233 0.0
H152 H 0.54317 0.95586 0.18671 0.0
H153 H 0.46669 0.88365 0.17627 0.0
H154 H 0.63206 0.1559 0.16583 0.0
H155 H 0.73233 0.14929 0.20345 0.0
H156 H 0.39565 0.93854 0.1615 0.0
H157 H 0.70238 0.22902 0.15503 0.0
H158 H 0.80221 0.22196 0.19294 0.0
C159 C 0.56045 0.56274 0.6632 0.0
C160 C 0.58563 0.55433 0.67715 0.0
C161 C 0.56783 0.56551 0.6402 0.0
C162 C 0.60053 0.55988 0.63058 0.0
C163 C 0.62672 0.55261 0.6446 0.0
C164 C 0.61943 0.54995 0.66764 0.0
C165 C 0.60615 0.56039 0.60595 0.0
C166 C 0.60907 0.59101 0.59359 0.0
C167 C 0.61293 0.59103 0.57024 0.0
C168 C 0.61449 0.56006 0.55921 0.0
C169 C 0.61163 0.52904 0.57132 0.0
C170 C 0.60731 0.52951 0.59468 0.0
C171 C 0.61161 0.49516 0.55984 0.0
C172 C 0.58452 0.47401 0.53971 0.0
C173 C 0.63651 0.48194 0.56969 0.0
C174 C 0.63244 0.44717 0.56031 0.0
C175 C 0.60379 0.42497 0.54071 0.0
C176 C 0.61607 0.62408 0.5577 0.0
C177 C 0.58552 0.63484 0.56323 0.0
C178 C 0.65143 0.64689 0.54111 0.0
C179 C 0.65761 0.68102 0.53104 0.0
C180 C 0.62841 0.69293 0.53727 0.0
C181 C 0.59161 0.66883 0.55315 0.0
C182 C 0.58079 0.43935 0.53021 0.0
H183 H 0.53451 0.56667 0.67005 0.0
H184 H 0.54682 0.57086 0.62986 0.0
H185 H 0.65263 0.54866 0.63772 0.0
H186 H 0.63908 0.54308 0.6779 0.0
H187 H 0.60932 0.61554 0.60227 0.0
H188 H 0.60316 0.50481 0.60409 0.0
H189 H 0.61772 0.56004 0.54121 0.0
H190 H 0.56452 0.48306 0.53177 0.0
H191 H 0.65867 0.49811 0.5849 0.0
H192 H 0.6513 0.43728 0.56856 0.0
H193 H 0.55744 0.61745 0.57573 0.0
H194 H 0.67562 0.63947 0.53653 0.0
H195 H 0.55822 0.42266 0.51516 0.0
H196 H 0.56872 0.67728 0.55847 0.0
H197 H 0.68587 0.69859 0.51864 0.0
C198 C 0.13515 0.58712 0.96529 0.0
C199 C 0.09436 0.55884 0.97878 0.0
C200 C 0.13124 0.57989 0.94203 0.0
C201 C 0.08617 0.54467 0.93168 0.0
C202 C 1.04539 0.5163 0.94516 0.0
C203 C 0.04958 0.52306 0.96847 0.0
C204 C 0.08164 0.53801 0.90686 0.0
C205 C 0.11618 0.53704 0.8952 0.0
C206 C 0.11442 0.53097 0.87182 0.0
C207 C 0.07408 0.5269 0.85996 0.0
C208 C 1.03752 0.52841 0.87191 0.0
C209 C 1.04329 0.53339 0.89533 0.0
C210 C 0.9924 0.52543 0.86271 0.0
C211 C 0.99833 0.5588 0.85108 0.0
C212 C 0.94328 0.49455 0.87081 0.0
C213 C 0.90367 0.49679 0.86772 0.0
C214 C 0.9098 0.5308 0.85664 0.0
C215 C 0.15668 0.52973 0.86258 0.0
C216 C 0.208 0.56412 0.86801 0.0
C217 C 0.14763 0.49146 0.85399 0.0
C218 C 0.18644 0.48784 0.85136 0.0
C219 C 0.23776 0.52204 0.85725 0.0
C220 C 0.24682 0.56067 0.86525 0.0
C221 C 0.95877 0.56128 0.84811 0.0
H222 H 0.17017 0.61486 0.97275 0.0
H223 H 0.16321 0.60237 0.93208 0.0
H224 H 1.01027 0.48878 0.93764 0.0
H225 H 1.01744 0.5009 0.97841 0.0
H226 H 0.14477 0.54019 0.90481 0.0
H227 H 1.01796 0.53502 0.905 0.0
H228 H 0.07121 0.52268 0.84195 0.0
H229 H 1.03466 0.58462 0.84501 0.0
H230 H 0.93564 0.46876 0.88056 0.0
H231 H 0.8683 0.47221 0.87499 0.0
H232 H 0.2183 0.59408 0.87543 0.0
H233 H 0.1097 0.46309 0.85016 0.0
H234 H 0.96748 0.58819 0.83914 0.0
H235 H 0.28421 0.58841 0.87037 0.0
H236 H 0.17533 0.45714 0.84482 0.0
C237 C 1.04185 0.5216 0.33604 0.0
C238 C 0.08607 0.54254 0.32436 0.0
C239 C 1.04293 0.52559 0.35936 0.0
C240 C 0.08828 0.54974 0.37159 0.0
C241 C 0.13256 0.57063 0.35968 0.0
C242 C 0.13144 0.56743 0.33632 0.0
C243 C 0.08924 0.55298 0.39657 0.0
C244 C 0.05069 0.51819 0.40866 0.0
C245 C 0.04946 0.52098 0.43209 0.0
C246 C 0.08949 0.55963 0.44379 0.0
C247 C 0.12951 0.59481 0.43185 0.0
C248 C 0.12828 0.59095 0.40839 0.0
C249 C 0.17311 0.63688 0.44273 0.0
C250 C 0.16741 0.6649 0.45421 0.0
C251 C 0.22155 0.65282 0.43773 0.0
C252 C 0.2629 0.69601 0.44306 0.0
C253 C 0.25723 0.72499 0.45339 0.0
C254 C 1.00469 0.48278 0.44316 0.0
C255 C 0.95711 0.46491 0.43486 0.0
C256 C 1.00833 0.45985 0.45909 0.0
C257 C 0.96559 0.41921 0.46573 0.0
C258 C 0.91805 0.40051 0.45667 0.0
C259 C 0.91475 0.42463 0.44141 0.0
C260 C 0.20888 0.70839 0.45941 0.0
H261 H 1.00644 0.50241 0.32709 0.0
H262 H 1.00809 0.50989 0.36774 0.0
H263 H 0.16816 0.58886 0.36836 0.0
H264 H 0.16598 0.58348 0.32759 0.0
H265 H 1.02118 0.48817 0.39978 0.0
H266 H 0.15768 0.61849 0.39929 0.0
H267 H 0.08935 0.56241 0.46183 0.0
H268 H 0.13065 0.65394 0.45799 0.0
H269 H 0.22721 0.63227 0.42862 0.0
H270 H 0.29908 0.70723 0.43792 0.0
H271 H 0.95284 0.48144 0.42245 0.0
H272 H 1.04439 0.47234 0.46562 0.0
H273 H 0.20284 0.72935 0.46764 0.0
H274 H 0.87952 0.41169 0.43363 0.0
H275 H 0.96997 0.4022 0.47773 0.0
C276 C 0.54325 0.98812 0.65438 0.0
C277 C 0.57408 0.02666 0.64296 0.0
C278 C 0.54677 0.98855 0.67765 0.0
C279 C 0.5809 0.02759 0.69012 0.0
C280 C 0.61223 0.06608 0.67869 0.0
C281 C 0.60904 0.06559 0.65536 0.0
C282 C 0.58295 0.02823 0.71499 0.0
C283 C 0.58164 0.99699 0.72585 0.0
C284 C 0.58274 0.9968 0.74932 0.0
C285 C 0.58494 0.02858 0.76204 0.0
C286 C 0.58591 0.06011 0.75142 0.0
C287 C 0.58513 0.05958 0.72791 0.0
C288 C 0.58633 0.09315 0.76444 0.0
C289 C 0.55436 0.08156 0.78237 0.0
C290 C 0.61639 0.13619 0.7579 0.0
C291 C 0.61348 0.16646 0.76845 0.0
C292 C 0.5804 0.15468 0.7859 0.0
C293 C 0.58186 0.96318 0.76008 0.0
C294 C 0.54827 0.91975 0.75221 0.0
C295 C 0.61664 0.97438 0.77696 0.0
C296 C 0.61931 0.9432 0.78494 0.0
C297 C 0.587 0.90002 0.77634 0.0
C298 C 0.55063 0.88863 0.76028 0.0
C299 C 0.55128 0.1119 0.79291 0.0
H300 H 0.51618 0.95756 0.64529 0.0
H301 H 0.52189 0.95839 0.68595 0.0
H302 H 0.63922 0.09663 0.6878 0.0
H303 H 0.63306 0.09586 0.64709 0.0
H304 H 0.58084 0.97318 0.71594 0.0
H305 H 0.58449 0.08284 0.71956 0.0
H306 H 0.58564 0.02863 0.78012 0.0
H307 H 0.53046 0.04866 0.78775 0.0
H308 H 0.64179 0.1464 0.7443 0.0
H309 H 0.63618 0.19886 0.7624 0.0
H310 H 0.52047 0.90989 0.73949 0.0
H311 H 0.64322 1.00763 0.78327 0.0
H312 H 0.52583 0.10176 0.80646 0.0
H313 H 0.52416 0.8556 0.75367 0.0
H314 H 0.648 0.95337 0.7972 0.0
C315 C 0.47574 0.34565 0.99226 0.0
C316 C 0.45151 0.36033 0.98356 0.0
C317 C 0.4606 0.32422 0.01232 0.0
C318 C 0.42143 0.31767 0.02422 0.0
C319 C 0.3964 0.3313 0.01499 0.0
C320 C 0.41105 0.35209 0.99488 0.0
C321 C 0.4103 0.30185 0.04733 0.0
C322 C 0.44918 0.31608 0.06241 0.0
C323 C 0.44082 0.31007 0.08536 0.0
C324 C 0.39318 0.2906 0.09334 0.0
C325 C 0.35339 0.27561 0.07852 0.0
C326 C 0.36204 0.27886 0.05542 0.0
C327 C 0.30612 0.26429 0.08715 0.0
C328 C 0.28963 0.24868 0.10871 0.0
C329 C 0.28099 0.2752 0.07505 0.0
C330 C 0.24367 0.27396 0.08476 0.0
C331 C 0.23114 0.26288 0.10702 0.0
C332 C 0.48352 0.32902 0.10101 0.0
C333 C 0.519 0.32358 0.09638 0.0
C334 C 0.4913 0.35554 0.11957 0.0
C335 C 0.53483 0.3777 0.13265 0.0
C336 C 0.57123 0.37357 0.12746 0.0
C337 C 0.56234 0.34555 0.10948 0.0
C338 C 0.25309 0.24872 0.1187 0.0
H339 H 0.50676 0.35126 0.9837 0.0
H340 H 0.48037 0.31374 0.01875 0.0
H341 H 0.367 0.32806 0.02382 0.0
H342 H 0.39214 0.36359 0.98873 0.0
H343 H 0.48686 0.3349 0.05662 0.0
H344 H 0.3317 0.26611 0.04365 0.0
H345 H 0.3881 0.28928 0.11121 0.0
H346 H 0.30671 0.23864 0.11839 0.0
H347 H 0.29251 0.28828 0.05868 0.0
H348 H 0.228 0.28576 0.07547 0.0
H349 H 0.51379 0.30318 0.08222 0.0
H350 H 0.46481 0.36068 0.1234 0.0
H351 H 0.24387 0.23991 0.13591 0.0
H352 H 0.58991 0.34207 0.10487 0.0
H353 H 0.54056 0.39885 0.14649 0.0
H354 H 0.13474 0.34876 0.1241 0.0
H355 H 0.25759 0.42444 0.17154 0.0
H356 H 0.27265 0.37243 0.1671 0.0
H357 H 0.26112 0.31421 0.14428 0.0
H358 H 0.14218 0.24166 0.09491 0.0
H359 H 0.114 0.28257 0.10612 0.0
C360 C 0.16378 0.35311 0.134 0.0
C361 C 0.19563 0.39076 0.14779 0.0
C362 C 0.17299 0.32367 0.13091 0.0
C363 C 0.23327 0.39612 0.16044 0.0
C364 C 0.24183 0.36638 0.15794 0.0
C365 C 0.22777 0.30613 0.13666 0.0
C366 C 0.2039 0.27529 0.11872 0.0
C367 C 0.21341 0.3312 0.14244 0.0
C368 C 0.16114 0.26545 0.10873 0.0
C369 C 0.1454 0.28912 0.11498 0.0
H370 H 0.70355 0.21962 0.4698 0.0
H371 H 0.79098 0.17772 0.47626 0.0
H372 H 0.86692 0.25164 0.47235 0.0
H373 H 0.90917 0.32817 0.4652 0.0
H374 H 0.82209 0.37083 0.46071 0.0
H375 H 0.74644 0.29733 0.46555 0.0
C376 C 0.73919 0.22662 0.4705 0.0
C377 C 0.74099 0.1926 0.47328 0.0
C378 C 0.7833 0.26968 0.46839 0.0
C379 C 0.78792 0.20283 0.47422 0.0
C380 C 0.83166 0.24531 0.47191 0.0
C381 C 0.87388 0.32178 0.46565 0.0
C382 C 0.87213 0.35569 0.46216 0.0
C383 C 0.82993 0.27907 0.46878 0.0
C384 C 0.82529 0.34581 0.4627 0.0
C385 C 0.78165 0.30354 0.46563 0.0
H386 H 0.60355 0.75189 0.78798 0.0
H387 H 0.63953 0.80449 0.85591 0.0
H388 H 0.6295 0.85751 0.84598 0.0
H389 H 0.61043 0.8892 0.81789 0.0
H390 H 0.5767 0.83722 0.74976 0.0
H391 H 0.58487 0.78351 0.76002 0.0
C392 C 0.60868 0.77462 0.80069 0.0
C393 C 0.62227 0.77401 0.82269 0.0
C394 C 0.60305 0.80523 0.79484 0.0
C395 C 0.62956 0.80436 0.8388 0.0
C396 C 0.62364 0.83466 0.83314 0.0
C397 C 0.60517 0.86635 0.80523 0.0
C398 C 0.59243 0.86732 0.78307 0.0
C399 C 0.61059 0.83557 0.81117 0.0
C400 C 0.58541 0.83695 0.76704 0.0
C401 C 0.59047 0.80627 0.77284 0.0
H402 H 0.7903 0.5187 0.16253 0.0
H403 H 0.78733 0.40902 0.16402 0.0
H404 H 0.69883 0.36022 0.15432 0.0
H405 H 0.62444 0.34957 0.14191 0.0
H406 H 0.6282 0.45958 0.13929 0.0
H407 H 0.7137 0.5072 0.15368 0.0
C408 C 0.77003 0.48405 0.16123 0.0
C409 C 0.79542 0.46752 0.16371 0.0
C410 C 0.71928 0.45624 0.15541 0.0
C411 C 0.76874 0.42255 0.16179 0.0
C412 C 0.71815 0.39464 0.1563 0.0
C413 C 0.64391 0.38393 0.14466 0.0
C414 C 0.62017 0.40104 0.13934 0.0
C415 C 0.6934 0.41126 0.15245 0.0
C416 C 0.64548 0.4455 0.14339 0.0
C417 C 0.69455 0.47284 0.15143 0.0
H418 H 0.42077 0.93096 0.45607 0.0
H419 H 0.51469 0.90013 0.47487 0.0
H420 H 0.44345 0.82328 0.47294 0.0
H421 H 0.35412 0.76389 0.46569 0.0
H422 H 0.25961 0.79422 0.44724 0.0
H423 H 0.33063 0.8713 0.44965 0.0
C424 C 0.42574 0.90748 0.45971 0.0
C425 C 0.4736 0.92187 0.4655 0.0
C426 C 0.38411 0.8628 0.4588 0.0
C427 C 0.47872 0.89054 0.47034 0.0
C428 C 0.43779 0.8463 0.46924 0.0
C429 C 0.3489 0.78725 0.46213 0.0
C430 C 0.30094 0.77262 0.45631 0.0
C431 C 0.39025 0.83192 0.46345 0.0
C432 C 0.29548 0.80397 0.45209 0.0
C433 C 0.33638 0.84831 0.45328 0.0
H434 H 0.59383 0.3138 0.82189 0.0
H435 H 0.43527 0.2133 0.82465 0.0
H436 H 0.44369 0.15952 0.81167 0.0
H437 H 0.49555 0.14095 0.79824 0.0
H438 H 0.6543 0.24094 0.79642 0.0
H439 H 0.6462 0.29453 0.81042 0.0
C440 C 0.56113 0.28007 0.81995 0.0
C441 C 0.51391 0.26796 0.82411 0.0
C442 C 0.56619 0.24902 0.81254 0.0
C443 C 0.47203 0.22397 0.82119 0.0
C444 C 0.4768 0.193 0.81389 0.0
C445 C 0.52851 0.17432 0.80123 0.0
C446 C 0.57546 0.1867 0.79611 0.0
C447 C 0.52364 0.20515 0.80932 0.0
C448 C 0.61758 0.23039 0.79983 0.0
C449 C 0.61302 0.26114 0.80795 0.0
H450 H 0.7064 0.87669 0.50912 0.0
H451 H 0.5492 0.80881 0.50152 0.0
H452 H 0.53168 0.74189 0.51201 0.0
H453 H 0.56108 0.70288 0.52394 0.0
H454 H 0.71845 0.77132 0.53117 0.0
H455 H 0.73571 0.83733 0.51938 0.0
C456 C 0.66827 0.84717 0.50937 0.0
C457 C 0.62923 0.84799 0.50455 0.0
C458 C 0.65845 0.80873 0.5152 0.0
C459 C 0.58003 0.80942 0.50546 0.0
C460 C 0.56996 0.77102 0.51132 0.0
C461 C 0.59915 0.73225 0.52294 0.0
C462 C 0.63838 0.73204 0.52845 0.0
C463 C 0.60888 0.77037 0.51638 0.0
C464 C 0.68752 0.77029 0.52675 0.0
C465 C 0.69745 0.80822 0.5202 0.0
H466 H 0.76751 0.58777 0.84768 0.0
H467 H 0.65112 0.45177 0.856 0.0
H468 H 0.71281 0.44106 0.85882 0.0
H469 H 0.80179 0.4689 0.85912 0.0
H470 H 0.91833 0.60489 0.85025 0.0
H471 H 0.85675 0.61547 0.84747 0.0
C472 C 0.75499 0.55553 0.85011 0.0
C473 C 0.70218 0.52075 0.85161 0.0
C474 C 0.79205 0.54903 0.85162 0.0
C475 C 0.68973 0.4798 0.85471 0.0
C476 C 0.72584 0.47346 0.85637 0.0
C477 C 0.81459 0.50119 0.85661 0.0
C478 C 0.86747 0.53575 0.85479 0.0
C479 C 0.77754 0.50764 0.8549 0.0
C480 C 0.87982 0.57665 0.85141 0.0
C481 C 0.84371 0.58307 0.84993 0.0
H482 H 0.20467 0.72449 0.16863 0.0
H483 H 0.27732 0.68018 0.13587 0.0
H484 H 0.3556 0.75391 0.13728 0.0
H485 H 0.40485 0.83133 0.14857 0.0
H486 H 0.33246 0.87579 0.18143 0.0
H487 H 0.2535 0.80248 0.17886 0.0
C488 C 0.23752 0.73089 0.1617 0.0
C489 C 0.23456 0.69626 0.1522 0.0
C490 C 0.28294 0.7738 0.1625 0.0
C491 C 0.27792 0.70573 0.1433 0.0
C492 C 0.32301 0.7481 0.14411 0.0
C493 C 0.37189 0.82511 0.15521 0.0
C494 C 0.37525 0.85969 0.16515 0.0
C495 C 0.32618 0.78245 0.15382 0.0
C496 C 0.33149 0.85047 0.17335 0.0
C497 C 0.2861 0.80824 0.17207 0.0
H498 H 0.55858 0.24643 0.52022 0.0
H499 H 0.59169 0.29224 0.45342 0.0
H500 H 0.60722 0.35877 0.46685 0.0
H501 H 0.6103 0.40354 0.49775 0.0
H502 H 0.57867 0.3575 0.56456 0.0
H503 H 0.56363 0.29152 0.55101 0.0
C504 C 0.56896 0.27092 0.5086 0.0
C505 C 0.57364 0.26436 0.48586 0.0
C506 C 0.57815 0.30907 0.51647 0.0
C507 C 0.58804 0.29668 0.47103 0.0
C508 C 0.59672 0.3346 0.47869 0.0
C509 C 0.59999 0.37895 0.50928 0.0
C510 C 0.59567 0.38542 0.53212 0.0
C511 C 0.5917 0.3411 0.50138 0.0
C512 C 0.58277 0.35351 0.54694 0.0
C513 C 0.57392 0.31567 0.5392 0.0
H514 H 0.37877 0.46278 0.85362 0.0
H515 H 0.49559 0.60016 0.85026 0.0
H516 H 0.43433 0.61166 0.85202 0.0
H517 H 0.34571 0.58419 0.85456 0.0
H518 H 0.22861 0.4466 0.85736 0.0
H519 H 0.28971 0.43522 0.85566 0.0
C520 C 0.39147 0.49549 0.85326 0.0
C521 C 0.44424 0.53042 0.85182 0.0
C522 C 0.35465 0.50239 0.85412 0.0
C523 C 0.45694 0.57197 0.85136 0.0
C524 C 0.42112 0.57878 0.85239 0.0
C525 C 0.3327 0.5514 0.85485 0.0
C526 C 0.27974 0.51653 0.85595 0.0
C527 C 0.36945 0.54446 0.8538 0.0
C528 C 0.26707 0.47491 0.85614 0.0
C529 C 0.30294 0.4681 0.85531 0.0
H530 H 0.91933 0.4356 0.16164 0.0
H531 H 1.0134 0.40074 0.15107 0.0
H532 H 0.94292 0.32493 0.15549 0.0
H533 H 0.85449 0.26774 0.16302 0.0
H534 H 0.75948 0.30158 0.17319 0.0
H535 H 0.82968 0.37759 0.16798 0.0
C536 C 0.92447 0.41147 0.16022 0.0
C537 C 0.97221 0.4245 0.15603 0.0
C538 C 0.88325 0.36726 0.16265 0.0
C539 C 0.97753 0.39225 0.15421 0.0
C540 C 0.93704 0.34859 0.15679 0.0
C541 C 0.84897 0.29165 0.16414 0.0
C542 C 0.80122 0.27837 0.16856 0.0
C543 C 0.88973 0.33563 0.16113 0.0
C544 C 0.79526 0.31025 0.16957 0.0
C545 C 0.83565 0.35401 0.16673 0.0
H546 H 0.11869 0.62496 0.07963 0.0
H547 H 0.06115 0.49483 0.09103 0.0
H548 H 0.05697 0.47975 0.0507 0.0
H549 H 0.068 0.50324 0.01194 0.0
H550 H 0.12918 0.63447 0.00087 0.0
H551 H 0.13374 0.64949 0.04115 0.0
C552 C 0.1054 0.59335 0.07326 0.0
C553 C 0.08989 0.56096 0.08828 0.0
C554 C 0.10366 0.5851 0.05006 0.0
C555 C 0.07322 0.5203 0.07982 0.0
C556 C 0.07071 0.51163 0.05675 0.0
C557 C 0.08227 0.53507 0.0184 0.0
C558 C 0.09806 0.56765 0.00341 0.0
C559 C 0.08546 0.54367 0.04167 0.0
C560 C 0.11706 0.60892 0.01203 0.0
C561 C 0.11953 0.61749 0.03507 0.0
H562 H 0.55145 0.01407 0.40342 0.0
H563 H 0.7055 0.12773 0.40796 0.0
H564 H 0.70458 0.13795 0.36812 0.0
H565 H 0.6617 0.11209 0.33149 0.0
H566 H 0.50943 0.99566 0.32603 0.0
H567 H 0.50781 0.98878 0.36653 0.0
C568 C 0.58452 0.04129 0.39566 0.0
C569 C 0.62848 0.07014 0.40851 0.0
C570 C 0.58415 0.0462 0.37252 0.0
C571 C 0.67131 0.10503 0.3983 0.0
C572 C 0.67083 0.11088 0.37554 0.0
C573 C 0.62801 0.08554 0.33923 0.0
C574 C 0.58576 0.05448 0.32584 0.0
C575 C 0.62774 0.0813 0.36241 0.0
C576 C 0.54254 0.01983 0.33602 0.0
C577 C 0.54157 0.01594 0.35916 0.0
H578 H 0.49916 0.49568 0.77324 0.0
H579 H 0.65428 0.57151 0.79114 0.0
H580 H 0.67627 0.59194 0.75225 0.0
H581 H 0.65045 0.58463 0.71274 0.0
H582 H 0.49456 0.50742 0.69559 0.0
H583 H 0.47384 0.49147 0.73466 0.0
C584 C 0.53783 0.51692 0.76866 0.0
C585 C 0.57505 0.53176 0.78489 0.0
C586 C 0.54999 0.52817 0.7464 0.0
C587 C 0.62501 0.5596 0.77884 0.0
C588 C 0.63752 0.57112 0.75663 0.0
C589 C 0.61199 0.56436 0.7176 0.0
C590 C 0.57412 0.54723 0.70124 0.0
C591 C 0.60021 0.55498 0.74018 0.0
C592 C 0.52448 0.52147 0.70783 0.0
C593 C 0.51253 0.51207 0.73017 0.0
H594 H 0.51226 0.01148 0.54171 0.0
H595 H 0.67072 0.09342 0.53425 0.0
H596 H 0.68207 0.09153 0.57439 0.0
H597 H 0.64666 0.06786 0.61188 0.0
H598 H 0.48786 0.98503 0.61875 0.0
H599 H 0.4769 0.98575 0.57864 0.0
C600 C 0.54927 0.02883 0.54888 0.0
C601 C 0.59061 0.05281 0.5351 0.0
C602 C 0.55542 0.02743 0.57189 0.0
C603 C 0.63832 0.07482 0.54455 0.0
C604 C 0.6448 0.0738 0.56749 0.0
C605 C 0.6097 0.05007 0.60457 0.0
C606 C 0.56814 0.02645 0.61834 0.0
C607 C 0.60362 0.05051 0.58138 0.0
C608 C 0.52044 1.0031 0.60855 0.0
C609 C 0.51414 1.00367 0.58561 0.0
H610 H 0.49058 0.46238 0.89764 0.0
H611 H 0.64085 0.54201 0.92389 0.0
H612 H 0.61372 0.49374 0.95486 0.0
H613 H 0.54649 0.42945 0.97471 0.0
H614 H 0.39673 0.35015 0.94773 0.0
H615 H 0.4246 0.39742 0.91647 0.0
C616 C 0.51745 0.46914 0.91012 0.0
C617 C 0.56758 0.50561 0.90857 0.0
C618 C 0.50169 0.44113 0.92758 0.0
C619 C 0.60199 0.51413 0.92484 0.0
C620 C 0.58652 0.48647 0.94245 0.0
C621 C 0.52019 0.42221 0.96177 0.0
C622 C 0.46964 0.38642 0.96348 0.0
C623 C 0.53642 0.44984 0.94397 0.0
C624 C 0.43576 0.3777 0.94681 0.0
C625 C 0.45163 0.4047 0.92898 0.0
H626 H 0.069 0.48914 0.22223 0.0
H627 H 0.14677 0.62532 0.21602 0.0
H628 H 0.14599 0.635 0.25662 0.0
H629 H 0.12553 0.60478 0.29413 0.0
H630 H 1.04323 0.46786 0.29983 0.0
H631 H 1.04332 0.45819 0.25921 0.0
C632 C 0.08556 0.52087 0.2298 0.0
C633 C 0.10835 0.55655 0.21629 0.0
C634 C 0.08429 0.52599 0.25304 0.0
C635 C 0.1291 0.59742 0.22617 0.0
C636 C 0.1288 0.60297 0.24936 0.0
C637 C 0.10759 0.57292 0.28636 0.0
C638 C 0.08473 0.53707 0.29977 0.0
C639 C 0.10696 0.56756 0.26299 0.0
C640 C 0.06102 0.49579 0.2897 0.0
C641 C 0.06114 0.49031 0.26654 0.0
loop_
_geom_bond_atom_site_label_1
_geom_bond_atom_site_label_2
_geom_bond_distance
_geom_bond_site_symmetry_2
_ccdc_geom_bond_type
Ho0 C3 2.811 . S
Ho0 O20 2.322 . S
Ho0 O22 2.378 . S
Ho0 O23 2.524 . S
Ho0 O24 2.381 . S
Ho0 O25 2.669 . S
Ho0 O27 2.346 1_455 S
Ho0 O31 2.305 . S
Ho1 C12 2.811 . S
Ho1 O21 2.346 1_655 S
Ho1 O25 2.305 1_655 S
Ho1 O26 2.322 . S
Ho1 O28 2.378 . S
Ho1 O29 2.524 . S
Ho1 O30 2.381 1_655 S
Ho1 O31 2.669 1_655 S
C2 O20 1.259 . S
C2 O21 1.268 . S
C3 Ho0 2.811 . S
C3 C4 1.488 . S
C3 O22 1.215 . S
C3 O23 1.289 . S
C4 C3 1.488 . S
C4 C5 1.348 . S
C4 C9 1.413 . S
C5 C4 1.348 . S
C5 C6 1.442 . S
C5 H32 0.930 . S
C6 C5 1.442 . S
C6 C7 1.381 . S
C6 H33 0.931 . S
C7 C6 1.381 . S
C7 C8 1.321 . S
C8 C7 1.321 . S
C8 C9 1.403 . S
C8 H34 0.934 . S
C9 C4 1.413 . S
C9 C8 1.403 . S
C9 H35 0.930 . S
C10 O24 1.275 . S
C10 O25 1.256 . S
C11 O26 1.259 . S
C11 O27 1.268 . S
C12 Ho1 2.811 . S
C12 C13 1.488 . S
C12 O28 1.215 . S
C12 O29 1.289 . S
C13 C12 1.488 . S
C13 C14 1.348 . S
C13 C18 1.413 . S
C14 C13 1.348 . S
C14 C15 1.442 . S
C14 H36 0.930 . S
C15 C14 1.442 . S
C15 C16 1.381 . S
C15 H37 0.931 . S
C16 C15 1.381 . S
C16 C17 1.321 . S
C17 C16 1.321 . S
C17 C18 1.403 . S
C17 H38 0.934 . S
C18 C13 1.413 . S
C18 C17 1.403 . S
C18 H39 0.930 . S
C19 O30 1.275 . S
C19 O31 1.256 . S
O20 Ho0 2.322 . S
O20 C2 1.259 . S
O21 Ho1 2.346 1_455 S
O21 C2 1.268 . S
O22 Ho0 2.378 . S
O22 C3 1.215 . S
O23 Ho0 2.524 . S
O23 C3 1.289 . S
O24 Ho0 2.381 . S
O24 C10 1.275 . S
O25 Ho0 2.669 . S
O25 Ho1 2.305 1_455 S
O25 C10 1.256 . S
O26 Ho1 2.322 . S
O26 C11 1.259 . S
O27 Ho0 2.346 1_655 S
O27 C11 1.268 . S
O28 Ho1 2.378 . S
O28 C12 1.215 . S
O29 Ho1 2.524 . S
O29 C12 1.289 . S
O30 Ho1 2.381 1_455 S
O30 C19 1.275 . S
O31 Ho0 2.305 . S
O31 Ho1 2.669 1_455 S
O31 C19 1.256 . S
H32 C5 0.930 . S
H33 C6 0.931 . S
H34 C8 0.934 . S
H35 C9 0.930 . S
H36 C14 0.930 . S
H37 C15 0.931 . S
H38 C17 0.934 . S
H39 C18 0.930 . S
Ho40 C43 2.811 . S
Ho40 O60 2.322 . S
Ho40 O62 2.378 . S
Ho40 O63 2.524 . S
Ho40 O64 2.381 . S
Ho40 O65 2.669 1_565 S
Ho40 O67 2.346 1_565 S
Ho40 O71 2.298 1_565 S
Ho41 C52 2.811 . S
Ho41 O61 2.346 1_545 S
Ho41 O65 2.305 . S
Ho41 O66 2.322 . S
Ho41 O68 2.378 . S
Ho41 O69 2.524 . S
Ho41 O70 2.381 . S
Ho41 O71 2.680 . S
C42 O60 1.259 . S
C42 O61 1.268 . S
C43 Ho40 2.811 . S
C43 C44 1.488 . S
C43 O62 1.215 . S
C43 O63 1.289 . S
C44 C43 1.488 . S
C44 C45 1.348 . S
C44 C49 1.413 . S
C45 C44 1.348 . S
C45 C46 1.442 . S
C45 H72 0.930 . S
C46 C45 1.442 . S
C46 C47 1.381 . S
C46 H73 0.931 . S
C47 C46 1.381 . S
C47 C48 1.321 . S
C48 C47 1.321 . S
C48 C49 1.403 . S
C48 H74 0.934 . S
C49 C44 1.413 . S
C49 C48 1.403 . S
C49 H75 0.930 . S
C50 O64 1.275 1_545 S
C50 O65 1.256 . S
C51 O66 1.259 . S
C51 O67 1.268 . S
C52 Ho41 2.811 . S
C52 C53 1.488 . S
C52 O68 1.215 . S
C52 O69 1.289 . S
C53 C52 1.488 . S
C53 C54 1.348 . S
C53 C58 1.413 . S
C54 C53 1.348 . S
C54 C55 1.442 . S
C54 H76 0.930 . S
C55 C54 1.442 . S
C55 C56 1.381 . S
C55 H77 0.931 . S
C56 C55 1.381 . S
C56 C57 1.321 . S
C57 C56 1.321 . S
C57 C58 1.403 . S
C57 H78 0.934 . S
C58 C53 1.413 . S
C58 C57 1.403 . S
C58 H79 0.930 . S
C59 O70 1.275 . S
C59 O71 1.263 . S
O60 Ho40 2.322 . S
O60 C42 1.259 . S
O61 Ho41 2.346 1_565 S
O61 C42 1.268 . S
O62 Ho40 2.378 . S
O62 C43 1.215 . S
O63 Ho40 2.524 . S
O63 C43 1.289 . S
O64 Ho40 2.381 . S
O64 C50 1.275 1_565 S
O65 Ho40 2.669 1_545 S
O65 Ho41 2.305 . S
O65 C50 1.256 . S
O66 Ho41 2.322 . S
O66 C51 1.259 . S
O67 Ho40 2.346 1_545 S
O67 C51 1.268 . S
O68 Ho41 2.378 . S
O68 C52 1.215 . S
O69 Ho41 2.524 . S
O69 C52 1.289 . S
O70 Ho41 2.381 . S
O70 C59 1.275 . S
O71 Ho40 2.298 1_545 S
O71 Ho41 2.680 . S
O71 C59 1.263 . S
H72 C45 0.930 . S
H73 C46 0.931 . S
H74 C48 0.934 . S
H75 C49 0.930 . S
H76 C54 0.930 . S
H77 C55 0.931 . S
H78 C57 0.934 . S
H79 C58 0.930 . S
Ho80 C83 2.811 . S
Ho80 O100 2.322 . S
Ho80 O102 2.378 . S
Ho80 O103 2.524 . S
Ho80 O104 2.381 . S
Ho80 O105 2.669 . S
Ho80 O107 2.346 . S
Ho80 O111 2.305 . S
Ho81 C92 2.811 . S
Ho81 O101 2.346 . S
Ho81 O105 2.305 . S
Ho81 O106 2.322 . S
Ho81 O108 2.378 . S
Ho81 O109 2.524 . S
Ho81 O110 2.381 . S
Ho81 O111 2.669 . S
C82 O100 1.259 . S
C82 O101 1.268 . S
C83 Ho80 2.811 . S
C83 C84 1.488 . S
C83 O102 1.215 . S
C83 O103 1.289 . S
C84 C83 1.488 . S
C84 C85 1.348 . S
C84 C89 1.413 . S
C85 C84 1.348 . S
C85 C86 1.442 . S
C85 H112 0.930 . S
C86 C85 1.442 . S
C86 C87 1.381 . S
C86 H113 0.931 . S
C87 C86 1.381 . S
C87 C88 1.321 . S
C88 C87 1.321 . S
C88 C89 1.403 . S
C88 H114 0.934 . S
C89 C84 1.413 . S
C89 C88 1.403 . S
C89 H115 0.930 . S
C90 O104 1.275 . S
C90 O105 1.256 . S
C91 O106 1.259 . S
C91 O107 1.268 . S
C92 Ho81 2.811 . S
C92 C93 1.488 . S
C92 O108 1.215 . S
C92 O109 1.289 . S
C93 C92 1.488 . S
C93 C94 1.348 . S
C93 C98 1.413 . S
C94 C93 1.348 . S
C94 C95 1.442 . S
C94 H116 0.930 . S
C95 C94 1.442 . S
C95 C96 1.381 . S
C95 H117 0.931 . S
C96 C95 1.381 . S
C96 C97 1.321 . S
C97 C96 1.321 . S
C97 C98 1.403 . S
C97 H118 0.934 . S
C98 C93 1.413 . S
C98 C97 1.403 . S
C98 H119 0.930 . S
C99 O110 1.275 . S
C99 O111 1.256 . S
O100 Ho80 2.322 . S
O100 C82 1.259 . S
O101 Ho81 2.346 . S
O101 C82 1.268 . S
O102 Ho80 2.378 . S
O102 C83 1.215 . S
O103 Ho80 2.524 . S
O103 C83 1.289 . S
O104 Ho80 2.381 . S
O104 C90 1.275 . S
O105 Ho80 2.669 . S
O105 Ho81 2.305 . S
O105 C90 1.256 . S
O106 Ho81 2.322 . S
O106 C91 1.259 . S
O107 Ho80 2.346 . S
O107 C91 1.268 . S
O108 Ho81 2.378 . S
O108 C92 1.215 . S
O109 Ho81 2.524 . S
O109 C92 1.289 . S
O110 Ho81 2.381 . S
O110 C99 1.275 . S
O111 Ho80 2.305 . S
O111 Ho81 2.669 . S
O111 C99 1.256 . S
H112 C85 0.930 . S
H113 C86 0.931 . S
H114 C88 0.934 . S
H115 C89 0.930 . S
H116 C94 0.930 . S
H117 C95 0.931 . S
H118 C97 0.934 . S
H119 C98 0.930 . S
C120 C121 1.386 . S
C120 C122 1.397 . S
C120 H144 0.931 . S
C121 C120 1.386 . S
C121 C125 1.397 1_545 S
C122 C120 1.397 . S
C122 C123 1.384 . S
C122 H145 0.930 . S
C123 C122 1.384 . S
C123 C124 1.377 1_545 S
C123 C126 1.481 . S
C124 C123 1.377 1_565 S
C124 C125 1.389 . S
C124 H146 0.929 . S
C125 C121 1.397 1_565 S
C125 C124 1.389 . S
C125 H147 0.931 . S
C126 C123 1.481 . S
C126 C127 1.387 . S
C126 C131 1.390 1_545 S
C127 C126 1.387 . S
C127 C128 1.401 . S
C127 H148 0.930 . S
C128 C127 1.401 . S
C128 C129 1.376 . S
C128 C137 1.511 . S
C129 C128 1.376 . S
C129 C130 1.392 1_545 S
C129 H150 0.931 . S
C130 C129 1.392 1_565 S
C130 C131 1.361 . S
C130 C132 1.500 . S
C131 C126 1.390 1_565 S
C131 C130 1.361 . S
C131 H149 0.931 . S
C132 C130 1.500 . S
C132 C133 1.371 . S
C132 C134 1.365 . S
C133 C132 1.371 . S
C133 C143 1.386 . S
C133 H151 0.931 . S
C134 C132 1.365 . S
C134 C135 1.409 . S
C134 H152 0.929 . S
C135 C134 1.409 . S
C135 C136 1.380 . S
C135 H153 0.930 . S
C136 C135 1.380 . S
C136 C143 1.357 . S
C137 C128 1.511 . S
C137 C138 1.341 . S
C137 C139 1.371 . S
C138 C137 1.341 . S
C138 C142 1.394 . S
C138 H154 0.930 . S
C139 C137 1.371 . S
C139 C140 1.392 . S
C139 H155 0.931 . S
C140 C139 1.392 . S
C140 C141 1.331 . S
C140 H158 0.932 . S
C141 C140 1.331 . S
C141 C142 1.336 . S
C142 C138 1.394 . S
C142 C141 1.336 . S
C142 H157 0.929 . S
C143 C133 1.386 . S
C143 C136 1.357 . S
C143 H156 0.928 . S
H144 C120 0.931 . S
H145 C122 0.930 . S
H146 C124 0.929 . S
H147 C125 0.931 . S
H148 C127 0.930 . S
H149 C131 0.931 . S
H150 C129 0.931 . S
H151 C133 0.931 . S
H152 C134 0.929 . S
H153 C135 0.930 . S
H154 C138 0.930 . S
H155 C139 0.931 . S
H156 C143 0.928 . S
H157 C142 0.929 . S
H158 C140 0.932 . S
C159 C160 1.386 . S
C159 C161 1.397 . S
C159 H183 0.931 . S
C160 C159 1.386 . S
C160 C164 1.397 . S
C161 C159 1.397 . S
C161 C162 1.384 . S
C161 H184 0.930 . S
C162 C161 1.384 . S
C162 C163 1.377 . S
C162 C165 1.481 . S
C163 C162 1.377 . S
C163 C164 1.389 . S
C163 H185 0.929 . S
C164 C160 1.397 . S
C164 C163 1.389 . S
C164 H186 0.931 . S
C165 C162 1.481 . S
C165 C166 1.387 . S
C165 C170 1.390 . S
C166 C165 1.387 . S
C166 C167 1.401 . S
C166 H187 0.930 . S
C167 C166 1.401 . S
C167 C168 1.376 . S
C167 C176 1.511 . S
C168 C167 1.376 . S
C168 C169 1.392 . S
C168 H189 0.931 . S
C169 C168 1.392 . S
C169 C170 1.361 . S
C169 C171 1.500 . S
C170 C165 1.390 . S
C170 C169 1.361 . S
C170 H188 0.931 . S
C171 C169 1.500 . S
C171 C172 1.371 . S
C171 C173 1.365 . S
C172 C171 1.371 . S
C172 C182 1.386 . S
C172 H190 0.931 . S
C173 C171 1.365 . S
C173 C174 1.409 . S
C173 H191 0.929 . S
C174 C173 1.409 . S
C174 C175 1.380 . S
C174 H192 0.930 . S
C175 C174 1.380 . S
C175 C182 1.357 . S
C176 C167 1.511 . S
C176 C177 1.341 . S
C176 C178 1.371 . S
C177 C176 1.341 . S
C177 C181 1.394 . S
C177 H193 0.930 . S
C178 C176 1.371 . S
C178 C179 1.392 . S
C178 H194 0.931 . S
C179 C178 1.392 . S
C179 C180 1.331 . S
C179 H197 0.932 . S
C180 C179 1.331 . S
C180 C181 1.336 . S
C181 C177 1.394 . S
C181 C180 1.336 . S
C181 H196 0.929 . S
C182 C172 1.386 . S
C182 C175 1.357 . S
C182 H195 0.928 . S
H183 C159 0.931 . S
H184 C161 0.930 . S
H185 C163 0.929 . S
H186 C164 0.931 . S
H187 C166 0.930 . S
H188 C170 0.931 . S
H189 C168 0.931 . S
H190 C172 0.931 . S
H191 C173 0.929 . S
H192 C174 0.930 . S
H193 C177 0.930 . S
H194 C178 0.931 . S
H195 C182 0.928 . S
H196 C181 0.929 . S
H197 C179 0.932 . S
C198 C199 1.386 . S
C198 C200 1.397 . S
C198 H222 0.931 . S
C199 C198 1.386 . S
C199 C203 1.397 . S
C200 C198 1.397 . S
C200 C201 1.384 . S
C200 H223 0.930 . S
C201 C200 1.384 . S
C201 C202 1.377 . S
C201 C204 1.481 . S
C202 C201 1.377 . S
C202 C203 1.389 . S
C202 H224 0.929 1_455 S
C203 C199 1.397 . S
C203 C202 1.389 . S
C203 H225 0.931 1_455 S
C204 C201 1.481 . S
C204 C205 1.387 . S
C204 C209 1.390 . S
C205 C204 1.387 . S
C205 C206 1.401 . S
C205 H226 0.930 . S
C206 C205 1.401 . S
C206 C207 1.376 . S
C206 C215 1.511 . S
C207 C206 1.376 . S
C207 C208 1.392 . S
C207 H228 0.931 . S
C208 C207 1.392 . S
C208 C209 1.361 . S
C208 C210 1.500 1_455 S
C209 C204 1.390 . S
C209 C208 1.361 . S
C209 H227 0.931 1_455 S
C210 C208 1.500 1_655 S
C210 C211 1.371 . S
C210 C212 1.365 . S
C211 C210 1.371 . S
C211 C221 1.386 . S
C211 H229 0.931 1_655 S
C212 C210 1.365 . S
C212 C213 1.409 . S
C212 H230 0.929 . S
C213 C212 1.409 . S
C213 C214 1.380 . S
C213 H231 0.930 . S
C214 C213 1.380 . S
C214 C221 1.357 . S
C215 C206 1.511 . S
C215 C216 1.341 . S
C215 C217 1.371 . S
C216 C215 1.341 . S
C216 C220 1.394 . S
C216 H232 0.930 . S
C217 C215 1.371 . S
C217 C218 1.392 . S
C217 H233 0.931 . S
C218 C217 1.392 . S
C218 C219 1.331 . S
C218 H236 0.932 . S
C219 C218 1.331 . S
C219 C220 1.336 . S
C220 C216 1.394 . S
C220 C219 1.336 . S
C220 H235 0.929 . S
C221 C211 1.386 . S
C221 C214 1.357 . S
C221 H234 0.928 . S
H222 C198 0.931 . S
H223 C200 0.930 . S
H224 C202 0.929 1_655 S
H225 C203 0.931 1_655 S
H226 C205 0.930 . S
H227 C209 0.931 1_655 S
H228 C207 0.931 . S
H229 C211 0.931 1_455 S
H230 C212 0.929 . S
H231 C213 0.930 . S
H232 C216 0.930 . S
H233 C217 0.931 . S
H234 C221 0.928 . S
H235 C220 0.929 . S
H236 C218 0.932 . S
C237 C238 1.398 . S
C237 C239 1.397 . S
C237 H261 0.931 . S
C238 C237 1.398 . S
C238 C242 1.385 1_655 S
C239 C237 1.397 . S
C239 C240 1.384 . S
C239 H262 0.930 . S
C240 C239 1.384 . S
C240 C241 1.377 1_655 S
C240 C243 1.481 . S
C241 C240 1.377 1_455 S
C241 C242 1.389 . S
C241 H263 0.929 . S
C242 C238 1.385 1_455 S
C242 C241 1.389 . S
C242 H264 0.931 . S
C243 C240 1.481 . S
C243 C244 1.387 . S
C243 C248 1.390 1_655 S
C244 C243 1.387 . S
C244 C245 1.401 . S
C244 H265 0.930 . S
C245 C244 1.401 . S
C245 C246 1.376 . S
C245 C254 1.511 . S
C246 C245 1.376 . S
C246 C247 1.392 1_655 S
C246 H267 0.931 . S
C247 C246 1.392 1_455 S
C247 C248 1.361 . S
C247 C249 1.500 . S
C248 C243 1.390 1_455 S
C248 C247 1.361 . S
C248 H266 0.931 . S
C249 C247 1.500 . S
C249 C250 1.371 . S
C249 C251 1.365 . S
C250 C249 1.371 . S
C250 C260 1.386 . S
C250 H268 0.931 . S
C251 C249 1.365 . S
C251 C252 1.409 . S
C251 H269 0.929 . S
C252 C251 1.409 . S
C252 C253 1.380 . S
C252 H270 0.930 . S
C253 C252 1.380 . S
C253 C260 1.357 . S
C254 C245 1.511 . S
C254 C255 1.341 . S
C254 C256 1.371 . S
C255 C254 1.341 . S
C255 C259 1.394 . S
C255 H271 0.930 . S
C256 C254 1.371 . S
C256 C257 1.392 . S
C256 H272 0.931 . S
C257 C256 1.392 . S
C257 C258 1.331 . S
C257 H275 0.932 . S
C258 C257 1.331 . S
C258 C259 1.336 . S
C259 C255 1.394 . S
C259 C258 1.336 . S
C259 H274 0.929 . S
C260 C250 1.386 . S
C260 C253 1.357 . S
C260 H273 0.928 . S
H261 C237 0.931 . S
H262 C239 0.930 . S
H263 C241 0.929 . S
H264 C242 0.931 . S
H265 C244 0.930 . S
H266 C248 0.931 . S
H267 C246 0.931 . S
H268 C250 0.931 . S
H269 C251 0.929 . S
H270 C252 0.930 . S
H271 C255 0.930 . S
H272 C256 0.931 . S
H273 C260 0.928 . S
H274 C259 0.929 . S
H275 C257 0.932 . S
C276 C277 1.386 . S
C276 C278 1.397 . S
C276 H300 0.931 . S
C277 C276 1.386 . S
C277 C281 1.397 1_565 S
C278 C276 1.397 . S
C278 C279 1.384 . S
C278 H301 0.930 . S
C279 C278 1.384 . S
C279 C280 1.377 1_565 S
C279 C282 1.480 . S
C280 C279 1.377 1_545 S
C280 C281 1.389 . S
C280 H302 0.929 . S
C281 C277 1.397 1_545 S
C281 C280 1.389 . S
C281 H303 0.931 . S
C282 C279 1.480 . S
C282 C283 1.414 . S
C282 C287 1.364 1_565 S
C283 C282 1.414 . S
C283 C284 1.401 . S
C283 H304 0.930 . S
C284 C283 1.401 . S
C284 C285 1.376 1_565 S
C284 C293 1.511 . S
C285 C284 1.376 1_545 S
C285 C286 1.392 . S
C285 H306 0.931 . S
C286 C285 1.392 . S
C286 C287 1.361 . S
C286 C288 1.500 . S
C287 C282 1.364 1_545 S
C287 C286 1.361 . S
C287 H305 0.931 . S
C288 C286 1.500 . S
C288 C289 1.371 . S
C288 C290 1.365 . S
C289 C288 1.371 . S
C289 C299 1.386 . S
C289 H307 0.931 . S
C290 C288 1.365 . S
C290 C291 1.409 . S
C290 H308 0.929 . S
C291 C290 1.409 . S
C291 C292 1.380 . S
C291 H309 0.930 . S
C292 C291 1.380 . S
C292 C299 1.357 . S
C293 C284 1.511 . S
C293 C294 1.341 . S
C293 C295 1.371 . S
C294 C293 1.341 . S
C294 C298 1.394 . S
C294 H310 0.930 . S
C295 C293 1.371 . S
C295 C296 1.392 . S
C295 H311 0.931 . S
C296 C295 1.392 . S
C296 C297 1.331 . S
C296 H314 0.932 . S
C297 C296 1.331 . S
C297 C298 1.336 . S
C298 C294 1.394 . S
C298 C297 1.336 . S
C298 H313 0.929 . S
C299 C289 1.386 . S
C299 C292 1.357 . S
C299 H312 0.928 . S
H300 C276 0.931 . S
H301 C278 0.930 . S
H302 C280 0.929 . S
H303 C281 0.931 . S
H304 C283 0.930 . S
H305 C287 0.931 . S
H306 C285 0.931 . S
H307 C289 0.931 . S
H308 C290 0.929 . S
H309 C291 0.930 . S
H310 C294 0.930 . S
H311 C295 0.931 . S
H312 C299 0.928 . S
H313 C298 0.929 . S
H314 C296 0.932 . S
C315 C316 1.386 1_554 S
C315 C317 1.397 . S
C315 H339 0.931 1_554 S
C316 C315 1.386 1_556 S
C316 C320 1.397 1_556 S
C317 C315 1.397 . S
C317 C318 1.384 . S
C317 H340 0.930 . S
C318 C317 1.384 . S
C318 C319 1.377 . S
C318 C321 1.481 . S
C319 C318 1.377 . S
C319 C320 1.389 . S
C319 H341 0.929 . S
C320 C316 1.397 1_554 S
C320 C319 1.389 . S
C320 H342 0.931 1_554 S
C321 C318 1.481 . S
C321 C322 1.387 . S
C321 C326 1.390 . S
C322 C321 1.387 . S
C322 C323 1.401 . S
C322 H343 0.930 . S
C323 C322 1.401 . S
C323 C324 1.376 . S
C323 C332 1.511 . S
C324 C323 1.376 . S
C324 C325 1.392 . S
C324 H345 0.931 . S
C325 C324 1.392 . S
C325 C326 1.361 . S
C325 C327 1.500 . S
C326 C321 1.390 . S
C326 C325 1.361 . S
C326 H344 0.931 . S
C327 C325 1.500 . S
C327 C328 1.371 . S
C327 C329 1.365 . S
C328 C327 1.371 . S
C328 C338 1.386 . S
C328 H346 0.931 . S
C329 C327 1.365 . S
C329 C330 1.409 . S
C329 H347 0.929 . S
C330 C329 1.409 . S
C330 C331 1.380 . S
C330 H348 0.930 . S
C331 C330 1.380 . S
C331 C338 1.357 . S
C332 C323 1.511 . S
C332 C333 1.341 . S
C332 C334 1.371 . S
C333 C332 1.341 . S
C333 C337 1.394 . S
C333 H349 0.930 . S
C334 C332 1.371 . S
C334 C335 1.392 . S
C334 H350 0.931 . S
C335 C334 1.392 . S
C335 C336 1.331 . S
C335 H353 0.932 . S
C336 C335 1.331 . S
C336 C337 1.336 . S
C337 C333 1.394 . S
C337 C336 1.336 . S
C337 H352 0.929 . S
C338 C328 1.386 . S
C338 C331 1.357 . S
C338 H351 0.928 . S
H339 C315 0.931 1_556 S
H340 C317 0.930 . S
H341 C319 0.929 . S
H342 C320 0.931 1_556 S
H343 C322 0.930 . S
H344 C326 0.931 . S
H345 C324 0.931 . S
H346 C328 0.931 . S
H347 C329 0.929 . S
H348 C330 0.930 . S
H349 C333 0.930 . S
H350 C334 0.931 . S
H351 C338 0.928 . S
H352 C337 0.929 . S
H353 C335 0.932 . S
H354 C360 0.930 . S
H355 C363 0.930 . S
H356 C364 0.930 . S
H357 C365 0.930 . S
H358 C368 0.930 . S
H359 C369 0.930 . S
C360 H354 0.930 . S
C360 C361 1.355 . S
C360 C362 1.415 . S
C361 C360 1.355 . S
C361 C363 1.419 . S
C362 C360 1.415 . S
C362 C367 1.425 . S
C362 C369 1.409 . S
C363 H355 0.930 . S
C363 C361 1.419 . S
C363 C364 1.362 . S
C364 H356 0.930 . S
C364 C363 1.362 . S
C364 C367 1.409 . S
C365 H357 0.930 . S
C365 C366 1.355 . S
C365 C367 1.415 . S
C366 C365 1.355 . S
C366 C368 1.419 . S
C367 C362 1.425 . S
C367 C364 1.409 . S
C367 C365 1.415 . S
C368 H358 0.930 . S
C368 C366 1.419 . S
C368 C369 1.362 . S
C369 H359 0.930 . S
C369 C362 1.409 . S
C369 C368 1.362 . S
H370 C376 0.930 . S
H371 C379 0.930 . S
H372 C380 0.930 . S
H373 C381 0.930 . S
H374 C384 0.930 . S
H375 C385 0.930 . S
C376 H370 0.930 . S
C376 C377 1.355 . S
C376 C378 1.415 . S
C377 C376 1.355 . S
C377 C379 1.419 . S
C378 C376 1.415 . S
C378 C383 1.425 . S
C378 C385 1.409 . S
C379 H371 0.930 . S
C379 C377 1.419 . S
C379 C380 1.362 . S
C380 H372 0.930 . S
C380 C379 1.362 . S
C380 C383 1.409 . S
C381 H373 0.930 . S
C381 C382 1.355 . S
C381 C383 1.415 . S
C382 C381 1.355 . S
C382 C384 1.419 . S
C383 C378 1.425 . S
C383 C380 1.409 . S
C383 C381 1.415 . S
C384 H374 0.930 . S
C384 C382 1.419 . S
C384 C385 1.362 . S
C385 H375 0.930 . S
C385 C378 1.409 . S
C385 C384 1.362 . S
H386 C392 0.930 . S
H387 C395 0.930 . S
H388 C396 0.930 . S
H389 C397 0.930 . S
H390 C400 0.930 . S
H391 C401 0.930 . S
C392 H386 0.930 . S
C392 C393 1.355 . S
C392 C394 1.415 . S
C393 C392 1.355 . S
C393 C395 1.419 . S
C394 C392 1.415 . S
C394 C399 1.425 . S
C394 C401 1.409 . S
C395 H387 0.930 . S
C395 C393 1.419 . S
C395 C396 1.362 . S
C396 H388 0.930 . S
C396 C395 1.362 . S
C396 C399 1.409 . S
C397 H389 0.930 . S
C397 C398 1.355 . S
C397 C399 1.415 . S
C398 C397 1.355 . S
C398 C400 1.419 . S
C399 C394 1.425 . S
C399 C396 1.409 . S
C399 C397 1.415 . S
C400 H390 0.930 . S
C400 C398 1.419 . S
C400 C401 1.362 . S
C401 H391 0.930 . S
C401 C394 1.409 . S
C401 C400 1.362 . S
H402 C408 0.930 . S
H403 C411 0.930 . S
H404 C412 0.930 . S
H405 C413 0.930 . S
H406 C416 0.930 . S
H407 C417 0.930 . S
C408 H402 0.930 . S
C408 C409 1.355 . S
C408 C410 1.415 . S
C409 C408 1.355 . S
C409 C411 1.419 . S
C410 C408 1.415 . S
C410 C415 1.425 . S
C410 C417 1.409 . S
C411 H403 0.930 . S
C411 C409 1.419 . S
C411 C412 1.362 . S
C412 H404 0.930 . S
C412 C411 1.362 . S
C412 C415 1.409 . S
C413 H405 0.930 . S
C413 C414 1.355 . S
C413 C415 1.415 . S
C414 C413 1.355 . S
C414 C416 1.419 . S
C415 C410 1.425 . S
C415 C412 1.409 . S
C415 C413 1.415 . S
C416 H406 0.930 . S
C416 C414 1.419 . S
C416 C417 1.362 . S
C417 H407 0.930 . S
C417 C410 1.409 . S
C417 C416 1.362 . S
H418 C424 0.930 . S
H419 C427 0.930 . S
H420 C428 0.930 . S
H421 C429 0.930 . S
H422 C432 0.930 . S
H423 C433 0.930 . S
C424 H418 0.930 . S
C424 C425 1.355 . S
C424 C426 1.415 . S
C425 C424 1.355 . S
C425 C427 1.419 . S
C426 C424 1.415 . S
C426 C431 1.425 . S
C426 C433 1.409 . S
C427 H419 0.930 . S
C427 C425 1.419 . S
C427 C428 1.362 . S
C428 H420 0.930 . S
C428 C427 1.362 . S
C428 C431 1.409 . S
C429 H421 0.930 . S
C429 C430 1.355 . S
C429 C431 1.415 . S
C430 C429 1.355 . S
C430 C432 1.419 . S
C431 C426 1.425 . S
C431 C428 1.409 . S
C431 C429 1.415 . S
C432 H422 0.930 . S
C432 C430 1.419 . S
C432 C433 1.362 . S
C433 H423 0.930 . S
C433 C426 1.409 . S
C433 C432 1.362 . S
H434 C440 0.930 . S
H435 C443 0.930 . S
H436 C444 0.930 . S
H437 C445 0.930 . S
H438 C448 0.930 . S
H439 C449 0.930 . S
C440 H434 0.930 . S
C440 C441 1.355 . S
C440 C442 1.415 . S
C441 C440 1.355 . S
C441 C443 1.419 . S
C442 C440 1.415 . S
C442 C447 1.425 . S
C442 C449 1.409 . S
C443 H435 0.930 . S
C443 C441 1.419 . S
C443 C444 1.362 . S
C444 H436 0.930 . S
C444 C443 1.362 . S
C444 C447 1.409 . S
C445 H437 0.930 . S
C445 C446 1.355 . S
C445 C447 1.415 . S
C446 C445 1.355 . S
C446 C448 1.419 . S
C447 C442 1.425 . S
C447 C444 1.409 . S
C447 C445 1.415 . S
C448 H438 0.930 . S
C448 C446 1.419 . S
C448 C449 1.362 . S
C449 H439 0.930 . S
C449 C442 1.409 . S
C449 C448 1.362 . S
H450 C456 0.930 . S
H451 C459 0.930 . S
H452 C460 0.930 . S
H453 C461 0.930 . S
H454 C464 0.930 . S
H455 C465 0.930 . S
C456 H450 0.930 . S
C456 C457 1.355 . S
C456 C458 1.415 . S
C457 C456 1.355 . S
C457 C459 1.419 . S
C458 C456 1.415 . S
C458 C463 1.425 . S
C458 C465 1.409 . S
C459 H451 0.930 . S
C459 C457 1.419 . S
C459 C460 1.362 . S
C460 H452 0.930 . S
C460 C459 1.362 . S
C460 C463 1.409 . S
C461 H453 0.930 . S
C461 C462 1.355 . S
C461 C463 1.415 . S
C462 C461 1.355 . S
C462 C464 1.419 . S
C463 C458 1.425 . S
C463 C460 1.409 . S
C463 C461 1.415 . S
C464 H454 0.930 . S
C464 C462 1.419 . S
C464 C465 1.362 . S
C465 H455 0.930 . S
C465 C458 1.409 . S
C465 C464 1.362 . S
H466 C472 0.930 . S
H467 C475 0.930 . S
H468 C476 0.930 . S
H469 C477 0.930 . S
H470 C480 0.930 . S
H471 C481 0.930 . S
C472 H466 0.930 . S
C472 C473 1.355 . S
C472 C474 1.415 . S
C473 C472 1.355 . S
C473 C475 1.419 . S
C474 C472 1.415 . S
C474 C479 1.425 . S
C474 C481 1.409 . S
C475 H467 0.930 . S
C475 C473 1.419 . S
C475 C476 1.362 . S
C476 H468 0.930 . S
C476 C475 1.362 . S
C476 C479 1.409 . S
C477 H469 0.930 . S
C477 C478 1.355 . S
C477 C479 1.415 . S
C478 C477 1.355 . S
C478 C480 1.419 . S
C479 C474 1.425 . S
C479 C476 1.409 . S
C479 C477 1.415 . S
C480 H470 0.930 . S
C480 C478 1.419 . S
C480 C481 1.362 . S
C481 H471 0.930 . S
C481 C474 1.409 . S
C481 C480 1.362 . S
H482 C488 0.930 . S
H483 C491 0.930 . S
H484 C492 0.930 . S
H485 C493 0.930 . S
H486 C496 0.930 . S
H487 C497 0.930 . S
C488 H482 0.930 . S
C488 C489 1.355 . S
C488 C490 1.415 . S
C489 C488 1.355 . S
C489 C491 1.419 . S
C490 C488 1.415 . S
C490 C495 1.425 . S
C490 C497 1.409 . S
C491 H483 0.930 . S
C491 C489 1.419 . S
C491 C492 1.362 . S
C492 H484 0.930 . S
C492 C491 1.362 . S
C492 C495 1.409 . S
C493 H485 0.930 . S
C493 C494 1.355 . S
C493 C495 1.415 . S
C494 C493 1.355 . S
C494 C496 1.419 . S
C495 C490 1.425 . S
C495 C492 1.409 . S
C495 C493 1.415 . S
C496 H486 0.930 . S
C496 C494 1.419 . S
C496 C497 1.362 . S
C497 H487 0.930 . S
C497 C490 1.409 . S
C497 C496 1.362 . S
H498 C504 0.930 . S
H499 C507 0.930 . S
H500 C508 0.930 . S
H501 C509 0.930 . S
H502 C512 0.930 . S
H503 C513 0.930 . S
C504 H498 0.930 . S
C504 C505 1.355 . S
C504 C506 1.415 . S
C505 C504 1.355 . S
C505 C507 1.419 . S
C506 C504 1.415 . S
C506 C511 1.425 . S
C506 C513 1.409 . S
C507 H499 0.930 . S
C507 C505 1.419 . S
C507 C508 1.362 . S
C508 H500 0.930 . S
C508 C507 1.362 . S
C508 C511 1.409 . S
C509 H501 0.930 . S
C509 C510 1.355 . S
C509 C511 1.415 . S
C510 C509 1.355 . S
C510 C512 1.419 . S
C511 C506 1.425 . S
C511 C508 1.409 . S
C511 C509 1.415 . S
C512 H502 0.930 . S
C512 C510 1.419 . S
C512 C513 1.362 . S
C513 H503 0.930 . S
C513 C506 1.409 . S
C513 C512 1.362 . S
H514 C520 0.930 . S
H515 C523 0.930 . S
H516 C524 0.930 . S
H517 C525 0.930 . S
H518 C528 0.930 . S
H519 C529 0.930 . S
C520 H514 0.930 . S
C520 C521 1.355 . S
C520 C522 1.415 . S
C521 C520 1.355 . S
C521 C523 1.419 . S
C522 C520 1.415 . S
C522 C527 1.425 . S
C522 C529 1.409 . S
C523 H515 0.930 . S
C523 C521 1.419 . S
C523 C524 1.362 . S
C524 H516 0.930 . S
C524 C523 1.362 . S
C524 C527 1.409 . S
C525 H517 0.930 . S
C525 C526 1.355 . S
C525 C527 1.415 . S
C526 C525 1.355 . S
C526 C528 1.419 . S
C527 C522 1.425 . S
C527 C524 1.409 . S
C527 C525 1.415 . S
C528 H518 0.930 . S
C528 C526 1.419 . S
C528 C529 1.362 . S
C529 H519 0.930 . S
C529 C522 1.409 . S
C529 C528 1.362 . S
H530 C536 0.930 . S
H531 C539 0.930 . S
H532 C540 0.930 . S
H533 C541 0.930 . S
H534 C544 0.930 . S
H535 C545 0.930 . S
C536 H530 0.930 . S
C536 C537 1.355 . S
C536 C538 1.415 . S
C537 C536 1.355 . S
C537 C539 1.419 . S
C538 C536 1.415 . S
C538 C543 1.425 . S
C538 C545 1.409 . S
C539 H531 0.930 . S
C539 C537 1.419 . S
C539 C540 1.362 . S
C540 H532 0.930 . S
C540 C539 1.362 . S
C540 C543 1.409 . S
C541 H533 0.930 . S
C541 C542 1.355 . S
C541 C543 1.415 . S
C542 C541 1.355 . S
C542 C544 1.419 . S
C543 C538 1.425 . S
C543 C540 1.409 . S
C543 C541 1.415 . S
C544 H534 0.930 . S
C544 C542 1.419 . S
C544 C545 1.362 . S
C545 H535 0.930 . S
C545 C538 1.409 . S
C545 C544 1.362 . S
H546 C552 0.930 . S
H547 C555 0.930 . S
H548 C556 0.930 . S
H549 C557 0.930 1_655 S
H550 C560 0.930 . S
H551 C561 0.930 . S
C552 H546 0.930 . S
C552 C553 1.355 . S
C552 C554 1.415 . S
C553 C552 1.355 . S
C553 C555 1.419 1_455 S
C554 C552 1.415 . S
C554 C559 1.425 . S
C554 C561 1.409 . S
C555 H547 0.930 . S
C555 C553 1.419 1_655 S
C555 C556 1.362 . S
C556 H548 0.930 . S
C556 C555 1.362 . S
C556 C559 1.409 1_655 S
C557 H549 0.930 1_455 S
C557 C558 1.355 . S
C557 C559 1.415 . S
C558 C557 1.355 . S
C558 C560 1.419 . S
C559 C554 1.425 . S
C559 C556 1.409 1_455 S
C559 C557 1.415 . S
C560 H550 0.930 . S
C560 C558 1.419 . S
C560 C561 1.362 . S
C561 H551 0.930 . S
C561 C554 1.409 . S
C561 C560 1.362 . S
H562 C568 0.930 . S
H563 C571 0.930 . S
H564 C572 0.930 . S
H565 C573 0.930 . S
H566 C576 0.930 . S
H567 C577 0.930 . S
C568 H562 0.930 . S
C568 C569 1.355 1_565 S
C568 C570 1.415 . S
C569 C568 1.355 1_545 S
C569 C571 1.419 . S
C570 C568 1.415 . S
C570 C575 1.425 1_565 S
C570 C577 1.409 . S
C571 H563 0.930 . S
C571 C569 1.419 . S
C571 C572 1.362 . S
C572 H564 0.930 . S
C572 C571 1.362 . S
C572 C575 1.409 . S
C573 H565 0.930 . S
C573 C574 1.355 . S
C573 C575 1.415 . S
C574 C573 1.355 . S
C574 C576 1.419 1_545 S
C575 C570 1.425 1_545 S
C575 C572 1.409 . S
C575 C573 1.415 . S
C576 H566 0.930 . S
C576 C574 1.419 1_565 S
C576 C577 1.362 . S
C577 H567 0.930 . S
C577 C570 1.409 . S
C577 C576 1.362 . S
H578 C584 0.930 . S
H579 C587 0.930 . S
H580 C588 0.930 . S
H581 C589 0.930 . S
H582 C592 0.930 . S
H583 C593 0.930 . S
C584 H578 0.930 . S
C584 C585 1.355 . S
C584 C586 1.415 . S
C585 C584 1.355 . S
C585 C587 1.419 . S
C586 C584 1.415 . S
C586 C591 1.425 . S
C586 C593 1.409 . S
C587 H579 0.930 . S
C587 C585 1.419 . S
C587 C588 1.362 . S
C588 H580 0.930 . S
C588 C587 1.362 . S
C588 C591 1.409 . S
C589 H581 0.930 . S
C589 C590 1.355 . S
C589 C591 1.415 . S
C590 C589 1.355 . S
C590 C592 1.419 . S
C591 C586 1.425 . S
C591 C588 1.409 . S
C591 C589 1.415 . S
C592 H582 0.930 . S
C592 C590 1.419 . S
C592 C593 1.362 . S
C593 H583 0.930 . S
C593 C586 1.409 . S
C593 C592 1.362 . S
H594 C600 0.930 . S
H595 C603 0.930 . S
H596 C604 0.930 . S
H597 C605 0.930 . S
H598 C608 0.930 . S
H599 C609 0.930 . S
C600 H594 0.930 . S
C600 C601 1.355 1_565 S
C600 C602 1.415 . S
C601 C600 1.355 1_545 S
C601 C603 1.419 . S
C602 C600 1.415 . S
C602 C607 1.425 1_565 S
C602 C609 1.409 . S
C603 H595 0.930 . S
C603 C601 1.419 . S
C603 C604 1.362 . S
C604 H596 0.930 . S
C604 C603 1.362 . S
C604 C607 1.409 . S
C605 H597 0.930 . S
C605 C606 1.355 1_545 S
C605 C607 1.415 . S
C606 C605 1.355 1_565 S
C606 C608 1.419 . S
C607 C602 1.425 1_545 S
C607 C604 1.409 . S
C607 C605 1.415 . S
C608 H598 0.930 . S
C608 C606 1.419 . S
C608 C609 1.362 . S
C609 H599 0.930 . S
C609 C602 1.409 . S
C609 C608 1.362 . S
H610 C616 0.930 . S
H611 C619 0.930 . S
H612 C620 0.930 . S
H613 C621 0.930 . S
H614 C624 0.930 . S
H615 C625 0.930 . S
C616 H610 0.930 . S
C616 C617 1.355 . S
C616 C618 1.415 . S
C617 C616 1.355 . S
C617 C619 1.419 . S
C618 C616 1.415 . S
C618 C623 1.425 . S
C618 C625 1.409 . S
C619 H611 0.930 . S
C619 C617 1.419 . S
C619 C620 1.362 . S
C620 H612 0.930 . S
C620 C619 1.362 . S
C620 C623 1.409 . S
C621 H613 0.930 . S
C621 C622 1.355 . S
C621 C623 1.415 . S
C622 C621 1.355 . S
C622 C624 1.419 . S
C623 C618 1.425 . S
C623 C620 1.409 . S
C623 C621 1.415 . S
C624 H614 0.930 . S
C624 C622 1.419 . S
C624 C625 1.362 . S
C625 H615 0.930 . S
C625 C618 1.409 . S
C625 C624 1.362 . S
H626 C632 0.930 . S
H627 C635 0.930 . S
H628 C636 0.930 . S
H629 C637 0.930 . S
H630 C640 0.930 . S
H631 C641 0.930 . S
C632 H626 0.930 . S
C632 C633 1.355 1_655 S
C632 C634 1.415 . S
C633 C632 1.355 1_455 S
C633 C635 1.419 . S
C634 C632 1.415 . S
C634 C639 1.425 1_655 S
C634 C641 1.409 . S
C635 H627 0.930 . S
C635 C633 1.419 . S
C635 C636 1.362 . S
C636 H628 0.930 . S
C636 C635 1.362 . S
C636 C639 1.409 . S
C637 H629 0.930 . S
C637 C638 1.355 . S
C637 C639 1.415 . S
C638 C637 1.355 . S
C638 C640 1.419 1_455 S
C639 C634 1.425 1_455 S
C639 C636 1.409 . S
C639 C637 1.415 . S
C640 H630 0.930 . S
C640 C638 1.419 1_655 S
C640 C641 1.362 . S
C641 H631 0.930 . S
C641 C634 1.409 . S
C641 C640 1.362 . S
C361 C7 0.825 . S
C366 C331 0.807 . S
C377 C51 1.975 . S
C382 C258 1.944 . S
C393 C87 1.302 . S
C398 C297 1.284 . S
C409 C16 0.606 . S
C414 C336 0.413 . S
C430 C253 2.012 . S
C425 C42 2.098 . S
C446 C292 1.349 . S
C441 C96 1.303 . S
C457 C47 1.255 . S
C462 C180 1.273 . S
C473 C91 3.149 . S
C478 C214 3.083 . S
C489 C2 2.121 . S
C494 C136 2.032 . S
C510 C175 1.319 . S
C505 C56 1.329 . S
C526 C219 3.008 . S
C521 C82 3.045 . S
C537 C11 1.955 . S
C542 C141 1.908 . S
C558 C199 1.775 1_554 S
C553 C19 1.710 . S
C569 C50 1.340 . S
C574 C121 1.368 . S
C585 C99 1.449 . S
C590 C160 1.504 . S
C606 C277 1.490 . S
C601 C59 1.435 . S
C622 C316 1.109 . S
C617 C90 1.059 . S
C633 C10 1.355 . S
C638 C238 1.358 1_455 S
