# Generated by pormake.
# Topology zzz, (3,6)-cn, num edge types: 1
# Building blocks:
#     Node 0, Type 0, BuildingBlock: ESEHIV_clean_linker_0, # of connection points: 3
#     Node 1, Type 0, BuildingBlock: ESEHIV_clean_linker_0, # of connection points: 3
#     Node 2, Type 0, BuildingBlock: ESEHIV_clean_linker_0, # of connection points: 3
#     Node 3, Type 0, BuildingBlock: ESEHIV_clean_linker_0, # of connection points: 3
#     Node 4, Type 0, BuildingBlock: ESEHIV_clean_linker_0, # of connection points: 3
#     Node 5, Type 0, BuildingBlock: ESEHIV_clean_linker_0, # of connection points: 3
#     Node 6, Type 0, BuildingBlock: ESEHIV_clean_linker_0, # of connection points: 3
#     Node 7, Type 0, BuildingBlock: ESEHIV_clean_linker_0, # of connection points: 3
#     Node 8, Type 1, BuildingBlock: BETGAK_clean_sbu_0, # of connection points: 6
#     Node 9, Type 1, BuildingBlock: BETGAK_clean_sbu_0, # of connection points: 6
#     Node 10, Type 1, BuildingBlock: BETGAK_clean_sbu_0, # of connection points: 6
#     Node 11, Type 1, BuildingBlock: BETGAK_clean_sbu_0, # of connection points: 6
#     Edge 12, Type (0, 1), BuildingBlock: OJICUG_clean_linker_0, # of connection points: 2
#     Edge 13, Type (0, 1), BuildingBlock: OJICUG_clean_linker_0, # of connection points: 2
#     Edge 14, Type (0, 1), BuildingBlock: OJICUG_clean_linker_0, # of connection points: 2
#     Edge 15, Type (0, 1), BuildingBlock: OJICUG_clean_linker_0, # of connection points: 2
#     Edge 16, Type (0, 1), BuildingBlock: OJICUG_clean_linker_0, # of connection points: 2
#     Edge 17, Type (0, 1), BuildingBlock: OJICUG_clean_linker_0, # of connection points: 2
#     Edge 18, Type (0, 1), BuildingBlock: OJICUG_clean_linker_0, # of connection points: 2
#     Edge 19, Type (0, 1), BuildingBlock: OJICUG_clean_linker_0, # of connection points: 2
#     Edge 20, Type (0, 1), BuildingBlock: OJICUG_clean_linker_0, # of connection points: 2
#     Edge 21, Type (0, 1), BuildingBlock: OJICUG_clean_linker_0, # of connection points: 2
#     Edge 22, Type (0, 1), BuildingBlock: OJICUG_clean_linker_0, # of connection points: 2
#     Edge 23, Type (0, 1), BuildingBlock: OJICUG_clean_linker_0, # of connection points: 2
#     Edge 24, Type (0, 1), BuildingBlock: OJICUG_clean_linker_0, # of connection points: 2
#     Edge 25, Type (0, 1), BuildingBlock: OJICUG_clean_linker_0, # of connection points: 2
#     Edge 26, Type (0, 1), BuildingBlock: OJICUG_clean_linker_0, # of connection points: 2
#     Edge 27, Type (0, 1), BuildingBlock: OJICUG_clean_linker_0, # of connection points: 2
#     Edge 28, Type (0, 1), BuildingBlock: OJICUG_clean_linker_0, # of connection points: 2
#     Edge 29, Type (0, 1), BuildingBlock: OJICUG_clean_linker_0, # of connection points: 2
#     Edge 30, Type (0, 1), BuildingBlock: OJICUG_clean_linker_0, # of connection points: 2
#     Edge 31, Type (0, 1), BuildingBlock: OJICUG_clean_linker_0, # of connection points: 2
#     Edge 32, Type (0, 1), BuildingBlock: OJICUG_clean_linker_0, # of connection points: 2
#     Edge 33, Type (0, 1), BuildingBlock: OJICUG_clean_linker_0, # of connection points: 2
#     Edge 34, Type (0, 1), BuildingBlock: OJICUG_clean_linker_0, # of connection points: 2
#     Edge 35, Type (0, 1), BuildingBlock: OJICUG_clean_linker_0, # of connection points: 2
# Relax obj value: 0.645
# Max RMSD: 0.274
# Mean RMSD: 0.252
data_MOF--net-zzz--node1-BETGAK_clean_sbu_0--node2-ESEHIV_clean_linker_0--edge1-OJICUG_clean_linker_0
_symmetry_space_group_name_H-M    P1
_symmetry_Int_Tables_number       1
_symmetry_cell_setting            triclinic
loop_
_symmetry_equiv_pos_as_xyz
'x, y, z'
_cell_length_a     32.128205
_cell_length_b     32.091493
_cell_length_c     10.396803
_cell_angle_alpha  89.755406
_cell_angle_beta   89.804755
_cell_angle_gamma 90.127637
loop_
_atom_site_label
_atom_site_type_symbol
_atom_site_fract_x
_atom_site_fract_y
_atom_site_fract_z
_atom_type_partial_charge
H0 H 0.82022 0.44489 0.40881 0.0
H1 H 0.70294 0.44647 0.2131 0.0
H2 H 0.7493 0.55821 0.3945 0.0
C3 C 0.7918 0.46092 0.38268 0.0
C4 C 0.78781 0.50274 0.4184 0.0
C5 C 0.76208 0.44076 0.30572 0.0
C6 C 0.72609 0.4623 0.27076 0.0
C7 C 0.72068 0.50466 0.29982 0.0
C8 C 0.75237 0.5254 0.37275 0.0
H9 H 0.09937 0.8151 0.43263 0.0
H10 H 0.09207 0.70202 0.21409 0.0
H11 H 0.98141 0.75414 0.3845 0.0
C12 C 0.08196 0.78843 0.39866 0.0
C13 C 0.03926 0.78717 0.42639 0.0
C14 C 0.10124 0.759 0.31832 0.0
C15 C 0.07748 0.72545 0.27372 0.0
C16 C 0.0344 0.72307 0.29457 0.0
C17 C 1.01478 0.75477 0.36986 0.0
H18 H 0.73127 0.10675 0.41115 0.0
H19 H 0.8488 0.10319 0.2148 0.0
H20 H 0.80205 0.99324 0.40902 0.0
C21 C 0.75967 0.09043 0.38654 0.0
C22 C 0.76363 0.04894 0.42713 0.0
C23 C 0.78953 0.10986 0.3072 0.0
C24 C 0.8255 0.08794 0.27429 0.0
C25 C 0.83074 0.04586 0.30795 0.0
C26 C 0.799 1.02582 0.38349 0.0
H27 H 0.44851 0.73286 0.4217 0.0
H28 H 0.56122 0.80501 0.4087 0.0
H29 H 0.44951 0.85077 0.22609 0.0
C30 C 0.4643 0.76158 0.3958 0.0
C31 C 0.44405 0.79129 0.31864 0.0
C32 C 0.50598 0.76593 0.43212 0.0
C33 C 0.52849 0.80167 0.38663 0.0
C34 C 0.50766 0.83333 0.31338 0.0
C35 C 0.4654 0.82761 0.28392 0.0
H36 H 0.23575 0.61158 0.20306 0.0
H37 H 0.34807 0.60122 0.42005 0.0
H38 H 0.30351 0.49561 0.20226 0.0
C39 C 0.26292 0.59348 0.22963 0.0
C40 C 0.26607 0.55225 0.18665 0.0
C41 C 0.29191 0.61067 0.31491 0.0
C42 C 0.32625 0.58742 0.35297 0.0
C43 C 0.33173 0.54613 0.31293 0.0
C44 C 0.3006 0.52781 0.23145 0.0
H45 H 0.94567 0.23181 0.20713 0.0
H46 H 0.94924 0.34914 0.40326 0.0
H47 H 0.05981 0.30182 0.21741 0.0
C48 C 0.96211 0.26005 0.2331 0.0
C49 C 1.00386 0.26383 0.19547 0.0
C50 C 0.94246 0.28992 0.31093 0.0
C51 C 0.96459 0.32569 0.34544 0.0
C52 C 1.00694 0.33062 0.31512 0.0
C53 C 0.02707 0.29895 0.24071 0.0
H54 H 0.31649 0.94356 0.20495 0.0
H55 H 0.19934 0.94733 0.40348 0.0
H56 H 0.24627 0.05744 0.2105 0.0
C57 C 0.28823 0.96 0.23042 0.0
C58 C 0.28445 1.00161 0.19078 0.0
C59 C 0.25841 0.94055 0.30986 0.0
C60 C 0.22262 0.9626 0.344 0.0
C61 C 0.21748 1.00477 0.31116 0.0
C62 C 0.24923 1.02481 0.23547 0.0
H63 H 0.60629 0.31758 0.19909 0.0
H64 H 0.49287 0.24626 0.20573 0.0
H65 H 0.6027 0.20033 0.39834 0.0
C66 C 0.58997 0.28913 0.22481 0.0
C67 C 0.60938 0.2595 0.30434 0.0
C68 C 0.54854 0.28491 0.18536 0.0
C69 C 0.52542 0.2495 0.23045 0.0
C70 C 0.54541 0.21796 0.30631 0.0
C71 C 0.58746 0.22347 0.33876 0.0
La72 La 0.05674 1.01544 0.88278 0.0
La73 La 0.99051 0.03628 0.73528 0.0
C74 C 0.11136 0.98176 1.02246 0.0
C75 C 0.13392 0.94204 1.01688 0.0
C76 C 0.17643 0.9402 0.04707 0.0
C77 C 0.19617 0.90153 0.06045 0.0
C78 C 0.17357 0.86451 0.04245 0.0
C79 C 0.13235 0.86707 0.99735 0.0
C80 C 0.11268 0.90534 0.98632 0.0
C81 C 0.08282 0.04643 0.65689 0.0
C82 C 1.01797 0.94536 0.69577 0.0
C83 C 0.93529 0.06948 0.59698 0.0
C84 C 0.9118 0.10856 0.60641 0.0
C85 C 0.86922 0.10979 0.57708 0.0
C86 C 0.8486 0.14814 0.56843 0.0
C87 C 0.87043 0.18544 0.59035 0.0
C88 C 0.91168 0.18317 0.63551 0.0
C89 C 0.93221 0.14528 0.64126 0.0
C90 C 0.96488 1.00505 0.96129 0.0
C91 C 0.0288 0.10658 0.92237 0.0
O92 O 0.1199 1.00826 0.93115 0.0
O93 O 0.07135 0.97946 0.04517 0.0
O94 O 0.09537 0.0581 0.76892 0.0
O95 O 0.05314 1.0208 0.67482 0.0
O96 O 0.03849 0.95288 0.8041 0.0
O97 O 0.99993 0.97691 0.63733 0.0
O98 O 0.92731 0.04196 0.68585 0.0
O99 O 0.97528 0.07298 0.57494 0.0
O100 O 0.95222 0.99338 0.84944 0.0
O101 O 0.99425 0.03096 0.94296 0.0
O102 O 1.00809 0.0989 0.81453 0.0
O103 O 0.0475 0.07517 0.97988 0.0
H104 H 0.19367 0.96846 0.06677 0.0
H105 H 0.22805 0.90031 0.09328 0.0
H106 H 0.11354 0.83939 0.98369 0.0
H107 H 0.08 0.90587 0.96232 0.0
H108 H 0.8526 0.08141 0.55434 0.0
H109 H 0.81672 0.14899 0.53535 0.0
H110 H 0.92999 0.21097 0.65254 0.0
H111 H 0.96494 0.1452 0.66436 0.0
La112 La 0.5332 0.0592 0.88173 0.0
La113 La 0.51488 0.99167 0.73497 0.0
C114 C 0.56536 0.11488 1.02024 0.0
C115 C 0.60534 0.13708 1.01356 0.0
C116 C 0.60752 0.18018 0.03518 0.0
C117 C 0.64631 0.20008 0.04314 0.0
C118 C 0.68311 0.17705 1.02733 0.0
C119 C 0.68018 0.13481 0.99223 0.0
C120 C 0.64186 0.11501 0.9875 0.0
C121 C 0.5028 0.08363 0.65442 0.0
C122 C 0.60535 1.0221 0.69717 0.0
C123 C 0.48288 0.93585 0.59657 0.0
C124 C 0.44291 0.91359 0.60189 0.0
C125 C 0.44088 0.87052 0.57945 0.0
C126 C 0.40216 0.85054 0.57004 0.0
C127 C 0.36526 0.87344 0.58532 0.0
C128 C 0.368 0.91569 0.62065 0.0
C129 C 0.40627 0.93556 0.62704 0.0
C130 C 0.54609 0.96755 0.96127 0.0
C131 C 0.44272 0.02867 0.91967 0.0
O132 O 0.53962 0.12274 0.92704 0.0
O133 O 0.56712 0.07501 0.04643 0.0
O134 O 0.49024 0.09629 0.76568 0.0
O135 O 0.52897 0.05471 0.67415 0.0
O136 O 0.59648 0.04322 0.80357 0.0
O137 O 0.57493 1.00195 0.63982 0.0
O138 O 0.50832 0.92806 0.69064 0.0
O139 O 0.48121 0.9757 0.56994 0.0
O140 O 0.55839 0.9549 0.84976 0.0
O141 O 0.51944 0.99611 0.94234 0.0
O142 O 0.4516 1.00757 0.81326 0.0
O143 O 0.47312 0.04892 0.97679 0.0
H144 H 0.57943 0.19794 0.05184 0.0
H145 H 0.64775 0.23261 0.06979 0.0
H146 H 0.70766 0.11563 0.98143 0.0
H147 H 0.64116 0.08179 0.97094 0.0
H148 H 0.46906 0.85283 0.56347 0.0
H149 H 0.40086 0.81802 0.54329 0.0
H150 H 0.34043 0.93478 0.63099 0.0
H151 H 0.40686 0.96874 0.6444 0.0
La152 La 0.49387 0.53395 0.87842 0.0
La153 La 0.55975 0.51517 0.72747 0.0
C154 C 0.43939 0.5662 1.02148 0.0
C155 C 0.41712 0.60602 1.01645 0.0
C156 C 0.37429 0.60781 0.04266 0.0
C157 C 0.35446 0.64645 0.05365 0.0
C158 C 0.37732 0.68347 0.03715 0.0
C159 C 0.41907 0.681 0.99649 0.0
C160 C 0.43883 0.64277 0.98824 0.0
C161 C 0.46735 0.50419 0.65273 0.0
C162 C 0.53116 0.6062 0.69356 0.0
C163 C 0.6144 0.48278 0.58526 0.0
C164 C 0.63701 0.44312 0.59267 0.0
C165 C 0.68005 0.4415 0.56933 0.0
C166 C 0.70031 0.40293 0.56208 0.0
C167 C 0.67771 0.36581 0.58008 0.0
C168 C 0.6356 0.36827 0.61731 0.0
C169 C 0.61544 0.40635 0.62145 0.0
C170 C 0.58595 0.54499 0.95327 0.0
C171 C 0.52277 0.44303 0.91385 0.0
O172 O 0.43079 0.54027 0.92954 0.0
O173 O 0.47939 0.56823 0.04372 0.0
O174 O 0.45541 0.49155 0.76498 0.0
O175 O 0.49675 0.53013 0.67003 0.0
O176 O 0.51078 0.5974 0.80181 0.0
O177 O 0.5499 0.57547 0.63341 0.0
O178 O 0.62283 0.50937 0.67555 0.0
O179 O 0.57439 0.48032 0.5634 0.0
O180 O 0.5981 0.55762 0.84123 0.0
O181 O 0.55675 0.51891 0.93549 0.0
O182 O 0.54335 0.45177 0.80584 0.0
O183 O 0.50361 0.47373 0.97284 0.0
H184 H 0.35678 0.57954 0.06096 0.0
H185 H 0.32225 0.64758 0.08374 0.0
H186 H 0.43804 0.70872 0.98467 0.0
H187 H 0.47183 0.6423 0.96798 0.0
H188 H 0.69746 0.46981 0.55075 0.0
H189 H 0.73276 0.40186 0.53413 0.0
H190 H 0.61671 0.34055 0.63015 0.0
H191 H 0.5823 0.40662 0.63964 0.0
La192 La 1.0172 0.49759 0.87739 0.0
La193 La 0.03761 0.55972 0.71264 0.0
C194 C 0.98379 0.44581 1.02878 0.0
C195 C 0.94528 0.42117 1.02102 0.0
C196 C 0.9455 0.37825 0.04795 0.0
C197 C 0.90798 0.35597 0.0541 0.0
C198 C 0.87001 0.37642 1.03234 0.0
C199 C 0.87078 0.41834 0.99146 0.0
C200 C 0.90785 0.4405 0.98766 0.0
C201 C 0.04712 0.4665 0.65635 0.0
C202 C 0.94644 0.53001 0.68277 0.0
C203 C 0.06952 0.60769 0.54744 0.0
C204 C 0.10348 0.63776 0.53504 0.0
C205 C 0.1195 0.65952 0.6409 0.0
C206 C 0.15524 0.68421 0.62622 0.0
C207 C 0.17522 0.68715 0.50573 0.0
C208 C 0.15634 0.66801 0.39869 0.0
C209 C 0.12132 0.64319 0.41385 0.0
C210 C 1.00554 0.59212 0.92783 0.0
C211 C 0.10811 0.52813 0.91145 0.0
O212 O 1.01255 0.43601 0.94613 0.0
O213 O 0.97957 0.4862 0.03906 0.0
O214 O 0.05896 0.45607 0.77044 0.0
O215 O 1.02158 0.49619 0.66917 0.0
O216 O 0.9542 0.51272 0.79649 0.0
O217 O 0.97808 0.5461 0.61868 0.0
O218 O 0.03862 0.61807 0.62201 0.0
O219 O 0.08013 0.56863 0.5611 0.0
O220 O 0.99636 0.60282 0.81176 0.0
O221 O 0.03131 0.56211 0.92125 0.0
O222 O 0.10018 0.54748 0.80088 0.0
O223 O 0.07709 0.50925 0.97115 0.0
H224 H 0.97438 0.3625 0.07007 0.0
H225 H 0.90826 0.32368 0.08439 0.0
H226 H 0.84235 0.43563 0.97519 0.0
H227 H 0.90674 0.47344 0.96587 0.0
H228 H 0.10576 0.6557 0.73554 0.0
H229 H 0.16908 0.69823 0.71052 0.0
H230 H 0.17061 0.66868 0.30421 0.0
H231 H 0.10937 0.62658 0.33121 0.0
C232 C 0.18457 0.05653 0.46456 0.0
C233 C 0.17986 1.02579 0.36961 0.0
H234 H 0.15776 0.08739 0.62833 0.0
C235 C 0.14024 1.00679 0.35841 0.0
H236 H 0.21462 0.07115 0.47867 0.0
C237 C 0.10764 1.01567 0.44515 0.0
C238 C 0.1135 0.04381 0.54685 0.0
H239 H 0.13555 0.98227 0.2888 0.0
H240 H 0.07879 0.99832 0.43768 0.0
C241 C 0.15191 0.06541 0.55169 0.0
C242 C 0.49304 0.18486 0.45907 0.0
C243 C 0.52438 0.18024 0.36542 0.0
H244 H 0.46139 0.15809 0.62252 0.0
C245 C 0.54367 0.14077 0.3559 0.0
H246 H 0.47814 0.21481 0.47182 0.0
C247 C 0.53447 0.10826 0.44312 0.0
C248 C 0.50571 0.11408 0.54368 0.0
H249 H 0.56864 0.13617 0.28736 0.0
H250 H 0.55205 0.07957 0.43702 0.0
C251 C 0.48384 0.15229 0.54677 0.0
C252 C 0.36504 0.49391 0.4648 0.0
C253 C 0.36947 0.52455 0.36853 0.0
H254 H 0.39229 0.46317 0.62842 0.0
C255 C 0.409 0.54373 0.35557 0.0
H256 H 0.33503 0.4793 0.48077 0.0
C257 C 0.44181 0.53501 0.44134 0.0
C258 C 0.43629 0.50686 0.54403 0.0
H259 H 0.41339 0.56844 0.28569 0.0
H260 H 0.47055 0.55251 0.43235 0.0
C261 C 0.39793 0.48514 0.55091 0.0
C262 C 1.01017 0.40791 0.35797 0.0
C263 C 0.02798 0.368 0.3744 0.0
H264 H 1.00222 0.46996 0.43148 0.0
C265 C 0.05693 0.36302 0.47455 0.0
H266 H 0.98687 0.41277 0.28463 0.0
C267 C 0.06531 0.39591 0.5609 0.0
C268 C 0.04494 0.43478 0.54987 0.0
H269 H 0.07046 0.33269 0.4928 0.0
H270 H 0.08588 0.38999 0.6412 0.0
C271 C 1.01857 0.44073 0.44372 0.0
C272 C 0.90791 0.04396 0.26104 0.0
C273 C 0.86836 1.02484 0.24996 0.0
H274 H 0.96918 0.0528 0.18098 0.0
C275 C 0.86364 0.99412 0.15501 0.0
H276 H 0.91256 0.06848 0.33069 0.0
C277 C 0.89621 0.98545 0.06744 0.0
C278 C 0.93448 1.00727 0.07191 0.0
H279 H 0.83363 0.97941 0.1411 0.0
H280 H 0.89035 0.96352 0.99066 0.0
C281 C 0.94042 0.0353 0.17382 0.0
C282 C 0.55871 0.86691 0.15757 0.0
C283 C 0.52794 0.87124 0.2531 0.0
H284 H 0.58884 0.89385 0.99174 0.0
C285 C 0.50821 0.91048 0.26341 0.0
H286 H 0.57392 0.83715 0.14421 0.0
C287 C 0.51631 0.94295 0.1751 0.0
C288 C 0.5444 0.93733 0.07274 0.0
H289 H 0.48361 0.91484 0.33333 0.0
H290 H 0.49836 0.9714 0.18188 0.0
C291 C 0.56684 0.89946 0.06885 0.0
C292 C 0.64355 0.50556 0.25152 0.0
C293 C 0.68295 0.52508 0.24001 0.0
H294 H 0.58235 0.49641 0.17273 0.0
C295 C 0.68745 0.55596 0.14448 0.0
H296 H 0.63901 0.48091 0.3215 0.0
C297 C 0.65482 0.56453 0.05729 0.0
C298 C 0.61666 0.54246 0.0627 0.0
H299 H 0.71732 0.57102 0.13011 0.0
H300 H 0.66051 0.58668 0.98033 0.0
C301 C 0.61099 0.51412 0.16479 0.0
C302 C 1.02141 0.64692 0.25176 0.0
C303 C 1.01254 0.68889 0.22187 0.0
H304 H 0.02735 0.58367 0.18454 0.0
C305 C 0.99596 0.6973 0.09955 0.0
H306 H 0.03426 0.63942 0.3442 0.0
C307 C 0.99122 0.6653 1.00795 0.0
C308 C 1.00387 0.62392 1.03433 0.0
H309 H 0.98988 0.72919 0.07086 0.0
H310 H 0.98017 0.67372 0.91305 0.0
C311 C 1.01768 0.61497 0.15949 0.0
C312 C 0.87455 0.25112 0.31733 0.0
C313 C 0.90208 0.27957 0.37477 0.0
H314 H 0.83882 0.19647 0.34975 0.0
C315 C 0.89612 0.28885 0.50606 0.0
H316 H 0.87551 0.24558 0.21466 0.0
C317 C 0.87183 0.26237 0.58251 0.0
C318 C 0.85717 0.22502 0.52906 0.0
H319 H 0.9149 0.31194 0.55448 0.0
H320 H 0.87368 0.26566 0.68605 0.0
C321 C 0.85197 0.22365 0.39504 0.0
C322 C 0.26082 0.89617 0.50861 0.0
C323 C 0.2689 0.90061 0.37583 0.0
H324 H 0.28617 0.87705 0.68874 0.0
C325 C 0.29727 0.8729 0.31884 0.0
H326 H 0.2379 0.91521 0.55694 0.0
C327 C 0.32587 0.85204 0.39634 0.0
C328 C 0.32547 0.85892 0.52963 0.0
H329 H 0.30205 0.87285 0.21565 0.0
H330 H 0.35293 0.83891 0.35011 0.0
C331 C 0.28848 0.87367 0.58528 0.0
C332 C 0.67685 0.29889 0.31245 0.0
C333 C 0.64906 0.27045 0.37006 0.0
H334 H 0.71177 0.35402 0.34345 0.0
C335 C 0.6538 0.26186 0.50237 0.0
H336 H 0.67672 0.30399 0.20939 0.0
C337 C 0.67709 0.28896 0.57856 0.0
C338 C 0.69206 0.3261 0.52326 0.0
H339 H 0.63469 0.23888 0.55106 0.0
H340 H 0.67412 0.28627 0.68214 0.0
C341 C 0.6985 0.32689 0.38965 0.0
C342 C 0.27646 0.64818 0.51699 0.0
C343 C 0.28132 0.64954 0.38271 0.0
H344 H 0.23752 0.66575 0.67312 0.0
C345 C 0.26448 0.68329 0.31446 0.0
H346 H 0.29036 0.62341 0.57334 0.0
C347 C 0.23572 0.70918 0.37472 0.0
C348 C 0.22025 0.69735 0.49629 0.0
H349 H 0.269 0.68611 0.21149 0.0
H350 H 0.21831 0.73017 0.31428 0.0
C351 C 0.24633 0.67315 0.57497 0.0
C352 C 0.1494 0.76008 0.12707 0.0
C353 C 0.14247 0.76908 0.25829 0.0
H354 H 0.17125 0.78438 0.94776 0.0
C355 C 0.16902 0.79837 0.3166 0.0
H356 H 0.13181 0.7364 0.0773 0.0
C357 C 0.19088 0.82672 0.23982 0.0
C358 C 0.18638 0.82516 0.10562 0.0
H359 H 0.16796 0.80361 0.41937 0.0
H360 H 0.20329 0.85422 0.28561 0.0
C361 C 0.17274 0.78759 0.05138 0.0
C362 C 0.78729 0.15368 0.10709 0.0
C363 C 0.77889 0.14947 0.23977 0.0
H364 H 0.76252 0.17275 0.9261 0.0
C365 C 0.75037 0.17723 0.29571 0.0
H366 H 0.8103 0.13453 0.05959 0.0
C367 C 0.72206 0.19805 0.21729 0.0
C368 C 0.72287 0.19121 0.08404 0.0
H369 H 0.74529 0.1774 0.39877 0.0
H370 H 0.69479 0.21095 0.2627 0.0
C371 C 0.75993 0.17621 1.02948 0.0
C372 C 0.39915 0.78859 0.12214 0.0
C373 C 0.40423 0.77998 0.25431 0.0
H374 H 0.38024 0.76358 0.9416 0.0
C375 C 0.37789 0.75009 0.31117 0.0
H376 H 0.41711 0.8126 0.07404 0.0
C377 C 0.35871 0.72057 0.23345 0.0
C378 C 0.36407 0.72257 0.09949 0.0
H379 H 0.37835 0.74472 0.4141 0.0
H380 H 0.34823 0.69215 0.27918 0.0
C381 C 0.37753 0.76041 0.04512 0.0
C382 C 0.76498 0.39569 0.10953 0.0
C383 C 0.77309 0.40076 0.24181 0.0
H384 H 0.79065 0.3766 0.92977 0.0
C385 C 0.80203 0.3738 0.2995 0.0
H386 H 0.74155 0.41398 0.06082 0.0
C387 C 0.8312 0.35364 0.22233 0.0
C388 C 0.83068 0.36035 0.08876 0.0
H389 H 0.80683 0.3741 0.40258 0.0
H390 H 0.85868 0.34166 0.26876 0.0
C391 C 0.79316 0.37365 1.03335 0.0
C392 C 1.00494 0.22243 0.98929 0.0
C393 C 1.02069 0.22851 0.11446 0.0
H394 H 0.99541 0.18073 0.83107 0.0
C395 C 0.04184 0.1948 0.17167 0.0
H396 H 0.98724 0.24701 0.94338 0.0
C397 C 0.04585 0.15609 0.1077 0.0
C398 C 0.02846 0.14945 0.9845 0.0
H399 H 0.05302 0.1975 0.26946 0.0
H400 H 0.06108 0.13071 0.15768 0.0
C401 C 1.00898 0.18386 0.92536 0.0
C402 C 0.35195 0.0426 0.16189 0.0
C403 C 0.31988 1.01824 0.10833 0.0
H404 H 0.41505 0.06505 0.14616 0.0
C405 C 0.32785 0.99992 0.9874 0.0
H406 H 0.34786 0.05596 0.25656 0.0
C407 C 0.36668 1.00454 0.92449 0.0
C408 C 0.39949 0.02736 0.98026 0.0
H409 H 0.30461 0.97984 0.94451 0.0
H410 H 0.37138 0.98872 0.83415 0.0
C411 C 0.39094 0.04722 0.09886 0.0
C412 C 0.50837 0.35262 0.15767 0.0
C413 C 0.53192 0.32017 0.10298 0.0
H414 H 0.48696 0.41601 0.14261 0.0
C415 C 0.5498 0.32774 0.98074 0.0
H416 H 0.49543 0.34882 0.25334 0.0
C417 C 0.54554 0.36658 0.91753 0.0
C418 C 0.52359 0.39977 0.97444 0.0
H419 H 0.56932 0.30419 0.93701 0.0
H420 H 0.56098 0.37098 0.82609 0.0
C421 C 0.50414 0.3916 0.09441 0.0
C422 C 0.19864 0.51165 0.15209 0.0
C423 C 0.23058 0.53724 0.10204 0.0
H424 H 0.13582 0.4888 0.13349 0.0
C425 C 0.22246 0.55772 0.98397 0.0
H426 H 0.20276 0.49655 0.24452 0.0
C427 C 0.18375 0.55372 0.92031 0.0
C428 C 0.15113 0.5295 0.97294 0.0
H429 H 0.24555 0.57879 0.94389 0.0
H430 H 0.17889 0.57106 0.83206 0.0
C431 C 0.15975 0.50781 0.0888 0.0
C432 C 1.00242 0.85685 0.44917 0.0
C433 C 1.02304 0.82291 0.50681 0.0
H434 H 0.98465 0.92137 0.46188 0.0
C435 C 0.03904 0.82894 0.63181 0.0
H436 H 0.99101 0.85414 0.35165 0.0
C437 C 0.0361 0.86777 0.69467 0.0
C438 C 1.01732 0.90239 0.63478 0.0
H439 H 0.05623 0.80409 0.67819 0.0
H440 H 0.05001 0.87092 0.78857 0.0
C441 C 0.99945 0.8958 0.51219 0.0
C442 C 0.72033 0.05042 0.63043 0.0
C443 C 0.72822 0.03227 0.50927 0.0
H444 H 0.67683 0.06153 0.78371 0.0
C445 C 0.69606 1.00815 0.45516 0.0
H446 H 0.74364 0.07034 0.67365 0.0
C447 C 0.65705 1.00361 0.51797 0.0
C448 C 0.64858 1.02331 0.63683 0.0
H449 H 0.70013 0.99495 0.36026 0.0
H450 H 0.63287 0.98597 0.4703 0.0
C451 C 0.68147 0.04587 0.69312 0.0
C452 C 0.50724 0.72272 0.6357 0.0
C453 C 0.52336 0.73026 0.51116 0.0
H454 H 0.49705 0.67914 0.7901 0.0
C455 C 0.54482 0.69724 0.45159 0.0
H456 H 0.48922 0.74668 0.68324 0.0
C457 C 0.5487 0.65783 0.51248 0.0
C458 C 0.53086 0.64974 0.63481 0.0
H459 H 0.55623 0.70101 0.35407 0.0
H460 H 0.56419 0.63307 0.46068 0.0
C461 C 0.51109 0.68342 0.69648 0.0
C462 C 0.83025 0.50513 0.62288 0.0
C463 C 0.82349 0.52021 0.49681 0.0
H464 H 0.87285 0.49644 0.77971 0.0
C465 C 0.85699 0.54097 0.43627 0.0
H466 H 0.80591 0.48762 0.67132 0.0
C467 C 0.89605 0.54534 0.49796 0.0
C468 C 0.90331 0.52879 0.62233 0.0
H469 H 0.85384 0.55155 0.33773 0.0
H470 H 0.92115 0.56035 0.44554 0.0
C471 C 0.86918 0.50959 0.68466 0.0
loop_
_geom_bond_atom_site_label_1
_geom_bond_atom_site_label_2
_geom_bond_distance
_geom_bond_site_symmetry_2
_ccdc_geom_bond_type
H0 C3 0.931 . S
H1 C6 0.928 . S
H2 C8 0.930 . S
C3 H0 0.931 . S
C3 C4 1.413 . S
C3 C5 1.360 . S
C4 C3 1.413 . S
C4 C8 1.429 . S
C5 C3 1.360 . S
C5 C6 1.372 . S
C6 H1 0.928 . S
C6 C5 1.372 . S
C6 C7 1.404 . S
C7 C6 1.404 . S
C7 C8 1.391 . S
C8 H2 0.930 . S
C8 C4 1.429 . S
C8 C7 1.391 . S
H9 C12 0.931 . S
H10 C15 0.928 . S
H11 C17 0.930 . S
C12 H9 0.931 . S
C12 C13 1.413 . S
C12 C14 1.360 . S
C13 C12 1.413 . S
C13 C17 1.429 1_655 S
C14 C12 1.360 . S
C14 C15 1.372 . S
C15 H10 0.928 . S
C15 C14 1.372 . S
C15 C16 1.404 . S
C16 C15 1.404 . S
C16 C17 1.390 1_655 S
C17 H11 0.930 . S
C17 C13 1.429 1_455 S
C17 C16 1.390 1_455 S
H18 C21 0.931 . S
H19 C24 0.928 . S
H20 C26 0.930 . S
C21 H18 0.931 . S
C21 C22 1.413 . S
C21 C23 1.360 . S
C22 C21 1.413 . S
C22 C26 1.429 1_565 S
C23 C21 1.360 . S
C23 C24 1.372 . S
C24 H19 0.928 . S
C24 C23 1.372 . S
C24 C25 1.404 . S
C25 C24 1.404 . S
C25 C26 1.390 1_565 S
C26 H20 0.930 . S
C26 C22 1.429 1_545 S
C26 C25 1.390 1_545 S
H27 C30 0.931 . S
H28 C33 0.928 . S
H29 C35 0.930 . S
C30 H27 0.931 . S
C30 C31 1.413 . S
C30 C32 1.360 . S
C31 C30 1.413 . S
C31 C35 1.429 . S
C32 C30 1.360 . S
C32 C33 1.372 . S
C33 H28 0.928 . S
C33 C32 1.372 . S
C33 C34 1.404 . S
C34 C33 1.404 . S
C34 C35 1.391 . S
C35 H29 0.930 . S
C35 C31 1.429 . S
C35 C34 1.391 . S
H36 C39 0.931 1_556 S
H37 C42 0.928 . S
H38 C44 0.930 . S
C39 H36 0.931 1_554 S
C39 C40 1.413 1_554 S
C39 C41 1.360 . S
C40 C39 1.413 1_556 S
C40 C44 1.429 . S
C41 C39 1.360 . S
C41 C42 1.372 . S
C42 H37 0.928 . S
C42 C41 1.372 . S
C42 C43 1.404 . S
C43 C42 1.404 . S
C43 C44 1.391 1_554 S
C44 H38 0.930 . S
C44 C40 1.429 . S
C44 C43 1.391 1_556 S
H45 C48 0.930 1_556 S
H46 C51 0.928 . S
H47 C53 0.930 . S
C48 H45 0.930 1_554 S
C48 C49 1.413 1_554 S
C48 C50 1.360 . S
C49 C48 1.413 1_556 S
C49 C53 1.429 1_655 S
C50 C48 1.360 . S
C50 C51 1.372 . S
C51 H46 0.928 . S
C51 C50 1.372 . S
C51 C52 1.404 . S
C52 C51 1.404 . S
C52 C53 1.391 1_654 S
C53 H47 0.930 . S
C53 C49 1.429 1_455 S
C53 C52 1.391 1_456 S
H54 C57 0.931 1_556 S
H55 C60 0.928 . S
H56 C62 0.930 . S
C57 H54 0.931 1_554 S
C57 C58 1.413 1_554 S
C57 C59 1.360 . S
C58 C57 1.413 1_556 S
C58 C62 1.429 1_565 S
C59 C57 1.360 . S
C59 C60 1.372 . S
C60 H55 0.928 . S
C60 C59 1.372 . S
C60 C61 1.404 . S
C61 C60 1.404 . S
C61 C62 1.391 1_564 S
C62 H56 0.930 . S
C62 C58 1.429 1_545 S
C62 C61 1.391 1_546 S
H63 C66 0.931 1_556 S
H64 C69 0.928 . S
H65 C71 0.930 . S
C66 H63 0.931 1_554 S
C66 C67 1.413 . S
C66 C68 1.360 1_554 S
C67 C66 1.413 . S
C67 C71 1.429 . S
C68 C66 1.360 1_556 S
C68 C69 1.372 . S
C69 H64 0.928 . S
C69 C68 1.372 . S
C69 C70 1.404 1_556 S
C70 C69 1.404 1_554 S
C70 C71 1.391 . S
C71 H65 0.930 . S
C71 C67 1.429 . S
C71 C70 1.391 . S
La72 C74 2.928 1_556 S
La72 O92 2.521 . S
La72 O93 2.628 1_556 S
La72 O94 2.554 . S
La72 O95 2.757 1_565 S
La72 O96 2.470 . S
La72 O101 2.482 1_455 S
La72 O103 2.503 1_565 S
La73 C83 2.928 . S
La73 O95 2.482 1_655 S
La73 O97 2.503 1_545 S
La73 O98 2.521 . S
La73 O99 2.628 . S
La73 O100 2.554 . S
La73 O101 2.757 1_545 S
La73 O102 2.470 . S
C74 La72 2.928 1_554 S
C74 C75 1.503 . S
C74 O92 1.261 1_554 S
C74 O93 1.243 . S
C75 C74 1.503 . S
C75 C76 1.394 . S
C75 C80 1.373 . S
C76 C75 1.394 . S
C76 C77 1.380 . S
C76 H104 0.930 . S
C77 C76 1.380 . S
C77 C78 1.376 . S
C77 H105 0.930 . S
C78 C77 1.376 . S
C78 C79 1.370 . S
C79 C78 1.370 . S
C79 C80 1.396 . S
C79 H106 0.929 . S
C80 C75 1.373 . S
C80 C79 1.396 . S
C80 H107 0.929 . S
C81 O94 1.240 . S
C81 O95 1.289 1_565 S
C82 O96 1.258 1_655 S
C82 O97 1.256 . S
C83 La73 2.928 . S
C83 C84 1.503 . S
C83 O98 1.261 . S
C83 O99 1.243 . S
C84 C83 1.503 . S
C84 C85 1.394 . S
C84 C89 1.373 . S
C85 C84 1.394 . S
C85 C86 1.380 . S
C85 H108 0.930 . S
C86 C85 1.380 . S
C86 C87 1.376 . S
C86 H109 0.930 . S
C87 C86 1.376 . S
C87 C88 1.370 . S
C88 C87 1.370 . S
C88 C89 1.396 . S
C88 H110 0.929 . S
C89 C84 1.373 . S
C89 C88 1.396 . S
C89 H111 0.929 . S
C90 O100 1.240 . S
C90 O101 1.289 1_545 S
C91 O102 1.258 1_455 S
C91 O103 1.256 . S
O92 La72 2.521 . S
O92 C74 1.261 1_556 S
O93 La72 2.628 1_554 S
O93 C74 1.243 . S
O94 La72 2.554 . S
O94 C81 1.240 . S
O95 La72 2.757 1_545 S
O95 La73 2.482 1_455 S
O95 C81 1.289 1_545 S
O96 La72 2.470 . S
O96 C82 1.258 1_455 S
O97 La73 2.503 1_565 S
O97 C82 1.256 . S
O98 La73 2.521 . S
O98 C83 1.261 . S
O99 La73 2.628 . S
O99 C83 1.243 . S
O100 La73 2.554 . S
O100 C90 1.240 . S
O101 La72 2.482 1_655 S
O101 La73 2.757 1_565 S
O101 C90 1.289 1_565 S
O102 La73 2.470 . S
O102 C91 1.258 1_655 S
O103 La72 2.503 1_545 S
O103 C91 1.256 . S
H104 C76 0.930 . S
H105 C77 0.930 . S
H106 C79 0.929 . S
H107 C80 0.929 . S
H108 C85 0.930 . S
H109 C86 0.930 . S
H110 C88 0.929 . S
H111 C89 0.929 . S
La112 C114 2.928 1_556 S
La112 O132 2.521 . S
La112 O133 2.628 1_556 S
La112 O134 2.554 . S
La112 O135 2.757 . S
La112 O136 2.470 . S
La112 O141 2.482 1_545 S
La112 O143 2.503 . S
La113 C123 2.928 . S
La113 O135 2.482 1_565 S
La113 O137 2.503 . S
La113 O138 2.521 . S
La113 O139 2.628 . S
La113 O140 2.554 . S
La113 O141 2.757 . S
La113 O142 2.470 . S
C114 La112 2.928 1_554 S
C114 C115 1.503 . S
C114 O132 1.261 1_554 S
C114 O133 1.243 . S
C115 C114 1.503 . S
C115 C116 1.394 . S
C115 C120 1.373 . S
C116 C115 1.394 . S
C116 C117 1.380 . S
C116 H144 0.930 . S
C117 C116 1.380 . S
C117 C118 1.376 . S
C117 H145 0.930 . S
C118 C117 1.376 . S
C118 C119 1.370 . S
C119 C118 1.370 . S
C119 C120 1.396 . S
C119 H146 0.929 . S
C120 C115 1.373 . S
C120 C119 1.396 . S
C120 H147 0.929 . S
C121 O134 1.240 . S
C121 O135 1.289 . S
C122 O136 1.258 1_565 S
C122 O137 1.256 . S
C123 La113 2.928 . S
C123 C124 1.503 . S
C123 O138 1.261 . S
C123 O139 1.243 . S
C124 C123 1.503 . S
C124 C125 1.394 . S
C124 C129 1.373 . S
C125 C124 1.394 . S
C125 C126 1.380 . S
C125 H148 0.930 . S
C126 C125 1.380 . S
C126 C127 1.376 . S
C126 H149 0.930 . S
C127 C126 1.376 . S
C127 C128 1.370 . S
C128 C127 1.370 . S
C128 C129 1.396 . S
C128 H150 0.929 . S
C129 C124 1.373 . S
C129 C128 1.396 . S
C129 H151 0.956 . S
C130 O140 1.240 . S
C130 O141 1.289 . S
C131 O142 1.258 1_545 S
C131 O143 1.256 . S
O132 La112 2.521 . S
O132 C114 1.261 1_556 S
O133 La112 2.628 1_554 S
O133 C114 1.243 . S
O134 La112 2.554 . S
O134 C121 1.240 . S
O135 La112 2.757 . S
O135 La113 2.482 1_545 S
O135 C121 1.289 . S
O136 La112 2.470 . S
O136 C122 1.258 1_545 S
O137 La113 2.503 . S
O137 C122 1.256 . S
O138 La113 2.521 . S
O138 C123 1.261 . S
O139 La113 2.628 . S
O139 C123 1.243 . S
O140 La113 2.554 . S
O140 C130 1.240 . S
O141 La112 2.482 1_565 S
O141 La113 2.757 . S
O141 C130 1.289 . S
O142 La113 2.470 . S
O142 C131 1.258 1_565 S
O143 La112 2.503 . S
O143 C131 1.256 . S
H144 C116 0.930 . S
H145 C117 0.930 . S
H146 C119 0.929 . S
H147 C120 0.929 . S
H148 C125 0.930 . S
H149 C126 0.930 . S
H150 C128 0.929 . S
H151 C129 0.956 . S
La152 C154 2.928 1_556 S
La152 O172 2.521 . S
La152 O173 2.628 1_556 S
La152 O174 2.554 . S
La152 O175 2.757 . S
La152 O176 2.470 . S
La152 O181 2.482 . S
La152 O183 2.503 . S
La153 C163 2.928 . S
La153 O175 2.482 . S
La153 O177 2.503 . S
La153 O178 2.521 . S
La153 O179 2.628 . S
La153 O180 2.554 . S
La153 O181 2.757 . S
La153 O182 2.470 . S
C154 La152 2.928 1_554 S
C154 C155 1.503 . S
C154 O172 1.261 1_554 S
C154 O173 1.243 . S
C155 C154 1.503 . S
C155 C156 1.394 . S
C155 C160 1.373 . S
C156 C155 1.394 . S
C156 C157 1.380 . S
C156 H184 0.930 . S
C157 C156 1.380 . S
C157 C158 1.376 . S
C157 H185 0.930 . S
C158 C157 1.376 . S
C158 C159 1.370 . S
C159 C158 1.370 . S
C159 C160 1.396 . S
C159 H186 0.929 . S
C160 C155 1.373 . S
C160 C159 1.396 . S
C160 H187 0.929 . S
C161 O174 1.240 . S
C161 O175 1.289 . S
C162 O176 1.258 . S
C162 O177 1.256 . S
C163 La153 2.928 . S
C163 C164 1.503 . S
C163 O178 1.261 . S
C163 O179 1.243 . S
C164 C163 1.503 . S
C164 C165 1.394 . S
C164 C169 1.373 . S
C165 C164 1.394 . S
C165 C166 1.380 . S
C165 H188 0.930 . S
C166 C165 1.380 . S
C166 C167 1.376 . S
C166 H189 0.930 . S
C167 C166 1.376 . S
C167 C168 1.370 . S
C168 C167 1.370 . S
C168 C169 1.396 . S
C168 H190 0.929 . S
C169 C164 1.373 . S
C169 C168 1.396 . S
C169 H191 0.929 . S
C170 O180 1.240 . S
C170 O181 1.289 . S
C171 O182 1.258 . S
C171 O183 1.256 . S
O172 La152 2.521 . S
O172 C154 1.261 1_556 S
O173 La152 2.628 1_554 S
O173 C154 1.243 . S
O174 La152 2.554 . S
O174 C161 1.240 . S
O175 La152 2.757 . S
O175 La153 2.482 . S
O175 C161 1.289 . S
O176 La152 2.470 . S
O176 C162 1.258 . S
O177 La153 2.503 . S
O177 C162 1.256 . S
O178 La153 2.521 . S
O178 C163 1.261 . S
O179 La153 2.628 . S
O179 C163 1.243 . S
O180 La153 2.554 . S
O180 C170 1.240 . S
O181 La152 2.482 . S
O181 La153 2.757 . S
O181 C170 1.289 . S
O182 La153 2.470 . S
O182 C171 1.258 . S
O183 La152 2.503 . S
O183 C171 1.256 . S
H184 C156 0.930 . S
H185 C157 0.930 . S
H186 C159 0.929 . S
H187 C160 0.929 . S
H188 C165 0.930 . S
H189 C166 0.930 . S
H190 C168 0.929 . S
H191 C169 0.929 . S
La192 C194 2.928 1_556 S
La192 O212 2.521 . S
La192 O213 2.628 1_556 S
La192 O214 2.554 . S
La192 O215 2.757 1_655 S
La192 O216 2.470 . S
La192 O221 2.482 . S
La192 O223 2.503 1_655 S
La193 C203 2.928 . S
La193 O215 2.482 . S
La193 O217 2.503 1_455 S
La193 O218 2.521 . S
La193 O219 2.628 . S
La193 O220 2.554 . S
La193 O221 2.757 1_455 S
La193 O222 2.470 . S
C194 La192 2.928 1_554 S
C194 C195 1.503 . S
C194 O212 1.261 1_554 S
C194 O213 1.243 . S
C195 C194 1.503 . S
C195 C196 1.394 . S
C195 C200 1.373 . S
C196 C195 1.394 . S
C196 C197 1.380 . S
C196 H224 0.930 . S
C197 C196 1.380 . S
C197 C198 1.376 . S
C197 H225 0.930 . S
C198 C197 1.376 . S
C198 C199 1.370 . S
C199 C198 1.370 . S
C199 C200 1.396 . S
C199 H226 0.929 . S
C200 C195 1.373 . S
C200 C199 1.396 . S
C200 H227 0.929 . S
C201 O214 1.240 1_455 S
C201 O215 1.289 . S
C202 O216 1.258 . S
C202 O217 1.256 . S
C203 La193 2.928 . S
C203 C204 1.503 . S
C203 O218 1.261 . S
C203 O219 1.243 . S
C204 C203 1.503 . S
C204 C205 1.394 . S
C204 C209 1.373 . S
C205 C204 1.394 . S
C205 C206 1.380 . S
C205 H228 0.930 . S
C206 C205 1.380 . S
C206 C207 1.376 . S
C206 H229 0.930 . S
C207 C206 1.376 . S
C207 C208 1.370 . S
C208 C207 1.370 . S
C208 C209 1.396 . S
C208 H230 0.929 . S
C209 C204 1.373 . S
C209 C208 1.396 . S
C209 H231 0.929 . S
C210 O220 1.240 . S
C210 O221 1.289 1_455 S
C211 O222 1.258 . S
C211 O223 1.256 . S
O212 La192 2.521 . S
O212 C194 1.261 1_556 S
O213 La192 2.628 1_554 S
O213 C194 1.243 . S
O214 La192 2.554 . S
O214 C201 1.240 1_655 S
O215 La192 2.757 1_455 S
O215 La193 2.482 . S
O215 C201 1.289 . S
O216 La192 2.470 . S
O216 C202 1.258 . S
O217 La193 2.503 1_655 S
O217 C202 1.256 . S
O218 La193 2.521 . S
O218 C203 1.261 . S
O219 La193 2.628 . S
O219 C203 1.243 . S
O220 La193 2.554 . S
O220 C210 1.240 . S
O221 La192 2.482 . S
O221 La193 2.757 1_655 S
O221 C210 1.289 1_655 S
O222 La193 2.470 . S
O222 C211 1.258 . S
O223 La192 2.503 1_455 S
O223 C211 1.256 . S
H224 C196 0.930 . S
H225 C197 0.930 . S
H226 C199 0.929 . S
H227 C200 0.929 . S
H228 C205 0.930 . S
H229 C206 0.930 . S
H230 C208 0.929 . S
H231 C209 0.929 . S
C232 C233 1.390 . S
C232 H236 0.950 . S
C232 C241 1.390 . S
C233 C232 1.390 . S
C233 C235 1.385 1_545 S
H234 C241 0.950 . S
C235 C233 1.385 1_565 S
C235 C237 1.390 . S
C235 H239 0.950 . S
H236 C232 0.950 . S
C237 C235 1.390 . S
C237 C238 1.381 1_565 S
C237 H240 0.950 . S
C238 C237 1.381 1_545 S
C238 C241 1.393 . S
H239 C235 0.950 . S
H240 C237 0.950 . S
C241 C232 1.390 . S
C241 H234 0.950 . S
C241 C238 1.393 . S
C242 C243 1.387 . S
C242 H246 0.950 . S
C242 C251 1.390 . S
C243 C242 1.387 . S
C243 C245 1.387 . S
H244 C251 0.950 . S
C245 C243 1.387 . S
C245 C247 1.390 . S
C245 H249 0.950 . S
H246 C242 0.950 . S
C247 C245 1.390 . S
C247 C248 1.387 . S
C247 H250 0.950 . S
C248 C247 1.387 . S
C248 C251 1.387 . S
H249 C245 0.950 . S
H250 C247 0.950 . S
C251 C242 1.390 . S
C251 H244 0.950 . S
C251 C248 1.387 . S
C252 C253 1.387 . S
C252 H256 0.950 . S
C252 C261 1.390 . S
C253 C252 1.387 . S
C253 C255 1.387 . S
H254 C261 0.950 . S
C255 C253 1.387 . S
C255 C257 1.390 . S
C255 H259 0.950 . S
H256 C252 0.950 . S
C257 C255 1.390 . S
C257 C258 1.387 . S
C257 H260 0.950 . S
C258 C257 1.387 . S
C258 C261 1.387 . S
H259 C255 0.950 . S
H260 C257 0.950 . S
C261 C252 1.390 . S
C261 H254 0.950 . S
C261 C258 1.387 . S
C262 C263 1.387 1_655 S
C262 H266 0.950 . S
C262 C271 1.390 . S
C263 C262 1.387 1_455 S
C263 C265 1.387 . S
H264 C271 0.950 . S
C265 C263 1.387 . S
C265 C267 1.390 . S
C265 H269 0.950 . S
H266 C262 0.950 . S
C267 C265 1.390 . S
C267 C268 1.387 . S
C267 H270 0.950 . S
C268 C267 1.387 . S
C268 C271 1.387 1_455 S
H269 C265 0.950 . S
H270 C267 0.950 . S
C271 C262 1.390 . S
C271 H264 0.950 . S
C271 C268 1.387 1_655 S
C272 C273 1.385 . S
C272 H276 0.950 . S
C272 C281 1.390 . S
C273 C272 1.385 . S
C273 C275 1.390 1_545 S
H274 C281 0.950 . S
C275 C273 1.390 1_565 S
C275 C277 1.390 . S
C275 H279 0.950 . S
H276 C272 0.950 . S
C277 C275 1.390 . S
C277 C278 1.388 . S
C277 H280 0.950 . S
C278 C277 1.388 . S
C278 C281 1.387 1_565 S
H279 C275 0.950 . S
H280 C277 0.950 . S
C281 C272 1.390 . S
C281 H274 0.950 . S
C281 C278 1.387 1_545 S
C282 C283 1.387 . S
C282 H286 0.950 . S
C282 C291 1.390 . S
C283 C282 1.387 . S
C283 C285 1.387 . S
H284 C291 0.950 . S
C285 C283 1.387 . S
C285 C287 1.390 . S
C285 H289 0.950 . S
H286 C282 0.950 . S
C287 C285 1.390 . S
C287 C288 1.387 . S
C287 H290 0.950 . S
C288 C287 1.387 . S
C288 C291 1.387 . S
H289 C285 0.950 . S
H290 C287 0.950 . S
C291 C282 1.390 . S
C291 H284 0.950 . S
C291 C288 1.387 . S
C292 C293 1.387 . S
C292 H296 0.950 . S
C292 C301 1.390 . S
C293 C292 1.387 . S
C293 C295 1.387 . S
H294 C301 0.950 . S
C295 C293 1.387 . S
C295 C297 1.390 . S
C295 H299 0.950 . S
H296 C292 0.950 . S
C297 C295 1.390 . S
C297 C298 1.387 . S
C297 H300 0.950 . S
C298 C297 1.387 . S
C298 C301 1.387 . S
H299 C295 0.950 . S
H300 C297 0.950 . S
C301 C292 1.390 . S
C301 H294 0.950 . S
C301 C298 1.387 . S
C302 C303 1.387 1_455 S
C302 H306 0.950 . S
C302 C311 1.390 . S
C303 C302 1.387 1_655 S
C303 C305 1.387 . S
H304 C311 0.950 . S
C305 C303 1.387 . S
C305 C307 1.390 . S
C305 H309 0.950 . S
H306 C302 0.950 . S
C307 C305 1.390 . S
C307 C308 1.387 . S
C307 H310 0.950 . S
C308 C307 1.387 . S
C308 C311 1.387 1_655 S
H309 C305 0.950 . S
H310 C307 0.950 . S
C311 C302 1.390 . S
C311 H304 0.950 . S
C311 C308 1.387 1_455 S
C312 C313 1.387 . S
C312 H316 0.950 . S
C312 C321 1.390 . S
C313 C312 1.387 . S
C313 C315 1.387 . S
H314 C321 0.950 . S
C315 C313 1.387 . S
C315 C317 1.390 . S
C315 H319 0.950 . S
H316 C312 0.950 . S
C317 C315 1.390 . S
C317 C318 1.387 . S
C317 H320 0.950 . S
C318 C317 1.387 . S
C318 C321 1.387 . S
H319 C315 0.950 . S
H320 C317 0.950 . S
C321 C312 1.390 . S
C321 H314 0.950 . S
C321 C318 1.387 . S
C322 C323 1.387 . S
C322 H326 0.950 . S
C322 C331 1.390 . S
C323 C322 1.387 . S
C323 C325 1.387 . S
H324 C331 0.950 . S
C325 C323 1.387 . S
C325 C327 1.390 . S
C325 H329 0.950 1_565 S
H326 C322 0.950 . S
C327 C325 1.390 . S
C327 C328 1.387 . S
C327 H330 0.950 . S
C328 C327 1.387 . S
C328 C331 1.387 . S
H329 C325 0.950 1_545 S
H330 C327 0.950 . S
C331 C322 1.390 . S
C331 H324 0.950 . S
C331 C328 1.387 . S
C332 C333 1.387 . S
C332 H336 0.950 . S
C332 C341 1.390 . S
C333 C332 1.387 . S
C333 C335 1.387 . S
H334 C341 0.950 . S
C335 C333 1.387 . S
C335 C337 1.390 . S
C335 H339 0.950 . S
H336 C332 0.950 . S
C337 C335 1.390 . S
C337 C338 1.387 . S
C337 H340 0.950 . S
C338 C337 1.387 . S
C338 C341 1.387 . S
H339 C335 0.950 . S
H340 C337 0.950 . S
C341 C332 1.390 . S
C341 H334 0.950 . S
C341 C338 1.387 . S
C342 C343 1.387 . S
C342 H346 0.950 . S
C342 C351 1.390 . S
C343 C342 1.387 . S
C343 C345 1.387 . S
H344 C351 0.950 . S
C345 C343 1.387 . S
C345 C347 1.390 . S
C345 H349 0.950 . S
H346 C342 0.950 . S
C347 C345 1.390 . S
C347 C348 1.387 . S
C347 H350 0.950 . S
C348 C347 1.387 . S
C348 C351 1.387 . S
H349 C345 0.950 . S
H350 C347 0.950 . S
C351 C342 1.390 . S
C351 H344 0.950 . S
C351 C348 1.387 . S
C352 C353 1.387 . S
C352 H356 0.950 . S
C352 C361 1.390 . S
C353 C352 1.387 . S
C353 C355 1.387 . S
H354 C361 0.950 . S
C355 C353 1.387 . S
C355 C357 1.390 . S
C355 H359 0.950 . S
H356 C352 0.950 . S
C357 C355 1.390 . S
C357 C358 1.387 . S
C357 H360 0.950 . S
C358 C357 1.387 . S
C358 C361 1.387 . S
H359 C355 0.950 . S
H360 C357 0.950 . S
C361 C352 1.390 . S
C361 H354 0.950 . S
C361 C358 1.387 . S
C362 C363 1.387 . S
C362 H366 0.950 1_545 S
C362 C371 1.390 . S
C363 C362 1.387 . S
C363 C365 1.387 . S
H364 C371 0.950 . S
C365 C363 1.387 . S
C365 C367 1.390 . S
C365 H369 0.950 . S
H366 C362 0.950 1_565 S
C367 C365 1.390 . S
C367 C368 1.387 . S
C367 H370 0.950 . S
C368 C367 1.387 . S
C368 C371 1.387 . S
H369 C365 0.950 . S
H370 C367 0.950 . S
C371 C362 1.390 . S
C371 H364 0.950 . S
C371 C368 1.387 . S
C372 C373 1.387 . S
C372 H376 0.950 . S
C372 C381 1.390 . S
C373 C372 1.387 . S
C373 C375 1.387 . S
H374 C381 0.950 . S
C375 C373 1.387 . S
C375 C377 1.390 . S
C375 H379 0.950 . S
H376 C372 0.950 . S
C377 C375 1.390 . S
C377 C378 1.387 . S
C377 H380 0.950 . S
C378 C377 1.387 . S
C378 C381 1.387 . S
H379 C375 0.950 . S
H380 C377 0.950 . S
C381 C372 1.390 . S
C381 H374 0.950 . S
C381 C378 1.387 . S
C382 C383 1.387 . S
C382 H386 0.950 . S
C382 C391 1.390 . S
C383 C382 1.387 . S
C383 C385 1.387 . S
H384 C391 0.950 . S
C385 C383 1.387 . S
C385 C387 1.390 . S
C385 H389 0.950 . S
H386 C382 0.950 . S
C387 C385 1.390 . S
C387 C388 1.387 . S
C387 H390 0.950 . S
C388 C387 1.387 . S
C388 C391 1.387 . S
H389 C385 0.950 . S
H390 C387 0.950 . S
C391 C382 1.390 . S
C391 H384 0.950 . S
C391 C388 1.387 . S
C392 C393 1.387 . S
C392 H396 0.950 . S
C392 C401 1.390 . S
C393 C392 1.387 . S
C393 C395 1.387 . S
H394 C401 0.950 . S
C395 C393 1.387 . S
C395 C397 1.390 . S
C395 H399 0.950 1_556 S
H396 C392 0.950 . S
C397 C395 1.390 . S
C397 C398 1.387 . S
C397 H400 0.950 1_556 S
C398 C397 1.387 . S
C398 C401 1.387 . S
H399 C395 0.950 1_554 S
H400 C397 0.950 1_554 S
C401 C392 1.390 . S
C401 H394 0.950 . S
C401 C398 1.387 . S
C402 C403 1.387 . S
C402 H406 0.950 1_556 S
C402 C411 1.390 . S
C403 C402 1.387 . S
C403 C405 1.387 . S
H404 C411 0.950 1_554 S
C405 C403 1.387 . S
C405 C407 1.390 . S
C405 H409 0.950 1_545 S
H406 C402 0.950 1_554 S
C407 C405 1.390 . S
C407 C408 1.387 . S
C407 H410 0.950 . S
C408 C407 1.387 . S
C408 C411 1.387 . S
H409 C405 0.950 1_565 S
H410 C407 0.950 . S
C411 C402 1.390 . S
C411 H404 0.950 1_556 S
C411 C408 1.387 . S
C412 C413 1.387 . S
C412 H416 0.950 . S
C412 C421 1.390 . S
C413 C412 1.387 . S
C413 C415 1.387 . S
H414 C421 0.950 . S
C415 C413 1.387 . S
C415 C417 1.390 . S
C415 H419 0.950 . S
H416 C412 0.950 . S
C417 C415 1.390 . S
C417 C418 1.387 . S
C417 H420 0.950 . S
C418 C417 1.387 . S
C418 C421 1.387 . S
H419 C415 0.950 . S
H420 C417 0.950 . S
C421 C412 1.390 . S
C421 H414 0.950 . S
C421 C418 1.387 . S
C422 C423 1.387 . S
C422 H426 0.950 1_556 S
C422 C431 1.390 . S
C423 C422 1.387 . S
C423 C425 1.387 . S
H424 C431 0.950 1_554 S
C425 C423 1.387 . S
C425 C427 1.390 . S
C425 H429 0.950 . S
H426 C422 0.950 1_554 S
C427 C425 1.390 . S
C427 C428 1.387 . S
C427 H430 0.950 . S
C428 C427 1.387 . S
C428 C431 1.387 . S
H429 C425 0.950 . S
H430 C427 0.950 . S
C431 C422 1.390 . S
C431 H424 0.950 1_556 S
C431 C428 1.387 . S
C432 C433 1.387 . S
C432 H436 0.950 . S
C432 C441 1.390 . S
C433 C432 1.387 . S
C433 C435 1.387 . S
H434 C441 0.950 . S
C435 C433 1.387 . S
C435 C437 1.390 . S
C435 H439 0.950 . S
H436 C432 0.950 . S
C437 C435 1.390 . S
C437 C438 1.387 . S
C437 H440 0.950 . S
C438 C437 1.387 . S
C438 C441 1.387 . S
H439 C435 0.950 . S
H440 C437 0.950 . S
C441 C432 1.390 . S
C441 H434 0.950 . S
C441 C438 1.387 . S
C442 C443 1.387 . S
C442 H446 0.950 1_565 S
C442 C451 1.390 . S
C443 C442 1.387 . S
C443 C445 1.387 . S
H444 C451 0.950 . S
C445 C443 1.387 . S
C445 C447 1.390 . S
C445 H449 0.950 . S
H446 C442 0.950 1_545 S
C447 C445 1.390 . S
C447 C448 1.387 . S
C447 H450 0.950 . S
C448 C447 1.387 . S
C448 C451 1.387 . S
H449 C445 0.950 . S
H450 C447 0.950 . S
C451 C442 1.390 . S
C451 H444 0.950 . S
C451 C448 1.387 . S
C452 C453 1.387 . S
C452 H456 0.950 . S
C452 C461 1.390 . S
C453 C452 1.387 . S
C453 C455 1.387 . S
H454 C461 0.950 . S
C455 C453 1.387 . S
C455 C457 1.390 . S
C455 H459 0.950 . S
H456 C452 0.950 . S
C457 C455 1.390 . S
C457 C458 1.387 . S
C457 H460 0.950 . S
C458 C457 1.387 . S
C458 C461 1.387 . S
H459 C455 0.950 . S
H460 C457 0.950 . S
C461 C452 1.390 . S
C461 H454 0.950 . S
C461 C458 1.387 . S
C462 C463 1.387 . S
C462 H466 0.950 . S
C462 C471 1.390 . S
C463 C462 1.387 . S
C463 C465 1.387 . S
H464 C471 0.950 . S
C465 C463 1.387 . S
C465 C467 1.390 . S
C465 H469 0.950 . S
H466 C462 0.950 . S
C467 C465 1.390 . S
C467 C468 1.387 . S
C467 H470 0.950 . S
C468 C467 1.387 . S
C468 C471 1.387 . S
H469 C465 0.950 . S
H470 C467 0.950 . S
C471 C462 1.390 . S
C471 H464 0.950 . S
C471 C468 1.387 . S
C233 C61 1.998 1_545 S
C238 C81 2.276 1_545 S
C248 C121 2.301 . S
C243 C70 2.043 . S
C258 C161 2.312 . S
C253 C43 2.044 . S
C268 C201 2.293 . S
C263 C52 2.023 1_455 S
C278 C90 2.277 1_564 S
C273 C25 2.000 1_545 S
C283 C34 2.050 . S
C288 C130 2.303 1_554 S
C293 C7 2.041 . S
C298 C170 2.312 1_554 S
C303 C16 2.019 . S
C308 C210 2.293 1_654 S
C318 C87 0.910 . S
C313 C50 0.967 . S
C328 C127 0.900 . S
C323 C59 0.945 . S
C338 C167 0.878 . S
C333 C67 0.927 . S
C343 C41 0.950 . S
C348 C207 0.895 . S
C353 C14 0.971 1_455 S
C358 C78 0.914 . S
C368 C118 0.896 . S
C363 C23 0.946 1_545 S
C378 C158 0.878 . S
C373 C31 0.923 . S
C383 C5 0.954 . S
C388 C198 0.893 . S
C393 C49 2.319 1_455 S
C398 C91 2.615 . S
C403 C58 2.266 1_545 S
C408 C131 2.557 . S
C418 C171 2.544 . S
C413 C68 2.252 . S
C428 C211 2.598 . S
C423 C40 2.302 . S
C433 C13 2.318 . S
C438 C82 2.622 . S
C448 C122 2.557 . S
C443 C22 2.265 . S
C458 C162 2.542 . S
C453 C32 2.258 . S
C463 C4 2.303 . S
C468 C202 2.601 . S
