# Generated by pormake.
# Topology sqc, (4,8)-cn, num edge types: 1
# Building blocks:
#     Node 0, Type 0, BuildingBlock: AZAVOO_clean_linker_0, # of connection points: 4
#     Node 1, Type 0, BuildingBlock: AZAVOO_clean_linker_0, # of connection points: 4
#     Node 2, Type 0, BuildingBlock: AZAVOO_clean_linker_0, # of connection points: 4
#     Node 3, Type 0, BuildingBlock: AZAVOO_clean_linker_0, # of connection points: 4
#     Node 4, Type 0, BuildingBlock: AZAVOO_clean_linker_0, # of connection points: 4
#     Node 5, Type 0, BuildingBlock: AZAVOO_clean_linker_0, # of connection points: 4
#     Node 6, Type 0, BuildingBlock: AZAVOO_clean_linker_0, # of connection points: 4
#     Node 7, Type 0, BuildingBlock: AZAVOO_clean_linker_0, # of connection points: 4
#     Node 8, Type 1, BuildingBlock: TAGTUT_clean_sbu_3, # of connection points: 8
#     Node 9, Type 1, BuildingBlock: TAGTUT_clean_sbu_3, # of connection points: 8
#     Node 10, Type 1, BuildingBlock: TAGTUT_clean_sbu_3, # of connection points: 8
#     Node 11, Type 1, BuildingBlock: TAGTUT_clean_sbu_3, # of connection points: 8
#     Edge 12, Type (0, 1), BuildingBlock: UVAHIK_clean_linker_0, # of connection points: 2
#     Edge 13, Type (0, 1), BuildingBlock: UVAHIK_clean_linker_0, # of connection points: 2
#     Edge 14, Type (0, 1), BuildingBlock: UVAHIK_clean_linker_0, # of connection points: 2
#     Edge 15, Type (0, 1), BuildingBlock: UVAHIK_clean_linker_0, # of connection points: 2
#     Edge 16, Type (0, 1), BuildingBlock: UVAHIK_clean_linker_0, # of connection points: 2
#     Edge 17, Type (0, 1), BuildingBlock: UVAHIK_clean_linker_0, # of connection points: 2
#     Edge 18, Type (0, 1), BuildingBlock: UVAHIK_clean_linker_0, # of connection points: 2
#     Edge 19, Type (0, 1), BuildingBlock: UVAHIK_clean_linker_0, # of connection points: 2
#     Edge 20, Type (0, 1), BuildingBlock: UVAHIK_clean_linker_0, # of connection points: 2
#     Edge 21, Type (0, 1), BuildingBlock: UVAHIK_clean_linker_0, # of connection points: 2
#     Edge 22, Type (0, 1), BuildingBlock: UVAHIK_clean_linker_0, # of connection points: 2
#     Edge 23, Type (0, 1), BuildingBlock: UVAHIK_clean_linker_0, # of connection points: 2
#     Edge 24, Type (0, 1), BuildingBlock: UVAHIK_clean_linker_0, # of connection points: 2
#     Edge 25, Type (0, 1), BuildingBlock: UVAHIK_clean_linker_0, # of connection points: 2
#     Edge 26, Type (0, 1), BuildingBlock: UVAHIK_clean_linker_0, # of connection points: 2
#     Edge 27, Type (0, 1), BuildingBlock: UVAHIK_clean_linker_0, # of connection points: 2
#     Edge 28, Type (0, 1), BuildingBlock: UVAHIK_clean_linker_0, # of connection points: 2
#     Edge 29, Type (0, 1), BuildingBlock: UVAHIK_clean_linker_0, # of connection points: 2
#     Edge 30, Type (0, 1), BuildingBlock: UVAHIK_clean_linker_0, # of connection points: 2
#     Edge 31, Type (0, 1), BuildingBlock: UVAHIK_clean_linker_0, # of connection points: 2
#     Edge 32, Type (0, 1), BuildingBlock: UVAHIK_clean_linker_0, # of connection points: 2
#     Edge 33, Type (0, 1), BuildingBlock: UVAHIK_clean_linker_0, # of connection points: 2
#     Edge 34, Type (0, 1), BuildingBlock: UVAHIK_clean_linker_0, # of connection points: 2
#     Edge 35, Type (0, 1), BuildingBlock: UVAHIK_clean_linker_0, # of connection points: 2
#     Edge 36, Type (0, 1), BuildingBlock: UVAHIK_clean_linker_0, # of connection points: 2
#     Edge 37, Type (0, 1), BuildingBlock: UVAHIK_clean_linker_0, # of connection points: 2
#     Edge 38, Type (0, 1), BuildingBlock: UVAHIK_clean_linker_0, # of connection points: 2
#     Edge 39, Type (0, 1), BuildingBlock: UVAHIK_clean_linker_0, # of connection points: 2
#     Edge 40, Type (0, 1), BuildingBlock: UVAHIK_clean_linker_0, # of connection points: 2
#     Edge 41, Type (0, 1), BuildingBlock: UVAHIK_clean_linker_0, # of connection points: 2
#     Edge 42, Type (0, 1), BuildingBlock: UVAHIK_clean_linker_0, # of connection points: 2
#     Edge 43, Type (0, 1), BuildingBlock: UVAHIK_clean_linker_0, # of connection points: 2
# Relax obj value: 0.166
# Max RMSD: 0.261
# Mean RMSD: 0.229
data_MOF--net-sqc--node1-TAGTUT_clean_sbu_3--node2-AZAVOO_clean_linker_0--edge1-UVAHIK_clean_linker_0
_symmetry_space_group_name_H-M    P1
_symmetry_Int_Tables_number       1
_symmetry_cell_setting            triclinic
loop_
_symmetry_equiv_pos_as_xyz
'x, y, z'
_cell_length_a     32.521548
_cell_length_b     32.544289
_cell_length_c     114.31887
_cell_angle_alpha  91.594702
_cell_angle_beta   89.862429
_cell_angle_gamma 90.761416
loop_
_atom_site_label
_atom_site_type_symbol
_atom_site_fract_x
_atom_site_fract_y
_atom_site_fract_z
_atom_type_partial_charge
H0 H 0.03875 0.15254 0.59215 0.0
H1 H 0.77547 0.90626 0.50278 0.0
H2 H 0.08959 0.09553 0.53105 0.0
H3 H 0.1547 0.11944 0.53963 0.0
H4 H 0.18951 -0.00658 0.54463 0.0
H5 H 0.12371 0.96984 0.53619 0.0
H6 H 0.00273 0.10158 0.54375 0.0
H7 H 0.01218 0.1336 0.56319 0.0
H8 H 0.07183 0.02379 0.57465 0.0
H9 H 0.06174 0.99198 0.55521 0.0
H10 H 0.92643 0.07062 0.52926 0.0
H11 H 0.8621 0.07747 0.54008 0.0
H12 H 0.90058 0.9826 0.56332 0.0
H13 H 0.96393 0.97439 0.55192 0.0
H14 H 0.93312 0.03942 0.50614 0.0
H15 H 0.86567 0.01976 0.49818 0.0
H16 H 0.86605 0.90999 0.51865 0.0
H17 H 0.93358 0.93007 0.52653 0.0
H18 H 0.01424 0.03204 0.49405 0.0
H19 H 0.97226 0.01483 0.47683 0.0
H20 H 0.95162 0.89273 0.48971 0.0
H21 H -0.00594 0.91008 0.50679 0.0
H22 H 0.11146 0.04695 0.50712 0.0
H23 H 0.17269 0.025 0.49617 0.0
H24 H 0.14009 0.89805 0.50212 0.0
H25 H 0.07905 0.92026 0.51294 0.0
O26 O 0.03522 0.13926 0.58454 0.0
O27 O 0.06582 0.08216 0.58998 0.0
O28 O 0.80382 0.97131 0.49532 0.0
O29 O 0.80169 0.91522 0.506 0.0
C30 C 0.06038 0.01734 0.52899 0.0
C31 C 0.02591 0.02522 0.53626 0.0
C32 C 0.98604 0.01455 0.53229 0.0
C33 C 0.98042 -0.00335 0.52105 0.0
C34 C 0.01473 0.98828 0.51381 0.0
C35 C 0.05482 -0.00218 0.51786 0.0
C36 C 0.10193 0.03098 0.53301 0.0
C37 C 0.11153 0.0731 0.53386 0.0
C38 C 0.14885 0.08667 0.53872 0.0
C39 C 0.17731 0.05835 0.54284 0.0
C40 C 0.16806 0.01603 0.54165 0.0
C41 C 0.13069 0.00247 0.53675 0.0
C42 C 0.03157 0.04451 0.54808 0.0
C43 C 0.01767 0.08446 0.55049 0.0
C44 C 0.0232 0.10269 0.5616 0.0
C45 C 0.0428 0.08127 0.57048 0.0
C46 C 0.05665 0.04116 0.56801 0.0
C47 C 0.05101 0.02295 0.55691 0.0
C48 C 0.94965 0.02198 0.53981 0.0
C49 C 0.92091 0.05142 0.53671 0.0
C50 C 0.88427 0.05537 0.54294 0.0
C51 C 0.87604 0.03045 0.55255 0.0
C52 C 0.90555 0.00169 0.55582 0.0
C53 C 0.94202 -0.00262 0.54946 0.0
C54 C 0.93825 0.986 0.51683 0.0
C55 C 0.91849 0.01121 0.50891 0.0
C56 C 0.88002 -0.00012 0.50437 0.0
C57 C 0.86063 0.9631 0.5077 0.0
C58 C 0.8802 0.9384 0.51586 0.0
C59 C 0.91868 0.94982 0.5204 0.0
C60 C 0.00696 0.97241 0.5017 0.0
C61 C 0.0026 0.00087 0.49282 0.0
C62 C 0.97797 0.99122 0.4831 0.0
C63 C 0.95773 0.95282 0.48209 0.0
C64 C 0.96672 0.92259 0.49023 0.0
C65 C 0.9913 0.93232 0.49996 0.0
C66 C 0.09083 0.98515 0.51077 0.0
C67 C 0.1176 0.01444 0.50601 0.0
C68 C 0.15262 0.00186 0.49984 0.0
C69 C 0.16121 0.95979 0.49829 0.0
C70 C 0.13405 0.93064 0.50303 0.0
C71 C 0.09921 0.94324 0.50921 0.0
C72 C 0.04871 0.10076 0.58226 0.0
C73 C 0.82033 0.95031 0.50262 0.0
H74 H 0.46327 0.62895 0.71392 0.0
H75 H 0.24431 0.97597 0.79797 0.0
H76 H 0.31333 0.61759 0.76918 0.0
H77 H 0.3446 0.55884 0.75908 0.0
H78 H 0.46536 0.60884 0.76712 0.0
H79 H 0.4336 0.66769 0.77722 0.0
H80 H 0.33696 0.66732 0.74883 0.0
H81 H 0.38035 0.64535 0.73238 0.0
H82 H 0.47821 0.72529 0.74541 0.0
H83 H 0.43468 0.74641 0.76197 0.0
H84 H 0.30443 0.75023 0.74739 0.0
H85 H 0.31184 0.79715 0.73121 0.0
H86 H 0.38751 0.87815 0.75304 0.0
H87 H 0.38165 0.82971 0.76897 0.0
H88 H 0.2496 0.79641 0.76834 0.0
H89 H 0.21737 0.86316 0.77202 0.0
H90 H 0.31192 0.89479 0.79736 0.0
H91 H 0.34414 0.8283 0.79345 0.0
H92 H 0.22775 0.73886 0.78851 0.0
H93 H 0.1892 0.7844 0.80174 0.0
H94 H 0.29887 0.80609 0.82238 0.0
H95 H 0.33698 0.76019 0.80915 0.0
H96 H 0.25867 0.65176 0.78808 0.0
H97 H 0.24868 0.58969 0.79947 0.0
H98 H 0.37133 0.6049 0.81351 0.0
H99 H 0.38111 0.66693 0.80203 0.0
O100 O 0.44616 0.63919 0.72026 0.0
O101 O 0.49437 0.68318 0.72675 0.0
O102 O 0.21113 0.93376 0.78227 0.0
O103 O 0.2572 0.95002 0.79604 0.0
C104 C 0.35295 0.68807 0.77595 0.0
C105 C 0.35814 0.7179 0.76729 0.0
C106 C 0.33983 0.75665 0.76875 0.0
C107 C 0.31717 0.7661 0.77896 0.0
C108 C 0.31088 0.73586 0.78749 0.0
C109 C 0.32865 0.69674 0.78596 0.0
C110 C 0.3712 0.64697 0.77386 0.0
C111 C 0.34649 0.61485 0.76927 0.0
C112 C 0.3645 0.58138 0.76343 0.0
C113 C 0.40748 0.57967 0.7621 0.0
C114 C 0.43216 0.60975 0.76782 0.0
C115 C 0.41411 0.64308 0.77372 0.0
C116 C 0.38283 0.70819 0.75662 0.0
C117 C 0.36771 0.68019 0.74808 0.0
C118 C 0.39257 0.66768 0.7387 0.0
C119 C 0.43285 0.68336 0.73762 0.0
C120 C 0.44738 0.71251 0.746 0.0
C121 C 0.42254 0.7248 0.75543 0.0
C122 C 0.34277 0.78653 0.75927 0.0
C123 C 0.32267 0.77811 0.74863 0.0
C124 C 0.32659 0.80516 0.73946 0.0
C125 C 0.35032 0.84139 0.74082 0.0
C126 C 0.36957 0.85019 0.75164 0.0
C127 C 0.366 0.82282 0.76077 0.0
C128 C 0.29907 0.80755 0.78066 0.0
C129 C 0.2635 0.81802 0.77458 0.0
C130 C 0.24512 0.85608 0.77673 0.0
C131 C 0.26203 0.88428 0.78502 0.0
C132 C 0.29807 0.87382 0.79094 0.0
C133 C 0.31654 0.83587 0.78873 0.0
C134 C 0.2852 0.7465 0.79783 0.0
C135 C 0.24284 0.75166 0.79625 0.0
C136 C 0.22106 0.77825 0.80371 0.0
C137 C 0.24131 0.79972 0.8129 0.0
C138 C 0.28239 0.79007 0.81537 0.0
C139 C 0.3042 0.76353 0.80787 0.0
C140 C 0.32044 0.66389 0.79434 0.0
C141 C 0.283 0.64214 0.79381 0.0
C142 C 0.27758 0.6065 0.80019 0.0
C143 C 0.30943 0.59233 0.80726 0.0
C144 C 0.34628 0.61525 0.80815 0.0
C145 C 0.35184 0.65066 0.80167 0.0
C146 C 0.45972 0.66878 0.72788 0.0
C147 C 0.24188 0.92417 0.78763 0.0
H148 H 0.60101 0.95292 0.0952 0.0
H149 H 0.8521 0.21502 0.0134 0.0
H150 H 0.54689 0.00226 0.03409 0.0
H151 H 0.48804 0.97454 0.04476 0.0
H152 H 0.44838 0.09826 0.05309 0.0
H153 H 0.50678 0.12555 0.04206 0.0
H154 H 0.63036 0.00424 0.04726 0.0
H155 H 0.62344 0.97203 0.06626 0.0
H156 H 0.56001 0.0793 0.07977 0.0
H157 H 0.56787 0.11148 0.06078 0.0
H158 H 0.70601 0.04186 0.0331 0.0
H159 H 0.75472 0.01536 0.04709 0.0
H160 H 0.70923 0.10026 0.07365 0.0
H161 H 0.66125 0.12787 0.05939 0.0
H162 H 0.70002 0.07548 0.01018 0.0
H163 H 0.76695 0.10054 0.00343 0.0
H164 H 0.75988 0.20317 0.02818 0.0
H165 H 0.69257 0.1781 0.03472 0.0
H166 H 0.6141 0.06509 -0.00104 0.0
H167 H 0.64388 0.0819 0.98002 0.0
H168 H 0.66723 0.20637 -0.00734 0.0
H169 H 0.6362 0.18959 0.01149 0.0
H170 H 0.53738 0.03119 0.01251 0.0
H171 H 0.48321 0.03035 -0.00237 0.0
H172 H 0.48635 0.16309 -0.00219 0.0
H173 H 0.53975 0.16377 0.01291 0.0
O174 O 0.60321 0.96615 0.08775 0.0
O175 O 0.56943 0.02135 0.09416 0.0
O176 O 0.82776 0.15111 0.00333 0.0
O177 O 0.82578 0.2043 0.01596 0.0
C178 C 0.57135 0.08203 0.03348 0.0
C179 C 0.60503 0.08001 0.04118 0.0
C180 C 0.64421 0.09444 0.03771 0.0
C181 C 0.6497 0.11108 0.02656 0.0
C182 C 0.61599 0.11275 0.01877 0.0
C183 C 0.57682 0.09795 0.02222 0.0
C184 C 0.53091 0.06584 0.03731 0.0
C185 C 0.52464 0.02326 0.03788 0.0
C186 C 0.49134 0.00755 0.04411 0.0
C187 C 0.46397 0.03421 0.04996 0.0
C188 C 0.46873 0.07689 0.04863 0.0
C189 C 0.502 0.09258 0.04233 0.0
C190 C 0.59972 0.0602 0.05267 0.0
C191 C 0.61506 0.02073 0.05435 0.0
C192 C 0.611 0.0024 0.0652 0.0
C193 C 0.5912 0.02311 0.07454 0.0
C194 C 0.57545 0.06253 0.07277 0.0
C195 C 0.57978 0.08093 0.06193 0.0
C196 C 0.68012 0.08674 0.04524 0.0
C197 C 0.70781 0.05608 0.04177 0.0
C198 C 0.73541 0.0408 0.04979 0.0
C199 C 0.73528 0.05556 0.06145 0.0
C200 C 0.70956 0.08825 0.06472 0.0
C201 C 0.68245 0.10414 0.0566 0.0
C202 C 0.69129 0.12522 0.02286 0.0
C203 C 0.71292 0.10344 0.01411 0.0
C204 C 0.75119 0.11777 0.01028 0.0
C205 C 0.76872 0.15396 0.01524 0.0
C206 C 0.74722 0.17527 0.02416 0.0
C207 C 0.70885 0.16098 0.02794 0.0
C208 C 0.62338 0.12602 0.00662 0.0
C209 C 0.62409 0.09641 -0.00252 0.0
C210 C 0.64149 0.10595 0.98672 0.0
C211 C 0.65859 0.14521 0.98495 0.0
C212 C 0.6542 0.17591 -0.00626 0.0
C213 C 0.6366 0.16637 0.00451 0.0
C214 C 0.54217 0.09757 0.01385 0.0
C215 C 0.52568 0.06008 0.00953 0.0
C216 C 0.49495 0.05961 0.00103 0.0
C217 C 0.48086 0.09664 -0.00341 0.0
C218 C 0.49703 0.13414 0.00104 0.0
C219 C 0.52732 0.13459 0.00966 0.0
C220 C 0.58718 0.00363 0.08608 0.0
C221 C 0.80919 0.16954 0.01113 0.0
H222 H 0.17327 0.29596 0.20332 0.0
H223 H 0.4278 0.57494 0.28317 0.0
H224 H 0.2458 0.24696 0.26109 0.0
H225 H 0.2265 0.17832 0.25346 0.0
H226 H 0.35485 0.15079 0.24795 0.0
H227 H 0.37379 0.21973 0.25545 0.0
H228 H 0.23585 0.33687 0.25018 0.0
H229 H 0.19923 0.32548 0.23168 0.0
H230 H 0.30562 0.26394 0.21716 0.0
H231 H 0.34206 0.27596 0.23568 0.0
H232 H 0.27216 0.41706 0.26382 0.0
H233 H 0.2598 0.47716 0.25205 0.0
H234 H 0.34456 0.43038 0.22583 0.0
H235 H 0.35822 0.37146 0.23799 0.0
H236 H 0.31263 0.40508 0.28831 0.0
H237 H 0.3316 0.4745 0.29529 0.0
H238 H 0.42189 0.48237 0.26758 0.0
H239 H 0.403 0.4127 0.26079 0.0
H240 H 0.32444 0.31505 0.29894 0.0
H241 H 0.35507 0.3375 0.31754 0.0
H242 H 0.46162 0.38337 0.29897 0.0
H243 H 0.4322 0.35756 0.28062 0.0
H244 H 0.28742 0.24083 0.28507 0.0
H245 H 0.30113 0.18486 0.29833 0.0
H246 H 0.43162 0.20077 0.29234 0.0
H247 H 0.41747 0.25597 0.27886 0.0
O248 O 0.18835 0.30021 0.21054 0.0
O249 O 0.24379 0.26868 0.20351 0.0
O250 O 0.373 0.54173 0.29472 0.0
O251 O 0.41966 0.54746 0.28058 0.0
C252 C 0.32264 0.28068 0.26263 0.0
C253 C 0.31361 0.31425 0.25552 0.0
C254 C 0.32507 0.35458 0.25921 0.0
C255 C 0.3454 0.36132 0.27001 0.0
C256 C 0.35469 0.32766 0.27707 0.0
C257 C 0.34305 0.2874 0.27341 0.0
C258 C 0.31111 0.23829 0.25872 0.0
C259 C 0.26968 0.22593 0.25831 0.0
C260 C 0.25879 0.18665 0.25407 0.0
C261 C 0.28921 0.15922 0.25012 0.0
C262 C 0.33078 0.1714 0.25086 0.0
C263 C 0.34164 0.21061 0.25515 0.0
C264 C 0.29156 0.30723 0.24426 0.0
C265 C 0.25122 0.32106 0.24297 0.0
C266 C 0.23036 0.31444 0.23241 0.0
C267 C 0.24948 0.29376 0.22294 0.0
C268 C 0.28998 0.27993 0.22428 0.0
C269 C 0.31083 0.28667 0.23485 0.0
C270 C 0.31607 0.38995 0.25175 0.0
C271 C 0.28814 0.41996 0.25555 0.0
C272 C 0.28096 0.45413 0.24877 0.0
C273 C 0.30122 0.45867 0.23798 0.0
C274 C 0.32897 0.42826 0.23418 0.0
C275 C 0.33642 0.3943 0.24103 0.0
C276 C 0.35646 0.40388 0.27406 0.0
C277 C 0.33654 0.42184 0.28378 0.0
C278 C 0.3474 0.4615 0.28773 0.0
C279 C 0.37829 0.484 0.28199 0.0
C280 C 0.39799 0.46593 0.2722 0.0
C281 C 0.38719 0.42619 0.26828 0.0
C282 C 0.3759 0.33516 0.28842 0.0
C283 C 0.35502 0.32867 0.29896 0.0
C284 C 0.3724 0.34204 0.30958 0.0
C285 C 0.41051 0.36313 0.30979 0.0
C286 C 0.43246 0.367 0.29924 0.0
C287 C 0.41548 0.3527 0.28868 0.0
C288 C 0.35147 0.25234 0.28102 0.0
C289 C 0.31891 0.23185 0.28654 0.0
C290 C 0.32682 0.20018 0.29417 0.0
C291 C 0.36747 0.18851 0.29641 0.0
C292 C 0.39997 0.20874 0.2907 0.0
C293 C 0.39201 0.24039 0.28306 0.0
C294 C 0.2272 0.28672 0.21173 0.0
C295 C 0.39002 0.5261 0.28618 0.0
H296 H 0.94478 0.12419 0.21382 0.0
H297 H 0.73766 0.48842 0.29395 0.0
H298 H 0.78745 0.12566 0.26653 0.0
H299 H 0.81803 0.06382 0.25781 0.0
H300 H 0.93763 0.10466 0.27019 0.0
H301 H 0.90669 0.16669 0.27877 0.0
H302 H 0.81659 0.17749 0.24659 0.0
H303 H 0.86061 0.15083 0.23081 0.0
H304 H 0.96593 0.21073 0.24724 0.0
H305 H 0.92156 0.23671 0.26305 0.0
H306 H 0.78396 0.27305 0.24659 0.0
H307 H 0.8039 0.31745 0.23058 0.0
H308 H 0.91118 0.3582 0.25025 0.0
H309 H 0.88957 0.31515 0.26642 0.0
H310 H 0.73918 0.31042 0.26351 0.0
H311 H 0.71181 0.37962 0.26656 0.0
H312 H 0.79732 0.40143 0.29504 0.0
H313 H 0.82481 0.33244 0.29177 0.0
H314 H 0.70513 0.25689 0.2817 0.0
H315 H 0.66228 0.30109 0.29423 0.0
H316 H 0.75817 0.30642 0.32028 0.0
H317 H 0.80142 0.26293 0.30755 0.0
H318 H 0.72778 0.16851 0.288 0.0
H319 H 0.71248 0.11153 0.30092 0.0
H320 H 0.83969 0.11181 0.3119 0.0
H321 H 0.85396 0.16996 0.29945 0.0
O322 O 0.92777 0.13601 0.21996 0.0
O323 O 0.98053 0.16942 0.22835 0.0
O324 O 0.70733 0.44986 0.27709 0.0
O325 O 0.74886 0.46149 0.29228 0.0
C326 C 0.82935 0.19308 0.27463 0.0
C327 C 0.83975 0.22177 0.26602 0.0
C328 C 0.82459 0.26198 0.26685 0.0
C329 C 0.79849 0.27354 0.27617 0.0
C330 C 0.78645 0.24431 0.28454 0.0
C331 C 0.80263 0.2042 0.28393 0.0
C332 C 0.84494 0.15066 0.27318 0.0
C333 C 0.81992 0.12032 0.2678 0.0
C334 C 0.83753 0.08508 0.26279 0.0
C335 C 0.88039 0.07982 0.26313 0.0
C336 C 0.90465 0.10829 0.26962 0.0
C337 C 0.887 0.14345 0.27463 0.0
C338 C 0.86593 0.20905 0.25592 0.0
C339 C 0.84912 0.18509 0.2467 0.0
C340 C 0.87435 0.16982 0.23772 0.0
C341 C 0.91683 0.17852 0.23779 0.0
C342 C 0.93336 0.20341 0.24693 0.0
C343 C 0.90809 0.2185 0.25593 0.0
C344 C 0.83518 0.29133 0.25765 0.0
C345 C 0.81137 0.29217 0.24747 0.0
C346 C 0.82315 0.31714 0.23829 0.0
C347 C 0.85937 0.34122 0.23907 0.0
C348 C 0.88284 0.34057 0.2494 0.0
C349 C 0.87069 0.31593 0.25864 0.0
C350 C 0.78416 0.31661 0.27736 0.0
C351 C 0.75244 0.33048 0.27026 0.0
C352 C 0.73669 0.36991 0.27208 0.0
C353 C 0.75235 0.39605 0.28107 0.0
C354 C 0.78457 0.38214 0.28805 0.0
C355 C 0.8004 0.3428 0.28618 0.0
C356 C 0.75644 0.25692 0.2937 0.0
C357 C 0.71621 0.26615 0.29032 0.0
C358 C 0.69195 0.29167 0.29742 0.0
C359 C 0.70725 0.30751 0.30811 0.0
C360 C 0.7457 0.29445 0.31207 0.0
C361 C 0.7703 0.26939 0.30487 0.0
C362 C 0.79194 0.17344 0.29281 0.0
C363 C 0.75203 0.15684 0.29342 0.0
C364 C 0.74354 0.12387 0.30068 0.0
C365 C 0.77495 0.10666 0.30738 0.0
C366 C 0.8146 0.12441 0.307 0.0
C367 C 0.82291 0.15758 0.29984 0.0
C368 C 0.94374 0.16121 0.22843 0.0
C369 C 0.73479 0.43741 0.2833 0.0
H370 H 0.67511 0.85602 0.70097 0.0
H371 H 0.76437 0.53124 0.79137 0.0
H372 H 0.83516 0.85758 0.74472 0.0
H373 H 0.82961 0.9252 0.73621 0.0
H374 H 0.75829 0.9669 0.76612 0.0
H375 H 0.76308 0.89841 0.7744 0.0
H376 H 0.78626 0.78548 0.73494 0.0
H377 H 0.74669 0.80889 0.71827 0.0
H378 H 0.66267 0.87046 0.7421 0.0
H379 H 0.70233 0.84642 0.75869 0.0
H380 H 0.78539 0.71056 0.74281 0.0
H381 H 0.74161 0.65438 0.73493 0.0
H382 H 0.64833 0.68447 0.76057 0.0
H383 H 0.69162 0.74177 0.76812 0.0
H384 H 0.85165 0.69171 0.76539 0.0
H385 H 0.85287 0.61898 0.77031 0.0
H386 H 0.73801 0.63334 0.78904 0.0
H387 H 0.73748 0.70607 0.78416 0.0
H388 H 0.9012 0.76899 0.77944 0.0
H389 H 0.9392 0.74077 0.79585 0.0
H390 H 0.825 0.72618 0.81483 0.0
H391 H 0.78774 0.75517 0.79856 0.0
H392 H 0.88646 0.86516 0.76811 0.0
H393 H 0.9217 0.9181 0.78033 0.0
H394 H 0.83785 0.89342 0.8087 0.0
H395 H 0.80192 0.84202 0.79639 0.0
O396 O 0.68996 0.84662 0.70769 0.0
O397 O 0.6476 0.87767 0.72031 0.0
O398 O 0.82408 0.55429 0.77974 0.0
O399 O 0.76478 0.55992 0.78934 0.0
C400 C 0.79717 0.83023 0.76416 0.0
C401 C 0.77194 0.80116 0.75806 0.0
C402 C 0.76978 0.76024 0.76173 0.0
C403 C 0.7938 0.74787 0.77122 0.0
C404 C 0.81817 0.77699 0.77751 0.0
C405 C 0.81941 0.8184 0.7741 0.0
C406 C 0.79931 0.87311 0.76012 0.0
C407 C 0.81898 0.88158 0.74952 0.0
C408 C 0.81602 0.92037 0.74473 0.0
C409 C 0.79335 0.95148 0.75047 0.0
C410 C 0.77555 0.94347 0.76142 0.0
C411 C 0.77848 0.90453 0.76621 0.0
C412 C 0.7469 0.81398 0.748 0.0
C413 C 0.75901 0.8036 0.73653 0.0
C414 C 0.73648 0.81722 0.72703 0.0
C415 C 0.7015 0.84156 0.72885 0.0
C416 C 0.68941 0.85173 0.74039 0.0
C417 C 0.71194 0.83801 0.74988 0.0
C418 C 0.74144 0.73021 0.75595 0.0
C419 C 0.75504 0.70574 0.74648 0.0
C420 C 0.73013 0.67377 0.74203 0.0
C421 C 0.69178 0.66538 0.74719 0.0
C422 C 0.6778 0.69055 0.75648 0.0
C423 C 0.70232 0.72316 0.76074 0.0
C424 C 0.79436 0.70394 0.77435 0.0
C425 C 0.82684 0.67903 0.77056 0.0
C426 C 0.82742 0.63754 0.77338 0.0
C427 C 0.79545 0.62031 0.78005 0.0
C428 C 0.76304 0.64557 0.78387 0.0
C429 C 0.76258 0.68707 0.78107 0.0
C430 C 0.84176 0.76378 0.78781 0.0
C431 C 0.88463 0.76026 0.78724 0.0
C432 C 0.90618 0.74397 0.79658 0.0
C433 C 0.88511 0.73114 0.80663 0.0
C434 C 0.84228 0.73625 0.8073 0.0
C435 C 0.82085 0.75244 0.79798 0.0
C436 C 0.84177 0.84965 0.7814 0.0
C437 C 0.87569 0.87136 0.77695 0.0
C438 C 0.89576 0.90138 0.78391 0.0
C439 C 0.8826 0.90935 0.79545 0.0
C440 C 0.84891 0.8873 0.79988 0.0
C441 C 0.82843 0.85801 0.79288 0.0
C442 C 0.67795 0.85642 0.71873 0.0
C443 C 0.79579 0.5762 0.78301 0.0
H444 H 0.49379 0.42179 0.94824 0.0
H445 H 0.78113 0.52867 0.0521 0.0
H446 H 0.45765 0.5554 -0.00127 0.0
H447 H 0.39158 0.54358 0.98913 0.0
H448 H 0.3578 0.45665 0.01556 0.0
H449 H 0.42515 0.46746 0.0248 0.0
H450 H 0.54136 0.52632 0.98854 0.0
H451 H 0.52708 0.49137 0.96973 0.0
H452 H 0.46924 0.39092 0.98784 0.0
H453 H 0.48416 0.42599 0.00659 0.0
H454 H 0.62065 0.55037 0.00304 0.0
H455 H 0.68109 0.52518 -0.00743 0.0
H456 H 0.6422 0.40003 -0.00116 0.0
H457 H 0.58292 0.42587 0.0099 0.0
H458 H 0.61609 0.59697 0.02446 0.0
H459 H 0.68491 0.60958 0.03249 0.0
H460 H 0.68952 0.48302 0.04294 0.0
H461 H 0.62048 0.47096 0.03493 0.0
H462 H 0.53897 0.6236 0.0355 0.0
H463 H 0.58262 0.66043 0.04982 0.0
H464 H 0.60468 0.54633 0.06705 0.0
H465 H 0.56064 0.51004 0.05281 0.0
H466 H 0.44224 0.59671 0.02447 0.0
H467 H 0.37946 0.61179 0.03557 0.0
H468 H 0.40867 0.5159 0.0595 0.0
H469 H 0.4715 0.50139 0.0484 0.0
O470 O 0.49941 0.43492 0.95577 0.0
O471 O 0.46998 0.38409 0.9655 0.0
O472 O 0.74959 0.58943 0.04347 0.0
O473 O 0.75427 0.52428 0.04864 0.0
C474 C 0.48876 0.51555 0.01713 0.0
C475 C 0.52191 0.50028 0.01031 0.0
C476 C 0.56264 0.5057 0.01434 0.0
C477 C 0.57029 0.52652 0.0251 0.0
C478 C 0.53717 0.54093 0.03206 0.0
C479 C 0.49634 0.53513 0.02814 0.0
C480 C 0.44631 0.51205 0.0124 0.0
C481 C 0.43577 0.53414 0.00252 0.0
C482 C 0.39775 0.5276 -0.00289 0.0
C483 C 0.36926 0.49903 0.00154 0.0
C484 C 0.37921 0.47841 0.01181 0.0
C485 C 0.41749 0.48477 0.01717 0.0
C486 C 0.51386 0.47864 -0.00109 0.0
C487 C 0.52586 0.49664 0.98842 0.0
C488 C 0.51754 0.47667 0.97769 0.0
C489 C 0.49698 0.43836 0.97728 0.0
C490 C 0.48511 0.42039 0.98784 0.0
C491 C 0.49355 0.44036 -0.00144 0.0
C492 C 0.59763 0.48995 0.00727 0.0
C493 C 0.62533 0.51753 0.00218 0.0
C494 C 0.65965 0.50301 -0.00389 0.0
C495 C 0.66657 0.46051 -0.00515 0.0
C496 C 0.63821 0.43292 -0.0002 0.0
C497 C 0.60409 0.44756 0.006 0.0
C498 C 0.61329 0.53315 0.02919 0.0
C499 C 0.6321 0.57201 0.02845 0.0
C500 C 0.67137 0.57912 0.03306 0.0
C501 C 0.69261 0.54737 0.03844 0.0
C502 C 0.67397 0.50818 0.0389 0.0
C503 C 0.63464 0.50114 0.0343 0.0
C504 C 0.54685 0.56415 0.04308 0.0
C505 C 0.55138 0.607 0.04275 0.0
C506 C 0.57693 0.62784 0.05081 0.0
C507 C 0.59792 0.60609 0.05937 0.0
C508 C 0.58899 0.564 0.06057 0.0
C509 C 0.56352 0.5432 0.05249 0.0
C510 C 0.46139 0.54803 0.03566 0.0
C511 C 0.43527 0.57938 0.0322 0.0
C512 C 0.39925 0.58762 0.03847 0.0
C513 C 0.38885 0.56473 0.04834 0.0
C514 C 0.41591 0.53427 0.05199 0.0
C515 C 0.45186 0.52601 0.04569 0.0
C516 C 0.48792 0.41736 0.96586 0.0
C517 C 0.73386 0.55511 0.04364 0.0
H518 H 0.09042 0.36677 0.58673 0.0
H519 H 0.34795 0.6312 0.49658 0.0
H520 H 0.02718 0.46652 0.53187 0.0
H521 H 0.97295 0.44508 0.54536 0.0
H522 H 0.98412 0.56195 0.56406 0.0
H523 H 0.03785 0.58324 0.5504 0.0
H524 H 0.09825 0.43693 0.54021 0.0
H525 H 0.0932 0.39657 0.55792 0.0
H526 H 0.11688 0.50669 0.57903 0.0
H527 H 0.12178 0.54664 0.56121 0.0
H528 H 0.17181 0.4479 0.52994 0.0
H529 H 0.22992 0.41283 0.53878 0.0
H530 H 0.27022 0.52778 0.55502 0.0
H531 H 0.21126 0.56233 0.54651 0.0
H532 H 0.18179 0.51246 0.50443 0.0
H533 H 0.2434 0.52931 0.49308 0.0
H534 H 0.27273 0.62769 0.51801 0.0
H535 H 0.21075 0.61078 0.52917 0.0
H536 H 0.09989 0.54815 0.4964 0.0
H537 H 0.12876 0.58209 0.47936 0.0
H538 H 0.17315 0.68186 0.50193 0.0
H539 H 0.14224 0.64877 0.5187 0.0
H540 H 0.02427 0.50766 0.51296 0.0
H541 H 0.96755 0.52521 0.50021 0.0
H542 H 0.9896 0.65423 0.50818 0.0
H543 H 0.04646 0.63621 0.52108 0.0
O544 O 0.09289 0.38323 0.57984 0.0
O545 O 0.10543 0.44067 0.59029 0.0
O546 O 0.30738 0.57241 0.48846 0.0
O547 O 0.3241 0.62311 0.50108 0.0
C548 C 0.07556 0.53504 0.53408 0.0
C549 C 0.11205 0.51927 0.53876 0.0
C550 C 0.15014 0.52731 0.53335 0.0
C551 C 0.15224 0.55291 0.52367 0.0
C552 C 0.11589 0.56961 0.51913 0.0
C553 C 0.07733 0.55949 0.52408 0.0
C554 C 0.03612 0.52655 0.54011 0.0
C555 C 0.01682 0.488 0.53863 0.0
C556 C 0.98631 0.4756 0.54644 0.0
C557 C 0.97464 0.5016 0.55587 0.0
C558 C 0.99216 0.54132 0.55684 0.0
C559 C 0.02273 0.55364 0.54902 0.0
C560 C 0.11036 0.4946 0.54947 0.0
C561 C 0.10247 0.45218 0.54868 0.0
C562 C 0.09955 0.42925 0.5588 0.0
C563 C 0.10457 0.44841 0.5699 0.0
C564 C 0.11283 0.49098 0.57062 0.0
C565 C 0.11572 0.51385 0.56048 0.0
C566 C 0.18753 0.50751 0.53763 0.0
C567 C 0.19346 0.46548 0.53532 0.0
C568 C 0.2265 0.44561 0.54033 0.0
C569 C 0.25437 0.4678 0.54749 0.0
C570 C 0.24932 0.51026 0.54938 0.0
C571 C 0.21581 0.52995 0.54456 0.0
C572 C 0.19212 0.56016 0.51766 0.0
C573 C 0.20194 0.53723 0.5075 0.0
C574 C 0.237 0.54706 0.50102 0.0
C575 C 0.26295 0.57993 0.50463 0.0
C576 C 0.25344 0.6022 0.51498 0.0
C577 C 0.21827 0.59241 0.52144 0.0
C578 C 0.11942 0.59585 0.50877 0.0
C579 C 0.11404 0.57832 0.49754 0.0
C580 C 0.13119 0.59749 0.48785 0.0
C581 C 0.15445 0.63411 0.48931 0.0
C582 C 0.15549 0.65379 0.50042 0.0
C583 C 0.1378 0.63491 0.51006 0.0
C584 C 0.03921 0.57064 0.518 0.0
C585 C 0.01603 0.53964 0.51226 0.0
C586 C 0.9837 0.54974 0.50495 0.0
C587 C 0.97425 0.5911 0.50319 0.0
C588 C -0.00351 0.62212 0.50932 0.0
C589 C 0.02872 0.61193 0.51672 0.0
C590 C 0.10104 0.42403 0.58064 0.0
C591 C 0.29946 0.59141 0.49755 0.0
C592 C 0.11775 0.70477 0.15665 0.0
C593 C 0.97148 0.63612 0.15526 0.0
C594 C 0.95128 0.71942 0.12687 0.0
Mg595 Mg 0.14965 0.79345 0.14874 0.0
Mg596 Mg 0.09079 0.87403 0.14551 0.0
O597 O 0.09796 0.81807 0.14271 0.0
Mg598 Mg 0.05752 0.7741 0.14704 0.0
O599 O 0.02187 0.72602 0.15101 0.0
Mg600 Mg 0.04093 0.68556 0.13857 0.0
Mg601 Mg 0.96534 0.73089 0.15312 0.0
C602 C 0.00336 0.8478 0.13517 0.0
O603 O 0.03201 0.80758 0.16375 0.0
O604 O 0.18588 0.84492 0.13926 0.0
O605 O 0.9678 0.78133 0.16589 0.0
O606 O 0.14824 0.83375 0.16596 0.0
O607 O 0.14265 0.89635 0.13577 0.0
O608 O 0.1025 0.88351 0.16367 0.0
O609 O 0.07912 0.73829 0.13069 0.0
O610 O 0.14622 0.75484 0.1318 0.0
C611 C 0.11602 0.73598 0.12672 0.0
C612 C 0.17798 0.8797 0.13477 0.0
O613 O 0.00809 0.80939 0.13708 0.0
O614 O 0.00251 0.63624 0.14828 0.0
O615 O 0.0296 0.8759 0.13822 0.0
O616 O 0.98417 0.69799 0.12645 0.0
O617 O 0.95267 0.66904 0.15835 0.0
O618 O 0.94029 0.73876 0.13619 0.0
O619 O 0.10862 0.74297 0.15674 0.0
O620 O 0.09626 0.67779 0.15085 0.0
C621 C 0.12826 0.86485 0.16995 0.0
C622 C -0.00304 0.80624 0.16904 0.0
C623 C 0.63074 0.8193 0.41036 0.0
C624 C 0.67939 0.66848 0.41414 0.0
C625 C 0.60711 0.64653 0.38247 0.0
Mg626 Mg 0.54818 0.85449 0.39834 0.0
Mg627 Mg 0.46648 0.79738 0.39013 0.0
O628 O 0.52363 0.80314 0.39115 0.0
Mg629 Mg 0.5601 0.76287 0.39854 0.0
O630 O 0.60053 0.72527 0.40539 0.0
Mg631 Mg 0.64706 0.73597 0.39418 0.0
Mg632 Mg 0.58716 0.67016 0.40801 0.0
C633 C 0.49194 0.70644 0.38321 0.0
O634 O 0.51473 0.74539 0.41336 0.0
O635 O 0.5057 0.8903 0.38595 0.0
O636 O 0.52908 0.67926 0.41703 0.0
O637 O 0.49716 0.85649 0.41284 0.0
O638 O 0.45451 0.84889 0.37932 0.0
O639 O 0.44643 0.81274 0.40743 0.0
O640 O 0.60522 0.77767 0.38383 0.0
O641 O 0.59673 0.84616 0.38408 0.0
C642 C 0.61466 0.81363 0.3802 0.0
C643 C 0.47385 0.88347 0.37951 0.0
O644 O 0.52758 0.71231 0.38775 0.0
O645 O 0.6859 0.69557 0.40635 0.0
O646 O 0.46384 0.73384 0.38337 0.0
O647 O 0.63096 0.67822 0.38206 0.0
O648 O 0.64328 0.65479 0.41652 0.0
O649 O 0.58568 0.63897 0.39151 0.0
O650 O 0.59148 0.81438 0.40937 0.0
O651 O 0.65628 0.79339 0.4059 0.0
C652 C 0.46244 0.8386 0.41475 0.0
C653 C 0.50694 0.7114 0.41847 0.0
C654 C 0.61089 0.18514 0.6653 0.0
C655 C 0.45931 0.13359 0.65662 0.0
C656 C 0.47399 0.20187 0.62507 0.0
Mg657 Mg 0.65866 0.26635 0.6565 0.0
Mg658 Mg 0.6069 0.34905 0.64977 0.0
O659 O 0.61515 0.29298 0.64683 0.0
Mg660 Mg 0.56817 0.25501 0.65011 0.0
O661 O 0.5241 0.2135 0.65333 0.0
Mg662 Mg 0.54645 0.16626 0.64366 0.0
Mg663 Mg 0.4686 0.22606 0.65107 0.0
C664 C 0.52983 0.32631 0.63387 0.0
O665 O 0.53564 0.29881 0.66336 0.0
O666 O 0.70416 0.313 0.64788 0.0
O667 O 0.46803 0.28225 0.66188 0.0
O668 O 0.65022 0.31038 0.67265 0.0
O669 O 0.6666 0.36839 0.6437 0.0
O670 O 0.60272 0.35655 0.66835 0.0
O671 O 0.59611 0.2105 0.637 0.0
O672 O 0.66291 0.22028 0.64094 0.0
C673 C 0.63387 0.20154 0.63527 0.0
C674 C 0.70073 0.34907 0.64364 0.0
O675 O 0.53233 0.28819 0.6363 0.0
O676 O 0.49441 0.12691 0.65178 0.0
O677 O 0.55255 0.35449 0.63874 0.0
O678 O 0.50373 0.17861 0.62783 0.0
O679 O 0.44383 0.16955 0.65757 0.0
O680 O 0.45761 0.22643 0.63257 0.0
O681 O 0.60732 0.22366 0.66353 0.0
O682 O 0.5898 0.15812 0.65938 0.0
C683 C 0.62588 0.3393 0.67567 0.0
C684 C 0.49764 0.3048 0.666 0.0
C685 C 0.13529 0.31402 0.91229 0.0
C686 C 0.17518 0.16133 0.91043 0.0
C687 C 0.1183 0.15947 0.87635 0.0
Mg688 Mg 0.0653 0.36408 0.89973 0.0
Mg689 Mg 0.98173 0.32362 0.88702 0.0
O690 O 0.03842 0.32097 0.88925 0.0
Mg691 Mg 0.06747 0.27176 0.89511 0.0
O692 O 0.10205 0.22665 0.90107 0.0
Mg693 Mg 0.15498 0.24056 0.89289 0.0
Mg694 Mg 0.08647 0.17143 0.90157 0.0
C695 C 0.00043 0.23594 0.87529 0.0
O696 O 0.01451 0.24843 0.9071 0.0
O697 O 0.03255 0.41317 0.88871 0.0
O698 O 0.02607 0.18061 0.9092 0.0
O699 O 0.0106 0.36296 0.91286 0.0
O700 O 0.97921 0.38296 0.87925 0.0
O701 O 0.95754 0.3297 0.90433 0.0
O702 O 0.12045 0.29062 0.88316 0.0
O703 O 0.11855 0.35883 0.88672 0.0
C704 C 0.13489 0.3271 0.88177 0.0
C705 C 0.00218 0.41443 0.88156 0.0
O706 O 0.03487 0.23333 0.8807 0.0
O707 O 0.18546 0.19167 0.90406 0.0
O708 O 0.97574 0.26621 0.87676 0.0
O709 O 0.14333 0.18987 0.87812 0.0
O710 O 0.13781 0.14882 0.91136 0.0
O711 O 0.09169 0.1492 0.88398 0.0
O712 O 0.09734 0.31221 0.90926 0.0
O713 O 0.16202 0.28989 0.90761 0.0
C714 C 0.97401 0.34792 0.91321 0.0
C715 C 0.00403 0.21274 0.91085 0.0
C716 C 0.23621 0.96633 0.49321 0.0
C717 C 0.19805 0.94613 0.49165 0.0
C718 C 0.27073 0.95334 0.48687 0.0
C719 C 0.3104 0.86516 0.4691 0.0
H720 H 0.37732 0.94797 0.45404 0.0
C721 C 0.39866 0.83307 0.42681 0.0
C722 C 0.43868 0.84919 0.42546 0.0
C723 C 0.37518 0.84349 0.43661 0.0
C724 C 0.35946 0.92451 0.45837 0.0
H725 H 0.16607 0.89685 0.48213 0.0
H726 H 0.22595 0.87443 0.47105 0.0
H727 H 0.3246 0.96908 0.46812 0.0
H728 H 0.48536 0.88906 0.43344 0.0
H729 H 0.44373 0.90764 0.45067 0.0
H730 H 0.34407 0.82071 0.45894 0.0
C731 C 0.22957 0.89969 0.47735 0.0
C732 C 0.32925 0.93656 0.46643 0.0
C733 C 0.19517 0.91262 0.48367 0.0
C734 C 0.45469 0.87604 0.43422 0.0
C735 C 0.43092 0.88671 0.44406 0.0
C736 C 0.34042 0.85316 0.46101 0.0
C737 C 0.26774 0.91991 0.47884 0.0
C738 C 0.30356 0.90705 0.47161 0.0
C739 C 0.39096 0.87042 0.44533 0.0
C740 C 0.36437 0.88278 0.45531 0.0
H741 H 0.23949 0.99191 0.49942 0.0
H742 H 0.29979 0.96932 0.48829 0.0
H743 H 0.29177 0.84163 0.47314 0.0
H744 H 0.38513 0.81245 0.42024 0.0
H745 H 0.34423 0.831 0.43725 0.0
C746 C 0.39485 0.88728 0.72882 0.0
C747 C 0.35622 0.86902 0.73085 0.0
C748 C 0.401 0.91217 0.71924 0.0
C749 C 0.34599 0.97339 0.69773 0.0
H750 H 0.45234 0.97114 0.68236 0.0
C751 C 0.40854 0.10685 0.67102 0.0
C752 C 0.43762 0.0991 0.66215 0.0
C753 C 0.39247 0.07469 0.67749 0.0
C754 C 0.4221 0.97167 0.68634 0.0
H755 H 0.29351 0.86316 0.7245 0.0
H756 H 0.30469 0.90553 0.70751 0.0
H757 H 0.43686 0.92217 0.69737 0.0
H758 H 0.46993 0.05135 0.6524 0.0
H759 H 0.44075 -0.00505 0.66343 0.0
H760 H 0.33104 0.02253 0.68652 0.0
C761 C 0.33007 0.90102 0.71343 0.0
C762 C 0.41352 0.94402 0.69512 0.0
C763 C 0.3238 0.87638 0.7231 0.0
C764 C 0.44808 0.05829 0.65932 0.0
C765 C 0.43149 0.02603 0.66568 0.0
C766 C 0.3544 0.00079 0.68882 0.0
C767 C 0.36882 0.91902 0.71137 0.0
C768 C 0.37587 0.94536 0.70116 0.0
C769 C 0.40467 0.034 0.67512 0.0
C770 C 0.39301 0.00101 0.68325 0.0
H771 H 0.42064 0.88185 0.73452 0.0
H772 H 0.43103 0.92624 0.71805 0.0
H773 H 0.31669 0.9753 0.70221 0.0
H774 H 0.39986 0.13799 0.67341 0.0
H775 H 0.37229 0.08214 0.68477 0.0
C776 C 0.414 0.07306 0.98768 0.0
C777 C 0.45056 0.09632 0.987 0.0
C778 C 0.38473 0.07449 0.97876 0.0
C779 C 0.35325 0.14185 0.95506 0.0
H780 H 0.2874 0.04784 0.94443 0.0
C781 C 0.24896 0.15354 0.91568 0.0
C782 C 0.20752 0.14282 0.91758 0.0
C783 C 0.27923 0.14169 0.92342 0.0
C784 C 0.30556 0.07427 0.94738 0.0
H785 H 0.48649 0.13729 0.97627 0.0
H786 H 0.43609 0.13911 0.9606 0.0
H787 H 0.33988 0.03929 0.95952 0.0
H788 H 0.16583 0.10847 0.92863 0.0
H789 H 0.21918 0.08782 0.94226 0.0
H790 H 0.31939 0.17676 0.94294 0.0
C791 C 0.42919 0.12085 0.96816 0.0
C792 C 0.33544 0.06948 0.95601 0.0
C793 C 0.45811 0.11978 0.9771 0.0
C794 C 0.19745 0.11742 0.92696 0.0
C795 C 0.22793 0.10548 0.93474 0.0
C796 C 0.32384 0.1465 0.94641 0.0
C797 C 0.39179 0.09892 0.96898 0.0
C798 C 0.35977 0.10325 0.95989 0.0
C799 C 0.26881 0.11882 0.93325 0.0
C800 C 0.2999 0.11278 0.94242 0.0
H801 H 0.40757 0.05474 -0.00474 0.0
H802 H 0.35611 0.0575 0.97971 0.0
H803 H 0.37056 0.16876 0.95807 0.0
H804 H 0.25795 0.17247 0.90843 0.0
H805 H 0.3107 0.15168 0.92196 0.0
C806 C 0.24573 0.0948 0.24893 0.0
C807 C 0.2773 0.11956 0.24433 0.0
C808 C 0.23127 0.06008 0.24263 0.0
C809 C 0.21628 0.02842 0.21262 0.0
H810 H 0.19478 0.91823 0.2235 0.0
C811 C 0.17228 0.86956 0.18804 0.0
C812 C 0.1385 0.88323 0.1816 0.0
C813 C 0.18693 0.89276 0.19771 0.0
C814 C 0.20066 0.94893 0.22041 0.0
H815 H 0.31948 0.12657 0.22977 0.0
H816 H 0.29405 0.06623 0.21879 0.0
H817 H 0.22874 0.96975 0.23658 0.0
H818 H 0.09135 0.92984 0.18099 0.0
H819 H 0.11671 0.96963 0.19776 0.0
H820 H 0.18793 0.00839 0.1966 0.0
C821 C 0.28069 0.07357 0.22727 0.0
C822 C 0.2199 0.97826 0.22786 0.0
C823 C 0.29537 0.10793 0.23359 0.0
C824 C 0.11756 0.91841 0.18566 0.0
C825 C 0.13212 0.94138 0.19526 0.0
C826 C 0.19658 -0.00044 0.20532 0.0
C827 C 0.24785 0.04998 0.23159 0.0
C828 C 0.22806 0.01815 0.22395 0.0
C829 C 0.16796 0.92982 0.20102 0.0
C830 C 0.18851 0.95962 0.20913 0.0
H831 H 0.23153 0.1029 0.25724 0.0
H832 H 0.20577 0.04244 0.2461 0.0
H833 H 0.22179 0.05908 0.20945 0.0
H834 H 0.18896 0.84247 0.1852 0.0
H835 H 0.21468 0.88331 0.20205 0.0
C836 C 0.23799 0.10696 0.54488 0.0
C837 C 0.21529 0.07315 0.54897 0.0
C838 C 0.27198 0.12257 0.55114 0.0
C839 C 0.3455 0.09699 0.57468 0.0
H840 H 0.35632 0.21531 0.57882 0.0
C841 C 0.46881 0.16603 0.60538 0.0
C842 C 0.45455 0.19624 0.61338 0.0
C843 C 0.44573 0.15483 0.59545 0.0
C844 C 0.35378 0.1822 0.57775 0.0
H845 H 0.21069 0.02923 0.56284 0.0
H846 H 0.26961 0.05641 0.57375 0.0
H847 H 0.30348 0.1863 0.56581 0.0
H848 H 0.40671 0.24109 0.61658 0.0
H849 H 0.36631 0.22118 0.59946 0.0
H850 H 0.39418 0.09267 0.58707 0.0
C851 C 0.26176 0.07048 0.56559 0.0
C852 C 0.32373 0.16554 0.57018 0.0
C853 C 0.22789 0.05484 0.55933 0.0
C854 C 0.41844 0.21734 0.61069 0.0
C855 C 0.3953 0.20604 0.60079 0.0
C856 C 0.3754 0.11361 0.58226 0.0
C857 C 0.28406 0.10478 0.56164 0.0
C858 C 0.31864 0.12268 0.56875 0.0
C859 C 0.4078 0.1735 0.5933 0.0
C860 C 0.37945 0.15642 0.58408 0.0
H861 H 0.22939 0.12147 0.53685 0.0
H862 H 0.28878 0.14863 0.54775 0.0
H863 H 0.34296 0.06388 0.57364 0.0
H864 H 0.4968 0.14953 0.60706 0.0
H865 H 0.45688 0.13043 0.5897 0.0
C866 C 0.22677 0.84444 0.83071 0.0
C867 C 0.22201 0.83614 0.81866 0.0
C868 C 0.21211 0.88103 0.83579 0.0
C869 C 0.18704 0.98732 0.8288 0.0
H870 H 0.12862 0.98641 0.85838 0.0
C871 C 0.09423 0.09984 0.86388 0.0
C872 C 0.12373 0.13107 0.8661 0.0
C873 C 0.10279 0.06686 0.85627 0.0
C874 C 0.14452 0.98721 0.85005 0.0
H875 H 0.19802 0.85976 0.80251 0.0
H876 H 0.1726 0.92354 0.81137 0.0
H877 H 0.15001 0.92175 0.84919 0.0
H878 H 0.18425 0.15371 0.86125 0.0
H879 H 0.19948 0.09553 0.84799 0.0
H880 H 0.18183 0.05306 0.82978 0.0
C881 C 0.18761 0.90175 0.81689 0.0
C882 C 0.15716 0.95017 0.84487 0.0
C883 C 0.20176 0.86498 0.81185 0.0
C884 C 0.16081 0.13023 0.85974 0.0
C885 C 0.16954 0.09687 0.85214 0.0
C886 C 0.17469 0.02456 0.83407 0.0
C887 C 0.19288 0.91031 0.82889 0.0
C888 C 0.17867 0.94978 0.83421 0.0
C889 C 0.14128 0.06398 0.85076 0.0
C890 C 0.15326 0.02486 0.84475 0.0
H891 H 0.24222 0.82285 0.83618 0.0
H892 H 0.2168 0.88691 0.84506 0.0
H893 H 0.20387 0.98795 0.82062 0.0
H894 H 0.06541 0.09938 0.86861 0.0
H895 H 0.08 0.04248 0.85518 0.0
C896 C 0.39381 0.03461 0.05931 0.0
C897 C 0.43328 0.01777 0.05831 0.0
C898 C 0.36612 0.02049 0.06772 0.0
C899 C 0.34406 0.93247 0.08642 0.0
H900 H 0.28338 0.01163 0.10539 0.0
C901 C 0.24886 0.88241 0.1261 0.0
C902 C 0.20957 0.8995 0.12737 0.0
C903 C 0.27709 0.8985 0.11816 0.0
C904 C 0.2998 0.98911 0.1001 0.0
H905 H 0.47481 0.97336 0.06552 0.0
H906 H 0.4264 0.94843 0.08001 0.0
H907 H 0.32938 0.0356 0.09004 0.0
H908 H 0.1698 0.94797 0.12157 0.0
H909 H 0.21877 0.97555 0.10764 0.0
H910 H 0.31432 0.88594 0.09634 0.0
C911 C 0.41663 0.9721 0.07419 0.0
C912 C 0.32608 0.00286 0.0913 0.0
C913 C 0.4443 0.9863 0.06584 0.0
C914 C 0.19978 0.93402 0.12084 0.0
C915 C 0.22795 0.94999 0.11287 0.0
C916 C 0.31769 0.91873 0.09517 0.0
C917 C 0.37734 0.98919 0.07527 0.0
C918 C 0.34856 0.97467 0.08439 0.0
C919 C 0.26666 0.93196 0.11128 0.0
C920 C 0.29532 0.94687 0.10214 0.0
H921 H 0.38431 0.05868 0.05358 0.0
H922 H 0.33585 0.0339 0.06827 0.0
H923 H 0.36058 0.90999 0.08113 0.0
H924 H 0.25757 0.856 0.13105 0.0
H925 H 0.30698 0.88442 0.11731 0.0
C926 C 0.40642 0.12669 0.30253 0.0
C927 C 0.37605 0.1561 0.3049 0.0
C928 C 0.41547 0.09708 0.31071 0.0
C929 C 0.37399 0.04549 0.33665 0.0
H930 H 0.48859 0.02114 0.34222 0.0
C931 C 0.42603 0.90943 0.36427 0.0
C932 C 0.46004 0.91611 0.37169 0.0
C933 C 0.41439 0.9394 0.35646 0.0
C934 C 0.45646 0.02785 0.34084 0.0
H935 H 0.33141 0.17753 0.31774 0.0
H936 H 0.34719 0.12577 0.33202 0.0
H937 H 0.4709 0.07184 0.32785 0.0
H938 H 0.50777 0.96013 0.37692 0.0
H939 H 0.48719 0.01241 0.36337 0.0
H940 H 0.35964 0.00187 0.34978 0.0
C941 C 0.36361 0.12529 0.32376 0.0
C942 C 0.4463 0.0565 0.3325 0.0
C943 C 0.35456 0.15492 0.31558 0.0
C944 C 0.48156 0.95381 0.3713 0.0
C945 C 0.46994 0.98372 0.36348 0.0
C946 C 0.38416 0.01673 0.34498 0.0
C947 C 0.39437 0.09623 0.32145 0.0
C948 C 0.40497 0.06561 0.3303 0.0
C949 C 0.43651 0.97667 0.35588 0.0
C950 C 0.42552 0.00761 0.34717 0.0
H951 H 0.42305 0.12642 0.29431 0.0
H952 H 0.43885 0.07466 0.30859 0.0
H953 H 0.34185 0.05163 0.33508 0.0
H954 H 0.40872 0.88078 0.36433 0.0
H955 H 0.38872 0.93289 0.35065 0.0
C956 C 0.8209 0.07446 0.56135 0.0
C957 C 0.8372 0.03517 0.55927 0.0
C958 C 0.78549 0.07948 0.56807 0.0
C959 C 0.73436 0.03529 0.59263 0.0
H960 H 0.65701 0.12204 0.5868 0.0
C961 C 0.61606 0.15375 0.61842 0.0
C962 C 0.64435 0.16785 0.62695 0.0
C963 C 0.6277 0.12439 0.60992 0.0
C964 C 0.67749 0.09692 0.5885 0.0
H965 H 0.82797 0.97008 0.56225 0.0
H966 H 0.76659 0.97923 0.57442 0.0
H967 H 0.69909 0.09474 0.5708 0.0
H968 H 0.70584 0.16023 0.63381 0.0
H969 H 0.72612 0.10951 0.61904 0.0
H970 H 0.71457 0.03929 0.61049 0.0
C971 C 0.78132 0.00597 0.57073 0.0
C972 C 0.70182 0.08157 0.57936 0.0
C973 C 0.81663 0.00086 0.56387 0.0
C974 C 0.68353 0.15037 0.62726 0.0
C975 C 0.69495 0.12083 0.61888 0.0
C976 C 0.71008 0.05072 0.60178 0.0
C977 C 0.7657 0.04541 0.57298 0.0
C978 C 0.73209 0.05235 0.58151 0.0
C979 C 0.66757 0.10829 0.60995 0.0
C980 C 0.68318 0.08333 0.59993 0.0
H981 H 0.83628 0.10165 0.55815 0.0
H982 H 0.77477 0.11038 0.5699 0.0
H983 H 0.75739 0.0127 0.59453 0.0
H984 H 0.58553 0.16653 0.61801 0.0
H985 H 0.60602 0.1152 0.60313 0.0
C986 C 0.78609 0.06506 0.32532 0.0
C987 C 0.76684 0.06959 0.31443 0.0
C988 C 0.77893 0.02999 0.33184 0.0
C989 C 0.73517 0.92328 0.32992 0.0
H990 H 0.72032 0.94069 0.36332 0.0
C991 C 0.63664 0.82127 0.35972 0.0
C992 C 0.64731 0.81965 0.37157 0.0
C993 C 0.66154 0.84296 0.35197 0.0
C994 C 0.72528 0.93495 0.35405 0.0
H995 H 0.72558 0.04 0.3018 0.0
H996 H 0.71157 0.97993 0.31341 0.0
H997 H 0.7421 -0.00236 0.35148 0.0
H998 H 0.69349 0.83595 0.3845 0.0
H999 H 0.73765 0.87315 0.37094 0.0
H1000 H 0.71612 0.8608 0.33253 0.0
C1001 C 0.73294 0.00307 0.31681 0.0
C1002 C 0.73775 0.96776 0.34723 0.0
C1003 C 0.74039 0.03798 0.31023 0.0
C1004 C 0.68505 0.83643 0.37534 0.0
C1005 C 0.70998 0.85811 0.36761 0.0
C1006 C 0.72234 0.89043 0.33675 0.0
C1007 C 0.75199 -0.00133 0.32773 0.0
C1008 C 0.7422 0.9626 0.33504 0.0
C1009 C 0.69725 0.86363 0.35602 0.0
C1010 C 0.71666 0.8961 0.34888 0.0
H1011 H 0.80638 0.08885 0.3289 0.0
H1012 H 0.79456 0.0275 0.34014 0.0
H1013 H 0.73902 0.91797 0.32059 0.0
H1014 H 0.60713 0.80931 0.35671 0.0
H1015 H 0.65071 0.84681 0.34312 0.0
C1016 C 0.7386 0.01928 0.08036 0.0
C1017 C 0.75859 0.03354 0.07031 0.0
C1018 C 0.75886 -0.00666 0.08791 0.0
C1019 C 0.84625 0.92206 0.08811 0.0
H1020 H 0.84229 0.93778 0.12185 0.0
C1021 C 0.97643 0.88638 0.1187 0.0
C1022 C 0.96867 0.86035 0.12803 0.0
C1023 C 0.94429 0.89963 0.11185 0.0
C1024 C 0.84276 0.93246 0.11246 0.0
H1025 H 0.81562 0.03366 0.06051 0.0
H1026 H 0.85151 0.98936 0.07384 0.0
H1027 H 0.79871 0.97937 0.1095 0.0
H1028 H 0.92177 0.82768 0.13768 0.0
H1029 H 0.8644 0.85263 0.12578 0.0
H1030 H 0.89234 0.87719 0.09106 0.0
C1031 C 0.81985 -0.00288 0.07573 0.0
C1032 C 0.81804 0.95628 0.10539 0.0
C1033 C 0.79955 0.02279 0.06817 0.0
C1034 C 0.9282 0.84764 0.13045 0.0
C1035 C 0.89565 0.86186 0.12372 0.0
C1036 C 0.87111 0.89863 0.09515 0.0
C1037 C 0.79943 0.98134 0.08553 0.0
C1038 C 0.82076 0.95235 0.09313 0.0
C1039 C 0.90372 0.88778 0.11435 0.0
C1040 C 0.87051 0.90465 0.10733 0.0
H1041 H 0.70672 0.02667 0.08208 0.0
H1042 H 0.74234 0.98159 0.09537 0.0
H1043 H 0.84813 0.91752 0.0787 0.0
H1044 H 0.0075 0.89637 0.11667 0.0
H1045 H 0.95102 0.91998 0.10472 0.0
C1046 C 0.90678 0.9818 0.79891 0.0
C1047 C 0.90271 0.94151 0.80285 0.0
C1048 C 0.9208 0.01333 0.80649 0.0
C1049 C 0.92827 0.03773 0.83819 0.0
H1050 H 0.99218 0.13167 0.82801 0.0
C1051 C -0.004 0.16154 0.86989 0.0
C1052 C 0.9889 0.20245 0.86703 0.0
C1053 C 0.98593 0.12959 0.86199 0.0
C1054 C 0.97408 0.10568 0.83092 0.0
H1055 H 0.91244 0.90175 0.81743 0.0
H1056 H 0.93838 0.95639 0.83057 0.0
H1057 H 0.97714 0.07491 0.81416 0.0
H1058 H 0.96591 0.24248 0.85378 0.0
H1059 H 0.94955 0.18637 0.8397 0.0
H1060 H 0.9259 0.06828 0.85499 0.0
C1061 C 0.92942 0.96411 0.82179 0.0
C1062 C 0.96542 0.07323 0.82301 0.0
C1063 C 0.91488 0.93277 0.81427 0.0
C1064 C 0.97157 0.21105 0.85615 0.0
C1065 C 0.96251 0.17912 0.84811 0.0
C1066 C 0.93735 0.06989 0.84611 0.0
C1067 C 0.93144 0.00498 0.81811 0.0
C1068 C 0.94226 0.03891 0.82655 0.0
C1069 C 0.96968 0.13814 0.85097 0.0
C1070 C 0.96015 0.1042 0.84253 0.0
H1071 H 0.89724 0.98923 0.79015 0.0
H1072 H 0.92157 0.04446 0.80339 0.0
H1073 H 0.90954 0.01231 0.84116 0.0
H1074 H 0.00893 0.15426 0.8783 0.0
H1075 H 0.99149 0.0982 0.8644 0.0
C1076 C 0.91787 0.90878 0.46752 0.0
C1077 C 0.92321 0.94634 0.47372 0.0
C1078 C 0.88327 0.90183 0.46045 0.0
C1079 C 0.77641 0.93455 0.45645 0.0
H1080 H 0.78854 0.88218 0.4258 0.0
C1081 C 0.64544 0.85303 0.42967 0.0
C1082 C 0.64886 0.85323 0.41744 0.0
C1083 C 0.67498 0.87356 0.43667 0.0
C1084 C 0.78457 0.89738 0.43427 0.0
H1085 H 0.89612 0.00586 0.47745 0.0
H1086 H 0.83587 -0.0063 0.4651 0.0
H1087 H 0.84934 0.89792 0.43753 0.0
H1088 H 0.68279 0.878 0.40289 0.0
H1089 H 0.73338 0.91498 0.41504 0.0
H1090 H 0.71138 0.93337 0.45319 0.0
C1091 C 0.85847 0.96971 0.46569 0.0
C1092 C 0.81944 0.90587 0.44105 0.0
C1093 C 0.89327 0.97683 0.47264 0.0
C1094 C 0.67945 0.87767 0.41232 0.0
C1095 C 0.7087 0.89833 0.41928 0.0
C1096 C 0.74136 0.92571 0.44967 0.0
C1097 C 0.853 0.93209 0.45954 0.0
C1098 C 0.8158 0.9243 0.45224 0.0
C1099 C 0.70824 0.89448 0.43149 0.0
C1100 C 0.74506 0.90693 0.43851 0.0
H1101 H 0.94032 0.88469 0.4682 0.0
H1102 H 0.87973 0.87238 0.45589 0.0
H1103 H 0.77263 0.94852 0.46509 0.0
H1104 H 0.62258 0.83365 0.43379 0.0
H1105 H 0.67377 0.86996 0.44606 0.0
C1106 C 0.93395 0.05947 0.24845 0.0
C1107 C 0.9 0.04843 0.25538 0.0
C1108 C 0.94942 0.03204 0.23999 0.0
C1109 C 0.9479 0.92282 0.22992 0.0
H1110 H 0.96977 0.96884 0.19955 0.0
C1111 C 0.95952 0.82312 0.18764 0.0
C1112 C 0.98981 0.83349 0.1794 0.0
C1113 C 0.95242 0.84858 0.19744 0.0
C1114 C 0.96443 0.95557 0.20802 0.0
H1115 H 0.85665 -0.00056 0.25918 0.0
H1116 H 0.88338 0.95153 0.2443 0.0
H1117 H 0.95115 0.01412 0.21597 0.0
H1118 H 0.03561 0.87905 0.17487 0.0
H1119 H 0.0237 0.92352 0.19209 0.0
H1120 H 0.96048 0.86412 0.22186 0.0
C1121 C 0.89829 0.9813 0.24548 0.0
C1122 C 0.95378 0.98152 0.21744 0.0
C1123 C 0.88276 0.00881 0.25395 0.0
C1124 C 0.01274 0.86994 0.18116 0.0
C1125 C 0.00554 0.89557 0.19096 0.0
C1126 C 0.95853 0.89683 0.22048 0.0
C1127 C 0.93126 -0.00706 0.23825 0.0
C1128 C 0.94502 0.96542 0.22847 0.0
C1129 C 0.97527 0.88515 0.1992 0.0
C1130 C 0.96648 0.91289 0.2094 0.0
H1131 H 0.94751 0.09002 0.24919 0.0
H1132 H 0.97513 0.04178 0.23466 0.0
H1133 H 0.9419 0.90954 0.23835 0.0
H1134 H 0.94129 0.79517 0.18656 0.0
H1135 H 0.92844 0.83999 0.20353 0.0
C1136 C 0.68558 0.18918 0.96876 0.0
C1137 C 0.68612 0.15221 0.97482 0.0
C1138 C 0.71486 0.19687 0.96006 0.0
C1139 C 0.79508 0.14515 0.94169 0.0
H1140 H 0.84677 0.25324 0.94196 0.0
C1141 C 0.95868 0.17457 0.92463 0.0
C1142 C 0.96465 0.20779 0.91719 0.0
C1143 C 0.92121 0.169 0.93039 0.0
C1144 C 0.83225 0.22308 0.94171 0.0
H1145 H 0.71793 0.09457 0.9766 0.0
H1146 H 0.76882 0.10797 0.96167 0.0
H1147 H 0.78608 0.24123 0.9541 0.0
H1148 H 0.93527 0.25972 0.90951 0.0
H1149 H 0.87003 0.2509 0.91993 0.0
H1150 H 0.8426 0.12664 0.92975 0.0
C1151 C 0.74525 0.13062 0.96329 0.0
C1152 C 0.79737 0.2162 0.9486 0.0
C1153 C 0.71597 0.12288 0.97188 0.0
C1154 C 0.93218 0.23503 0.91556 0.0
C1155 C 0.89476 0.22971 0.92141 0.0
C1156 C 0.8302 0.15191 0.93495 0.0
C1157 C 0.7454 0.16785 0.95734 0.0
C1158 C 0.77894 0.17684 0.94888 0.0
C1159 C 0.88897 0.19659 0.92885 0.0
C1160 C 0.84957 0.19068 0.9351 0.0
H1161 H 0.66285 0.21229 0.97085 0.0
H1162 H 0.71383 0.22568 0.95556 0.0
H1163 H 0.78108 0.11476 0.94145 0.0
H1164 H 0.98304 0.1529 0.92606 0.0
H1165 H 0.91758 0.14335 0.93616 0.0
C1166 C 0.81486 0.00894 0.73741 0.0
C1167 C 0.78469 0.9902 0.74439 0.0
C1168 C 0.80454 0.04089 0.73008 0.0
C1169 C 0.76403 0.07591 0.70873 0.0
H1170 H 0.67983 0.15651 0.71547 0.0
C1171 C 0.65167 0.12972 0.67424 0.0
C1172 C 0.63999 0.17111 0.67422 0.0
C1173 C 0.67713 0.1155 0.683 0.0
C1174 C 0.70389 0.1347 0.71348 0.0
H1175 H 0.72053 0.99201 0.74961 0.0
H1176 H 0.70269 0.04766 0.73693 0.0
H1177 H 0.71101 0.11981 0.7315 0.0
H1178 H 0.64659 0.23031 0.68327 0.0
H1179 H 0.6909 0.20512 0.69875 0.0
H1180 H 0.75591 0.08968 0.69069 0.0
C1181 C 0.73441 0.03801 0.73718 0.0
C1182 C 0.72149 0.11345 0.72264 0.0
C1183 C 0.74468 0.00603 0.74447 0.0
C1184 C 0.65512 0.19824 0.68304 0.0
C1185 C 0.6803 0.18384 0.69192 0.0
C1186 C 0.74633 0.09697 0.69958 0.0
C1187 C 0.76388 0.05486 0.72961 0.0
C1188 C 0.75081 0.08289 0.72032 0.0
C1189 C 0.6913 0.14223 0.69202 0.0
C1190 C 0.71512 0.12557 0.70182 0.0
H1191 H 0.84615 -0.00206 0.7373 0.0
H1192 H 0.82807 0.0537 0.72448 0.0
H1193 H 0.7863 0.05237 0.70661 0.0
H1194 H 0.64073 0.10805 0.66755 0.0
H1195 H 0.68459 0.08315 0.68293 0.0
C1196 C 0.71719 0.46533 0.97835 0.0
C1197 C 0.70326 0.44526 0.98837 0.0
C1198 C 0.75205 0.45175 0.97236 0.0
C1199 C 0.81245 0.36119 0.96592 0.0
H1200 H 0.89229 0.44079 0.95479 0.0
C1201 C 0.90843 0.3382 0.9243 0.0
C1202 C 0.94939 0.35256 0.92406 0.0
C1203 C 0.88414 0.34431 0.93423 0.0
C1204 C 0.87074 0.41805 0.958 0.0
H1205 H 0.71534 0.39506 -4e-05 0.0
H1206 H 0.77573 0.37056 0.98919 0.0
H1207 H 0.83849 0.46293 0.96839 0.0
H1208 H -0.00277 0.38382 0.93425 0.0
H1209 H 0.95409 0.39559 0.95156 0.0
H1210 H 0.8438 0.31663 0.95516 0.0
C1211 C 0.75956 0.397 0.98608 0.0
C1212 C 0.83974 0.4308 0.96568 0.0
C1213 C 0.72486 0.4109 -0.00782 0.0
C1214 C 0.96575 0.3725 0.93412 0.0
C1215 C 0.94115 0.37918 0.94403 0.0
C1216 C 0.84327 0.34849 0.95814 0.0
C1217 C 0.77358 0.41751 0.97616 0.0
C1218 C 0.80965 0.40274 0.96944 0.0
C1219 C 0.89995 0.36558 0.94411 0.0
C1220 C 0.87201 0.37705 0.95387 0.0
H1221 H 0.70085 0.49128 0.975 0.0
H1222 H 0.76171 0.46759 0.96458 0.0
H1223 H 0.78958 0.33895 0.96868 0.0
H1224 H 0.8946 0.32319 0.91668 0.0
H1225 H 0.85231 0.33407 0.93396 0.0
C1226 C 0.8673 0.35175 0.21746 0.0
C1227 C 0.87288 0.36638 0.22907 0.0
C1228 C 0.87946 0.37563 0.20806 0.0
C1229 C 0.94859 0.45991 0.19999 0.0
H1230 H 0.86906 0.48064 0.17567 0.0
C1231 C 0.91989 0.59373 0.16597 0.0
C1232 C 0.95883 0.59731 0.16072 0.0
C1233 C 0.90977 0.55944 0.1725 0.0
C1234 C 0.89165 0.47479 0.18235 0.0
H1235 H 0.89567 0.41778 0.23981 0.0
H1236 H 0.9178 0.45888 0.22339 0.0
H1237 H 0.85173 0.4326 0.19109 0.0
H1238 H 0.01704 0.56688 0.15773 0.0
H1239 H -0.00056 0.50711 0.16934 0.0
H1240 H 0.98813 0.50281 0.19144 0.0
C1241 C 0.90411 0.42882 0.22162 0.0
C1242 C 0.88184 0.44724 0.19112 0.0
C1243 C 0.89149 0.40521 0.23102 0.0
C1244 C 0.98677 0.56498 0.16167 0.0
C1245 C 0.97683 0.53091 0.16835 0.0
C1246 C 0.95859 0.48703 0.19114 0.0
C1247 C 0.89799 0.41434 0.21006 0.0
C1248 C 0.90989 0.44028 0.20016 0.0
C1249 C 0.93856 0.52829 0.17402 0.0
C1250 C 0.92988 0.49539 0.18239 0.0
H1251 H 0.85388 0.32165 0.21562 0.0
H1252 H 0.87475 0.36365 0.19922 0.0
H1253 H 0.97085 0.45477 0.20681 0.0
H1254 H 0.89762 0.61803 0.16533 0.0
H1255 H 0.88015 0.55833 0.17684 0.0
C1256 C 0.90654 0.57908 0.49322 0.0
C1257 C 0.94362 0.60148 0.49423 0.0
C1258 C 0.87971 0.58586 0.48399 0.0
C1259 C 0.85362 0.66035 0.46155 0.0
H1260 H 0.80319 0.56496 0.44601 0.0
C1261 C 0.75255 0.67564 0.42079 0.0
C1262 C 0.71422 0.65526 0.42135 0.0
C1263 C 0.78363 0.6669 0.42871 0.0
C1264 C 0.81696 0.59186 0.45029 0.0
H1265 H 0.98148 0.64892 0.48649 0.0
H1266 H 0.93456 0.66086 0.47038 0.0
H1267 H 0.85025 0.55562 0.46228 0.0
H1268 H 0.67941 0.60796 0.43023 0.0
H1269 H 0.73356 0.5929 0.44404 0.0
H1270 H 0.82005 0.69659 0.44962 0.0
C1271 C 0.926 0.63838 0.47679 0.0
C1272 C 0.84373 0.58656 0.45963 0.0
C1273 C 0.9528 0.63165 0.48603 0.0
C1274 C 0.70846 0.62441 0.42959 0.0
C1275 C 0.73959 0.61558 0.43747 0.0
C1276 C 0.82691 0.66565 0.45219 0.0
C1277 C 0.88948 0.61512 0.47557 0.0
C1278 C 0.86197 0.62078 0.46545 0.0
C1279 C 0.77709 0.63746 0.43729 0.0
C1280 C 0.80799 0.63147 0.44655 0.0
H1281 H 0.8985 0.55596 0.4995 0.0
H1282 H 0.85137 0.56806 0.48342 0.0
H1283 H 0.86687 0.68733 0.46592 0.0
H1284 H 0.7581 0.69944 0.41452 0.0
H1285 H 0.81249 0.68379 0.42827 0.0
C1286 C 0.66017 0.59713 0.75134 0.0
C1287 C 0.66821 0.62841 0.7434 0.0
C1288 C 0.64389 0.55929 0.74739 0.0
C1289 C 0.65203 0.47867 0.73286 0.0
H1290 H 0.56629 0.4648 0.70951 0.0
C1291 C 0.66223 0.37261 0.69254 0.0
C1292 C 0.62611 0.35541 0.68777 0.0
C1293 C 0.66051 0.39665 0.70284 0.0
C1294 C 0.58975 0.46777 0.71621 0.0
H1295 H 0.66349 0.64614 0.72536 0.0
H1296 H 0.63406 0.58029 0.71845 0.0
H1297 H 0.57135 0.52894 0.72106 0.0
H1298 H 0.56136 0.34425 0.69064 0.0
H1299 H 0.55791 0.38726 0.70857 0.0
H1300 H 0.67232 0.41875 0.72742 0.0
C1301 C 0.64039 0.58489 0.7277 0.0
C1302 C 0.59273 0.50456 0.72275 0.0
C1303 C 0.65743 0.62236 0.73161 0.0
C1304 C 0.58908 0.35896 0.69397 0.0
C1305 C 0.58724 0.38311 0.70424 0.0
C1306 C 0.6494 0.4421 0.72621 0.0
C1307 C 0.63468 0.55262 0.73549 0.0
C1308 C 0.62493 0.51091 0.73078 0.0
C1309 C 0.6226 0.40368 0.70848 0.0
C1310 C 0.61932 0.43705 0.71748 0.0
H1311 H 0.66863 0.60118 0.76047 0.0
H1312 H 0.63991 0.53477 0.75352 0.0
H1313 H 0.67723 0.48292 0.73897 0.0
H1314 H 0.69115 0.37006 0.68787 0.0
H1315 H 0.68828 0.41227 0.70587 0.0
C1316 C 0.66243 0.64901 0.05984 0.0
C1317 C 0.63303 0.62545 0.06585 0.0
C1318 C 0.69801 0.66359 0.06548 0.0
C1319 C 0.74213 0.68581 0.09471 0.0
H1320 H 0.84712 0.67475 0.07881 0.0
C1321 C 0.92254 0.68527 0.1086 0.0
C1322 C 0.92188 0.71775 0.11697 0.0
C1323 C 0.88936 0.67873 0.10093 0.0
C1324 C 0.81805 0.67804 0.08335 0.0
H1325 H 0.6176 0.59945 0.08256 0.0
H1326 H 0.6797 0.62505 0.09246 0.0
H1327 H 0.78379 0.65324 0.06873 0.0
H1328 H 0.8876 0.77087 0.1231 0.0
H1329 H 0.83085 0.76036 0.10956 0.0
H1330 H 0.77613 0.70939 0.10943 0.0
C1331 C 0.67511 0.6324 0.08338 0.0
C1332 C 0.78175 0.66606 0.07756 0.0
C1333 C 0.63963 0.61756 0.07771 0.0
C1334 C 0.88906 0.74542 0.11683 0.0
C1335 C 0.85623 0.73913 0.10914 0.0
C1336 C 0.77829 0.69789 0.10047 0.0
C1337 C 0.70493 0.65518 0.0773 0.0
C1338 C 0.74341 0.66948 0.08322 0.0
C1339 C 0.85509 0.70471 0.10145 0.0
C1340 C 0.81674 0.69396 0.09491 0.0
H1341 H 0.65863 0.65507 0.05064 0.0
H1342 H 0.72019 0.68134 0.06058 0.0
H1343 H 0.71311 0.68922 0.09928 0.0
H1344 H 0.94729 0.66332 0.10848 0.0
H1345 H 0.88947 0.65189 0.09512 0.0
C1346 C 0.6769 0.37744 0.30809 0.0
C1347 C 0.68608 0.34187 0.31423 0.0
C1348 C 0.66093 0.41192 0.31395 0.0
C1349 C 0.60459 0.44757 0.33969 0.0
H1350 H 0.67256 0.54615 0.33859 0.0
C1351 C 0.5931 0.57516 0.37494 0.0
C1352 C 0.60643 0.61548 0.37275 0.0
C1353 C 0.59567 0.54423 0.36632 0.0
C1354 C 0.65238 0.51948 0.3388 0.0
H1355 H 0.68471 0.31384 0.33117 0.0
H1356 H 0.65529 0.37397 0.34142 0.0
H1357 H 0.68955 0.48664 0.32628 0.0
H1358 H 0.63053 0.65551 0.35948 0.0
H1359 H 0.63351 0.60174 0.34415 0.0
H1360 H 0.56691 0.48002 0.35202 0.0
C1361 C 0.66082 0.3751 0.33209 0.0
C1362 C 0.66244 0.48521 0.33179 0.0
C1363 C 0.67772 0.34087 0.32627 0.0
C1364 C 0.62055 0.6246 0.36149 0.0
C1365 C 0.62245 0.59362 0.35273 0.0
C1366 C 0.59389 0.48213 0.34651 0.0
C1367 C 0.65302 0.41114 0.32601 0.0
C1368 C 0.63931 0.44865 0.33241 0.0
C1369 C 0.61109 0.55268 0.35512 0.0
C1370 C 0.6184 0.51824 0.34646 0.0
H1371 H 0.68349 0.37908 0.29882 0.0
H1372 H 0.65523 0.43939 0.3091 0.0
H1373 H 0.58607 0.41976 0.34022 0.0
H1374 H 0.58215 0.56691 0.38353 0.0
H1375 H 0.58726 0.5133 0.3687 0.0
C1376 C 0.91666 0.51164 0.57021 0.0
C1377 C 0.94691 0.48626 0.56518 0.0
C1378 C 0.89209 0.49772 0.57938 0.0
C1379 C 0.88809 0.42022 0.60251 0.0
H1380 H 0.77184 0.44494 0.60288 0.0
C1381 C 0.76847 0.3432 0.63312 0.0
C1382 C 0.73582 0.36754 0.63726 0.0
C1383 C 0.79739 0.35913 0.6253 0.0
C1384 C 0.80437 0.43827 0.60301 0.0
H1385 H 0.97542 0.42649 0.56594 0.0
H1386 H 0.93188 0.40185 0.58171 0.0
H1387 H 0.81486 0.46925 0.58701 0.0
H1388 H 0.70996 0.42869 0.63717 0.0
H1389 H 0.76059 0.45646 0.62374 0.0
H1390 H 0.87727 0.38875 0.61848 0.0
C1391 C 0.92738 0.43267 0.57866 0.0
C1392 C 0.82904 0.45219 0.59389 0.0
C1393 C 0.95192 0.44658 0.56949 0.0
C1394 C 0.73436 0.40888 0.63403 0.0
C1395 C 0.76324 0.42477 0.62627 0.0
C1396 C 0.86333 0.40621 0.61164 0.0
C1397 C 0.89726 0.45812 0.58374 0.0
C1398 C 0.87119 0.44336 0.59352 0.0
C1399 C 0.79424 0.39972 0.62149 0.0
C1400 C 0.82119 0.41516 0.61201 0.0
H1401 H 0.91196 0.54231 0.56707 0.0
H1402 H 0.86945 0.51827 0.58317 0.0
H1403 H 0.92057 0.41333 0.60256 0.0
H1404 H 0.77046 0.31122 0.63541 0.0
H1405 H 0.82088 0.33901 0.62176 0.0
C1406 C 0.93549 0.67888 0.81316 0.0
C1407 C 0.90679 0.70948 0.81603 0.0
C1408 C 0.95141 0.65421 0.82182 0.0
C1409 C 0.92071 0.61343 0.84997 0.0
H1410 H 0.03041 0.56811 0.84961 0.0
C1411 C 0.02192 0.48638 0.87609 0.0
C1412 C 0.99354 0.45334 0.87566 0.0
C1413 C 0.01404 0.52249 0.87016 0.0
C1414 C -0.00017 0.58089 0.84993 0.0
H1415 H 0.87471 0.74026 0.83035 0.0
H1416 H 0.90242 0.69704 0.84549 0.0
H1417 H 0.01436 0.62491 0.83689 0.0
H1418 H 0.93429 0.43278 0.86883 0.0
H1419 H 0.92067 0.49554 0.85856 0.0
H1420 H 0.90589 0.56894 0.86281 0.0
C1421 C 0.91206 0.69171 0.8365 0.0
C1422 C 0.99056 0.61315 0.84259 0.0
C1423 C 0.89618 0.71642 0.82784 0.0
C1424 C 0.95688 0.45752 0.86934 0.0
C1425 C 0.94889 0.49365 0.86352 0.0
C1426 C 0.92991 0.58111 0.85726 0.0
C1427 C 0.93894 0.65957 0.83354 0.0
C1428 C 0.95064 0.62919 0.84236 0.0
C1429 C 0.97744 0.52644 0.86381 0.0
C1430 C 0.96928 0.56387 0.85712 0.0
H1431 H 0.94396 0.67241 0.80413 0.0
H1432 H 0.9717 0.62944 0.81923 0.0
H1433 H 0.88955 0.62479 0.84994 0.0
H1434 H 0.05048 0.48418 0.88087 0.0
H1435 H 0.03649 0.54737 0.87058 0.0
C1436 C 0.31323 0.57964 0.04863 0.0
C1437 C 0.34979 0.57241 0.05475 0.0
C1438 C 0.27683 0.58841 0.05468 0.0
C1439 C 0.22804 0.58654 0.08419 0.0
H1440 H 0.17237 0.68378 0.07396 0.0
C1441 C 0.11186 0.67201 0.11398 0.0
C1442 C 0.12505 0.71291 0.11581 0.0
C1443 C 0.12763 0.64857 0.10455 0.0
C1444 C 0.18714 0.65618 0.07683 0.0
H1445 H 0.37657 0.56802 0.07201 0.0
H1446 H 0.31333 0.58361 0.08255 0.0
H1447 H 0.22471 0.65232 0.06149 0.0
H1448 H 0.16224 0.76243 0.10895 0.0
H1449 H 0.18888 0.72224 0.09249 0.0
H1450 H 0.19238 0.5923 0.0999 0.0
C1451 C 0.31251 0.58177 0.07308 0.0
C1452 C 0.217 0.63799 0.06966 0.0
C1453 C 0.34886 0.57302 0.06704 0.0
C1454 C 0.1517 0.73087 0.1077 0.0
C1455 C 0.16672 0.7079 0.09822 0.0
C1456 C 0.19809 0.60474 0.09135 0.0
C1457 C 0.27618 0.59009 0.06698 0.0
C1458 C 0.23904 0.60403 0.07349 0.0
C1459 C 0.15594 0.66617 0.09673 0.0
C1460 C 0.1787 0.64083 0.08796 0.0
H1461 H 0.31275 0.57858 0.03915 0.0
H1462 H 0.24927 0.59424 0.04973 0.0
H1463 H 0.24395 0.55991 0.08727 0.0
H1464 H 0.0915 0.65756 0.1202 0.0
H1465 H 0.11885 0.61643 0.10358 0.0
C1466 C 0.28857 0.51806 0.80755 0.0
C1467 C 0.30442 0.55323 0.81345 0.0
C1468 C 0.28202 0.48163 0.8135 0.0
C1469 C 0.24101 0.42268 0.82996 0.0
H1470 H 0.3047 0.39431 0.85713 0.0
C1471 C 0.19796 0.3664 0.87678 0.0
C1472 C 0.17042 0.33402 0.87406 0.0
C1473 C 0.22596 0.37995 0.86845 0.0
C1474 C 0.28694 0.40145 0.84946 0.0
H1475 H 0.32687 0.5777 0.83008 0.0
H1476 H 0.31428 0.51467 0.84059 0.0
H1477 H 0.33196 0.44496 0.84367 0.0
H1478 H 0.1526 0.28801 0.86092 0.0
H1479 H 0.20126 0.31249 0.84613 0.0
H1480 H 0.19531 0.38048 0.836 0.0
C1481 C 0.30784 0.51468 0.8313 0.0
C1482 C 0.30234 0.43069 0.84181 0.0
C1483 C 0.31478 0.55096 0.82532 0.0
C1484 C 0.17361 0.31307 0.8632 0.0
C1485 C 0.20125 0.32716 0.85475 0.0
C1486 C 0.22581 0.39324 0.83755 0.0
C1487 C 0.29079 0.47971 0.82552 0.0
C1488 C 0.2787 0.443 0.83226 0.0
C1489 C 0.22653 0.36178 0.85717 0.0
C1490 C 0.24778 0.38369 0.84765 0.0
H1491 H 0.28108 0.51879 0.79833 0.0
H1492 H 0.26952 0.45514 0.80872 0.0
H1493 H 0.22174 0.43152 0.82276 0.0
H1494 H 0.19625 0.38281 0.88515 0.0
H1495 H 0.24474 0.40688 0.87057 0.0
C1496 C 0.27523 0.41396 0.56117 0.0
C1497 C 0.28637 0.44629 0.55391 0.0
C1498 C 0.30424 0.39704 0.56851 0.0
C1499 C 0.40242 0.42529 0.58284 0.0
H1500 H 0.39516 0.31307 0.59326 0.0
C1501 C 0.48469 0.37706 0.62442 0.0
C1502 C 0.50149 0.33765 0.62454 0.0
C1503 C 0.4593 0.3881 0.61524 0.0
C1504 C 0.39806 0.34437 0.59035 0.0
H1505 H 0.33653 0.48481 0.54798 0.0
H1506 H 0.38799 0.45404 0.56044 0.0
H1507 H 0.35254 0.33407 0.57711 0.0
H1508 H 0.50567 0.27903 0.61515 0.0
H1509 H 0.46242 0.29853 0.59898 0.0
H1510 H 0.44904 0.43524 0.59573 0.0
C1511 C 0.3566 0.44263 0.5608 0.0
C1512 C 0.37319 0.35656 0.58118 0.0
C1513 C 0.32735 0.46007 0.55361 0.0
C1514 C 0.49243 0.3094 0.61537 0.0
C1515 C 0.46761 0.32061 0.6061 0.0
C1516 C 0.42774 0.41293 0.59186 0.0
C1517 C 0.34511 0.41177 0.5686 0.0
C1518 C 0.37453 0.39739 0.57746 0.0
C1519 C 0.45092 0.36019 0.60588 0.0
C1520 C 0.42532 0.37257 0.59589 0.0
H1521 H 0.24359 0.40323 0.56161 0.0
H1522 H 0.29402 0.37384 0.57451 0.0
H1523 H 0.40396 0.45713 0.58036 0.0
H1524 H 0.49103 0.39927 0.63144 0.0
H1525 H 0.44618 0.41851 0.6155 0.0
C1526 C 0.39592 0.40526 0.32798 0.0
C1527 C 0.42473 0.38568 0.32058 0.0
C1528 C 0.40886 0.43243 0.3369 0.0
C1529 C 0.44629 0.48051 0.35759 0.0
H1530 H 0.51287 0.56846 0.34484 0.0
C1531 C 0.49253 0.63028 0.38339 0.0
C1532 C 0.48383 0.66636 0.37748 0.0
C1533 C 0.48925 0.59206 0.37761 0.0
C1534 C 0.49442 0.544 0.34851 0.0
H1535 H 0.49002 0.37696 0.31748 0.0
H1536 H 0.51241 0.42608 0.33279 0.0
H1537 H 0.50184 0.50487 0.33332 0.0
H1538 H 0.46451 0.69144 0.36109 0.0
H1539 H 0.45923 0.62435 0.35084 0.0
H1540 H 0.43785 0.52032 0.37263 0.0
C1541 C 0.47984 0.42001 0.33162 0.0
C1542 C 0.4885 0.50752 0.342 0.0
C1543 C 0.46692 0.39216 0.32281 0.0
C1544 C 0.47107 0.66385 0.36579 0.0
C1545 C 0.46857 0.62567 0.35993 0.0
C1546 C 0.45259 0.51686 0.36416 0.0
C1547 C 0.45083 0.44116 0.33852 0.0
C1548 C 0.46341 0.47594 0.34635 0.0
C1549 C 0.47803 0.58954 0.36577 0.0
C1550 C 0.47561 0.54934 0.3595 0.0
H1551 H 0.36321 0.40184 0.32645 0.0
H1552 H 0.38584 0.44876 0.342 0.0
H1553 H 0.42689 0.45652 0.36112 0.0
H1554 H 0.50224 0.63175 0.39246 0.0
H1555 H 0.49654 0.56459 0.38229 0.0
C1556 C 0.31815 0.44704 -0.00644 0.0
C1557 C 0.33127 0.48829 -0.00517 0.0
C1558 C 0.2864 0.43591 0.98585 0.0
C1559 C 0.24491 0.46817 0.95828 0.0
H1560 H 0.1659 0.37978 0.96297 0.0
C1561 C 0.12186 0.35942 0.92997 0.0
C1562 C 0.14912 0.34437 0.92135 0.0
C1563 C 0.13647 0.38449 0.93926 0.0
C1564 C 0.18727 0.40499 0.96157 0.0
H1565 H 0.3189 0.55055 0.98962 0.0
H1566 H 0.26404 0.53085 0.97594 0.0
H1567 H 0.20371 0.4095 0.97973 0.0
H1568 H 0.21238 0.34562 0.9153 0.0
H1569 H 0.23756 0.38979 0.93133 0.0
H1570 H 0.23001 0.4623 0.94006 0.0
C1571 C 0.27867 0.50719 0.98088 0.0
C1572 C 0.20911 0.42176 0.97114 0.0
C1573 C 0.3102 0.5184 0.98868 0.0
C1574 C 0.19069 0.3565 0.92186 0.0
C1575 C 0.20507 0.38205 0.93099 0.0
C1576 C 0.22344 0.45112 0.94872 0.0
C1577 C 0.26721 0.4657 0.97916 0.0
C1578 C 0.23896 0.45274 0.96953 0.0
C1579 C 0.17833 0.39563 0.93991 0.0
C1580 C 0.1953 0.41858 0.95022 0.0
H1581 H 0.33394 0.42292 -0.00199 0.0
H1582 H 0.27862 0.40362 0.98462 0.0
H1583 H 0.26793 0.49177 0.95674 0.0
H1584 H 0.08965 0.35052 0.92979 0.0
H1585 H 0.11524 0.39467 0.94603 0.0
C1586 C 0.41085 0.5095 0.75249 0.0
C1587 C 0.42573 0.55013 0.7535 0.0
C1588 C 0.42382 0.4836 0.7433 0.0
C1589 C 0.46336 0.48837 0.71325 0.0
H1590 H 0.47745 0.3713 0.71676 0.0
C1591 C 0.50692 0.37545 0.67492 0.0
C1592 C 0.48781 0.33653 0.67496 0.0
C1593 C 0.50111 0.40342 0.68429 0.0
C1594 C 0.47315 0.40389 0.71562 0.0
H1595 H 0.46683 0.59512 0.74583 0.0
H1596 H 0.49013 0.5496 0.72994 0.0
H1597 H 0.46789 0.4155 0.73406 0.0
H1598 H 0.44564 0.29711 0.68429 0.0
H1599 H 0.43515 0.34583 0.70057 0.0
H1600 H 0.46829 0.47658 0.69477 0.0
C1601 C 0.4681 0.5379 0.73619 0.0
C1602 C 0.46786 0.42921 0.72554 0.0
C1603 C 0.45516 0.56379 0.74539 0.0
C1604 C 0.46099 0.32685 0.68412 0.0
C1605 C 0.45539 0.35457 0.6935 0.0
C1606 C 0.46876 0.46298 0.7033 0.0
C1607 C 0.45192 0.4978 0.7349 0.0
C1608 C 0.46206 0.47162 0.72446 0.0
C1609 C 0.47624 0.39271 0.69386 0.0
C1610 C 0.47287 0.42034 0.70437 0.0
H1611 H 0.3883 0.49807 0.75863 0.0
H1612 H 0.41045 0.453 0.7425 0.0
H1613 H 0.45859 0.52088 0.7121 0.0
H1614 H 0.52705 0.38383 0.66779 0.0
H1615 H 0.51754 0.43258 0.68429 0.0
C1616 C 0.20432 0.61883 0.4731 0.0
C1617 C 0.18266 0.64808 0.4799 0.0
C1618 C 0.23517 0.63107 0.46542 0.0
C1619 C 0.31209 0.71124 0.4617 0.0
H1620 H 0.32604 0.65885 0.4311 0.0
C1621 C 0.45387 0.74219 0.43191 0.0
C1622 C 0.46941 0.70801 0.42568 0.0
C1623 C 0.4171 0.73892 0.43823 0.0
C1624 C 0.32284 0.67349 0.43967 0.0
H1625 H 0.17566 0.71344 0.48354 0.0
H1626 H 0.23051 0.73473 0.47021 0.0
H1627 H 0.26307 0.64672 0.44212 0.0
H1628 H 0.45945 0.64332 0.42142 0.0
H1629 H 0.3956 0.63755 0.43239 0.0
H1630 H 0.37252 0.73678 0.45946 0.0
C1631 C 0.22329 0.7023 0.47091 0.0
C1632 C 0.28663 0.66675 0.44593 0.0
C1633 C 0.19195 0.69006 0.47853 0.0
C1634 C 0.4481 0.67029 0.4261 0.0
C1635 C 0.41122 0.66713 0.43228 0.0
C1636 C 0.34857 0.71775 0.45546 0.0
C1637 C 0.24553 0.67282 0.4644 0.0
C1638 C 0.28127 0.68477 0.45712 0.0
C1639 C 0.39485 0.70157 0.43826 0.0
C1640 C 0.35479 0.69807 0.44449 0.0
H1641 H 0.19903 0.58621 0.47414 0.0
H1642 H 0.25227 0.60762 0.46066 0.0
H1643 H 0.30886 0.72531 0.47035 0.0
H1644 H 0.47034 0.77131 0.43195 0.0
H1645 H 0.40578 0.76577 0.44292 0.0
C1646 C 0.32407 0.51326 0.22411 0.0
C1647 C 0.29255 0.49435 0.23058 0.0
C1648 C 0.31523 0.54531 0.21665 0.0
C1649 C 0.23579 0.62133 0.20973 0.0
H1650 H 0.27316 0.606 0.17769 0.0
C1651 C 0.1665 0.65042 0.16246 0.0
C1652 C 0.15214 0.69076 0.1639 0.0
C1653 C 0.19461 0.63486 0.17033 0.0
C1654 C 0.26288 0.61099 0.18663 0.0
H1655 H 0.22711 0.49478 0.23435 0.0
H1656 H 0.21191 0.55077 0.2215 0.0
H1657 H 0.30055 0.56292 0.1929 0.0
H1658 H 0.15816 0.7474 0.17427 0.0
H1659 H 0.20718 0.71991 0.18813 0.0
H1660 H 0.19633 0.66768 0.20337 0.0
C1661 C 0.24353 0.5412 0.2223 0.0
C1662 C 0.27877 0.58655 0.19535 0.0
C1663 C 0.25227 0.50903 0.22967 0.0
C1664 C 0.16846 0.71609 0.17297 0.0
C1665 C 0.19641 0.70035 0.18092 0.0
C1666 C 0.22005 0.64588 0.20103 0.0
C1667 C 0.27479 0.55933 0.2156 0.0
C1668 C 0.26416 0.5904 0.2069 0.0
C1669 C 0.20886 0.65921 0.17986 0.0
C1670 C 0.23224 0.63985 0.18931 0.0
H1671 H 0.35556 0.5032 0.22476 0.0
H1672 H 0.33996 0.55893 0.21164 0.0
H1673 H 0.22443 0.62533 0.2186 0.0
H1674 H 0.15482 0.63023 0.15551 0.0
H1675 H 0.20326 0.60292 0.16933 0.0
loop_
_geom_bond_atom_site_label_1
_geom_bond_atom_site_label_2
_geom_bond_distance
_geom_bond_site_symmetry_2
_ccdc_geom_bond_type
H0 O26 0.856 . S
H1 O29 0.854 . S
H2 C37 0.930 . S
H3 C38 0.930 . S
H4 C40 0.930 1_565 S
H5 C41 0.930 1_565 S
H6 C43 0.931 . S
H7 C44 0.930 1_655 S
H8 C46 0.930 . S
H9 C47 0.929 . S
H10 C49 0.930 . S
H11 C50 0.931 . S
H12 C52 0.930 . S
H13 C53 0.929 1_565 S
H14 C55 0.931 . S
H15 C56 0.930 . S
H16 C58 0.930 . S
H17 C59 0.932 . S
H18 C61 0.930 1_545 S
H19 C62 0.929 . S
H20 C64 0.931 . S
H21 C65 0.930 . S
H22 C67 0.929 . S
H23 C68 0.931 1_545 S
H24 C70 0.930 . S
H25 C71 0.929 . S
O26 H0 0.856 . S
O26 C72 1.300 . S
O27 C72 1.209 . S
O28 C73 1.199 . S
O29 H1 0.854 . S
O29 C73 1.297 . S
C30 C31 1.404 1_455 S
C30 C35 1.397 . S
C30 C36 1.492 . S
C31 C30 1.404 1_655 S
C31 C32 1.396 . S
C31 C42 1.492 . S
C32 C31 1.396 . S
C32 C33 1.397 . S
C32 C48 1.509 . S
C33 C32 1.397 . S
C33 C34 1.412 1_545 S
C33 C54 1.484 1_545 S
C34 C33 1.412 1_565 S
C34 C35 1.388 1_665 S
C34 C60 1.490 . S
C35 C30 1.397 . S
C35 C34 1.388 1_445 S
C35 C66 1.519 1_545 S
C36 C30 1.492 . S
C36 C37 1.363 . S
C36 C41 1.390 . S
C37 H2 0.930 . S
C37 C36 1.363 . S
C37 C38 1.372 . S
C38 H3 0.930 . S
C38 C37 1.372 . S
C38 C39 1.383 . S
C39 C38 1.383 . S
C39 C40 1.395 . S
C40 H4 0.930 1_545 S
C40 C39 1.395 . S
C40 C41 1.362 . S
C41 H5 0.930 1_545 S
C41 C36 1.390 . S
C41 C40 1.362 . S
C42 C31 1.492 . S
C42 C43 1.377 . S
C42 C47 1.397 1_655 S
C43 H6 0.931 . S
C43 C42 1.377 . S
C43 C44 1.376 1_655 S
C44 H7 0.930 1_455 S
C44 C43 1.376 1_455 S
C44 C45 1.376 . S
C45 C44 1.376 . S
C45 C46 1.378 . S
C45 C72 1.486 . S
C46 H8 0.930 . S
C46 C45 1.378 . S
C46 C47 1.376 . S
C47 H9 0.929 . S
C47 C42 1.397 1_455 S
C47 C46 1.376 . S
C48 C32 1.509 . S
C48 C49 1.391 . S
C48 C53 1.386 . S
C49 H10 0.930 . S
C49 C48 1.391 . S
C49 C50 1.375 . S
C50 H11 0.931 . S
C50 C49 1.375 . S
C50 C51 1.375 . S
C51 C50 1.375 . S
C51 C52 1.361 . S
C52 H12 0.930 . S
C52 C51 1.361 . S
C52 C53 1.399 . S
C53 H13 0.929 1_545 S
C53 C48 1.386 . S
C53 C52 1.399 . S
C54 C33 1.484 1_565 S
C54 C55 1.391 1_565 S
C54 C59 1.364 . S
C55 H14 0.931 . S
C55 C54 1.391 1_545 S
C55 C56 1.372 . S
C56 H15 0.930 . S
C56 C55 1.372 . S
C56 C57 1.397 1_545 S
C57 C56 1.397 1_565 S
C57 C58 1.390 . S
C57 C73 1.476 . S
C58 H16 0.930 . S
C58 C57 1.390 . S
C58 C59 1.366 . S
C59 H17 0.932 . S
C59 C54 1.364 . S
C59 C58 1.366 . S
C60 C34 1.490 . S
C60 C61 1.380 . S
C60 C65 1.386 . S
C61 H18 0.930 1_565 S
C61 C60 1.380 . S
C61 C62 1.381 . S
C62 H19 0.929 . S
C62 C61 1.381 . S
C62 C63 1.371 . S
C63 C62 1.371 . S
C63 C64 1.380 . S
C64 H20 0.931 . S
C64 C63 1.380 . S
C64 C65 1.387 . S
C65 H21 0.930 . S
C65 C60 1.386 . S
C65 C64 1.387 . S
C66 C35 1.519 1_565 S
C66 C67 1.377 1_565 S
C66 C71 1.361 . S
C67 H22 0.929 . S
C67 C66 1.377 1_545 S
C67 C68 1.386 1_545 S
C68 H23 0.931 1_565 S
C68 C67 1.386 1_565 S
C68 C69 1.363 . S
C69 C68 1.363 . S
C69 C70 1.385 . S
C70 H24 0.930 . S
C70 C69 1.385 . S
C70 C71 1.396 . S
C71 H25 0.929 . S
C71 C66 1.361 . S
C71 C70 1.396 . S
C72 O26 1.300 . S
C72 O27 1.209 . S
C72 C45 1.486 . S
C73 O28 1.199 . S
C73 O29 1.297 . S
C73 C57 1.476 . S
H74 O100 0.856 . S
H75 O103 0.854 1_545 S
H76 C111 0.930 . S
H77 C112 0.930 . S
H78 C114 0.930 . S
H79 C115 0.930 . S
H80 C117 0.931 . S
H81 C118 0.930 . S
H82 C120 0.930 . S
H83 C121 0.929 . S
H84 C123 0.930 . S
H85 C124 0.931 . S
H86 C126 0.930 . S
H87 C127 0.929 . S
H88 C129 0.931 . S
H89 C130 0.930 . S
H90 C132 0.930 . S
H91 C133 0.932 . S
H92 C135 0.930 . S
H93 C136 0.929 . S
H94 C138 0.931 . S
H95 C139 0.930 . S
H96 C141 0.929 . S
H97 C142 0.931 . S
H98 C144 0.930 . S
H99 C145 0.929 . S
O100 H74 0.856 . S
O100 C146 1.300 . S
O101 C146 1.209 . S
O102 C147 1.199 . S
O103 H75 0.854 1_565 S
O103 C147 1.297 . S
C104 C105 1.404 . S
C104 C109 1.397 . S
C104 C110 1.492 . S
C105 C104 1.404 . S
C105 C106 1.396 . S
C105 C116 1.492 . S
C106 C105 1.396 . S
C106 C107 1.397 . S
C106 C122 1.509 . S
C107 C106 1.397 . S
C107 C108 1.412 . S
C107 C128 1.485 . S
C108 C107 1.412 . S
C108 C109 1.388 . S
C108 C134 1.490 . S
C109 C104 1.397 . S
C109 C108 1.388 . S
C109 C140 1.519 . S
C110 C104 1.492 . S
C110 C111 1.363 . S
C110 C115 1.390 . S
C111 H76 0.930 . S
C111 C110 1.363 . S
C111 C112 1.372 . S
C112 H77 0.930 . S
C112 C111 1.372 . S
C112 C113 1.383 . S
C113 C112 1.383 . S
C113 C114 1.395 . S
C114 H78 0.930 . S
C114 C113 1.395 . S
C114 C115 1.362 . S
C115 H79 0.930 . S
C115 C110 1.390 . S
C115 C114 1.362 . S
C116 C105 1.492 . S
C116 C117 1.377 . S
C116 C121 1.397 . S
C117 H80 0.931 . S
C117 C116 1.377 . S
C117 C118 1.376 . S
C118 H81 0.930 . S
C118 C117 1.376 . S
C118 C119 1.376 . S
C119 C118 1.376 . S
C119 C120 1.378 . S
C119 C146 1.486 . S
C120 H82 0.930 . S
C120 C119 1.378 . S
C120 C121 1.376 . S
C121 H83 0.929 . S
C121 C116 1.397 . S
C121 C120 1.376 . S
C122 C106 1.509 . S
C122 C123 1.391 . S
C122 C127 1.386 . S
C123 H84 0.930 . S
C123 C122 1.391 . S
C123 C124 1.375 . S
C124 H85 0.931 . S
C124 C123 1.375 . S
C124 C125 1.375 . S
C125 C124 1.375 . S
C125 C126 1.361 . S
C126 H86 0.930 . S
C126 C125 1.361 . S
C126 C127 1.399 . S
C127 H87 0.929 . S
C127 C122 1.386 . S
C127 C126 1.399 . S
C128 C107 1.485 . S
C128 C129 1.394 . S
C128 C133 1.360 . S
C129 H88 0.931 . S
C129 C128 1.394 . S
C129 C130 1.372 . S
C130 H89 0.930 . S
C130 C129 1.372 . S
C130 C131 1.397 . S
C131 C130 1.397 . S
C131 C132 1.390 . S
C131 C147 1.476 . S
C132 H90 0.930 . S
C132 C131 1.390 . S
C132 C133 1.366 . S
C133 H91 0.932 . S
C133 C128 1.360 . S
C133 C132 1.366 . S
C134 C108 1.490 . S
C134 C135 1.380 . S
C134 C139 1.386 . S
C135 H92 0.930 . S
C135 C134 1.380 . S
C135 C136 1.381 . S
C136 H93 0.929 . S
C136 C135 1.381 . S
C136 C137 1.371 . S
C137 C136 1.371 . S
C137 C138 1.380 . S
C138 H94 0.931 . S
C138 C137 1.380 . S
C138 C139 1.387 . S
C139 H95 0.930 . S
C139 C134 1.386 . S
C139 C138 1.387 . S
C140 C109 1.519 . S
C140 C141 1.377 . S
C140 C145 1.361 . S
C141 H96 0.929 . S
C141 C140 1.377 . S
C141 C142 1.386 . S
C142 H97 0.931 . S
C142 C141 1.386 . S
C142 C143 1.363 . S
C143 C142 1.363 . S
C143 C144 1.385 . S
C144 H98 0.930 . S
C144 C143 1.385 . S
C144 C145 1.396 . S
C145 H99 0.929 . S
C145 C140 1.361 . S
C145 C144 1.396 . S
C146 O100 1.300 . S
C146 O101 1.209 . S
C146 C119 1.486 . S
C147 O102 1.199 . S
C147 O103 1.297 . S
C147 C131 1.476 . S
H148 O174 0.856 . S
H149 O177 0.854 . S
H150 C185 0.930 . S
H151 C186 0.930 . S
H152 C188 0.930 . S
H153 C189 0.930 . S
H154 C191 0.931 . S
H155 C192 0.930 . S
H156 C194 0.930 . S
H157 C195 0.929 . S
H158 C197 0.930 . S
H159 C198 0.931 . S
H160 C200 0.930 . S
H161 C201 0.929 . S
H162 C203 0.931 . S
H163 C204 0.930 . S
H164 C206 0.930 . S
H165 C207 0.932 . S
H166 C209 0.930 . S
H167 C210 0.929 . S
H168 C212 0.931 . S
H169 C213 0.930 . S
H170 C215 0.929 . S
H171 C216 0.931 . S
H172 C218 0.930 . S
H173 C219 0.929 . S
O174 H148 0.856 . S
O174 C220 1.300 . S
O175 C220 1.209 . S
O176 C221 1.199 . S
O177 H149 0.854 . S
O177 C221 1.297 . S
C178 C179 1.404 . S
C178 C183 1.397 . S
C178 C184 1.492 . S
C179 C178 1.404 . S
C179 C180 1.396 . S
C179 C190 1.492 . S
C180 C179 1.396 . S
C180 C181 1.397 . S
C180 C196 1.509 . S
C181 C180 1.397 . S
C181 C182 1.412 . S
C181 C202 1.485 . S
C182 C181 1.412 . S
C182 C183 1.388 . S
C182 C208 1.490 . S
C183 C178 1.397 . S
C183 C182 1.388 . S
C183 C214 1.519 . S
C184 C178 1.492 . S
C184 C185 1.363 1_545 S
C184 C189 1.390 . S
C185 H150 0.930 . S
C185 C184 1.363 1_565 S
C185 C186 1.372 . S
C186 H151 0.930 . S
C186 C185 1.372 . S
C186 C187 1.383 1_565 S
C187 C186 1.383 1_545 S
C187 C188 1.395 . S
C188 H152 0.930 . S
C188 C187 1.395 . S
C188 C189 1.362 . S
C189 H153 0.930 . S
C189 C184 1.390 . S
C189 C188 1.362 . S
C190 C179 1.492 . S
C190 C191 1.377 1_545 S
C190 C195 1.397 . S
C191 H154 0.931 . S
C191 C190 1.377 1_565 S
C191 C192 1.376 . S
C192 H155 0.930 . S
C192 C191 1.376 . S
C192 C193 1.376 . S
C193 C192 1.376 . S
C193 C194 1.378 1_565 S
C193 C220 1.486 . S
C194 H156 0.930 . S
C194 C193 1.378 1_545 S
C194 C195 1.376 . S
C195 H157 0.929 . S
C195 C190 1.397 . S
C195 C194 1.376 . S
C196 C180 1.509 . S
C196 C197 1.391 1_545 S
C196 C201 1.386 . S
C197 H158 0.930 . S
C197 C196 1.391 1_565 S
C197 C198 1.375 . S
C198 H159 0.931 . S
C198 C197 1.375 . S
C198 C199 1.375 . S
C199 C198 1.375 . S
C199 C200 1.361 1_565 S
C200 H160 0.930 . S
C200 C199 1.361 1_545 S
C200 C201 1.399 . S
C201 H161 0.929 . S
C201 C196 1.386 . S
C201 C200 1.399 . S
C202 C181 1.485 . S
C202 C203 1.394 . S
C202 C207 1.360 . S
C203 H162 0.931 . S
C203 C202 1.394 . S
C203 C204 1.372 . S
C204 H163 0.930 . S
C204 C203 1.372 . S
C204 C205 1.397 . S
C205 C204 1.397 . S
C205 C206 1.390 . S
C205 C221 1.476 . S
C206 H164 0.930 . S
C206 C205 1.390 . S
C206 C207 1.366 . S
C207 H165 0.932 . S
C207 C202 1.360 . S
C207 C206 1.366 . S
C208 C182 1.490 . S
C208 C209 1.380 . S
C208 C213 1.386 . S
C209 H166 0.930 . S
C209 C208 1.380 . S
C209 C210 1.381 1_554 S
C210 H167 0.929 . S
C210 C209 1.381 1_556 S
C210 C211 1.371 . S
C211 C210 1.371 . S
C211 C212 1.380 1_556 S
C212 H168 0.931 . S
C212 C211 1.380 1_554 S
C212 C213 1.387 . S
C213 H169 0.930 . S
C213 C208 1.386 . S
C213 C212 1.387 . S
C214 C183 1.519 . S
C214 C215 1.377 . S
C214 C219 1.361 . S
C215 H170 0.929 . S
C215 C214 1.377 . S
C215 C216 1.386 . S
C216 H171 0.931 . S
C216 C215 1.386 . S
C216 C217 1.363 . S
C217 C216 1.363 . S
C217 C218 1.385 . S
C218 H172 0.930 . S
C218 C217 1.385 . S
C218 C219 1.396 . S
C219 H173 0.929 . S
C219 C214 1.361 . S
C219 C218 1.396 . S
C220 O174 1.300 . S
C220 O175 1.209 . S
C220 C193 1.486 . S
C221 O176 1.199 . S
C221 O177 1.297 . S
C221 C205 1.476 . S
H222 O248 0.856 . S
H223 O251 0.854 . S
H224 C259 0.930 . S
H225 C260 0.930 . S
H226 C262 0.930 . S
H227 C263 0.930 . S
H228 C265 0.931 . S
H229 C266 0.930 . S
H230 C268 0.930 . S
H231 C269 0.929 . S
H232 C271 0.930 . S
H233 C272 0.931 . S
H234 C274 0.930 . S
H235 C275 0.929 . S
H236 C277 0.931 . S
H237 C278 0.930 . S
H238 C280 0.930 . S
H239 C281 0.932 . S
H240 C283 0.930 . S
H241 C284 0.929 . S
H242 C286 0.931 . S
H243 C287 0.930 . S
H244 C289 0.929 . S
H245 C290 0.931 . S
H246 C292 0.930 . S
H247 C293 0.929 . S
O248 H222 0.856 . S
O248 C294 1.300 . S
O249 C294 1.209 . S
O250 C295 1.199 . S
O251 H223 0.854 . S
O251 C295 1.297 . S
C252 C253 1.404 . S
C252 C257 1.397 . S
C252 C258 1.492 . S
C253 C252 1.404 . S
C253 C254 1.396 . S
C253 C264 1.492 . S
C254 C253 1.396 . S
C254 C255 1.397 . S
C254 C270 1.509 . S
C255 C254 1.397 . S
C255 C256 1.412 . S
C255 C276 1.485 . S
C256 C255 1.412 . S
C256 C257 1.388 . S
C256 C282 1.490 . S
C257 C252 1.397 . S
C257 C256 1.388 . S
C257 C288 1.519 . S
C258 C252 1.492 . S
C258 C259 1.363 . S
C258 C263 1.390 . S
C259 H224 0.930 . S
C259 C258 1.363 . S
C259 C260 1.372 . S
C260 H225 0.930 . S
C260 C259 1.372 . S
C260 C261 1.383 . S
C261 C260 1.383 . S
C261 C262 1.395 . S
C262 H226 0.930 . S
C262 C261 1.395 . S
C262 C263 1.362 . S
C263 H227 0.930 . S
C263 C258 1.390 . S
C263 C262 1.362 . S
C264 C253 1.492 . S
C264 C265 1.377 . S
C264 C269 1.397 . S
C265 H228 0.931 . S
C265 C264 1.377 . S
C265 C266 1.376 . S
C266 H229 0.930 . S
C266 C265 1.376 . S
C266 C267 1.376 . S
C267 C266 1.376 . S
C267 C268 1.378 . S
C267 C294 1.486 . S
C268 H230 0.930 . S
C268 C267 1.378 . S
C268 C269 1.376 . S
C269 H231 0.929 . S
C269 C264 1.397 . S
C269 C268 1.376 . S
C270 C254 1.509 . S
C270 C271 1.391 . S
C270 C275 1.386 . S
C271 H232 0.930 . S
C271 C270 1.391 . S
C271 C272 1.375 . S
C272 H233 0.931 . S
C272 C271 1.375 . S
C272 C273 1.375 . S
C273 C272 1.375 . S
C273 C274 1.361 . S
C274 H234 0.930 . S
C274 C273 1.361 . S
C274 C275 1.399 . S
C275 H235 0.929 . S
C275 C270 1.386 . S
C275 C274 1.399 . S
C276 C255 1.485 . S
C276 C277 1.394 . S
C276 C281 1.360 . S
C277 H236 0.931 . S
C277 C276 1.394 . S
C277 C278 1.372 . S
C278 H237 0.930 . S
C278 C277 1.372 . S
C278 C279 1.397 . S
C279 C278 1.397 . S
C279 C280 1.390 . S
C279 C295 1.476 . S
C280 H238 0.930 . S
C280 C279 1.390 . S
C280 C281 1.366 . S
C281 H239 0.932 . S
C281 C276 1.360 . S
C281 C280 1.366 . S
C282 C256 1.490 . S
C282 C283 1.380 . S
C282 C287 1.386 . S
C283 H240 0.930 . S
C283 C282 1.380 . S
C283 C284 1.381 . S
C284 H241 0.929 . S
C284 C283 1.381 . S
C284 C285 1.371 . S
C285 C284 1.371 . S
C285 C286 1.380 . S
C286 H242 0.931 . S
C286 C285 1.380 . S
C286 C287 1.387 . S
C287 H243 0.930 . S
C287 C282 1.386 . S
C287 C286 1.387 . S
C288 C257 1.519 . S
C288 C289 1.377 . S
C288 C293 1.361 . S
C289 H244 0.929 . S
C289 C288 1.377 . S
C289 C290 1.386 . S
C290 H245 0.931 . S
C290 C289 1.386 . S
C290 C291 1.363 . S
C291 C290 1.363 . S
C291 C292 1.385 . S
C292 H246 0.930 . S
C292 C291 1.385 . S
C292 C293 1.396 . S
C293 H247 0.929 . S
C293 C288 1.361 . S
C293 C292 1.396 . S
C294 O248 1.300 . S
C294 O249 1.209 . S
C294 C267 1.486 . S
C295 O250 1.199 . S
C295 O251 1.297 . S
C295 C279 1.476 . S
H296 O322 0.856 . S
H297 O325 0.854 . S
H298 C333 0.930 . S
H299 C334 0.930 . S
H300 C336 0.930 . S
H301 C337 0.930 . S
H302 C339 0.931 . S
H303 C340 0.930 . S
H304 C342 0.930 . S
H305 C343 0.929 . S
H306 C345 0.930 . S
H307 C346 0.931 . S
H308 C348 0.930 . S
H309 C349 0.929 . S
H310 C351 0.931 . S
H311 C352 0.930 . S
H312 C354 0.930 . S
H313 C355 0.932 . S
H314 C357 0.930 . S
H315 C358 0.929 . S
H316 C360 0.931 . S
H317 C361 0.930 . S
H318 C363 0.929 . S
H319 C364 0.931 . S
H320 C366 0.930 . S
H321 C367 0.929 . S
O322 H296 0.856 . S
O322 C368 1.300 . S
O323 C368 1.209 . S
O324 C369 1.199 . S
O325 H297 0.854 . S
O325 C369 1.297 . S
C326 C327 1.404 . S
C326 C331 1.397 . S
C326 C332 1.492 . S
C327 C326 1.404 . S
C327 C328 1.396 . S
C327 C338 1.492 . S
C328 C327 1.396 . S
C328 C329 1.397 . S
C328 C344 1.509 . S
C329 C328 1.397 . S
C329 C330 1.412 . S
C329 C350 1.485 . S
C330 C329 1.412 . S
C330 C331 1.388 . S
C330 C356 1.490 . S
C331 C326 1.397 . S
C331 C330 1.388 . S
C331 C362 1.519 . S
C332 C326 1.492 . S
C332 C333 1.363 . S
C332 C337 1.390 . S
C333 H298 0.930 . S
C333 C332 1.363 . S
C333 C334 1.372 . S
C334 H299 0.930 . S
C334 C333 1.372 . S
C334 C335 1.383 . S
C335 C334 1.383 . S
C335 C336 1.395 . S
C336 H300 0.930 . S
C336 C335 1.395 . S
C336 C337 1.362 . S
C337 H301 0.930 . S
C337 C332 1.390 . S
C337 C336 1.362 . S
C338 C327 1.492 . S
C338 C339 1.377 . S
C338 C343 1.397 . S
C339 H302 0.931 . S
C339 C338 1.377 . S
C339 C340 1.376 . S
C340 H303 0.930 . S
C340 C339 1.376 . S
C340 C341 1.376 . S
C341 C340 1.376 . S
C341 C342 1.378 . S
C341 C368 1.486 . S
C342 H304 0.930 . S
C342 C341 1.378 . S
C342 C343 1.376 . S
C343 H305 0.929 . S
C343 C338 1.397 . S
C343 C342 1.376 . S
C344 C328 1.509 . S
C344 C345 1.391 . S
C344 C349 1.386 . S
C345 H306 0.930 . S
C345 C344 1.391 . S
C345 C346 1.375 . S
C346 H307 0.931 . S
C346 C345 1.375 . S
C346 C347 1.375 . S
C347 C346 1.375 . S
C347 C348 1.361 . S
C348 H308 0.930 . S
C348 C347 1.361 . S
C348 C349 1.399 . S
C349 H309 0.929 . S
C349 C344 1.386 . S
C349 C348 1.399 . S
C350 C329 1.485 . S
C350 C351 1.394 . S
C350 C355 1.360 . S
C351 H310 0.931 . S
C351 C350 1.394 . S
C351 C352 1.372 . S
C352 H311 0.930 . S
C352 C351 1.372 . S
C352 C353 1.397 . S
C353 C352 1.397 . S
C353 C354 1.390 . S
C353 C369 1.476 . S
C354 H312 0.930 . S
C354 C353 1.390 . S
C354 C355 1.366 . S
C355 H313 0.932 . S
C355 C350 1.360 . S
C355 C354 1.366 . S
C356 C330 1.490 . S
C356 C357 1.380 . S
C356 C361 1.386 . S
C357 H314 0.930 . S
C357 C356 1.380 . S
C357 C358 1.381 . S
C358 H315 0.929 . S
C358 C357 1.381 . S
C358 C359 1.371 . S
C359 C358 1.371 . S
C359 C360 1.380 . S
C360 H316 0.931 . S
C360 C359 1.380 . S
C360 C361 1.387 . S
C361 H317 0.930 . S
C361 C356 1.386 . S
C361 C360 1.387 . S
C362 C331 1.519 . S
C362 C363 1.377 . S
C362 C367 1.361 . S
C363 H318 0.929 . S
C363 C362 1.377 . S
C363 C364 1.386 . S
C364 H319 0.931 . S
C364 C363 1.386 . S
C364 C365 1.363 . S
C365 C364 1.363 . S
C365 C366 1.385 . S
C366 H320 0.930 . S
C366 C365 1.385 . S
C366 C367 1.396 . S
C367 H321 0.929 . S
C367 C362 1.361 . S
C367 C366 1.396 . S
C368 O322 1.300 . S
C368 O323 1.209 . S
C368 C341 1.486 . S
C369 O324 1.199 . S
C369 O325 1.297 . S
C369 C353 1.476 . S
H370 O396 0.856 . S
H371 O399 0.854 . S
H372 C407 0.930 . S
H373 C408 0.930 . S
H374 C410 0.930 . S
H375 C411 0.930 . S
H376 C413 0.931 . S
H377 C414 0.930 . S
H378 C416 0.930 . S
H379 C417 0.929 . S
H380 C419 0.930 . S
H381 C420 0.931 . S
H382 C422 0.930 . S
H383 C423 0.929 . S
H384 C425 0.931 . S
H385 C426 0.930 . S
H386 C428 0.930 . S
H387 C429 0.932 . S
H388 C431 0.930 . S
H389 C432 0.929 . S
H390 C434 0.931 . S
H391 C435 0.930 . S
H392 C437 0.929 . S
H393 C438 0.931 . S
H394 C440 0.930 . S
H395 C441 0.929 . S
O396 H370 0.856 . S
O396 C442 1.300 . S
O397 C442 1.209 . S
O398 C443 1.199 . S
O399 H371 0.854 . S
O399 C443 1.297 . S
C400 C401 1.404 . S
C400 C405 1.397 . S
C400 C406 1.492 . S
C401 C400 1.404 . S
C401 C402 1.396 . S
C401 C412 1.492 . S
C402 C401 1.396 . S
C402 C403 1.397 . S
C402 C418 1.509 . S
C403 C402 1.397 . S
C403 C404 1.412 . S
C403 C424 1.485 . S
C404 C403 1.412 . S
C404 C405 1.388 . S
C404 C430 1.490 . S
C405 C400 1.397 . S
C405 C404 1.388 . S
C405 C436 1.519 . S
C406 C400 1.492 . S
C406 C407 1.363 . S
C406 C411 1.390 . S
C407 H372 0.930 . S
C407 C406 1.363 . S
C407 C408 1.372 . S
C408 H373 0.930 . S
C408 C407 1.372 . S
C408 C409 1.383 . S
C409 C408 1.383 . S
C409 C410 1.395 . S
C410 H374 0.930 . S
C410 C409 1.395 . S
C410 C411 1.362 . S
C411 H375 0.930 . S
C411 C406 1.390 . S
C411 C410 1.362 . S
C412 C401 1.492 . S
C412 C413 1.377 . S
C412 C417 1.397 . S
C413 H376 0.931 . S
C413 C412 1.377 . S
C413 C414 1.376 . S
C414 H377 0.930 . S
C414 C413 1.376 . S
C414 C415 1.376 . S
C415 C414 1.376 . S
C415 C416 1.378 . S
C415 C442 1.486 . S
C416 H378 0.930 . S
C416 C415 1.378 . S
C416 C417 1.376 . S
C417 H379 0.929 . S
C417 C412 1.397 . S
C417 C416 1.376 . S
C418 C402 1.509 . S
C418 C419 1.391 . S
C418 C423 1.386 . S
C419 H380 0.930 . S
C419 C418 1.391 . S
C419 C420 1.375 . S
C420 H381 0.931 . S
C420 C419 1.375 . S
C420 C421 1.375 . S
C421 C420 1.375 . S
C421 C422 1.361 . S
C422 H382 0.930 . S
C422 C421 1.361 . S
C422 C423 1.399 . S
C423 H383 0.929 . S
C423 C418 1.386 . S
C423 C422 1.399 . S
C424 C403 1.485 . S
C424 C425 1.394 . S
C424 C429 1.360 . S
C425 H384 0.931 . S
C425 C424 1.394 . S
C425 C426 1.372 . S
C426 H385 0.930 . S
C426 C425 1.372 . S
C426 C427 1.397 . S
C427 C426 1.397 . S
C427 C428 1.390 . S
C427 C443 1.476 . S
C428 H386 0.930 . S
C428 C427 1.390 . S
C428 C429 1.366 . S
C429 H387 0.932 . S
C429 C424 1.360 . S
C429 C428 1.366 . S
C430 C404 1.490 . S
C430 C431 1.380 . S
C430 C435 1.386 . S
C431 H388 0.930 . S
C431 C430 1.380 . S
C431 C432 1.381 . S
C432 H389 0.929 . S
C432 C431 1.381 . S
C432 C433 1.371 . S
C433 C432 1.371 . S
C433 C434 1.380 . S
C434 H390 0.931 . S
C434 C433 1.380 . S
C434 C435 1.387 . S
C435 H391 0.930 . S
C435 C430 1.386 . S
C435 C434 1.387 . S
C436 C405 1.519 . S
C436 C437 1.377 . S
C436 C441 1.361 . S
C437 H392 0.929 . S
C437 C436 1.377 . S
C437 C438 1.386 . S
C438 H393 0.931 . S
C438 C437 1.386 . S
C438 C439 1.363 . S
C439 C438 1.363 . S
C439 C440 1.385 . S
C440 H394 0.930 . S
C440 C439 1.385 . S
C440 C441 1.396 . S
C441 H395 0.929 . S
C441 C436 1.361 . S
C441 C440 1.396 . S
C442 O396 1.300 . S
C442 O397 1.209 . S
C442 C415 1.486 . S
C443 O398 1.199 . S
C443 O399 1.297 . S
C443 C427 1.476 . S
H444 O470 0.856 . S
H445 O473 0.854 . S
H446 C481 0.930 . S
H447 C482 0.912 1_556 S
H448 C484 0.930 . S
H449 C485 0.930 . S
H450 C487 0.931 . S
H451 C488 0.930 . S
H452 C490 0.930 . S
H453 C491 0.929 . S
H454 C493 0.930 . S
H455 C494 0.931 . S
H456 C496 0.930 . S
H457 C497 0.929 . S
H458 C499 0.931 . S
H459 C500 0.930 . S
H460 C502 0.930 . S
H461 C503 0.932 . S
H462 C505 0.930 . S
H463 C506 0.929 . S
H464 C508 0.931 . S
H465 C509 0.930 . S
H466 C511 0.929 . S
H467 C512 0.931 . S
H468 C514 0.930 . S
H469 C515 0.929 . S
O470 H444 0.856 . S
O470 C516 1.300 . S
O471 C516 1.209 . S
O472 C517 1.199 . S
O473 H445 0.854 . S
O473 C517 1.297 . S
C474 C475 1.404 . S
C474 C479 1.397 . S
C474 C480 1.492 . S
C475 C474 1.404 . S
C475 C476 1.396 . S
C475 C486 1.492 . S
C476 C475 1.396 . S
C476 C477 1.397 . S
C476 C492 1.509 . S
C477 C476 1.397 . S
C477 C478 1.412 . S
C477 C498 1.485 . S
C478 C477 1.412 . S
C478 C479 1.388 . S
C478 C504 1.490 . S
C479 C474 1.397 . S
C479 C478 1.388 . S
C479 C510 1.519 . S
C480 C474 1.492 . S
C480 C481 1.363 . S
C480 C485 1.390 . S
C481 H446 0.930 . S
C481 C480 1.363 . S
C481 C482 1.372 . S
C482 H447 0.912 1_554 S
C482 C481 1.372 . S
C482 C483 1.383 . S
C483 C482 1.383 . S
C483 C484 1.395 . S
C484 H448 0.930 . S
C484 C483 1.395 . S
C484 C485 1.362 . S
C485 H449 0.930 . S
C485 C480 1.390 . S
C485 C484 1.362 . S
C486 C475 1.492 . S
C486 C487 1.377 1_554 S
C486 C491 1.397 . S
C487 H450 0.931 . S
C487 C486 1.377 1_556 S
C487 C488 1.376 . S
C488 H451 0.930 . S
C488 C487 1.376 . S
C488 C489 1.376 . S
C489 C488 1.376 . S
C489 C490 1.378 . S
C489 C516 1.486 . S
C490 H452 0.930 . S
C490 C489 1.378 . S
C490 C491 1.376 1_556 S
C491 H453 0.929 . S
C491 C486 1.397 . S
C491 C490 1.376 1_554 S
C492 C476 1.509 . S
C492 C493 1.391 . S
C492 C497 1.386 . S
C493 H454 0.930 . S
C493 C492 1.391 . S
C493 C494 1.375 1_554 S
C494 H455 0.931 . S
C494 C493 1.375 1_556 S
C494 C495 1.375 . S
C495 C494 1.375 . S
C495 C496 1.361 1_556 S
C496 H456 0.930 . S
C496 C495 1.361 1_554 S
C496 C497 1.399 . S
C497 H457 0.929 . S
C497 C492 1.386 . S
C497 C496 1.399 . S
C498 C477 1.485 . S
C498 C499 1.394 . S
C498 C503 1.360 . S
C499 H458 0.931 . S
C499 C498 1.394 . S
C499 C500 1.372 . S
C500 H459 0.930 . S
C500 C499 1.372 . S
C500 C501 1.397 . S
C501 C500 1.397 . S
C501 C502 1.390 . S
C501 C517 1.476 . S
C502 H460 0.930 . S
C502 C501 1.390 . S
C502 C503 1.366 . S
C503 H461 0.932 . S
C503 C498 1.360 . S
C503 C502 1.366 . S
C504 C478 1.490 . S
C504 C505 1.380 . S
C504 C509 1.386 . S
C505 H462 0.930 . S
C505 C504 1.380 . S
C505 C506 1.381 . S
C506 H463 0.929 . S
C506 C505 1.381 . S
C506 C507 1.371 . S
C507 C506 1.371 . S
C507 C508 1.380 . S
C508 H464 0.931 . S
C508 C507 1.380 . S
C508 C509 1.387 . S
C509 H465 0.930 . S
C509 C504 1.386 . S
C509 C508 1.387 . S
C510 C479 1.519 . S
C510 C511 1.377 . S
C510 C515 1.361 . S
C511 H466 0.929 . S
C511 C510 1.377 . S
C511 C512 1.386 . S
C512 H467 0.931 . S
C512 C511 1.386 . S
C512 C513 1.363 . S
C513 C512 1.363 . S
C513 C514 1.385 . S
C514 H468 0.930 . S
C514 C513 1.385 . S
C514 C515 1.396 . S
C515 H469 0.929 . S
C515 C510 1.361 . S
C515 C514 1.396 . S
C516 O470 1.300 . S
C516 O471 1.209 . S
C516 C489 1.486 . S
C517 O472 1.199 . S
C517 O473 1.297 . S
C517 C501 1.476 . S
H518 O544 0.856 . S
H519 O547 0.854 . S
H520 C555 0.930 . S
H521 C556 0.930 . S
H522 C558 0.930 1_655 S
H523 C559 0.930 . S
H524 C561 0.931 . S
H525 C562 0.930 . S
H526 C564 0.930 . S
H527 C565 0.929 . S
H528 C567 0.930 . S
H529 C568 0.931 . S
H530 C570 0.930 . S
H531 C571 0.929 . S
H532 C573 0.931 . S
H533 C574 0.930 . S
H534 C576 0.930 . S
H535 C577 0.932 . S
H536 C579 0.930 . S
H537 C580 0.929 . S
H538 C582 0.931 . S
H539 C583 0.930 . S
H540 C585 0.929 . S
H541 C586 0.931 . S
H542 C588 0.930 . S
H543 C589 0.929 . S
O544 H518 0.856 . S
O544 C590 1.300 . S
O545 C590 1.209 . S
O546 C591 1.199 . S
O547 H519 0.854 . S
O547 C591 1.297 . S
C548 C549 1.404 . S
C548 C553 1.397 . S
C548 C554 1.492 . S
C549 C548 1.404 . S
C549 C550 1.396 . S
C549 C560 1.492 . S
C550 C549 1.396 . S
C550 C551 1.397 . S
C550 C566 1.509 . S
C551 C550 1.397 . S
C551 C552 1.412 . S
C551 C572 1.485 . S
C552 C551 1.412 . S
C552 C553 1.388 . S
C552 C578 1.490 . S
C553 C548 1.397 . S
C553 C552 1.388 . S
C553 C584 1.519 . S
C554 C548 1.492 . S
C554 C555 1.363 . S
C554 C559 1.390 . S
C555 H520 0.930 . S
C555 C554 1.363 . S
C555 C556 1.372 . S
C556 H521 0.930 . S
C556 C555 1.372 . S
C556 C557 1.383 . S
C557 C556 1.383 . S
C557 C558 1.395 . S
C558 H522 0.930 1_455 S
C558 C557 1.395 . S
C558 C559 1.362 . S
C559 H523 0.930 . S
C559 C554 1.390 . S
C559 C558 1.362 . S
C560 C549 1.492 . S
C560 C561 1.377 . S
C560 C565 1.397 . S
C561 H524 0.931 . S
C561 C560 1.377 . S
C561 C562 1.376 . S
C562 H525 0.930 . S
C562 C561 1.376 . S
C562 C563 1.376 . S
C563 C562 1.376 . S
C563 C564 1.378 . S
C563 C590 1.486 . S
C564 H526 0.930 . S
C564 C563 1.378 . S
C564 C565 1.376 . S
C565 H527 0.929 . S
C565 C560 1.397 . S
C565 C564 1.376 . S
C566 C550 1.509 . S
C566 C567 1.391 . S
C566 C571 1.386 . S
C567 H528 0.930 . S
C567 C566 1.391 . S
C567 C568 1.375 . S
C568 H529 0.931 . S
C568 C567 1.375 . S
C568 C569 1.375 . S
C569 C568 1.375 . S
C569 C570 1.361 . S
C570 H530 0.930 . S
C570 C569 1.361 . S
C570 C571 1.399 . S
C571 H531 0.929 . S
C571 C566 1.386 . S
C571 C570 1.399 . S
C572 C551 1.485 . S
C572 C573 1.394 . S
C572 C577 1.360 . S
C573 H532 0.931 . S
C573 C572 1.394 . S
C573 C574 1.372 . S
C574 H533 0.930 . S
C574 C573 1.372 . S
C574 C575 1.397 . S
C575 C574 1.397 . S
C575 C576 1.390 . S
C575 C591 1.476 . S
C576 H534 0.930 . S
C576 C575 1.390 . S
C576 C577 1.366 . S
C577 H535 0.932 . S
C577 C572 1.360 . S
C577 C576 1.366 . S
C578 C552 1.490 . S
C578 C579 1.380 . S
C578 C583 1.386 . S
C579 H536 0.930 . S
C579 C578 1.380 . S
C579 C580 1.381 . S
C580 H537 0.929 . S
C580 C579 1.381 . S
C580 C581 1.371 . S
C581 C580 1.371 . S
C581 C582 1.380 . S
C582 H538 0.931 . S
C582 C581 1.380 . S
C582 C583 1.387 . S
C583 H539 0.930 . S
C583 C578 1.386 . S
C583 C582 1.387 . S
C584 C553 1.519 . S
C584 C585 1.377 . S
C584 C589 1.361 . S
C585 H540 0.929 . S
C585 C584 1.377 . S
C585 C586 1.386 . S
C586 H541 0.931 . S
C586 C585 1.386 . S
C586 C587 1.363 . S
C587 C586 1.363 . S
C587 C588 1.385 . S
C588 H542 0.930 . S
C588 C587 1.385 . S
C588 C589 1.396 . S
C589 H543 0.929 . S
C589 C584 1.361 . S
C589 C588 1.396 . S
C590 O544 1.300 . S
C590 O545 1.209 . S
C590 C563 1.486 . S
C591 O546 1.199 . S
C591 O547 1.297 . S
C591 C575 1.476 . S
C592 O619 1.312 . S
C592 O620 1.208 . S
C593 O614 1.331 1_655 S
C593 O617 1.244 . S
C594 O616 1.264 1_655 S
C594 O618 1.273 . S
Mg595 O597 1.936 . S
Mg595 O604 2.081 . S
Mg595 O606 2.023 . S
Mg595 O610 2.031 . S
Mg595 O619 2.291 . S
Mg596 O597 1.963 . S
Mg596 O607 1.942 . S
Mg596 O608 1.955 . S
Mg596 O615 1.986 . S
O597 Mg595 1.936 . S
O597 Mg596 1.963 . S
O597 Mg598 1.915 . S
Mg598 O597 1.915 . S
Mg598 O599 1.915 . S
Mg598 O603 2.013 . S
Mg598 O609 2.114 . S
Mg598 O613 2.013 . S
Mg598 O619 2.114 . S
O599 Mg598 1.915 . S
O599 Mg600 1.936 . S
O599 Mg601 1.963 1_455 S
Mg600 O599 1.936 . S
Mg600 O609 2.291 . S
Mg600 O614 2.081 . S
Mg600 O616 2.023 . S
Mg600 O620 2.031 . S
Mg601 O599 1.963 1_655 S
Mg601 O605 1.986 . S
Mg601 O617 1.942 . S
Mg601 O618 1.955 . S
C602 O613 1.191 . S
C602 O615 1.307 . S
O603 Mg598 2.013 . S
O603 C622 1.191 . S
O604 Mg595 2.081 . S
O604 C612 1.331 . S
O605 Mg601 1.986 . S
O605 C622 1.307 1_655 S
O606 Mg595 2.023 . S
O606 C621 1.264 . S
O607 Mg596 1.942 . S
O607 C612 1.244 . S
O608 Mg596 1.955 . S
O608 C621 1.273 . S
O609 Mg598 2.114 . S
O609 Mg600 2.291 . S
O609 C611 1.312 . S
O610 Mg595 2.031 . S
O610 C611 1.208 . S
C611 O609 1.312 . S
C611 O610 1.208 . S
C612 O604 1.331 . S
C612 O607 1.244 . S
O613 Mg598 2.013 . S
O613 C602 1.191 . S
O614 C593 1.331 1_455 S
O614 Mg600 2.081 . S
O615 Mg596 1.986 . S
O615 C602 1.307 . S
O616 C594 1.264 1_455 S
O616 Mg600 2.023 . S
O617 C593 1.244 . S
O617 Mg601 1.942 . S
O618 C594 1.273 . S
O618 Mg601 1.955 . S
O619 C592 1.312 . S
O619 Mg595 2.291 . S
O619 Mg598 2.114 . S
O620 C592 1.208 . S
O620 Mg600 2.031 . S
C621 O606 1.264 . S
C621 O608 1.273 . S
C622 O603 1.191 . S
C622 O605 1.307 1_455 S
C623 O650 1.312 . S
C623 O651 1.208 . S
C624 O645 1.331 . S
C624 O648 1.244 . S
C625 O647 1.264 . S
C625 O649 1.273 . S
Mg626 O628 1.936 . S
Mg626 O635 2.081 . S
Mg626 O637 2.023 . S
Mg626 O641 2.031 . S
Mg626 O650 2.291 . S
Mg627 O628 1.963 . S
Mg627 O638 1.942 . S
Mg627 O639 1.955 . S
Mg627 O646 1.986 . S
O628 Mg626 1.936 . S
O628 Mg627 1.963 . S
O628 Mg629 1.915 . S
Mg629 O628 1.915 . S
Mg629 O630 1.915 . S
Mg629 O634 2.013 . S
Mg629 O640 2.114 . S
Mg629 O644 2.013 . S
Mg629 O650 2.114 . S
O630 Mg629 1.915 . S
O630 Mg631 1.936 . S
O630 Mg632 1.963 . S
Mg631 O630 1.936 . S
Mg631 O640 2.291 . S
Mg631 O645 2.081 . S
Mg631 O647 2.023 . S
Mg631 O651 2.031 . S
Mg632 O630 1.963 . S
Mg632 O636 1.986 . S
Mg632 O648 1.942 . S
Mg632 O649 1.955 . S
C633 O644 1.191 . S
C633 O646 1.307 . S
O634 Mg629 2.013 . S
O634 C653 1.191 . S
O635 Mg626 2.081 . S
O635 C643 1.331 . S
O636 Mg632 1.986 . S
O636 C653 1.307 . S
O637 Mg626 2.023 . S
O637 C652 1.264 . S
O638 Mg627 1.942 . S
O638 C643 1.244 . S
O639 Mg627 1.955 . S
O639 C652 1.273 . S
O640 Mg629 2.114 . S
O640 Mg631 2.291 . S
O640 C642 1.312 . S
O641 Mg626 2.031 . S
O641 C642 1.208 . S
C642 O640 1.312 . S
C642 O641 1.208 . S
C643 O635 1.331 . S
C643 O638 1.244 . S
O644 Mg629 2.013 . S
O644 C633 1.191 . S
O645 C624 1.331 . S
O645 Mg631 2.081 . S
O646 Mg627 1.986 . S
O646 C633 1.307 . S
O647 C625 1.264 . S
O647 Mg631 2.023 . S
O648 C624 1.244 . S
O648 Mg632 1.942 . S
O649 C625 1.273 . S
O649 Mg632 1.955 . S
O650 C623 1.312 . S
O650 Mg626 2.291 . S
O650 Mg629 2.114 . S
O651 C623 1.208 . S
O651 Mg631 2.031 . S
C652 O637 1.264 . S
C652 O639 1.273 . S
C653 O634 1.191 . S
C653 O636 1.307 . S
C654 O681 1.312 . S
C654 O682 1.208 . S
C655 O676 1.331 . S
C655 O679 1.244 . S
C656 O678 1.264 . S
C656 O680 1.273 . S
Mg657 O659 1.936 . S
Mg657 O666 2.081 . S
Mg657 O668 2.023 . S
Mg657 O672 2.031 . S
Mg657 O681 2.291 . S
Mg658 O659 1.963 . S
Mg658 O669 1.942 . S
Mg658 O670 1.955 . S
Mg658 O677 1.986 . S
O659 Mg657 1.936 . S
O659 Mg658 1.963 . S
O659 Mg660 1.915 . S
Mg660 O659 1.915 . S
Mg660 O661 1.915 . S
Mg660 O665 2.013 . S
Mg660 O671 2.114 . S
Mg660 O675 2.013 . S
Mg660 O681 2.114 . S
O661 Mg660 1.915 . S
O661 Mg662 1.936 . S
O661 Mg663 1.963 . S
Mg662 O661 1.936 . S
Mg662 O671 2.291 . S
Mg662 O676 2.081 . S
Mg662 O678 2.023 . S
Mg662 O682 2.031 . S
Mg663 O661 1.963 . S
Mg663 O667 1.986 . S
Mg663 O679 1.942 . S
Mg663 O680 1.955 . S
C664 O675 1.191 . S
C664 O677 1.307 . S
O665 Mg660 2.013 . S
O665 C684 1.191 . S
O666 Mg657 2.081 . S
O666 C674 1.331 . S
O667 Mg663 1.986 . S
O667 C684 1.307 . S
O668 Mg657 2.023 . S
O668 C683 1.264 . S
O669 Mg658 1.942 . S
O669 C674 1.244 . S
O670 Mg658 1.955 . S
O670 C683 1.273 . S
O671 Mg660 2.114 . S
O671 Mg662 2.291 . S
O671 C673 1.312 . S
O672 Mg657 2.031 . S
O672 C673 1.208 . S
C673 O671 1.312 . S
C673 O672 1.208 . S
C674 O666 1.331 . S
C674 O669 1.244 . S
O675 Mg660 2.013 . S
O675 C664 1.191 . S
O676 C655 1.331 . S
O676 Mg662 2.081 . S
O677 Mg658 1.986 . S
O677 C664 1.307 . S
O678 C656 1.264 . S
O678 Mg662 2.023 . S
O679 C655 1.244 . S
O679 Mg663 1.942 . S
O680 C656 1.273 . S
O680 Mg663 1.955 . S
O681 C654 1.312 . S
O681 Mg657 2.291 . S
O681 Mg660 2.114 . S
O682 C654 1.208 . S
O682 Mg662 2.031 . S
C683 O668 1.264 . S
C683 O670 1.273 . S
C684 O665 1.191 . S
C684 O667 1.307 . S
C685 O712 1.312 . S
C685 O713 1.208 . S
C686 O707 1.331 . S
C686 O710 1.244 . S
C687 O709 1.264 . S
C687 O711 1.273 . S
Mg688 O690 1.936 . S
Mg688 O697 2.081 . S
Mg688 O699 2.023 . S
Mg688 O703 2.031 . S
Mg688 O712 2.291 . S
Mg689 O690 1.963 1_655 S
Mg689 O700 1.942 . S
Mg689 O701 1.955 . S
Mg689 O708 1.986 . S
O690 Mg688 1.936 . S
O690 Mg689 1.963 1_455 S
O690 Mg691 1.915 . S
Mg691 O690 1.915 . S
Mg691 O692 1.915 . S
Mg691 O696 2.013 . S
Mg691 O702 2.114 . S
Mg691 O706 2.013 . S
Mg691 O712 2.114 . S
O692 Mg691 1.915 . S
O692 Mg693 1.936 . S
O692 Mg694 1.963 . S
Mg693 O692 1.936 . S
Mg693 O702 2.291 . S
Mg693 O707 2.081 . S
Mg693 O709 2.023 . S
Mg693 O713 2.031 . S
Mg694 O692 1.963 . S
Mg694 O698 1.986 . S
Mg694 O710 1.942 . S
Mg694 O711 1.955 . S
C695 O706 1.191 . S
C695 O708 1.307 1_455 S
O696 Mg691 2.013 . S
O696 C715 1.191 . S
O697 Mg688 2.081 . S
O697 C705 1.331 1_455 S
O698 Mg694 1.986 . S
O698 C715 1.307 . S
O699 Mg688 2.023 . S
O699 C714 1.264 1_455 S
O700 Mg689 1.942 . S
O700 C705 1.244 . S
O701 Mg689 1.955 . S
O701 C714 1.273 . S
O702 Mg691 2.114 . S
O702 Mg693 2.291 . S
O702 C704 1.312 . S
O703 Mg688 2.031 . S
O703 C704 1.208 . S
C704 O702 1.312 . S
C704 O703 1.208 . S
C705 O697 1.331 1_655 S
C705 O700 1.244 . S
O706 Mg691 2.013 . S
O706 C695 1.191 . S
O707 C686 1.331 . S
O707 Mg693 2.081 . S
O708 Mg689 1.986 . S
O708 C695 1.307 1_655 S
O709 C687 1.264 . S
O709 Mg693 2.023 . S
O710 C686 1.244 . S
O710 Mg694 1.942 . S
O711 C687 1.273 . S
O711 Mg694 1.955 . S
O712 C685 1.312 . S
O712 Mg688 2.291 . S
O712 Mg691 2.114 . S
O713 C685 1.208 . S
O713 Mg693 2.031 . S
C714 O699 1.264 1_655 S
C714 O701 1.273 . S
C715 O696 1.191 . S
C715 O698 1.307 . S
C716 C717 1.349 . S
C716 C718 1.327 . S
C716 H741 0.950 . S
C717 C716 1.349 . S
C717 C733 1.349 . S
C718 C716 1.327 . S
C718 C737 1.429 . S
C718 H742 0.950 . S
C719 C736 1.574 . S
C719 C738 1.368 . S
C719 H743 0.949 . S
H720 C724 0.949 . S
C721 C722 1.349 . S
C721 C723 1.327 . S
C721 H744 0.950 . S
C722 C721 1.349 . S
C722 C734 1.349 . S
C723 C721 1.327 . S
C723 C739 1.429 . S
C723 H745 0.950 . S
C724 H720 0.949 . S
C724 C732 1.574 . S
C724 C740 1.368 . S
H725 C733 0.950 . S
H726 C731 0.950 . S
H727 C732 0.949 . S
H728 C734 0.950 . S
H729 C735 0.950 . S
H730 C736 0.949 . S
C731 H726 0.950 . S
C731 C733 1.327 . S
C731 C737 1.429 . S
C732 C724 1.574 . S
C732 H727 0.949 . S
C732 C738 1.368 . S
C733 C717 1.349 . S
C733 H725 0.950 . S
C733 C731 1.327 . S
C734 C722 1.349 . S
C734 H728 0.950 . S
C734 C735 1.327 . S
C735 H729 0.950 . S
C735 C734 1.327 . S
C735 C739 1.429 . S
C736 C719 1.574 . S
C736 H730 0.949 . S
C736 C740 1.368 . S
C737 C718 1.429 . S
C737 C731 1.429 . S
C737 C738 1.523 . S
C738 C719 1.368 . S
C738 C732 1.368 . S
C738 C737 1.523 . S
C739 C723 1.429 . S
C739 C735 1.429 . S
C739 C740 1.523 . S
C740 C724 1.368 . S
C740 C736 1.368 . S
C740 C739 1.523 . S
H741 C716 0.950 . S
H742 C718 0.950 . S
H743 C719 0.949 . S
H744 C721 0.950 . S
H745 C723 0.950 . S
C746 C747 1.349 . S
C746 C748 1.327 . S
C746 H771 0.950 . S
C747 C746 1.349 . S
C747 C763 1.349 . S
C748 C746 1.327 . S
C748 C767 1.429 . S
C748 H772 0.950 . S
C749 C766 1.574 . S
C749 C768 1.368 1_545 S
C749 H773 0.949 . S
H750 C754 0.949 . S
C751 C752 1.349 . S
C751 C753 1.327 . S
C751 H774 0.950 . S
C752 C751 1.349 . S
C752 C764 1.349 . S
C753 C751 1.327 . S
C753 C769 1.429 . S
C753 H775 0.950 . S
C754 H750 0.949 . S
C754 C762 1.574 1_545 S
C754 C770 1.368 . S
H755 C763 0.950 . S
H756 C761 0.950 . S
H757 C762 0.949 . S
H758 C764 0.950 . S
H759 C765 0.950 . S
H760 C766 0.949 . S
C761 H756 0.950 . S
C761 C763 1.327 . S
C761 C767 1.429 . S
C762 C754 1.574 1_565 S
C762 H757 0.949 . S
C762 C768 1.368 . S
C763 C747 1.349 . S
C763 H755 0.950 . S
C763 C761 1.327 . S
C764 C752 1.349 . S
C764 H758 0.950 . S
C764 C765 1.327 . S
C765 H759 0.950 . S
C765 C764 1.327 . S
C765 C769 1.429 . S
C766 C749 1.574 . S
C766 H760 0.949 . S
C766 C770 1.368 . S
C767 C748 1.429 . S
C767 C761 1.429 . S
C767 C768 1.523 . S
C768 C749 1.368 1_565 S
C768 C762 1.368 . S
C768 C767 1.523 . S
C769 C753 1.429 . S
C769 C765 1.429 . S
C769 C770 1.523 . S
C770 C754 1.368 . S
C770 C766 1.368 . S
C770 C769 1.523 . S
H771 C746 0.950 . S
H772 C748 0.950 . S
H773 C749 0.949 . S
H774 C751 0.950 . S
H775 C753 0.950 . S
C776 C777 1.348 1_556 S
C776 C778 1.331 . S
C776 H801 0.946 1_556 S
C777 C776 1.348 1_554 S
C777 C793 1.349 1_554 S
C778 C776 1.331 . S
C778 C797 1.429 . S
C778 H802 0.950 . S
C779 C796 1.574 . S
C779 C798 1.368 . S
C779 H803 0.949 . S
H780 C784 0.949 . S
C781 C782 1.349 . S
C781 C783 1.327 . S
C781 H804 0.950 . S
C782 C781 1.349 . S
C782 C794 1.349 . S
C783 C781 1.327 . S
C783 C799 1.429 . S
C783 H805 0.950 . S
C784 H780 0.949 . S
C784 C792 1.574 . S
C784 C800 1.368 . S
H785 C793 0.950 . S
H786 C791 0.950 . S
H787 C792 0.949 . S
H788 C794 0.950 . S
H789 C795 0.950 . S
H790 C796 0.949 . S
C791 H786 0.950 . S
C791 C793 1.327 . S
C791 C797 1.429 . S
C792 C784 1.574 . S
C792 H787 0.949 . S
C792 C798 1.368 . S
C793 C777 1.349 1_556 S
C793 H785 0.950 . S
C793 C791 1.327 . S
C794 C782 1.349 . S
C794 H788 0.950 . S
C794 C795 1.327 . S
C795 H789 0.950 . S
C795 C794 1.327 . S
C795 C799 1.429 . S
C796 C779 1.574 . S
C796 H790 0.949 . S
C796 C800 1.368 . S
C797 C778 1.429 . S
C797 C791 1.429 . S
C797 C798 1.523 . S
C798 C779 1.368 . S
C798 C792 1.368 . S
C798 C797 1.523 . S
C799 C783 1.429 . S
C799 C795 1.429 . S
C799 C800 1.523 . S
C800 C784 1.368 . S
C800 C796 1.368 . S
C800 C799 1.523 . S
H801 C776 0.946 1_554 S
H802 C778 0.950 . S
H803 C779 0.949 . S
H804 C781 0.950 . S
H805 C783 0.950 . S
C806 C807 1.349 . S
C806 C808 1.327 . S
C806 H831 0.950 . S
C807 C806 1.349 . S
C807 C823 1.349 . S
C808 C806 1.327 . S
C808 C827 1.429 . S
C808 H832 0.950 . S
C809 C826 1.574 . S
C809 C828 1.368 . S
C809 H833 0.949 . S
H810 C814 0.949 . S
C811 C812 1.349 . S
C811 C813 1.327 . S
C811 H834 0.950 . S
C812 C811 1.349 . S
C812 C824 1.349 . S
C813 C811 1.327 . S
C813 C829 1.429 . S
C813 H835 0.950 1_565 S
C814 H810 0.949 . S
C814 C822 1.574 1_565 S
C814 C830 1.368 1_565 S
H815 C823 0.950 . S
H816 C821 0.950 . S
H817 C822 0.949 . S
H818 C824 0.950 . S
H819 C825 0.950 . S
H820 C826 0.949 . S
C821 H816 0.950 . S
C821 C823 1.327 . S
C821 C827 1.429 . S
C822 C814 1.574 1_545 S
C822 H817 0.949 . S
C822 C828 1.368 . S
C823 C807 1.349 . S
C823 H815 0.950 . S
C823 C821 1.327 . S
C824 C812 1.349 . S
C824 H818 0.950 . S
C824 C825 1.327 . S
C825 H819 0.950 . S
C825 C824 1.327 . S
C825 C829 1.429 . S
C826 C809 1.574 . S
C826 H820 0.949 . S
C826 C830 1.368 . S
C827 C808 1.429 . S
C827 C821 1.429 . S
C827 C828 1.523 . S
C828 C809 1.368 . S
C828 C822 1.368 . S
C828 C827 1.523 . S
C829 C813 1.429 . S
C829 C825 1.429 . S
C829 C830 1.523 1_565 S
C830 C814 1.368 1_545 S
C830 C826 1.368 . S
C830 C829 1.523 1_545 S
H831 C806 0.950 . S
H832 C808 0.950 . S
H833 C809 0.949 . S
H834 C811 0.950 . S
H835 C813 0.950 1_545 S
C836 C837 1.349 . S
C836 C838 1.327 . S
C836 H861 0.950 . S
C837 C836 1.349 . S
C837 C853 1.349 . S
C838 C836 1.327 . S
C838 C857 1.429 . S
C838 H862 0.950 . S
C839 C856 1.574 . S
C839 C858 1.368 . S
C839 H863 0.949 . S
H840 C844 0.949 . S
C841 C842 1.349 . S
C841 C843 1.327 . S
C841 H864 0.950 . S
C842 C841 1.349 . S
C842 C854 1.349 . S
C843 C841 1.327 . S
C843 C859 1.429 . S
C843 H865 0.950 . S
C844 H840 0.949 . S
C844 C852 1.574 . S
C844 C860 1.368 . S
H845 C853 0.950 . S
H846 C851 0.950 . S
H847 C852 0.949 . S
H848 C854 0.950 . S
H849 C855 0.950 . S
H850 C856 0.949 . S
C851 H846 0.950 . S
C851 C853 1.327 . S
C851 C857 1.429 . S
C852 C844 1.574 . S
C852 H847 0.949 . S
C852 C858 1.368 . S
C853 C837 1.349 . S
C853 H845 0.950 . S
C853 C851 1.327 . S
C854 C842 1.349 . S
C854 H848 0.950 . S
C854 C855 1.327 . S
C855 H849 0.950 . S
C855 C854 1.327 . S
C855 C859 1.429 . S
C856 C839 1.574 . S
C856 H850 0.949 . S
C856 C860 1.368 . S
C857 C838 1.429 . S
C857 C851 1.429 . S
C857 C858 1.523 . S
C858 C839 1.368 . S
C858 C852 1.368 . S
C858 C857 1.523 . S
C859 C843 1.429 . S
C859 C855 1.429 . S
C859 C860 1.523 . S
C860 C844 1.368 . S
C860 C856 1.368 . S
C860 C859 1.523 . S
H861 C836 0.950 . S
H862 C838 0.950 . S
H863 C839 0.949 . S
H864 C841 0.950 . S
H865 C843 0.950 . S
C866 C867 1.349 . S
C866 C868 1.327 . S
C866 H891 0.950 . S
C867 C866 1.349 . S
C867 C883 1.349 . S
C868 C866 1.327 . S
C868 C887 1.429 . S
C868 H892 0.950 . S
C869 C886 1.574 1_565 S
C869 C888 1.368 . S
C869 H893 0.949 . S
H870 C874 0.949 . S
C871 C872 1.349 . S
C871 C873 1.327 . S
C871 H894 0.950 . S
C872 C871 1.349 . S
C872 C884 1.349 . S
C873 C871 1.327 . S
C873 C889 1.429 . S
C873 H895 0.950 . S
C874 H870 0.949 . S
C874 C882 1.574 . S
C874 C890 1.368 1_565 S
H875 C883 0.950 . S
H876 C881 0.950 . S
H877 C882 0.949 . S
H878 C884 0.950 . S
H879 C885 0.950 . S
H880 C886 0.949 . S
C881 H876 0.950 . S
C881 C883 1.327 . S
C881 C887 1.429 . S
C882 C874 1.574 . S
C882 H877 0.949 . S
C882 C888 1.368 . S
C883 C867 1.349 . S
C883 H875 0.950 . S
C883 C881 1.327 . S
C884 C872 1.349 . S
C884 H878 0.950 . S
C884 C885 1.327 . S
C885 H879 0.950 . S
C885 C884 1.327 . S
C885 C889 1.429 . S
C886 C869 1.574 1_545 S
C886 H880 0.949 . S
C886 C890 1.368 . S
C887 C868 1.429 . S
C887 C881 1.429 . S
C887 C888 1.523 . S
C888 C869 1.368 . S
C888 C882 1.368 . S
C888 C887 1.523 . S
C889 C873 1.429 . S
C889 C885 1.429 . S
C889 C890 1.523 . S
C890 C874 1.368 1_545 S
C890 C886 1.368 . S
C890 C889 1.523 . S
H891 C866 0.950 . S
H892 C868 0.950 . S
H893 C869 0.949 . S
H894 C871 0.950 . S
H895 C873 0.950 . S
C896 C897 1.349 1_545 S
C896 C898 1.327 . S
C896 H921 0.950 . S
C897 C896 1.349 1_565 S
C897 C913 1.349 . S
C898 C896 1.327 . S
C898 C917 1.429 1_545 S
C898 H922 0.950 . S
C899 C916 1.574 . S
C899 C918 1.368 . S
C899 H923 0.949 . S
H900 C904 0.949 . S
C901 C902 1.349 . S
C901 C903 1.327 . S
C901 H924 0.950 . S
C902 C901 1.349 . S
C902 C914 1.349 . S
C903 C901 1.327 . S
C903 C919 1.429 . S
C903 H925 0.950 . S
C904 H900 0.949 . S
C904 C912 1.574 . S
C904 C920 1.368 . S
H905 C913 0.950 . S
H906 C911 0.950 . S
H907 C912 0.949 1_545 S
H908 C914 0.950 . S
H909 C915 0.950 . S
H910 C916 0.949 . S
C911 H906 0.950 . S
C911 C913 1.327 . S
C911 C917 1.429 . S
C912 C904 1.574 . S
C912 H907 0.949 1_565 S
C912 C918 1.368 . S
C913 C897 1.349 . S
C913 H905 0.950 . S
C913 C911 1.327 . S
C914 C902 1.349 . S
C914 H908 0.950 . S
C914 C915 1.327 . S
C915 H909 0.950 . S
C915 C914 1.327 . S
C915 C919 1.429 . S
C916 C899 1.574 . S
C916 H910 0.949 . S
C916 C920 1.368 . S
C917 C898 1.429 1_565 S
C917 C911 1.429 . S
C917 C918 1.523 . S
C918 C899 1.368 . S
C918 C912 1.368 . S
C918 C917 1.523 . S
C919 C903 1.429 . S
C919 C915 1.429 . S
C919 C920 1.523 . S
C920 C904 1.368 . S
C920 C916 1.368 . S
C920 C919 1.523 . S
H921 C896 0.950 . S
H922 C898 0.950 . S
H923 C899 0.949 . S
H924 C901 0.950 . S
H925 C903 0.950 . S
C926 C927 1.349 . S
C926 C928 1.327 . S
C926 H951 0.950 . S
C927 C926 1.349 . S
C927 C943 1.349 . S
C928 C926 1.327 . S
C928 C947 1.429 . S
C928 H952 0.950 . S
C929 C946 1.574 . S
C929 C948 1.368 . S
C929 H953 0.949 . S
H930 C934 0.949 1_565 S
C931 C932 1.349 . S
C931 C933 1.327 . S
C931 H954 0.950 . S
C932 C931 1.349 . S
C932 C944 1.349 . S
C933 C931 1.327 . S
C933 C949 1.429 . S
C933 H955 0.950 . S
C934 H930 0.949 1_545 S
C934 C942 1.574 . S
C934 C950 1.368 . S
H935 C943 0.950 . S
H936 C941 0.950 . S
H937 C942 0.949 . S
H938 C944 0.950 . S
H939 C945 0.950 . S
H940 C946 0.949 . S
C941 H936 0.950 . S
C941 C943 1.327 . S
C941 C947 1.429 . S
C942 C934 1.574 . S
C942 H937 0.949 . S
C942 C948 1.368 . S
C943 C927 1.349 . S
C943 H935 0.950 . S
C943 C941 1.327 . S
C944 C932 1.349 . S
C944 H938 0.950 . S
C944 C945 1.327 . S
C945 H939 0.950 . S
C945 C944 1.327 . S
C945 C949 1.429 . S
C946 C929 1.574 . S
C946 H940 0.949 . S
C946 C950 1.368 . S
C947 C928 1.429 . S
C947 C941 1.429 . S
C947 C948 1.523 . S
C948 C929 1.368 . S
C948 C942 1.368 . S
C948 C947 1.523 . S
C949 C933 1.429 . S
C949 C945 1.429 . S
C949 C950 1.523 1_565 S
C950 C934 1.368 . S
C950 C946 1.368 . S
C950 C949 1.523 1_545 S
H951 C926 0.950 . S
H952 C928 0.950 . S
H953 C929 0.949 . S
H954 C931 0.950 . S
H955 C933 0.950 . S
C956 C957 1.349 . S
C956 C958 1.327 . S
C956 H981 0.950 . S
C957 C956 1.349 . S
C957 C973 1.349 . S
C958 C956 1.327 . S
C958 C977 1.429 . S
C958 H982 0.950 . S
C959 C976 1.574 . S
C959 C978 1.368 . S
C959 H983 0.949 . S
H960 C964 0.949 . S
C961 C962 1.349 . S
C961 C963 1.327 . S
C961 H984 0.950 . S
C962 C961 1.349 . S
C962 C974 1.349 . S
C963 C961 1.327 . S
C963 C979 1.429 . S
C963 H985 0.950 . S
C964 H960 0.949 . S
C964 C972 1.574 . S
C964 C980 1.368 . S
H965 C973 0.950 . S
H966 C971 0.950 . S
H967 C972 0.949 . S
H968 C974 0.950 . S
H969 C975 0.950 . S
H970 C976 0.949 . S
C971 H966 0.950 . S
C971 C973 1.327 . S
C971 C977 1.429 . S
C972 C964 1.574 . S
C972 H967 0.949 . S
C972 C978 1.368 . S
C973 C957 1.349 . S
C973 H965 0.950 . S
C973 C971 1.327 . S
C974 C962 1.349 . S
C974 H968 0.950 . S
C974 C975 1.327 . S
C975 H969 0.950 . S
C975 C974 1.327 . S
C975 C979 1.429 . S
C976 C959 1.574 . S
C976 H970 0.949 . S
C976 C980 1.368 . S
C977 C958 1.429 . S
C977 C971 1.429 . S
C977 C978 1.523 . S
C978 C959 1.368 . S
C978 C972 1.368 . S
C978 C977 1.523 . S
C979 C963 1.429 . S
C979 C975 1.429 . S
C979 C980 1.523 . S
C980 C964 1.368 . S
C980 C976 1.368 . S
C980 C979 1.523 . S
H981 C956 0.950 . S
H982 C958 0.950 . S
H983 C959 0.949 . S
H984 C961 0.950 . S
H985 C963 0.950 . S
C986 C987 1.349 . S
C986 C988 1.327 . S
C986 H1011 0.950 . S
C987 C986 1.349 . S
C987 C1003 1.349 . S
C988 C986 1.327 . S
C988 C1007 1.429 . S
C988 H1012 0.950 . S
C989 C1006 1.574 . S
C989 C1008 1.368 . S
C989 H1013 0.949 . S
H990 C994 0.949 . S
C991 C992 1.349 . S
C991 C993 1.327 . S
C991 H1014 0.950 . S
C992 C991 1.349 . S
C992 C1004 1.349 . S
C993 C991 1.327 . S
C993 C1009 1.429 . S
C993 H1015 0.950 . S
C994 H990 0.949 . S
C994 C1002 1.574 . S
C994 C1010 1.368 . S
H995 C1003 0.950 . S
H996 C1001 0.950 1_565 S
H997 C1002 0.949 1_545 S
H998 C1004 0.950 . S
H999 C1005 0.950 . S
H1000 C1006 0.949 . S
C1001 H996 0.950 1_545 S
C1001 C1003 1.327 . S
C1001 C1007 1.429 . S
C1002 C994 1.574 . S
C1002 H997 0.949 1_565 S
C1002 C1008 1.368 . S
C1003 C987 1.349 . S
C1003 H995 0.950 . S
C1003 C1001 1.327 . S
C1004 C992 1.349 . S
C1004 H998 0.950 . S
C1004 C1005 1.327 . S
C1005 H999 0.950 . S
C1005 C1004 1.327 . S
C1005 C1009 1.429 . S
C1006 C989 1.574 . S
C1006 H1000 0.949 . S
C1006 C1010 1.368 . S
C1007 C988 1.429 . S
C1007 C1001 1.429 . S
C1007 C1008 1.523 1_545 S
C1008 C989 1.368 . S
C1008 C1002 1.368 . S
C1008 C1007 1.523 1_565 S
C1009 C993 1.429 . S
C1009 C1005 1.429 . S
C1009 C1010 1.523 . S
C1010 C994 1.368 . S
C1010 C1006 1.368 . S
C1010 C1009 1.523 . S
H1011 C986 0.950 . S
H1012 C988 0.950 . S
H1013 C989 0.949 . S
H1014 C991 0.950 . S
H1015 C993 0.950 . S
C1016 C1017 1.349 . S
C1016 C1018 1.327 . S
C1016 H1041 0.950 1_565 S
C1017 C1016 1.349 . S
C1017 C1033 1.349 . S
C1018 C1016 1.327 . S
C1018 C1037 1.429 . S
C1018 H1042 0.950 . S
C1019 C1036 1.574 . S
C1019 C1038 1.368 . S
C1019 H1043 0.949 . S
H1020 C1024 0.949 . S
C1021 C1022 1.349 . S
C1021 C1023 1.327 . S
C1021 H1044 0.950 . S
C1022 C1021 1.349 . S
C1022 C1034 1.349 1_455 S
C1023 C1021 1.327 . S
C1023 C1039 1.429 1_455 S
C1023 H1045 0.950 . S
C1024 H1020 0.949 . S
C1024 C1032 1.574 . S
C1024 C1040 1.368 . S
H1025 C1033 0.950 . S
H1026 C1031 0.950 . S
H1027 C1032 0.949 . S
H1028 C1034 0.950 . S
H1029 C1035 0.950 . S
H1030 C1036 0.949 . S
C1031 H1026 0.950 . S
C1031 C1033 1.327 . S
C1031 C1037 1.429 . S
C1032 C1024 1.574 . S
C1032 H1027 0.949 . S
C1032 C1038 1.368 . S
C1033 C1017 1.349 . S
C1033 H1025 0.950 . S
C1033 C1031 1.327 . S
C1034 C1022 1.349 1_655 S
C1034 H1028 0.950 . S
C1034 C1035 1.327 . S
C1035 H1029 0.950 . S
C1035 C1034 1.327 . S
C1035 C1039 1.429 . S
C1036 C1019 1.574 . S
C1036 H1030 0.949 . S
C1036 C1040 1.368 . S
C1037 C1018 1.429 . S
C1037 C1031 1.429 . S
C1037 C1038 1.523 . S
C1038 C1019 1.368 . S
C1038 C1032 1.368 . S
C1038 C1037 1.523 . S
C1039 C1023 1.429 1_655 S
C1039 C1035 1.429 . S
C1039 C1040 1.523 . S
C1040 C1024 1.368 . S
C1040 C1036 1.368 . S
C1040 C1039 1.523 . S
H1041 C1016 0.950 1_545 S
H1042 C1018 0.950 . S
H1043 C1019 0.949 . S
H1044 C1021 0.950 . S
H1045 C1023 0.950 . S
C1046 C1047 1.349 1_545 S
C1046 C1048 1.327 . S
C1046 H1071 0.950 . S
C1047 C1046 1.349 1_565 S
C1047 C1063 1.349 . S
C1048 C1046 1.327 . S
C1048 C1067 1.429 . S
C1048 H1072 0.950 . S
C1049 C1066 1.574 . S
C1049 C1068 1.368 . S
C1049 H1073 0.949 . S
H1050 C1054 0.949 . S
C1051 C1052 1.349 1_455 S
C1051 C1053 1.328 1_455 S
C1051 H1074 0.949 . S
C1052 C1051 1.349 1_655 S
C1052 C1064 1.349 . S
C1053 C1051 1.328 1_655 S
C1053 C1069 1.429 . S
C1053 H1075 0.950 . S
C1054 H1050 0.949 . S
C1054 C1062 1.574 . S
C1054 C1070 1.368 . S
H1055 C1063 0.950 . S
H1056 C1061 0.950 . S
H1057 C1062 0.949 . S
H1058 C1064 0.950 . S
H1059 C1065 0.950 . S
H1060 C1066 0.949 . S
C1061 H1056 0.950 . S
C1061 C1063 1.327 . S
C1061 C1067 1.429 1_565 S
C1062 C1054 1.574 . S
C1062 H1057 0.949 . S
C1062 C1068 1.368 . S
C1063 C1047 1.349 . S
C1063 H1055 0.950 . S
C1063 C1061 1.327 . S
C1064 C1052 1.349 . S
C1064 H1058 0.950 . S
C1064 C1065 1.327 . S
C1065 H1059 0.950 . S
C1065 C1064 1.327 . S
C1065 C1069 1.429 . S
C1066 C1049 1.574 . S
C1066 H1060 0.949 . S
C1066 C1070 1.368 . S
C1067 C1048 1.429 . S
C1067 C1061 1.429 1_545 S
C1067 C1068 1.523 . S
C1068 C1049 1.368 . S
C1068 C1062 1.368 . S
C1068 C1067 1.523 . S
C1069 C1053 1.429 . S
C1069 C1065 1.429 . S
C1069 C1070 1.523 . S
C1070 C1054 1.368 . S
C1070 C1066 1.368 . S
C1070 C1069 1.523 . S
H1071 C1046 0.950 . S
H1072 C1048 0.950 . S
H1073 C1049 0.949 . S
H1074 C1051 0.949 . S
H1075 C1053 0.950 . S
C1076 C1077 1.349 . S
C1076 C1078 1.327 . S
C1076 H1101 0.950 . S
C1077 C1076 1.349 . S
C1077 C1093 1.349 . S
C1078 C1076 1.327 . S
C1078 C1097 1.429 . S
C1078 H1102 0.950 . S
C1079 C1096 1.574 . S
C1079 C1098 1.368 . S
C1079 H1103 0.949 . S
H1080 C1084 0.949 . S
C1081 C1082 1.349 . S
C1081 C1083 1.327 . S
C1081 H1104 0.950 . S
C1082 C1081 1.349 . S
C1082 C1094 1.349 . S
C1083 C1081 1.327 . S
C1083 C1099 1.429 . S
C1083 H1105 0.950 . S
C1084 H1080 0.949 . S
C1084 C1092 1.574 . S
C1084 C1100 1.368 . S
H1085 C1093 0.950 . S
H1086 C1091 0.950 . S
H1087 C1092 0.949 . S
H1088 C1094 0.950 . S
H1089 C1095 0.950 . S
H1090 C1096 0.949 . S
C1091 H1086 0.950 . S
C1091 C1093 1.327 . S
C1091 C1097 1.429 . S
C1092 C1084 1.574 . S
C1092 H1087 0.949 . S
C1092 C1098 1.368 . S
C1093 C1077 1.349 . S
C1093 H1085 0.950 . S
C1093 C1091 1.327 . S
C1094 C1082 1.349 . S
C1094 H1088 0.950 . S
C1094 C1095 1.327 . S
C1095 H1089 0.950 . S
C1095 C1094 1.327 . S
C1095 C1099 1.429 . S
C1096 C1079 1.574 . S
C1096 H1090 0.949 . S
C1096 C1100 1.368 . S
C1097 C1078 1.429 . S
C1097 C1091 1.429 . S
C1097 C1098 1.523 . S
C1098 C1079 1.368 . S
C1098 C1092 1.368 . S
C1098 C1097 1.523 . S
C1099 C1083 1.429 . S
C1099 C1095 1.429 . S
C1099 C1100 1.523 . S
C1100 C1084 1.368 . S
C1100 C1096 1.368 . S
C1100 C1099 1.523 . S
H1101 C1076 0.950 . S
H1102 C1078 0.950 . S
H1103 C1079 0.949 . S
H1104 C1081 0.950 . S
H1105 C1083 0.950 . S
C1106 C1107 1.349 . S
C1106 C1108 1.327 . S
C1106 H1131 0.950 . S
C1107 C1106 1.349 . S
C1107 C1123 1.349 1_545 S
C1108 C1106 1.327 . S
C1108 C1127 1.429 1_545 S
C1108 H1132 0.950 . S
C1109 C1126 1.574 . S
C1109 C1128 1.368 . S
C1109 H1133 0.949 . S
H1110 C1114 0.949 . S
C1111 C1112 1.349 1_655 S
C1111 C1113 1.327 . S
C1111 H1134 0.950 . S
C1112 C1111 1.349 1_455 S
C1112 C1124 1.349 . S
C1113 C1111 1.327 . S
C1113 C1129 1.429 . S
C1113 H1135 0.950 . S
C1114 H1110 0.949 . S
C1114 C1122 1.574 . S
C1114 C1130 1.368 . S
H1115 C1123 0.950 . S
H1116 C1121 0.950 . S
H1117 C1122 0.949 1_545 S
H1118 C1124 0.950 . S
H1119 C1125 0.950 . S
H1120 C1126 0.949 . S
C1121 H1116 0.950 . S
C1121 C1123 1.327 . S
C1121 C1127 1.429 . S
C1122 C1114 1.574 . S
C1122 H1117 0.949 1_565 S
C1122 C1128 1.368 . S
C1123 C1107 1.349 1_565 S
C1123 H1115 0.950 . S
C1123 C1121 1.327 . S
C1124 C1112 1.349 . S
C1124 H1118 0.950 . S
C1124 C1125 1.327 1_455 S
C1125 H1119 0.950 . S
C1125 C1124 1.327 1_655 S
C1125 C1129 1.429 . S
C1126 C1109 1.574 . S
C1126 H1120 0.949 . S
C1126 C1130 1.368 . S
C1127 C1108 1.429 1_565 S
C1127 C1121 1.429 . S
C1127 C1128 1.523 . S
C1128 C1109 1.368 . S
C1128 C1122 1.368 . S
C1128 C1127 1.523 . S
C1129 C1113 1.429 . S
C1129 C1125 1.429 . S
C1129 C1130 1.523 . S
C1130 C1114 1.368 . S
C1130 C1126 1.368 . S
C1130 C1129 1.523 . S
H1131 C1106 0.950 . S
H1132 C1108 0.950 . S
H1133 C1109 0.949 . S
H1134 C1111 0.950 . S
H1135 C1113 0.950 . S
C1136 C1137 1.349 . S
C1136 C1138 1.327 . S
C1136 H1161 0.950 . S
C1137 C1136 1.349 . S
C1137 C1153 1.349 . S
C1138 C1136 1.327 . S
C1138 C1157 1.429 . S
C1138 H1162 0.950 . S
C1139 C1156 1.574 . S
C1139 C1158 1.368 . S
C1139 H1163 0.949 . S
H1140 C1144 0.949 . S
C1141 C1142 1.349 . S
C1141 C1143 1.339 . S
C1141 H1164 0.938 1_655 S
C1142 C1141 1.349 . S
C1142 C1154 1.349 . S
C1143 C1141 1.339 . S
C1143 C1159 1.429 . S
C1143 H1165 0.950 . S
C1144 H1140 0.949 . S
C1144 C1152 1.574 . S
C1144 C1160 1.368 . S
H1145 C1153 0.950 . S
H1146 C1151 0.950 . S
H1147 C1152 0.949 . S
H1148 C1154 0.950 . S
H1149 C1155 0.950 . S
H1150 C1156 0.949 . S
C1151 H1146 0.950 . S
C1151 C1153 1.327 . S
C1151 C1157 1.429 . S
C1152 C1144 1.574 . S
C1152 H1147 0.949 . S
C1152 C1158 1.368 . S
C1153 C1137 1.349 . S
C1153 H1145 0.950 . S
C1153 C1151 1.327 . S
C1154 C1142 1.349 . S
C1154 H1148 0.950 . S
C1154 C1155 1.327 . S
C1155 H1149 0.950 . S
C1155 C1154 1.327 . S
C1155 C1159 1.429 . S
C1156 C1139 1.574 . S
C1156 H1150 0.949 . S
C1156 C1160 1.368 . S
C1157 C1138 1.429 . S
C1157 C1151 1.429 . S
C1157 C1158 1.523 . S
C1158 C1139 1.368 . S
C1158 C1152 1.368 . S
C1158 C1157 1.523 . S
C1159 C1143 1.429 . S
C1159 C1155 1.429 . S
C1159 C1160 1.523 . S
C1160 C1144 1.368 . S
C1160 C1156 1.368 . S
C1160 C1159 1.523 . S
H1161 C1136 0.950 . S
H1162 C1138 0.950 . S
H1163 C1139 0.949 . S
H1164 C1141 0.938 1_455 S
H1165 C1143 0.950 . S
C1166 C1167 1.349 . S
C1166 C1168 1.327 . S
C1166 H1191 0.950 . S
C1167 C1166 1.349 . S
C1167 C1183 1.349 1_545 S
C1168 C1166 1.327 . S
C1168 C1187 1.429 . S
C1168 H1192 0.950 . S
C1169 C1186 1.574 . S
C1169 C1188 1.368 . S
C1169 H1193 0.949 . S
H1170 C1174 0.949 . S
C1171 C1172 1.349 . S
C1171 C1173 1.327 . S
C1171 H1194 0.950 . S
C1172 C1171 1.349 . S
C1172 C1184 1.349 . S
C1173 C1171 1.327 . S
C1173 C1189 1.429 . S
C1173 H1195 0.950 . S
C1174 H1170 0.949 . S
C1174 C1182 1.574 . S
C1174 C1190 1.368 . S
H1175 C1183 0.950 . S
H1176 C1181 0.950 . S
H1177 C1182 0.949 . S
H1178 C1184 0.950 . S
H1179 C1185 0.950 . S
H1180 C1186 0.949 . S
C1181 H1176 0.950 . S
C1181 C1183 1.327 1_545 S
C1181 C1187 1.429 . S
C1182 C1174 1.574 . S
C1182 H1177 0.949 . S
C1182 C1188 1.368 . S
C1183 C1167 1.349 1_565 S
C1183 H1175 0.950 . S
C1183 C1181 1.327 1_565 S
C1184 C1172 1.349 . S
C1184 H1178 0.950 . S
C1184 C1185 1.327 . S
C1185 H1179 0.950 . S
C1185 C1184 1.327 . S
C1185 C1189 1.429 . S
C1186 C1169 1.574 . S
C1186 H1180 0.949 . S
C1186 C1190 1.368 . S
C1187 C1168 1.429 . S
C1187 C1181 1.429 . S
C1187 C1188 1.523 . S
C1188 C1169 1.368 . S
C1188 C1182 1.368 . S
C1188 C1187 1.523 . S
C1189 C1173 1.429 . S
C1189 C1185 1.429 . S
C1189 C1190 1.523 . S
C1190 C1174 1.368 . S
C1190 C1186 1.368 . S
C1190 C1189 1.523 . S
H1191 C1166 0.950 . S
H1192 C1168 0.950 . S
H1193 C1169 0.949 . S
H1194 C1171 0.950 . S
H1195 C1173 0.950 . S
C1196 C1197 1.349 . S
C1196 C1198 1.327 . S
C1196 H1221 0.950 . S
C1197 C1196 1.349 . S
C1197 C1213 1.349 . S
C1198 C1196 1.327 . S
C1198 C1217 1.429 . S
C1198 H1222 0.950 . S
C1199 C1216 1.574 . S
C1199 C1218 1.368 . S
C1199 H1223 0.949 . S
H1200 C1204 0.949 . S
C1201 C1202 1.349 . S
C1201 C1203 1.327 . S
C1201 H1224 0.950 . S
C1202 C1201 1.349 . S
C1202 C1214 1.349 . S
C1203 C1201 1.327 . S
C1203 C1219 1.429 . S
C1203 H1225 0.950 . S
C1204 H1200 0.949 . S
C1204 C1212 1.574 . S
C1204 C1220 1.368 . S
H1205 C1213 0.950 1_554 S
H1206 C1211 0.950 . S
H1207 C1212 0.949 . S
H1208 C1214 0.950 . S
H1209 C1215 0.950 . S
H1210 C1216 0.949 . S
C1211 H1206 0.950 . S
C1211 C1213 1.327 . S
C1211 C1217 1.429 . S
C1212 C1204 1.574 . S
C1212 H1207 0.949 . S
C1212 C1218 1.368 . S
C1213 C1197 1.349 . S
C1213 H1205 0.950 1_556 S
C1213 C1211 1.327 . S
C1214 C1202 1.349 . S
C1214 H1208 0.950 . S
C1214 C1215 1.327 . S
C1215 H1209 0.950 . S
C1215 C1214 1.327 . S
C1215 C1219 1.429 . S
C1216 C1199 1.574 . S
C1216 H1210 0.949 . S
C1216 C1220 1.368 . S
C1217 C1198 1.429 . S
C1217 C1211 1.429 . S
C1217 C1218 1.523 . S
C1218 C1199 1.368 . S
C1218 C1212 1.368 . S
C1218 C1217 1.523 . S
C1219 C1203 1.429 . S
C1219 C1215 1.429 . S
C1219 C1220 1.523 . S
C1220 C1204 1.368 . S
C1220 C1216 1.368 . S
C1220 C1219 1.523 . S
H1221 C1196 0.950 . S
H1222 C1198 0.950 . S
H1223 C1199 0.949 . S
H1224 C1201 0.950 . S
H1225 C1203 0.950 . S
C1226 C1227 1.349 . S
C1226 C1228 1.327 . S
C1226 H1251 0.950 . S
C1227 C1226 1.349 . S
C1227 C1243 1.349 . S
C1228 C1226 1.327 . S
C1228 C1247 1.429 . S
C1228 H1252 0.950 . S
C1229 C1246 1.574 . S
C1229 C1248 1.368 . S
C1229 H1253 0.949 . S
H1230 C1234 0.949 . S
C1231 C1232 1.349 . S
C1231 C1233 1.327 . S
C1231 H1254 0.950 1_655 S
C1232 C1231 1.349 . S
C1232 C1244 1.349 . S
C1233 C1231 1.327 . S
C1233 C1249 1.429 . S
C1233 H1255 0.946 1_655 S
C1234 H1230 0.949 . S
C1234 C1242 1.574 . S
C1234 C1250 1.368 . S
H1235 C1243 0.950 . S
H1236 C1241 0.950 . S
H1237 C1242 0.949 . S
H1238 C1244 0.950 . S
H1239 C1245 0.950 . S
H1240 C1246 0.949 . S
C1241 H1236 0.950 . S
C1241 C1243 1.327 . S
C1241 C1247 1.429 . S
C1242 C1234 1.574 . S
C1242 H1237 0.949 . S
C1242 C1248 1.368 . S
C1243 C1227 1.349 . S
C1243 H1235 0.950 . S
C1243 C1241 1.327 . S
C1244 C1232 1.349 . S
C1244 H1238 0.950 . S
C1244 C1245 1.327 . S
C1245 H1239 0.950 . S
C1245 C1244 1.327 . S
C1245 C1249 1.429 . S
C1246 C1229 1.574 . S
C1246 H1240 0.949 . S
C1246 C1250 1.368 . S
C1247 C1228 1.429 . S
C1247 C1241 1.429 . S
C1247 C1248 1.523 . S
C1248 C1229 1.368 . S
C1248 C1242 1.368 . S
C1248 C1247 1.523 . S
C1249 C1233 1.429 . S
C1249 C1245 1.429 . S
C1249 C1250 1.523 . S
C1250 C1234 1.368 . S
C1250 C1246 1.368 . S
C1250 C1249 1.523 . S
H1251 C1226 0.950 . S
H1252 C1228 0.950 . S
H1253 C1229 0.949 . S
H1254 C1231 0.950 1_455 S
H1255 C1233 0.946 1_455 S
C1256 C1257 1.349 . S
C1256 C1258 1.327 . S
C1256 H1281 0.950 . S
C1257 C1256 1.349 . S
C1257 C1273 1.349 . S
C1258 C1256 1.327 . S
C1258 C1277 1.429 . S
C1258 H1282 0.950 . S
C1259 C1276 1.574 . S
C1259 C1278 1.368 . S
C1259 H1283 0.949 . S
H1260 C1264 0.949 . S
C1261 C1262 1.349 . S
C1261 C1263 1.327 . S
C1261 H1284 0.950 . S
C1262 C1261 1.349 . S
C1262 C1274 1.349 . S
C1263 C1261 1.327 . S
C1263 C1279 1.429 . S
C1263 H1285 0.950 . S
C1264 H1260 0.949 . S
C1264 C1272 1.574 . S
C1264 C1280 1.368 . S
H1265 C1273 0.950 1_455 S
H1266 C1271 0.950 . S
H1267 C1272 0.949 . S
H1268 C1274 0.950 . S
H1269 C1275 0.950 . S
H1270 C1276 0.949 . S
C1271 H1266 0.950 . S
C1271 C1273 1.327 . S
C1271 C1277 1.429 . S
C1272 C1264 1.574 . S
C1272 H1267 0.949 . S
C1272 C1278 1.368 . S
C1273 C1257 1.349 . S
C1273 H1265 0.950 1_655 S
C1273 C1271 1.327 . S
C1274 C1262 1.349 . S
C1274 H1268 0.950 . S
C1274 C1275 1.327 . S
C1275 H1269 0.950 . S
C1275 C1274 1.327 . S
C1275 C1279 1.429 . S
C1276 C1259 1.574 . S
C1276 H1270 0.949 . S
C1276 C1280 1.368 . S
C1277 C1258 1.429 . S
C1277 C1271 1.429 . S
C1277 C1278 1.523 . S
C1278 C1259 1.368 . S
C1278 C1272 1.368 . S
C1278 C1277 1.523 . S
C1279 C1263 1.429 . S
C1279 C1275 1.429 . S
C1279 C1280 1.523 . S
C1280 C1264 1.368 . S
C1280 C1276 1.368 . S
C1280 C1279 1.523 . S
H1281 C1256 0.950 . S
H1282 C1258 0.950 . S
H1283 C1259 0.949 . S
H1284 C1261 0.950 . S
H1285 C1263 0.950 . S
C1286 C1287 1.349 . S
C1286 C1288 1.327 . S
C1286 H1311 0.950 . S
C1287 C1286 1.349 . S
C1287 C1303 1.349 . S
C1288 C1286 1.327 . S
C1288 C1307 1.429 . S
C1288 H1312 0.950 . S
C1289 C1306 1.574 . S
C1289 C1308 1.368 . S
C1289 H1313 0.949 . S
H1290 C1294 0.949 . S
C1291 C1292 1.349 . S
C1291 C1293 1.327 . S
C1291 H1314 0.950 . S
C1292 C1291 1.349 . S
C1292 C1304 1.349 . S
C1293 C1291 1.327 . S
C1293 C1309 1.429 . S
C1293 H1315 0.950 . S
C1294 H1290 0.949 . S
C1294 C1302 1.574 . S
C1294 C1310 1.368 . S
H1295 C1303 0.950 . S
H1296 C1301 0.950 . S
H1297 C1302 0.949 . S
H1298 C1304 0.950 . S
H1299 C1305 0.950 . S
H1300 C1306 0.949 . S
C1301 H1296 0.950 . S
C1301 C1303 1.327 . S
C1301 C1307 1.429 . S
C1302 C1294 1.574 . S
C1302 H1297 0.949 . S
C1302 C1308 1.368 . S
C1303 C1287 1.349 . S
C1303 H1295 0.950 . S
C1303 C1301 1.327 . S
C1304 C1292 1.349 . S
C1304 H1298 0.950 . S
C1304 C1305 1.327 . S
C1305 H1299 0.950 . S
C1305 C1304 1.327 . S
C1305 C1309 1.429 . S
C1306 C1289 1.574 . S
C1306 H1300 0.949 . S
C1306 C1310 1.368 . S
C1307 C1288 1.429 . S
C1307 C1301 1.429 . S
C1307 C1308 1.523 . S
C1308 C1289 1.368 . S
C1308 C1302 1.368 . S
C1308 C1307 1.523 . S
C1309 C1293 1.429 . S
C1309 C1305 1.429 . S
C1309 C1310 1.523 . S
C1310 C1294 1.368 . S
C1310 C1306 1.368 . S
C1310 C1309 1.523 . S
H1311 C1286 0.950 . S
H1312 C1288 0.950 . S
H1313 C1289 0.949 . S
H1314 C1291 0.950 . S
H1315 C1293 0.950 . S
C1316 C1317 1.349 . S
C1316 C1318 1.327 . S
C1316 H1341 0.950 . S
C1317 C1316 1.349 . S
C1317 C1333 1.349 . S
C1318 C1316 1.327 . S
C1318 C1337 1.429 . S
C1318 H1342 0.950 . S
C1319 C1336 1.574 . S
C1319 C1338 1.368 . S
C1319 H1343 0.949 . S
H1320 C1324 0.949 . S
C1321 C1322 1.349 . S
C1321 C1323 1.327 . S
C1321 H1344 0.950 . S
C1322 C1321 1.349 . S
C1322 C1334 1.349 . S
C1323 C1321 1.327 . S
C1323 C1339 1.429 . S
C1323 H1345 0.950 . S
C1324 H1320 0.949 . S
C1324 C1332 1.574 . S
C1324 C1340 1.368 . S
H1325 C1333 0.950 . S
H1326 C1331 0.950 . S
H1327 C1332 0.949 . S
H1328 C1334 0.950 . S
H1329 C1335 0.950 . S
H1330 C1336 0.949 . S
C1331 H1326 0.950 . S
C1331 C1333 1.327 . S
C1331 C1337 1.429 . S
C1332 C1324 1.574 . S
C1332 H1327 0.949 . S
C1332 C1338 1.368 . S
C1333 C1317 1.349 . S
C1333 H1325 0.950 . S
C1333 C1331 1.327 . S
C1334 C1322 1.349 . S
C1334 H1328 0.950 . S
C1334 C1335 1.327 . S
C1335 H1329 0.950 . S
C1335 C1334 1.327 . S
C1335 C1339 1.429 . S
C1336 C1319 1.574 . S
C1336 H1330 0.949 . S
C1336 C1340 1.368 . S
C1337 C1318 1.429 . S
C1337 C1331 1.429 . S
C1337 C1338 1.523 . S
C1338 C1319 1.368 . S
C1338 C1332 1.368 . S
C1338 C1337 1.523 . S
C1339 C1323 1.429 . S
C1339 C1335 1.429 . S
C1339 C1340 1.523 . S
C1340 C1324 1.368 . S
C1340 C1336 1.368 . S
C1340 C1339 1.523 . S
H1341 C1316 0.950 . S
H1342 C1318 0.950 . S
H1343 C1319 0.949 . S
H1344 C1321 0.950 . S
H1345 C1323 0.950 . S
C1346 C1347 1.349 . S
C1346 C1348 1.327 . S
C1346 H1371 0.950 . S
C1347 C1346 1.349 . S
C1347 C1363 1.349 . S
C1348 C1346 1.327 . S
C1348 C1367 1.429 . S
C1348 H1372 0.950 . S
C1349 C1366 1.574 . S
C1349 C1368 1.368 . S
C1349 H1373 0.949 . S
H1350 C1354 0.949 . S
C1351 C1352 1.349 . S
C1351 C1353 1.327 . S
C1351 H1374 0.950 . S
C1352 C1351 1.349 . S
C1352 C1364 1.349 . S
C1353 C1351 1.327 . S
C1353 C1369 1.429 . S
C1353 H1375 0.950 . S
C1354 H1350 0.949 . S
C1354 C1362 1.574 . S
C1354 C1370 1.368 . S
H1355 C1363 0.950 . S
H1356 C1361 0.950 . S
H1357 C1362 0.949 . S
H1358 C1364 0.950 . S
H1359 C1365 0.950 . S
H1360 C1366 0.949 . S
C1361 H1356 0.950 . S
C1361 C1363 1.327 . S
C1361 C1367 1.429 . S
C1362 C1354 1.574 . S
C1362 H1357 0.949 . S
C1362 C1368 1.368 . S
C1363 C1347 1.349 . S
C1363 H1355 0.950 . S
C1363 C1361 1.327 . S
C1364 C1352 1.349 . S
C1364 H1358 0.950 . S
C1364 C1365 1.327 . S
C1365 H1359 0.950 . S
C1365 C1364 1.327 . S
C1365 C1369 1.429 . S
C1366 C1349 1.574 . S
C1366 H1360 0.949 . S
C1366 C1370 1.368 . S
C1367 C1348 1.429 . S
C1367 C1361 1.429 . S
C1367 C1368 1.523 . S
C1368 C1349 1.368 . S
C1368 C1362 1.368 . S
C1368 C1367 1.523 . S
C1369 C1353 1.429 . S
C1369 C1365 1.429 . S
C1369 C1370 1.523 . S
C1370 C1354 1.368 . S
C1370 C1366 1.368 . S
C1370 C1369 1.523 . S
H1371 C1346 0.950 . S
H1372 C1348 0.950 . S
H1373 C1349 0.949 . S
H1374 C1351 0.950 . S
H1375 C1353 0.950 . S
C1376 C1377 1.349 . S
C1376 C1378 1.327 . S
C1376 H1401 0.950 . S
C1377 C1376 1.349 . S
C1377 C1393 1.349 . S
C1378 C1376 1.327 . S
C1378 C1397 1.429 . S
C1378 H1402 0.950 . S
C1379 C1396 1.574 . S
C1379 C1398 1.368 . S
C1379 H1403 0.949 . S
H1380 C1384 0.949 . S
C1381 C1382 1.349 . S
C1381 C1383 1.327 . S
C1381 H1404 0.950 . S
C1382 C1381 1.349 . S
C1382 C1394 1.349 . S
C1383 C1381 1.327 . S
C1383 C1399 1.429 . S
C1383 H1405 0.950 . S
C1384 H1380 0.949 . S
C1384 C1392 1.574 . S
C1384 C1400 1.368 . S
H1385 C1393 0.950 . S
H1386 C1391 0.950 . S
H1387 C1392 0.949 . S
H1388 C1394 0.950 . S
H1389 C1395 0.950 . S
H1390 C1396 0.949 . S
C1391 H1386 0.950 . S
C1391 C1393 1.327 . S
C1391 C1397 1.429 . S
C1392 C1384 1.574 . S
C1392 H1387 0.949 . S
C1392 C1398 1.368 . S
C1393 C1377 1.349 . S
C1393 H1385 0.950 . S
C1393 C1391 1.327 . S
C1394 C1382 1.349 . S
C1394 H1388 0.950 . S
C1394 C1395 1.327 . S
C1395 H1389 0.950 . S
C1395 C1394 1.327 . S
C1395 C1399 1.429 . S
C1396 C1379 1.574 . S
C1396 H1390 0.949 . S
C1396 C1400 1.368 . S
C1397 C1378 1.429 . S
C1397 C1391 1.429 . S
C1397 C1398 1.523 . S
C1398 C1379 1.368 . S
C1398 C1392 1.368 . S
C1398 C1397 1.523 . S
C1399 C1383 1.429 . S
C1399 C1395 1.429 . S
C1399 C1400 1.523 . S
C1400 C1384 1.368 . S
C1400 C1396 1.368 . S
C1400 C1399 1.523 . S
H1401 C1376 0.950 . S
H1402 C1378 0.950 . S
H1403 C1379 0.949 . S
H1404 C1381 0.950 . S
H1405 C1383 0.950 . S
C1406 C1407 1.349 . S
C1406 C1408 1.327 . S
C1406 H1431 0.950 . S
C1407 C1406 1.349 . S
C1407 C1423 1.349 . S
C1408 C1406 1.327 . S
C1408 C1427 1.429 . S
C1408 H1432 0.950 . S
C1409 C1426 1.574 . S
C1409 C1428 1.368 . S
C1409 H1433 0.949 . S
H1410 C1414 0.949 . S
C1411 C1412 1.349 . S
C1411 C1413 1.327 . S
C1411 H1434 0.950 . S
C1412 C1411 1.349 . S
C1412 C1424 1.349 . S
C1413 C1411 1.327 . S
C1413 C1429 1.429 . S
C1413 H1435 0.950 . S
C1414 H1410 0.949 . S
C1414 C1422 1.574 . S
C1414 C1430 1.368 . S
H1415 C1423 0.950 . S
H1416 C1421 0.950 . S
H1417 C1422 0.949 . S
H1418 C1424 0.950 1_455 S
H1419 C1425 0.950 . S
H1420 C1426 0.949 . S
C1421 H1416 0.950 . S
C1421 C1423 1.327 . S
C1421 C1427 1.429 . S
C1422 C1414 1.574 . S
C1422 H1417 0.949 . S
C1422 C1428 1.368 . S
C1423 C1407 1.349 . S
C1423 H1415 0.950 . S
C1423 C1421 1.327 . S
C1424 C1412 1.349 . S
C1424 H1418 0.950 1_655 S
C1424 C1425 1.327 . S
C1425 H1419 0.950 . S
C1425 C1424 1.327 . S
C1425 C1429 1.429 . S
C1426 C1409 1.574 . S
C1426 H1420 0.949 . S
C1426 C1430 1.368 . S
C1427 C1408 1.429 . S
C1427 C1421 1.429 . S
C1427 C1428 1.523 . S
C1428 C1409 1.368 . S
C1428 C1422 1.368 . S
C1428 C1427 1.523 . S
C1429 C1413 1.429 . S
C1429 C1425 1.429 . S
C1429 C1430 1.523 . S
C1430 C1414 1.368 . S
C1430 C1426 1.368 . S
C1430 C1429 1.523 . S
H1431 C1406 0.950 . S
H1432 C1408 0.950 . S
H1433 C1409 0.949 . S
H1434 C1411 0.950 . S
H1435 C1413 0.950 . S
C1436 C1437 1.349 . S
C1436 C1438 1.327 . S
C1436 H1461 0.950 . S
C1437 C1436 1.349 . S
C1437 C1453 1.349 . S
C1438 C1436 1.327 . S
C1438 C1457 1.429 . S
C1438 H1462 0.950 . S
C1439 C1456 1.574 . S
C1439 C1458 1.368 . S
C1439 H1463 0.949 . S
H1440 C1444 0.949 . S
C1441 C1442 1.349 . S
C1441 C1443 1.327 . S
C1441 H1464 0.950 . S
C1442 C1441 1.349 . S
C1442 C1454 1.349 . S
C1443 C1441 1.327 . S
C1443 C1459 1.429 . S
C1443 H1465 0.950 . S
C1444 H1440 0.949 . S
C1444 C1452 1.574 . S
C1444 C1460 1.368 . S
H1445 C1453 0.950 . S
H1446 C1451 0.950 . S
H1447 C1452 0.949 . S
H1448 C1454 0.950 . S
H1449 C1455 0.950 . S
H1450 C1456 0.949 . S
C1451 H1446 0.950 . S
C1451 C1453 1.327 . S
C1451 C1457 1.429 . S
C1452 C1444 1.574 . S
C1452 H1447 0.949 . S
C1452 C1458 1.368 . S
C1453 C1437 1.349 . S
C1453 H1445 0.950 . S
C1453 C1451 1.327 . S
C1454 C1442 1.349 . S
C1454 H1448 0.950 . S
C1454 C1455 1.327 . S
C1455 H1449 0.950 . S
C1455 C1454 1.327 . S
C1455 C1459 1.429 . S
C1456 C1439 1.574 . S
C1456 H1450 0.949 . S
C1456 C1460 1.368 . S
C1457 C1438 1.429 . S
C1457 C1451 1.429 . S
C1457 C1458 1.523 . S
C1458 C1439 1.368 . S
C1458 C1452 1.368 . S
C1458 C1457 1.523 . S
C1459 C1443 1.429 . S
C1459 C1455 1.429 . S
C1459 C1460 1.523 . S
C1460 C1444 1.368 . S
C1460 C1456 1.368 . S
C1460 C1459 1.523 . S
H1461 C1436 0.950 . S
H1462 C1438 0.950 . S
H1463 C1439 0.949 . S
H1464 C1441 0.950 . S
H1465 C1443 0.950 . S
C1466 C1467 1.349 . S
C1466 C1468 1.327 . S
C1466 H1491 0.950 . S
C1467 C1466 1.349 . S
C1467 C1483 1.349 . S
C1468 C1466 1.327 . S
C1468 C1487 1.429 . S
C1468 H1492 0.950 . S
C1469 C1486 1.574 . S
C1469 C1488 1.368 . S
C1469 H1493 0.949 . S
H1470 C1474 0.949 . S
C1471 C1472 1.349 . S
C1471 C1473 1.327 . S
C1471 H1494 0.950 . S
C1472 C1471 1.349 . S
C1472 C1484 1.349 . S
C1473 C1471 1.327 . S
C1473 C1489 1.429 . S
C1473 H1495 0.950 . S
C1474 H1470 0.949 . S
C1474 C1482 1.574 . S
C1474 C1490 1.368 . S
H1475 C1483 0.950 . S
H1476 C1481 0.950 . S
H1477 C1482 0.949 . S
H1478 C1484 0.950 . S
H1479 C1485 0.950 . S
H1480 C1486 0.949 . S
C1481 H1476 0.950 . S
C1481 C1483 1.327 . S
C1481 C1487 1.429 . S
C1482 C1474 1.574 . S
C1482 H1477 0.949 . S
C1482 C1488 1.368 . S
C1483 C1467 1.349 . S
C1483 H1475 0.950 . S
C1483 C1481 1.327 . S
C1484 C1472 1.349 . S
C1484 H1478 0.950 . S
C1484 C1485 1.327 . S
C1485 H1479 0.950 . S
C1485 C1484 1.327 . S
C1485 C1489 1.429 . S
C1486 C1469 1.574 . S
C1486 H1480 0.949 . S
C1486 C1490 1.368 . S
C1487 C1468 1.429 . S
C1487 C1481 1.429 . S
C1487 C1488 1.523 . S
C1488 C1469 1.368 . S
C1488 C1482 1.368 . S
C1488 C1487 1.523 . S
C1489 C1473 1.429 . S
C1489 C1485 1.429 . S
C1489 C1490 1.523 . S
C1490 C1474 1.368 . S
C1490 C1486 1.368 . S
C1490 C1489 1.523 . S
H1491 C1466 0.950 . S
H1492 C1468 0.950 . S
H1493 C1469 0.949 . S
H1494 C1471 0.950 . S
H1495 C1473 0.950 . S
C1496 C1497 1.349 . S
C1496 C1498 1.327 . S
C1496 H1521 0.950 . S
C1497 C1496 1.349 . S
C1497 C1513 1.349 . S
C1498 C1496 1.327 . S
C1498 C1517 1.429 . S
C1498 H1522 0.950 . S
C1499 C1516 1.574 . S
C1499 C1518 1.368 . S
C1499 H1523 0.949 . S
H1500 C1504 0.949 . S
C1501 C1502 1.349 . S
C1501 C1503 1.327 . S
C1501 H1524 0.950 . S
C1502 C1501 1.349 . S
C1502 C1514 1.349 . S
C1503 C1501 1.327 . S
C1503 C1519 1.429 . S
C1503 H1525 0.950 . S
C1504 H1500 0.949 . S
C1504 C1512 1.574 . S
C1504 C1520 1.368 . S
H1505 C1513 0.950 . S
H1506 C1511 0.950 . S
H1507 C1512 0.949 . S
H1508 C1514 0.950 . S
H1509 C1515 0.950 . S
H1510 C1516 0.949 . S
C1511 H1506 0.950 . S
C1511 C1513 1.327 . S
C1511 C1517 1.429 . S
C1512 C1504 1.574 . S
C1512 H1507 0.949 . S
C1512 C1518 1.368 . S
C1513 C1497 1.349 . S
C1513 H1505 0.950 . S
C1513 C1511 1.327 . S
C1514 C1502 1.349 . S
C1514 H1508 0.950 . S
C1514 C1515 1.327 . S
C1515 H1509 0.950 . S
C1515 C1514 1.327 . S
C1515 C1519 1.429 . S
C1516 C1499 1.574 . S
C1516 H1510 0.949 . S
C1516 C1520 1.368 . S
C1517 C1498 1.429 . S
C1517 C1511 1.429 . S
C1517 C1518 1.523 . S
C1518 C1499 1.368 . S
C1518 C1512 1.368 . S
C1518 C1517 1.523 . S
C1519 C1503 1.429 . S
C1519 C1515 1.429 . S
C1519 C1520 1.523 . S
C1520 C1504 1.368 . S
C1520 C1516 1.368 . S
C1520 C1519 1.523 . S
H1521 C1496 0.950 . S
H1522 C1498 0.950 . S
H1523 C1499 0.949 . S
H1524 C1501 0.950 . S
H1525 C1503 0.950 . S
C1526 C1527 1.349 . S
C1526 C1528 1.327 . S
C1526 H1551 0.950 . S
C1527 C1526 1.349 . S
C1527 C1543 1.349 . S
C1528 C1526 1.327 . S
C1528 C1547 1.429 . S
C1528 H1552 0.950 . S
C1529 C1546 1.574 . S
C1529 C1548 1.368 . S
C1529 H1553 0.949 . S
H1530 C1534 0.949 . S
C1531 C1532 1.349 . S
C1531 C1533 1.327 . S
C1531 H1554 0.950 . S
C1532 C1531 1.349 . S
C1532 C1544 1.349 . S
C1533 C1531 1.327 . S
C1533 C1549 1.429 . S
C1533 H1555 0.950 . S
C1534 H1530 0.949 . S
C1534 C1542 1.574 . S
C1534 C1550 1.368 . S
H1535 C1543 0.950 . S
H1536 C1541 0.950 . S
H1537 C1542 0.949 . S
H1538 C1544 0.950 . S
H1539 C1545 0.950 . S
H1540 C1546 0.949 . S
C1541 H1536 0.950 . S
C1541 C1543 1.327 . S
C1541 C1547 1.429 . S
C1542 C1534 1.574 . S
C1542 H1537 0.949 . S
C1542 C1548 1.368 . S
C1543 C1527 1.349 . S
C1543 H1535 0.950 . S
C1543 C1541 1.327 . S
C1544 C1532 1.349 . S
C1544 H1538 0.950 . S
C1544 C1545 1.327 . S
C1545 H1539 0.950 . S
C1545 C1544 1.327 . S
C1545 C1549 1.429 . S
C1546 C1529 1.574 . S
C1546 H1540 0.949 . S
C1546 C1550 1.368 . S
C1547 C1528 1.429 . S
C1547 C1541 1.429 . S
C1547 C1548 1.523 . S
C1548 C1529 1.368 . S
C1548 C1542 1.368 . S
C1548 C1547 1.523 . S
C1549 C1533 1.429 . S
C1549 C1545 1.429 . S
C1549 C1550 1.523 . S
C1550 C1534 1.368 . S
C1550 C1546 1.368 . S
C1550 C1549 1.523 . S
H1551 C1526 0.950 . S
H1552 C1528 0.950 . S
H1553 C1529 0.949 . S
H1554 C1531 0.950 . S
H1555 C1533 0.950 . S
C1556 C1557 1.349 . S
C1556 C1558 1.272 1_554 S
C1556 H1581 0.950 . S
C1557 C1556 1.349 . S
C1557 C1573 1.349 1_554 S
C1558 C1556 1.272 1_556 S
C1558 C1577 1.507 . S
C1558 H1582 0.932 1_556 S
C1559 C1576 1.574 . S
C1559 C1578 1.368 . S
C1559 H1583 0.949 . S
H1560 C1564 0.949 . S
C1561 C1562 1.349 . S
C1561 C1563 1.327 . S
C1561 H1584 0.950 . S
C1562 C1561 1.349 . S
C1562 C1574 1.349 . S
C1563 C1561 1.327 . S
C1563 C1579 1.429 . S
C1563 H1585 0.950 . S
C1564 H1560 0.949 . S
C1564 C1572 1.574 . S
C1564 C1580 1.368 . S
H1565 C1573 0.950 . S
H1566 C1571 0.950 . S
H1567 C1572 0.949 . S
H1568 C1574 0.950 . S
H1569 C1575 0.950 . S
H1570 C1576 0.949 . S
C1571 H1566 0.950 . S
C1571 C1573 1.327 . S
C1571 C1577 1.429 . S
C1572 C1564 1.574 . S
C1572 H1567 0.949 . S
C1572 C1578 1.368 . S
C1573 C1557 1.349 1_556 S
C1573 H1565 0.950 . S
C1573 C1571 1.327 . S
C1574 C1562 1.349 . S
C1574 H1568 0.950 . S
C1574 C1575 1.327 . S
C1575 H1569 0.950 . S
C1575 C1574 1.327 . S
C1575 C1579 1.429 . S
C1576 C1559 1.574 . S
C1576 H1570 0.949 . S
C1576 C1580 1.368 . S
C1577 C1558 1.507 . S
C1577 C1571 1.429 . S
C1577 C1578 1.523 . S
C1578 C1559 1.368 . S
C1578 C1572 1.368 . S
C1578 C1577 1.523 . S
C1579 C1563 1.429 . S
C1579 C1575 1.429 . S
C1579 C1580 1.523 . S
C1580 C1564 1.368 . S
C1580 C1576 1.368 . S
C1580 C1579 1.523 . S
H1581 C1556 0.950 . S
H1582 C1558 0.932 1_554 S
H1583 C1559 0.949 . S
H1584 C1561 0.950 . S
H1585 C1563 0.950 . S
C1586 C1587 1.349 . S
C1586 C1588 1.327 . S
C1586 H1611 0.950 . S
C1587 C1586 1.349 . S
C1587 C1603 1.349 . S
C1588 C1586 1.327 . S
C1588 C1607 1.429 . S
C1588 H1612 0.950 . S
C1589 C1606 1.574 . S
C1589 C1608 1.368 . S
C1589 H1613 0.949 . S
H1590 C1594 0.949 . S
C1591 C1592 1.349 . S
C1591 C1593 1.327 . S
C1591 H1614 0.950 . S
C1592 C1591 1.349 . S
C1592 C1604 1.349 . S
C1593 C1591 1.327 . S
C1593 C1609 1.429 . S
C1593 H1615 0.950 . S
C1594 H1590 0.949 . S
C1594 C1602 1.574 . S
C1594 C1610 1.368 . S
H1595 C1603 0.950 . S
H1596 C1601 0.950 . S
H1597 C1602 0.949 . S
H1598 C1604 0.950 . S
H1599 C1605 0.950 . S
H1600 C1606 0.949 . S
C1601 H1596 0.950 . S
C1601 C1603 1.327 . S
C1601 C1607 1.429 . S
C1602 C1594 1.574 . S
C1602 H1597 0.949 . S
C1602 C1608 1.368 . S
C1603 C1587 1.349 . S
C1603 H1595 0.950 . S
C1603 C1601 1.327 . S
C1604 C1592 1.349 . S
C1604 H1598 0.950 . S
C1604 C1605 1.327 . S
C1605 H1599 0.950 . S
C1605 C1604 1.327 . S
C1605 C1609 1.429 . S
C1606 C1589 1.574 . S
C1606 H1600 0.949 . S
C1606 C1610 1.368 . S
C1607 C1588 1.429 . S
C1607 C1601 1.429 . S
C1607 C1608 1.523 . S
C1608 C1589 1.368 . S
C1608 C1602 1.368 . S
C1608 C1607 1.523 . S
C1609 C1593 1.429 . S
C1609 C1605 1.429 . S
C1609 C1610 1.523 . S
C1610 C1594 1.368 . S
C1610 C1606 1.368 . S
C1610 C1609 1.523 . S
H1611 C1586 0.950 . S
H1612 C1588 0.950 . S
H1613 C1589 0.949 . S
H1614 C1591 0.950 . S
H1615 C1593 0.950 . S
C1616 C1617 1.349 . S
C1616 C1618 1.327 . S
C1616 H1641 0.950 . S
C1617 C1616 1.349 . S
C1617 C1633 1.349 . S
C1618 C1616 1.327 . S
C1618 C1637 1.429 . S
C1618 H1642 0.950 . S
C1619 C1636 1.574 . S
C1619 C1638 1.368 . S
C1619 H1643 0.949 . S
H1620 C1624 0.949 . S
C1621 C1622 1.349 . S
C1621 C1623 1.327 . S
C1621 H1644 0.950 . S
C1622 C1621 1.349 . S
C1622 C1634 1.349 . S
C1623 C1621 1.327 . S
C1623 C1639 1.429 . S
C1623 H1645 0.950 . S
C1624 H1620 0.949 . S
C1624 C1632 1.574 . S
C1624 C1640 1.368 . S
H1625 C1633 0.950 . S
H1626 C1631 0.950 . S
H1627 C1632 0.949 . S
H1628 C1634 0.950 . S
H1629 C1635 0.950 . S
H1630 C1636 0.949 . S
C1631 H1626 0.950 . S
C1631 C1633 1.327 . S
C1631 C1637 1.429 . S
C1632 C1624 1.574 . S
C1632 H1627 0.949 . S
C1632 C1638 1.368 . S
C1633 C1617 1.349 . S
C1633 H1625 0.950 . S
C1633 C1631 1.327 . S
C1634 C1622 1.349 . S
C1634 H1628 0.950 . S
C1634 C1635 1.327 . S
C1635 H1629 0.950 . S
C1635 C1634 1.327 . S
C1635 C1639 1.429 . S
C1636 C1619 1.574 . S
C1636 H1630 0.949 . S
C1636 C1640 1.368 . S
C1637 C1618 1.429 . S
C1637 C1631 1.429 . S
C1637 C1638 1.523 . S
C1638 C1619 1.368 . S
C1638 C1632 1.368 . S
C1638 C1637 1.523 . S
C1639 C1623 1.429 . S
C1639 C1635 1.429 . S
C1639 C1640 1.523 . S
C1640 C1624 1.368 . S
C1640 C1636 1.368 . S
C1640 C1639 1.523 . S
H1641 C1616 0.950 . S
H1642 C1618 0.950 . S
H1643 C1619 0.949 . S
H1644 C1621 0.950 . S
H1645 C1623 0.950 . S
C1646 C1647 1.349 . S
C1646 C1648 1.327 . S
C1646 H1671 0.950 . S
C1647 C1646 1.349 . S
C1647 C1663 1.349 . S
C1648 C1646 1.327 . S
C1648 C1667 1.429 . S
C1648 H1672 0.950 . S
C1649 C1666 1.574 . S
C1649 C1668 1.368 . S
C1649 H1673 0.949 . S
H1650 C1654 0.949 . S
C1651 C1652 1.349 . S
C1651 C1653 1.327 . S
C1651 H1674 0.950 . S
C1652 C1651 1.349 . S
C1652 C1664 1.349 . S
C1653 C1651 1.327 . S
C1653 C1669 1.429 . S
C1653 H1675 0.950 . S
C1654 H1650 0.949 . S
C1654 C1662 1.574 . S
C1654 C1670 1.368 . S
H1655 C1663 0.950 . S
H1656 C1661 0.950 . S
H1657 C1662 0.949 . S
H1658 C1664 0.950 . S
H1659 C1665 0.950 . S
H1660 C1666 0.949 . S
C1661 H1656 0.950 . S
C1661 C1663 1.327 . S
C1661 C1667 1.429 . S
C1662 C1654 1.574 . S
C1662 H1657 0.949 . S
C1662 C1668 1.368 . S
C1663 C1647 1.349 . S
C1663 H1655 0.950 . S
C1663 C1661 1.327 . S
C1664 C1652 1.349 . S
C1664 H1658 0.950 . S
C1664 C1665 1.327 . S
C1665 H1659 0.950 . S
C1665 C1664 1.327 . S
C1665 C1669 1.429 . S
C1666 C1649 1.574 . S
C1666 H1660 0.949 . S
C1666 C1670 1.368 . S
C1667 C1648 1.429 . S
C1667 C1661 1.429 . S
C1667 C1668 1.523 . S
C1668 C1649 1.368 . S
C1668 C1662 1.368 . S
C1668 C1667 1.523 . S
C1669 C1653 1.429 . S
C1669 C1665 1.429 . S
C1669 C1670 1.523 . S
C1670 C1654 1.368 . S
C1670 C1666 1.368 . S
C1670 C1669 1.523 . S
H1671 C1646 0.950 . S
H1672 C1648 0.950 . S
H1673 C1649 0.949 . S
H1674 C1651 0.950 . S
H1675 C1653 0.950 . S
C722 C652 2.340 . S
C717 C69 2.380 . S
C747 C125 0.944 . S
C752 C655 0.939 . S
C777 C217 2.264 . S
C782 C686 2.241 . S
C812 C621 1.804 . S
C807 C261 1.753 . S
C842 C656 2.119 . S
C837 C39 2.061 . S
C872 C687 2.192 . S
C867 C137 2.129 . S
C902 C612 2.031 . S
C897 C187 1.962 1_565 S
C932 C643 2.467 . S
C927 C291 2.491 . S
C957 C51 0.289 . S
C962 C673 0.490 . S
C987 C365 1.782 . S
C992 C642 1.672 . S
C1017 C199 0.260 . S
C1022 C602 0.321 . S
C1052 C695 1.445 1_655 S
C1047 C439 1.455 . S
C1082 C623 1.156 . S
C1077 C63 1.212 . S
C1107 C335 1.131 . S
C1112 C622 1.194 . S
C1137 C211 1.089 . S
C1142 C715 1.117 1_655 S
C1172 C654 1.491 . S
C1167 C409 1.449 1_545 S
C1197 C495 1.004 . S
C1202 C714 0.988 . S
C1227 C347 1.146 . S
C1232 C593 1.137 . S
C1257 C587 2.259 1_655 S
C1262 C624 2.235 . S
C1287 C421 0.979 . S
C1292 C683 0.964 . S
C1322 C594 2.175 . S
C1317 C507 2.111 . S
C1347 C359 1.857 . S
C1352 C625 1.919 . S
C1377 C557 1.973 1_655 S
C1382 C674 2.042 . S
C1412 C705 2.092 . S
C1407 C433 2.011 . S
C1437 C513 1.612 . S
C1442 C611 1.515 . S
C1467 C143 1.567 . S
C1472 C704 1.471 . S
C1497 C569 0.245 . S
C1502 C664 0.319 . S
C1532 C633 0.918 . S
C1527 C285 0.902 . S
C1562 C685 1.347 . S
C1557 C483 1.314 . S
C1592 C684 1.480 . S
C1587 C113 1.397 . S
C1622 C653 1.063 . S
C1617 C581 1.037 . S
C1652 C592 0.609 . S
C1647 C273 0.551 . S
