# Generated by pormake.
# Topology ssa, (4,4)-cn, num edge types: 1
# Building blocks:
#     Node 0, Type 0, BuildingBlock: ESEHIV_clean_sbu_0, # of connection points: 4
#     Node 1, Type 0, BuildingBlock: ESEHIV_clean_sbu_0, # of connection points: 4
#     Node 2, Type 0, BuildingBlock: ESEHIV_clean_sbu_0, # of connection points: 4
#     Node 3, Type 0, BuildingBlock: ESEHIV_clean_sbu_0, # of connection points: 4
#     Node 4, Type 0, BuildingBlock: ESEHIV_clean_sbu_0, # of connection points: 4
#     Node 5, Type 0, BuildingBlock: ESEHIV_clean_sbu_0, # of connection points: 4
#     Node 6, Type 1, BuildingBlock: MIFKUJ_clean_linker_1, # of connection points: 4
#     Node 7, Type 1, BuildingBlock: MIFKUJ_clean_linker_1, # of connection points: 4
#     Node 8, Type 1, BuildingBlock: MIFKUJ_clean_linker_1, # of connection points: 4
#     Node 9, Type 1, BuildingBlock: MIFKUJ_clean_linker_1, # of connection points: 4
#     Node 10, Type 1, BuildingBlock: MIFKUJ_clean_linker_1, # of connection points: 4
#     Node 11, Type 1, BuildingBlock: MIFKUJ_clean_linker_1, # of connection points: 4
#     Edge 12, Type (0, 1), BuildingBlock: AJUNOK_clean_linker_0, # of connection points: 2
#     Edge 13, Type (0, 1), BuildingBlock: AJUNOK_clean_linker_0, # of connection points: 2
#     Edge 14, Type (0, 1), BuildingBlock: AJUNOK_clean_linker_0, # of connection points: 2
#     Edge 15, Type (0, 1), BuildingBlock: AJUNOK_clean_linker_0, # of connection points: 2
#     Edge 16, Type (0, 1), BuildingBlock: AJUNOK_clean_linker_0, # of connection points: 2
#     Edge 17, Type (0, 1), BuildingBlock: AJUNOK_clean_linker_0, # of connection points: 2
#     Edge 18, Type (0, 1), BuildingBlock: AJUNOK_clean_linker_0, # of connection points: 2
#     Edge 19, Type (0, 1), BuildingBlock: AJUNOK_clean_linker_0, # of connection points: 2
#     Edge 20, Type (0, 1), BuildingBlock: AJUNOK_clean_linker_0, # of connection points: 2
#     Edge 21, Type (0, 1), BuildingBlock: AJUNOK_clean_linker_0, # of connection points: 2
#     Edge 22, Type (0, 1), BuildingBlock: AJUNOK_clean_linker_0, # of connection points: 2
#     Edge 23, Type (0, 1), BuildingBlock: AJUNOK_clean_linker_0, # of connection points: 2
#     Edge 24, Type (0, 1), BuildingBlock: AJUNOK_clean_linker_0, # of connection points: 2
#     Edge 25, Type (0, 1), BuildingBlock: AJUNOK_clean_linker_0, # of connection points: 2
#     Edge 26, Type (0, 1), BuildingBlock: AJUNOK_clean_linker_0, # of connection points: 2
#     Edge 27, Type (0, 1), BuildingBlock: AJUNOK_clean_linker_0, # of connection points: 2
#     Edge 28, Type (0, 1), BuildingBlock: AJUNOK_clean_linker_0, # of connection points: 2
#     Edge 29, Type (0, 1), BuildingBlock: AJUNOK_clean_linker_0, # of connection points: 2
#     Edge 30, Type (0, 1), BuildingBlock: AJUNOK_clean_linker_0, # of connection points: 2
#     Edge 31, Type (0, 1), BuildingBlock: AJUNOK_clean_linker_0, # of connection points: 2
#     Edge 32, Type (0, 1), BuildingBlock: AJUNOK_clean_linker_0, # of connection points: 2
#     Edge 33, Type (0, 1), BuildingBlock: AJUNOK_clean_linker_0, # of connection points: 2
#     Edge 34, Type (0, 1), BuildingBlock: AJUNOK_clean_linker_0, # of connection points: 2
#     Edge 35, Type (0, 1), BuildingBlock: AJUNOK_clean_linker_0, # of connection points: 2
# Relax obj value: 0.009
# Max RMSD: 0.108
# Mean RMSD: 0.056
data_MOF--net-ssa--node1-ESEHIV_clean_sbu_0--node2-MIFKUJ_clean_linker_1--edge1-AJUNOK_clean_linker_0
_symmetry_space_group_name_H-M    P1
_symmetry_Int_Tables_number       1
_symmetry_cell_setting            triclinic
loop_
_symmetry_equiv_pos_as_xyz
'x, y, z'
_cell_length_a     47.107487
_cell_length_b     50.620421
_cell_length_c     31.226183
_cell_angle_alpha  88.055056
_cell_angle_beta   90.910985
_cell_angle_gamma 122.5591
loop_
_atom_site_label
_atom_site_type_symbol
_atom_site_fract_x
_atom_site_fract_y
_atom_site_fract_z
_atom_type_partial_charge
Cu0 Cu 0.01401 0.50198 0.99427 0.0
N1 N 1.0125 0.47903 0.94779 0.0
N2 N 0.98827 0.44231 0.89873 0.0
C3 C 0.98343 0.45495 0.93283 0.0
C4 C 0.02176 0.45897 0.89167 0.0
C5 C 0.03674 0.48188 0.92197 0.0
O6 O 0.97192 0.50143 0.99035 0.0
C7 C 0.05193 0.48698 0.04467 0.0
O8 O 0.06876 0.49657 0.00844 0.0
H9 H 0.95905 0.44679 0.94679 0.0
H10 H 0.06333 0.4994 0.92464 0.0
N11 N 0.04944 0.54351 0.99067 0.0
N12 N 0.08901 0.58859 0.01877 0.0
C13 C 0.05951 0.56126 0.0253 0.0
C14 C 0.07312 0.56024 0.96051 0.0
C15 C 0.09774 0.58825 0.97788 0.0
C16 C 0.96928 0.51288 0.95445 0.0
O17 O 0.99508 0.52555 0.92803 0.0
H18 H 0.04611 0.55339 0.05555 0.0
H19 H 0.07349 0.55203 0.92914 0.0
O20 O 0.02413 0.48578 0.04683 0.0
H21 H 0.03433 0.45523 0.86606 0.0
H22 H 0.12114 0.60591 0.96254 0.0
Cu23 Cu 0.50222 1.00723 0.50019 0.0
N24 N 0.52126 1.00236 0.451 0.0
N25 N 0.53648 0.97769 0.40755 0.0
C26 C 0.51968 0.97554 0.44342 0.0
C27 C 0.54894 1.00705 0.39153 0.0
C28 C 0.53948 0.02223 0.41839 0.0
O29 O 0.45836 0.96872 0.50428 0.0
C30 C 0.56117 0.03719 0.5422 0.0
O31 O 0.56967 0.05048 0.50378 0.0
H32 H 0.50706 0.95497 0.46455 0.0
H33 H 0.54601 0.04618 0.41474 0.0
N34 N 0.49862 0.04251 0.50096 0.0
N35 N 0.49565 0.0806 0.53118 0.0
C36 C 0.49339 0.05298 0.53736 0.0
C37 C 0.5044 0.06431 0.47047 0.0
C38 C 0.50273 0.08788 0.48907 0.0
C39 C 0.43339 0.96747 0.48587 0.0
O40 O 0.4362 0.99369 0.47269 0.0
H41 H 0.48997 0.04135 0.56832 0.0
H42 H 0.51039 0.06366 0.43742 0.0
O43 O 0.53137 0.01373 0.5483 0.0
H44 H 0.56364 0.01681 0.36242 0.0
H45 H 0.50699 0.10901 0.47302 0.0
Cu46 Cu 0.50556 0.50175 0.03591 0.0
N47 N 0.50693 0.46524 0.03426 0.0
N48 N 0.50892 0.42639 1.00454 0.0
C49 C 0.50894 0.45293 0.99756 0.0
C50 C 0.50654 0.42177 0.04759 0.0
C51 C 0.5056 0.44581 0.06577 0.0
O52 O 0.53307 0.52669 0.98725 0.0
C53 C 0.44018 0.47149 0.06319 0.0
O54 O 0.45124 0.45663 0.08607 0.0
H55 H 0.51049 0.46341 0.9662 0.0
H56 H 0.50331 0.44841 0.09952 0.0
N57 N 0.52305 0.52565 0.08526 0.0
N58 N 0.53681 0.56521 0.12862 0.0
C59 C 0.52521 0.55308 0.08971 0.0
C60 C 0.53381 0.52018 0.12271 0.0
C61 C 0.54238 0.54461 0.14953 0.0
C62 C 0.5647 0.54109 0.99354 0.0
O63 O 0.57551 0.54234 0.0329 0.0
H64 H 0.51768 0.56362 0.06501 0.0
H65 H 0.53525 0.49992 0.13012 0.0
O66 O 0.45946 0.49141 0.03451 0.0
H67 H 0.50447 0.40194 0.06491 0.0
H68 H 0.5523 0.54715 0.18167 0.0
Cu69 Cu 1.01163 0.51302 0.54192 0.0
N70 N 0.04673 0.50642 0.54584 0.0
N71 N 0.0861 0.49954 0.52015 0.0
C72 C 0.06021 0.50287 0.51075 0.0
C73 C 0.08899 0.5009 0.56327 0.0
C74 C 0.06458 0.50526 0.57911 0.0
O75 O 0.02335 0.5411 0.49077 0.0
C76 C 0.96552 0.45694 0.57987 0.0
O77 O 0.98991 0.47031 0.60808 0.0
H78 H 0.05168 0.50368 0.47861 0.0
H79 H 0.06035 0.50761 0.61231 0.0
N80 N 1.00922 0.53326 0.58931 0.0
N81 N 0.98431 0.5447 0.63888 0.0
C82 C 0.98011 0.5289 0.60316 0.0
C83 C 0.03277 0.5524 0.61757 0.0
C84 C 0.01739 0.55975 0.64817 0.0
C85 C 0.05148 0.56718 0.49498 0.0
O86 O 0.06699 0.57232 0.53195 0.0
H87 H 0.95612 0.51406 0.58754 0.0
H88 H 0.05905 0.55999 0.61652 0.0
O89 O 0.96937 0.47139 0.54388 0.0
H90 H 0.10713 0.49868 0.58206 0.0
H91 H 0.02929 0.5742 0.67566 0.0
Cu92 Cu 0.52318 0.01815 0.04646 0.0
N93 N 0.51917 0.05266 0.04649 0.0
N94 N 0.51596 0.09188 0.01776 0.0
C95 C 0.52416 0.07066 0.01133 0.0
C96 C 0.50545 0.08721 0.05888 0.0
C97 C 0.50737 0.0628 0.07658 0.0
O98 O 0.54679 0.02329 0.99233 0.0
C99 C 0.47217 0.95327 0.06313 0.0
O100 O 0.49587 0.94813 0.05413 0.0
H101 H 0.53194 0.06715 0.98079 0.0
H102 H 0.49964 0.0525 0.1085 0.0
N103 N 0.54918 0.01858 0.0923 0.0
N104 N 0.57317 1.00011 0.13547 0.0
C105 C 0.5605 0.9993 0.09627 0.0
C106 C 0.55576 0.03291 0.12997 0.0
C107 C 0.57065 0.02154 0.15678 0.0
C108 C 0.57877 0.04244 0.99231 0.0
O109 O 0.59392 0.05446 0.02867 0.0
H110 H 0.55746 0.98341 0.07172 0.0
H111 H 0.54866 0.04918 0.13815 0.0
O112 O 0.47796 0.98075 0.05638 0.0
H113 H 0.49657 0.10012 0.07479 0.0
H114 H 0.57778 0.02766 0.1898 0.0
Cu115 Cu 0.52048 0.5082 0.50048 0.0
N116 N 0.54793 0.5365 0.45771 0.0
N117 N 0.56992 0.58118 0.41937 0.0
C118 C 0.5489 0.56326 0.45131 0.0
C119 C 0.58245 0.5648 0.40422 0.0
C120 C 0.56903 0.53716 0.42844 0.0
O121 O 0.47816 0.50671 0.49171 0.0
C122 C 0.57472 0.54291 0.55894 0.0
O123 O 0.59084 0.55938 0.52438 0.0
H124 H 0.53375 0.56913 0.46949 0.0
H125 H 0.57436 0.51909 0.42491 0.0
N126 N 0.51321 0.46854 0.49583 0.0
N127 N 0.50263 0.42242 0.52113 0.0
C128 C 0.50251 0.44823 0.52945 0.0
C129 C 0.52035 0.45515 0.46478 0.0
C130 C 0.5141 0.42662 0.48058 0.0
C131 C 0.45451 0.48549 0.46902 0.0
O132 O 0.45556 0.46105 0.45907 0.0
H133 H 0.4968 0.45328 0.56043 0.0
H134 H 0.53043 0.4657 0.43357 0.0
O135 O 0.54325 0.52203 0.55638 0.0
H136 H 0.59997 0.57229 0.37776 0.0
H137 H 0.51857 0.4107 0.46414 0.0
H138 H 0.17261 0.43784 0.20349 0.0
H139 H 0.12528 0.43291 0.1628 0.0
H140 H 0.15602 0.5267 0.19676 0.0
H141 H 0.20259 0.53098 0.23875 0.0
H142 H 0.2393 0.48017 0.18734 0.0
H143 H 0.16767 0.44791 0.31365 0.0
H144 H 0.13302 0.44734 0.37175 0.0
H145 H 0.20412 0.54651 0.38767 0.0
H146 H 0.23935 0.54651 0.33088 0.0
H147 H 0.3263 0.54165 0.33673 0.0
H148 H 0.36776 0.54082 0.38351 0.0
H149 H 0.34433 0.4541 0.32873 0.0
H150 H 0.30117 0.45391 0.28403 0.0
H151 H 0.26367 0.5048 0.34078 0.0
H152 H 0.34211 0.52952 0.22658 0.0
H153 H 0.37884 0.52372 0.17842 0.0
H154 H 0.29337 0.436 0.13627 0.0
H155 H 0.25708 0.44106 0.18579 0.0
C156 C 0.19127 0.48476 0.22433 0.0
C157 C 0.16883 0.45715 0.20283 0.0
C158 C 0.14174 0.45439 0.17948 0.0
C159 C 0.13656 0.47934 0.17645 0.0
C160 C 0.15853 0.50667 0.1991 0.0
C161 C 0.18544 0.50926 0.22294 0.0
C162 C 0.22199 0.48866 0.24543 0.0
C163 C 0.24458 0.48524 0.22105 0.0
C164 C 0.22954 0.49624 0.2889 0.0
C165 C 0.20589 0.49728 0.31804 0.0
C166 C 0.17544 0.46958 0.32928 0.0
C167 C 0.15582 0.46928 0.36257 0.0
C168 C 0.16632 0.49671 0.38497 0.0
C169 C 0.196 0.52477 0.37204 0.0
C170 C 0.21583 0.52495 0.33918 0.0
C171 C 0.31052 0.49799 0.30625 0.0
C172 C 0.33023 0.52254 0.33438 0.0
C173 C 0.35431 0.52222 0.36098 0.0
C174 C 0.35976 0.49752 0.35986 0.0
C175 C 0.34073 0.47342 0.33076 0.0
C176 C 0.31632 0.47355 0.30454 0.0
C177 C 0.2815 0.4963 0.28294 0.0
C178 C 0.25905 0.50016 0.30687 0.0
C179 C 0.27418 0.4889 0.239 0.0
C180 C 0.29689 0.48546 0.21047 0.0
C181 C 0.33136 0.50879 0.20749 0.0
C182 C 0.35223 0.50568 0.17952 0.0
C183 C 0.339 0.47928 0.15383 0.0
C184 C 0.3044 0.4563 0.15622 0.0
C185 C 0.28361 0.4593 0.18435 0.0
H186 H 0.69725 0.20226 0.83226 0.0
H187 H 0.65564 0.15868 0.87868 0.0
H188 H 0.68563 0.0989 0.8284 0.0
H189 H 0.72706 0.1425 0.78165 0.0
H190 H 0.77049 0.23058 0.82565 0.0
H191 H 0.66857 0.17513 0.73945 0.0
H192 H 0.62202 0.12983 0.70361 0.0
H193 H 0.69312 0.11624 0.63842 0.0
H194 H 0.73974 0.16135 0.67485 0.0
H195 H 0.82176 0.26009 0.64898 0.0
H196 H 0.86132 0.30875 0.60874 0.0
H197 H 0.83154 0.35933 0.68531 0.0
H198 H 0.79251 0.31098 0.72551 0.0
H199 H 0.75365 0.2244 0.66804 0.0
H200 H 0.85517 0.28152 0.74126 0.0
H201 H 0.90456 0.32813 0.76993 0.0
H202 H 0.8414 0.33477 0.86215 0.0
H203 H 0.79166 0.2893 0.83136 0.0
C204 C 0.71543 0.17573 0.80364 0.0
C205 C 0.69498 0.17982 0.83135 0.0
C206 C 0.67098 0.15484 0.85749 0.0
C207 C 0.66733 0.12539 0.85703 0.0
C208 C 0.68795 0.12135 0.82947 0.0
C209 C 0.71165 0.14624 0.80286 0.0
C210 C 0.7395 0.20194 0.77416 0.0
C211 C 0.76665 0.22939 0.79126 0.0
C212 C 0.73561 0.19988 0.7292 0.0
C213 C 0.7075 0.17155 0.70955 0.0
C214 C 0.67409 0.16202 0.71809 0.0
C215 C 0.64759 0.13618 0.69784 0.0
C216 C 0.6542 0.11968 0.66856 0.0
C217 C 0.68753 0.12844 0.66135 0.0
C218 C 0.71407 0.15435 0.68159 0.0
C219 C 0.80451 0.28189 0.69081 0.0
C220 C 0.82324 0.28154 0.65646 0.0
C221 C 0.84574 0.30936 0.63331 0.0
C222 C 0.84966 0.33797 0.64386 0.0
C223 C 0.82935 0.33777 0.67659 0.0
C224 C 0.80703 0.31012 0.69966 0.0
C225 C 0.78407 0.25364 0.71955 0.0
C226 C 0.75776 0.22569 0.70239 0.0
C227 C 0.78947 0.2549 0.76447 0.0
C228 C 0.8196 0.28215 0.78375 0.0
C229 C 0.85187 0.29318 0.76737 0.0
C230 C 0.88018 0.31957 0.78419 0.0
C231 C 0.8769 0.33494 0.81855 0.0
C232 C 0.84466 0.32352 0.83544 0.0
C233 C 0.81627 0.29737 0.81819 0.0
H234 H 0.59821 0.84699 0.35293 0.0
H235 H 0.59263 0.88826 0.38308 0.0
H236 H 0.50683 0.86125 0.30174 0.0
H237 H 0.51243 0.82015 0.27181 0.0
H238 H 0.55489 0.78053 0.34538 0.0
H239 H 0.61944 0.8703 0.25972 0.0
H240 H 0.62593 0.91931 0.23283 0.0
H241 H 0.54212 0.86715 0.1474 0.0
H242 H 0.53477 0.8178 0.17544 0.0
H243 H 0.52101 0.72451 0.18291 0.0
H244 H 0.51517 0.67759 0.15259 0.0
H245 H 0.60127 0.69336 0.22517 0.0
H246 H 0.60819 0.74105 0.25389 0.0
H247 H 0.5726 0.78968 0.18764 0.0
H248 H 0.51488 0.69643 0.2879 0.0
H249 H 0.52073 0.65491 0.32081 0.0
H250 H 0.61224 0.72481 0.38283 0.0
H251 H 0.60661 0.76629 0.34945 0.0
C252 C 0.55579 0.8305 0.31006 0.0
C253 C 0.57792 0.84968 0.34208 0.0
C254 C 0.57494 0.87344 0.35889 0.0
C255 C 0.54951 0.87817 0.34437 0.0
C256 C 0.52663 0.85815 0.31354 0.0
C257 C 0.52982 0.83467 0.29645 0.0
C258 C 0.56128 0.80794 0.28792 0.0
C259 C 0.55889 0.7826 0.31101 0.0
C260 C 0.56799 0.81123 0.24338 0.0
C261 C 0.57632 0.84045 0.21992 0.0
C262 C 0.60285 0.86942 0.23459 0.0
C263 C 0.6066 0.89733 0.21933 0.0
C264 C 0.58444 0.89665 0.18837 0.0
C265 C 0.55951 0.86795 0.17125 0.0
C266 C 0.55542 0.8399 0.18702 0.0
C267 C 0.56474 0.73615 0.22122 0.0
C268 C 0.53919 0.71839 0.19146 0.0
C269 C 0.5357 0.6915 0.17439 0.0
C270 C 0.55753 0.68181 0.18706 0.0
C271 C 0.58401 0.7003 0.21522 0.0
C272 C 0.58793 0.72751 0.23158 0.0
C273 C 0.56471 0.76134 0.24481 0.0
C274 C 0.56834 0.7874 0.22197 0.0
C275 C 0.56094 0.75954 0.29005 0.0
C276 C 0.56047 0.73437 0.31605 0.0
C277 C 0.53586 0.70275 0.30916 0.0
C278 C 0.53937 0.67915 0.32758 0.0
C279 C 0.56712 0.68686 0.35384 0.0
C280 C 0.59063 0.71839 0.36274 0.0
C281 C 0.5873 0.742 0.34397 0.0
H282 H 0.69288 0.49292 0.71267 0.0
H283 H 0.65194 0.49576 0.66646 0.0
H284 H 0.68164 0.58465 0.71986 0.0
H285 H 0.72371 0.58254 0.76398 0.0
H286 H 0.76468 0.53539 0.71769 0.0
H287 H 0.66727 0.49126 0.82748 0.0
H288 H 0.62561 0.49782 0.86299 0.0
H289 H 0.70208 0.59534 0.88263 0.0
H290 H 0.74395 0.58778 0.84988 0.0
H291 H 0.82261 0.56229 0.88992 0.0
H292 H 0.8646 0.55492 0.92659 0.0
H293 H 0.82982 0.47102 0.85597 0.0
H294 H 0.78853 0.47871 0.81905 0.0
H295 H 0.75354 0.52991 0.87618 0.0
H296 H 0.85153 0.57139 0.79859 0.0
H297 H 0.90052 0.57409 0.76893 0.0
H298 H 0.83645 0.50349 0.67841 0.0
H299 H 0.78695 0.49887 0.71088 0.0
C300 C 0.71129 0.53737 0.74219 0.0
C301 C 0.69074 0.51313 0.71419 0.0
C302 C 0.66707 0.51463 0.68812 0.0
C303 C 0.66352 0.54049 0.68924 0.0
C304 C 0.68399 0.56462 0.71757 0.0
C305 C 0.70783 0.56324 0.74332 0.0
C306 C 0.73587 0.53524 0.77061 0.0
C307 C 0.76195 0.53368 0.75227 0.0
C308 C 0.73386 0.53509 0.81575 0.0
C309 C 0.70855 0.53897 0.8366 0.0
C310 C 0.6749 0.51397 0.83958 0.0
C311 C 0.65104 0.51798 0.8591 0.0
C312 C 0.66035 0.54731 0.87497 0.0
C313 C 0.69409 0.57245 0.87091 0.0
C314 C 0.71804 0.56818 0.8524 0.0
C315 C 0.80277 0.52138 0.85111 0.0
C316 C 0.82357 0.54196 0.88301 0.0
C317 C 0.84755 0.53773 0.90397 0.0
C318 C 0.85097 0.51274 0.89353 0.0
C319 C 0.82833 0.49089 0.86402 0.0
C320 C 0.80462 0.4952 0.843 0.0
C321 C 0.78144 0.52847 0.82325 0.0
C322 C 0.75621 0.53126 0.8416 0.0
C323 C 0.78548 0.5315 0.77805 0.0
C324 C 0.81538 0.53446 0.75758 0.0
C325 C 0.84788 0.55611 0.77277 0.0
C326 C 0.87603 0.55808 0.75524 0.0
C327 C 0.87247 0.53929 0.72094 0.0
C328 C 0.83999 0.51812 0.70505 0.0
C329 C 0.81171 0.51568 0.72326 0.0
H330 H 0.2743 0.83032 0.18633 0.0
H331 H 0.32113 0.8686 0.14039 0.0
H332 H 0.38958 0.85496 0.21693 0.0
H333 H 0.3425 0.81596 0.2621 0.0
H334 H 0.25119 0.77118 0.19295 0.0
H335 H 0.29511 0.85273 0.2921 0.0
H336 H 0.33231 0.89341 0.3417 0.0
H337 H 0.34118 0.82532 0.41777 0.0
H338 H 0.30557 0.78504 0.36664 0.0
H339 H 0.22606 0.70429 0.35711 0.0
H340 H 0.18137 0.66148 0.40072 0.0
H341 H 0.10652 0.66497 0.32395 0.0
H342 H 0.15144 0.70874 0.28082 0.0
H343 H 0.24382 0.76121 0.35123 0.0
H344 H 0.21346 0.68505 0.2381 0.0
H345 H 0.18146 0.64784 0.18173 0.0
H346 H 0.14601 0.70667 0.13596 0.0
H347 H 0.17921 0.74434 0.19121 0.0
C348 C 0.30467 0.82011 0.22791 0.0
C349 C 0.29942 0.83572 0.19353 0.0
C350 C 0.32625 0.85769 0.16727 0.0
C351 C 0.35902 0.86446 0.17445 0.0
C352 C 0.36452 0.84977 0.20988 0.0
C353 C 0.33765 0.82778 0.2362 0.0
C354 C 0.27525 0.79353 0.25173 0.0
C355 C 0.24946 0.76941 0.22766 0.0
C356 C 0.27312 0.79048 0.29709 0.0
C357 C 0.29766 0.81579 0.32534 0.0
C358 C 0.30556 0.84662 0.31893 0.0
C359 C 0.32628 0.86974 0.34784 0.0
C360 C 0.33898 0.86237 0.38426 0.0
C361 C 0.33163 0.83167 0.39016 0.0
C362 C 0.3112 0.80863 0.361 0.0
C363 C 0.19246 0.71003 0.31537 0.0
C364 C 0.2001 0.69585 0.34924 0.0
C365 C 0.17451 0.67124 0.37412 0.0
C366 C 0.14046 0.65983 0.36568 0.0
C367 C 0.13253 0.67302 0.33082 0.0
C368 C 0.15828 0.69802 0.30608 0.0
C369 C 0.2204 0.7386 0.29234 0.0
C370 C 0.24577 0.76313 0.31656 0.0
C371 C 0.22239 0.74219 0.2472 0.0
C372 C 0.1985 0.71726 0.2187 0.0
C373 C 0.19834 0.68959 0.21628 0.0
C374 C 0.18021 0.6685 0.18401 0.0
C375 C 0.16193 0.67478 0.15384 0.0
C376 C 0.16078 0.70175 0.15785 0.0
C377 C 0.17925 0.723 0.18973 0.0
H378 H 0.55939 0.32337 0.83319 0.0
H379 H 0.56212 0.36123 0.88237 0.0
H380 H 0.45792 0.32756 0.85581 0.0
H381 H 0.45583 0.2906 0.80507 0.0
H382 H 0.51742 0.2597 0.84449 0.0
H383 H 0.54292 0.33557 0.73309 0.0
H384 H 0.54228 0.37131 0.67876 0.0
H385 H 0.44074 0.29949 0.64434 0.0
H386 H 0.44132 0.26387 0.69895 0.0
H387 H 0.44346 0.18076 0.70284 0.0
H388 H 0.44222 0.14378 0.65284 0.0
H389 H 0.54699 0.1802 0.67886 0.0
H390 H 0.54805 0.2169 0.72946 0.0
H391 H 0.48482 0.24525 0.69147 0.0
H392 H 0.46147 0.16874 0.8027 0.0
H393 H 0.46413 0.13401 0.85698 0.0
H394 H 0.56453 0.20859 0.89093 0.0
H395 H 0.56204 0.24306 0.8362 0.0
C396 C 0.5074 0.30403 0.81536 0.0
C397 C 0.53724 0.32441 0.83749 0.0
C398 C 0.53862 0.34581 0.8661 0.0
C399 C 0.50993 0.34688 0.87418 0.0
C400 C 0.48047 0.32736 0.85057 0.0
C401 C 0.47925 0.30622 0.82143 0.0
C402 C 0.50477 0.27834 0.78989 0.0
C403 C 0.51087 0.25688 0.81076 0.0
C404 C 0.49499 0.27384 0.74637 0.0
C405 C 0.49205 0.29718 0.7203 0.0
C406 C 0.52015 0.32785 0.71482 0.0
C407 C 0.51992 0.34808 0.68348 0.0
C408 C 0.49152 0.33801 0.65739 0.0
C409 C 0.46282 0.30786 0.66434 0.0
C410 C 0.46313 0.28756 0.69547 0.0
C411 C 0.49575 0.20146 0.72033 0.0
C412 C 0.46601 0.18039 0.69847 0.0
C413 C 0.4653 0.15926 0.66991 0.0
C414 C 0.4945 0.15909 0.66199 0.0
C415 C 0.52413 0.17983 0.68435 0.0
C416 C 0.52467 0.20061 0.71351 0.0
C417 C 0.49756 0.22665 0.74605 0.0
C418 C 0.49127 0.248 0.72524 0.0
C419 C 0.50743 0.23119 0.78956 0.0
C420 C 0.51159 0.20845 0.81538 0.0
C421 C 0.48441 0.17732 0.82095 0.0
C422 C 0.48575 0.15769 0.85237 0.0
C423 C 0.51425 0.16894 0.87869 0.0
C424 C 0.54222 0.19943 0.8712 0.0
C425 C 0.54084 0.21907 0.83993 0.0
C426 C 0.08752 0.4679 0.07321 0.0
C427 C 0.06768 0.48025 0.08162 0.0
C428 C 0.10847 0.46667 0.10452 0.0
C429 C 0.1109 0.478 0.14586 0.0
H430 H 0.08783 0.46008 0.04143 0.0
H431 H 0.12411 0.45807 0.09543 0.0
S432 S 0.06261 0.51105 0.1853 0.0
N433 N 0.05056 0.50283 0.13493 0.0
N434 N 0.08975 0.50033 0.19426 0.0
C435 C 0.09017 0.48936 0.15534 0.0
C436 C 0.06854 0.49041 0.12324 0.0
C437 C 0.59694 0.04583 0.60688 0.0
C438 C 0.5812 0.05604 0.57836 0.0
C439 C 0.62001 0.06621 0.63736 0.0
C440 C 0.62718 0.09691 0.64048 0.0
H441 H 0.59257 0.02263 0.60434 0.0
H442 H 0.63285 0.05823 0.65792 0.0
S443 S 0.59153 0.13403 0.57367 0.0
N444 N 0.57367 0.09824 0.55555 0.0
N445 N 0.61634 0.13614 0.6131 0.0
C446 C 0.61055 0.10677 0.61307 0.0
C447 C 0.58768 0.08637 0.5819 0.0
C448 C 0.55442 0.62063 0.11605 0.0
C449 C 0.542 0.59416 0.14393 0.0
C450 C 0.5593 0.64892 0.13006 0.0
C451 C 0.55188 0.65173 0.17243 0.0
H452 H 0.56076 0.61955 0.08326 0.0
H453 H 0.56917 0.66879 0.10774 0.0
S454 S 0.51534 0.58873 0.25674 0.0
N455 N 0.5202 0.57222 0.21512 0.0
N456 N 0.52931 0.62528 0.24121 0.0
C457 C 0.53881 0.62538 0.20034 0.0
C458 C 0.53393 0.59663 0.18619 0.0
C459 C 0.92835 0.51512 0.67253 0.0
C460 C 0.95804 0.54398 0.6625 0.0
C461 C 0.90112 0.51385 0.69221 0.0
C462 C 0.90241 0.54143 0.70192 0.0
H463 H 0.92619 0.49341 0.66482 0.0
H464 H 0.87883 0.49106 0.69967 0.0
S465 S 0.97436 0.62291 0.67998 0.0
N466 N 0.98741 0.60061 0.6631 0.0
N467 N 0.93588 0.59858 0.69875 0.0
C468 C 0.93221 0.5705 0.69214 0.0
C469 C 0.96011 0.57168 0.67273 0.0
C470 C 0.41904 0.93648 0.10429 0.0
C471 C 0.44164 0.92909 0.088 0.0
C472 C 0.39232 0.91545 0.13175 0.0
C473 C 0.38711 0.88618 0.14442 0.0
H474 H 0.4224 0.95903 0.09664 0.0
H475 H 0.37607 0.92252 0.14399 0.0
S476 S 0.43692 0.85397 0.1081 0.0
N477 N 0.45539 0.88918 0.08485 0.0
N478 N 0.4053 0.84994 0.13605 0.0
C479 C 0.40881 0.87806 0.1274 0.0
C480 C 0.43593 0.89936 0.09932 0.0
C481 C 0.5212 0.39018 0.5569 0.0
C482 C 0.49741 0.39869 0.55231 0.0
C483 C 0.51902 0.37043 0.591 0.0
C484 C 0.49273 0.35825 0.62125 0.0
H485 H 0.54232 0.39984 0.53499 0.0
H486 H 0.53813 0.36477 0.59388 0.0
S487 S 0.4231 0.3721 0.62171 0.0
N488 N 0.44608 0.3925 0.57945 0.0
N489 N 0.44185 0.35521 0.64353 0.0
C490 C 0.4682 0.36578 0.61615 0.0
C491 C 0.47061 0.38608 0.5817 0.0
C492 C 0.51295 0.92197 0.39225 0.0
C493 C 0.54024 0.95342 0.39088 0.0
C494 C 0.51611 0.89784 0.3771 0.0
C495 C 0.5469 0.90411 0.36076 0.0
H496 H 0.48883 0.91604 0.40476 0.0
H497 H 0.49437 0.87403 0.37857 0.0
S498 S 0.62595 0.98241 0.34976 0.0
N499 N 0.59903 0.98947 0.3715 0.0
N500 N 0.60503 0.94415 0.34333 0.0
C501 C 0.57441 0.93541 0.35932 0.0
C502 C 0.57105 0.96005 0.37416 0.0
C503 C 0.62327 0.56546 0.96738 0.0
C504 C 0.58864 0.54882 0.95801 0.0
C505 C 0.64643 0.56625 0.93919 0.0
C506 C 0.63604 0.55076 0.9001 0.0
H507 H 0.63245 0.57635 0.99805 0.0
H508 H 0.67237 0.57745 0.94953 0.0
S509 S 0.54921 0.50928 0.85635 0.0
N510 N 0.54561 0.52004 0.90428 0.0
N511 N 0.58955 0.52248 0.8504 0.0
C512 C 0.60195 0.53655 0.88843 0.0
C513 C 0.57818 0.5355 0.91747 0.0
C514 C 0.09524 0.6215 0.47057 0.0
C515 C 0.06933 0.59097 0.45953 0.0
C516 C 0.11713 0.64364 0.43975 0.0
C517 C 0.1141 0.6365 0.39621 0.0
H518 H 0.0995 0.62821 0.50376 0.0
H519 H 0.13719 0.66643 0.45028 0.0
S520 S 0.04954 0.5609 0.34928 0.0
N521 N 0.04103 0.55531 0.40117 0.0
N522 N 0.08212 0.59732 0.34292 0.0
C523 C 0.08735 0.6067 0.38408 0.0
C524 C 0.06498 0.58386 0.41576 0.0
C525 C 0.54203 0.12698 0.95451 0.0
C526 C 0.51603 0.11275 0.98526 0.0
C527 C 0.54137 0.14523 0.92026 0.0
C528 C 0.51444 0.14956 0.91519 0.0
H529 H 0.56297 0.12378 0.95688 0.0
H530 H 0.56181 0.15559 0.89718 0.0
S531 S 0.44043 0.11783 0.98718 0.0
N532 N 0.46277 0.10444 0.00858 0.0
N533 N 0.46166 0.13907 0.94441 0.0
C534 C 0.48848 0.13581 0.94596 0.0
C535 C 0.48927 0.11739 0.98102 0.0
C536 C 0.3972 0.46443 0.43795 0.0
C537 C 0.42953 0.49045 0.44662 0.0
C538 C 0.37479 0.46715 0.41075 0.0
C539 C 0.38388 0.49592 0.39022 0.0
H540 H 0.38935 0.44154 0.45171 0.0
H541 H 0.35016 0.44634 0.40544 0.0
S542 S 0.46661 0.57099 0.40036 0.0
N543 N 0.46979 0.54594 0.4321 0.0
N544 N 0.42832 0.55095 0.37989 0.0
C545 C 0.41616 0.52227 0.39895 0.0
C546 C 0.43878 0.51956 0.42732 0.0
C547 C 0.93272 0.41568 0.86442 0.0
C548 C 0.96228 0.41657 0.87519 0.0
C549 C 0.90557 0.38948 0.84525 0.0
C550 C 0.90686 0.36304 0.83662 0.0
H551 H 0.93055 0.43536 0.87128 0.0
H552 H 0.88329 0.38985 0.83743 0.0
S553 S 0.97845 0.35356 0.86024 0.0
N554 N 0.99148 0.38912 0.87625 0.0
N555 N 0.94014 0.3393 0.84108 0.0
C556 C 0.93654 0.36384 0.84684 0.0
C557 C 0.96434 0.39075 0.86593 0.0
C558 C 0.91581 0.51185 0.96866 0.0
C559 C 0.93768 0.51049 0.93987 0.0
C560 C 0.88769 0.51251 0.95377 0.0
C561 C 0.88009 0.51116 0.90969 0.0
H562 H 0.92099 0.51336 1.0027 0.0
H563 H 0.8718 0.51411 0.97687 0.0
S564 S 0.92868 0.50627 0.82128 0.0
N565 N 0.94894 0.50679 0.86517 0.0
N566 N 0.89677 0.50825 0.83767 0.0
C567 C 0.90142 0.50917 0.88083 0.0
C568 C 0.92997 0.50874 0.8958 0.0
C569 C 0.4133 0.9153 0.45539 0.0
C570 C 0.40628 0.93771 0.46776 0.0
C571 C 0.39088 0.8904 0.42955 0.0
C572 C 0.36052 0.88685 0.41541 0.0
H573 H 0.43719 0.91805 0.46343 0.0
H574 H 0.39816 0.8747 0.41893 0.0
S575 S 0.32787 0.93609 0.44523 0.0
N576 N 0.36531 0.95282 0.46799 0.0
N577 N 0.32266 0.90545 0.42052 0.0
C578 C 0.35217 0.90782 0.43013 0.0
C579 C 0.37515 0.93334 0.45607 0.0
C580 C 0.49578 0.40465 0.93148 0.0
C581 C 0.50989 0.40677 0.9724 0.0
C582 C 0.49593 0.38541 0.90006 0.0
C583 C 0.51038 0.36753 0.90795 0.0
H584 H 0.48402 0.4176 0.92379 0.0
H585 H 0.4848 0.38472 0.86917 0.0
S586 S 0.55113 0.36489 0.00951 0.0
N587 N 0.53965 0.38981 0.0184 0.0
N588 N 0.53878 0.35294 0.96028 0.0
C589 C 0.52465 0.36949 0.94869 0.0
C590 C 0.52464 0.38918 0.98061 0.0
C591 C 0.09162 0.48109 0.45075 0.0
C592 C 0.10643 0.49659 0.48907 0.0
C593 C 0.11109 0.48086 0.41764 0.0
C594 C 0.14619 0.49601 0.42155 0.0
H595 H 0.06471 0.46942 0.44601 0.0
H596 H 0.0986 0.46939 0.3883 0.0
S597 S 0.19714 0.53796 0.51655 0.0
N598 N 0.15824 0.52653 0.52964 0.0
N599 N 0.19482 0.525 0.46799 0.0
C600 C 0.16126 0.51058 0.46034 0.0
C601 C 0.14138 0.51101 0.49403 0.0
C602 C 0.587 0.06872 0.91991 0.0
C603 C 0.59855 0.05676 0.9523 0.0
C604 C 0.60907 0.0901 0.88813 0.0
C605 C 0.64323 0.09964 0.88703 0.0
H606 H 0.56142 0.06328 0.92076 0.0
H607 H 0.59964 0.10001 0.86507 0.0
S608 S 0.68495 0.07264 0.96205 0.0
N609 N 0.64573 0.05441 0.97958 0.0
N610 N 0.68678 0.09371 0.91938 0.0
C611 C 0.65441 0.08619 0.91753 0.0
C612 C 0.63218 0.06497 0.95024 0.0
C613 C 0.57368 0.61546 0.35892 0.0
C614 C 0.57459 0.61016 0.4032 0.0
C615 C 0.57229 0.64099 0.34314 0.0
C616 C 0.57171 0.6619 0.3711 0.0
H617 H 0.57249 0.59902 0.33654 0.0
H618 H 0.57119 0.64423 0.30887 0.0
S619 S 0.57782 0.66034 0.48944 0.0
N620 N 0.57841 0.62965 0.47453 0.0
N621 N 0.57483 0.67711 0.44478 0.0
C622 C 0.57448 0.65782 0.41525 0.0
C623 C 0.57608 0.63201 0.43131 0.0
C624 C 0.51681 0.1326 0.56193 0.0
C625 C 0.49442 0.09978 0.56362 0.0
C626 C 0.51712 0.15148 0.59423 0.0
C627 C 0.49443 0.1384 0.62896 0.0
H628 H 0.53475 0.14373 0.53588 0.0
H629 H 0.53496 0.17659 0.59172 0.0
S630 S 0.42954 0.05405 0.64742 0.0
N631 N 0.44833 0.05522 0.60253 0.0
N632 N 0.44849 0.09071 0.66262 0.0
C633 C 0.47149 0.10574 0.63063 0.0
C634 C 0.47159 0.08645 0.59818 0.0
C635 C 0.40899 0.49792 0.07557 0.0
C636 C 0.41026 0.47078 0.0788 0.0
C637 C 0.38516 0.50018 0.09889 0.0
C638 C 0.36158 0.47528 0.12586 0.0
H639 H 0.42773 0.51825 0.05697 0.0
H640 H 0.38578 0.52189 0.0967 0.0
S641 S 0.35254 0.39817 0.14245 0.0
N642 N 0.38428 0.41767 0.1085 0.0
N643 N 0.33987 0.42204 0.15254 0.0
C644 C 0.36145 0.44743 0.12748 0.0
C645 C 0.38569 0.44516 0.10388 0.0
C646 C 0.92653 0.42105 0.6373 0.0
C647 C 0.93395 0.42716 0.59317 0.0
C648 C 0.899 0.39255 0.6528 0.0
C649 C 0.87749 0.36852 0.62502 0.0
H650 H 0.94242 0.43841 0.66048 0.0
H651 H 0.89509 0.38902 0.68716 0.0
S652 S 0.88456 0.37279 0.5064 0.0
N653 N 0.91667 0.40709 0.52157 0.0
N654 N 0.86468 0.35312 0.55079 0.0
C655 C 0.88406 0.37437 0.58065 0.0
C656 C 0.91218 0.40379 0.5647 0.0
C657 C 0.59531 0.96644 0.12498 0.0
C658 C 0.58056 0.97757 0.15205 0.0
C659 C 0.59736 0.94064 0.13726 0.0
C660 C 0.58504 0.92539 0.17719 0.0
H661 H 0.60434 0.9772 0.09349 0.0
H662 H 0.60794 0.93214 0.11511 0.0
S663 S 0.54416 0.94477 0.25987 0.0
N664 N 0.55334 0.97091 0.22068 0.0
N665 N 0.55818 0.92298 0.2441 0.0
C666 C 0.57133 0.93676 0.2052 0.0
C667 C 0.56893 0.96282 0.19261 0.0
C668 C 0.58453 0.51759 0.62354 0.0
C669 C 0.59495 0.54442 0.59712 0.0
C670 C 0.60645 0.51674 0.65402 0.0
C671 C 0.63953 0.54276 0.65962 0.0
H672 H 0.55993 0.49653 0.61919 0.0
H673 H 0.59765 0.49529 0.67275 0.0
S674 S 0.67822 0.61942 0.60054 0.0
N675 N 0.63987 0.5983 0.5806 0.0
N676 N 0.68093 0.59655 0.63708 0.0
C677 C 0.64963 0.57015 0.63471 0.0
C678 C 0.62741 0.571 0.60373 0.0
C679 C 0.10709 0.5999 0.09393 0.0
C680 C 0.10859 0.61067 0.05132 0.0
C681 C 0.12449 0.62077 0.12672 0.0
C682 C 0.14425 0.65325 0.11821 0.0
H683 H 0.09238 0.57507 0.10212 0.0
H684 H 0.12206 0.61137 0.1591 0.0
S685 S 0.1581 0.6934 0.01177 0.0
N686 N 0.13195 0.65584 1.00222 0.0
N687 N 0.16587 0.69522 0.0637 0.0
C688 C 0.14669 0.66436 0.07559 0.0
C689 C 0.1287 0.64303 0.04217 0.0
loop_
_geom_bond_atom_site_label_1
_geom_bond_atom_site_label_2
_geom_bond_distance
_geom_bond_site_symmetry_2
_ccdc_geom_bond_type
Cu0 N1 1.999 1_454 S
Cu0 O6 1.959 1_454 S
Cu0 N11 1.986 . S
Cu0 O20 1.974 . S
N1 Cu0 1.999 1_656 S
N1 C3 1.263 . S
N1 C5 1.389 1_556 S
N2 C3 1.358 . S
N2 C4 1.400 . S
C3 N1 1.263 . S
C3 N2 1.358 . S
C3 H9 0.930 . S
C4 N2 1.400 . S
C4 C5 1.351 1_556 S
C4 H21 0.930 . S
C5 N1 1.389 1_554 S
C5 C4 1.351 1_554 S
C5 H10 0.930 . S
O6 Cu0 1.959 1_656 S
O6 C16 1.282 . S
C7 O8 1.261 1_554 S
C7 O20 1.251 . S
O8 C7 1.261 1_556 S
H9 C3 0.930 . S
H10 C5 0.930 . S
N11 Cu0 1.986 . S
N11 C13 1.335 . S
N11 C14 1.390 . S
N12 C13 1.345 . S
N12 C15 1.336 . S
C13 N11 1.335 . S
C13 N12 1.345 . S
C13 H18 0.930 . S
C14 N11 1.390 . S
C14 C15 1.346 . S
C14 H19 0.930 1_554 S
C15 N12 1.336 . S
C15 C14 1.346 . S
C15 H22 0.929 . S
C16 O6 1.282 . S
C16 O17 1.216 1_655 S
O17 C16 1.216 1_455 S
H18 C13 0.930 . S
H19 C14 0.930 1_556 S
O20 Cu0 1.974 . S
O20 C7 1.251 . S
H21 C4 0.930 . S
H22 C15 0.929 . S
Cu23 N24 1.999 . S
Cu23 O29 1.974 . S
Cu23 N34 1.985 1_565 S
Cu23 O43 1.959 1_565 S
N24 Cu23 1.999 . S
N24 C26 1.263 . S
N24 C28 1.389 . S
N25 C26 1.358 . S
N25 C27 1.400 . S
C26 N24 1.263 . S
C26 N25 1.358 . S
C26 H32 0.930 . S
C27 N25 1.400 . S
C27 C28 1.351 . S
C27 H44 0.930 . S
C28 N24 1.389 . S
C28 C27 1.351 . S
C28 H33 0.930 . S
O29 Cu23 1.974 . S
O29 C39 1.282 . S
C30 O31 1.261 . S
C30 O43 1.251 . S
O31 C30 1.261 . S
H32 C26 0.930 . S
H33 C28 0.930 . S
N34 Cu23 1.985 1_545 S
N34 C36 1.335 . S
N34 C37 1.390 . S
N35 C36 1.345 . S
N35 C38 1.336 . S
C36 N34 1.335 . S
C36 N35 1.345 . S
C36 H41 0.930 . S
C37 N34 1.390 . S
C37 C38 1.346 . S
C37 H42 0.930 . S
C38 N35 1.336 . S
C38 C37 1.346 . S
C38 H45 0.929 . S
C39 O29 1.282 . S
C39 O40 1.216 . S
O40 C39 1.216 . S
H41 C36 0.930 . S
H42 C37 0.930 . S
O43 Cu23 1.959 1_545 S
O43 C30 1.251 . S
H44 C27 0.930 . S
H45 C38 0.929 . S
Cu46 N47 1.999 1_554 S
Cu46 O52 1.974 1_554 S
Cu46 N57 1.985 . S
Cu46 O66 1.959 . S
N47 Cu46 1.999 1_556 S
N47 C49 1.263 . S
N47 C51 1.389 . S
N48 C49 1.358 . S
N48 C50 1.400 . S
C49 N47 1.263 . S
C49 N48 1.358 . S
C49 H55 0.930 . S
C50 N48 1.400 . S
C50 C51 1.351 . S
C50 H67 0.930 . S
C51 N47 1.389 . S
C51 C50 1.351 . S
C51 H56 0.930 . S
O52 Cu46 1.974 1_556 S
O52 C62 1.282 . S
C53 O54 1.261 . S
C53 O66 1.251 . S
O54 C53 1.261 . S
H55 C49 0.930 . S
H56 C51 0.930 . S
N57 Cu46 1.985 . S
N57 C59 1.335 . S
N57 C60 1.390 . S
N58 C59 1.345 . S
N58 C61 1.336 . S
C59 N57 1.335 . S
C59 N58 1.345 . S
C59 H64 0.930 . S
C60 N57 1.390 . S
C60 C61 1.346 . S
C60 H65 0.930 . S
C61 N58 1.336 . S
C61 C60 1.346 . S
C61 H68 0.929 . S
C62 O52 1.282 . S
C62 O63 1.216 1_556 S
O63 C62 1.216 1_554 S
H64 C59 0.930 . S
H65 C60 0.930 . S
O66 Cu46 1.959 . S
O66 C53 1.251 . S
H67 C50 0.930 . S
H68 C61 0.929 . S
Cu69 N70 1.999 1_655 S
Cu69 O75 1.974 1_655 S
Cu69 N80 1.985 . S
Cu69 O89 1.959 . S
N70 Cu69 1.999 1_455 S
N70 C72 1.263 . S
N70 C74 1.389 1_455 S
N71 C72 1.358 . S
N71 C73 1.400 . S
C72 N70 1.263 . S
C72 N71 1.358 . S
C72 H78 0.930 . S
C73 N71 1.400 . S
C73 C74 1.351 1_455 S
C73 H90 0.930 . S
C74 N70 1.389 1_655 S
C74 C73 1.351 1_655 S
C74 H79 0.930 . S
O75 Cu69 1.974 1_455 S
O75 C85 1.282 . S
C76 O77 1.261 . S
C76 O89 1.251 . S
O77 C76 1.261 . S
H78 C72 0.930 . S
H79 C74 0.930 . S
N80 Cu69 1.985 . S
N80 C82 1.335 . S
N80 C83 1.390 . S
N81 C82 1.345 . S
N81 C84 1.336 . S
C82 N80 1.335 . S
C82 N81 1.345 . S
C82 H87 0.930 . S
C83 N80 1.390 . S
C83 C84 1.346 . S
C83 H88 0.930 1_655 S
C84 N81 1.336 . S
C84 C83 1.346 . S
C84 H91 0.929 . S
C85 O75 1.282 . S
C85 O86 1.216 . S
O86 C85 1.216 . S
H87 C82 0.930 . S
H88 C83 0.930 1_455 S
O89 Cu69 1.959 . S
O89 C76 1.251 . S
H90 C73 0.930 . S
H91 C84 0.929 . S
Cu92 N93 1.999 . S
Cu92 O98 1.974 1_554 S
Cu92 N103 1.985 1_545 S
Cu92 O112 1.959 1_545 S
N93 Cu92 1.999 . S
N93 C95 1.263 1_554 S
N93 C97 1.389 . S
N94 C95 1.358 . S
N94 C96 1.400 1_556 S
C95 N93 1.263 1_556 S
C95 N94 1.358 . S
C95 H101 0.930 . S
C96 N94 1.400 1_554 S
C96 C97 1.351 . S
C96 H113 0.930 . S
C97 N93 1.389 . S
C97 C96 1.351 . S
C97 H102 0.930 . S
O98 Cu92 1.974 1_556 S
O98 C108 1.282 . S
C99 O100 1.261 . S
C99 O112 1.251 . S
O100 C99 1.261 . S
H101 C95 0.930 . S
H102 C97 0.930 . S
N103 Cu92 1.985 1_565 S
N103 C105 1.335 . S
N103 C106 1.390 . S
N104 C105 1.345 . S
N104 C107 1.336 . S
C105 N103 1.335 . S
C105 N104 1.345 . S
C105 H110 0.930 . S
C106 N103 1.390 . S
C106 C107 1.346 . S
C106 H111 0.924 1_565 S
C107 N104 1.336 . S
C107 C106 1.346 . S
C107 H114 0.929 . S
C108 O98 1.282 . S
C108 O109 1.216 . S
O109 C108 1.216 . S
H110 C105 0.930 . S
H111 C106 0.924 1_545 S
O112 Cu92 1.959 1_565 S
O112 C99 1.251 . S
H113 C96 0.930 . S
H114 C107 0.929 . S
Cu115 N116 1.999 . S
Cu115 O121 1.974 . S
Cu115 N126 1.985 . S
Cu115 O135 1.959 . S
N116 Cu115 1.999 . S
N116 C118 1.263 . S
N116 C120 1.389 . S
N117 C118 1.358 . S
N117 C119 1.400 . S
C118 N116 1.263 . S
C118 N117 1.358 . S
C118 H124 0.930 . S
C119 N117 1.400 . S
C119 C120 1.351 . S
C119 H136 0.930 . S
C120 N116 1.389 . S
C120 C119 1.351 . S
C120 H125 0.930 . S
O121 Cu115 1.974 . S
O121 C131 1.282 . S
C122 O123 1.261 . S
C122 O135 1.251 . S
O123 C122 1.261 . S
H124 C118 0.930 . S
H125 C120 0.930 . S
N126 Cu115 1.985 . S
N126 C128 1.335 . S
N126 C129 1.390 . S
N127 C128 1.345 . S
N127 C130 1.336 . S
C128 N126 1.335 . S
C128 N127 1.345 . S
C128 H133 0.930 . S
C129 N126 1.390 . S
C129 C130 1.346 . S
C129 H134 0.930 . S
C130 N127 1.336 . S
C130 C129 1.346 . S
C130 H137 0.929 . S
C131 O121 1.282 . S
C131 O132 1.216 . S
O132 C131 1.216 . S
H133 C128 0.930 . S
H134 C129 0.930 . S
O135 Cu115 1.959 . S
O135 C122 1.251 . S
H136 C119 0.930 . S
H137 C130 0.929 . S
H138 C157 0.949 . S
H139 C158 0.950 . S
H140 C160 0.950 . S
H141 C161 0.950 . S
H142 C163 0.950 . S
H143 C166 0.950 . S
H144 C167 0.950 . S
H145 C169 0.951 . S
H146 C170 0.949 . S
H147 C172 0.949 . S
H148 C173 0.950 . S
H149 C175 0.950 . S
H150 C176 0.950 . S
H151 C178 0.950 . S
H152 C181 0.950 . S
H153 C182 0.950 . S
H154 C184 0.951 . S
H155 C185 0.949 . S
C156 C157 1.376 . S
C156 C161 1.386 . S
C156 C162 1.483 . S
C157 H138 0.949 . S
C157 C156 1.376 . S
C157 C158 1.397 . S
C158 H139 0.950 . S
C158 C157 1.397 . S
C158 C159 1.391 . S
C159 C158 1.391 . S
C159 C160 1.405 . S
C160 H140 0.950 . S
C160 C159 1.405 . S
C160 C161 1.367 . S
C161 H141 0.950 . S
C161 C156 1.386 . S
C161 C160 1.367 . S
C162 C156 1.483 . S
C162 C163 1.382 . S
C162 C164 1.403 . S
C163 H142 0.950 . S
C163 C162 1.382 . S
C163 C179 1.411 . S
C164 C162 1.403 . S
C164 C165 1.489 . S
C164 C178 1.411 . S
C165 C164 1.489 . S
C165 C166 1.383 . S
C165 C170 1.382 . S
C166 H143 0.950 . S
C166 C165 1.383 . S
C166 C167 1.395 . S
C167 H144 0.950 . S
C167 C166 1.395 . S
C167 C168 1.288 . S
C168 C167 1.288 . S
C168 C169 1.392 . S
C169 H145 0.951 . S
C169 C168 1.392 . S
C169 C170 1.392 . S
C170 H146 0.949 . S
C170 C165 1.382 . S
C170 C169 1.392 . S
C171 C172 1.376 . S
C171 C176 1.386 . S
C171 C177 1.483 . S
C172 H147 0.949 . S
C172 C171 1.376 . S
C172 C173 1.397 . S
C173 H148 0.950 . S
C173 C172 1.397 . S
C173 C174 1.391 . S
C174 C173 1.391 . S
C174 C175 1.405 . S
C175 H149 0.950 . S
C175 C174 1.405 . S
C175 C176 1.367 . S
C176 H150 0.950 . S
C176 C171 1.386 . S
C176 C175 1.367 . S
C177 C171 1.483 . S
C177 C178 1.382 . S
C177 C179 1.403 . S
C178 H151 0.950 . S
C178 C164 1.411 . S
C178 C177 1.382 . S
C179 C163 1.411 . S
C179 C177 1.403 . S
C179 C180 1.489 . S
C180 C179 1.489 . S
C180 C181 1.383 . S
C180 C185 1.382 . S
C181 H152 0.950 . S
C181 C180 1.383 . S
C181 C182 1.395 . S
C182 H153 0.950 . S
C182 C181 1.395 . S
C182 C183 1.288 . S
C183 C182 1.288 . S
C183 C184 1.392 . S
C184 H154 0.951 . S
C184 C183 1.392 . S
C184 C185 1.392 . S
C185 H155 0.949 . S
C185 C180 1.382 . S
C185 C184 1.392 . S
H186 C205 0.949 . S
H187 C206 0.950 . S
H188 C208 0.950 . S
H189 C209 0.950 . S
H190 C211 0.950 . S
H191 C214 0.950 . S
H192 C215 0.950 . S
H193 C217 0.951 . S
H194 C218 0.949 . S
H195 C220 0.949 . S
H196 C221 0.950 . S
H197 C223 0.950 . S
H198 C224 0.950 . S
H199 C226 0.950 . S
H200 C229 0.950 . S
H201 C230 0.950 . S
H202 C232 0.951 . S
H203 C233 0.949 . S
C204 C205 1.376 . S
C204 C209 1.386 . S
C204 C210 1.483 . S
C205 H186 0.949 . S
C205 C204 1.376 . S
C205 C206 1.397 . S
C206 H187 0.950 . S
C206 C205 1.397 . S
C206 C207 1.391 . S
C207 C206 1.391 . S
C207 C208 1.405 . S
C208 H188 0.950 . S
C208 C207 1.405 . S
C208 C209 1.367 . S
C209 H189 0.950 . S
C209 C204 1.386 . S
C209 C208 1.367 . S
C210 C204 1.483 . S
C210 C211 1.382 . S
C210 C212 1.403 . S
C211 H190 0.950 . S
C211 C210 1.382 . S
C211 C227 1.411 . S
C212 C210 1.403 . S
C212 C213 1.489 . S
C212 C226 1.411 . S
C213 C212 1.489 . S
C213 C214 1.383 . S
C213 C218 1.382 . S
C214 H191 0.950 . S
C214 C213 1.383 . S
C214 C215 1.395 . S
C215 H192 0.950 . S
C215 C214 1.395 . S
C215 C216 1.288 . S
C216 C215 1.288 . S
C216 C217 1.392 . S
C217 H193 0.951 . S
C217 C216 1.392 . S
C217 C218 1.392 . S
C218 H194 0.949 . S
C218 C213 1.382 . S
C218 C217 1.392 . S
C219 C220 1.376 . S
C219 C224 1.386 . S
C219 C225 1.483 . S
C220 H195 0.949 . S
C220 C219 1.376 . S
C220 C221 1.397 . S
C221 H196 0.950 . S
C221 C220 1.397 . S
C221 C222 1.391 . S
C222 C221 1.391 . S
C222 C223 1.405 . S
C223 H197 0.950 . S
C223 C222 1.405 . S
C223 C224 1.367 . S
C224 H198 0.950 . S
C224 C219 1.386 . S
C224 C223 1.367 . S
C225 C219 1.483 . S
C225 C226 1.382 . S
C225 C227 1.403 . S
C226 H199 0.950 . S
C226 C212 1.411 . S
C226 C225 1.382 . S
C227 C211 1.411 . S
C227 C225 1.403 . S
C227 C228 1.489 . S
C228 C227 1.489 . S
C228 C229 1.383 . S
C228 C233 1.382 . S
C229 H200 0.950 . S
C229 C228 1.383 . S
C229 C230 1.395 . S
C230 H201 0.950 . S
C230 C229 1.395 . S
C230 C231 1.288 . S
C231 C230 1.288 . S
C231 C232 1.392 . S
C232 H202 0.951 . S
C232 C231 1.392 . S
C232 C233 1.392 . S
C233 H203 0.949 . S
C233 C228 1.382 . S
C233 C232 1.392 . S
H234 C253 0.949 . S
H235 C254 0.950 . S
H236 C256 0.950 . S
H237 C257 0.950 . S
H238 C259 0.950 . S
H239 C262 0.950 . S
H240 C263 0.950 . S
H241 C265 0.951 . S
H242 C266 0.949 . S
H243 C268 0.949 . S
H244 C269 0.950 . S
H245 C271 0.950 . S
H246 C272 0.950 . S
H247 C274 0.950 . S
H248 C277 0.950 . S
H249 C278 0.950 . S
H250 C280 0.951 . S
H251 C281 0.949 . S
C252 C253 1.376 . S
C252 C257 1.386 . S
C252 C258 1.483 . S
C253 H234 0.949 . S
C253 C252 1.376 . S
C253 C254 1.397 . S
C254 H235 0.950 . S
C254 C253 1.397 . S
C254 C255 1.391 . S
C255 C254 1.391 . S
C255 C256 1.405 . S
C256 H236 0.950 . S
C256 C255 1.405 . S
C256 C257 1.367 . S
C257 H237 0.950 . S
C257 C252 1.386 . S
C257 C256 1.367 . S
C258 C252 1.483 . S
C258 C259 1.382 . S
C258 C260 1.403 . S
C259 H238 0.950 . S
C259 C258 1.382 . S
C259 C275 1.411 . S
C260 C258 1.403 . S
C260 C261 1.489 . S
C260 C274 1.411 . S
C261 C260 1.489 . S
C261 C262 1.383 . S
C261 C266 1.382 . S
C262 H239 0.950 . S
C262 C261 1.383 . S
C262 C263 1.395 . S
C263 H240 0.950 . S
C263 C262 1.395 . S
C263 C264 1.288 . S
C264 C263 1.288 . S
C264 C265 1.392 . S
C265 H241 0.951 . S
C265 C264 1.392 . S
C265 C266 1.392 . S
C266 H242 0.949 . S
C266 C261 1.382 . S
C266 C265 1.392 . S
C267 C268 1.376 . S
C267 C272 1.386 . S
C267 C273 1.483 . S
C268 H243 0.949 . S
C268 C267 1.376 . S
C268 C269 1.397 . S
C269 H244 0.950 . S
C269 C268 1.397 . S
C269 C270 1.391 . S
C270 C269 1.391 . S
C270 C271 1.405 . S
C271 H245 0.950 . S
C271 C270 1.405 . S
C271 C272 1.367 . S
C272 H246 0.950 . S
C272 C267 1.386 . S
C272 C271 1.367 . S
C273 C267 1.483 . S
C273 C274 1.382 . S
C273 C275 1.403 . S
C274 H247 0.950 . S
C274 C260 1.411 . S
C274 C273 1.382 . S
C275 C259 1.411 . S
C275 C273 1.403 . S
C275 C276 1.489 . S
C276 C275 1.489 . S
C276 C277 1.383 . S
C276 C281 1.382 . S
C277 H248 0.950 . S
C277 C276 1.383 . S
C277 C278 1.395 . S
C278 H249 0.950 . S
C278 C277 1.395 . S
C278 C279 1.288 . S
C279 C278 1.288 . S
C279 C280 1.392 . S
C280 H250 0.951 . S
C280 C279 1.392 . S
C280 C281 1.392 . S
C281 H251 0.949 . S
C281 C276 1.382 . S
C281 C280 1.392 . S
H282 C301 0.949 . S
H283 C302 0.950 . S
H284 C304 0.950 . S
H285 C305 0.950 . S
H286 C307 0.950 . S
H287 C310 0.950 . S
H288 C311 0.950 . S
H289 C313 0.951 . S
H290 C314 0.949 . S
H291 C316 0.949 . S
H292 C317 0.950 . S
H293 C319 0.950 . S
H294 C320 0.950 . S
H295 C322 0.950 . S
H296 C325 0.950 . S
H297 C326 0.950 . S
H298 C328 0.951 . S
H299 C329 0.949 . S
C300 C301 1.376 . S
C300 C305 1.386 . S
C300 C306 1.483 . S
C301 H282 0.949 . S
C301 C300 1.376 . S
C301 C302 1.397 . S
C302 H283 0.950 . S
C302 C301 1.397 . S
C302 C303 1.391 . S
C303 C302 1.391 . S
C303 C304 1.405 . S
C304 H284 0.950 . S
C304 C303 1.405 . S
C304 C305 1.367 . S
C305 H285 0.950 . S
C305 C300 1.386 . S
C305 C304 1.367 . S
C306 C300 1.483 . S
C306 C307 1.382 . S
C306 C308 1.403 . S
C307 H286 0.950 . S
C307 C306 1.382 . S
C307 C323 1.411 . S
C308 C306 1.403 . S
C308 C309 1.489 . S
C308 C322 1.411 . S
C309 C308 1.489 . S
C309 C310 1.383 . S
C309 C314 1.382 . S
C310 H287 0.950 . S
C310 C309 1.383 . S
C310 C311 1.395 . S
C311 H288 0.950 . S
C311 C310 1.395 . S
C311 C312 1.288 . S
C312 C311 1.288 . S
C312 C313 1.392 . S
C313 H289 0.951 . S
C313 C312 1.392 . S
C313 C314 1.392 . S
C314 H290 0.949 . S
C314 C309 1.382 . S
C314 C313 1.392 . S
C315 C316 1.376 . S
C315 C320 1.386 . S
C315 C321 1.483 . S
C316 H291 0.949 . S
C316 C315 1.376 . S
C316 C317 1.397 . S
C317 H292 0.950 . S
C317 C316 1.397 . S
C317 C318 1.391 . S
C318 C317 1.391 . S
C318 C319 1.405 . S
C319 H293 0.950 . S
C319 C318 1.405 . S
C319 C320 1.367 . S
C320 H294 0.950 . S
C320 C315 1.386 . S
C320 C319 1.367 . S
C321 C315 1.483 . S
C321 C322 1.382 . S
C321 C323 1.403 . S
C322 H295 0.950 . S
C322 C308 1.411 . S
C322 C321 1.382 . S
C323 C307 1.411 . S
C323 C321 1.403 . S
C323 C324 1.489 . S
C324 C323 1.489 . S
C324 C325 1.383 . S
C324 C329 1.382 . S
C325 H296 0.950 . S
C325 C324 1.383 . S
C325 C326 1.395 . S
C326 H297 0.950 . S
C326 C325 1.395 . S
C326 C327 1.288 . S
C327 C326 1.288 . S
C327 C328 1.392 . S
C328 H298 0.951 . S
C328 C327 1.392 . S
C328 C329 1.392 . S
C329 H299 0.949 . S
C329 C324 1.382 . S
C329 C328 1.392 . S
H330 C349 0.949 . S
H331 C350 0.950 . S
H332 C352 0.950 . S
H333 C353 0.950 . S
H334 C355 0.950 . S
H335 C358 0.950 . S
H336 C359 0.950 . S
H337 C361 0.951 . S
H338 C362 0.949 . S
H339 C364 0.949 . S
H340 C365 0.950 . S
H341 C367 0.950 . S
H342 C368 0.950 . S
H343 C370 0.950 . S
H344 C373 0.950 . S
H345 C374 0.950 . S
H346 C376 0.951 . S
H347 C377 0.949 . S
C348 C349 1.376 . S
C348 C353 1.386 . S
C348 C354 1.483 . S
C349 H330 0.949 . S
C349 C348 1.376 . S
C349 C350 1.397 . S
C350 H331 0.950 . S
C350 C349 1.397 . S
C350 C351 1.391 . S
C351 C350 1.391 . S
C351 C352 1.405 . S
C352 H332 0.950 . S
C352 C351 1.405 . S
C352 C353 1.367 . S
C353 H333 0.950 . S
C353 C348 1.386 . S
C353 C352 1.367 . S
C354 C348 1.483 . S
C354 C355 1.382 . S
C354 C356 1.403 . S
C355 H334 0.950 . S
C355 C354 1.382 . S
C355 C371 1.411 . S
C356 C354 1.403 . S
C356 C357 1.489 . S
C356 C370 1.411 . S
C357 C356 1.489 . S
C357 C358 1.383 . S
C357 C362 1.382 . S
C358 H335 0.950 . S
C358 C357 1.383 . S
C358 C359 1.395 . S
C359 H336 0.950 . S
C359 C358 1.395 . S
C359 C360 1.288 . S
C360 C359 1.288 . S
C360 C361 1.392 . S
C361 H337 0.951 . S
C361 C360 1.392 . S
C361 C362 1.392 . S
C362 H338 0.949 . S
C362 C357 1.382 . S
C362 C361 1.392 . S
C363 C364 1.376 . S
C363 C368 1.386 . S
C363 C369 1.483 . S
C364 H339 0.949 . S
C364 C363 1.376 . S
C364 C365 1.397 . S
C365 H340 0.950 . S
C365 C364 1.397 . S
C365 C366 1.391 . S
C366 C365 1.391 . S
C366 C367 1.405 . S
C367 H341 0.950 . S
C367 C366 1.405 . S
C367 C368 1.367 . S
C368 H342 0.950 . S
C368 C363 1.386 . S
C368 C367 1.367 . S
C369 C363 1.483 . S
C369 C370 1.382 . S
C369 C371 1.403 . S
C370 H343 0.950 . S
C370 C356 1.411 . S
C370 C369 1.382 . S
C371 C355 1.411 . S
C371 C369 1.403 . S
C371 C372 1.489 . S
C372 C371 1.489 . S
C372 C373 1.383 . S
C372 C377 1.382 . S
C373 H344 0.950 . S
C373 C372 1.383 . S
C373 C374 1.395 . S
C374 H345 0.950 . S
C374 C373 1.395 . S
C374 C375 1.288 . S
C375 C374 1.288 . S
C375 C376 1.392 . S
C376 H346 0.951 . S
C376 C375 1.392 . S
C376 C377 1.392 . S
C377 H347 0.949 . S
C377 C372 1.382 . S
C377 C376 1.392 . S
H378 C397 0.949 . S
H379 C398 0.950 . S
H380 C400 0.950 . S
H381 C401 0.950 . S
H382 C403 0.950 . S
H383 C406 0.950 . S
H384 C407 0.950 . S
H385 C409 0.951 . S
H386 C410 0.949 . S
H387 C412 0.949 . S
H388 C413 0.950 . S
H389 C415 0.950 . S
H390 C416 0.950 . S
H391 C418 0.950 . S
H392 C421 0.950 . S
H393 C422 0.950 . S
H394 C424 0.951 . S
H395 C425 0.949 . S
C396 C397 1.376 . S
C396 C401 1.386 . S
C396 C402 1.483 . S
C397 H378 0.949 . S
C397 C396 1.376 . S
C397 C398 1.397 . S
C398 H379 0.950 . S
C398 C397 1.397 . S
C398 C399 1.391 . S
C399 C398 1.391 . S
C399 C400 1.405 . S
C400 H380 0.950 . S
C400 C399 1.405 . S
C400 C401 1.367 . S
C401 H381 0.950 . S
C401 C396 1.386 . S
C401 C400 1.367 . S
C402 C396 1.483 . S
C402 C403 1.382 . S
C402 C404 1.403 . S
C403 H382 0.950 . S
C403 C402 1.382 . S
C403 C419 1.411 . S
C404 C402 1.403 . S
C404 C405 1.489 . S
C404 C418 1.411 . S
C405 C404 1.489 . S
C405 C406 1.383 . S
C405 C410 1.382 . S
C406 H383 0.950 . S
C406 C405 1.383 . S
C406 C407 1.395 . S
C407 H384 0.950 . S
C407 C406 1.395 . S
C407 C408 1.288 . S
C408 C407 1.288 . S
C408 C409 1.392 . S
C409 H385 0.951 . S
C409 C408 1.392 . S
C409 C410 1.392 . S
C410 H386 0.949 . S
C410 C405 1.382 . S
C410 C409 1.392 . S
C411 C412 1.376 . S
C411 C416 1.386 . S
C411 C417 1.483 . S
C412 H387 0.949 . S
C412 C411 1.376 . S
C412 C413 1.397 . S
C413 H388 0.950 . S
C413 C412 1.397 . S
C413 C414 1.391 . S
C414 C413 1.391 . S
C414 C415 1.405 . S
C415 H389 0.950 . S
C415 C414 1.405 . S
C415 C416 1.367 . S
C416 H390 0.950 . S
C416 C411 1.386 . S
C416 C415 1.367 . S
C417 C411 1.483 . S
C417 C418 1.382 . S
C417 C419 1.403 . S
C418 H391 0.950 . S
C418 C404 1.411 . S
C418 C417 1.382 . S
C419 C403 1.411 . S
C419 C417 1.403 . S
C419 C420 1.489 . S
C420 C419 1.489 . S
C420 C421 1.383 . S
C420 C425 1.382 . S
C421 H392 0.950 . S
C421 C420 1.383 . S
C421 C422 1.395 . S
C422 H393 0.950 . S
C422 C421 1.395 . S
C422 C423 1.288 . S
C423 C422 1.288 . S
C423 C424 1.392 . S
C424 H394 0.951 . S
C424 C423 1.392 . S
C424 C425 1.392 . S
C425 H395 0.949 . S
C425 C420 1.382 . S
C425 C424 1.392 . S
C426 C427 1.369 . S
C426 C428 1.419 . S
C426 H430 0.930 . S
C427 C426 1.369 . S
C427 C436 1.429 . S
C428 C426 1.419 . S
C428 C429 1.363 . S
C428 H431 0.929 . S
C429 C428 1.363 . S
C429 C435 1.428 . S
H430 C426 0.930 . S
H431 C428 0.929 . S
S432 N433 1.613 . S
S432 N434 1.610 . S
N433 S432 1.613 . S
N433 C436 1.350 . S
N434 S432 1.610 . S
N434 C435 1.351 . S
C435 C429 1.428 . S
C435 N434 1.351 . S
C435 C436 1.434 . S
C436 C427 1.429 . S
C436 N433 1.350 . S
C436 C435 1.434 . S
C437 C438 1.369 . S
C437 C439 1.419 . S
C437 H441 0.930 . S
C438 C437 1.369 . S
C438 C447 1.429 . S
C439 C437 1.419 . S
C439 C440 1.363 . S
C439 H442 0.929 . S
C440 C439 1.363 . S
C440 C446 1.428 . S
H441 C437 0.930 . S
H442 C439 0.929 . S
S443 N444 1.613 . S
S443 N445 1.610 . S
N444 S443 1.613 . S
N444 C447 1.350 . S
N445 S443 1.610 . S
N445 C446 1.351 . S
C446 C440 1.428 . S
C446 N445 1.351 . S
C446 C447 1.434 . S
C447 C438 1.429 . S
C447 N444 1.350 . S
C447 C446 1.434 . S
C448 C449 1.369 . S
C448 C450 1.419 . S
C448 H452 0.930 . S
C449 C448 1.369 . S
C449 C458 1.429 . S
C450 C448 1.419 . S
C450 C451 1.363 . S
C450 H453 0.929 . S
C451 C450 1.363 . S
C451 C457 1.428 . S
H452 C448 0.930 . S
H453 C450 0.929 . S
S454 N455 1.613 . S
S454 N456 1.610 . S
N455 S454 1.613 . S
N455 C458 1.350 . S
N456 S454 1.610 . S
N456 C457 1.351 . S
C457 C451 1.428 . S
C457 N456 1.351 . S
C457 C458 1.434 . S
C458 C449 1.429 . S
C458 N455 1.350 . S
C458 C457 1.434 . S
C459 C460 1.369 . S
C459 C461 1.419 . S
C459 H463 0.930 . S
C460 C459 1.369 . S
C460 C469 1.429 . S
C461 C459 1.419 . S
C461 C462 1.363 . S
C461 H464 0.929 . S
C462 C461 1.363 . S
C462 C468 1.428 . S
H463 C459 0.930 . S
H464 C461 0.929 . S
S465 N466 1.613 . S
S465 N467 1.610 . S
N466 S465 1.613 . S
N466 C469 1.350 . S
N467 S465 1.610 . S
N467 C468 1.351 . S
C468 C462 1.428 . S
C468 N467 1.351 . S
C468 C469 1.434 . S
C469 C460 1.429 . S
C469 N466 1.350 . S
C469 C468 1.434 . S
C470 C471 1.369 . S
C470 C472 1.419 . S
C470 H474 0.930 . S
C471 C470 1.369 . S
C471 C480 1.429 . S
C472 C470 1.419 . S
C472 C473 1.363 . S
C472 H475 0.929 . S
C473 C472 1.363 . S
C473 C479 1.428 . S
H474 C470 0.930 . S
H475 C472 0.929 . S
S476 N477 1.613 . S
S476 N478 1.610 . S
N477 S476 1.613 . S
N477 C480 1.350 . S
N478 S476 1.610 . S
N478 C479 1.351 . S
C479 C473 1.428 . S
C479 N478 1.351 . S
C479 C480 1.434 . S
C480 C471 1.429 . S
C480 N477 1.350 . S
C480 C479 1.434 . S
C481 C482 1.369 . S
C481 C483 1.419 . S
C481 H485 0.930 . S
C482 C481 1.369 . S
C482 C491 1.429 . S
C483 C481 1.419 . S
C483 C484 1.363 . S
C483 H486 0.929 . S
C484 C483 1.363 . S
C484 C490 1.428 . S
H485 C481 0.930 . S
H486 C483 0.929 . S
S487 N488 1.613 . S
S487 N489 1.610 . S
N488 S487 1.613 . S
N488 C491 1.350 . S
N489 S487 1.610 . S
N489 C490 1.351 . S
C490 C484 1.428 . S
C490 N489 1.351 . S
C490 C491 1.434 . S
C491 C482 1.429 . S
C491 N488 1.350 . S
C491 C490 1.434 . S
C492 C493 1.369 . S
C492 C494 1.419 . S
C492 H496 0.930 . S
C493 C492 1.369 . S
C493 C502 1.429 . S
C494 C492 1.419 . S
C494 C495 1.363 . S
C494 H497 0.929 . S
C495 C494 1.363 . S
C495 C501 1.428 . S
H496 C492 0.930 . S
H497 C494 0.929 . S
S498 N499 1.613 . S
S498 N500 1.610 . S
N499 S498 1.613 . S
N499 C502 1.350 . S
N500 S498 1.610 . S
N500 C501 1.351 . S
C501 C495 1.428 . S
C501 N500 1.351 . S
C501 C502 1.434 . S
C502 C493 1.429 . S
C502 N499 1.350 . S
C502 C501 1.434 . S
C503 C504 1.369 . S
C503 C505 1.419 . S
C503 H507 0.930 . S
C504 C503 1.369 . S
C504 C513 1.429 . S
C505 C503 1.419 . S
C505 C506 1.363 . S
C505 H508 0.929 . S
C506 C505 1.363 . S
C506 C512 1.428 . S
H507 C503 0.930 . S
H508 C505 0.929 . S
S509 N510 1.613 . S
S509 N511 1.610 . S
N510 S509 1.613 . S
N510 C513 1.350 . S
N511 S509 1.610 . S
N511 C512 1.351 . S
C512 C506 1.428 . S
C512 N511 1.351 . S
C512 C513 1.434 . S
C513 C504 1.429 . S
C513 N510 1.350 . S
C513 C512 1.434 . S
C514 C515 1.369 . S
C514 C516 1.419 . S
C514 H518 0.930 . S
C515 C514 1.369 . S
C515 C524 1.429 . S
C516 C514 1.419 . S
C516 C517 1.363 . S
C516 H519 0.929 . S
C517 C516 1.363 . S
C517 C523 1.428 . S
H518 C514 0.930 . S
H519 C516 0.929 . S
S520 N521 1.613 . S
S520 N522 1.610 . S
N521 S520 1.613 . S
N521 C524 1.350 . S
N522 S520 1.610 . S
N522 C523 1.351 . S
C523 C517 1.428 . S
C523 N522 1.351 . S
C523 C524 1.434 . S
C524 C515 1.429 . S
C524 N521 1.350 . S
C524 C523 1.434 . S
C525 C526 1.369 . S
C525 C527 1.419 . S
C525 H529 0.930 . S
C526 C525 1.369 . S
C526 C535 1.429 . S
C527 C525 1.419 . S
C527 C528 1.363 . S
C527 H530 0.929 . S
C528 C527 1.363 . S
C528 C534 1.428 . S
H529 C525 0.930 . S
H530 C527 0.929 . S
S531 N532 1.613 . S
S531 N533 1.610 . S
N532 S531 1.613 . S
N532 C535 1.350 . S
N533 S531 1.610 . S
N533 C534 1.351 . S
C534 C528 1.428 . S
C534 N533 1.351 . S
C534 C535 1.434 . S
C535 C526 1.429 . S
C535 N532 1.350 . S
C535 C534 1.434 . S
C536 C537 1.369 . S
C536 C538 1.419 . S
C536 H540 0.930 . S
C537 C536 1.369 . S
C537 C546 1.429 . S
C538 C536 1.419 . S
C538 C539 1.363 . S
C538 H541 0.929 . S
C539 C538 1.363 . S
C539 C545 1.428 . S
H540 C536 0.930 . S
H541 C538 0.929 . S
S542 N543 1.613 . S
S542 N544 1.610 . S
N543 S542 1.613 . S
N543 C546 1.350 . S
N544 S542 1.610 . S
N544 C545 1.351 . S
C545 C539 1.428 . S
C545 N544 1.351 . S
C545 C546 1.434 . S
C546 C537 1.429 . S
C546 N543 1.350 . S
C546 C545 1.434 . S
C547 C548 1.369 . S
C547 C549 1.419 . S
C547 H551 0.930 . S
C548 C547 1.369 . S
C548 C557 1.429 . S
C549 C547 1.419 . S
C549 C550 1.363 . S
C549 H552 0.929 . S
C550 C549 1.363 . S
C550 C556 1.428 . S
H551 C547 0.930 . S
H552 C549 0.929 . S
S553 N554 1.613 . S
S553 N555 1.610 . S
N554 S553 1.613 . S
N554 C557 1.350 . S
N555 S553 1.610 . S
N555 C556 1.351 . S
C556 C550 1.428 . S
C556 N555 1.351 . S
C556 C557 1.434 . S
C557 C548 1.429 . S
C557 N554 1.350 . S
C557 C556 1.434 . S
C558 C559 1.369 . S
C558 C560 1.419 . S
C558 H562 0.930 . S
C559 C558 1.369 . S
C559 C568 1.429 . S
C560 C558 1.419 . S
C560 C561 1.363 . S
C560 H563 0.929 . S
C561 C560 1.363 . S
C561 C567 1.428 . S
H562 C558 0.930 . S
H563 C560 0.929 . S
S564 N565 1.613 . S
S564 N566 1.610 . S
N565 S564 1.613 . S
N565 C568 1.350 . S
N566 S564 1.610 . S
N566 C567 1.351 . S
C567 C561 1.428 . S
C567 N566 1.351 . S
C567 C568 1.434 . S
C568 C559 1.429 . S
C568 N565 1.350 . S
C568 C567 1.434 . S
C569 C570 1.369 . S
C569 C571 1.419 . S
C569 H573 0.930 . S
C570 C569 1.369 . S
C570 C579 1.429 . S
C571 C569 1.419 . S
C571 C572 1.363 . S
C571 H574 0.929 . S
C572 C571 1.363 . S
C572 C578 1.428 . S
H573 C569 0.930 . S
H574 C571 0.929 . S
S575 N576 1.613 . S
S575 N577 1.610 . S
N576 S575 1.613 . S
N576 C579 1.350 . S
N577 S575 1.610 . S
N577 C578 1.351 . S
C578 C572 1.428 . S
C578 N577 1.351 . S
C578 C579 1.434 . S
C579 C570 1.429 . S
C579 N576 1.350 . S
C579 C578 1.434 . S
C580 C581 1.369 . S
C580 C582 1.419 . S
C580 H584 0.930 . S
C581 C580 1.369 . S
C581 C590 1.429 . S
C582 C580 1.419 . S
C582 C583 1.363 . S
C582 H585 0.929 . S
C583 C582 1.363 . S
C583 C589 1.428 . S
H584 C580 0.930 . S
H585 C582 0.929 . S
S586 N587 1.613 1_554 S
S586 N588 1.610 1_554 S
N587 S586 1.613 1_556 S
N587 C590 1.350 . S
N588 S586 1.610 1_556 S
N588 C589 1.351 . S
C589 C583 1.428 . S
C589 N588 1.351 . S
C589 C590 1.434 . S
C590 C581 1.429 . S
C590 N587 1.350 . S
C590 C589 1.434 . S
C591 C592 1.369 . S
C591 C593 1.419 . S
C591 H595 0.930 . S
C592 C591 1.369 . S
C592 C601 1.429 . S
C593 C591 1.419 . S
C593 C594 1.363 . S
C593 H596 0.929 . S
C594 C593 1.363 . S
C594 C600 1.428 . S
H595 C591 0.930 . S
H596 C593 0.929 . S
S597 N598 1.613 . S
S597 N599 1.610 . S
N598 S597 1.613 . S
N598 C601 1.350 . S
N599 S597 1.610 . S
N599 C600 1.351 . S
C600 C594 1.428 . S
C600 N599 1.351 . S
C600 C601 1.434 . S
C601 C592 1.429 . S
C601 N598 1.350 . S
C601 C600 1.434 . S
C602 C603 1.369 . S
C602 C604 1.419 . S
C602 H606 0.930 . S
C603 C602 1.369 . S
C603 C612 1.429 . S
C604 C602 1.419 . S
C604 C605 1.363 . S
C604 H607 0.929 . S
C605 C604 1.363 . S
C605 C611 1.428 . S
H606 C602 0.930 . S
H607 C604 0.929 . S
S608 N609 1.613 . S
S608 N610 1.610 . S
N609 S608 1.613 . S
N609 C612 1.350 . S
N610 S608 1.610 . S
N610 C611 1.351 . S
C611 C605 1.428 . S
C611 N610 1.351 . S
C611 C612 1.434 . S
C612 C603 1.429 . S
C612 N609 1.350 . S
C612 C611 1.434 . S
C613 C614 1.369 . S
C613 C615 1.419 . S
C613 H617 0.930 . S
C614 C613 1.369 . S
C614 C623 1.429 . S
C615 C613 1.419 . S
C615 C616 1.363 . S
C615 H618 0.929 . S
C616 C615 1.363 . S
C616 C622 1.428 . S
H617 C613 0.930 . S
H618 C615 0.929 . S
S619 N620 1.613 . S
S619 N621 1.610 . S
N620 S619 1.613 . S
N620 C623 1.350 . S
N621 S619 1.610 . S
N621 C622 1.351 . S
C622 C616 1.428 . S
C622 N621 1.351 . S
C622 C623 1.434 . S
C623 C614 1.429 . S
C623 N620 1.350 . S
C623 C622 1.434 . S
C624 C625 1.369 . S
C624 C626 1.419 . S
C624 H628 0.930 . S
C625 C624 1.369 . S
C625 C634 1.429 . S
C626 C624 1.419 . S
C626 C627 1.363 . S
C626 H629 0.929 . S
C627 C626 1.363 . S
C627 C633 1.428 . S
H628 C624 0.930 . S
H629 C626 0.929 . S
S630 N631 1.613 . S
S630 N632 1.610 . S
N631 S630 1.613 . S
N631 C634 1.350 . S
N632 S630 1.610 . S
N632 C633 1.351 . S
C633 C627 1.428 . S
C633 N632 1.351 . S
C633 C634 1.434 . S
C634 C625 1.429 . S
C634 N631 1.350 . S
C634 C633 1.434 . S
C635 C636 1.369 . S
C635 C637 1.419 . S
C635 H639 0.930 . S
C636 C635 1.369 . S
C636 C645 1.429 . S
C637 C635 1.419 . S
C637 C638 1.363 . S
C637 H640 0.929 . S
C638 C637 1.363 . S
C638 C644 1.428 . S
H639 C635 0.930 . S
H640 C637 0.929 . S
S641 N642 1.613 . S
S641 N643 1.610 . S
N642 S641 1.613 . S
N642 C645 1.350 . S
N643 S641 1.610 . S
N643 C644 1.351 . S
C644 C638 1.428 . S
C644 N643 1.351 . S
C644 C645 1.434 . S
C645 C636 1.429 . S
C645 N642 1.350 . S
C645 C644 1.434 . S
C646 C647 1.369 . S
C646 C648 1.419 . S
C646 H650 0.930 . S
C647 C646 1.369 . S
C647 C656 1.429 . S
C648 C646 1.419 . S
C648 C649 1.363 . S
C648 H651 0.929 . S
C649 C648 1.363 . S
C649 C655 1.428 . S
H650 C646 0.930 . S
H651 C648 0.929 . S
S652 N653 1.613 . S
S652 N654 1.610 . S
N653 S652 1.613 . S
N653 C656 1.350 . S
N654 S652 1.610 . S
N654 C655 1.351 . S
C655 C649 1.428 . S
C655 N654 1.351 . S
C655 C656 1.434 . S
C656 C647 1.429 . S
C656 N653 1.350 . S
C656 C655 1.434 . S
C657 C658 1.369 . S
C657 C659 1.419 . S
C657 H661 0.930 . S
C658 C657 1.369 . S
C658 C667 1.429 . S
C659 C657 1.419 . S
C659 C660 1.363 . S
C659 H662 0.929 . S
C660 C659 1.363 . S
C660 C666 1.428 . S
H661 C657 0.930 . S
H662 C659 0.929 . S
S663 N664 1.620 1_545 S
S663 N665 1.580 1_545 S
N664 S663 1.620 1_565 S
N664 C667 1.350 . S
N665 S663 1.580 1_565 S
N665 C666 1.351 . S
C666 C660 1.428 . S
C666 N665 1.351 . S
C666 C667 1.434 . S
C667 C658 1.429 . S
C667 N664 1.350 . S
C667 C666 1.434 . S
C668 C669 1.369 . S
C668 C670 1.419 . S
C668 H672 0.930 . S
C669 C668 1.369 . S
C669 C678 1.429 . S
C670 C668 1.419 . S
C670 C671 1.363 . S
C670 H673 0.929 . S
C671 C670 1.363 . S
C671 C677 1.428 . S
H672 C668 0.930 . S
H673 C670 0.929 . S
S674 N675 1.613 . S
S674 N676 1.610 . S
N675 S674 1.613 . S
N675 C678 1.350 . S
N676 S674 1.610 . S
N676 C677 1.351 . S
C677 C671 1.428 . S
C677 N676 1.351 . S
C677 C678 1.434 . S
C678 C669 1.429 . S
C678 N675 1.350 . S
C678 C677 1.434 . S
C679 C680 1.369 . S
C679 C681 1.419 . S
C679 H683 0.930 . S
C680 C679 1.369 . S
C680 C689 1.429 . S
C681 C679 1.419 . S
C681 C682 1.363 . S
C681 H684 0.929 . S
C682 C681 1.363 . S
C682 C688 1.428 . S
H683 C679 0.930 . S
H684 C681 0.929 . S
S685 N686 1.613 . S
S685 N687 1.610 . S
N686 S685 1.613 . S
N686 C689 1.350 . S
N687 S685 1.610 . S
N687 C688 1.351 . S
C688 C682 1.428 . S
C688 N687 1.351 . S
C688 C689 1.434 . S
C689 C680 1.429 . S
C689 N686 1.350 . S
C689 C688 1.434 . S
C427 C7 1.888 . S
C429 C159 1.871 . S
C438 C30 1.649 . S
C440 C216 1.645 . S
C451 C270 1.747 . S
C449 N58 1.717 . S
C462 C327 1.472 . S
C460 N81 1.444 . S
C473 C351 1.776 . S
C471 C99 1.792 . S
C484 C408 1.596 . S
C482 N127 1.514 . S
C493 N25 1.744 . S
C495 C255 1.773 . S
C504 C62 1.651 . S
C506 C312 1.644 . S
C517 C366 1.793 . S
C515 C85 1.831 . S
C528 C423 1.527 . S
C526 N94 1.559 . S
C537 C131 1.843 . S
C539 C174 1.792 . S
C550 C231 1.466 . S
C548 N2 1.478 . S
C561 C318 1.813 . S
C559 C16 1.829 . S
C570 C39 1.598 . S
C572 C360 1.554 . S
C583 C399 1.727 . S
C581 N48 1.716 . S
C592 N71 1.448 . S
C594 C168 1.448 . S
C603 C108 1.768 . S
C605 C207 1.753 . S
C614 N117 1.519 . S
C616 C279 1.578 . S
C625 N35 1.703 . S
C627 C414 1.757 . S
C638 C183 1.641 . S
C636 C53 1.637 . S
C647 C76 1.860 . S
C649 C222 1.842 . S
C658 N104 1.500 . S
C660 C264 1.503 . S
C669 C122 1.762 . S
C671 C303 1.734 . S
C680 N12 1.420 . S
C682 C375 1.494 . S
