# Generated by pormake.
# Topology dag, (6,3)-cn, num edge types: 1
# Building blocks:
#     Node 0, Type 0, BuildingBlock: IZENUY_clean_sbu_0, # of connection points: 6
#     Node 1, Type 0, BuildingBlock: IZENUY_clean_sbu_0, # of connection points: 6
#     Node 2, Type 0, BuildingBlock: IZENUY_clean_sbu_0, # of connection points: 6
#     Node 3, Type 0, BuildingBlock: IZENUY_clean_sbu_0, # of connection points: 6
#     Node 4, Type 1, BuildingBlock: INOVEN_clean_linker_0, # of connection points: 3
#     Node 5, Type 1, BuildingBlock: INOVEN_clean_linker_0, # of connection points: 3
#     Node 6, Type 1, BuildingBlock: INOVEN_clean_linker_0, # of connection points: 3
#     Node 7, Type 1, BuildingBlock: INOVEN_clean_linker_0, # of connection points: 3
#     Node 8, Type 1, BuildingBlock: INOVEN_clean_linker_0, # of connection points: 3
#     Node 9, Type 1, BuildingBlock: INOVEN_clean_linker_0, # of connection points: 3
#     Node 10, Type 1, BuildingBlock: INOVEN_clean_linker_0, # of connection points: 3
#     Node 11, Type 1, BuildingBlock: INOVEN_clean_linker_0, # of connection points: 3
#     Edge 12, Type (0, 1), BuildingBlock: EZIPEK_clean_linker_0, # of connection points: 2
#     Edge 13, Type (0, 1), BuildingBlock: EZIPEK_clean_linker_0, # of connection points: 2
#     Edge 14, Type (0, 1), BuildingBlock: EZIPEK_clean_linker_0, # of connection points: 2
#     Edge 15, Type (0, 1), BuildingBlock: EZIPEK_clean_linker_0, # of connection points: 2
#     Edge 16, Type (0, 1), BuildingBlock: EZIPEK_clean_linker_0, # of connection points: 2
#     Edge 17, Type (0, 1), BuildingBlock: EZIPEK_clean_linker_0, # of connection points: 2
#     Edge 18, Type (0, 1), BuildingBlock: EZIPEK_clean_linker_0, # of connection points: 2
#     Edge 19, Type (0, 1), BuildingBlock: EZIPEK_clean_linker_0, # of connection points: 2
#     Edge 20, Type (0, 1), BuildingBlock: EZIPEK_clean_linker_0, # of connection points: 2
#     Edge 21, Type (0, 1), BuildingBlock: EZIPEK_clean_linker_0, # of connection points: 2
#     Edge 22, Type (0, 1), BuildingBlock: EZIPEK_clean_linker_0, # of connection points: 2
#     Edge 23, Type (0, 1), BuildingBlock: EZIPEK_clean_linker_0, # of connection points: 2
#     Edge 24, Type (0, 1), BuildingBlock: EZIPEK_clean_linker_0, # of connection points: 2
#     Edge 25, Type (0, 1), BuildingBlock: EZIPEK_clean_linker_0, # of connection points: 2
#     Edge 26, Type (0, 1), BuildingBlock: EZIPEK_clean_linker_0, # of connection points: 2
#     Edge 27, Type (0, 1), BuildingBlock: EZIPEK_clean_linker_0, # of connection points: 2
#     Edge 28, Type (0, 1), BuildingBlock: EZIPEK_clean_linker_0, # of connection points: 2
#     Edge 29, Type (0, 1), BuildingBlock: EZIPEK_clean_linker_0, # of connection points: 2
#     Edge 30, Type (0, 1), BuildingBlock: EZIPEK_clean_linker_0, # of connection points: 2
#     Edge 31, Type (0, 1), BuildingBlock: EZIPEK_clean_linker_0, # of connection points: 2
#     Edge 32, Type (0, 1), BuildingBlock: EZIPEK_clean_linker_0, # of connection points: 2
#     Edge 33, Type (0, 1), BuildingBlock: EZIPEK_clean_linker_0, # of connection points: 2
#     Edge 34, Type (0, 1), BuildingBlock: EZIPEK_clean_linker_0, # of connection points: 2
#     Edge 35, Type (0, 1), BuildingBlock: EZIPEK_clean_linker_0, # of connection points: 2
# Relax obj value: 0.096
# Max RMSD: 0.113
# Mean RMSD: 0.097
data_MOF--net-dag--node1-IZENUY_clean_sbu_0--node2-INOVEN_clean_linker_0--edge1-EZIPEK_clean_linker_0
_symmetry_space_group_name_H-M    P1
_symmetry_Int_Tables_number       1
_symmetry_cell_setting            triclinic
loop_
_symmetry_equiv_pos_as_xyz
'x, y, z'
_cell_length_a     28.085528
_cell_length_b     30.211115
_cell_length_c     26.063652
_cell_angle_alpha  93.710741
_cell_angle_beta   90.156377
_cell_angle_gamma 89.850929
loop_
_atom_site_label
_atom_site_type_symbol
_atom_site_fract_x
_atom_site_fract_y
_atom_site_fract_z
_atom_type_partial_charge
Fe0 Fe 0.2121 0.87077 0.05997 0.0
Fe1 Fe 0.10777 0.89465 0.03872 0.0
O2 O 0.1523 0.854 0.04653 0.0
Fe3 Fe 0.13711 0.79662 0.0408 0.0
O4 O 0.18112 0.7803 0.08876 0.0
O5 O 0.21265 0.84324 0.11972 0.0
O6 O 0.1963 0.92211 0.09798 0.0
C7 C 0.15771 0.93422 0.11954 0.0
C8 C 0.22222 0.79624 0.98956 0.0
O9 O 0.11821 0.91997 0.10264 0.0
C10 C 0.08114 0.83306 0.96248 0.0
O11 O 0.21629 0.89961 0.00113 0.0
O12 O 0.14725 0.93383 0.00932 0.0
O13 O 0.17865 0.78624 0.98798 0.0
O14 O 0.23893 0.82284 0.02437 0.0
C15 C 0.0605 0.83065 0.09489 0.0
O16 O 0.0938 0.87238 0.97424 0.0
O17 O 0.09008 0.8023 0.99195 0.0
C18 C 0.18778 0.92934 0.98868 0.0
O19 O 0.06006 0.86311 0.06668 0.0
O20 O 0.09426 0.80297 0.09312 0.0
C21 C 0.2033 0.80285 0.12385 0.0
Fe22 Fe 0.71365 0.62533 0.48723 0.0
Fe23 Fe 0.6366 0.69701 0.51068 0.0
O24 O 0.65439 0.64049 0.50485 0.0
Fe25 Fe 0.61293 0.59823 0.51664 0.0
O26 O 0.64893 0.58031 0.56964 0.0
O27 O 0.71513 0.57671 0.52578 0.0
O28 O 0.73785 0.65634 0.54245 0.0
C29 C 0.72945 0.6964 0.55564 0.0
C30 C 0.66495 0.56047 0.43184 0.0
O31 O 0.69405 0.71692 0.538 0.0
C32 C 0.5589 0.65258 0.45877 0.0
O33 O 0.72371 0.67186 0.44676 0.0
O34 O 0.6547 0.70596 0.44528 0.0
O35 O 0.63968 0.55635 0.47132 0.0
O36 O 0.69357 0.59247 0.43008 0.0
C37 C 0.58587 0.66659 0.5909 0.0
O38 O 0.57651 0.68585 0.48427 0.0
O39 O 0.57492 0.61402 0.46459 0.0
C40 C 0.69588 0.69925 0.42748 0.0
O41 O 0.61623 0.6939 0.57685 0.0
O42 O 0.5773 0.63144 0.5637 0.0
C43 C 0.69218 0.56868 0.56579 0.0
Fe44 Fe 0.86533 0.20109 0.00425 0.0
Fe45 Fe 0.89111 0.10262 0.00626 0.0
O46 O 0.84789 0.14443 -0.00076 0.0
Fe47 Fe 0.78741 0.12966 0.98759 0.0
O48 O 0.78652 0.1573 0.92778 0.0
O49 O 0.82067 0.21909 0.95827 0.0
O50 O 0.90618 0.19317 0.95043 0.0
C51 C 0.93957 0.16517 0.94893 0.0
C52 C 0.78167 0.20658 0.05667 0.0
O53 O 0.93961 0.13308 0.97777 0.0
C54 C 0.81107 0.07002 0.05805 0.0
O55 O 0.91314 0.19384 0.05144 0.0
O56 O 0.90584 0.1244 0.0705 0.0
O57 O 0.76323 0.17887 0.02384 0.0
O58 O 0.82598 0.2128 0.05826 0.0
C59 C 0.83905 0.06462 0.92676 0.0
O60 O 0.85083 0.06423 0.03601 0.0
O61 O 0.78351 0.10088 0.04666 0.0
C62 C 0.91973 0.16337 0.08181 0.0
O63 O 0.87917 0.07806 0.94258 0.0
O64 O 0.80103 0.07778 0.94906 0.0
C65 C 0.7966 0.1976 0.92403 0.0
Fe66 Fe 0.37235 0.40291 0.52971 0.0
Fe67 Fe 0.27729 0.36624 0.56361 0.0
O68 O 0.33687 0.35734 0.54337 0.0
Fe69 Fe 0.36168 0.30324 0.5382 0.0
O70 O 0.42267 0.32081 0.55621 0.0
O71 O 0.41334 0.39058 0.58052 0.0
O72 O 0.34377 0.44194 0.57647 0.0
C73 C 0.32279 0.4341 0.61759 0.0
C74 C 0.40112 0.33624 0.4542 0.0
O75 O 0.29619 0.40079 0.6198 0.0
C76 C 0.26806 0.29188 0.49952 0.0
O77 O 0.33243 0.4178 0.47882 0.0
O78 O 0.26753 0.41488 0.52515 0.0
O79 O 0.37441 0.30681 0.47039 0.0
O80 O 0.40819 0.37232 0.48045 0.0
C81 C 0.31008 0.29892 0.62596 0.0
O82 O 0.25517 0.33163 0.50929 0.0
O83 O 0.30547 0.27634 0.51877 0.0
C84 C 0.28929 0.42814 0.4864 0.0
O85 O 0.27659 0.31964 0.60535 0.0
O86 O 0.35076 0.2958 0.60572 0.0
C87 C 0.4372 0.3554 0.58136 0.0
H88 H 0.05216 0.19556 0.29731 0.0
H89 H 0.05221 0.07814 0.19558 0.0
H90 H 0.15817 0.09407 0.31397 0.0
N91 N 0.12873 0.17628 0.34903 0.0
N92 N 0.16476 0.16515 0.37301 0.0
C93 C 0.06566 0.16251 0.28713 0.0
C94 C 0.04634 0.13767 0.24502 0.0
C95 C 0.10545 0.14676 0.31287 0.0
C96 C 0.12557 0.10535 0.29668 0.0
C97 C 0.10606 0.08046 0.25453 0.0
C98 C 0.06575 0.09624 0.22988 0.0
H99 H 0.33002 0.59472 0.79887 0.0
H100 H 0.43813 0.58585 0.68244 0.0
H101 H 0.42956 0.70183 0.78696 0.0
N102 N 0.35034 0.67429 0.83688 0.0
N103 N 0.35457 0.715 0.84664 0.0
C104 C 0.36108 0.60848 0.78115 0.0
C105 C 0.38234 0.58547 0.73896 0.0
C106 C 0.37726 0.65057 0.79827 0.0
C107 C 0.41696 0.66903 0.77443 0.0
C108 C 0.43955 0.64523 0.7331 0.0
C109 C 0.42192 0.60358 0.71547 0.0
H110 H 0.75016 0.90557 0.20883 0.0
H111 H 0.8834 0.91624 0.12923 0.0
H112 H 0.85962 0.8064 0.22199 0.0
N113 N 0.77129 0.83115 0.25348 0.0
N114 N 0.78811 0.80182 0.27983 0.0
C115 C 0.78498 0.89232 0.19854 0.0
C116 C 0.81473 0.9152 0.16606 0.0
C117 C 0.8009 0.85307 0.21909 0.0
C118 C 0.8466 0.83651 0.20631 0.0
C119 C 0.8761 0.85897 0.17364 0.0
C120 C 0.86011 0.89829 0.15368 0.0
H121 H 0.75838 0.39375 0.70626 0.0
H122 H 0.63686 0.41696 0.61161 0.0
H123 H 0.6347 0.31021 0.71259 0.0
N124 N 0.72522 0.32222 0.7472 0.0
N125 N 0.70775 0.28797 0.76351 0.0
C126 C 0.72365 0.38366 0.69162 0.0
C127 C 0.69979 0.40947 0.6569 0.0
C128 C 0.70124 0.34642 0.71007 0.0
C129 C 0.65386 0.33647 0.69524 0.0
C130 C 0.63048 0.36174 0.65946 0.0
C131 C 0.65493 0.39661 0.63851 0.0
H132 H 0.55789 0.2927 0.26468 0.0
H133 H 0.55754 0.41156 0.36469 0.0
H134 H 0.66866 0.38994 0.25289 0.0
N135 N 0.63688 0.30969 0.21548 0.0
N136 N 0.66489 0.32371 0.18338 0.0
C137 C 0.57336 0.32455 0.27672 0.0
C138 C 0.55222 0.3512 0.31627 0.0
C139 C 0.61486 0.33859 0.25314 0.0
C140 C 0.63559 0.37948 0.26962 0.0
C141 C 0.61509 0.40561 0.31015 0.0
C142 C 0.57311 0.39164 0.33288 0.0
H143 H 0.25236 0.09477 0.84167 0.0
H144 H 0.11731 0.0839 0.91727 0.0
H145 H 0.14434 0.19509 0.82742 0.0
N146 N 0.23332 0.16949 0.79793 0.0
N147 N 0.22251 0.20605 0.78154 0.0
C148 C 0.21749 0.10825 0.85138 0.0
C149 C 0.18687 0.08524 0.88262 0.0
C150 C 0.20272 0.14815 0.83172 0.0
C151 C 0.1568 0.16486 0.84329 0.0
C152 C 0.1261 0.14177 0.87418 0.0
C153 C 0.14134 0.10215 0.89394 0.0
H154 H 0.23834 0.60193 0.34344 0.0
H155 H 0.36532 0.57725 0.43012 0.0
H156 H 0.35968 0.68853 0.33618 0.0
N157 N 0.27018 0.67374 0.30041 0.0
N158 N 0.28601 0.70979 0.28703 0.0
C159 C 0.27397 0.61149 0.35568 0.0
C160 C 0.29923 0.58559 0.38953 0.0
C161 C 0.29518 0.64916 0.33671 0.0
C162 C 0.34211 0.66045 0.35167 0.0
C163 C 0.36736 0.63464 0.38533 0.0
C164 C 0.34555 0.59765 0.40468 0.0
H165 H 0.83866 0.90621 0.73563 0.0
H166 H 0.94554 0.91543 0.85365 0.0
H167 H 0.93786 0.7987 0.75084 0.0
N168 N 0.85948 0.82611 0.69905 0.0
N169 N 0.86307 0.78506 0.692 0.0
C170 C 0.87036 0.89304 0.75302 0.0
C171 C 0.89119 0.91614 0.79547 0.0
C172 C 0.88689 0.85077 0.73651 0.0
C173 C 0.92599 0.83213 0.76175 0.0
C174 C 0.94782 0.85599 0.80348 0.0
C175 C 0.93061 0.89811 0.81955 0.0
C176 C 0.16429 0.01558 0.14492 0.0
C177 C 0.15754 0.97152 0.15928 0.0
C178 C 0.12762 0.99935 0.24343 0.0
C179 C 0.13261 0.0432 0.22811 0.0
N180 N 0.17023 0.09345 0.17283 0.0
N181 N 0.14967 0.92194 0.22726 0.0
C182 C 0.15622 0.05134 0.18174 0.0
C183 C 0.14467 0.96353 0.21037 0.0
N184 N 0.1755 0.02349 0.09542 0.0
N185 N 0.10475 0.9919 0.28819 0.0
H186 H 0.16346 0.89564 0.20386 0.0
H187 H 0.14435 0.91461 0.26532 0.0
H188 H 0.09322 0.01767 0.3138 0.0
H189 H 0.09516 0.96039 0.29847 0.0
H190 H 0.175 0.05491 0.08117 0.0
H191 H 0.18238 0.99821 0.06753 0.0
H192 H 0.19123 0.10098 0.14172 0.0
H193 H 0.1649 0.12026 0.1995 0.0
C194 C 0.56457 0.66521 0.6839 0.0
C195 C 0.55303 0.67838 0.63441 0.0
C196 C 0.46914 0.68675 0.65955 0.0
C197 C 0.47945 0.66451 0.7046 0.0
N198 N 0.53661 0.63462 0.76223 0.0
N199 N 0.4976 0.71125 0.57801 0.0
C200 C 0.52726 0.65514 0.71809 0.0
C201 C 0.50622 0.69272 0.62348 0.0
N202 N 0.61124 0.66324 0.69808 0.0
N203 N 0.42381 0.70142 0.65133 0.0
H204 H 0.52538 0.72041 0.55457 0.0
H205 H 0.46396 0.71831 0.56392 0.0
H206 H 0.39619 0.69735 0.67727 0.0
H207 H 0.41368 0.71971 0.62067 0.0
H208 H 0.62265 0.65686 0.73492 0.0
H209 H 0.63834 0.6726 0.67374 0.0
H210 H 0.56996 0.62218 0.77137 0.0
H211 H 0.51018 0.6283 0.78884 0.0
C212 C 0.76701 0.00159 0.07896 0.0
C213 C 0.79682 0.03749 0.09538 0.0
C214 C 0.82191 0.99773 0.16995 0.0
C215 C 0.80065 0.95871 0.14713 0.0
N216 N 0.75163 0.92271 0.08093 0.0
N217 N 0.84734 0.07341 0.15957 0.0
C218 C 0.77182 0.9606 0.10253 0.0
C219 C 0.82208 0.03684 0.14243 0.0
N220 N 0.73471 0.00667 0.04053 0.0
N221 N 0.84207 0.99696 0.2177 0.0
H222 H 0.84426 0.10332 0.14203 0.0
H223 H 0.87146 0.07412 0.18999 0.0
H224 H 0.84212 0.96862 0.23857 0.0
H225 H 0.85539 0.02486 0.23837 0.0
H226 H 0.70916 0.98301 0.02946 0.0
H227 H 0.7309 0.03639 0.02268 0.0
H228 H 0.73517 0.92072 0.04502 0.0
H229 H 0.75362 0.89239 0.09783 0.0
C230 C 0.50868 0.31548 0.61742 0.0
C231 C 0.48502 0.35593 0.60712 0.0
C232 C 0.54983 0.39551 0.65218 0.0
C233 C 0.57862 0.35694 0.64829 0.0
N234 N 0.5856 0.27962 0.6185 0.0
N235 N 0.49552 0.43615 0.60264 0.0
C236 C 0.55822 0.3165 0.62854 0.0
C237 C 0.5086 0.39672 0.62149 0.0
N238 N 0.48428 0.27661 0.61931 0.0
N239 N 0.56248 0.43138 0.68373 0.0
H240 H 0.4726 0.43885 0.5716 0.0
H241 H 0.51414 0.46547 0.6118 0.0
H242 H 0.59171 0.43071 0.70848 0.0
H243 H 0.54062 0.45926 0.68928 0.0
H244 H 0.50062 0.24736 0.6294 0.0
H245 H 0.44726 0.27496 0.61886 0.0
H246 H 0.57205 0.25067 0.6 0.0
H247 H 0.62237 0.27936 0.62389 0.0
C248 C 0.6459 0.52649 0.34347 0.0
C249 C 0.66657 0.52244 0.39263 0.0
C250 C 0.66872 0.44145 0.37686 0.0
C251 C 0.63952 0.44558 0.33303 0.0
N252 N 0.60104 0.49093 0.27256 0.0
N253 N 0.70427 0.4771 0.45362 0.0
C254 C 0.62915 0.48782 0.31508 0.0
C255 C 0.68058 0.4801 0.40817 0.0
N256 N 0.64223 0.5672 0.32409 0.0
N257 N 0.68487 0.40047 0.38834 0.0
H258 H 0.718 0.50491 0.47403 0.0
H259 H 0.70998 0.44768 0.47138 0.0
H260 H 0.67631 0.37154 0.36626 0.0
H261 H 0.70941 0.39511 0.41725 0.0
H262 H 0.63206 0.57208 0.28643 0.0
H263 H 0.65248 0.59611 0.34498 0.0
H264 H 0.58706 0.52069 0.26111 0.0
H265 H 0.58961 0.46317 0.24999 0.0
C266 C 0.01852 0.20039 0.93594 0.0
C267 C 0.98238 0.17102 0.91715 0.0
C268 C 0.03887 0.13418 0.85695 0.0
C269 C 0.07647 0.15705 0.88354 0.0
N270 N 0.10328 0.21244 0.94787 0.0
N271 N 0.95531 0.11366 0.8561 0.0
C272 C 0.06663 0.19108 0.92218 0.0
C273 C 0.99167 0.13946 0.87583 0.0
N274 N 0.00678 0.23663 0.96745 0.0
N275 N 0.04861 0.10747 0.81387 0.0
H276 H 0.92005 0.11976 0.86677 0.0
H277 H 0.95989 0.08615 0.83043 0.0
H278 H 0.08299 0.1032 0.79925 0.0
H279 H 0.02261 0.09232 0.79031 0.0
H280 H 0.03089 0.26141 0.97915 0.0
H281 H 0.97176 0.24384 0.97827 0.0
H282 H 0.09863 0.23362 0.98061 0.0
H283 H 0.13893 0.20694 0.93826 0.0
C284 C 0.25091 0.50358 0.48039 0.0
C285 C 0.26919 0.46396 0.4557 0.0
C286 C 0.28741 0.50332 0.37899 0.0
C287 C 0.27912 0.54407 0.40784 0.0
N288 N 0.24983 0.58411 0.48425 0.0
N289 N 0.28166 0.42288 0.37551 0.0
C290 C 0.25892 0.5445 0.45771 0.0
C291 C 0.28002 0.4629 0.40277 0.0
N292 N 0.22415 0.50183 0.52379 0.0
N293 N 0.30551 0.50343 0.33037 0.0
H294 H 0.27381 0.3936 0.39286 0.0
H295 H 0.28572 0.41905 0.33579 0.0
H296 H 0.31007 0.53246 0.31137 0.0
H297 H 0.31783 0.47511 0.30964 0.0
H298 H 0.20738 0.52931 0.54193 0.0
H299 H 0.21298 0.47198 0.53746 0.0
H300 H 0.24116 0.58704 0.52314 0.0
H301 H 0.25318 0.61448 0.46767 0.0
C302 C 0.06533 0.83013 0.86766 0.0
C303 C 0.0482 0.82522 0.91806 0.0
C304 C 0.96669 0.82031 0.8843 0.0
C305 C 0.98307 0.83528 0.83715 0.0
N306 N 0.04784 0.8537 0.78229 0.0
N307 N 0.98177 0.81622 0.97507 0.0
C308 C 0.03251 0.83925 0.82795 0.0
C309 C 0.99868 0.81942 0.92644 0.0
N310 N 0.11283 0.82535 0.85789 0.0
N311 N 0.92019 0.80796 0.8889 0.0
H312 H 0.00402 0.81502 0.00675 0.0
H313 H 0.94576 0.81765 0.9845 0.0
H314 H 0.89598 0.80865 0.85852 0.0
H315 H 0.9069 0.79303 0.92078 0.0
H316 H 0.12742 0.8253 0.8212 0.0
H317 H 0.13695 0.81715 0.88631 0.0
H318 H 0.08303 0.86235 0.77547 0.0
H319 H 0.02458 0.859 0.75197 0.0
C320 C 0.85311 0.03387 0.83708 0.0
C321 C 0.83828 0.02684 0.88777 0.0
C322 C 0.84138 0.9467 0.86796 0.0
C323 C 0.86627 0.95415 0.82212 0.0
N324 N 0.8958 0.00435 0.76159 0.0
N325 N 0.81856 0.97627 0.95251 0.0
C326 C 0.8715 0.99762 0.80571 0.0
C327 C 0.83148 0.98313 0.90323 0.0
N328 N 0.84885 0.0751 0.81908 0.0
N329 N 0.82763 0.9047 0.8778 0.0
H330 H 0.8098 0.00206 0.97901 0.0
H331 H 0.81922 0.94533 0.96797 0.0
H332 H 0.83443 0.8772 0.85257 0.0
H333 H 0.80554 0.89773 0.90827 0.0
H334 H 0.85572 0.08197 0.78116 0.0
H335 H 0.83391 0.10149 0.84136 0.0
H336 H 0.90541 0.03567 0.75071 0.0
H337 H 0.90869 0.97827 0.73727 0.0
C338 C 0.47508 0.30205 0.41715 0.0
C339 C 0.43252 0.3261 0.40963 0.0
C340 C 0.46429 0.35275 0.32991 0.0
C341 C 0.50956 0.33609 0.34317 0.0
N342 N 0.55932 0.29444 0.3983 0.0
N343 N 0.38357 0.37054 0.35755 0.0
C344 C 0.51515 0.30977 0.38591 0.0
C345 C 0.42598 0.34973 0.36498 0.0
N346 N 0.47723 0.27239 0.45451 0.0
N347 N 0.4584 0.37171 0.28408 0.0
H348 H 0.35431 0.36585 0.3811 0.0
H349 H 0.37759 0.39281 0.32938 0.0
H350 H 0.48618 0.3744 0.25796 0.0
H351 H 0.42565 0.38174 0.27009 0.0
H352 H 0.50595 0.25123 0.45939 0.0
H353 H 0.44819 0.26564 0.47747 0.0
H354 H 0.56703 0.27999 0.43255 0.0
H355 H 0.58925 0.29838 0.37546 0.0
C356 C 0.17761 0.9639 0.90499 0.0
C357 C 0.20215 0.96262 0.95247 0.0
C358 C 0.2278 0.03948 0.94687 0.0
C359 C 0.20032 0.04166 0.90138 0.0
N360 N 0.16095 0.00397 0.82909 0.0
N361 N 0.26277 0.99317 0.00983 0.0
C362 C 0.17939 0.00296 0.8776 0.0
C363 C 0.23175 0.99836 0.9702 0.0
N364 N 0.15111 0.92825 0.88737 0.0
N365 N 0.24744 0.07725 0.96948 0.0
H366 H 0.26587 0.96356 0.028 0.0
H367 H 0.28816 0.01671 0.02175 0.0
H368 H 0.24614 0.10768 0.95276 0.0
H369 H 0.26271 0.07906 0.006 0.0
H370 H 0.12741 0.92855 0.85663 0.0
H371 H 0.15204 0.89835 0.90508 0.0
H372 H 0.14844 0.97609 0.80773 0.0
H373 H 0.16192 0.03237 0.80834 0.0
C374 C 0.50237 0.62285 0.38964 0.0
C375 C 0.51391 0.65673 0.4279 0.0
C376 C 0.43087 0.6815 0.4301 0.0
C377 C 0.41824 0.64417 0.3971 0.0
N378 N 0.44152 0.58131 0.34085 0.0
N379 N 0.49376 0.73188 0.45783 0.0
C380 C 0.45402 0.61566 0.37499 0.0
C381 C 0.4797 0.69036 0.44044 0.0
N382 N 0.53847 0.6001 0.3648 0.0
N383 N 0.39627 0.70747 0.45343 0.0
H384 H 0.52921 0.74184 0.45806 0.0
H385 H 0.47013 0.7583 0.4641 0.0
H386 H 0.36 0.70219 0.44695 0.0
H387 H 0.40355 0.73187 0.48248 0.0
H388 H 0.53399 0.57639 0.33446 0.0
H389 H 0.57383 0.60904 0.37132 0.0
H390 H 0.46458 0.55602 0.32795 0.0
H391 H 0.4071 0.57712 0.32624 0.0
C392 C 0.36961 0.46439 0.69313 0.0
C393 C 0.32844 0.46662 0.66181 0.0
C394 C 0.31867 0.54528 0.68688 0.0
C395 C 0.36103 0.54372 0.71669 0.0
N396 N 0.42039 0.50088 0.75849 0.0
N397 N 0.25577 0.50352 0.64194 0.0
C398 C 0.38439 0.50281 0.72328 0.0
C399 C 0.30019 0.50531 0.6633 0.0
N400 N 0.39535 0.42594 0.69238 0.0
N401 N 0.29783 0.58512 0.67841 0.0
H402 H 0.24155 0.47391 0.6258 0.0
H403 H 0.23152 0.52969 0.64512 0.0
H404 H 0.31044 0.61535 0.69449 0.0
H405 H 0.27015 0.58861 0.6523 0.0
H406 H 0.42904 0.42336 0.70866 0.0
H407 H 0.38315 0.39652 0.67379 0.0
H408 H 0.43639 0.47149 0.76832 0.0
H409 H 0.43192 0.52864 0.781 0.0
C410 C 0.98127 0.79698 0.11062 0.0
C411 C 0.01854 0.82544 0.12825 0.0
C412 C 0.96392 0.86507 0.18839 0.0
C413 C 0.92529 0.84305 0.16269 0.0
N414 N 0.89602 0.78727 0.10012 0.0
N415 N 0.04835 0.88212 0.18836 0.0
C416 C 0.93361 0.80804 0.12474 0.0
C417 C 0.01077 0.8577 0.16923 0.0
N418 N 0.99162 0.75981 0.08006 0.0
N419 N 0.95556 0.89287 0.23095 0.0
H420 H 0.0832 0.87417 0.17759 0.0
H421 H 0.04524 0.91006 0.21365 0.0
H422 H 0.92148 0.8988 0.24574 0.0
H423 H 0.98228 0.9075 0.25391 0.0
H424 H 0.96662 0.73562 0.06908 0.0
H425 H 0.02643 0.75142 0.0694 0.0
H426 H 0.89967 0.76519 0.06801 0.0
H427 H 0.86066 0.79416 0.10991 0.0
C428 C 0.74653 0.50455 0.58493 0.0
C429 C 0.71169 0.53636 0.60194 0.0
C430 C 0.69341 0.491 0.67387 0.0
C431 C 0.71577 0.45459 0.64651 0.0
N432 N 0.76716 0.42651 0.57821 0.0
N433 N 0.66491 0.5669 0.67288 0.0
C434 C 0.74419 0.46142 0.60316 0.0
C435 C 0.68958 0.53196 0.65026 0.0
N436 N 0.78284 0.51595 0.55378 0.0
N437 N 0.67517 0.48562 0.72163 0.0
H438 H 0.66708 0.5984 0.65913 0.0
H439 H 0.64325 0.56519 0.70498 0.0
H440 H 0.67827 0.45581 0.73947 0.0
H441 H 0.65997 0.51095 0.7451 0.0
H442 H 0.81038 0.49426 0.54264 0.0
H443 H 0.78928 0.54874 0.54571 0.0
H444 H 0.78378 0.42873 0.54276 0.0
H445 H 0.76739 0.39486 0.59207 0.0
C446 C 0.00147 0.1737 0.11946 0.0
C447 C 0.95156 0.1707 0.12669 0.0
C448 C 0.96344 0.15703 0.21728 0.0
C449 C 0.01321 0.15809 0.20925 0.0
N450 N 0.07917 0.18225 0.15933 0.0
N451 N 0.8852 0.17536 0.18487 0.0
C452 C 0.03199 0.17182 0.16252 0.0
C453 C 0.93255 0.16764 0.17659 0.0
N454 N 0.01995 0.17521 0.07122 0.0
N455 N 0.94586 0.14388 0.26263 0.0
H456 H 0.86232 0.18408 0.15551 0.0
H457 H 0.86973 0.17701 0.22121 0.0
H458 H 0.96782 0.13719 0.29357 0.0
H459 H 0.90993 0.13749 0.26852 0.0
H460 H 0.05609 0.17176 0.06299 0.0
H461 H 0.99878 0.17698 0.03872 0.0
H462 H 0.09415 0.19614 0.1276 0.0
H463 H 0.10234 0.18121 0.19059 0.0
C464 C 0.27368 0.77028 0.16757 0.0
C465 C 0.22419 0.78005 0.16741 0.0
C466 C 0.21455 0.74394 0.24877 0.0
C467 C 0.26412 0.73441 0.24853 0.0
N468 N 0.34227 0.74654 0.21553 0.0
N469 N 0.14871 0.78334 0.21109 0.0
C470 C 0.29399 0.75032 0.21033 0.0
C471 C 0.19479 0.7686 0.20882 0.0
N472 N 0.30102 0.77854 0.12596 0.0
N473 N 0.18691 0.7309 0.28808 0.0
H474 H 0.1338 0.80239 0.18323 0.0
H475 H 0.12598 0.77961 0.24193 0.0
H476 H 0.20116 0.71903 0.3215 0.0
H477 H 0.14988 0.73145 0.28774 0.0
H478 H 0.33579 0.76712 0.12084 0.0
H479 H 0.28798 0.7942 0.09444 0.0
H480 H 0.36666 0.7617 0.19236 0.0
H481 H 0.35813 0.73102 0.2459 0.0
C482 C 0.76929 0.70627 0.64167 0.0
C483 C 0.76382 0.71999 0.59079 0.0
C484 C 0.83006 0.7723 0.60479 0.0
C485 C 0.8324 0.76135 0.6567 0.0
N486 N 0.80481 0.72037 0.72633 0.0
N487 N 0.78777 0.76639 0.52338 0.0
C488 C 0.80251 0.72857 0.6754 0.0
C489 C 0.79371 0.75335 0.57225 0.0
N490 N 0.7428 0.6718 0.65754 0.0
N491 N 0.86448 0.79883 0.58624 0.0
H492 H 0.76455 0.75064 0.49693 0.0
H493 H 0.80424 0.794 0.5095 0.0
H494 H 0.89272 0.81115 0.60897 0.0
H495 H 0.8678 0.80546 0.54775 0.0
H496 H 0.7486 0.65671 0.69178 0.0
H497 H 0.71593 0.65662 0.63519 0.0
H498 H 0.78076 0.70056 0.74461 0.0
H499 H 0.82985 0.73555 0.75134 0.0
C500 C 0.75767 0.28385 0.08921 0.0
C501 C 0.75008 0.23718 0.08778 0.0
C502 C 0.6762 0.25029 0.1358 0.0
C503 C 0.68956 0.29519 0.14674 0.0
N504 N 0.74428 0.35473 0.13579 0.0
N505 N 0.7054 0.17577 0.11834 0.0
C506 C 0.73065 0.31194 0.12378 0.0
C507 C 0.71021 0.22026 0.11348 0.0
N508 N 0.78846 0.30179 0.05579 0.0
N509 N 0.63054 0.23678 0.14323 0.0
H510 H 0.73083 0.15268 0.10508 0.0
H511 H 0.67885 0.16258 0.14067 0.0
H512 H 0.60294 0.25898 0.15247 0.0
H513 H 0.61885 0.2048 0.13238 0.0
H514 H 0.7916 0.33583 0.05237 0.0
H515 H 0.8068 0.28309 0.02731 0.0
H516 H 0.77699 0.36736 0.12498 0.0
H517 H 0.7241 0.37667 0.15954 0.0
C518 C 0.28839 0.29437 0.71839 0.0
C519 C 0.29822 0.27241 0.6698 0.0
C520 C 0.26009 0.20494 0.69633 0.0
C521 C 0.25119 0.22653 0.74525 0.0
N522 N 0.26214 0.28825 0.80649 0.0
N523 N 0.30435 0.20409 0.61675 0.0
C524 C 0.26715 0.27025 0.75734 0.0
C525 C 0.28803 0.22664 0.66036 0.0
N526 N 0.29836 0.33849 0.72665 0.0
N527 N 0.23852 0.1654 0.68268 0.0
H528 H 0.32452 0.21894 0.58916 0.0
H529 H 0.30179 0.1698 0.61028 0.0
H530 H 0.21566 0.14958 0.70702 0.0
H531 H 0.23933 0.15047 0.64554 0.0
H532 H 0.28722 0.35795 0.75881 0.0
H533 H 0.31678 0.35613 0.70003 0.0
H534 H 0.2766 0.31857 0.81971 0.0
H535 H 0.24608 0.27106 0.83529 0.0
C536 C 0.73732 0.7055 0.343 0.0
C537 C 0.71438 0.72678 0.38649 0.0
C538 C 0.73429 0.79965 0.35485 0.0
C539 C 0.76044 0.77782 0.31412 0.0
N540 N 0.79282 0.7113 0.27274 0.0
N541 N 0.69703 0.7946 0.43795 0.0
C542 C 0.76356 0.73113 0.30931 0.0
C543 C 0.71365 0.77406 0.39316 0.0
N544 N 0.7329 0.66078 0.33297 0.0
N545 N 0.73079 0.84486 0.35827 0.0
H546 H 0.68292 0.7778 0.46797 0.0
H547 H 0.70091 0.82832 0.44781 0.0
H548 H 0.75073 0.8652 0.33583 0.0
H549 H 0.7066 0.86235 0.38207 0.0
H550 H 0.74395 0.64402 0.2989 0.0
H551 H 0.71438 0.64079 0.35689 0.0
H552 H 0.8016 0.67773 0.27097 0.0
H553 H 0.81111 0.72914 0.24606 0.0
C554 C 0.79283 0.21625 0.83177 0.0
C555 C 0.7745 0.22182 0.8825 0.0
C556 C 0.7149 0.27448 0.85405 0.0
C557 C 0.73074 0.26601 0.80308 0.0
N558 N 0.78004 0.22618 0.74089 0.0
N559 N 0.71554 0.25314 0.94185 0.0
C560 C 0.76846 0.2361 0.79117 0.0
C561 C 0.73492 0.25029 0.89372 0.0
N562 N 0.83446 0.1935 0.82295 0.0
N563 N 0.68121 0.30657 0.8643 0.0
H564 H 0.72984 0.237 0.97231 0.0
H565 H 0.68359 0.2692 0.9511 0.0
H566 H 0.66508 0.3238 0.83543 0.0
H567 H 0.67153 0.31834 0.90122 0.0
H568 H 0.85201 0.19149 0.78776 0.0
H569 H 0.85365 0.17948 0.85217 0.0
H570 H 0.80407 0.20139 0.72882 0.0
H571 H 0.76282 0.24094 0.71081 0.0
C572 C 0.2101 0.22914 0.49039 0.0
C573 C 0.238 0.26152 0.46714 0.0
C574 C 0.21881 0.22818 0.38157 0.0
C575 C 0.18948 0.19719 0.40473 0.0
N576 N 0.1532 0.16864 0.47866 0.0
N577 N 0.26668 0.29497 0.39163 0.0
C578 C 0.18415 0.1977 0.45856 0.0
C579 C 0.24146 0.26211 0.4129 0.0
N580 N 0.20912 0.22821 0.54276 0.0
N581 N 0.2264 0.22359 0.3297 0.0
H582 H 0.28567 0.31901 0.4136 0.0
H583 H 0.26691 0.30012 0.35256 0.0
H584 H 0.21046 0.19856 0.30614 0.0
H585 H 0.25069 0.24229 0.31027 0.0
H586 H 0.19402 0.20279 0.56227 0.0
H587 H 0.22519 0.25245 0.56719 0.0
H588 H 0.1438 0.1693 0.51728 0.0
H589 H 0.13473 0.14484 0.45565 0.0
C590 C 0.2832 0.73789 0.96647 0.0
C591 C 0.25569 0.77459 0.95214 0.0
C592 C 0.29632 0.77292 0.86886 0.0
C593 C 0.32462 0.73725 0.88388 0.0
N594 N 0.35388 0.69274 0.95027 0.0
N595 N 0.2399 0.83137 0.89339 0.0
C596 C 0.32053 0.72159 0.93371 0.0
C597 C 0.26337 0.79341 0.90431 0.0
N598 N 0.27296 0.71812 0.01084 0.0
N599 N 0.29992 0.78587 0.81975 0.0
H600 H 0.2143 0.84622 0.9177 0.0
H601 H 0.24747 0.84956 0.86186 0.0
H602 H 0.32489 0.77208 0.79371 0.0
H603 H 0.27681 0.80827 0.80387 0.0
H604 H 0.2886 0.68863 0.02095 0.0
H605 H 0.24592 0.72931 0.03578 0.0
H606 H 0.35568 0.68291 0.98778 0.0
H607 H 0.38288 0.68219 0.92768 0.0
loop_
_geom_bond_atom_site_label_1
_geom_bond_atom_site_label_2
_geom_bond_distance
_geom_bond_site_symmetry_2
_ccdc_geom_bond_type
Fe0 O2 1.918 . S
Fe0 O5 1.997 . S
Fe0 O6 2.002 . S
Fe0 O11 1.976 . S
Fe0 O14 1.996 . S
Fe1 O2 1.918 . S
Fe1 O9 1.997 . S
Fe1 O12 1.984 1_554 S
Fe1 O16 1.976 1_554 S
Fe1 O19 2.002 . S
O2 Fe0 1.918 . S
O2 Fe1 1.918 . S
O2 Fe3 1.918 . S
Fe3 O2 1.918 . S
Fe3 O4 2.002 . S
Fe3 O13 1.976 1_554 S
Fe3 O17 1.996 1_554 S
Fe3 O20 1.997 . S
O4 Fe3 2.002 . S
O4 C21 1.295 . S
O5 Fe0 1.997 . S
O5 C21 1.235 . S
O6 Fe0 2.002 . S
O6 C7 1.295 . S
C7 O6 1.295 . S
C7 O9 1.235 . S
C8 O13 1.287 . S
C8 O14 1.255 1_556 S
O9 Fe1 1.997 . S
O9 C7 1.235 . S
C10 O16 1.287 . S
C10 O17 1.255 . S
O11 Fe0 1.976 . S
O11 C18 1.287 1_554 S
O12 Fe1 1.984 1_556 S
O12 C18 1.257 . S
O13 Fe3 1.976 1_556 S
O13 C8 1.287 . S
O14 Fe0 1.996 . S
O14 C8 1.255 1_554 S
C15 O19 1.295 . S
C15 O20 1.235 . S
O16 Fe1 1.976 1_556 S
O16 C10 1.287 . S
O17 Fe3 1.996 1_556 S
O17 C10 1.255 . S
C18 O11 1.287 1_556 S
C18 O12 1.257 . S
O19 Fe1 2.002 . S
O19 C15 1.295 . S
O20 Fe3 1.997 . S
O20 C15 1.235 . S
C21 O4 1.295 . S
C21 O5 1.235 . S
Fe22 O24 1.918 . S
Fe22 O27 1.997 . S
Fe22 O28 2.002 . S
Fe22 O33 1.976 . S
Fe22 O36 1.996 . S
Fe23 O24 1.918 . S
Fe23 O31 1.997 . S
Fe23 O34 1.996 . S
Fe23 O38 1.976 . S
Fe23 O41 2.002 . S
O24 Fe22 1.918 . S
O24 Fe23 1.918 . S
O24 Fe25 1.918 . S
Fe25 O24 1.918 . S
Fe25 O26 2.002 . S
Fe25 O35 1.976 . S
Fe25 O39 1.996 . S
Fe25 O42 1.997 . S
O26 Fe25 2.002 . S
O26 C43 1.295 . S
O27 Fe22 1.997 . S
O27 C43 1.235 . S
O28 Fe22 2.002 . S
O28 C29 1.295 . S
C29 O28 1.295 . S
C29 O31 1.235 . S
C30 O35 1.287 . S
C30 O36 1.255 . S
O31 Fe23 1.997 . S
O31 C29 1.235 . S
C32 O38 1.287 . S
C32 O39 1.255 . S
O33 Fe22 1.976 . S
O33 C40 1.287 . S
O34 Fe23 1.996 . S
O34 C40 1.255 . S
O35 Fe25 1.976 . S
O35 C30 1.287 . S
O36 Fe22 1.996 . S
O36 C30 1.255 . S
C37 O41 1.295 . S
C37 O42 1.235 . S
O38 Fe23 1.976 . S
O38 C32 1.287 . S
O39 Fe25 1.996 . S
O39 C32 1.255 . S
C40 O33 1.287 . S
C40 O34 1.255 . S
O41 Fe23 2.002 . S
O41 C37 1.295 . S
O42 Fe25 1.997 . S
O42 C37 1.235 . S
C43 O26 1.295 . S
C43 O27 1.235 . S
Fe44 O46 1.918 . S
Fe44 O49 1.997 1_554 S
Fe44 O50 2.002 1_554 S
Fe44 O55 1.976 . S
Fe44 O58 1.996 . S
Fe45 O46 1.918 . S
Fe45 O53 1.997 1_554 S
Fe45 O56 1.996 . S
Fe45 O60 1.976 . S
Fe45 O63 2.002 1_554 S
O46 Fe44 1.918 . S
O46 Fe45 1.918 . S
O46 Fe47 1.918 1_554 S
Fe47 O46 1.918 1_556 S
Fe47 O48 2.002 . S
Fe47 O57 1.976 1_556 S
Fe47 O61 1.996 1_556 S
Fe47 O64 1.997 . S
O48 Fe47 2.002 . S
O48 C65 1.295 . S
O49 Fe44 1.997 1_556 S
O49 C65 1.235 . S
O50 Fe44 2.002 1_556 S
O50 C51 1.295 . S
C51 O50 1.295 . S
C51 O53 1.235 . S
C52 O57 1.287 . S
C52 O58 1.255 . S
O53 Fe45 1.997 1_556 S
O53 C51 1.235 . S
C54 O60 1.287 . S
C54 O61 1.255 . S
O55 Fe44 1.976 . S
O55 C62 1.287 . S
O56 Fe45 1.996 . S
O56 C62 1.255 . S
O57 Fe47 1.976 1_554 S
O57 C52 1.287 . S
O58 Fe44 1.996 . S
O58 C52 1.255 . S
C59 O63 1.295 . S
C59 O64 1.235 . S
O60 Fe45 1.976 . S
O60 C54 1.287 . S
O61 Fe47 1.996 1_554 S
O61 C54 1.255 . S
C62 O55 1.287 . S
C62 O56 1.255 . S
O63 Fe45 2.002 1_556 S
O63 C59 1.295 . S
O64 Fe47 1.997 . S
O64 C59 1.235 . S
C65 O48 1.295 . S
C65 O49 1.235 . S
Fe66 O68 1.918 . S
Fe66 O71 1.997 . S
Fe66 O72 2.002 . S
Fe66 O77 1.976 . S
Fe66 O80 1.996 . S
Fe67 O68 1.918 . S
Fe67 O75 1.997 . S
Fe67 O78 1.996 . S
Fe67 O82 1.976 . S
Fe67 O85 2.002 . S
O68 Fe66 1.918 . S
O68 Fe67 1.918 . S
O68 Fe69 1.918 . S
Fe69 O68 1.918 . S
Fe69 O70 2.002 . S
Fe69 O79 1.976 . S
Fe69 O83 1.996 . S
Fe69 O86 1.997 . S
O70 Fe69 2.002 . S
O70 C87 1.295 . S
O71 Fe66 1.997 . S
O71 C87 1.235 . S
O72 Fe66 2.002 . S
O72 C73 1.295 . S
C73 O72 1.295 . S
C73 O75 1.235 . S
C74 O79 1.287 . S
C74 O80 1.255 . S
O75 Fe67 1.997 . S
O75 C73 1.235 . S
C76 O82 1.287 . S
C76 O83 1.255 . S
O77 Fe66 1.976 . S
O77 C84 1.287 . S
O78 Fe67 1.996 . S
O78 C84 1.255 . S
O79 Fe69 1.976 . S
O79 C74 1.287 . S
O80 Fe66 1.996 . S
O80 C74 1.255 . S
C81 O85 1.295 . S
C81 O86 1.235 . S
O82 Fe67 1.976 . S
O82 C76 1.287 . S
O83 Fe69 1.996 . S
O83 C76 1.255 . S
C84 O77 1.287 . S
C84 O78 1.255 . S
O85 Fe67 2.002 . S
O85 C81 1.295 . S
O86 Fe69 1.997 . S
O86 C81 1.235 . S
C87 O70 1.295 . S
C87 O71 1.235 . S
H88 C93 0.929 . S
H89 C98 0.931 . S
H90 C96 0.930 . S
N91 N92 1.234 . S
N91 C95 1.453 . S
N92 N91 1.234 . S
C93 H88 0.929 . S
C93 C94 1.373 . S
C93 C95 1.368 . S
C94 C93 1.373 . S
C94 C98 1.397 . S
C95 N91 1.453 . S
C95 C93 1.368 . S
C95 C96 1.373 . S
C96 H90 0.930 . S
C96 C95 1.373 . S
C96 C97 1.371 . S
C97 C96 1.371 . S
C97 C98 1.383 . S
C98 H89 0.931 . S
C98 C94 1.397 . S
C98 C97 1.383 . S
H99 C104 0.929 . S
H100 C109 0.931 . S
H101 C107 0.930 . S
N102 N103 1.234 . S
N102 C106 1.453 . S
N103 N102 1.234 . S
C104 H99 0.929 . S
C104 C105 1.373 . S
C104 C106 1.368 . S
C105 C104 1.373 . S
C105 C109 1.397 . S
C106 N102 1.453 . S
C106 C104 1.368 . S
C106 C107 1.373 . S
C107 H101 0.930 . S
C107 C106 1.373 . S
C107 C108 1.371 . S
C108 C107 1.371 . S
C108 C109 1.383 . S
C109 H100 0.931 . S
C109 C105 1.397 . S
C109 C108 1.383 . S
H110 C115 0.929 . S
H111 C120 0.931 . S
H112 C118 0.930 . S
N113 N114 1.234 . S
N113 C117 1.453 . S
N114 N113 1.234 . S
C115 H110 0.929 . S
C115 C116 1.373 . S
C115 C117 1.368 . S
C116 C115 1.373 . S
C116 C120 1.397 . S
C117 N113 1.453 . S
C117 C115 1.368 . S
C117 C118 1.373 . S
C118 H112 0.930 . S
C118 C117 1.373 . S
C118 C119 1.371 . S
C119 C118 1.371 . S
C119 C120 1.383 . S
C120 H111 0.931 . S
C120 C116 1.397 . S
C120 C119 1.383 . S
H121 C126 0.929 . S
H122 C131 0.931 . S
H123 C129 0.930 . S
N124 N125 1.234 . S
N124 C128 1.453 . S
N125 N124 1.234 . S
C126 H121 0.929 . S
C126 C127 1.373 . S
C126 C128 1.368 . S
C127 C126 1.373 . S
C127 C131 1.397 . S
C128 N124 1.453 . S
C128 C126 1.368 . S
C128 C129 1.373 . S
C129 H123 0.930 . S
C129 C128 1.373 . S
C129 C130 1.371 . S
C130 C129 1.371 . S
C130 C131 1.383 . S
C131 H122 0.931 . S
C131 C127 1.397 . S
C131 C130 1.383 . S
H132 C137 0.929 . S
H133 C142 0.931 . S
H134 C140 0.930 . S
N135 N136 1.234 . S
N135 C139 1.453 . S
N136 N135 1.234 . S
C137 H132 0.929 . S
C137 C138 1.373 . S
C137 C139 1.368 . S
C138 C137 1.373 . S
C138 C142 1.397 . S
C139 N135 1.453 . S
C139 C137 1.368 . S
C139 C140 1.373 . S
C140 H134 0.930 . S
C140 C139 1.373 . S
C140 C141 1.371 . S
C141 C140 1.371 . S
C141 C142 1.383 . S
C142 H133 0.931 . S
C142 C138 1.397 . S
C142 C141 1.383 . S
H143 C148 0.929 . S
H144 C153 0.931 . S
H145 C151 0.930 . S
N146 N147 1.234 . S
N146 C150 1.453 . S
N147 N146 1.234 . S
C148 H143 0.929 . S
C148 C149 1.373 . S
C148 C150 1.368 . S
C149 C148 1.373 . S
C149 C153 1.397 . S
C150 N146 1.453 . S
C150 C148 1.368 . S
C150 C151 1.373 . S
C151 H145 0.930 . S
C151 C150 1.373 . S
C151 C152 1.371 . S
C152 C151 1.371 . S
C152 C153 1.383 . S
C153 H144 0.931 . S
C153 C149 1.397 . S
C153 C152 1.383 . S
H154 C159 0.929 . S
H155 C164 0.931 . S
H156 C162 0.930 . S
N157 N158 1.234 . S
N157 C161 1.453 . S
N158 N157 1.234 . S
C159 H154 0.929 . S
C159 C160 1.373 . S
C159 C161 1.368 . S
C160 C159 1.373 . S
C160 C164 1.397 . S
C161 N157 1.453 . S
C161 C159 1.368 . S
C161 C162 1.373 . S
C162 H156 0.930 . S
C162 C161 1.373 . S
C162 C163 1.371 . S
C163 C162 1.371 . S
C163 C164 1.383 . S
C164 H155 0.931 . S
C164 C160 1.397 . S
C164 C163 1.383 . S
H165 C170 0.929 . S
H166 C175 0.931 . S
H167 C173 0.930 . S
N168 N169 1.234 . S
N168 C172 1.453 . S
N169 N168 1.234 . S
C170 H165 0.929 . S
C170 C171 1.373 . S
C170 C172 1.368 . S
C171 C170 1.373 . S
C171 C175 1.397 . S
C172 N168 1.453 . S
C172 C170 1.368 . S
C172 C173 1.373 . S
C173 H167 0.930 . S
C173 C172 1.373 . S
C173 C174 1.371 . S
C174 C173 1.371 . S
C174 C175 1.383 . S
C175 H166 0.931 . S
C175 C171 1.397 . S
C175 C174 1.383 . S
C176 C177 1.363 1_545 S
C176 C182 1.379 . S
C176 N184 1.356 . S
C177 C176 1.363 1_565 S
C177 C183 1.363 . S
C178 C179 1.363 . S
C178 C183 1.379 1_545 S
C178 N185 1.356 . S
C179 C178 1.363 . S
C179 C182 1.363 . S
N180 C182 1.356 . S
N180 H192 0.984 . S
N180 H193 0.985 . S
N181 C183 1.356 . S
N181 H186 0.984 . S
N181 H187 0.985 . S
C182 C176 1.379 . S
C182 C179 1.363 . S
C182 N180 1.356 . S
C183 C177 1.363 . S
C183 C178 1.379 1_565 S
C183 N181 1.356 . S
N184 C176 1.356 . S
N184 H190 0.984 . S
N184 H191 0.984 1_545 S
N185 C178 1.356 . S
N185 H188 0.984 . S
N185 H189 0.985 1_545 S
H186 N181 0.984 . S
H187 N181 0.985 . S
H188 N185 0.984 . S
H189 N185 0.985 1_565 S
H190 N184 0.984 . S
H191 N184 0.984 1_565 S
H192 N180 0.984 . S
H193 N180 0.985 . S
C194 C195 1.363 . S
C194 C200 1.379 . S
C194 N202 1.356 . S
C195 C194 1.363 . S
C195 C201 1.363 . S
C196 C197 1.363 . S
C196 C201 1.379 . S
C196 N203 1.356 . S
C197 C196 1.363 . S
C197 C200 1.363 . S
N198 C200 1.356 . S
N198 H210 0.984 . S
N198 H211 0.985 . S
N199 C201 1.356 . S
N199 H204 0.984 . S
N199 H205 0.985 . S
C200 C194 1.379 . S
C200 C197 1.363 . S
C200 N198 1.356 . S
C201 C195 1.363 . S
C201 C196 1.379 . S
C201 N199 1.356 . S
N202 C194 1.356 . S
N202 H208 0.984 . S
N202 H209 0.984 . S
N203 C196 1.356 . S
N203 H206 0.984 . S
N203 H207 0.985 . S
H204 N199 0.984 . S
H205 N199 0.985 . S
H206 N203 0.984 . S
H207 N203 0.985 . S
H208 N202 0.984 . S
H209 N202 0.984 . S
H210 N198 0.984 . S
H211 N198 0.985 . S
C212 C213 1.363 1_565 S
C212 C218 1.379 . S
C212 N220 1.356 . S
C213 C212 1.363 1_545 S
C213 C219 1.363 . S
C214 C215 1.363 . S
C214 C219 1.379 1_565 S
C214 N221 1.356 . S
C215 C214 1.363 . S
C215 C218 1.363 . S
N216 C218 1.356 . S
N216 H228 0.984 . S
N216 H229 0.985 . S
N217 C219 1.356 . S
N217 H222 0.984 . S
N217 H223 0.985 . S
C218 C212 1.379 . S
C218 C215 1.363 . S
C218 N216 1.356 . S
C219 C213 1.363 . S
C219 C214 1.379 1_545 S
C219 N217 1.356 . S
N220 C212 1.356 . S
N220 H226 0.984 . S
N220 H227 0.984 1_565 S
N221 C214 1.356 . S
N221 H224 0.984 . S
N221 H225 0.985 . S
H222 N217 0.984 . S
H223 N217 0.985 . S
H224 N221 0.984 . S
H225 N221 0.985 . S
H226 N220 0.984 . S
H227 N220 0.984 1_545 S
H228 N216 0.984 . S
H229 N216 0.985 . S
C230 C231 1.363 . S
C230 C236 1.379 . S
C230 N238 1.356 . S
C231 C230 1.363 . S
C231 C237 1.363 . S
C232 C233 1.363 . S
C232 C237 1.379 . S
C232 N239 1.356 . S
C233 C232 1.363 . S
C233 C236 1.363 . S
N234 C236 1.356 . S
N234 H246 0.984 . S
N234 H247 0.985 . S
N235 C237 1.356 . S
N235 H240 0.984 . S
N235 H241 0.985 . S
C236 C230 1.379 . S
C236 C233 1.363 . S
C236 N234 1.356 . S
C237 C231 1.363 . S
C237 C232 1.379 . S
C237 N235 1.356 . S
N238 C230 1.356 . S
N238 H244 0.984 . S
N238 H245 0.984 . S
N239 C232 1.356 . S
N239 H242 0.984 . S
N239 H243 0.985 . S
H240 N235 0.984 . S
H241 N235 0.985 . S
H242 N239 0.984 . S
H243 N239 0.985 . S
H244 N238 0.984 . S
H245 N238 0.984 . S
H246 N234 0.984 . S
H247 N234 0.985 . S
C248 C249 1.363 . S
C248 C254 1.379 . S
C248 N256 1.356 . S
C249 C248 1.363 . S
C249 C255 1.363 . S
C250 C251 1.363 . S
C250 C255 1.379 . S
C250 N257 1.356 . S
C251 C250 1.363 . S
C251 C254 1.363 . S
N252 C254 1.356 . S
N252 H264 0.984 . S
N252 H265 0.985 . S
N253 C255 1.356 . S
N253 H258 0.984 . S
N253 H259 0.985 . S
C254 C248 1.379 . S
C254 C251 1.363 . S
C254 N252 1.356 . S
C255 C249 1.363 . S
C255 C250 1.379 . S
C255 N253 1.356 . S
N256 C248 1.356 . S
N256 H262 0.984 . S
N256 H263 0.984 . S
N257 C250 1.356 . S
N257 H260 0.984 . S
N257 H261 0.985 . S
H258 N253 0.984 . S
H259 N253 0.985 . S
H260 N257 0.984 . S
H261 N257 0.985 . S
H262 N256 0.984 . S
H263 N256 0.984 . S
H264 N252 0.984 . S
H265 N252 0.985 . S
C266 C267 1.363 . S
C266 C272 1.379 . S
C266 N274 1.356 . S
C267 C266 1.363 . S
C267 C273 1.363 . S
C268 C269 1.363 . S
C268 C273 1.379 . S
C268 N275 1.356 . S
C269 C268 1.363 . S
C269 C272 1.363 . S
N270 C272 1.356 . S
N270 H282 0.984 . S
N270 H283 0.985 . S
N271 C273 1.356 . S
N271 H276 0.984 1_455 S
N271 H277 0.985 . S
C272 C266 1.379 . S
C272 C269 1.363 . S
C272 N270 1.356 . S
C273 C267 1.363 . S
C273 C268 1.379 . S
C273 N271 1.356 . S
N274 C266 1.356 . S
N274 H280 0.984 . S
N274 H281 0.984 1_455 S
N275 C268 1.356 . S
N275 H278 0.984 . S
N275 H279 0.985 . S
H276 N271 0.984 1_655 S
H277 N271 0.985 . S
H278 N275 0.984 . S
H279 N275 0.985 . S
H280 N274 0.984 . S
H281 N274 0.984 1_655 S
H282 N270 0.984 . S
H283 N270 0.985 . S
C284 C285 1.363 . S
C284 C290 1.379 . S
C284 N292 1.356 . S
C285 C284 1.363 . S
C285 C291 1.363 . S
C286 C287 1.363 . S
C286 C291 1.379 . S
C286 N293 1.356 . S
C287 C286 1.363 . S
C287 C290 1.363 . S
N288 C290 1.356 . S
N288 H300 0.984 . S
N288 H301 0.985 . S
N289 C291 1.356 . S
N289 H294 0.984 . S
N289 H295 0.985 . S
C290 C284 1.379 . S
C290 C287 1.363 . S
C290 N288 1.356 . S
C291 C285 1.363 . S
C291 C286 1.379 . S
C291 N289 1.356 . S
N292 C284 1.356 . S
N292 H298 0.984 . S
N292 H299 0.984 . S
N293 C286 1.356 . S
N293 H296 0.984 . S
N293 H297 0.985 . S
H294 N289 0.984 . S
H295 N289 0.985 . S
H296 N293 0.984 . S
H297 N293 0.985 . S
H298 N292 0.984 . S
H299 N292 0.984 . S
H300 N288 0.984 . S
H301 N288 0.985 . S
C302 C303 1.363 . S
C302 C308 1.379 . S
C302 N310 1.356 . S
C303 C302 1.363 . S
C303 C309 1.363 1_455 S
C304 C305 1.363 . S
C304 C309 1.379 . S
C304 N311 1.356 . S
C305 C304 1.363 . S
C305 C308 1.363 1_655 S
N306 C308 1.356 . S
N306 H318 0.984 . S
N306 H319 0.985 1_455 S
N307 C309 1.356 . S
N307 H312 0.984 1_655 S
N307 H313 0.985 . S
C308 C302 1.379 . S
C308 C305 1.363 1_455 S
C308 N306 1.356 . S
C309 C303 1.363 1_655 S
C309 C304 1.379 . S
C309 N307 1.356 . S
N310 C302 1.356 . S
N310 H316 0.984 . S
N310 H317 0.984 . S
N311 C304 1.356 . S
N311 H314 0.984 . S
N311 H315 0.985 . S
H312 N307 0.984 1_455 S
H313 N307 0.985 . S
H314 N311 0.984 . S
H315 N311 0.985 . S
H316 N310 0.984 . S
H317 N310 0.984 . S
H318 N306 0.984 . S
H319 N306 0.985 1_655 S
C320 C321 1.363 . S
C320 C326 1.379 1_545 S
C320 N328 1.356 . S
C321 C320 1.363 . S
C321 C327 1.363 1_545 S
C322 C323 1.363 . S
C322 C327 1.379 . S
C322 N329 1.356 . S
C323 C322 1.363 . S
C323 C326 1.363 . S
N324 C326 1.356 . S
N324 H336 0.984 1_565 S
N324 H337 0.985 . S
N325 C327 1.356 . S
N325 H330 0.984 1_565 S
N325 H331 0.985 . S
C326 C320 1.379 1_565 S
C326 C323 1.363 . S
C326 N324 1.356 . S
C327 C321 1.363 1_565 S
C327 C322 1.379 . S
C327 N325 1.356 . S
N328 C320 1.356 . S
N328 H334 0.984 . S
N328 H335 0.984 . S
N329 C322 1.356 . S
N329 H332 0.984 . S
N329 H333 0.985 . S
H330 N325 0.984 1_545 S
H331 N325 0.985 . S
H332 N329 0.984 . S
H333 N329 0.985 . S
H334 N328 0.984 . S
H335 N328 0.984 . S
H336 N324 0.984 1_545 S
H337 N324 0.985 . S
C338 C339 1.363 . S
C338 C344 1.379 . S
C338 N346 1.356 . S
C339 C338 1.363 . S
C339 C345 1.363 . S
C340 C341 1.363 . S
C340 C345 1.379 . S
C340 N347 1.356 . S
C341 C340 1.363 . S
C341 C344 1.363 . S
N342 C344 1.356 . S
N342 H354 0.984 . S
N342 H355 0.985 . S
N343 C345 1.356 . S
N343 H348 0.984 . S
N343 H349 0.985 . S
C344 C338 1.379 . S
C344 C341 1.363 . S
C344 N342 1.356 . S
C345 C339 1.363 . S
C345 C340 1.379 . S
C345 N343 1.356 . S
N346 C338 1.356 . S
N346 H352 0.984 . S
N346 H353 0.984 . S
N347 C340 1.356 . S
N347 H350 0.984 . S
N347 H351 0.985 . S
H348 N343 0.984 . S
H349 N343 0.985 . S
H350 N347 0.984 . S
H351 N347 0.985 . S
H352 N346 0.984 . S
H353 N346 0.984 . S
H354 N342 0.984 . S
H355 N342 0.985 . S
C356 C357 1.363 . S
C356 C362 1.379 1_565 S
C356 N364 1.356 . S
C357 C356 1.363 . S
C357 C363 1.361 1_566 S
C358 C359 1.363 . S
C358 C363 1.377 1_556 S
C358 N365 1.361 . S
C359 C358 1.363 . S
C359 C362 1.363 . S
N360 C362 1.356 . S
N360 H372 0.984 . S
N360 H373 0.985 . S
N361 C363 1.360 . S
N361 H366 0.984 1_545 S
N361 H367 0.985 . S
C362 C356 1.379 1_545 S
C362 C359 1.363 . S
C362 N360 1.356 . S
C363 C357 1.361 1_544 S
C363 C358 1.377 1_554 S
C363 N361 1.360 . S
N364 C356 1.356 . S
N364 H370 0.984 . S
N364 H371 0.984 . S
N365 C358 1.361 . S
N365 H368 0.995 . S
N365 H369 0.969 1_556 S
H366 N361 0.984 1_565 S
H367 N361 0.985 . S
H368 N365 0.995 . S
H369 N365 0.969 1_554 S
H370 N364 0.984 . S
H371 N364 0.984 . S
H372 N360 0.984 . S
H373 N360 0.985 . S
C374 C375 1.363 . S
C374 C380 1.379 . S
C374 N382 1.356 . S
C375 C374 1.363 . S
C375 C381 1.363 . S
C376 C377 1.363 . S
C376 C381 1.379 . S
C376 N383 1.356 . S
C377 C376 1.363 . S
C377 C380 1.363 . S
N378 C380 1.356 . S
N378 H390 0.984 . S
N378 H391 0.985 . S
N379 C381 1.356 . S
N379 H384 0.984 . S
N379 H385 0.985 . S
C380 C374 1.379 . S
C380 C377 1.363 . S
C380 N378 1.356 . S
C381 C375 1.363 . S
C381 C376 1.379 . S
C381 N379 1.356 . S
N382 C374 1.356 . S
N382 H388 0.984 . S
N382 H389 0.984 . S
N383 C376 1.356 . S
N383 H386 0.984 . S
N383 H387 0.985 . S
H384 N379 0.984 . S
H385 N379 0.985 . S
H386 N383 0.984 . S
H387 N383 0.985 . S
H388 N382 0.984 . S
H389 N382 0.984 . S
H390 N378 0.984 . S
H391 N378 0.985 . S
C392 C393 1.363 . S
C392 C398 1.379 . S
C392 N400 1.356 . S
C393 C392 1.363 . S
C393 C399 1.363 . S
C394 C395 1.363 . S
C394 C399 1.379 . S
C394 N401 1.356 . S
C395 C394 1.363 . S
C395 C398 1.363 . S
N396 C398 1.356 . S
N396 H408 0.984 . S
N396 H409 0.985 . S
N397 C399 1.356 . S
N397 H402 0.984 . S
N397 H403 0.985 . S
C398 C392 1.379 . S
C398 C395 1.363 . S
C398 N396 1.356 . S
C399 C393 1.363 . S
C399 C394 1.379 . S
C399 N397 1.356 . S
N400 C392 1.356 . S
N400 H406 0.984 . S
N400 H407 0.984 . S
N401 C394 1.356 . S
N401 H404 0.984 . S
N401 H405 0.985 . S
H402 N397 0.984 . S
H403 N397 0.985 . S
H404 N401 0.984 . S
H405 N401 0.985 . S
H406 N400 0.984 . S
H407 N400 0.984 . S
H408 N396 0.984 . S
H409 N396 0.985 . S
C410 C411 1.363 . S
C410 C416 1.379 . S
C410 N418 1.356 . S
C411 C410 1.363 . S
C411 C417 1.363 . S
C412 C413 1.363 . S
C412 C417 1.379 . S
C412 N419 1.356 . S
C413 C412 1.363 . S
C413 C416 1.363 . S
N414 C416 1.356 . S
N414 H426 0.984 . S
N414 H427 0.985 . S
N415 C417 1.356 . S
N415 H420 0.984 1_655 S
N415 H421 0.985 . S
C416 C410 1.379 . S
C416 C413 1.363 . S
C416 N414 1.356 . S
C417 C411 1.363 . S
C417 C412 1.379 . S
C417 N415 1.356 . S
N418 C410 1.356 . S
N418 H424 0.984 . S
N418 H425 0.984 1_655 S
N419 C412 1.356 . S
N419 H422 0.984 . S
N419 H423 0.985 . S
H420 N415 0.984 1_455 S
H421 N415 0.985 . S
H422 N419 0.984 . S
H423 N419 0.985 . S
H424 N418 0.984 . S
H425 N418 0.984 1_455 S
H426 N414 0.984 . S
H427 N414 0.985 . S
C428 C429 1.363 . S
C428 C434 1.379 . S
C428 N436 1.356 . S
C429 C428 1.363 . S
C429 C435 1.363 . S
C430 C431 1.363 . S
C430 C435 1.379 . S
C430 N437 1.356 . S
C431 C430 1.363 . S
C431 C434 1.363 . S
N432 C434 1.356 . S
N432 H444 0.984 . S
N432 H445 0.985 . S
N433 C435 1.356 . S
N433 H438 0.984 . S
N433 H439 0.985 . S
C434 C428 1.379 . S
C434 C431 1.363 . S
C434 N432 1.356 . S
C435 C429 1.363 . S
C435 C430 1.379 . S
C435 N433 1.356 . S
N436 C428 1.356 . S
N436 H442 0.984 . S
N436 H443 0.984 . S
N437 C430 1.356 . S
N437 H440 0.984 . S
N437 H441 0.985 . S
H438 N433 0.984 . S
H439 N433 0.985 . S
H440 N437 0.984 . S
H441 N437 0.985 . S
H442 N436 0.984 . S
H443 N436 0.984 . S
H444 N432 0.984 . S
H445 N432 0.985 . S
C446 C447 1.363 1_455 S
C446 C452 1.379 . S
C446 N454 1.356 . S
C447 C446 1.363 1_655 S
C447 C453 1.363 . S
C448 C449 1.363 1_655 S
C448 C453 1.379 . S
C448 N455 1.356 . S
C449 C448 1.363 1_455 S
C449 C452 1.363 . S
N450 C452 1.356 . S
N450 H462 0.984 . S
N450 H463 0.985 . S
N451 C453 1.356 . S
N451 H456 0.984 . S
N451 H457 0.985 . S
C452 C446 1.379 . S
C452 C449 1.363 . S
C452 N450 1.356 . S
C453 C447 1.363 . S
C453 C448 1.379 . S
C453 N451 1.356 . S
N454 C446 1.356 . S
N454 H460 0.984 . S
N454 H461 0.984 1_455 S
N455 C448 1.356 . S
N455 H458 0.984 1_655 S
N455 H459 0.985 . S
H456 N451 0.984 . S
H457 N451 0.985 . S
H458 N455 0.984 1_455 S
H459 N455 0.985 . S
H460 N454 0.984 . S
H461 N454 0.984 1_655 S
H462 N450 0.984 . S
H463 N450 0.985 . S
C464 C465 1.363 . S
C464 C470 1.379 . S
C464 N472 1.356 . S
C465 C464 1.363 . S
C465 C471 1.363 . S
C466 C467 1.363 . S
C466 C471 1.379 . S
C466 N473 1.356 . S
C467 C466 1.363 . S
C467 C470 1.363 . S
N468 C470 1.356 . S
N468 H480 0.984 . S
N468 H481 0.985 . S
N469 C471 1.356 . S
N469 H474 0.984 . S
N469 H475 0.985 . S
C470 C464 1.379 . S
C470 C467 1.363 . S
C470 N468 1.356 . S
C471 C465 1.363 . S
C471 C466 1.379 . S
C471 N469 1.356 . S
N472 C464 1.356 . S
N472 H478 0.984 . S
N472 H479 0.984 . S
N473 C466 1.356 . S
N473 H476 0.984 . S
N473 H477 0.985 . S
H474 N469 0.984 . S
H475 N469 0.985 . S
H476 N473 0.984 . S
H477 N473 0.985 . S
H478 N472 0.984 . S
H479 N472 0.984 . S
H480 N468 0.984 . S
H481 N468 0.985 . S
C482 C483 1.363 . S
C482 C488 1.379 . S
C482 N490 1.356 . S
C483 C482 1.363 . S
C483 C489 1.363 . S
C484 C485 1.363 . S
C484 C489 1.379 . S
C484 N491 1.356 . S
C485 C484 1.363 . S
C485 C488 1.363 . S
N486 C488 1.356 . S
N486 H498 0.984 . S
N486 H499 0.985 . S
N487 C489 1.356 . S
N487 H492 0.984 . S
N487 H493 0.985 . S
C488 C482 1.379 . S
C488 C485 1.363 . S
C488 N486 1.356 . S
C489 C483 1.363 . S
C489 C484 1.379 . S
C489 N487 1.356 . S
N490 C482 1.356 . S
N490 H496 0.984 . S
N490 H497 0.984 . S
N491 C484 1.356 . S
N491 H494 0.984 . S
N491 H495 0.985 . S
H492 N487 0.984 . S
H493 N487 0.985 . S
H494 N491 0.984 . S
H495 N491 0.985 . S
H496 N490 0.984 . S
H497 N490 0.984 . S
H498 N486 0.984 . S
H499 N486 0.985 . S
C500 C501 1.363 . S
C500 C506 1.379 . S
C500 N508 1.356 . S
C501 C500 1.363 . S
C501 C507 1.363 . S
C502 C503 1.363 . S
C502 C507 1.379 . S
C502 N509 1.356 . S
C503 C502 1.363 . S
C503 C506 1.363 . S
N504 C506 1.356 . S
N504 H516 0.984 . S
N504 H517 0.985 . S
N505 C507 1.356 . S
N505 H510 0.984 . S
N505 H511 0.985 . S
C506 C500 1.379 . S
C506 C503 1.363 . S
C506 N504 1.356 . S
C507 C501 1.363 . S
C507 C502 1.379 . S
C507 N505 1.356 . S
N508 C500 1.356 . S
N508 H514 0.984 . S
N508 H515 0.984 . S
N509 C502 1.356 . S
N509 H512 0.984 . S
N509 H513 0.985 . S
H510 N505 0.984 . S
H511 N505 0.985 . S
H512 N509 0.984 . S
H513 N509 0.985 . S
H514 N508 0.984 . S
H515 N508 0.984 . S
H516 N504 0.984 . S
H517 N504 0.985 . S
C518 C519 1.363 . S
C518 C524 1.379 . S
C518 N526 1.356 . S
C519 C518 1.363 . S
C519 C525 1.363 . S
C520 C521 1.363 . S
C520 C525 1.379 . S
C520 N527 1.356 . S
C521 C520 1.363 . S
C521 C524 1.363 . S
N522 C524 1.356 . S
N522 H534 0.984 . S
N522 H535 0.985 . S
N523 C525 1.356 . S
N523 H528 0.984 . S
N523 H529 0.985 . S
C524 C518 1.379 . S
C524 C521 1.363 . S
C524 N522 1.356 . S
C525 C519 1.363 . S
C525 C520 1.379 . S
C525 N523 1.356 . S
N526 C518 1.356 . S
N526 H532 0.984 . S
N526 H533 0.984 . S
N527 C520 1.356 . S
N527 H530 0.984 . S
N527 H531 0.985 . S
H528 N523 0.984 . S
H529 N523 0.985 . S
H530 N527 0.984 . S
H531 N527 0.985 . S
H532 N526 0.984 . S
H533 N526 0.984 . S
H534 N522 0.984 . S
H535 N522 0.985 . S
C536 C537 1.363 . S
C536 C542 1.379 . S
C536 N544 1.356 . S
C537 C536 1.363 . S
C537 C543 1.363 . S
C538 C539 1.363 . S
C538 C543 1.379 . S
C538 N545 1.356 . S
C539 C538 1.363 . S
C539 C542 1.363 . S
N540 C542 1.356 . S
N540 H552 0.984 . S
N540 H553 0.985 . S
N541 C543 1.356 . S
N541 H546 0.984 . S
N541 H547 0.985 . S
C542 C536 1.379 . S
C542 C539 1.363 . S
C542 N540 1.356 . S
C543 C537 1.363 . S
C543 C538 1.379 . S
C543 N541 1.356 . S
N544 C536 1.356 . S
N544 H550 0.984 . S
N544 H551 0.984 . S
N545 C538 1.356 . S
N545 H548 0.984 . S
N545 H549 0.985 . S
H546 N541 0.984 . S
H547 N541 0.985 . S
H548 N545 0.984 . S
H549 N545 0.985 . S
H550 N544 0.984 . S
H551 N544 0.984 . S
H552 N540 0.984 . S
H553 N540 0.985 . S
C554 C555 1.363 . S
C554 C560 1.379 . S
C554 N562 1.356 . S
C555 C554 1.363 . S
C555 C561 1.363 . S
C556 C557 1.363 . S
C556 C561 1.379 . S
C556 N563 1.356 . S
C557 C556 1.363 . S
C557 C560 1.363 . S
N558 C560 1.356 . S
N558 H570 0.984 . S
N558 H571 0.985 . S
N559 C561 1.356 . S
N559 H564 0.984 . S
N559 H565 0.985 . S
C560 C554 1.379 . S
C560 C557 1.363 . S
C560 N558 1.356 . S
C561 C555 1.363 . S
C561 C556 1.379 . S
C561 N559 1.356 . S
N562 C554 1.356 . S
N562 H568 0.984 . S
N562 H569 0.984 . S
N563 C556 1.356 . S
N563 H566 0.984 . S
N563 H567 0.985 . S
H564 N559 0.984 . S
H565 N559 0.985 . S
H566 N563 0.984 . S
H567 N563 0.985 . S
H568 N562 0.984 . S
H569 N562 0.984 . S
H570 N558 0.984 . S
H571 N558 0.985 . S
C572 C573 1.363 . S
C572 C578 1.379 . S
C572 N580 1.356 . S
C573 C572 1.363 . S
C573 C579 1.363 . S
C574 C575 1.363 . S
C574 C579 1.379 . S
C574 N581 1.356 . S
C575 C574 1.363 . S
C575 C578 1.363 . S
N576 C578 1.356 . S
N576 H588 0.984 . S
N576 H589 0.985 . S
N577 C579 1.356 . S
N577 H582 0.984 . S
N577 H583 0.985 . S
C578 C572 1.379 . S
C578 C575 1.363 . S
C578 N576 1.356 . S
C579 C573 1.363 . S
C579 C574 1.379 . S
C579 N577 1.356 . S
N580 C572 1.356 . S
N580 H586 0.984 . S
N580 H587 0.984 . S
N581 C574 1.356 . S
N581 H584 0.984 . S
N581 H585 0.985 . S
H582 N577 0.984 . S
H583 N577 0.985 . S
H584 N581 0.984 . S
H585 N581 0.985 . S
H586 N580 0.984 . S
H587 N580 0.984 . S
H588 N576 0.984 . S
H589 N576 0.985 . S
C590 C591 1.363 . S
C590 C596 1.379 . S
C590 N598 1.356 1_556 S
C591 C590 1.363 . S
C591 C597 1.363 . S
C592 C593 1.363 . S
C592 C597 1.379 . S
C592 N599 1.356 . S
C593 C592 1.363 . S
C593 C596 1.363 . S
N594 C596 1.356 . S
N594 H606 0.984 1_556 S
N594 H607 0.985 . S
N595 C597 1.356 . S
N595 H600 0.984 . S
N595 H601 0.985 . S
C596 C590 1.379 . S
C596 C593 1.363 . S
C596 N594 1.356 . S
C597 C591 1.363 . S
C597 C592 1.379 . S
C597 N595 1.356 . S
N598 C590 1.356 1_554 S
N598 H604 0.984 . S
N598 H605 0.984 . S
N599 C592 1.356 . S
N599 H602 0.984 . S
N599 H603 0.985 . S
H600 N595 0.984 . S
H601 N595 0.985 . S
H602 N599 0.984 . S
H603 N599 0.985 . S
H604 N598 0.984 . S
H605 N598 0.984 . S
H606 N594 0.984 1_554 S
H607 N594 0.985 . S
C177 C7 1.519 . S
C179 C97 1.441 . S
C195 C37 1.492 . S
C197 C108 1.388 . S
C213 C54 1.422 . S
C215 C116 1.349 . S
C233 C130 1.427 . S
C231 C87 1.441 . S
C251 C141 1.412 . S
C249 C30 1.494 . S
C267 C51 1.450 1_455 S
C269 C152 1.435 . S
C285 C84 1.454 . S
C287 C160 1.376 . S
C303 C10 1.465 . S
C305 C174 1.360 . S
C321 C59 1.386 . S
C323 C171 1.358 . S
C341 C138 1.230 . S
C339 C74 1.281 . S
C359 C149 1.364 . S
C357 C18 1.418 . S
C375 C32 1.453 . S
C377 C163 1.412 . S
C395 C105 1.351 . S
C393 C73 1.384 . S
C411 C15 1.453 1_655 S
C413 C119 1.430 . S
C431 C127 1.391 . S
C429 C43 1.431 . S
C449 C94 1.237 . S
C447 C62 1.284 . S
C467 N158 1.479 . S
C465 C21 1.524 . S
C485 N169 1.479 . S
C483 C29 1.474 . S
C501 C52 1.408 . S
C503 N136 1.395 . S
C521 N147 1.428 . S
C519 C81 1.475 . S
C539 N114 1.460 . S
C537 C40 1.497 . S
C555 C65 1.473 . S
C557 N125 1.427 . S
C575 N92 1.405 . S
C573 C76 1.415 . S
C593 N103 1.480 . S
C591 C8 1.488 . S
