# Generated by pormake.
# Topology pyr, (3,6)-cn, num edge types: 1
# Building blocks:
#     Node 0, Type 0, BuildingBlock: ESEHIV_clean_linker_0, # of connection points: 3
#     Node 1, Type 0, BuildingBlock: ESEHIV_clean_linker_0, # of connection points: 3
#     Node 2, Type 0, BuildingBlock: ESEHIV_clean_linker_0, # of connection points: 3
#     Node 3, Type 0, BuildingBlock: ESEHIV_clean_linker_0, # of connection points: 3
#     Node 4, Type 0, BuildingBlock: ESEHIV_clean_linker_0, # of connection points: 3
#     Node 5, Type 0, BuildingBlock: ESEHIV_clean_linker_0, # of connection points: 3
#     Node 6, Type 0, BuildingBlock: ESEHIV_clean_linker_0, # of connection points: 3
#     Node 7, Type 0, BuildingBlock: ESEHIV_clean_linker_0, # of connection points: 3
#     Node 8, Type 1, BuildingBlock: LEVNOQ01_clean_sbu_1, # of connection points: 6
#     Node 9, Type 1, BuildingBlock: LEVNOQ01_clean_sbu_1, # of connection points: 6
#     Node 10, Type 1, BuildingBlock: LEVNOQ01_clean_sbu_1, # of connection points: 6
#     Node 11, Type 1, BuildingBlock: LEVNOQ01_clean_sbu_1, # of connection points: 6
#     Edge 12, Type (0, 1), BuildingBlock: XUDNAN_clean_linker_2, # of connection points: 2
#     Edge 13, Type (0, 1), BuildingBlock: XUDNAN_clean_linker_2, # of connection points: 2
#     Edge 14, Type (0, 1), BuildingBlock: XUDNAN_clean_linker_2, # of connection points: 2
#     Edge 15, Type (0, 1), BuildingBlock: XUDNAN_clean_linker_2, # of connection points: 2
#     Edge 16, Type (0, 1), BuildingBlock: XUDNAN_clean_linker_2, # of connection points: 2
#     Edge 17, Type (0, 1), BuildingBlock: XUDNAN_clean_linker_2, # of connection points: 2
#     Edge 18, Type (0, 1), BuildingBlock: XUDNAN_clean_linker_2, # of connection points: 2
#     Edge 19, Type (0, 1), BuildingBlock: XUDNAN_clean_linker_2, # of connection points: 2
#     Edge 20, Type (0, 1), BuildingBlock: XUDNAN_clean_linker_2, # of connection points: 2
#     Edge 21, Type (0, 1), BuildingBlock: XUDNAN_clean_linker_2, # of connection points: 2
#     Edge 22, Type (0, 1), BuildingBlock: XUDNAN_clean_linker_2, # of connection points: 2
#     Edge 23, Type (0, 1), BuildingBlock: XUDNAN_clean_linker_2, # of connection points: 2
#     Edge 24, Type (0, 1), BuildingBlock: XUDNAN_clean_linker_2, # of connection points: 2
#     Edge 25, Type (0, 1), BuildingBlock: XUDNAN_clean_linker_2, # of connection points: 2
#     Edge 26, Type (0, 1), BuildingBlock: XUDNAN_clean_linker_2, # of connection points: 2
#     Edge 27, Type (0, 1), BuildingBlock: XUDNAN_clean_linker_2, # of connection points: 2
#     Edge 28, Type (0, 1), BuildingBlock: XUDNAN_clean_linker_2, # of connection points: 2
#     Edge 29, Type (0, 1), BuildingBlock: XUDNAN_clean_linker_2, # of connection points: 2
#     Edge 30, Type (0, 1), BuildingBlock: XUDNAN_clean_linker_2, # of connection points: 2
#     Edge 31, Type (0, 1), BuildingBlock: XUDNAN_clean_linker_2, # of connection points: 2
#     Edge 32, Type (0, 1), BuildingBlock: XUDNAN_clean_linker_2, # of connection points: 2
#     Edge 33, Type (0, 1), BuildingBlock: XUDNAN_clean_linker_2, # of connection points: 2
#     Edge 34, Type (0, 1), BuildingBlock: XUDNAN_clean_linker_2, # of connection points: 2
#     Edge 35, Type (0, 1), BuildingBlock: XUDNAN_clean_linker_2, # of connection points: 2
# Relax obj value: 0.035
# Max RMSD: 0.110
# Mean RMSD: 0.045
data_MOF--net-pry--node1-LEVNOQ01_clean_sbu_1--node2-ESEHIV_clean_linker_0--edge1-XUDNAN_clean_linker_2
_symmetry_space_group_name_H-M    P1
_symmetry_Int_Tables_number       1
_symmetry_cell_setting            triclinic
loop_
_symmetry_equiv_pos_as_xyz
'x, y, z'
_cell_length_a     35.479813
_cell_length_b     34.091414
_cell_length_c     34.133786
_cell_angle_alpha  92.263818
_cell_angle_beta   91.424872
_cell_angle_gamma 94.010226
loop_
_atom_site_label
_atom_site_type_symbol
_atom_site_fract_x
_atom_site_fract_y
_atom_site_fract_z
_atom_type_partial_charge
H0 H 0.08912 0.17775 0.15806 0.0
H1 H 0.16298 0.08331 0.16905 0.0
H2 H 0.16636 0.15433 0.06741 0.0
C3 C 0.1105 0.15974 0.14645 0.0
C4 C 0.12564 0.16891 0.11007 0.0
C5 C 0.12276 0.12828 0.16793 0.0
C6 C 0.15234 0.10698 0.15279 0.0
C7 C 0.16904 0.11679 0.11702 0.0
C8 C 0.15441 0.14692 0.09531 0.0
H9 H 0.3361 0.93021 0.65592 0.0
H10 H 0.40742 0.83353 0.65112 0.0
H11 H 0.33438 0.85396 0.55254 0.0
C12 C 0.3472 0.90587 0.63955 0.0
C13 C 0.33208 0.89461 0.60202 0.0
C14 C 0.37486 0.88428 0.65708 0.0
C15 C 0.38752 0.85125 0.63664 0.0
C16 C 0.37301 0.83971 0.59889 0.0
C17 C 0.34614 0.86252 0.58145 0.0
H18 H 0.66321 0.33518 0.92771 0.0
H19 H 0.64523 0.44433 0.87523 0.0
H20 H 0.59707 0.33596 0.82048 0.0
C21 C 0.65008 0.35103 0.90481 0.0
C22 C 0.62935 0.33024 0.87401 0.0
C23 C 0.65639 0.39207 0.90494 0.0
C24 C 0.6393 0.41276 0.87544 0.0
C25 C 0.61791 0.39297 0.84458 0.0
C26 C 0.61295 0.35163 0.84433 0.0
H27 H 0.85677 0.62847 0.46152 0.0
H28 H 0.92896 0.63342 0.36196 0.0
H29 H 0.82851 0.55549 0.35829 0.0
C30 C 0.8647 0.61747 0.4329 0.0
C31 C 0.84134 0.58758 0.41339 0.0
C32 C 0.89602 0.6352 0.41436 0.0
C33 C 0.90428 0.62116 0.37648 0.0
C34 C 0.87929 0.59399 0.35537 0.0
C35 C 0.84839 0.57611 0.37442 0.0
H36 H 0.82942 0.91848 0.8374 0.0
H37 H 0.9122 0.83326 0.85257 0.0
H38 H 0.83484 0.85602 0.94387 0.0
C39 C 0.84347 0.89803 0.85515 0.0
C40 C 0.83038 0.89176 0.89314 0.0
C41 C 0.87287 0.87702 0.83951 0.0
C42 C 0.88866 0.84892 0.86295 0.0
C43 C 0.87433 0.84009 0.89991 0.0
C44 C 0.84572 0.86229 0.91523 0.0
H45 H 0.58161 0.15844 0.3535 0.0
H46 H 0.67941 0.09246 0.35014 0.0
H47 H 0.6503 0.15275 0.45801 0.0
C48 C 0.60476 0.1461 0.36905 0.0
C49 C 0.61315 0.15792 0.4083 0.0
C50 C 0.62802 0.12144 0.34863 0.0
C51 C 0.66012 0.10861 0.36755 0.0
C52 C 0.66886 0.11937 0.40732 0.0
C53 C 0.64422 0.14327 0.42774 0.0
H54 H 0.34642 0.68551 0.10199 0.0
H55 H 0.30677 0.60665 0.18995 0.0
H56 H 0.39638 0.69555 0.21786 0.0
C57 C 0.34808 0.67493 0.13144 0.0
C58 C 0.37348 0.69457 0.15891 0.0
C59 C 0.32323 0.64359 0.14223 0.0
C60 C 0.32614 0.63019 0.1806 0.0
C61 C 0.35273 0.64844 0.20794 0.0
C62 C 0.37602 0.68094 0.19696 0.0
H63 H 0.07897 0.35507 0.65238 0.0
H64 H 0.13411 0.38544 0.54656 0.0
H65 H 0.15714 0.45771 0.65128 0.0
C66 C 0.0965 0.37594 0.63643 0.0
C67 C 0.11458 0.40954 0.65611 0.0
C68 C 0.10376 0.36727 0.59696 0.0
C69 C 0.12719 0.39339 0.57652 0.0
C70 C 0.14765 0.42508 0.59619 0.0
C71 C 0.14028 0.43407 0.63563 0.0
O72 O 0.96964 0.01703 0.60314 0.0
Mg73 Mg 0.02002 0.03033 0.57475 0.0
O74 O 0.97726 0.96894 0.56093 0.0
Mg75 Mg 9e-05 0.00413 0.50498 0.0
O76 O 0.01953 0.06827 0.52996 0.0
O77 O 0.03966 0.08504 0.59186 0.0
O78 O 0.02207 0.03979 0.44934 0.0
O79 O 0.93971 0.0261 0.49746 0.0
Mg80 Mg 0.97911 0.97876 0.4365 0.0
O81 O 0.98332 0.93863 0.47913 0.0
O82 O 0.02742 0.99364 0.40457 0.0
O83 O 0.93088 0.01216 0.43439 0.0
O84 O 0.96149 0.92463 0.41743 0.0
C85 C 0.07903 0.9806 0.54487 0.0
C86 C 0.9629 0.98145 0.59264 0.0
C87 C 0.03327 0.09437 0.55623 0.0
C88 C 0.03509 0.02861 0.41654 0.0
C89 C 0.91968 0.02728 0.46609 0.0
C90 C 0.97059 0.91315 0.45166 0.0
O91 O 0.06597 0.99306 0.57691 0.0
O92 O 0.06052 0.98392 0.51288 0.0
O93 O 0.43439 0.09587 0.01652 0.0
Mg94 Mg 0.49218 0.10853 0.01268 0.0
O95 O 0.4408 0.03207 0.01969 0.0
Mg96 Mg 0.50322 0.01882 -0.00123 0.0
O97 O 0.5162 0.07715 0.96961 0.0
O98 O 0.51149 0.14201 0.96829 0.0
O99 O 0.5689 0.00983 0.97685 0.0
O100 O 0.47269 -0.00187 0.93865 0.0
Mg101 Mg 0.52233 0.95862 0.98564 0.0
O102 O 0.48446 0.95792 0.02955 0.0
O103 O 0.57701 0.95576 0.00641 0.0
O104 O 0.51382 0.95625 0.92395 0.0
O105 O 0.49927 0.90474 0.99427 0.0
C106 C 0.53854 0.0758 0.0774 0.0
C107 C 0.42031 0.06159 0.0224 0.0
C108 C 0.52361 0.11017 0.95302 0.0
C109 C 0.59111 0.984 0.98793 0.0
C110 C 0.48576 0.97439 0.91375 0.0
C111 C 0.48171 0.91997 0.02283 0.0
O112 O 0.52605 0.10651 0.06359 0.0
O113 O 0.53222 0.04195 0.05977 0.0
O114 O 0.43597 0.55274 0.55626 0.0
Mg115 Mg 0.45585 0.49597 0.56569 0.0
O116 O 0.48483 0.56785 0.52012 0.0
Mg117 Mg 0.4946 0.50204 0.50668 0.0
O118 O 0.51235 0.49084 0.57377 0.0
O119 O 0.47021 0.49401 0.62221 0.0
O120 O 0.50499 0.43521 0.49259 0.0
O121 O 0.5603 0.51863 0.50511 0.0
Mg122 Mg 0.52914 0.49648 0.42408 0.0
O123 O 0.47959 0.51425 0.44271 0.0
O124 O 0.53259 0.43668 0.435 0.0
O125 O 0.57353 0.53592 0.44494 0.0
O126 O 0.49466 0.51239 0.37959 0.0
C127 C 0.40677 0.46165 0.51893 0.0
C128 C 0.45596 0.57804 0.53825 0.0
C129 C 0.50418 0.49036 0.61082 0.0
C130 C 0.52093 0.41781 0.46418 0.0
C131 C 0.58312 0.53399 0.48068 0.0
C132 C 0.47137 0.52104 0.40652 0.0
O133 O 0.42025 0.44561 0.54824 0.0
O134 O 0.42789 0.48733 0.50234 0.0
O135 O -0.00057 0.4212 0.06927 0.0
Mg136 Mg 0.01656 0.48039 0.07287 0.0
O137 O 0.01938 0.43706 0.01199 0.0
Mg138 Mg -0.00102 0.50366 0.0061 0.0
O139 O 0.9751 0.51891 0.07028 0.0
O140 O 0.00052 0.49728 0.12595 0.0
O141 O 0.981 0.56931 0.99677 0.0
O142 O 0.9361 0.47613 0.99681 0.0
Mg143 Mg 0.97038 0.50499 0.93546 0.0
O144 O 0.02523 0.49163 0.94225 0.0
O145 O 0.95235 0.56173 0.93923 0.0
O146 O 0.92942 0.45899 0.93464 0.0
O147 O -0.0036 0.50296 0.88458 0.0
C148 C 0.08383 0.52271 0.04366 0.0
C149 C 0.01342 0.41093 0.03743 0.0
C150 C 0.97591 0.51689 0.1084 0.0
C151 C 0.96236 0.58355 0.96881 0.0
C152 C 0.91636 0.45919 0.96855 0.0
C153 C 0.02545 0.4929 0.90404 0.0
O154 O 0.07485 0.4979 0.06896 0.0
O155 O 0.05904 0.53219 0.01897 0.0
H156 H 0.15421 0.09477 0.23366 0.0
H157 H 0.04942 0.13832 0.18966 0.0
H158 H 0.02119 0.12831 0.2534 0.0
H159 H 0.10708 0.01538 0.28218 0.0
H160 H 0.14114 0.01674 0.32238 0.0
H161 H 0.15546 0.03298 0.27515 0.0
H162 H 0.18072 0.1001 0.30748 0.0
H163 H 0.16571 0.08424 0.35475 0.0
H164 H 0.14939 0.12879 0.33567 0.0
H165 H 0.00333 0.1138 0.32168 0.0
H166 H 0.9919 0.08093 0.38396 0.0
H167 H 0.10333 0.0367 0.38053 0.0
C168 C 0.12529 0.10216 0.23702 0.0
C169 C 0.10493 0.11898 0.20631 0.0
C170 C 0.06684 0.12753 0.21276 0.0
C171 C 0.05022 0.12169 0.24904 0.0
C172 C 0.07139 0.10611 0.27868 0.0
C173 C 0.10765 0.09526 0.27275 0.0
C174 C 0.12238 0.07447 0.30796 0.0
C175 C 0.13206 0.0324 0.29621 0.0
C176 C 0.15658 0.09833 0.32762 0.0
C177 C 0.08829 0.07447 0.33402 0.0
C178 C 0.0598 0.09432 0.31712 0.0
C179 C 0.02543 0.09824 0.33528 0.0
C180 C 0.01932 0.07988 0.37081 0.0
C181 C 0.04699 0.05702 0.38717 0.0
C182 C 0.08215 0.05483 0.36894 0.0
H183 H 0.40318 0.95519 0.69207 0.0
H184 H 0.37354 0.83286 0.71557 0.0
H185 H 0.39402 0.84534 0.78467 0.0
H186 H 0.48711 0.96517 0.7523 0.0
H187 H 0.48104 0.01483 0.76988 0.0
H188 H 0.46147 -0.00247 0.72265 0.0
H189 H 0.3953 0.01638 0.74369 0.0
H190 H 0.41472 0.03364 0.79108 0.0
H191 H 0.37556 -0.00309 0.78767 0.0
H192 H 0.42001 0.86867 0.84894 0.0
H193 H 0.45339 0.90161 0.90658 0.0
H194 H 0.46754 0.0099 0.84433 0.0
C195 C 0.40075 0.93127 0.71202 0.0
C196 C 0.38697 0.89296 0.69857 0.0
C197 C 0.38443 0.86223 0.72523 0.0
C198 C 0.39569 0.86911 0.76456 0.0
C199 C 0.40947 0.90694 0.77687 0.0
C200 C 0.41226 0.93759 0.75159 0.0
C201 C 0.43015 0.97485 0.7725 0.0
C202 C 0.46714 0.9889 0.75318 0.0
C203 C 0.40226 0.00737 0.77381 0.0
C204 C 0.43762 0.95991 0.81317 0.0
C205 C 0.42492 0.92072 0.81482 0.0
C206 C 0.42979 0.89941 0.84822 0.0
C207 C 0.44878 0.91832 0.88073 0.0
C208 C 0.46265 0.95814 0.87978 0.0
C209 C 0.45658 0.97956 0.84583 0.0
H210 H 0.60755 0.3685 0.76614 0.0
H211 H 0.59503 0.46875 0.84666 0.0
H212 H 0.57751 0.50783 0.79121 0.0
H213 H 0.63847 0.41975 0.68088 0.0
H214 H 0.60905 0.38839 0.64707 0.0
H215 H 0.62644 0.36922 0.69201 0.0
H216 H 0.55805 0.348 0.71141 0.0
H217 H 0.54063 0.36613 0.66612 0.0
H218 H 0.52301 0.38382 0.71214 0.0
H219 H 0.55837 0.53546 0.72895 0.0
H220 H 0.52585 0.54594 0.66592 0.0
H221 H 0.54385 0.42663 0.62626 0.0
C222 C 0.60089 0.3985 0.77258 0.0
C223 C 0.6039 0.41553 0.8112 0.0
C224 C 0.59472 0.45514 0.81747 0.0
C225 C 0.58456 0.47772 0.78608 0.0
C226 C 0.58268 0.46016 0.74855 0.0
C227 C 0.58943 0.42115 0.74178 0.0
C228 C 0.58021 0.40794 0.69949 0.0
C229 C 0.61567 0.3956 0.67864 0.0
C230 C 0.5486 0.37452 0.69716 0.0
C231 C 0.56679 0.44564 0.68369 0.0
C232 C 0.56948 0.47562 0.71239 0.0
C233 C 0.55647 0.51246 0.70607 0.0
C234 C 0.53832 0.51824 0.6702 0.0
C235 C 0.53332 0.48736 0.64133 0.0
C236 C 0.54873 0.45103 0.6475 0.0
H237 H 0.879 0.52517 0.31045 0.0
H238 H 0.88946 0.65213 0.30362 0.0
H239 H 0.90326 0.64548 0.23336 0.0
H240 H 0.95439 0.50668 0.25532 0.0
H241 H 0.93406 0.46225 0.23042 0.0
H242 H 0.91739 0.47695 0.2776 0.0
H243 H 0.84905 0.47524 0.24852 0.0
H244 H 0.86574 0.46084 0.20096 0.0
H245 H 0.83925 0.50383 0.20663 0.0
H246 H 0.92526 0.62572 0.16698 0.0
H247 H 0.95814 0.59389 0.11218 0.0
H248 H 0.93386 0.48038 0.16202 0.0
C249 C 0.88304 0.55141 0.29375 0.0
C250 C 0.88328 0.58906 0.31235 0.0
C251 C 0.88948 0.62293 0.28988 0.0
C252 C 0.89691 0.61949 0.24986 0.0
C253 C 0.8976 0.58196 0.23248 0.0
C254 C 0.89069 0.54847 0.25367 0.0
C255 C 0.8978 0.51182 0.22935 0.0
C256 C 0.9277 0.48808 0.24936 0.0
C257 C 0.86075 0.48644 0.22086 0.0
C258 C 0.91229 0.53012 0.19238 0.0
C259 C 0.91073 0.57052 0.1941 0.0
C260 C 0.92581 0.59401 0.1648 0.0
C261 C 0.94425 0.57582 0.13372 0.0
C262 C 0.94793 0.53486 0.13298 0.0
C263 C 0.93064 0.51175 0.16182 0.0
H264 H 0.23077 0.15296 0.08405 0.0
H265 H 0.18643 0.03863 0.12026 0.0
H266 H 0.2451 0.00973 0.09844 0.0
H267 H 0.27451 0.11865 0.99645 0.0
H268 H 0.31387 0.15498 0.00238 0.0
H269 H 0.26847 0.16551 0.021 0.0
H270 H 0.29898 0.18096 0.09025 0.0
H271 H 0.34444 0.17052 0.07184 0.0
H272 H 0.32586 0.14462 0.11298 0.0
H273 H 0.31204 0.9945 0.07267 0.0
H274 H 0.37737 0.99575 0.04737 0.0
H275 H 0.37233 0.12005 0.02637 0.0
C276 C 0.2328 0.12164 0.0868 0.0
C277 C 0.2036 0.09809 0.1035 0.0
C278 C 0.2084 0.05745 0.10768 0.0
C279 C 0.24158 0.04072 0.09515 0.0
C280 C 0.26968 0.06498 0.07844 0.0
C281 C 0.26529 0.10461 0.07431 0.0
C282 C 0.2992 0.12506 0.05614 0.0
C283 C 0.28835 0.14203 0.01665 0.0
C284 C 0.31823 0.15717 0.0845 0.0
C285 C 0.32367 0.09093 0.05057 0.0
C286 C 0.30664 0.05635 0.06356 0.0
C287 C 0.32536 0.02149 0.06221 0.0
C288 C 0.36242 0.02239 0.04768 0.0
C289 C 0.38021 0.05791 0.03469 0.0
C290 C 0.35993 0.0922 0.03585 0.0
H291 H 0.26797 0.90928 0.64103 0.0
H292 H 0.31875 0.91802 0.52713 0.0
H293 H 0.25875 0.93932 0.49933 0.0
H294 H 0.17742 0.87061 0.6059 0.0
H295 H 0.15177 0.89712 0.64202 0.0
H296 H 0.19906 0.88416 0.6533 0.0
H297 H 0.22004 0.95738 0.67032 0.0
H298 H 0.17267 0.97048 0.65972 0.0
H299 H 0.21188 0.99394 0.6349 0.0
H300 H 0.19191 0.95657 0.48357 0.0
H301 H 0.12544 0.97411 0.48232 0.0
H302 H 0.11941 0.95495 0.60704 0.0
C303 C 0.2668 0.91661 0.61046 0.0
C304 C 0.29811 0.91237 0.58628 0.0
C305 C 0.29506 0.92113 0.54614 0.0
C306 C 0.26112 0.93315 0.53011 0.0
C307 C 0.23051 0.93614 0.55462 0.0
C308 C 0.23318 0.92847 0.59401 0.0
C309 C 0.19606 0.93322 0.61395 0.0
C310 C 0.18016 0.89394 0.62972 0.0
C311 C 0.20043 0.9657 0.64665 0.0
C312 C 0.17216 0.94529 0.57976 0.0
C313 C 0.19235 0.94635 0.54567 0.0
C314 C 0.1759 0.95601 0.51014 0.0
C315 C 0.13806 0.96566 0.50966 0.0
C316 C 0.11728 0.96595 0.54459 0.0
C317 C 0.13459 0.95516 0.57989 0.0
H318 H 0.71098 0.444 0.88126 0.0
H319 H 0.67387 0.38202 0.98343 0.0
H320 H 0.73572 0.40098 0.01671 0.0
H321 H 0.79336 0.40907 0.87773 0.0
H322 H 0.81994 0.45209 0.8614 0.0
H323 H 0.77021 0.44521 0.85046 0.0
H324 H 0.75878 0.5125 0.88442 0.0
H325 H 0.80894 0.52062 0.89416 0.0
H326 H 0.77655 0.5237 0.93384 0.0
H327 H 0.80647 0.41666 0.03312 0.0
H328 H 0.87654 0.42821 0.03048 0.0
H329 H 0.86404 0.47475 0.91492 0.0
C330 C 0.71476 0.43628 0.91149 0.0
C331 C 0.6875 0.41183 0.92984 0.0
C332 C 0.69448 0.40085 0.96883 0.0
C333 C 0.72944 0.41163 0.98799 0.0
C334 C 0.75677 0.43356 0.96776 0.0
C335 C 0.74934 0.4463 0.93051 0.0
C336 C 0.78447 0.46351 0.91189 0.0
C337 C 0.79243 0.44111 0.87314 0.0
C338 C 0.78203 0.50771 0.90575 0.0
C339 C 0.81327 0.45654 0.94343 0.0
C340 C 0.7971 0.44036 0.97604 0.0
C341 C 0.81928 0.42975 0.00786 0.0
C342 C 0.85889 0.43599 0.00604 0.0
C343 C 0.87541 0.45132 0.97208 0.0
C344 C 0.85216 0.46207 0.9409 0.0
H345 H 0.77921 0.62795 0.42157 0.0
H346 H 0.82428 0.51634 0.44544 0.0
H347 H 0.76472 0.49502 0.47791 0.0
H348 H 0.72413 0.6382 0.51092 0.0
H349 H 0.68575 0.65884 0.48509 0.0
H350 H 0.7334 0.66676 0.46844 0.0
H351 H 0.71257 0.63752 0.39931 0.0
H352 H 0.66489 0.63044 0.4155 0.0
H353 H 0.68806 0.58934 0.39478 0.0
H354 H 0.69884 0.48529 0.50453 0.0
H355 H 0.62947 0.4827 0.51165 0.0
H356 H 0.62738 0.59958 0.46694 0.0
C357 C 0.77651 0.59921 0.43412 0.0
C358 C 0.80599 0.57377 0.43164 0.0
C359 C 0.80174 0.53611 0.44747 0.0
C360 C 0.76829 0.52405 0.46621 0.0
C361 C 0.73967 0.55011 0.46863 0.0
C362 C 0.74334 0.58668 0.45241 0.0
C363 C 0.70723 0.60754 0.45484 0.0
C364 C 0.71298 0.64506 0.48141 0.0
C365 C 0.69231 0.6167 0.41367 0.0
C366 C 0.68201 0.57645 0.47363 0.0
C367 C 0.70152 0.54406 0.48264 0.0
C368 C 0.68345 0.51069 0.49812 0.0
C369 C 0.64414 0.50962 0.50251 0.0
C370 C 0.62353 0.54129 0.49052 0.0
C371 C 0.64285 0.57554 0.47728 0.0
H372 H 0.11525 0.24231 0.14052 0.0
H373 H 0.10579 0.17219 0.03159 0.0
H374 H 0.07939 0.22802 -0.00188 0.0
H375 H 0.0297 0.28576 0.13108 0.0
H376 H 0.04738 0.33275 0.15276 0.0
H377 H 0.06875 0.28872 0.16614 0.0
H378 H 0.13424 0.31898 0.14602 0.0
H379 H 0.11304 0.36321 0.1326 0.0
H380 H 0.13984 0.33688 0.09736 0.0
H381 H 0.05027 0.29293 0.9779 0.0
H382 H 0.02101 0.3573 0.97474 0.0
H383 H 0.04892 0.38045 0.0982 0.0
C384 C 0.10776 0.23865 0.10957 0.0
C385 C 0.11232 0.20285 0.08872 0.0
C386 C 0.1027 0.19951 0.04809 0.0
C387 C 0.08763 0.23104 0.02889 0.0
C388 C 0.08275 0.26578 0.05067 0.0
C389 C 0.09284 0.26958 0.09015 0.0
C390 C 0.0836 0.30885 0.10787 0.0
C391 C 0.05569 0.30369 0.14142 0.0
C392 C 0.11984 0.33343 0.12177 0.0
C393 C 0.06548 0.32623 0.07269 0.0
C394 C 0.06568 0.30163 0.03958 0.0
C395 C 0.05005 0.31232 0.00376 0.0
C396 C 0.03351 0.34881 0.00212 0.0
C397 C 0.03212 0.37342 0.03634 0.0
C398 C 0.04885 0.36193 0.07165 0.0
H399 H 0.56982 0.28089 0.84486 0.0
H400 H 0.68157 0.2794 0.89921 0.0
H401 H 0.67165 0.20805 0.90549 0.0
H402 H 0.52159 0.22405 0.89792 0.0
H403 H 0.49238 0.19666 0.86078 0.0
H404 H 0.51292 0.24428 0.85071 0.0
H405 H 0.54392 0.21442 0.78942 0.0
H406 H 0.52383 0.16608 0.80027 0.0
H407 H 0.57406 0.17442 0.79451 0.0
H408 H 0.64343 0.14372 0.92314 0.0
H409 H 0.59798 0.09854 0.95516 0.0
H410 H 0.50748 0.1365 0.88254 0.0
C411 C 0.59304 0.26548 0.85628 0.0
C412 C 0.62609 0.28629 0.87217 0.0
C413 C 0.6553 0.26469 0.88792 0.0
C414 C 0.65036 0.22378 0.89072 0.0
C415 C 0.61678 0.20436 0.87607 0.0
C416 C 0.58896 0.2245 0.85823 0.0
C417 C 0.55336 0.19812 0.85007 0.0
C418 C 0.51808 0.21689 0.86592 0.0
C419 C 0.54852 0.18764 0.80595 0.0
C420 C 0.56319 0.1624 0.87218 0.0
C421 C 0.60081 0.16541 0.88477 0.0
C422 C 0.61446 0.14012 0.91219 0.0
C423 C 0.58851 0.11401 0.93001 0.0
C424 C 0.54958 0.11421 0.92069 0.0
C425 C 0.53744 0.13551 0.88891 0.0
H426 H 0.92447 0.69723 0.37343 0.0
H427 H 0.91013 0.6598 0.49267 0.0
H428 H 0.93333 0.72662 0.51756 0.0
H429 H 0.01204 0.76149 0.39409 0.0
H430 H -0.00241 0.79533 0.35831 0.0
H431 H 0.98408 0.74353 0.35145 0.0
H432 H 0.91373 0.75941 0.34535 0.0
H433 H 0.92679 0.811 0.3529 0.0
H434 H 0.8933 0.78703 0.3846 0.0
H435 H 0.95156 0.80193 0.52784 0.0
H436 H 0.96387 0.87424 0.52149 0.0
H437 H 0.9691 0.85585 0.39537 0.0
C438 C 0.92772 0.70183 0.40489 0.0
C439 C 0.91565 0.67261 0.43089 0.0
C440 C 0.91886 0.68159 0.4719 0.0
C441 C 0.93232 0.71942 0.48637 0.0
C442 C 0.94318 0.74762 0.4595 0.0
C443 C 0.94158 0.73869 0.41962 0.0
C444 C 0.95224 0.77397 0.39608 0.0
C445 C 0.98866 0.76823 0.37367 0.0
C446 C 0.91957 0.78338 0.36813 0.0
C447 C 0.9588 0.80478 0.42871 0.0
C448 C 0.95389 0.7895 0.46528 0.0
C449 C 0.95611 0.81393 0.49932 0.0
C450 C 0.96309 0.85486 0.49551 0.0
C451 C 0.96724 0.87052 0.45792 0.0
C452 C 0.96587 0.84486 0.42453 0.0
H453 H 0.44084 0.80351 0.60166 0.0
H454 H 0.32557 0.78766 0.55433 0.0
H455 H 0.33872 0.72327 0.52583 0.0
H456 H 0.48678 0.74885 0.52237 0.0
H457 H 0.51799 0.72653 0.55604 0.0
H458 H 0.50196 0.77451 0.56784 0.0
H459 H 0.47617 0.74962 0.63333 0.0
H460 H 0.49213 0.70166 0.62184 0.0
H461 H 0.44323 0.70685 0.63272 0.0
H462 H 0.3607 0.65846 0.50824 0.0
H463 H 0.39 0.59499 0.50533 0.0
H464 H 0.4904 0.6491 0.56589 0.0
C465 C 0.41843 0.78676 0.58496 0.0
C466 C 0.38236 0.80158 0.57964 0.0
C467 C 0.3539 0.77819 0.55775 0.0
C468 C 0.36097 0.7412 0.54157 0.0
C469 C 0.39655 0.7275 0.54768 0.0
C470 C 0.42483 0.74932 0.56899 0.0
C471 C 0.45929 0.7258 0.57437 0.0
C472 C 0.49353 0.74508 0.55393 0.0
C473 C 0.46821 0.72067 0.61816 0.0
C474 C 0.44539 0.687 0.55371 0.0
C475 C 0.40929 0.68907 0.53804 0.0
C476 C 0.38914 0.65657 0.51985 0.0
C477 C 0.40592 0.62068 0.5184 0.0
C478 C 0.44242 0.61754 0.53495 0.0
C479 C 0.4628 0.6512 0.55217 0.0
H480 H 0.86912 0.9438 0.79552 0.0
H481 H 0.90684 0.82494 0.7886 0.0
H482 H 0.93044 0.83679 0.72295 0.0
H483 H 0.83499 0.93833 0.69169 0.0
H484 H 0.84644 0.99013 0.68633 0.0
H485 H 0.83251 0.97228 0.73323 0.0
H486 H 0.89445 0.00495 0.76554 0.0
H487 H 0.90845 0.02301 0.71896 0.0
H488 H 0.93927 0.99329 0.74597 0.0
H489 H 0.95317 0.86332 0.65793 0.0
H490 H 0.9731 0.90291 0.60162 0.0
H491 H 0.91414 0.00048 0.64921 0.0
C492 C 0.88138 0.91957 0.78036 0.0
C493 C 0.88622 0.8835 0.79854 0.0
C494 C 0.90358 0.85348 0.77678 0.0
C495 C 0.91664 0.85961 0.73882 0.0
C496 C 0.91108 0.89537 0.72204 0.0
C497 C 0.89331 0.92456 0.74199 0.0
C498 C 0.89017 0.9602 0.71738 0.0
C499 C 0.84856 0.96556 0.70653 0.0
C500 C 0.90925 -0.00246 0.73821 0.0
C501 C 0.9114 0.94766 0.68164 0.0
C502 C 0.9226 0.90984 0.68432 0.0
C503 C 0.94401 0.89274 0.65528 0.0
C504 C 0.95502 0.91532 0.62326 0.0
C505 C 0.94499 0.95466 0.62097 0.0
C506 C 0.92206 0.97041 0.65008 0.0
H507 H 0.58861 0.06095 0.30578 0.0
H508 H 0.65558 0.17115 0.29559 0.0
H509 H 0.64571 0.16636 0.22361 0.0
H510 H 0.61964 0.01334 0.21254 0.0
H511 H 0.57355 0.98944 0.20107 0.0
H512 H 0.58889 -0.00102 0.25152 0.0
H513 H 0.52938 0.03691 0.26431 0.0
H514 H 0.51386 0.02735 0.21404 0.0
H515 H 0.51937 0.07725 0.23397 0.0
H516 H 0.62496 0.15338 0.15518 0.0
H517 H 0.59193 0.13451 0.09243 0.0
H518 H 0.53767 0.03166 0.14409 0.0
C519 C 0.60162 0.08353 0.28806 0.0
C520 C 0.62321 0.11624 0.30569 0.0
C521 C 0.63936 0.14578 0.28219 0.0
C522 C 0.63398 0.1432 0.24143 0.0
C523 C 0.61253 0.11074 0.2247 0.0
C524 C 0.59654 0.08134 0.24705 0.0
C525 C 0.57273 0.05106 0.22141 0.0
C526 C 0.58972 0.01081 0.22166 0.0
C527 C 0.53138 0.048 0.2342 0.0
C528 C 0.57656 0.06904 0.18154 0.0
C529 C 0.60028 0.10308 0.18431 0.0
C530 C 0.60679 0.12651 0.15244 0.0
C531 C 0.58786 0.11554 0.11694 0.0
C532 C 0.5626 0.08146 0.11338 0.0
C533 C 0.55753 0.05731 0.14584 0.0
H534 H 0.35511 0.57208 0.22744 0.0
H535 H 0.36089 0.69101 0.278 0.0
H536 H 0.37655 0.666 0.34287 0.0
H537 H 0.32036 0.52055 0.31929 0.0
H538 H 0.34931 0.48024 0.30875 0.0
H539 H 0.32869 0.50577 0.26914 0.0
H540 H 0.39504 0.52 0.24048 0.0
H541 H 0.41552 0.49416 0.27941 0.0
H542 H 0.43227 0.54429 0.2714 0.0
H543 H 0.40331 0.63049 0.39825 0.0
H544 H 0.44549 0.58954 0.43529 0.0
H545 H 0.42261 0.49411 0.34887 0.0
C546 C 0.35804 0.5926 0.25255 0.0
C547 C 0.35655 0.63335 0.24785 0.0
C548 C 0.36198 0.6596 0.28102 0.0
C549 C 0.37037 0.6456 0.31807 0.0
C550 C 0.37277 0.60524 0.32158 0.0
C551 C 0.3666 0.57908 0.28961 0.0
C552 C 0.37709 0.53829 0.29925 0.0
C553 C 0.34175 0.50952 0.29911 0.0
C554 C 0.40675 0.52339 0.271 0.0
C555 C 0.39325 0.54633 0.34044 0.0
C556 C 0.38896 0.58464 0.35359 0.0
C557 C 0.40593 0.60015 0.38879 0.0
C558 C 0.42967 0.57671 0.40981 0.0
C559 C 0.43667 0.53881 0.39481 0.0
C560 C 0.41676 0.5228 0.36107 0.0
H561 H 0.10537 0.47938 0.69571 0.0
H562 H 0.11411 0.35504 0.71343 0.0
H563 H 0.10503 0.36638 0.78436 0.0
H564 H 0.15177 0.51599 0.79109 0.0
H565 H 0.12 0.55473 0.7966 0.0
H566 H 0.13278 0.53786 0.74831 0.0
H567 H 0.06196 0.52322 0.72839 0.0
H568 H 0.04916 0.54084 0.77613 0.0
H569 H 0.03243 0.49207 0.7583 0.0
H570 H 0.08816 0.39007 0.85211 0.0
H571 H 0.05672 0.42231 0.90748 0.0
H572 H 0.05963 0.53071 0.84553 0.0
C573 C 0.10623 0.45471 0.71467 0.0
C574 C 0.11037 0.41638 0.69901 0.0
C575 C 0.1105 0.38465 0.72466 0.0
C576 C 0.10595 0.39089 0.76511 0.0
C577 C 0.1017 0.42907 0.77961 0.0
C578 C 0.10166 0.46041 0.75505 0.0
C579 C 0.09231 0.49773 0.77699 0.0
C580 C 0.12624 0.52839 0.77832 0.0
C581 C 0.05686 0.5144 0.75889 0.0
C582 C 0.08509 0.4821 0.81723 0.0
C583 C 0.09182 0.44271 0.81861 0.0
C584 C 0.08362 0.42111 0.85169 0.0
C585 C 0.06617 0.4397 0.88323 0.0
C586 C 0.05661 0.47909 0.88087 0.0
C587 C 0.06777 0.50089 0.84833 0.0
H588 H 0.76762 0.86451 0.93212 0.0
H589 H 0.82197 0.97097 0.8876 0.0
H590 H 0.7678 0.00808 0.90823 0.0
H591 H 0.67437 0.88266 0.9018 0.0
H592 H 0.65277 0.86191 0.94424 0.0
H593 H 0.69647 0.84458 0.9272 0.0
H594 H 0.72789 0.86075 0.9959 0.0
H595 H 0.68417 0.87795 0.01316 0.0
H596 H 0.72697 0.90977 0.01756 0.0
H597 H 0.70403 0.03268 0.93098 0.0
H598 H 0.63965 0.04158 0.95593 0.0
H599 H 0.6309 0.91915 0.98702 0.0
C600 C 0.76857 0.89578 0.92739 0.0
C601 C 0.79916 0.91477 0.90832 0.0
C602 C 0.7987 0.95565 0.9019 0.0
C603 C 0.7681 0.97704 0.91363 0.0
C604 C 0.73809 0.95722 0.93187 0.0
C605 C 0.73834 0.9175 0.93886 0.0
C606 C 0.70244 0.90256 0.95786 0.0
C607 C 0.68022 0.87108 0.93118 0.0
C608 C 0.71089 0.88685 -0.00146 0.0
C609 C 0.68209 0.94003 0.96091 0.0
C610 C 0.70262 0.97136 0.9455 0.0
C611 C 0.68795 0.00837 0.94356 0.0
C612 C 0.6514 0.01324 0.95775 0.0
C613 C 0.63032 0.98138 0.97405 0.0
C614 C 0.64633 0.94455 0.97558 0.0
H615 H 0.71006 0.05495 0.39044 0.0
H616 H 0.71297 0.16167 0.46507 0.0
H617 H 0.77499 0.14697 0.49184 0.0
H618 H 0.76106 0.99418 0.45329 0.0
H619 H 0.78726 0.9736 0.41382 0.0
H620 H 0.74075 0.98966 0.40423 0.0
H621 H 0.76751 0.03532 0.35109 0.0
H622 H 0.81409 0.01941 0.36043 0.0
H623 H 0.80616 0.07107 0.36382 0.0
H624 H 0.83839 0.12104 0.50986 0.0
H625 H 0.89915 0.08922 0.51269 0.0
H626 H 0.85764 0.00579 0.41968 0.0
C627 C 0.72344 0.07557 0.41227 0.0
C628 C 0.70561 0.10929 0.42572 0.0
C629 C 0.72475 0.13483 0.45487 0.0
C630 C 0.76046 0.12701 0.47011 0.0
C631 C 0.77728 0.09399 0.45547 0.0
C632 C 0.75955 0.06903 0.42679 0.0
C633 C 0.78493 0.03758 0.41329 0.0
C634 C 0.76745 -0.00369 0.42168 0.0
C635 C 0.79369 0.04107 0.36958 0.0
C636 C 0.81965 0.04856 0.43909 0.0
C637 C 0.81457 0.08082 0.46369 0.0
C638 C 0.84272 0.09587 0.4906 0.0
C639 C 0.87703 0.07761 0.4921 0.0
C640 C 0.88305 0.04532 0.46623 0.0
C641 C 0.85389 0.03069 0.43955 0.0
H642 H 0.28975 0.56775 0.13469 0.0
H643 H 0.2838 0.68452 0.08904 0.0
H644 H 0.2283 0.66113 0.04869 0.0
H645 H 0.24815 0.50965 0.04554 0.0
H646 H 0.22146 0.476 0.0755 0.0
H647 H 0.2666 0.49833 0.09315 0.0
H648 H 0.2352 0.52478 0.1557 0.0
H649 H 0.19014 0.50274 0.13818 0.0
H650 H 0.19554 0.55472 0.15078 0.0
H651 H 0.16855 0.62924 0.02078 0.0
H652 H 0.10659 0.59208 0.01123 0.0
H653 H 0.14724 0.498 0.07934 0.0
C654 C 0.27725 0.5883 0.11573 0.0
C655 C 0.29197 0.62789 0.11477 0.0
C656 C 0.27434 0.65369 0.08953 0.0
C657 C 0.24246 0.64073 0.06646 0.0
C658 C 0.22812 0.60196 0.06901 0.0
C659 C 0.24483 0.57606 0.09307 0.0
C660 C 0.22056 0.53786 0.09496 0.0
C661 C 0.24039 0.50343 0.07616 0.0
C662 C 0.20972 0.52958 0.13742 0.0
C663 C 0.18668 0.54741 0.0702 0.0
C664 C 0.19222 0.58396 0.05438 0.0
C665 C 0.16405 0.60028 0.03244 0.0
C666 C 0.12895 0.57901 0.02723 0.0
C667 C 0.12219 0.54229 0.04466 0.0
C668 C 0.15172 0.526 0.06564 0.0
H669 H 0.20293 0.38119 0.57156 0.0
H670 H 0.17332 0.50213 0.58359 0.0
H671 H 0.23439 0.52406 0.55403 0.0
H672 H 0.29646 0.39781 0.60015 0.0
H673 H 0.31321 0.36098 0.56677 0.0
H674 H 0.26566 0.35578 0.58366 0.0
H675 H 0.24017 0.35074 0.5117 0.0
H676 H 0.28778 0.35628 0.49442 0.0
H677 H 0.25329 0.38931 0.479 0.0
H678 H 0.29995 0.53163 0.52499 0.0
H679 H 0.36734 0.52626 0.51084 0.0
H680 H 0.35377 0.4001 0.52273 0.0
C681 C 0.20889 0.41228 0.56715 0.0
C682 C 0.18325 0.44003 0.57878 0.0
C683 C 0.19254 0.48053 0.57419 0.0
C684 C 0.22688 0.49305 0.55718 0.0
C685 C 0.25128 0.46457 0.54533 0.0
C686 C 0.24273 0.42506 0.55068 0.0
C687 C 0.27482 0.40036 0.53955 0.0
C688 C 0.28834 0.37743 0.57463 0.0
C689 C 0.26332 0.37253 0.50406 0.0
C690 C 0.30385 0.43226 0.52868 0.0
C691 C 0.28934 0.46896 0.53074 0.0
C692 C 0.3114 0.50303 0.52301 0.0
C693 C 0.34957 0.49965 0.51467 0.0
C694 C 0.36546 0.46268 0.51539 0.0
C695 C 0.34206 0.42853 0.52141 0.0
H696 H 0.88409 0.76764 0.86742 0.0
H697 H 0.89409 0.8339 0.97861 0.0
H698 H 0.91839 0.7758 0.01025 0.0
H699 H 0.85353 0.67465 0.90551 0.0
H700 H 0.87936 0.64726 0.87022 0.0
H701 H 0.86241 0.6939 0.8579 0.0
H702 H 0.93057 0.71941 0.84128 0.0
H703 H 0.94773 0.6729 0.85369 0.0
H704 H 0.9681 0.71779 0.87764 0.0
H705 H 0.94436 0.70808 0.02837 0.0
H706 H 0.96482 0.63973 0.03079 0.0
H707 H 0.93649 0.62186 0.9067 0.0
C708 C 0.8916 0.77018 0.89842 0.0
C709 C 0.88766 0.80551 0.92041 0.0
C710 C 0.89692 0.80711 0.96114 0.0
C711 C 0.91088 0.7743 0.97928 0.0
C712 C 0.91506 0.74004 0.95633 0.0
C713 C 0.90529 0.73799 0.91678 0.0
C714 C 0.91192 0.69837 0.89801 0.0
C715 C 0.87459 0.67731 0.88198 0.0
C716 C 0.94133 0.70237 0.86576 0.0
C717 C 0.92722 0.67816 0.93295 0.0
C718 C 0.92907 0.70228 0.96652 0.0
C719 C 0.94282 0.68908 0.00214 0.0
C720 C 0.95453 0.65028 0.00328 0.0
C721 C 0.95219 0.62522 0.96904 0.0
C722 C 0.93852 0.63988 0.93362 0.0
H723 H 0.41251 0.70888 0.09234 0.0
H724 H 0.37891 0.76439 0.20129 0.0
H725 H 0.40272 0.82928 0.1786 0.0
H726 H 0.49802 0.7741 0.07893 0.0
H727 H 0.49032 0.77343 0.02652 0.0
H728 H 0.47446 0.73145 0.05368 0.0
H729 H 0.40681 0.73571 0.02437 0.0
H730 H 0.42224 0.77827 -0.00208 0.0
H731 H 0.38354 0.78076 0.03095 0.0
H732 H 0.42535 0.88891 0.1412 0.0
H733 H 0.45159 0.93722 0.09474 0.0
H734 H 0.46728 0.84131 0.01045 0.0
C735 C 0.4108 0.73463 0.11168 0.0
C736 C 0.39398 0.73177 0.14853 0.0
C737 C 0.39224 0.766 0.17314 0.0
C738 C 0.40533 0.80296 0.16038 0.0
C739 C 0.42023 0.80499 0.1231 0.0
C740 C 0.4236 0.77161 0.09941 0.0
C741 C 0.43944 0.78167 0.06015 0.0
C742 C 0.47784 0.76413 0.05451 0.0
C743 C 0.41132 0.76832 0.02637 0.0
C744 C 0.44385 0.82595 0.06524 0.0
C745 C 0.43275 0.83902 0.10165 0.0
C746 C 0.43443 0.87901 0.11267 0.0
C747 C 0.44907 0.90622 0.08609 0.0
C748 C 0.46168 0.89302 0.0492 0.0
C749 C 0.45813 0.85245 0.03855 0.0
H750 H 0.03749 0.32397 0.57296 0.0
H751 H 0.15886 0.31893 0.5864 0.0
H752 H 0.1538 0.25013 0.56151 0.0
H753 H 0.01071 0.23469 0.60637 0.0
H754 H 0.97285 0.22083 0.57121 0.0
H755 H 0.98634 0.27193 0.58193 0.0
H756 H -0.00307 0.28182 0.50797 0.0
H757 H 0.98388 0.23033 0.49725 0.0
H758 H 0.02872 0.25176 0.48201 0.0
H759 H 0.13637 0.18157 0.54639 0.0
H760 H 0.10635 0.11435 0.54755 0.0
H761 H -0.00432 0.16025 0.54295 0.0
C762 C 0.06282 0.30831 0.56977 0.0
C763 C 0.0986 0.32647 0.58103 0.0
C764 C 0.13133 0.30538 0.57726 0.0
C765 C 0.12878 0.26649 0.56282 0.0
C766 C 0.0933 0.24915 0.55181 0.0
C767 C 0.06079 0.26917 0.55492 0.0
C768 C 0.02598 0.24176 0.54505 0.0
C769 C -0.00268 0.24233 0.57815 0.0
C770 C 0.0078 0.25205 0.50575 0.0
C771 C 0.04384 0.20268 0.54102 0.0
C772 C 0.08287 0.20816 0.54287 0.0
C773 C 0.10593 0.17681 0.54374 0.0
C774 C 0.08871 0.13881 0.54441 0.0
C775 C 0.04898 0.13266 0.54456 0.0
C776 C 0.02613 0.16463 0.54158 0.0
H777 H 0.61378 0.22974 0.379 0.0
H778 H 0.57274 0.1632 0.47657 0.0
H779 H 0.54276 0.22237 0.50315 0.0
H780 H 0.63665 0.32012 0.43495 0.0
H781 H 0.6239 0.35002 0.39499 0.0
H782 H 0.64114 0.30233 0.38496 0.0
H783 H 0.58059 0.28189 0.34261 0.0
H784 H 0.56316 0.32946 0.35263 0.0
H785 H 0.53486 0.28554 0.36383 0.0
H786 H 0.51663 0.29184 0.51752 0.0
H787 H 0.49999 0.3617 0.51862 0.0
H788 H 0.56046 0.37812 0.41081 0.0
C789 C 0.59818 0.22751 0.40582 0.0
C790 C 0.59483 0.19201 0.42547 0.0
C791 C 0.57517 0.1903 0.46102 0.0
C792 C 0.55814 0.22369 0.47621 0.0
C793 C 0.56172 0.25841 0.45568 0.0
C794 C 0.58167 0.26029 0.42139 0.0
C795 C 0.58275 0.30061 0.40487 0.0
C796 C 0.62352 0.31936 0.40497 0.0
C797 C 0.56422 0.29927 0.36355 0.0
C798 C 0.55941 0.32123 0.43445 0.0
C799 C 0.54754 0.29699 0.46388 0.0
C800 C 0.52587 0.31092 0.4945 0.0
C801 C 0.51647 0.35057 0.49489 0.0
C802 C 0.52864 0.37553 0.46472 0.0
C803 C 0.55025 0.36013 0.43431 0.0
loop_
_geom_bond_atom_site_label_1
_geom_bond_atom_site_label_2
_geom_bond_distance
_geom_bond_site_symmetry_2
_ccdc_geom_bond_type
H0 C3 0.931 . S
H1 C6 0.928 . S
H2 C8 0.930 . S
C3 H0 0.931 . S
C3 C4 1.413 . S
C3 C5 1.360 . S
C4 C3 1.413 . S
C4 C8 1.429 . S
C5 C3 1.360 . S
C5 C6 1.372 . S
C6 H1 0.928 . S
C6 C5 1.372 . S
C6 C7 1.404 . S
C7 C6 1.404 . S
C7 C8 1.391 . S
C8 H2 0.930 . S
C8 C4 1.429 . S
C8 C7 1.391 . S
H9 C12 0.931 . S
H10 C15 0.928 . S
H11 C17 0.930 . S
C12 H9 0.931 . S
C12 C13 1.413 . S
C12 C14 1.360 . S
C13 C12 1.413 . S
C13 C17 1.429 . S
C14 C12 1.360 . S
C14 C15 1.372 . S
C15 H10 0.928 . S
C15 C14 1.372 . S
C15 C16 1.404 . S
C16 C15 1.404 . S
C16 C17 1.391 . S
C17 H11 0.930 . S
C17 C13 1.429 . S
C17 C16 1.391 . S
H18 C21 0.931 . S
H19 C24 0.928 . S
H20 C26 0.930 . S
C21 H18 0.931 . S
C21 C22 1.413 . S
C21 C23 1.360 . S
C22 C21 1.413 . S
C22 C26 1.429 . S
C23 C21 1.360 . S
C23 C24 1.372 . S
C24 H19 0.928 . S
C24 C23 1.372 . S
C24 C25 1.404 . S
C25 C24 1.404 . S
C25 C26 1.391 . S
C26 H20 0.930 . S
C26 C22 1.429 . S
C26 C25 1.391 . S
H27 C30 0.931 . S
H28 C33 0.928 . S
H29 C35 0.930 . S
C30 H27 0.931 . S
C30 C31 1.413 . S
C30 C32 1.360 . S
C31 C30 1.413 . S
C31 C35 1.429 . S
C32 C30 1.360 . S
C32 C33 1.372 . S
C33 H28 0.928 . S
C33 C32 1.372 . S
C33 C34 1.404 . S
C34 C33 1.404 . S
C34 C35 1.391 . S
C35 H29 0.930 . S
C35 C31 1.429 . S
C35 C34 1.391 . S
H36 C39 0.931 . S
H37 C42 0.928 . S
H38 C44 0.930 . S
C39 H36 0.931 . S
C39 C40 1.413 . S
C39 C41 1.360 . S
C40 C39 1.413 . S
C40 C44 1.429 . S
C41 C39 1.360 . S
C41 C42 1.372 . S
C42 H37 0.928 . S
C42 C41 1.372 . S
C42 C43 1.404 . S
C43 C42 1.404 . S
C43 C44 1.391 . S
C44 H38 0.930 . S
C44 C40 1.429 . S
C44 C43 1.391 . S
H45 C48 0.931 . S
H46 C51 0.928 . S
H47 C53 0.930 . S
C48 H45 0.931 . S
C48 C49 1.413 . S
C48 C50 1.360 . S
C49 C48 1.413 . S
C49 C53 1.429 . S
C50 C48 1.360 . S
C50 C51 1.372 . S
C51 H46 0.928 . S
C51 C50 1.372 . S
C51 C52 1.404 . S
C52 C51 1.404 . S
C52 C53 1.391 . S
C53 H47 0.930 . S
C53 C49 1.429 . S
C53 C52 1.391 . S
H54 C57 0.931 . S
H55 C60 0.928 . S
H56 C62 0.930 . S
C57 H54 0.931 . S
C57 C58 1.413 . S
C57 C59 1.360 . S
C58 C57 1.413 . S
C58 C62 1.429 . S
C59 C57 1.360 . S
C59 C60 1.372 . S
C60 H55 0.928 . S
C60 C59 1.372 . S
C60 C61 1.404 . S
C61 C60 1.404 . S
C61 C62 1.391 . S
C62 H56 0.930 . S
C62 C58 1.429 . S
C62 C61 1.391 . S
H63 C66 0.931 . S
H64 C69 0.928 . S
H65 C71 0.930 . S
C66 H63 0.931 . S
C66 C67 1.413 . S
C66 C68 1.360 . S
C67 C66 1.413 . S
C67 C71 1.429 . S
C68 C66 1.360 . S
C68 C69 1.372 . S
C69 H64 0.928 . S
C69 C68 1.372 . S
C69 C70 1.404 . S
C70 C69 1.404 . S
C70 C71 1.391 . S
C71 H65 0.930 . S
C71 C67 1.429 . S
C71 C70 1.391 . S
O72 Mg73 1.990 . S
O72 C86 1.253 1_445 S
Mg73 O72 1.990 . S
Mg73 O76 2.180 . S
Mg73 O77 2.117 . S
Mg73 O91 2.030 1_545 S
O74 Mg75 2.072 1_665 S
O74 C86 1.260 . S
Mg75 O74 2.072 1_445 S
Mg75 O76 2.099 . S
Mg75 O78 2.079 . S
Mg75 O79 2.072 1_455 S
Mg75 O81 2.099 1_445 S
Mg75 O92 2.079 1_545 S
O76 Mg73 2.180 . S
O76 Mg75 2.099 . S
O76 C87 1.279 . S
O77 Mg73 2.117 . S
O77 C87 1.250 . S
O78 Mg75 2.079 . S
O78 C88 1.264 . S
O79 Mg75 2.072 1_655 S
O79 C89 1.260 . S
Mg80 O81 2.180 . S
Mg80 O82 2.030 1_565 S
Mg80 O83 1.990 1_565 S
Mg80 O84 2.117 . S
O81 Mg75 2.099 1_665 S
O81 Mg80 2.180 . S
O81 C90 1.279 . S
O82 Mg80 2.030 1_545 S
O82 C88 1.248 1_655 S
O83 Mg80 1.990 1_545 S
O83 C89 1.253 . S
O84 Mg80 2.117 . S
O84 C90 1.250 . S
C85 O91 1.248 . S
C85 O92 1.264 . S
C86 O72 1.253 1_665 S
C86 O74 1.260 . S
C87 O76 1.279 . S
C87 O77 1.250 . S
C88 O78 1.264 . S
C88 O82 1.248 1_455 S
C89 O79 1.260 . S
C89 O83 1.253 . S
C90 O81 1.279 . S
C90 O84 1.250 . S
O91 Mg73 2.030 1_565 S
O91 C85 1.248 . S
O92 Mg75 2.079 1_565 S
O92 C85 1.264 . S
O93 Mg94 1.990 . S
O93 C107 1.253 . S
Mg94 O93 1.990 . S
Mg94 O97 2.181 1_554 S
Mg94 O98 2.117 1_554 S
Mg94 O112 2.030 . S
O95 Mg96 2.072 . S
O95 C107 1.260 . S
Mg96 O95 2.072 . S
Mg96 O97 2.099 1_554 S
Mg96 O99 2.079 1_544 S
Mg96 O100 2.072 1_554 S
Mg96 O102 2.099 1_545 S
Mg96 O113 2.079 . S
O97 Mg94 2.181 1_556 S
O97 Mg96 2.099 1_556 S
O97 C108 1.278 . S
O98 Mg94 2.117 1_556 S
O98 C108 1.250 . S
O99 Mg96 2.079 1_566 S
O99 C109 1.264 . S
O100 Mg96 2.072 1_556 S
O100 C110 1.260 1_545 S
Mg101 O102 2.180 1_556 S
Mg101 O103 2.030 . S
Mg101 O104 1.990 . S
Mg101 O105 2.117 1_556 S
O102 Mg96 2.099 1_565 S
O102 Mg101 2.180 1_554 S
O102 C111 1.279 . S
O103 Mg101 2.030 . S
O103 C109 1.248 . S
O104 Mg101 1.990 . S
O104 C110 1.253 . S
O105 Mg101 2.117 1_554 S
O105 C111 1.250 . S
C106 O112 1.248 . S
C106 O113 1.264 . S
C107 O93 1.253 . S
C107 O95 1.260 . S
C108 O97 1.278 . S
C108 O98 1.250 . S
C109 O99 1.264 . S
C109 O103 1.248 . S
C110 O100 1.260 1_565 S
C110 O104 1.253 . S
C111 O102 1.279 . S
C111 O105 1.250 . S
O112 Mg94 2.030 . S
O112 C106 1.248 . S
O113 Mg96 2.079 . S
O113 C106 1.264 . S
O114 Mg115 1.990 . S
O114 C128 1.253 . S
Mg115 O114 1.990 . S
Mg115 O118 2.180 . S
Mg115 O119 2.117 . S
Mg115 O133 2.030 . S
O116 Mg117 2.072 . S
O116 C128 1.260 . S
Mg117 O116 2.072 . S
Mg117 O118 2.099 . S
Mg117 O120 2.079 . S
Mg117 O121 2.072 . S
Mg117 O123 2.099 . S
Mg117 O134 2.079 . S
O118 Mg115 2.180 . S
O118 Mg117 2.099 . S
O118 C129 1.279 . S
O119 Mg115 2.117 . S
O119 C129 1.250 . S
O120 Mg117 2.079 . S
O120 C130 1.264 . S
O121 Mg117 2.072 . S
O121 C131 1.260 . S
Mg122 O123 2.180 . S
Mg122 O124 2.030 . S
Mg122 O125 1.990 . S
Mg122 O126 2.117 . S
O123 Mg117 2.099 . S
O123 Mg122 2.180 . S
O123 C132 1.279 . S
O124 Mg122 2.030 . S
O124 C130 1.248 . S
O125 Mg122 1.990 . S
O125 C131 1.253 . S
O126 Mg122 2.117 . S
O126 C132 1.250 . S
C127 O133 1.248 . S
C127 O134 1.264 . S
C128 O114 1.253 . S
C128 O116 1.260 . S
C129 O118 1.279 . S
C129 O119 1.250 . S
C130 O120 1.264 . S
C130 O124 1.248 . S
C131 O121 1.260 . S
C131 O125 1.253 . S
C132 O123 1.279 . S
C132 O126 1.250 . S
O133 Mg115 2.030 . S
O133 C127 1.248 . S
O134 Mg117 2.079 . S
O134 C127 1.264 . S
O135 Mg136 1.990 . S
O135 C149 1.253 . S
Mg136 O135 1.990 . S
Mg136 O139 2.180 1_455 S
Mg136 O140 2.117 1_455 S
Mg136 O154 2.030 . S
O137 Mg138 2.072 . S
O137 C149 1.260 . S
Mg138 O137 2.072 . S
Mg138 O139 2.099 1_455 S
Mg138 O141 2.079 1_454 S
Mg138 O142 2.072 1_455 S
Mg138 O144 2.099 1_554 S
Mg138 O155 2.079 . S
O139 Mg136 2.180 1_655 S
O139 Mg138 2.099 1_655 S
O139 C150 1.279 . S
O140 Mg136 2.117 1_655 S
O140 C150 1.250 . S
O141 Mg138 2.079 1_656 S
O141 C151 1.264 . S
O142 Mg138 2.072 1_655 S
O142 C152 1.260 1_554 S
Mg143 O144 2.180 1_655 S
Mg143 O145 2.030 . S
Mg143 O146 1.990 . S
Mg143 O147 2.117 . S
O144 Mg138 2.099 1_556 S
O144 Mg143 2.180 1_455 S
O144 C153 1.279 . S
O145 Mg143 2.030 . S
O145 C151 1.248 . S
O146 Mg143 1.990 . S
O146 C152 1.253 . S
O147 Mg143 2.117 . S
O147 C153 1.250 1_655 S
C148 O154 1.248 . S
C148 O155 1.264 . S
C149 O135 1.253 . S
C149 O137 1.260 . S
C150 O139 1.279 . S
C150 O140 1.250 . S
C151 O141 1.264 . S
C151 O145 1.248 . S
C152 O142 1.260 1_556 S
C152 O146 1.253 . S
C153 O144 1.279 . S
C153 O147 1.250 1_455 S
O154 Mg136 2.030 . S
O154 C148 1.248 . S
O155 Mg138 2.079 . S
O155 C148 1.264 . S
H156 C168 0.930 . S
H157 C170 0.930 . S
H158 C171 0.930 . S
H159 C175 0.959 . S
H160 C175 0.959 . S
H161 C175 0.961 . S
H162 C176 0.960 . S
H163 C176 0.961 . S
H164 C176 0.959 . S
H165 C179 0.929 1_655 S
H166 C180 0.931 1_655 S
H167 C182 0.930 . S
C168 H156 0.930 . S
C168 C169 1.399 . S
C168 C173 1.399 . S
C169 C168 1.399 . S
C169 C170 1.376 . S
C170 H157 0.930 . S
C170 C169 1.376 . S
C170 C171 1.388 . S
C171 H158 0.930 . S
C171 C170 1.388 . S
C171 C172 1.390 . S
C172 C171 1.390 . S
C172 C173 1.394 . S
C172 C178 1.465 . S
C173 C168 1.399 . S
C173 C172 1.394 . S
C173 C174 1.516 . S
C174 C173 1.516 . S
C174 C175 1.502 . S
C174 C176 1.561 . S
C174 C177 1.526 . S
C175 H159 0.959 . S
C175 H160 0.959 . S
C175 H161 0.961 . S
C175 C174 1.502 . S
C176 H162 0.960 . S
C176 H163 0.961 . S
C176 H164 0.959 . S
C176 C174 1.561 . S
C177 C174 1.526 . S
C177 C178 1.396 . S
C177 C182 1.390 . S
C178 C172 1.465 . S
C178 C177 1.396 . S
C178 C179 1.399 . S
C179 H165 0.929 1_455 S
C179 C178 1.399 . S
C179 C180 1.385 . S
C180 H166 0.931 1_455 S
C180 C179 1.385 . S
C180 C181 1.389 . S
C181 C180 1.389 . S
C181 C182 1.387 . S
C182 H167 0.930 . S
C182 C177 1.390 . S
C182 C181 1.387 . S
H183 C195 0.930 . S
H184 C197 0.930 . S
H185 C198 0.930 . S
H186 C202 0.977 . S
H187 C202 0.959 . S
H188 C202 0.961 . S
H189 C203 0.960 . S
H190 C203 0.961 . S
H191 C203 0.959 1_565 S
H192 C206 0.929 . S
H193 C207 0.931 . S
H194 C209 0.930 1_545 S
C195 H183 0.930 . S
C195 C196 1.399 . S
C195 C200 1.399 . S
C196 C195 1.399 . S
C196 C197 1.376 . S
C197 H184 0.930 . S
C197 C196 1.376 . S
C197 C198 1.388 . S
C198 H185 0.930 . S
C198 C197 1.388 . S
C198 C199 1.390 . S
C199 C198 1.390 . S
C199 C200 1.394 . S
C199 C205 1.465 . S
C200 C195 1.399 . S
C200 C199 1.394 . S
C200 C201 1.516 . S
C201 C200 1.516 . S
C201 C202 1.502 1_565 S
C201 C203 1.561 1_565 S
C201 C204 1.526 . S
C202 H186 0.977 . S
C202 H187 0.959 . S
C202 H188 0.961 . S
C202 C201 1.502 1_545 S
C203 H189 0.960 . S
C203 H190 0.961 . S
C203 H191 0.959 1_545 S
C203 C201 1.561 1_545 S
C204 C201 1.526 . S
C204 C205 1.396 . S
C204 C209 1.390 . S
C205 C199 1.465 . S
C205 C204 1.396 . S
C205 C206 1.399 . S
C206 H192 0.929 . S
C206 C205 1.399 . S
C206 C207 1.385 . S
C207 H193 0.931 . S
C207 C206 1.385 . S
C207 C208 1.389 . S
C208 C207 1.389 . S
C208 C209 1.387 . S
C209 H194 0.930 1_565 S
C209 C204 1.390 . S
C209 C208 1.387 . S
H210 C222 0.930 . S
H211 C224 0.930 . S
H212 C225 0.930 . S
H213 C229 0.959 . S
H214 C229 0.959 . S
H215 C229 0.961 . S
H216 C230 0.960 . S
H217 C230 0.961 . S
H218 C230 0.959 . S
H219 C233 0.929 . S
H220 C234 0.931 . S
H221 C236 0.930 . S
C222 H210 0.930 . S
C222 C223 1.399 . S
C222 C227 1.399 . S
C223 C222 1.399 . S
C223 C224 1.376 . S
C224 H211 0.930 . S
C224 C223 1.376 . S
C224 C225 1.388 . S
C225 H212 0.930 . S
C225 C224 1.388 . S
C225 C226 1.390 . S
C226 C225 1.390 . S
C226 C227 1.394 . S
C226 C232 1.465 . S
C227 C222 1.399 . S
C227 C226 1.394 . S
C227 C228 1.516 . S
C228 C227 1.516 . S
C228 C229 1.502 . S
C228 C230 1.561 . S
C228 C231 1.526 . S
C229 H213 0.959 . S
C229 H214 0.959 . S
C229 H215 0.961 . S
C229 C228 1.502 . S
C230 H216 0.960 . S
C230 H217 0.961 . S
C230 H218 0.959 . S
C230 C228 1.561 . S
C231 C228 1.526 . S
C231 C232 1.396 . S
C231 C236 1.390 . S
C232 C226 1.465 . S
C232 C231 1.396 . S
C232 C233 1.399 . S
C233 H219 0.929 . S
C233 C232 1.399 . S
C233 C234 1.385 . S
C234 H220 0.931 . S
C234 C233 1.385 . S
C234 C235 1.389 . S
C235 C234 1.389 . S
C235 C236 1.387 . S
C236 H221 0.930 . S
C236 C231 1.390 . S
C236 C235 1.387 . S
H237 C249 0.930 . S
H238 C251 0.930 . S
H239 C252 0.930 . S
H240 C256 0.959 . S
H241 C256 0.959 . S
H242 C256 0.961 . S
H243 C257 0.960 . S
H244 C257 0.961 . S
H245 C257 0.959 . S
H246 C260 0.929 . S
H247 C261 0.931 . S
H248 C263 0.930 . S
C249 H237 0.930 . S
C249 C250 1.399 . S
C249 C254 1.399 . S
C250 C249 1.399 . S
C250 C251 1.376 . S
C251 H238 0.930 . S
C251 C250 1.376 . S
C251 C252 1.388 . S
C252 H239 0.930 . S
C252 C251 1.388 . S
C252 C253 1.390 . S
C253 C252 1.390 . S
C253 C254 1.394 . S
C253 C259 1.465 . S
C254 C249 1.399 . S
C254 C253 1.394 . S
C254 C255 1.516 . S
C255 C254 1.516 . S
C255 C256 1.502 . S
C255 C257 1.561 . S
C255 C258 1.526 . S
C256 H240 0.959 . S
C256 H241 0.959 . S
C256 H242 0.961 . S
C256 C255 1.502 . S
C257 H243 0.960 . S
C257 H244 0.961 . S
C257 H245 0.959 . S
C257 C255 1.561 . S
C258 C255 1.526 . S
C258 C259 1.396 . S
C258 C263 1.390 . S
C259 C253 1.465 . S
C259 C258 1.396 . S
C259 C260 1.399 . S
C260 H246 0.929 . S
C260 C259 1.399 . S
C260 C261 1.385 . S
C261 H247 0.931 . S
C261 C260 1.385 . S
C261 C262 1.389 . S
C262 C261 1.389 . S
C262 C263 1.387 . S
C263 H248 0.930 . S
C263 C258 1.390 . S
C263 C262 1.387 . S
H264 C276 0.930 . S
H265 C278 0.930 . S
H266 C279 0.930 . S
H267 C283 0.959 . S
H268 C283 0.959 . S
H269 C283 0.961 . S
H270 C284 0.960 . S
H271 C284 0.961 . S
H272 C284 0.959 . S
H273 C287 0.929 . S
H274 C288 0.931 1_565 S
H275 C290 0.930 . S
C276 H264 0.930 . S
C276 C277 1.399 . S
C276 C281 1.399 . S
C277 C276 1.399 . S
C277 C278 1.376 . S
C278 H265 0.930 . S
C278 C277 1.376 . S
C278 C279 1.388 . S
C279 H266 0.930 . S
C279 C278 1.388 . S
C279 C280 1.390 . S
C280 C279 1.390 . S
C280 C281 1.394 . S
C280 C286 1.465 . S
C281 C276 1.399 . S
C281 C280 1.394 . S
C281 C282 1.516 . S
C282 C281 1.516 . S
C282 C283 1.502 . S
C282 C284 1.561 . S
C282 C285 1.526 . S
C283 H267 0.959 . S
C283 H268 0.959 . S
C283 H269 0.961 . S
C283 C282 1.502 . S
C284 H270 0.960 . S
C284 H271 0.961 . S
C284 H272 0.959 . S
C284 C282 1.561 . S
C285 C282 1.526 . S
C285 C286 1.396 . S
C285 C290 1.390 . S
C286 C280 1.465 . S
C286 C285 1.396 . S
C286 C287 1.399 . S
C287 H273 0.929 . S
C287 C286 1.399 . S
C287 C288 1.385 . S
C288 H274 0.931 1_545 S
C288 C287 1.385 . S
C288 C289 1.389 . S
C289 C288 1.389 . S
C289 C290 1.387 . S
C290 H275 0.930 . S
C290 C285 1.390 . S
C290 C289 1.387 . S
H291 C303 0.930 . S
H292 C305 0.930 . S
H293 C306 0.930 . S
H294 C310 0.959 . S
H295 C310 0.959 . S
H296 C310 0.961 . S
H297 C311 0.960 . S
H298 C311 0.961 . S
H299 C311 0.959 . S
H300 C314 0.929 . S
H301 C315 0.931 . S
H302 C317 0.930 . S
C303 H291 0.930 . S
C303 C304 1.399 . S
C303 C308 1.399 . S
C304 C303 1.399 . S
C304 C305 1.376 . S
C305 H292 0.930 . S
C305 C304 1.376 . S
C305 C306 1.388 . S
C306 H293 0.930 . S
C306 C305 1.388 . S
C306 C307 1.390 . S
C307 C306 1.390 . S
C307 C308 1.394 . S
C307 C313 1.465 . S
C308 C303 1.399 . S
C308 C307 1.394 . S
C308 C309 1.516 . S
C309 C308 1.516 . S
C309 C310 1.502 . S
C309 C311 1.561 . S
C309 C312 1.526 . S
C310 H294 0.959 . S
C310 H295 0.959 . S
C310 H296 0.961 . S
C310 C309 1.502 . S
C311 H297 0.960 . S
C311 H298 0.961 . S
C311 H299 0.959 . S
C311 C309 1.561 . S
C312 C309 1.526 . S
C312 C313 1.396 . S
C312 C317 1.390 . S
C313 C307 1.465 . S
C313 C312 1.396 . S
C313 C314 1.399 . S
C314 H300 0.929 . S
C314 C313 1.399 . S
C314 C315 1.385 . S
C315 H301 0.931 . S
C315 C314 1.385 . S
C315 C316 1.389 . S
C316 C315 1.389 . S
C316 C317 1.387 . S
C317 H302 0.930 . S
C317 C312 1.390 . S
C317 C316 1.387 . S
H318 C330 0.930 . S
H319 C332 0.930 . S
H320 C333 0.930 . S
H321 C337 0.959 . S
H322 C337 0.959 . S
H323 C337 0.961 . S
H324 C338 0.960 . S
H325 C338 0.961 . S
H326 C338 0.959 . S
H327 C341 0.929 1_554 S
H328 C342 0.931 . S
H329 C344 0.930 . S
C330 H318 0.930 . S
C330 C331 1.399 . S
C330 C335 1.399 . S
C331 C330 1.399 . S
C331 C332 1.376 . S
C332 H319 0.930 . S
C332 C331 1.376 . S
C332 C333 1.388 . S
C333 H320 0.930 . S
C333 C332 1.388 . S
C333 C334 1.390 . S
C334 C333 1.390 . S
C334 C335 1.394 . S
C334 C340 1.465 . S
C335 C330 1.399 . S
C335 C334 1.394 . S
C335 C336 1.516 . S
C336 C335 1.516 . S
C336 C337 1.502 . S
C336 C338 1.561 . S
C336 C339 1.526 . S
C337 H321 0.959 . S
C337 H322 0.959 . S
C337 H323 0.961 . S
C337 C336 1.502 . S
C338 H324 0.960 . S
C338 H325 0.961 . S
C338 H326 0.959 . S
C338 C336 1.561 . S
C339 C336 1.526 . S
C339 C340 1.396 . S
C339 C344 1.390 . S
C340 C334 1.465 . S
C340 C339 1.396 . S
C340 C341 1.399 . S
C341 H327 0.929 1_556 S
C341 C340 1.399 . S
C341 C342 1.385 1_556 S
C342 H328 0.931 . S
C342 C341 1.385 1_554 S
C342 C343 1.389 1_554 S
C343 C342 1.389 1_556 S
C343 C344 1.387 . S
C344 H329 0.930 . S
C344 C339 1.390 . S
C344 C343 1.387 . S
H345 C357 0.930 . S
H346 C359 0.930 . S
H347 C360 0.930 . S
H348 C364 0.959 . S
H349 C364 0.959 . S
H350 C364 0.961 . S
H351 C365 0.960 . S
H352 C365 0.961 . S
H353 C365 0.959 . S
H354 C368 0.929 . S
H355 C369 0.931 . S
H356 C371 0.930 . S
C357 H345 0.930 . S
C357 C358 1.399 . S
C357 C362 1.399 . S
C358 C357 1.399 . S
C358 C359 1.376 . S
C359 H346 0.930 . S
C359 C358 1.376 . S
C359 C360 1.388 . S
C360 H347 0.930 . S
C360 C359 1.388 . S
C360 C361 1.390 . S
C361 C360 1.390 . S
C361 C362 1.394 . S
C361 C367 1.465 . S
C362 C357 1.399 . S
C362 C361 1.394 . S
C362 C363 1.516 . S
C363 C362 1.516 . S
C363 C364 1.502 . S
C363 C365 1.561 . S
C363 C366 1.526 . S
C364 H348 0.959 . S
C364 H349 0.959 . S
C364 H350 0.961 . S
C364 C363 1.502 . S
C365 H351 0.960 . S
C365 H352 0.961 . S
C365 H353 0.959 . S
C365 C363 1.561 . S
C366 C363 1.526 . S
C366 C367 1.396 . S
C366 C371 1.390 . S
C367 C361 1.465 . S
C367 C366 1.396 . S
C367 C368 1.399 . S
C368 H354 0.929 . S
C368 C367 1.399 . S
C368 C369 1.385 . S
C369 H355 0.931 . S
C369 C368 1.385 . S
C369 C370 1.389 . S
C370 C369 1.389 . S
C370 C371 1.387 . S
C371 H356 0.930 . S
C371 C366 1.390 . S
C371 C370 1.387 . S
H372 C384 0.930 . S
H373 C386 0.930 . S
H374 C387 0.930 . S
H375 C391 0.959 . S
H376 C391 0.959 . S
H377 C391 0.961 . S
H378 C392 0.960 . S
H379 C392 0.961 . S
H380 C392 0.959 . S
H381 C395 0.929 1_556 S
H382 C396 0.931 1_556 S
H383 C398 0.930 . S
C384 H372 0.930 . S
C384 C385 1.399 . S
C384 C389 1.399 . S
C385 C384 1.399 . S
C385 C386 1.376 . S
C386 H373 0.930 . S
C386 C385 1.376 . S
C386 C387 1.388 . S
C387 H374 0.930 . S
C387 C386 1.388 . S
C387 C388 1.390 . S
C388 C387 1.390 . S
C388 C389 1.394 . S
C388 C394 1.465 . S
C389 C384 1.399 . S
C389 C388 1.394 . S
C389 C390 1.516 . S
C390 C389 1.516 . S
C390 C391 1.502 . S
C390 C392 1.561 . S
C390 C393 1.526 . S
C391 H375 0.959 . S
C391 H376 0.959 . S
C391 H377 0.961 . S
C391 C390 1.502 . S
C392 H378 0.960 . S
C392 H379 0.961 . S
C392 H380 0.959 . S
C392 C390 1.561 . S
C393 C390 1.526 . S
C393 C394 1.396 . S
C393 C398 1.390 . S
C394 C388 1.465 . S
C394 C393 1.396 . S
C394 C395 1.399 . S
C395 H381 0.929 1_554 S
C395 C394 1.399 . S
C395 C396 1.385 . S
C396 H382 0.931 1_554 S
C396 C395 1.385 . S
C396 C397 1.389 . S
C397 C396 1.389 . S
C397 C398 1.387 . S
C398 H383 0.930 . S
C398 C393 1.390 . S
C398 C397 1.387 . S
H399 C411 0.930 . S
H400 C413 0.930 . S
H401 C414 0.930 . S
H402 C418 0.959 . S
H403 C418 0.959 . S
H404 C418 0.961 . S
H405 C419 0.960 . S
H406 C419 0.961 . S
H407 C419 0.959 . S
H408 C422 0.929 . S
H409 C423 0.931 1_554 S
H410 C425 0.930 . S
C411 H399 0.930 . S
C411 C412 1.399 . S
C411 C416 1.399 . S
C412 C411 1.399 . S
C412 C413 1.376 . S
C413 H400 0.930 . S
C413 C412 1.376 . S
C413 C414 1.388 . S
C414 H401 0.930 . S
C414 C413 1.388 . S
C414 C415 1.390 . S
C415 C414 1.390 . S
C415 C416 1.394 . S
C415 C421 1.465 . S
C416 C411 1.399 . S
C416 C415 1.394 . S
C416 C417 1.516 . S
C417 C416 1.516 . S
C417 C418 1.502 . S
C417 C419 1.561 . S
C417 C420 1.526 . S
C418 H402 0.959 . S
C418 H403 0.959 . S
C418 H404 0.961 . S
C418 C417 1.502 . S
C419 H405 0.960 . S
C419 H406 0.961 . S
C419 H407 0.959 . S
C419 C417 1.561 . S
C420 C417 1.526 . S
C420 C421 1.396 . S
C420 C425 1.390 . S
C421 C415 1.465 . S
C421 C420 1.396 . S
C421 C422 1.399 . S
C422 H408 0.929 . S
C422 C421 1.399 . S
C422 C423 1.385 . S
C423 H409 0.931 1_556 S
C423 C422 1.385 . S
C423 C424 1.389 . S
C424 C423 1.389 . S
C424 C425 1.387 . S
C425 H410 0.930 . S
C425 C420 1.390 . S
C425 C424 1.387 . S
H426 C438 0.930 . S
H427 C440 0.930 . S
H428 C441 0.930 . S
H429 C445 0.959 1_455 S
H430 C445 0.959 . S
H431 C445 0.961 . S
H432 C446 0.960 . S
H433 C446 0.961 . S
H434 C446 0.959 . S
H435 C449 0.929 . S
H436 C450 0.931 . S
H437 C452 0.930 . S
C438 H426 0.930 . S
C438 C439 1.399 . S
C438 C443 1.399 . S
C439 C438 1.399 . S
C439 C440 1.376 . S
C440 H427 0.930 . S
C440 C439 1.376 . S
C440 C441 1.388 . S
C441 H428 0.930 . S
C441 C440 1.388 . S
C441 C442 1.390 . S
C442 C441 1.390 . S
C442 C443 1.394 . S
C442 C448 1.465 . S
C443 C438 1.399 . S
C443 C442 1.394 . S
C443 C444 1.516 . S
C444 C443 1.516 . S
C444 C445 1.502 . S
C444 C446 1.561 . S
C444 C447 1.526 . S
C445 H429 0.959 1_655 S
C445 H430 0.959 . S
C445 H431 0.961 . S
C445 C444 1.502 . S
C446 H432 0.960 . S
C446 H433 0.961 . S
C446 H434 0.959 . S
C446 C444 1.561 . S
C447 C444 1.526 . S
C447 C448 1.396 . S
C447 C452 1.390 . S
C448 C442 1.465 . S
C448 C447 1.396 . S
C448 C449 1.399 . S
C449 H435 0.929 . S
C449 C448 1.399 . S
C449 C450 1.385 . S
C450 H436 0.931 . S
C450 C449 1.385 . S
C450 C451 1.389 . S
C451 C450 1.389 . S
C451 C452 1.387 . S
C452 H437 0.930 . S
C452 C447 1.390 . S
C452 C451 1.387 . S
H453 C465 0.930 . S
H454 C467 0.930 . S
H455 C468 0.930 . S
H456 C472 0.959 . S
H457 C472 0.959 . S
H458 C472 0.961 . S
H459 C473 0.960 . S
H460 C473 0.961 . S
H461 C473 0.959 . S
H462 C476 0.929 . S
H463 C477 0.931 . S
H464 C479 0.930 . S
C465 H453 0.930 . S
C465 C466 1.399 . S
C465 C470 1.399 . S
C466 C465 1.399 . S
C466 C467 1.376 . S
C467 H454 0.930 . S
C467 C466 1.376 . S
C467 C468 1.388 . S
C468 H455 0.930 . S
C468 C467 1.388 . S
C468 C469 1.390 . S
C469 C468 1.390 . S
C469 C470 1.394 . S
C469 C475 1.465 . S
C470 C465 1.399 . S
C470 C469 1.394 . S
C470 C471 1.516 . S
C471 C470 1.516 . S
C471 C472 1.502 . S
C471 C473 1.561 . S
C471 C474 1.526 . S
C472 H456 0.959 . S
C472 H457 0.959 . S
C472 H458 0.961 . S
C472 C471 1.502 . S
C473 H459 0.960 . S
C473 H460 0.961 . S
C473 H461 0.959 . S
C473 C471 1.561 . S
C474 C471 1.526 . S
C474 C475 1.396 . S
C474 C479 1.390 . S
C475 C469 1.465 . S
C475 C474 1.396 . S
C475 C476 1.399 . S
C476 H462 0.929 . S
C476 C475 1.399 . S
C476 C477 1.385 . S
C477 H463 0.931 . S
C477 C476 1.385 . S
C477 C478 1.389 . S
C478 C477 1.389 . S
C478 C479 1.387 . S
C479 H464 0.930 . S
C479 C474 1.390 . S
C479 C478 1.387 . S
H480 C492 0.930 . S
H481 C494 0.930 . S
H482 C495 0.930 . S
H483 C499 0.959 . S
H484 C499 0.959 . S
H485 C499 0.961 . S
H486 C500 0.960 . S
H487 C500 0.961 . S
H488 C500 0.959 . S
H489 C503 0.929 1_455 S
H490 C504 0.931 1_455 S
H491 C506 0.930 . S
C492 H480 0.930 . S
C492 C493 1.399 . S
C492 C497 1.399 . S
C493 C492 1.399 . S
C493 C494 1.376 . S
C494 H481 0.930 . S
C494 C493 1.376 . S
C494 C495 1.388 . S
C495 H482 0.930 . S
C495 C494 1.388 . S
C495 C496 1.390 . S
C496 C495 1.390 . S
C496 C497 1.394 . S
C496 C502 1.465 . S
C497 C492 1.399 . S
C497 C496 1.394 . S
C497 C498 1.516 . S
C498 C497 1.516 . S
C498 C499 1.502 . S
C498 C500 1.561 1_565 S
C498 C501 1.526 . S
C499 H483 0.959 . S
C499 H484 0.959 . S
C499 H485 0.961 . S
C499 C498 1.502 . S
C500 H486 0.960 . S
C500 H487 0.961 . S
C500 H488 0.959 . S
C500 C498 1.561 1_545 S
C501 C498 1.526 . S
C501 C502 1.396 . S
C501 C506 1.390 . S
C502 C496 1.465 . S
C502 C501 1.396 . S
C502 C503 1.399 . S
C503 H489 0.929 1_655 S
C503 C502 1.399 . S
C503 C504 1.385 . S
C504 H490 0.931 1_655 S
C504 C503 1.385 . S
C504 C505 1.389 . S
C505 C504 1.389 . S
C505 C506 1.387 . S
C506 H491 0.930 . S
C506 C501 1.390 . S
C506 C505 1.387 . S
H507 C519 0.930 . S
H508 C521 0.930 . S
H509 C522 0.930 . S
H510 C526 0.959 . S
H511 C526 0.959 1_565 S
H512 C526 0.961 1_565 S
H513 C527 0.960 . S
H514 C527 0.961 1_565 S
H515 C527 0.959 . S
H516 C530 0.929 . S
H517 C531 0.931 . S
H518 C533 0.930 . S
C519 H507 0.930 . S
C519 C520 1.399 . S
C519 C524 1.399 . S
C520 C519 1.399 . S
C520 C521 1.376 . S
C521 H508 0.930 . S
C521 C520 1.376 . S
C521 C522 1.388 . S
C522 H509 0.930 . S
C522 C521 1.388 . S
C522 C523 1.390 . S
C523 C522 1.390 . S
C523 C524 1.394 . S
C523 C529 1.465 . S
C524 C519 1.399 . S
C524 C523 1.394 . S
C524 C525 1.516 . S
C525 C524 1.516 . S
C525 C526 1.502 . S
C525 C527 1.561 . S
C525 C528 1.526 . S
C526 H510 0.959 . S
C526 H511 0.959 1_545 S
C526 H512 0.961 1_545 S
C526 C525 1.502 . S
C527 H513 0.960 . S
C527 H514 0.961 1_545 S
C527 H515 0.959 . S
C527 C525 1.561 . S
C528 C525 1.526 . S
C528 C529 1.396 . S
C528 C533 1.390 . S
C529 C523 1.465 . S
C529 C528 1.396 . S
C529 C530 1.399 . S
C530 H516 0.929 . S
C530 C529 1.399 . S
C530 C531 1.385 . S
C531 H517 0.931 . S
C531 C530 1.385 . S
C531 C532 1.389 . S
C532 C531 1.389 . S
C532 C533 1.387 . S
C533 H518 0.930 . S
C533 C528 1.390 . S
C533 C532 1.387 . S
H534 C546 0.930 . S
H535 C548 0.930 . S
H536 C549 0.930 . S
H537 C553 0.959 . S
H538 C553 0.959 . S
H539 C553 0.961 . S
H540 C554 0.960 . S
H541 C554 0.961 . S
H542 C554 0.959 . S
H543 C557 0.929 . S
H544 C558 0.931 . S
H545 C560 0.930 . S
C546 H534 0.930 . S
C546 C547 1.399 . S
C546 C551 1.399 . S
C547 C546 1.399 . S
C547 C548 1.376 . S
C548 H535 0.930 . S
C548 C547 1.376 . S
C548 C549 1.388 . S
C549 H536 0.930 . S
C549 C548 1.388 . S
C549 C550 1.390 . S
C550 C549 1.390 . S
C550 C551 1.394 . S
C550 C556 1.465 . S
C551 C546 1.399 . S
C551 C550 1.394 . S
C551 C552 1.516 . S
C552 C551 1.516 . S
C552 C553 1.502 . S
C552 C554 1.561 . S
C552 C555 1.526 . S
C553 H537 0.959 . S
C553 H538 0.959 . S
C553 H539 0.961 . S
C553 C552 1.502 . S
C554 H540 0.960 . S
C554 H541 0.961 . S
C554 H542 0.959 . S
C554 C552 1.561 . S
C555 C552 1.526 . S
C555 C556 1.396 . S
C555 C560 1.390 . S
C556 C550 1.465 . S
C556 C555 1.396 . S
C556 C557 1.399 . S
C557 H543 0.929 . S
C557 C556 1.399 . S
C557 C558 1.385 . S
C558 H544 0.931 . S
C558 C557 1.385 . S
C558 C559 1.389 . S
C559 C558 1.389 . S
C559 C560 1.387 . S
C560 H545 0.930 . S
C560 C555 1.390 . S
C560 C559 1.387 . S
H561 C573 0.930 . S
H562 C575 0.930 . S
H563 C576 0.930 . S
H564 C580 0.959 . S
H565 C580 0.959 . S
H566 C580 0.961 . S
H567 C581 0.960 . S
H568 C581 0.961 . S
H569 C581 0.959 . S
H570 C584 0.929 . S
H571 C585 0.931 . S
H572 C587 0.930 . S
C573 H561 0.930 . S
C573 C574 1.399 . S
C573 C578 1.399 . S
C574 C573 1.399 . S
C574 C575 1.376 . S
C575 H562 0.930 . S
C575 C574 1.376 . S
C575 C576 1.388 . S
C576 H563 0.930 . S
C576 C575 1.388 . S
C576 C577 1.390 . S
C577 C576 1.390 . S
C577 C578 1.394 . S
C577 C583 1.465 . S
C578 C573 1.399 . S
C578 C577 1.394 . S
C578 C579 1.516 . S
C579 C578 1.516 . S
C579 C580 1.502 . S
C579 C581 1.561 . S
C579 C582 1.526 . S
C580 H564 0.959 . S
C580 H565 0.959 . S
C580 H566 0.961 . S
C580 C579 1.502 . S
C581 H567 0.960 . S
C581 H568 0.961 . S
C581 H569 0.959 . S
C581 C579 1.561 . S
C582 C579 1.526 . S
C582 C583 1.396 . S
C582 C587 1.390 . S
C583 C577 1.465 . S
C583 C582 1.396 . S
C583 C584 1.399 . S
C584 H570 0.929 . S
C584 C583 1.399 . S
C584 C585 1.385 . S
C585 H571 0.931 . S
C585 C584 1.385 . S
C585 C586 1.389 . S
C586 C585 1.389 . S
C586 C587 1.387 . S
C587 H572 0.930 . S
C587 C582 1.390 . S
C587 C586 1.387 . S
H588 C600 0.930 . S
H589 C602 0.930 . S
H590 C603 0.930 1_545 S
H591 C607 0.959 . S
H592 C607 0.959 . S
H593 C607 0.961 . S
H594 C608 0.960 . S
H595 C608 0.961 . S
H596 C608 0.959 1_554 S
H597 C611 0.929 . S
H598 C612 0.931 . S
H599 C614 0.930 . S
C600 H588 0.930 . S
C600 C601 1.399 . S
C600 C605 1.399 . S
C601 C600 1.399 . S
C601 C602 1.376 . S
C602 H589 0.930 . S
C602 C601 1.376 . S
C602 C603 1.388 . S
C603 H590 0.930 1_565 S
C603 C602 1.388 . S
C603 C604 1.390 . S
C604 C603 1.390 . S
C604 C605 1.394 . S
C604 C610 1.465 . S
C605 C600 1.399 . S
C605 C604 1.394 . S
C605 C606 1.516 . S
C606 C605 1.516 . S
C606 C607 1.502 . S
C606 C608 1.561 . S
C606 C609 1.526 . S
C607 H591 0.959 . S
C607 H592 0.959 . S
C607 H593 0.961 . S
C607 C606 1.502 . S
C608 H594 0.960 . S
C608 H595 0.961 . S
C608 H596 0.959 1_556 S
C608 C606 1.561 . S
C609 C606 1.526 . S
C609 C610 1.396 . S
C609 C614 1.390 . S
C610 C604 1.465 . S
C610 C609 1.396 . S
C610 C611 1.399 1_565 S
C611 H597 0.929 . S
C611 C610 1.399 1_545 S
C611 C612 1.385 . S
C612 H598 0.931 . S
C612 C611 1.385 . S
C612 C613 1.389 1_545 S
C613 C612 1.389 1_565 S
C613 C614 1.387 . S
C614 H599 0.930 . S
C614 C609 1.390 . S
C614 C613 1.387 . S
H615 C627 0.930 . S
H616 C629 0.930 . S
H617 C630 0.930 . S
H618 C634 0.959 . S
H619 C634 0.959 1_565 S
H620 C634 0.961 . S
H621 C635 0.960 . S
H622 C635 0.961 . S
H623 C635 0.959 . S
H624 C638 0.929 . S
H625 C639 0.931 . S
H626 C641 0.930 . S
C627 H615 0.930 . S
C627 C628 1.399 . S
C627 C632 1.399 . S
C628 C627 1.399 . S
C628 C629 1.376 . S
C629 H616 0.930 . S
C629 C628 1.376 . S
C629 C630 1.388 . S
C630 H617 0.930 . S
C630 C629 1.388 . S
C630 C631 1.390 . S
C631 C630 1.390 . S
C631 C632 1.394 . S
C631 C637 1.465 . S
C632 C627 1.399 . S
C632 C631 1.394 . S
C632 C633 1.516 . S
C633 C632 1.516 . S
C633 C634 1.502 . S
C633 C635 1.561 . S
C633 C636 1.526 . S
C634 H618 0.959 . S
C634 H619 0.959 1_545 S
C634 H620 0.961 . S
C634 C633 1.502 . S
C635 H621 0.960 . S
C635 H622 0.961 . S
C635 H623 0.959 . S
C635 C633 1.561 . S
C636 C633 1.526 . S
C636 C637 1.396 . S
C636 C641 1.390 . S
C637 C631 1.465 . S
C637 C636 1.396 . S
C637 C638 1.399 . S
C638 H624 0.929 . S
C638 C637 1.399 . S
C638 C639 1.385 . S
C639 H625 0.931 . S
C639 C638 1.385 . S
C639 C640 1.389 . S
C640 C639 1.389 . S
C640 C641 1.387 . S
C641 H626 0.930 . S
C641 C636 1.390 . S
C641 C640 1.387 . S
H642 C654 0.930 . S
H643 C656 0.930 . S
H644 C657 0.930 . S
H645 C661 0.959 . S
H646 C661 0.959 . S
H647 C661 0.961 . S
H648 C662 0.960 . S
H649 C662 0.961 . S
H650 C662 0.959 . S
H651 C665 0.929 . S
H652 C666 0.931 . S
H653 C668 0.930 . S
C654 H642 0.930 . S
C654 C655 1.399 . S
C654 C659 1.399 . S
C655 C654 1.399 . S
C655 C656 1.376 . S
C656 H643 0.930 . S
C656 C655 1.376 . S
C656 C657 1.388 . S
C657 H644 0.930 . S
C657 C656 1.388 . S
C657 C658 1.390 . S
C658 C657 1.390 . S
C658 C659 1.394 . S
C658 C664 1.465 . S
C659 C654 1.399 . S
C659 C658 1.394 . S
C659 C660 1.516 . S
C660 C659 1.516 . S
C660 C661 1.502 . S
C660 C662 1.561 . S
C660 C663 1.526 . S
C661 H645 0.959 . S
C661 H646 0.959 . S
C661 H647 0.961 . S
C661 C660 1.502 . S
C662 H648 0.960 . S
C662 H649 0.961 . S
C662 H650 0.959 . S
C662 C660 1.561 . S
C663 C660 1.526 . S
C663 C664 1.396 . S
C663 C668 1.390 . S
C664 C658 1.465 . S
C664 C663 1.396 . S
C664 C665 1.399 . S
C665 H651 0.929 . S
C665 C664 1.399 . S
C665 C666 1.385 . S
C666 H652 0.931 . S
C666 C665 1.385 . S
C666 C667 1.389 . S
C667 C666 1.389 . S
C667 C668 1.387 . S
C668 H653 0.930 . S
C668 C663 1.390 . S
C668 C667 1.387 . S
H669 C681 0.930 . S
H670 C683 0.930 . S
H671 C684 0.930 . S
H672 C688 0.959 . S
H673 C688 0.959 . S
H674 C688 0.961 . S
H675 C689 0.960 . S
H676 C689 0.961 . S
H677 C689 0.959 . S
H678 C692 0.929 . S
H679 C693 0.931 . S
H680 C695 0.930 . S
C681 H669 0.930 . S
C681 C682 1.399 . S
C681 C686 1.399 . S
C682 C681 1.399 . S
C682 C683 1.376 . S
C683 H670 0.930 . S
C683 C682 1.376 . S
C683 C684 1.388 . S
C684 H671 0.930 . S
C684 C683 1.388 . S
C684 C685 1.390 . S
C685 C684 1.390 . S
C685 C686 1.394 . S
C685 C691 1.465 . S
C686 C681 1.399 . S
C686 C685 1.394 . S
C686 C687 1.516 . S
C687 C686 1.516 . S
C687 C688 1.502 . S
C687 C689 1.561 . S
C687 C690 1.526 . S
C688 H672 0.959 . S
C688 H673 0.959 . S
C688 H674 0.961 . S
C688 C687 1.502 . S
C689 H675 0.960 . S
C689 H676 0.961 . S
C689 H677 0.959 . S
C689 C687 1.561 . S
C690 C687 1.526 . S
C690 C691 1.396 . S
C690 C695 1.390 . S
C691 C685 1.465 . S
C691 C690 1.396 . S
C691 C692 1.399 . S
C692 H678 0.929 . S
C692 C691 1.399 . S
C692 C693 1.385 . S
C693 H679 0.931 . S
C693 C692 1.385 . S
C693 C694 1.389 . S
C694 C693 1.389 . S
C694 C695 1.387 . S
C695 H680 0.930 . S
C695 C690 1.390 . S
C695 C694 1.387 . S
H696 C708 0.930 . S
H697 C710 0.930 . S
H698 C711 0.930 . S
H699 C715 0.959 . S
H700 C715 0.959 . S
H701 C715 0.961 . S
H702 C716 0.960 . S
H703 C716 0.961 . S
H704 C716 0.959 . S
H705 C719 0.928 1_554 S
H706 C720 0.931 . S
H707 C722 0.930 . S
C708 H696 0.930 . S
C708 C709 1.399 . S
C708 C713 1.399 . S
C709 C708 1.399 . S
C709 C710 1.376 . S
C710 H697 0.930 . S
C710 C709 1.376 . S
C710 C711 1.388 . S
C711 H698 0.930 . S
C711 C710 1.388 . S
C711 C712 1.390 . S
C712 C711 1.390 . S
C712 C713 1.394 . S
C712 C718 1.465 . S
C713 C708 1.399 . S
C713 C712 1.394 . S
C713 C714 1.516 . S
C714 C713 1.516 . S
C714 C715 1.502 . S
C714 C716 1.561 . S
C714 C717 1.526 . S
C715 H699 0.959 . S
C715 H700 0.959 . S
C715 H701 0.961 . S
C715 C714 1.502 . S
C716 H702 0.960 . S
C716 H703 0.961 . S
C716 H704 0.959 . S
C716 C714 1.561 . S
C717 C714 1.526 . S
C717 C718 1.396 . S
C717 C722 1.390 . S
C718 C712 1.465 . S
C718 C717 1.396 . S
C718 C719 1.400 . S
C719 H705 0.928 1_556 S
C719 C718 1.400 . S
C719 C720 1.385 1_556 S
C720 H706 0.931 . S
C720 C719 1.385 1_554 S
C720 C721 1.389 1_554 S
C721 C720 1.389 1_556 S
C721 C722 1.387 . S
C722 H707 0.930 . S
C722 C717 1.390 . S
C722 C721 1.387 . S
H723 C735 0.930 . S
H724 C737 0.930 . S
H725 C738 0.930 . S
H726 C742 0.959 . S
H727 C742 0.959 . S
H728 C742 0.961 . S
H729 C743 0.960 . S
H730 C743 0.961 1_556 S
H731 C743 0.959 . S
H732 C746 0.929 . S
H733 C747 0.931 . S
H734 C749 0.930 . S
C735 H723 0.930 . S
C735 C736 1.399 . S
C735 C740 1.399 . S
C736 C735 1.399 . S
C736 C737 1.376 . S
C737 H724 0.930 . S
C737 C736 1.376 . S
C737 C738 1.388 . S
C738 H725 0.930 . S
C738 C737 1.388 . S
C738 C739 1.390 . S
C739 C738 1.390 . S
C739 C740 1.394 . S
C739 C745 1.465 . S
C740 C735 1.399 . S
C740 C739 1.394 . S
C740 C741 1.516 . S
C741 C740 1.516 . S
C741 C742 1.502 . S
C741 C743 1.561 . S
C741 C744 1.526 . S
C742 H726 0.959 . S
C742 H727 0.959 . S
C742 H728 0.961 . S
C742 C741 1.502 . S
C743 H729 0.960 . S
C743 H730 0.961 1_554 S
C743 H731 0.959 . S
C743 C741 1.561 . S
C744 C741 1.526 . S
C744 C745 1.396 . S
C744 C749 1.390 . S
C745 C739 1.465 . S
C745 C744 1.396 . S
C745 C746 1.399 . S
C746 H732 0.929 . S
C746 C745 1.399 . S
C746 C747 1.385 . S
C747 H733 0.931 . S
C747 C746 1.385 . S
C747 C748 1.389 . S
C748 C747 1.389 . S
C748 C749 1.387 . S
C749 H734 0.930 . S
C749 C744 1.390 . S
C749 C748 1.387 . S
H750 C762 0.930 . S
H751 C764 0.930 . S
H752 C765 0.930 . S
H753 C769 0.959 . S
H754 C769 0.959 . S
H755 C769 0.961 . S
H756 C770 0.960 . S
H757 C770 0.961 . S
H758 C770 0.959 . S
H759 C773 0.929 . S
H760 C774 0.931 . S
H761 C776 0.930 . S
C762 H750 0.930 . S
C762 C763 1.399 . S
C762 C767 1.399 . S
C763 C762 1.399 . S
C763 C764 1.376 . S
C764 H751 0.930 . S
C764 C763 1.376 . S
C764 C765 1.388 . S
C765 H752 0.930 . S
C765 C764 1.388 . S
C765 C766 1.390 . S
C766 C765 1.390 . S
C766 C767 1.394 . S
C766 C772 1.465 . S
C767 C762 1.399 . S
C767 C766 1.394 . S
C767 C768 1.516 . S
C768 C767 1.516 . S
C768 C769 1.502 1_455 S
C768 C770 1.561 . S
C768 C771 1.526 . S
C769 H753 0.959 . S
C769 H754 0.959 . S
C769 H755 0.961 . S
C769 C768 1.502 1_655 S
C770 H756 0.960 . S
C770 H757 0.961 . S
C770 H758 0.959 . S
C770 C768 1.561 . S
C771 C768 1.526 . S
C771 C772 1.396 . S
C771 C776 1.390 . S
C772 C766 1.465 . S
C772 C771 1.396 . S
C772 C773 1.399 . S
C773 H759 0.929 . S
C773 C772 1.399 . S
C773 C774 1.385 . S
C774 H760 0.931 . S
C774 C773 1.385 . S
C774 C775 1.389 . S
C775 C774 1.389 . S
C775 C776 1.387 . S
C776 H761 0.930 . S
C776 C771 1.390 . S
C776 C775 1.387 . S
H777 C789 0.930 . S
H778 C791 0.930 . S
H779 C792 0.930 . S
H780 C796 0.959 . S
H781 C796 0.959 . S
H782 C796 0.961 . S
H783 C797 0.960 . S
H784 C797 0.961 . S
H785 C797 0.959 . S
H786 C800 0.929 . S
H787 C801 0.931 . S
H788 C803 0.930 . S
C789 H777 0.930 . S
C789 C790 1.399 . S
C789 C794 1.399 . S
C790 C789 1.399 . S
C790 C791 1.376 . S
C791 H778 0.930 . S
C791 C790 1.376 . S
C791 C792 1.388 . S
C792 H779 0.930 . S
C792 C791 1.388 . S
C792 C793 1.390 . S
C793 C792 1.390 . S
C793 C794 1.394 . S
C793 C799 1.465 . S
C794 C789 1.399 . S
C794 C793 1.394 . S
C794 C795 1.516 . S
C795 C794 1.516 . S
C795 C796 1.502 . S
C795 C797 1.561 . S
C795 C798 1.526 . S
C796 H780 0.959 . S
C796 H781 0.959 . S
C796 H782 0.961 . S
C796 C795 1.502 . S
C797 H783 0.960 . S
C797 H784 0.961 . S
C797 H785 0.959 . S
C797 C795 1.561 . S
C798 C795 1.526 . S
C798 C799 1.396 . S
C798 C803 1.390 . S
C799 C793 1.465 . S
C799 C798 1.396 . S
C799 C800 1.399 . S
C800 H786 0.929 . S
C800 C799 1.399 . S
C800 C801 1.385 . S
C801 H787 0.931 . S
C801 C800 1.385 . S
C801 C802 1.389 . S
C802 C801 1.389 . S
C802 C803 1.387 . S
C803 H788 0.930 . S
C803 C798 1.390 . S
C803 C802 1.387 . S
C169 C5 1.564 . S
C181 C88 1.510 . S
C196 C14 1.457 . S
C208 C110 1.352 . S
C235 C129 1.149 . S
C223 C25 1.458 . S
C250 C34 1.674 . S
C262 C150 1.427 . S
C289 C107 1.693 . S
C277 C7 1.709 . S
C316 C85 1.579 . S
C304 C13 1.645 . S
C343 C152 1.346 . S
C331 C23 1.376 . S
C370 C131 1.366 . S
C358 C31 1.442 . S
C385 C4 1.671 . S
C397 C149 1.639 . S
C424 C108 1.266 . S
C412 C22 1.563 . S
C439 C32 1.585 . S
C451 C90 1.427 . S
C466 C16 1.455 . S
C478 C128 1.437 . S
C505 C86 1.521 . S
C493 C41 1.569 . S
C520 C50 1.333 . S
C532 C106 1.247 . S
C547 C61 1.495 . S
C559 C132 1.261 . S
C574 C67 1.623 . S
C586 C153 1.340 . S
C601 C40 1.670 . S
C613 C109 1.649 . S
C640 C89 1.650 . S
C628 C52 1.679 . S
C667 C148 1.262 . S
C655 C59 1.293 . S
C694 C127 1.410 . S
C682 C70 1.510 . S
C709 C43 1.522 . S
C721 C151 1.500 . S
C748 C111 1.335 . S
C736 C58 1.484 . S
C775 C87 1.189 . S
C763 C68 1.426 . S
C790 C49 1.426 . S
C802 C130 1.419 . S
