# Generated by pormake.
# Topology eea, (3,6)-cn, num edge types: 1
# Building blocks:
#     Node 0, Type 0, BuildingBlock: PAMTOO_clean_linker_0, # of connection points: 3
#     Node 1, Type 0, BuildingBlock: PAMTOO_clean_linker_0, # of connection points: 3
#     Node 2, Type 0, BuildingBlock: PAMTOO_clean_linker_0, # of connection points: 3
#     Node 3, Type 0, BuildingBlock: PAMTOO_clean_linker_0, # of connection points: 3
#     Node 4, Type 0, BuildingBlock: PAMTOO_clean_linker_0, # of connection points: 3
#     Node 5, Type 0, BuildingBlock: PAMTOO_clean_linker_0, # of connection points: 3
#     Node 6, Type 0, BuildingBlock: PAMTOO_clean_linker_0, # of connection points: 3
#     Node 7, Type 0, BuildingBlock: PAMTOO_clean_linker_0, # of connection points: 3
#     Node 8, Type 0, BuildingBlock: PAMTOO_clean_linker_0, # of connection points: 3
#     Node 9, Type 0, BuildingBlock: PAMTOO_clean_linker_0, # of connection points: 3
#     Node 10, Type 0, BuildingBlock: PAMTOO_clean_linker_0, # of connection points: 3
#     Node 11, Type 0, BuildingBlock: PAMTOO_clean_linker_0, # of connection points: 3
#     Node 12, Type 0, BuildingBlock: PAMTOO_clean_linker_0, # of connection points: 3
#     Node 13, Type 0, BuildingBlock: PAMTOO_clean_linker_0, # of connection points: 3
#     Node 14, Type 0, BuildingBlock: PAMTOO_clean_linker_0, # of connection points: 3
#     Node 15, Type 0, BuildingBlock: PAMTOO_clean_linker_0, # of connection points: 3
#     Node 16, Type 0, BuildingBlock: PAMTOO_clean_linker_0, # of connection points: 3
#     Node 17, Type 0, BuildingBlock: PAMTOO_clean_linker_0, # of connection points: 3
#     Node 18, Type 1, BuildingBlock: CUWYAW_clean_sbu_0, # of connection points: 6
#     Node 19, Type 1, BuildingBlock: CUWYAW_clean_sbu_0, # of connection points: 6
#     Node 20, Type 1, BuildingBlock: CUWYAW_clean_sbu_0, # of connection points: 6
#     Node 21, Type 1, BuildingBlock: CUWYAW_clean_sbu_0, # of connection points: 6
#     Node 22, Type 1, BuildingBlock: CUWYAW_clean_sbu_0, # of connection points: 6
#     Node 23, Type 1, BuildingBlock: CUWYAW_clean_sbu_0, # of connection points: 6
#     Node 24, Type 1, BuildingBlock: CUWYAW_clean_sbu_0, # of connection points: 6
#     Node 25, Type 1, BuildingBlock: CUWYAW_clean_sbu_0, # of connection points: 6
#     Node 26, Type 1, BuildingBlock: CUWYAW_clean_sbu_0, # of connection points: 6
#     Edge 27, Type (0, 1), BuildingBlock: OJICUG_clean_linker_0, # of connection points: 2
#     Edge 28, Type (0, 1), BuildingBlock: OJICUG_clean_linker_0, # of connection points: 2
#     Edge 29, Type (0, 1), BuildingBlock: OJICUG_clean_linker_0, # of connection points: 2
#     Edge 30, Type (0, 1), BuildingBlock: OJICUG_clean_linker_0, # of connection points: 2
#     Edge 31, Type (0, 1), BuildingBlock: OJICUG_clean_linker_0, # of connection points: 2
#     Edge 32, Type (0, 1), BuildingBlock: OJICUG_clean_linker_0, # of connection points: 2
#     Edge 33, Type (0, 1), BuildingBlock: OJICUG_clean_linker_0, # of connection points: 2
#     Edge 34, Type (0, 1), BuildingBlock: OJICUG_clean_linker_0, # of connection points: 2
#     Edge 35, Type (0, 1), BuildingBlock: OJICUG_clean_linker_0, # of connection points: 2
#     Edge 36, Type (0, 1), BuildingBlock: OJICUG_clean_linker_0, # of connection points: 2
#     Edge 37, Type (0, 1), BuildingBlock: OJICUG_clean_linker_0, # of connection points: 2
#     Edge 38, Type (0, 1), BuildingBlock: OJICUG_clean_linker_0, # of connection points: 2
#     Edge 39, Type (0, 1), BuildingBlock: OJICUG_clean_linker_0, # of connection points: 2
#     Edge 40, Type (0, 1), BuildingBlock: OJICUG_clean_linker_0, # of connection points: 2
#     Edge 41, Type (0, 1), BuildingBlock: OJICUG_clean_linker_0, # of connection points: 2
#     Edge 42, Type (0, 1), BuildingBlock: OJICUG_clean_linker_0, # of connection points: 2
#     Edge 43, Type (0, 1), BuildingBlock: OJICUG_clean_linker_0, # of connection points: 2
#     Edge 44, Type (0, 1), BuildingBlock: OJICUG_clean_linker_0, # of connection points: 2
#     Edge 45, Type (0, 1), BuildingBlock: OJICUG_clean_linker_0, # of connection points: 2
#     Edge 46, Type (0, 1), BuildingBlock: OJICUG_clean_linker_0, # of connection points: 2
#     Edge 47, Type (0, 1), BuildingBlock: OJICUG_clean_linker_0, # of connection points: 2
#     Edge 48, Type (0, 1), BuildingBlock: OJICUG_clean_linker_0, # of connection points: 2
#     Edge 49, Type (0, 1), BuildingBlock: OJICUG_clean_linker_0, # of connection points: 2
#     Edge 50, Type (0, 1), BuildingBlock: OJICUG_clean_linker_0, # of connection points: 2
#     Edge 51, Type (0, 1), BuildingBlock: OJICUG_clean_linker_0, # of connection points: 2
#     Edge 52, Type (0, 1), BuildingBlock: OJICUG_clean_linker_0, # of connection points: 2
#     Edge 53, Type (0, 1), BuildingBlock: OJICUG_clean_linker_0, # of connection points: 2
#     Edge 54, Type (0, 1), BuildingBlock: OJICUG_clean_linker_0, # of connection points: 2
#     Edge 55, Type (0, 1), BuildingBlock: OJICUG_clean_linker_0, # of connection points: 2
#     Edge 56, Type (0, 1), BuildingBlock: OJICUG_clean_linker_0, # of connection points: 2
#     Edge 57, Type (0, 1), BuildingBlock: OJICUG_clean_linker_0, # of connection points: 2
#     Edge 58, Type (0, 1), BuildingBlock: OJICUG_clean_linker_0, # of connection points: 2
#     Edge 59, Type (0, 1), BuildingBlock: OJICUG_clean_linker_0, # of connection points: 2
#     Edge 60, Type (0, 1), BuildingBlock: OJICUG_clean_linker_0, # of connection points: 2
#     Edge 61, Type (0, 1), BuildingBlock: OJICUG_clean_linker_0, # of connection points: 2
#     Edge 62, Type (0, 1), BuildingBlock: OJICUG_clean_linker_0, # of connection points: 2
#     Edge 63, Type (0, 1), BuildingBlock: OJICUG_clean_linker_0, # of connection points: 2
#     Edge 64, Type (0, 1), BuildingBlock: OJICUG_clean_linker_0, # of connection points: 2
#     Edge 65, Type (0, 1), BuildingBlock: OJICUG_clean_linker_0, # of connection points: 2
#     Edge 66, Type (0, 1), BuildingBlock: OJICUG_clean_linker_0, # of connection points: 2
#     Edge 67, Type (0, 1), BuildingBlock: OJICUG_clean_linker_0, # of connection points: 2
#     Edge 68, Type (0, 1), BuildingBlock: OJICUG_clean_linker_0, # of connection points: 2
#     Edge 69, Type (0, 1), BuildingBlock: OJICUG_clean_linker_0, # of connection points: 2
#     Edge 70, Type (0, 1), BuildingBlock: OJICUG_clean_linker_0, # of connection points: 2
#     Edge 71, Type (0, 1), BuildingBlock: OJICUG_clean_linker_0, # of connection points: 2
#     Edge 72, Type (0, 1), BuildingBlock: OJICUG_clean_linker_0, # of connection points: 2
#     Edge 73, Type (0, 1), BuildingBlock: OJICUG_clean_linker_0, # of connection points: 2
#     Edge 74, Type (0, 1), BuildingBlock: OJICUG_clean_linker_0, # of connection points: 2
#     Edge 75, Type (0, 1), BuildingBlock: OJICUG_clean_linker_0, # of connection points: 2
#     Edge 76, Type (0, 1), BuildingBlock: OJICUG_clean_linker_0, # of connection points: 2
#     Edge 77, Type (0, 1), BuildingBlock: OJICUG_clean_linker_0, # of connection points: 2
#     Edge 78, Type (0, 1), BuildingBlock: OJICUG_clean_linker_0, # of connection points: 2
#     Edge 79, Type (0, 1), BuildingBlock: OJICUG_clean_linker_0, # of connection points: 2
#     Edge 80, Type (0, 1), BuildingBlock: OJICUG_clean_linker_0, # of connection points: 2
# Relax obj value: 0.058
# Max RMSD: 0.227
# Mean RMSD: 0.162
data_MOF--net-eea--node1-CUWYAW_clean_sbu_0--node2-PAMTOO_clean_linker_0--edge1-OJICUG_clean_linker_0
_symmetry_space_group_name_H-M    P1
_symmetry_Int_Tables_number       1
_symmetry_cell_setting            triclinic
loop_
_symmetry_equiv_pos_as_xyz
'x, y, z'
_cell_length_a     39.312506
_cell_length_b     38.757626
_cell_length_c     54.821225
_cell_angle_alpha  93.192186
_cell_angle_beta   92.825512
_cell_angle_gamma 119.92642
loop_
_atom_site_label
_atom_site_type_symbol
_atom_site_fract_x
_atom_site_fract_y
_atom_site_fract_z
_atom_type_partial_charge
H0 H 0.23462 0.04537 0.42419 0.0
H1 H 0.23198 0.15482 0.43673 0.0
H2 H 0.19899 0.09225 0.36496 0.0
H3 H 0.24932 0.18051 0.36708 0.0
C4 C 0.23761 0.18896 0.38298 0.0
O5 O 0.2081 0.15498 0.39167 0.0
H6 H 0.26203 0.20561 0.39774 0.0
C7 C 0.2295 0.0683 0.41743 0.0
C8 C 0.21642 0.06491 0.3926 0.0
C9 C 0.2349 0.10039 0.43369 0.0
C10 C 0.22727 0.12936 0.42473 0.0
C11 C 0.21464 0.12648 0.40003 0.0
C12 C 0.2088 0.09414 0.38406 0.0
H13 H 0.96439 0.21719 0.43427 0.0
H14 H 0.86579 0.09667 0.42575 0.0
H15 H 0.94335 0.13935 0.36884 0.0
H16 H 0.85682 0.08241 0.3494 0.0
C17 C 0.84722 0.07007 0.36723 0.0
O18 O 0.8799 0.07883 0.38264 0.0
H19 H 0.83107 0.08419 0.37524 0.0
C20 C 0.94737 0.18844 0.42364 0.0
C21 C 0.95851 0.18236 0.40041 0.0
C22 C 0.91363 0.15791 0.4329 0.0
C23 C 0.8914 0.12095 0.41884 0.0
C24 C 0.90187 0.11467 0.39577 0.0
C25 C 0.93526 0.14516 0.38657 0.0
H26 H 0.82484 0.77143 0.43817 0.0
H27 H 0.93656 0.77599 0.44442 0.0
H28 H 0.8985 0.80525 0.37815 0.0
H29 H 0.93731 0.75445 0.375 0.0
C30 C 0.96104 0.77142 0.39012 0.0
O31 O 0.95586 0.801 0.40138 0.0
H32 H 0.95897 0.75016 0.40359 0.0
C33 C 0.85128 0.77615 0.43013 0.0
C34 C 0.85735 0.78792 0.40618 0.0
C35 C 0.87904 0.7708 0.44403 0.0
C36 C 0.91463 0.77994 0.43422 0.0
C37 C 0.92162 0.7927 0.41064 0.0
C38 C 0.89297 0.79633 0.39658 0.0
H39 H 0.06599 0.26797 0.577 0.0
H40 H 0.16614 0.25068 0.5826 0.0
H41 H 0.09273 0.22451 0.64179 0.0
H42 H 0.18107 0.26507 0.65648 0.0
C43 C 0.18907 0.25382 0.63988 0.0
O44 O 0.15506 0.22592 0.62599 0.0
H45 H 0.20683 0.27972 0.62925 0.0
C46 C 0.08435 0.25922 0.58719 0.0
C47 C 0.07509 0.24619 0.61075 0.0
C48 C 0.11699 0.26078 0.57665 0.0
C49 C 0.14042 0.24914 0.59001 0.0
C50 C 0.13185 0.23662 0.61345 0.0
C51 C 0.09936 0.23512 0.6238 0.0
H52 H 0.78838 0.82196 0.59195 0.0
H53 H 0.80546 0.94073 0.59323 0.0
H54 H 0.8365 0.90319 0.65806 0.0
H55 H 0.79999 0.95413 0.66875 0.0
C56 C 0.80451 0.96716 0.65082 0.0
O57 O 0.83141 0.96065 0.63913 0.0
H58 H 0.77561 0.9522 0.63956 0.0
C59 C 0.79801 0.85072 0.60184 0.0
C60 C 0.81249 0.85805 0.62683 0.0
C61 C 0.79623 0.88066 0.58934 0.0
C62 C 0.80761 0.91762 0.60225 0.0
C63 C 0.82115 0.92503 0.62701 0.0
C64 C 0.82431 0.89582 0.63912 0.0
H65 H 0.20708 0.9775 0.58643 0.0
H66 H 0.09724 0.86589 0.57334 0.0
H67 H 0.12884 0.93292 0.64368 0.0
H68 H 0.09577 0.84528 0.64265 0.0
C69 C 0.07197 0.83556 0.62754 0.0
O70 O 0.07502 0.8686 0.61724 0.0
H71 H 0.07576 0.81624 0.61345 0.0
C72 C 0.18009 0.95454 0.59292 0.0
C73 C 0.17167 0.95934 0.61708 0.0
C74 C 0.15365 0.92097 0.57686 0.0
C75 C 0.11794 0.89225 0.58521 0.0
C76 C 0.10916 0.89669 0.60925 0.0
C77 C 0.13586 0.93016 0.62507 0.0
H78 H 0.89882 0.37799 0.75873 0.0
H79 H 0.89673 0.48762 0.77196 0.0
H80 H 0.86333 0.42572 0.69996 0.0
H81 H 0.91476 0.51408 0.70288 0.0
C82 C 0.90243 0.52241 0.71849 0.0
O83 O 0.87275 0.48834 0.72701 0.0
H84 H 0.9264 0.53921 0.73349 0.0
C85 C 0.89376 0.40105 0.75216 0.0
C86 C 0.88071 0.39801 0.72738 0.0
C87 C 0.8994 0.43306 0.76857 0.0
C88 C 0.89181 0.46219 0.75984 0.0
C89 C 0.87908 0.45959 0.73518 0.0
C90 C 0.87312 0.42737 0.71904 0.0
H91 H 0.64418 0.54122 0.77186 0.0
H92 H 0.53964 0.42515 0.76394 0.0
H93 H 0.60138 0.47158 0.7012 0.0
H94 H 0.51262 0.41644 0.68957 0.0
C95 C 0.50793 0.40181 0.70694 0.0
O96 O 0.54375 0.40994 0.71802 0.0
H97 H 0.4937 0.41385 0.71916 0.0
C98 C 0.62288 0.515 0.76017 0.0
C99 C 0.62783 0.51107 0.73494 0.0
C100 C 0.59093 0.48443 0.77082 0.0
C101 C 0.56444 0.44918 0.75624 0.0
C102 C 0.56876 0.44478 0.7314 0.0
C103 C 0.59968 0.47571 0.72069 0.0
H104 H 0.49308 0.10743 0.77324 0.0
H105 H 0.60583 0.11458 0.77922 0.0
H106 H 0.56477 0.1392 0.71217 0.0
H107 H 0.60422 0.08973 0.70928 0.0
C108 C 0.62814 0.10692 0.72426 0.0
O109 O 0.62326 0.13685 0.7353 0.0
H110 H 0.62615 0.08595 0.73792 0.0
C111 C 0.51941 0.1124 0.76494 0.0
C112 C 0.52454 0.12303 0.74072 0.0
C113 C 0.54795 0.10834 0.77886 0.0
C114 C 0.58337 0.11753 0.76886 0.0
C115 C 0.58935 0.12889 0.74492 0.0
C116 C 0.55996 0.13134 0.73084 0.0
H117 H 0.73175 0.59886 0.91098 0.0
H118 H 0.83383 0.58476 0.91561 0.0
H119 H 0.76215 0.55808 0.97575 0.0
H120 H 0.85168 0.60161 0.98902 0.0
C121 C 0.8592 0.58983 0.97243 0.0
O122 O 0.82483 0.561 0.95926 0.0
H123 H 0.87604 0.61518 0.96122 0.0
C124 C 0.75092 0.59096 0.92103 0.0
C125 C 0.74261 0.5782 0.94473 0.0
C126 C 0.78362 0.59327 0.91016 0.0
C127 C 0.80807 0.58266 0.92331 0.0
C128 C 0.80054 0.57057 0.94692 0.0
C129 C 0.76799 0.56836 0.95763 0.0
H130 H 0.46369 0.1545 0.92566 0.0
H131 H 0.47183 0.26942 0.92351 0.0
H132 H 0.50677 0.2388 0.99017 0.0
H133 H 0.46599 0.28477 0.99817 0.0
C134 C 0.47162 0.2993 0.98073 0.0
O135 O 0.49908 0.29367 0.96911 0.0
H136 H 0.44335 0.28525 0.96885 0.0
C137 C 0.47071 0.1831 0.93479 0.0
C138 C 0.48609 0.19311 0.95958 0.0
C139 C 0.46598 0.2107 0.92147 0.0
C140 C 0.47587 0.24801 0.93331 0.0
C141 C 0.49017 0.2578 0.95799 0.0
C142 C 0.49554 0.23064 0.97103 0.0
H143 H 0.87516 0.31675 0.91916 0.0
H144 H 0.76369 0.20676 0.90661 0.0
H145 H 0.79977 0.27142 0.9778 0.0
H146 H 0.76612 0.18236 0.97495 0.0
C147 C 0.74187 0.17367 0.96032 0.0
O148 O 0.74461 0.20759 0.9515 0.0
H149 H 0.7452 0.15541 0.94525 0.0
C150 C 0.84803 0.29432 0.9258 0.0
C151 C 0.84091 0.29858 0.95039 0.0
C152 C 0.82054 0.26127 0.90975 0.0
C153 C 0.78547 0.23232 0.91863 0.0
C154 C 0.77818 0.236 0.94311 0.0
C155 C 0.80571 0.26911 0.95887 0.0
H156 H 0.5655 0.7126 0.09159 0.0
H157 H 0.56526 0.8236 0.10068 0.0
H158 H 0.52979 0.756 0.0304 0.0
H159 H 0.57884 0.84367 0.02901 0.0
C160 C 0.56944 0.8536 0.04548 0.0
O161 O 0.54028 0.82073 0.05529 0.0
H162 H 0.59536 0.87005 0.0593 0.0
C163 C 0.56016 0.7349 0.08405 0.0
C164 C 0.54683 0.72993 0.05912 0.0
C165 C 0.56695 0.76852 0.0993 0.0
C166 C 0.55986 0.79722 0.08937 0.0
C167 C 0.54687 0.79279 0.06457 0.0
C168 C 0.54035 0.75926 0.04949 0.0
H169 H 0.30057 0.88744 0.10189 0.0
H170 H 0.20069 0.76784 0.09237 0.0
H171 H 0.27922 0.81055 0.03589 0.0
H172 H 0.19177 0.75242 0.01621 0.0
C173 C 0.18257 0.74057 0.03422 0.0
O174 O 0.21556 0.74986 0.04947 0.0
H175 H 0.16642 0.75474 0.04216 0.0
C176 C 0.2833 0.859 0.09096 0.0
C177 C 0.29446 0.85316 0.06769 0.0
C178 C 0.24915 0.8286 0.09988 0.0
C179 C 0.22663 0.79194 0.0856 0.0
C180 C 0.23733 0.78574 0.06261 0.0
C181 C 0.271 0.8162 0.05361 0.0
H182 H 0.15994 0.43856 0.10653 0.0
H183 H 0.27027 0.44036 0.11144 0.0
H184 H 0.23159 0.46974 0.04546 0.0
H185 H 0.26984 0.41923 0.04129 0.0
C186 C 0.29352 0.43541 0.05653 0.0
O187 O 0.28896 0.46511 0.06821 0.0
H188 H 0.29091 0.41353 0.06968 0.0
C189 C 0.18579 0.44245 0.09806 0.0
C190 C 0.19127 0.45375 0.07398 0.0
C191 C 0.21332 0.43636 0.11159 0.0
C192 C 0.24844 0.44469 0.10143 0.0
C193 C 0.25503 0.4572 0.07777 0.0
C194 C 0.22639 0.46121 0.06398 0.0
H195 H 0.39895 0.93319 0.24294 0.0
H196 H 0.4995 0.91658 0.24874 0.0
H197 H 0.42668 0.89141 0.30819 0.0
H198 H 0.51575 0.93275 0.32247 0.0
C199 C 0.52336 0.92127 0.30578 0.0
O200 O 0.48907 0.89286 0.29236 0.0
H201 H 0.54051 0.94695 0.29486 0.0
C202 C 0.41749 0.92475 0.25322 0.0
C203 C 0.4085 0.91217 0.27689 0.0
C204 C 0.45013 0.9263 0.24268 0.0
C205 C 0.47377 0.91503 0.25615 0.0
C206 C 0.46552 0.90303 0.27971 0.0
C207 C 0.43306 0.9016 0.29008 0.0
H208 H 0.10986 0.48166 0.26236 0.0
H209 H 0.12482 0.59938 0.26126 0.0
H210 H 0.17053 0.57063 0.32411 0.0
H211 H 0.13387 0.61981 0.33729 0.0
C212 C 0.13507 0.6319 0.31923 0.0
O213 O 0.15954 0.62474 0.30524 0.0
H214 H 0.1046 0.61646 0.30996 0.0
C215 C 0.12141 0.51155 0.27116 0.0
C216 C 0.14105 0.52205 0.29501 0.0
C217 C 0.11541 0.5392 0.25875 0.0
C218 C 0.12885 0.57747 0.27047 0.0
C219 C 0.14782 0.58812 0.29408 0.0
C220 C 0.15451 0.56092 0.30613 0.0
H221 H 0.53936 0.64869 0.25247 0.0
H222 H 0.42715 0.53967 0.23889 0.0
H223 H 0.46311 0.60268 0.31059 0.0
H224 H 0.42886 0.51392 0.30717 0.0
C225 C 0.40462 0.50555 0.29258 0.0
O226 O 0.40776 0.53964 0.28381 0.0
H227 H 0.40769 0.48715 0.27748 0.0
C228 C 0.51199 0.62626 0.25886 0.0
C229 C 0.50469 0.63006 0.28346 0.0
C230 C 0.48436 0.5938 0.24249 0.0
C231 C 0.44905 0.5648 0.25113 0.0
C232 C 0.4416 0.56801 0.27564 0.0
C233 C 0.4692 0.60067 0.29167 0.0
C234 C 0.5558 0.04579 0.08584 0.0
Eu235 Eu 0.53324 0.03773 0.03941 0.0
C236 C 0.53757 0.02674 0.10786 0.0
C237 C 0.49999 0.01964 0.11293 0.0
C238 C 0.48343 1.00172 0.13403 0.0
C239 C 0.50393 0.99013 0.15024 0.0
C240 C 0.54126 0.9968 0.14492 0.0
C241 C 0.55795 0.01505 0.12397 0.0
C242 C 0.51522 0.08676 0.01582 0.0
C243 C 0.43902 0.97141 0.03023 0.0
C244 C 0.47103 0.99568 0.94136 0.0
Eu245 Eu 0.49527 1.00628 0.98768 0.0
C246 C 0.48573 0.01329 0.91841 0.0
C247 C 0.47453 0.98793 0.89674 0.0
C248 C 0.48695 1.00363 0.87447 0.0
C249 C 0.51066 0.04513 0.87341 0.0
C250 C 0.52277 0.07049 0.89533 0.0
C251 C 0.51043 0.05467 0.9177 0.0
C252 C 0.51463 0.95787 0.01099 0.0
C253 C 0.58981 0.0719 0.99713 0.0
O254 O 0.56121 0.02347 0.0695 0.0
O255 O 0.54311 0.06772 0.07596 0.0
O256 O 0.54651 0.0993 0.03081 0.0
O257 O 0.49376 0.04922 0.01497 0.0
O258 O 0.47171 0.98798 0.04515 0.0
O259 O 0.43958 0.97796 0.00684 0.0
O260 O 0.46445 0.01711 0.95769 0.0
O261 O 0.48763 0.97707 0.95106 0.0
O262 O 0.48287 0.94496 0.99642 0.0
O263 O 0.53546 0.99542 0.01177 0.0
O264 O 0.55718 0.05649 0.9821 0.0
O265 O 0.5888 0.06443 0.02037 0.0
H266 H 0.48339 0.02791 0.10062 0.0
H267 H 0.45446 0.99655 0.13755 0.0
H268 H 0.55788 0.98853 0.15721 0.0
H269 H 0.58688 0.02014 0.12036 0.0
H270 H 0.45584 0.95589 0.89701 0.0
H271 H 0.47777 0.9832 0.85803 0.0
H272 H 0.54084 0.10258 0.89511 0.0
H273 H 0.51971 0.07475 0.93432 0.0
C274 C 1.0097 0.52561 0.08624 0.0
Eu275 Eu 1.00821 0.50809 0.03945 0.0
C276 C 0.02278 0.51927 0.11041 0.0
C277 C 0.99672 0.50783 0.12882 0.0
C278 C 1.00924 0.50536 0.15261 0.0
C279 C 0.04828 0.51459 0.15855 0.0
C280 C 0.07391 0.52439 0.13978 0.0
C281 C 0.06128 0.52668 0.1159 0.0
C282 C 0.95491 0.43844 0.01352 0.0
C283 C 0.07175 0.47957 0.02817 0.0
C284 C 0.02545 0.48154 0.9407 0.0
Eu285 Eu 0.02543 0.49937 0.98723 0.0
C286 C 1.00436 0.47408 0.91642 0.0
C287 C 0.0264 0.48476 0.89606 0.0
C288 C 1.00767 0.47664 0.87249 0.0
C289 C 0.96638 0.45753 0.86879 0.0
C290 C 0.94425 0.44741 0.88933 0.0
C291 C 0.96313 0.45558 0.91303 0.0
C292 C 0.07861 0.56976 0.01262 0.0
C293 C 0.96468 0.53105 0.99935 0.0
O294 O 0.03692 0.54867 0.07246 0.0
O295 O 0.98003 0.49455 0.07372 0.0
O296 O 0.94558 0.4579 0.02923 0.0
O297 O 0.9918 0.45549 0.01297 0.0
O298 O 0.05599 0.4921 0.04464 0.0
O299 O 0.06259 0.47658 0.00441 0.0
O300 O 1.00879 0.45475 0.95628 0.0
O301 O 0.04325 0.51822 0.95101 0.0
O302 O 0.08765 0.5497 0.99718 0.0
O303 O 0.04171 0.55239 0.01344 0.0
O304 O 0.97385 0.51101 0.98311 0.0
O305 O 0.98026 0.53973 0.02224 0.0
H306 H 0.96684 0.50177 0.12495 0.0
H307 H 0.98851 0.497 0.16649 0.0
H308 H 0.10424 0.53196 0.14373 0.0
H309 H 0.08194 0.53535 0.10197 0.0
H310 H 0.05826 0.49916 0.89838 0.0
H311 H 0.02561 0.48555 0.85713 0.0
H312 H 0.91238 0.43252 0.88703 0.0
H313 H 0.94561 0.44712 0.9286 0.0
C314 C 0.48251 0.49403 0.93129 0.0
Eu315 Eu 0.50463 0.51875 0.9775 0.0
C316 C 0.5024 0.49445 0.90914 0.0
C317 C 0.53931 0.52715 0.9054 0.0
C318 C 0.55761 0.5269 0.88418 0.0
C319 C 0.53948 0.49379 0.86648 0.0
C320 C 0.50275 0.46097 0.87049 0.0
C321 C 0.4844 0.46136 0.8916 0.0
C322 C 0.52183 0.59055 0.99912 0.0
C323 C 0.59973 0.55276 0.98637 0.0
C324 C 0.56963 0.56811 0.07523 0.0
Eu325 Eu 0.54467 0.53913 0.02969 0.0
C326 C 0.55371 0.57261 0.0982 0.0
C327 C 0.51577 0.54412 0.10369 0.0
C328 C 0.50224 0.54796 0.12627 0.0
C329 C 0.52633 0.58047 0.1437 0.0
C330 C 0.56389 0.60945 0.13777 0.0
C331 C 0.57741 0.6055 0.11525 0.0
C332 C 0.52674 0.46663 0.00866 0.0
C333 C 0.44806 0.49872 0.02005 0.0
O334 O 0.48288 0.471 0.94775 0.0
O335 O 0.489 0.52864 0.94099 0.0
O336 O 0.48994 0.56772 0.98492 0.0
O337 O 0.54362 0.57536 1.00055 0.0
O338 O 0.56676 0.53298 0.97178 0.0
O339 O 0.59978 0.56324 0.00974 0.0
O340 O 0.56924 0.58967 0.0578 0.0
O341 O 0.55989 0.53174 0.06697 0.0
O342 O 0.55813 0.48918 0.02343 0.0
O343 O 0.50534 0.48229 0.0069 0.0
O344 O 0.48044 0.5201 0.03521 0.0
O345 O 0.44963 0.4896 0.99674 0.0
H346 H 0.55401 0.55287 0.91886 0.0
H347 H 0.58604 0.55243 0.8817 0.0
H348 H 0.4878 0.43524 0.85705 0.0
H349 H 0.45601 0.43583 0.89418 0.0
H350 H 0.49685 0.51865 0.09068 0.0
H351 H 0.47297 0.52544 0.13011 0.0
H352 H 0.58338 0.63462 0.15082 0.0
H353 H 0.60674 0.62782 0.11132 0.0
C354 C 0.21818 0.37913 0.41859 0.0
Eu355 Eu 0.19595 0.36942 0.37197 0.0
C356 C 0.20065 0.36004 0.44078 0.0
C357 C 0.16318 0.35268 0.44633 0.0
C358 C 0.14749 0.33504 0.46768 0.0
C359 C 0.16876 0.32402 0.48367 0.0
C360 C 0.20595 0.33089 0.47786 0.0
C361 C 0.22178 0.34887 0.45666 0.0
C362 C 0.17561 0.41543 0.34697 0.0
C363 C 0.10263 0.30061 0.36245 0.0
C364 C 0.13621 0.31992 0.27338 0.0
Eu365 Eu 0.15959 0.33489 0.32002 0.0
C366 C 0.14987 0.33748 0.2503 0.0
C367 C 0.13339 0.31333 0.2282 0.0
C368 C 0.14551 0.3292 0.20592 0.0
C369 C 0.17408 0.36978 0.2053 0.0
C370 C 0.19119 0.39372 0.22764 0.0
C371 C 0.17937 0.37759 0.24997 0.0
C372 C 0.18024 0.28928 0.34538 0.0
C373 C 0.25279 0.4043 0.32981 0.0
O374 O 0.22524 0.35768 0.40258 0.0
O375 O 0.2038 0.39936 0.4083 0.0
O376 O 0.20562 0.42982 0.36323 0.0
O377 O 0.15575 0.37778 0.34609 0.0
O378 O 0.13499 0.31869 0.37768 0.0
O379 O 0.10348 0.30593 0.33885 0.0
O380 O 0.12582 0.33926 0.28882 0.0
O381 O 0.15667 0.30603 0.28414 0.0
O382 O 0.14872 0.27495 0.33043 0.0
O383 O 0.20025 0.32684 0.34556 0.0
O384 O 0.22036 0.3871 0.31452 0.0
O385 O 0.25179 0.39794 0.35324 0.0
H386 H 0.14601 0.36056 0.43424 0.0
H387 H 0.11859 0.3297 0.47159 0.0
H388 H 0.22315 0.32305 0.48996 0.0
H389 H 0.25066 0.3542 0.45271 0.0
H390 H 0.11105 0.28211 0.22816 0.0
H391 H 0.13242 0.30956 0.18917 0.0
H392 H 0.2131 0.42509 0.2279 0.0
H393 H 0.19309 0.39647 0.2669 0.0
C394 C 0.67621 0.85758 0.41889 0.0
Eu395 Eu 0.67318 0.83927 0.37205 0.0
C396 C 0.69721 0.85927 0.44237 0.0
C397 C 0.69967 0.82628 0.44963 0.0
C398 C 0.71785 0.82828 0.47271 0.0
C399 C 0.73415 0.86337 0.48878 0.0
C400 C 0.73215 0.89644 0.48123 0.0
C401 C 0.7138 0.89435 0.4583 0.0
C402 C 0.61933 0.76926 0.34675 0.0
C403 C 0.73691 0.81163 0.35997 0.0
C404 C 0.68631 0.80938 0.27273 0.0
Eu405 Eu 0.68854 0.82901 0.31928 0.0
C406 C 0.66698 0.8057 0.24831 0.0
C407 C 0.69044 0.81826 0.22862 0.0
C408 C 0.67326 0.81269 0.20482 0.0
C409 C 0.63215 0.79429 0.20017 0.0
C410 C 0.60863 0.78266 0.22004 0.0
C411 C 0.62592 0.78826 0.24397 0.0
C412 C 0.7423 0.89982 0.3439 0.0
C413 C 0.62772 0.86095 0.33212 0.0
O414 O 0.69668 0.88377 0.40374 0.0
O415 O 0.65159 0.82225 0.40774 0.0
O416 O 0.61033 0.78912 0.3624 0.0
O417 O 0.65615 0.78628 0.34585 0.0
O418 O 0.72402 0.8276 0.37634 0.0
O419 O 0.72425 0.80458 0.33652 0.0
O420 O 0.6658 0.78378 0.28816 0.0
O421 O 0.70935 0.84552 0.28325 0.0
O422 O 0.75094 0.87971 0.32822 0.0
O423 O 0.70551 0.8824 0.34523 0.0
O424 O 0.63833 0.8428 0.31545 0.0
O425 O 0.64186 0.86796 0.35528 0.0
H426 H 0.68725 0.79887 0.43763 0.0
H427 H 0.71925 0.80245 0.47796 0.0
H428 H 0.74391 0.92371 0.49331 0.0
H429 H 0.71203 0.92004 0.45314 0.0
H430 H 0.72217 0.83184 0.23163 0.0
H431 H 0.69223 0.82265 0.18998 0.0
H432 H 0.57685 0.76825 0.217 0.0
H433 H 0.60724 0.77836 0.25894 0.0
C434 C 0.14568 0.82663 0.2644 0.0
Eu435 Eu 0.17076 0.85307 0.31021 0.0
C436 C 0.1628 0.82941 0.24086 0.0
C437 C 0.20002 0.86154 0.23715 0.0
C438 C 0.21535 0.86384 0.21439 0.0
C439 C 0.1937 0.834 0.19502 0.0
C440 C 0.15676 0.80154 0.19912 0.0
C441 C 0.14147 0.79936 0.22179 0.0
C442 C 0.18961 0.92603 0.3311 0.0
C443 C 0.26599 0.8885 0.31809 0.0
C444 C 0.23676 0.90136 0.40751 0.0
Eu445 Eu 0.21143 0.87419 0.36175 0.0
C446 C 0.22125 0.90125 0.43151 0.0
C447 C 0.23571 0.88997 0.45158 0.0
C448 C 0.22312 0.89127 0.47481 0.0
C449 C 0.19595 0.90422 0.47857 0.0
C450 C 0.18083 0.91475 0.45829 0.0
C451 C 0.19332 0.91324 0.43496 0.0
C452 C 0.19224 0.80087 0.3414 0.0
C453 C 0.11518 0.83456 0.35317 0.0
O454 O 0.15242 0.80623 0.28023 0.0
O455 O 0.1488 0.85954 0.27456 0.0
O456 O 0.15736 0.90299 0.31725 0.0
O457 O 0.21106 0.91042 0.33241 0.0
O458 O 0.23284 0.86787 0.30374 0.0
O459 O 0.26616 0.89962 0.34137 0.0
O460 O 0.23173 0.92208 0.39114 0.0
O461 O 0.23163 0.86725 0.398 0.0
O462 O 0.22435 0.82399 0.35538 0.0
O463 O 0.17089 0.81659 0.33978 0.0
O464 O 0.14783 0.85691 0.36791 0.0
O465 O 0.11645 0.82395 0.33011 0.0
H466 H 0.21704 0.88495 0.25177 0.0
H467 H 0.24378 0.88931 0.21186 0.0
H468 H 0.13968 0.77754 0.18484 0.0
H469 H 0.11288 0.77416 0.22443 0.0
H470 H 0.25713 0.88047 0.44932 0.0
H471 H 0.23481 0.8822 0.48987 0.0
H472 H 0.16013 0.92517 0.46053 0.0
H473 H 0.18156 0.92199 0.41976 0.0
C474 C 0.88156 0.71162 0.75167 0.0
Eu475 Eu 0.86 0.70189 0.70495 0.0
C476 C 0.86427 0.69262 0.77392 0.0
C477 C 0.82688 0.68526 0.7797 0.0
C478 C 0.81147 0.66758 0.8011 0.0
C479 C 0.83293 0.6565 0.8169 0.0
C480 C 0.87006 0.66348 0.81089 0.0
C481 C 0.88561 0.68149 0.78966 0.0
C482 C 0.84041 0.74758 0.67911 0.0
C483 C 0.76716 0.63201 0.69421 0.0
C484 C 0.80334 0.65297 0.60572 0.0
Eu485 Eu 0.82562 0.66717 0.6525 0.0
C486 C 0.81685 0.67074 0.58267 0.0
C487 C 0.79959 0.64701 0.5605 0.0
C488 C 0.81134 0.66316 0.53824 0.0
C489 C 0.84027 0.70364 0.53771 0.0
C490 C 0.85816 0.72713 0.56012 0.0
C491 C 0.84677 0.71068 0.58242 0.0
C492 C 0.84574 0.6219 0.67862 0.0
C493 C 0.91854 0.73667 0.66341 0.0
O494 O 0.88889 0.69023 0.73577 0.0
O495 O 0.86696 0.73157 0.74126 0.0
O496 O 0.86977 0.76211 0.69587 0.0
O497 O 0.82064 0.70989 0.67813 0.0
O498 O 0.79831 0.65215 0.71024 0.0
O499 O 0.769 0.63529 0.67041 0.0
O500 O 0.79238 0.67185 0.62114 0.0
O501 O 0.82413 0.63945 0.61652 0.0
O502 O 0.81514 0.60735 0.66285 0.0
O503 O 0.86543 0.65951 0.67898 0.0
O504 O 0.88673 0.71906 0.64763 0.0
O505 O 0.9166 0.73085 0.68693 0.0
H506 H 0.80957 0.69315 0.76773 0.0
H507 H 0.78263 0.6622 0.80518 0.0
H508 H 0.88744 0.65566 0.82285 0.0
H509 H 0.91444 0.68686 0.78554 0.0
H510 H 0.77691 0.61591 0.56039 0.0
H511 H 0.79768 0.64378 0.52145 0.0
H512 H 0.88037 0.75842 0.56049 0.0
H513 H 0.86115 0.72919 0.59938 0.0
C514 C 0.33758 0.18402 0.75389 0.0
Eu515 Eu 0.33634 0.16903 0.7068 0.0
C516 C 0.35761 0.18262 0.77693 0.0
C517 C 0.3363 0.17053 0.79758 0.0
C518 C 0.35492 0.17081 0.82003 0.0
C519 C 0.39533 0.18342 0.82228 0.0
C520 C 0.41642 0.19451 0.80135 0.0
C521 C 0.39768 0.19396 0.77882 0.0
C522 C 0.28375 0.09993 0.68027 0.0
C523 C 0.40196 0.14379 0.69471 0.0
C524 C 0.35356 0.14388 0.60757 0.0
Eu525 Eu 0.35375 0.16163 0.65415 0.0
C526 C 0.33385 0.13825 0.58301 0.0
C527 C 0.3571 0.14995 0.5632 0.0
C528 C 0.33966 0.14299 0.53933 0.0
C529 C 0.29849 0.12405 0.53476 0.0
C530 C 0.27517 0.11308 0.55475 0.0
C531 C 0.29273 0.12007 0.57874 0.0
C532 C 0.40604 0.2319 0.67994 0.0
C533 C 0.29165 0.19176 0.66699 0.0
O534 O 0.35902 0.21118 0.73948 0.0
O535 O 0.31268 0.14961 0.74185 0.0
O536 O 0.27395 0.11887 0.69606 0.0
O537 O 0.32068 0.11734 0.67982 0.0
O538 O 0.38723 0.15747 0.71123 0.0
O539 O 0.39095 0.13871 0.67109 0.0
O540 O 0.33482 0.11716 0.62285 0.0
O541 O 0.37338 0.18035 0.61818 0.0
O542 O 0.41558 0.21292 0.66401 0.0
O543 O 0.36916 0.21372 0.68089 0.0
O544 O 0.30268 0.17407 0.65028 0.0
O545 O 0.30537 0.19831 0.69023 0.0
H546 H 0.30534 0.16159 0.79645 0.0
H547 H 0.33797 0.16257 0.83585 0.0
H548 H 0.44749 0.20399 0.80246 0.0
H549 H 0.41462 0.20298 0.76303 0.0
H550 H 0.38888 0.16409 0.56617 0.0
H551 H 0.35851 0.15253 0.52442 0.0
H552 H 0.24336 0.0983 0.5518 0.0
H553 H 0.27426 0.11081 0.59384 0.0
C554 C 0.81296 0.16366 0.59775 0.0
Eu555 Eu 0.83742 0.18793 0.64385 0.0
C556 C 0.83037 0.16644 0.57422 0.0
C557 C 0.81477 0.17584 0.5538 0.0
C558 C 0.8301 0.17794 0.53113 0.0
C559 C 0.86134 0.1705 0.52837 0.0
C560 C 0.87753 0.16193 0.54904 0.0
C561 C 0.86219 0.15992 0.57177 0.0
C562 C 0.85509 0.26002 0.66555 0.0
C563 C 0.93266 0.22296 0.65189 0.0
C564 C 0.90292 0.23444 0.74138 0.0
Eu565 Eu 0.8779 0.20816 0.69545 0.0
C566 C 0.8875 0.23728 0.76503 0.0
C567 C 0.89272 0.21793 0.78452 0.0
C568 C 0.87976 0.22109 0.80737 0.0
C569 C 0.86146 0.24392 0.81131 0.0
C570 C 0.85615 0.26331 0.79175 0.0
C571 C 0.86896 0.25996 0.7688 0.0
C572 C 0.85974 0.13556 0.67434 0.0
C573 C 0.78181 0.16879 0.68675 0.0
O574 O 0.81738 0.14164 0.61346 0.0
O575 O 0.81748 0.197 0.6082 0.0
O576 O 0.82292 0.23687 0.65167 0.0
O577 O 0.87702 0.24492 0.66657 0.0
O578 O 0.89958 0.20289 0.6374 0.0
O579 O 0.93278 0.23336 0.67529 0.0
O580 O 0.9024 0.25692 0.7246 0.0
O581 O 0.89356 0.19863 0.73221 0.0
O582 O 0.89171 0.15871 0.68845 0.0
O583 O 0.83799 0.15086 0.67294 0.0
O584 O 0.81446 0.19153 0.70141 0.0
O585 O 0.78307 0.15808 0.6637 0.0
H586 H 0.79046 0.18133 0.55536 0.0
H587 H 0.81737 0.1853 0.51572 0.0
H588 H 0.90133 0.15567 0.54754 0.0
H589 H 0.87489 0.15278 0.5873 0.0
H590 H 0.90727 0.20062 0.78216 0.0
H591 H 0.88489 0.20632 0.82212 0.0
H592 H 0.8419 0.28088 0.79415 0.0
H593 H 0.86453 0.2753 0.75413 0.0
C594 C 0.33161 0.89259 0.03344 0.0
C595 C 0.33089 0.88508 0.05829 0.0
H596 H 0.36598 0.92583 0.00509 0.0
C597 C 0.36563 0.90753 0.07397 0.0
H598 H 0.30524 0.87625 0.02092 0.0
C599 C 0.40039 0.93608 0.06493 0.0
C600 C 0.40134 0.94301 0.03997 0.0
H601 H 0.3663 0.90229 0.09314 0.0
H602 H 0.4267 0.95221 0.07752 0.0
C603 C 0.36639 0.92124 0.02439 0.0
C604 C 0.1201 0.43301 0.06366 0.0
C605 C 0.16013 0.45766 0.05977 0.0
H606 H 0.0609 0.4213 0.05696 0.0
C607 C 0.16993 0.48711 0.04322 0.0
H608 H 0.11098 0.40903 0.07551 0.0
C609 C 0.14067 0.49278 0.03176 0.0
C610 C 0.10136 0.46966 0.03701 0.0
H611 H 0.20029 0.50692 0.03985 0.0
H612 H 0.14902 0.51653 0.01977 0.0
C613 C 0.09119 0.43952 0.0528 0.0
C614 C 0.52106 0.65612 0.05228 0.0
C615 C 0.53984 0.69408 0.04338 0.0
H616 H 0.50044 0.59364 0.04509 0.0
C617 C 0.55248 0.6975 0.01959 0.0
H618 H 0.51045 0.65233 0.07036 0.0
C619 C 0.54685 0.66375 0.0052 0.0
C620 C 0.52846 0.62613 0.01433 0.0
H621 H 0.5673 0.72635 0.01228 0.0
H622 H 0.55692 0.66701 0.98698 0.0
C623 C 0.51529 0.62248 0.03784 0.0
C624 C 0.85788 0.35426 0.98304 0.0
C625 C 0.87023 0.33382 0.96708 0.0
H626 H 0.87503 0.40345 0.01007 0.0
C627 C 0.91083 0.34768 0.96695 0.0
H628 H 0.82689 0.34461 0.98342 0.0
C629 C 0.93839 0.38136 0.98227 0.0
C630 C 0.92597 0.40206 0.99788 0.0
H631 H 0.92129 0.33227 0.95515 0.0
H632 H 0.9694 0.39113 0.9819 0.0
C633 C 0.88546 0.38804 0.99823 0.0
C634 C 0.70738 0.58459 0.98054 0.0
C635 C 0.70666 0.57363 0.9555 0.0
H636 H 0.67439 0.58703 0.01 0.0
C637 C 0.67087 0.55713 0.94078 0.0
H638 H 0.73457 0.59776 0.99235 0.0
C639 C 0.63663 0.55123 0.95081 0.0
C640 C 0.63708 0.5616 0.97589 0.0
H641 H 0.669 0.54776 0.92154 0.0
H642 H 0.60961 0.53785 0.93883 0.0
C643 C 0.67296 0.5787 0.99063 0.0
C644 C 0.52851 0.17974 0.98865 0.0
C645 C 0.49333 0.16515 0.9735 0.0
H646 H 0.56287 0.16638 0.0137 0.0
C647 C 0.46525 0.12412 0.97217 0.0
H648 H 0.551 0.21105 0.98982 0.0
C649 C 0.47204 0.09843 0.98602 0.0
C650 C 0.5072 0.11325 1.0012 0.0
H651 H 0.43772 0.11204 0.96083 0.0
H652 H 0.44966 0.06712 0.98502 0.0
C653 C 0.53536 0.15411 1.00229 0.0
C654 C 0.69967 0.14201 0.99496 0.0
C655 C 0.70229 0.14878 0.97005 0.0
H656 H 0.66232 0.11243 0.02302 0.0
C657 C 0.66764 0.13074 0.95411 0.0
H658 H 0.72594 0.15555 0.00765 0.0
C659 C 0.63104 0.10598 0.96287 0.0
C660 C 0.62841 0.09864 0.98777 0.0
H661 H 0.66899 0.1355 0.93481 0.0
H662 H 0.6049 0.09233 0.95007 0.0
C663 C 0.66318 0.11718 1.00372 0.0
C664 C 0.897 0.55504 0.96115 0.0
C665 C 0.88478 0.57253 0.97931 0.0
H666 H 0.9317 0.52781 0.95316 0.0
C667 C 0.89849 0.57569 1.00388 0.0
H668 H 0.88702 0.55267 0.94203 0.0
C669 C 0.92409 0.56187 0.01023 0.0
C670 C 0.93667 0.54456 0.99215 0.0
H671 H 0.88974 0.58929 0.0182 0.0
H672 H 0.93417 0.56502 0.0294 0.0
C673 C 0.92257 0.54095 0.96752 0.0
C674 C 0.52386 0.36771 0.99957 0.0
C675 C 0.48687 0.34332 0.98651 0.0
H676 H 0.56573 0.42611 0.01647 0.0
C677 C 0.46349 0.36006 0.98016 0.0
H678 H 0.5422 0.35535 0.00489 0.0
C679 C 0.47675 0.4004 0.98692 0.0
C680 C 0.51362 0.4247 1.00016 0.0
H681 H 0.43468 0.34179 0.97029 0.0
H682 H 0.45786 0.41237 0.98215 0.0
C683 C 0.53722 0.40809 0.0062 0.0
C684 C 0.16977 0.6723 0.01901 0.0
C685 C 0.15613 0.69585 0.03039 0.0
H686 H 0.15604 0.61378 0.00489 0.0
C687 C 0.11744 0.67723 0.03746 0.0
H688 H 0.19951 0.68602 0.0135 0.0
C689 C 0.09244 0.63588 0.03249 0.0
C690 C 0.10578 0.61254 0.02041 0.0
H691 H 0.10631 0.69475 0.04639 0.0
H692 H 0.06244 0.62237 0.03754 0.0
C693 C 0.1449 0.63104 0.01415 0.0
C694 C 0.33724 0.4479 0.02195 0.0
C695 C 0.33361 0.45326 0.04701 0.0
H696 H 0.37604 0.458 0.99382 0.0
C697 C 0.36786 0.47429 0.06322 0.0
H698 H 0.3113 0.43172 0.00908 0.0
C699 C 0.40515 0.48955 0.05452 0.0
C700 C 0.40882 0.48375 0.02944 0.0
H701 H 0.36569 0.4786 0.08266 0.0
H702 H 0.431 0.50549 0.06749 0.0
C703 C 0.3744 0.46294 0.01326 0.0
C704 C 0.57778 0.92236 0.04285 0.0
C705 C 0.55426 0.88064 0.03793 0.0
H706 H 0.58365 0.97963 0.03822 0.0
C707 C 0.51753 0.86465 0.02437 0.0
H708 H 0.60651 0.93548 0.05291 0.0
C709 C 0.50435 0.88982 0.01614 0.0
C710 C 0.52794 0.93152 0.02093 0.0
H711 H 0.49916 0.83266 0.01995 0.0
H712 H 0.47594 0.87662 0.00565 0.0
C713 C 0.56472 0.94759 0.03445 0.0
C714 C 0.9955 0.22102 0.36582 0.0
C715 C 0.99477 0.21429 0.39082 0.0
H716 H 0.0298 0.25358 0.33725 0.0
C717 C 0.0294 0.23746 0.40648 0.0
H718 H 0.96921 0.20413 0.35329 0.0
C719 C 0.06403 0.26597 0.39732 0.0
C720 C 0.06501 0.2721 0.37223 0.0
H721 H 0.03012 0.23283 0.42576 0.0
H722 H 0.09025 0.28269 0.40993 0.0
C723 C 0.03019 0.24959 0.35663 0.0
C724 C 0.8361 0.82232 0.37626 0.0
C725 C 0.82623 0.79136 0.39166 0.0
H726 H 0.81494 0.85259 0.35376 0.0
C727 C 0.78608 0.76478 0.39424 0.0
H728 H 0.8666 0.84355 0.37397 0.0
C729 C 0.75685 0.77059 0.38311 0.0
C730 C 0.767 0.80226 0.36856 0.0
H731 H 0.77716 0.7399 0.40534 0.0
H732 H 0.72634 0.75082 0.38629 0.0
C733 C 0.80664 0.82761 0.36472 0.0
C734 C 0.23959 0.01967 0.37531 0.0
C735 C 0.2105 0.03065 0.37577 0.0
H736 H 0.25635 0.97873 0.3601 0.0
C737 C 0.17535 1.00809 0.36051 0.0
H738 H 0.26719 0.03687 0.38665 0.0
C739 C 0.1689 0.97447 0.34566 0.0
C740 C 0.19764 0.96301 0.34561 0.0
H741 H 0.15238 0.01579 0.36057 0.0
H742 H 0.14111 0.95705 0.33455 0.0
C743 C 0.23338 0.98641 0.36016 0.0
C744 C 0.57458 0.67817 0.30045 0.0
C745 C 0.53408 0.66487 0.30039 0.0
H746 H 0.63323 0.72107 0.31555 0.0
C747 C 0.52195 0.68561 0.31627 0.0
H748 H 0.58485 0.66249 0.28871 0.0
C749 C 0.54969 0.71928 0.33149 0.0
C750 C 0.59014 0.73283 0.33125 0.0
H751 H 0.49103 0.67637 0.31651 0.0
H752 H 0.53947 0.73501 0.34323 0.0
C753 C 0.60229 0.71168 0.31581 0.0
C754 C 0.33714 0.89267 0.27256 0.0
C755 C 0.37275 0.9086 0.28741 0.0
H756 H 0.27599 0.87415 0.27046 0.0
C757 C 0.37345 0.91975 0.31241 0.0
H758 H 0.33531 0.88325 0.25334 0.0
C759 C 0.33912 0.91434 0.32238 0.0
C760 C 0.30334 0.89753 0.30757 0.0
H761 H 0.40052 0.93257 0.32431 0.0
H762 H 0.3405 0.92263 0.34175 0.0
C763 C 0.30295 0.88722 0.28249 0.0
C764 C 0.14959 0.49448 0.33416 0.0
C765 C 0.14771 0.49289 0.30831 0.0
H766 H 0.16057 0.47159 0.36657 0.0
C767 C 0.15329 0.4638 0.29545 0.0
H768 H 0.14441 0.51545 0.34488 0.0
C769 C 0.16087 0.43759 0.30806 0.0
C770 C 0.16394 0.44038 0.33372 0.0
H771 H 0.153 0.46188 0.27567 0.0
H772 H 0.166 0.41628 0.29782 0.0
C773 C 0.15835 0.46902 0.3467 0.0
C774 C 0.33053 0.46147 0.28635 0.0
C775 C 0.36505 0.48105 0.3024 0.0
H776 H 0.26802 0.42186 0.28231 0.0
C777 C 0.36228 0.47635 0.32757 0.0
H778 H 0.33198 0.46473 0.26687 0.0
C779 C 0.32583 0.45174 0.33646 0.0
C780 C 0.29125 0.4314 0.32038 0.0
H781 H 0.38843 0.49125 0.34035 0.0
H782 H 0.32488 0.44845 0.35594 0.0
C783 C 0.29399 0.43691 0.29523 0.0
C784 C 0.56234 0.88801 0.29408 0.0
C785 C 0.54859 0.90351 0.31245 0.0
H786 H 0.59804 0.86204 0.28578 0.0
C787 C 0.56017 0.90393 0.3371 0.0
H788 H 0.55388 0.88763 0.27491 0.0
C789 C 0.58544 0.88965 0.34332 0.0
C790 C 0.59974 0.87455 0.32503 0.0
H791 H 0.55008 0.9158 0.3516 0.0
H792 H 0.59394 0.89076 0.36257 0.0
C793 C 0.58759 0.87347 0.3003 0.0
C794 C 0.12719 0.69259 0.31647 0.0
C795 C 0.15067 0.67619 0.32337 0.0
H796 H 0.12207 0.74519 0.3167 0.0
C797 C 0.18844 0.70138 0.33522 0.0
H798 H 0.09791 0.67374 0.30734 0.0
C799 C 0.20232 0.74217 0.34043 0.0
C800 C 0.17852 0.75844 0.33408 0.0
H801 H 0.20695 0.68932 0.34076 0.0
H802 H 0.23139 0.7608 0.3499 0.0
C803 C 0.14101 0.7334 0.32179 0.0
C804 C 0.78203 1.00674 0.37021 0.0
C805 C 0.82058 0.02544 0.36293 0.0
H806 H 0.72688 0.95199 0.37001 0.0
C807 C 0.83387 1.00208 0.35088 0.0
H808 H 0.77119 0.02411 0.37967 0.0
C809 C 0.80873 0.96094 0.34554 0.0
C810 C 0.76973 0.94241 0.35202 0.0
H811 H 0.86352 0.01587 0.34522 0.0
H812 H 0.81958 0.94383 0.33578 0.0
C813 C 0.75677 0.96554 0.36477 0.0
C814 C 0.03542 0.81103 0.39657 0.0
C815 C 1.00105 0.78953 0.38048 0.0
H816 H 0.09861 0.84245 0.40062 0.0
C817 C 1.0045 0.78375 0.35545 0.0
H818 H 0.03338 0.81567 0.41599 0.0
C819 C 0.04157 0.79874 0.34666 0.0
C820 C 0.0761 0.81993 0.36271 0.0
H821 H 0.97847 0.76721 0.34267 0.0
H822 H 0.04304 0.79342 0.32724 0.0
C823 C 0.07265 0.82625 0.38776 0.0
C824 C 0.18522 0.19803 0.36075 0.0
C825 C 0.22175 0.21505 0.37466 0.0
H826 H 0.14319 0.20825 0.34108 0.0
C827 C 0.24455 0.25689 0.37915 0.0
H828 H 0.16744 0.16592 0.35658 0.0
C829 C 0.2309 0.28124 0.37002 0.0
C830 C 0.19428 0.26411 0.35619 0.0
H831 H 0.27317 0.27077 0.38944 0.0
H832 H 0.24926 0.31341 0.37344 0.0
C833 C 0.17145 0.22229 0.35182 0.0
C834 C 0.6774 0.53337 0.703 0.0
C835 C 0.66257 0.543 0.72365 0.0
H836 H 0.72119 0.55424 0.67715 0.0
C837 C 0.68197 0.58329 0.73362 0.0
H838 H 0.66465 0.50289 0.695 0.0
C839 C 0.71573 0.61239 0.72388 0.0
C840 C 0.72993 0.60235 0.70331 0.0
H841 H 0.67137 0.59267 0.74901 0.0
H842 H 0.73068 0.64284 0.73237 0.0
C843 C 0.71017 0.5628 0.69273 0.0
C844 C 0.45283 0.09953 0.72996 0.0
C845 C 0.4927 0.12541 0.72625 0.0
H846 H 0.39295 0.08567 0.72307 0.0
C847 C 0.50164 0.15483 0.70977 0.0
H848 H 0.44447 0.07563 0.7418 0.0
C849 C 0.47165 0.15934 0.69827 0.0
C850 C 0.43243 0.13497 0.70335 0.0
H851 H 0.53186 0.17552 0.70655 0.0
H852 H 0.4793 0.18316 0.68641 0.0
C853 C 0.42315 0.10478 0.719 0.0
C854 C 0.9045 0.35356 0.70978 0.0
C855 C 0.87508 0.36406 0.7104 0.0
H856 H 0.92182 0.31323 0.69435 0.0
C857 C 0.83987 0.34124 0.69524 0.0
H858 H 0.93214 0.37101 0.72104 0.0
C859 C 0.83369 0.30776 0.68035 0.0
C860 C 0.86277 0.29677 0.68016 0.0
H861 H 0.81667 0.3486 0.69544 0.0
H862 H 0.80585 0.29009 0.66932 0.0
C863 C 0.89856 0.32048 0.69459 0.0
C864 C 0.1875 0.01538 0.64923 0.0
C865 C 0.20039 0.99482 0.63382 0.0
H866 H 0.20385 0.06486 0.67589 0.0
C867 C 0.24107 1.0088 0.63421 0.0
H868 H 0.15645 1.00568 0.6492 0.0
C869 C 0.2682 0.04273 0.64947 0.0
C870 C 0.25525 0.0635 0.66457 0.0
H871 H 0.25196 0.9933 0.62285 0.0
H872 H 0.29929 0.05264 0.64948 0.0
C873 C 0.21465 0.04937 0.66443 0.0
C874 C 0.03988 0.2531 0.64639 0.0
C875 C 0.03937 0.24271 0.62128 0.0
H876 H 1.00682 0.25543 0.6758 0.0
C877 C 1.00399 0.22773 0.60632 0.0
H878 H 0.06678 0.26522 0.65839 0.0
C879 C 0.96986 0.22249 0.61622 0.0
C880 C 0.97003 0.23193 0.64141 0.0
H881 H 1.00227 0.21891 0.587 0.0
H882 H 0.94311 0.21031 0.60409 0.0
C883 C 1.00559 0.2478 0.65635 0.0
C884 C 0.82434 0.79951 0.62739 0.0
C885 C 0.81631 0.82707 0.63997 0.0
H886 H 0.8374 0.75223 0.63011 0.0
C887 C 0.81357 0.82573 0.66551 0.0
H888 H 0.82756 0.79976 0.6079 0.0
C889 C 0.82069 0.7993 0.67817 0.0
C890 C 0.82916 0.7725 0.66551 0.0
H891 H 0.8063 0.84535 0.67593 0.0
H892 H 0.81973 0.79988 0.6979 0.0
C893 C 0.83021 0.77225 0.64004 0.0
C894 C 0.99796 0.79194 0.6206 0.0
C895 C 0.03203 0.81168 0.63701 0.0
H896 H 0.93541 0.75285 0.61598 0.0
C897 C 0.02844 0.80772 0.6622 0.0
H898 H 1.00005 0.79462 0.60109 0.0
C899 C 0.99158 0.78373 0.67079 0.0
C900 C 0.95744 0.76329 0.65436 0.0
H901 H 0.05426 0.82272 0.67525 0.0
H902 H 0.98997 0.78097 0.6903 0.0
C903 C 0.96103 0.76803 0.62917 0.0
C904 C 0.22776 0.22011 0.62853 0.0
C905 C 0.21371 0.23549 0.64676 0.0
H906 H 0.26327 0.19385 0.62052 0.0
C907 C 0.22448 0.23529 0.67149 0.0
H908 H 0.21993 0.2202 0.60931 0.0
C909 C 0.24929 0.22055 0.67791 0.0
C910 C 0.26393 0.20561 0.65975 0.0
H911 H 0.21415 0.24707 0.68589 0.0
H912 H 0.25724 0.22123 0.6972 0.0
C913 C 0.25253 0.20511 0.63495 0.0
C914 C 0.79596 0.02752 0.64851 0.0
C915 C 0.81973 0.01138 0.65529 0.0
H916 H 0.79013 0.07972 0.6491 0.0
C917 C 0.85716 0.03666 0.66758 0.0
H918 H 0.76684 1.00857 0.63919 0.0
C919 C 0.87055 0.07729 0.6731 0.0
C920 C 0.84653 0.09331 0.66673 0.0
H921 H 0.87583 0.02481 0.67319 0.0
H922 H 0.8994 0.09598 0.68284 0.0
C923 C 0.80927 0.06816 0.65416 0.0
C924 C 0.49555 0.33556 0.68775 0.0
C925 C 0.48184 0.3573 0.70123 0.0
H926 H 0.48254 0.27864 0.67099 0.0
C927 C 0.44336 0.33717 0.70858 0.0
H928 H 0.52501 0.35048 0.68177 0.0
C929 C 0.41888 0.29605 0.70229 0.0
C930 C 0.43253 0.27446 0.68855 0.0
H931 H 0.43206 0.35332 0.71892 0.0
H932 H 0.38911 0.28133 0.70778 0.0
C933 C 0.47125 0.2945 0.68163 0.0
C934 C 0.67115 0.11786 0.68944 0.0
C935 C 0.668 0.12457 0.71442 0.0
H936 H 0.70937 0.12653 0.66115 0.0
C937 C 0.70252 0.14656 0.73031 0.0
H938 H 0.64498 0.10089 0.67682 0.0
C939 C 0.73961 0.16143 0.72137 0.0
C940 C 0.74279 0.15428 0.69637 0.0
H941 H 0.70072 0.15188 0.74969 0.0
H942 H 0.76569 0.17806 0.73409 0.0
C943 C 0.7081 0.13252 0.68051 0.0
C944 C 0.90924 0.59015 0.71402 0.0
C945 C 0.88661 0.54827 0.70966 0.0
H946 H 0.91402 0.6465 0.70766 0.0
C947 C 0.85043 0.53103 0.69532 0.0
H948 H 0.9376 0.6042 0.72463 0.0
C949 C 0.83685 0.55511 0.68584 0.0
C950 C 0.85952 0.59696 0.69007 0.0
H951 H 0.83281 0.4989 0.69124 0.0
H952 H 0.80886 0.5409 0.67478 0.0
C953 C 0.89577 0.61431 0.70435 0.0
C954 C 0.47518 0.92257 0.20189 0.0
C955 C 0.46045 0.94052 0.21798 0.0
H956 H 0.50021 0.92405 0.16787 0.0
C957 C 0.45775 0.97341 0.21078 0.0
H958 H 0.47684 0.89664 0.20656 0.0
C959 C 0.47075 0.9888 0.18842 0.0
C960 C 0.48698 0.97181 0.1729 0.0
H961 H 0.44698 0.98825 0.2228 0.0
H962 H 0.46948 0.01493 0.18371 0.0
C963 C 0.48848 0.93817 0.17969 0.0
C964 C 0.10567 0.50994 0.21508 0.0
C965 C 0.09537 0.52882 0.23354 0.0
H966 H 0.0987 0.49031 0.17686 0.0
C967 C 0.06759 0.54035 0.2274 0.0
H968 H 0.12713 0.50087 0.21925 0.0
C969 C 0.05165 0.53468 0.20323 0.0
C970 C 0.06294 0.51716 0.18453 0.0
H971 H 0.0587 0.55455 0.24126 0.0
H972 H 0.0315 0.5454 0.1991 0.0
C973 C 0.08971 0.50429 0.19078 0.0
C974 C 0.48381 0.55265 0.20512 0.0
C975 C 0.49289 0.58999 0.2166 0.0
H976 H 0.4875 0.52043 0.17331 0.0
C977 C 0.51136 0.62387 0.20341 0.0
H978 H 0.47006 0.52603 0.21482 0.0
C979 C 0.52142 0.62066 0.17961 0.0
C980 C 0.51318 0.58348 0.16835 0.0
H981 H 0.51812 0.65297 0.2115 0.0
H982 H 0.53573 0.64738 0.17002 0.0
C983 C 0.4938 0.54944 0.18129 0.0
C984 C 0.90004 0.45015 0.81364 0.0
C985 C 0.91456 0.43685 0.79454 0.0
H986 H 0.90501 0.46715 0.8521 0.0
C987 C 0.94468 0.42836 0.80032 0.0
H988 H 0.87646 0.45642 0.80984 0.0
C989 C 0.96062 0.43403 0.8245 0.0
C990 C 0.94698 0.44848 0.84349 0.0
H991 H 0.95679 0.41838 0.78607 0.0
H992 H 0.98402 0.42748 0.82828 0.0
C993 C 0.91605 0.45585 0.83788 0.0
C994 C 0.57062 0.45681 0.8113 0.0
C995 C 0.58381 0.48925 0.79685 0.0
H996 H 0.54672 0.43301 0.84471 0.0
C997 C 0.58623 0.52479 0.80665 0.0
H998 H 0.5692 0.4293 0.8045 0.0
C999 C 0.57344 0.52694 0.82978 0.0
C1000 C 0.55791 0.49356 0.84351 0.0
H1001 H 0.596 0.5502 0.79592 0.0
H1002 H 0.57384 0.55403 0.83636 0.0
C1003 C 0.55771 0.4589 0.83432 0.0
C1004 C 0.50163 0.0605 0.80637 0.0
C1005 C 0.5393 0.09243 0.80322 0.0
H1006 H 0.46298 0.02132 0.83089 0.0
C1007 C 0.56796 0.10866 0.82336 0.0
H1008 H 0.47903 0.04687 0.79116 0.0
C1009 C 0.55886 0.09348 0.84625 0.0
C1010 C 0.52101 0.06165 0.84933 0.0
H1011 H 0.5972 0.13338 0.82152 0.0
H1012 H 0.5815 0.1064 0.86144 0.0
C1013 C 0.49257 0.04545 0.82911 0.0
C1014 C 0.14201 0.25732 0.53577 0.0
C1015 C 0.12733 0.27518 0.55197 0.0
H1016 H 0.16634 0.25861 0.5015 0.0
C1017 C 0.12433 0.30793 0.5448 0.0
H1018 H 0.14391 0.2315 0.5404 0.0
C1019 C 0.13675 0.32312 0.52232 0.0
C1020 C 0.15274 0.30609 0.50662 0.0
H1021 H 0.11363 0.32274 0.55691 0.0
H1022 H 0.13514 0.34907 0.5176 0.0
C1023 C 0.15475 0.27274 0.51343 0.0
C1024 C 0.80216 0.90433 0.54735 0.0
C1025 C 0.78244 0.87393 0.56285 0.0
H1026 H 0.80276 0.92452 0.51177 0.0
C1027 C 0.74846 0.8384 0.55315 0.0
H1028 H 0.82892 0.9317 0.55412 0.0
C1029 C 0.73349 0.83424 0.52877 0.0
C1030 C 0.75223 0.86555 0.51368 0.0
H1031 H 0.7325 0.81454 0.56467 0.0
H1032 H 0.70634 0.80725 0.52207 0.0
C1033 C 0.78722 0.90022 0.52309 0.0
C1034 C 0.13541 0.90132 0.53141 0.0
C1035 C 0.16393 0.91591 0.55162 0.0
H1036 H 0.12293 0.88583 0.49257 0.0
C1037 C 0.20276 0.92613 0.54757 0.0
H1038 H 0.10529 0.89346 0.53383 0.0
C1039 C 0.21297 0.92233 0.52395 0.0
C1040 C 0.18458 0.9079 0.5037 0.0
H1041 H 0.2254 0.93693 0.56271 0.0
H1042 H 0.24336 0.93125 0.52156 0.0
C1043 C 0.14563 0.89739 0.50771 0.0
C1044 C 0.61282 0.76598 0.13159 0.0
C1045 C 0.58263 0.77415 0.12533 0.0
H1046 H 0.65158 0.76535 0.16006 0.0
C1047 C 0.56804 0.78814 0.14402 0.0
H1048 H 0.625 0.75555 0.11762 0.0
C1049 C 0.5836 0.79413 0.16842 0.0
C1050 C 0.61421 0.78651 0.17455 0.0
H1051 H 0.54451 0.79432 0.13981 0.0
H1052 H 0.57221 0.80546 0.18239 0.0
C1053 C 0.62838 0.77204 0.15588 0.0
C1054 C 0.26277 0.8484 0.14529 0.0
C1055 C 0.23644 0.83435 0.12404 0.0
H1056 H 0.26985 0.85863 0.18452 0.0
C1057 C 0.19685 0.82304 0.12614 0.0
H1058 H 0.29342 0.8571 0.14416 0.0
C1059 C 0.18342 0.82419 0.14908 0.0
C1060 C 0.20918 0.83635 0.17055 0.0
H1061 H 0.17606 0.81271 0.11 0.0
H1062 H 0.15264 0.81509 0.14999 0.0
C1063 C 0.24924 0.84927 0.16837 0.0
C1064 C 0.23327 0.43244 0.15542 0.0
C1065 C 0.20406 0.41957 0.13573 0.0
H1066 H 0.247 0.42652 0.19271 0.0
C1067 C 0.16531 0.39005 0.13914 0.0
H1068 H 0.26336 0.45528 0.15348 0.0
C1069 C 0.15577 0.37432 0.16166 0.0
C1070 C 0.18483 0.38705 0.18139 0.0
H1071 H 0.14213 0.37876 0.12429 0.0
H1072 H 0.12536 0.35239 0.16363 0.0
C1073 C 0.22377 0.4163 0.178 0.0
C1074 C 0.78931 0.63986 0.87831 0.0
C1075 C 0.793 0.60744 0.88535 0.0
H1076 H 0.79913 0.68084 0.85115 0.0
C1077 C 0.80761 0.58981 0.86894 0.0
H1078 H 0.77859 0.65444 0.89058 0.0
C1079 C 0.81973 0.60521 0.84653 0.0
C1080 C 0.81719 0.63837 0.83985 0.0
H1081 H 0.81002 0.56424 0.87351 0.0
H1082 H 0.83134 0.5913 0.83444 0.0
C1083 C 0.80115 0.65507 0.85575 0.0
C1084 C 0.46871 0.22941 0.87834 0.0
C1085 C 0.4504 0.20108 0.89527 0.0
H1086 H 0.46574 0.24595 0.84207 0.0
C1087 C 0.41559 0.16513 0.88739 0.0
H1088 H 0.49578 0.25723 0.88387 0.0
C1089 C 0.39831 0.15864 0.86339 0.0
C1090 C 0.41578 0.18779 0.84676 0.0
H1091 H 0.40082 0.14285 0.90008 0.0
H1092 H 0.37083 0.13119 0.85798 0.0
C1093 C 0.45167 0.22279 0.85435 0.0
C1094 C 0.82095 0.21903 0.87342 0.0
C1095 C 0.82905 0.25654 0.884 0.0
H1096 H 0.82434 0.18557 0.84218 0.0
C1097 C 0.84642 0.2896 0.87005 0.0
H1098 H 0.80791 0.19302 0.8837 0.0
C1099 C 0.85613 0.28538 0.84628 0.0
C1100 C 0.84885 0.24803 0.83594 0.0
H1101 H 0.85265 0.31882 0.87755 0.0
H1102 H 0.87029 0.31161 0.83625 0.0
C1103 C 0.83076 0.21485 0.84971 0.0
C1104 C 0.23418 0.11725 0.4786 0.0
C1105 C 0.24951 0.10432 0.4598 0.0
H1106 H 0.23764 0.13372 0.517 0.0
C1107 C 0.27978 0.09626 0.46606 0.0
H1108 H 0.21049 0.12321 0.47442 0.0
C1109 C 0.29498 0.10186 0.49042 0.0
C1110 C 0.28037 0.11574 0.50914 0.0
H1111 H 0.29247 0.08657 0.45205 0.0
H1112 H 0.31843 0.09553 0.49458 0.0
C1113 C 0.24942 0.12285 0.50302 0.0
C1114 C 0.86096 0.14943 0.45995 0.0
C1115 C 0.90109 0.16401 0.45714 0.0
H1116 H 0.81705 0.13946 0.48446 0.0
C1117 C 0.9285 0.18254 0.4778 0.0
H1118 H 0.83914 0.13546 0.44434 0.0
C1119 C 0.91582 0.18526 0.5009 0.0
C1120 C 0.87551 0.16972 0.50377 0.0
H1121 H 0.9596 0.19389 0.47624 0.0
H1122 H 0.93757 0.19939 0.51653 0.0
C1123 C 0.84834 0.15215 0.48294 0.0
C1124 C 0.83099 0.72454 0.47168 0.0
C1125 C 0.86972 0.75406 0.46822 0.0
H1126 H 0.79119 0.68677 0.49619 0.0
C1127 C 0.89899 0.76689 0.48787 0.0
H1128 H 0.80773 0.71323 0.45689 0.0
C1129 C 0.88965 0.75056 0.5104 0.0
C1130 C 0.85077 0.72124 0.51384 0.0
H1131 H 0.92906 0.78979 0.48595 0.0
H1132 H 0.91301 0.76066 0.52501 0.0
C1133 C 0.82159 0.70871 0.4942 0.0
loop_
_geom_bond_atom_site_label_1
_geom_bond_atom_site_label_2
_geom_bond_distance
_geom_bond_site_symmetry_2
_ccdc_geom_bond_type
H0 C7 0.929 . S
H1 C10 0.930 . S
H2 C12 0.929 . S
H3 C4 0.969 . S
C4 H3 0.969 . S
C4 O5 1.550 . S
C4 H6 0.973 . S
O5 C4 1.550 . S
O5 C11 1.412 . S
H6 C4 0.973 . S
C7 H0 0.929 . S
C7 C8 1.400 . S
C7 C9 1.364 . S
C8 C7 1.400 . S
C8 C12 1.377 . S
C9 C7 1.364 . S
C9 C10 1.374 . S
C10 H1 0.930 . S
C10 C9 1.374 . S
C10 C11 1.383 . S
C11 O5 1.412 . S
C11 C10 1.383 . S
C11 C12 1.394 . S
C12 H2 0.929 . S
C12 C8 1.377 . S
C12 C11 1.394 . S
H13 C20 0.929 . S
H14 C23 0.930 . S
H15 C25 0.929 . S
H16 C17 0.969 . S
C17 H16 0.969 . S
C17 O18 1.550 . S
C17 H19 0.973 . S
O18 C17 1.550 . S
O18 C24 1.412 . S
H19 C17 0.973 . S
C20 H13 0.929 . S
C20 C21 1.400 . S
C20 C22 1.364 . S
C21 C20 1.400 . S
C21 C25 1.377 . S
C22 C20 1.364 . S
C22 C23 1.374 . S
C23 H14 0.930 . S
C23 C22 1.374 . S
C23 C24 1.383 . S
C24 O18 1.412 . S
C24 C23 1.383 . S
C24 C25 1.394 . S
C25 H15 0.929 . S
C25 C21 1.377 . S
C25 C24 1.394 . S
H26 C33 0.929 . S
H27 C36 0.930 . S
H28 C38 0.929 . S
H29 C30 0.969 . S
C30 H29 0.969 . S
C30 O31 1.550 . S
C30 H32 0.973 . S
O31 C30 1.550 . S
O31 C37 1.412 . S
H32 C30 0.973 . S
C33 H26 0.929 . S
C33 C34 1.400 . S
C33 C35 1.364 . S
C34 C33 1.400 . S
C34 C38 1.377 . S
C35 C33 1.364 . S
C35 C36 1.374 . S
C36 H27 0.930 . S
C36 C35 1.374 . S
C36 C37 1.383 . S
C37 O31 1.412 . S
C37 C36 1.383 . S
C37 C38 1.394 . S
C38 H28 0.929 . S
C38 C34 1.377 . S
C38 C37 1.394 . S
H39 C46 0.929 . S
H40 C49 0.930 . S
H41 C51 0.929 . S
H42 C43 0.969 . S
C43 H42 0.969 . S
C43 O44 1.550 . S
C43 H45 0.973 . S
O44 C43 1.550 . S
O44 C50 1.412 . S
H45 C43 0.973 . S
C46 H39 0.929 . S
C46 C47 1.400 . S
C46 C48 1.364 . S
C47 C46 1.400 . S
C47 C51 1.377 . S
C48 C46 1.364 . S
C48 C49 1.374 . S
C49 H40 0.930 . S
C49 C48 1.374 . S
C49 C50 1.383 . S
C50 O44 1.412 . S
C50 C49 1.383 . S
C50 C51 1.394 . S
C51 H41 0.929 . S
C51 C47 1.377 . S
C51 C50 1.394 . S
H52 C59 0.929 . S
H53 C62 0.930 . S
H54 C64 0.929 . S
H55 C56 0.969 . S
C56 H55 0.969 . S
C56 O57 1.550 . S
C56 H58 0.973 . S
O57 C56 1.550 . S
O57 C63 1.412 . S
H58 C56 0.973 . S
C59 H52 0.929 . S
C59 C60 1.400 . S
C59 C61 1.364 . S
C60 C59 1.400 . S
C60 C64 1.377 . S
C61 C59 1.364 . S
C61 C62 1.374 . S
C62 H53 0.930 . S
C62 C61 1.374 . S
C62 C63 1.383 . S
C63 O57 1.412 . S
C63 C62 1.383 . S
C63 C64 1.394 . S
C64 H54 0.929 . S
C64 C60 1.377 . S
C64 C63 1.394 . S
H65 C72 0.929 . S
H66 C75 0.930 . S
H67 C77 0.929 . S
H68 C69 0.969 . S
C69 H68 0.969 . S
C69 O70 1.550 . S
C69 H71 0.973 . S
O70 C69 1.550 . S
O70 C76 1.412 . S
H71 C69 0.973 . S
C72 H65 0.929 . S
C72 C73 1.400 . S
C72 C74 1.364 . S
C73 C72 1.400 . S
C73 C77 1.377 . S
C74 C72 1.364 . S
C74 C75 1.374 . S
C75 H66 0.930 . S
C75 C74 1.374 . S
C75 C76 1.383 . S
C76 O70 1.412 . S
C76 C75 1.383 . S
C76 C77 1.394 . S
C77 H67 0.929 . S
C77 C73 1.377 . S
C77 C76 1.394 . S
H78 C85 0.929 . S
H79 C88 0.930 . S
H80 C90 0.929 . S
H81 C82 0.969 . S
C82 H81 0.969 . S
C82 O83 1.550 . S
C82 H84 0.973 . S
O83 C82 1.550 . S
O83 C89 1.412 . S
H84 C82 0.973 . S
C85 H78 0.929 . S
C85 C86 1.400 . S
C85 C87 1.364 . S
C86 C85 1.400 . S
C86 C90 1.377 . S
C87 C85 1.364 . S
C87 C88 1.374 . S
C88 H79 0.930 . S
C88 C87 1.374 . S
C88 C89 1.383 . S
C89 O83 1.412 . S
C89 C88 1.383 . S
C89 C90 1.394 . S
C90 H80 0.929 . S
C90 C86 1.377 . S
C90 C89 1.394 . S
H91 C98 0.929 . S
H92 C101 0.930 . S
H93 C103 0.929 . S
H94 C95 0.969 . S
C95 H94 0.969 . S
C95 O96 1.550 . S
C95 H97 0.973 . S
O96 C95 1.550 . S
O96 C102 1.412 . S
H97 C95 0.973 . S
C98 H91 0.929 . S
C98 C99 1.400 . S
C98 C100 1.364 . S
C99 C98 1.400 . S
C99 C103 1.377 . S
C100 C98 1.364 . S
C100 C101 1.374 . S
C101 H92 0.930 . S
C101 C100 1.374 . S
C101 C102 1.383 . S
C102 O96 1.412 . S
C102 C101 1.383 . S
C102 C103 1.394 . S
C103 H93 0.929 . S
C103 C99 1.377 . S
C103 C102 1.394 . S
H104 C111 0.929 . S
H105 C114 0.930 . S
H106 C116 0.929 . S
H107 C108 0.969 . S
C108 H107 0.969 . S
C108 O109 1.550 . S
C108 H110 0.973 . S
O109 C108 1.550 . S
O109 C115 1.412 . S
H110 C108 0.973 . S
C111 H104 0.929 . S
C111 C112 1.400 . S
C111 C113 1.364 . S
C112 C111 1.400 . S
C112 C116 1.377 . S
C113 C111 1.364 . S
C113 C114 1.374 . S
C114 H105 0.930 . S
C114 C113 1.374 . S
C114 C115 1.383 . S
C115 O109 1.412 . S
C115 C114 1.383 . S
C115 C116 1.394 . S
C116 H106 0.929 . S
C116 C112 1.377 . S
C116 C115 1.394 . S
H117 C124 0.929 . S
H118 C127 0.930 . S
H119 C129 0.929 . S
H120 C121 0.969 . S
C121 H120 0.969 . S
C121 O122 1.550 . S
C121 H123 0.973 . S
O122 C121 1.550 . S
O122 C128 1.412 . S
H123 C121 0.973 . S
C124 H117 0.929 . S
C124 C125 1.400 . S
C124 C126 1.364 . S
C125 C124 1.400 . S
C125 C129 1.377 . S
C126 C124 1.364 . S
C126 C127 1.374 . S
C127 H118 0.930 . S
C127 C126 1.374 . S
C127 C128 1.383 . S
C128 O122 1.412 . S
C128 C127 1.383 . S
C128 C129 1.394 . S
C129 H119 0.929 . S
C129 C125 1.377 . S
C129 C128 1.394 . S
H130 C137 0.929 . S
H131 C140 0.930 . S
H132 C142 0.929 1_554 S
H133 C134 0.969 . S
C134 H133 0.969 . S
C134 O135 1.550 . S
C134 H136 0.973 . S
O135 C134 1.550 . S
O135 C141 1.412 . S
H136 C134 0.973 . S
C137 H130 0.929 . S
C137 C138 1.400 . S
C137 C139 1.364 . S
C138 C137 1.400 . S
C138 C142 1.377 . S
C139 C137 1.364 . S
C139 C140 1.374 . S
C140 H131 0.930 . S
C140 C139 1.374 . S
C140 C141 1.383 . S
C141 O135 1.412 . S
C141 C140 1.383 . S
C141 C142 1.394 . S
C142 H132 0.929 1_556 S
C142 C138 1.377 . S
C142 C141 1.394 . S
H143 C150 0.929 . S
H144 C153 0.930 . S
H145 C155 0.929 . S
H146 C147 0.969 . S
C147 H146 0.969 . S
C147 O148 1.550 . S
C147 H149 0.973 . S
O148 C147 1.550 . S
O148 C154 1.412 . S
H149 C147 0.973 . S
C150 H143 0.929 . S
C150 C151 1.400 . S
C150 C152 1.364 . S
C151 C150 1.400 . S
C151 C155 1.377 . S
C152 C150 1.364 . S
C152 C153 1.374 . S
C153 H144 0.930 . S
C153 C152 1.374 . S
C153 C154 1.383 . S
C154 O148 1.412 . S
C154 C153 1.383 . S
C154 C155 1.394 . S
C155 H145 0.929 . S
C155 C151 1.377 . S
C155 C154 1.394 . S
H156 C163 0.929 . S
H157 C166 0.930 . S
H158 C168 0.929 . S
H159 C160 0.969 . S
C160 H159 0.969 . S
C160 O161 1.550 . S
C160 H162 0.973 . S
O161 C160 1.550 . S
O161 C167 1.412 . S
H162 C160 0.973 . S
C163 H156 0.929 . S
C163 C164 1.400 . S
C163 C165 1.364 . S
C164 C163 1.400 . S
C164 C168 1.377 . S
C165 C163 1.364 . S
C165 C166 1.374 . S
C166 H157 0.930 . S
C166 C165 1.374 . S
C166 C167 1.383 . S
C167 O161 1.412 . S
C167 C166 1.383 . S
C167 C168 1.394 . S
C168 H158 0.929 . S
C168 C164 1.377 . S
C168 C167 1.394 . S
H169 C176 0.929 . S
H170 C179 0.930 . S
H171 C181 0.929 . S
H172 C173 0.969 . S
C173 H172 0.969 . S
C173 O174 1.550 . S
C173 H175 0.973 . S
O174 C173 1.550 . S
O174 C180 1.412 . S
H175 C173 0.973 . S
C176 H169 0.929 . S
C176 C177 1.400 . S
C176 C178 1.364 . S
C177 C176 1.400 . S
C177 C181 1.377 . S
C178 C176 1.364 . S
C178 C179 1.374 . S
C179 H170 0.930 . S
C179 C178 1.374 . S
C179 C180 1.383 . S
C180 O174 1.412 . S
C180 C179 1.383 . S
C180 C181 1.394 . S
C181 H171 0.929 . S
C181 C177 1.377 . S
C181 C180 1.394 . S
H182 C189 0.929 . S
H183 C192 0.930 . S
H184 C194 0.929 . S
H185 C186 0.969 . S
C186 H185 0.969 . S
C186 O187 1.550 . S
C186 H188 0.973 . S
O187 C186 1.550 . S
O187 C193 1.412 . S
H188 C186 0.973 . S
C189 H182 0.929 . S
C189 C190 1.400 . S
C189 C191 1.364 . S
C190 C189 1.400 . S
C190 C194 1.377 . S
C191 C189 1.364 . S
C191 C192 1.374 . S
C192 H183 0.930 . S
C192 C191 1.374 . S
C192 C193 1.383 . S
C193 O187 1.412 . S
C193 C192 1.383 . S
C193 C194 1.394 . S
C194 H184 0.929 . S
C194 C190 1.377 . S
C194 C193 1.394 . S
H195 C202 0.929 . S
H196 C205 0.930 . S
H197 C207 0.929 . S
H198 C199 0.969 . S
C199 H198 0.969 . S
C199 O200 1.550 . S
C199 H201 0.973 . S
O200 C199 1.550 . S
O200 C206 1.412 . S
H201 C199 0.973 . S
C202 H195 0.929 . S
C202 C203 1.400 . S
C202 C204 1.364 . S
C203 C202 1.400 . S
C203 C207 1.377 . S
C204 C202 1.364 . S
C204 C205 1.374 . S
C205 H196 0.930 . S
C205 C204 1.374 . S
C205 C206 1.383 . S
C206 O200 1.412 . S
C206 C205 1.383 . S
C206 C207 1.394 . S
C207 H197 0.929 . S
C207 C203 1.377 . S
C207 C206 1.394 . S
H208 C215 0.929 . S
H209 C218 0.930 . S
H210 C220 0.929 . S
H211 C212 0.969 . S
C212 H211 0.969 . S
C212 O213 1.550 . S
C212 H214 0.973 . S
O213 C212 1.550 . S
O213 C219 1.412 . S
H214 C212 0.973 . S
C215 H208 0.929 . S
C215 C216 1.400 . S
C215 C217 1.364 . S
C216 C215 1.400 . S
C216 C220 1.377 . S
C217 C215 1.364 . S
C217 C218 1.374 . S
C218 H209 0.930 . S
C218 C217 1.374 . S
C218 C219 1.383 . S
C219 O213 1.412 . S
C219 C218 1.383 . S
C219 C220 1.394 . S
C220 H210 0.929 . S
C220 C216 1.377 . S
C220 C219 1.394 . S
H221 C228 0.929 . S
H222 C231 0.930 . S
H223 C233 0.929 . S
H224 C225 0.969 . S
C225 H224 0.969 . S
C225 O226 1.550 . S
C225 H227 0.973 . S
O226 C225 1.550 . S
O226 C232 1.412 . S
H227 C225 0.973 . S
C228 H221 0.929 . S
C228 C229 1.400 . S
C228 C230 1.364 . S
C229 C228 1.400 . S
C229 C233 1.377 . S
C230 C228 1.364 . S
C230 C231 1.374 . S
C231 H222 0.930 . S
C231 C230 1.374 . S
C231 C232 1.383 . S
C232 O226 1.412 . S
C232 C231 1.383 . S
C232 C233 1.394 . S
C233 H223 0.929 . S
C233 C229 1.377 . S
C233 C232 1.394 . S
C234 Eu235 2.835 . S
C234 C236 1.500 1_545 S
C234 O254 1.257 1_545 S
C234 O255 1.260 . S
Eu235 C234 2.835 . S
Eu235 O254 2.473 1_545 S
Eu235 O255 2.480 . S
Eu235 O256 2.430 . S
Eu235 O257 2.670 1_554 S
Eu235 O258 2.394 1_545 S
Eu235 O263 2.355 1_545 S
Eu235 O265 2.374 . S
C236 C234 1.500 1_565 S
C236 C237 1.377 1_565 S
C236 C241 1.377 . S
C237 C236 1.377 1_545 S
C237 C238 1.395 . S
C237 H266 0.931 . S
C238 C237 1.395 . S
C238 C239 1.383 1_545 S
C238 H267 0.931 . S
C239 C238 1.383 1_565 S
C239 C240 1.394 . S
C240 C239 1.394 . S
C240 C241 1.378 . S
C240 H268 0.931 . S
C241 C236 1.377 . S
C241 C240 1.378 . S
C241 H269 0.931 . S
C242 O256 1.259 . S
C242 O257 1.270 1_554 S
C243 O258 1.251 . S
C243 O259 1.251 1_554 S
C244 Eu245 2.835 1_545 S
C244 C246 1.500 . S
C244 O260 1.257 . S
C244 O261 1.260 1_545 S
Eu245 C244 2.835 1_565 S
Eu245 O257 2.355 1_565 S
Eu245 O259 2.374 . S
Eu245 O260 2.473 1_565 S
Eu245 O261 2.480 . S
Eu245 O262 2.430 . S
Eu245 O263 2.670 1_556 S
Eu245 O264 2.394 1_565 S
C246 C244 1.500 . S
C246 C247 1.379 . S
C246 C251 1.377 . S
C247 C246 1.379 . S
C247 C248 1.396 . S
C247 H270 0.928 1_545 S
C248 C247 1.396 . S
C248 C249 1.383 . S
C248 H271 0.931 1_545 S
C249 C248 1.383 . S
C249 C250 1.394 . S
C250 C249 1.394 . S
C250 C251 1.378 . S
C250 H272 0.931 . S
C251 C246 1.377 . S
C251 C250 1.378 . S
C251 H273 0.931 . S
C252 O262 1.259 1_554 S
C252 O263 1.270 . S
C253 O264 1.251 . S
C253 O265 1.251 1_556 S
O254 C234 1.257 1_565 S
O254 Eu235 2.473 1_565 S
O255 C234 1.260 . S
O255 Eu235 2.480 . S
O256 Eu235 2.430 . S
O256 C242 1.259 . S
O257 Eu235 2.670 1_556 S
O257 C242 1.270 1_556 S
O257 Eu245 2.355 1_545 S
O258 Eu235 2.394 1_565 S
O258 C243 1.251 . S
O259 C243 1.251 1_556 S
O259 Eu245 2.374 . S
O260 C244 1.257 . S
O260 Eu245 2.473 1_545 S
O261 C244 1.260 1_565 S
O261 Eu245 2.480 . S
O262 Eu245 2.430 . S
O262 C252 1.259 1_556 S
O263 Eu235 2.355 1_565 S
O263 Eu245 2.670 1_554 S
O263 C252 1.270 . S
O264 Eu245 2.394 1_545 S
O264 C253 1.251 . S
O265 Eu235 2.374 . S
O265 C253 1.251 1_554 S
H266 C237 0.931 . S
H267 C238 0.931 . S
H268 C240 0.931 . S
H269 C241 0.931 . S
H270 C247 0.928 1_565 S
H271 C248 0.931 1_565 S
H272 C250 0.931 . S
H273 C251 0.931 . S
C274 Eu275 2.835 1_455 S
C274 C276 1.500 . S
C274 O294 1.257 . S
C274 O295 1.260 1_455 S
Eu275 C274 2.835 1_655 S
Eu275 O294 2.473 1_655 S
Eu275 O295 2.480 . S
Eu275 O296 2.430 . S
Eu275 O297 2.670 1_554 S
Eu275 O298 2.394 1_655 S
Eu275 O303 2.355 1_655 S
Eu275 O305 2.374 . S
C276 C274 1.500 . S
C276 C277 1.377 . S
C276 C281 1.377 . S
C277 C276 1.377 . S
C277 C278 1.395 . S
C277 H306 0.931 1_455 S
C278 C277 1.395 . S
C278 C279 1.383 . S
C278 H307 0.926 1_455 S
C279 C278 1.383 . S
C279 C280 1.394 . S
C280 C279 1.394 . S
C280 C281 1.378 . S
C280 H308 0.931 . S
C281 C276 1.377 . S
C281 C280 1.378 . S
C281 H309 0.931 . S
C282 O296 1.230 1_556 S
C282 O297 1.284 . S
C283 O298 1.251 . S
C283 O299 1.258 . S
C284 Eu285 2.835 1_655 S
C284 C286 1.500 . S
C284 O300 1.257 . S
C284 O301 1.260 1_655 S
Eu285 C284 2.835 1_455 S
Eu285 O297 2.355 1_455 S
Eu285 O299 2.369 1_556 S
Eu285 O300 2.473 1_455 S
Eu285 O301 2.480 . S
Eu285 O302 2.430 . S
Eu285 O303 2.670 1_556 S
Eu285 O304 2.394 1_455 S
C286 C284 1.500 . S
C286 C287 1.370 1_655 S
C286 C291 1.377 . S
C287 C286 1.370 1_455 S
C287 C288 1.388 1_455 S
C287 H310 0.945 . S
C288 C287 1.388 1_655 S
C288 C289 1.383 . S
C288 H311 0.931 1_655 S
C289 C288 1.383 . S
C289 C290 1.394 . S
C290 C289 1.394 . S
C290 C291 1.378 . S
C290 H312 0.931 . S
C291 C286 1.377 . S
C291 C290 1.378 . S
C291 H313 0.931 . S
C292 O302 1.259 1_554 S
C292 O303 1.270 . S
C293 O304 1.251 . S
C293 O305 1.251 1_556 S
O294 C274 1.257 . S
O294 Eu275 2.473 1_455 S
O295 C274 1.260 1_655 S
O295 Eu275 2.480 . S
O296 Eu275 2.430 . S
O296 C282 1.230 1_554 S
O297 Eu275 2.670 1_556 S
O297 C282 1.284 . S
O297 Eu285 2.355 1_655 S
O298 Eu275 2.394 1_455 S
O298 C283 1.251 . S
O299 C283 1.258 . S
O299 Eu285 2.369 1_554 S
O300 C284 1.257 . S
O300 Eu285 2.473 1_655 S
O301 C284 1.260 1_455 S
O301 Eu285 2.480 . S
O302 Eu285 2.430 . S
O302 C292 1.259 1_556 S
O303 Eu275 2.355 1_455 S
O303 Eu285 2.670 1_554 S
O303 C292 1.270 . S
O304 Eu285 2.394 1_655 S
O304 C293 1.251 . S
O305 Eu275 2.374 . S
O305 C293 1.251 1_554 S
H306 C277 0.931 1_655 S
H307 C278 0.926 1_655 S
H308 C280 0.931 . S
H309 C281 0.931 . S
H310 C287 0.945 . S
H311 C288 0.931 1_455 S
H312 C290 0.931 . S
H313 C291 0.931 . S
C314 Eu315 2.835 . S
C314 C316 1.500 . S
C314 O334 1.257 . S
C314 O335 1.260 . S
Eu315 C314 2.835 . S
Eu315 O334 2.473 . S
Eu315 O335 2.480 . S
Eu315 O336 2.430 . S
Eu315 O337 2.670 1_556 S
Eu315 O338 2.394 . S
Eu315 O343 2.355 . S
Eu315 O345 2.374 1_556 S
C316 C314 1.500 . S
C316 C317 1.377 . S
C316 C321 1.377 . S
C317 C316 1.377 . S
C317 C318 1.395 . S
C317 H346 0.931 . S
C318 C317 1.395 . S
C318 C319 1.383 . S
C318 H347 0.931 . S
C319 C318 1.383 . S
C319 C320 1.394 . S
C320 C319 1.394 . S
C320 C321 1.378 . S
C320 H348 0.931 . S
C321 C316 1.377 . S
C321 C320 1.378 . S
C321 H349 0.931 . S
C322 O336 1.259 1_554 S
C322 O337 1.270 . S
C323 O338 1.251 . S
C323 O339 1.251 1_556 S
C324 Eu325 2.835 . S
C324 C326 1.500 . S
C324 O340 1.257 . S
C324 O341 1.260 . S
Eu325 C324 2.835 . S
Eu325 O337 2.355 . S
Eu325 O339 2.374 . S
Eu325 O340 2.473 . S
Eu325 O341 2.480 . S
Eu325 O342 2.430 . S
Eu325 O343 2.670 1_554 S
Eu325 O344 2.394 . S
C326 C324 1.500 . S
C326 C327 1.377 . S
C326 C331 1.377 . S
C327 C326 1.377 . S
C327 C328 1.395 . S
C327 H350 0.931 . S
C328 C327 1.395 . S
C328 C329 1.383 . S
C328 H351 0.931 . S
C329 C328 1.383 . S
C329 C330 1.394 . S
C330 C329 1.394 . S
C330 C331 1.378 . S
C330 H352 0.931 . S
C331 C326 1.377 . S
C331 C330 1.378 . S
C331 H353 0.931 . S
C332 O342 1.259 . S
C332 O343 1.270 1_554 S
C333 O344 1.251 . S
C333 O345 1.251 . S
O334 C314 1.257 . S
O334 Eu315 2.473 . S
O335 C314 1.260 . S
O335 Eu315 2.480 . S
O336 Eu315 2.430 . S
O336 C322 1.259 1_556 S
O337 Eu315 2.670 1_554 S
O337 C322 1.270 . S
O337 Eu325 2.355 . S
O338 Eu315 2.394 . S
O338 C323 1.251 . S
O339 C323 1.251 1_554 S
O339 Eu325 2.374 . S
O340 C324 1.257 . S
O340 Eu325 2.473 . S
O341 C324 1.260 . S
O341 Eu325 2.480 . S
O342 Eu325 2.430 . S
O342 C332 1.259 . S
O343 Eu315 2.355 . S
O343 Eu325 2.670 1_556 S
O343 C332 1.270 1_556 S
O344 Eu325 2.394 . S
O344 C333 1.251 . S
O345 Eu315 2.374 1_554 S
O345 C333 1.251 . S
H346 C317 0.931 . S
H347 C318 0.931 . S
H348 C320 0.931 . S
H349 C321 0.931 . S
H350 C327 0.931 . S
H351 C328 0.931 . S
H352 C330 0.931 . S
H353 C331 0.931 . S
C354 Eu355 2.835 . S
C354 C356 1.500 . S
C354 O374 1.257 . S
C354 O375 1.260 . S
Eu355 C354 2.835 . S
Eu355 O374 2.473 . S
Eu355 O375 2.480 . S
Eu355 O376 2.430 . S
Eu355 O377 2.670 . S
Eu355 O378 2.394 . S
Eu355 O383 2.355 . S
Eu355 O385 2.374 . S
C356 C354 1.500 . S
C356 C357 1.377 . S
C356 C361 1.377 . S
C357 C356 1.377 . S
C357 C358 1.395 . S
C357 H386 0.931 . S
C358 C357 1.395 . S
C358 C359 1.383 . S
C358 H387 0.931 . S
C359 C358 1.383 . S
C359 C360 1.394 . S
C360 C359 1.394 . S
C360 C361 1.378 . S
C360 H388 0.931 . S
C361 C356 1.377 . S
C361 C360 1.378 . S
C361 H389 0.931 . S
C362 O376 1.259 . S
C362 O377 1.270 . S
C363 O378 1.251 . S
C363 O379 1.251 . S
C364 Eu365 2.835 . S
C364 C366 1.500 . S
C364 O380 1.257 . S
C364 O381 1.260 . S
Eu365 C364 2.835 . S
Eu365 O377 2.355 . S
Eu365 O379 2.374 . S
Eu365 O380 2.473 . S
Eu365 O381 2.480 . S
Eu365 O382 2.430 . S
Eu365 O383 2.670 . S
Eu365 O384 2.394 . S
C366 C364 1.500 . S
C366 C367 1.377 . S
C366 C371 1.377 . S
C367 C366 1.377 . S
C367 C368 1.395 . S
C367 H390 0.931 . S
C368 C367 1.395 . S
C368 C369 1.383 . S
C368 H391 0.931 . S
C369 C368 1.383 . S
C369 C370 1.394 . S
C370 C369 1.394 . S
C370 C371 1.378 . S
C370 H392 0.931 . S
C371 C366 1.377 . S
C371 C370 1.378 . S
C371 H393 0.931 . S
C372 O382 1.259 . S
C372 O383 1.270 . S
C373 O384 1.251 . S
C373 O385 1.251 . S
O374 C354 1.257 . S
O374 Eu355 2.473 . S
O375 C354 1.260 . S
O375 Eu355 2.480 . S
O376 Eu355 2.430 . S
O376 C362 1.259 . S
O377 Eu355 2.670 . S
O377 C362 1.270 . S
O377 Eu365 2.355 . S
O378 Eu355 2.394 . S
O378 C363 1.251 . S
O379 C363 1.251 . S
O379 Eu365 2.374 . S
O380 C364 1.257 . S
O380 Eu365 2.473 . S
O381 C364 1.260 . S
O381 Eu365 2.480 . S
O382 Eu365 2.430 . S
O382 C372 1.259 . S
O383 Eu355 2.355 . S
O383 Eu365 2.670 . S
O383 C372 1.270 . S
O384 Eu365 2.394 . S
O384 C373 1.251 . S
O385 Eu355 2.374 . S
O385 C373 1.251 . S
H386 C357 0.931 . S
H387 C358 0.931 . S
H388 C360 0.931 . S
H389 C361 0.931 . S
H390 C367 0.931 . S
H391 C368 0.931 . S
H392 C370 0.931 . S
H393 C371 0.931 . S
C394 Eu395 2.835 . S
C394 C396 1.500 . S
C394 O414 1.257 . S
C394 O415 1.260 . S
Eu395 C394 2.835 . S
Eu395 O414 2.473 . S
Eu395 O415 2.480 . S
Eu395 O416 2.430 . S
Eu395 O417 2.670 . S
Eu395 O418 2.394 . S
Eu395 O423 2.355 . S
Eu395 O425 2.374 . S
C396 C394 1.500 . S
C396 C397 1.377 . S
C396 C401 1.377 . S
C397 C396 1.377 . S
C397 C398 1.395 . S
C397 H426 0.931 . S
C398 C397 1.395 . S
C398 C399 1.383 . S
C398 H427 0.931 . S
C399 C398 1.383 . S
C399 C400 1.394 . S
C400 C399 1.394 . S
C400 C401 1.378 . S
C400 H428 0.931 . S
C401 C396 1.377 . S
C401 C400 1.378 . S
C401 H429 0.931 . S
C402 O416 1.259 . S
C402 O417 1.270 . S
C403 O418 1.251 . S
C403 O419 1.251 . S
C404 Eu405 2.835 . S
C404 C406 1.500 . S
C404 O420 1.257 . S
C404 O421 1.260 . S
Eu405 C404 2.835 . S
Eu405 O417 2.355 . S
Eu405 O419 2.374 . S
Eu405 O420 2.473 . S
Eu405 O421 2.480 . S
Eu405 O422 2.430 . S
Eu405 O423 2.670 . S
Eu405 O424 2.394 . S
C406 C404 1.500 . S
C406 C407 1.377 . S
C406 C411 1.377 . S
C407 C406 1.377 . S
C407 C408 1.395 . S
C407 H430 0.931 . S
C408 C407 1.395 . S
C408 C409 1.383 . S
C408 H431 0.931 . S
C409 C408 1.383 . S
C409 C410 1.394 . S
C410 C409 1.394 . S
C410 C411 1.378 . S
C410 H432 0.931 . S
C411 C406 1.377 . S
C411 C410 1.378 . S
C411 H433 0.931 . S
C412 O422 1.259 . S
C412 O423 1.270 . S
C413 O424 1.251 . S
C413 O425 1.251 . S
O414 C394 1.257 . S
O414 Eu395 2.473 . S
O415 C394 1.260 . S
O415 Eu395 2.480 . S
O416 Eu395 2.430 . S
O416 C402 1.259 . S
O417 Eu395 2.670 . S
O417 C402 1.270 . S
O417 Eu405 2.355 . S
O418 Eu395 2.394 . S
O418 C403 1.251 . S
O419 C403 1.251 . S
O419 Eu405 2.374 . S
O420 C404 1.257 . S
O420 Eu405 2.473 . S
O421 C404 1.260 . S
O421 Eu405 2.480 . S
O422 Eu405 2.430 . S
O422 C412 1.259 . S
O423 Eu395 2.355 . S
O423 Eu405 2.670 . S
O423 C412 1.270 . S
O424 Eu405 2.394 . S
O424 C413 1.251 . S
O425 Eu395 2.374 . S
O425 C413 1.251 . S
H426 C397 0.931 . S
H427 C398 0.931 . S
H428 C400 0.931 . S
H429 C401 0.931 . S
H430 C407 0.931 . S
H431 C408 0.931 . S
H432 C410 0.931 . S
H433 C411 0.931 . S
C434 Eu435 2.835 . S
C434 C436 1.500 . S
C434 O454 1.257 . S
C434 O455 1.260 . S
Eu435 C434 2.835 . S
Eu435 O454 2.473 . S
Eu435 O455 2.480 . S
Eu435 O456 2.430 . S
Eu435 O457 2.670 . S
Eu435 O458 2.394 . S
Eu435 O463 2.355 . S
Eu435 O465 2.374 . S
C436 C434 1.500 . S
C436 C437 1.377 . S
C436 C441 1.377 . S
C437 C436 1.377 . S
C437 C438 1.395 . S
C437 H466 0.931 . S
C438 C437 1.395 . S
C438 C439 1.383 . S
C438 H467 0.931 . S
C439 C438 1.383 . S
C439 C440 1.394 . S
C440 C439 1.394 . S
C440 C441 1.378 . S
C440 H468 0.931 . S
C441 C436 1.377 . S
C441 C440 1.378 . S
C441 H469 0.931 . S
C442 O456 1.259 . S
C442 O457 1.270 . S
C443 O458 1.251 . S
C443 O459 1.251 . S
C444 Eu445 2.835 . S
C444 C446 1.500 . S
C444 O460 1.257 . S
C444 O461 1.260 . S
Eu445 C444 2.835 . S
Eu445 O457 2.355 . S
Eu445 O459 2.374 . S
Eu445 O460 2.473 . S
Eu445 O461 2.480 . S
Eu445 O462 2.430 . S
Eu445 O463 2.670 . S
Eu445 O464 2.394 . S
C446 C444 1.500 . S
C446 C447 1.377 . S
C446 C451 1.377 . S
C447 C446 1.377 . S
C447 C448 1.395 . S
C447 H470 0.931 . S
C448 C447 1.395 . S
C448 C449 1.383 . S
C448 H471 0.931 . S
C449 C448 1.383 . S
C449 C450 1.394 . S
C450 C449 1.394 . S
C450 C451 1.378 . S
C450 H472 0.931 . S
C451 C446 1.377 . S
C451 C450 1.378 . S
C451 H473 0.931 . S
C452 O462 1.259 . S
C452 O463 1.270 . S
C453 O464 1.251 . S
C453 O465 1.251 . S
O454 C434 1.257 . S
O454 Eu435 2.473 . S
O455 C434 1.260 . S
O455 Eu435 2.480 . S
O456 Eu435 2.430 . S
O456 C442 1.259 . S
O457 Eu435 2.670 . S
O457 C442 1.270 . S
O457 Eu445 2.355 . S
O458 Eu435 2.394 . S
O458 C443 1.251 . S
O459 C443 1.251 . S
O459 Eu445 2.374 . S
O460 C444 1.257 . S
O460 Eu445 2.473 . S
O461 C444 1.260 . S
O461 Eu445 2.480 . S
O462 Eu445 2.430 . S
O462 C452 1.259 . S
O463 Eu435 2.355 . S
O463 Eu445 2.670 . S
O463 C452 1.270 . S
O464 Eu445 2.394 . S
O464 C453 1.251 . S
O465 Eu435 2.374 . S
O465 C453 1.251 . S
H466 C437 0.931 . S
H467 C438 0.931 . S
H468 C440 0.931 . S
H469 C441 0.931 . S
H470 C447 0.931 . S
H471 C448 0.931 . S
H472 C450 0.931 . S
H473 C451 0.931 . S
C474 Eu475 2.835 . S
C474 C476 1.500 . S
C474 O494 1.257 . S
C474 O495 1.260 . S
Eu475 C474 2.835 . S
Eu475 O494 2.473 . S
Eu475 O495 2.480 . S
Eu475 O496 2.430 . S
Eu475 O497 2.670 . S
Eu475 O498 2.394 . S
Eu475 O503 2.355 . S
Eu475 O505 2.374 . S
C476 C474 1.500 . S
C476 C477 1.377 . S
C476 C481 1.377 . S
C477 C476 1.377 . S
C477 C478 1.395 . S
C477 H506 0.931 . S
C478 C477 1.395 . S
C478 C479 1.383 . S
C478 H507 0.931 . S
C479 C478 1.383 . S
C479 C480 1.394 . S
C480 C479 1.394 . S
C480 C481 1.378 . S
C480 H508 0.931 . S
C481 C476 1.377 . S
C481 C480 1.378 . S
C481 H509 0.931 . S
C482 O496 1.259 . S
C482 O497 1.270 . S
C483 O498 1.251 . S
C483 O499 1.251 . S
C484 Eu485 2.835 . S
C484 C486 1.500 . S
C484 O500 1.257 . S
C484 O501 1.260 . S
Eu485 C484 2.835 . S
Eu485 O497 2.355 . S
Eu485 O499 2.374 . S
Eu485 O500 2.473 . S
Eu485 O501 2.480 . S
Eu485 O502 2.430 . S
Eu485 O503 2.670 . S
Eu485 O504 2.394 . S
C486 C484 1.500 . S
C486 C487 1.377 . S
C486 C491 1.377 . S
C487 C486 1.377 . S
C487 C488 1.395 . S
C487 H510 0.931 . S
C488 C487 1.395 . S
C488 C489 1.383 . S
C488 H511 0.931 . S
C489 C488 1.383 . S
C489 C490 1.394 . S
C490 C489 1.394 . S
C490 C491 1.378 . S
C490 H512 0.931 . S
C491 C486 1.377 . S
C491 C490 1.378 . S
C491 H513 0.931 . S
C492 O502 1.259 . S
C492 O503 1.270 . S
C493 O504 1.251 . S
C493 O505 1.251 . S
O494 C474 1.257 . S
O494 Eu475 2.473 . S
O495 C474 1.260 . S
O495 Eu475 2.480 . S
O496 Eu475 2.430 . S
O496 C482 1.259 . S
O497 Eu475 2.670 . S
O497 C482 1.270 . S
O497 Eu485 2.355 . S
O498 Eu475 2.394 . S
O498 C483 1.251 . S
O499 C483 1.251 . S
O499 Eu485 2.374 . S
O500 C484 1.257 . S
O500 Eu485 2.473 . S
O501 C484 1.260 . S
O501 Eu485 2.480 . S
O502 Eu485 2.430 . S
O502 C492 1.259 . S
O503 Eu475 2.355 . S
O503 Eu485 2.670 . S
O503 C492 1.270 . S
O504 Eu485 2.394 . S
O504 C493 1.251 . S
O505 Eu475 2.374 . S
O505 C493 1.251 . S
H506 C477 0.931 . S
H507 C478 0.931 . S
H508 C480 0.931 . S
H509 C481 0.931 . S
H510 C487 0.931 . S
H511 C488 0.931 . S
H512 C490 0.931 . S
H513 C491 0.931 . S
C514 Eu515 2.835 . S
C514 C516 1.500 . S
C514 O534 1.257 . S
C514 O535 1.260 . S
Eu515 C514 2.835 . S
Eu515 O534 2.473 . S
Eu515 O535 2.480 . S
Eu515 O536 2.430 . S
Eu515 O537 2.670 . S
Eu515 O538 2.394 . S
Eu515 O543 2.355 . S
Eu515 O545 2.374 . S
C516 C514 1.500 . S
C516 C517 1.377 . S
C516 C521 1.377 . S
C517 C516 1.377 . S
C517 C518 1.395 . S
C517 H546 0.931 . S
C518 C517 1.395 . S
C518 C519 1.383 . S
C518 H547 0.931 . S
C519 C518 1.383 . S
C519 C520 1.394 . S
C520 C519 1.394 . S
C520 C521 1.378 . S
C520 H548 0.931 . S
C521 C516 1.377 . S
C521 C520 1.378 . S
C521 H549 0.931 . S
C522 O536 1.259 . S
C522 O537 1.270 . S
C523 O538 1.251 . S
C523 O539 1.251 . S
C524 Eu525 2.835 . S
C524 C526 1.500 . S
C524 O540 1.257 . S
C524 O541 1.260 . S
Eu525 C524 2.835 . S
Eu525 O537 2.355 . S
Eu525 O539 2.374 . S
Eu525 O540 2.473 . S
Eu525 O541 2.480 . S
Eu525 O542 2.430 . S
Eu525 O543 2.670 . S
Eu525 O544 2.394 . S
C526 C524 1.500 . S
C526 C527 1.377 . S
C526 C531 1.377 . S
C527 C526 1.377 . S
C527 C528 1.395 . S
C527 H550 0.931 . S
C528 C527 1.395 . S
C528 C529 1.383 . S
C528 H551 0.931 . S
C529 C528 1.383 . S
C529 C530 1.394 . S
C530 C529 1.394 . S
C530 C531 1.378 . S
C530 H552 0.931 . S
C531 C526 1.377 . S
C531 C530 1.378 . S
C531 H553 0.931 . S
C532 O542 1.259 . S
C532 O543 1.270 . S
C533 O544 1.251 . S
C533 O545 1.251 . S
O534 C514 1.257 . S
O534 Eu515 2.473 . S
O535 C514 1.260 . S
O535 Eu515 2.480 . S
O536 Eu515 2.430 . S
O536 C522 1.259 . S
O537 Eu515 2.670 . S
O537 C522 1.270 . S
O537 Eu525 2.355 . S
O538 Eu515 2.394 . S
O538 C523 1.251 . S
O539 C523 1.251 . S
O539 Eu525 2.374 . S
O540 C524 1.257 . S
O540 Eu525 2.473 . S
O541 C524 1.260 . S
O541 Eu525 2.480 . S
O542 Eu525 2.430 . S
O542 C532 1.259 . S
O543 Eu515 2.355 . S
O543 Eu525 2.670 . S
O543 C532 1.270 . S
O544 Eu525 2.394 . S
O544 C533 1.251 . S
O545 Eu515 2.374 . S
O545 C533 1.251 . S
H546 C517 0.931 . S
H547 C518 0.931 . S
H548 C520 0.931 . S
H549 C521 0.931 . S
H550 C527 0.931 . S
H551 C528 0.931 . S
H552 C530 0.931 . S
H553 C531 0.931 . S
C554 Eu555 2.835 . S
C554 C556 1.500 . S
C554 O574 1.257 . S
C554 O575 1.260 . S
Eu555 C554 2.835 . S
Eu555 O574 2.473 . S
Eu555 O575 2.480 . S
Eu555 O576 2.430 . S
Eu555 O577 2.670 . S
Eu555 O578 2.394 . S
Eu555 O583 2.355 . S
Eu555 O585 2.374 . S
C556 C554 1.500 . S
C556 C557 1.377 . S
C556 C561 1.377 . S
C557 C556 1.377 . S
C557 C558 1.395 . S
C557 H586 0.931 . S
C558 C557 1.395 . S
C558 C559 1.383 . S
C558 H587 0.931 . S
C559 C558 1.383 . S
C559 C560 1.394 . S
C560 C559 1.394 . S
C560 C561 1.378 . S
C560 H588 0.931 . S
C561 C556 1.377 . S
C561 C560 1.378 . S
C561 H589 0.931 . S
C562 O576 1.259 . S
C562 O577 1.270 . S
C563 O578 1.251 . S
C563 O579 1.251 . S
C564 Eu565 2.835 . S
C564 C566 1.500 . S
C564 O580 1.257 . S
C564 O581 1.260 . S
Eu565 C564 2.835 . S
Eu565 O577 2.355 . S
Eu565 O579 2.374 . S
Eu565 O580 2.473 . S
Eu565 O581 2.480 . S
Eu565 O582 2.430 . S
Eu565 O583 2.670 . S
Eu565 O584 2.394 . S
C566 C564 1.500 . S
C566 C567 1.377 . S
C566 C571 1.377 . S
C567 C566 1.377 . S
C567 C568 1.395 . S
C567 H590 0.931 . S
C568 C567 1.395 . S
C568 C569 1.383 . S
C568 H591 0.931 . S
C569 C568 1.383 . S
C569 C570 1.394 . S
C570 C569 1.394 . S
C570 C571 1.378 . S
C570 H592 0.931 . S
C571 C566 1.377 . S
C571 C570 1.378 . S
C571 H593 0.931 . S
C572 O582 1.259 . S
C572 O583 1.270 . S
C573 O584 1.251 . S
C573 O585 1.251 . S
O574 C554 1.257 . S
O574 Eu555 2.473 . S
O575 C554 1.260 . S
O575 Eu555 2.480 . S
O576 Eu555 2.430 . S
O576 C562 1.259 . S
O577 Eu555 2.670 . S
O577 C562 1.270 . S
O577 Eu565 2.355 . S
O578 Eu555 2.394 . S
O578 C563 1.251 . S
O579 C563 1.251 . S
O579 Eu565 2.374 . S
O580 C564 1.257 . S
O580 Eu565 2.473 . S
O581 C564 1.260 . S
O581 Eu565 2.480 . S
O582 Eu565 2.430 . S
O582 C572 1.259 . S
O583 Eu555 2.355 . S
O583 Eu565 2.670 . S
O583 C572 1.270 . S
O584 Eu565 2.394 . S
O584 C573 1.251 . S
O585 Eu555 2.374 . S
O585 C573 1.251 . S
H586 C557 0.931 . S
H587 C558 0.931 . S
H588 C560 0.931 . S
H589 C561 0.931 . S
H590 C567 0.931 . S
H591 C568 0.931 . S
H592 C570 0.931 . S
H593 C571 0.931 . S
C594 C595 1.387 . S
C594 H598 0.969 . S
C594 C603 1.390 . S
C595 C594 1.387 . S
C595 C597 1.387 . S
H596 C603 0.950 1_556 S
C597 C595 1.387 . S
C597 C599 1.390 . S
C597 H601 0.950 . S
H598 C594 0.969 . S
C599 C597 1.390 . S
C599 C600 1.387 . S
C599 H602 0.950 . S
C600 C599 1.387 . S
C600 C603 1.387 . S
H601 C597 0.950 . S
H602 C599 0.950 . S
C603 C594 1.390 . S
C603 H596 0.950 1_554 S
C603 C600 1.387 . S
C604 C605 1.387 . S
C604 H608 0.950 . S
C604 C613 1.390 . S
C605 C604 1.387 . S
C605 C607 1.387 . S
H606 C613 0.950 . S
C607 C605 1.387 . S
C607 C609 1.390 . S
C607 H611 0.950 . S
H608 C604 0.950 . S
C609 C607 1.390 . S
C609 C610 1.387 . S
C609 H612 0.950 . S
C610 C609 1.387 . S
C610 C613 1.387 . S
H611 C607 0.950 . S
H612 C609 0.950 . S
C613 C604 1.390 . S
C613 H606 0.950 . S
C613 C610 1.387 . S
C614 C615 1.387 . S
C614 H618 0.950 . S
C614 C623 1.390 . S
C615 C614 1.387 . S
C615 C617 1.387 . S
H616 C623 0.950 . S
C617 C615 1.387 . S
C617 C619 1.390 . S
C617 H621 0.950 1_554 S
H618 C614 0.950 . S
C619 C617 1.390 . S
C619 C620 1.387 . S
C619 H622 0.950 1_554 S
C620 C619 1.387 . S
C620 C623 1.387 . S
H621 C617 0.950 1_556 S
H622 C619 0.950 1_556 S
C623 C614 1.390 . S
C623 H616 0.950 . S
C623 C620 1.387 . S
C624 C625 1.387 . S
C624 H628 0.950 . S
C624 C633 1.390 . S
C625 C624 1.387 . S
C625 C627 1.387 . S
H626 C633 0.950 . S
C627 C625 1.387 . S
C627 C629 1.390 . S
C627 H631 0.950 . S
H628 C624 0.950 . S
C629 C627 1.390 . S
C629 C630 1.387 . S
C629 H632 0.950 . S
C630 C629 1.387 . S
C630 C633 1.387 . S
H631 C627 0.950 . S
H632 C629 0.950 . S
C633 C624 1.390 . S
C633 H626 0.950 . S
C633 C630 1.387 . S
C634 C635 1.387 . S
C634 H638 0.950 . S
C634 C643 1.390 . S
C635 C634 1.387 . S
C635 C637 1.387 . S
H636 C643 0.950 . S
C637 C635 1.387 . S
C637 C639 1.390 . S
C637 H641 0.950 . S
H638 C634 0.950 . S
C639 C637 1.390 . S
C639 C640 1.387 . S
C639 H642 0.950 . S
C640 C639 1.387 . S
C640 C643 1.387 . S
H641 C637 0.950 . S
H642 C639 0.950 . S
C643 C634 1.390 . S
C643 H636 0.950 . S
C643 C640 1.387 . S
C644 C645 1.387 1_554 S
C644 H648 0.950 . S
C644 C653 1.390 . S
C645 C644 1.387 1_556 S
C645 C647 1.387 . S
H646 C653 0.950 . S
C647 C645 1.387 . S
C647 C649 1.390 . S
C647 H651 0.950 . S
H648 C644 0.950 . S
C649 C647 1.390 . S
C649 C650 1.387 . S
C649 H652 0.950 . S
C650 C649 1.387 . S
C650 C653 1.387 1_556 S
H651 C647 0.950 . S
H652 C649 0.950 . S
C653 C644 1.390 . S
C653 H646 0.950 . S
C653 C650 1.387 1_554 S
C654 C655 1.426 . S
C654 H658 0.923 1_556 S
C654 C663 1.380 1_556 S
C655 C654 1.426 . S
C655 C657 1.387 . S
H656 C663 0.950 . S
C657 C655 1.387 . S
C657 C659 1.390 . S
C657 H661 0.950 . S
H658 C654 0.923 1_554 S
C659 C657 1.390 . S
C659 C660 1.387 . S
C659 H662 0.950 . S
C660 C659 1.387 . S
C660 C663 1.387 1_556 S
H661 C657 0.950 . S
H662 C659 0.950 . S
C663 C654 1.380 1_554 S
C663 H656 0.950 . S
C663 C660 1.387 1_554 S
C664 C665 1.387 . S
C664 H668 0.950 . S
C664 C673 1.390 . S
C665 C664 1.387 . S
C665 C667 1.387 . S
H666 C673 0.950 . S
C667 C665 1.387 . S
C667 C669 1.390 . S
C667 H671 0.950 1_556 S
H668 C664 0.950 . S
C669 C667 1.390 . S
C669 C670 1.387 . S
C669 H672 0.950 1_556 S
C670 C669 1.387 . S
C670 C673 1.387 . S
H671 C667 0.950 1_554 S
H672 C669 0.950 1_554 S
C673 C664 1.390 . S
C673 H666 0.950 . S
C673 C670 1.387 . S
C674 C675 1.387 1_554 S
C674 H678 0.950 . S
C674 C683 1.390 . S
C675 C674 1.387 1_556 S
C675 C677 1.387 . S
H676 C683 0.950 . S
C677 C675 1.387 . S
C677 C679 1.390 . S
C677 H681 0.950 . S
H678 C674 0.950 . S
C679 C677 1.390 . S
C679 C680 1.387 . S
C679 H682 0.950 . S
C680 C679 1.387 . S
C680 C683 1.387 1_556 S
H681 C677 0.950 . S
H682 C679 0.950 . S
C683 C674 1.390 . S
C683 H676 0.950 . S
C683 C680 1.387 1_554 S
C684 C685 1.387 . S
C684 H688 0.950 . S
C684 C693 1.390 . S
C685 C684 1.387 . S
C685 C687 1.387 . S
H686 C693 0.950 . S
C687 C685 1.387 . S
C687 C689 1.390 . S
C687 H691 0.950 . S
H688 C684 0.950 . S
C689 C687 1.390 . S
C689 C690 1.387 . S
C689 H692 0.950 . S
C690 C689 1.387 . S
C690 C693 1.387 . S
H691 C687 0.950 . S
H692 C689 0.950 . S
C693 C684 1.390 . S
C693 H686 0.950 . S
C693 C690 1.387 . S
C694 C695 1.387 . S
C694 H698 0.950 . S
C694 C703 1.390 . S
C695 C694 1.387 . S
C695 C697 1.387 . S
H696 C703 0.990 . S
C697 C695 1.387 . S
C697 C699 1.390 . S
C697 H701 0.950 . S
H698 C694 0.950 . S
C699 C697 1.390 . S
C699 C700 1.387 . S
C699 H702 0.950 . S
C700 C699 1.387 . S
C700 C703 1.387 . S
H701 C697 0.950 . S
H702 C699 0.950 . S
C703 C694 1.390 . S
C703 H696 0.990 . S
C703 C700 1.387 . S
C704 C705 1.387 . S
C704 H708 0.950 . S
C704 C713 1.390 . S
C705 C704 1.387 . S
C705 C707 1.387 1_554 S
H706 C713 0.950 . S
C707 C705 1.387 1_556 S
C707 C709 1.390 . S
C707 H711 0.950 . S
H708 C704 0.950 . S
C709 C707 1.390 . S
C709 C710 1.387 1_556 S
C709 H712 0.950 . S
C710 C709 1.387 1_554 S
C710 C713 1.387 . S
H711 C707 0.950 . S
H712 C709 0.950 . S
C713 C704 1.390 . S
C713 H706 0.950 . S
C713 C710 1.387 . S
C714 C715 1.387 . S
C714 H718 0.950 . S
C714 C723 1.390 . S
C715 C714 1.387 . S
C715 C717 1.387 . S
H716 C723 0.950 1_455 S
C717 C715 1.387 . S
C717 C719 1.390 1_655 S
C717 H721 0.950 . S
H718 C714 0.950 . S
C719 C717 1.390 1_455 S
C719 C720 1.387 . S
C719 H722 0.950 . S
C720 C719 1.387 . S
C720 C723 1.387 1_455 S
H721 C717 0.950 . S
H722 C719 0.950 . S
C723 C714 1.390 . S
C723 H716 0.950 1_655 S
C723 C720 1.387 1_655 S
C724 C725 1.387 . S
C724 H728 0.950 . S
C724 C733 1.390 . S
C725 C724 1.387 . S
C725 C727 1.387 . S
H726 C733 0.950 . S
C727 C725 1.387 . S
C727 C729 1.390 . S
C727 H731 0.950 . S
H728 C724 0.950 . S
C729 C727 1.390 . S
C729 C730 1.387 . S
C729 H732 0.950 . S
C730 C729 1.387 . S
C730 C733 1.387 . S
H731 C727 0.950 . S
H732 C729 0.950 . S
C733 C724 1.390 . S
C733 H726 0.950 . S
C733 C730 1.387 . S
C734 C735 1.387 . S
C734 H738 0.950 . S
C734 C743 1.390 . S
C735 C734 1.387 . S
C735 C737 1.387 . S
H736 C743 0.950 1_565 S
C737 C735 1.387 . S
C737 C739 1.390 . S
C737 H741 0.950 . S
H738 C734 0.950 . S
C739 C737 1.390 . S
C739 C740 1.387 1_545 S
C739 H742 0.950 1_545 S
C740 C739 1.387 1_565 S
C740 C743 1.387 1_565 S
H741 C737 0.950 . S
H742 C739 0.950 1_565 S
C743 C734 1.390 . S
C743 H736 0.950 1_545 S
C743 C740 1.387 1_545 S
C744 C745 1.387 . S
C744 H748 0.950 . S
C744 C753 1.390 . S
C745 C744 1.387 . S
C745 C747 1.387 . S
H746 C753 0.950 . S
C747 C745 1.387 . S
C747 C749 1.390 . S
C747 H751 0.950 . S
H748 C744 0.950 . S
C749 C747 1.390 . S
C749 C750 1.387 . S
C749 H752 0.950 . S
C750 C749 1.387 . S
C750 C753 1.387 . S
H751 C747 0.950 . S
H752 C749 0.950 . S
C753 C744 1.390 . S
C753 H746 0.950 . S
C753 C750 1.387 . S
C754 C755 1.387 . S
C754 H758 0.950 . S
C754 C763 1.390 . S
C755 C754 1.387 . S
C755 C757 1.387 . S
H756 C763 0.950 . S
C757 C755 1.387 . S
C757 C759 1.390 . S
C757 H761 0.950 . S
H758 C754 0.950 . S
C759 C757 1.390 . S
C759 C760 1.387 . S
C759 H762 0.950 . S
C760 C759 1.387 . S
C760 C763 1.387 . S
H761 C757 0.950 . S
H762 C759 0.950 . S
C763 C754 1.390 . S
C763 H756 0.950 . S
C763 C760 1.387 . S
C764 C765 1.387 . S
C764 H768 0.950 . S
C764 C773 1.390 . S
C765 C764 1.387 . S
C765 C767 1.387 . S
H766 C773 0.950 . S
C767 C765 1.387 . S
C767 C769 1.390 . S
C767 H771 0.950 . S
H768 C764 0.950 . S
C769 C767 1.390 . S
C769 C770 1.387 . S
C769 H772 0.950 . S
C770 C769 1.387 . S
C770 C773 1.387 . S
H771 C767 0.950 . S
H772 C769 0.950 . S
C773 C764 1.390 . S
C773 H766 0.950 . S
C773 C770 1.387 . S
C774 C775 1.387 . S
C774 H778 0.950 . S
C774 C783 1.390 . S
C775 C774 1.387 . S
C775 C777 1.387 . S
H776 C783 0.950 . S
C777 C775 1.387 . S
C777 C779 1.390 . S
C777 H781 0.950 . S
H778 C774 0.950 . S
C779 C777 1.390 . S
C779 C780 1.387 . S
C779 H782 0.950 . S
C780 C779 1.387 . S
C780 C783 1.387 . S
H781 C777 0.950 . S
H782 C779 0.950 . S
C783 C774 1.390 . S
C783 H776 0.950 . S
C783 C780 1.387 . S
C784 C785 1.387 . S
C784 H788 0.950 . S
C784 C793 1.390 . S
C785 C784 1.387 . S
C785 C787 1.387 . S
H786 C793 0.950 . S
C787 C785 1.387 . S
C787 C789 1.390 . S
C787 H791 0.950 . S
H788 C784 0.950 . S
C789 C787 1.390 . S
C789 C790 1.387 . S
C789 H792 0.950 . S
C790 C789 1.387 . S
C790 C793 1.387 . S
H791 C787 0.950 . S
H792 C789 0.950 . S
C793 C784 1.390 . S
C793 H786 0.950 . S
C793 C790 1.387 . S
C794 C795 1.387 . S
C794 H798 0.950 . S
C794 C803 1.390 . S
C795 C794 1.387 . S
C795 C797 1.387 . S
H796 C803 0.950 . S
C797 C795 1.387 . S
C797 C799 1.390 . S
C797 H801 0.950 . S
H798 C794 0.950 . S
C799 C797 1.390 . S
C799 C800 1.387 . S
C799 H802 0.950 . S
C800 C799 1.387 . S
C800 C803 1.387 . S
H801 C797 0.950 . S
H802 C799 0.950 . S
C803 C794 1.390 . S
C803 H796 0.950 . S
C803 C800 1.387 . S
C804 C805 1.387 1_565 S
C804 H808 0.950 . S
C804 C813 1.390 . S
C805 C804 1.387 1_545 S
C805 C807 1.387 1_545 S
H806 C813 0.950 . S
C807 C805 1.387 1_565 S
C807 C809 1.390 . S
C807 H811 0.950 . S
H808 C804 0.950 . S
C809 C807 1.390 . S
C809 C810 1.387 . S
C809 H812 0.950 . S
C810 C809 1.387 . S
C810 C813 1.387 . S
H811 C807 0.950 . S
H812 C809 0.950 . S
C813 C804 1.390 . S
C813 H806 0.950 . S
C813 C810 1.387 . S
C814 C815 1.387 . S
C814 H818 0.950 . S
C814 C823 1.390 . S
C815 C814 1.387 . S
C815 C817 1.387 . S
H816 C823 0.950 . S
C817 C815 1.387 . S
C817 C819 1.390 . S
C817 H821 0.950 . S
H818 C814 0.950 . S
C819 C817 1.390 . S
C819 C820 1.387 . S
C819 H822 0.950 . S
C820 C819 1.387 . S
C820 C823 1.387 . S
H821 C817 0.950 . S
H822 C819 0.950 . S
C823 C814 1.390 . S
C823 H816 0.950 . S
C823 C820 1.387 . S
C824 C825 1.387 . S
C824 H828 0.950 . S
C824 C833 1.390 . S
C825 C824 1.387 . S
C825 C827 1.387 . S
H826 C833 0.950 . S
C827 C825 1.387 . S
C827 C829 1.390 . S
C827 H831 0.950 . S
H828 C824 0.950 . S
C829 C827 1.390 . S
C829 C830 1.387 . S
C829 H832 0.950 . S
C830 C829 1.387 . S
C830 C833 1.387 . S
H831 C827 0.950 . S
H832 C829 0.950 . S
C833 C824 1.390 . S
C833 H826 0.950 . S
C833 C830 1.387 . S
C834 C835 1.387 . S
C834 H838 0.950 . S
C834 C843 1.390 . S
C835 C834 1.387 . S
C835 C837 1.387 . S
H836 C843 0.950 . S
C837 C835 1.387 . S
C837 C839 1.390 . S
C837 H841 0.950 . S
H838 C834 0.950 . S
C839 C837 1.390 . S
C839 C840 1.387 . S
C839 H842 0.950 . S
C840 C839 1.387 . S
C840 C843 1.387 . S
H841 C837 0.950 . S
H842 C839 0.950 . S
C843 C834 1.390 . S
C843 H836 0.950 . S
C843 C840 1.387 . S
C844 C845 1.387 . S
C844 H848 0.950 . S
C844 C853 1.390 . S
C845 C844 1.387 . S
C845 C847 1.387 . S
H846 C853 0.950 . S
C847 C845 1.387 . S
C847 C849 1.390 . S
C847 H851 0.950 . S
H848 C844 0.950 . S
C849 C847 1.390 . S
C849 C850 1.387 . S
C849 H852 0.950 . S
C850 C849 1.387 . S
C850 C853 1.387 . S
H851 C847 0.950 . S
H852 C849 0.950 . S
C853 C844 1.390 . S
C853 H846 0.950 . S
C853 C850 1.387 . S
C854 C855 1.387 . S
C854 H858 0.950 . S
C854 C863 1.390 . S
C855 C854 1.387 . S
C855 C857 1.387 . S
H856 C863 0.950 . S
C857 C855 1.387 . S
C857 C859 1.390 . S
C857 H861 0.950 . S
H858 C854 0.950 . S
C859 C857 1.390 . S
C859 C860 1.387 . S
C859 H862 0.950 . S
C860 C859 1.387 . S
C860 C863 1.387 . S
H861 C857 0.950 . S
H862 C859 0.950 . S
C863 C854 1.390 . S
C863 H856 0.950 . S
C863 C860 1.387 . S
C864 C865 1.387 . S
C864 H868 0.950 . S
C864 C873 1.390 1_565 S
C865 C864 1.387 . S
C865 C867 1.387 . S
H866 C873 0.950 . S
C867 C865 1.387 . S
C867 C869 1.390 1_565 S
C867 H871 0.950 . S
H868 C864 0.950 . S
C869 C867 1.390 1_545 S
C869 C870 1.387 . S
C869 H872 0.950 . S
C870 C869 1.387 . S
C870 C873 1.387 . S
H871 C867 0.950 . S
H872 C869 0.950 . S
C873 C864 1.390 1_545 S
C873 H866 0.950 . S
C873 C870 1.387 . S
C874 C875 1.387 . S
C874 H878 0.950 . S
C874 C883 1.390 . S
C875 C874 1.387 . S
C875 C877 1.387 . S
H876 C883 0.950 . S
C877 C875 1.387 . S
C877 C879 1.390 1_455 S
C877 H881 0.950 . S
H878 C874 0.950 . S
C879 C877 1.390 1_655 S
C879 C880 1.387 . S
C879 H882 0.950 . S
C880 C879 1.387 . S
C880 C883 1.387 1_655 S
H881 C877 0.950 . S
H882 C879 0.950 . S
C883 C874 1.390 . S
C883 H876 0.950 . S
C883 C880 1.387 1_455 S
C884 C885 1.387 . S
C884 H888 0.950 . S
C884 C893 1.390 . S
C885 C884 1.387 . S
C885 C887 1.387 . S
H886 C893 0.950 . S
C887 C885 1.387 . S
C887 C889 1.390 . S
C887 H891 0.950 . S
H888 C884 0.950 . S
C889 C887 1.390 . S
C889 C890 1.387 . S
C889 H892 0.950 . S
C890 C889 1.387 . S
C890 C893 1.387 . S
H891 C887 0.950 . S
H892 C889 0.950 . S
C893 C884 1.390 . S
C893 H886 0.950 . S
C893 C890 1.387 . S
C894 C895 1.412 . S
C894 H898 0.950 . S
C894 C903 1.390 . S
C895 C894 1.412 . S
C895 C897 1.390 . S
H896 C903 0.950 . S
C897 C895 1.390 . S
C897 C899 1.390 . S
C897 H901 0.950 . S
H898 C894 0.950 . S
C899 C897 1.390 . S
C899 C900 1.387 . S
C899 H902 0.950 . S
C900 C899 1.387 . S
C900 C903 1.387 . S
H901 C897 0.950 . S
H902 C899 0.950 . S
C903 C894 1.390 . S
C903 H896 0.950 . S
C903 C900 1.387 . S
C904 C905 1.387 . S
C904 H908 0.950 . S
C904 C913 1.390 . S
C905 C904 1.387 . S
C905 C907 1.387 . S
H906 C913 0.950 . S
C907 C905 1.387 . S
C907 C909 1.390 . S
C907 H911 0.950 . S
H908 C904 0.950 . S
C909 C907 1.390 . S
C909 C910 1.387 . S
C909 H912 0.950 . S
C910 C909 1.387 . S
C910 C913 1.387 . S
H911 C907 0.950 . S
H912 C909 0.950 . S
C913 C904 1.390 . S
C913 H906 0.950 . S
C913 C910 1.387 . S
C914 C915 1.387 . S
C914 H918 0.950 . S
C914 C923 1.390 . S
C915 C914 1.387 . S
C915 C917 1.387 . S
H916 C923 0.950 . S
C917 C915 1.387 . S
C917 C919 1.390 . S
C917 H921 0.950 . S
H918 C914 0.950 . S
C919 C917 1.390 . S
C919 C920 1.387 . S
C919 H922 0.950 . S
C920 C919 1.387 . S
C920 C923 1.387 . S
H921 C917 0.950 . S
H922 C919 0.950 . S
C923 C914 1.390 . S
C923 H916 0.950 . S
C923 C920 1.387 . S
C924 C925 1.387 . S
C924 H928 0.950 . S
C924 C933 1.390 . S
C925 C924 1.387 . S
C925 C927 1.387 . S
H926 C933 0.950 . S
C927 C925 1.387 . S
C927 C929 1.390 . S
C927 H931 0.950 . S
H928 C924 0.950 . S
C929 C927 1.390 . S
C929 C930 1.387 . S
C929 H932 0.950 . S
C930 C929 1.387 . S
C930 C933 1.387 . S
H931 C927 0.950 . S
H932 C929 0.950 . S
C933 C924 1.390 . S
C933 H926 0.950 . S
C933 C930 1.387 . S
C934 C935 1.387 . S
C934 H938 0.950 . S
C934 C943 1.390 . S
C935 C934 1.387 . S
C935 C937 1.387 . S
H936 C943 0.950 . S
C937 C935 1.387 . S
C937 C939 1.390 . S
C937 H941 0.950 . S
H938 C934 0.950 . S
C939 C937 1.390 . S
C939 C940 1.387 . S
C939 H942 0.950 . S
C940 C939 1.387 . S
C940 C943 1.387 . S
H941 C937 0.950 . S
H942 C939 0.950 . S
C943 C934 1.390 . S
C943 H936 0.950 . S
C943 C940 1.387 . S
C944 C945 1.387 . S
C944 H948 0.950 . S
C944 C953 1.390 . S
C945 C944 1.387 . S
C945 C947 1.387 . S
H946 C953 0.950 . S
C947 C945 1.387 . S
C947 C949 1.390 . S
C947 H951 0.950 . S
H948 C944 0.950 . S
C949 C947 1.390 . S
C949 C950 1.387 . S
C949 H952 0.950 . S
C950 C949 1.387 . S
C950 C953 1.387 . S
H951 C947 0.950 . S
H952 C949 0.950 . S
C953 C944 1.390 . S
C953 H946 0.950 . S
C953 C950 1.387 . S
C954 C955 1.387 . S
C954 H958 0.950 . S
C954 C963 1.390 . S
C955 C954 1.387 . S
C955 C957 1.387 . S
H956 C963 0.950 . S
C957 C955 1.387 . S
C957 C959 1.390 . S
C957 H961 0.950 . S
H958 C954 0.950 . S
C959 C957 1.390 . S
C959 C960 1.387 . S
C959 H962 0.950 1_565 S
C960 C959 1.387 . S
C960 C963 1.387 . S
H961 C957 0.950 . S
H962 C959 0.950 1_545 S
C963 C954 1.390 . S
C963 H956 0.950 . S
C963 C960 1.387 . S
C964 C965 1.387 . S
C964 H968 0.950 . S
C964 C973 1.390 . S
C965 C964 1.387 . S
C965 C967 1.387 . S
H966 C973 0.950 . S
C967 C965 1.387 . S
C967 C969 1.390 . S
C967 H971 0.950 . S
H968 C964 0.950 . S
C969 C967 1.390 . S
C969 C970 1.387 . S
C969 H972 0.950 . S
C970 C969 1.387 . S
C970 C973 1.387 . S
H971 C967 0.950 . S
H972 C969 0.950 . S
C973 C964 1.390 . S
C973 H966 0.950 . S
C973 C970 1.387 . S
C974 C975 1.387 . S
C974 H978 0.950 . S
C974 C983 1.390 . S
C975 C974 1.387 . S
C975 C977 1.387 . S
H976 C983 0.950 . S
C977 C975 1.387 . S
C977 C979 1.390 . S
C977 H981 0.950 . S
H978 C974 0.950 . S
C979 C977 1.390 . S
C979 C980 1.387 . S
C979 H982 0.950 . S
C980 C979 1.387 . S
C980 C983 1.387 . S
H981 C977 0.950 . S
H982 C979 0.950 . S
C983 C974 1.390 . S
C983 H976 0.950 . S
C983 C980 1.387 . S
C984 C985 1.387 . S
C984 H988 0.950 . S
C984 C993 1.390 . S
C985 C984 1.387 . S
C985 C987 1.387 . S
H986 C993 0.950 . S
C987 C985 1.387 . S
C987 C989 1.390 . S
C987 H991 0.950 1_655 S
H988 C984 0.950 . S
C989 C987 1.390 . S
C989 C990 1.387 . S
C989 H992 0.950 1_655 S
C990 C989 1.387 . S
C990 C993 1.387 . S
H991 C987 0.950 1_455 S
H992 C989 0.950 1_455 S
C993 C984 1.390 . S
C993 H986 0.950 . S
C993 C990 1.387 . S
C994 C995 1.387 . S
C994 H998 0.950 . S
C994 C1003 1.390 . S
C995 C994 1.387 . S
C995 C997 1.387 . S
H996 C1003 0.950 . S
C997 C995 1.387 . S
C997 C999 1.390 . S
C997 H1001 0.950 . S
H998 C994 0.950 . S
C999 C997 1.390 . S
C999 C1000 1.387 . S
C999 H1002 0.950 . S
C1000 C999 1.387 . S
C1000 C1003 1.387 . S
H1001 C997 0.950 . S
H1002 C999 0.950 . S
C1003 C994 1.390 . S
C1003 H996 0.950 . S
C1003 C1000 1.387 . S
C1004 C1005 1.387 . S
C1004 H1008 0.950 . S
C1004 C1013 1.390 . S
C1005 C1004 1.387 . S
C1005 C1007 1.387 . S
H1006 C1013 0.950 . S
C1007 C1005 1.387 . S
C1007 C1009 1.390 . S
C1007 H1011 0.950 . S
H1008 C1004 0.950 . S
C1009 C1007 1.390 . S
C1009 C1010 1.387 . S
C1009 H1012 0.950 . S
C1010 C1009 1.387 . S
C1010 C1013 1.387 . S
H1011 C1007 0.950 . S
H1012 C1009 0.950 . S
C1013 C1004 1.390 . S
C1013 H1006 0.950 . S
C1013 C1010 1.387 . S
C1014 C1015 1.387 . S
C1014 H1018 0.950 . S
C1014 C1023 1.390 . S
C1015 C1014 1.387 . S
C1015 C1017 1.387 . S
H1016 C1023 0.950 . S
C1017 C1015 1.387 . S
C1017 C1019 1.390 . S
C1017 H1021 0.950 . S
H1018 C1014 0.950 . S
C1019 C1017 1.390 . S
C1019 C1020 1.387 . S
C1019 H1022 0.950 . S
C1020 C1019 1.387 . S
C1020 C1023 1.387 . S
H1021 C1017 0.950 . S
H1022 C1019 0.950 . S
C1023 C1014 1.390 . S
C1023 H1016 0.950 . S
C1023 C1020 1.387 . S
C1024 C1025 1.387 . S
C1024 H1028 0.950 . S
C1024 C1033 1.390 . S
C1025 C1024 1.387 . S
C1025 C1027 1.387 . S
H1026 C1033 0.950 . S
C1027 C1025 1.387 . S
C1027 C1029 1.390 . S
C1027 H1031 0.950 . S
H1028 C1024 0.950 . S
C1029 C1027 1.390 . S
C1029 C1030 1.387 . S
C1029 H1032 0.950 . S
C1030 C1029 1.387 . S
C1030 C1033 1.387 . S
H1031 C1027 0.950 . S
H1032 C1029 0.950 . S
C1033 C1024 1.390 . S
C1033 H1026 0.950 . S
C1033 C1030 1.387 . S
C1034 C1035 1.387 . S
C1034 H1038 0.950 . S
C1034 C1043 1.390 . S
C1035 C1034 1.387 . S
C1035 C1037 1.387 . S
H1036 C1043 0.950 . S
C1037 C1035 1.387 . S
C1037 C1039 1.390 . S
C1037 H1041 0.950 . S
H1038 C1034 0.950 . S
C1039 C1037 1.390 . S
C1039 C1040 1.387 . S
C1039 H1042 0.950 . S
C1040 C1039 1.387 . S
C1040 C1043 1.387 . S
H1041 C1037 0.950 . S
H1042 C1039 0.950 . S
C1043 C1034 1.390 . S
C1043 H1036 0.950 . S
C1043 C1040 1.387 . S
C1044 C1045 1.387 . S
C1044 H1048 0.950 . S
C1044 C1053 1.390 . S
C1045 C1044 1.387 . S
C1045 C1047 1.387 . S
H1046 C1053 0.950 . S
C1047 C1045 1.387 . S
C1047 C1049 1.390 . S
C1047 H1051 0.950 . S
H1048 C1044 0.950 . S
C1049 C1047 1.390 . S
C1049 C1050 1.387 . S
C1049 H1052 0.950 . S
C1050 C1049 1.387 . S
C1050 C1053 1.387 . S
H1051 C1047 0.950 . S
H1052 C1049 0.950 . S
C1053 C1044 1.390 . S
C1053 H1046 0.950 . S
C1053 C1050 1.387 . S
C1054 C1055 1.387 . S
C1054 H1058 0.950 . S
C1054 C1063 1.390 . S
C1055 C1054 1.387 . S
C1055 C1057 1.387 . S
H1056 C1063 0.950 . S
C1057 C1055 1.387 . S
C1057 C1059 1.390 . S
C1057 H1061 0.950 . S
H1058 C1054 0.950 . S
C1059 C1057 1.390 . S
C1059 C1060 1.387 . S
C1059 H1062 0.950 . S
C1060 C1059 1.387 . S
C1060 C1063 1.387 . S
H1061 C1057 0.950 . S
H1062 C1059 0.950 . S
C1063 C1054 1.390 . S
C1063 H1056 0.950 . S
C1063 C1060 1.387 . S
C1064 C1065 1.387 . S
C1064 H1068 0.950 . S
C1064 C1073 1.390 . S
C1065 C1064 1.387 . S
C1065 C1067 1.387 . S
H1066 C1073 0.950 . S
C1067 C1065 1.387 . S
C1067 C1069 1.390 . S
C1067 H1071 0.950 . S
H1068 C1064 0.950 . S
C1069 C1067 1.390 . S
C1069 C1070 1.387 . S
C1069 H1072 0.950 . S
C1070 C1069 1.387 . S
C1070 C1073 1.387 . S
H1071 C1067 0.950 . S
H1072 C1069 0.950 . S
C1073 C1064 1.390 . S
C1073 H1066 0.950 . S
C1073 C1070 1.387 . S
C1074 C1075 1.387 . S
C1074 H1078 0.950 . S
C1074 C1083 1.390 . S
C1075 C1074 1.387 . S
C1075 C1077 1.387 . S
H1076 C1083 0.950 . S
C1077 C1075 1.387 . S
C1077 C1079 1.390 . S
C1077 H1081 0.950 . S
H1078 C1074 0.950 . S
C1079 C1077 1.390 . S
C1079 C1080 1.387 . S
C1079 H1082 0.950 . S
C1080 C1079 1.387 . S
C1080 C1083 1.387 . S
H1081 C1077 0.950 . S
H1082 C1079 0.950 . S
C1083 C1074 1.390 . S
C1083 H1076 0.950 . S
C1083 C1080 1.387 . S
C1084 C1085 1.387 . S
C1084 H1088 0.950 . S
C1084 C1093 1.390 . S
C1085 C1084 1.387 . S
C1085 C1087 1.387 . S
H1086 C1093 0.950 . S
C1087 C1085 1.387 . S
C1087 C1089 1.390 . S
C1087 H1091 0.950 . S
H1088 C1084 0.950 . S
C1089 C1087 1.390 . S
C1089 C1090 1.387 . S
C1089 H1092 0.950 . S
C1090 C1089 1.387 . S
C1090 C1093 1.387 . S
H1091 C1087 0.950 . S
H1092 C1089 0.950 . S
C1093 C1084 1.390 . S
C1093 H1086 0.950 . S
C1093 C1090 1.387 . S
C1094 C1095 1.387 . S
C1094 H1098 0.950 . S
C1094 C1103 1.390 . S
C1095 C1094 1.387 . S
C1095 C1097 1.387 . S
H1096 C1103 0.950 . S
C1097 C1095 1.387 . S
C1097 C1099 1.390 . S
C1097 H1101 0.950 . S
H1098 C1094 0.950 . S
C1099 C1097 1.390 . S
C1099 C1100 1.387 . S
C1099 H1102 0.950 . S
C1100 C1099 1.387 . S
C1100 C1103 1.387 . S
H1101 C1097 0.950 . S
H1102 C1099 0.950 . S
C1103 C1094 1.390 . S
C1103 H1096 0.950 . S
C1103 C1100 1.387 . S
C1104 C1105 1.387 . S
C1104 H1108 0.950 . S
C1104 C1113 1.390 . S
C1105 C1104 1.387 . S
C1105 C1107 1.387 . S
H1106 C1113 0.950 . S
C1107 C1105 1.387 . S
C1107 C1109 1.390 . S
C1107 H1111 0.950 . S
H1108 C1104 0.950 . S
C1109 C1107 1.390 . S
C1109 C1110 1.387 . S
C1109 H1112 0.950 . S
C1110 C1109 1.387 . S
C1110 C1113 1.387 . S
H1111 C1107 0.950 . S
H1112 C1109 0.950 . S
C1113 C1104 1.390 . S
C1113 H1106 0.950 . S
C1113 C1110 1.387 . S
C1114 C1115 1.387 . S
C1114 H1118 0.950 . S
C1114 C1123 1.390 . S
C1115 C1114 1.387 . S
C1115 C1117 1.387 . S
H1116 C1123 0.950 . S
C1117 C1115 1.387 . S
C1117 C1119 1.390 . S
C1117 H1121 0.950 . S
H1118 C1114 0.950 . S
C1119 C1117 1.390 . S
C1119 C1120 1.387 . S
C1119 H1122 0.950 . S
C1120 C1119 1.387 . S
C1120 C1123 1.387 . S
H1121 C1117 0.950 . S
H1122 C1119 0.950 . S
C1123 C1114 1.390 . S
C1123 H1116 0.950 . S
C1123 C1120 1.387 . S
C1124 C1125 1.387 . S
C1124 H1128 0.950 . S
C1124 C1133 1.390 . S
C1125 C1124 1.387 . S
C1125 C1127 1.387 . S
H1126 C1133 0.950 . S
C1127 C1125 1.387 . S
C1127 C1129 1.390 . S
C1127 H1131 0.950 . S
H1128 C1124 0.950 . S
C1129 C1127 1.390 . S
C1129 C1130 1.387 . S
C1129 H1132 0.950 . S
C1130 C1129 1.387 . S
C1130 C1133 1.387 . S
H1131 C1127 0.950 . S
H1132 C1129 0.950 . S
C1133 C1124 1.390 . S
C1133 H1126 0.950 . S
C1133 C1130 1.387 . S
C595 C177 1.642 . S
C600 C243 1.640 . S
C605 C190 1.733 . S
C610 C283 1.728 . S
C615 C164 1.583 . S
C620 C322 1.555 . S
C625 C151 1.492 . S
C630 C282 1.462 . S
C640 C323 1.515 . S
C635 C125 1.517 . S
C645 C138 1.406 . S
C650 C242 1.394 1_556 S
C660 C253 1.619 . S
C655 C147 1.646 . S
C670 C293 1.605 . S
C665 C121 1.586 . S
C675 C134 1.607 . S
C680 C332 1.662 1_556 S
C685 C173 1.495 . S
C690 C292 1.529 . S
C695 C186 1.480 . S
C700 C333 1.459 . S
C710 C252 1.534 . S
C705 C160 1.501 . S
C720 C363 1.640 . S
C715 C21 1.642 . S
C725 C34 1.732 . S
C730 C403 1.727 . S
C735 C8 1.583 . S
C740 C442 1.558 . S
C745 C229 1.494 . S
C750 C402 1.453 . S
C755 C203 1.517 . S
C760 C443 1.515 . S
C765 C216 1.406 . S
C770 C362 1.394 . S
C775 C225 1.645 . S
C780 C373 1.616 . S
C785 C199 1.586 . S
C790 C413 1.604 . S
C800 C452 1.661 . S
C795 C212 1.606 . S
C805 C17 1.495 . S
C810 C412 1.528 . S
C820 C453 1.457 . S
C815 C30 1.481 1_455 S
C825 C4 1.503 . S
C830 C372 1.535 . S
C840 C483 1.640 . S
C835 C99 1.641 . S
C845 C112 1.733 . S
C850 C523 1.728 . S
C860 C562 1.558 . S
C855 C86 1.584 . S
C870 C522 1.454 . S
C865 C73 1.493 . S
C880 C563 1.515 . S
C875 C47 1.517 . S
C885 C60 1.407 . S
C890 C482 1.393 . S
C895 C69 1.621 1_655 S
C900 C493 1.618 . S
C905 C43 1.586 . S
C910 C533 1.605 . S
C920 C572 1.661 . S
C915 C56 1.606 1_545 S
C925 C95 1.493 . S
C930 C532 1.527 . S
C935 C108 1.480 . S
C940 C573 1.458 . S
C945 C82 1.501 . S
C950 C492 1.534 . S
C955 C204 1.599 . S
C960 C239 1.583 . S
C970 C279 1.887 . S
C965 C217 1.892 . S
C975 C230 1.551 . S
C980 C329 1.570 . S
C985 C87 1.715 . S
C990 C289 1.729 . S
C995 C100 1.673 . S
C1000 C319 1.675 . S
C1010 C249 1.381 . S
C1005 C113 1.373 . S
C1015 C48 1.599 . S
C1020 C359 1.583 . S
C1025 C61 1.893 . S
C1030 C399 1.888 . S
C1035 C74 1.553 . S
C1040 C449 1.571 . S
C1045 C165 1.713 . S
C1050 C409 1.728 . S
C1060 C439 1.674 . S
C1055 C178 1.672 . S
C1065 C191 1.374 . S
C1070 C369 1.382 . S
C1075 C126 1.597 . S
C1080 C479 1.581 . S
C1085 C139 1.893 . S
C1090 C519 1.888 . S
C1100 C569 1.570 . S
C1095 C152 1.552 . S
C1105 C9 1.714 . S
C1110 C529 1.728 . S
C1115 C22 1.671 . S
C1120 C559 1.673 . S
C1125 C35 1.373 . S
C1130 C489 1.381 . S
