# Generated by pormake.
# Topology rtl, (3,6)-cn, num edge types: 1
# Building blocks:
#     Node 0, Type 0, BuildingBlock: MIDCAF_clean_linker_0, # of connection points: 3
#     Node 1, Type 0, BuildingBlock: MIDCAF_clean_linker_0, # of connection points: 3
#     Node 2, Type 0, BuildingBlock: MIDCAF_clean_linker_0, # of connection points: 3
#     Node 3, Type 0, BuildingBlock: MIDCAF_clean_linker_0, # of connection points: 3
#     Node 4, Type 1, BuildingBlock: VOLQOD_clean_sbu_1, # of connection points: 6
#     Node 5, Type 1, BuildingBlock: VOLQOD_clean_sbu_1, # of connection points: 6
#     Edge 6, Type (0, 1), BuildingBlock: XUDNAN_clean_linker_2, # of connection points: 2
#     Edge 7, Type (0, 1), BuildingBlock: XUDNAN_clean_linker_2, # of connection points: 2
#     Edge 8, Type (0, 1), BuildingBlock: XUDNAN_clean_linker_2, # of connection points: 2
#     Edge 9, Type (0, 1), BuildingBlock: XUDNAN_clean_linker_2, # of connection points: 2
#     Edge 10, Type (0, 1), BuildingBlock: XUDNAN_clean_linker_2, # of connection points: 2
#     Edge 11, Type (0, 1), BuildingBlock: XUDNAN_clean_linker_2, # of connection points: 2
#     Edge 12, Type (0, 1), BuildingBlock: XUDNAN_clean_linker_2, # of connection points: 2
#     Edge 13, Type (0, 1), BuildingBlock: XUDNAN_clean_linker_2, # of connection points: 2
#     Edge 14, Type (0, 1), BuildingBlock: XUDNAN_clean_linker_2, # of connection points: 2
#     Edge 15, Type (0, 1), BuildingBlock: XUDNAN_clean_linker_2, # of connection points: 2
#     Edge 16, Type (0, 1), BuildingBlock: XUDNAN_clean_linker_2, # of connection points: 2
#     Edge 17, Type (0, 1), BuildingBlock: XUDNAN_clean_linker_2, # of connection points: 2
# Relax obj value: 0.080
# Max RMSD: 0.156
# Mean RMSD: 0.090
data_MOF--net-rtl--node1-VOLQOD_clean_sbu_1--node2-MIDCAF_clean_linker_0--edge1-XUDNAN_clean_linker_2
_symmetry_space_group_name_H-M    P1
_symmetry_Int_Tables_number       1
_symmetry_cell_setting            triclinic
loop_
_symmetry_equiv_pos_as_xyz
'x, y, z'
_cell_length_a     44.57889
_cell_length_b     38.535713
_cell_length_c     28.958007
_cell_angle_alpha  89.829047
_cell_angle_beta   90.355522
_cell_angle_gamma 89.988197
loop_
_atom_site_label
_atom_site_type_symbol
_atom_site_fract_x
_atom_site_fract_y
_atom_site_fract_z
_atom_type_partial_charge
C0 C 0.04357 0.78787 0.09718 0.0
C1 C 0.05734 0.79112 0.14074 0.0
C2 C 0.08241 0.77032 0.15115 0.0
C3 C 0.0948 0.74877 0.11747 0.0
H4 H 0.15309 0.65901 0.08494 0.0
H5 H 0.19919 0.62694 0.10137 0.0
H6 H 0.23565 0.66146 0.97097 0.0
H7 H 0.18934 0.69167 0.95377 0.0
H8 H 0.14827 0.72513 0.88129 0.0
H9 H 0.14409 0.75551 0.80763 0.0
H10 H 0.05771 0.79582 0.84738 0.0
H11 H 0.06169 0.7655 0.92123 0.0
H12 H 0.0456 0.76595 0.0296 0.0
H13 H 0.0238 0.80293 0.08848 0.0
H14 H 0.09362 0.77228 0.18433 0.0
H15 H 0.11512 0.7346 0.12582 0.0
N16 N 0.12273 0.70996 0.04326 0.0
N17 N 0.13384 0.70835 0.96422 0.0
N18 N 0.09279 0.74055 0.99009 0.0
C19 C 0.14015 0.6983 0.0082 0.0
C20 C 0.11008 0.72925 0.95478 0.0
C21 C 0.0989 0.73105 0.0344 0.0
C22 C 0.16749 0.67773 0.01798 0.0
C23 C 0.17092 0.65941 0.0597 0.0
C24 C 0.19744 0.64121 0.06921 0.0
C25 C 0.22126 0.64144 0.03751 0.0
C26 C 0.21764 0.65983 0.9958 0.0
C27 C 0.19104 0.67744 0.986 0.0
C28 C 0.10547 0.74321 0.90752 0.0
C29 C 0.1281 0.73993 0.87416 0.0
C30 C 0.12582 0.75744 0.83199 0.0
C31 C 0.10073 0.77822 0.82204 0.0
C32 C 0.07725 0.77982 0.85409 0.0
C33 C 0.07965 0.7626 0.8965 0.0
C34 C 0.08246 0.7478 0.07267 0.0
C35 C 0.05602 0.76654 0.06349 0.0
C36 C 0.57238 0.69793 0.40803 0.0
C37 C 0.5912 0.69238 0.37 0.0
C38 C 0.61768 0.71195 0.36629 0.0
C39 C 0.62597 0.73514 0.4013 0.0
H40 H 0.68911 0.80616 0.44006 0.0
H41 H 0.73843 0.83298 0.43752 0.0
H42 H 0.72942 0.86528 0.57923 0.0
H43 H 0.67983 0.83818 0.58238 0.0
H44 H 0.62391 0.80446 0.64384 0.0
H45 H 0.6051 0.78638 0.7199 0.0
H46 H 0.56358 0.69673 0.65803 0.0
H47 H 0.58164 0.71448 0.58243 0.0
H48 H 0.56597 0.72363 0.47237 0.0
H49 H 0.55142 0.68394 0.4113 0.0
H50 H 0.63266 0.70823 0.33741 0.0
H51 H 0.64711 0.7488 0.39839 0.0
N52 N 0.64208 0.78146 0.47742 0.0
N53 N 0.6401 0.7924 0.55713 0.0
N54 N 0.60586 0.75407 0.52284 0.0
C55 C 0.65294 0.79825 0.51528 0.0
C56 C 0.6165 0.77028 0.5611 0.0
C57 C 0.61834 0.75958 0.48088 0.0
C58 C 0.68063 0.81941 0.51173 0.0
C59 C 0.69725 0.81941 0.47059 0.0
C60 C 0.72554 0.83476 0.46903 0.0
C61 C 0.73773 0.8508 0.50831 0.0
C62 C 0.7204 0.85308 0.54847 0.0
C63 C 0.69212 0.83737 0.55026 0.0
C64 C 0.60424 0.76099 0.60697 0.0
C65 C 0.61063 0.78101 0.64643 0.0
C66 C 0.59995 0.77077 0.68983 0.0
C67 C 0.58311 0.74023 0.69427 0.0
C68 C 0.57657 0.7204 0.65509 0.0
C69 C 0.58685 0.73074 0.61185 0.0
C70 C 0.60793 0.73905 0.44067 0.0
C71 C 0.58067 0.72085 0.44297 0.0
C72 C 0.94392 0.20579 0.90813 0.0
C73 C 0.93432 0.20921 0.86203 0.0
C74 C 0.90986 0.23105 0.85197 0.0
C75 C 0.89506 0.24864 0.88734 0.0
H76 H 0.82523 0.31463 0.91213 0.0
H77 H 0.77966 0.3469 0.89451 0.0
H78 H 0.76157 0.35669 0.04024 0.0
H79 H 0.8074 0.32489 0.05817 0.0
H80 H 0.83987 0.26048 0.1242 0.0
H81 H 0.85104 0.23565 0.19999 0.0
H82 H 0.94469 0.22805 0.1632 0.0
H83 H 0.93313 0.25103 0.08689 0.0
H84 H 0.93695 0.21953 0.97859 0.0
H85 H 0.96244 0.18884 0.91716 0.0
H86 H 0.90216 0.23456 0.81671 0.0
H87 H 0.87608 0.26492 0.87838 0.0
N88 N 0.86338 0.28185 0.96243 0.0
N89 N 0.85414 0.28759 0.04176 0.0
N90 N 0.89478 0.25428 0.01626 0.0
C91 C 0.84673 0.29532 0.99726 0.0
C92 C 0.8783 0.2673 0.05144 0.0
C93 C 0.88744 0.26127 0.97164 0.0
C94 C 0.81995 0.31682 0.98662 0.0
C95 C 0.81172 0.32382 0.94054 0.0
C96 C 0.78552 0.34225 0.93036 0.0
C97 C 0.76693 0.35416 0.96595 0.0
C98 C 0.77558 0.34815 0.01203 0.0
C99 C 0.80179 0.32967 0.02227 0.0
C100 C 0.88557 0.25719 0.09946 0.0
C101 C 0.86288 0.25386 0.13264 0.0
C102 C 0.86934 0.23974 0.17618 0.0
C103 C 0.89871 0.22921 0.18759 0.0
C104 C 0.92165 0.23478 0.15522 0.0
C105 C 0.91509 0.24821 0.11153 0.0
C106 C 0.90432 0.24468 0.9336 0.0
C107 C 0.92914 0.2233 0.94345 0.0
C108 C 0.41864 0.32972 0.5914 0.0
C109 C 0.40594 0.32376 0.63487 0.0
C110 C 0.39047 0.29259 0.64296 0.0
C111 C 0.38711 0.26816 0.60759 0.0
H112 H 0.31924 0.20465 0.5486 0.0
H113 H 0.27171 0.17438 0.53858 0.0
H114 H 0.30527 0.12614 0.41472 0.0
H115 H 0.35252 0.15689 0.42402 0.0
H116 H 0.39529 0.20639 0.36321 0.0
H117 H 0.41635 0.22679 0.29054 0.0
H118 H 0.4786 0.29165 0.36564 0.0
H119 H 0.45746 0.27179 0.43827 0.0
H120 H 0.42564 0.31083 0.52316 0.0
H121 H 0.43097 0.35339 0.58451 0.0
H122 H 0.38049 0.28747 0.67631 0.0
H123 H 0.37465 0.24459 0.61447 0.0
N124 N 0.37214 0.22649 0.52586 0.0
N125 N 0.38434 0.20885 0.45076 0.0
N126 N 0.41265 0.25198 0.48727 0.0
C127 C 0.36666 0.20591 0.48864 0.0
C128 C 0.4075 0.23166 0.44989 0.0
C129 C 0.39525 0.2495 0.52543 0.0
C130 C 0.3396 0.18363 0.48676 0.0
C131 C 0.31669 0.18721 0.51959 0.0
C132 C 0.28943 0.16975 0.51393 0.0
C133 C 0.28456 0.14825 0.47547 0.0
C134 C 0.30807 0.14316 0.44413 0.0
C135 C 0.33524 0.16067 0.44965 0.0
C136 C 0.42419 0.23807 0.40662 0.0
C137 C 0.41391 0.22441 0.36436 0.0
C138 C 0.42606 0.23595 0.32264 0.0
C139 C 0.44871 0.26127 0.32249 0.0
C140 C 0.46071 0.27263 0.36478 0.0
C141 C 0.44859 0.26118 0.40639 0.0
C142 C 0.39968 0.27425 0.56388 0.0
C143 C 0.41576 0.30515 0.55641 0.0
O144 O 0.93725 0.98914 0.52278 0.0
Zn145 Zn 0.96998 0.02618 0.51891 0.0
O146 O 0.0089 0.00534 0.50177 0.0
Zn147 Zn 0.03949 0.0166 0.54761 0.0
Zn148 Zn 0.00557 0.95493 0.4974 0.0
Zn149 Zn 0.02163 0.02326 0.44226 0.0
O150 O 0.07523 0.03997 0.51931 0.0
O151 O 0.06286 0.04434 0.44527 0.0
O152 O 0.97376 0.05192 0.57983 0.0
O153 O 0.02252 0.0482 0.59567 0.0
O154 O 0.05474 0.97377 0.57975 0.0
O155 O 0.03007 0.93042 0.5463 0.0
O156 O 0.01676 0.93685 0.43415 0.0
O157 O 0.95673 0.06186 0.47096 0.0
O158 O 0.0228 0.98577 0.39478 0.0
O159 O 0.99311 0.05921 0.41905 0.0
C160 C 0.93844 0.95642 0.5162 0.0
C161 C 0.08141 0.04914 0.47821 0.0
C162 C 0.04884 0.94159 0.57602 0.0
C163 C 0.99639 0.0594 0.60511 0.0
C164 C 0.02152 0.95282 0.39633 0.0
C165 C 0.96849 0.0719 0.43319 0.0
O166 O 0.96303 0.94141 0.5066 0.0
O167 O 0.57135 0.49917 0.98863 0.0
Zn168 Zn 0.53728 0.5314 0.00641 0.0
O169 O 0.49848 0.50693 0.00334 0.0
Zn170 Zn 0.47119 0.53073 0.96078 0.0
Zn171 Zn 0.50421 0.45928 0.98221 0.0
Zn172 Zn 0.48054 0.5057 0.06434 0.0
O173 O 0.43287 0.54415 0.99232 0.0
O174 O 0.43944 0.52737 0.06508 0.0
O175 O 0.53737 0.57194 0.96186 0.0
O176 O 0.49041 0.57396 0.93536 0.0
O177 O 0.45948 0.49998 0.90722 0.0
O178 O 0.47974 0.44914 0.92552 0.0
O179 O 0.49369 0.42389 0.03108 0.0
O180 O 0.54557 0.55027 0.07093 0.0
O181 O 0.47717 0.4571 0.08788 0.0
O182 O 0.50621 0.53067 0.10985 0.0
C183 C 0.57137 0.46869 0.97159 0.0
C184 C 0.42343 0.54131 0.03356 0.0
C185 C 0.46379 0.46794 0.89881 0.0
C186 C 0.51689 0.5863 0.93755 0.0
C187 C 0.48326 0.42731 0.07162 0.0
C188 C 0.53093 0.54706 0.10838 0.0
O189 O 0.54722 0.45156 0.96607 0.0
H190 H 0.24578 0.11877 0.538 0.0
H191 H 0.25515 0.14391 0.39252 0.0
H192 H 0.20456 0.12065 0.37728 0.0
H193 H 0.20432 0.03898 0.52255 0.0
H194 H 0.18056 0.04628 0.57171 0.0
H195 H 0.21799 0.06384 0.57094 0.0
H196 H 0.19663 0.1254 0.58538 0.0
H197 H 0.15913 0.10805 0.58604 0.0
H198 H 0.16848 0.14268 0.54671 0.0
H199 H 0.15251 0.0963 0.37803 0.0
H200 H 0.10283 0.07115 0.39453 0.0
H201 H 0.12706 0.06271 0.53972 0.0
C202 C 0.23719 0.11941 0.50295 0.0
C203 C 0.25454 0.13295 0.46641 0.0
C204 C 0.24253 0.13308 0.42095 0.0
C205 C 0.21372 0.12016 0.41197 0.0
C206 C 0.19717 0.10723 0.4488 0.0
C207 C 0.20846 0.10664 0.49335 0.0
C208 C 0.18588 0.09166 0.52677 0.0
C209 C 0.19791 0.0582 0.5493 0.0
C210 C 0.17701 0.11856 0.56338 0.0
C211 C 0.1601 0.08413 0.49405 0.0
C212 C 0.16708 0.09328 0.44925 0.0
C213 C 0.14678 0.08894 0.41297 0.0
C214 C 0.11859 0.07468 0.42273 0.0
C215 C 0.11097 0.06493 0.46842 0.0
C216 C 0.13211 0.06987 0.50443 0.0
H217 H 0.25853 0.60788 0.97684 0.0
H218 H 0.24995 0.63491 0.12173 0.0
H219 H 0.29939 0.60854 0.1376 0.0
H220 H 0.29941 0.5271 0.99176 0.0
H221 H 0.32303 0.53507 0.94256 0.0
H222 H 0.28551 0.55242 0.94374 0.0
H223 H 0.30657 0.61426 0.92981 0.0
H224 H 0.34412 0.59714 0.92871 0.0
H225 H 0.33474 0.63128 0.96852 0.0
H226 H 0.35115 0.58157 0.13682 0.0
H227 H 0.40143 0.55823 0.11883 0.0
H228 H 0.37702 0.55357 0.97364 0.0
C229 C 0.26691 0.60838 0.01199 0.0
C230 C 0.25012 0.6235 0.048 0.0
C231 C 0.26197 0.62295 0.09359 0.0
C232 C 0.29017 0.60822 0.10294 0.0
C233 C 0.30632 0.5943 0.06635 0.0
C234 C 0.29512 0.59437 0.02178 0.0
C235 C 0.31761 0.57992 0.98801 0.0
C236 C 0.30567 0.54665 0.96519 0.0
C237 C 0.32627 0.60729 0.95163 0.0
C238 C 0.34346 0.57216 0.02044 0.0
C239 C 0.33641 0.58013 0.06559 0.0
C240 C 0.35689 0.57519 0.10159 0.0
C241 C 0.38536 0.56193 0.09106 0.0
C242 C 0.39317 0.55429 0.04483 0.0
C243 C 0.37181 0.55941 0.00926 0.0
H244 H 0.76222 0.91403 0.5327 0.0
H245 H 0.78496 0.81072 0.4851 0.0
H246 H 0.83858 0.82626 0.48575 0.0
H247 H 0.81721 0.95865 0.46411 0.0
H248 H 0.82594 0.99067 0.5074 0.0
H249 H 0.78923 0.97121 0.50553 0.0
H250 H 0.7952 0.952 0.59089 0.0
H251 H 0.832 0.97132 0.59298 0.0
H252 H 0.8272 0.92621 0.60783 0.0
H253 H 0.8888 0.85189 0.49124 0.0
H254 H 0.93407 0.8877 0.49589 0.0
H255 H 0.8802 0.97634 0.53721 0.0
C256 C 0.77862 0.89478 0.52268 0.0
C257 C 0.76962 0.86121 0.50873 0.0
C258 C 0.7915 0.83665 0.49545 0.0
C259 C 0.82196 0.84515 0.496 0.0
C260 C 0.83016 0.87842 0.50966 0.0
C261 C 0.80927 0.90303 0.52241 0.0
C262 C 0.82441 0.93733 0.53361 0.0
C263 C 0.81355 0.96616 0.50069 0.0
C264 C 0.8194 0.94729 0.58435 0.0
C265 C 0.85698 0.92803 0.52491 0.0
C266 C 0.8596 0.89376 0.51166 0.0
C267 C 0.88712 0.87879 0.50153 0.0
C268 C 0.91275 0.89948 0.50437 0.0
C269 C 0.91083 0.93499 0.51685 0.0
C270 C 0.88248 0.94933 0.52761 0.0
H271 H 0.74152 0.41112 0.00756 0.0
H272 H 0.72603 0.33433 0.90063 0.0
H273 H 0.67595 0.35916 0.8857 0.0
H274 H 0.66902 0.40905 0.05377 0.0
H275 H 0.66691 0.45486 0.06567 0.0
H276 H 0.70278 0.43348 0.06483 0.0
H277 H 0.72156 0.47727 0.00337 0.0
H278 H 0.68568 0.49884 0.00404 0.0
H279 H 0.70061 0.48289 0.95043 0.0
H280 H 0.62603 0.38767 0.88799 0.0
H281 H 0.57958 0.41964 0.90557 0.0
H282 H 0.6272 0.4792 0.00973 0.0
C283 C 0.72768 0.39978 0.98069 0.0
C284 C 0.73776 0.37092 0.95504 0.0
C285 C 0.71902 0.35681 0.92015 0.0
C286 C 0.69048 0.37065 0.91153 0.0
C287 C 0.68109 0.39878 0.93781 0.0
C288 C 0.69916 0.41341 0.97144 0.0
C289 C 0.68301 0.44244 0.99629 0.0
C290 C 0.68027 0.43446 0.0482 0.0
C291 C 0.69865 0.47743 0.98802 0.0
C292 C 0.65275 0.44112 0.97224 0.0
C293 C 0.65224 0.41583 0.93849 0.0
C294 C 0.62626 0.40793 0.91378 0.0
C295 C 0.59998 0.42612 0.92414 0.0
C296 C 0.59992 0.45205 0.9587 0.0
C297 C 0.62679 0.45999 0.9825 0.0
H298 H 0.05207 0.78783 0.23575 0.0
H299 H 0.04207 0.85761 0.11859 0.0
H300 H 0.02998 0.90547 0.17127 0.0
H301 H 0.99215 0.82579 0.30578 0.0
H302 H 0.01254 0.82022 0.35923 0.0
H303 H 0.01846 0.79054 0.31218 0.0
H304 H 0.07543 0.80377 0.3149 0.0
H305 H 0.06967 0.83362 0.36174 0.0
H306 H 0.08808 0.84805 0.30988 0.0
H307 H 0.02283 0.94664 0.23565 0.0
H308 H 0.01807 0.97854 0.30868 0.0
H309 H 0.03208 0.88274 0.38537 0.0
C310 C 0.04707 0.81311 0.22122 0.0
C311 C 0.04771 0.81883 0.17295 0.0
C312 C 0.04107 0.85233 0.1553 0.0
C313 C 0.0344 0.8798 0.18497 0.0
C314 C 0.03433 0.87341 0.23226 0.0
C315 C 0.04022 0.84091 0.25041 0.0
C316 C 0.03939 0.84148 0.30277 0.0
C317 C 0.01412 0.81812 0.32106 0.0
C318 C 0.06996 0.83112 0.32353 0.0
C319 C 0.03261 0.87951 0.31105 0.0
C320 C 0.02982 0.89736 0.26981 0.0
C321 C 0.02468 0.93294 0.26822 0.0
C322 C 0.02216 0.95085 0.30996 0.0
C323 C 0.02464 0.93316 0.35281 0.0
C324 C 0.02985 0.89695 0.35321 0.0
H325 H 0.60812 0.69046 0.74852 0.0
H326 H 0.53288 0.76115 0.73881 0.0
H327 H 0.5097 0.733 0.80694 0.0
H328 H 0.56789 0.61731 0.77398 0.0
H329 H 0.59441 0.59861 0.81418 0.0
H330 H 0.60724 0.62758 0.76972 0.0
H331 H 0.63181 0.66724 0.83134 0.0
H332 H 0.61933 0.63813 0.87613 0.0
H333 H 0.60951 0.68347 0.8783 0.0
H334 H 0.49115 0.69097 0.86647 0.0
H335 H 0.48042 0.64133 0.91815 0.0
H336 H 0.56916 0.5999 0.89244 0.0
C337 C 0.58731 0.70068 0.76201 0.0
C338 C 0.57235 0.72818 0.73944 0.0
C339 C 0.54475 0.74047 0.75657 0.0
C340 C 0.53148 0.72459 0.79503 0.0
C341 C 0.54639 0.69681 0.81599 0.0
C342 C 0.57398 0.68535 0.80061 0.0
C343 C 0.58425 0.65343 0.82693 0.0
C344 C 0.58869 0.62242 0.79425 0.0
C345 C 0.61293 0.66104 0.85484 0.0
C346 C 0.55765 0.64792 0.85833 0.0
C347 C 0.53606 0.67324 0.85154 0.0
C348 C 0.50819 0.67154 0.87301 0.0
C349 C 0.50223 0.64321 0.90205 0.0
C350 C 0.52416 0.61723 0.90972 0.0
C351 C 0.55234 0.61996 0.88811 0.0
H352 H 0.93772 0.17513 0.20052 0.0
H353 H 0.87408 0.23967 0.27398 0.0
H354 H 0.88395 0.20589 0.34528 0.0
H355 H 0.92117 0.09555 0.25569 0.0
H356 H 0.95963 0.08112 0.2572 0.0
H357 H 0.94712 0.11017 0.21226 0.0
H358 H 0.98887 0.15399 0.23456 0.0
H359 H 0.00166 0.12497 0.27936 0.0
H360 H 0.99167 0.16901 0.29333 0.0
H361 H 0.90059 0.16325 0.40862 0.0
H362 H 0.92432 0.11823 0.4582 0.0
H363 H 0.97849 0.08527 0.34228 0.0
C364 C 0.92617 0.18279 0.23164 0.0
C365 C 0.90518 0.21027 0.23146 0.0
C366 C 0.89004 0.21851 0.27297 0.0
C367 C 0.8956 0.19958 0.31373 0.0
C368 C 0.91648 0.17265 0.31246 0.0
C369 C 0.93167 0.16455 0.27247 0.0
C370 C 0.95325 0.13482 0.27982 0.0
C371 C 0.94477 0.10358 0.24945 0.0
C372 C 0.98579 0.1464 0.27127 0.0
C373 C 0.94789 0.12728 0.33027 0.0
C374 C 0.92648 0.14909 0.34864 0.0
C375 C 0.91752 0.1462 0.3946 0.0
C376 C 0.93102 0.12052 0.42244 0.0
C377 C 0.9534 0.09842 0.40422 0.0
C378 C 0.96172 0.10198 0.35749 0.0
H379 H 0.42651 0.31453 0.72324 0.0
H380 H 0.39306 0.39274 0.6281 0.0
H381 H 0.40141 0.43802 0.68718 0.0
H382 H 0.39658 0.35283 0.8295 0.0
H383 H 0.42932 0.34136 0.86305 0.0
H384 H 0.41808 0.31484 0.81481 0.0
H385 H 0.47087 0.32216 0.77903 0.0
H386 H 0.4822 0.3488 0.82699 0.0
H387 H 0.48532 0.36519 0.76885 0.0
H388 H 0.41553 0.47495 0.75522 0.0
H389 H 0.43589 0.50126 0.82648 0.0
H390 H 0.46159 0.39895 0.87615 0.0
C391 C 0.42042 0.34111 0.71531 0.0
C392 C 0.40897 0.35026 0.67142 0.0
C393 C 0.40188 0.38535 0.66166 0.0
C394 C 0.40643 0.41115 0.69498 0.0
C395 C 0.4182 0.40139 0.73776 0.0
C396 C 0.42515 0.36723 0.748 0.0
C397 C 0.43934 0.36397 0.79543 0.0
C398 C 0.41964 0.34195 0.8276 0.0
C399 C 0.47133 0.34917 0.79236 0.0
C400 C 0.43964 0.40166 0.80998 0.0
C401 C 0.42704 0.42279 0.77649 0.0
C402 C 0.42532 0.45866 0.78182 0.0
C403 C 0.43695 0.47336 0.82242 0.0
C404 C 0.4504 0.45222 0.8569 0.0
C405 C 0.45151 0.41588 0.85048 0.0
H406 H 0.59584 0.69442 0.27482 0.0
H407 H 0.57018 0.62755 0.38892 0.0
H408 H 0.5555 0.58199 0.33396 0.0
H409 H 0.53674 0.67126 0.19954 0.0
H410 H 0.55885 0.6719 0.14764 0.0
H411 H 0.56933 0.69879 0.19582 0.0
H412 H 0.62226 0.67101 0.19691 0.0
H413 H 0.61192 0.644 0.14865 0.0
H414 H 0.62587 0.62452 0.20122 0.0
H415 H 0.53978 0.54582 0.2682 0.0
H416 H 0.52471 0.51988 0.19398 0.0
H417 H 0.56237 0.60798 0.12083 0.0
C418 C 0.58757 0.66998 0.28818 0.0
C419 C 0.58385 0.66471 0.3362 0.0
C420 C 0.57266 0.63248 0.35231 0.0
C421 C 0.56452 0.60629 0.32139 0.0
C422 C 0.56799 0.61248 0.27439 0.0
C423 C 0.5794 0.64336 0.25768 0.0
C424 C 0.57961 0.64357 0.20525 0.0
C425 C 0.55996 0.67313 0.18594 0.0
C426 C 0.61184 0.64591 0.18693 0.0
C427 C 0.5659 0.60832 0.1953 0.0
C428 C 0.55952 0.59088 0.23586 0.0
C429 C 0.54503 0.55892 0.23615 0.0
C430 C 0.53647 0.54448 0.19387 0.0
C431 C 0.54261 0.56183 0.15181 0.0
C432 C 0.55796 0.59391 0.1525 0.0
H433 H 0.90816 0.17481 0.78909 0.0
H434 H 0.99462 0.19843 0.8513 0.0
H435 H 0.01963 0.16269 0.79239 0.0
H436 H 0.92384 0.08707 0.76045 0.0
H437 H 0.90382 0.08805 0.70619 0.0
H438 H 0.89258 0.11622 0.75246 0.0
H439 H 0.89837 0.16973 0.69884 0.0
H440 H 0.90943 0.14169 0.65227 0.0
H441 H 0.93347 0.17695 0.66975 0.0
H442 H 0.03512 0.12329 0.7286 0.0
H443 H 0.04053 0.08415 0.66218 0.0
H444 H 0.94404 0.08683 0.64 0.0
C445 C 0.93239 0.17291 0.78992 0.0
C446 C 0.94943 0.18936 0.82493 0.0
C447 C 0.98106 0.18571 0.82521 0.0
C448 C 0.99549 0.16561 0.79177 0.0
C449 C 0.97799 0.14942 0.75817 0.0
C450 C 0.94717 0.15298 0.75675 0.0
C451 C 0.93364 0.13246 0.7172 0.0
C452 C 0.91221 0.10428 0.73517 0.0
C453 C 0.9178 0.15665 0.68246 0.0
C454 C 0.96169 0.11667 0.69676 0.0
C455 C 0.98699 0.12681 0.72099 0.0
C456 C 0.0155 0.11528 0.7092 0.0
C457 C 0.01829 0.09295 0.67141 0.0
C458 C 0.99271 0.08235 0.64569 0.0
C459 C 0.96404 0.09444 0.65878 0.0
H460 H 0.45351 0.33071 0.30909 0.0
H461 H 0.46118 0.23239 0.23767 0.0
H462 H 0.47158 0.2639 0.1646 0.0
H463 H 0.41553 0.37544 0.22 0.0
H464 H 0.43408 0.41622 0.23068 0.0
H465 H 0.429 0.38573 0.27717 0.0
H466 H 0.48626 0.38597 0.29359 0.0
H467 H 0.4915 0.41672 0.2474 0.0
H468 H 0.51193 0.37635 0.24749 0.0
H469 H 0.48055 0.30736 0.09908 0.0
H470 H 0.48644 0.35825 0.04743 0.0
H471 H 0.47137 0.42674 0.16381 0.0
C472 C 0.45802 0.31571 0.27833 0.0
C473 C 0.45702 0.27913 0.27907 0.0
C474 C 0.462 0.26047 0.23775 0.0
C475 C 0.46796 0.27813 0.19623 0.0
C476 C 0.46858 0.31434 0.19678 0.0
C477 C 0.46371 0.33281 0.23688 0.0
C478 C 0.46438 0.37147 0.22847 0.0
C479 C 0.43394 0.38818 0.23974 0.0
C480 C 0.49005 0.38863 0.25585 0.0
C481 C 0.47037 0.37206 0.17726 0.0
C482 C 0.4729 0.33897 0.15943 0.0
C483 C 0.47859 0.33337 0.11273 0.0
C484 C 0.48188 0.3624 0.08368 0.0
C485 C 0.47923 0.39649 0.1015 0.0
C486 C 0.47332 0.40109 0.1489 0.0
H487 H 0.05459 0.78795 0.75992 0.0
H488 H 0.14557 0.82031 0.79182 0.0
H489 H 0.14357 0.86271 0.72786 0.0
H490 H 0.06078 0.79779 0.63281 0.0
H491 H 0.02284 0.81346 0.62701 0.0
H492 H 0.0324 0.78343 0.67262 0.0
H493 H 0.01151 0.82645 0.73305 0.0
H494 H 0.00202 0.85663 0.68774 0.0
H495 H 0.02586 0.87017 0.73485 0.0
H496 H 0.1295 0.90646 0.66791 0.0
H497 H 0.10558 0.94566 0.61084 0.0
H498 H 0.02482 0.88298 0.61421 0.0
C499 C 0.07421 0.80361 0.75287 0.0
C500 C 0.1003 0.80078 0.78055 0.0
C501 C 0.12554 0.82173 0.77053 0.0
C502 C 0.12457 0.84597 0.73443 0.0
C503 C 0.09835 0.84857 0.70828 0.0
C504 C 0.07377 0.82763 0.71651 0.0
C505 C 0.04797 0.83659 0.68433 0.0
C506 C 0.04058 0.80599 0.65228 0.0
C507 C 0.02021 0.84815 0.71163 0.0
C508 C 0.06159 0.86654 0.65774 0.0
C509 C 0.09066 0.87303 0.67217 0.0
C510 C 0.10699 0.9012 0.65557 0.0
C511 C 0.09322 0.92338 0.6234 0.0
C512 C 0.0636 0.91696 0.60781 0.0
C513 C 0.04777 0.88793 0.6248 0.0
loop_
_geom_bond_atom_site_label_1
_geom_bond_atom_site_label_2
_geom_bond_distance
_geom_bond_site_symmetry_2
_ccdc_geom_bond_type
C0 C1 1.384 . S
C0 H13 0.947 . S
C0 C35 1.382 . S
C1 C0 1.384 . S
C1 C2 1.378 . S
C2 C1 1.378 . S
C2 C3 1.378 . S
C2 H14 0.952 . S
C3 C2 1.378 . S
C3 H15 0.950 . S
C3 C34 1.383 . S
H4 C23 0.947 . S
H5 C24 0.946 . S
H6 C26 0.953 . S
H7 C27 0.945 . S
H8 C29 0.952 . S
H9 C30 0.949 . S
H10 C32 0.950 . S
H11 C33 0.948 . S
H12 C35 0.951 . S
H13 C0 0.947 . S
H14 C2 0.952 . S
H15 C3 0.950 . S
N16 C19 1.382 . S
N16 C21 1.363 . S
N17 C19 1.371 1_556 S
N17 C20 1.372 . S
N18 C20 1.361 1_554 S
N18 C21 1.377 . S
C19 N16 1.382 . S
C19 N17 1.371 1_554 S
C19 C22 1.480 . S
C20 N17 1.372 . S
C20 N18 1.361 1_556 S
C20 C28 1.457 . S
C21 N16 1.363 . S
C21 N18 1.377 . S
C21 C34 1.479 . S
C22 C19 1.480 . S
C22 C23 1.383 . S
C22 C27 1.385 1_554 S
C23 H4 0.947 . S
C23 C22 1.383 . S
C23 C24 1.388 . S
C24 H5 0.946 . S
C24 C23 1.388 . S
C24 C25 1.384 . S
C25 C24 1.384 . S
C25 C26 1.377 1_554 S
C26 H6 0.953 . S
C26 C25 1.377 1_556 S
C26 C27 1.369 . S
C27 H7 0.945 . S
C27 C22 1.385 1_556 S
C27 C26 1.369 . S
C28 C20 1.457 . S
C28 C29 1.372 . S
C28 C33 1.364 . S
C29 H8 0.952 . S
C29 C28 1.372 . S
C29 C30 1.389 . S
C30 H9 0.949 . S
C30 C29 1.389 . S
C30 C31 1.387 . S
C31 C30 1.387 . S
C31 C32 1.372 . S
C32 H10 0.950 . S
C32 C31 1.372 . S
C32 C33 1.379 . S
C33 H11 0.948 . S
C33 C28 1.364 . S
C33 C32 1.379 . S
C34 C3 1.383 . S
C34 C21 1.479 . S
C34 C35 1.398 . S
C35 C0 1.382 . S
C35 H12 0.951 . S
C35 C34 1.398 . S
C36 C37 1.384 . S
C36 H49 0.947 . S
C36 C71 1.382 . S
C37 C36 1.384 . S
C37 C38 1.378 . S
C38 C37 1.378 . S
C38 C39 1.378 . S
C38 H50 0.952 . S
C39 C38 1.378 . S
C39 H51 0.950 . S
C39 C70 1.383 . S
H40 C59 0.947 . S
H41 C60 0.946 . S
H42 C62 0.953 . S
H43 C63 0.945 . S
H44 C65 0.952 . S
H45 C66 0.949 . S
H46 C68 0.950 . S
H47 C69 0.948 . S
H48 C71 0.951 . S
H49 C36 0.947 . S
H50 C38 0.952 . S
H51 C39 0.950 . S
N52 C55 1.382 . S
N52 C57 1.363 . S
N53 C55 1.371 . S
N53 C56 1.372 . S
N54 C56 1.361 . S
N54 C57 1.377 . S
C55 N52 1.382 . S
C55 N53 1.371 . S
C55 C58 1.480 . S
C56 N53 1.372 . S
C56 N54 1.361 . S
C56 C64 1.457 . S
C57 N52 1.363 . S
C57 N54 1.377 . S
C57 C70 1.479 . S
C58 C55 1.480 . S
C58 C59 1.383 . S
C58 C63 1.385 . S
C59 H40 0.947 . S
C59 C58 1.383 . S
C59 C60 1.388 . S
C60 H41 0.946 . S
C60 C59 1.388 . S
C60 C61 1.384 . S
C61 C60 1.384 . S
C61 C62 1.377 . S
C62 H42 0.953 . S
C62 C61 1.377 . S
C62 C63 1.369 . S
C63 H43 0.945 . S
C63 C58 1.385 . S
C63 C62 1.369 . S
C64 C56 1.457 . S
C64 C65 1.372 . S
C64 C69 1.364 . S
C65 H44 0.952 . S
C65 C64 1.372 . S
C65 C66 1.389 . S
C66 H45 0.949 . S
C66 C65 1.389 . S
C66 C67 1.387 . S
C67 C66 1.387 . S
C67 C68 1.372 . S
C68 H46 0.950 . S
C68 C67 1.372 . S
C68 C69 1.379 . S
C69 H47 0.948 . S
C69 C64 1.364 . S
C69 C68 1.379 . S
C70 C39 1.383 . S
C70 C57 1.479 . S
C70 C71 1.398 . S
C71 C36 1.382 . S
C71 H48 0.951 . S
C71 C70 1.398 . S
C72 C73 1.384 . S
C72 H85 0.947 . S
C72 C107 1.382 . S
C73 C72 1.384 . S
C73 C74 1.378 . S
C74 C73 1.378 . S
C74 C75 1.378 . S
C74 H86 0.952 . S
C75 C74 1.378 . S
C75 H87 0.950 . S
C75 C106 1.383 . S
H76 C95 0.947 . S
H77 C96 0.946 . S
H78 C98 0.953 . S
H79 C99 0.945 . S
H80 C101 0.952 . S
H81 C102 0.949 . S
H82 C104 0.950 . S
H83 C105 0.948 . S
H84 C107 0.951 . S
H85 C72 0.947 . S
H86 C74 0.952 . S
H87 C75 0.950 . S
N88 C91 1.382 1_556 S
N88 C93 1.363 . S
N89 C91 1.371 . S
N89 C92 1.372 . S
N90 C92 1.361 . S
N90 C93 1.377 1_554 S
C91 N88 1.382 1_554 S
C91 N89 1.371 . S
C91 C94 1.480 . S
C92 N89 1.372 . S
C92 N90 1.361 . S
C92 C100 1.457 . S
C93 N88 1.363 . S
C93 N90 1.377 1_556 S
C93 C106 1.479 . S
C94 C91 1.480 . S
C94 C95 1.383 1_554 S
C94 C99 1.385 . S
C95 H76 0.947 . S
C95 C94 1.383 1_556 S
C95 C96 1.388 . S
C96 H77 0.946 . S
C96 C95 1.388 . S
C96 C97 1.384 1_556 S
C97 C96 1.384 1_554 S
C97 C98 1.377 . S
C98 H78 0.953 . S
C98 C97 1.377 . S
C98 C99 1.369 . S
C99 H79 0.945 . S
C99 C94 1.385 . S
C99 C98 1.369 . S
C100 C92 1.457 . S
C100 C101 1.372 . S
C100 C105 1.364 . S
C101 H80 0.952 . S
C101 C100 1.372 . S
C101 C102 1.389 . S
C102 H81 0.949 . S
C102 C101 1.389 . S
C102 C103 1.387 . S
C103 C102 1.387 . S
C103 C104 1.372 . S
C104 H82 0.950 . S
C104 C103 1.372 . S
C104 C105 1.379 . S
C105 H83 0.948 . S
C105 C100 1.364 . S
C105 C104 1.379 . S
C106 C75 1.383 . S
C106 C93 1.479 . S
C106 C107 1.398 . S
C107 C72 1.382 . S
C107 H84 0.951 . S
C107 C106 1.398 . S
C108 C109 1.384 . S
C108 H121 0.947 . S
C108 C143 1.382 . S
C109 C108 1.384 . S
C109 C110 1.378 . S
C110 C109 1.378 . S
C110 C111 1.378 . S
C110 H122 0.952 . S
C111 C110 1.378 . S
C111 H123 0.950 . S
C111 C142 1.383 . S
H112 C131 0.947 . S
H113 C132 0.946 . S
H114 C134 0.953 . S
H115 C135 0.945 . S
H116 C137 0.952 . S
H117 C138 0.949 . S
H118 C140 0.950 . S
H119 C141 0.948 . S
H120 C143 0.951 . S
H121 C108 0.947 . S
H122 C110 0.952 . S
H123 C111 0.950 . S
N124 C127 1.382 . S
N124 C129 1.363 . S
N125 C127 1.371 . S
N125 C128 1.372 . S
N126 C128 1.361 . S
N126 C129 1.377 . S
C127 N124 1.382 . S
C127 N125 1.371 . S
C127 C130 1.480 . S
C128 N125 1.372 . S
C128 N126 1.361 . S
C128 C136 1.457 . S
C129 N124 1.363 . S
C129 N126 1.377 . S
C129 C142 1.479 . S
C130 C127 1.480 . S
C130 C131 1.383 . S
C130 C135 1.385 . S
C131 H112 0.947 . S
C131 C130 1.383 . S
C131 C132 1.388 . S
C132 H113 0.946 . S
C132 C131 1.388 . S
C132 C133 1.384 . S
C133 C132 1.384 . S
C133 C134 1.377 . S
C134 H114 0.953 . S
C134 C133 1.377 . S
C134 C135 1.369 . S
C135 H115 0.945 . S
C135 C130 1.385 . S
C135 C134 1.369 . S
C136 C128 1.457 . S
C136 C137 1.372 . S
C136 C141 1.364 . S
C137 H116 0.952 . S
C137 C136 1.372 . S
C137 C138 1.389 . S
C138 H117 0.949 . S
C138 C137 1.389 . S
C138 C139 1.387 . S
C139 C138 1.387 . S
C139 C140 1.372 . S
C140 H118 0.950 . S
C140 C139 1.372 . S
C140 C141 1.379 . S
C141 H119 0.948 . S
C141 C136 1.364 . S
C141 C140 1.379 . S
C142 C111 1.383 . S
C142 C129 1.479 . S
C142 C143 1.398 . S
C143 C108 1.382 . S
C143 H120 0.951 . S
C143 C142 1.398 . S
O144 Zn145 1.953 1_565 S
O144 C160 1.225 . S
Zn145 O144 1.953 1_545 S
Zn145 O146 1.949 1_655 S
Zn145 O152 1.919 . S
Zn145 O157 1.924 . S
O146 Zn145 1.949 1_455 S
O146 Zn147 1.923 . S
O146 Zn148 1.950 1_445 S
O146 Zn149 1.945 . S
Zn147 O146 1.923 . S
Zn147 O150 1.933 . S
Zn147 O153 1.941 . S
Zn147 O154 1.965 1_545 S
Zn148 O146 1.950 1_665 S
Zn148 O155 1.938 1_655 S
Zn148 O156 1.906 1_655 S
Zn148 O166 1.953 . S
Zn149 O146 1.945 . S
Zn149 O151 1.932 . S
Zn149 O158 1.977 1_545 S
Zn149 O159 1.910 1_455 S
O150 Zn147 1.933 . S
O150 C161 1.226 . S
O151 Zn149 1.932 . S
O151 C161 1.307 . S
O152 Zn145 1.919 . S
O152 C163 1.253 . S
O153 Zn147 1.941 . S
O153 C163 1.283 1_455 S
O154 Zn147 1.965 1_565 S
O154 C162 1.303 . S
O155 Zn148 1.938 1_455 S
O155 C162 1.247 . S
O156 Zn148 1.906 1_455 S
O156 C164 1.304 . S
O157 Zn145 1.924 . S
O157 C165 1.311 . S
O158 Zn149 1.977 1_565 S
O158 C164 1.272 . S
O159 Zn149 1.910 1_655 S
O159 C165 1.231 . S
C160 O144 1.225 . S
C160 O166 1.298 . S
C161 O150 1.226 . S
C161 O151 1.307 . S
C162 O154 1.303 . S
C162 O155 1.247 . S
C163 O152 1.253 . S
C163 O153 1.283 1_655 S
C164 O156 1.304 . S
C164 O158 1.272 . S
C165 O157 1.311 . S
C165 O159 1.231 . S
O166 Zn148 1.953 . S
O166 C160 1.298 . S
O167 Zn168 1.953 . S
O167 C183 1.225 1_556 S
Zn168 O167 1.953 . S
Zn168 O169 1.949 1_556 S
Zn168 O175 1.919 . S
Zn168 O180 1.924 1_556 S
O169 Zn168 1.949 1_554 S
O169 Zn170 1.923 1_554 S
O169 Zn171 1.950 . S
O169 Zn172 1.945 . S
Zn170 O169 1.923 1_556 S
Zn170 O173 1.933 . S
Zn170 O176 1.941 . S
Zn170 O177 1.965 . S
Zn171 O169 1.950 . S
Zn171 O178 1.938 1_554 S
Zn171 O179 1.906 . S
Zn171 O189 1.953 . S
Zn172 O169 1.945 . S
Zn172 O174 1.932 . S
Zn172 O181 1.977 . S
Zn172 O182 1.910 . S
O173 Zn170 1.933 . S
O173 C184 1.226 1_556 S
O174 Zn172 1.932 . S
O174 C184 1.307 . S
O175 Zn168 1.919 . S
O175 C186 1.253 . S
O176 Zn170 1.941 . S
O176 C186 1.283 . S
O177 Zn170 1.965 . S
O177 C185 1.303 . S
O178 Zn171 1.938 1_556 S
O178 C185 1.247 . S
O179 Zn171 1.906 . S
O179 C187 1.304 . S
O180 Zn168 1.924 1_554 S
O180 C188 1.311 . S
O181 Zn172 1.977 . S
O181 C187 1.272 . S
O182 Zn172 1.910 . S
O182 C188 1.231 . S
C183 O167 1.225 1_554 S
C183 O189 1.298 . S
C184 O173 1.226 1_554 S
C184 O174 1.307 . S
C185 O177 1.303 . S
C185 O178 1.247 . S
C186 O175 1.253 . S
C186 O176 1.283 . S
C187 O179 1.304 . S
C187 O181 1.272 . S
C188 O180 1.311 . S
C188 O182 1.231 . S
O189 Zn171 1.953 . S
O189 C183 1.298 . S
H190 C202 0.930 . S
H191 C204 0.930 . S
H192 C205 0.930 . S
H193 C209 0.959 . S
H194 C209 0.959 . S
H195 C209 0.961 . S
H196 C210 0.960 . S
H197 C210 0.961 . S
H198 C210 0.959 . S
H199 C213 0.929 . S
H200 C214 0.931 . S
H201 C216 0.930 . S
C202 H190 0.930 . S
C202 C203 1.399 . S
C202 C207 1.399 . S
C203 C202 1.399 . S
C203 C204 1.376 . S
C204 H191 0.930 . S
C204 C203 1.376 . S
C204 C205 1.388 . S
C205 H192 0.930 . S
C205 C204 1.388 . S
C205 C206 1.390 . S
C206 C205 1.390 . S
C206 C207 1.394 . S
C206 C212 1.465 . S
C207 C202 1.399 . S
C207 C206 1.394 . S
C207 C208 1.516 . S
C208 C207 1.516 . S
C208 C209 1.502 . S
C208 C210 1.561 . S
C208 C211 1.526 . S
C209 H193 0.959 . S
C209 H194 0.959 . S
C209 H195 0.961 . S
C209 C208 1.502 . S
C210 H196 0.960 . S
C210 H197 0.961 . S
C210 H198 0.959 . S
C210 C208 1.561 . S
C211 C208 1.526 . S
C211 C212 1.396 . S
C211 C216 1.390 . S
C212 C206 1.465 . S
C212 C211 1.396 . S
C212 C213 1.399 . S
C213 H199 0.929 . S
C213 C212 1.399 . S
C213 C214 1.385 . S
C214 H200 0.931 . S
C214 C213 1.385 . S
C214 C215 1.389 . S
C215 C214 1.389 . S
C215 C216 1.387 . S
C216 H201 0.930 . S
C216 C211 1.390 . S
C216 C215 1.387 . S
H217 C229 0.930 . S
H218 C231 0.930 . S
H219 C232 0.930 . S
H220 C236 0.959 . S
H221 C236 0.959 . S
H222 C236 0.961 . S
H223 C237 0.960 . S
H224 C237 0.961 . S
H225 C237 0.959 . S
H226 C240 0.929 . S
H227 C241 0.931 . S
H228 C243 0.930 . S
C229 H217 0.930 . S
C229 C230 1.399 1_556 S
C229 C234 1.399 . S
C230 C229 1.399 1_554 S
C230 C231 1.376 . S
C231 H218 0.930 . S
C231 C230 1.376 . S
C231 C232 1.388 . S
C232 H219 0.930 . S
C232 C231 1.388 . S
C232 C233 1.390 . S
C233 C232 1.390 . S
C233 C234 1.394 1_554 S
C233 C239 1.465 . S
C234 C229 1.399 . S
C234 C233 1.394 1_556 S
C234 C235 1.516 . S
C235 C234 1.516 . S
C235 C236 1.502 . S
C235 C237 1.561 . S
C235 C238 1.526 . S
C236 H220 0.959 . S
C236 H221 0.959 . S
C236 H222 0.961 . S
C236 C235 1.502 . S
C237 H223 0.960 . S
C237 H224 0.961 . S
C237 H225 0.959 . S
C237 C235 1.561 . S
C238 C235 1.526 . S
C238 C239 1.396 1_556 S
C238 C243 1.390 . S
C239 C233 1.465 . S
C239 C238 1.396 1_554 S
C239 C240 1.399 . S
C240 H226 0.929 . S
C240 C239 1.399 . S
C240 C241 1.385 . S
C241 H227 0.931 . S
C241 C240 1.385 . S
C241 C242 1.389 . S
C242 C241 1.389 . S
C242 C243 1.387 1_554 S
C243 H228 0.930 . S
C243 C238 1.390 . S
C243 C242 1.387 1_556 S
H244 C256 0.930 . S
H245 C258 0.930 . S
H246 C259 0.930 . S
H247 C263 0.959 . S
H248 C263 0.959 . S
H249 C263 0.961 . S
H250 C264 0.960 . S
H251 C264 0.961 . S
H252 C264 0.959 . S
H253 C267 0.929 . S
H254 C268 0.931 . S
H255 C270 0.930 . S
C256 H244 0.930 . S
C256 C257 1.399 . S
C256 C261 1.399 . S
C257 C256 1.399 . S
C257 C258 1.376 . S
C258 H245 0.930 . S
C258 C257 1.376 . S
C258 C259 1.388 . S
C259 H246 0.930 . S
C259 C258 1.388 . S
C259 C260 1.390 . S
C260 C259 1.390 . S
C260 C261 1.394 . S
C260 C266 1.465 . S
C261 C256 1.399 . S
C261 C260 1.394 . S
C261 C262 1.516 . S
C262 C261 1.516 . S
C262 C263 1.502 . S
C262 C264 1.561 . S
C262 C265 1.526 . S
C263 H247 0.959 . S
C263 H248 0.959 . S
C263 H249 0.961 . S
C263 C262 1.502 . S
C264 H250 0.960 . S
C264 H251 0.961 . S
C264 H252 0.959 . S
C264 C262 1.561 . S
C265 C262 1.526 . S
C265 C266 1.396 . S
C265 C270 1.390 . S
C266 C260 1.465 . S
C266 C265 1.396 . S
C266 C267 1.399 . S
C267 H253 0.929 . S
C267 C266 1.399 . S
C267 C268 1.385 . S
C268 H254 0.931 . S
C268 C267 1.385 . S
C268 C269 1.389 . S
C269 C268 1.389 . S
C269 C270 1.387 . S
C270 H255 0.930 . S
C270 C265 1.390 . S
C270 C269 1.387 . S
H271 C283 0.930 . S
H272 C285 0.930 . S
H273 C286 0.930 . S
H274 C290 0.959 . S
H275 C290 0.959 . S
H276 C290 0.961 . S
H277 C291 0.960 . S
H278 C291 0.961 . S
H279 C291 0.959 . S
H280 C294 0.929 . S
H281 C295 0.931 . S
H282 C297 0.930 . S
C283 H271 0.930 . S
C283 C284 1.399 1_556 S
C283 C288 1.399 . S
C284 C283 1.399 1_554 S
C284 C285 1.376 . S
C285 H272 0.930 . S
C285 C284 1.376 . S
C285 C286 1.388 . S
C286 H273 0.930 . S
C286 C285 1.388 . S
C286 C287 1.390 . S
C287 C286 1.390 . S
C287 C288 1.394 1_554 S
C287 C293 1.465 . S
C288 C283 1.399 . S
C288 C287 1.394 1_556 S
C288 C289 1.516 . S
C289 C288 1.516 . S
C289 C290 1.502 . S
C289 C291 1.561 . S
C289 C292 1.526 . S
C290 H274 0.959 . S
C290 H275 0.959 . S
C290 H276 0.961 . S
C290 C289 1.502 . S
C291 H277 0.960 . S
C291 H278 0.961 . S
C291 H279 0.959 . S
C291 C289 1.561 . S
C292 C289 1.526 . S
C292 C293 1.396 1_556 S
C292 C297 1.390 . S
C293 C287 1.465 . S
C293 C292 1.396 1_554 S
C293 C294 1.399 . S
C294 H280 0.929 . S
C294 C293 1.399 . S
C294 C295 1.385 . S
C295 H281 0.931 . S
C295 C294 1.385 . S
C295 C296 1.389 . S
C296 C295 1.389 . S
C296 C297 1.387 1_554 S
C297 H282 0.930 . S
C297 C292 1.390 . S
C297 C296 1.387 1_556 S
H298 C310 0.930 . S
H299 C312 0.930 . S
H300 C313 0.930 . S
H301 C317 0.959 1_655 S
H302 C317 0.959 1_655 S
H303 C317 0.961 1_655 S
H304 C318 0.960 . S
H305 C318 0.961 . S
H306 C318 0.959 . S
H307 C321 0.929 . S
H308 C322 0.931 . S
H309 C324 0.930 . S
C310 H298 0.930 . S
C310 C311 1.399 . S
C310 C315 1.399 . S
C311 C310 1.399 . S
C311 C312 1.376 . S
C312 H299 0.930 . S
C312 C311 1.376 . S
C312 C313 1.388 . S
C313 H300 0.930 . S
C313 C312 1.388 . S
C313 C314 1.390 . S
C314 C313 1.390 . S
C314 C315 1.394 . S
C314 C320 1.465 . S
C315 C310 1.399 . S
C315 C314 1.394 . S
C315 C316 1.516 . S
C316 C315 1.516 . S
C316 C317 1.502 . S
C316 C318 1.561 . S
C316 C319 1.526 . S
C317 H301 0.959 1_455 S
C317 H302 0.959 1_455 S
C317 H303 0.961 1_455 S
C317 C316 1.502 . S
C318 H304 0.960 . S
C318 H305 0.961 . S
C318 H306 0.959 . S
C318 C316 1.561 . S
C319 C316 1.526 . S
C319 C320 1.396 . S
C319 C324 1.390 . S
C320 C314 1.465 . S
C320 C319 1.396 . S
C320 C321 1.399 . S
C321 H307 0.929 . S
C321 C320 1.399 . S
C321 C322 1.385 . S
C322 H308 0.931 . S
C322 C321 1.385 . S
C322 C323 1.389 . S
C323 C322 1.389 . S
C323 C324 1.387 . S
C324 H309 0.930 . S
C324 C319 1.390 . S
C324 C323 1.387 . S
H325 C337 0.930 . S
H326 C339 0.930 . S
H327 C340 0.930 . S
H328 C344 0.959 . S
H329 C344 0.959 . S
H330 C344 0.961 . S
H331 C345 0.960 . S
H332 C345 0.961 . S
H333 C345 0.959 . S
H334 C348 0.929 . S
H335 C349 0.931 . S
H336 C351 0.930 . S
C337 H325 0.930 . S
C337 C338 1.399 . S
C337 C342 1.399 . S
C338 C337 1.399 . S
C338 C339 1.376 . S
C339 H326 0.930 . S
C339 C338 1.376 . S
C339 C340 1.388 . S
C340 H327 0.930 . S
C340 C339 1.388 . S
C340 C341 1.390 . S
C341 C340 1.390 . S
C341 C342 1.394 . S
C341 C347 1.465 . S
C342 C337 1.399 . S
C342 C341 1.394 . S
C342 C343 1.516 . S
C343 C342 1.516 . S
C343 C344 1.502 . S
C343 C345 1.561 . S
C343 C346 1.526 . S
C344 H328 0.959 . S
C344 H329 0.959 . S
C344 H330 0.961 . S
C344 C343 1.502 . S
C345 H331 0.960 . S
C345 H332 0.961 . S
C345 H333 0.959 . S
C345 C343 1.561 . S
C346 C343 1.526 . S
C346 C347 1.396 . S
C346 C351 1.390 . S
C347 C341 1.465 . S
C347 C346 1.396 . S
C347 C348 1.399 . S
C348 H334 0.929 . S
C348 C347 1.399 . S
C348 C349 1.385 . S
C349 H335 0.931 . S
C349 C348 1.385 . S
C349 C350 1.389 . S
C350 C349 1.389 . S
C350 C351 1.387 . S
C351 H336 0.930 . S
C351 C346 1.390 . S
C351 C350 1.387 . S
H352 C364 0.930 . S
H353 C366 0.930 . S
H354 C367 0.930 . S
H355 C371 0.959 . S
H356 C371 0.959 . S
H357 C371 0.961 . S
H358 C372 0.960 1_455 S
H359 C372 0.961 1_455 S
H360 C372 0.959 1_455 S
H361 C375 0.929 . S
H362 C376 0.931 . S
H363 C378 0.930 . S
C364 H352 0.930 . S
C364 C365 1.399 . S
C364 C369 1.399 . S
C365 C364 1.399 . S
C365 C366 1.376 . S
C366 H353 0.930 . S
C366 C365 1.376 . S
C366 C367 1.388 . S
C367 H354 0.930 . S
C367 C366 1.388 . S
C367 C368 1.390 . S
C368 C367 1.390 . S
C368 C369 1.394 . S
C368 C374 1.465 . S
C369 C364 1.399 . S
C369 C368 1.394 . S
C369 C370 1.516 . S
C370 C369 1.516 . S
C370 C371 1.502 . S
C370 C372 1.561 . S
C370 C373 1.526 . S
C371 H355 0.959 . S
C371 H356 0.959 . S
C371 H357 0.961 . S
C371 C370 1.502 . S
C372 H358 0.960 1_655 S
C372 H359 0.961 1_655 S
C372 H360 0.959 1_655 S
C372 C370 1.561 . S
C373 C370 1.526 . S
C373 C374 1.396 . S
C373 C378 1.390 . S
C374 C368 1.465 . S
C374 C373 1.396 . S
C374 C375 1.399 . S
C375 H361 0.929 . S
C375 C374 1.399 . S
C375 C376 1.385 . S
C376 H362 0.931 . S
C376 C375 1.385 . S
C376 C377 1.389 . S
C377 C376 1.389 . S
C377 C378 1.387 . S
C378 H363 0.930 . S
C378 C373 1.390 . S
C378 C377 1.387 . S
H379 C391 0.930 . S
H380 C393 0.930 . S
H381 C394 0.930 . S
H382 C398 0.959 . S
H383 C398 0.959 . S
H384 C398 0.961 . S
H385 C399 0.960 . S
H386 C399 0.961 . S
H387 C399 0.959 . S
H388 C402 0.929 . S
H389 C403 0.931 . S
H390 C405 0.930 . S
C391 H379 0.930 . S
C391 C392 1.399 . S
C391 C396 1.399 . S
C392 C391 1.399 . S
C392 C393 1.376 . S
C393 H380 0.930 . S
C393 C392 1.376 . S
C393 C394 1.388 . S
C394 H381 0.930 . S
C394 C393 1.388 . S
C394 C395 1.390 . S
C395 C394 1.390 . S
C395 C396 1.394 . S
C395 C401 1.465 . S
C396 C391 1.399 . S
C396 C395 1.394 . S
C396 C397 1.516 . S
C397 C396 1.516 . S
C397 C398 1.502 . S
C397 C399 1.561 . S
C397 C400 1.526 . S
C398 H382 0.959 . S
C398 H383 0.959 . S
C398 H384 0.961 . S
C398 C397 1.502 . S
C399 H385 0.960 . S
C399 H386 0.961 . S
C399 H387 0.959 . S
C399 C397 1.561 . S
C400 C397 1.526 . S
C400 C401 1.396 . S
C400 C405 1.390 . S
C401 C395 1.465 . S
C401 C400 1.396 . S
C401 C402 1.399 . S
C402 H388 0.929 . S
C402 C401 1.399 . S
C402 C403 1.385 . S
C403 H389 0.931 . S
C403 C402 1.385 . S
C403 C404 1.389 . S
C404 C403 1.389 . S
C404 C405 1.387 . S
C405 H390 0.930 . S
C405 C400 1.390 . S
C405 C404 1.387 . S
H406 C418 0.930 . S
H407 C420 0.930 . S
H408 C421 0.930 . S
H409 C425 0.959 . S
H410 C425 0.959 . S
H411 C425 0.961 . S
H412 C426 0.960 . S
H413 C426 0.961 . S
H414 C426 0.959 . S
H415 C429 0.929 . S
H416 C430 0.931 . S
H417 C432 0.930 . S
C418 H406 0.930 . S
C418 C419 1.399 . S
C418 C423 1.399 . S
C419 C418 1.399 . S
C419 C420 1.376 . S
C420 H407 0.930 . S
C420 C419 1.376 . S
C420 C421 1.388 . S
C421 H408 0.930 . S
C421 C420 1.388 . S
C421 C422 1.390 . S
C422 C421 1.390 . S
C422 C423 1.394 . S
C422 C428 1.465 . S
C423 C418 1.399 . S
C423 C422 1.394 . S
C423 C424 1.516 . S
C424 C423 1.516 . S
C424 C425 1.502 . S
C424 C426 1.561 . S
C424 C427 1.526 . S
C425 H409 0.959 . S
C425 H410 0.959 . S
C425 H411 0.961 . S
C425 C424 1.502 . S
C426 H412 0.960 . S
C426 H413 0.961 . S
C426 H414 0.959 . S
C426 C424 1.561 . S
C427 C424 1.526 . S
C427 C428 1.396 . S
C427 C432 1.390 . S
C428 C422 1.465 . S
C428 C427 1.396 . S
C428 C429 1.399 . S
C429 H415 0.929 . S
C429 C428 1.399 . S
C429 C430 1.385 . S
C430 H416 0.931 . S
C430 C429 1.385 . S
C430 C431 1.389 . S
C431 C430 1.389 . S
C431 C432 1.387 . S
C432 H417 0.930 . S
C432 C427 1.390 . S
C432 C431 1.387 . S
H433 C445 0.930 . S
H434 C447 0.930 . S
H435 C448 0.930 1_455 S
H436 C452 0.959 . S
H437 C452 0.959 . S
H438 C452 0.961 . S
H439 C453 0.960 . S
H440 C453 0.961 . S
H441 C453 0.959 . S
H442 C456 0.929 . S
H443 C457 0.931 . S
H444 C459 0.930 . S
C445 H433 0.930 . S
C445 C446 1.399 . S
C445 C450 1.399 . S
C446 C445 1.399 . S
C446 C447 1.376 . S
C447 H434 0.930 . S
C447 C446 1.376 . S
C447 C448 1.388 . S
C448 H435 0.930 1_655 S
C448 C447 1.388 . S
C448 C449 1.390 . S
C449 C448 1.390 . S
C449 C450 1.394 . S
C449 C455 1.465 . S
C450 C445 1.399 . S
C450 C449 1.394 . S
C450 C451 1.516 . S
C451 C450 1.516 . S
C451 C452 1.502 . S
C451 C453 1.561 . S
C451 C454 1.526 . S
C452 H436 0.959 . S
C452 H437 0.959 . S
C452 H438 0.961 . S
C452 C451 1.502 . S
C453 H439 0.960 . S
C453 H440 0.961 . S
C453 H441 0.959 . S
C453 C451 1.561 . S
C454 C451 1.526 . S
C454 C455 1.396 . S
C454 C459 1.390 . S
C455 C449 1.465 . S
C455 C454 1.396 . S
C455 C456 1.399 1_655 S
C456 H442 0.929 . S
C456 C455 1.399 1_455 S
C456 C457 1.385 . S
C457 H443 0.931 . S
C457 C456 1.385 . S
C457 C458 1.389 1_455 S
C458 C457 1.389 1_655 S
C458 C459 1.387 . S
C459 H444 0.930 . S
C459 C454 1.390 . S
C459 C458 1.387 . S
H460 C472 0.930 . S
H461 C474 0.930 . S
H462 C475 0.930 . S
H463 C479 0.959 . S
H464 C479 0.959 . S
H465 C479 0.961 . S
H466 C480 0.960 . S
H467 C480 0.961 . S
H468 C480 0.959 . S
H469 C483 0.929 . S
H470 C484 0.931 . S
H471 C486 0.930 . S
C472 H460 0.930 . S
C472 C473 1.399 . S
C472 C477 1.399 . S
C473 C472 1.399 . S
C473 C474 1.376 . S
C474 H461 0.930 . S
C474 C473 1.376 . S
C474 C475 1.388 . S
C475 H462 0.930 . S
C475 C474 1.388 . S
C475 C476 1.390 . S
C476 C475 1.390 . S
C476 C477 1.394 . S
C476 C482 1.465 . S
C477 C472 1.399 . S
C477 C476 1.394 . S
C477 C478 1.516 . S
C478 C477 1.516 . S
C478 C479 1.502 . S
C478 C480 1.561 . S
C478 C481 1.526 . S
C479 H463 0.959 . S
C479 H464 0.959 . S
C479 H465 0.961 . S
C479 C478 1.502 . S
C480 H466 0.960 . S
C480 H467 0.961 . S
C480 H468 0.959 . S
C480 C478 1.561 . S
C481 C478 1.526 . S
C481 C482 1.396 . S
C481 C486 1.390 . S
C482 C476 1.465 . S
C482 C481 1.396 . S
C482 C483 1.399 . S
C483 H469 0.929 . S
C483 C482 1.399 . S
C483 C484 1.385 . S
C484 H470 0.931 . S
C484 C483 1.385 . S
C484 C485 1.389 . S
C485 C484 1.389 . S
C485 C486 1.387 . S
C486 H471 0.930 . S
C486 C481 1.390 . S
C486 C485 1.387 . S
H487 C499 0.930 . S
H488 C501 0.930 . S
H489 C502 0.930 . S
H490 C506 0.959 . S
H491 C506 0.959 . S
H492 C506 0.961 . S
H493 C507 0.960 . S
H494 C507 0.961 . S
H495 C507 0.959 . S
H496 C510 0.929 . S
H497 C511 0.931 . S
H498 C513 0.930 . S
C499 H487 0.930 . S
C499 C500 1.399 . S
C499 C504 1.399 . S
C500 C499 1.399 . S
C500 C501 1.376 . S
C501 H488 0.930 . S
C501 C500 1.376 . S
C501 C502 1.388 . S
C502 H489 0.930 . S
C502 C501 1.388 . S
C502 C503 1.390 . S
C503 C502 1.390 . S
C503 C504 1.394 . S
C503 C509 1.465 . S
C504 C499 1.399 . S
C504 C503 1.394 . S
C504 C505 1.516 . S
C505 C504 1.516 . S
C505 C506 1.502 . S
C505 C507 1.561 1_455 S
C505 C508 1.526 . S
C506 H490 0.959 . S
C506 H491 0.959 . S
C506 H492 0.961 . S
C506 C505 1.502 . S
C507 H493 0.960 . S
C507 H494 0.961 . S
C507 H495 0.959 . S
C507 C505 1.561 1_655 S
C508 C505 1.526 . S
C508 C509 1.396 . S
C508 C513 1.390 . S
C509 C503 1.465 . S
C509 C508 1.396 . S
C509 C510 1.399 . S
C510 H496 0.929 . S
C510 C509 1.399 . S
C510 C511 1.385 . S
C511 H497 0.931 . S
C511 C510 1.385 . S
C511 C512 1.389 . S
C512 C511 1.389 . S
C512 C513 1.387 . S
C513 H498 0.930 . S
C513 C508 1.390 . S
C513 C512 1.387 . S
C215 C161 1.652 . S
C203 C133 1.619 . S
C230 C25 1.559 . S
C242 C184 1.650 . S
C257 C61 1.578 . S
C269 C160 1.664 . S
C284 C97 1.634 . S
C296 C183 1.665 . S
C323 C164 1.650 . S
C311 C1 1.588 . S
C350 C186 1.653 . S
C338 C67 1.637 . S
C365 C103 1.704 . S
C377 C165 1.606 . S
C392 C109 1.611 . S
C404 C185 1.609 . S
C431 C188 1.658 . S
C419 C37 1.599 . S
C458 C163 1.643 . S
C446 C73 1.653 . S
C485 C187 1.587 . S
C473 C139 1.680 . S
C500 C31 1.550 . S
C512 C162 1.602 . S
