# Generated by pormake.
# Topology anh, (6,3)-cn, num edge types: 1
# Building blocks:
#     Node 0, Type 0, BuildingBlock: BETFEN_clean_sbu_0, # of connection points: 6
#     Node 1, Type 0, BuildingBlock: BETFEN_clean_sbu_0, # of connection points: 6
#     Node 2, Type 0, BuildingBlock: BETFEN_clean_sbu_0, # of connection points: 6
#     Node 3, Type 1, BuildingBlock: MIDCAF_clean_linker_0, # of connection points: 3
#     Node 4, Type 1, BuildingBlock: MIDCAF_clean_linker_0, # of connection points: 3
#     Node 5, Type 1, BuildingBlock: MIDCAF_clean_linker_0, # of connection points: 3
#     Node 6, Type 1, BuildingBlock: MIDCAF_clean_linker_0, # of connection points: 3
#     Node 7, Type 1, BuildingBlock: MIDCAF_clean_linker_0, # of connection points: 3
#     Node 8, Type 1, BuildingBlock: MIDCAF_clean_linker_0, # of connection points: 3
#     Edge 9, Type (0, 1), BuildingBlock: XUDNAN_clean_linker_2, # of connection points: 2
#     Edge 10, Type (0, 1), BuildingBlock: XUDNAN_clean_linker_2, # of connection points: 2
#     Edge 11, Type (0, 1), BuildingBlock: XUDNAN_clean_linker_2, # of connection points: 2
#     Edge 12, Type (0, 1), BuildingBlock: XUDNAN_clean_linker_2, # of connection points: 2
#     Edge 13, Type (0, 1), BuildingBlock: XUDNAN_clean_linker_2, # of connection points: 2
#     Edge 14, Type (0, 1), BuildingBlock: XUDNAN_clean_linker_2, # of connection points: 2
#     Edge 15, Type (0, 1), BuildingBlock: XUDNAN_clean_linker_2, # of connection points: 2
#     Edge 16, Type (0, 1), BuildingBlock: XUDNAN_clean_linker_2, # of connection points: 2
#     Edge 17, Type (0, 1), BuildingBlock: XUDNAN_clean_linker_2, # of connection points: 2
#     Edge 18, Type (0, 1), BuildingBlock: XUDNAN_clean_linker_2, # of connection points: 2
#     Edge 19, Type (0, 1), BuildingBlock: XUDNAN_clean_linker_2, # of connection points: 2
#     Edge 20, Type (0, 1), BuildingBlock: XUDNAN_clean_linker_2, # of connection points: 2
#     Edge 21, Type (0, 1), BuildingBlock: XUDNAN_clean_linker_2, # of connection points: 2
#     Edge 22, Type (0, 1), BuildingBlock: XUDNAN_clean_linker_2, # of connection points: 2
#     Edge 23, Type (0, 1), BuildingBlock: XUDNAN_clean_linker_2, # of connection points: 2
#     Edge 24, Type (0, 1), BuildingBlock: XUDNAN_clean_linker_2, # of connection points: 2
#     Edge 25, Type (0, 1), BuildingBlock: XUDNAN_clean_linker_2, # of connection points: 2
#     Edge 26, Type (0, 1), BuildingBlock: XUDNAN_clean_linker_2, # of connection points: 2
# Relax obj value: 0.184
# Max RMSD: 0.208
# Mean RMSD: 0.156
data_MOF--net-anh--node1-BETFEN_clean_sbu_0--node2-MIDCAF_clean_linker_0--edge1-XUDNAN_clean_linker_2
_symmetry_space_group_name_H-M    P1
_symmetry_Int_Tables_number       1
_symmetry_cell_setting            triclinic
loop_
_symmetry_equiv_pos_as_xyz
'x, y, z'
_cell_length_a     35.623586
_cell_length_b     37.515055
_cell_length_c     66.501086
_cell_angle_alpha  90.363576
_cell_angle_beta   92.103869
_cell_angle_gamma 106.64104
loop_
_atom_site_label
_atom_site_type_symbol
_atom_site_fract_x
_atom_site_fract_y
_atom_site_fract_z
_atom_type_partial_charge
Pr0 Pr 0.04018 0.516 0.15024 0.0
Pr1 Pr 0.06358 0.60684 0.14927 0.0
C2 C 1.00552 0.44329 0.15654 0.0
C3 C 0.96807 0.42038 0.16425 0.0
C4 C 0.95006 0.38512 0.15565 0.0
C5 C 0.91336 0.36386 0.16184 0.0
C6 C 0.89383 0.37743 0.17683 0.0
C7 C 0.91235 0.41271 0.1856 0.0
C8 C 0.94896 0.43402 0.17931 0.0
C9 C 0.05553 0.54883 0.11285 0.0
C10 C 0.97001 0.56071 0.15146 0.0
C11 C 0.09131 0.67746 0.13714 0.0
C12 C 0.1247 0.71024 0.14257 0.0
C13 C 0.14075 0.71625 0.16234 0.0
C14 C 0.17265 0.74735 0.16716 0.0
C15 C 0.18934 0.77299 0.15228 0.0
C16 C 0.17337 0.76643 0.13244 0.0
C17 C 0.14139 0.73545 0.12767 0.0
C18 C 0.06302 0.58224 0.18907 0.0
C19 C 0.13402 0.56164 0.15227 0.0
O20 O 0.03071 0.46484 0.16952 0.0
O21 O 1.00299 0.4592 0.13929 0.0
O22 O 0.037 0.55936 0.12642 0.0
O23 O 0.06502 0.51903 0.11797 0.0
O24 O 0.99491 0.59232 0.14587 0.0
O25 O 0.98149 0.53098 0.156 0.0
O26 O 0.10004 0.64949 0.12849 0.0
O27 O 0.06382 0.66713 0.1503 0.0
O28 O 0.05615 0.56299 0.17314 0.0
O29 O 0.0709 0.61725 0.18465 0.0
O30 O 0.10819 0.52914 0.1556 0.0
O31 O 0.12373 0.59223 0.14815 0.0
H32 H 0.96412 0.37425 0.14385 0.0
H33 H 0.8999 0.33718 0.15449 0.0
H34 H 0.89863 0.42394 0.19738 0.0
H35 H 0.96214 0.46131 0.18608 0.0
H36 H 0.12855 0.69695 0.17408 0.0
H37 H 0.1838 0.75159 0.18263 0.0
H38 H 0.18581 0.78506 0.12048 0.0
H39 H 0.12976 0.73109 0.11228 0.0
Pr40 Pr 0.58419 0.06828 0.523 0.0
Pr41 Pr 0.49703 0.03916 0.52393 0.0
C42 C 0.65848 0.10291 0.51342 0.0
C43 C 0.68478 0.14094 0.51087 0.0
C44 C 0.69826 0.16557 0.52734 0.0
C45 C 0.72369 0.20113 0.52451 0.0
C46 C 0.73617 0.21284 0.50518 0.0
C47 C 0.7224 0.18817 0.48875 0.0
C48 C 0.69719 0.15262 0.49159 0.0
C49 C 0.55657 0.0522 0.56131 0.0
C50 C 0.53238 0.13236 0.52581 0.0
C51 C 0.4219 1.00288 0.53118 0.0
C52 C 0.39576 0.96487 0.52787 0.0
C53 C 0.35623 0.9596 0.52224 0.0
C54 C 0.33146 0.92382 0.51806 0.0
C55 C 0.34582 0.89263 0.51947 0.0
C56 C 0.38544 0.89803 0.52532 0.0
C57 C 0.41019 0.93382 0.52943 0.0
C58 C 0.5252 0.05077 0.48515 0.0
C59 C 0.54907 0.97503 0.52328 0.0
O60 O 0.62967 0.09125 0.49998 0.0
O61 O 0.64864 0.09217 0.53167 0.0
O62 O 0.54196 0.06903 0.54817 0.0
O63 O 0.58766 0.0445 0.55517 0.0
O64 O 0.50161 0.10341 0.52919 0.0
O65 O 0.56633 0.12619 0.52165 0.0
O66 O 0.4507 1.00713 0.54462 0.0
O67 O 0.43226 1.02228 0.51501 0.0
O68 O 0.53936 1.03558 0.49919 0.0
O69 O 0.49482 0.06019 0.4908 0.0
O70 O 0.57996 1.00369 0.51958 0.0
O71 O 0.51498 0.98149 0.52674 0.0
H72 H 0.68939 0.15738 0.54243 0.0
H73 H 0.73408 0.2192 0.53754 0.0
H74 H 0.73082 0.1964 0.4736 0.0
H75 H 0.68734 0.13419 0.47863 0.0
H76 H 0.34458 0.98322 0.52091 0.0
H77 H 0.301 0.92056 0.51382 0.0
H78 H 0.39754 0.87468 0.52632 0.0
H79 H 0.44068 0.93721 0.5336 0.0
Pr80 Pr 0.56722 0.55028 0.82053 0.0
Pr81 Pr 0.58603 0.63111 0.83116 0.0
C82 C 0.56122 0.4817 0.80598 0.0
C83 C 0.5697 0.44792 0.81313 0.0
C84 C 0.57806 0.44378 0.83363 0.0
C85 C 0.57971 0.40928 0.84079 0.0
C86 C 0.57309 0.37858 0.82751 0.0
C87 C 0.56712 0.38371 0.8068 0.0
C88 C 0.56541 0.41812 0.7997 0.0
C89 C 0.56572 0.56453 0.86181 0.0
C90 C 0.66185 0.59979 0.8288 0.0
C91 C 0.58677 0.69745 0.84689 0.0
C92 C 0.55518 0.714 0.85145 0.0
C93 C 0.55518 0.74788 0.84271 0.0
C94 C 0.52189 0.76029 0.84319 0.0
C95 C 0.48822 0.73919 0.8526 0.0
C96 C 0.48928 0.70687 0.86277 0.0
C97 C 0.52242 0.6941 0.86204 0.0
C98 C 0.59386 0.61757 0.7905 0.0
C99 C 0.49294 0.58325 0.82166 0.0
O100 O 0.59125 0.51039 0.8028 0.0
O101 O 0.53293 0.49041 0.81491 0.0
O102 O 0.59099 0.58215 0.85007 0.0
O103 O 0.54083 0.53657 0.85264 0.0
O104 O 0.64961 0.62701 0.83621 0.0
O105 O 0.63688 0.56942 0.82071 0.0
O106 O 0.5897 0.66958 0.85795 0.0
O107 O 0.591 0.69219 0.82775 0.0
O108 O 0.56541 0.59952 0.80064 0.0
O109 O 0.61816 0.64405 0.8011 0.0
O110 O 0.50668 0.55971 0.81155 0.0
O111 O 0.51706 0.60983 0.83284 0.0
H112 H 0.58152 0.46673 0.84418 0.0
H113 H 0.58458 0.40622 0.85678 0.0
H114 H 0.56118 0.36057 0.79619 0.0
H115 H 0.55878 0.42092 0.78385 0.0
H116 H 0.58008 0.76362 0.83449 0.0
H117 H 0.52175 0.78553 0.83539 0.0
H118 H 0.46363 0.69024 0.8701 0.0
H119 H 0.52151 0.66771 0.86884 0.0
C120 C 0.42668 0.96297 0.22725 0.0
C121 C 0.42163 0.96778 0.20648 0.0
C122 C 0.44894 0.99717 0.19717 0.0
C123 C 0.47984 1.02165 0.20842 0.0
H124 H 0.59878 0.10524 0.20741 0.0
H125 H 0.64904 0.15805 0.19391 0.0
H126 H 0.65108 0.22064 0.24879 0.0
H127 H 0.60178 0.16817 0.26237 0.0
H128 H 0.56733 0.1227 0.30252 0.0
H129 H 0.5699 0.11619 0.33913 0.0
H130 H 0.52291 0.99713 0.33205 0.0
H131 H 0.51937 1.00351 0.29547 0.0
H132 H 0.45975 0.98299 0.25451 0.0
H133 H 0.40606 0.941 0.23503 0.0
H134 H 0.44633 1.00142 0.18114 0.0
H135 H 0.49986 0.04427 0.20078 0.0
N136 N 0.54117 0.07419 0.23319 0.0
N137 N 0.56762 0.09675 0.26525 0.0
N138 N 0.51612 0.04161 0.26212 0.0
C139 C 0.56759 0.10026 0.24492 0.0
C140 C 0.54225 0.06741 0.27394 0.0
C141 C 0.51503 0.04484 0.24175 0.0
C142 C 0.59629 0.13248 0.23597 0.0
C143 C 0.60983 0.13038 0.21651 0.0
C144 C 0.63874 0.16044 0.20884 0.0
C145 C 0.65389 0.19342 0.2203 0.0
C146 C 0.63976 0.19568 0.23956 0.0
C147 C 0.61161 0.16552 0.24736 0.0
C148 C 0.54318 0.0636 0.29611 0.0
C149 C 0.55743 0.09514 0.30877 0.0
C150 C 0.55873 0.09149 0.32969 0.0
C151 C 0.54668 0.05618 0.33832 0.0
C152 C 0.53251 1.02465 0.32571 0.0
C153 C 0.53035 1.02834 0.30482 0.0
C154 C 0.48421 1.0174 0.22931 0.0
C155 C 0.45749 0.98737 0.23848 0.0
C156 C 0.51236 0.425 0.52396 0.0
C157 C 0.53781 0.40624 0.53334 0.0
C158 C 0.56822 0.4287 0.54601 0.0
C159 C 0.57169 0.46687 0.54994 0.0
H160 H 0.57953 0.62893 0.51621 0.0
H161 H 0.58323 0.69366 0.5082 0.0
H162 H 0.49979 0.69431 0.55347 0.0
H163 H 0.49552 0.62981 0.56087 0.0
H164 H 0.57238 0.62462 0.6017 0.0
H165 H 0.58593 0.63317 0.63776 0.0
H166 H 0.55846 0.51437 0.64474 0.0
H167 H 0.54513 0.50541 0.60823 0.0
H168 H 0.49479 0.47565 0.52085 0.0
H169 H 0.48867 0.40969 0.51384 0.0
H170 H 0.58852 0.41639 0.5538 0.0
H171 H 0.59452 0.48186 0.56063 0.0
N172 N 0.54059 0.55373 0.53868 0.0
N173 N 0.54623 0.58866 0.56887 0.0
N174 N 0.55064 0.52774 0.57012 0.0
C175 C 0.5411 0.58689 0.54856 0.0
C176 C 0.55105 0.55983 0.57975 0.0
C177 C 0.54536 0.52359 0.54975 0.0
C178 C 0.53658 0.6228 0.539 0.0
C179 C 0.56084 0.64229 0.52395 0.0
C180 C 0.56355 0.68029 0.51969 0.0
C181 C 0.54234 0.70097 0.53033 0.0
C182 C 0.51669 0.68062 0.54463 0.0
C183 C 0.51411 0.64291 0.54888 0.0
C184 C 0.55786 0.56428 0.60195 0.0
C185 C 0.56896 0.60014 0.6108 0.0
C186 C 0.57683 0.60513 0.63149 0.0
C187 C 0.57337 0.57446 0.64399 0.0
C188 C 0.5612 0.53846 0.6354 0.0
C189 C 0.55385 0.53341 0.61451 0.0
C190 C 0.54556 0.48532 0.54117 0.0
C191 C 0.51619 0.46353 0.52771 0.0
C192 C 0.9346 0.5619 0.86102 0.0
C193 C 0.93348 0.58484 0.84454 0.0
C194 C 0.96897 0.60236 0.83531 0.0
C195 C 1.00487 0.59847 0.84306 0.0
H196 H 0.12416 0.57063 0.83333 0.0
H197 H 0.18584 0.5688 0.8188 0.0
H198 H 0.24469 0.5943 0.87728 0.0
H199 H 0.18401 0.59679 0.89161 0.0
H200 H 0.1352 0.58061 0.93105 0.0
H201 H 0.13385 0.58542 0.9677 0.0
H202 H 1.01654 0.5964 0.96236 0.0
H203 H 1.01775 0.59185 0.92596 0.0
H204 H 0.97015 0.54204 0.88224 0.0
H205 H 0.90806 0.54824 0.86863 0.0
H206 H 0.96911 0.62 0.82247 0.0
H207 H 0.03181 0.61363 0.83624 0.0
N208 N 0.0774 0.58085 0.86211 0.0
N209 N 0.11048 0.58446 0.89373 0.0
N210 N 0.04385 0.58059 0.89193 0.0
C211 C 0.11116 0.58314 0.87327 0.0
C212 C 0.07705 0.58335 0.90317 0.0
C213 C 0.04349 0.57932 0.87153 0.0
C214 C 0.14873 0.58373 0.86371 0.0
C215 C 0.15033 0.57617 0.84304 0.0
C216 C 0.18573 0.57489 0.83473 0.0
C217 C 0.22049 0.58142 0.84683 0.0
C218 C 0.21888 0.58966 0.86737 0.0
C219 C 0.18369 0.59077 0.87565 0.0
C220 C 0.07661 0.58586 0.92547 0.0
C221 C 0.10913 0.58409 0.93768 0.0
C222 C 0.10833 0.5867 0.95869 0.0
C223 C 0.07518 0.59152 0.96791 0.0
C224 C 0.04275 0.59327 0.95571 0.0
C225 C 0.04339 0.59036 0.9348 0.0
C226 C 1.00599 0.57751 0.86038 0.0
C227 C 0.97033 0.5585 0.8689 0.0
C228 C 0.15676 0.66301 0.44297 0.0
C229 C 0.1576 0.66391 0.46411 0.0
C230 C 0.13016 0.63586 0.47415 0.0
C231 C 0.10261 0.60749 0.4633 0.0
H232 H 1.00579 0.51717 0.47026 0.0
H233 H 0.95659 0.46949 0.48742 0.0
H234 H 0.91466 0.41387 0.43042 0.0
H235 H 0.96396 0.46097 0.41327 0.0
H236 H 0.99758 0.49636 0.37343 0.0
H237 H 0.99901 0.49343 0.33694 0.0
H238 H 0.10214 0.58833 0.33836 0.0
H239 H 0.10033 0.5919 0.37486 0.0
H240 H 0.12976 0.63477 0.41584 0.0
H241 H 0.17778 0.68397 0.43478 0.0
H242 H 0.12971 0.636 0.49043 0.0
H243 H 0.08196 0.58638 0.47157 0.0
N244 N 0.04544 0.54973 0.44025 0.0
N245 N 1.0204 0.52039 0.40939 0.0
N246 N 0.07386 0.57414 0.41018 0.0
C247 C 1.01902 0.52179 0.42976 0.0
C248 C 0.04768 0.5464 0.39946 0.0
C249 C 0.07297 0.57605 0.43058 0.0
C250 C 0.98901 0.49301 0.44034 0.0
C251 C 0.98614 0.49478 0.46136 0.0
C252 C 0.95779 0.46754 0.47121 0.0
C253 C 0.93177 0.43784 0.4603 0.0
C254 C 0.93462 0.43609 0.43931 0.0
C255 C 0.96282 0.46331 0.42946 0.0
C256 C 0.04882 0.54442 0.37718 0.0
C257 C 1.02063 0.51665 0.36602 0.0
C258 C 1.02156 0.51479 0.34506 0.0
C259 C 0.05072 0.5406 0.3347 0.0
C260 C 0.07897 0.5683 0.34583 0.0
C261 C 0.07802 0.57021 0.36681 0.0
C262 C 0.1019 0.60642 0.44213 0.0
C263 C 0.12931 0.63461 0.43211 0.0
C264 C 0.44487 0.12757 0.78888 0.0
C265 C 0.44899 0.12558 0.80992 0.0
C266 C 0.42795 0.09316 0.81953 0.0
C267 C 0.40407 0.06302 0.80826 0.0
H268 H 0.33549 0.95893 0.81386 0.0
H269 H 0.32532 0.9009 0.83123 0.0
H270 H 0.2934 0.84038 0.77469 0.0
H271 H 0.30543 0.89903 0.75702 0.0
H272 H 0.36148 0.93789 0.72014 0.0
H273 H 0.38869 0.93662 0.68705 0.0
H274 H 0.42176 0.05665 0.686 0.0
H275 H 0.39448 0.05808 0.71891 0.0
H276 H 0.41915 0.09998 0.76144 0.0
H277 H 0.45978 0.15256 0.78105 0.0
H278 H 0.43051 0.09083 0.83571 0.0
H279 H 0.38893 0.03812 0.81609 0.0
N280 N 0.3575 1.00053 0.78404 0.0
N281 N 0.34555 0.96831 0.75304 0.0
N282 N 0.38282 1.03093 0.75479 0.0
C283 C 0.34052 0.96879 0.77323 0.0
C284 C 0.36636 0.99947 0.74369 0.0
C285 C 0.37856 1.03173 0.77496 0.0
C286 C 0.32292 0.93376 0.78392 0.0
C287 C 0.32539 0.93333 0.80508 0.0
C288 C 0.31901 0.89977 0.81515 0.0
C289 C 0.30959 0.86585 0.80432 0.0
C290 C 0.30176 0.86611 0.78343 0.0
C291 C 0.30865 0.89977 0.77329 0.0
C292 C 0.37619 0.99811 0.72229 0.0
C293 C 0.37374 0.96398 0.71267 0.0
C294 C 0.38956 0.96323 0.69378 0.0
C295 C 0.40769 0.99654 0.68404 0.0
C296 C 0.4078 1.03051 0.69307 0.0
C297 C 0.39235 1.0313 0.712 0.0
C298 C 0.40078 0.06471 0.78714 0.0
C299 C 0.42117 0.09751 0.77763 0.0
C300 C 0.69206 0.57945 0.11319 0.0
C301 C 0.6951 0.56538 0.13251 0.0
C302 C 0.66058 0.55309 0.14344 0.0
C303 C 0.62394 0.55374 0.13493 0.0
H304 H 0.50256 0.57601 0.14239 0.0
H305 H 0.44065 0.57777 0.15671 0.0
H306 H 0.37859 0.53272 0.10103 0.0
H307 H 0.43986 0.53069 0.08686 0.0
H308 H 0.4867 0.5546 0.04552 0.0
H309 H 0.49062 0.56256 0.00899 0.0
H310 H 0.61607 0.58237 0.01429 0.0
H311 H 0.61255 0.57471 0.05034 0.0
H312 H 0.65508 0.59047 0.08964 0.0
H313 H 0.71753 0.58868 0.10409 0.0
H314 H 0.66174 0.54248 0.15848 0.0
H315 H 0.59789 0.54313 0.14347 0.0
N316 N 0.54843 0.55939 0.11432 0.0
N317 N 0.51448 0.55747 0.08299 0.0
N318 N 0.58173 0.56451 0.08419 0.0
C319 C 0.51411 0.55636 0.10347 0.0
C320 C 0.54819 0.56157 0.07325 0.0
C321 C 0.58254 0.56342 0.10457 0.0
C322 C 0.47644 0.55352 0.1134 0.0
C323 C 0.47563 0.56593 0.13334 0.0
C324 C 0.44013 0.56717 0.14149 0.0
C325 C 0.40452 0.55557 0.13 0.0
C326 C 0.40522 0.54158 0.11042 0.0
C327 C 0.4406 0.54071 0.10223 0.0
C328 C 0.54932 0.56432 0.05098 0.0
C329 C 0.51508 0.56052 0.03887 0.0
C330 C 0.51725 0.56491 0.01796 0.0
C331 C 0.5537 0.57355 0.00886 0.0
C332 C 0.58764 0.57641 0.02091 0.0
C333 C 0.5855 0.57181 0.04164 0.0
C334 C 0.62101 0.56647 0.11526 0.0
C335 C 0.65579 0.58006 0.10476 0.0
H336 H 0.17097 0.51022 0.13978 0.0
H337 H 0.19344 0.62105 0.16573 0.0
H338 H 0.2647 0.62939 0.16522 0.0
H339 H 0.25446 0.48622 0.16461 0.0
H340 H 0.26457 0.46277 0.1426 0.0
H341 H 0.2152 0.46381 0.14685 0.0
H342 H 0.21157 0.4926 0.1118 0.0
H343 H 0.26089 0.49171 0.10746 0.0
H344 H 0.24828 0.53483 0.10562 0.0
H345 H 0.33359 0.62691 0.16084 0.0
H346 H 0.39518 0.61557 0.15073 0.0
H347 H 0.32918 0.50743 0.1261 0.0
C348 C 0.19096 0.5359 0.14572 0.0
C349 C 0.17663 0.56483 0.15306 0.0
C350 C 0.20372 0.59847 0.16014 0.0
C351 C 0.24428 0.60342 0.15997 0.0
C352 C 0.25755 0.57466 0.15242 0.0
C353 C 0.23177 0.54163 0.14528 0.0
C354 C 0.25394 0.51641 0.13653 0.0
C355 C 0.2466 0.48015 0.14836 0.0
C356 C 0.24302 0.50843 0.11402 0.0
C357 C 0.29606 0.54053 0.13974 0.0
C358 C 0.29743 0.57378 0.1492 0.0
C359 C 0.33288 0.60086 0.15354 0.0
C360 C 0.36783 0.59404 0.14784 0.0
C361 C 0.3673 0.56055 0.13769 0.0
C362 C 0.33073 0.53337 0.13378 0.0
H363 H 0.79726 0.23203 0.47952 0.0
H364 H 0.73722 0.27897 0.5237 0.0
H365 H 0.7824 0.34136 0.51812 0.0
H366 H 0.89487 0.2911 0.49116 0.0
H367 H 0.90845 0.29492 0.46525 0.0
H368 H 0.87254 0.25381 0.47345 0.0
H369 H 0.82276 0.26308 0.44601 0.0
H370 H 0.85851 0.30419 0.43772 0.0
H371 H 0.81108 0.30674 0.44497 0.0
H372 H 0.83339 0.39913 0.50694 0.0
H373 H 0.88496 0.44749 0.49055 0.0
H374 H 0.91026 0.3624 0.45335 0.0
C375 C 0.79335 0.25539 0.48797 0.0
C376 C 0.76363 0.25046 0.5021 0.0
C377 C 0.76008 0.28185 0.51302 0.0
C378 C 0.78549 0.31746 0.50988 0.0
C379 C 0.81426 0.32127 0.49575 0.0
C380 C 0.81824 0.29106 0.48496 0.0
C381 C 0.85085 0.30264 0.47027 0.0
C382 C 0.88362 0.28454 0.47535 0.0
C383 C 0.83483 0.29363 0.44845 0.0
C384 C 0.86444 0.34416 0.47436 0.0
C385 C 0.84317 0.35439 0.48918 0.0
C386 C 0.85032 0.3914 0.49537 0.0
C387 C 0.87979 0.41864 0.48605 0.0
C388 C 0.90162 0.40876 0.47065 0.0
C389 C 0.89382 0.37093 0.4649 0.0
H390 H 0.45515 0.74932 0.81685 0.0
H391 H 0.43739 0.74906 0.88091 0.0
H392 H 0.3772 0.76883 0.87453 0.0
H393 H 0.43344 0.82842 0.80589 0.0
H394 H 0.40887 0.81294 0.78186 0.0
H395 H 0.44487 0.79203 0.79168 0.0
H396 H 0.39361 0.72699 0.78848 0.0
H397 H 0.3571 0.74804 0.77891 0.0
H398 H 0.34762 0.71883 0.80066 0.0
H399 H 0.32696 0.79969 0.86126 0.0
H400 H 0.29429 0.84049 0.84306 0.0
H401 H 0.3452 0.81836 0.78778 0.0
C402 C 0.43821 0.75298 0.8295 0.0
C403 C 0.45091 0.74839 0.84935 0.0
C404 C 0.42797 0.75272 0.86558 0.0
C405 C 0.39369 0.76358 0.86206 0.0
C406 C 0.38243 0.76885 0.8422 0.0
C407 C 0.4039 0.76317 0.82621 0.0
C408 C 0.38852 0.7743 0.80651 0.0
C409 C 0.42082 0.80367 0.79589 0.0
C410 C 0.37064 0.74 0.79284 0.0
C411 C 0.35714 0.79027 0.81404 0.0
C412 C 0.35305 0.78585 0.83456 0.0
C413 C 0.32929 0.80256 0.84514 0.0
C414 C 0.31097 0.82585 0.83468 0.0
C415 C 0.31713 0.83272 0.81394 0.0
C416 C 0.33882 0.813 0.80344 0.0
H417 H 0.92961 0.60938 0.13733 0.0
H418 H 0.91324 0.50423 0.16777 0.0
H419 H 0.84233 0.49646 0.16846 0.0
H420 H 0.85414 0.63886 0.16356 0.0
H421 H 0.83845 0.65897 0.1414 0.0
H422 H 0.88855 0.65775 0.14444 0.0
H423 H 0.8822 0.62307 0.11011 0.0
H424 H 0.83215 0.6242 0.10697 0.0
H425 H 0.84345 0.58039 0.10578 0.0
H426 H 0.77228 0.49814 0.16436 0.0
H427 H 0.70868 0.50831 0.1547 0.0
H428 H 0.7697 0.6128 0.12749 0.0
C429 C 0.91122 0.58496 0.14438 0.0
C430 C 0.92736 0.55752 0.15255 0.0
C431 C 0.90192 0.52574 0.16138 0.0
C432 C 0.86144 0.52107 0.16192 0.0
C433 C 0.84646 0.54839 0.15359 0.0
C434 C 0.87052 0.57974 0.14499 0.0
C435 C 0.84656 0.604 0.13627 0.0
C436 C 0.85759 0.64216 0.14706 0.0
C437 C 0.85138 0.60814 0.11343 0.0
C438 C 0.80534 0.5811 0.14103 0.0
C439 C 0.80598 0.54929 0.15119 0.0
C440 C 0.77147 0.52318 0.15658 0.0
C441 C 0.73535 0.52938 0.15116 0.0
C442 C 0.73374 0.56142 0.14035 0.0
C443 C 0.76954 0.58783 0.13559 0.0
H444 H 0.29149 0.87132 0.48808 0.0
H445 H 0.34138 0.8281 0.53968 0.0
H446 H 0.29856 0.76492 0.53126 0.0
H447 H 0.19216 0.81302 0.49225 0.0
H448 H 0.18307 0.80717 0.46541 0.0
H449 H 0.21756 0.84891 0.47561 0.0
H450 H 0.27137 0.83739 0.4534 0.0
H451 H 0.2371 0.79556 0.44318 0.0
H452 H 0.28289 0.79369 0.45492 0.0
H453 H 0.25 0.70645 0.51723 0.0
H454 H 0.20043 0.65686 0.4982 0.0
H455 H 0.18186 0.73863 0.45605 0.0
C456 C 0.29314 0.84865 0.49774 0.0
C457 C 0.31974 0.85469 0.51458 0.0
C458 C 0.32149 0.8241 0.52661 0.0
C459 C 0.29715 0.78816 0.52201 0.0
C460 C 0.27128 0.78323 0.50531 0.0
C461 C 0.26917 0.81263 0.49334 0.0
C462 C 0.23924 0.79982 0.47609 0.0
C463 C 0.20604 0.81833 0.47743 0.0
C464 C 0.25883 0.80704 0.45569 0.0
C465 C 0.22479 0.75859 0.48022 0.0
C466 C 0.24355 0.74959 0.49716 0.0
C467 C 0.23505 0.7132 0.50396 0.0
C468 C 0.2067 0.68526 0.49312 0.0
C469 C 0.18721 0.69383 0.47564 0.0
C470 C 0.19651 0.73108 0.46921 0.0
H471 H 0.5975 0.3221 0.81149 0.0
H472 H 0.53126 0.34832 0.85997 0.0
H473 H 0.50412 0.28167 0.86652 0.0
H474 H 0.52625 0.25786 0.79032 0.0
H475 H 0.55252 0.22588 0.78259 0.0
H476 H 0.57817 0.27415 0.78636 0.0
H477 H 0.62667 0.25764 0.81208 0.0
H478 H 0.60148 0.20889 0.80815 0.0
H479 H 0.60815 0.22891 0.8332 0.0
H480 H 0.46958 0.2151 0.86124 0.0
H481 H 0.43323 0.1549 0.84544 0.0
H482 H 0.52095 0.17017 0.80029 0.0
C483 C 0.57862 0.31375 0.82404 0.0
C484 C 0.56653 0.34034 0.8352 0.0
C485 C 0.54153 0.32853 0.85142 0.0
C486 C 0.52584 0.29059 0.85524 0.0
C487 C 0.53587 0.26485 0.8429 0.0
C488 C 0.56244 0.27596 0.82787 0.0
C489 C 0.56299 0.24345 0.81439 0.0
C490 C 0.55443 0.2508 0.79213 0.0
C491 C 0.60215 0.23417 0.81713 0.0
C492 C 0.52985 0.21327 0.8229 0.0
C493 C 0.51549 0.22573 0.83977 0.0
C494 C 0.48139 0.20455 0.84848 0.0
C495 C 0.46086 0.17036 0.83938 0.0
C496 C 0.47426 0.15794 0.82162 0.0
C497 C 0.51003 0.17905 0.81385 0.0
H498 H 0.49469 0.90482 0.53248 0.0
H499 H 0.61371 0.95309 0.51378 0.0
H500 H 0.62369 0.89082 0.51317 0.0
H501 H 0.51659 0.83445 0.56507 0.0
H502 H 0.47189 0.79862 0.5585 0.0
H503 H 0.47307 0.84691 0.55726 0.0
H504 H 0.4484 0.83749 0.52008 0.0
H505 H 0.44704 0.78914 0.52122 0.0
H506 H 0.47486 0.81842 0.50234 0.0
H507 H 0.62191 0.82187 0.51454 0.0
H508 H 0.60915 0.75445 0.51844 0.0
H509 H 0.49103 0.74667 0.5363 0.0
C510 C 0.52289 0.90242 0.52821 0.0
C511 C 0.55338 0.93515 0.52313 0.0
C512 C 0.58962 0.92955 0.51776 0.0
C513 C 0.59566 0.89382 0.51735 0.0
C514 C 0.56537 0.86254 0.52239 0.0
C515 C 0.5296 0.8664 0.52777 0.0
C516 C 0.50223 0.82779 0.5327 0.0
C517 C 0.49023 0.8269 0.55469 0.0
C518 C 0.46597 0.81761 0.51823 0.0
C519 C 0.52814 0.80184 0.52929 0.0
C520 C 0.56441 0.82272 0.52326 0.0
C521 C 0.59341 0.80547 0.51917 0.0
C522 C 0.58559 0.76644 0.52128 0.0
C523 C 0.54877 0.74346 0.5275 0.0
C524 C 0.51972 0.76228 0.53158 0.0
H525 H 0.69967 0.54494 0.83115 0.0
H526 H 0.7209 0.66447 0.82764 0.0
H527 H 0.79226 0.67288 0.82856 0.0
H528 H 0.77876 0.54932 0.86673 0.0
H529 H 0.79104 0.50986 0.85625 0.0
H530 H 0.74154 0.51283 0.85364 0.0
H531 H 0.74337 0.50586 0.81495 0.0
H532 H 0.79297 0.50301 0.81744 0.0
H533 H 0.78171 0.53763 0.80156 0.0
H534 H 0.8614 0.6687 0.83026 0.0
H535 H 0.92349 0.65285 0.83609 0.0
H536 H 0.8585 0.53625 0.84026 0.0
C537 C 0.71939 0.57282 0.83036 0.0
C538 C 0.70468 0.60407 0.82918 0.0
C539 C 0.73145 0.64014 0.82857 0.0
C540 C 0.77207 0.64519 0.82897 0.0
C541 C 0.78569 0.61392 0.83023 0.0
C542 C 0.76023 0.57844 0.83116 0.0
C543 C 0.78275 0.54987 0.83389 0.0
C544 C 0.77294 0.52926 0.85381 0.0
C545 C 0.77472 0.52247 0.81589 0.0
C546 C 0.82475 0.57486 0.83447 0.0
C547 C 0.82572 0.61164 0.832 0.0
C548 C 0.86101 0.63997 0.83215 0.0
C549 C 0.89622 0.63064 0.83532 0.0
C550 C 0.89609 0.5933 0.83854 0.0
C551 C 0.85969 0.56507 0.83787 0.0
H552 H 0.25266 0.77912 0.17883 0.0
H553 H 0.20185 0.84355 0.13758 0.0
H554 H 0.25695 0.89924 0.1458 0.0
H555 H 0.28549 0.85094 0.2168 0.0
H556 H 0.32988 0.83898 0.22335 0.0
H557 H 0.28726 0.80369 0.2136 0.0
H558 H 0.3281 0.78778 0.18525 0.0
H559 H 0.37084 0.8231 0.19488 0.0
H560 H 0.35417 0.82411 0.16903 0.0
H561 H 0.31687 0.94855 0.15905 0.0
H562 H 0.37612 0.98808 0.17704 0.0
H563 H 0.38796 0.892 0.20992 0.0
C564 C 0.25291 0.80494 0.17158 0.0
C565 C 0.22282 0.80667 0.1574 0.0
C566 C 0.22476 0.84112 0.14818 0.0
C567 C 0.25589 0.87305 0.15284 0.0
C568 C 0.28498 0.87031 0.16681 0.0
C569 C 0.28374 0.83718 0.1761 0.0
C570 C 0.31833 0.84197 0.19091 0.0
C571 C 0.3044 0.83339 0.21244 0.0
C572 C 0.3444 0.81781 0.18463 0.0
C573 C 0.33902 0.88304 0.18861 0.0
C574 C 0.31941 0.8988 0.17455 0.0
C575 C 0.3326 0.93645 0.17001 0.0
C576 C 0.36652 0.95866 0.18022 0.0
C577 C 0.387 0.94328 0.19489 0.0
C578 C 0.37296 0.9048 0.19895 0.0
H579 H 0.58953 0.20428 0.52837 0.0
H580 H 0.46389 0.15213 0.52476 0.0
H581 H 0.45272 0.21391 0.52557 0.0
H582 H 0.58587 0.27953 0.5632 0.0
H583 H 0.6248 0.31454 0.552 0.0
H584 H 0.62385 0.26629 0.55054 0.0
H585 H 0.62614 0.26995 0.51186 0.0
H586 H 0.62704 0.3182 0.51317 0.0
H587 H 0.58968 0.28564 0.4979 0.0
H588 H 0.45395 0.28272 0.52624 0.0
H589 H 0.46737 0.35072 0.52872 0.0
H590 H 0.59222 0.36257 0.53336 0.0
C591 C 0.55961 0.20575 0.52769 0.0
C592 C 0.5276 0.17207 0.5264 0.0
C593 C 0.48919 0.17644 0.52576 0.0
C594 C 0.48244 0.21188 0.52617 0.0
C595 C 0.51423 0.24411 0.52745 0.0
C596 C 0.55219 0.2415 0.52838 0.0
C597 C 0.5809 0.28101 0.53031 0.0
C598 C 0.60531 0.28561 0.5502 0.0
C599 C 0.60753 0.28918 0.51224 0.0
C600 C 0.55324 0.30603 0.53025 0.0
C601 C 0.51489 0.28389 0.5284 0.0
C602 C 0.484 0.30008 0.52768 0.0
C603 C 0.49206 0.33934 0.52895 0.0
C604 C 0.53095 0.36353 0.53112 0.0
C605 C 0.56195 0.34584 0.53181 0.0
H606 H 0.45392 0.62563 0.84174 0.0
H607 H 0.43414 0.53108 0.80067 0.0
H608 H 0.3627 0.52226 0.80112 0.0
H609 H 0.37245 0.58802 0.8721 0.0
H610 H 0.36183 0.63178 0.87561 0.0
H611 H 0.4111 0.63107 0.87107 0.0
H612 H 0.41246 0.67362 0.83984 0.0
H613 H 0.36377 0.67495 0.84551 0.0
H614 H 0.37358 0.66034 0.82085 0.0
H615 H 0.29243 0.52216 0.80734 0.0
H616 H 0.23033 0.53015 0.81918 0.0
H617 H 0.29615 0.62526 0.85581 0.0
C618 C 0.43467 0.60324 0.83267 0.0
C619 C 0.44992 0.57909 0.82112 0.0
C620 C 0.42342 0.55005 0.80961 0.0
C621 C 0.38268 0.54482 0.80975 0.0
C622 C 0.36866 0.5689 0.82144 0.0
C623 C 0.39392 0.59761 0.83264 0.0
C624 C 0.37137 0.61903 0.84434 0.0
C625 C 0.37969 0.61737 0.86712 0.0
C626 C 0.38079 0.6594 0.83722 0.0
C627 C 0.32948 0.59739 0.83841 0.0
C628 C 0.32848 0.56881 0.82502 0.0
C629 C 0.29299 0.54466 0.81771 0.0
C630 C 0.25775 0.54959 0.82444 0.0
C631 C 0.25802 0.57834 0.83846 0.0
C632 C 0.29464 0.60274 0.84526 0.0
H633 H 0.86508 0.3011 0.18075 0.0
H634 H 0.83193 0.40336 0.18667 0.0
H635 H 0.76668 0.36727 0.19734 0.0
H636 H 0.77006 0.24455 0.16051 0.0
H637 H 0.77286 0.20348 0.17367 0.0
H638 H 0.81711 0.23729 0.16638 0.0
H639 H 0.8439 0.24352 0.20337 0.0
H640 H 0.7998 0.20973 0.21077 0.0
H641 H 0.81515 0.25504 0.22281 0.0
H642 H 0.70577 0.32044 0.20864 0.0
H643 H 0.65317 0.26589 0.21924 0.0
H644 H 0.72413 0.1936 0.20437 0.0
C645 C 0.84402 0.31597 0.18403 0.0
C646 C 0.85405 0.3553 0.18297 0.0
C647 C 0.82552 0.37345 0.18773 0.0
C648 C 0.78814 0.35312 0.19364 0.0
C649 C 0.77938 0.31453 0.19458 0.0
C650 C 0.8064 0.29608 0.18981 0.0
C651 C 0.78961 0.25439 0.19224 0.0
C652 C 0.78727 0.23372 0.17199 0.0
C653 C 0.81354 0.23983 0.20825 0.0
C654 C 0.74906 0.25233 0.19933 0.0
C655 C 0.74382 0.28738 0.20058 0.0
C656 C 0.70943 0.29285 0.20756 0.0
C657 C 0.67977 0.26175 0.21358 0.0
C658 C 0.6845 0.22557 0.21249 0.0
C659 C 0.71948 0.22086 0.20504 0.0
H660 H 0.08714 0.52374 0.0808 0.0
H661 H 0.03364 0.60866 0.09885 0.0
H662 H 0.03708 0.63179 0.064 0.0
H663 H 0.1531 0.57978 0.04424 0.0
H664 H 0.14667 0.5409 0.02708 0.0
H665 H 0.14299 0.53323 0.05375 0.0
H666 H 0.07383 0.48699 0.04759 0.0
H667 H 0.07723 0.49457 0.02095 0.0
H668 H 0.03655 0.50205 0.03396 0.0
H669 H 0.04189 0.64247 0.0267 0.0
H670 H 0.04835 0.64052 0.98987 0.0
H671 H 0.09839 0.54829 0.99621 0.0
C672 C 0.07668 0.54756 0.07748 0.0
C673 C 0.06019 0.56452 0.09248 0.0
C674 C 0.04647 0.59537 0.08755 0.0
C675 C 0.04835 0.60869 0.06782 0.0
C676 C 0.06419 0.59093 0.05327 0.0
C677 C 0.0783 0.56114 0.05789 0.0
C678 C 0.0921 0.54578 0.03932 0.0
C679 C 0.13635 0.5502 0.04122 0.0
C680 C 0.06851 0.50494 0.03522 0.0
C681 C 0.08286 0.5711 0.02344 0.0
C682 C 0.067 0.5971 0.03181 0.0
C683 C 0.05456 0.62243 0.02001 0.0
C684 C 0.05813 0.62097 -0.0009 0.0
C685 C 0.07393 0.5943 0.99017 0.0
C686 C 0.08682 0.56938 0.00261 0.0
H687 H 0.50181 0.08602 0.45314 0.0
H688 H 0.57253 1.01294 0.46937 0.0
H689 H 0.58687 1.00739 0.4336 0.0
H690 H 0.45951 0.04037 0.40748 0.0
H691 H 0.46152 0.08241 0.39404 0.0
H692 H 0.45782 0.08169 0.42097 0.0
H693 H 0.52053 0.13753 0.42472 0.0
H694 H 0.52433 0.13856 0.39777 0.0
H695 H 0.56499 0.13455 0.41363 0.0
H696 H 0.58916 1.00584 0.39586 0.0
H697 H 0.58413 1.01297 0.35895 0.0
H698 H 0.51532 0.08993 0.36733 0.0
C699 C 0.52056 0.0691 0.44914 0.0
C700 C 0.5359 0.04972 0.46395 0.0
C701 C 0.56047 1.02799 0.45823 0.0
C702 C 0.56872 1.02463 0.43796 0.0
C703 C 0.55266 0.04363 0.42365 0.0
C704 C 0.52957 0.06589 0.429 0.0
C705 C 0.51606 0.08342 0.41067 0.0
C706 C 0.47106 0.07123 0.40815 0.0
C707 C 0.53247 0.12605 0.41177 0.0
C708 C 0.53453 0.06698 0.39415 0.0
C709 C 0.55534 0.04393 0.40196 0.0
C710 C 0.57338 1.02417 0.38959 0.0
C711 C 0.57023 1.02822 0.36869 0.0
C712 C 0.5496 0.05215 0.36042 0.0
C713 C 0.5317 0.07186 0.37334 0.0
H714 H 0.54114 0.57158 0.76299 0.0
H715 H 0.65668 0.65125 0.7689 0.0
H716 H 0.66511 0.64521 0.73262 0.0
H717 H 0.56545 0.51215 0.72415 0.0
H718 H 0.5188 0.50371 0.71068 0.0
H719 H 0.52232 0.51217 0.7375 0.0
H720 H 0.49159 0.56643 0.73263 0.0
H721 H 0.48796 0.55814 0.70583 0.0
H722 H 0.51376 0.6036 0.71596 0.0
H723 H 0.66021 0.63429 0.69588 0.0
H724 H 0.64195 0.61872 0.66009 0.0
H725 H 0.52989 0.54534 0.67677 0.0
C726 C 0.5683 0.58739 0.75662 0.0
C727 C 0.59827 0.61195 0.76876 0.0
C728 C 0.63329 0.63239 0.7599 0.0
C729 C 0.63845 0.62906 0.73929 0.0
C730 C 0.60835 0.60506 0.72767 0.0
C731 C 0.57396 0.58446 0.73591 0.0
C732 C 0.54577 0.56193 0.71967 0.0
C733 C 0.53761 0.52 0.72321 0.0
C734 C 0.50751 0.57321 0.71845 0.0
C735 C 0.56952 0.57368 0.70106 0.0
C736 C 0.6056 0.59844 0.70615 0.0
C737 C 0.6322 0.61469 0.69169 0.0
C738 C 0.62155 0.60578 0.67141 0.0
C739 C 0.58466 0.5808 0.66571 0.0
C740 C 0.55851 0.56412 0.68077 0.0
H741 H 0.49618 0.07121 0.57854 0.0
H742 H 0.57447 1.00216 0.58661 0.0
H743 H 0.54173 0.9773 0.61778 0.0
H744 H 0.49492 0.09534 0.63058 0.0
H745 H 0.44405 0.09455 0.62955 0.0
H746 H 0.47247 0.10549 0.60741 0.0
H747 H 0.42154 0.05224 0.58768 0.0
H748 H 0.39304 0.04095 0.60982 0.0
H749 H 0.40939 1.00567 0.59728 0.0
H750 H 0.50101 0.96034 0.64804 0.0
H751 H 0.45866 0.95616 0.677 0.0
H752 H 0.40767 1.03729 0.64978 0.0
C753 C 0.50634 0.05083 0.58689 0.0
C754 C 0.53778 0.03853 0.58024 0.0
C755 C 0.55049 1.012 0.59154 0.0
C756 C 0.53195 0.99758 0.60917 0.0
C757 C 0.50091 1.01015 0.61531 0.0
C758 C 0.48841 1.03642 0.60463 0.0
C759 C 0.4555 0.04638 0.61497 0.0
C760 C 0.46746 0.0879 0.62099 0.0
C761 C 0.41762 1.03566 0.60164 0.0
C762 C 0.45179 1.02194 0.63327 0.0
C763 C 0.47788 1.00089 0.633 0.0
C764 C 0.48032 0.97655 0.64839 0.0
C765 C 0.45595 0.97417 0.6647 0.0
C766 C 0.42975 0.99625 0.66558 0.0
C767 C 0.42744 1.02011 0.64951 0.0
H768 H 0.5177 0.52602 0.89083 0.0
H769 H 0.61736 0.62228 0.88187 0.0
H770 H 0.6212 0.63746 0.9181 0.0
H771 H 0.47382 0.56743 0.9306 0.0
H772 H 0.4594 0.52508 0.94465 0.0
H773 H 0.46224 0.52298 0.91768 0.0
H774 H 0.50995 0.4825 0.92148 0.0
H775 H 0.50716 0.48436 0.94842 0.0
H776 H 0.55415 0.49925 0.93705 0.0
H777 H 0.61677 0.64092 0.95503 0.0
H778 H 0.60587 0.63116 0.99121 0.0
H779 H 0.50994 0.53195 0.97719 0.0
C780 C 0.54004 0.55045 0.89653 0.0
C781 C 0.56703 0.5732 0.88355 0.0
C782 C 0.59617 0.6047 0.89152 0.0
C783 C 0.59857 0.61358 0.91208 0.0
C784 C 0.57169 0.59062 0.9245 0.0
C785 C 0.54303 0.55964 0.91713 0.0
C786 C 0.51922 0.53865 0.93405 0.0
C787 C 0.47611 0.53854 0.9316 0.0
C788 C 0.52286 0.49884 0.93532 0.0
C789 C 0.53952 0.56235 0.95207 0.0
C790 C 0.56942 0.59237 0.94611 0.0
C791 C 0.59337 0.61761 0.95991 0.0
C792 C 0.58707 0.61173 0.98042 0.0
C793 C 0.5572 0.58074 0.98699 0.0
C794 C 0.53269 0.5561 0.97258 0.0
H795 H 0.07426 0.62283 0.22395 0.0
H796 H 0.04509 0.50957 0.20075 0.0
H797 H 0.03941 0.48614 0.23558 0.0
H798 H 0.13224 0.61035 0.26739 0.0
H799 H 0.11484 0.64077 0.28333 0.0
H800 H 0.11707 0.64825 0.25662 0.0
H801 H 0.04327 0.6447 0.25478 0.0
H802 H 0.04081 0.63725 0.28148 0.0
H803 H 1.008 0.60438 0.26431 0.0
H804 H 0.03665 0.47557 0.27317 0.0
H805 H 0.03663 0.47836 0.3103 0.0
H806 H 0.06626 0.59886 0.3085 0.0
C807 C 0.06682 0.59309 0.2262 0.0
C808 C 0.0602 0.56789 0.20972 0.0
C809 C 0.05036 0.52923 0.21322 0.0
C810 C 0.04708 0.51574 0.23293 0.0
C811 C 0.05374 0.54139 0.2489 0.0
C812 C 0.06337 0.57925 0.24572 0.0
C813 C 0.06852 0.601 0.26537 0.0
C814 C 0.11068 0.6266 0.26835 0.0
C815 C 0.03835 0.62313 0.26655 0.0
C816 C 0.06031 0.56949 0.28016 0.0
C817 C 0.05187 0.53532 0.27039 0.0
C818 C 0.04314 0.50218 0.28096 0.0
C819 C 0.04297 0.50405 0.30204 0.0
C820 C 0.05141 0.53883 0.31236 0.0
C821 C 0.06021 0.57187 0.30114 0.0
loop_
_geom_bond_atom_site_label_1
_geom_bond_atom_site_label_2
_geom_bond_distance
_geom_bond_site_symmetry_2
_ccdc_geom_bond_type
Pr0 C2 2.880 . S
Pr0 O20 2.562 . S
Pr0 O21 2.490 . S
Pr0 O22 2.695 1_655 S
Pr0 O23 2.512 . S
Pr0 O25 2.437 . S
Pr0 O28 2.436 . S
Pr0 O30 2.438 1_655 S
Pr1 C11 2.880 . S
Pr1 O22 2.436 . S
Pr1 O24 2.438 1_455 S
Pr1 O26 2.562 . S
Pr1 O27 2.490 . S
Pr1 O28 2.695 1_455 S
Pr1 O29 2.512 . S
Pr1 O31 2.437 . S
C2 Pr0 2.880 . S
C2 C3 1.491 . S
C2 O20 1.254 . S
C2 O21 1.225 . S
C3 C2 1.491 . S
C3 C4 1.392 . S
C3 C8 1.356 . S
C4 C3 1.392 . S
C4 C5 1.368 . S
C4 H32 0.929 . S
C5 C4 1.368 . S
C5 C6 1.386 . S
C5 H33 0.929 . S
C6 C5 1.386 . S
C6 C7 1.373 . S
C7 C6 1.373 . S
C7 C8 1.409 . S
C7 H34 0.931 . S
C8 C3 1.356 . S
C8 C7 1.409 . S
C8 H35 0.930 . S
C9 O22 1.270 . S
C9 O23 1.248 1_455 S
C10 O24 1.267 . S
C10 O25 1.278 . S
C11 Pr1 2.880 . S
C11 C12 1.491 . S
C11 O26 1.254 . S
C11 O27 1.225 . S
C12 C11 1.491 . S
C12 C13 1.392 . S
C12 C17 1.356 . S
C13 C12 1.392 . S
C13 C14 1.368 . S
C13 H36 0.929 . S
C14 C13 1.368 . S
C14 C15 1.386 . S
C14 H37 0.929 . S
C15 C14 1.386 . S
C15 C16 1.373 . S
C16 C15 1.373 . S
C16 C17 1.409 . S
C16 H38 0.931 . S
C17 C12 1.356 . S
C17 C16 1.409 . S
C17 H39 0.930 . S
C18 O28 1.270 1_455 S
C18 O29 1.248 . S
C19 O30 1.267 . S
C19 O31 1.278 . S
O20 Pr0 2.562 . S
O20 C2 1.254 . S
O21 Pr0 2.490 . S
O21 C2 1.225 . S
O22 Pr0 2.695 1_455 S
O22 Pr1 2.436 . S
O22 C9 1.270 . S
O23 Pr0 2.512 . S
O23 C9 1.248 1_655 S
O24 Pr1 2.438 1_655 S
O24 C10 1.267 . S
O25 Pr0 2.437 . S
O25 C10 1.278 . S
O26 Pr1 2.562 . S
O26 C11 1.254 . S
O27 Pr1 2.490 . S
O27 C11 1.225 . S
O28 Pr0 2.436 . S
O28 Pr1 2.695 1_655 S
O28 C18 1.270 1_655 S
O29 Pr1 2.512 . S
O29 C18 1.248 . S
O30 Pr0 2.438 1_455 S
O30 C19 1.267 . S
O31 Pr1 2.437 . S
O31 C19 1.278 . S
H32 C4 0.929 . S
H33 C5 0.929 . S
H34 C7 0.931 . S
H35 C8 0.930 . S
H36 C13 0.929 . S
H37 C14 0.929 . S
H38 C16 0.931 . S
H39 C17 0.930 . S
Pr40 C42 2.880 . S
Pr40 O60 2.562 . S
Pr40 O61 2.490 . S
Pr40 O62 2.695 . S
Pr40 O63 2.512 . S
Pr40 O65 2.437 . S
Pr40 O68 2.436 . S
Pr40 O70 2.438 1_545 S
Pr41 C51 2.880 . S
Pr41 O62 2.436 1_565 S
Pr41 O64 2.438 1_565 S
Pr41 O66 2.562 . S
Pr41 O67 2.490 . S
Pr41 O68 2.695 1_565 S
Pr41 O69 2.512 . S
Pr41 O71 2.437 . S
C42 Pr40 2.880 . S
C42 C43 1.491 . S
C42 O60 1.254 . S
C42 O61 1.225 . S
C43 C42 1.491 . S
C43 C44 1.392 . S
C43 C48 1.356 . S
C44 C43 1.392 . S
C44 C45 1.368 . S
C44 H72 0.929 . S
C45 C44 1.368 . S
C45 C46 1.386 . S
C45 H73 0.929 . S
C46 C45 1.386 . S
C46 C47 1.373 . S
C47 C46 1.373 . S
C47 C48 1.409 . S
C47 H74 0.931 . S
C48 C43 1.356 . S
C48 C47 1.409 . S
C48 H75 0.930 . S
C49 O62 1.270 . S
C49 O63 1.248 . S
C50 O64 1.267 . S
C50 O65 1.278 . S
C51 Pr41 2.880 . S
C51 C52 1.491 . S
C51 O66 1.254 . S
C51 O67 1.225 . S
C52 C51 1.491 . S
C52 C53 1.392 . S
C52 C57 1.356 . S
C53 C52 1.392 . S
C53 C54 1.368 . S
C53 H76 0.929 . S
C54 C53 1.368 . S
C54 C55 1.386 . S
C54 H77 0.929 . S
C55 C54 1.386 . S
C55 C56 1.373 . S
C56 C55 1.373 . S
C56 C57 1.409 . S
C56 H78 0.931 . S
C57 C52 1.356 . S
C57 C56 1.409 . S
C57 H79 0.930 . S
C58 O68 1.270 . S
C58 O69 1.248 1_545 S
C59 O70 1.267 . S
C59 O71 1.278 . S
O60 Pr40 2.562 . S
O60 C42 1.254 . S
O61 Pr40 2.490 . S
O61 C42 1.225 . S
O62 Pr40 2.695 . S
O62 Pr41 2.436 1_545 S
O62 C49 1.270 . S
O63 Pr40 2.512 . S
O63 C49 1.248 . S
O64 Pr41 2.438 1_545 S
O64 C50 1.267 . S
O65 Pr40 2.437 . S
O65 C50 1.278 . S
O66 Pr41 2.562 . S
O66 C51 1.254 . S
O67 Pr41 2.490 . S
O67 C51 1.225 . S
O68 Pr40 2.436 . S
O68 Pr41 2.695 1_545 S
O68 C58 1.270 . S
O69 Pr41 2.512 . S
O69 C58 1.248 1_565 S
O70 Pr40 2.438 1_565 S
O70 C59 1.267 . S
O71 Pr41 2.437 . S
O71 C59 1.278 . S
H72 C44 0.929 . S
H73 C45 0.929 . S
H74 C47 0.931 . S
H75 C48 0.930 . S
H76 C53 0.929 . S
H77 C54 0.929 . S
H78 C56 0.931 . S
H79 C57 0.930 . S
Pr80 C82 2.880 . S
Pr80 O100 2.562 . S
Pr80 O101 2.490 . S
Pr80 O102 2.695 . S
Pr80 O103 2.512 . S
Pr80 O105 2.437 . S
Pr80 O108 2.436 . S
Pr80 O110 2.438 . S
Pr81 C91 2.880 . S
Pr81 O102 2.436 . S
Pr81 O104 2.438 . S
Pr81 O106 2.562 . S
Pr81 O107 2.490 . S
Pr81 O108 2.695 . S
Pr81 O109 2.512 . S
Pr81 O111 2.437 . S
C82 Pr80 2.880 . S
C82 C83 1.491 . S
C82 O100 1.254 . S
C82 O101 1.225 . S
C83 C82 1.491 . S
C83 C84 1.392 . S
C83 C88 1.356 . S
C84 C83 1.392 . S
C84 C85 1.368 . S
C84 H112 0.929 . S
C85 C84 1.368 . S
C85 C86 1.386 . S
C85 H113 0.929 . S
C86 C85 1.386 . S
C86 C87 1.373 . S
C87 C86 1.373 . S
C87 C88 1.409 . S
C87 H114 0.931 . S
C88 C83 1.356 . S
C88 C87 1.409 . S
C88 H115 0.930 . S
C89 O102 1.270 . S
C89 O103 1.248 . S
C90 O104 1.267 . S
C90 O105 1.278 . S
C91 Pr81 2.880 . S
C91 C92 1.491 . S
C91 O106 1.254 . S
C91 O107 1.225 . S
C92 C91 1.491 . S
C92 C93 1.392 . S
C92 C97 1.356 . S
C93 C92 1.392 . S
C93 C94 1.368 . S
C93 H116 0.929 . S
C94 C93 1.368 . S
C94 C95 1.386 . S
C94 H117 0.929 . S
C95 C94 1.386 . S
C95 C96 1.373 . S
C96 C95 1.373 . S
C96 C97 1.409 . S
C96 H118 0.931 . S
C97 C92 1.356 . S
C97 C96 1.409 . S
C97 H119 0.930 . S
C98 O108 1.270 . S
C98 O109 1.248 . S
C99 O110 1.267 . S
C99 O111 1.278 . S
O100 Pr80 2.562 . S
O100 C82 1.254 . S
O101 Pr80 2.490 . S
O101 C82 1.225 . S
O102 Pr80 2.695 . S
O102 Pr81 2.436 . S
O102 C89 1.270 . S
O103 Pr80 2.512 . S
O103 C89 1.248 . S
O104 Pr81 2.438 . S
O104 C90 1.267 . S
O105 Pr80 2.437 . S
O105 C90 1.278 . S
O106 Pr81 2.562 . S
O106 C91 1.254 . S
O107 Pr81 2.490 . S
O107 C91 1.225 . S
O108 Pr80 2.436 . S
O108 Pr81 2.695 . S
O108 C98 1.270 . S
O109 Pr81 2.512 . S
O109 C98 1.248 . S
O110 Pr80 2.438 . S
O110 C99 1.267 . S
O111 Pr81 2.437 . S
O111 C99 1.278 . S
H112 C84 0.929 . S
H113 C85 0.929 . S
H114 C87 0.931 . S
H115 C88 0.930 . S
H116 C93 0.929 . S
H117 C94 0.929 . S
H118 C96 0.931 . S
H119 C97 0.930 . S
C120 C121 1.384 . S
C120 H133 0.947 . S
C120 C155 1.382 . S
C121 C120 1.384 . S
C121 C122 1.378 . S
C122 C121 1.378 . S
C122 C123 1.378 . S
C122 H134 0.952 . S
C123 C122 1.378 . S
C123 H135 0.950 . S
C123 C154 1.383 . S
H124 C143 0.947 . S
H125 C144 0.946 . S
H126 C146 0.953 . S
H127 C147 0.945 . S
H128 C149 0.952 . S
H129 C150 0.949 . S
H130 C152 0.950 . S
H131 C153 0.948 . S
H132 C155 0.951 . S
H133 C120 0.947 . S
H134 C122 0.952 . S
H135 C123 0.950 . S
N136 C139 1.382 . S
N136 C141 1.363 1_545 S
N137 C139 1.371 . S
N137 C140 1.372 . S
N138 C140 1.359 . S
N138 C141 1.377 1_545 S
C139 N136 1.382 . S
C139 N137 1.371 . S
C139 C142 1.480 . S
C140 N137 1.372 . S
C140 N138 1.359 . S
C140 C148 1.457 . S
C141 N136 1.363 1_565 S
C141 N138 1.377 1_565 S
C141 C154 1.479 . S
C142 C139 1.480 . S
C142 C143 1.383 . S
C142 C147 1.385 . S
C143 H124 0.947 . S
C143 C142 1.383 . S
C143 C144 1.388 . S
C144 H125 0.946 . S
C144 C143 1.388 . S
C144 C145 1.384 . S
C145 C144 1.384 . S
C145 C146 1.377 . S
C146 H126 0.953 . S
C146 C145 1.377 . S
C146 C147 1.369 . S
C147 H127 0.945 . S
C147 C142 1.385 . S
C147 C146 1.369 . S
C148 C140 1.457 . S
C148 C149 1.372 . S
C148 C153 1.364 1_545 S
C149 H128 0.952 . S
C149 C148 1.372 . S
C149 C150 1.389 . S
C150 H129 0.949 . S
C150 C149 1.389 . S
C150 C151 1.387 . S
C151 C150 1.387 . S
C151 C152 1.372 1_545 S
C152 H130 0.950 . S
C152 C151 1.372 1_565 S
C152 C153 1.379 . S
C153 H131 0.948 . S
C153 C148 1.364 1_565 S
C153 C152 1.379 . S
C154 C123 1.383 . S
C154 C141 1.479 . S
C154 C155 1.398 . S
C155 C120 1.382 . S
C155 H132 0.951 . S
C155 C154 1.398 . S
C156 C157 1.384 . S
C156 H169 0.947 . S
C156 C191 1.382 . S
C157 C156 1.384 . S
C157 C158 1.378 . S
C158 C157 1.378 . S
C158 C159 1.378 . S
C158 H170 0.952 . S
C159 C158 1.378 . S
C159 H171 0.950 . S
C159 C190 1.383 . S
H160 C179 0.947 . S
H161 C180 0.946 . S
H162 C182 0.953 . S
H163 C183 0.945 . S
H164 C185 0.952 . S
H165 C186 0.949 . S
H166 C188 0.950 . S
H167 C189 0.948 . S
H168 C191 0.951 . S
H169 C156 0.947 . S
H170 C158 0.952 . S
H171 C159 0.950 . S
N172 C175 1.382 . S
N172 C177 1.363 . S
N173 C175 1.371 . S
N173 C176 1.372 . S
N174 C176 1.361 . S
N174 C177 1.377 . S
C175 N172 1.382 . S
C175 N173 1.371 . S
C175 C178 1.480 . S
C176 N173 1.372 . S
C176 N174 1.361 . S
C176 C184 1.457 . S
C177 N172 1.363 . S
C177 N174 1.377 . S
C177 C190 1.479 . S
C178 C175 1.480 . S
C178 C179 1.383 . S
C178 C183 1.385 . S
C179 H160 0.947 . S
C179 C178 1.383 . S
C179 C180 1.388 . S
C180 H161 0.946 . S
C180 C179 1.388 . S
C180 C181 1.384 . S
C181 C180 1.384 . S
C181 C182 1.377 . S
C182 H162 0.953 . S
C182 C181 1.377 . S
C182 C183 1.369 . S
C183 H163 0.945 . S
C183 C178 1.385 . S
C183 C182 1.369 . S
C184 C176 1.457 . S
C184 C185 1.372 . S
C184 C189 1.364 . S
C185 H164 0.952 . S
C185 C184 1.372 . S
C185 C186 1.389 . S
C186 H165 0.949 . S
C186 C185 1.389 . S
C186 C187 1.387 . S
C187 C186 1.387 . S
C187 C188 1.372 . S
C188 H166 0.950 . S
C188 C187 1.372 . S
C188 C189 1.379 . S
C189 H167 0.948 . S
C189 C184 1.364 . S
C189 C188 1.379 . S
C190 C159 1.383 . S
C190 C177 1.479 . S
C190 C191 1.398 . S
C191 C156 1.382 . S
C191 H168 0.951 . S
C191 C190 1.398 . S
C192 C193 1.384 . S
C192 H205 0.947 . S
C192 C227 1.382 . S
C193 C192 1.384 . S
C193 C194 1.378 . S
C194 C193 1.378 . S
C194 C195 1.378 . S
C194 H206 0.952 . S
C195 C194 1.378 . S
C195 H207 0.950 . S
C195 C226 1.383 . S
H196 C215 0.947 . S
H197 C216 0.946 . S
H198 C218 0.953 . S
H199 C219 0.945 . S
H200 C221 0.952 . S
H201 C222 0.949 . S
H202 C224 0.950 . S
H203 C225 0.948 . S
H204 C227 0.951 . S
H205 C192 0.947 . S
H206 C194 0.952 . S
H207 C195 0.950 . S
N208 C211 1.382 . S
N208 C213 1.363 1_455 S
N209 C211 1.371 . S
N209 C212 1.372 . S
N210 C212 1.361 1_655 S
N210 C213 1.377 . S
C211 N208 1.382 . S
C211 N209 1.371 . S
C211 C214 1.480 . S
C212 N209 1.372 . S
C212 N210 1.361 1_455 S
C212 C220 1.457 . S
C213 N208 1.363 1_655 S
C213 N210 1.377 . S
C213 C226 1.479 . S
C214 C211 1.480 . S
C214 C215 1.383 . S
C214 C219 1.385 . S
C215 H196 0.947 . S
C215 C214 1.383 . S
C215 C216 1.388 . S
C216 H197 0.946 . S
C216 C215 1.388 . S
C216 C217 1.384 . S
C217 C216 1.384 . S
C217 C218 1.377 . S
C218 H198 0.953 . S
C218 C217 1.377 . S
C218 C219 1.369 . S
C219 H199 0.945 . S
C219 C214 1.385 . S
C219 C218 1.369 . S
C220 C212 1.457 . S
C220 C221 1.372 . S
C220 C225 1.364 1_455 S
C221 H200 0.952 . S
C221 C220 1.372 . S
C221 C222 1.389 . S
C222 H201 0.949 . S
C222 C221 1.389 . S
C222 C223 1.387 . S
C223 C222 1.387 . S
C223 C224 1.372 1_455 S
C224 H202 0.950 . S
C224 C223 1.372 1_655 S
C224 C225 1.379 . S
C225 H203 0.948 . S
C225 C220 1.364 1_655 S
C225 C224 1.379 . S
C226 C195 1.383 . S
C226 C213 1.479 . S
C226 C227 1.398 . S
C227 C192 1.382 . S
C227 H204 0.951 . S
C227 C226 1.398 . S
C228 C229 1.384 . S
C228 H241 0.947 . S
C228 C263 1.382 . S
C229 C228 1.384 . S
C229 C230 1.378 . S
C230 C229 1.378 . S
C230 C231 1.378 . S
C230 H242 0.952 . S
C231 C230 1.378 . S
C231 H243 0.950 . S
C231 C262 1.383 . S
H232 C251 0.947 . S
H233 C252 0.946 . S
H234 C254 0.953 . S
H235 C255 0.945 . S
H236 C257 0.952 . S
H237 C258 0.949 . S
H238 C260 0.950 . S
H239 C261 0.948 . S
H240 C263 0.951 . S
H241 C228 0.947 . S
H242 C230 0.952 . S
H243 C231 0.950 . S
N244 C247 1.382 1_455 S
N244 C249 1.363 . S
N245 C247 1.371 . S
N245 C248 1.372 1_655 S
N246 C248 1.361 . S
N246 C249 1.377 . S
C247 N244 1.382 1_655 S
C247 N245 1.371 . S
C247 C250 1.480 . S
C248 N245 1.372 1_455 S
C248 N246 1.361 . S
C248 C256 1.457 . S
C249 N244 1.363 . S
C249 N246 1.377 . S
C249 C262 1.479 . S
C250 C247 1.480 . S
C250 C251 1.383 . S
C250 C255 1.385 . S
C251 H232 0.947 . S
C251 C250 1.383 . S
C251 C252 1.388 . S
C252 H233 0.946 . S
C252 C251 1.388 . S
C252 C253 1.384 . S
C253 C252 1.384 . S
C253 C254 1.377 . S
C254 H234 0.953 . S
C254 C253 1.377 . S
C254 C255 1.369 . S
C255 H235 0.945 . S
C255 C250 1.385 . S
C255 C254 1.369 . S
C256 C248 1.457 . S
C256 C257 1.372 1_455 S
C256 C261 1.364 . S
C257 H236 0.952 . S
C257 C256 1.372 1_655 S
C257 C258 1.389 . S
C258 H237 0.949 . S
C258 C257 1.389 . S
C258 C259 1.387 . S
C259 C258 1.387 . S
C259 C260 1.372 1_655 S
C260 H238 0.950 . S
C260 C259 1.372 1_455 S
C260 C261 1.379 . S
C261 H239 0.948 . S
C261 C256 1.364 . S
C261 C260 1.379 . S
C262 C231 1.383 . S
C262 C249 1.479 . S
C262 C263 1.398 . S
C263 C228 1.382 . S
C263 H240 0.951 . S
C263 C262 1.398 . S
C264 C265 1.384 . S
C264 H277 0.947 . S
C264 C299 1.382 . S
C265 C264 1.384 . S
C265 C266 1.378 . S
C266 C265 1.378 . S
C266 C267 1.378 . S
C266 H278 0.952 . S
C267 C266 1.378 . S
C267 H279 0.950 . S
C267 C298 1.383 . S
H268 C287 0.947 . S
H269 C288 0.946 . S
H270 C290 0.953 . S
H271 C291 0.945 . S
H272 C293 0.952 . S
H273 C294 0.949 . S
H274 C296 0.950 . S
H275 C297 0.948 . S
H276 C299 0.951 . S
H277 C264 0.947 . S
H278 C266 0.952 . S
H279 C267 0.950 . S
N280 C283 1.382 1_545 S
N280 C285 1.363 . S
N281 C283 1.371 . S
N281 C284 1.372 1_565 S
N282 C284 1.361 . S
N282 C285 1.377 . S
C283 N280 1.382 1_565 S
C283 N281 1.371 . S
C283 C286 1.480 . S
C284 N281 1.372 1_545 S
C284 N282 1.361 . S
C284 C292 1.457 . S
C285 N280 1.363 . S
C285 N282 1.377 . S
C285 C298 1.479 . S
C286 C283 1.480 . S
C286 C287 1.383 . S
C286 C291 1.385 . S
C287 H268 0.947 . S
C287 C286 1.383 . S
C287 C288 1.388 . S
C288 H269 0.946 . S
C288 C287 1.388 . S
C288 C289 1.384 . S
C289 C288 1.384 . S
C289 C290 1.377 . S
C290 H270 0.953 . S
C290 C289 1.377 . S
C290 C291 1.369 . S
C291 H271 0.945 . S
C291 C286 1.385 . S
C291 C290 1.369 . S
C292 C284 1.457 . S
C292 C293 1.372 1_545 S
C292 C297 1.364 . S
C293 H272 0.952 . S
C293 C292 1.372 1_565 S
C293 C294 1.389 . S
C294 H273 0.949 . S
C294 C293 1.389 . S
C294 C295 1.387 1_565 S
C295 C294 1.387 1_545 S
C295 C296 1.372 . S
C296 H274 0.950 . S
C296 C295 1.372 . S
C296 C297 1.379 . S
C297 H275 0.948 . S
C297 C292 1.364 . S
C297 C296 1.379 . S
C298 C267 1.383 . S
C298 C285 1.479 . S
C298 C299 1.398 . S
C299 C264 1.382 . S
C299 H276 0.951 . S
C299 C298 1.398 . S
C300 C301 1.384 . S
C300 H313 0.947 . S
C300 C335 1.382 . S
C301 C300 1.384 . S
C301 C302 1.378 . S
C302 C301 1.378 . S
C302 C303 1.378 . S
C302 H314 0.952 . S
C303 C302 1.378 . S
C303 H315 0.950 . S
C303 C334 1.383 . S
H304 C323 0.947 . S
H305 C324 0.946 . S
H306 C326 0.953 . S
H307 C327 0.945 . S
H308 C329 0.952 . S
H309 C330 0.949 . S
H310 C332 0.950 . S
H311 C333 0.948 . S
H312 C335 0.951 . S
H313 C300 0.947 . S
H314 C302 0.952 . S
H315 C303 0.950 . S
N316 C319 1.382 . S
N316 C321 1.363 . S
N317 C319 1.371 . S
N317 C320 1.372 . S
N318 C320 1.361 . S
N318 C321 1.377 . S
C319 N316 1.382 . S
C319 N317 1.371 . S
C319 C322 1.480 . S
C320 N317 1.372 . S
C320 N318 1.361 . S
C320 C328 1.457 . S
C321 N316 1.363 . S
C321 N318 1.377 . S
C321 C334 1.479 . S
C322 C319 1.480 . S
C322 C323 1.383 . S
C322 C327 1.385 . S
C323 H304 0.947 . S
C323 C322 1.383 . S
C323 C324 1.388 . S
C324 H305 0.946 . S
C324 C323 1.388 . S
C324 C325 1.384 . S
C325 C324 1.384 . S
C325 C326 1.377 . S
C326 H306 0.953 . S
C326 C325 1.377 . S
C326 C327 1.369 . S
C327 H307 0.945 . S
C327 C322 1.385 . S
C327 C326 1.369 . S
C328 C320 1.457 . S
C328 C329 1.372 . S
C328 C333 1.364 . S
C329 H308 0.952 . S
C329 C328 1.372 . S
C329 C330 1.389 . S
C330 H309 0.949 . S
C330 C329 1.389 . S
C330 C331 1.387 . S
C331 C330 1.387 . S
C331 C332 1.372 . S
C332 H310 0.950 . S
C332 C331 1.372 . S
C332 C333 1.379 . S
C333 H311 0.948 . S
C333 C328 1.364 . S
C333 C332 1.379 . S
C334 C303 1.383 . S
C334 C321 1.479 . S
C334 C335 1.398 . S
C335 C300 1.382 . S
C335 H312 0.951 . S
C335 C334 1.398 . S
H336 C348 0.930 . S
H337 C350 0.930 . S
H338 C351 0.930 . S
H339 C355 0.959 . S
H340 C355 0.959 . S
H341 C355 0.961 . S
H342 C356 0.960 . S
H343 C356 0.961 . S
H344 C356 0.959 . S
H345 C359 0.929 . S
H346 C360 0.931 . S
H347 C362 0.930 . S
C348 H336 0.930 . S
C348 C349 1.399 . S
C348 C353 1.399 . S
C349 C348 1.399 . S
C349 C350 1.376 . S
C350 H337 0.930 . S
C350 C349 1.376 . S
C350 C351 1.388 . S
C351 H338 0.930 . S
C351 C350 1.388 . S
C351 C352 1.390 . S
C352 C351 1.390 . S
C352 C353 1.394 . S
C352 C358 1.465 . S
C353 C348 1.399 . S
C353 C352 1.394 . S
C353 C354 1.516 . S
C354 C353 1.516 . S
C354 C355 1.502 . S
C354 C356 1.561 . S
C354 C357 1.526 . S
C355 H339 0.959 . S
C355 H340 0.959 . S
C355 H341 0.961 . S
C355 C354 1.502 . S
C356 H342 0.960 . S
C356 H343 0.961 . S
C356 H344 0.959 . S
C356 C354 1.561 . S
C357 C354 1.526 . S
C357 C358 1.396 . S
C357 C362 1.390 . S
C358 C352 1.465 . S
C358 C357 1.396 . S
C358 C359 1.399 . S
C359 H345 0.929 . S
C359 C358 1.399 . S
C359 C360 1.385 . S
C360 H346 0.931 . S
C360 C359 1.385 . S
C360 C361 1.389 . S
C361 C360 1.389 . S
C361 C362 1.387 . S
C362 H347 0.930 . S
C362 C357 1.390 . S
C362 C361 1.387 . S
H363 C375 0.930 . S
H364 C377 0.930 . S
H365 C378 0.930 . S
H366 C382 0.959 . S
H367 C382 0.959 . S
H368 C382 0.961 . S
H369 C383 0.960 . S
H370 C383 0.961 . S
H371 C383 0.959 . S
H372 C386 0.929 . S
H373 C387 0.931 . S
H374 C389 0.930 . S
C375 H363 0.930 . S
C375 C376 1.399 . S
C375 C380 1.399 . S
C376 C375 1.399 . S
C376 C377 1.376 . S
C377 H364 0.930 . S
C377 C376 1.376 . S
C377 C378 1.388 . S
C378 H365 0.930 . S
C378 C377 1.388 . S
C378 C379 1.390 . S
C379 C378 1.390 . S
C379 C380 1.394 . S
C379 C385 1.465 . S
C380 C375 1.399 . S
C380 C379 1.394 . S
C380 C381 1.516 . S
C381 C380 1.516 . S
C381 C382 1.502 . S
C381 C383 1.561 . S
C381 C384 1.526 . S
C382 H366 0.959 . S
C382 H367 0.959 . S
C382 H368 0.961 . S
C382 C381 1.502 . S
C383 H369 0.960 . S
C383 H370 0.961 . S
C383 H371 0.959 . S
C383 C381 1.561 . S
C384 C381 1.526 . S
C384 C385 1.396 . S
C384 C389 1.390 . S
C385 C379 1.465 . S
C385 C384 1.396 . S
C385 C386 1.399 . S
C386 H372 0.929 . S
C386 C385 1.399 . S
C386 C387 1.385 . S
C387 H373 0.931 . S
C387 C386 1.385 . S
C387 C388 1.389 . S
C388 C387 1.389 . S
C388 C389 1.387 . S
C389 H374 0.930 . S
C389 C384 1.390 . S
C389 C388 1.387 . S
H390 C402 0.930 . S
H391 C404 0.930 . S
H392 C405 0.930 . S
H393 C409 0.959 . S
H394 C409 0.959 . S
H395 C409 0.961 . S
H396 C410 0.960 . S
H397 C410 0.961 . S
H398 C410 0.959 . S
H399 C413 0.929 . S
H400 C414 0.931 . S
H401 C416 0.930 . S
C402 H390 0.930 . S
C402 C403 1.399 . S
C402 C407 1.399 . S
C403 C402 1.399 . S
C403 C404 1.376 . S
C404 H391 0.930 . S
C404 C403 1.376 . S
C404 C405 1.388 . S
C405 H392 0.930 . S
C405 C404 1.388 . S
C405 C406 1.390 . S
C406 C405 1.390 . S
C406 C407 1.394 . S
C406 C412 1.465 . S
C407 C402 1.399 . S
C407 C406 1.394 . S
C407 C408 1.516 . S
C408 C407 1.516 . S
C408 C409 1.502 . S
C408 C410 1.561 . S
C408 C411 1.526 . S
C409 H393 0.959 . S
C409 H394 0.959 . S
C409 H395 0.961 . S
C409 C408 1.502 . S
C410 H396 0.960 . S
C410 H397 0.961 . S
C410 H398 0.959 . S
C410 C408 1.561 . S
C411 C408 1.526 . S
C411 C412 1.396 . S
C411 C416 1.390 . S
C412 C406 1.465 . S
C412 C411 1.396 . S
C412 C413 1.399 . S
C413 H399 0.929 . S
C413 C412 1.399 . S
C413 C414 1.385 . S
C414 H400 0.931 . S
C414 C413 1.385 . S
C414 C415 1.389 . S
C415 C414 1.389 . S
C415 C416 1.387 . S
C416 H401 0.930 . S
C416 C411 1.390 . S
C416 C415 1.387 . S
H417 C429 0.930 . S
H418 C431 0.930 . S
H419 C432 0.930 . S
H420 C436 0.959 . S
H421 C436 0.959 . S
H422 C436 0.961 . S
H423 C437 0.960 . S
H424 C437 0.961 . S
H425 C437 0.959 . S
H426 C440 0.929 . S
H427 C441 0.931 . S
H428 C443 0.930 . S
C429 H417 0.930 . S
C429 C430 1.399 . S
C429 C434 1.399 . S
C430 C429 1.399 . S
C430 C431 1.376 . S
C431 H418 0.930 . S
C431 C430 1.376 . S
C431 C432 1.388 . S
C432 H419 0.930 . S
C432 C431 1.388 . S
C432 C433 1.390 . S
C433 C432 1.390 . S
C433 C434 1.394 . S
C433 C439 1.465 . S
C434 C429 1.399 . S
C434 C433 1.394 . S
C434 C435 1.516 . S
C435 C434 1.516 . S
C435 C436 1.502 . S
C435 C437 1.561 . S
C435 C438 1.526 . S
C436 H420 0.959 . S
C436 H421 0.959 . S
C436 H422 0.961 . S
C436 C435 1.502 . S
C437 H423 0.960 . S
C437 H424 0.961 . S
C437 H425 0.959 . S
C437 C435 1.561 . S
C438 C435 1.526 . S
C438 C439 1.396 . S
C438 C443 1.390 . S
C439 C433 1.465 . S
C439 C438 1.396 . S
C439 C440 1.399 . S
C440 H426 0.929 . S
C440 C439 1.399 . S
C440 C441 1.385 . S
C441 H427 0.931 . S
C441 C440 1.385 . S
C441 C442 1.389 . S
C442 C441 1.389 . S
C442 C443 1.387 . S
C443 H428 0.930 . S
C443 C438 1.390 . S
C443 C442 1.387 . S
H444 C456 0.930 . S
H445 C458 0.930 . S
H446 C459 0.930 . S
H447 C463 0.959 . S
H448 C463 0.959 . S
H449 C463 0.961 . S
H450 C464 0.960 . S
H451 C464 0.961 . S
H452 C464 0.959 . S
H453 C467 0.929 . S
H454 C468 0.931 . S
H455 C470 0.930 . S
C456 H444 0.930 . S
C456 C457 1.399 . S
C456 C461 1.399 . S
C457 C456 1.399 . S
C457 C458 1.376 . S
C458 H445 0.930 . S
C458 C457 1.376 . S
C458 C459 1.388 . S
C459 H446 0.930 . S
C459 C458 1.388 . S
C459 C460 1.390 . S
C460 C459 1.390 . S
C460 C461 1.394 . S
C460 C466 1.465 . S
C461 C456 1.399 . S
C461 C460 1.394 . S
C461 C462 1.516 . S
C462 C461 1.516 . S
C462 C463 1.502 . S
C462 C464 1.561 . S
C462 C465 1.526 . S
C463 H447 0.959 . S
C463 H448 0.959 . S
C463 H449 0.961 . S
C463 C462 1.502 . S
C464 H450 0.960 . S
C464 H451 0.961 . S
C464 H452 0.959 . S
C464 C462 1.561 . S
C465 C462 1.526 . S
C465 C466 1.396 . S
C465 C470 1.390 . S
C466 C460 1.465 . S
C466 C465 1.396 . S
C466 C467 1.399 . S
C467 H453 0.929 . S
C467 C466 1.399 . S
C467 C468 1.385 . S
C468 H454 0.931 . S
C468 C467 1.385 . S
C468 C469 1.389 . S
C469 C468 1.389 . S
C469 C470 1.387 . S
C470 H455 0.930 . S
C470 C465 1.390 . S
C470 C469 1.387 . S
H471 C483 0.930 . S
H472 C485 0.930 . S
H473 C486 0.930 . S
H474 C490 0.959 . S
H475 C490 0.959 . S
H476 C490 0.961 . S
H477 C491 0.960 . S
H478 C491 0.961 . S
H479 C491 0.959 . S
H480 C494 0.929 . S
H481 C495 0.931 . S
H482 C497 0.930 . S
C483 H471 0.930 . S
C483 C484 1.399 . S
C483 C488 1.399 . S
C484 C483 1.399 . S
C484 C485 1.376 . S
C485 H472 0.930 . S
C485 C484 1.376 . S
C485 C486 1.388 . S
C486 H473 0.930 . S
C486 C485 1.388 . S
C486 C487 1.390 . S
C487 C486 1.390 . S
C487 C488 1.394 . S
C487 C493 1.465 . S
C488 C483 1.399 . S
C488 C487 1.394 . S
C488 C489 1.516 . S
C489 C488 1.516 . S
C489 C490 1.502 . S
C489 C491 1.561 . S
C489 C492 1.526 . S
C490 H474 0.959 . S
C490 H475 0.959 . S
C490 H476 0.961 . S
C490 C489 1.502 . S
C491 H477 0.960 . S
C491 H478 0.961 . S
C491 H479 0.959 . S
C491 C489 1.561 . S
C492 C489 1.526 . S
C492 C493 1.396 . S
C492 C497 1.390 . S
C493 C487 1.465 . S
C493 C492 1.396 . S
C493 C494 1.399 . S
C494 H480 0.929 . S
C494 C493 1.399 . S
C494 C495 1.385 . S
C495 H481 0.931 . S
C495 C494 1.385 . S
C495 C496 1.389 . S
C496 C495 1.389 . S
C496 C497 1.387 . S
C497 H482 0.930 . S
C497 C492 1.390 . S
C497 C496 1.387 . S
H498 C510 0.930 . S
H499 C512 0.930 . S
H500 C513 0.930 . S
H501 C517 0.959 . S
H502 C517 0.959 . S
H503 C517 0.961 . S
H504 C518 0.960 . S
H505 C518 0.961 . S
H506 C518 0.959 . S
H507 C521 0.929 . S
H508 C522 0.931 . S
H509 C524 0.930 . S
C510 H498 0.930 . S
C510 C511 1.399 . S
C510 C515 1.399 . S
C511 C510 1.399 . S
C511 C512 1.376 . S
C512 H499 0.930 . S
C512 C511 1.376 . S
C512 C513 1.388 . S
C513 H500 0.930 . S
C513 C512 1.388 . S
C513 C514 1.390 . S
C514 C513 1.390 . S
C514 C515 1.394 . S
C514 C520 1.465 . S
C515 C510 1.399 . S
C515 C514 1.394 . S
C515 C516 1.516 . S
C516 C515 1.516 . S
C516 C517 1.502 . S
C516 C518 1.561 . S
C516 C519 1.526 . S
C517 H501 0.959 . S
C517 H502 0.959 . S
C517 H503 0.961 . S
C517 C516 1.502 . S
C518 H504 0.960 . S
C518 H505 0.961 . S
C518 H506 0.959 . S
C518 C516 1.561 . S
C519 C516 1.526 . S
C519 C520 1.396 . S
C519 C524 1.390 . S
C520 C514 1.465 . S
C520 C519 1.396 . S
C520 C521 1.399 . S
C521 H507 0.929 . S
C521 C520 1.399 . S
C521 C522 1.385 . S
C522 H508 0.931 . S
C522 C521 1.385 . S
C522 C523 1.389 . S
C523 C522 1.389 . S
C523 C524 1.387 . S
C524 H509 0.930 . S
C524 C519 1.390 . S
C524 C523 1.387 . S
H525 C537 0.930 . S
H526 C539 0.930 . S
H527 C540 0.930 . S
H528 C544 0.959 . S
H529 C544 0.959 . S
H530 C544 0.961 . S
H531 C545 0.960 . S
H532 C545 0.961 . S
H533 C545 0.959 . S
H534 C548 0.929 . S
H535 C549 0.931 . S
H536 C551 0.930 . S
C537 H525 0.930 . S
C537 C538 1.399 . S
C537 C542 1.399 . S
C538 C537 1.399 . S
C538 C539 1.376 . S
C539 H526 0.930 . S
C539 C538 1.376 . S
C539 C540 1.388 . S
C540 H527 0.930 . S
C540 C539 1.388 . S
C540 C541 1.390 . S
C541 C540 1.390 . S
C541 C542 1.394 . S
C541 C547 1.465 . S
C542 C537 1.399 . S
C542 C541 1.394 . S
C542 C543 1.516 . S
C543 C542 1.516 . S
C543 C544 1.502 . S
C543 C545 1.561 . S
C543 C546 1.526 . S
C544 H528 0.959 . S
C544 H529 0.959 . S
C544 H530 0.961 . S
C544 C543 1.502 . S
C545 H531 0.960 . S
C545 H532 0.961 . S
C545 H533 0.959 . S
C545 C543 1.561 . S
C546 C543 1.526 . S
C546 C547 1.396 . S
C546 C551 1.390 . S
C547 C541 1.465 . S
C547 C546 1.396 . S
C547 C548 1.399 . S
C548 H534 0.929 . S
C548 C547 1.399 . S
C548 C549 1.385 . S
C549 H535 0.931 . S
C549 C548 1.385 . S
C549 C550 1.389 . S
C550 C549 1.389 . S
C550 C551 1.387 . S
C551 H536 0.930 . S
C551 C546 1.390 . S
C551 C550 1.387 . S
H552 C564 0.930 . S
H553 C566 0.930 . S
H554 C567 0.930 . S
H555 C571 0.959 . S
H556 C571 0.959 . S
H557 C571 0.961 . S
H558 C572 0.960 . S
H559 C572 0.961 . S
H560 C572 0.959 . S
H561 C575 0.929 . S
H562 C576 0.931 . S
H563 C578 0.930 . S
C564 H552 0.930 . S
C564 C565 1.399 . S
C564 C569 1.399 . S
C565 C564 1.399 . S
C565 C566 1.376 . S
C566 H553 0.930 . S
C566 C565 1.376 . S
C566 C567 1.388 . S
C567 H554 0.930 . S
C567 C566 1.388 . S
C567 C568 1.390 . S
C568 C567 1.390 . S
C568 C569 1.394 . S
C568 C574 1.465 . S
C569 C564 1.399 . S
C569 C568 1.394 . S
C569 C570 1.516 . S
C570 C569 1.516 . S
C570 C571 1.502 . S
C570 C572 1.561 . S
C570 C573 1.526 . S
C571 H555 0.959 . S
C571 H556 0.959 . S
C571 H557 0.961 . S
C571 C570 1.502 . S
C572 H558 0.960 . S
C572 H559 0.961 . S
C572 H560 0.959 . S
C572 C570 1.561 . S
C573 C570 1.526 . S
C573 C574 1.396 . S
C573 C578 1.390 . S
C574 C568 1.465 . S
C574 C573 1.396 . S
C574 C575 1.399 . S
C575 H561 0.929 . S
C575 C574 1.399 . S
C575 C576 1.385 . S
C576 H562 0.931 . S
C576 C575 1.385 . S
C576 C577 1.389 . S
C577 C576 1.389 . S
C577 C578 1.387 . S
C578 H563 0.930 . S
C578 C573 1.390 . S
C578 C577 1.387 . S
H579 C591 0.930 . S
H580 C593 0.930 . S
H581 C594 0.930 . S
H582 C598 0.959 . S
H583 C598 0.959 . S
H584 C598 0.961 . S
H585 C599 0.960 . S
H586 C599 0.961 . S
H587 C599 0.959 . S
H588 C602 0.929 . S
H589 C603 0.931 . S
H590 C605 0.930 . S
C591 H579 0.930 . S
C591 C592 1.399 . S
C591 C596 1.399 . S
C592 C591 1.399 . S
C592 C593 1.376 . S
C593 H580 0.930 . S
C593 C592 1.376 . S
C593 C594 1.388 . S
C594 H581 0.930 . S
C594 C593 1.388 . S
C594 C595 1.390 . S
C595 C594 1.390 . S
C595 C596 1.394 . S
C595 C601 1.465 . S
C596 C591 1.399 . S
C596 C595 1.394 . S
C596 C597 1.516 . S
C597 C596 1.516 . S
C597 C598 1.502 . S
C597 C599 1.561 . S
C597 C600 1.526 . S
C598 H582 0.959 . S
C598 H583 0.959 . S
C598 H584 0.961 . S
C598 C597 1.502 . S
C599 H585 0.960 . S
C599 H586 0.961 . S
C599 H587 0.959 . S
C599 C597 1.561 . S
C600 C597 1.526 . S
C600 C601 1.396 . S
C600 C605 1.390 . S
C601 C595 1.465 . S
C601 C600 1.396 . S
C601 C602 1.399 . S
C602 H588 0.929 . S
C602 C601 1.399 . S
C602 C603 1.385 . S
C603 H589 0.931 . S
C603 C602 1.385 . S
C603 C604 1.389 . S
C604 C603 1.389 . S
C604 C605 1.387 . S
C605 H590 0.930 . S
C605 C600 1.390 . S
C605 C604 1.387 . S
H606 C618 0.930 . S
H607 C620 0.930 . S
H608 C621 0.930 . S
H609 C625 0.959 . S
H610 C625 0.959 . S
H611 C625 0.961 . S
H612 C626 0.960 . S
H613 C626 0.961 . S
H614 C626 0.959 . S
H615 C629 0.929 . S
H616 C630 0.931 . S
H617 C632 0.930 . S
C618 H606 0.930 . S
C618 C619 1.399 . S
C618 C623 1.399 . S
C619 C618 1.399 . S
C619 C620 1.376 . S
C620 H607 0.930 . S
C620 C619 1.376 . S
C620 C621 1.388 . S
C621 H608 0.930 . S
C621 C620 1.388 . S
C621 C622 1.390 . S
C622 C621 1.390 . S
C622 C623 1.394 . S
C622 C628 1.465 . S
C623 C618 1.399 . S
C623 C622 1.394 . S
C623 C624 1.516 . S
C624 C623 1.516 . S
C624 C625 1.502 . S
C624 C626 1.561 . S
C624 C627 1.526 . S
C625 H609 0.959 . S
C625 H610 0.959 . S
C625 H611 0.961 . S
C625 C624 1.502 . S
C626 H612 0.960 . S
C626 H613 0.961 . S
C626 H614 0.959 . S
C626 C624 1.561 . S
C627 C624 1.526 . S
C627 C628 1.396 . S
C627 C632 1.390 . S
C628 C622 1.465 . S
C628 C627 1.396 . S
C628 C629 1.399 . S
C629 H615 0.929 . S
C629 C628 1.399 . S
C629 C630 1.385 . S
C630 H616 0.931 . S
C630 C629 1.385 . S
C630 C631 1.389 . S
C631 C630 1.389 . S
C631 C632 1.387 . S
C632 H617 0.930 . S
C632 C627 1.390 . S
C632 C631 1.387 . S
H633 C645 0.930 . S
H634 C647 0.930 . S
H635 C648 0.930 . S
H636 C652 0.959 . S
H637 C652 0.959 . S
H638 C652 0.961 . S
H639 C653 0.960 . S
H640 C653 0.961 . S
H641 C653 0.959 . S
H642 C656 0.929 . S
H643 C657 0.931 . S
H644 C659 0.930 . S
C645 H633 0.930 . S
C645 C646 1.399 . S
C645 C650 1.399 . S
C646 C645 1.399 . S
C646 C647 1.376 . S
C647 H634 0.930 . S
C647 C646 1.376 . S
C647 C648 1.388 . S
C648 H635 0.930 . S
C648 C647 1.388 . S
C648 C649 1.390 . S
C649 C648 1.390 . S
C649 C650 1.394 . S
C649 C655 1.465 . S
C650 C645 1.399 . S
C650 C649 1.394 . S
C650 C651 1.516 . S
C651 C650 1.516 . S
C651 C652 1.502 . S
C651 C653 1.561 . S
C651 C654 1.526 . S
C652 H636 0.959 . S
C652 H637 0.959 . S
C652 H638 0.961 . S
C652 C651 1.502 . S
C653 H639 0.960 . S
C653 H640 0.961 . S
C653 H641 0.959 . S
C653 C651 1.561 . S
C654 C651 1.526 . S
C654 C655 1.396 . S
C654 C659 1.390 . S
C655 C649 1.465 . S
C655 C654 1.396 . S
C655 C656 1.399 . S
C656 H642 0.929 . S
C656 C655 1.399 . S
C656 C657 1.385 . S
C657 H643 0.931 . S
C657 C656 1.385 . S
C657 C658 1.389 . S
C658 C657 1.389 . S
C658 C659 1.387 . S
C659 H644 0.930 . S
C659 C654 1.390 . S
C659 C658 1.387 . S
H660 C672 0.930 . S
H661 C674 0.930 . S
H662 C675 0.930 . S
H663 C679 0.959 . S
H664 C679 0.959 . S
H665 C679 0.961 . S
H666 C680 0.960 . S
H667 C680 0.961 . S
H668 C680 0.959 1_655 S
H669 C683 0.929 . S
H670 C684 0.896 1_556 S
H671 C686 0.930 . S
C672 H660 0.930 . S
C672 C673 1.399 . S
C672 C677 1.399 . S
C673 C672 1.399 . S
C673 C674 1.376 1_455 S
C674 H661 0.930 . S
C674 C673 1.376 1_655 S
C674 C675 1.388 . S
C675 H662 0.930 . S
C675 C674 1.388 . S
C675 C676 1.390 . S
C676 C675 1.390 . S
C676 C677 1.394 1_655 S
C676 C682 1.467 . S
C677 C672 1.399 . S
C677 C676 1.394 1_455 S
C677 C678 1.516 . S
C678 C677 1.516 . S
C678 C679 1.502 . S
C678 C680 1.561 . S
C678 C681 1.526 . S
C679 H663 0.959 . S
C679 H664 0.959 . S
C679 H665 0.961 . S
C679 C678 1.502 . S
C680 H666 0.960 . S
C680 H667 0.961 . S
C680 H668 0.959 1_455 S
C680 C678 1.561 . S
C681 C678 1.526 . S
C681 C682 1.382 1_455 S
C681 C686 1.390 . S
C682 C676 1.467 . S
C682 C681 1.382 1_655 S
C682 C683 1.409 . S
C683 H669 0.929 . S
C683 C682 1.409 . S
C683 C684 1.436 . S
C684 H670 0.896 1_554 S
C684 C683 1.436 . S
C684 C685 1.374 1_654 S
C685 C684 1.374 1_456 S
C685 C686 1.387 1_556 S
C686 H671 0.930 . S
C686 C681 1.390 . S
C686 C685 1.387 1_554 S
H687 C699 0.930 . S
H688 C701 0.930 . S
H689 C702 0.930 . S
H690 C706 0.959 . S
H691 C706 0.959 . S
H692 C706 0.961 . S
H693 C707 0.960 . S
H694 C707 0.961 . S
H695 C707 0.959 . S
H696 C710 0.929 . S
H697 C711 0.931 . S
H698 C713 0.930 . S
C699 H687 0.930 . S
C699 C700 1.399 . S
C699 C704 1.399 . S
C700 C699 1.399 . S
C700 C701 1.376 1_545 S
C701 H688 0.930 . S
C701 C700 1.376 1_565 S
C701 C702 1.388 . S
C702 H689 0.930 . S
C702 C701 1.388 . S
C702 C703 1.390 1_565 S
C703 C702 1.390 1_545 S
C703 C704 1.394 . S
C703 C709 1.465 . S
C704 C699 1.399 . S
C704 C703 1.394 . S
C704 C705 1.516 . S
C705 C704 1.516 . S
C705 C706 1.502 . S
C705 C707 1.561 . S
C705 C708 1.526 . S
C706 H690 0.959 . S
C706 H691 0.959 . S
C706 H692 0.961 . S
C706 C705 1.502 . S
C707 H693 0.960 . S
C707 H694 0.961 . S
C707 H695 0.959 . S
C707 C705 1.561 . S
C708 C705 1.526 . S
C708 C709 1.396 . S
C708 C713 1.390 . S
C709 C703 1.465 . S
C709 C708 1.396 . S
C709 C710 1.399 1_545 S
C710 H696 0.929 . S
C710 C709 1.399 1_565 S
C710 C711 1.385 . S
C711 H697 0.931 . S
C711 C710 1.385 . S
C711 C712 1.389 1_565 S
C712 C711 1.389 1_545 S
C712 C713 1.387 . S
C713 H698 0.930 . S
C713 C708 1.390 . S
C713 C712 1.387 . S
H714 C726 0.930 . S
H715 C728 0.930 . S
H716 C729 0.930 . S
H717 C733 0.959 . S
H718 C733 0.959 . S
H719 C733 0.961 . S
H720 C734 0.960 . S
H721 C734 0.961 . S
H722 C734 0.959 . S
H723 C737 0.929 . S
H724 C738 0.931 . S
H725 C740 0.930 . S
C726 H714 0.930 . S
C726 C727 1.399 . S
C726 C731 1.399 . S
C727 C726 1.399 . S
C727 C728 1.376 . S
C728 H715 0.930 . S
C728 C727 1.376 . S
C728 C729 1.388 . S
C729 H716 0.930 . S
C729 C728 1.388 . S
C729 C730 1.390 . S
C730 C729 1.390 . S
C730 C731 1.394 . S
C730 C736 1.465 . S
C731 C726 1.399 . S
C731 C730 1.394 . S
C731 C732 1.516 . S
C732 C731 1.516 . S
C732 C733 1.502 . S
C732 C734 1.561 . S
C732 C735 1.526 . S
C733 H717 0.959 . S
C733 H718 0.959 . S
C733 H719 0.961 . S
C733 C732 1.502 . S
C734 H720 0.960 . S
C734 H721 0.961 . S
C734 H722 0.959 . S
C734 C732 1.561 . S
C735 C732 1.526 . S
C735 C736 1.396 . S
C735 C740 1.390 . S
C736 C730 1.465 . S
C736 C735 1.396 . S
C736 C737 1.399 . S
C737 H723 0.929 . S
C737 C736 1.399 . S
C737 C738 1.385 . S
C738 H724 0.931 . S
C738 C737 1.385 . S
C738 C739 1.389 . S
C739 C738 1.389 . S
C739 C740 1.387 . S
C740 H725 0.930 . S
C740 C735 1.390 . S
C740 C739 1.387 . S
H741 C753 0.930 . S
H742 C755 0.930 . S
H743 C756 0.930 . S
H744 C760 0.959 . S
H745 C760 0.959 . S
H746 C760 0.961 . S
H747 C761 0.960 . S
H748 C761 0.961 . S
H749 C761 0.959 . S
H750 C764 0.929 . S
H751 C765 0.931 . S
H752 C767 0.930 . S
C753 H741 0.930 . S
C753 C754 1.399 . S
C753 C758 1.399 . S
C754 C753 1.399 . S
C754 C755 1.376 1_545 S
C755 H742 0.930 . S
C755 C754 1.376 1_565 S
C755 C756 1.388 . S
C756 H743 0.930 . S
C756 C755 1.388 . S
C756 C757 1.390 . S
C757 C756 1.390 . S
C757 C758 1.394 1_565 S
C757 C763 1.465 . S
C758 C753 1.399 . S
C758 C757 1.394 1_545 S
C758 C759 1.516 . S
C759 C758 1.516 . S
C759 C760 1.502 . S
C759 C761 1.561 . S
C759 C762 1.526 . S
C760 H744 0.959 . S
C760 H745 0.959 . S
C760 H746 0.961 . S
C760 C759 1.502 . S
C761 H747 0.960 . S
C761 H748 0.961 . S
C761 H749 0.959 . S
C761 C759 1.561 . S
C762 C759 1.526 . S
C762 C763 1.396 1_545 S
C762 C767 1.390 . S
C763 C757 1.465 . S
C763 C762 1.396 1_565 S
C763 C764 1.399 . S
C764 H750 0.929 . S
C764 C763 1.399 . S
C764 C765 1.385 . S
C765 H751 0.931 . S
C765 C764 1.385 . S
C765 C766 1.389 1_565 S
C766 C765 1.389 1_545 S
C766 C767 1.387 . S
C767 H752 0.930 . S
C767 C762 1.390 . S
C767 C766 1.387 . S
H768 C780 0.930 . S
H769 C782 0.930 . S
H770 C783 0.930 . S
H771 C787 0.959 . S
H772 C787 0.959 . S
H773 C787 0.961 . S
H774 C788 0.960 . S
H775 C788 0.961 . S
H776 C788 0.959 . S
H777 C791 0.929 . S
H778 C792 0.943 . S
H779 C794 0.930 . S
C780 H768 0.930 . S
C780 C781 1.399 . S
C780 C785 1.399 . S
C781 C780 1.399 . S
C781 C782 1.376 . S
C782 H769 0.930 . S
C782 C781 1.376 . S
C782 C783 1.388 . S
C783 H770 0.930 . S
C783 C782 1.388 . S
C783 C784 1.390 . S
C784 C783 1.390 . S
C784 C785 1.394 . S
C784 C790 1.465 . S
C785 C780 1.399 . S
C785 C784 1.394 . S
C785 C786 1.516 . S
C786 C785 1.516 . S
C786 C787 1.502 . S
C786 C788 1.561 . S
C786 C789 1.526 . S
C787 H771 0.959 . S
C787 H772 0.959 . S
C787 H773 0.961 . S
C787 C786 1.502 . S
C788 H774 0.960 . S
C788 H775 0.961 . S
C788 H776 0.959 . S
C788 C786 1.561 . S
C789 C786 1.526 . S
C789 C790 1.396 . S
C789 C794 1.390 . S
C790 C784 1.465 . S
C790 C789 1.396 . S
C790 C791 1.399 . S
C791 H777 0.929 . S
C791 C790 1.399 . S
C791 C792 1.366 1_556 S
C792 H778 0.943 . S
C792 C791 1.366 1_554 S
C792 C793 1.396 . S
C793 C792 1.396 . S
C793 C794 1.387 1_554 S
C794 H779 0.930 . S
C794 C789 1.390 . S
C794 C793 1.387 1_556 S
H795 C807 0.930 . S
H796 C809 0.930 . S
H797 C810 0.930 . S
H798 C814 0.959 . S
H799 C814 0.959 . S
H800 C814 0.961 . S
H801 C815 0.960 . S
H802 C815 0.961 . S
H803 C815 0.959 1_655 S
H804 C818 0.929 . S
H805 C819 0.931 . S
H806 C821 0.930 . S
C807 H795 0.930 . S
C807 C808 1.403 . S
C807 C812 1.399 . S
C808 C807 1.403 . S
C808 C809 1.370 1_455 S
C809 H796 0.930 . S
C809 C808 1.370 1_655 S
C809 C810 1.388 . S
C810 H797 0.930 . S
C810 C809 1.388 . S
C810 C811 1.390 . S
C811 C810 1.390 . S
C811 C812 1.394 1_655 S
C811 C817 1.465 . S
C812 C807 1.399 . S
C812 C811 1.394 1_455 S
C812 C813 1.516 . S
C813 C812 1.516 . S
C813 C814 1.502 . S
C813 C815 1.561 . S
C813 C816 1.526 . S
C814 H798 0.959 . S
C814 H799 0.959 . S
C814 H800 0.961 . S
C814 C813 1.502 . S
C815 H801 0.960 . S
C815 H802 0.961 . S
C815 H803 0.959 1_455 S
C815 C813 1.561 . S
C816 C813 1.526 . S
C816 C817 1.396 1_455 S
C816 C821 1.390 . S
C817 C811 1.465 . S
C817 C816 1.396 1_655 S
C817 C818 1.399 . S
C818 H804 0.929 . S
C818 C817 1.399 . S
C818 C819 1.385 . S
C819 H805 0.931 . S
C819 C818 1.385 . S
C819 C820 1.389 . S
C820 C819 1.389 . S
C820 C821 1.387 1_655 S
C821 H806 0.930 . S
C821 C816 1.390 . S
C821 C820 1.387 1_455 S
C349 C19 1.922 . S
C361 C325 1.883 . S
C376 C46 1.235 . S
C388 C253 1.250 . S
C403 C95 0.558 . S
C415 C289 0.419 . S
C430 C10 2.014 . S
C442 C301 1.954 . S
C469 C229 1.313 . S
C457 C55 1.318 . S
C496 C265 0.580 . S
C484 C86 0.494 . S
C511 C59 3.096 . S
C523 C181 3.036 . S
C538 C90 2.023 . S
C550 C193 2.004 . S
C565 C15 1.312 . S
C577 C121 1.307 . S
C604 C157 2.968 . S
C592 C50 2.993 . S
C631 C217 1.890 . S
C619 C99 1.907 . S
C646 C6 1.196 . S
C658 C145 1.196 . S
C685 C223 1.362 . S
C673 C9 1.329 . S
C700 C58 1.452 . S
C712 C151 1.486 . S
C727 C98 1.668 . S
C739 C187 1.766 . S
C766 C295 1.081 . S
C754 C49 1.087 . S
C793 C331 1.352 . S
C781 C89 1.328 . S
C808 C18 1.458 . S
C820 C259 1.482 . S
