# Generated by pormake.
# Topology pyr, (3,6)-cn, num edge types: 1
# Building blocks:
#     Node 0, Type 0, BuildingBlock: PAMTOO_clean_linker_0, # of connection points: 3
#     Node 1, Type 0, BuildingBlock: PAMTOO_clean_linker_0, # of connection points: 3
#     Node 2, Type 0, BuildingBlock: PAMTOO_clean_linker_0, # of connection points: 3
#     Node 3, Type 0, BuildingBlock: PAMTOO_clean_linker_0, # of connection points: 3
#     Node 4, Type 0, BuildingBlock: PAMTOO_clean_linker_0, # of connection points: 3
#     Node 5, Type 0, BuildingBlock: PAMTOO_clean_linker_0, # of connection points: 3
#     Node 6, Type 0, BuildingBlock: PAMTOO_clean_linker_0, # of connection points: 3
#     Node 7, Type 0, BuildingBlock: PAMTOO_clean_linker_0, # of connection points: 3
#     Node 8, Type 1, BuildingBlock: MIDCAF_clean_sbu_0, # of connection points: 6
#     Node 9, Type 1, BuildingBlock: MIDCAF_clean_sbu_0, # of connection points: 6
#     Node 10, Type 1, BuildingBlock: MIDCAF_clean_sbu_0, # of connection points: 6
#     Node 11, Type 1, BuildingBlock: MIDCAF_clean_sbu_0, # of connection points: 6
#     Edge 12, Type (0, 1), BuildingBlock: XIVTED_clean_linker_0, # of connection points: 2
#     Edge 13, Type (0, 1), BuildingBlock: XIVTED_clean_linker_0, # of connection points: 2
#     Edge 14, Type (0, 1), BuildingBlock: XIVTED_clean_linker_0, # of connection points: 2
#     Edge 15, Type (0, 1), BuildingBlock: XIVTED_clean_linker_0, # of connection points: 2
#     Edge 16, Type (0, 1), BuildingBlock: XIVTED_clean_linker_0, # of connection points: 2
#     Edge 17, Type (0, 1), BuildingBlock: XIVTED_clean_linker_0, # of connection points: 2
#     Edge 18, Type (0, 1), BuildingBlock: XIVTED_clean_linker_0, # of connection points: 2
#     Edge 19, Type (0, 1), BuildingBlock: XIVTED_clean_linker_0, # of connection points: 2
#     Edge 20, Type (0, 1), BuildingBlock: XIVTED_clean_linker_0, # of connection points: 2
#     Edge 21, Type (0, 1), BuildingBlock: XIVTED_clean_linker_0, # of connection points: 2
#     Edge 22, Type (0, 1), BuildingBlock: XIVTED_clean_linker_0, # of connection points: 2
#     Edge 23, Type (0, 1), BuildingBlock: XIVTED_clean_linker_0, # of connection points: 2
#     Edge 24, Type (0, 1), BuildingBlock: XIVTED_clean_linker_0, # of connection points: 2
#     Edge 25, Type (0, 1), BuildingBlock: XIVTED_clean_linker_0, # of connection points: 2
#     Edge 26, Type (0, 1), BuildingBlock: XIVTED_clean_linker_0, # of connection points: 2
#     Edge 27, Type (0, 1), BuildingBlock: XIVTED_clean_linker_0, # of connection points: 2
#     Edge 28, Type (0, 1), BuildingBlock: XIVTED_clean_linker_0, # of connection points: 2
#     Edge 29, Type (0, 1), BuildingBlock: XIVTED_clean_linker_0, # of connection points: 2
#     Edge 30, Type (0, 1), BuildingBlock: XIVTED_clean_linker_0, # of connection points: 2
#     Edge 31, Type (0, 1), BuildingBlock: XIVTED_clean_linker_0, # of connection points: 2
#     Edge 32, Type (0, 1), BuildingBlock: XIVTED_clean_linker_0, # of connection points: 2
#     Edge 33, Type (0, 1), BuildingBlock: XIVTED_clean_linker_0, # of connection points: 2
#     Edge 34, Type (0, 1), BuildingBlock: XIVTED_clean_linker_0, # of connection points: 2
#     Edge 35, Type (0, 1), BuildingBlock: XIVTED_clean_linker_0, # of connection points: 2
# Relax obj value: 0.095
# Max RMSD: 0.202
# Mean RMSD: 0.141
data_MOF--net-pyr--node1-MIDCAF_clean_sbu_0--node2-PAMTOO_clean_linker_0--edge1-XIVTED_clean_linker_0
_symmetry_space_group_name_H-M    P1
_symmetry_Int_Tables_number       1
_symmetry_cell_setting            triclinic
loop_
_symmetry_equiv_pos_as_xyz
'x, y, z'
_cell_length_a     34.773768
_cell_length_b     35.957628
_cell_length_c     35.414071
_cell_angle_alpha  89.852361
_cell_angle_beta   91.227595
_cell_angle_gamma 95.385419
loop_
_atom_site_label
_atom_site_type_symbol
_atom_site_fract_x
_atom_site_fract_y
_atom_site_fract_z
_atom_type_partial_charge
H0 H 0.20478 0.26636 0.27386 0.0
H1 H 0.30037 0.19819 0.2789 0.0
H2 H 0.29749 0.28271 0.19461 0.0
H3 H 0.308 0.20708 0.16709 0.0
C4 C 0.32532 0.19715 0.19127 0.0
O5 O 0.33185 0.22525 0.21783 0.0
H6 H 0.30808 0.17271 0.20387 0.0
C7 C 0.23268 0.25991 0.2641 0.0
C8 C 0.2493 0.27958 0.23294 0.0
C9 C 0.2506 0.23031 0.28116 0.0
C10 C 0.28574 0.22075 0.26664 0.0
C11 C 0.30163 0.23885 0.23487 0.0
C12 C 0.28413 0.26872 0.21877 0.0
H13 H 0.26046 0.86861 0.75693 0.0
H14 H 0.27009 0.80635 0.65445 0.0
H15 H 0.36267 0.81299 0.73616 0.0
H16 H 0.37612 0.82614 0.65041 0.0
C17 C 0.35867 0.79999 0.64136 0.0
O18 O 0.33765 0.78483 0.67127 0.0
H19 H 0.33854 0.80738 0.61829 0.0
C20 C 0.27675 0.85163 0.73916 0.0
C21 C 0.31369 0.8427 0.75131 0.0
C22 C 0.26076 0.8394 0.70399 0.0
C23 C 0.28123 0.81579 0.68192 0.0
C24 C 0.31762 0.80609 0.6938 0.0
C25 C 0.33386 0.81964 0.72822 0.0
H26 H 0.81409 0.23642 0.84591 0.0
H27 H 0.70961 0.23999 0.77949 0.0
H28 H 0.79099 0.33643 0.78481 0.0
H29 H 0.70295 0.33779 0.80545 0.0
C30 C 0.69234 0.32375 0.77868 0.0
O31 O 0.72265 0.30965 0.76055 0.0
H32 H 0.67054 0.30042 0.78619 0.0
C33 C 0.79648 0.25124 0.82655 0.0
C34 C 0.8081 0.28861 0.81666 0.0
C35 C 0.76128 0.23312 0.81303 0.0
C36 C 0.73761 0.25271 0.78903 0.0
C37 C 0.74804 0.29002 0.7798 0.0
C38 C 0.78341 0.30767 0.79289 0.0
H39 H 0.8068 0.75015 0.36398 0.0
H40 H 0.82122 0.66825 0.2785 0.0
H41 H 0.88159 0.77711 0.27004 0.0
H42 H 0.86134 0.74562 0.1933 0.0
C43 C 0.85418 0.71629 0.20267 0.0
O44 O 0.86914 0.71179 0.23859 0.0
H45 H 0.82212 0.7106 0.20227 0.0
C46 C 0.81979 0.74261 0.33789 0.0
C47 C 0.84503 0.76896 0.31893 0.0
C48 C 0.81136 0.70612 0.32386 0.0
C49 C 0.8269 0.69639 0.28944 0.0
C50 C 0.85169 0.72234 0.27001 0.0
C51 C 0.86089 0.75826 0.28477 0.0
H52 H 0.88082 0.93909 0.83149 0.0
H53 H 0.86213 0.85844 0.92105 0.0
H54 H 0.95378 0.84906 0.84382 0.0
H55 H 0.9063 0.77822 0.86552 0.0
C56 C 0.90342 0.78457 0.896 0.0
O57 O 0.91928 0.82045 0.9037 0.0
H58 H 0.87219 0.78218 0.90285 0.0
C59 C 0.88851 0.91426 0.84615 0.0
C60 C 0.91979 0.89569 0.83358 0.0
C61 C 0.86739 0.90121 0.87773 0.0
C62 C 0.87798 0.86921 0.89672 0.0
C63 C 0.90878 0.85042 0.88431 0.0
C64 C 0.92954 0.8635 0.85274 0.0
H65 H 0.71668 0.11561 0.31174 0.0
H66 H 0.66825 0.22134 0.29999 0.0
H67 H 0.76135 0.2098 0.37927 0.0
H68 H 0.71091 0.25609 0.40895 0.0
C69 C 0.6942 0.26393 0.38347 0.0
O70 O 0.71377 0.25549 0.35156 0.0
H71 H 0.66545 0.24743 0.38395 0.0
C72 C 0.71627 0.14472 0.3195 0.0
C73 C 0.74215 0.15993 0.34753 0.0
C74 C 0.68932 0.16652 0.30212 0.0
C75 C 0.68911 0.20421 0.31261 0.0
C76 C 0.71513 0.2197 0.34035 0.0
C77 C 0.74165 0.19764 0.35756 0.0
H78 H 0.3348 0.68931 0.12253 0.0
H79 H 0.32841 0.66219 0.24091 0.0
H80 H 0.37493 0.77138 0.2061 0.0
H81 H 0.4076 0.76061 0.28238 0.0
C82 C 0.39777 0.73046 0.27898 0.0
O83 O 0.36048 0.72759 0.26404 0.0
H84 H 0.41803 0.71833 0.2595 0.0
C85 C 0.34007 0.69713 0.15186 0.0
C86 C 0.35635 0.73336 0.16061 0.0
C87 C 0.32941 0.67135 0.18058 0.0
C88 C 0.33601 0.6819 0.21851 0.0
C89 C 0.3525 0.71793 0.22757 0.0
C90 C 0.36174 0.74379 0.1987 0.0
H91 H 0.13994 0.31303 0.69377 0.0
H92 H 0.23448 0.36604 0.76031 0.0
H93 H 0.25685 0.31504 0.65474 0.0
H94 H 0.3079 0.30367 0.72408 0.0
C95 C 0.31557 0.33428 0.72751 0.0
O96 O 0.28738 0.35436 0.7117 0.0
H97 H 0.31846 0.34042 0.75824 0.0
C98 C 0.17063 0.32098 0.69758 0.0
C99 C 0.19671 0.31101 0.67031 0.0
C100 C 0.18403 0.34031 0.73038 0.0
C101 C 0.22379 0.35017 0.73566 0.0
C102 C 0.24981 0.34129 0.70827 0.0
C103 C 0.23638 0.3215 0.67586 0.0
Zn104 Zn 0.99165 0.07141 0.55191 0.0
Zn105 Zn 0.06989 0.98656 0.46906 0.0
Zn106 Zn 0.03077 0.0296 0.51143 0.0
C107 C 0.10544 0.05905 0.46177 0.0
C108 C 0.99459 0.97996 0.44022 0.0
O109 O 0.0297 0.0069 0.57028 0.0
O110 O 0.99864 0.0477 0.60137 0.0
C111 C 0.05273 0.11818 0.52572 0.0
O112 O 0.07826 0.06573 0.48434 0.0
O113 O 0.10906 0.02595 0.45161 0.0
O114 O 0.02735 0.96944 0.43339 0.0
O115 O 0.99048 0.00228 0.468 0.0
O116 O 0.02176 0.11973 0.5433 0.0
O117 O 0.06107 0.0869 0.51176 0.0
O118 O 0.9712 0.02979 0.48619 0.0
O119 O 0.94091 0.06296 0.5265 0.0
C120 C 0.94049 0.04435 0.49634 0.0
O121 O 0.05408 0.98675 0.54866 0.0
O122 O 0.08427 0.9519 0.50967 0.0
C123 C 0.01598 0.01843 0.60125 0.0
C124 C 0.07419 0.95903 0.54272 0.0
Zn125 Zn 0.51146 0.05324 0.96015 0.0
Zn126 Zn 0.57821 0.95849 0.04936 0.0
Zn127 Zn 0.54448 0.00506 0.00428 0.0
C128 C 0.63171 0.98022 0.99466 0.0
C129 C 0.51124 0.91936 0.0205 0.0
O130 O 0.52527 0.05091 0.03953 0.0
O131 O 0.5001 0.08968 0.99943 0.0
C132 C 0.58615 0.04959 0.93428 0.0
O133 O 0.60356 0.99859 0.98306 0.0
O134 O 0.62842 0.96057 0.02419 0.0
O135 O 0.54068 0.91448 0.04071 0.0
O136 O 0.50777 0.95119 0.00458 0.0
O137 O 0.55584 0.06512 0.92666 0.0
O138 O 0.58708 0.02643 0.96205 0.0
O139 O 0.49374 0.97374 0.97564 0.0
O140 O 0.46873 0.01737 0.94139 0.0
C141 C 0.46801 0.98373 0.95188 0.0
O142 O 0.54952 0.02972 0.06159 0.0
O143 O 0.57567 0.98739 0.09675 0.0
C144 C 0.50841 0.08082 0.03294 0.0
C145 C 0.56267 0.01891 0.09371 0.0
Zn146 Zn 0.59803 0.57335 0.56428 0.0
Zn147 Zn 0.50105 0.48779 0.4776 0.0
Zn148 Zn 0.55044 0.53042 0.52097 0.0
C149 C 0.57466 0.48515 0.44754 0.0
C150 C 0.47698 0.55951 0.47509 0.0
O151 O 0.5239 0.58368 0.53054 0.0
O152 O 0.56415 0.61386 0.57161 0.0
C153 C 0.5824 0.5068 0.60357 0.0
O154 O 0.58363 0.50903 0.47416 0.0
O155 O 0.54005 0.47166 0.44273 0.0
O156 O 0.46881 0.52746 0.46096 0.0
O157 O 0.50514 0.56516 0.49936 0.0
O158 O 0.60357 0.53725 0.60568 0.0
O159 O 0.55908 0.50028 0.57502 0.0
O160 O 0.60537 0.54009 0.49035 0.0
O161 O 0.63993 0.58059 0.52726 0.0
C162 C 0.63623 0.56206 0.49694 0.0
O163 O 0.52629 0.48321 0.55597 0.0
O164 O 0.48268 0.45279 0.51815 0.0
C165 C 0.53285 0.6118 0.55266 0.0
C166 C 0.49926 0.45664 0.55017 0.0
Zn167 Zn 0.10455 0.53326 0.97812 0.0
Zn168 Zn 0.00473 0.44675 0.06353 0.0
Zn169 Zn 0.05492 0.49194 0.02098 0.0
C170 C 0.07956 0.44465 0.09506 0.0
C171 C 1.00058 0.41984 0.98886 0.0
O172 O 0.03368 0.54808 0.01543 0.0
O173 O 0.07761 0.57929 0.98023 0.0
C174 C 0.14563 0.51201 0.04211 0.0
O175 O 0.08793 0.46777 0.06788 0.0
O176 O 0.04501 0.43152 0.09985 0.0
O177 O 0.98648 0.41258 0.02094 0.0
O178 O 0.02645 0.44753 0.98459 0.0
O179 O 0.15068 0.52934 0.01128 0.0
O180 O 0.11204 0.49602 0.05005 0.0
O181 O 0.05733 0.46553 0.96452 0.0
O182 O 0.09819 0.50293 0.93152 0.0
C183 C 0.07552 0.47352 0.93377 0.0
O184 O 0.01188 0.52723 0.04297 0.0
O185 O 0.97363 0.48851 0.07745 0.0
C186 C 0.04637 0.57811 0.99792 0.0
C187 C 0.98299 0.52105 0.06507 0.0
H188 H 0.25084 0.15486 0.29322 0.0
H189 H 0.09156 0.1325 0.44879 0.0
H190 H 0.20531 0.2526 0.3391 0.0
H191 H 0.17663 0.05421 0.43342 0.0
H192 H 0.12977 0.17765 0.40897 0.0
H193 H 0.22002 0.11745 0.34293 0.0
C194 C 0.23494 0.16879 0.31404 0.0
C195 C 0.23143 0.20736 0.31199 0.0
C196 C 0.14032 0.15082 0.41501 0.0
C197 C 0.1945 0.16374 0.36886 0.0
C198 C 0.11874 0.12519 0.43802 0.0
C199 C 0.1309 0.0895 0.44445 0.0
C200 C 0.17378 0.14027 0.39794 0.0
C201 C 0.16591 0.08123 0.42895 0.0
C202 C 0.21703 0.14717 0.34243 0.0
C203 C 0.20875 0.22301 0.33923 0.0
N204 N 0.18575 0.10615 0.40609 0.0
N205 N 0.19092 0.2011 0.36641 0.0
H206 H 0.30705 0.91263 0.77979 0.0
H207 H 0.4739 0.90933 0.93602 0.0
H208 H 0.36325 0.8126 0.80308 0.0
H209 H 0.39727 0.99645 0.92415 0.0
H210 H 0.432 0.87059 0.89168 0.0
H211 H 0.33837 0.94145 0.83542 0.0
C212 C 0.32545 0.89631 0.79688 0.0
C213 C 0.33208 0.8598 0.78652 0.0
C214 C 0.42404 0.89791 0.89942 0.0
C215 C 0.36952 0.89363 0.85045 0.0
C216 C 0.44774 0.91987 0.92497 0.0
C217 C 0.43926 0.95632 0.93339 0.0
C218 C 0.3919 0.91273 0.88229 0.0
C219 C 0.40522 0.96873 0.91801 0.0
C220 C 0.34367 0.91303 0.82873 0.0
C221 C 0.35751 0.84092 0.80953 0.0
N222 N 0.38317 0.94724 0.89293 0.0
N223 N 0.37555 0.85815 0.84023 0.0
H224 H 0.69172 0.3995 0.78713 0.0
H225 H 0.57105 0.43028 0.59637 0.0
H226 H 0.64937 0.3088 0.71358 0.0
H227 H 0.60919 0.51764 0.67564 0.0
H228 H 0.59419 0.3842 0.64056 0.0
H229 H 0.65849 0.44249 0.74741 0.0
C230 C 0.67543 0.38872 0.76247 0.0
C231 C 0.67324 0.35066 0.75348 0.0
C232 C 0.59696 0.41341 0.64846 0.0
C233 C 0.63492 0.39962 0.70779 0.0
C234 C 0.58335 0.43966 0.62343 0.0
C235 C 0.58833 0.47786 0.6323 0.0
C236 C 0.61578 0.42559 0.6824 0.0
C237 C 0.60507 0.48851 0.6675 0.0
C238 C 0.65628 0.4132 0.73986 0.0
C239 C 0.65173 0.33806 0.72126 0.0
N240 N 0.61848 0.46262 0.69102 0.0
N241 N 0.63343 0.36251 0.69946 0.0
H242 H 0.92289 0.72659 0.16567 0.0
H243 H 0.90788 0.51732 0.08595 0.0
H244 H 0.82538 0.64551 0.18211 0.0
H245 H 0.00979 0.59457 0.07606 0.0
H246 H 0.87464 0.56647 0.11493 0.0
H247 H 0.95287 0.68114 0.12695 0.0
C248 C 0.90765 0.69933 0.16061 0.0
C249 C 0.87143 0.68984 0.17646 0.0
C250 C 0.90414 0.57289 0.10607 0.0
C251 C 0.90557 0.63762 0.1329 0.0
C252 C 0.92311 0.54483 0.08947 0.0
C253 C 0.96156 0.55197 0.07835 0.0
C254 C 0.92385 0.60836 0.11203 0.0
C255 C 0.97994 0.58807 0.08365 0.0
C256 C 0.92473 0.6734 0.13867 0.0
C257 C 0.85309 0.654 0.16986 0.0
N258 N 0.96099 0.61489 0.10033 0.0
N259 N 0.87036 0.62919 0.14861 0.0
H260 H 0.3627 0.1358 0.21175 0.0
H261 H 0.49747 0.15482 0.03236 0.0
H262 H 0.37238 0.23148 0.13794 0.0
H263 H 0.48593 0.0571 0.10352 0.0
H264 H 0.46184 0.18807 0.07806 0.0
H265 H 0.4172 0.11152 0.18015 0.0
C266 C 0.3768 0.15195 0.18924 0.0
C267 C 0.36269 0.18526 0.17679 0.0
C268 C 0.46766 0.15958 0.08412 0.0
C269 C 0.42479 0.15772 0.14046 0.0
C270 C 0.4881 0.1406 0.05805 0.0
C271 C 0.49452 0.10309 0.06407 0.0
C272 C 0.45293 0.14076 0.11627 0.0
C273 C 0.48186 0.08607 0.09787 0.0
C274 C 0.40782 0.13809 0.17118 0.0
C275 C 0.38215 0.20541 0.14792 0.0
N276 N 0.46113 0.10485 0.12244 0.0
N277 N 0.41185 0.19106 0.13034 0.0
H278 H 0.23716 0.90979 0.71211 0.0
H279 H 0.08581 0.88536 0.54298 0.0
H280 H 0.20226 0.80297 0.6603 0.0
H281 H 0.09871 0.98369 0.61316 0.0
H282 H 0.12362 0.85292 0.58928 0.0
H283 H 0.18274 0.93565 0.68054 0.0
C284 C 0.21768 0.89145 0.69475 0.0
C285 C 0.22476 0.85406 0.6887 0.0
C286 C 0.11758 0.88134 0.59504 0.0
C287 C 0.16263 0.88409 0.65152 0.0
C288 C 0.09594 0.89984 0.56862 0.0
C289 C 0.08925 0.93726 0.57425 0.0
C290 C 0.13349 0.90067 0.62696 0.0
C291 C 0.10302 0.95475 0.60789 0.0
C292 C 0.18662 0.90641 0.67651 0.0
C293 C 0.19864 0.83211 0.66522 0.0
N294 N 0.12513 0.93653 0.63269 0.0
N295 N 0.16911 0.84757 0.64714 0.0
H296 H 0.87622 0.25919 0.8377 0.0
H297 H 0.98345 0.44772 0.91956 0.0
H298 H 0.82323 0.36338 0.83515 0.0
H299 H 0.97751 0.34536 0.98376 0.0
H300 H 0.94249 0.41553 0.86999 0.0
H301 H 0.93056 0.29015 0.87406 0.0
C302 C 0.87583 0.28849 0.84443 0.0
C303 C 0.84419 0.30826 0.83377 0.0
C304 C 0.95101 0.40004 0.89458 0.0
C305 C 0.90761 0.34407 0.87364 0.0
C306 C 0.97451 0.41821 0.92265 0.0
C307 C 0.98357 0.3991 0.95577 0.0
C308 C 0.93742 0.3624 0.89939 0.0
C309 C 0.97089 0.36103 0.95868 0.0
C310 C 0.90716 0.30612 0.86483 0.0
C311 C 0.84667 0.3467 0.8422 0.0
N312 N 0.94831 0.34386 0.93085 0.0
N313 N 0.87771 0.36327 0.86172 0.0
H314 H 0.82328 0.69024 0.39787 0.0
H315 H 0.62806 0.55831 0.41944 0.0
H316 H 0.74927 0.65687 0.30229 0.0
H317 H 0.71209 0.58432 0.50911 0.0
H318 H 0.67451 0.58679 0.37396 0.0
H319 H 0.78517 0.64582 0.43722 0.0
C320 C 0.79885 0.67349 0.38522 0.0
C321 C 0.78898 0.67764 0.34698 0.0
C322 C 0.683 0.58554 0.4035 0.0
C323 C 0.74495 0.62642 0.39192 0.0
C324 C 0.65662 0.56901 0.4294 0.0
C325 C 0.66609 0.56953 0.46814 0.0
C326 C 0.71886 0.60257 0.41666 0.0
C327 C 0.70338 0.58391 0.47956 0.0
C328 C 0.7772 0.64788 0.40761 0.0
C329 C 0.7576 0.65462 0.33178 0.0
N330 N 0.72813 0.60025 0.45407 0.0
N331 N 0.73629 0.63029 0.35444 0.0
H332 H 0.24674 0.29707 0.15699 0.0
H333 H 0.0757 0.42425 0.16909 0.0
H334 H 0.205 0.3308 0.26457 0.0
H335 H 0.1522 0.43022 0.07461 0.0
H336 H 0.12163 0.38942 0.20472 0.0
H337 H 0.21156 0.34443 0.12604 0.0
C338 C 0.23078 0.3147 0.17436 0.0
C339 C 0.22908 0.30961 0.21374 0.0
C340 C 0.12872 0.39893 0.17646 0.0
C341 C 0.18755 0.36348 0.17782 0.0
C342 C 0.10255 0.4188 0.15613 0.0
C343 C 0.11022 0.43011 0.11888 0.0
C344 C 0.16233 0.38941 0.15906 0.0
C345 C 0.14535 0.42227 0.10336 0.0
C346 C 0.21049 0.34172 0.15647 0.0
C347 C 0.20674 0.33296 0.23417 0.0
N348 N 0.16983 0.40178 0.12328 0.0
N349 N 0.18654 0.35852 0.21595 0.0
H350 H 0.7218 0.17529 0.77366 0.0
H351 H 0.65975 0.06542 0.96209 0.0
H352 H 0.76722 0.20523 0.88503 0.0
H353 H 0.59127 0.06305 0.85908 0.0
H354 H 0.71289 0.10076 0.92916 0.0
H355 H 0.6876 0.11904 0.80026 0.0
C356 C 0.72506 0.1698 0.80358 0.0
C357 C 0.74682 0.1955 0.82722 0.0
C358 C 0.68656 0.09166 0.91358 0.0
C359 C 0.7081 0.13097 0.85771 0.0
C360 C 0.65643 0.07128 0.93224 0.0
C361 C 0.62114 0.06171 0.91321 0.0
C362 C 0.68116 0.10227 0.87574 0.0
C363 C 0.61801 0.0703 0.87472 0.0
C364 C 0.70568 0.13761 0.81869 0.0
C365 C 0.75082 0.18635 0.86564 0.0
N366 N 0.64747 0.09047 0.85733 0.0
N367 N 0.73115 0.15512 0.87978 0.0
H368 H 0.85348 0.78758 0.39448 0.0
H369 H 0.98869 0.96707 0.36471 0.0
H370 H 0.86464 0.83635 0.28305 0.0
H371 H 0.92584 0.95 0.46781 0.0
H372 H 0.94226 0.92145 0.33308 0.0
H373 H 0.87835 0.8472 0.42171 0.0
C374 C 0.8603 0.81083 0.37556 0.0
C375 C 0.85701 0.80639 0.3361 0.0
C376 C 0.93794 0.9284 0.36233 0.0
C377 C 0.88694 0.87488 0.36763 0.0
C378 C 0.96434 0.9545 0.38032 0.0
C379 C 0.96105 0.96207 0.41887 0.0
C380 C 0.90889 0.90886 0.38343 0.0
C381 C 0.92923 0.94492 0.43799 0.0
C382 C 0.87471 0.84499 0.39132 0.0
C383 C 0.86752 0.83783 0.3135 0.0
N384 N 0.9049 0.91827 0.42034 0.0
N385 N 0.88265 0.87047 0.32953 0.0
H386 H 0.43771 0.80228 0.647 0.0
H387 H 0.45364 0.60726 0.54202 0.0
H388 H 0.33818 0.735 0.60217 0.0
H389 H 0.5513 0.68244 0.57845 0.0
H390 H 0.41041 0.65377 0.56107 0.0
H391 H 0.47946 0.75813 0.6211 0.0
C392 C 0.4247 0.7781 0.63167 0.0
C393 C 0.38454 0.77226 0.62652 0.0
C394 C 0.44134 0.66018 0.56449 0.0
C395 C 0.43208 0.72141 0.59672 0.0
C396 C 0.46603 0.63378 0.55326 0.0
C397 C 0.50617 0.64097 0.55858 0.0
C398 C 0.45697 0.6938 0.58137 0.0
C399 C 0.52056 0.67556 0.57402 0.0
C400 C 0.4485 0.75292 0.61675 0.0
C401 C 0.3691 0.7404 0.6066 0.0
N402 N 0.49604 0.70046 0.58505 0.0
N403 N 0.39288 0.71609 0.59241 0.0
H404 H 0.94331 0.85775 0.77212 0.0
H405 H 0.02728 0.04655 0.67166 0.0
H406 H 0.94877 0.9677 0.82146 0.0
H407 H 0.00563 0.9423 0.61166 0.0
H408 H 0.01262 0.01402 0.73076 0.0
H409 H 0.97779 0.88459 0.71702 0.0
C410 C 0.95213 0.88745 0.7715 0.0
C411 C 0.94272 0.91067 0.80111 0.0
C412 C 0.01158 0.998 0.70484 0.0
C413 C 0.98227 0.94137 0.73858 0.0
C414 C 0.02022 0.01655 0.67113 0.0
C415 C 0.01725 0.99709 0.6368 0.0
C416 C 0.99918 0.95971 0.7043 0.0
C417 C 0.00821 0.95825 0.63763 0.0
C418 C 0.97171 0.90271 0.74009 0.0
C419 C 0.95477 0.94891 0.79894 0.0
N420 N 0.99875 0.94082 0.67087 0.0
N421 N 0.97372 0.96302 0.76821 0.0
H422 H 0.66754 0.19514 0.23369 0.0
H423 H 0.55948 1.00018 0.16801 0.0
H424 H 0.64669 0.0989 0.30594 0.0
H425 H 0.57783 0.0951 0.09374 0.0
H426 H 0.58122 0.03992 0.22144 0.0
H427 H 0.62586 0.16307 0.18479 0.0
C428 C 0.65378 0.16748 0.23944 0.0
C429 C 0.66115 0.14936 0.27364 0.0
C430 C 0.57993 0.05234 0.1936 0.0
C431 C 0.61363 0.11253 0.21794 0.0
C432 C 0.56737 0.02965 0.16312 0.0
C433 C 0.56712 0.04436 0.12645 0.0
C434 C 0.5931 0.08995 0.18733 0.0
C435 C 0.57749 0.08271 0.12164 0.0
C436 C 0.63008 0.14917 0.21151 0.0
C437 C 0.64258 0.11354 0.27962 0.0
N438 N 0.59073 0.10412 0.15168 0.0
N439 N 0.62002 0.09623 0.25196 0.0
H440 H 0.35464 0.66682 0.30426 0.0
H441 H 0.50375 0.63376 0.47132 0.0
H442 H 0.44846 0.74782 0.33751 0.0
H443 H 0.4059 0.55614 0.44081 0.0
H444 H 0.47743 0.68085 0.43077 0.0
H445 H 0.3668 0.63059 0.36088 0.0
C446 C 0.37726 0.67742 0.3239 0.0
C447 C 0.40024 0.71068 0.31643 0.0
C448 C 0.46131 0.65375 0.43354 0.0
C449 C 0.41518 0.66872 0.38093 0.0
C450 C 0.47617 0.62696 0.45701 0.0
C451 C 0.4572 0.59084 0.45911 0.0
C452 C 0.42748 0.64415 0.41185 0.0
C453 C 0.42175 0.5835 0.43959 0.0
C454 C 0.38431 0.65665 0.35626 0.0
C455 C 0.42976 0.72257 0.34254 0.0
N456 N 0.40837 0.60968 0.41635 0.0
N457 N 0.43663 0.70147 0.37344 0.0
H458 H 0.1233 0.38188 0.71807 0.0
H459 H 0.07685 0.39782 0.93729 0.0
H460 H 0.18294 0.32563 0.80605 0.0
H461 H 0.0731 0.48926 0.85877 0.0
H462 H 0.09341 0.35756 0.88515 0.0
H463 H 0.08352 0.40795 0.76616 0.0
C464 C 0.12739 0.37444 0.74745 0.0
C465 C 0.15657 0.35199 0.75835 0.0
C466 C 0.0879 0.38619 0.8793 0.0
C467 C 0.11109 0.38102 0.81303 0.0
C468 C 0.07815 0.409 0.90886 0.0
C469 C 0.07409 0.44688 0.90217 0.0
C470 C 0.0928 0.40138 0.84294 0.0
C471 C 0.07641 0.46022 0.86498 0.0
C472 C 0.10481 0.38929 0.77475 0.0
C473 C 0.16096 0.34321 0.79671 0.0
N474 N 0.08595 0.43756 0.83674 0.0
N475 N 0.13855 0.35789 0.82277 0.0
H476 H 0.8099 0.93038 0.83558 0.0
H477 H 0.64135 0.98289 0.91774 0.0
H478 H 0.84999 0.91717 0.95051 0.0
H479 H 0.70375 0.97532 0.02352 0.0
H480 H 0.69965 0.97118 0.88422 0.0
H481 H 0.75399 0.95874 0.85881 0.0
C482 C 0.80702 0.93369 0.86575 0.0
C483 C 0.83442 0.92082 0.89114 0.0
C484 C 0.70113 0.97271 0.91467 0.0
C485 C 0.76981 0.95276 0.91833 0.0
C486 C 0.66769 0.97972 0.93381 0.0
C487 C 0.66777 0.98001 0.9734 0.0
C488 C 0.73476 0.96579 0.93549 0.0
C489 C 0.70238 0.97503 0.99294 0.0
C490 C 0.77474 0.94968 0.87914 0.0
C491 C 0.82919 0.92582 0.92988 0.0
N492 N 0.73423 0.96784 0.97384 0.0
N493 N 0.79752 0.94114 0.94218 0.0
H494 H 0.74982 0.15115 0.42341 0.0
H495 H 0.93663 0.04292 0.41861 0.0
H496 H 0.79253 0.1137 0.31804 0.0
H497 H 0.86654 0.0492 0.51699 0.0
H498 H 0.88364 0.0642 0.37961 0.0
H499 H 0.79282 0.11225 0.45743 0.0
C500 C 0.76841 0.13472 0.40749 0.0
C501 C 0.76801 0.13588 0.36797 0.0
C502 C 0.87957 0.05999 0.4096 0.0
C503 C 0.81738 0.0911 0.40663 0.0
C504 C 0.90965 0.04746 0.4318 0.0
C505 C 0.90613 0.04486 0.47115 0.0
C506 C 0.84619 0.07017 0.42713 0.0
C507 C 0.87068 0.05145 0.48682 0.0
C508 C 0.7927 0.11221 0.42685 0.0
C509 C 0.79218 0.11358 0.3486 0.0
N510 N 0.84244 0.06447 0.46492 0.0
N511 N 0.81636 0.09242 0.36814 0.0
H512 H 0.35063 0.62254 0.1276 0.0
H513 H 0.14008 0.51669 0.11895 0.0
H514 H 0.26333 0.63609 0.2098 0.0
H515 H 0.2229 0.51783 0.02998 0.0
H516 H 0.19138 0.5434 0.16209 0.0
H517 H 0.31106 0.56844 0.10181 0.0
C518 C 0.32335 0.61369 0.14059 0.0
C519 C 0.30978 0.63426 0.17029 0.0
C520 C 0.19853 0.53684 0.1334 0.0
C521 C 0.26412 0.57262 0.14072 0.0
C522 C 0.16933 0.52126 0.10887 0.0
C523 C 0.17722 0.5158 0.0707 0.0
C524 C 0.23566 0.54685 0.11949 0.0
C525 C 0.21553 0.52231 0.05907 0.0
C526 C 0.30079 0.58277 0.12593 0.0
C527 C 0.27466 0.62115 0.18665 0.0
N528 N 0.24318 0.53811 0.08317 0.0
N529 N 0.25261 0.59159 0.17114 0.0
H530 H 0.37003 0.39208 0.7455 0.0
H531 H 0.46683 0.38512 0.54471 0.0
H532 H 0.34359 0.30402 0.66416 0.0
H533 H 0.49717 0.47286 0.62577 0.0
H534 H 0.43054 0.34946 0.59298 0.0
H535 H 0.42452 0.41685 0.7071 0.0
C536 C 0.37642 0.37748 0.71999 0.0
C537 C 0.35279 0.34575 0.7081 0.0
C538 C 0.44559 0.37623 0.60053 0.0
C539 C 0.4142 0.37425 0.66365 0.0
C540 C 0.46638 0.39657 0.57296 0.0
C541 C 0.48462 0.43214 0.58119 0.0
C542 C 0.44236 0.39183 0.63649 0.0
C543 C 0.48346 0.44553 0.61828 0.0
C544 C 0.40735 0.39165 0.69803 0.0
C545 C 0.36153 0.32826 0.67447 0.0
N546 N 0.46202 0.42563 0.64446 0.0
N547 N 0.39134 0.34291 0.65328 0.0
H548 H 0.98131 0.78469 0.91072 0.0
H549 H 0.9674 0.579 0.99711 0.0
H550 H 0.87267 0.7205 0.93099 0.0
H551 H 0.07342 0.65084 0.98918 0.0
H552 H 0.93113 0.63184 0.97905 0.0
H553 H 0.01487 0.7372 0.94389 0.0
C554 C 0.96451 0.7608 0.92271 0.0
C555 C 0.92414 0.75682 0.91878 0.0
C556 C 0.96229 0.63618 0.98189 0.0
C557 C 0.96237 0.70171 0.95599 0.0
C558 C 0.98295 0.60611 0.99256 0.0
C559 C 0.02345 0.61059 0.99465 0.0
C560 C 0.98241 0.67072 0.97282 0.0
C561 C 0.04221 0.64613 0.98767 0.0
C562 C 0.98364 0.73363 0.94161 0.0
C563 C 0.90382 0.72483 0.93395 0.0
N564 N 0.02161 0.67465 0.97671 0.0
N565 N 0.92315 0.69838 0.95175 0.0
H566 H 0.34587 0.80781 0.1532 0.0
H567 H 0.51421 0.84471 0.01234 0.0
H568 H 0.39748 0.71826 0.0985 0.0
H569 H 0.43573 0.92763 0.034 0.0
H570 H 0.46714 0.79656 0.03696 0.0
H571 H 0.37424 0.85139 0.10587 0.0
C572 C 0.36287 0.79729 0.13101 0.0
C573 C 0.36971 0.75947 0.13002 0.0
C574 C 0.45959 0.82507 0.03538 0.0
C575 C 0.40223 0.80905 0.07585 0.0
C576 C 0.48637 0.85248 0.02104 0.0
C577 C 0.4788 0.89006 0.02143 0.0
C578 C 0.42559 0.83557 0.05135 0.0
C579 C 0.44252 0.89886 0.03324 0.0
C580 C 0.37875 0.82208 0.1038 0.0
C581 C 0.39146 0.74719 0.10033 0.0
N582 N 0.41761 0.87193 0.04881 0.0
N583 N 0.40747 0.772 0.07482 0.0
H584 H 0.13462 0.32204 0.62427 0.0
H585 H 0.13153 0.12049 0.53264 0.0
H586 H 0.22616 0.25001 0.63968 0.0
H587 H 0.03802 0.19098 0.52456 0.0
H588 H 0.17398 0.1738 0.5569 0.0
H589 H 0.1062 0.28063 0.57454 0.0
C590 C 0.14889 0.29762 0.61694 0.0
C591 C 0.18233 0.28902 0.63664 0.0
C592 C 0.14444 0.17785 0.54888 0.0
C593 C 0.14995 0.24133 0.57974 0.0
C594 C 0.12034 0.14752 0.53465 0.0
C595 C 0.08111 0.15131 0.5273 0.0
C596 C 0.12898 0.21193 0.55573 0.0
C597 C 0.06799 0.18683 0.53053 0.0
C598 C 0.1328 0.27406 0.58839 0.0
C599 C 0.20019 0.25753 0.62534 0.0
N600 N 0.09166 0.21559 0.54514 0.0
N601 N 0.18341 0.23444 0.59808 0.0
H602 H 0.72681 0.31841 0.432 0.0
H603 H 0.56867 0.45489 0.37706 0.0
H604 H 0.64737 0.30187 0.33721 0.0
H605 H 0.64788 0.47341 0.47192 0.0
H606 H 0.60795 0.40782 0.3531 0.0
H607 H 0.70844 0.38215 0.43896 0.0
C608 C 0.70595 0.32851 0.41227 0.0
C609 C 0.68803 0.30481 0.38437 0.0
C610 C 0.61736 0.4227 0.37871 0.0
C611 C 0.66673 0.3775 0.39218 0.0
C612 C 0.59506 0.44983 0.39225 0.0
C613 C 0.60467 0.46758 0.42686 0.0
C614 C 0.64916 0.41272 0.40029 0.0
C615 C 0.63929 0.46018 0.44523 0.0
C616 C 0.69548 0.36488 0.41621 0.0
C617 C 0.66146 0.31925 0.35932 0.0
N618 N 0.65979 0.43257 0.43223 0.0
N619 N 0.65119 0.35447 0.36415 0.0
loop_
_geom_bond_atom_site_label_1
_geom_bond_atom_site_label_2
_geom_bond_distance
_geom_bond_site_symmetry_2
_ccdc_geom_bond_type
H0 C7 0.929 . S
H1 C10 0.930 . S
H2 C12 0.929 . S
H3 C4 0.969 . S
C4 H3 0.969 . S
C4 O5 1.550 . S
C4 H6 0.973 . S
O5 C4 1.550 . S
O5 C11 1.412 . S
H6 C4 0.973 . S
C7 H0 0.929 . S
C7 C8 1.400 . S
C7 C9 1.364 . S
C8 C7 1.400 . S
C8 C12 1.377 . S
C9 C7 1.364 . S
C9 C10 1.374 . S
C10 H1 0.930 . S
C10 C9 1.374 . S
C10 C11 1.383 . S
C11 O5 1.412 . S
C11 C10 1.383 . S
C11 C12 1.394 . S
C12 H2 0.929 . S
C12 C8 1.377 . S
C12 C11 1.394 . S
H13 C20 0.929 . S
H14 C23 0.930 . S
H15 C25 0.929 . S
H16 C17 0.969 . S
C17 H16 0.969 . S
C17 O18 1.550 . S
C17 H19 0.973 . S
O18 C17 1.550 . S
O18 C24 1.412 . S
H19 C17 0.973 . S
C20 H13 0.929 . S
C20 C21 1.400 . S
C20 C22 1.364 . S
C21 C20 1.400 . S
C21 C25 1.377 . S
C22 C20 1.364 . S
C22 C23 1.374 . S
C23 H14 0.930 . S
C23 C22 1.374 . S
C23 C24 1.383 . S
C24 O18 1.412 . S
C24 C23 1.383 . S
C24 C25 1.394 . S
C25 H15 0.929 . S
C25 C21 1.377 . S
C25 C24 1.394 . S
H26 C33 0.929 . S
H27 C36 0.930 . S
H28 C38 0.929 . S
H29 C30 0.969 . S
C30 H29 0.969 . S
C30 O31 1.550 . S
C30 H32 0.973 . S
O31 C30 1.550 . S
O31 C37 1.412 . S
H32 C30 0.973 . S
C33 H26 0.929 . S
C33 C34 1.400 . S
C33 C35 1.364 . S
C34 C33 1.400 . S
C34 C38 1.377 . S
C35 C33 1.364 . S
C35 C36 1.374 . S
C36 H27 0.930 . S
C36 C35 1.374 . S
C36 C37 1.383 . S
C37 O31 1.412 . S
C37 C36 1.383 . S
C37 C38 1.394 . S
C38 H28 0.929 . S
C38 C34 1.377 . S
C38 C37 1.394 . S
H39 C46 0.929 . S
H40 C49 0.930 . S
H41 C51 0.929 . S
H42 C43 0.969 . S
C43 H42 0.969 . S
C43 O44 1.550 . S
C43 H45 0.973 . S
O44 C43 1.550 . S
O44 C50 1.412 . S
H45 C43 0.973 . S
C46 H39 0.929 . S
C46 C47 1.400 . S
C46 C48 1.364 . S
C47 C46 1.400 . S
C47 C51 1.377 . S
C48 C46 1.364 . S
C48 C49 1.374 . S
C49 H40 0.930 . S
C49 C48 1.374 . S
C49 C50 1.383 . S
C50 O44 1.412 . S
C50 C49 1.383 . S
C50 C51 1.394 . S
C51 H41 0.929 . S
C51 C47 1.377 . S
C51 C50 1.394 . S
H52 C59 0.929 . S
H53 C62 0.930 . S
H54 C64 0.929 1_455 S
H55 C56 0.969 . S
C56 H55 0.969 . S
C56 O57 1.550 1_655 S
C56 H58 0.972 . S
O57 C56 1.550 1_455 S
O57 C63 1.412 1_455 S
H58 C56 0.972 . S
C59 H52 0.929 . S
C59 C60 1.400 . S
C59 C61 1.364 . S
C60 C59 1.400 . S
C60 C64 1.377 . S
C61 C59 1.364 . S
C61 C62 1.374 . S
C62 H53 0.930 . S
C62 C61 1.374 . S
C62 C63 1.383 . S
C63 O57 1.412 1_655 S
C63 C62 1.383 . S
C63 C64 1.394 . S
C64 H54 0.929 1_655 S
C64 C60 1.377 . S
C64 C63 1.394 . S
H65 C72 0.929 . S
H66 C75 0.930 . S
H67 C77 0.929 . S
H68 C69 0.969 . S
C69 H68 0.969 . S
C69 O70 1.550 . S
C69 H71 0.973 . S
O70 C69 1.550 . S
O70 C76 1.412 . S
H71 C69 0.973 . S
C72 H65 0.929 . S
C72 C73 1.400 . S
C72 C74 1.364 . S
C73 C72 1.400 . S
C73 C77 1.377 . S
C74 C72 1.364 . S
C74 C75 1.374 . S
C75 H66 0.930 . S
C75 C74 1.374 . S
C75 C76 1.383 . S
C76 O70 1.412 . S
C76 C75 1.383 . S
C76 C77 1.394 . S
C77 H67 0.929 . S
C77 C73 1.377 . S
C77 C76 1.394 . S
H78 C85 0.929 . S
H79 C88 0.930 . S
H80 C90 0.929 . S
H81 C82 0.969 . S
C82 H81 0.969 . S
C82 O83 1.550 . S
C82 H84 0.973 . S
O83 C82 1.550 . S
O83 C89 1.412 . S
H84 C82 0.973 . S
C85 H78 0.929 . S
C85 C86 1.400 . S
C85 C87 1.364 . S
C86 C85 1.400 . S
C86 C90 1.377 . S
C87 C85 1.364 . S
C87 C88 1.374 . S
C88 H79 0.930 . S
C88 C87 1.374 . S
C88 C89 1.383 . S
C89 O83 1.412 . S
C89 C88 1.383 . S
C89 C90 1.394 . S
C90 H80 0.929 . S
C90 C86 1.377 . S
C90 C89 1.394 . S
H91 C98 0.929 . S
H92 C101 0.930 . S
H93 C103 0.929 . S
H94 C95 0.969 . S
C95 H94 0.969 . S
C95 O96 1.550 . S
C95 H97 0.973 . S
O96 C95 1.550 . S
O96 C102 1.412 . S
H97 C95 0.973 . S
C98 H91 0.929 . S
C98 C99 1.400 . S
C98 C100 1.364 . S
C99 C98 1.400 . S
C99 C103 1.377 . S
C100 C98 1.364 . S
C100 C101 1.374 . S
C101 H92 0.930 . S
C101 C100 1.374 . S
C101 C102 1.383 . S
C102 O96 1.412 . S
C102 C101 1.383 . S
C102 C103 1.394 . S
C103 H93 0.929 . S
C103 C99 1.377 . S
C103 C102 1.394 . S
Zn104 O110 1.920 . S
Zn104 O116 1.898 . S
Zn104 O119 1.905 . S
Zn105 O113 1.905 1_565 S
Zn105 O114 1.898 . S
Zn105 O122 1.920 . S
Zn106 O109 2.080 1_455 S
Zn106 O112 2.114 . S
Zn106 O115 2.120 1_445 S
Zn106 O117 2.120 . S
Zn106 O118 2.114 1_455 S
Zn106 O121 2.080 . S
C107 O112 1.166 . S
C107 O113 1.182 . S
C108 O114 1.167 1_655 S
C108 O115 1.299 . S
O109 Zn106 2.080 1_655 S
O109 C123 1.305 . S
O110 Zn104 1.920 . S
O110 C123 1.234 . S
C111 O116 1.167 1_455 S
C111 O117 1.299 . S
O112 Zn106 2.114 . S
O112 C107 1.166 . S
O113 Zn105 1.905 1_545 S
O113 C107 1.182 . S
O114 Zn105 1.898 . S
O114 C108 1.167 1_455 S
O115 Zn106 2.120 1_665 S
O115 C108 1.299 . S
O116 Zn104 1.898 . S
O116 C111 1.167 1_655 S
O117 Zn106 2.120 . S
O117 C111 1.299 . S
O118 Zn106 2.114 1_655 S
O118 C120 1.166 . S
O119 Zn104 1.905 . S
O119 C120 1.182 . S
C120 O118 1.166 . S
C120 O119 1.182 . S
O121 Zn106 2.080 . S
O121 C124 1.305 1_545 S
O122 Zn105 1.920 . S
O122 C124 1.234 . S
C123 O109 1.305 . S
C123 O110 1.234 . S
C124 O121 1.305 1_565 S
C124 O122 1.234 . S
Zn125 O131 1.920 1_556 S
Zn125 O137 1.898 . S
Zn125 O140 1.905 . S
Zn126 O134 1.905 . S
Zn126 O135 1.898 . S
Zn126 O143 1.920 . S
Zn127 O130 2.080 . S
Zn127 O133 2.114 1_545 S
Zn127 O136 2.120 1_545 S
Zn127 O138 2.126 . S
Zn127 O139 2.114 1_544 S
Zn127 O142 2.080 . S
C128 O133 1.166 . S
C128 O134 1.182 . S
C129 O135 1.167 . S
C129 O136 1.299 . S
O130 Zn127 2.080 . S
O130 C144 1.305 . S
O131 Zn125 1.920 1_554 S
O131 C144 1.234 . S
C132 O137 1.167 . S
C132 O138 1.282 1_556 S
O133 Zn127 2.114 1_565 S
O133 C128 1.166 . S
O134 Zn126 1.905 . S
O134 C128 1.182 . S
O135 Zn126 1.898 . S
O135 C129 1.167 . S
O136 Zn127 2.120 1_565 S
O136 C129 1.299 . S
O137 Zn125 1.898 . S
O137 C132 1.167 . S
O138 Zn127 2.126 . S
O138 C132 1.282 1_554 S
O139 Zn127 2.114 1_566 S
O139 C141 1.166 . S
O140 Zn125 1.905 . S
O140 C141 1.182 1_545 S
C141 O139 1.166 . S
C141 O140 1.182 1_565 S
O142 Zn127 2.080 . S
O142 C145 1.305 . S
O143 Zn126 1.920 . S
O143 C145 1.234 1_565 S
C144 O130 1.305 . S
C144 O131 1.234 . S
C145 O142 1.305 . S
C145 O143 1.234 1_545 S
Zn146 O152 1.920 . S
Zn146 O158 1.898 . S
Zn146 O161 1.905 . S
Zn147 O155 1.905 . S
Zn147 O156 1.898 . S
Zn147 O164 1.920 . S
Zn148 O151 2.080 . S
Zn148 O154 2.114 . S
Zn148 O157 2.120 . S
Zn148 O159 2.120 . S
Zn148 O160 2.114 . S
Zn148 O163 2.080 . S
C149 O154 1.166 . S
C149 O155 1.182 . S
C150 O156 1.167 . S
C150 O157 1.299 . S
O151 Zn148 2.080 . S
O151 C165 1.305 . S
O152 Zn146 1.920 . S
O152 C165 1.234 . S
C153 O158 1.167 . S
C153 O159 1.299 . S
O154 Zn148 2.114 . S
O154 C149 1.166 . S
O155 Zn147 1.905 . S
O155 C149 1.182 . S
O156 Zn147 1.898 . S
O156 C150 1.167 . S
O157 Zn148 2.120 . S
O157 C150 1.299 . S
O158 Zn146 1.898 . S
O158 C153 1.167 . S
O159 Zn148 2.120 . S
O159 C153 1.299 . S
O160 Zn148 2.114 . S
O160 C162 1.166 . S
O161 Zn146 1.905 . S
O161 C162 1.182 . S
C162 O160 1.166 . S
C162 O161 1.182 . S
O163 Zn148 2.080 . S
O163 C166 1.305 . S
O164 Zn147 1.920 . S
O164 C166 1.234 . S
C165 O151 1.305 . S
C165 O152 1.234 . S
C166 O163 1.305 . S
C166 O164 1.234 . S
Zn167 O173 1.920 . S
Zn167 O179 1.898 . S
Zn167 O182 1.905 . S
Zn168 O176 1.905 1_655 S
Zn168 O177 1.898 . S
Zn168 O185 1.920 . S
Zn169 O172 2.080 1_554 S
Zn169 O175 2.114 . S
Zn169 O178 2.120 1_554 S
Zn169 O180 2.120 . S
Zn169 O181 2.114 1_554 S
Zn169 O184 2.080 . S
C170 O175 1.166 . S
C170 O176 1.182 . S
C171 O177 1.167 1_556 S
C171 O178 1.299 1_655 S
O172 Zn169 2.080 1_556 S
O172 C186 1.305 . S
O173 Zn167 1.920 . S
O173 C186 1.234 . S
C174 O179 1.167 1_554 S
C174 O180 1.299 . S
O175 Zn169 2.114 . S
O175 C170 1.166 . S
O176 Zn168 1.905 1_455 S
O176 C170 1.182 . S
O177 Zn168 1.898 . S
O177 C171 1.167 1_554 S
O178 Zn169 2.120 1_556 S
O178 C171 1.299 1_455 S
O179 Zn167 1.898 . S
O179 C174 1.167 1_556 S
O180 Zn169 2.120 . S
O180 C174 1.299 . S
O181 Zn169 2.114 1_556 S
O181 C183 1.166 . S
O182 Zn167 1.905 . S
O182 C183 1.182 . S
C183 O181 1.166 . S
C183 O182 1.182 . S
O184 Zn169 2.080 . S
O184 C187 1.305 . S
O185 Zn168 1.920 . S
O185 C187 1.234 1_655 S
C186 O172 1.305 . S
C186 O173 1.234 . S
C187 O184 1.305 . S
C187 O185 1.234 1_455 S
H188 C194 0.930 . S
H189 C198 0.930 . S
H190 C203 0.929 . S
H191 C201 0.929 . S
H192 C196 0.929 . S
H193 C202 0.929 . S
C194 H188 0.930 . S
C194 C195 1.367 . S
C194 C202 1.378 . S
C195 C194 1.367 . S
C195 C203 1.433 . S
C196 H192 0.929 . S
C196 C198 1.378 . S
C196 C200 1.350 . S
C197 C200 1.463 . S
C197 C202 1.350 . S
C197 N205 1.427 . S
C198 H189 0.930 . S
C198 C196 1.378 . S
C198 C199 1.367 . S
C199 C198 1.367 . S
C199 C201 1.433 . S
C200 C196 1.350 . S
C200 C197 1.463 . S
C200 N204 1.427 . S
C201 H191 0.929 . S
C201 C199 1.433 . S
C201 N204 1.384 . S
C202 H193 0.929 . S
C202 C194 1.378 . S
C202 C197 1.350 . S
C203 H190 0.929 . S
C203 C195 1.433 . S
C203 N205 1.384 . S
N204 C200 1.427 . S
N204 C201 1.384 . S
N205 C197 1.427 . S
N205 C203 1.384 . S
H206 C212 0.930 . S
H207 C216 0.930 . S
H208 C221 0.929 . S
H209 C219 0.929 1_545 S
H210 C214 0.929 . S
H211 C220 0.929 . S
C212 H206 0.930 . S
C212 C213 1.367 . S
C212 C220 1.378 . S
C213 C212 1.367 . S
C213 C221 1.433 . S
C214 H210 0.929 . S
C214 C216 1.378 . S
C214 C218 1.350 . S
C215 C218 1.463 . S
C215 C220 1.350 . S
C215 N223 1.427 . S
C216 H207 0.930 . S
C216 C214 1.378 . S
C216 C217 1.367 . S
C217 C216 1.367 . S
C217 C219 1.433 . S
C218 C214 1.350 . S
C218 C215 1.463 . S
C218 N222 1.427 . S
C219 H209 0.929 1_565 S
C219 C217 1.433 . S
C219 N222 1.384 . S
C220 H211 0.929 . S
C220 C212 1.378 . S
C220 C215 1.350 . S
C221 H208 0.929 . S
C221 C213 1.433 . S
C221 N223 1.384 . S
N222 C218 1.427 . S
N222 C219 1.384 . S
N223 C215 1.427 . S
N223 C221 1.384 . S
H224 C230 0.930 . S
H225 C234 0.930 . S
H226 C239 0.929 . S
H227 C237 0.929 . S
H228 C232 0.929 . S
H229 C238 0.929 . S
C230 H224 0.930 . S
C230 C231 1.367 . S
C230 C238 1.378 . S
C231 C230 1.367 . S
C231 C239 1.433 . S
C232 H228 0.929 . S
C232 C234 1.378 . S
C232 C236 1.350 . S
C233 C236 1.463 . S
C233 C238 1.350 . S
C233 N241 1.427 . S
C234 H225 0.930 . S
C234 C232 1.378 . S
C234 C235 1.367 . S
C235 C234 1.367 . S
C235 C237 1.433 . S
C236 C232 1.350 . S
C236 C233 1.463 . S
C236 N240 1.427 . S
C237 H227 0.929 . S
C237 C235 1.433 . S
C237 N240 1.384 . S
C238 H229 0.929 . S
C238 C230 1.378 . S
C238 C233 1.350 . S
C239 H226 0.929 . S
C239 C231 1.433 . S
C239 N241 1.384 . S
N240 C236 1.427 . S
N240 C237 1.384 . S
N241 C233 1.427 . S
N241 C239 1.384 . S
H242 C248 0.930 . S
H243 C252 0.930 . S
H244 C257 0.929 . S
H245 C255 0.929 . S
H246 C250 0.929 . S
H247 C256 0.929 1_455 S
C248 H242 0.930 . S
C248 C249 1.367 . S
C248 C256 1.378 . S
C249 C248 1.367 . S
C249 C257 1.433 . S
C250 H246 0.929 . S
C250 C252 1.378 . S
C250 C254 1.350 . S
C251 C254 1.463 . S
C251 C256 1.350 . S
C251 N259 1.427 . S
C252 H243 0.930 . S
C252 C250 1.378 . S
C252 C253 1.367 1_655 S
C253 C252 1.367 1_455 S
C253 C255 1.433 . S
C254 C250 1.350 . S
C254 C251 1.463 . S
C254 N258 1.427 1_655 S
C255 H245 0.929 . S
C255 C253 1.433 . S
C255 N258 1.384 . S
C256 H247 0.929 1_655 S
C256 C248 1.378 . S
C256 C251 1.350 . S
C257 H244 0.929 . S
C257 C249 1.433 . S
C257 N259 1.384 . S
N258 C254 1.427 1_455 S
N258 C255 1.384 . S
N259 C251 1.427 . S
N259 C257 1.384 . S
H260 C266 0.930 . S
H261 C270 0.930 . S
H262 C275 0.929 . S
H263 C273 0.929 . S
H264 C268 0.929 . S
H265 C274 0.929 . S
C266 H260 0.930 . S
C266 C267 1.367 . S
C266 C274 1.378 . S
C267 C266 1.367 . S
C267 C275 1.433 . S
C268 H264 0.929 . S
C268 C270 1.378 . S
C268 C272 1.350 . S
C269 C272 1.463 . S
C269 C274 1.350 . S
C269 N277 1.427 . S
C270 H261 0.930 . S
C270 C268 1.378 . S
C270 C271 1.367 . S
C271 C270 1.367 . S
C271 C273 1.433 . S
C272 C268 1.350 . S
C272 C269 1.463 . S
C272 N276 1.427 . S
C273 H263 0.929 . S
C273 C271 1.433 . S
C273 N276 1.384 . S
C274 H265 0.929 . S
C274 C266 1.378 . S
C274 C269 1.350 . S
C275 H262 0.929 . S
C275 C267 1.433 . S
C275 N277 1.384 . S
N276 C272 1.427 . S
N276 C273 1.384 . S
N277 C269 1.427 . S
N277 C275 1.384 . S
H278 C284 0.930 . S
H279 C288 0.930 . S
H280 C293 0.929 . S
H281 C291 0.929 1_545 S
H282 C286 0.929 . S
H283 C292 0.929 . S
C284 H278 0.930 . S
C284 C285 1.367 . S
C284 C292 1.378 . S
C285 C284 1.367 . S
C285 C293 1.433 . S
C286 H282 0.929 . S
C286 C288 1.378 . S
C286 C290 1.350 . S
C287 C290 1.463 . S
C287 C292 1.350 . S
C287 N295 1.427 . S
C288 H279 0.930 . S
C288 C286 1.378 . S
C288 C289 1.367 . S
C289 C288 1.367 . S
C289 C291 1.433 . S
C290 C286 1.350 . S
C290 C287 1.463 . S
C290 N294 1.427 . S
C291 H281 0.929 1_565 S
C291 C289 1.433 . S
C291 N294 1.384 . S
C292 H283 0.929 . S
C292 C284 1.378 . S
C292 C287 1.350 . S
C293 H280 0.929 . S
C293 C285 1.433 . S
C293 N295 1.384 . S
N294 C290 1.427 . S
N294 C291 1.384 . S
N295 C287 1.427 . S
N295 C293 1.384 . S
H296 C302 0.930 . S
H297 C306 0.930 . S
H298 C311 0.929 . S
H299 C309 0.929 . S
H300 C304 0.929 . S
H301 C310 0.929 . S
C302 H296 0.930 . S
C302 C303 1.367 . S
C302 C310 1.378 . S
C303 C302 1.367 . S
C303 C311 1.433 . S
C304 H300 0.929 . S
C304 C306 1.378 . S
C304 C308 1.350 . S
C305 C308 1.463 . S
C305 C310 1.350 . S
C305 N313 1.427 . S
C306 H297 0.930 . S
C306 C304 1.378 . S
C306 C307 1.367 . S
C307 C306 1.367 . S
C307 C309 1.433 . S
C308 C304 1.350 . S
C308 C305 1.463 . S
C308 N312 1.427 . S
C309 H299 0.929 . S
C309 C307 1.433 . S
C309 N312 1.384 . S
C310 H301 0.929 . S
C310 C302 1.378 . S
C310 C305 1.350 . S
C311 H298 0.929 . S
C311 C303 1.433 . S
C311 N313 1.384 . S
N312 C308 1.427 . S
N312 C309 1.384 . S
N313 C305 1.427 . S
N313 C311 1.384 . S
H314 C320 0.930 . S
H315 C324 0.930 . S
H316 C329 0.929 . S
H317 C327 0.929 . S
H318 C322 0.929 . S
H319 C328 0.929 . S
C320 H314 0.930 . S
C320 C321 1.367 . S
C320 C328 1.378 . S
C321 C320 1.367 . S
C321 C329 1.433 . S
C322 H318 0.929 . S
C322 C324 1.378 . S
C322 C326 1.350 . S
C323 C326 1.463 . S
C323 C328 1.350 . S
C323 N331 1.427 . S
C324 H315 0.930 . S
C324 C322 1.378 . S
C324 C325 1.367 . S
C325 C324 1.367 . S
C325 C327 1.433 . S
C326 C322 1.350 . S
C326 C323 1.463 . S
C326 N330 1.427 . S
C327 H317 0.929 . S
C327 C325 1.433 . S
C327 N330 1.384 . S
C328 H319 0.929 . S
C328 C320 1.378 . S
C328 C323 1.350 . S
C329 H316 0.929 . S
C329 C321 1.433 . S
C329 N331 1.384 . S
N330 C326 1.427 . S
N330 C327 1.384 . S
N331 C323 1.427 . S
N331 C329 1.384 . S
H332 C338 0.930 . S
H333 C342 0.930 . S
H334 C347 0.929 . S
H335 C345 0.929 . S
H336 C340 0.929 . S
H337 C346 0.929 . S
C338 H332 0.930 . S
C338 C339 1.367 . S
C338 C346 1.378 . S
C339 C338 1.367 . S
C339 C347 1.433 . S
C340 H336 0.929 . S
C340 C342 1.378 . S
C340 C344 1.350 . S
C341 C344 1.463 . S
C341 C346 1.350 . S
C341 N349 1.427 . S
C342 H333 0.930 . S
C342 C340 1.378 . S
C342 C343 1.367 . S
C343 C342 1.367 . S
C343 C345 1.433 . S
C344 C340 1.350 . S
C344 C341 1.463 . S
C344 N348 1.427 . S
C345 H335 0.929 . S
C345 C343 1.433 . S
C345 N348 1.384 . S
C346 H337 0.929 . S
C346 C338 1.378 . S
C346 C341 1.350 . S
C347 H334 0.929 . S
C347 C339 1.433 . S
C347 N349 1.384 . S
N348 C344 1.427 . S
N348 C345 1.384 . S
N349 C341 1.427 . S
N349 C347 1.384 . S
H350 C356 0.930 . S
H351 C360 0.930 . S
H352 C365 0.929 . S
H353 C363 0.929 . S
H354 C358 0.929 . S
H355 C364 0.929 . S
C356 H350 0.930 . S
C356 C357 1.367 . S
C356 C364 1.378 . S
C357 C356 1.367 . S
C357 C365 1.433 . S
C358 H354 0.929 . S
C358 C360 1.378 . S
C358 C362 1.350 . S
C359 C362 1.463 . S
C359 C364 1.350 . S
C359 N367 1.427 . S
C360 H351 0.930 . S
C360 C358 1.378 . S
C360 C361 1.367 . S
C361 C360 1.367 . S
C361 C363 1.433 . S
C362 C358 1.350 . S
C362 C359 1.463 . S
C362 N366 1.427 . S
C363 H353 0.929 . S
C363 C361 1.433 . S
C363 N366 1.384 . S
C364 H355 0.929 . S
C364 C356 1.378 . S
C364 C359 1.350 . S
C365 H352 0.929 . S
C365 C357 1.433 . S
C365 N367 1.384 . S
N366 C362 1.427 . S
N366 C363 1.384 . S
N367 C359 1.427 . S
N367 C365 1.384 . S
H368 C374 0.930 . S
H369 C378 0.930 . S
H370 C383 0.929 . S
H371 C381 0.929 . S
H372 C376 0.929 . S
H373 C382 0.929 . S
C374 H368 0.930 . S
C374 C375 1.367 . S
C374 C382 1.378 . S
C375 C374 1.367 . S
C375 C383 1.433 . S
C376 H372 0.929 . S
C376 C378 1.378 . S
C376 C380 1.350 . S
C377 C380 1.463 . S
C377 C382 1.350 . S
C377 N385 1.427 . S
C378 H369 0.930 . S
C378 C376 1.378 . S
C378 C379 1.367 . S
C379 C378 1.367 . S
C379 C381 1.433 . S
C380 C376 1.350 . S
C380 C377 1.463 . S
C380 N384 1.427 . S
C381 H371 0.929 . S
C381 C379 1.433 . S
C381 N384 1.384 . S
C382 H373 0.929 . S
C382 C374 1.378 . S
C382 C377 1.350 . S
C383 H370 0.929 . S
C383 C375 1.433 . S
C383 N385 1.384 . S
N384 C380 1.427 . S
N384 C381 1.384 . S
N385 C377 1.427 . S
N385 C383 1.384 . S
H386 C392 0.930 . S
H387 C396 0.930 . S
H388 C401 0.929 . S
H389 C399 0.929 . S
H390 C394 0.929 . S
H391 C400 0.929 . S
C392 H386 0.930 . S
C392 C393 1.367 . S
C392 C400 1.378 . S
C393 C392 1.367 . S
C393 C401 1.433 . S
C394 H390 0.929 . S
C394 C396 1.378 . S
C394 C398 1.350 . S
C395 C398 1.463 . S
C395 C400 1.350 . S
C395 N403 1.427 . S
C396 H387 0.930 . S
C396 C394 1.378 . S
C396 C397 1.367 . S
C397 C396 1.367 . S
C397 C399 1.433 . S
C398 C394 1.350 . S
C398 C395 1.463 . S
C398 N402 1.427 . S
C399 H389 0.929 . S
C399 C397 1.433 . S
C399 N402 1.384 . S
C400 H391 0.929 . S
C400 C392 1.378 . S
C400 C395 1.350 . S
C401 H388 0.929 . S
C401 C393 1.433 . S
C401 N403 1.384 . S
N402 C398 1.427 . S
N402 C399 1.384 . S
N403 C395 1.427 . S
N403 C401 1.384 . S
H404 C410 0.930 . S
H405 C414 0.930 . S
H406 C419 0.929 . S
H407 C417 0.929 . S
H408 C412 0.929 . S
H409 C418 0.929 . S
C410 H404 0.930 . S
C410 C411 1.367 . S
C410 C418 1.378 . S
C411 C410 1.367 . S
C411 C419 1.433 1_655 S
C412 H408 0.929 . S
C412 C414 1.378 . S
C412 C416 1.350 1_455 S
C413 C416 1.463 . S
C413 C418 1.350 . S
C413 N421 1.427 1_655 S
C414 H405 0.930 . S
C414 C412 1.378 . S
C414 C415 1.367 1_465 S
C415 C414 1.367 1_645 S
C415 C417 1.433 . S
C416 C412 1.350 1_655 S
C416 C413 1.463 . S
C416 N420 1.427 1_565 S
C417 H407 0.929 . S
C417 C415 1.433 . S
C417 N420 1.384 . S
C418 H409 0.929 . S
C418 C410 1.378 . S
C418 C413 1.350 . S
C419 H406 0.929 . S
C419 C411 1.433 1_455 S
C419 N421 1.384 . S
N420 C416 1.427 1_545 S
N420 C417 1.384 . S
N421 C413 1.427 1_455 S
N421 C419 1.384 . S
H422 C428 0.930 . S
H423 C432 0.930 1_565 S
H424 C437 0.929 . S
H425 C435 0.929 . S
H426 C430 0.929 . S
H427 C436 0.929 . S
C428 H422 0.930 . S
C428 C429 1.367 . S
C428 C436 1.378 . S
C429 C428 1.367 . S
C429 C437 1.433 . S
C430 H426 0.929 . S
C430 C432 1.378 . S
C430 C434 1.350 . S
C431 C434 1.463 . S
C431 C436 1.350 . S
C431 N439 1.427 . S
C432 H423 0.930 1_545 S
C432 C430 1.378 . S
C432 C433 1.367 . S
C433 C432 1.367 . S
C433 C435 1.433 . S
C434 C430 1.350 . S
C434 C431 1.463 . S
C434 N438 1.427 . S
C435 H425 0.929 . S
C435 C433 1.433 . S
C435 N438 1.384 . S
C436 H427 0.929 . S
C436 C428 1.378 . S
C436 C431 1.350 . S
C437 H424 0.929 . S
C437 C429 1.433 . S
C437 N439 1.384 . S
N438 C434 1.427 . S
N438 C435 1.384 . S
N439 C431 1.427 . S
N439 C437 1.384 . S
H440 C446 0.930 . S
H441 C450 0.930 . S
H442 C455 0.929 . S
H443 C453 0.929 . S
H444 C448 0.929 . S
H445 C454 0.929 . S
C446 H440 0.930 . S
C446 C447 1.367 . S
C446 C454 1.378 . S
C447 C446 1.367 . S
C447 C455 1.433 . S
C448 H444 0.929 . S
C448 C450 1.378 . S
C448 C452 1.350 . S
C449 C452 1.463 . S
C449 C454 1.350 . S
C449 N457 1.427 . S
C450 H441 0.930 . S
C450 C448 1.378 . S
C450 C451 1.367 . S
C451 C450 1.367 . S
C451 C453 1.433 . S
C452 C448 1.350 . S
C452 C449 1.463 . S
C452 N456 1.427 . S
C453 H443 0.929 . S
C453 C451 1.433 . S
C453 N456 1.384 . S
C454 H445 0.929 . S
C454 C446 1.378 . S
C454 C449 1.350 . S
C455 H442 0.929 . S
C455 C447 1.433 . S
C455 N457 1.384 . S
N456 C452 1.427 . S
N456 C453 1.384 . S
N457 C449 1.427 . S
N457 C455 1.384 . S
H458 C464 0.930 . S
H459 C468 0.930 . S
H460 C473 0.929 . S
H461 C471 0.929 . S
H462 C466 0.929 . S
H463 C472 0.929 . S
C464 H458 0.930 . S
C464 C465 1.367 . S
C464 C472 1.378 . S
C465 C464 1.367 . S
C465 C473 1.433 . S
C466 H462 0.929 . S
C466 C468 1.378 . S
C466 C470 1.350 . S
C467 C470 1.463 . S
C467 C472 1.350 . S
C467 N475 1.427 . S
C468 H459 0.930 . S
C468 C466 1.378 . S
C468 C469 1.367 . S
C469 C468 1.367 . S
C469 C471 1.433 . S
C470 C466 1.350 . S
C470 C467 1.463 . S
C470 N474 1.427 . S
C471 H461 0.929 . S
C471 C469 1.433 . S
C471 N474 1.384 . S
C472 H463 0.929 . S
C472 C464 1.378 . S
C472 C467 1.350 . S
C473 H460 0.929 . S
C473 C465 1.433 . S
C473 N475 1.384 . S
N474 C470 1.427 . S
N474 C471 1.384 . S
N475 C467 1.427 . S
N475 C473 1.384 . S
H476 C482 0.930 . S
H477 C486 0.930 . S
H478 C491 0.929 1_545 S
H479 C489 0.923 1_554 S
H480 C484 0.929 . S
H481 C490 0.929 . S
C482 H476 0.930 . S
C482 C483 1.367 . S
C482 C490 1.378 . S
C483 C482 1.367 . S
C483 C491 1.433 . S
C484 H480 0.929 . S
C484 C486 1.378 . S
C484 C488 1.350 1_545 S
C485 C488 1.463 . S
C485 C490 1.350 . S
C485 N493 1.427 . S
C486 H477 0.930 . S
C486 C484 1.378 . S
C486 C487 1.367 1_545 S
C487 C486 1.367 1_565 S
C487 C489 1.435 . S
C488 C484 1.350 1_565 S
C488 C485 1.463 . S
C488 N492 1.427 . S
C489 H479 0.923 1_556 S
C489 C487 1.435 . S
C489 N492 1.389 . S
C490 H481 0.929 . S
C490 C482 1.378 . S
C490 C485 1.350 . S
C491 H478 0.929 1_565 S
C491 C483 1.433 . S
C491 N493 1.384 . S
N492 C488 1.427 . S
N492 C489 1.389 . S
N493 C485 1.427 . S
N493 C491 1.384 . S
H494 C500 0.930 . S
H495 C504 0.930 . S
H496 C509 0.929 . S
H497 C507 0.929 . S
H498 C502 0.929 . S
H499 C508 0.929 . S
C500 H494 0.930 . S
C500 C501 1.367 . S
C500 C508 1.378 . S
C501 C500 1.367 . S
C501 C509 1.433 . S
C502 H498 0.929 . S
C502 C504 1.378 . S
C502 C506 1.350 . S
C503 C506 1.463 . S
C503 C508 1.350 . S
C503 N511 1.427 . S
C504 H495 0.930 . S
C504 C502 1.378 . S
C504 C505 1.367 . S
C505 C504 1.367 . S
C505 C507 1.433 . S
C506 C502 1.350 . S
C506 C503 1.463 . S
C506 N510 1.427 . S
C507 H497 0.929 . S
C507 C505 1.433 . S
C507 N510 1.384 . S
C508 H499 0.929 . S
C508 C500 1.378 . S
C508 C503 1.350 . S
C509 H496 0.929 . S
C509 C501 1.433 . S
C509 N511 1.384 . S
N510 C506 1.427 . S
N510 C507 1.384 . S
N511 C503 1.427 . S
N511 C509 1.384 . S
H512 C518 0.930 . S
H513 C522 0.930 . S
H514 C527 0.929 . S
H515 C525 0.929 1_556 S
H516 C520 0.929 . S
H517 C526 0.937 . S
C518 H512 0.930 . S
C518 C519 1.367 . S
C518 C526 1.378 . S
C519 C518 1.367 . S
C519 C527 1.433 . S
C520 H516 0.929 . S
C520 C522 1.378 . S
C520 C524 1.350 . S
C521 C524 1.463 . S
C521 C526 1.350 . S
C521 N529 1.427 . S
C522 H513 0.930 . S
C522 C520 1.378 . S
C522 C523 1.367 . S
C523 C522 1.367 . S
C523 C525 1.433 . S
C524 C520 1.350 . S
C524 C521 1.463 . S
C524 N528 1.427 . S
C525 H515 0.929 1_554 S
C525 C523 1.433 . S
C525 N528 1.384 . S
C526 H517 0.937 . S
C526 C518 1.378 . S
C526 C521 1.350 . S
C527 H514 0.929 . S
C527 C519 1.433 . S
C527 N529 1.384 . S
N528 C524 1.427 . S
N528 C525 1.384 . S
N529 C521 1.427 . S
N529 C527 1.384 . S
H530 C536 0.930 . S
H531 C540 0.930 . S
H532 C545 0.929 . S
H533 C543 0.929 . S
H534 C538 0.929 . S
H535 C544 0.929 . S
C536 H530 0.930 . S
C536 C537 1.367 . S
C536 C544 1.378 . S
C537 C536 1.367 . S
C537 C545 1.433 . S
C538 H534 0.929 . S
C538 C540 1.378 . S
C538 C542 1.350 . S
C539 C542 1.463 . S
C539 C544 1.350 . S
C539 N547 1.427 . S
C540 H531 0.930 . S
C540 C538 1.378 . S
C540 C541 1.367 . S
C541 C540 1.367 . S
C541 C543 1.433 . S
C542 C538 1.350 . S
C542 C539 1.463 . S
C542 N546 1.427 . S
C543 H533 0.929 . S
C543 C541 1.433 . S
C543 N546 1.384 . S
C544 H535 0.929 . S
C544 C536 1.378 . S
C544 C539 1.350 . S
C545 H532 0.929 . S
C545 C537 1.433 . S
C545 N547 1.384 . S
N546 C542 1.427 . S
N546 C543 1.384 . S
N547 C539 1.427 . S
N547 C545 1.384 . S
H548 C554 0.930 . S
H549 C558 0.930 . S
H550 C563 0.929 . S
H551 C561 0.929 . S
H552 C556 0.927 1_655 S
H553 C562 0.929 . S
C554 H548 0.930 . S
C554 C555 1.367 . S
C554 C562 1.378 . S
C555 C554 1.367 . S
C555 C563 1.433 1_456 S
C556 H552 0.927 1_455 S
C556 C558 1.378 . S
C556 C560 1.350 1_554 S
C557 C560 1.463 . S
C557 C562 1.350 . S
C557 N565 1.431 1_556 S
C558 H549 0.930 . S
C558 C556 1.378 . S
C558 C559 1.367 1_554 S
C559 C558 1.367 1_556 S
C559 C561 1.433 . S
C560 C556 1.350 1_556 S
C560 C557 1.463 . S
C560 N564 1.427 . S
C561 H551 0.929 . S
C561 C559 1.433 . S
C561 N564 1.384 . S
C562 H553 0.929 . S
C562 C554 1.378 . S
C562 C557 1.350 . S
C563 H550 0.929 . S
C563 C555 1.433 1_654 S
C563 N565 1.382 1_655 S
N564 C560 1.427 . S
N564 C561 1.384 . S
N565 C557 1.431 1_554 S
N565 C563 1.382 1_455 S
H566 C572 0.930 . S
H567 C576 0.930 1_556 S
H568 C581 0.929 1_556 S
H569 C579 0.929 . S
H570 C574 0.929 1_556 S
H571 C580 0.929 . S
C572 H566 0.930 . S
C572 C573 1.367 . S
C572 C580 1.378 . S
C573 C572 1.367 . S
C573 C581 1.433 . S
C574 H570 0.929 1_554 S
C574 C576 1.378 . S
C574 C578 1.350 . S
C575 C578 1.463 . S
C575 C580 1.350 . S
C575 N583 1.427 . S
C576 H567 0.930 1_554 S
C576 C574 1.378 . S
C576 C577 1.367 . S
C577 C576 1.367 . S
C577 C579 1.433 . S
C578 C574 1.350 . S
C578 C575 1.463 . S
C578 N582 1.427 . S
C579 H569 0.929 . S
C579 C577 1.433 . S
C579 N582 1.384 . S
C580 H571 0.929 . S
C580 C572 1.378 . S
C580 C575 1.350 . S
C581 H568 0.929 1_554 S
C581 C573 1.433 . S
C581 N583 1.384 . S
N582 C578 1.427 . S
N582 C579 1.384 . S
N583 C575 1.427 . S
N583 C581 1.384 . S
H584 C590 0.930 . S
H585 C594 0.930 . S
H586 C599 0.929 . S
H587 C597 0.929 . S
H588 C592 0.929 . S
H589 C598 0.929 . S
C590 H584 0.930 . S
C590 C591 1.367 . S
C590 C598 1.378 . S
C591 C590 1.367 . S
C591 C599 1.433 . S
C592 H588 0.929 . S
C592 C594 1.378 . S
C592 C596 1.350 . S
C593 C596 1.463 . S
C593 C598 1.350 . S
C593 N601 1.427 . S
C594 H585 0.930 . S
C594 C592 1.378 . S
C594 C595 1.367 . S
C595 C594 1.367 . S
C595 C597 1.433 . S
C596 C592 1.350 . S
C596 C593 1.463 . S
C596 N600 1.427 . S
C597 H587 0.929 . S
C597 C595 1.433 . S
C597 N600 1.384 . S
C598 H589 0.929 . S
C598 C590 1.378 . S
C598 C593 1.350 . S
C599 H586 0.929 . S
C599 C591 1.433 . S
C599 N601 1.384 . S
N600 C596 1.427 . S
N600 C597 1.384 . S
N601 C593 1.427 . S
N601 C599 1.384 . S
H602 C608 0.930 . S
H603 C612 0.930 . S
H604 C617 0.929 . S
H605 C615 0.929 . S
H606 C610 0.929 . S
H607 C616 0.929 . S
C608 H602 0.930 . S
C608 C609 1.367 . S
C608 C616 1.378 . S
C609 C608 1.367 . S
C609 C617 1.433 . S
C610 H606 0.929 . S
C610 C612 1.378 . S
C610 C614 1.350 . S
C611 C614 1.463 . S
C611 C616 1.350 . S
C611 N619 1.427 . S
C612 H603 0.930 . S
C612 C610 1.378 . S
C612 C613 1.367 . S
C613 C612 1.367 . S
C613 C615 1.433 . S
C614 C610 1.350 . S
C614 C611 1.463 . S
C614 N618 1.427 . S
C615 H605 0.929 . S
C615 C613 1.433 . S
C615 N618 1.384 . S
C616 H607 0.929 . S
C616 C608 1.378 . S
C616 C611 1.350 . S
C617 H604 0.929 . S
C617 C609 1.433 . S
C617 N619 1.384 . S
N618 C614 1.427 . S
N618 C615 1.384 . S
N619 C611 1.427 . S
N619 C617 1.384 . S
C195 C9 1.950 . S
C199 C107 1.801 . S
C213 C21 1.557 . S
C217 C141 1.427 . S
C235 C153 1.212 . S
C231 C30 1.229 . S
C249 C43 1.272 . S
C253 C187 1.249 . S
C271 C144 1.375 . S
C267 C4 1.429 . S
C289 C124 1.841 . S
C285 C22 1.999 . S
C307 C171 1.148 . S
C303 C34 1.216 . S
C325 C162 1.300 . S
C321 C48 1.381 . S
C339 C8 1.637 . S
C343 C170 1.529 . S
C361 C132 1.392 . S
C357 C35 1.522 . S
C375 C47 1.594 . S
C379 C108 1.439 . S
C393 C17 1.388 . S
C397 C165 1.344 . S
C415 C123 1.570 . S
C411 C60 1.639 . S
C429 C74 1.834 . S
C433 C145 1.738 . S
C447 C82 1.188 . S
C451 C150 1.101 . S
C465 C100 1.864 . S
C469 C183 1.765 . S
C483 C61 1.875 . S
C487 C128 1.759 1_556 S
C505 C120 1.607 . S
C501 C73 1.681 . S
C523 C174 1.514 . S
C519 C87 1.657 . S
C541 C166 1.130 . S
C537 C95 1.126 . S
C555 C56 1.574 1_455 S
C559 C186 1.581 . S
C577 C129 1.620 . S
C573 C86 1.698 . S
C595 C111 1.423 . S
C591 C99 1.542 . S
C609 C69 1.520 . S
C613 C149 1.418 . S
