# Generated by pormake.
# Topology rtl, (3,6)-cn, num edge types: 1
# Building blocks:
#     Node 0, Type 0, BuildingBlock: MIDCAF_clean_linker_0, # of connection points: 3
#     Node 1, Type 0, BuildingBlock: MIDCAF_clean_linker_0, # of connection points: 3
#     Node 2, Type 0, BuildingBlock: MIDCAF_clean_linker_0, # of connection points: 3
#     Node 3, Type 0, BuildingBlock: MIDCAF_clean_linker_0, # of connection points: 3
#     Node 4, Type 1, BuildingBlock: KUMBUR_clean_sbu_1, # of connection points: 6
#     Node 5, Type 1, BuildingBlock: KUMBUR_clean_sbu_1, # of connection points: 6
#     Edge 6, Type (0, 1), BuildingBlock: XIVTED_clean_linker_0, # of connection points: 2
#     Edge 7, Type (0, 1), BuildingBlock: XIVTED_clean_linker_0, # of connection points: 2
#     Edge 8, Type (0, 1), BuildingBlock: XIVTED_clean_linker_0, # of connection points: 2
#     Edge 9, Type (0, 1), BuildingBlock: XIVTED_clean_linker_0, # of connection points: 2
#     Edge 10, Type (0, 1), BuildingBlock: XIVTED_clean_linker_0, # of connection points: 2
#     Edge 11, Type (0, 1), BuildingBlock: XIVTED_clean_linker_0, # of connection points: 2
#     Edge 12, Type (0, 1), BuildingBlock: XIVTED_clean_linker_0, # of connection points: 2
#     Edge 13, Type (0, 1), BuildingBlock: XIVTED_clean_linker_0, # of connection points: 2
#     Edge 14, Type (0, 1), BuildingBlock: XIVTED_clean_linker_0, # of connection points: 2
#     Edge 15, Type (0, 1), BuildingBlock: XIVTED_clean_linker_0, # of connection points: 2
#     Edge 16, Type (0, 1), BuildingBlock: XIVTED_clean_linker_0, # of connection points: 2
#     Edge 17, Type (0, 1), BuildingBlock: XIVTED_clean_linker_0, # of connection points: 2
# Relax obj value: 0.018
# Max RMSD: 0.096
# Mean RMSD: 0.057
data_MOF--net-rtl--node1-KUMBUR_clean_sbu_1--node2-MIDCAF_clean_linker_0--edge1-XIVTED_clean_linker_0
_symmetry_space_group_name_H-M    P1
_symmetry_Int_Tables_number       1
_symmetry_cell_setting            triclinic
loop_
_symmetry_equiv_pos_as_xyz
'x, y, z'
_cell_length_a     39.722642
_cell_length_b     40.370215
_cell_length_c     35.333927
_cell_angle_alpha  79.855273
_cell_angle_beta   99.654338
_cell_angle_gamma 90.537114
loop_
_atom_site_label
_atom_site_type_symbol
_atom_site_fract_x
_atom_site_fract_y
_atom_site_fract_z
_atom_type_partial_charge
C0 C 0.13901 0.8786 0.121 0.0
C1 C 0.15859 0.86744 0.15798 0.0
C2 C 0.19145 0.85379 0.16043 0.0
C3 C 0.20403 0.85039 0.12661 0.0
H4 H 0.28066 0.79933 0.08801 0.0
H5 H 0.32577 0.75773 0.09104 0.0
H6 H 0.2924 0.75431 0.96888 0.0
H7 H 0.24863 0.79639 0.96553 0.0
H8 H 0.19622 0.84481 0.91596 0.0
H9 H 0.16729 0.86898 0.85111 0.0
H10 H 0.11481 0.94082 0.89894 0.0
H11 H 0.14403 0.91657 0.96464 0.0
H12 H 0.1357 0.88398 0.05917 0.0
H13 H 0.11374 0.88957 0.11823 0.0
H14 H 0.20705 0.84479 0.18854 0.0
H15 H 0.2292 0.83913 0.1296 0.0
N16 N 0.22315 0.83335 0.05664 0.0
N17 N 0.21678 0.84145 0.98858 0.0
N18 N 0.18023 0.87013 0.0179 0.0
C19 C 0.23336 0.82635 0.02403 0.0
C20 C 0.19039 0.86343 0.9851 0.0
C21 C 0.19654 0.85517 0.05383 0.0
C22 C 0.2611 0.80136 0.02651 0.0
C23 C 0.28314 0.78977 0.0618 0.0
C24 C 0.3089 0.7658 0.06357 0.0
C25 C 0.31294 0.75272 0.03015 0.0
C26 C 0.29072 0.76432 0.99501 0.0
C27 C 0.26534 0.78841 0.99316 0.0
C28 C 0.17246 0.87869 0.94568 0.0
C29 C 0.17859 0.86578 0.91293 0.0
C30 C 0.16183 0.87948 0.87565 0.0
C31 C 0.13864 0.90662 0.86999 0.0
C32 C 0.13268 0.91995 0.90251 0.0
C33 C 0.14927 0.90595 0.94009 0.0
C34 C 0.18418 0.86092 0.08956 0.0
C35 C 0.15173 0.87558 0.08716 0.0
C36 C 0.62579 0.61896 0.50495 0.0
C37 C 0.64444 0.62203 0.47403 0.0
C38 C 0.6746 0.64067 0.47639 0.0
C39 C 0.68565 0.65608 0.5086 0.0
H40 H 0.75882 0.71729 0.55312 0.0
H41 H 0.80039 0.76096 0.54466 0.0
H42 H 0.7673 0.80597 0.63493 0.0
H43 H 0.72621 0.76094 0.64451 0.0
H44 H 0.66477 0.71066 0.69491 0.0
H45 H 0.63799 0.69009 0.75204 0.0
H46 H 0.63313 0.59067 0.72183 0.0
H47 H 0.65788 0.61159 0.6644 0.0
H48 H 0.62194 0.63131 0.56052 0.0
H49 H 0.60216 0.60531 0.50392 0.0
H50 H 0.69003 0.64306 0.45357 0.0
H51 H 0.70902 0.67018 0.50941 0.0
N52 N 0.7022 0.69385 0.57171 0.0
N53 N 0.69953 0.70017 0.63604 0.0
N54 N 0.66611 0.65996 0.60712 0.0
C55 C 0.71274 0.70946 0.60259 0.0
C56 C 0.67637 0.67506 0.63845 0.0
C57 C 0.67871 0.66932 0.57359 0.0
C58 C 0.73892 0.73576 0.59928 0.0
C59 C 0.76032 0.73645 0.57126 0.0
C60 C 0.78411 0.76174 0.5662 0.0
C61 C 0.78693 0.78749 0.58858 0.0
C62 C 0.76603 0.78647 0.61729 0.0
C63 C 0.74238 0.76074 0.62273 0.0
C64 C 0.66295 0.66286 0.67492 0.0
C65 C 0.65797 0.68443 0.70074 0.0
C66 C 0.64272 0.67256 0.73352 0.0
C67 C 0.63271 0.63876 0.74136 0.0
C68 C 0.63924 0.61708 0.71622 0.0
C69 C 0.65376 0.62903 0.68331 0.0
C70 C 0.66704 0.6529 0.53949 0.0
C71 C 0.63706 0.63405 0.53738 0.0
C72 C 0.849 0.10575 0.95145 0.0
C73 C 0.83205 0.11479 0.91276 0.0
C74 C 0.80059 0.13246 0.90571 0.0
C75 C 0.78668 0.14114 0.93661 0.0
H76 H 0.73315 0.22485 0.97008 0.0
H77 H 0.69204 0.27073 0.96509 0.0
H78 H 0.66489 0.22446 0.07558 0.0
H79 H 0.7068 0.17973 0.0812 0.0
H80 H 0.79658 0.17015 0.13876 0.0
H81 H 0.82775 0.15145 0.20475 0.0
H82 H 0.86031 0.0609 0.1709 0.0
H83 H 0.82977 0.07986 0.10438 0.0
H84 H 0.84915 0.10697 0.01154 0.0
H85 H 0.8736 0.09279 0.95804 0.0
H86 H 0.7866 0.13948 0.87634 0.0
H87 H 0.7625 0.15485 0.93016 0.0
N88 N 0.76336 0.16442 0.00182 0.0
N89 N 0.76672 0.16095 0.06936 0.0
N90 N 0.80463 0.12914 0.04551 0.0
C91 C 0.75151 0.17378 0.03241 0.0
C92 C 0.79324 0.13865 0.07615 0.0
C93 C 0.78989 0.14187 0.00825 0.0
C94 C 0.72352 0.19901 0.02628 0.0
C95 C 0.71806 0.22438 0.99301 0.0
C96 C 0.69442 0.25061 0.99014 0.0
C97 C 0.67553 0.25167 0.02029 0.0
C98 C 0.67969 0.22509 0.05238 0.0
C99 C 0.70358 0.19927 0.05549 0.0
C100 C 0.81077 0.12645 0.11642 0.0
C101 C 0.81022 0.14617 0.14539 0.0
C102 C 0.82817 0.13562 0.18304 0.0
C103 C 0.84635 0.10485 0.19263 0.0
C104 C 0.84632 0.08471 0.16405 0.0
C105 C 0.82899 0.0956 0.12609 0.0
C106 C 0.80381 0.13215 0.97525 0.0
C107 C 0.83502 0.11414 0.98225 0.0
C108 C 0.39581 0.39155 0.55711 0.0
C109 C 0.38399 0.38056 0.59249 0.0
C110 C 0.36156 0.35343 0.59497 0.0
C111 C 0.35066 0.3381 0.56267 0.0
H112 H 0.29792 0.25772 0.52894 0.0
H113 H 0.25342 0.21681 0.5361 0.0
H114 H 0.2196 0.23636 0.41127 0.0
H115 H 0.26534 0.27673 0.40397 0.0
H116 H 0.3184 0.32357 0.35145 0.0
H117 H 0.33984 0.34404 0.29067 0.0
H118 H 0.42684 0.38591 0.3554 0.0
H119 H 0.40566 0.36569 0.41586 0.0
H120 H 0.39413 0.3857 0.4978 0.0
H121 H 0.41284 0.41261 0.55407 0.0
H122 H 0.35242 0.34395 0.62196 0.0
H123 H 0.33315 0.31746 0.56571 0.0
N124 N 0.32479 0.31023 0.49419 0.0
N125 N 0.32276 0.30759 0.42802 0.0
N126 N 0.3601 0.34452 0.45792 0.0
C127 C 0.31159 0.29675 0.46242 0.0
C128 C 0.34729 0.33136 0.4257 0.0
C129 C 0.34889 0.33419 0.49225 0.0
C130 C 0.28509 0.27075 0.46587 0.0
C131 C 0.28107 0.25335 0.50291 0.0
C132 C 0.2553 0.22995 0.50707 0.0
C133 C 0.23244 0.22353 0.47437 0.0
C134 C 0.23685 0.24044 0.43713 0.0
C135 C 0.26301 0.26369 0.43291 0.0
C136 C 0.36024 0.34301 0.38861 0.0
C137 C 0.34216 0.33703 0.35273 0.0
C138 C 0.35433 0.34889 0.31789 0.0
C139 C 0.38507 0.36649 0.31829 0.0
C140 C 0.40328 0.37211 0.35417 0.0
C141 C 0.39095 0.36068 0.38883 0.0
C142 C 0.36192 0.34949 0.527 0.0
C143 C 0.38492 0.3762 0.52474 0.0
Tb144 Tb 0.03185 0.97729 0.5055 0.0
C145 C 0.95012 0.10457 0.48043 0.0
N146 N 0.9784 0.09581 0.50784 0.0
C147 C 0.00261 0.14946 0.48762 0.0
C148 C 0.94783 0.13529 0.45395 0.0
C149 C 0.00334 0.11886 0.51352 0.0
C150 C 0.97508 0.1574 0.45711 0.0
C151 C 0.89179 0.09233 0.45445 0.0
C152 C 0.92243 0.08365 0.48075 0.0
C153 C 0.88995 0.12202 0.42657 0.0
C154 C 0.91794 0.14347 0.42631 0.0
Tb155 Tb 0.97765 0.04361 0.54611 0.0
N156 N 0.92554 0.05475 0.50743 0.0
C157 C 0.8639 0.0711 0.45741 0.0
C158 C 0.89792 0.03494 0.51207 0.0
C159 C 0.86684 0.04256 0.48674 0.0
H160 H 0.02359 0.11411 0.53839 0.0
H161 H 0.84521 0.02639 0.48979 0.0
H162 H 0.00323 0.90445 0.54495 0.0
H163 H 0.16101 0.0228 0.50964 0.0
H164 H 0.90022 0.01287 0.5347 0.0
H165 H 0.83986 0.07686 0.43773 0.0
H166 H 0.10031 0.01984 0.48138 0.0
H167 H 0.02298 0.16716 0.49165 0.0
H168 H 0.86678 0.12898 0.40569 0.0
H169 H 0.91585 0.16676 0.40538 0.0
H170 H 0.02513 0.85576 0.5958 0.0
H171 H 0.97437 0.18127 0.43736 0.0
H172 H 0.18605 0.98151 0.56775 0.0
N173 N 0.04987 0.93081 0.55126 0.0
C174 C 0.0831 0.92991 0.56858 0.0
C175 C 0.04165 0.87657 0.5886 0.0
C176 C 0.09666 0.90286 0.59793 0.0
C177 C 0.02931 0.90416 0.55983 0.0
C178 C 0.07534 0.87612 0.60813 0.0
N179 N 0.08957 0.9805 0.52614 0.0
C180 C 0.11025 0.0031 0.50814 0.0
C181 C 0.13848 0.95568 0.5722 0.0
C182 C 0.10351 0.95603 0.55603 0.0
C183 C 0.15905 0.98085 0.55621 0.0
C184 C 0.14499 0.00426 0.5235 0.0
H185 H 0.08479 0.8548 0.63051 0.0
H186 H 0.14197 0.88278 0.63843 0.0
H187 H 0.1787 0.92902 0.61577 0.0
O188 O 0.0603 0.95929 0.46782 0.0
O189 O 0.02797 0.9708 0.56769 0.0
O190 O 0.02692 0.02447 0.5802 0.0
O191 O 0.00667 0.94983 0.46416 0.0
O192 O 0.04374 0.03118 0.49222 0.0
O193 O 0.03196 0.05458 0.54401 0.0
O194 O 0.95593 0.03042 0.59694 0.0
O195 O 0.9599 0.02538 0.49143 0.0
O196 O 0.0084 0.02188 0.46607 0.0
O197 O 0.96538 0.08195 0.57512 0.0
O198 O 0.96366 0.99057 0.5602 0.0
O199 O 0.97923 0.96293 0.51253 0.0
C200 C 0.03532 0.99247 0.59133 0.0
C201 C 0.04051 0.91084 0.44286 0.0
C202 C 0.06193 0.87651 0.40125 0.0
C203 C 0.04998 0.84763 0.4231 0.0
C204 C 0.02858 0.88177 0.46423 0.0
C205 C 0.03359 0.8503 0.45452 0.0
C206 C 0.05735 0.90801 0.41165 0.0
C207 C 0.0494 0.05357 0.5155 0.0
C208 C 0.03434 0.94467 0.45073 0.0
C209 C 0.13108 0.90316 0.61552 0.0
C210 C 0.15196 0.92955 0.60269 0.0
C211 C 0.97591 0.02953 0.46158 0.0
C212 C 0.97166 0.06538 0.64301 0.0
C213 C 0.96546 0.07148 0.7089 0.0
C214 C 0.00124 0.07099 0.71932 0.0
C215 C 0.00728 0.06574 0.65361 0.0
C216 C 0.95083 0.06852 0.67057 0.0
C217 C 0.02197 0.06829 0.69171 0.0
C218 C 0.96079 0.9658 0.53985 0.0
C219 C 0.95604 0.06104 0.60358 0.0
H220 H 0.05333 0.82301 0.41588 0.0
H221 H 0.01498 0.88336 0.4879 0.0
H222 H 0.02434 0.82796 0.47109 0.0
H223 H 0.06587 0.93057 0.3946 0.0
H224 H 0.01316 0.07338 0.7486 0.0
H225 H 0.02361 0.0641 0.63239 0.0
H226 H 0.92329 0.06827 0.6623 0.0
H227 H 0.04949 0.06832 0.6998 0.0
Tb228 Tb 0.46233 0.49391 0.98727 0.0
C229 C 0.60764 0.53806 0.03152 0.0
N230 N 0.59191 0.51052 0.0481 0.0
C231 C 0.64011 0.47587 0.04575 0.0
C232 C 0.63952 0.53532 0.01966 0.0
C233 C 0.60883 0.48007 0.05771 0.0
C234 C 0.65522 0.5035 0.02592 0.0
C235 C 0.60915 0.59891 0.01436 0.0
C236 C 0.59281 0.56943 0.0289 0.0
C237 C 0.64016 0.59625 1.00089 0.0
C238 C 0.65526 0.5645 0.00342 0.0
Tb239 Tb 0.53991 0.5209 0.0644 0.0
N240 N 0.56234 0.57099 0.04117 0.0
C241 C 0.59395 0.63011 0.01424 0.0
C242 C 0.54818 0.60126 0.04296 0.0
C243 C 0.56354 0.63127 0.02904 0.0
H244 H 0.59894 0.45908 0.07559 0.0
H245 H 0.55195 0.65526 0.02978 0.0
H246 H 0.39763 0.53719 0.00221 0.0
H247 H 0.47684 0.36078 0.9857 0.0
H248 H 0.52491 0.60219 0.05478 0.0
H249 H 0.60572 0.65338 0.00336 0.0
H250 H 0.48833 0.42094 0.96744 0.0
H251 H 0.65291 0.45147 0.05264 0.0
H252 H 0.65295 0.61858 0.98914 0.0
H253 H 0.6796 0.56285 0.9938 0.0
H254 H 0.34436 0.52564 0.02955 0.0
H255 H 0.6797 0.50028 0.01722 0.0
H256 H 0.43012 0.34307 0.02272 0.0
N257 N 0.4126 0.48561 0.01143 0.0
C258 C 0.40372 0.45322 0.02209 0.0
C259 C 0.36098 0.50504 0.02791 0.0
C260 C 0.37377 0.44533 0.03792 0.0
C261 C 0.39115 0.51153 0.01259 0.0
C262 C 0.35248 0.4718 0.04115 0.0
N263 N 0.45187 0.43728 0.99846 0.0
C264 C 0.46936 0.41362 0.98568 0.0
C265 C 0.41589 0.39408 0.02566 0.0
C266 C 0.42451 0.42813 0.01611 0.0
C267 C 0.43585 0.36953 0.0159 0.0
C268 C 0.46229 0.37942 0.99511 0.0
H269 H 0.32917 0.46683 0.0531 0.0
H270 H 0.34317 0.40476 0.06192 0.0
H271 H 0.38007 0.35979 0.05113 0.0
O272 O 0.43886 0.47806 0.93547 0.0
O273 O 0.45708 0.49153 0.04878 0.0
O274 O 0.51061 0.4765 0.08292 0.0
O275 O 0.43694 0.5299 0.94144 0.0
O276 O 0.51242 0.46863 0.99318 0.0
O277 O 0.53884 0.46777 0.05703 0.0
O278 O 0.53125 0.53883 0.11448 0.0
O279 O 0.52888 0.54833 0.00375 0.0
O280 O 0.51147 0.50663 0.96941 0.0
O281 O 0.58001 0.51782 0.11197 0.0
O282 O 0.49058 0.54647 0.05961 0.0
O283 O 0.46271 0.54639 0.99619 0.0
C284 C 0.47721 0.47541 0.0797 0.0
C285 C 0.44316 0.51856 0.87947 0.0
C286 C 0.44649 0.50724 0.81438 0.0
C287 C 0.46657 0.53592 0.80795 0.0
C288 C 0.46307 0.54726 0.87216 0.0
C289 C 0.47469 0.55576 0.83665 0.0
C290 C 0.43483 0.49878 0.85034 0.0
C291 C 0.53337 0.45465 0.02491 0.0
C292 C 0.43152 0.50869 0.91745 0.0
C293 C 0.36586 0.41143 0.04926 0.0
C294 C 0.38694 0.38583 0.0432 0.0
C295 C 0.52703 0.53506 0.97216 0.0
C296 C 0.56253 0.50965 0.17305 0.0
C297 C 0.57214 0.50744 0.24355 0.0
C298 C 0.56676 0.47251 0.24862 0.0
C299 C 0.55754 0.47483 0.17868 0.0
C300 C 0.56947 0.52585 0.20536 0.0
C301 C 0.55936 0.45643 0.21634 0.0
C302 C 0.46806 0.55904 0.02863 0.0
C303 C 0.56138 0.52935 0.13377 0.0
H304 H 0.47558 0.54337 0.78047 0.0
H305 H 0.46992 0.56308 0.89392 0.0
H306 H 0.49008 0.57783 0.83135 0.0
H307 H 0.41972 0.47651 0.85598 0.0
H308 H 0.56902 0.45742 0.27751 0.0
H309 H 0.55266 0.46192 0.15402 0.0
H310 H 0.57284 0.55286 0.20057 0.0
H311 H 0.55554 0.42953 0.22056 0.0
H312 H 0.19407 0.21389 0.53311 0.0
H313 H 0.07284 0.0764 0.44725 0.0
H314 H 0.2055 0.17861 0.42733 0.0
H315 H 0.08509 0.08956 0.56732 0.0
H316 H 0.11676 0.11827 0.43627 0.0
H317 H 0.14941 0.17303 0.54284 0.0
C318 C 0.18742 0.19744 0.512 0.0
C319 C 0.20404 0.19958 0.47952 0.0
C320 C 0.10986 0.11196 0.46501 0.0
C321 C 0.15209 0.15307 0.49022 0.0
C322 C 0.08486 0.08804 0.47134 0.0
C323 C 0.07548 0.07932 0.50835 0.0
C324 C 0.12528 0.12766 0.49577 0.0
C325 C 0.09149 0.09559 0.53831 0.0
C326 C 0.16172 0.17421 0.51753 0.0
C327 C 0.19335 0.17817 0.45263 0.0
N328 N 0.11555 0.11902 0.53135 0.0
N329 N 0.16809 0.15582 0.45859 0.0
H330 H 0.35132 0.74568 0.9741 0.0
H331 H 0.45466 0.58125 0.09354 0.0
H332 H 0.33548 0.69989 0.08966 0.0
H333 H 0.43501 0.60483 0.96773 0.0
H334 H 0.41938 0.63019 0.09554 0.0
H335 H 0.39072 0.69963 0.97449 0.0
C336 C 0.35602 0.72597 0.99957 0.0
C337 C 0.33951 0.72652 0.03168 0.0
C338 C 0.42291 0.62462 0.06756 0.0
C339 C 0.38535 0.67406 0.03252 0.0
C340 C 0.44311 0.59683 0.06636 0.0
C341 C 0.44765 0.58893 0.03039 0.0
C342 C 0.40767 0.64492 0.03256 0.0
C343 C 0.43198 0.60987 0.99608 0.0
C344 C 0.37866 0.69977 0.99978 0.0
C345 C 0.34765 0.70073 0.06432 0.0
N346 N 0.41277 0.63699 0.99801 0.0
N347 N 0.36993 0.67548 0.06386 0.0
H348 H 0.80354 0.81793 0.51848 0.0
H349 H 0.92951 0.95164 0.6042 0.0
H350 H 0.82597 0.82101 0.64173 0.0
H351 H 0.93319 0.92106 0.49384 0.0
H352 H 0.8865 0.90905 0.61653 0.0
H353 H 0.84578 0.86101 0.50708 0.0
C354 C 0.81746 0.82742 0.54327 0.0
C355 C 0.81138 0.81526 0.58129 0.0
C356 C 0.89679 0.91168 0.58968 0.0
C357 C 0.85941 0.8655 0.56806 0.0
C358 C 0.92125 0.93604 0.58251 0.0
C359 C 0.935 0.93995 0.54789 0.0
C360 C 0.88561 0.8914 0.56178 0.0
C361 C 0.92342 0.91888 0.52098 0.0
C362 C 0.84149 0.85221 0.53663 0.0
C363 C 0.82954 0.82961 0.61192 0.0
N364 N 0.89928 0.89567 0.5284 0.0
N365 N 0.85274 0.85396 0.60464 0.0
H366 H 0.63401 0.2896 0.95736 0.0
H367 H 0.55987 0.40618 0.08645 0.0
H368 H 0.66601 0.2814 0.08175 0.0
H369 H 0.55079 0.43302 0.96138 0.0
H370 H 0.59344 0.35619 0.08486 0.0
H371 H 0.59832 0.33866 0.95775 0.0
C372 C 0.63363 0.29806 0.98471 0.0
C373 C 0.65299 0.28109 0.0196 0.0
C374 C 0.58407 0.37298 0.05773 0.0
C375 C 0.61183 0.33688 0.02026 0.0
C376 C 0.56495 0.40151 0.05864 0.0
C377 C 0.55267 0.42379 0.02402 0.0
C378 C 0.59075 0.36651 0.02189 0.0
C379 C 0.55965 0.41635 0.98873 0.0
C380 C 0.61313 0.32598 0.98491 0.0
C381 C 0.65104 0.29306 0.05423 0.0
N382 N 0.57825 0.3883 0.98855 0.0
N383 N 0.63083 0.3201 0.05366 0.0
H384 H 0.09514 0.84903 0.17311 0.0
H385 H 0.12 0.90667 0.38087 0.0
H386 H 0.18963 0.88883 0.22464 0.0
H387 H 0.03966 0.84139 0.34262 0.0
H388 H 0.14406 0.9045 0.32182 0.0
H389 H 0.07219 0.85056 0.23283 0.0
C390 C 0.11097 0.85831 0.19693 0.0
C391 C 0.14431 0.86889 0.1939 0.0
C392 C 0.12127 0.89052 0.32647 0.0
C393 C 0.11828 0.87056 0.26242 0.0
C394 C 0.10747 0.89185 0.36004 0.0
C395 C 0.07782 0.87415 0.36664 0.0
C396 C 0.10502 0.87172 0.29903 0.0
C397 C 0.06274 0.85513 0.33887 0.0
C398 C 0.09796 0.85893 0.23111 0.0
C399 C 0.16387 0.88023 0.22589 0.0
N400 N 0.07637 0.85461 0.30617 0.0
N401 N 0.15051 0.88092 0.25877 0.0
H402 H 0.58227 0.59187 0.74499 0.0
H403 H 0.54649 0.60091 0.95641 0.0
H404 H 0.64216 0.65636 0.81469 0.0
H405 H 0.54118 0.50836 0.91072 0.0
H406 H 0.57266 0.62786 0.90085 0.0
H407 H 0.55677 0.56761 0.80137 0.0
C408 C 0.59035 0.60086 0.77213 0.0
C409 C 0.61514 0.62581 0.77506 0.0
C410 C 0.56591 0.60161 0.90328 0.0
C411 C 0.58491 0.59866 0.83955 0.0
C412 C 0.55132 0.58613 0.93511 0.0
C413 C 0.54242 0.55213 0.93876 0.0
C414 C 0.57052 0.58318 0.87433 0.0
C415 C 0.54782 0.53457 0.90929 0.0
C416 C 0.57554 0.58706 0.80424 0.0
C417 C 0.62321 0.63728 0.81084 0.0
N418 N 0.56131 0.55035 0.87822 0.0
N419 N 0.60814 0.62359 0.84174 0.0
H420 H 0.8955 0.13929 0.23212 0.0
H421 H 0.91108 0.01313 0.43361 0.0
H422 H 0.84087 0.04623 0.24289 0.0
H423 H 0.99689 0.07056 0.40057 0.0
H424 H 0.87895 0.03186 0.36773 0.0
H425 H 0.92744 0.12107 0.2983 0.0
C426 C 0.89025 0.11508 0.24857 0.0
C427 C 0.86572 0.09411 0.2323 0.0
C428 C 0.90485 0.04023 0.37494 0.0
C429 C 0.90154 0.07348 0.30758 0.0
C430 C 0.92306 0.02973 0.4124 0.0
C431 C 0.95659 0.0403 0.42215 0.0
C432 C 0.92016 0.0619 0.34744 0.0
C433 C 0.97114 0.06168 0.39383 0.0
C434 C 0.90849 0.10468 0.28607 0.0
C435 C 0.8598 0.06293 0.25451 0.0
N436 N 0.95271 0.07206 0.35769 0.0
N437 N 0.87742 0.05361 0.29127 0.0
H438 H 0.44717 0.40413 0.61889 0.0
H439 H 0.38499 0.47884 0.79185 0.0
H440 H 0.34424 0.39646 0.64341 0.0
H441 H 0.48748 0.48845 0.76619 0.0
H442 H 0.3703 0.44645 0.73936 0.0
H443 H 0.46295 0.4336 0.67389 0.0
C444 C 0.42786 0.40871 0.63575 0.0
C445 C 0.3943 0.3978 0.62642 0.0
C446 C 0.39604 0.45558 0.74525 0.0
C447 C 0.41228 0.4313 0.68972 0.0
C448 C 0.4045 0.47391 0.77541 0.0
C449 C 0.4375 0.48651 0.78341 0.0
C450 C 0.42073 0.44973 0.72285 0.0
C451 C 0.46158 0.47969 0.7607 0.0
C452 C 0.43693 0.42539 0.6673 0.0
C453 C 0.37051 0.404 0.64976 0.0
N454 N 0.4527 0.46183 0.73145 0.0
N455 N 0.37993 0.42039 0.68021 0.0
H456 H 0.64844 0.64613 0.39718 0.0
H457 H 0.5491 0.49468 0.31399 0.0
H458 H 0.61304 0.56111 0.47176 0.0
H459 H 0.61664 0.55922 0.25163 0.0
H460 H 0.56589 0.52261 0.37013 0.0
H461 H 0.63029 0.61855 0.34125 0.0
C462 C 0.63707 0.6216 0.40195 0.0
C463 C 0.63256 0.60589 0.43948 0.0
C464 C 0.57695 0.5306 0.34407 0.0
C465 C 0.61098 0.57452 0.37518 0.0
C466 C 0.56752 0.51458 0.31204 0.0
C467 C 0.58141 0.52454 0.27782 0.0
C468 C 0.60014 0.55703 0.3418 0.0
C469 C 0.60469 0.55101 0.27695 0.0
C470 C 0.62653 0.60596 0.36989 0.0
C471 C 0.61673 0.57444 0.44343 0.0
N472 N 0.61323 0.56634 0.30837 0.0
N473 N 0.60649 0.55982 0.41169 0.0
H474 H 0.83189 0.15313 0.84013 0.0
H475 H 0.97072 0.03807 0.78408 0.0
H476 H 0.86856 0.05781 0.91076 0.0
H477 H 0.91049 0.1142 0.6995 0.0
H478 H 0.93554 0.04679 0.83225 0.0
H479 H 0.86165 0.14077 0.78891 0.0
C480 C 0.8458 0.12942 0.84477 0.0
C481 C 0.84787 0.10662 0.88009 0.0
C482 C 0.92986 0.06143 0.80308 0.0
C483 C 0.88265 0.09272 0.82179 0.0
C484 C 0.95005 0.05661 0.7757 0.0
C485 C 0.94351 0.07552 0.73785 0.0
C486 C 0.90326 0.08569 0.7927 0.0
C487 C 0.91621 0.09897 0.72833 0.0
C488 C 0.86296 0.12249 0.81554 0.0
C489 C 0.86682 0.07654 0.88448 0.0
N490 N 0.89724 0.10362 0.75569 0.0
N491 N 0.88368 0.07062 0.85585 0.0
H492 H 0.45037 0.36258 0.30383 0.0
H493 H 0.41417 0.48551 0.09788 0.0
H494 H 0.34947 0.40046 0.24928 0.0
H495 H 0.50624 0.42481 0.13775 0.0
H496 H 0.39037 0.45637 0.15387 0.0
H497 H 0.4721 0.38731 0.24454 0.0
C498 C 0.43278 0.37606 0.27931 0.0
C499 C 0.39807 0.37957 0.28154 0.0
C500 C 0.41572 0.44931 0.15029 0.0
C501 C 0.42279 0.40803 0.21356 0.0
C502 C 0.42924 0.46579 0.11816 0.0
C503 C 0.4622 0.45754 0.11304 0.0
C504 C 0.43556 0.42475 0.17792 0.0
C505 C 0.48093 0.43236 0.14086 0.0
C506 C 0.44516 0.39003 0.24541 0.0
C507 C 0.37635 0.39697 0.24871 0.0
N508 N 0.46745 0.41701 0.17221 0.0
N509 N 0.38911 0.4108 0.2162 0.0
H510 H 0.12945 0.9729 0.83461 0.0
H511 H 0.0305 0.92958 0.63312 0.0
H512 H 0.10764 0.87195 0.81452 0.0
H513 H 0.07268 0.027 0.64358 0.0
H514 H 0.05428 0.90911 0.7014 0.0
H515 H 0.10322 0.99467 0.76685 0.0
C516 C 0.11886 0.95538 0.81604 0.0
C517 C 0.12089 0.92058 0.83006 0.0
C518 C 0.05834 0.935 0.68884 0.0
C519 C 0.09113 0.94516 0.75276 0.0
C520 C 0.04499 0.94661 0.64974 0.0
C521 C 0.04971 0.98 0.63264 0.0
C522 C 0.07632 0.95702 0.71122 0.0
C523 C 0.06801 0.00121 0.65583 0.0
C524 C 0.10416 0.96777 0.77736 0.0
C525 C 0.10702 0.89894 0.80472 0.0
N526 N 0.08062 0.98939 0.69402 0.0
N527 N 0.09277 0.91157 0.76736 0.0
loop_
_geom_bond_atom_site_label_1
_geom_bond_atom_site_label_2
_geom_bond_distance
_geom_bond_site_symmetry_2
_ccdc_geom_bond_type
C0 C1 1.384 . S
C0 H13 0.947 . S
C0 C35 1.382 . S
C1 C0 1.384 . S
C1 C2 1.378 . S
C2 C1 1.378 . S
C2 C3 1.378 . S
C2 H14 0.952 . S
C3 C2 1.378 . S
C3 H15 0.950 . S
C3 C34 1.383 . S
H4 C23 0.947 . S
H5 C24 0.946 . S
H6 C26 0.953 . S
H7 C27 0.945 . S
H8 C29 0.952 . S
H9 C30 0.949 . S
H10 C32 0.950 . S
H11 C33 0.948 . S
H12 C35 0.951 . S
H13 C0 0.947 . S
H14 C2 0.952 . S
H15 C3 0.950 . S
N16 C19 1.382 . S
N16 C21 1.363 . S
N17 C19 1.371 1_556 S
N17 C20 1.372 . S
N18 C20 1.361 1_554 S
N18 C21 1.377 . S
C19 N16 1.382 . S
C19 N17 1.371 1_554 S
C19 C22 1.480 . S
C20 N17 1.372 . S
C20 N18 1.361 1_556 S
C20 C28 1.457 . S
C21 N16 1.363 . S
C21 N18 1.377 . S
C21 C34 1.479 . S
C22 C19 1.480 . S
C22 C23 1.383 . S
C22 C27 1.385 1_554 S
C23 H4 0.947 . S
C23 C22 1.383 . S
C23 C24 1.388 . S
C24 H5 0.946 . S
C24 C23 1.388 . S
C24 C25 1.384 . S
C25 C24 1.384 . S
C25 C26 1.377 1_554 S
C26 H6 0.953 . S
C26 C25 1.377 1_556 S
C26 C27 1.369 . S
C27 H7 0.945 . S
C27 C22 1.385 1_556 S
C27 C26 1.369 . S
C28 C20 1.457 . S
C28 C29 1.372 . S
C28 C33 1.364 . S
C29 H8 0.952 . S
C29 C28 1.372 . S
C29 C30 1.389 . S
C30 H9 0.949 . S
C30 C29 1.389 . S
C30 C31 1.387 . S
C31 C30 1.387 . S
C31 C32 1.372 . S
C32 H10 0.950 . S
C32 C31 1.372 . S
C32 C33 1.379 . S
C33 H11 0.948 . S
C33 C28 1.364 . S
C33 C32 1.379 . S
C34 C3 1.383 . S
C34 C21 1.479 . S
C34 C35 1.398 . S
C35 C0 1.382 . S
C35 H12 0.951 . S
C35 C34 1.398 . S
C36 C37 1.384 . S
C36 H49 0.947 . S
C36 C71 1.382 . S
C37 C36 1.384 . S
C37 C38 1.378 . S
C38 C37 1.378 . S
C38 C39 1.378 . S
C38 H50 0.952 . S
C39 C38 1.378 . S
C39 H51 0.950 . S
C39 C70 1.383 . S
H40 C59 0.947 . S
H41 C60 0.946 . S
H42 C62 0.953 . S
H43 C63 0.945 . S
H44 C65 0.952 . S
H45 C66 0.949 . S
H46 C68 0.950 . S
H47 C69 0.948 . S
H48 C71 0.951 . S
H49 C36 0.947 . S
H50 C38 0.952 . S
H51 C39 0.950 . S
N52 C55 1.382 . S
N52 C57 1.363 . S
N53 C55 1.371 . S
N53 C56 1.372 . S
N54 C56 1.361 . S
N54 C57 1.377 . S
C55 N52 1.382 . S
C55 N53 1.371 . S
C55 C58 1.480 . S
C56 N53 1.372 . S
C56 N54 1.361 . S
C56 C64 1.457 . S
C57 N52 1.363 . S
C57 N54 1.377 . S
C57 C70 1.479 . S
C58 C55 1.480 . S
C58 C59 1.383 . S
C58 C63 1.385 . S
C59 H40 0.947 . S
C59 C58 1.383 . S
C59 C60 1.388 . S
C60 H41 0.946 . S
C60 C59 1.388 . S
C60 C61 1.384 . S
C61 C60 1.384 . S
C61 C62 1.377 . S
C62 H42 0.953 . S
C62 C61 1.377 . S
C62 C63 1.369 . S
C63 H43 0.945 . S
C63 C58 1.385 . S
C63 C62 1.369 . S
C64 C56 1.457 . S
C64 C65 1.372 . S
C64 C69 1.364 . S
C65 H44 0.952 . S
C65 C64 1.372 . S
C65 C66 1.389 . S
C66 H45 0.949 . S
C66 C65 1.389 . S
C66 C67 1.387 . S
C67 C66 1.387 . S
C67 C68 1.372 . S
C68 H46 0.950 . S
C68 C67 1.372 . S
C68 C69 1.379 . S
C69 H47 0.948 . S
C69 C64 1.364 . S
C69 C68 1.379 . S
C70 C39 1.383 . S
C70 C57 1.479 . S
C70 C71 1.398 . S
C71 C36 1.382 . S
C71 H48 0.951 . S
C71 C70 1.398 . S
C72 C73 1.384 . S
C72 H85 0.947 . S
C72 C107 1.382 . S
C73 C72 1.384 . S
C73 C74 1.378 . S
C74 C73 1.378 . S
C74 C75 1.378 . S
C74 H86 0.952 . S
C75 C74 1.378 . S
C75 H87 0.950 . S
C75 C106 1.383 . S
H76 C95 0.947 . S
H77 C96 0.946 . S
H78 C98 0.953 . S
H79 C99 0.945 . S
H80 C101 0.952 . S
H81 C102 0.949 . S
H82 C104 0.950 . S
H83 C105 0.948 . S
H84 C107 0.951 1_554 S
H85 C72 0.947 . S
H86 C74 0.952 . S
H87 C75 0.950 . S
N88 C91 1.382 . S
N88 C93 1.363 . S
N89 C91 1.371 . S
N89 C92 1.372 . S
N90 C92 1.361 . S
N90 C93 1.377 . S
C91 N88 1.382 . S
C91 N89 1.371 . S
C91 C94 1.480 . S
C92 N89 1.372 . S
C92 N90 1.361 . S
C92 C100 1.457 . S
C93 N88 1.363 . S
C93 N90 1.377 . S
C93 C106 1.479 1_554 S
C94 C91 1.480 . S
C94 C95 1.383 1_554 S
C94 C99 1.385 . S
C95 H76 0.947 . S
C95 C94 1.383 1_556 S
C95 C96 1.388 . S
C96 H77 0.946 . S
C96 C95 1.388 . S
C96 C97 1.384 1_556 S
C97 C96 1.384 1_554 S
C97 C98 1.377 . S
C98 H78 0.953 . S
C98 C97 1.377 . S
C98 C99 1.369 . S
C99 H79 0.945 . S
C99 C94 1.385 . S
C99 C98 1.369 . S
C100 C92 1.457 . S
C100 C101 1.372 . S
C100 C105 1.364 . S
C101 H80 0.952 . S
C101 C100 1.372 . S
C101 C102 1.389 . S
C102 H81 0.949 . S
C102 C101 1.389 . S
C102 C103 1.387 . S
C103 C102 1.387 . S
C103 C104 1.372 . S
C104 H82 0.950 . S
C104 C103 1.372 . S
C104 C105 1.379 . S
C105 H83 0.948 . S
C105 C100 1.364 . S
C105 C104 1.379 . S
C106 C75 1.383 . S
C106 C93 1.479 1_556 S
C106 C107 1.398 . S
C107 C72 1.382 . S
C107 H84 0.951 1_556 S
C107 C106 1.398 . S
C108 C109 1.384 . S
C108 H121 0.947 . S
C108 C143 1.382 . S
C109 C108 1.384 . S
C109 C110 1.378 . S
C110 C109 1.378 . S
C110 C111 1.378 . S
C110 H122 0.952 . S
C111 C110 1.378 . S
C111 H123 0.950 . S
C111 C142 1.383 . S
H112 C131 0.947 . S
H113 C132 0.946 . S
H114 C134 0.953 . S
H115 C135 0.945 . S
H116 C137 0.952 . S
H117 C138 0.949 . S
H118 C140 0.950 . S
H119 C141 0.948 . S
H120 C143 0.951 . S
H121 C108 0.947 . S
H122 C110 0.952 . S
H123 C111 0.950 . S
N124 C127 1.382 . S
N124 C129 1.363 . S
N125 C127 1.371 . S
N125 C128 1.372 . S
N126 C128 1.361 . S
N126 C129 1.377 . S
C127 N124 1.382 . S
C127 N125 1.371 . S
C127 C130 1.480 . S
C128 N125 1.372 . S
C128 N126 1.361 . S
C128 C136 1.457 . S
C129 N124 1.363 . S
C129 N126 1.377 . S
C129 C142 1.479 . S
C130 C127 1.480 . S
C130 C131 1.383 . S
C130 C135 1.385 . S
C131 H112 0.947 . S
C131 C130 1.383 . S
C131 C132 1.388 . S
C132 H113 0.946 . S
C132 C131 1.388 . S
C132 C133 1.384 . S
C133 C132 1.384 . S
C133 C134 1.377 . S
C134 H114 0.953 . S
C134 C133 1.377 . S
C134 C135 1.369 . S
C135 H115 0.945 . S
C135 C130 1.385 . S
C135 C134 1.369 . S
C136 C128 1.457 . S
C136 C137 1.372 . S
C136 C141 1.364 . S
C137 H116 0.952 . S
C137 C136 1.372 . S
C137 C138 1.389 . S
C138 H117 0.949 . S
C138 C137 1.389 . S
C138 C139 1.387 . S
C139 C138 1.387 . S
C139 C140 1.372 . S
C140 H118 0.950 . S
C140 C139 1.372 . S
C140 C141 1.379 . S
C141 H119 0.948 . S
C141 C136 1.364 . S
C141 C140 1.379 . S
C142 C111 1.383 . S
C142 C129 1.479 . S
C142 C143 1.398 . S
C143 C108 1.382 . S
C143 H120 0.951 . S
C143 C142 1.398 . S
Tb144 N173 2.617 . S
Tb144 N179 2.572 . S
Tb144 O188 2.465 . S
Tb144 O189 2.387 . S
Tb144 O191 2.428 . S
Tb144 O192 2.308 1_565 S
Tb144 O196 2.349 1_455 S
Tb144 O199 2.393 1_455 S
Tb144 C208 2.802 . S
C145 N146 1.379 . S
C145 C148 1.416 . S
C145 C152 1.424 . S
N146 C145 1.379 . S
N146 C149 1.334 1_655 S
N146 Tb155 2.617 . S
C147 C149 1.390 1_655 S
C147 C150 1.339 . S
C147 H167 0.930 1_655 S
C148 C145 1.416 . S
C148 C150 1.416 . S
C148 C154 1.448 . S
C149 N146 1.334 1_455 S
C149 C147 1.390 1_455 S
C149 H160 0.930 . S
C150 C147 1.339 . S
C150 C148 1.416 . S
C150 H171 0.930 . S
C151 C152 1.413 . S
C151 C153 1.427 . S
C151 C157 1.416 . S
C152 C145 1.424 . S
C152 C151 1.413 . S
C152 N156 1.361 . S
C153 C151 1.427 . S
C153 C154 1.328 . S
C153 H168 0.929 . S
C154 C148 1.448 . S
C154 C153 1.328 . S
C154 H169 0.930 . S
Tb155 N146 2.617 . S
Tb155 N156 2.572 . S
Tb155 O190 2.349 1_655 S
Tb155 O193 2.393 1_655 S
Tb155 O194 2.465 . S
Tb155 O195 2.387 . S
Tb155 O197 2.428 . S
Tb155 O198 2.308 1_545 S
Tb155 C219 2.802 . S
N156 C152 1.361 . S
N156 Tb155 2.572 . S
N156 C158 1.340 . S
C157 C151 1.416 . S
C157 C159 1.332 . S
C157 H165 0.931 . S
C158 N156 1.340 . S
C158 C159 1.407 . S
C158 H164 0.930 . S
C159 C157 1.332 . S
C159 C158 1.407 . S
C159 H161 0.929 . S
H160 C149 0.930 . S
H161 C159 0.929 . S
H162 C177 0.930 1_655 S
H163 C184 0.929 . S
H164 C158 0.930 . S
H165 C157 0.931 . S
H166 C180 0.930 . S
H167 C147 0.930 1_455 S
H168 C153 0.929 . S
H169 C154 0.930 . S
H170 C175 0.930 1_655 S
H171 C150 0.930 . S
H172 C183 0.931 . S
N173 Tb144 2.617 . S
N173 C174 1.379 . S
N173 C177 1.334 . S
C174 N173 1.379 . S
C174 C176 1.416 . S
C174 C182 1.424 . S
C175 H170 0.930 1_455 S
C175 C177 1.390 . S
C175 C178 1.339 . S
C176 C174 1.416 . S
C176 C178 1.416 . S
C176 C209 1.448 . S
C177 H162 0.930 1_455 S
C177 N173 1.334 . S
C177 C175 1.390 . S
C178 C175 1.339 . S
C178 C176 1.416 . S
C178 H185 0.930 . S
N179 Tb144 2.572 . S
N179 C180 1.340 . S
N179 C182 1.361 . S
C180 H166 0.930 . S
C180 N179 1.340 . S
C180 C184 1.407 . S
C181 C182 1.413 . S
C181 C183 1.416 . S
C181 C210 1.427 . S
C182 C174 1.424 . S
C182 N179 1.361 . S
C182 C181 1.413 . S
C183 H172 0.931 . S
C183 C181 1.416 . S
C183 C184 1.332 . S
C184 H163 0.929 . S
C184 C180 1.407 . S
C184 C183 1.332 . S
H185 C178 0.930 . S
H186 C209 0.930 . S
H187 C210 0.929 . S
O188 Tb144 2.465 . S
O188 C208 1.264 . S
O189 Tb144 2.387 . S
O189 C200 1.264 . S
O190 Tb155 2.349 1_455 S
O190 C200 1.243 1_545 S
O191 Tb144 2.428 . S
O191 C208 1.256 . S
O192 Tb144 2.308 1_545 S
O192 C207 1.266 . S
O193 Tb155 2.393 1_455 S
O193 C207 1.248 . S
O194 Tb155 2.465 . S
O194 C219 1.264 . S
O195 Tb155 2.387 . S
O195 C211 1.264 . S
O196 Tb144 2.349 1_655 S
O196 C211 1.243 1_565 S
O197 Tb155 2.428 . S
O197 C219 1.256 . S
O198 Tb155 2.308 1_565 S
O198 C218 1.266 . S
O199 Tb144 2.393 1_655 S
O199 C218 1.248 . S
C200 O189 1.264 . S
C200 O190 1.243 1_565 S
C201 C204 1.399 . S
C201 C206 1.383 . S
C201 C208 1.496 . S
C202 C203 1.399 . S
C202 C206 1.389 . S
C203 C202 1.399 . S
C203 C205 1.380 . S
C203 H220 0.929 . S
C204 C201 1.399 . S
C204 C205 1.392 . S
C204 H221 0.929 . S
C205 C203 1.380 . S
C205 C204 1.392 . S
C205 H222 0.929 . S
C206 C201 1.383 . S
C206 C202 1.389 . S
C206 H223 0.931 . S
C207 O192 1.266 . S
C207 O193 1.248 . S
C208 Tb144 2.802 . S
C208 O188 1.264 . S
C208 O191 1.256 . S
C208 C201 1.496 . S
C209 C176 1.448 . S
C209 H186 0.930 . S
C209 C210 1.328 . S
C210 C181 1.427 . S
C210 H187 0.929 . S
C210 C209 1.328 . S
C211 O195 1.264 . S
C211 O196 1.243 1_545 S
C212 C215 1.399 . S
C212 C216 1.383 . S
C212 C219 1.496 . S
C213 C214 1.399 . S
C213 C216 1.389 . S
C214 C213 1.399 . S
C214 C217 1.380 . S
C214 H224 0.929 . S
C215 C212 1.399 . S
C215 C217 1.392 . S
C215 H225 0.929 . S
C216 C212 1.383 . S
C216 C213 1.389 . S
C216 H226 0.931 . S
C217 C214 1.380 . S
C217 C215 1.392 . S
C217 H227 0.929 . S
C218 O198 1.266 . S
C218 O199 1.248 . S
C219 Tb155 2.802 . S
C219 O194 1.264 . S
C219 O197 1.256 . S
C219 C212 1.496 . S
H220 C203 0.929 . S
H221 C204 0.929 . S
H222 C205 0.929 . S
H223 C206 0.931 . S
H224 C214 0.929 . S
H225 C215 0.929 . S
H226 C216 0.931 . S
H227 C217 0.929 . S
Tb228 N257 2.617 . S
Tb228 N263 2.572 1_556 S
Tb228 O272 2.465 . S
Tb228 O273 2.387 1_556 S
Tb228 O275 2.428 . S
Tb228 O276 2.308 1_556 S
Tb228 O280 2.349 . S
Tb228 O283 2.401 . S
Tb228 C292 2.802 . S
C229 N230 1.379 . S
C229 C232 1.416 . S
C229 C236 1.424 . S
N230 C229 1.379 . S
N230 C233 1.334 . S
N230 Tb239 2.617 . S
C231 C233 1.390 . S
C231 C234 1.339 . S
C231 H251 0.930 . S
C232 C229 1.416 . S
C232 C234 1.416 . S
C232 C238 1.448 . S
C233 N230 1.334 . S
C233 C231 1.390 . S
C233 H244 0.930 . S
C234 C231 1.339 . S
C234 C232 1.416 . S
C234 H255 0.930 . S
C235 C236 1.413 . S
C235 C237 1.427 . S
C235 C241 1.416 . S
C236 C229 1.424 . S
C236 C235 1.413 . S
C236 N240 1.361 . S
C237 C235 1.427 . S
C237 C238 1.328 . S
C237 H252 0.929 . S
C238 C232 1.448 . S
C238 C237 1.328 . S
C238 H253 0.930 . S
Tb239 N230 2.617 . S
Tb239 N240 2.572 . S
Tb239 O274 2.349 . S
Tb239 O277 2.393 . S
Tb239 O278 2.465 . S
Tb239 O279 2.387 1_554 S
Tb239 O281 2.428 . S
Tb239 O282 2.308 . S
Tb239 C303 2.802 . S
N240 C236 1.361 . S
N240 Tb239 2.572 . S
N240 C242 1.340 . S
C241 C235 1.416 . S
C241 C243 1.332 . S
C241 H249 0.931 . S
C242 N240 1.340 . S
C242 C243 1.407 . S
C242 H248 0.930 . S
C243 C241 1.332 . S
C243 C242 1.407 . S
C243 H245 0.929 . S
H244 C233 0.930 . S
H245 C243 0.929 . S
H246 C261 0.930 . S
H247 C268 0.929 . S
H248 C242 0.930 . S
H249 C241 0.931 . S
H250 C264 0.930 . S
H251 C231 0.930 . S
H252 C237 0.929 . S
H253 C238 0.930 . S
H254 C259 0.930 . S
H255 C234 0.930 . S
H256 C267 0.931 . S
N257 Tb228 2.617 . S
N257 C258 1.379 1_556 S
N257 C261 1.334 . S
C258 N257 1.379 1_554 S
C258 C260 1.416 . S
C258 C266 1.424 . S
C259 H254 0.930 . S
C259 C261 1.390 . S
C259 C262 1.339 1_556 S
C260 C258 1.416 . S
C260 C262 1.416 . S
C260 C293 1.448 . S
C261 H246 0.930 . S
C261 N257 1.334 . S
C261 C259 1.390 . S
C262 C259 1.339 1_554 S
C262 C260 1.416 . S
C262 H269 0.930 . S
N263 Tb228 2.572 1_554 S
N263 C264 1.340 . S
N263 C266 1.361 . S
C264 H250 0.930 . S
C264 N263 1.340 . S
C264 C268 1.407 . S
C265 C266 1.413 . S
C265 C267 1.416 . S
C265 C294 1.427 . S
C266 C258 1.424 . S
C266 N263 1.361 . S
C266 C265 1.413 . S
C267 H256 0.931 . S
C267 C265 1.416 . S
C267 C268 1.332 . S
C268 H247 0.929 . S
C268 C264 1.407 . S
C268 C267 1.332 . S
H269 C262 0.930 . S
H270 C293 0.930 . S
H271 C294 0.929 . S
O272 Tb228 2.465 . S
O272 C292 1.264 . S
O273 Tb228 2.387 1_554 S
O273 C284 1.264 . S
O274 Tb239 2.349 . S
O274 C284 1.243 . S
O275 Tb228 2.428 . S
O275 C292 1.256 . S
O276 Tb228 2.308 1_554 S
O276 C291 1.266 . S
O277 Tb239 2.393 . S
O277 C291 1.248 . S
O278 Tb239 2.465 . S
O278 C303 1.264 . S
O279 Tb239 2.387 1_556 S
O279 C295 1.264 . S
O280 Tb228 2.349 . S
O280 C295 1.243 . S
O281 Tb239 2.428 . S
O281 C303 1.256 . S
O282 Tb239 2.308 . S
O282 C302 1.266 . S
O283 Tb228 2.401 . S
O283 C302 1.229 1_556 S
C284 O273 1.264 . S
C284 O274 1.243 . S
C285 C288 1.399 . S
C285 C290 1.383 . S
C285 C292 1.496 . S
C286 C287 1.399 . S
C286 C290 1.389 . S
C287 C286 1.399 . S
C287 C289 1.380 . S
C287 H304 0.929 . S
C288 C285 1.399 . S
C288 C289 1.392 . S
C288 H305 0.929 . S
C289 C287 1.380 . S
C289 C288 1.392 . S
C289 H306 0.929 . S
C290 C285 1.383 . S
C290 C286 1.389 . S
C290 H307 0.931 . S
C291 O276 1.266 . S
C291 O277 1.248 . S
C292 Tb228 2.802 . S
C292 O272 1.264 . S
C292 O275 1.256 . S
C292 C285 1.496 . S
C293 C260 1.448 . S
C293 H270 0.930 . S
C293 C294 1.328 . S
C294 C265 1.427 . S
C294 H271 0.929 . S
C294 C293 1.328 . S
C295 O279 1.264 . S
C295 O280 1.243 . S
C296 C299 1.399 . S
C296 C300 1.383 . S
C296 C303 1.496 . S
C297 C298 1.399 . S
C297 C300 1.389 . S
C298 C297 1.399 . S
C298 C301 1.380 . S
C298 H308 0.929 . S
C299 C296 1.399 . S
C299 C301 1.392 . S
C299 H309 0.929 . S
C300 C296 1.383 . S
C300 C297 1.389 . S
C300 H310 0.931 . S
C301 C298 1.380 . S
C301 C299 1.392 . S
C301 H311 0.929 . S
C302 O282 1.266 . S
C302 O283 1.229 1_554 S
C303 Tb239 2.802 . S
C303 O278 1.264 . S
C303 O281 1.256 . S
C303 C296 1.496 . S
H304 C287 0.929 . S
H305 C288 0.929 . S
H306 C289 0.929 . S
H307 C290 0.931 . S
H308 C298 0.929 . S
H309 C299 0.929 . S
H310 C300 0.931 . S
H311 C301 0.929 . S
H312 C318 0.930 . S
H313 C322 0.930 . S
H314 C327 0.929 . S
H315 C325 0.929 . S
H316 C320 0.929 . S
H317 C326 0.929 . S
C318 H312 0.930 . S
C318 C319 1.367 . S
C318 C326 1.378 . S
C319 C318 1.367 . S
C319 C327 1.433 . S
C320 H316 0.929 . S
C320 C322 1.378 . S
C320 C324 1.350 . S
C321 C324 1.463 . S
C321 C326 1.350 . S
C321 N329 1.427 . S
C322 H313 0.930 . S
C322 C320 1.378 . S
C322 C323 1.367 . S
C323 C322 1.367 . S
C323 C325 1.433 . S
C324 C320 1.350 . S
C324 C321 1.463 . S
C324 N328 1.427 . S
C325 H315 0.929 . S
C325 C323 1.433 . S
C325 N328 1.384 . S
C326 H317 0.929 . S
C326 C318 1.378 . S
C326 C321 1.350 . S
C327 H314 0.929 . S
C327 C319 1.433 . S
C327 N329 1.384 . S
N328 C324 1.427 . S
N328 C325 1.384 . S
N329 C321 1.427 . S
N329 C327 1.384 . S
H330 C336 0.930 1_556 S
H331 C340 0.930 . S
H332 C345 0.929 . S
H333 C343 0.929 1_556 S
H334 C338 0.929 . S
H335 C344 0.929 1_556 S
C336 H330 0.930 1_554 S
C336 C337 1.367 . S
C336 C344 1.378 . S
C337 C336 1.367 . S
C337 C345 1.433 . S
C338 H334 0.929 . S
C338 C340 1.378 . S
C338 C342 1.350 . S
C339 C342 1.463 . S
C339 C344 1.350 . S
C339 N347 1.427 . S
C340 H331 0.930 . S
C340 C338 1.378 . S
C340 C341 1.367 . S
C341 C340 1.367 . S
C341 C343 1.434 . S
C342 C338 1.350 . S
C342 C339 1.463 . S
C342 N346 1.427 . S
C343 H333 0.929 1_554 S
C343 C341 1.434 . S
C343 N346 1.384 . S
C344 H335 0.929 1_554 S
C344 C336 1.378 . S
C344 C339 1.350 . S
C345 H332 0.929 . S
C345 C337 1.433 . S
C345 N347 1.384 . S
N346 C342 1.427 . S
N346 C343 1.384 . S
N347 C339 1.427 . S
N347 C345 1.384 . S
H348 C354 0.930 . S
H349 C358 0.930 . S
H350 C363 0.929 . S
H351 C361 0.929 . S
H352 C356 0.929 . S
H353 C362 0.929 . S
C354 H348 0.930 . S
C354 C355 1.367 . S
C354 C362 1.378 . S
C355 C354 1.367 . S
C355 C363 1.433 . S
C356 H352 0.929 . S
C356 C358 1.378 . S
C356 C360 1.350 . S
C357 C360 1.463 . S
C357 C362 1.350 . S
C357 N365 1.427 . S
C358 H349 0.930 . S
C358 C356 1.378 . S
C358 C359 1.367 . S
C359 C358 1.367 . S
C359 C361 1.433 . S
C360 C356 1.350 . S
C360 C357 1.463 . S
C360 N364 1.427 . S
C361 H351 0.929 . S
C361 C359 1.433 . S
C361 N364 1.384 . S
C362 H353 0.929 . S
C362 C354 1.378 . S
C362 C357 1.350 . S
C363 H350 0.929 . S
C363 C355 1.433 . S
C363 N365 1.384 . S
N364 C360 1.427 . S
N364 C361 1.384 . S
N365 C357 1.427 . S
N365 C363 1.384 . S
H366 C372 0.930 1_556 S
H367 C376 0.930 . S
H368 C381 0.929 . S
H369 C379 0.929 1_556 S
H370 C374 0.929 . S
H371 C380 0.929 1_556 S
C372 H366 0.930 1_554 S
C372 C373 1.367 . S
C372 C380 1.378 . S
C373 C372 1.367 . S
C373 C381 1.433 . S
C374 H370 0.929 . S
C374 C376 1.378 . S
C374 C378 1.350 . S
C375 C378 1.463 . S
C375 C380 1.350 . S
C375 N383 1.427 . S
C376 H367 0.930 . S
C376 C374 1.378 . S
C376 C377 1.367 . S
C377 C376 1.367 . S
C377 C379 1.433 . S
C378 C374 1.350 . S
C378 C375 1.463 . S
C378 N382 1.427 . S
C379 H369 0.929 1_554 S
C379 C377 1.433 . S
C379 N382 1.384 . S
C380 H371 0.929 1_554 S
C380 C372 1.378 . S
C380 C375 1.350 . S
C381 H368 0.929 . S
C381 C373 1.433 . S
C381 N383 1.384 . S
N382 C378 1.427 . S
N382 C379 1.384 . S
N383 C375 1.427 . S
N383 C381 1.384 . S
H384 C390 0.930 . S
H385 C394 0.930 . S
H386 C399 0.929 . S
H387 C397 0.929 . S
H388 C392 0.929 . S
H389 C398 0.929 . S
C390 H384 0.930 . S
C390 C391 1.367 . S
C390 C398 1.378 . S
C391 C390 1.367 . S
C391 C399 1.433 . S
C392 H388 0.929 . S
C392 C394 1.378 . S
C392 C396 1.350 . S
C393 C396 1.463 . S
C393 C398 1.350 . S
C393 N401 1.427 . S
C394 H385 0.930 . S
C394 C392 1.378 . S
C394 C395 1.367 . S
C395 C394 1.367 . S
C395 C397 1.433 . S
C396 C392 1.350 . S
C396 C393 1.463 . S
C396 N400 1.427 . S
C397 H387 0.929 . S
C397 C395 1.433 . S
C397 N400 1.384 . S
C398 H389 0.929 . S
C398 C390 1.378 . S
C398 C393 1.350 . S
C399 H386 0.929 . S
C399 C391 1.433 . S
C399 N401 1.384 . S
N400 C396 1.427 . S
N400 C397 1.384 . S
N401 C393 1.427 . S
N401 C399 1.384 . S
H402 C408 0.930 . S
H403 C412 0.930 . S
H404 C417 0.929 . S
H405 C415 0.929 . S
H406 C410 0.929 . S
H407 C416 0.929 . S
C408 H402 0.930 . S
C408 C409 1.367 . S
C408 C416 1.378 . S
C409 C408 1.367 . S
C409 C417 1.433 . S
C410 H406 0.929 . S
C410 C412 1.378 . S
C410 C414 1.350 . S
C411 C414 1.463 . S
C411 C416 1.350 . S
C411 N419 1.427 . S
C412 H403 0.930 . S
C412 C410 1.378 . S
C412 C413 1.367 . S
C413 C412 1.367 . S
C413 C415 1.433 . S
C414 C410 1.350 . S
C414 C411 1.463 . S
C414 N418 1.427 . S
C415 H405 0.929 . S
C415 C413 1.433 . S
C415 N418 1.384 . S
C416 H407 0.929 . S
C416 C408 1.378 . S
C416 C411 1.350 . S
C417 H404 0.929 . S
C417 C409 1.433 . S
C417 N419 1.384 . S
N418 C414 1.427 . S
N418 C415 1.384 . S
N419 C411 1.427 . S
N419 C417 1.384 . S
H420 C426 0.930 . S
H421 C430 0.930 1_565 S
H422 C435 0.929 . S
H423 C433 0.929 . S
H424 C428 0.929 1_565 S
H425 C434 0.929 . S
C426 H420 0.930 . S
C426 C427 1.367 . S
C426 C434 1.378 . S
C427 C426 1.367 . S
C427 C435 1.433 . S
C428 H424 0.929 1_545 S
C428 C430 1.378 . S
C428 C432 1.350 . S
C429 C432 1.463 . S
C429 C434 1.350 . S
C429 N437 1.427 . S
C430 H421 0.930 1_545 S
C430 C428 1.378 . S
C430 C431 1.367 . S
C431 C430 1.367 . S
C431 C433 1.433 . S
C432 C428 1.350 . S
C432 C429 1.463 . S
C432 N436 1.427 . S
C433 H423 0.929 . S
C433 C431 1.433 . S
C433 N436 1.384 . S
C434 H425 0.929 . S
C434 C426 1.378 . S
C434 C429 1.350 . S
C435 H422 0.929 . S
C435 C427 1.433 . S
C435 N437 1.384 . S
N436 C432 1.427 . S
N436 C433 1.384 . S
N437 C429 1.427 . S
N437 C435 1.384 . S
H438 C444 0.930 . S
H439 C448 0.930 . S
H440 C453 0.929 . S
H441 C451 0.929 . S
H442 C446 0.929 . S
H443 C452 0.929 . S
C444 H438 0.930 . S
C444 C445 1.367 . S
C444 C452 1.378 . S
C445 C444 1.367 . S
C445 C453 1.433 . S
C446 H442 0.929 . S
C446 C448 1.378 . S
C446 C450 1.350 . S
C447 C450 1.463 . S
C447 C452 1.350 . S
C447 N455 1.427 . S
C448 H439 0.930 . S
C448 C446 1.378 . S
C448 C449 1.367 . S
C449 C448 1.367 . S
C449 C451 1.433 . S
C450 C446 1.350 . S
C450 C447 1.463 . S
C450 N454 1.427 . S
C451 H441 0.929 . S
C451 C449 1.433 . S
C451 N454 1.384 . S
C452 H443 0.929 . S
C452 C444 1.378 . S
C452 C447 1.350 . S
C453 H440 0.929 . S
C453 C445 1.433 . S
C453 N455 1.384 . S
N454 C450 1.427 . S
N454 C451 1.384 . S
N455 C447 1.427 . S
N455 C453 1.384 . S
H456 C462 0.930 . S
H457 C466 0.930 . S
H458 C471 0.929 . S
H459 C469 0.929 . S
H460 C464 0.929 . S
H461 C470 0.929 . S
C462 H456 0.930 . S
C462 C463 1.367 . S
C462 C470 1.378 . S
C463 C462 1.367 . S
C463 C471 1.433 . S
C464 H460 0.929 . S
C464 C466 1.378 . S
C464 C468 1.350 . S
C465 C468 1.463 . S
C465 C470 1.350 . S
C465 N473 1.427 . S
C466 H457 0.930 . S
C466 C464 1.378 . S
C466 C467 1.367 . S
C467 C466 1.367 . S
C467 C469 1.433 . S
C468 C464 1.350 . S
C468 C465 1.463 . S
C468 N472 1.427 . S
C469 H459 0.929 . S
C469 C467 1.433 . S
C469 N472 1.384 . S
C470 H461 0.929 . S
C470 C462 1.378 . S
C470 C465 1.350 . S
C471 H458 0.929 . S
C471 C463 1.433 . S
C471 N473 1.384 . S
N472 C468 1.427 . S
N472 C469 1.384 . S
N473 C465 1.427 . S
N473 C471 1.384 . S
H474 C480 0.930 . S
H475 C484 0.930 . S
H476 C489 0.929 . S
H477 C487 0.929 . S
H478 C482 0.929 . S
H479 C488 0.929 . S
C480 H474 0.930 . S
C480 C481 1.367 . S
C480 C488 1.378 . S
C481 C480 1.367 . S
C481 C489 1.433 . S
C482 H478 0.929 . S
C482 C484 1.378 . S
C482 C486 1.350 . S
C483 C486 1.463 . S
C483 C488 1.350 . S
C483 N491 1.427 . S
C484 H475 0.930 . S
C484 C482 1.378 . S
C484 C485 1.367 . S
C485 C484 1.367 . S
C485 C487 1.433 . S
C486 C482 1.350 . S
C486 C483 1.463 . S
C486 N490 1.427 . S
C487 H477 0.929 . S
C487 C485 1.433 . S
C487 N490 1.384 . S
C488 H479 0.929 . S
C488 C480 1.378 . S
C488 C483 1.350 . S
C489 H476 0.929 . S
C489 C481 1.433 . S
C489 N491 1.384 . S
N490 C486 1.427 . S
N490 C487 1.384 . S
N491 C483 1.427 . S
N491 C489 1.384 . S
H492 C498 0.930 . S
H493 C502 0.930 . S
H494 C507 0.929 . S
H495 C505 0.929 . S
H496 C500 0.929 . S
H497 C506 0.929 . S
C498 H492 0.930 . S
C498 C499 1.367 . S
C498 C506 1.378 . S
C499 C498 1.367 . S
C499 C507 1.433 . S
C500 H496 0.929 . S
C500 C502 1.378 . S
C500 C504 1.350 . S
C501 C504 1.463 . S
C501 C506 1.350 . S
C501 N509 1.427 . S
C502 H493 0.930 . S
C502 C500 1.378 . S
C502 C503 1.367 . S
C503 C502 1.367 . S
C503 C505 1.433 . S
C504 C500 1.350 . S
C504 C501 1.463 . S
C504 N508 1.427 . S
C505 H495 0.929 . S
C505 C503 1.433 . S
C505 N508 1.384 . S
C506 H497 0.929 . S
C506 C498 1.378 . S
C506 C501 1.350 . S
C507 H494 0.929 . S
C507 C499 1.433 . S
C507 N509 1.384 . S
N508 C504 1.427 . S
N508 C505 1.384 . S
N509 C501 1.427 . S
N509 C507 1.384 . S
H510 C516 0.930 . S
H511 C520 0.930 . S
H512 C525 0.929 . S
H513 C523 0.929 1_545 S
H514 C518 0.929 . S
H515 C524 0.900 1_545 S
C516 H510 0.930 . S
C516 C517 1.367 . S
C516 C524 1.378 . S
C517 C516 1.367 . S
C517 C525 1.433 . S
C518 H514 0.929 . S
C518 C520 1.378 . S
C518 C522 1.350 . S
C519 C522 1.463 . S
C519 C524 1.350 . S
C519 N527 1.427 . S
C520 H511 0.930 . S
C520 C518 1.378 . S
C520 C521 1.367 . S
C521 C520 1.367 . S
C521 C523 1.433 . S
C522 C518 1.350 . S
C522 C519 1.463 . S
C522 N526 1.427 . S
C523 H513 0.929 1_565 S
C523 C521 1.433 . S
C523 N526 1.384 . S
C524 H515 0.900 1_565 S
C524 C516 1.378 . S
C524 C519 1.350 . S
C525 H512 0.929 . S
C525 C517 1.433 . S
C525 N527 1.384 . S
N526 C522 1.427 . S
N526 C523 1.384 . S
N527 C519 1.427 . S
N527 C525 1.384 . S
C323 C207 1.635 . S
C319 C133 1.641 . S
C337 C25 1.622 . S
C341 C302 1.623 . S
C355 C61 1.625 . S
C359 C218 1.632 . S
C373 C97 1.595 . S
C377 C291 1.618 . S
C395 C202 1.424 . S
C391 C1 1.558 . S
C413 C295 1.611 . S
C409 C67 1.578 . S
C427 C103 1.574 . S
C431 C211 1.618 . S
C445 C109 1.538 . S
C449 C286 1.392 . S
C467 C297 1.402 . S
C463 C37 1.525 . S
C485 C213 1.424 . S
C481 C73 1.541 . S
C503 C284 1.611 . S
C499 C139 1.604 . S
C517 C31 1.615 . S
C521 C200 1.620 . S
