# Generated by pormake.
# Topology pyr, (3,6)-cn, num edge types: 1
# Building blocks:
#     Node 0, Type 0, BuildingBlock: MIDCAF_clean_linker_0, # of connection points: 3
#     Node 1, Type 0, BuildingBlock: MIDCAF_clean_linker_0, # of connection points: 3
#     Node 2, Type 0, BuildingBlock: MIDCAF_clean_linker_0, # of connection points: 3
#     Node 3, Type 0, BuildingBlock: MIDCAF_clean_linker_0, # of connection points: 3
#     Node 4, Type 0, BuildingBlock: MIDCAF_clean_linker_0, # of connection points: 3
#     Node 5, Type 0, BuildingBlock: MIDCAF_clean_linker_0, # of connection points: 3
#     Node 6, Type 0, BuildingBlock: MIDCAF_clean_linker_0, # of connection points: 3
#     Node 7, Type 0, BuildingBlock: MIDCAF_clean_linker_0, # of connection points: 3
#     Node 8, Type 1, BuildingBlock: BETGAK_clean_sbu_0, # of connection points: 6
#     Node 9, Type 1, BuildingBlock: BETGAK_clean_sbu_0, # of connection points: 6
#     Node 10, Type 1, BuildingBlock: BETGAK_clean_sbu_0, # of connection points: 6
#     Node 11, Type 1, BuildingBlock: BETGAK_clean_sbu_0, # of connection points: 6
#     Edge 12, Type (0, 1), BuildingBlock: ZUJKAS_clean_linker_0, # of connection points: 2
#     Edge 13, Type (0, 1), BuildingBlock: ZUJKAS_clean_linker_0, # of connection points: 2
#     Edge 14, Type (0, 1), BuildingBlock: ZUJKAS_clean_linker_0, # of connection points: 2
#     Edge 15, Type (0, 1), BuildingBlock: ZUJKAS_clean_linker_0, # of connection points: 2
#     Edge 16, Type (0, 1), BuildingBlock: ZUJKAS_clean_linker_0, # of connection points: 2
#     Edge 17, Type (0, 1), BuildingBlock: ZUJKAS_clean_linker_0, # of connection points: 2
#     Edge 18, Type (0, 1), BuildingBlock: ZUJKAS_clean_linker_0, # of connection points: 2
#     Edge 19, Type (0, 1), BuildingBlock: ZUJKAS_clean_linker_0, # of connection points: 2
#     Edge 20, Type (0, 1), BuildingBlock: ZUJKAS_clean_linker_0, # of connection points: 2
#     Edge 21, Type (0, 1), BuildingBlock: ZUJKAS_clean_linker_0, # of connection points: 2
#     Edge 22, Type (0, 1), BuildingBlock: ZUJKAS_clean_linker_0, # of connection points: 2
#     Edge 23, Type (0, 1), BuildingBlock: ZUJKAS_clean_linker_0, # of connection points: 2
#     Edge 24, Type (0, 1), BuildingBlock: ZUJKAS_clean_linker_0, # of connection points: 2
#     Edge 25, Type (0, 1), BuildingBlock: ZUJKAS_clean_linker_0, # of connection points: 2
#     Edge 26, Type (0, 1), BuildingBlock: ZUJKAS_clean_linker_0, # of connection points: 2
#     Edge 27, Type (0, 1), BuildingBlock: ZUJKAS_clean_linker_0, # of connection points: 2
#     Edge 28, Type (0, 1), BuildingBlock: ZUJKAS_clean_linker_0, # of connection points: 2
#     Edge 29, Type (0, 1), BuildingBlock: ZUJKAS_clean_linker_0, # of connection points: 2
#     Edge 30, Type (0, 1), BuildingBlock: ZUJKAS_clean_linker_0, # of connection points: 2
#     Edge 31, Type (0, 1), BuildingBlock: ZUJKAS_clean_linker_0, # of connection points: 2
#     Edge 32, Type (0, 1), BuildingBlock: ZUJKAS_clean_linker_0, # of connection points: 2
#     Edge 33, Type (0, 1), BuildingBlock: ZUJKAS_clean_linker_0, # of connection points: 2
#     Edge 34, Type (0, 1), BuildingBlock: ZUJKAS_clean_linker_0, # of connection points: 2
#     Edge 35, Type (0, 1), BuildingBlock: ZUJKAS_clean_linker_0, # of connection points: 2
# Relax obj value: 0.073
# Max RMSD: 0.116
# Mean RMSD: 0.054
data_MOF--net-pyr--node1-BETGAK_clean_sbu_0--node2-MIDCAF_clean_linker_0--edge1-ZUJKAS_clean_linker_0
_symmetry_space_group_name_H-M    P1
_symmetry_Int_Tables_number       1
_symmetry_cell_setting            triclinic
loop_
_symmetry_equiv_pos_as_xyz
'x, y, z'
_cell_length_a     58.709004
_cell_length_b     59.378801
_cell_length_c     52.951003
_cell_angle_alpha  90.051843
_cell_angle_beta   88.048972
_cell_angle_gamma 99.420124
loop_
_atom_site_label
_atom_site_type_symbol
_atom_site_fract_x
_atom_site_fract_y
_atom_site_fract_z
_atom_type_partial_charge
C0 C 0.25419 0.28203 0.32482 0.0
C1 C 0.25384 0.26013 0.33499 0.0
C2 C 0.26944 0.24656 0.32499 0.0
C3 C 0.28395 0.2541 0.30417 0.0
H4 H 0.3349 0.23726 0.2564 0.0
H5 H 0.35775 0.21072 0.23743 0.0
H6 H 0.35805 0.24501 0.16548 0.0
H7 H 0.33546 0.27201 0.18457 0.0
H8 H 0.2939 0.30619 0.17962 0.0
H9 H 0.27375 0.33255 0.1571 0.0
H10 H 0.26581 0.3692 0.22655 0.0
H11 H 0.2851 0.34247 0.24907 0.0
H12 H 0.26775 0.30617 0.29603 0.0
H13 H 0.2427 0.29307 0.33243 0.0
H14 H 0.26952 0.22953 0.33228 0.0
H15 H 0.29492 0.24272 0.2962 0.0
N16 N 0.30935 0.26813 0.25743 0.0
N17 N 0.31269 0.29006 0.22018 0.0
N18 N 0.29003 0.29943 0.25476 0.0
C19 C 0.31837 0.27231 0.23358 0.0
C20 C 0.29868 0.30383 0.23086 0.0
C21 C 0.29517 0.2816 0.26817 0.0
C22 C 0.33317 0.25678 0.22202 0.0
C23 C 0.33984 0.23927 0.23654 0.0
C24 C 0.35287 0.22392 0.22562 0.0
C25 C 0.35958 0.2256 0.19989 0.0
C26 C 0.35333 0.24335 0.18542 0.0
C27 C 0.34028 0.25878 0.19636 0.0
C28 C 0.29075 0.32207 0.21617 0.0
C29 C 0.28823 0.32016 0.18992 0.0
C30 C 0.27671 0.3353 0.17702 0.0
C31 C 0.26772 0.35273 0.19012 0.0
C32 C 0.27188 0.35558 0.21601 0.0
C33 C 0.28309 0.34034 0.2289 0.0
C34 C 0.28309 0.27534 0.29284 0.0
C35 C 0.26864 0.28956 0.30398 0.0
C36 C 0.23568 0.90701 0.62071 0.0
C37 C 0.22295 0.90108 0.59902 0.0
C38 C 0.23087 0.88619 0.58139 0.0
C39 C 0.25132 0.87771 0.58515 0.0
H40 H 0.29394 0.83686 0.55299 0.0
H41 H 0.3061 0.8086 0.52431 0.0
H42 H 0.3637 0.80355 0.57149 0.0
H43 H 0.35199 0.83199 0.59972 0.0
H44 H 0.35161 0.85247 0.65624 0.0
H45 H 0.37102 0.86203 0.69573 0.0
H46 H 0.33477 0.91941 0.70524 0.0
H47 H 0.3148 0.90938 0.6664 0.0
H48 H 0.2655 0.90358 0.64138 0.0
H49 H 0.22983 0.91823 0.63479 0.0
H50 H 0.22157 0.88154 0.56434 0.0
H51 H 0.25705 0.86647 0.57103 0.0
N52 N 0.29394 0.86093 0.59351 0.0
N53 N 0.32603 0.85902 0.61813 0.0
N54 N 0.29862 0.88154 0.63123 0.0
C55 C 0.31388 0.85276 0.59714 0.0
C56 C 0.31854 0.8735 0.6352 0.0
C57 C 0.28618 0.87531 0.61049 0.0
C58 C 0.3219 0.83663 0.57882 0.0
C59 C 0.30935 0.8299 0.55712 0.0
C60 C 0.31627 0.81366 0.54067 0.0
C61 C 0.3359 0.80386 0.54553 0.0
C62 C 0.34875 0.81106 0.56686 0.0
C63 C 0.34188 0.82726 0.58325 0.0
C64 C 0.3315 0.88003 0.65828 0.0
C65 C 0.34787 0.86718 0.66672 0.0
C66 C 0.35908 0.87273 0.68932 0.0
C67 C 0.35433 0.89138 0.70382 0.0
C68 C 0.33846 0.9046 0.69491 0.0
C69 C 0.32708 0.89892 0.67252 0.0
C70 C 0.26427 0.88393 0.60666 0.0
C71 C 0.2561 0.89854 0.62449 0.0
C72 C 0.64603 0.28968 0.92117 0.0
C73 C 0.62398 0.27938 0.91366 0.0
C74 C 0.61282 0.29091 0.89577 0.0
C75 C 0.62333 0.3121 0.88581 0.0
H76 H 0.62219 0.35682 0.82438 0.0
H77 H 0.60522 0.37461 0.78969 0.0
H78 H 0.65052 0.43812 0.80298 0.0
H79 H 0.6675 0.42044 0.83772 0.0
H80 H 0.71037 0.42012 0.8738 0.0
H81 H 0.74536 0.43956 0.89295 0.0
H82 H 0.74615 0.38098 0.94102 0.0
H83 H 0.71097 0.36175 0.92236 0.0
H84 H 0.67343 0.31818 0.91768 0.0
H85 H 0.65541 0.28123 0.93452 0.0
H86 H 0.59572 0.28377 0.88975 0.0
H87 H 0.61407 0.32047 0.87226 0.0
N88 N 0.64683 0.35534 0.86421 0.0
N89 N 0.67636 0.38717 0.86576 0.0
N90 N 0.67596 0.35642 0.89365 0.0
C91 C 0.65674 0.37628 0.85519 0.0
C92 C 0.68613 0.37735 0.88498 0.0
C93 C 0.65631 0.34528 0.88347 0.0
C94 C 0.64628 0.38713 0.83399 0.0
C95 C 0.62856 0.37459 0.81999 0.0
C96 C 0.61889 0.38476 0.79995 0.0
C97 C 0.62648 0.40781 0.7935 0.0
C98 C 0.64409 0.42039 0.80756 0.0
C99 C 0.65393 0.41018 0.82743 0.0
C100 C 0.70767 0.3893 0.89648 0.0
C101 C 0.71796 0.41134 0.88847 0.0
C102 C 0.73816 0.42249 0.89938 0.0
C103 C 0.74868 0.41191 0.91862 0.0
C104 C 0.73841 0.38986 0.92657 0.0
C105 C 0.71822 0.37874 0.91569 0.0
C106 C 0.64526 0.32247 0.89356 0.0
C107 C 0.65647 0.31091 0.91134 0.0
C108 C 0.7633 0.67336 0.42269 0.0
C109 C 0.75494 0.65025 0.41794 0.0
C110 C 0.76796 0.63809 0.40175 0.0
C111 C 0.78881 0.64888 0.39037 0.0
H112 H 0.83289 0.64532 0.32788 0.0
H113 H 0.85061 0.62776 0.2924 0.0
H114 H 0.90885 0.6826 0.29198 0.0
H115 H 0.89133 0.70011 0.32778 0.0
H116 H 0.88462 0.74668 0.36046 0.0
H117 H 0.90149 0.78365 0.37747 0.0
H118 H 0.85775 0.77002 0.44485 0.0
H119 H 0.84037 0.73369 0.42752 0.0
H120 H 0.79011 0.70187 0.4158 0.0
H121 H 0.75379 0.68313 0.43529 0.0
H122 H 0.76189 0.62029 0.39763 0.0
H123 H 0.79838 0.63903 0.37794 0.0
N124 N 0.82959 0.67406 0.36363 0.0
N125 N 0.85991 0.70528 0.36203 0.0
N126 N 0.82984 0.70394 0.39259 0.0
C127 C 0.8498 0.6848 0.35271 0.0
C128 C 0.85004 0.71493 0.38206 0.0
C129 C 0.81946 0.68356 0.38354 0.0
C130 C 0.86063 0.6742 0.33084 0.0
C131 C 0.84948 0.65371 0.3203 0.0
C132 C 0.85958 0.64367 0.29978 0.0
C133 C 0.88115 0.65377 0.28926 0.0
C134 C 0.89234 0.67423 0.29978 0.0
C135 C 0.88219 0.68434 0.32026 0.0
C136 C 0.86101 0.7372 0.39251 0.0
C137 C 0.87862 0.75159 0.37891 0.0
C138 C 0.88838 0.77279 0.38875 0.0
C139 C 0.88095 0.78002 0.41254 0.0
C140 C 0.86359 0.76539 0.42624 0.0
C141 C 0.85369 0.74438 0.41632 0.0
C142 C 0.79725 0.67199 0.39526 0.0
C143 C 0.78423 0.68406 0.41161 0.0
C144 C 0.64926 0.8385 0.87427 0.0
C145 C 0.64564 0.83911 0.9006 0.0
C146 C 0.65571 0.8243 0.91582 0.0
C147 C 0.66948 0.8095 0.90496 0.0
H148 H 0.70704 0.75742 0.92159 0.0
H149 H 0.72593 0.73151 0.94635 0.0
H150 H 0.75859 0.71025 0.87803 0.0
H151 H 0.73952 0.73551 0.85339 0.0
H152 H 0.74758 0.76824 0.80785 0.0
H153 H 0.77047 0.78258 0.77059 0.0
H154 H 0.72959 0.83634 0.76339 0.0
H155 H 0.70692 0.82236 0.80125 0.0
H156 H 0.66595 0.82421 0.8431 0.0
H157 H 0.64189 0.84983 0.86206 0.0
H158 H 0.65302 0.82426 0.93617 0.0
H159 H 0.67728 0.79858 0.91727 0.0
N160 N 0.69711 0.77842 0.8808 0.0
N161 N 0.72111 0.77097 0.84659 0.0
N162 N 0.69853 0.79974 0.84327 0.0
C163 C 0.71266 0.76609 0.87048 0.0
C164 C 0.71421 0.78772 0.83283 0.0
C165 C 0.68979 0.79515 0.86717 0.0
C166 C 0.7219 0.74874 0.8855 0.0
C167 C 0.71796 0.74694 0.91183 0.0
C168 C 0.72889 0.73219 0.92604 0.0
C169 C 0.74384 0.71885 0.9142 0.0
C170 C 0.74697 0.72002 0.88778 0.0
C171 C 0.73615 0.73473 0.87364 0.0
C172 C 0.7256 0.79435 0.80789 0.0
C173 C 0.74318 0.78295 0.79821 0.0
C174 C 0.75625 0.79108 0.77663 0.0
C175 C 0.75202 0.81075 0.7641 0.0
C176 C 0.73355 0.82137 0.77287 0.0
C177 C 0.72048 0.81327 0.79453 0.0
C178 C 0.67369 0.80939 0.87866 0.0
C179 C 0.66319 0.82389 0.86343 0.0
C180 C 0.68123 0.17316 0.3916 0.0
C181 C 0.66324 0.18456 0.38456 0.0
C182 C 0.65791 0.20263 0.3996 0.0
C183 C 0.67052 0.20932 0.42106 0.0
H184 H 0.68077 0.25877 0.47668 0.0
H185 H 0.67083 0.28893 0.50394 0.0
H186 H 0.71303 0.26856 0.56222 0.0
H187 H 0.72319 0.23819 0.53487 0.0
H188 H 0.76163 0.20857 0.51672 0.0
H189 H 0.79461 0.1902 0.52564 0.0
H190 H 0.78554 0.1526 0.45583 0.0
H191 H 0.75227 0.17054 0.44704 0.0
H192 H 0.70758 0.17062 0.41769 0.0
H193 H 0.68549 0.15888 0.3807 0.0
H194 H 0.64427 0.21187 0.39455 0.0
H195 H 0.6661 0.22344 0.43211 0.0
N196 N 0.69658 0.22162 0.46604 0.0
N197 N 0.72763 0.21798 0.49162 0.0
N198 N 0.72105 0.19537 0.4555 0.0
C199 C 0.70908 0.22805 0.48674 0.0
C200 C 0.73377 0.20168 0.47602 0.0
C201 C 0.70241 0.2052 0.45039 0.0
C202 C 0.70282 0.2461 0.50356 0.0
C203 C 0.68795 0.26063 0.49529 0.0
C204 C 0.68239 0.27803 0.51082 0.0
C205 C 0.69139 0.28116 0.53504 0.0
C206 C 0.70594 0.26647 0.54359 0.0
C207 C 0.71177 0.24918 0.52789 0.0
C208 C 0.75417 0.19095 0.48123 0.0
C209 C 0.76665 0.19643 0.50322 0.0
C210 C 0.78568 0.18602 0.50827 0.0
C211 C 0.79264 0.16994 0.49145 0.0
C212 C 0.78038 0.16469 0.46932 0.0
C213 C 0.76134 0.17506 0.46426 0.0
C214 C 0.68872 0.19806 0.4279 0.0
C215 C 0.69384 0.17984 0.41295 0.0
C216 C 0.26872 0.64761 0.20291 0.0
C217 C 0.25952 0.65713 0.18196 0.0
C218 C 0.27116 0.67809 0.17222 0.0
C219 C 0.29128 0.68927 0.18315 0.0
H220 H 0.33516 0.75018 0.18149 0.0
H221 H 0.35325 0.78681 0.16398 0.0
H222 H 0.41242 0.78546 0.20994 0.0
H223 H 0.39396 0.74904 0.22811 0.0
H224 H 0.38609 0.71315 0.27608 0.0
H225 H 0.40208 0.69635 0.312 0.0
H226 H 0.35458 0.63355 0.30176 0.0
H227 H 0.33811 0.65058 0.26638 0.0
H228 H 0.29533 0.65097 0.23003 0.0
H229 H 0.26013 0.63164 0.21114 0.0
H230 H 0.26488 0.68581 0.15587 0.0
H231 H 0.29965 0.70535 0.17499 0.0
N232 N 0.33232 0.71258 0.20659 0.0
N233 N 0.36091 0.71433 0.23675 0.0
N234 N 0.3312 0.68261 0.23566 0.0
C235 C 0.35183 0.72392 0.21686 0.0
C236 C 0.35071 0.69368 0.24631 0.0
C237 C 0.32186 0.69194 0.21579 0.0
C238 C 0.36304 0.74648 0.20628 0.0
C239 C 0.35203 0.75763 0.18795 0.0
C240 C 0.36252 0.77868 0.17772 0.0
C241 C 0.38443 0.78922 0.18535 0.0
C242 C 0.39542 0.77811 0.20377 0.0
C243 C 0.38486 0.75708 0.21414 0.0
C244 C 0.36072 0.68331 0.26819 0.0
C245 C 0.37901 0.69575 0.28145 0.0
C246 C 0.38831 0.68603 0.30206 0.0
C247 C 0.37971 0.6635 0.30997 0.0
C248 C 0.36146 0.65105 0.29663 0.0
C249 C 0.35207 0.66082 0.27613 0.0
C250 C 0.30045 0.67983 0.20417 0.0
C251 C 0.2889 0.6588 0.21386 0.0
C252 C 0.14339 0.29828 0.67341 0.0
C253 C 0.1261 0.28366 0.6872 0.0
C254 C 0.11856 0.29106 0.71089 0.0
C255 C 0.12815 0.31241 0.72051 0.0
H256 H 0.11946 0.36126 0.77679 0.0
H257 H 0.10193 0.37945 0.81221 0.0
H258 H 0.15063 0.44138 0.7987 0.0
H259 H 0.16803 0.42346 0.76331 0.0
H260 H 0.20655 0.42604 0.71942 0.0
H261 H 0.24308 0.44504 0.7001 0.0
H262 H 0.2527 0.38202 0.66377 0.0
H263 H 0.21629 0.36299 0.68289 0.0
H264 H 0.16637 0.33011 0.6718 0.0
H265 H 0.14931 0.29353 0.65487 0.0
H266 H 0.10549 0.28022 0.72224 0.0
H267 H 0.12206 0.31746 0.73885 0.0
N268 N 0.14635 0.35911 0.73674 0.0
N269 N 0.17606 0.39085 0.73424 0.0
N270 N 0.17636 0.36049 0.70605 0.0
C271 C 0.1561 0.37995 0.74549 0.0
C272 C 0.18636 0.3812 0.7146 0.0
C273 C 0.15635 0.34933 0.71688 0.0
C274 C 0.14519 0.39084 0.76708 0.0
C275 C 0.12642 0.37877 0.78131 0.0
C276 C 0.11644 0.38915 0.80173 0.0
C277 C 0.12484 0.41189 0.80827 0.0
C278 C 0.14354 0.42394 0.794 0.0
C279 C 0.15362 0.41356 0.77375 0.0
C280 C 0.20843 0.39295 0.70275 0.0
C281 C 0.21644 0.41621 0.70732 0.0
C282 C 0.2373 0.42715 0.69616 0.0
C283 C 0.25078 0.415 0.68049 0.0
C284 C 0.24281 0.39177 0.67596 0.0
C285 C 0.22184 0.38092 0.68683 0.0
C286 C 0.14567 0.3268 0.70679 0.0
C287 C 0.15311 0.31944 0.6831 0.0
La288 La 0.0072 0.04296 0.52425 0.0
La289 La 0.00058 1.02044 0.57555 0.0
C290 C 0.00911 0.07089 0.4882 0.0
C291 C 0.02639 0.09068 0.48073 0.0
C292 C 0.04738 0.09513 0.49312 0.0
C293 C 0.06464 0.11286 0.48487 0.0
C294 C 0.06121 0.12646 0.46404 0.0
C295 C 0.03981 0.12235 0.4522 0.0
C296 C 0.02254 0.10456 0.46049 0.0
C297 C 0.03882 1.01853 0.53582 0.0
C298 C 0.0278 0.06978 0.57358 0.0
C299 C 0.99817 0.99242 0.61156 0.0
C300 C 0.98061 0.9727 0.61848 0.0
C301 C 0.95966 0.96894 0.60597 0.0
C302 C 0.94223 0.95109 0.61345 0.0
C303 C 0.94543 0.93663 0.6336 0.0
C304 C 0.96675 0.94011 0.64562 0.0
C305 C 0.98421 0.95805 0.63811 0.0
C306 C 0.96886 0.04472 0.56359 0.0
C307 C 0.98015 0.99354 0.52622 0.0
O308 O 0.01631 0.05122 0.4864 0.0
O309 O 0.99771 0.07285 0.50955 0.0
O310 O 0.03252 1.0213 0.51303 0.0
O311 O 0.02932 1.03096 0.55059 0.0
O312 O 0.02087 0.07075 0.55007 0.0
O313 O 0.0249 0.05028 0.58629 0.0
O314 O 0.99114 1.01218 0.61333 0.0
O315 O 0.00991 0.99054 0.59041 0.0
O316 O 0.97512 0.04221 0.58646 0.0
O317 O 0.97853 1.03223 0.54913 0.0
O318 O 0.98713 0.99259 0.54971 0.0
O319 O 0.98292 1.01306 0.51355 0.0
H320 H 0.05067 0.08446 0.50873 0.0
H321 H 0.08098 0.11531 0.4942 0.0
H322 H 0.03652 0.13271 0.43633 0.0
H323 H 0.00637 0.10137 0.4508 0.0
H324 H 0.95656 0.98018 0.5908 0.0
H325 H 0.92595 0.94915 0.60401 0.0
H326 H 0.96988 0.92911 0.66098 0.0
H327 H 0.00035 0.96069 0.64787 0.0
La328 La 0.52569 0.04181 0.0608 0.0
La329 La 0.48166 1.02595 1.03543 0.0
C330 C 0.56023 0.06569 0.08001 0.0
C331 C 0.56433 0.07794 0.10386 0.0
C332 C 0.54728 0.07555 0.12332 0.0
C333 C 0.5519 0.08615 0.14658 0.0
C334 C 0.57367 0.09925 0.15069 0.0
C335 C 0.59041 0.10213 0.13079 0.0
C336 C 0.58576 0.09151 0.10756 0.0
C337 C 0.50205 1.00309 0.07886 0.0
C338 C 0.47937 0.05957 0.07957 0.0
C339 C 0.44766 1.00197 1.01552 0.0
C340 C 0.44442 0.99099 0.99076 0.0
C341 C 0.4573 1.00042 0.96937 0.0
C342 C 0.45377 0.99017 0.94579 0.0
C343 C 0.43759 0.97014 0.9433 0.0
C344 C 0.4252 0.96038 0.96487 0.0
C345 C 0.42855 0.9708 0.98844 0.0
C346 C 0.50543 0.06462 1.01732 0.0
C347 C 0.52799 1.00812 1.01665 0.0
O348 O 0.55539 0.04347 0.082 0.0
O349 O 0.5466 0.07382 0.06461 0.0
O350 O 0.52434 1.00807 0.07799 0.0
O351 O 0.49376 1.02024 0.07185 0.0
O352 O 0.50224 0.06317 0.07818 0.0
O353 O 0.46724 0.04257 0.06726 0.0
O354 O 0.45132 1.0243 1.01533 0.0
O355 O 0.46165 0.99363 1.03031 0.0
O356 O 0.48314 0.05968 1.01809 0.0
O357 O 0.51358 0.04741 1.02435 0.0
O358 O 0.50512 1.0048 1.01768 0.0
O359 O 0.54017 1.02481 1.02932 0.0
H360 H 0.53061 0.06507 0.12071 0.0
H361 H 0.53873 0.08343 0.16158 0.0
H362 H 0.60719 0.11242 0.13324 0.0
H363 H 0.59904 0.0936 0.09263 0.0
H364 H 0.46995 1.0158 0.97087 0.0
H365 H 0.46371 0.99787 0.92949 0.0
H366 H 0.41253 0.94501 0.96339 0.0
H367 H 0.41862 0.96321 1.0048 0.0
La368 La 0.50784 0.51689 0.53288 0.0
La369 La 0.49843 0.55254 0.56913 0.0
C370 C 0.52805 0.48868 0.50958 0.0
C371 C 0.54214 0.47242 0.51937 0.0
C372 C 0.53383 0.44891 0.51843 0.0
C373 C 0.54541 0.43343 0.53046 0.0
C374 C 0.56569 0.44113 0.54348 0.0
C375 C 0.57433 0.46464 0.54384 0.0
C376 C 0.56266 0.48013 0.53198 0.0
C377 C 0.46627 0.50979 0.55426 0.0
C378 C 0.52256 0.51516 0.59126 0.0
C379 C 0.47808 0.58124 0.59109 0.0
C380 C 0.46599 0.59802 0.57903 0.0
C381 C 0.47609 0.61053 0.55778 0.0
C382 C 0.46329 0.62354 0.54374 0.0
C383 C 0.44008 0.62415 0.55049 0.0
C384 C 0.43013 0.61202 0.57204 0.0
C385 C 0.44299 0.59906 0.58619 0.0
C386 C 0.53994 0.55963 0.54743 0.0
C387 C 0.48322 0.55413 0.51101 0.0
O388 O 0.50612 0.48453 0.51637 0.0
O389 O 0.53667 0.5104 0.51131 0.0
O390 O 0.47076 0.50459 0.53102 0.0
O391 O 0.48481 0.51743 0.56489 0.0
O392 O 0.52553 0.50906 0.56738 0.0
O393 O 0.50968 0.53077 0.59734 0.0
O394 O 0.50054 0.5842 0.58733 0.0
O395 O 0.46852 0.55994 0.58804 0.0
O396 O 0.53558 0.56505 0.57062 0.0
O397 O 0.52131 0.55199 0.53706 0.0
O398 O 0.48056 0.56026 0.53487 0.0
O399 O 0.49606 0.53854 0.50476 0.0
H400 H 0.51797 0.44256 0.50902 0.0
H401 H 0.53816 0.41546 0.53001 0.0
H402 H 0.59013 0.4711 0.55329 0.0
H403 H 0.5695 0.49816 0.5332 0.0
H404 H 0.49364 0.60962 0.55139 0.0
H405 H 0.47134 0.63254 0.52711 0.0
H406 H 0.41237 0.61252 0.57795 0.0
H407 H 0.43478 0.58929 0.60225 0.0
La408 La 0.00684 0.50974 0.06027 0.0
La409 La 0.00293 0.55597 1.03962 0.0
C410 C 0.02062 0.47285 0.07045 0.0
C411 C 0.04257 0.46612 0.07751 0.0
C412 C 0.04217 0.44683 0.09281 0.0
C413 C 0.06279 0.44018 0.09992 0.0
C414 C 0.08424 0.45274 0.09186 0.0
C415 C 0.08456 0.47209 0.07645 0.0
C416 C 0.0639 0.47874 0.06935 0.0
C417 C 0.98263 0.53398 0.08903 0.0
C418 C 0.04748 0.55243 0.06826 0.0
C419 C 0.9896 0.59294 1.02881 0.0
C420 C 0.968 0.60006 1.02117 0.0
C421 C 0.96909 0.61941 1.00581 0.0
C422 C 0.94884 0.62673 0.99855 0.0
C423 C 0.92709 0.6148 1.00654 0.0
C424 C 0.92605 0.59528 1.02185 0.0
C425 C 0.94635 0.58794 1.02908 0.0
C426 C 0.02705 0.53142 1.01103 0.0
C427 C 0.96211 0.51341 1.03189 0.0
O428 O 0.0109 0.48481 0.08717 0.0
O429 O 0.01994 0.48083 0.04749 0.0
O430 O 0.97807 0.51193 0.08707 0.0
O431 O 0.0009 0.54135 0.0764 0.0
O432 O 0.04116 0.52994 0.06716 0.0
O433 O 0.03383 0.56655 0.06074 0.0
O434 O 0.99946 0.58083 1.01239 0.0
O435 O 0.98971 0.58497 0.05184 0.0
O436 O 0.0319 0.55344 1.01305 0.0
O437 O 0.00869 0.52435 1.02357 0.0
O438 O 0.96858 0.53589 1.03277 0.0
O439 O 0.97567 0.49922 1.03953 0.0
H440 H 0.02587 0.43687 0.09923 0.0
H441 H 0.06193 0.42502 0.1115 0.0
H442 H 0.10078 0.48227 0.07016 0.0
H443 H 0.0646 0.49373 0.05753 0.0
H444 H 0.98564 0.62898 0.99957 0.0
H445 H 0.95024 0.642 0.98704 0.0
H446 H 0.90957 0.5856 1.0281 0.0
H447 H 0.94512 0.57289 1.0409 0.0
H448 H 0.25805 0.23383 0.37675 0.0
H449 H 0.22672 0.214 0.40433 0.0
H450 H 0.17723 0.24445 0.36327 0.0
H451 H 0.20824 0.26421 0.33573 0.0
H452 H 0.16814 0.24274 0.41578 0.0
H453 H 0.18293 0.15904 0.37688 0.0
H454 H 0.20742 0.17589 0.39101 0.0
H455 H 0.1961 0.18586 0.36276 0.0
C456 C 0.24051 0.23643 0.37376 0.0
C457 C 0.23563 0.25049 0.35395 0.0
C458 C 0.22266 0.22511 0.38951 0.0
C459 C 0.19965 0.22751 0.38556 0.0
C460 C 0.19488 0.2424 0.36665 0.0
H461 H 0.0737 0.13547 0.41447 0.0
H462 H 0.10713 0.16156 0.39742 0.0
C463 C 0.21267 0.25376 0.35098 0.0
C464 C 0.18027 0.21337 0.39971 0.0
H465 H 0.15269 0.15846 0.40723 0.0
C466 C 0.16482 0.22429 0.41414 0.0
C467 C 0.17588 0.18935 0.39716 0.0
C468 C 0.1913 0.17677 0.38097 0.0
C469 C 0.14487 0.2118 0.42586 0.0
C470 C 0.1405 0.1878 0.42327 0.0
C471 C 0.15616 0.17688 0.4092 0.0
C472 C 0.11927 0.17361 0.43393 0.0
C473 C 0.12823 0.22443 0.44013 0.0
C474 C 0.11488 0.17195 0.46012 0.0
C475 C 0.09559 0.1572 0.46995 0.0
C476 C 0.08047 0.14374 0.45374 0.0
C477 C 0.08474 0.14583 0.42748 0.0
C478 C 0.10396 0.16059 0.4177 0.0
H479 H 0.13152 0.24299 0.43573 0.0
H480 H 0.1101 0.21743 0.43566 0.0
H481 H 0.13015 0.2223 0.46072 0.0
H482 H 0.12666 0.18161 0.47298 0.0
H483 H 0.09269 0.15611 0.49025 0.0
H484 H 0.39897 0.88912 0.71637 0.0
H485 H 0.41668 0.89787 0.75716 0.0
H486 H 0.35287 0.91589 0.78714 0.0
H487 H 0.33468 0.90593 0.74715 0.0
H488 H 0.42445 0.93713 0.78206 0.0
H489 H 0.36708 0.87408 0.84158 0.0
H490 H 0.36728 0.87302 0.80752 0.0
H491 H 0.35062 0.89147 0.82446 0.0
C492 C 0.38857 0.89452 0.7318 0.0
C493 C 0.36536 0.89676 0.72845 0.0
C494 C 0.39878 0.89966 0.75504 0.0
C495 C 0.38597 0.90711 0.77535 0.0
C496 C 0.36292 0.9096 0.77196 0.0
H497 H 0.42917 0.99193 0.90033 0.0
H498 H 0.41949 0.97508 0.8592 0.0
C499 C 0.35266 0.90427 0.74889 0.0
C500 C 0.39685 0.91337 0.79976 0.0
H501 H 0.38811 0.9062 0.86345 0.0
C502 C 0.41673 0.93011 0.79985 0.0
C503 C 0.38712 0.90385 0.82296 0.0
C504 C 0.36701 0.88442 0.82412 0.0
C505 C 0.42638 0.93847 0.82258 0.0
C506 C 0.41542 0.93035 0.8458 0.0
C507 C 0.39631 0.91272 0.84567 0.0
C508 C 0.42263 0.94067 0.87038 0.0
C509 C 0.44816 0.95595 0.82139 0.0
C510 C 0.42695 0.92685 0.89062 0.0
C511 C 0.43203 0.93642 0.91432 0.0
C512 C 0.43302 0.95997 0.91809 0.0
C513 C 0.42891 0.97379 0.89778 0.0
C514 C 0.42353 0.96419 0.87423 0.0
H515 H 0.4586 0.95407 0.80384 0.0
H516 H 0.44349 0.97332 0.82116 0.0
H517 H 0.459 0.95451 0.8379 0.0
H518 H 0.42619 0.90864 0.88814 0.0
H519 H 0.43521 0.92543 0.92968 0.0
H520 H 0.61584 0.39022 0.74657 0.0
H521 H 0.59914 0.40832 0.71168 0.0
H522 H 0.5962 0.46784 0.75764 0.0
H523 H 0.61328 0.45001 0.79235 0.0
H524 H 0.55867 0.42235 0.70724 0.0
H525 H 0.62766 0.49746 0.69512 0.0
H526 H 0.63091 0.47336 0.71458 0.0
H527 H 0.61548 0.49512 0.7267 0.0
C528 C 0.61163 0.40717 0.74925 0.0
C529 C 0.61609 0.41872 0.77224 0.0
C530 C 0.60213 0.41754 0.72924 0.0
C531 C 0.59681 0.4397 0.73171 0.0
C532 C 0.6008 0.45106 0.75485 0.0
H533 H 0.52747 0.52796 0.64081 0.0
H534 H 0.54544 0.50916 0.6742 0.0
C535 C 0.6105 0.44079 0.77478 0.0
C536 C 0.58652 0.45063 0.71039 0.0
H537 H 0.59273 0.49894 0.67384 0.0
C538 C 0.56626 0.43902 0.69983 0.0
C539 C 0.59639 0.47238 0.70051 0.0
C540 C 0.61894 0.4852 0.70962 0.0
C541 C 0.55535 0.44874 0.68027 0.0
C542 C 0.56496 0.47066 0.67085 0.0
C543 C 0.58528 0.48221 0.6812 0.0
C544 C 0.55407 0.48196 0.6504 0.0
C545 C 0.53333 0.43572 0.67015 0.0
C546 C 0.55314 0.47307 0.6258 0.0
C547 C 0.54305 0.48389 0.60657 0.0
C548 C 0.53352 0.50378 0.61159 0.0
C549 C 0.53452 0.51264 0.63627 0.0
C550 C 0.54484 0.50194 0.65539 0.0
H551 H 0.52572 0.42123 0.68267 0.0
H552 H 0.52035 0.44717 0.66789 0.0
H553 H 0.53706 0.42877 0.65127 0.0
H554 H 0.56031 0.45778 0.62146 0.0
H555 H 0.54255 0.47652 0.58784 0.0
H556 H 0.92657 0.6489 0.28189 0.0
H557 H 0.94404 0.63033 0.24658 0.0
H558 H 0.87764 0.61475 0.2126 0.0
H559 H 0.86013 0.63373 0.2475 0.0
H560 H 0.93273 0.58472 0.23124 0.0
H561 H 0.92014 0.64432 0.15419 0.0
H562 H 0.91781 0.65159 0.1872 0.0
H563 H 0.89436 0.63358 0.17255 0.0
C564 C 0.91573 0.64182 0.26672 0.0
C565 C 0.89194 0.64288 0.26753 0.0
C566 C 0.92573 0.63109 0.24663 0.0
C567 C 0.91222 0.62139 0.22678 0.0
C568 C 0.88849 0.62243 0.22748 0.0
H569 H 0.94441 0.51953 0.11903 0.0
H570 H 0.92728 0.54104 0.15212 0.0
C571 C 0.87846 0.63308 0.2476 0.0
C572 C 0.92277 0.60941 0.20587 0.0
H573 H 0.9326 0.60965 0.14183 0.0
C574 C 0.93277 0.59021 0.2117 0.0
C575 C 0.92302 0.61672 0.18041 0.0
C576 C 0.91346 0.6378 0.17313 0.0
C577 C 0.94261 0.57789 0.19273 0.0
C578 C 0.94222 0.58478 0.16719 0.0
C579 C 0.93265 0.60425 0.16139 0.0
C580 C 0.95192 0.57209 0.14632 0.0
C581 C 0.95361 0.55774 0.20022 0.0
C582 C 0.97105 0.58259 0.13157 0.0
C583 C 0.98085 0.57033 0.11265 0.0
C584 C 0.97154 0.54742 0.10797 0.0
C585 C 0.95202 0.53713 0.12229 0.0
C586 C 0.94228 0.54936 0.14126 0.0
H587 H 0.95737 0.55798 0.22065 0.0
H588 H 0.94163 0.54173 0.19633 0.0
H589 H 0.96994 0.55743 0.1891 0.0
H590 H 0.97872 0.60012 0.13511 0.0
H591 H 0.99599 0.57866 0.10204 0.0
H592 H 0.35263 0.17943 0.20779 0.0
H593 H 0.3742 0.15144 0.18891 0.0
H594 H 0.41733 0.20495 0.14629 0.0
H595 H 0.39595 0.2332 0.16531 0.0
H596 H 0.40039 0.16663 0.11744 0.0
H597 H 0.43994 0.14164 0.20467 0.0
H598 H 0.40912 0.13986 0.20731 0.0
H599 H 0.4271 0.16718 0.20258 0.0
C600 C 0.36691 0.18533 0.19467 0.0
C601 C 0.37267 0.2086 0.18821 0.0
C602 C 0.37922 0.16929 0.1839 0.0
C603 C 0.3976 0.17618 0.16654 0.0
C604 C 0.40326 0.19932 0.15977 0.0
H605 H 0.49854 0.09539 0.10866 0.0
H606 H 0.47874 0.12351 0.13018 0.0
C607 C 0.39095 0.2154 0.17055 0.0
C608 C 0.41041 0.15909 0.15483 0.0
H609 H 0.44321 0.11845 0.16844 0.0
C610 C 0.40984 0.15615 0.12856 0.0
C611 C 0.42292 0.14564 0.16938 0.0
C612 C 0.42505 0.14883 0.19752 0.0
C613 C 0.42105 0.13977 0.11647 0.0
C614 C 0.43286 0.12575 0.13112 0.0
C615 C 0.43388 0.12903 0.15733 0.0
C616 C 0.44457 0.10785 0.11943 0.0
C617 C 0.4204 0.13778 0.08808 0.0
C618 C 0.43182 0.08938 0.10688 0.0
C619 C 0.44306 0.07325 0.09457 0.0
C620 C 0.46726 0.07528 0.09467 0.0
C621 C 0.47989 0.09335 0.1081 0.0
C622 C 0.46862 0.10945 0.12043 0.0
H623 H 0.41557 0.15322 0.07923 0.0
H624 H 0.43742 0.13509 0.07991 0.0
H625 H 0.40736 0.12288 0.08306 0.0
H626 H 0.41319 0.08762 0.10632 0.0
H627 H 0.43279 0.05951 0.08452 0.0
H628 H 0.1817 0.87971 0.5813 0.0
H629 H 0.14816 0.89727 0.57091 0.0
H630 H 0.18329 0.96249 0.59611 0.0
H631 H 0.21702 0.94528 0.60594 0.0
H632 H 0.12055 0.9236 0.60267 0.0
H633 H 0.16649 0.97274 0.52162 0.0
H634 H 0.17676 0.94876 0.5357 0.0
H635 H 0.18142 0.97617 0.55079 0.0
C636 C 0.18227 0.8978 0.58455 0.0
C637 C 0.20203 0.91116 0.59428 0.0
C638 C 0.16308 0.90773 0.57879 0.0
C639 C 0.16347 0.93116 0.5825 0.0
C640 C 0.18285 0.9444 0.59288 0.0
H641 H 0.05697 1.01515 0.58204 0.0
H642 H 0.08583 0.9918 0.59348 0.0
C643 C 0.20199 0.93451 0.59868 0.0
C644 C 0.14395 0.94205 0.57481 0.0
H645 H 0.13012 0.98213 0.5346 0.0
C646 C 0.12252 0.9363 0.5877 0.0
C647 C 0.14661 0.95832 0.55502 0.0
C648 C 0.16899 0.96427 0.53979 0.0
C649 C 0.10375 0.94699 0.58176 0.0
C650 C 0.10672 0.96397 0.56269 0.0
C651 C 0.12798 0.96921 0.54935 0.0
C652 C 0.08819 0.97685 0.55636 0.0
C653 C 0.0809 0.93995 0.59581 0.0
C654 C 0.08029 0.97641 0.53164 0.0
C655 C 0.06402 0.98987 0.52503 0.0
C656 C 0.05551 1.004 0.54305 0.0
C657 C 0.06324 1.00429 0.56786 0.0
C658 C 0.07955 0.99085 0.57445 0.0
H659 H 0.07968 0.9228 0.60462 0.0
H660 H 0.0791 0.95239 0.61109 0.0
H661 H 0.06626 0.93973 0.58302 0.0
H662 H 0.08688 0.96581 0.5174 0.0
H663 H 0.05826 0.98934 0.50579 0.0
H664 H 0.76039 0.41172 0.96847 0.0
H665 H 0.7961 0.43008 0.98728 0.0
H666 H 0.82147 0.45784 0.91455 0.0
H667 H 0.78614 0.4388 0.89535 0.0
H668 H 0.85417 0.43934 0.93888 0.0
H669 H 0.81564 0.49696 1.00396 0.0
H670 H 0.80294 0.46752 1.00794 0.0
H671 H 0.79982 0.48194 0.9787 0.0
C672 C 0.77358 0.42162 0.95638 0.0
C673 C 0.77025 0.42374 0.93032 0.0
C674 C 0.79392 0.43239 0.96728 0.0
C675 C 0.81138 0.44572 0.95247 0.0
C676 C 0.80819 0.44782 0.92645 0.0
H677 H 0.93044 0.53667 1.01106 0.0
H678 H 0.8942 0.52067 0.99144 0.0
C679 C 0.78786 0.43703 0.91551 0.0
C680 C 0.83329 0.45677 0.96392 0.0
H681 H 0.85492 0.49343 1.01041 0.0
C682 C 0.85432 0.45125 0.95444 0.0
C683 C 0.83361 0.47259 0.984 0.0
C684 C 0.81182 0.48031 0.99411 0.0
C685 C 0.87551 0.46065 0.96482 0.0
C686 C 0.87573 0.47571 0.98561 0.0
C687 C 0.85477 0.48168 0.9947 0.0
C688 C 0.89754 0.48543 0.99814 0.0
C689 C 0.89751 0.4546 0.95312 0.0
C690 C 0.91132 0.47102 1.00895 0.0
C691 C 0.93208 0.48011 1.02015 0.0
C692 C 0.9395 0.50387 1.02101 0.0
C693 C 0.92536 0.5183 1.01073 0.0
C694 C 0.90459 0.50917 0.99949 0.0
H695 H 0.89507 0.44844 0.93342 0.0
H696 H 0.91168 0.46949 0.953 0.0
H697 H 0.90291 0.44072 0.96432 0.0
H698 H 0.90601 0.45268 1.00874 0.0
H699 H 0.94236 0.46844 1.02801 0.0
H700 H 0.71396 0.66636 0.42138 0.0
H701 H 0.67797 0.64874 0.44297 0.0
H702 H 0.70985 0.5913 0.46392 0.0
H703 H 0.74581 0.60866 0.44179 0.0
H704 H 0.6665 0.57739 0.44915 0.0
H705 H 0.66628 0.64741 0.51817 0.0
H706 H 0.66702 0.65741 0.48617 0.0
H707 H 0.69092 0.64525 0.49756 0.0
C708 C 0.71331 0.65 0.43065 0.0
C709 C 0.73279 0.63899 0.4301 0.0
C710 C 0.69276 0.63998 0.44308 0.0
C711 C 0.69134 0.61894 0.45564 0.0
C712 C 0.71056 0.6076 0.45451 0.0
H713 H 0.58172 0.57302 0.56815 0.0
H714 H 0.61902 0.58519 0.54604 0.0
C715 C 0.73108 0.61751 0.44182 0.0
C716 C 0.66983 0.60886 0.46998 0.0
H717 H 0.6315 0.62052 0.51618 0.0
C718 C 0.65892 0.58675 0.46392 0.0
C719 C 0.66014 0.62087 0.48962 0.0
C720 C 0.67182 0.64394 0.49847 0.0
C721 C 0.63831 0.57658 0.47652 0.0
C722 C 0.62799 0.58909 0.49525 0.0
C723 C 0.63921 0.61099 0.50166 0.0
C724 C 0.6056 0.57997 0.50851 0.0
C725 C 0.6281 0.55239 0.46993 0.0
C726 C 0.58559 0.57284 0.49486 0.0
C727 C 0.56432 0.5656 0.5075 0.0
C728 C 0.56259 0.56579 0.53403 0.0
C729 C 0.58258 0.57276 0.54769 0.0
C730 C 0.60388 0.57973 0.53506 0.0
H731 H 0.64145 0.54297 0.46175 0.0
H732 H 0.61979 0.54288 0.48677 0.0
H733 H 0.61482 0.55268 0.45557 0.0
H734 H 0.58626 0.57343 0.47441 0.0
H735 H 0.54912 0.56047 0.49651 0.0
H736 H 0.27183 0.37065 0.1418 0.0
H737 H 0.24504 0.39195 0.12121 0.0
H738 H 0.20214 0.38708 0.18934 0.0
H739 H 0.2283 0.3656 0.20978 0.0
H740 H 0.19724 0.37691 0.11397 0.0
H741 H 0.21109 0.45538 0.17177 0.0
H742 H 0.23121 0.43538 0.17057 0.0
H743 H 0.20548 0.4298 0.19055 0.0
C744 C 0.25672 0.37417 0.15239 0.0
C745 C 0.2524 0.36663 0.17757 0.0
C746 C 0.24151 0.38643 0.14064 0.0
C747 C 0.22189 0.39148 0.15394 0.0
C748 C 0.21753 0.38392 0.17897 0.0
H749 H 0.09434 0.43793 0.13837 0.0
H750 H 0.1296 0.42459 0.15071 0.0
C751 C 0.23259 0.37167 0.19065 0.0
C752 C 0.20502 0.40346 0.14153 0.0
H753 H 0.17587 0.44839 0.1491 0.0
C754 C 0.19283 0.39278 0.12126 0.0
C755 C 0.19935 0.42416 0.15114 0.0
C756 C 0.21263 0.43698 0.17205 0.0
C757 C 0.17416 0.40153 0.11133 0.0
C758 C 0.16783 0.42167 0.12175 0.0
C759 C 0.18069 0.43289 0.14126 0.0
C760 C 0.14688 0.43041 0.114 0.0
C761 C 0.1606 0.38854 0.09072 0.0
C762 C 0.14505 0.4384 0.08934 0.0
C763 C 0.12482 0.44592 0.08217 0.0
C764 C 0.10611 0.4456 0.09957 0.0
C765 C 0.10826 0.43803 0.1244 0.0
C766 C 0.12846 0.43056 0.13154 0.0
H767 H 0.16513 0.37123 0.088 0.0
H768 H 0.14176 0.38681 0.09508 0.0
H769 H 0.16435 0.39807 0.07264 0.0
H770 H 0.15922 0.43872 0.07562 0.0
H771 H 0.12367 0.45155 0.06287 0.0
H772 H 0.59685 0.2439 0.8899 0.0
H773 H 0.57765 0.20765 0.90818 0.0
H774 H 0.60714 0.22683 0.98008 0.0
H775 H 0.62545 0.26354 0.96235 0.0
H776 H 0.59471 0.17262 0.92936 0.0
H777 H 0.53978 0.20915 1.00043 0.0
H778 H 0.55549 0.22604 0.97522 0.0
H779 H 0.57002 0.21972 1.00309 0.0
C780 C 0.59901 0.24062 0.90971 0.0
C781 C 0.61264 0.25689 0.92462 0.0
C782 C 0.58816 0.21973 0.9201 0.0
C783 C 0.5906 0.21456 0.94565 0.0
C784 C 0.60454 0.23054 0.96046 0.0
H785 H 0.55255 0.07669 1.01145 0.0
H786 H 0.57411 0.1128 0.99459 0.0
C787 C 0.6153 0.25147 0.95015 0.0
C788 C 0.57867 0.19243 0.95669 0.0
H789 H 0.54035 0.1694 1.00351 0.0
C790 C 0.58281 0.17192 0.94556 0.0
C791 C 0.56289 0.19144 0.97767 0.0
C792 C 0.55657 0.21275 0.98967 0.0
C793 C 0.57175 0.15054 0.95485 0.0
C794 C 0.55644 0.14955 0.97624 0.0
C795 C 0.55225 0.17008 0.9873 0.0
C796 C 0.54368 0.12754 0.98675 0.0
C797 C 0.57608 0.12926 0.94118 0.0
C798 C 0.51943 0.12394 0.98869 0.0
C799 C 0.50716 0.10351 0.99864 0.0
C800 C 0.51882 0.08615 1.00691 0.0
C801 C 0.54309 0.08973 1.00516 0.0
C802 C 0.55542 0.1103 0.99531 0.0
H803 H 0.58314 0.13312 0.92164 0.0
H804 H 0.58889 0.12134 0.95152 0.0
H805 H 0.55996 0.11661 0.94022 0.0
H806 H 0.50993 0.13694 0.98233 0.0
H807 H 0.48847 0.1013 0.99981 0.0
H808 H 0.92599 0.80225 0.40837 0.0
H809 H 0.94235 0.83903 0.4263 0.0
H810 H 0.87574 0.8455 0.45973 0.0
H811 H 0.85891 0.80951 0.4406 0.0
H812 H 0.89588 0.88497 0.44006 0.0
H813 H 0.95901 0.85073 0.49845 0.0
H814 H 0.96262 0.84493 0.46544 0.0
H815 H 0.9365 0.83245 0.48239 0.0
C816 C 0.9147 0.81158 0.41926 0.0
C817 C 0.8911 0.80266 0.42316 0.0
C818 C 0.92421 0.83251 0.42985 0.0
C819 C 0.91044 0.84484 0.44492 0.0
C820 C 0.88681 0.83623 0.44841 0.0
H821 H 0.96293 0.95271 0.54913 0.0
H822 H 0.94511 0.91735 0.52922 0.0
C823 C 0.87725 0.81546 0.43763 0.0
C824 C 0.92047 0.86681 0.45688 0.0
H825 H 0.96262 0.89111 0.49602 0.0
C826 C 0.91044 0.88629 0.45236 0.0
C827 C 0.93922 0.86851 0.47329 0.0
C828 C 0.94982 0.848 0.48042 0.0
C829 C 0.91873 0.90739 0.46356 0.0
C830 C 0.93806 0.90929 0.47918 0.0
C831 C 0.94795 0.88977 0.48387 0.0
C832 C 0.9481 0.93122 0.49122 0.0
C833 C 0.90625 0.92724 0.45905 0.0
C834 C 0.9558 0.95089 0.47657 0.0
C835 C 0.96571 0.97127 0.48798 0.0
C836 C 0.96856 0.9723 0.51424 0.0
C837 C 0.96099 0.95256 0.52886 0.0
C838 C 0.95083 0.93227 0.51748 0.0
H839 H 0.88817 0.92136 0.45348 0.0
H840 H 0.90592 0.93802 0.47616 0.0
H841 H 0.91527 0.93795 0.44342 0.0
H842 H 0.95451 0.9504 0.45622 0.0
H843 H 0.97163 0.98607 0.47613 0.0
H844 H 0.30677 0.76786 0.52568 0.0
H845 H 0.31748 0.73277 0.50822 0.0
H846 H 0.38956 0.76122 0.51392 0.0
H847 H 0.37906 0.79674 0.53006 0.0
H848 H 0.38097 0.7308 0.47302 0.0
H849 H 0.33901 0.69435 0.56351 0.0
H850 H 0.32108 0.70606 0.5419 0.0
H851 H 0.34376 0.72458 0.55718 0.0
C852 C 0.3249 0.76699 0.52233 0.0
C853 C 0.3421 0.78486 0.52989 0.0
C854 C 0.33098 0.74685 0.5125 0.0
C855 C 0.35428 0.74421 0.51046 0.0
C856 C 0.37145 0.76284 0.51555 0.0
H857 H 0.45373 0.66721 0.53198 0.0
H858 H 0.42971 0.69193 0.51307 0.0
C859 C 0.36542 0.78303 0.52509 0.0
C860 C 0.36101 0.72139 0.50741 0.0
H861 H 0.36295 0.67322 0.54164 0.0
C862 C 0.37662 0.7179 0.48766 0.0
C863 C 0.35518 0.70451 0.52647 0.0
C864 C 0.33897 0.70748 0.54857 0.0
C865 C 0.38776 0.69869 0.48744 0.0
C866 C 0.3834 0.68291 0.50769 0.0
C867 C 0.36629 0.68537 0.52614 0.0
C868 C 0.39888 0.66627 0.51293 0.0
C869 C 0.40476 0.69596 0.46611 0.0
C870 C 0.38966 0.64351 0.51896 0.0
C871 C 0.40334 0.62941 0.53015 0.0
C872 C 0.42644 0.63788 0.53553 0.0
C873 C 0.43603 0.66017 0.52793 0.0
C874 C 0.42234 0.67427 0.51686 0.0
H875 H 0.3995 0.70308 0.44823 0.0
H876 H 0.42197 0.7056 0.47061 0.0
H877 H 0.40641 0.67777 0.46313 0.0
H878 H 0.37156 0.63705 0.51624 0.0
H879 H 0.39565 0.61213 0.53537 0.0
H880 H 0.76869 0.85603 0.75666 0.0
H881 H 0.79923 0.87303 0.72692 0.0
H882 H 0.80369 0.80656 0.69618 0.0
H883 H 0.77274 0.78932 0.72574 0.0
H884 H 0.8457 0.83021 0.71147 0.0
H885 H 0.80254 0.88502 0.65073 0.0
H886 H 0.79692 0.88926 0.68377 0.0
H887 H 0.78669 0.86203 0.66973 0.0
C888 C 0.7756 0.84505 0.74307 0.0
C889 C 0.76824 0.82128 0.74361 0.0
C890 C 0.79311 0.85483 0.72607 0.0
C891 C 0.80356 0.84109 0.70917 0.0
C892 C 0.79577 0.81746 0.70902 0.0
H893 H 0.914 0.90848 0.60575 0.0
H894 H 0.8799 0.88226 0.62156 0.0
C895 C 0.77817 0.80765 0.726 0.0
C896 C 0.82415 0.85123 0.6937 0.0
H897 H 0.84397 0.89467 0.65242 0.0
C898 C 0.84527 0.84403 0.6982 0.0
C899 C 0.82352 0.86907 0.67621 0.0
C900 C 0.80115 0.87666 0.66961 0.0
C901 C 0.86599 0.8551 0.68676 0.0
C902 C 0.86554 0.87398 0.67066 0.0
C903 C 0.84428 0.88033 0.665 0.0
C904 C 0.88702 0.88841 0.66099 0.0
C905 C 0.88823 0.84677 0.69237 0.0
C906 C 0.90227 0.9005 0.67796 0.0
C907 C 0.92161 0.91561 0.66904 0.0
C908 C 0.92605 0.91899 0.64293 0.0
C909 C 0.91095 0.90646 0.62597 0.0
C910 C 0.89154 0.8914 0.63493 0.0
H911 H 0.88503 0.82862 0.69857 0.0
H912 H 0.90022 0.84854 0.67555 0.0
H913 H 0.89682 0.85712 0.70787 0.0
H914 H 0.8988 0.89882 0.69815 0.0
H915 H 0.93257 0.92529 0.68263 0.0
H916 H 0.68078 0.17306 0.33885 0.0
H917 H 0.6595 0.1594 0.3015 0.0
H918 H 0.59541 0.16708 0.34008 0.0
H919 H 0.61654 0.18033 0.37799 0.0
H920 H 0.61635 0.11849 0.306 0.0
H921 H 0.60246 0.20158 0.26526 0.0
H922 H 0.62734 0.1999 0.28391 0.0
H923 H 0.59916 0.19635 0.29888 0.0
C924 C 0.66215 0.17176 0.3395 0.0
C925 C 0.65032 0.17759 0.36146 0.0
C926 C 0.65007 0.1641 0.3181 0.0
C927 C 0.62599 0.16232 0.31817 0.0
C928 C 0.61405 0.16852 0.33976 0.0
H929 H 0.5465 0.12035 0.18324 0.0
H930 H 0.55589 0.13489 0.22569 0.0
C931 C 0.62615 0.17615 0.36129 0.0
C932 C 0.61355 0.15297 0.2958 0.0
H933 H 0.59282 0.16875 0.24026 0.0
C934 C 0.61087 0.12939 0.29175 0.0
C935 C 0.60629 0.1673 0.27752 0.0
C936 C 0.60887 0.19274 0.28139 0.0
C937 C 0.60187 0.11978 0.26929 0.0
C938 C 0.59595 0.13426 0.25025 0.0
C939 C 0.59751 0.15774 0.25486 0.0
C940 C 0.59002 0.12557 0.22473 0.0
C941 C 0.59916 0.09424 0.26597 0.0
C942 C 0.60627 0.11593 0.21009 0.0
C943 C 0.60096 0.10758 0.18603 0.0
C944 C 0.57935 0.10887 0.17601 0.0
C945 C 0.5632 0.11888 0.19057 0.0
C946 C 0.56855 0.12728 0.21472 0.0
H947 H 0.59741 0.08524 0.28449 0.0
H948 H 0.58385 0.08774 0.25474 0.0
H949 H 0.61475 0.08998 0.25583 0.0
H950 H 0.6231 0.11486 0.21731 0.0
H951 H 0.61369 0.09974 0.17545 0.0
H952 H 0.42517 0.6692 0.32371 0.0
H953 H 0.44151 0.65156 0.3591 0.0
H954 H 0.37386 0.61587 0.3811 0.0
H955 H 0.35717 0.63389 0.34624 0.0
H956 H 0.42878 0.65211 0.41367 0.0
H957 H 0.41563 0.5652 0.37181 0.0
H958 H 0.41526 0.59061 0.3532 0.0
H959 H 0.39083 0.57945 0.37336 0.0
C960 C 0.41363 0.65787 0.33622 0.0
C961 C 0.38977 0.65298 0.33187 0.0
C962 C 0.42307 0.64769 0.35642 0.0
C963 C 0.40896 0.63222 0.37262 0.0
C964 C 0.38514 0.62751 0.36863 0.0
H965 H 0.4486 0.57969 0.51702 0.0
H966 H 0.43031 0.59898 0.48446 0.0
C967 C 0.37565 0.63777 0.34854 0.0
C968 C 0.41924 0.62075 0.39342 0.0
H969 H 0.43025 0.56883 0.41279 0.0
C970 C 0.42913 0.63391 0.41353 0.0
C971 C 0.41978 0.59703 0.39314 0.0
C972 C 0.40998 0.58217 0.37168 0.0
C973 C 0.4395 0.62397 0.43338 0.0
C974 C 0.43989 0.60013 0.43321 0.0
C975 C 0.42999 0.58705 0.41302 0.0
C976 C 0.45097 0.58843 0.45332 0.0
C977 C 0.45036 0.63924 0.45402 0.0
C978 C 0.4682 0.57534 0.4468 0.0
C979 C 0.47854 0.56404 0.46543 0.0
C980 C 0.47192 0.5656 0.49106 0.0
C981 C 0.45444 0.57846 0.49753 0.0
C982 C 0.44401 0.58962 0.47888 0.0
H983 H 0.4544 0.65736 0.44779 0.0
H984 H 0.43807 0.63834 0.47053 0.0
H985 H 0.46651 0.63381 0.46026 0.0
H986 H 0.47382 0.574 0.42724 0.0
H987 H 0.4919 0.5543 0.45974 0.0
H988 H 0.11434 0.45513 0.81013 0.0
H989 H 0.09807 0.47403 0.84594 0.0
H990 H 0.0947 0.41303 0.89092 0.0
H991 H 0.1113 0.39406 0.85526 0.0
H992 H 0.05477 0.45967 0.87327 0.0
H993 H 0.13065 0.46493 0.93437 0.0
H994 H 0.13251 0.45986 0.90077 0.0
H995 H 0.11994 0.4372 0.92184 0.0
C996 C 0.11031 0.44577 0.82769 0.0
C997 C 0.11426 0.42311 0.82986 0.0
C998 C 0.10089 0.45656 0.84809 0.0
C999 C 0.09543 0.44504 0.87118 0.0
C1000 C 0.09907 0.42234 0.87337 0.0
H1001 H 0.01153 0.48768 0.99625 0.0
H1002 H 0.02825 0.46595 0.96305 0.0
C1003 C 0.10836 0.41146 0.8529 0.0
C1004 C 0.08571 0.45678 0.8928 0.0
H1005 H 0.09742 0.47756 0.95203 0.0
C1006 C 0.06405 0.46352 0.89052 0.0
C1007 C 0.09797 0.46199 0.91519 0.0
C1008 C 0.12165 0.45582 0.91827 0.0
C1009 C 0.05423 0.47521 0.91009 0.0
C1010 C 0.06635 0.48016 0.9326 0.0
C1011 C 0.0881 0.47357 0.93483 0.0
C1012 C 0.05694 0.49275 0.95372 0.0
C1013 C 0.03117 0.48259 0.90636 0.0
C1014 C 0.06786 0.51479 0.95995 0.0
C1015 C 0.05835 0.52723 0.97892 0.0
C1016 C 0.03788 0.51775 0.99214 0.0
C1017 C 0.02735 0.49542 0.9864 0.0
C1018 C 0.0368 0.48304 0.96735 0.0
H1019 H 0.02631 0.48155 0.88625 0.0
H1020 H 0.01762 0.4713 0.91763 0.0
H1021 H 0.0314 0.50037 0.913 0.0
H1022 H 0.08346 0.52257 0.94972 0.0
H1023 H 0.06686 0.54438 0.98301 0.0
H1024 H 0.65677 0.86677 0.94107 0.0
H1025 H 0.63552 0.89571 0.95877 0.0
H1026 H 0.58322 0.87853 0.90362 0.0
H1027 H 0.60431 0.84946 0.88582 0.0
H1028 H 0.62015 0.93396 0.92552 0.0
H1029 H 0.5505 0.87607 0.97861 0.0
H1030 H 0.57852 0.86822 0.97168 0.0
H1031 H 0.55847 0.86842 0.94695 0.0
C1032 C 0.64059 0.86895 0.93292 0.0
C1033 C 0.63217 0.85581 0.9121 0.0
C1034 C 0.62859 0.88556 0.94294 0.0
C1035 C 0.60784 0.88913 0.9325 0.0
C1036 C 0.59919 0.87591 0.91194 0.0
H1037 H 0.50934 0.97605 0.98276 0.0
H1038 H 0.52879 0.9483 0.96007 0.0
C1039 C 0.61129 0.85941 0.90176 0.0
C1040 C 0.59553 0.9071 0.94279 0.0
H1041 H 0.54913 0.91542 0.98004 0.0
C1042 C 0.60459 0.92999 0.93741 0.0
C1043 C 0.57517 0.90172 0.95803 0.0
C1044 C 0.565 0.87731 0.96436 0.0
C1045 C 0.59377 0.94778 0.94695 0.0
C1046 C 0.57371 0.94247 0.96284 0.0
C1047 C 0.5645 0.91949 0.96788 0.0
C1048 C 0.56239 0.96043 0.97512 0.0
C1049 C 0.60372 0.97202 0.93954 0.0
C1050 C 0.57481 0.97654 0.99105 0.0
C1051 C 0.56381 0.99256 1.00386 0.0
C1052 C 0.54005 0.99255 1.0013 0.0
C1053 C 0.52767 0.97654 0.98514 0.0
C1054 C 0.53874 0.96064 0.97218 0.0
H1055 H 0.61397 0.97268 0.92145 0.0
H1056 H 0.58992 0.98258 0.93758 0.0
H1057 H 0.61545 0.97968 0.95436 0.0
H1058 H 0.59292 0.97634 0.99415 0.0
H1059 H 0.57379 1.00448 1.01637 0.0
H1060 H 0.83417 0.18844 0.51085 0.0
H1061 H 0.86555 0.16834 0.52249 0.0
H1062 H 0.82681 0.10498 0.49664 0.0
H1063 H 0.79511 0.12474 0.48572 0.0
H1064 H 0.84404 0.10252 0.54486 0.0
H1065 H 0.9122 0.14222 0.47575 0.0
H1066 H 0.89888 0.16203 0.49452 0.0
H1067 H 0.882 0.14391 0.47249 0.0
C1068 C 0.83235 0.17022 0.50768 0.0
C1069 C 0.8122 0.15816 0.49735 0.0
C1070 C 0.85037 0.15884 0.51407 0.0
C1071 C 0.84855 0.13527 0.5101 0.0
C1072 C 0.82855 0.12322 0.49966 0.0
H1073 H 0.9514 0.04734 0.517 0.0
H1074 H 0.92247 0.07016 0.50444 0.0
C1075 C 0.81054 0.13456 0.49328 0.0
C1076 C 0.86695 0.12286 0.51798 0.0
H1077 H 0.92355 0.11806 0.50698 0.0
C1078 C 0.86143 0.10588 0.5366 0.0
C1079 C 0.88951 0.12725 0.50695 0.0
C1080 C 0.89604 0.1447 0.48616 0.0
C1081 C 0.87794 0.09315 0.54461 0.0
C1082 C 0.90063 0.09783 0.53396 0.0
C1083 C 0.90615 0.11472 0.51523 0.0
C1084 C 0.91866 0.08481 0.54148 0.0
C1085 C 0.87086 0.07446 0.56399 0.0
C1086 C 0.92625 0.08582 0.56635 0.0
C1087 C 0.94269 0.07278 0.57357 0.0
C1088 C 0.95184 0.05871 0.55594 0.0
C1089 C 0.94455 0.05806 0.53094 0.0
C1090 C 0.92811 0.07108 0.52374 0.0
H1091 H 0.85178 0.0696 0.56587 0.0
H1092 H 0.87843 0.05903 0.55897 0.0
H1093 H 0.8773 0.08053 0.58267 0.0
H1094 H 0.91939 0.09663 0.58017 0.0
H1095 H 0.94821 0.07368 0.59291 0.0
H1096 H 0.24578 0.61111 0.17409 0.0
H1097 H 0.21062 0.59218 0.15434 0.0
H1098 H 0.18911 0.6574 0.14356 0.0
H1099 H 0.22397 0.67643 0.1635 0.0
H1100 H 0.16391 0.59225 0.16796 0.0
H1101 H 0.18505 0.62995 0.07258 0.0
H1102 H 0.20631 0.63082 0.09656 0.0
H1103 H 0.18624 0.65069 0.0974 0.0
C1104 C 0.23351 0.62145 0.1677 0.0
C1105 C 0.23791 0.64538 0.17027 0.0
C1106 C 0.21345 0.61059 0.15628 0.0
C1107 C 0.19739 0.62338 0.14702 0.0
C1108 C 0.20149 0.64719 0.14996 0.0
H1109 H 0.0656 0.59747 0.07519 0.0
H1110 H 0.10199 0.61336 0.09428 0.0
C1111 C 0.2215 0.65806 0.16138 0.0
C1112 C 0.17616 0.61188 0.13465 0.0
H1113 H 0.14676 0.61024 0.07985 0.0
C1114 C 0.16024 0.59603 0.14863 0.0
C1115 C 0.17135 0.61679 0.1094 0.0
C1116 C 0.18822 0.63282 0.09299 0.0
C1117 C 0.13933 0.58555 0.13835 0.0
C1118 C 0.13438 0.5907 0.1132 0.0
C1119 C 0.15048 0.60631 0.09912 0.0
C1120 C 0.11232 0.58066 0.10135 0.0
C1121 C 0.12239 0.56967 0.15484 0.0
C1122 C 0.10606 0.55693 0.09854 0.0
C1123 C 0.08514 0.54773 0.08764 0.0
C1124 C 0.07009 0.56207 0.07911 0.0
C1125 C 0.07666 0.58584 0.08154 0.0
C1126 C 0.09752 0.595 0.09247 0.0
H1127 H 0.12604 0.57203 0.17521 0.0
H1128 H 0.10439 0.57235 0.15188 0.0
H1129 H 0.12366 0.55175 0.14988 0.0
H1130 H 0.11739 0.5455 0.10469 0.0
H1131 H 0.08076 0.52936 0.08599 0.0
H1132 H 0.29203 0.39938 0.67872 0.0
H1133 H 0.32861 0.41756 0.65875 0.0
H1134 H 0.2964 0.47407 0.63534 0.0
H1135 H 0.25991 0.45619 0.65589 0.0
H1136 H 0.33899 0.42739 0.61086 0.0
H1137 H 0.35386 0.50785 0.66525 0.0
H1138 H 0.33202 0.48404 0.67462 0.0
H1139 H 0.32653 0.50345 0.65031 0.0
C1140 C 0.29279 0.41574 0.66941 0.0
C1141 C 0.27312 0.42639 0.66892 0.0
C1142 C 0.31372 0.42614 0.65805 0.0
C1143 C 0.31543 0.44738 0.64584 0.0
C1144 C 0.29575 0.45802 0.64523 0.0
H1145 H 0.42476 0.4951 0.53344 0.0
H1146 H 0.38782 0.48112 0.5555 0.0
C1147 C 0.27486 0.44773 0.65688 0.0
C1148 C 0.33751 0.45773 0.63276 0.0
H1149 H 0.378 0.50612 0.6284 0.0
C1150 C 0.34755 0.44458 0.6148 0.0
C1151 C 0.3489 0.48006 0.63809 0.0
C1152 C 0.33991 0.49459 0.6583 0.0
C1153 C 0.36847 0.45313 0.60191 0.0
C1154 C 0.37937 0.47579 0.60647 0.0
C1155 C 0.3695 0.48888 0.62463 0.0
C1156 C 0.40131 0.48595 0.59302 0.0
C1157 C 0.37894 0.43752 0.58402 0.0
C1158 C 0.42094 0.49443 0.60673 0.0
C1159 C 0.44196 0.50282 0.59414 0.0
C1160 C 0.44373 0.50277 0.56761 0.0
C1161 C 0.42392 0.49505 0.55391 0.0
C1162 C 0.40286 0.48691 0.5665 0.0
H1163 H 0.37232 0.41925 0.5883 0.0
H1164 H 0.3743 0.44094 0.56442 0.0
H1165 H 0.39807 0.44037 0.58489 0.0
H1166 H 0.42014 0.49403 0.6272 0.0
H1167 H 0.45696 0.50877 0.60516 0.0
H1168 H 0.75378 0.67624 0.90359 0.0
H1169 H 0.78153 0.65664 0.92432 0.0
H1170 H 0.79266 0.71037 0.97958 0.0
H1171 H 0.76562 0.73058 0.95833 0.0
H1172 H 0.83254 0.70238 0.95762 0.0
H1173 H 0.78074 0.62019 0.9889 0.0
H1174 H 0.7775 0.6259 0.95607 0.0
H1175 H 0.7677 0.6443 0.97966 0.0
C1176 C 0.76194 0.68378 0.92033 0.0
C1177 C 0.75759 0.70507 0.92919 0.0
C1178 C 0.77759 0.67239 0.93236 0.0
C1179 C 0.789 0.6819 0.95368 0.0
C1180 C 0.78394 0.70265 0.96325 0.0
H1181 H 0.8885 0.61774 1.03619 0.0
H1182 H 0.85429 0.63366 1.0246 0.0
C1183 C 0.76834 0.7141 0.95117 0.0
C1184 C 0.80804 0.67157 0.96416 0.0
H1185 H 0.82196 0.62175 0.98644 0.0
C1186 C 0.83015 0.68483 0.96421 0.0
C1187 C 0.8049 0.64873 0.97295 0.0
C1188 C 0.78137 0.63403 0.97466 0.0
C1189 C 0.84932 0.67569 0.972 0.0
C1190 C 0.84641 0.65251 0.97948 0.0
C1191 C 0.82419 0.63943 0.98034 0.0
C1192 C 0.86636 0.64156 0.98608 0.0
C1193 C 0.87256 0.69096 0.97215 0.0
C1194 C 0.88415 0.64019 0.96805 0.0
C1195 C 0.90365 0.63111 0.97457 0.0
C1196 C 0.90566 0.62305 0.99923 0.0
C1197 C 0.88741 0.62368 1.01701 0.0
C1198 C 0.8679 0.63284 1.01046 0.0
H1199 H 0.87078 0.70929 0.97273 0.0
H1200 H 0.88255 0.68711 0.9886 0.0
H1201 H 0.8826 0.68809 0.95465 0.0
H1202 H 0.88304 0.64636 0.94895 0.0
H1203 H 0.91718 0.63044 0.96031 0.0
H1204 H 0.41129 0.82525 0.20862 0.0
H1205 H 0.42993 0.86147 0.18986 0.0
H1206 H 0.40124 0.84076 0.11799 0.0
H1207 H 0.38351 0.80405 0.13622 0.0
H1208 H 0.44546 0.85968 0.11199 0.0
H1209 H 0.40097 0.91615 0.17259 0.0
H1210 H 0.41588 0.89787 0.19054 0.0
H1211 H 0.39194 0.88562 0.17186 0.0
C1212 C 0.40906 0.82825 0.18876 0.0
C1213 C 0.39571 0.81159 0.17405 0.0
C1214 C 0.41948 0.84919 0.17813 0.0
C1215 C 0.41662 0.85416 0.15259 0.0
C1216 C 0.40354 0.8375 0.13779 0.0
H1217 H 0.45495 0.99073 0.08446 0.0
H1218 H 0.43351 0.95445 0.10112 0.0
C1219 C 0.39322 0.81652 0.14835 0.0
C1220 C 0.42787 0.87634 0.14105 0.0
H1221 H 0.43329 0.93432 0.1474 0.0
C1222 C 0.44267 0.87598 0.11968 0.0
C1223 C 0.42399 0.89771 0.15071 0.0
C1224 C 0.40715 0.89943 0.17252 0.0
C1225 C 0.45409 0.89625 0.10816 0.0
C1226 C 0.45111 0.9176 0.11859 0.0
C1227 C 0.43584 0.918 0.13954 0.0
C1228 C 0.46402 0.93964 0.10833 0.0
C1229 C 0.469 0.89455 0.08467 0.0
C1230 C 0.48828 0.9436 0.10713 0.0
C1231 C 0.50049 0.96419 0.09748 0.0
C1232 C 0.48875 0.98144 0.08908 0.0
C1233 C 0.46447 0.9777 0.09065 0.0
C1234 C 0.45222 0.95699 0.10023 0.0
H1235 H 0.46384 0.87807 0.07481 0.0
H1236 H 0.46803 0.9087 0.07126 0.0
H1237 H 0.48723 0.89549 0.09004 0.0
H1238 H 0.49784 0.9308 0.11383 0.0
H1239 H 0.5192 0.96661 0.09669 0.0
H1240 H 0.14834 0.25411 0.6595 0.0
H1241 H 0.13169 0.21803 0.64045 0.0
H1242 H 0.06492 0.22438 0.67353 0.0
H1243 H 0.08112 0.26126 0.69138 0.0
H1244 H 0.11157 0.17855 0.66006 0.0
H1245 H 0.04855 0.21258 0.60132 0.0
H1246 H 0.07096 0.23091 0.61745 0.0
H1247 H 0.0448 0.21838 0.63431 0.0
C1248 C 0.13001 0.24811 0.66242 0.0
C1249 C 0.11607 0.26092 0.67675 0.0
C1250 C 0.12055 0.22729 0.65168 0.0
C1251 C 0.09692 0.21863 0.65508 0.0
C1252 C 0.08307 0.23095 0.67004 0.0
H1253 H 0.03624 0.07725 0.6237 0.0
H1254 H 0.05322 0.11295 0.64365 0.0
C1255 C 0.09247 0.25192 0.6806 0.0
C1256 C 0.08699 0.19663 0.64311 0.0
H1257 H 0.04506 0.1722 0.60376 0.0
C1258 C 0.09706 0.17718 0.64769 0.0
C1259 C 0.0683 0.19487 0.6266 0.0
C1260 C 0.05767 0.21534 0.61939 0.0
C1261 C 0.08888 0.15607 0.63645 0.0
C1262 C 0.06961 0.1541 0.62074 0.0
C1263 C 0.05967 0.17359 0.61599 0.0
C1264 C 0.05967 0.13215 0.60866 0.0
C1265 C 0.10142 0.13627 0.64103 0.0
C1266 C 0.05703 0.13109 0.58239 0.0
C1267 C 0.04694 0.11079 0.57098 0.0
C1268 C 0.03937 0.09102 0.58558 0.0
C1269 C 0.04216 0.09206 0.61186 0.0
C1270 C 0.052 0.11246 0.62329 0.0
H1271 H 0.11946 0.14221 0.64668 0.0
H1272 H 0.09237 0.12554 0.65664 0.0
H1273 H 0.10184 0.12549 0.62393 0.0
H1274 H 0.06273 0.14602 0.57067 0.0
H1275 H 0.04505 0.11063 0.55071 0.0
H1276 H 0.69326 0.32552 0.52199 0.0
H1277 H 0.67592 0.35425 0.54491 0.0
H1278 H 0.65779 0.30748 0.60751 0.0
H1279 H 0.67488 0.27826 0.58409 0.0
H1280 H 0.62101 0.32203 0.59112 0.0
H1281 H 0.68653 0.39802 0.60214 0.0
H1282 H 0.68963 0.38812 0.57048 0.0
H1283 H 0.69431 0.37014 0.59668 0.0
C1284 C 0.68609 0.32156 0.54089 0.0
C1285 C 0.68511 0.29966 0.55117 0.0
C1286 C 0.67649 0.33812 0.5542 0.0
C1287 C 0.66585 0.3332 0.57817 0.0
C1288 C 0.66616 0.31174 0.5892 0.0
H1289 H 0.5871 0.44578 0.58903 0.0
H1290 H 0.60924 0.41917 0.60846 0.0
C1291 C 0.6759 0.2951 0.57583 0.0
C1292 C 0.65071 0.34879 0.58865 0.0
H1293 H 0.64798 0.40563 0.58812 0.0
C1294 C 0.627 0.3403 0.59152 0.0
C1295 C 0.65837 0.37259 0.59006 0.0
C1296 C 0.68368 0.38264 0.58997 0.0
C1297 C 0.6107 0.35508 0.59179 0.0
C1298 C 0.61839 0.37876 0.58864 0.0
C1299 C 0.64206 0.38738 0.58974 0.0
C1300 C 0.60299 0.39389 0.57898 0.0
C1301 C 0.58537 0.34508 0.59344 0.0
C1302 C 0.59241 0.38859 0.55587 0.0
C1303 C 0.58002 0.40375 0.54464 0.0
C1304 C 0.57802 0.42465 0.55621 0.0
C1305 C 0.58844 0.42987 0.57955 0.0
C1306 C 0.60092 0.41464 0.59079 0.0
H1307 H 0.58235 0.32956 0.60559 0.0
H1308 H 0.5748 0.35758 0.60111 0.0
H1309 H 0.57944 0.33992 0.57429 0.0
H1310 H 0.59448 0.37305 0.54595 0.0
H1311 H 0.57271 0.3994 0.52643 0.0
loop_
_geom_bond_atom_site_label_1
_geom_bond_atom_site_label_2
_geom_bond_distance
_geom_bond_site_symmetry_2
_ccdc_geom_bond_type
C0 C1 1.384 . S
C0 H13 0.947 . S
C0 C35 1.382 . S
C1 C0 1.384 . S
C1 C2 1.378 . S
C2 C1 1.378 . S
C2 C3 1.378 . S
C2 H14 0.952 . S
C3 C2 1.378 . S
C3 H15 0.950 . S
C3 C34 1.383 . S
H4 C23 0.947 . S
H5 C24 0.946 . S
H6 C26 0.953 . S
H7 C27 0.945 . S
H8 C29 0.952 . S
H9 C30 0.949 . S
H10 C32 0.950 . S
H11 C33 0.948 . S
H12 C35 0.951 . S
H13 C0 0.947 . S
H14 C2 0.952 . S
H15 C3 0.950 . S
N16 C19 1.382 . S
N16 C21 1.363 . S
N17 C19 1.371 . S
N17 C20 1.372 . S
N18 C20 1.361 . S
N18 C21 1.377 . S
C19 N16 1.382 . S
C19 N17 1.371 . S
C19 C22 1.480 . S
C20 N17 1.372 . S
C20 N18 1.361 . S
C20 C28 1.457 . S
C21 N16 1.363 . S
C21 N18 1.377 . S
C21 C34 1.479 . S
C22 C19 1.480 . S
C22 C23 1.383 . S
C22 C27 1.385 . S
C23 H4 0.947 . S
C23 C22 1.383 . S
C23 C24 1.388 . S
C24 H5 0.946 . S
C24 C23 1.388 . S
C24 C25 1.384 . S
C25 C24 1.384 . S
C25 C26 1.377 . S
C26 H6 0.953 . S
C26 C25 1.377 . S
C26 C27 1.369 . S
C27 H7 0.945 . S
C27 C22 1.385 . S
C27 C26 1.369 . S
C28 C20 1.457 . S
C28 C29 1.372 . S
C28 C33 1.364 . S
C29 H8 0.952 . S
C29 C28 1.372 . S
C29 C30 1.389 . S
C30 H9 0.949 . S
C30 C29 1.389 . S
C30 C31 1.387 . S
C31 C30 1.387 . S
C31 C32 1.372 . S
C32 H10 0.950 . S
C32 C31 1.372 . S
C32 C33 1.379 . S
C33 H11 0.948 . S
C33 C28 1.364 . S
C33 C32 1.379 . S
C34 C3 1.383 . S
C34 C21 1.479 . S
C34 C35 1.398 . S
C35 C0 1.382 . S
C35 H12 0.951 . S
C35 C34 1.398 . S
C36 C37 1.384 . S
C36 H49 0.947 . S
C36 C71 1.382 . S
C37 C36 1.384 . S
C37 C38 1.378 . S
C38 C37 1.378 . S
C38 C39 1.378 . S
C38 H50 0.952 . S
C39 C38 1.378 . S
C39 H51 0.950 . S
C39 C70 1.383 . S
H40 C59 0.947 . S
H41 C60 0.946 . S
H42 C62 0.953 . S
H43 C63 0.945 . S
H44 C65 0.952 . S
H45 C66 0.949 . S
H46 C68 0.950 . S
H47 C69 0.948 . S
H48 C71 0.951 . S
H49 C36 0.947 . S
H50 C38 0.952 . S
H51 C39 0.950 . S
N52 C55 1.382 . S
N52 C57 1.363 . S
N53 C55 1.371 . S
N53 C56 1.372 . S
N54 C56 1.361 . S
N54 C57 1.377 . S
C55 N52 1.382 . S
C55 N53 1.371 . S
C55 C58 1.480 . S
C56 N53 1.372 . S
C56 N54 1.361 . S
C56 C64 1.457 . S
C57 N52 1.363 . S
C57 N54 1.377 . S
C57 C70 1.479 . S
C58 C55 1.480 . S
C58 C59 1.383 . S
C58 C63 1.385 . S
C59 H40 0.947 . S
C59 C58 1.383 . S
C59 C60 1.388 . S
C60 H41 0.946 . S
C60 C59 1.388 . S
C60 C61 1.384 . S
C61 C60 1.384 . S
C61 C62 1.377 . S
C62 H42 0.953 . S
C62 C61 1.377 . S
C62 C63 1.369 . S
C63 H43 0.945 . S
C63 C58 1.385 . S
C63 C62 1.369 . S
C64 C56 1.457 . S
C64 C65 1.372 . S
C64 C69 1.364 . S
C65 H44 0.952 . S
C65 C64 1.372 . S
C65 C66 1.389 . S
C66 H45 0.949 . S
C66 C65 1.389 . S
C66 C67 1.387 . S
C67 C66 1.387 . S
C67 C68 1.372 . S
C68 H46 0.950 . S
C68 C67 1.372 . S
C68 C69 1.379 . S
C69 H47 0.948 . S
C69 C64 1.364 . S
C69 C68 1.379 . S
C70 C39 1.383 . S
C70 C57 1.479 . S
C70 C71 1.398 . S
C71 C36 1.382 . S
C71 H48 0.951 . S
C71 C70 1.398 . S
C72 C73 1.384 . S
C72 H85 0.947 . S
C72 C107 1.382 . S
C73 C72 1.384 . S
C73 C74 1.378 . S
C74 C73 1.378 . S
C74 C75 1.378 . S
C74 H86 0.952 . S
C75 C74 1.378 . S
C75 H87 0.950 . S
C75 C106 1.383 . S
H76 C95 0.947 . S
H77 C96 0.946 . S
H78 C98 0.953 . S
H79 C99 0.945 . S
H80 C101 0.952 . S
H81 C102 0.949 . S
H82 C104 0.950 . S
H83 C105 0.948 . S
H84 C107 0.951 . S
H85 C72 0.947 . S
H86 C74 0.952 . S
H87 C75 0.950 . S
N88 C91 1.382 . S
N88 C93 1.363 . S
N89 C91 1.371 . S
N89 C92 1.372 . S
N90 C92 1.361 . S
N90 C93 1.377 . S
C91 N88 1.382 . S
C91 N89 1.371 . S
C91 C94 1.480 . S
C92 N89 1.372 . S
C92 N90 1.361 . S
C92 C100 1.457 . S
C93 N88 1.363 . S
C93 N90 1.377 . S
C93 C106 1.479 . S
C94 C91 1.480 . S
C94 C95 1.383 . S
C94 C99 1.385 . S
C95 H76 0.947 . S
C95 C94 1.383 . S
C95 C96 1.388 . S
C96 H77 0.946 . S
C96 C95 1.388 . S
C96 C97 1.384 . S
C97 C96 1.384 . S
C97 C98 1.377 . S
C98 H78 0.953 . S
C98 C97 1.377 . S
C98 C99 1.369 . S
C99 H79 0.945 . S
C99 C94 1.385 . S
C99 C98 1.369 . S
C100 C92 1.457 . S
C100 C101 1.372 . S
C100 C105 1.364 . S
C101 H80 0.952 . S
C101 C100 1.372 . S
C101 C102 1.389 . S
C102 H81 0.949 . S
C102 C101 1.389 . S
C102 C103 1.387 . S
C103 C102 1.387 . S
C103 C104 1.372 . S
C104 H82 0.950 . S
C104 C103 1.372 . S
C104 C105 1.379 . S
C105 H83 0.948 . S
C105 C100 1.364 . S
C105 C104 1.379 . S
C106 C75 1.383 . S
C106 C93 1.479 . S
C106 C107 1.398 . S
C107 C72 1.382 . S
C107 H84 0.951 . S
C107 C106 1.398 . S
C108 C109 1.384 . S
C108 H121 0.947 . S
C108 C143 1.382 . S
C109 C108 1.384 . S
C109 C110 1.378 . S
C110 C109 1.378 . S
C110 C111 1.378 . S
C110 H122 0.952 . S
C111 C110 1.378 . S
C111 H123 0.950 . S
C111 C142 1.383 . S
H112 C131 0.947 . S
H113 C132 0.946 . S
H114 C134 0.953 . S
H115 C135 0.945 . S
H116 C137 0.952 . S
H117 C138 0.949 . S
H118 C140 0.950 . S
H119 C141 0.948 . S
H120 C143 0.951 . S
H121 C108 0.947 . S
H122 C110 0.952 . S
H123 C111 0.950 . S
N124 C127 1.382 . S
N124 C129 1.363 . S
N125 C127 1.371 . S
N125 C128 1.372 . S
N126 C128 1.361 . S
N126 C129 1.377 . S
C127 N124 1.382 . S
C127 N125 1.371 . S
C127 C130 1.480 . S
C128 N125 1.372 . S
C128 N126 1.361 . S
C128 C136 1.457 . S
C129 N124 1.363 . S
C129 N126 1.377 . S
C129 C142 1.479 . S
C130 C127 1.480 . S
C130 C131 1.383 . S
C130 C135 1.385 . S
C131 H112 0.947 . S
C131 C130 1.383 . S
C131 C132 1.388 . S
C132 H113 0.946 . S
C132 C131 1.388 . S
C132 C133 1.384 . S
C133 C132 1.384 . S
C133 C134 1.377 . S
C134 H114 0.953 . S
C134 C133 1.377 . S
C134 C135 1.369 . S
C135 H115 0.945 . S
C135 C130 1.385 . S
C135 C134 1.369 . S
C136 C128 1.457 . S
C136 C137 1.372 . S
C136 C141 1.364 . S
C137 H116 0.952 . S
C137 C136 1.372 . S
C137 C138 1.389 . S
C138 H117 0.949 . S
C138 C137 1.389 . S
C138 C139 1.387 . S
C139 C138 1.387 . S
C139 C140 1.372 . S
C140 H118 0.950 . S
C140 C139 1.372 . S
C140 C141 1.379 . S
C141 H119 0.948 . S
C141 C136 1.364 . S
C141 C140 1.379 . S
C142 C111 1.383 . S
C142 C129 1.479 . S
C142 C143 1.398 . S
C143 C108 1.382 . S
C143 H120 0.951 . S
C143 C142 1.398 . S
C144 C145 1.384 . S
C144 H157 0.947 . S
C144 C179 1.382 . S
C145 C144 1.384 . S
C145 C146 1.378 . S
C146 C145 1.378 . S
C146 C147 1.378 . S
C146 H158 0.952 . S
C147 C146 1.378 . S
C147 H159 0.950 . S
C147 C178 1.383 . S
H148 C167 0.947 . S
H149 C168 0.946 . S
H150 C170 0.953 . S
H151 C171 0.945 . S
H152 C173 0.952 . S
H153 C174 0.949 . S
H154 C176 0.950 . S
H155 C177 0.948 . S
H156 C179 0.951 . S
H157 C144 0.947 . S
H158 C146 0.952 . S
H159 C147 0.950 . S
N160 C163 1.382 . S
N160 C165 1.363 . S
N161 C163 1.371 . S
N161 C164 1.372 . S
N162 C164 1.361 . S
N162 C165 1.377 . S
C163 N160 1.382 . S
C163 N161 1.371 . S
C163 C166 1.480 . S
C164 N161 1.372 . S
C164 N162 1.361 . S
C164 C172 1.457 . S
C165 N160 1.363 . S
C165 N162 1.377 . S
C165 C178 1.479 . S
C166 C163 1.480 . S
C166 C167 1.383 . S
C166 C171 1.385 . S
C167 H148 0.947 . S
C167 C166 1.383 . S
C167 C168 1.388 . S
C168 H149 0.946 . S
C168 C167 1.388 . S
C168 C169 1.384 . S
C169 C168 1.384 . S
C169 C170 1.377 . S
C170 H150 0.953 . S
C170 C169 1.377 . S
C170 C171 1.369 . S
C171 H151 0.945 . S
C171 C166 1.385 . S
C171 C170 1.369 . S
C172 C164 1.457 . S
C172 C173 1.372 . S
C172 C177 1.364 . S
C173 H152 0.952 . S
C173 C172 1.372 . S
C173 C174 1.389 . S
C174 H153 0.949 . S
C174 C173 1.389 . S
C174 C175 1.387 . S
C175 C174 1.387 . S
C175 C176 1.372 . S
C176 H154 0.950 . S
C176 C175 1.372 . S
C176 C177 1.379 . S
C177 H155 0.948 . S
C177 C172 1.364 . S
C177 C176 1.379 . S
C178 C147 1.383 . S
C178 C165 1.479 . S
C178 C179 1.398 . S
C179 C144 1.382 . S
C179 H156 0.951 . S
C179 C178 1.398 . S
C180 C181 1.384 . S
C180 H193 0.947 . S
C180 C215 1.382 . S
C181 C180 1.384 . S
C181 C182 1.378 . S
C182 C181 1.378 . S
C182 C183 1.378 . S
C182 H194 0.952 . S
C183 C182 1.378 . S
C183 H195 0.950 . S
C183 C214 1.383 . S
H184 C203 0.947 . S
H185 C204 0.946 . S
H186 C206 0.953 . S
H187 C207 0.945 . S
H188 C209 0.952 . S
H189 C210 0.949 . S
H190 C212 0.950 . S
H191 C213 0.948 . S
H192 C215 0.951 . S
H193 C180 0.947 . S
H194 C182 0.952 . S
H195 C183 0.950 . S
N196 C199 1.382 . S
N196 C201 1.363 . S
N197 C199 1.371 . S
N197 C200 1.372 . S
N198 C200 1.361 . S
N198 C201 1.377 . S
C199 N196 1.382 . S
C199 N197 1.371 . S
C199 C202 1.480 . S
C200 N197 1.372 . S
C200 N198 1.361 . S
C200 C208 1.457 . S
C201 N196 1.363 . S
C201 N198 1.377 . S
C201 C214 1.479 . S
C202 C199 1.480 . S
C202 C203 1.383 . S
C202 C207 1.385 . S
C203 H184 0.947 . S
C203 C202 1.383 . S
C203 C204 1.388 . S
C204 H185 0.946 . S
C204 C203 1.388 . S
C204 C205 1.384 . S
C205 C204 1.384 . S
C205 C206 1.377 . S
C206 H186 0.953 . S
C206 C205 1.377 . S
C206 C207 1.369 . S
C207 H187 0.945 . S
C207 C202 1.385 . S
C207 C206 1.369 . S
C208 C200 1.457 . S
C208 C209 1.372 . S
C208 C213 1.364 . S
C209 H188 0.952 . S
C209 C208 1.372 . S
C209 C210 1.389 . S
C210 H189 0.949 . S
C210 C209 1.389 . S
C210 C211 1.387 . S
C211 C210 1.387 . S
C211 C212 1.372 . S
C212 H190 0.950 . S
C212 C211 1.372 . S
C212 C213 1.379 . S
C213 H191 0.948 . S
C213 C208 1.364 . S
C213 C212 1.379 . S
C214 C183 1.383 . S
C214 C201 1.479 . S
C214 C215 1.398 . S
C215 C180 1.382 . S
C215 H192 0.951 . S
C215 C214 1.398 . S
C216 C217 1.384 . S
C216 H229 0.947 . S
C216 C251 1.382 . S
C217 C216 1.384 . S
C217 C218 1.378 . S
C218 C217 1.378 . S
C218 C219 1.378 . S
C218 H230 0.952 . S
C219 C218 1.378 . S
C219 H231 0.950 . S
C219 C250 1.383 . S
H220 C239 0.947 . S
H221 C240 0.946 . S
H222 C242 0.953 . S
H223 C243 0.945 . S
H224 C245 0.952 . S
H225 C246 0.949 . S
H226 C248 0.950 . S
H227 C249 0.948 . S
H228 C251 0.951 . S
H229 C216 0.947 . S
H230 C218 0.952 . S
H231 C219 0.950 . S
N232 C235 1.382 . S
N232 C237 1.363 . S
N233 C235 1.371 . S
N233 C236 1.372 . S
N234 C236 1.361 . S
N234 C237 1.377 . S
C235 N232 1.382 . S
C235 N233 1.371 . S
C235 C238 1.480 . S
C236 N233 1.372 . S
C236 N234 1.361 . S
C236 C244 1.457 . S
C237 N232 1.363 . S
C237 N234 1.377 . S
C237 C250 1.479 . S
C238 C235 1.480 . S
C238 C239 1.383 . S
C238 C243 1.385 . S
C239 H220 0.947 . S
C239 C238 1.383 . S
C239 C240 1.388 . S
C240 H221 0.946 . S
C240 C239 1.388 . S
C240 C241 1.384 . S
C241 C240 1.384 . S
C241 C242 1.377 . S
C242 H222 0.953 . S
C242 C241 1.377 . S
C242 C243 1.369 . S
C243 H223 0.945 . S
C243 C238 1.385 . S
C243 C242 1.369 . S
C244 C236 1.457 . S
C244 C245 1.372 . S
C244 C249 1.364 . S
C245 H224 0.952 . S
C245 C244 1.372 . S
C245 C246 1.389 . S
C246 H225 0.949 . S
C246 C245 1.389 . S
C246 C247 1.387 . S
C247 C246 1.387 . S
C247 C248 1.372 . S
C248 H226 0.950 . S
C248 C247 1.372 . S
C248 C249 1.379 . S
C249 H227 0.948 . S
C249 C244 1.364 . S
C249 C248 1.379 . S
C250 C219 1.383 . S
C250 C237 1.479 . S
C250 C251 1.398 . S
C251 C216 1.382 . S
C251 H228 0.951 . S
C251 C250 1.398 . S
C252 C253 1.384 . S
C252 H265 0.947 . S
C252 C287 1.382 . S
C253 C252 1.384 . S
C253 C254 1.378 . S
C254 C253 1.378 . S
C254 C255 1.378 . S
C254 H266 0.952 . S
C255 C254 1.378 . S
C255 H267 0.950 . S
C255 C286 1.383 . S
H256 C275 0.947 . S
H257 C276 0.946 . S
H258 C278 0.953 . S
H259 C279 0.945 . S
H260 C281 0.952 . S
H261 C282 0.949 . S
H262 C284 0.950 . S
H263 C285 0.948 . S
H264 C287 0.951 . S
H265 C252 0.947 . S
H266 C254 0.952 . S
H267 C255 0.950 . S
N268 C271 1.382 . S
N268 C273 1.363 . S
N269 C271 1.371 . S
N269 C272 1.372 . S
N270 C272 1.361 . S
N270 C273 1.377 . S
C271 N268 1.382 . S
C271 N269 1.371 . S
C271 C274 1.480 . S
C272 N269 1.372 . S
C272 N270 1.361 . S
C272 C280 1.457 . S
C273 N268 1.363 . S
C273 N270 1.377 . S
C273 C286 1.479 . S
C274 C271 1.480 . S
C274 C275 1.383 . S
C274 C279 1.385 . S
C275 H256 0.947 . S
C275 C274 1.383 . S
C275 C276 1.388 . S
C276 H257 0.946 . S
C276 C275 1.388 . S
C276 C277 1.384 . S
C277 C276 1.384 . S
C277 C278 1.377 . S
C278 H258 0.953 . S
C278 C277 1.377 . S
C278 C279 1.369 . S
C279 H259 0.945 . S
C279 C274 1.385 . S
C279 C278 1.369 . S
C280 C272 1.457 . S
C280 C281 1.372 . S
C280 C285 1.364 . S
C281 H260 0.952 . S
C281 C280 1.372 . S
C281 C282 1.389 . S
C282 H261 0.949 . S
C282 C281 1.389 . S
C282 C283 1.387 . S
C283 C282 1.387 . S
C283 C284 1.372 . S
C284 H262 0.950 . S
C284 C283 1.372 . S
C284 C285 1.379 . S
C285 H263 0.948 . S
C285 C280 1.364 . S
C285 C284 1.379 . S
C286 C255 1.383 . S
C286 C273 1.479 . S
C286 C287 1.398 . S
C287 C252 1.382 . S
C287 H264 0.951 . S
C287 C286 1.398 . S
La288 C290 2.928 . S
La288 O308 2.521 . S
La288 O309 2.628 . S
La288 O310 2.554 1_545 S
La288 O311 2.757 1_545 S
La288 O312 2.470 . S
La288 O317 2.482 1_455 S
La288 O319 2.503 1_445 S
La289 C299 2.928 . S
La289 O311 2.482 1_655 S
La289 O313 2.503 1_665 S
La289 O314 2.521 . S
La289 O315 2.628 . S
La289 O316 2.554 1_565 S
La289 O317 2.757 1_565 S
La289 O318 2.470 . S
C290 La288 2.928 . S
C290 C291 1.503 . S
C290 O308 1.261 . S
C290 O309 1.243 . S
C291 C290 1.503 . S
C291 C292 1.394 . S
C291 C296 1.373 . S
C292 C291 1.394 . S
C292 C293 1.380 . S
C292 H320 0.930 . S
C293 C292 1.380 . S
C293 C294 1.376 . S
C293 H321 0.930 . S
C294 C293 1.376 . S
C294 C295 1.370 . S
C295 C294 1.370 . S
C295 C296 1.396 . S
C295 H322 0.929 . S
C296 C291 1.373 . S
C296 C295 1.396 . S
C296 H323 0.929 . S
C297 O310 1.240 . S
C297 O311 1.289 . S
C298 O312 1.258 . S
C298 O313 1.256 . S
C299 La289 2.928 . S
C299 C300 1.503 . S
C299 O314 1.261 . S
C299 O315 1.243 . S
C300 C299 1.503 . S
C300 C301 1.394 . S
C300 C305 1.373 . S
C301 C300 1.394 . S
C301 C302 1.380 . S
C301 H324 0.930 . S
C302 C301 1.380 . S
C302 C303 1.376 . S
C302 H325 0.930 . S
C303 C302 1.376 . S
C303 C304 1.370 . S
C304 C303 1.370 . S
C304 C305 1.396 . S
C304 H326 0.929 . S
C305 C300 1.373 . S
C305 C304 1.396 . S
C305 H327 0.929 . S
C306 O316 1.240 . S
C306 O317 1.289 . S
C307 O318 1.258 . S
C307 O319 1.256 . S
O308 La288 2.521 . S
O308 C290 1.261 . S
O309 La288 2.628 . S
O309 C290 1.243 . S
O310 La288 2.554 1_565 S
O310 C297 1.240 . S
O311 La288 2.757 1_565 S
O311 La289 2.482 1_455 S
O311 C297 1.289 . S
O312 La288 2.470 . S
O312 C298 1.258 . S
O313 La289 2.503 1_445 S
O313 C298 1.256 . S
O314 La289 2.521 . S
O314 C299 1.261 . S
O315 La289 2.628 . S
O315 C299 1.243 . S
O316 La289 2.554 1_545 S
O316 C306 1.240 . S
O317 La288 2.482 1_655 S
O317 La289 2.757 1_545 S
O317 C306 1.289 . S
O318 La289 2.470 . S
O318 C307 1.258 . S
O319 La288 2.503 1_665 S
O319 C307 1.256 . S
H320 C292 0.930 . S
H321 C293 0.930 . S
H322 C295 0.929 . S
H323 C296 0.929 . S
H324 C301 0.930 . S
H325 C302 0.930 . S
H326 C304 0.929 . S
H327 C305 0.929 . S
La328 C330 2.926 1_565 S
La328 O348 2.520 1_565 S
La328 O349 2.623 1_565 S
La328 O350 2.557 . S
La328 O351 2.759 . S
La328 O352 2.468 1_565 S
La328 O357 2.478 1_564 S
La328 O359 2.506 1_554 S
La329 C339 2.928 1_545 S
La329 O351 2.482 1_546 S
La329 O353 2.503 1_556 S
La329 O354 2.521 1_545 S
La329 O355 2.628 1_545 S
La329 O356 2.554 . S
La329 O357 2.757 . S
La329 O358 2.470 1_545 S
C330 La328 2.926 1_545 S
C330 C331 1.503 . S
C330 O348 1.261 . S
C330 O349 1.243 . S
C331 C330 1.503 . S
C331 C332 1.394 . S
C331 C336 1.373 . S
C332 C331 1.394 . S
C332 C333 1.380 . S
C332 H360 0.930 . S
C333 C332 1.380 . S
C333 C334 1.376 . S
C333 H361 0.930 . S
C334 C333 1.376 . S
C334 C335 1.370 . S
C335 C334 1.370 . S
C335 C336 1.396 . S
C335 H362 0.929 . S
C336 C331 1.373 . S
C336 C335 1.396 . S
C336 H363 0.929 . S
C337 O350 1.240 . S
C337 O351 1.289 . S
C338 O352 1.258 . S
C338 O353 1.256 . S
C339 La329 2.928 1_565 S
C339 C340 1.503 . S
C339 O354 1.261 . S
C339 O355 1.243 . S
C340 C339 1.503 . S
C340 C341 1.394 . S
C340 C345 1.373 . S
C341 C340 1.394 . S
C341 C342 1.380 . S
C341 H364 0.930 . S
C342 C341 1.380 . S
C342 C343 1.376 . S
C342 H365 0.930 . S
C343 C342 1.376 . S
C343 C344 1.370 . S
C344 C343 1.370 . S
C344 C345 1.396 . S
C344 H366 0.929 . S
C345 C340 1.373 . S
C345 C344 1.396 . S
C345 H367 0.929 . S
C346 O356 1.240 . S
C346 O357 1.289 . S
C347 O358 1.258 . S
C347 O359 1.256 . S
O348 La328 2.520 1_545 S
O348 C330 1.261 . S
O349 La328 2.623 1_545 S
O349 C330 1.243 . S
O350 La328 2.557 . S
O350 C337 1.240 . S
O351 La328 2.759 . S
O351 La329 2.482 1_564 S
O351 C337 1.289 . S
O352 La328 2.468 1_545 S
O352 C338 1.258 . S
O353 La329 2.503 1_554 S
O353 C338 1.256 . S
O354 La329 2.521 1_565 S
O354 C339 1.261 . S
O355 La329 2.628 1_565 S
O355 C339 1.243 . S
O356 La329 2.554 . S
O356 C346 1.240 . S
O357 La328 2.478 1_546 S
O357 La329 2.757 . S
O357 C346 1.289 . S
O358 La329 2.470 1_565 S
O358 C347 1.258 . S
O359 La328 2.506 1_556 S
O359 C347 1.256 . S
H360 C332 0.930 . S
H361 C333 0.930 . S
H362 C335 0.929 . S
H363 C336 0.929 . S
H364 C341 0.930 . S
H365 C342 0.930 . S
H366 C344 0.929 . S
H367 C345 0.929 . S
La368 C370 2.928 . S
La368 O388 2.521 . S
La368 O389 2.628 . S
La368 O390 2.554 . S
La368 O391 2.757 . S
La368 O392 2.470 . S
La368 O397 2.482 . S
La368 O399 2.503 . S
La369 C379 2.928 . S
La369 O391 2.482 . S
La369 O393 2.503 . S
La369 O394 2.521 . S
La369 O395 2.628 . S
La369 O396 2.554 . S
La369 O397 2.757 . S
La369 O398 2.470 . S
C370 La368 2.928 . S
C370 C371 1.503 . S
C370 O388 1.261 . S
C370 O389 1.243 . S
C371 C370 1.503 . S
C371 C372 1.394 . S
C371 C376 1.373 . S
C372 C371 1.394 . S
C372 C373 1.380 . S
C372 H400 0.930 . S
C373 C372 1.380 . S
C373 C374 1.376 . S
C373 H401 0.930 . S
C374 C373 1.376 . S
C374 C375 1.370 . S
C375 C374 1.370 . S
C375 C376 1.396 . S
C375 H402 0.929 . S
C376 C371 1.373 . S
C376 C375 1.396 . S
C376 H403 0.929 . S
C377 O390 1.240 . S
C377 O391 1.289 . S
C378 O392 1.258 . S
C378 O393 1.256 . S
C379 La369 2.928 . S
C379 C380 1.503 . S
C379 O394 1.261 . S
C379 O395 1.243 . S
C380 C379 1.503 . S
C380 C381 1.394 . S
C380 C385 1.373 . S
C381 C380 1.394 . S
C381 C382 1.380 . S
C381 H404 0.930 . S
C382 C381 1.380 . S
C382 C383 1.376 . S
C382 H405 0.930 . S
C383 C382 1.376 . S
C383 C384 1.370 . S
C384 C383 1.370 . S
C384 C385 1.396 . S
C384 H406 0.929 . S
C385 C380 1.373 . S
C385 C384 1.396 . S
C385 H407 0.929 . S
C386 O396 1.240 . S
C386 O397 1.289 . S
C387 O398 1.258 . S
C387 O399 1.256 . S
O388 La368 2.521 . S
O388 C370 1.261 . S
O389 La368 2.628 . S
O389 C370 1.243 . S
O390 La368 2.554 . S
O390 C377 1.240 . S
O391 La368 2.757 . S
O391 La369 2.482 . S
O391 C377 1.289 . S
O392 La368 2.470 . S
O392 C378 1.258 . S
O393 La369 2.503 . S
O393 C378 1.256 . S
O394 La369 2.521 . S
O394 C379 1.261 . S
O395 La369 2.628 . S
O395 C379 1.243 . S
O396 La369 2.554 . S
O396 C386 1.240 . S
O397 La368 2.482 . S
O397 La369 2.757 . S
O397 C386 1.289 . S
O398 La369 2.470 . S
O398 C387 1.258 . S
O399 La368 2.503 . S
O399 C387 1.256 . S
H400 C372 0.930 . S
H401 C373 0.930 . S
H402 C375 0.929 . S
H403 C376 0.929 . S
H404 C381 0.930 . S
H405 C382 0.930 . S
H406 C384 0.929 . S
H407 C385 0.929 . S
La408 C410 2.928 . S
La408 O428 2.521 . S
La408 O429 2.628 . S
La408 O430 2.554 1_455 S
La408 O431 2.757 1_455 S
La408 O432 2.470 . S
La408 O437 2.482 1_554 S
La408 O439 2.503 1_454 S
La409 C419 2.928 1_455 S
La409 O431 2.482 1_456 S
La409 O433 2.503 1_556 S
La409 O434 2.521 1_455 S
La409 O435 2.628 1_455 S
La409 O436 2.554 . S
La409 O437 2.757 . S
La409 O438 2.470 1_455 S
C410 La408 2.928 . S
C410 C411 1.503 . S
C410 O428 1.261 . S
C410 O429 1.243 . S
C411 C410 1.503 . S
C411 C412 1.394 . S
C411 C416 1.373 . S
C412 C411 1.394 . S
C412 C413 1.380 . S
C412 H440 0.930 . S
C413 C412 1.380 . S
C413 C414 1.376 . S
C413 H441 0.930 . S
C414 C413 1.376 . S
C414 C415 1.370 . S
C415 C414 1.370 . S
C415 C416 1.396 . S
C415 H442 0.929 . S
C416 C411 1.373 . S
C416 C415 1.396 . S
C416 H443 0.929 . S
C417 O430 1.240 . S
C417 O431 1.289 . S
C418 O432 1.258 . S
C418 O433 1.256 . S
C419 La409 2.928 1_655 S
C419 C420 1.503 . S
C419 O434 1.261 . S
C419 O435 1.243 . S
C420 C419 1.503 . S
C420 C421 1.394 . S
C420 C425 1.373 . S
C421 C420 1.394 . S
C421 C422 1.380 . S
C421 H444 0.930 . S
C422 C421 1.380 . S
C422 C423 1.376 . S
C422 H445 0.930 . S
C423 C422 1.376 . S
C423 C424 1.370 . S
C424 C423 1.370 . S
C424 C425 1.396 . S
C424 H446 0.929 . S
C425 C420 1.373 . S
C425 C424 1.396 . S
C425 H447 0.929 . S
C426 O436 1.240 . S
C426 O437 1.289 . S
C427 O438 1.258 . S
C427 O439 1.256 . S
O428 La408 2.521 . S
O428 C410 1.261 . S
O429 La408 2.628 . S
O429 C410 1.243 . S
O430 La408 2.554 1_655 S
O430 C417 1.240 . S
O431 La408 2.757 1_655 S
O431 La409 2.482 1_654 S
O431 C417 1.289 . S
O432 La408 2.470 . S
O432 C418 1.258 . S
O433 La409 2.503 1_554 S
O433 C418 1.256 . S
O434 La409 2.521 1_655 S
O434 C419 1.261 . S
O435 La409 2.628 1_655 S
O435 C419 1.243 . S
O436 La409 2.554 . S
O436 C426 1.240 . S
O437 La408 2.482 1_556 S
O437 La409 2.757 . S
O437 C426 1.289 . S
O438 La409 2.470 1_655 S
O438 C427 1.258 . S
O439 La408 2.503 1_656 S
O439 C427 1.256 . S
H440 C412 0.930 . S
H441 C413 0.930 . S
H442 C415 0.929 . S
H443 C416 0.929 . S
H444 C421 0.930 . S
H445 C422 0.930 . S
H446 C424 0.929 . S
H447 C425 0.929 . S
H448 C456 0.929 . S
H449 C458 0.930 . S
H450 C460 0.930 . S
H451 C463 0.929 . S
H452 C466 0.930 . S
H453 C468 0.960 . S
H454 C468 0.960 . S
H455 C468 0.960 . S
C456 H448 0.929 . S
C456 C457 1.377 . S
C456 C458 1.384 . S
C457 C456 1.377 . S
C457 C463 1.390 . S
C458 H449 0.930 . S
C458 C456 1.384 . S
C458 C459 1.372 . S
C459 C458 1.372 . S
C459 C460 1.400 . S
C459 C464 1.490 . S
C460 H450 0.930 . S
C460 C459 1.400 . S
C460 C463 1.386 . S
H461 C477 0.930 . S
H462 C478 0.931 . S
C463 H451 0.929 . S
C463 C457 1.390 . S
C463 C460 1.386 . S
C464 C459 1.490 . S
C464 C466 1.395 . S
C464 C467 1.403 . S
H465 C471 0.930 . S
C466 H452 0.930 . S
C466 C464 1.395 . S
C466 C469 1.403 . S
C467 C464 1.403 . S
C467 C468 1.524 . S
C467 C471 1.400 . S
C468 H453 0.960 . S
C468 H454 0.960 . S
C468 H455 0.960 . S
C468 C467 1.524 . S
C469 C466 1.403 . S
C469 C470 1.392 . S
C469 C473 1.495 . S
C470 C469 1.392 . S
C470 C471 1.385 . S
C470 C472 1.478 . S
C471 H465 0.930 . S
C471 C467 1.400 . S
C471 C470 1.385 . S
C472 C470 1.478 . S
C472 C474 1.381 . S
C472 C478 1.383 . S
C473 C469 1.495 . S
C473 H479 0.959 . S
C473 H480 0.961 . S
C473 H481 0.960 . S
C474 C472 1.381 . S
C474 C475 1.394 . S
C474 H482 0.930 . S
C475 C474 1.394 . S
C475 C476 1.383 . S
C475 H483 0.929 . S
C476 C475 1.383 . S
C476 C477 1.377 . S
C477 H461 0.930 . S
C477 C476 1.377 . S
C477 C478 1.379 . S
C478 H462 0.931 . S
C478 C472 1.383 . S
C478 C477 1.379 . S
H479 C473 0.959 . S
H480 C473 0.961 . S
H481 C473 0.960 . S
H482 C474 0.930 . S
H483 C475 0.929 . S
H484 C492 0.929 . S
H485 C494 0.930 . S
H486 C496 0.930 . S
H487 C499 0.929 . S
H488 C502 0.930 . S
H489 C504 0.960 . S
H490 C504 0.960 . S
H491 C504 0.960 . S
C492 H484 0.929 . S
C492 C493 1.377 . S
C492 C494 1.384 . S
C493 C492 1.377 . S
C493 C499 1.390 . S
C494 H485 0.930 . S
C494 C492 1.384 . S
C494 C495 1.372 . S
C495 C494 1.372 . S
C495 C496 1.400 . S
C495 C500 1.490 . S
C496 H486 0.930 . S
C496 C495 1.400 . S
C496 C499 1.386 . S
H497 C513 0.930 . S
H498 C514 0.931 . S
C499 H487 0.929 . S
C499 C493 1.390 . S
C499 C496 1.386 . S
C500 C495 1.490 . S
C500 C502 1.395 . S
C500 C503 1.403 . S
H501 C507 0.930 . S
C502 H488 0.930 . S
C502 C500 1.395 . S
C502 C505 1.403 . S
C503 C500 1.403 . S
C503 C504 1.524 . S
C503 C507 1.400 . S
C504 H489 0.960 . S
C504 H490 0.960 . S
C504 H491 0.960 . S
C504 C503 1.524 . S
C505 C502 1.403 . S
C505 C506 1.392 . S
C505 C509 1.495 . S
C506 C505 1.392 . S
C506 C507 1.385 . S
C506 C508 1.478 . S
C507 H501 0.930 . S
C507 C503 1.400 . S
C507 C506 1.385 . S
C508 C506 1.478 . S
C508 C510 1.381 . S
C508 C514 1.383 . S
C509 C505 1.495 . S
C509 H515 0.959 . S
C509 H516 0.961 . S
C509 H517 0.960 . S
C510 C508 1.381 . S
C510 C511 1.394 . S
C510 H518 0.930 . S
C511 C510 1.394 . S
C511 C512 1.383 . S
C511 H519 0.929 . S
C512 C511 1.383 . S
C512 C513 1.377 . S
C513 H497 0.930 . S
C513 C512 1.377 . S
C513 C514 1.379 . S
C514 H498 0.931 . S
C514 C508 1.383 . S
C514 C513 1.379 . S
H515 C509 0.959 . S
H516 C509 0.961 . S
H517 C509 0.960 . S
H518 C510 0.930 . S
H519 C511 0.929 . S
H520 C528 0.929 . S
H521 C530 0.930 . S
H522 C532 0.930 . S
H523 C535 0.929 . S
H524 C538 0.930 . S
H525 C540 0.960 . S
H526 C540 0.960 . S
H527 C540 0.960 . S
C528 H520 0.929 . S
C528 C529 1.377 . S
C528 C530 1.384 . S
C529 C528 1.377 . S
C529 C535 1.390 . S
C530 H521 0.930 . S
C530 C528 1.384 . S
C530 C531 1.372 . S
C531 C530 1.372 . S
C531 C532 1.400 . S
C531 C536 1.490 . S
C532 H522 0.930 . S
C532 C531 1.400 . S
C532 C535 1.386 . S
H533 C549 0.930 . S
H534 C550 0.931 . S
C535 H523 0.929 . S
C535 C529 1.390 . S
C535 C532 1.386 . S
C536 C531 1.490 . S
C536 C538 1.395 . S
C536 C539 1.403 . S
H537 C543 0.930 . S
C538 H524 0.930 . S
C538 C536 1.395 . S
C538 C541 1.403 . S
C539 C536 1.403 . S
C539 C540 1.524 . S
C539 C543 1.400 . S
C540 H525 0.960 . S
C540 H526 0.960 . S
C540 H527 0.960 . S
C540 C539 1.524 . S
C541 C538 1.403 . S
C541 C542 1.392 . S
C541 C545 1.495 . S
C542 C541 1.392 . S
C542 C543 1.385 . S
C542 C544 1.478 . S
C543 H537 0.930 . S
C543 C539 1.400 . S
C543 C542 1.385 . S
C544 C542 1.478 . S
C544 C546 1.381 . S
C544 C550 1.383 . S
C545 C541 1.495 . S
C545 H551 0.959 . S
C545 H552 0.961 . S
C545 H553 0.960 . S
C546 C544 1.381 . S
C546 C547 1.394 . S
C546 H554 0.930 . S
C547 C546 1.394 . S
C547 C548 1.383 . S
C547 H555 0.929 . S
C548 C547 1.383 . S
C548 C549 1.377 . S
C549 H533 0.930 . S
C549 C548 1.377 . S
C549 C550 1.379 . S
C550 H534 0.931 . S
C550 C544 1.383 . S
C550 C549 1.379 . S
H551 C545 0.959 . S
H552 C545 0.961 . S
H553 C545 0.960 . S
H554 C546 0.930 . S
H555 C547 0.929 . S
H556 C564 0.929 . S
H557 C566 0.930 . S
H558 C568 0.930 . S
H559 C571 0.929 . S
H560 C574 0.930 . S
H561 C576 0.960 . S
H562 C576 0.960 . S
H563 C576 0.960 . S
C564 H556 0.929 . S
C564 C565 1.377 . S
C564 C566 1.384 . S
C565 C564 1.377 . S
C565 C571 1.390 . S
C566 H557 0.930 . S
C566 C564 1.384 . S
C566 C567 1.372 . S
C567 C566 1.372 . S
C567 C568 1.400 . S
C567 C572 1.490 . S
C568 H558 0.930 . S
C568 C567 1.400 . S
C568 C571 1.386 . S
H569 C585 0.930 . S
H570 C586 0.931 . S
C571 H559 0.929 . S
C571 C565 1.390 . S
C571 C568 1.386 . S
C572 C567 1.490 . S
C572 C574 1.395 . S
C572 C575 1.403 . S
H573 C579 0.930 . S
C574 H560 0.930 . S
C574 C572 1.395 . S
C574 C577 1.403 . S
C575 C572 1.403 . S
C575 C576 1.524 . S
C575 C579 1.400 . S
C576 H561 0.960 . S
C576 H562 0.960 . S
C576 H563 0.960 . S
C576 C575 1.524 . S
C577 C574 1.403 . S
C577 C578 1.392 . S
C577 C581 1.495 . S
C578 C577 1.392 . S
C578 C579 1.385 . S
C578 C580 1.478 . S
C579 H573 0.930 . S
C579 C575 1.400 . S
C579 C578 1.385 . S
C580 C578 1.478 . S
C580 C582 1.381 . S
C580 C586 1.383 . S
C581 C577 1.495 . S
C581 H587 0.959 . S
C581 H588 0.961 . S
C581 H589 0.960 . S
C582 C580 1.381 . S
C582 C583 1.394 . S
C582 H590 0.930 . S
C583 C582 1.394 . S
C583 C584 1.383 . S
C583 H591 0.929 . S
C584 C583 1.383 . S
C584 C585 1.377 . S
C585 H569 0.930 . S
C585 C584 1.377 . S
C585 C586 1.379 . S
C586 H570 0.931 . S
C586 C580 1.383 . S
C586 C585 1.379 . S
H587 C581 0.959 . S
H588 C581 0.961 . S
H589 C581 0.960 . S
H590 C582 0.930 . S
H591 C583 0.929 . S
H592 C600 0.929 . S
H593 C602 0.930 . S
H594 C604 0.930 . S
H595 C607 0.929 . S
H596 C610 0.930 . S
H597 C612 0.960 . S
H598 C612 0.960 . S
H599 C612 0.960 . S
C600 H592 0.929 . S
C600 C601 1.377 . S
C600 C602 1.384 . S
C601 C600 1.377 . S
C601 C607 1.390 . S
C602 H593 0.930 . S
C602 C600 1.384 . S
C602 C603 1.372 . S
C603 C602 1.372 . S
C603 C604 1.400 . S
C603 C608 1.490 . S
C604 H594 0.930 . S
C604 C603 1.400 . S
C604 C607 1.386 . S
H605 C621 0.930 . S
H606 C622 0.931 . S
C607 H595 0.929 . S
C607 C601 1.390 . S
C607 C604 1.386 . S
C608 C603 1.490 . S
C608 C610 1.395 . S
C608 C611 1.403 . S
H609 C615 0.930 . S
C610 H596 0.930 . S
C610 C608 1.395 . S
C610 C613 1.403 . S
C611 C608 1.403 . S
C611 C612 1.524 . S
C611 C615 1.400 . S
C612 H597 0.960 . S
C612 H598 0.960 . S
C612 H599 0.960 . S
C612 C611 1.524 . S
C613 C610 1.403 . S
C613 C614 1.392 . S
C613 C617 1.495 . S
C614 C613 1.392 . S
C614 C615 1.385 . S
C614 C616 1.478 . S
C615 H609 0.930 . S
C615 C611 1.400 . S
C615 C614 1.385 . S
C616 C614 1.478 . S
C616 C618 1.381 . S
C616 C622 1.383 . S
C617 C613 1.495 . S
C617 H623 0.959 . S
C617 H624 0.961 . S
C617 H625 0.960 . S
C618 C616 1.381 . S
C618 C619 1.394 . S
C618 H626 0.930 . S
C619 C618 1.394 . S
C619 C620 1.383 . S
C619 H627 0.929 . S
C620 C619 1.383 . S
C620 C621 1.377 . S
C621 H605 0.930 . S
C621 C620 1.377 . S
C621 C622 1.379 . S
C622 H606 0.931 . S
C622 C616 1.383 . S
C622 C621 1.379 . S
H623 C617 0.959 . S
H624 C617 0.961 . S
H625 C617 0.960 . S
H626 C618 0.930 . S
H627 C619 0.929 . S
H628 C636 0.929 . S
H629 C638 0.930 . S
H630 C640 0.930 . S
H631 C643 0.929 . S
H632 C646 0.930 . S
H633 C648 0.960 . S
H634 C648 0.960 . S
H635 C648 0.960 . S
C636 H628 0.929 . S
C636 C637 1.377 . S
C636 C638 1.384 . S
C637 C636 1.377 . S
C637 C643 1.390 . S
C638 H629 0.930 . S
C638 C636 1.384 . S
C638 C639 1.372 . S
C639 C638 1.372 . S
C639 C640 1.400 . S
C639 C644 1.490 . S
C640 H630 0.930 . S
C640 C639 1.400 . S
C640 C643 1.386 . S
H641 C657 0.930 . S
H642 C658 0.931 . S
C643 H631 0.929 . S
C643 C637 1.390 . S
C643 C640 1.386 . S
C644 C639 1.490 . S
C644 C646 1.395 . S
C644 C647 1.403 . S
H645 C651 0.930 . S
C646 H632 0.930 . S
C646 C644 1.395 . S
C646 C649 1.403 . S
C647 C644 1.403 . S
C647 C648 1.524 . S
C647 C651 1.400 . S
C648 H633 0.960 . S
C648 H634 0.960 . S
C648 H635 0.960 . S
C648 C647 1.524 . S
C649 C646 1.403 . S
C649 C650 1.392 . S
C649 C653 1.495 . S
C650 C649 1.392 . S
C650 C651 1.385 . S
C650 C652 1.478 . S
C651 H645 0.930 . S
C651 C647 1.400 . S
C651 C650 1.385 . S
C652 C650 1.478 . S
C652 C654 1.381 . S
C652 C658 1.383 . S
C653 C649 1.495 . S
C653 H659 0.959 . S
C653 H660 0.961 . S
C653 H661 0.960 . S
C654 C652 1.381 . S
C654 C655 1.394 . S
C654 H662 0.930 . S
C655 C654 1.394 . S
C655 C656 1.383 . S
C655 H663 0.929 . S
C656 C655 1.383 . S
C656 C657 1.377 . S
C657 H641 0.930 . S
C657 C656 1.377 . S
C657 C658 1.379 . S
C658 H642 0.931 . S
C658 C652 1.383 . S
C658 C657 1.379 . S
H659 C653 0.959 . S
H660 C653 0.961 . S
H661 C653 0.960 . S
H662 C654 0.930 . S
H663 C655 0.929 . S
H664 C672 0.929 . S
H665 C674 0.930 . S
H666 C676 0.930 . S
H667 C679 0.929 . S
H668 C682 0.930 . S
H669 C684 0.960 . S
H670 C684 0.960 . S
H671 C684 0.960 . S
C672 H664 0.929 . S
C672 C673 1.377 . S
C672 C674 1.384 . S
C673 C672 1.377 . S
C673 C679 1.390 . S
C674 H665 0.930 . S
C674 C672 1.384 . S
C674 C675 1.372 . S
C675 C674 1.372 . S
C675 C676 1.400 . S
C675 C680 1.490 . S
C676 H666 0.930 . S
C676 C675 1.400 . S
C676 C679 1.386 . S
H677 C693 0.930 . S
H678 C694 0.931 . S
C679 H667 0.929 . S
C679 C673 1.390 . S
C679 C676 1.386 . S
C680 C675 1.490 . S
C680 C682 1.395 . S
C680 C683 1.403 . S
H681 C687 0.930 . S
C682 H668 0.930 . S
C682 C680 1.395 . S
C682 C685 1.403 . S
C683 C680 1.403 . S
C683 C684 1.524 . S
C683 C687 1.400 . S
C684 H669 0.960 . S
C684 H670 0.960 . S
C684 H671 0.960 . S
C684 C683 1.524 . S
C685 C682 1.403 . S
C685 C686 1.392 . S
C685 C689 1.495 . S
C686 C685 1.392 . S
C686 C687 1.385 . S
C686 C688 1.478 . S
C687 H681 0.930 . S
C687 C683 1.400 . S
C687 C686 1.385 . S
C688 C686 1.478 . S
C688 C690 1.381 . S
C688 C694 1.383 . S
C689 C685 1.495 . S
C689 H695 0.959 . S
C689 H696 0.961 . S
C689 H697 0.960 . S
C690 C688 1.381 . S
C690 C691 1.394 . S
C690 H698 0.930 . S
C691 C690 1.394 . S
C691 C692 1.383 . S
C691 H699 0.968 . S
C692 C691 1.383 . S
C692 C693 1.377 . S
C693 H677 0.930 . S
C693 C692 1.377 . S
C693 C694 1.379 . S
C694 H678 0.931 . S
C694 C688 1.383 . S
C694 C693 1.379 . S
H695 C689 0.959 . S
H696 C689 0.961 . S
H697 C689 0.960 . S
H698 C690 0.930 . S
H699 C691 0.968 . S
H700 C708 0.929 . S
H701 C710 0.930 . S
H702 C712 0.930 . S
H703 C715 0.929 . S
H704 C718 0.930 . S
H705 C720 0.960 . S
H706 C720 0.960 . S
H707 C720 0.960 . S
C708 H700 0.929 . S
C708 C709 1.377 . S
C708 C710 1.384 . S
C709 C708 1.377 . S
C709 C715 1.390 . S
C710 H701 0.930 . S
C710 C708 1.384 . S
C710 C711 1.372 . S
C711 C710 1.372 . S
C711 C712 1.400 . S
C711 C716 1.490 . S
C712 H702 0.930 . S
C712 C711 1.400 . S
C712 C715 1.386 . S
H713 C729 0.930 . S
H714 C730 0.931 . S
C715 H703 0.929 . S
C715 C709 1.390 . S
C715 C712 1.386 . S
C716 C711 1.490 . S
C716 C718 1.395 . S
C716 C719 1.403 . S
H717 C723 0.930 . S
C718 H704 0.930 . S
C718 C716 1.395 . S
C718 C721 1.403 . S
C719 C716 1.403 . S
C719 C720 1.524 . S
C719 C723 1.400 . S
C720 H705 0.960 . S
C720 H706 0.960 . S
C720 H707 0.960 . S
C720 C719 1.524 . S
C721 C718 1.403 . S
C721 C722 1.392 . S
C721 C725 1.495 . S
C722 C721 1.392 . S
C722 C723 1.385 . S
C722 C724 1.478 . S
C723 H717 0.930 . S
C723 C719 1.400 . S
C723 C722 1.385 . S
C724 C722 1.478 . S
C724 C726 1.381 . S
C724 C730 1.383 . S
C725 C721 1.495 . S
C725 H731 0.959 . S
C725 H732 0.961 . S
C725 H733 0.960 . S
C726 C724 1.381 . S
C726 C727 1.394 . S
C726 H734 0.930 . S
C727 C726 1.394 . S
C727 C728 1.383 . S
C727 H735 0.929 . S
C728 C727 1.383 . S
C728 C729 1.377 . S
C729 H713 0.930 . S
C729 C728 1.377 . S
C729 C730 1.379 . S
C730 H714 0.931 . S
C730 C724 1.383 . S
C730 C729 1.379 . S
H731 C725 0.959 . S
H732 C725 0.961 . S
H733 C725 0.960 . S
H734 C726 0.930 . S
H735 C727 0.929 . S
H736 C744 0.929 . S
H737 C746 0.930 . S
H738 C748 0.930 . S
H739 C751 0.929 . S
H740 C754 0.930 . S
H741 C756 0.960 . S
H742 C756 0.960 . S
H743 C756 0.960 . S
C744 H736 0.929 . S
C744 C745 1.377 . S
C744 C746 1.384 . S
C745 C744 1.377 . S
C745 C751 1.390 . S
C746 H737 0.930 . S
C746 C744 1.384 . S
C746 C747 1.372 . S
C747 C746 1.372 . S
C747 C748 1.400 . S
C747 C752 1.490 . S
C748 H738 0.930 . S
C748 C747 1.400 . S
C748 C751 1.386 . S
H749 C765 0.930 . S
H750 C766 0.931 . S
C751 H739 0.929 . S
C751 C745 1.390 . S
C751 C748 1.386 . S
C752 C747 1.490 . S
C752 C754 1.395 . S
C752 C755 1.403 . S
H753 C759 0.930 . S
C754 H740 0.930 . S
C754 C752 1.395 . S
C754 C757 1.403 . S
C755 C752 1.403 . S
C755 C756 1.524 . S
C755 C759 1.400 . S
C756 H741 0.960 . S
C756 H742 0.960 . S
C756 H743 0.960 . S
C756 C755 1.524 . S
C757 C754 1.403 . S
C757 C758 1.392 . S
C757 C761 1.495 . S
C758 C757 1.392 . S
C758 C759 1.385 . S
C758 C760 1.478 . S
C759 H753 0.930 . S
C759 C755 1.400 . S
C759 C758 1.385 . S
C760 C758 1.478 . S
C760 C762 1.381 . S
C760 C766 1.383 . S
C761 C757 1.495 . S
C761 H767 0.959 . S
C761 H768 0.961 . S
C761 H769 0.960 . S
C762 C760 1.381 . S
C762 C763 1.394 . S
C762 H770 0.930 . S
C763 C762 1.394 . S
C763 C764 1.383 . S
C763 H771 0.929 . S
C764 C763 1.383 . S
C764 C765 1.377 . S
C765 H749 0.930 . S
C765 C764 1.377 . S
C765 C766 1.379 . S
C766 H750 0.931 . S
C766 C760 1.383 . S
C766 C765 1.379 . S
H767 C761 0.959 . S
H768 C761 0.961 . S
H769 C761 0.960 . S
H770 C762 0.930 . S
H771 C763 0.929 . S
H772 C780 0.929 . S
H773 C782 0.930 . S
H774 C784 0.930 . S
H775 C787 0.929 . S
H776 C790 0.930 . S
H777 C792 0.960 . S
H778 C792 0.960 . S
H779 C792 0.960 . S
C780 H772 0.929 . S
C780 C781 1.377 . S
C780 C782 1.384 . S
C781 C780 1.377 . S
C781 C787 1.390 . S
C782 H773 0.930 . S
C782 C780 1.384 . S
C782 C783 1.372 . S
C783 C782 1.372 . S
C783 C784 1.400 . S
C783 C788 1.490 . S
C784 H774 0.930 . S
C784 C783 1.400 . S
C784 C787 1.386 . S
H785 C801 0.930 . S
H786 C802 0.931 . S
C787 H775 0.929 . S
C787 C781 1.390 . S
C787 C784 1.386 . S
C788 C783 1.490 . S
C788 C790 1.395 . S
C788 C791 1.403 . S
H789 C795 0.930 . S
C790 H776 0.930 . S
C790 C788 1.395 . S
C790 C793 1.403 . S
C791 C788 1.403 . S
C791 C792 1.524 . S
C791 C795 1.400 . S
C792 H777 0.960 . S
C792 H778 0.960 . S
C792 H779 0.960 . S
C792 C791 1.524 . S
C793 C790 1.403 . S
C793 C794 1.392 . S
C793 C797 1.495 . S
C794 C793 1.392 . S
C794 C795 1.385 . S
C794 C796 1.478 . S
C795 H789 0.930 . S
C795 C791 1.400 . S
C795 C794 1.385 . S
C796 C794 1.478 . S
C796 C798 1.381 . S
C796 C802 1.383 . S
C797 C793 1.495 . S
C797 H803 0.959 . S
C797 H804 0.961 . S
C797 H805 0.960 . S
C798 C796 1.381 . S
C798 C799 1.394 . S
C798 H806 0.930 . S
C799 C798 1.394 . S
C799 C800 1.383 . S
C799 H807 0.929 . S
C800 C799 1.383 . S
C800 C801 1.377 . S
C801 H785 0.930 . S
C801 C800 1.377 . S
C801 C802 1.379 . S
C802 H786 0.931 . S
C802 C796 1.383 . S
C802 C801 1.379 . S
H803 C797 0.959 . S
H804 C797 0.961 . S
H805 C797 0.960 . S
H806 C798 0.930 . S
H807 C799 0.929 . S
H808 C816 0.929 . S
H809 C818 0.930 . S
H810 C820 0.930 . S
H811 C823 0.929 . S
H812 C826 0.930 . S
H813 C828 0.960 . S
H814 C828 0.960 . S
H815 C828 0.960 . S
C816 H808 0.929 . S
C816 C817 1.377 . S
C816 C818 1.384 . S
C817 C816 1.377 . S
C817 C823 1.390 . S
C818 H809 0.930 . S
C818 C816 1.384 . S
C818 C819 1.372 . S
C819 C818 1.372 . S
C819 C820 1.400 . S
C819 C824 1.490 . S
C820 H810 0.930 . S
C820 C819 1.400 . S
C820 C823 1.386 . S
H821 C837 0.930 . S
H822 C838 0.931 . S
C823 H811 0.929 . S
C823 C817 1.390 . S
C823 C820 1.386 . S
C824 C819 1.490 . S
C824 C826 1.395 . S
C824 C827 1.403 . S
H825 C831 0.930 . S
C826 H812 0.930 . S
C826 C824 1.395 . S
C826 C829 1.403 . S
C827 C824 1.403 . S
C827 C828 1.524 . S
C827 C831 1.400 . S
C828 H813 0.960 . S
C828 H814 0.960 . S
C828 H815 0.960 . S
C828 C827 1.524 . S
C829 C826 1.403 . S
C829 C830 1.392 . S
C829 C833 1.495 . S
C830 C829 1.392 . S
C830 C831 1.385 . S
C830 C832 1.478 . S
C831 H825 0.930 . S
C831 C827 1.400 . S
C831 C830 1.385 . S
C832 C830 1.478 . S
C832 C834 1.381 . S
C832 C838 1.383 . S
C833 C829 1.495 . S
C833 H839 0.959 . S
C833 H840 0.961 . S
C833 H841 0.960 . S
C834 C832 1.381 . S
C834 C835 1.394 . S
C834 H842 0.930 . S
C835 C834 1.394 . S
C835 C836 1.383 . S
C835 H843 0.929 . S
C836 C835 1.383 . S
C836 C837 1.377 . S
C837 H821 0.930 . S
C837 C836 1.377 . S
C837 C838 1.379 . S
C838 H822 0.931 . S
C838 C832 1.383 . S
C838 C837 1.379 . S
H839 C833 0.959 . S
H840 C833 0.961 . S
H841 C833 0.960 . S
H842 C834 0.930 . S
H843 C835 0.929 . S
H844 C852 0.929 . S
H845 C854 0.930 . S
H846 C856 0.930 . S
H847 C859 0.929 . S
H848 C862 0.930 . S
H849 C864 0.960 . S
H850 C864 0.960 . S
H851 C864 0.960 . S
C852 H844 0.929 . S
C852 C853 1.377 . S
C852 C854 1.384 . S
C853 C852 1.377 . S
C853 C859 1.390 . S
C854 H845 0.930 . S
C854 C852 1.384 . S
C854 C855 1.372 . S
C855 C854 1.372 . S
C855 C856 1.400 . S
C855 C860 1.490 . S
C856 H846 0.930 . S
C856 C855 1.400 . S
C856 C859 1.386 . S
H857 C873 0.930 . S
H858 C874 0.931 . S
C859 H847 0.929 . S
C859 C853 1.390 . S
C859 C856 1.386 . S
C860 C855 1.490 . S
C860 C862 1.395 . S
C860 C863 1.403 . S
H861 C867 0.930 . S
C862 H848 0.930 . S
C862 C860 1.395 . S
C862 C865 1.403 . S
C863 C860 1.403 . S
C863 C864 1.524 . S
C863 C867 1.400 . S
C864 H849 0.960 . S
C864 H850 0.960 . S
C864 H851 0.960 . S
C864 C863 1.524 . S
C865 C862 1.403 . S
C865 C866 1.392 . S
C865 C869 1.495 . S
C866 C865 1.392 . S
C866 C867 1.385 . S
C866 C868 1.478 . S
C867 H861 0.930 . S
C867 C863 1.400 . S
C867 C866 1.385 . S
C868 C866 1.478 . S
C868 C870 1.381 . S
C868 C874 1.383 . S
C869 C865 1.495 . S
C869 H875 0.959 . S
C869 H876 0.961 . S
C869 H877 0.960 . S
C870 C868 1.381 . S
C870 C871 1.394 . S
C870 H878 0.930 . S
C871 C870 1.394 . S
C871 C872 1.383 . S
C871 H879 0.929 . S
C872 C871 1.383 . S
C872 C873 1.377 . S
C873 H857 0.930 . S
C873 C872 1.377 . S
C873 C874 1.379 . S
C874 H858 0.931 . S
C874 C868 1.383 . S
C874 C873 1.379 . S
H875 C869 0.959 . S
H876 C869 0.961 . S
H877 C869 0.960 . S
H878 C870 0.930 . S
H879 C871 0.929 . S
H880 C888 0.929 . S
H881 C890 0.930 . S
H882 C892 0.930 . S
H883 C895 0.929 . S
H884 C898 0.930 . S
H885 C900 0.960 . S
H886 C900 0.960 . S
H887 C900 0.960 . S
C888 H880 0.929 . S
C888 C889 1.377 . S
C888 C890 1.384 . S
C889 C888 1.377 . S
C889 C895 1.390 . S
C890 H881 0.930 . S
C890 C888 1.384 . S
C890 C891 1.372 . S
C891 C890 1.372 . S
C891 C892 1.400 . S
C891 C896 1.490 . S
C892 H882 0.930 . S
C892 C891 1.400 . S
C892 C895 1.386 . S
H893 C909 0.930 . S
H894 C910 0.931 . S
C895 H883 0.929 . S
C895 C889 1.390 . S
C895 C892 1.386 . S
C896 C891 1.490 . S
C896 C898 1.395 . S
C896 C899 1.403 . S
H897 C903 0.930 . S
C898 H884 0.930 . S
C898 C896 1.395 . S
C898 C901 1.403 . S
C899 C896 1.403 . S
C899 C900 1.524 . S
C899 C903 1.400 . S
C900 H885 0.960 . S
C900 H886 0.960 . S
C900 H887 0.960 . S
C900 C899 1.524 . S
C901 C898 1.403 . S
C901 C902 1.392 . S
C901 C905 1.495 . S
C902 C901 1.392 . S
C902 C903 1.385 . S
C902 C904 1.478 . S
C903 H897 0.930 . S
C903 C899 1.400 . S
C903 C902 1.385 . S
C904 C902 1.478 . S
C904 C906 1.381 . S
C904 C910 1.383 . S
C905 C901 1.495 . S
C905 H911 0.959 . S
C905 H912 0.961 . S
C905 H913 0.960 . S
C906 C904 1.381 . S
C906 C907 1.394 . S
C906 H914 0.930 . S
C907 C906 1.394 . S
C907 C908 1.383 . S
C907 H915 0.929 . S
C908 C907 1.383 . S
C908 C909 1.377 . S
C909 H893 0.930 . S
C909 C908 1.377 . S
C909 C910 1.379 . S
C910 H894 0.931 . S
C910 C904 1.383 . S
C910 C909 1.379 . S
H911 C905 0.959 . S
H912 C905 0.961 . S
H913 C905 0.960 . S
H914 C906 0.930 . S
H915 C907 0.929 . S
H916 C924 0.929 . S
H917 C926 0.930 . S
H918 C928 0.930 . S
H919 C931 0.929 . S
H920 C934 0.930 . S
H921 C936 0.960 . S
H922 C936 0.960 . S
H923 C936 0.960 . S
C924 H916 0.929 . S
C924 C925 1.377 . S
C924 C926 1.384 . S
C925 C924 1.377 . S
C925 C931 1.390 . S
C926 H917 0.930 . S
C926 C924 1.384 . S
C926 C927 1.372 . S
C927 C926 1.372 . S
C927 C928 1.400 . S
C927 C932 1.490 . S
C928 H918 0.930 . S
C928 C927 1.400 . S
C928 C931 1.386 . S
H929 C945 0.930 . S
H930 C946 0.931 . S
C931 H919 0.929 . S
C931 C925 1.390 . S
C931 C928 1.386 . S
C932 C927 1.490 . S
C932 C934 1.395 . S
C932 C935 1.403 . S
H933 C939 0.930 . S
C934 H920 0.930 . S
C934 C932 1.395 . S
C934 C937 1.403 . S
C935 C932 1.403 . S
C935 C936 1.524 . S
C935 C939 1.400 . S
C936 H921 0.960 . S
C936 H922 0.960 . S
C936 H923 0.960 . S
C936 C935 1.524 . S
C937 C934 1.403 . S
C937 C938 1.392 . S
C937 C941 1.495 . S
C938 C937 1.392 . S
C938 C939 1.385 . S
C938 C940 1.478 . S
C939 H933 0.930 . S
C939 C935 1.400 . S
C939 C938 1.385 . S
C940 C938 1.478 . S
C940 C942 1.381 . S
C940 C946 1.383 . S
C941 C937 1.495 . S
C941 H947 0.959 . S
C941 H948 0.961 . S
C941 H949 0.960 . S
C942 C940 1.381 . S
C942 C943 1.394 . S
C942 H950 0.930 . S
C943 C942 1.394 . S
C943 C944 1.383 . S
C943 H951 0.929 . S
C944 C943 1.383 . S
C944 C945 1.377 . S
C945 H929 0.930 . S
C945 C944 1.377 . S
C945 C946 1.379 . S
C946 H930 0.931 . S
C946 C940 1.383 . S
C946 C945 1.379 . S
H947 C941 0.959 . S
H948 C941 0.961 . S
H949 C941 0.960 . S
H950 C942 0.930 . S
H951 C943 0.929 . S
H952 C960 0.929 . S
H953 C962 0.930 . S
H954 C964 0.930 . S
H955 C967 0.929 . S
H956 C970 0.930 . S
H957 C972 0.960 . S
H958 C972 0.960 . S
H959 C972 0.960 . S
C960 H952 0.929 . S
C960 C961 1.377 . S
C960 C962 1.384 . S
C961 C960 1.377 . S
C961 C967 1.390 . S
C962 H953 0.930 . S
C962 C960 1.384 . S
C962 C963 1.372 . S
C963 C962 1.372 . S
C963 C964 1.400 . S
C963 C968 1.490 . S
C964 H954 0.930 . S
C964 C963 1.400 . S
C964 C967 1.386 . S
H965 C981 0.930 . S
H966 C982 0.931 . S
C967 H955 0.929 . S
C967 C961 1.390 . S
C967 C964 1.386 . S
C968 C963 1.490 . S
C968 C970 1.395 . S
C968 C971 1.403 . S
H969 C975 0.930 . S
C970 H956 0.930 . S
C970 C968 1.395 . S
C970 C973 1.403 . S
C971 C968 1.403 . S
C971 C972 1.524 . S
C971 C975 1.400 . S
C972 H957 0.960 . S
C972 H958 0.960 . S
C972 H959 0.960 . S
C972 C971 1.524 . S
C973 C970 1.403 . S
C973 C974 1.392 . S
C973 C977 1.495 . S
C974 C973 1.392 . S
C974 C975 1.385 . S
C974 C976 1.478 . S
C975 H969 0.930 . S
C975 C971 1.400 . S
C975 C974 1.385 . S
C976 C974 1.478 . S
C976 C978 1.381 . S
C976 C982 1.383 . S
C977 C973 1.495 . S
C977 H983 0.959 . S
C977 H984 0.961 . S
C977 H985 0.960 . S
C978 C976 1.381 . S
C978 C979 1.394 . S
C978 H986 0.930 . S
C979 C978 1.394 . S
C979 C980 1.383 . S
C979 H987 0.929 . S
C980 C979 1.383 . S
C980 C981 1.377 . S
C981 H965 0.930 . S
C981 C980 1.377 . S
C981 C982 1.379 . S
C982 H966 0.931 . S
C982 C976 1.383 . S
C982 C981 1.379 . S
H983 C977 0.959 . S
H984 C977 0.961 . S
H985 C977 0.960 . S
H986 C978 0.930 . S
H987 C979 0.929 . S
H988 C996 0.929 . S
H989 C998 0.930 . S
H990 C1000 0.930 . S
H991 C1003 0.929 . S
H992 C1006 0.930 . S
H993 C1008 0.960 . S
H994 C1008 0.960 . S
H995 C1008 0.960 . S
C996 H988 0.929 . S
C996 C997 1.377 . S
C996 C998 1.384 . S
C997 C996 1.377 . S
C997 C1003 1.390 . S
C998 H989 0.930 . S
C998 C996 1.384 . S
C998 C999 1.372 . S
C999 C998 1.372 . S
C999 C1000 1.400 . S
C999 C1004 1.490 . S
C1000 H990 0.930 . S
C1000 C999 1.400 . S
C1000 C1003 1.386 . S
H1001 C1017 0.930 . S
H1002 C1018 0.931 . S
C1003 H991 0.929 . S
C1003 C997 1.390 . S
C1003 C1000 1.386 . S
C1004 C999 1.490 . S
C1004 C1006 1.395 . S
C1004 C1007 1.403 . S
H1005 C1011 0.930 . S
C1006 H992 0.930 . S
C1006 C1004 1.395 . S
C1006 C1009 1.403 . S
C1007 C1004 1.403 . S
C1007 C1008 1.524 . S
C1007 C1011 1.400 . S
C1008 H993 0.960 . S
C1008 H994 0.960 . S
C1008 H995 0.960 . S
C1008 C1007 1.524 . S
C1009 C1006 1.403 . S
C1009 C1010 1.392 . S
C1009 C1013 1.495 . S
C1010 C1009 1.392 . S
C1010 C1011 1.385 . S
C1010 C1012 1.478 . S
C1011 H1005 0.930 . S
C1011 C1007 1.400 . S
C1011 C1010 1.385 . S
C1012 C1010 1.478 . S
C1012 C1014 1.381 . S
C1012 C1018 1.383 . S
C1013 C1009 1.495 . S
C1013 H1019 0.959 . S
C1013 H1020 0.961 . S
C1013 H1021 0.960 . S
C1014 C1012 1.381 . S
C1014 C1015 1.394 . S
C1014 H1022 0.930 . S
C1015 C1014 1.394 . S
C1015 C1016 1.383 . S
C1015 H1023 0.929 . S
C1016 C1015 1.383 . S
C1016 C1017 1.377 . S
C1017 H1001 0.930 . S
C1017 C1016 1.377 . S
C1017 C1018 1.379 . S
C1018 H1002 0.931 . S
C1018 C1012 1.383 . S
C1018 C1017 1.379 . S
H1019 C1013 0.959 . S
H1020 C1013 0.961 . S
H1021 C1013 0.960 . S
H1022 C1014 0.930 . S
H1023 C1015 0.929 . S
H1024 C1032 0.929 . S
H1025 C1034 0.930 . S
H1026 C1036 0.930 . S
H1027 C1039 0.929 . S
H1028 C1042 0.930 . S
H1029 C1044 0.960 . S
H1030 C1044 0.960 . S
H1031 C1044 0.960 . S
C1032 H1024 0.929 . S
C1032 C1033 1.377 . S
C1032 C1034 1.384 . S
C1033 C1032 1.377 . S
C1033 C1039 1.390 . S
C1034 H1025 0.930 . S
C1034 C1032 1.384 . S
C1034 C1035 1.372 . S
C1035 C1034 1.372 . S
C1035 C1036 1.400 . S
C1035 C1040 1.490 . S
C1036 H1026 0.930 . S
C1036 C1035 1.400 . S
C1036 C1039 1.386 . S
H1037 C1053 0.930 . S
H1038 C1054 0.931 . S
C1039 H1027 0.929 . S
C1039 C1033 1.390 . S
C1039 C1036 1.386 . S
C1040 C1035 1.490 . S
C1040 C1042 1.395 . S
C1040 C1043 1.403 . S
H1041 C1047 0.930 . S
C1042 H1028 0.930 . S
C1042 C1040 1.395 . S
C1042 C1045 1.403 . S
C1043 C1040 1.403 . S
C1043 C1044 1.524 . S
C1043 C1047 1.400 . S
C1044 H1029 0.960 . S
C1044 H1030 0.960 . S
C1044 H1031 0.960 . S
C1044 C1043 1.524 . S
C1045 C1042 1.403 . S
C1045 C1046 1.392 . S
C1045 C1049 1.495 . S
C1046 C1045 1.392 . S
C1046 C1047 1.385 . S
C1046 C1048 1.478 . S
C1047 H1041 0.930 . S
C1047 C1043 1.400 . S
C1047 C1046 1.385 . S
C1048 C1046 1.478 . S
C1048 C1050 1.381 . S
C1048 C1054 1.383 . S
C1049 C1045 1.495 . S
C1049 H1055 0.959 . S
C1049 H1056 0.961 . S
C1049 H1057 0.960 . S
C1050 C1048 1.381 . S
C1050 C1051 1.394 . S
C1050 H1058 0.930 . S
C1051 C1050 1.394 . S
C1051 C1052 1.383 . S
C1051 H1059 0.929 . S
C1052 C1051 1.383 . S
C1052 C1053 1.377 . S
C1053 H1037 0.930 . S
C1053 C1052 1.377 . S
C1053 C1054 1.379 . S
C1054 H1038 0.931 . S
C1054 C1048 1.383 . S
C1054 C1053 1.379 . S
H1055 C1049 0.959 . S
H1056 C1049 0.961 . S
H1057 C1049 0.960 . S
H1058 C1050 0.930 . S
H1059 C1051 0.929 . S
H1060 C1068 0.929 . S
H1061 C1070 0.930 . S
H1062 C1072 0.930 . S
H1063 C1075 0.929 . S
H1064 C1078 0.930 . S
H1065 C1080 0.960 . S
H1066 C1080 0.960 . S
H1067 C1080 0.960 . S
C1068 H1060 0.929 . S
C1068 C1069 1.377 . S
C1068 C1070 1.384 . S
C1069 C1068 1.377 . S
C1069 C1075 1.390 . S
C1070 H1061 0.930 . S
C1070 C1068 1.384 . S
C1070 C1071 1.372 . S
C1071 C1070 1.372 . S
C1071 C1072 1.400 . S
C1071 C1076 1.490 . S
C1072 H1062 0.930 . S
C1072 C1071 1.400 . S
C1072 C1075 1.386 . S
H1073 C1089 0.930 . S
H1074 C1090 0.931 . S
C1075 H1063 0.929 . S
C1075 C1069 1.390 . S
C1075 C1072 1.386 . S
C1076 C1071 1.490 . S
C1076 C1078 1.395 . S
C1076 C1079 1.403 . S
H1077 C1083 0.930 . S
C1078 H1064 0.930 . S
C1078 C1076 1.395 . S
C1078 C1081 1.403 . S
C1079 C1076 1.403 . S
C1079 C1080 1.524 . S
C1079 C1083 1.400 . S
C1080 H1065 0.960 . S
C1080 H1066 0.960 . S
C1080 H1067 0.960 . S
C1080 C1079 1.524 . S
C1081 C1078 1.403 . S
C1081 C1082 1.392 . S
C1081 C1085 1.495 . S
C1082 C1081 1.392 . S
C1082 C1083 1.385 . S
C1082 C1084 1.478 . S
C1083 H1077 0.930 . S
C1083 C1079 1.400 . S
C1083 C1082 1.385 . S
C1084 C1082 1.478 . S
C1084 C1086 1.381 . S
C1084 C1090 1.383 . S
C1085 C1081 1.495 . S
C1085 H1091 0.959 . S
C1085 H1092 0.961 . S
C1085 H1093 0.960 . S
C1086 C1084 1.381 . S
C1086 C1087 1.394 . S
C1086 H1094 0.930 . S
C1087 C1086 1.394 . S
C1087 C1088 1.383 . S
C1087 H1095 0.929 . S
C1088 C1087 1.383 . S
C1088 C1089 1.377 . S
C1089 H1073 0.930 . S
C1089 C1088 1.377 . S
C1089 C1090 1.379 . S
C1090 H1074 0.931 . S
C1090 C1084 1.383 . S
C1090 C1089 1.379 . S
H1091 C1085 0.959 . S
H1092 C1085 0.961 . S
H1093 C1085 0.960 . S
H1094 C1086 0.930 . S
H1095 C1087 0.929 . S
H1096 C1104 0.929 . S
H1097 C1106 0.930 . S
H1098 C1108 0.930 . S
H1099 C1111 0.929 . S
H1100 C1114 0.930 . S
H1101 C1116 0.960 . S
H1102 C1116 0.960 . S
H1103 C1116 0.960 . S
C1104 H1096 0.929 . S
C1104 C1105 1.377 . S
C1104 C1106 1.384 . S
C1105 C1104 1.377 . S
C1105 C1111 1.390 . S
C1106 H1097 0.930 . S
C1106 C1104 1.384 . S
C1106 C1107 1.372 . S
C1107 C1106 1.372 . S
C1107 C1108 1.400 . S
C1107 C1112 1.490 . S
C1108 H1098 0.930 . S
C1108 C1107 1.400 . S
C1108 C1111 1.386 . S
H1109 C1125 0.930 . S
H1110 C1126 0.931 . S
C1111 H1099 0.929 . S
C1111 C1105 1.390 . S
C1111 C1108 1.386 . S
C1112 C1107 1.490 . S
C1112 C1114 1.395 . S
C1112 C1115 1.403 . S
H1113 C1119 0.930 . S
C1114 H1100 0.930 . S
C1114 C1112 1.395 . S
C1114 C1117 1.403 . S
C1115 C1112 1.403 . S
C1115 C1116 1.524 . S
C1115 C1119 1.400 . S
C1116 H1101 0.960 . S
C1116 H1102 0.960 . S
C1116 H1103 0.960 . S
C1116 C1115 1.524 . S
C1117 C1114 1.403 . S
C1117 C1118 1.392 . S
C1117 C1121 1.495 . S
C1118 C1117 1.392 . S
C1118 C1119 1.385 . S
C1118 C1120 1.478 . S
C1119 H1113 0.930 . S
C1119 C1115 1.400 . S
C1119 C1118 1.385 . S
C1120 C1118 1.478 . S
C1120 C1122 1.381 . S
C1120 C1126 1.383 . S
C1121 C1117 1.495 . S
C1121 H1127 0.959 . S
C1121 H1128 0.961 . S
C1121 H1129 0.960 . S
C1122 C1120 1.381 . S
C1122 C1123 1.394 . S
C1122 H1130 0.930 . S
C1123 C1122 1.394 . S
C1123 C1124 1.383 . S
C1123 H1131 0.929 . S
C1124 C1123 1.383 . S
C1124 C1125 1.377 . S
C1125 H1109 0.930 . S
C1125 C1124 1.377 . S
C1125 C1126 1.379 . S
C1126 H1110 0.931 . S
C1126 C1120 1.383 . S
C1126 C1125 1.379 . S
H1127 C1121 0.959 . S
H1128 C1121 0.961 . S
H1129 C1121 0.960 . S
H1130 C1122 0.930 . S
H1131 C1123 0.929 . S
H1132 C1140 0.929 . S
H1133 C1142 0.930 . S
H1134 C1144 0.930 . S
H1135 C1147 0.929 . S
H1136 C1150 0.930 . S
H1137 C1152 0.960 . S
H1138 C1152 0.960 . S
H1139 C1152 0.960 . S
C1140 H1132 0.929 . S
C1140 C1141 1.377 . S
C1140 C1142 1.384 . S
C1141 C1140 1.377 . S
C1141 C1147 1.390 . S
C1142 H1133 0.930 . S
C1142 C1140 1.384 . S
C1142 C1143 1.372 . S
C1143 C1142 1.372 . S
C1143 C1144 1.400 . S
C1143 C1148 1.490 . S
C1144 H1134 0.930 . S
C1144 C1143 1.400 . S
C1144 C1147 1.386 . S
H1145 C1161 0.930 . S
H1146 C1162 0.931 . S
C1147 H1135 0.929 . S
C1147 C1141 1.390 . S
C1147 C1144 1.386 . S
C1148 C1143 1.490 . S
C1148 C1150 1.395 . S
C1148 C1151 1.403 . S
H1149 C1155 0.930 . S
C1150 H1136 0.930 . S
C1150 C1148 1.395 . S
C1150 C1153 1.403 . S
C1151 C1148 1.403 . S
C1151 C1152 1.524 . S
C1151 C1155 1.400 . S
C1152 H1137 0.960 . S
C1152 H1138 0.960 . S
C1152 H1139 0.960 . S
C1152 C1151 1.524 . S
C1153 C1150 1.403 . S
C1153 C1154 1.392 . S
C1153 C1157 1.495 . S
C1154 C1153 1.392 . S
C1154 C1155 1.385 . S
C1154 C1156 1.478 . S
C1155 H1149 0.930 . S
C1155 C1151 1.400 . S
C1155 C1154 1.385 . S
C1156 C1154 1.478 . S
C1156 C1158 1.381 . S
C1156 C1162 1.383 . S
C1157 C1153 1.495 . S
C1157 H1163 0.959 . S
C1157 H1164 0.961 . S
C1157 H1165 0.960 . S
C1158 C1156 1.381 . S
C1158 C1159 1.394 . S
C1158 H1166 0.930 . S
C1159 C1158 1.394 . S
C1159 C1160 1.383 . S
C1159 H1167 0.929 . S
C1160 C1159 1.383 . S
C1160 C1161 1.377 . S
C1161 H1145 0.930 . S
C1161 C1160 1.377 . S
C1161 C1162 1.379 . S
C1162 H1146 0.931 . S
C1162 C1156 1.383 . S
C1162 C1161 1.379 . S
H1163 C1157 0.959 . S
H1164 C1157 0.961 . S
H1165 C1157 0.960 . S
H1166 C1158 0.930 . S
H1167 C1159 0.929 . S
H1168 C1176 0.929 . S
H1169 C1178 0.930 . S
H1170 C1180 0.930 . S
H1171 C1183 0.929 . S
H1172 C1186 0.930 . S
H1173 C1188 0.960 . S
H1174 C1188 0.960 . S
H1175 C1188 0.960 . S
C1176 H1168 0.929 . S
C1176 C1177 1.377 . S
C1176 C1178 1.384 . S
C1177 C1176 1.377 . S
C1177 C1183 1.390 . S
C1178 H1169 0.930 . S
C1178 C1176 1.384 . S
C1178 C1179 1.372 . S
C1179 C1178 1.372 . S
C1179 C1180 1.400 . S
C1179 C1184 1.490 . S
C1180 H1170 0.930 . S
C1180 C1179 1.400 . S
C1180 C1183 1.386 . S
H1181 C1197 0.930 . S
H1182 C1198 0.931 . S
C1183 H1171 0.929 . S
C1183 C1177 1.390 . S
C1183 C1180 1.386 . S
C1184 C1179 1.490 . S
C1184 C1186 1.395 . S
C1184 C1187 1.403 . S
H1185 C1191 0.930 . S
C1186 H1172 0.930 . S
C1186 C1184 1.395 . S
C1186 C1189 1.403 . S
C1187 C1184 1.403 . S
C1187 C1188 1.524 . S
C1187 C1191 1.400 . S
C1188 H1173 0.960 . S
C1188 H1174 0.960 . S
C1188 H1175 0.960 . S
C1188 C1187 1.524 . S
C1189 C1186 1.403 . S
C1189 C1190 1.392 . S
C1189 C1193 1.495 . S
C1190 C1189 1.392 . S
C1190 C1191 1.385 . S
C1190 C1192 1.478 . S
C1191 H1185 0.930 . S
C1191 C1187 1.400 . S
C1191 C1190 1.385 . S
C1192 C1190 1.478 . S
C1192 C1194 1.381 . S
C1192 C1198 1.383 . S
C1193 C1189 1.495 . S
C1193 H1199 0.959 . S
C1193 H1200 0.961 . S
C1193 H1201 0.960 . S
C1194 C1192 1.381 . S
C1194 C1195 1.394 . S
C1194 H1202 0.930 . S
C1195 C1194 1.394 . S
C1195 C1196 1.383 . S
C1195 H1203 0.929 . S
C1196 C1195 1.383 . S
C1196 C1197 1.377 . S
C1197 H1181 0.930 . S
C1197 C1196 1.377 . S
C1197 C1198 1.379 . S
C1198 H1182 0.931 . S
C1198 C1192 1.383 . S
C1198 C1197 1.379 . S
H1199 C1193 0.959 . S
H1200 C1193 0.961 . S
H1201 C1193 0.960 . S
H1202 C1194 0.930 . S
H1203 C1195 0.929 . S
H1204 C1212 0.929 . S
H1205 C1214 0.930 . S
H1206 C1216 0.930 . S
H1207 C1219 0.929 . S
H1208 C1222 0.930 . S
H1209 C1224 0.960 . S
H1210 C1224 0.960 . S
H1211 C1224 0.960 . S
C1212 H1204 0.929 . S
C1212 C1213 1.377 . S
C1212 C1214 1.384 . S
C1213 C1212 1.377 . S
C1213 C1219 1.390 . S
C1214 H1205 0.930 . S
C1214 C1212 1.384 . S
C1214 C1215 1.372 . S
C1215 C1214 1.372 . S
C1215 C1216 1.400 . S
C1215 C1220 1.490 . S
C1216 H1206 0.930 . S
C1216 C1215 1.400 . S
C1216 C1219 1.386 . S
H1217 C1233 0.930 . S
H1218 C1234 0.931 . S
C1219 H1207 0.929 . S
C1219 C1213 1.390 . S
C1219 C1216 1.386 . S
C1220 C1215 1.490 . S
C1220 C1222 1.395 . S
C1220 C1223 1.403 . S
H1221 C1227 0.930 . S
C1222 H1208 0.930 . S
C1222 C1220 1.395 . S
C1222 C1225 1.403 . S
C1223 C1220 1.403 . S
C1223 C1224 1.524 . S
C1223 C1227 1.400 . S
C1224 H1209 0.960 . S
C1224 H1210 0.960 . S
C1224 H1211 0.960 . S
C1224 C1223 1.524 . S
C1225 C1222 1.403 . S
C1225 C1226 1.392 . S
C1225 C1229 1.495 . S
C1226 C1225 1.392 . S
C1226 C1227 1.385 . S
C1226 C1228 1.478 . S
C1227 H1221 0.930 . S
C1227 C1223 1.400 . S
C1227 C1226 1.385 . S
C1228 C1226 1.478 . S
C1228 C1230 1.381 . S
C1228 C1234 1.383 . S
C1229 C1225 1.495 . S
C1229 H1235 0.959 . S
C1229 H1236 0.961 . S
C1229 H1237 0.960 . S
C1230 C1228 1.381 . S
C1230 C1231 1.394 . S
C1230 H1238 0.930 . S
C1231 C1230 1.394 . S
C1231 C1232 1.383 . S
C1231 H1239 0.929 . S
C1232 C1231 1.383 . S
C1232 C1233 1.377 . S
C1233 H1217 0.930 . S
C1233 C1232 1.377 . S
C1233 C1234 1.379 . S
C1234 H1218 0.931 . S
C1234 C1228 1.383 . S
C1234 C1233 1.379 . S
H1235 C1229 0.959 . S
H1236 C1229 0.961 . S
H1237 C1229 0.960 . S
H1238 C1230 0.930 . S
H1239 C1231 0.929 . S
H1240 C1248 0.929 . S
H1241 C1250 0.930 . S
H1242 C1252 0.930 . S
H1243 C1255 0.929 . S
H1244 C1258 0.930 . S
H1245 C1260 0.960 . S
H1246 C1260 0.960 . S
H1247 C1260 0.960 . S
C1248 H1240 0.929 . S
C1248 C1249 1.377 . S
C1248 C1250 1.384 . S
C1249 C1248 1.377 . S
C1249 C1255 1.390 . S
C1250 H1241 0.930 . S
C1250 C1248 1.384 . S
C1250 C1251 1.372 . S
C1251 C1250 1.372 . S
C1251 C1252 1.400 . S
C1251 C1256 1.490 . S
C1252 H1242 0.930 . S
C1252 C1251 1.400 . S
C1252 C1255 1.386 . S
H1253 C1269 0.930 . S
H1254 C1270 0.931 . S
C1255 H1243 0.929 . S
C1255 C1249 1.390 . S
C1255 C1252 1.386 . S
C1256 C1251 1.490 . S
C1256 C1258 1.395 . S
C1256 C1259 1.403 . S
H1257 C1263 0.930 . S
C1258 H1244 0.930 . S
C1258 C1256 1.395 . S
C1258 C1261 1.403 . S
C1259 C1256 1.403 . S
C1259 C1260 1.524 . S
C1259 C1263 1.400 . S
C1260 H1245 0.960 . S
C1260 H1246 0.960 . S
C1260 H1247 0.960 . S
C1260 C1259 1.524 . S
C1261 C1258 1.403 . S
C1261 C1262 1.392 . S
C1261 C1265 1.495 . S
C1262 C1261 1.392 . S
C1262 C1263 1.385 . S
C1262 C1264 1.478 . S
C1263 H1257 0.930 . S
C1263 C1259 1.400 . S
C1263 C1262 1.385 . S
C1264 C1262 1.478 . S
C1264 C1266 1.381 . S
C1264 C1270 1.383 . S
C1265 C1261 1.495 . S
C1265 H1271 0.959 . S
C1265 H1272 0.961 . S
C1265 H1273 0.960 . S
C1266 C1264 1.381 . S
C1266 C1267 1.394 . S
C1266 H1274 0.930 . S
C1267 C1266 1.394 . S
C1267 C1268 1.383 . S
C1267 H1275 0.929 . S
C1268 C1267 1.383 . S
C1268 C1269 1.377 . S
C1269 H1253 0.930 . S
C1269 C1268 1.377 . S
C1269 C1270 1.379 . S
C1270 H1254 0.931 . S
C1270 C1264 1.383 . S
C1270 C1269 1.379 . S
H1271 C1265 0.959 . S
H1272 C1265 0.961 . S
H1273 C1265 0.960 . S
H1274 C1266 0.930 . S
H1275 C1267 0.929 . S
H1276 C1284 0.929 . S
H1277 C1286 0.930 . S
H1278 C1288 0.930 . S
H1279 C1291 0.929 . S
H1280 C1294 0.930 . S
H1281 C1296 0.960 . S
H1282 C1296 0.960 . S
H1283 C1296 0.960 . S
C1284 H1276 0.929 . S
C1284 C1285 1.377 . S
C1284 C1286 1.384 . S
C1285 C1284 1.377 . S
C1285 C1291 1.390 . S
C1286 H1277 0.930 . S
C1286 C1284 1.384 . S
C1286 C1287 1.372 . S
C1287 C1286 1.372 . S
C1287 C1288 1.400 . S
C1287 C1292 1.490 . S
C1288 H1278 0.930 . S
C1288 C1287 1.400 . S
C1288 C1291 1.386 . S
H1289 C1305 0.930 . S
H1290 C1306 0.931 . S
C1291 H1279 0.929 . S
C1291 C1285 1.390 . S
C1291 C1288 1.386 . S
C1292 C1287 1.490 . S
C1292 C1294 1.395 . S
C1292 C1295 1.403 . S
H1293 C1299 0.930 . S
C1294 H1280 0.930 . S
C1294 C1292 1.395 . S
C1294 C1297 1.403 . S
C1295 C1292 1.403 . S
C1295 C1296 1.524 . S
C1295 C1299 1.400 . S
C1296 H1281 0.960 . S
C1296 H1282 0.960 . S
C1296 H1283 0.960 . S
C1296 C1295 1.524 . S
C1297 C1294 1.403 . S
C1297 C1298 1.392 . S
C1297 C1301 1.495 . S
C1298 C1297 1.392 . S
C1298 C1299 1.385 . S
C1298 C1300 1.478 . S
C1299 H1293 0.930 . S
C1299 C1295 1.400 . S
C1299 C1298 1.385 . S
C1300 C1298 1.478 . S
C1300 C1302 1.381 . S
C1300 C1306 1.383 . S
C1301 C1297 1.495 . S
C1301 H1307 0.959 . S
C1301 H1308 0.961 . S
C1301 H1309 0.960 . S
C1302 C1300 1.381 . S
C1302 C1303 1.394 . S
C1302 H1310 0.930 . S
C1303 C1302 1.394 . S
C1303 C1304 1.383 . S
C1303 H1311 0.929 . S
C1304 C1303 1.383 . S
C1304 C1305 1.377 . S
C1305 H1289 0.930 . S
C1305 C1304 1.377 . S
C1305 C1306 1.379 . S
C1306 H1290 0.931 . S
C1306 C1300 1.383 . S
C1306 C1305 1.379 . S
H1307 C1301 0.959 . S
H1308 C1301 0.961 . S
H1309 C1301 0.960 . S
H1310 C1302 0.930 . S
H1311 C1303 0.929 . S
C457 C1 1.206 . S
C476 C294 1.218 . S
C493 C67 0.910 . S
C512 C343 0.916 . S
C548 C378 2.424 . S
C529 C97 2.482 . S
C565 C133 2.363 . S
C584 C417 2.278 . S
C620 C338 2.456 . S
C601 C25 2.423 . S
C656 C297 0.913 . S
C637 C37 0.890 . S
C692 C427 1.841 . S
C673 C103 1.913 . S
C728 C386 1.539 . S
C709 C109 1.564 . S
C745 C31 1.705 . S
C764 C414 1.730 . S
C800 C346 2.303 . S
C781 C73 2.389 . S
C817 C139 2.366 . S
C836 C307 2.334 . S
C853 C61 0.712 . S
C872 C383 0.721 . S
C908 C303 1.235 . S
C889 C175 1.167 . S
C925 C181 0.888 . S
C944 C334 0.871 . S
C961 C247 2.508 . S
C980 C387 2.452 . S
C997 C277 2.349 . S
C1016 C426 2.269 . S
C1033 C145 2.343 . S
C1052 C347 2.444 . S
C1088 C306 0.819 . S
C1069 C211 0.891 . S
C1124 C418 1.827 . S
C1105 C217 1.891 . S
C1160 C377 1.526 . S
C1141 C283 1.584 . S
C1177 C169 1.643 . S
C1196 C423 1.725 . S
C1232 C337 2.298 . S
C1213 C241 2.393 . S
C1268 C298 2.318 . S
C1249 C253 2.351 . S
C1285 C205 0.715 . S
C1304 C374 0.733 . S
