# Generated by pormake.
# Topology ptr, (4,4)-cn, num edge types: 1
# Building blocks:
#     Node 0, Type 0, BuildingBlock: GALJAG_clean_sbu_0, # of connection points: 4
#     Node 1, Type 0, BuildingBlock: GALJAG_clean_sbu_0, # of connection points: 4
#     Node 2, Type 0, BuildingBlock: GALJAG_clean_sbu_0, # of connection points: 4
#     Node 3, Type 0, BuildingBlock: GALJAG_clean_sbu_0, # of connection points: 4
#     Node 4, Type 0, BuildingBlock: GALJAG_clean_sbu_0, # of connection points: 4
#     Node 5, Type 0, BuildingBlock: GALJAG_clean_sbu_0, # of connection points: 4
#     Node 6, Type 0, BuildingBlock: GALJAG_clean_sbu_0, # of connection points: 4
#     Node 7, Type 0, BuildingBlock: GALJAG_clean_sbu_0, # of connection points: 4
#     Node 8, Type 0, BuildingBlock: GALJAG_clean_sbu_0, # of connection points: 4
#     Node 9, Type 0, BuildingBlock: GALJAG_clean_sbu_0, # of connection points: 4
#     Node 10, Type 0, BuildingBlock: GALJAG_clean_sbu_0, # of connection points: 4
#     Node 11, Type 0, BuildingBlock: GALJAG_clean_sbu_0, # of connection points: 4
#     Node 12, Type 0, BuildingBlock: GALJAG_clean_sbu_0, # of connection points: 4
#     Node 13, Type 0, BuildingBlock: GALJAG_clean_sbu_0, # of connection points: 4
#     Node 14, Type 0, BuildingBlock: GALJAG_clean_sbu_0, # of connection points: 4
#     Node 15, Type 0, BuildingBlock: GALJAG_clean_sbu_0, # of connection points: 4
#     Node 16, Type 0, BuildingBlock: GALJAG_clean_sbu_0, # of connection points: 4
#     Node 17, Type 0, BuildingBlock: GALJAG_clean_sbu_0, # of connection points: 4
#     Node 18, Type 1, BuildingBlock: GIZVER_clean_linker_0, # of connection points: 4
#     Node 19, Type 1, BuildingBlock: GIZVER_clean_linker_0, # of connection points: 4
#     Node 20, Type 1, BuildingBlock: GIZVER_clean_linker_0, # of connection points: 4
#     Node 21, Type 1, BuildingBlock: GIZVER_clean_linker_0, # of connection points: 4
#     Node 22, Type 1, BuildingBlock: GIZVER_clean_linker_0, # of connection points: 4
#     Node 23, Type 1, BuildingBlock: GIZVER_clean_linker_0, # of connection points: 4
#     Node 24, Type 1, BuildingBlock: GIZVER_clean_linker_0, # of connection points: 4
#     Node 25, Type 1, BuildingBlock: GIZVER_clean_linker_0, # of connection points: 4
#     Node 26, Type 1, BuildingBlock: GIZVER_clean_linker_0, # of connection points: 4
#     Node 27, Type 1, BuildingBlock: GIZVER_clean_linker_0, # of connection points: 4
#     Node 28, Type 1, BuildingBlock: GIZVER_clean_linker_0, # of connection points: 4
#     Node 29, Type 1, BuildingBlock: GIZVER_clean_linker_0, # of connection points: 4
#     Node 30, Type 1, BuildingBlock: GIZVER_clean_linker_0, # of connection points: 4
#     Node 31, Type 1, BuildingBlock: GIZVER_clean_linker_0, # of connection points: 4
#     Node 32, Type 1, BuildingBlock: GIZVER_clean_linker_0, # of connection points: 4
#     Node 33, Type 1, BuildingBlock: GIZVER_clean_linker_0, # of connection points: 4
#     Node 34, Type 1, BuildingBlock: GIZVER_clean_linker_0, # of connection points: 4
#     Node 35, Type 1, BuildingBlock: GIZVER_clean_linker_0, # of connection points: 4
#     Edge 36, Type (0, 1), BuildingBlock: MIFKUJ_clean_linker_0, # of connection points: 2
#     Edge 37, Type (0, 1), BuildingBlock: MIFKUJ_clean_linker_0, # of connection points: 2
#     Edge 38, Type (0, 1), BuildingBlock: MIFKUJ_clean_linker_0, # of connection points: 2
#     Edge 39, Type (0, 1), BuildingBlock: MIFKUJ_clean_linker_0, # of connection points: 2
#     Edge 40, Type (0, 1), BuildingBlock: MIFKUJ_clean_linker_0, # of connection points: 2
#     Edge 41, Type (0, 1), BuildingBlock: MIFKUJ_clean_linker_0, # of connection points: 2
#     Edge 42, Type (0, 1), BuildingBlock: MIFKUJ_clean_linker_0, # of connection points: 2
#     Edge 43, Type (0, 1), BuildingBlock: MIFKUJ_clean_linker_0, # of connection points: 2
#     Edge 44, Type (0, 1), BuildingBlock: MIFKUJ_clean_linker_0, # of connection points: 2
#     Edge 45, Type (0, 1), BuildingBlock: MIFKUJ_clean_linker_0, # of connection points: 2
#     Edge 46, Type (0, 1), BuildingBlock: MIFKUJ_clean_linker_0, # of connection points: 2
#     Edge 47, Type (0, 1), BuildingBlock: MIFKUJ_clean_linker_0, # of connection points: 2
#     Edge 48, Type (0, 1), BuildingBlock: MIFKUJ_clean_linker_0, # of connection points: 2
#     Edge 49, Type (0, 1), BuildingBlock: MIFKUJ_clean_linker_0, # of connection points: 2
#     Edge 50, Type (0, 1), BuildingBlock: MIFKUJ_clean_linker_0, # of connection points: 2
#     Edge 51, Type (0, 1), BuildingBlock: MIFKUJ_clean_linker_0, # of connection points: 2
#     Edge 52, Type (0, 1), BuildingBlock: MIFKUJ_clean_linker_0, # of connection points: 2
#     Edge 53, Type (0, 1), BuildingBlock: MIFKUJ_clean_linker_0, # of connection points: 2
#     Edge 54, Type (0, 1), BuildingBlock: MIFKUJ_clean_linker_0, # of connection points: 2
#     Edge 55, Type (0, 1), BuildingBlock: MIFKUJ_clean_linker_0, # of connection points: 2
#     Edge 56, Type (0, 1), BuildingBlock: MIFKUJ_clean_linker_0, # of connection points: 2
#     Edge 57, Type (0, 1), BuildingBlock: MIFKUJ_clean_linker_0, # of connection points: 2
#     Edge 58, Type (0, 1), BuildingBlock: MIFKUJ_clean_linker_0, # of connection points: 2
#     Edge 59, Type (0, 1), BuildingBlock: MIFKUJ_clean_linker_0, # of connection points: 2
#     Edge 60, Type (0, 1), BuildingBlock: MIFKUJ_clean_linker_0, # of connection points: 2
#     Edge 61, Type (0, 1), BuildingBlock: MIFKUJ_clean_linker_0, # of connection points: 2
#     Edge 62, Type (0, 1), BuildingBlock: MIFKUJ_clean_linker_0, # of connection points: 2
#     Edge 63, Type (0, 1), BuildingBlock: MIFKUJ_clean_linker_0, # of connection points: 2
#     Edge 64, Type (0, 1), BuildingBlock: MIFKUJ_clean_linker_0, # of connection points: 2
#     Edge 65, Type (0, 1), BuildingBlock: MIFKUJ_clean_linker_0, # of connection points: 2
#     Edge 66, Type (0, 1), BuildingBlock: MIFKUJ_clean_linker_0, # of connection points: 2
#     Edge 67, Type (0, 1), BuildingBlock: MIFKUJ_clean_linker_0, # of connection points: 2
#     Edge 68, Type (0, 1), BuildingBlock: MIFKUJ_clean_linker_0, # of connection points: 2
#     Edge 69, Type (0, 1), BuildingBlock: MIFKUJ_clean_linker_0, # of connection points: 2
#     Edge 70, Type (0, 1), BuildingBlock: MIFKUJ_clean_linker_0, # of connection points: 2
#     Edge 71, Type (0, 1), BuildingBlock: MIFKUJ_clean_linker_0, # of connection points: 2
#     Edge 72, Type (0, 1), BuildingBlock: MIFKUJ_clean_linker_0, # of connection points: 2
#     Edge 73, Type (0, 1), BuildingBlock: MIFKUJ_clean_linker_0, # of connection points: 2
#     Edge 74, Type (0, 1), BuildingBlock: MIFKUJ_clean_linker_0, # of connection points: 2
#     Edge 75, Type (0, 1), BuildingBlock: MIFKUJ_clean_linker_0, # of connection points: 2
#     Edge 76, Type (0, 1), BuildingBlock: MIFKUJ_clean_linker_0, # of connection points: 2
#     Edge 77, Type (0, 1), BuildingBlock: MIFKUJ_clean_linker_0, # of connection points: 2
#     Edge 78, Type (0, 1), BuildingBlock: MIFKUJ_clean_linker_0, # of connection points: 2
#     Edge 79, Type (0, 1), BuildingBlock: MIFKUJ_clean_linker_0, # of connection points: 2
#     Edge 80, Type (0, 1), BuildingBlock: MIFKUJ_clean_linker_0, # of connection points: 2
#     Edge 81, Type (0, 1), BuildingBlock: MIFKUJ_clean_linker_0, # of connection points: 2
#     Edge 82, Type (0, 1), BuildingBlock: MIFKUJ_clean_linker_0, # of connection points: 2
#     Edge 83, Type (0, 1), BuildingBlock: MIFKUJ_clean_linker_0, # of connection points: 2
#     Edge 84, Type (0, 1), BuildingBlock: MIFKUJ_clean_linker_0, # of connection points: 2
#     Edge 85, Type (0, 1), BuildingBlock: MIFKUJ_clean_linker_0, # of connection points: 2
#     Edge 86, Type (0, 1), BuildingBlock: MIFKUJ_clean_linker_0, # of connection points: 2
#     Edge 87, Type (0, 1), BuildingBlock: MIFKUJ_clean_linker_0, # of connection points: 2
#     Edge 88, Type (0, 1), BuildingBlock: MIFKUJ_clean_linker_0, # of connection points: 2
#     Edge 89, Type (0, 1), BuildingBlock: MIFKUJ_clean_linker_0, # of connection points: 2
#     Edge 90, Type (0, 1), BuildingBlock: MIFKUJ_clean_linker_0, # of connection points: 2
#     Edge 91, Type (0, 1), BuildingBlock: MIFKUJ_clean_linker_0, # of connection points: 2
#     Edge 92, Type (0, 1), BuildingBlock: MIFKUJ_clean_linker_0, # of connection points: 2
#     Edge 93, Type (0, 1), BuildingBlock: MIFKUJ_clean_linker_0, # of connection points: 2
#     Edge 94, Type (0, 1), BuildingBlock: MIFKUJ_clean_linker_0, # of connection points: 2
#     Edge 95, Type (0, 1), BuildingBlock: MIFKUJ_clean_linker_0, # of connection points: 2
#     Edge 96, Type (0, 1), BuildingBlock: MIFKUJ_clean_linker_0, # of connection points: 2
#     Edge 97, Type (0, 1), BuildingBlock: MIFKUJ_clean_linker_0, # of connection points: 2
#     Edge 98, Type (0, 1), BuildingBlock: MIFKUJ_clean_linker_0, # of connection points: 2
#     Edge 99, Type (0, 1), BuildingBlock: MIFKUJ_clean_linker_0, # of connection points: 2
#     Edge 100, Type (0, 1), BuildingBlock: MIFKUJ_clean_linker_0, # of connection points: 2
#     Edge 101, Type (0, 1), BuildingBlock: MIFKUJ_clean_linker_0, # of connection points: 2
#     Edge 102, Type (0, 1), BuildingBlock: MIFKUJ_clean_linker_0, # of connection points: 2
#     Edge 103, Type (0, 1), BuildingBlock: MIFKUJ_clean_linker_0, # of connection points: 2
#     Edge 104, Type (0, 1), BuildingBlock: MIFKUJ_clean_linker_0, # of connection points: 2
#     Edge 105, Type (0, 1), BuildingBlock: MIFKUJ_clean_linker_0, # of connection points: 2
#     Edge 106, Type (0, 1), BuildingBlock: MIFKUJ_clean_linker_0, # of connection points: 2
#     Edge 107, Type (0, 1), BuildingBlock: MIFKUJ_clean_linker_0, # of connection points: 2
# Relax obj value: 0.069
# Max RMSD: 0.094
# Mean RMSD: 0.093
data_MOF--net-ptr--node1-GALJAG_clean_sbu_0--node2-GIZVER_clean_linker_0--edge1-MIFKUJ_clean_linker_0
_symmetry_space_group_name_H-M    P1
_symmetry_Int_Tables_number       1
_symmetry_cell_setting            triclinic
loop_
_symmetry_equiv_pos_as_xyz
'x, y, z'
_cell_length_a     102.0956
_cell_length_b     102.12002
_cell_length_c     65.937773
_cell_angle_alpha  90.217098
_cell_angle_beta   90.271602
_cell_angle_gamma 120.11801
loop_
_atom_site_label
_atom_site_type_symbol
_atom_site_fract_x
_atom_site_fract_y
_atom_site_fract_z
_atom_type_partial_charge
In0 In 0.00874 0.37317 0.00807 0.0
O1 O 1.00044 0.3777 0.0381 0.0
O2 O 0.02105 0.3952 0.02595 0.0
C3 C 0.9846 0.34545 -0.00041 0.0
C4 C 0.0318 0.36851 0.01805 0.0
C5 C 0.00864 0.39004 0.97652 0.0
O6 O 0.98369 0.35495 0.01087 0.0
O7 O 0.99763 0.34988 0.99263 0.0
O8 O 0.01741 0.38469 0.97727 0.0
O9 O 0.99975 0.38652 0.99128 0.0
C10 C 0.01142 0.39107 0.03993 0.0
O11 O 0.03212 0.37597 0.00264 0.0
O12 O 0.01977 0.36322 0.02823 0.0
In13 In 0.64204 0.64379 0.01964 0.0
O14 O 0.64022 0.63181 0.0499 0.0
O15 O 0.62089 0.63227 0.0391 0.0
C16 C 0.66892 0.64622 0.01041 0.0
C17 C 0.64697 0.67239 0.02512 0.0
C18 C 0.62509 0.62581 0.98862 0.0
O19 O 0.66422 0.6447 0.02843 0.0
O20 O 0.66014 0.64666 0.99719 0.0
O21 O 0.62954 0.6398 0.98925 0.0
O22 O 0.62943 0.62107 0.00336 0.0
C23 C 0.6265 0.62783 0.05259 0.0
O24 O 0.63418 0.66131 0.02067 0.0
O25 O 0.65729 0.66913 0.02665 0.0
In26 In 0.37713 0.00981 0.01445 0.0
O27 O 0.37904 0.03283 0.0203 0.0
O28 O 0.36769 0.02082 0.99344 0.0
C29 C 0.39535 0.00974 0.04442 0.0
C30 C 0.39367 0.01049 0.98224 0.0
C31 C 0.34917 0.98721 0.02496 0.0
O32 O 0.3915 0.01969 0.04343 0.0
O33 O 0.38991 0.99989 0.03055 0.0
O34 O 0.35616 0.98624 0.00984 0.0
O35 O 0.35618 0.99956 0.03456 0.0
C36 C 0.37219 0.03259 0.00418 0.0
O37 O 0.38157 0.99871 0.98722 0.0
O38 O 0.39729 0.02194 0.99332 0.0
In39 In 0.01087 0.64726 0.01051 0.0
O40 O 0.0227 0.64184 0.98508 0.0
O41 O 0.99874 0.62911 0.986 0.0
C42 C 0.0342 0.67521 0.02014 0.0
C43 C 0.98718 0.65199 0.00552 0.0
C44 C 0.0107 0.62872 0.03986 0.0
O45 O 0.03081 0.67055 0.00208 0.0
O46 O 0.02583 0.66584 0.03328 0.0
O47 O 1.0014 0.63345 0.03953 0.0
O48 O 0.02019 0.63356 0.02567 0.0
C49 C 0.01065 0.6313 0.97738 0.0
O50 O 0.9867 0.64198 0.01716 0.0
O51 O 0.99961 0.65966 0.99649 0.0
In52 In 0.37275 0.371 0.01571 0.0
O53 O 0.37762 0.38698 0.9888 0.0
O54 O 0.39327 0.3796 0.995 0.0
C55 C 0.34474 0.36577 0.02522 0.0
C56 C 0.3674 0.34264 0.0077 0.0
C57 C 0.39012 0.38907 0.04649 0.0
O58 O 0.35064 0.37057 0.00809 0.0
O59 O 0.35293 0.36353 0.03751 0.0
O60 O 0.38766 0.37576 0.04395 0.0
O61 O 0.38357 0.39311 0.0338 0.0
C62 C 0.38988 0.38759 0.98411 0.0
O63 O 0.37663 0.35105 0.02119 0.0
O64 O 0.36079 0.34846 0.99835 0.0
In65 In 0.64232 0.00831 0.01844 0.0
O66 O 0.63841 0.00889 0.05268 0.0
O67 O 0.62624 0.01512 0.03263 0.0
C68 C 0.67081 0.03119 0.0113 0.0
C69 C 0.64332 0.98271 0.02598 0.0
C70 C 0.62551 0.00544 0.985 0.0
O71 O 0.66318 0.03136 0.02624 0.0
O72 O 0.66408 0.01955 0.00018 0.0
O73 O 0.62486 0.99419 0.9938 0.0
O74 O 0.63492 0.01805 0.99266 0.0
C75 C 0.62862 0.01289 0.05068 0.0
O76 O 0.63113 0.98303 0.02572 0.0
O77 O 0.65497 0.99524 0.02227 0.0
In78 In 0.67324 0.70763 0.34689 0.0
O79 O 0.67204 0.71266 0.38057 0.0
O80 O 0.66812 0.72565 0.3591 0.0
C81 C 0.64966 0.67909 0.34077 0.0
C82 C 0.69841 0.70604 0.35568 0.0
C83 C 0.67684 0.72408 0.31323 0.0
O84 O 0.64794 0.68964 0.3477 0.0
O85 O 0.66319 0.68288 0.337 0.0
O86 O 0.68663 0.72866 0.3273 0.0
O87 O 0.6656 0.71101 0.31581 0.0
C88 C 0.66925 0.72319 0.37752 0.0
O89 O 0.69646 0.71047 0.33866 0.0
O90 O 0.68779 0.70252 0.36803 0.0
In91 In 0.31063 0.97565 0.35685 0.0
O92 O 0.3042 0.9577 0.38158 0.0
O93 O 0.29075 0.96801 0.37853 0.0
C94 C 0.33918 0.98169 0.34904 0.0
C95 C 0.31585 0.00394 0.36486 0.0
C96 C 0.29367 0.95784 0.32551 0.0
O97 O 0.33274 0.97639 0.36576 0.0
O98 O 0.33131 0.98411 0.33643 0.0
O99 O 0.29421 0.97013 0.32999 0.0
O100 O 0.3018 0.95471 0.33661 0.0
C101 C 0.2929 0.95844 0.38768 0.0
O102 O 0.30875 0.99653 0.34923 0.0
O103 O 0.32046 0.99716 0.37627 0.0
In104 In 0.04181 0.34601 0.34262 0.0
O105 O 0.04799 0.37088 0.34568 0.0
O106 O 0.0279 0.35596 0.32957 0.0
C107 C 0.06021 0.3458 0.37208 0.0
C108 C 0.05685 0.34547 0.30927 0.0
C109 C 0.01492 0.32224 0.35399 0.0
O110 O 0.05413 0.35393 0.37328 0.0
O111 O 0.05694 0.33784 0.35619 0.0
O112 O 0.01938 0.3242 0.33584 0.0
O113 O 0.0239 0.33234 0.36622 0.0
C114 C 0.03666 0.36927 0.3358 0.0
O115 O 0.0447 0.33407 0.31498 0.0
O116 O 0.06111 0.35718 0.32001 0.0
In117 In 0.67591 0.97885 0.35081 0.0
O118 O 0.68636 0.97519 0.32221 0.0
O119 O 0.66442 0.95782 0.33047 0.0
C120 C 0.69866 0.00704 0.36034 0.0
C121 C 0.65237 0.98332 0.34288 0.0
C122 C 0.67742 0.96208 0.38154 0.0
O123 O 0.69913 0.99962 0.3453 0.0
O124 O 0.68668 1.00028 0.37061 0.0
O125 O 0.66653 0.96449 0.37944 0.0
O126 O 0.68767 0.96842 0.36851 0.0
C127 C 0.6753 0.96221 0.31833 0.0
O128 O 0.6518 0.9741 0.35602 0.0
O129 O 0.66483 0.99033 0.3337 0.0
In130 In 0.03858 0.70981 0.34392 0.0
O131 O 0.04308 0.72037 0.3123 0.0
O132 O 0.06201 0.72522 0.33106 0.0
C133 C 0.01055 0.70602 0.35008 0.0
C134 C 0.03589 0.68297 0.33303 0.0
C135 C 0.05406 0.72469 0.37768 0.0
O136 O 0.0212 0.7178 0.34237 0.0
O137 O 0.01393 0.69609 0.35447 0.0
O138 O 0.05012 0.71101 0.37434 0.0
O139 O 0.04985 0.73062 0.36433 0.0
C140 C 0.05732 0.72731 0.31434 0.0
O141 O 0.03933 0.68818 0.35088 0.0
O142 O 0.03375 0.69124 0.32085 0.0
In143 In 0.30661 0.33981 0.34671 0.0
O144 O 0.30522 0.31696 0.34147 0.0
O145 O 0.31657 0.32933 0.36802 0.0
C146 C 0.28948 0.33903 0.31478 0.0
C147 C 0.28902 0.34074 0.37674 0.0
C148 C 0.33472 0.36215 0.33655 0.0
O149 O 0.28999 0.32753 0.32061 0.0
O150 O 0.29782 0.35094 0.32479 0.0
O151 O 0.32797 0.36287 0.35214 0.0
O152 O 0.32732 0.35019 0.32618 0.0
C153 C 0.31237 0.31755 0.35743 0.0
O154 O 0.30211 0.35165 0.37321 0.0
O155 O 0.28502 0.32932 0.36553 0.0
In156 In 0.34115 0.03904 0.67874 0.0
O157 O 0.36403 0.04039 0.67443 0.0
O158 O 0.35172 0.02979 0.70107 0.0
C159 C 0.34202 0.05485 0.64536 0.0
C160 C 0.33997 0.05682 0.7085 0.0
C161 C 0.31822 0.01096 0.6693 0.0
O162 O 0.35377 0.05579 0.65315 0.0
O163 O 0.32989 0.04572 0.65408 0.0
O164 O 0.31663 0.01987 0.68099 0.0
O165 O 0.33143 0.01616 0.66243 0.0
C166 C 0.36353 0.03379 0.69079 0.0
O167 O 0.33019 0.04298 0.70668 0.0
O168 O 0.35044 0.06155 0.69567 0.0
In169 In 0.97627 0.31021 0.68712 0.0
O170 O 0.98647 0.33544 0.679 0.0
O171 O 0.97163 0.32709 0.70394 0.0
C172 C 0.95795 0.29402 0.6559 0.0
C173 C 0.96066 0.29187 0.71825 0.0
C174 C 0.0035 0.31245 0.67985 0.0
O175 O 0.96163 0.30767 0.65908 0.0
O176 O 0.96371 0.28884 0.66815 0.0
O177 O 1.00013 0.31525 0.69712 0.0
O178 O 0.99329 0.3087 0.66659 0.0
C179 C 0.97991 0.33828 0.69303 0.0
O180 O 0.97493 0.29824 0.71728 0.0
O181 O 0.95454 0.295 0.70389 0.0
In182 In 0.70947 0.67636 0.68132 0.0
O183 O 0.71443 0.70072 0.68629 0.0
O184 O 0.69644 0.68657 0.66631 0.0
C185 C 0.72773 0.67508 0.71015 0.0
C186 C 0.72543 0.6781 0.64786 0.0
C187 C 0.68248 0.6522 0.6917 0.0
O188 O 0.72208 0.68356 0.71193 0.0
O189 O 0.72388 0.66713 0.69422 0.0
O190 O 0.68924 0.65261 0.67553 0.0
O191 O 0.68931 0.66395 0.7026 0.0
C192 C 0.70408 0.69944 0.67449 0.0
O193 O 0.71203 0.66746 0.65053 0.0
O194 O 0.73053 0.68801 0.66172 0.0
In195 In 0.34196 0.31295 0.67965 0.0
O196 O 0.35459 0.30729 0.65582 0.0
O197 O 0.33093 0.29232 0.65854 0.0
C198 C 0.36457 0.34166 0.68697 0.0
C199 C 0.31941 0.31827 0.66903 0.0
C200 C 0.34126 0.29584 0.71145 0.0
O201 O 0.36478 0.3338 0.67229 0.0
O202 O 0.3529 0.33512 0.69783 0.0
O203 O 0.32947 0.29532 0.70449 0.0
O204 O 0.35329 0.30524 0.7028 0.0
C205 C 0.34307 0.29525 0.64984 0.0
O206 O 0.32072 0.31434 0.68671 0.0
O207 O 0.32949 0.31959 0.65682 0.0
In208 In 0.70544 0.03979 0.68055 0.0
O209 O 0.7098 0.05438 0.65224 0.0
O210 O 0.72646 0.04881 0.66093 0.0
C211 C 0.67743 0.03474 0.68982 0.0
C212 C 0.70099 0.01189 0.67165 0.0
C213 C 0.7224 0.05744 0.71195 0.0
O214 O 0.6846 0.04222 0.67448 0.0
O215 O 0.68439 0.02987 0.7004 0.0
O216 O 0.71762 0.04342 0.71104 0.0
O217 O 0.71834 0.0625 0.69729 0.0
C218 C 0.72258 0.05573 0.64872 0.0
O219 O 0.7105 0.02055 0.6847 0.0
O220 O 0.69363 0.01725 0.66308 0.0
In221 In 0.97371 0.67545 0.68052 0.0
O222 O 0.97037 0.65168 0.67546 0.0
O223 O 0.98461 0.66484 0.69977 0.0
C224 C 0.95789 0.67683 0.64842 0.0
C225 C 0.9546 0.67315 0.71035 0.0
C226 C 1.00175 0.69908 0.67289 0.0
O227 O 0.96228 0.66728 0.64947 0.0
O228 O 0.96176 0.68585 0.66332 0.0
O229 O 0.9946 0.69829 0.68885 0.0
O230 O 0.99475 0.68803 0.66087 0.0
C231 C 0.97873 0.65248 0.69012 0.0
O232 O 0.9679 0.6843 0.70914 0.0
O233 O 0.95114 0.66317 0.69681 0.0
H234 H 0.15492 0.32694 0.15244 0.0
H235 H 0.15565 0.33769 0.08908 0.0
H236 H 0.13537 0.35334 0.13278 0.0
H237 H 0.15897 0.31218 0.12412 0.0
H238 H 0.16315 0.31977 0.09914 0.0
H239 H 0.17757 0.32712 0.15326 0.0
H240 H 0.22404 0.34926 0.13533 0.0
H241 H 0.18908 0.33562 0.08997 0.0
C242 C 0.15286 0.33288 0.14042 0.0
C243 C 0.1453 0.3408 0.14492 0.0
C244 C 0.15724 0.33221 0.12039 0.0
C245 C 0.15314 0.33887 0.10471 0.0
C246 C 0.14527 0.34655 0.10913 0.0
C247 C 0.14185 0.34784 0.12933 0.0
C248 C 0.16469 0.32295 0.11549 0.0
C249 C 0.18138 0.33115 0.12104 0.0
C250 C 0.18595 0.33208 0.14144 0.0
C251 C 0.20135 0.33898 0.14663 0.0
C252 C 0.21222 0.34472 0.1313 0.0
C253 C 0.20795 0.34338 0.11081 0.0
C254 C 0.19249 0.33679 0.10576 0.0
H255 H 0.68461 0.83671 0.15824 0.0
H256 H 0.67912 0.8289 0.09364 0.0
H257 H 0.66363 0.79141 0.13431 0.0
H258 H 0.70107 0.85688 0.13166 0.0
H259 H 0.69448 0.85419 0.10608 0.0
H260 H 0.68691 0.86111 0.15935 0.0
H261 H 0.66011 0.88056 0.14071 0.0
H262 H 0.67522 0.86027 0.09624 0.0
C263 C 0.68027 0.82899 0.14544 0.0
C264 C 0.6734 0.81333 0.14874 0.0
C265 C 0.68203 0.83474 0.1256 0.0
C266 C 0.67719 0.82461 0.109 0.0
C267 C 0.67036 0.80895 0.11216 0.0
C268 C 0.66826 0.80345 0.132 0.0
C269 C 0.69064 0.85166 0.12208 0.0
C270 C 0.68138 0.85901 0.12734 0.0
C271 C 0.68083 0.86324 0.14753 0.0
C272 C 0.67294 0.87078 0.15241 0.0
C273 C 0.66556 0.87408 0.13704 0.0
C274 C 0.66651 0.87056 0.11673 0.0
C275 C 0.67427 0.86283 0.11195 0.0
H276 H 0.17453 0.81813 0.16078 0.0
H277 H 0.17479 0.81649 0.09558 0.0
H278 H 0.1326 0.79726 0.12713 0.0
H279 H 0.19701 0.82148 0.14095 0.0
H280 H 0.19778 0.82436 0.11428 0.0
H281 H 0.19812 0.84158 0.16495 0.0
H282 H 0.22639 0.88678 0.14361 0.0
H283 H 0.20815 0.84949 0.10125 0.0
C284 C 0.16844 0.81556 0.14649 0.0
C285 C 0.1525 0.80725 0.14632 0.0
C286 C 0.17662 0.81949 0.12821 0.0
C287 C 0.16866 0.81458 0.10965 0.0
C288 C 0.15276 0.80648 0.10931 0.0
C289 C 0.14487 0.80358 0.12757 0.0
C290 C 0.19369 0.82673 0.12869 0.0
C291 C 0.20165 0.84364 0.13251 0.0
C292 C 0.20317 0.84932 0.15241 0.0
C293 C 0.21176 0.86493 0.15631 0.0
C294 C 0.21896 0.87486 0.14023 0.0
C295 C 0.21794 0.86949 0.12031 0.0
C296 C 0.20897 0.85383 0.11651 0.0
H297 H 0.36287 0.19859 0.86199 0.0
H298 H 0.36366 0.2017 0.9272 0.0
H299 H 0.34389 0.22258 0.89131 0.0
H300 H 0.38133 0.19501 0.88356 0.0
H301 H 0.37917 0.19351 0.9104 0.0
H302 H 0.35724 0.1742 0.86202 0.0
H303 H 0.34404 0.12999 0.88419 0.0
H304 H 0.37004 0.16887 0.92247 0.0
C305 C 0.35956 0.20181 0.87585 0.0
C306 C 0.35201 0.21008 0.87466 0.0
C307 C 0.36335 0.19824 0.89479 0.0
C308 C 0.36013 0.20377 0.91262 0.0
C309 C 0.35314 0.21265 0.91156 0.0
C310 C 0.34875 0.21531 0.8925 0.0
C311 C 0.37275 0.19055 0.89582 0.0
C312 C 0.36349 0.17348 0.89327 0.0
C313 C 0.35655 0.16704 0.87447 0.0
C314 C 0.34938 0.15135 0.87123 0.0
C315 C 0.34927 0.14208 0.88689 0.0
C316 C 0.3571 0.14826 0.90517 0.0
C317 C 0.36376 0.16395 0.90855 0.0
H318 H 0.86105 0.17709 0.87573 0.0
H319 H 0.85729 0.1874 0.93823 0.0
H320 H 0.88321 0.22323 0.89641 0.0
H321 H 0.85505 0.1583 0.90352 0.0
H322 H 0.8516 0.16226 0.92857 0.0
H323 H 0.83577 0.15516 0.87504 0.0
H324 H 0.79051 0.12602 0.89586 0.0
H325 H 0.82612 0.15103 0.93917 0.0
C326 C 0.86299 0.18526 0.88758 0.0
C327 C 0.8724 0.20075 0.88372 0.0
C328 C 0.85722 0.18028 0.90721 0.0
C329 C 0.86093 0.19108 0.92285 0.0
C330 C 0.87012 0.2066 0.91889 0.0
C331 C 0.87557 0.2113 0.89928 0.0
C332 C 0.84963 0.16362 0.91229 0.0
C333 C 0.83282 0.15495 0.90759 0.0
C334 C 0.82773 0.15098 0.88736 0.0
C335 C 0.81247 0.14052 0.88316 0.0
C336 C 0.80224 0.13434 0.89915 0.0
C337 C 0.80702 0.13801 0.91934 0.0
C338 C 0.82227 0.14859 0.92353 0.0
H339 H 0.84066 0.64837 0.87038 0.0
H340 H 0.84536 0.65115 0.93543 0.0
H341 H 0.88478 0.66882 0.89776 0.0
H342 H 0.81985 0.63065 0.8936 0.0
H343 H 0.82137 0.63415 0.92017 0.0
H344 H 0.81944 0.65127 0.87004 0.0
H345 H 0.78729 0.66278 0.89295 0.0
H346 H 0.80709 0.64446 0.93322 0.0
C347 C 0.84777 0.65255 0.8838 0.0
C348 C 0.86355 0.65941 0.8818 0.0
C349 C 0.84108 0.64979 0.90312 0.0
C350 C 0.85045 0.65395 0.92053 0.0
C351 C 0.86627 0.66078 0.91874 0.0
C352 C 0.87264 0.66386 0.89932 0.0
C353 C 0.82408 0.63987 0.90518 0.0
C354 C 0.81542 0.64822 0.90238 0.0
C355 C 0.81373 0.65279 0.88283 0.0
C356 C 0.80344 0.65787 0.87938 0.0
C357 C 0.79529 0.65892 0.89569 0.0
C358 C 0.79623 0.6538 0.91501 0.0
C359 C 0.80666 0.64888 0.91847 0.0
H360 H 0.8234 0.66566 0.48618 0.0
H361 H 0.82358 0.67537 0.42249 0.0
H362 H 0.79975 0.68782 0.46476 0.0
H363 H 0.8279 0.65096 0.45894 0.0
H364 H 0.83085 0.65734 0.43341 0.0
H365 H 0.84772 0.66565 0.48587 0.0
H366 H 0.89312 0.68757 0.46304 0.0
H367 H 0.85591 0.67504 0.42195 0.0
C368 C 0.82064 0.67092 0.47392 0.0
C369 C 0.81141 0.67718 0.47777 0.0
C370 C 0.82527 0.67035 0.45399 0.0
C371 C 0.82066 0.67632 0.438 0.0
C372 C 0.81166 0.68285 0.44192 0.0
C373 C 0.80723 0.68335 0.46182 0.0
C374 C 0.83299 0.66133 0.44945 0.0
C375 C 0.84986 0.67013 0.4536 0.0
C376 C 0.8555 0.67083 0.4734 0.0
C377 C 0.8711 0.67703 0.47679 0.0
C378 C 0.8811 0.68314 0.46052 0.0
C379 C 0.87573 0.68253 0.4408 0.0
C380 C 0.86011 0.67605 0.43733 0.0
H381 H 0.3546 0.16997 0.49128 0.0
H382 H 0.34552 0.16091 0.42725 0.0
H383 H 0.32909 0.12426 0.46958 0.0
H384 H 0.37036 0.18904 0.46372 0.0
H385 H 0.36313 0.18613 0.43847 0.0
H386 H 0.35443 0.1919 0.49257 0.0
H387 H 0.33643 0.21993 0.47426 0.0
H388 H 0.34973 0.19864 0.42894 0.0
C389 C 0.34893 0.16213 0.47888 0.0
C390 C 0.34101 0.14654 0.48283 0.0
C391 C 0.35009 0.16753 0.45894 0.0
C392 C 0.34391 0.15699 0.44278 0.0
C393 C 0.33622 0.14135 0.44662 0.0
C394 C 0.33447 0.13631 0.46667 0.0
C395 C 0.35971 0.18432 0.45467 0.0
C396 C 0.35195 0.19323 0.46008 0.0
C397 C 0.3505 0.19629 0.48058 0.0
C398 C 0.34454 0.2056 0.48571 0.0
C399 C 0.34045 0.21224 0.47028 0.0
C400 C 0.34262 0.21012 0.44984 0.0
C401 C 0.34788 0.20017 0.44473 0.0
H402 H 0.84262 0.15556 0.49889 0.0
H403 H 0.83719 0.1507 0.43395 0.0
H404 H 0.79834 0.12993 0.47286 0.0
H405 H 0.86377 0.15902 0.47559 0.0
H406 H 0.86173 0.15983 0.44885 0.0
H407 H 0.8602 0.1801 0.49674 0.0
H408 H 0.89198 0.22372 0.47359 0.0
H409 H 0.87751 0.18422 0.4362 0.0
C410 C 0.83543 0.15189 0.48553 0.0
C411 C 0.81968 0.14338 0.48792 0.0
C412 C 0.84187 0.15511 0.46604 0.0
C413 C 0.83229 0.14892 0.44893 0.0
C414 C 0.81651 0.13973 0.45121 0.0
C415 C 0.81038 0.13745 0.47075 0.0
C416 C 0.85893 0.16306 0.46366 0.0
C417 C 0.86675 0.18019 0.46553 0.0
C418 C 0.86663 0.187 0.48412 0.0
C419 C 0.8756 0.20271 0.48704 0.0
C420 C 0.8847 0.21165 0.47116 0.0
C421 C 0.88581 0.2051 0.45298 0.0
C422 C 0.87644 0.1894 0.44999 0.0
H423 H 0.03102 0.53038 0.1926 0.0
H424 H 0.04097 0.54695 0.25425 0.0
H425 H 0.01606 0.5601 0.21474 0.0
H426 H 0.05434 0.53351 0.21517 0.0
H427 H 0.0518 0.53279 0.24187 0.0
H428 H 0.03648 0.51154 0.19292 0.0
H429 H 0.01736 0.4683 0.22163 0.0
H430 H 0.03635 0.50874 0.25815 0.0
C431 C 0.02968 0.53645 0.20513 0.0
C432 C 0.02227 0.54468 0.20173 0.0
C433 C 0.03597 0.53666 0.22432 0.0
C434 C 0.03529 0.54586 0.23989 0.0
C435 C 0.02843 0.55463 0.23633 0.0
C436 C 0.02137 0.55336 0.21755 0.0
C437 C 0.04555 0.52927 0.22716 0.0
C438 C 0.03658 0.51213 0.22573 0.0
C439 C 0.03307 0.50487 0.20662 0.0
C440 C 0.02575 0.48903 0.20507 0.0
C441 C 0.02217 0.48046 0.22282 0.0
C442 C 0.02608 0.48741 0.242 0.0
C443 C 0.03309 0.50327 0.2434 0.0
H444 H 0.52775 0.51305 0.20926 0.0
H445 H 0.52437 0.5211 0.27284 0.0
H446 H 0.55157 0.5582 0.2333 0.0
H447 H 0.52049 0.49273 0.23627 0.0
H448 H 0.51568 0.49579 0.26106 0.0
H449 H 0.50384 0.49351 0.20579 0.0
H450 H 0.45677 0.46645 0.21956 0.0
H451 H 0.48955 0.48361 0.26805 0.0
C452 C 0.52994 0.52075 0.22182 0.0
C453 C 0.53983 0.53628 0.21899 0.0
C454 C 0.52391 0.51511 0.24114 0.0
C455 C 0.5282 0.52531 0.25768 0.0
C456 C 0.53808 0.54089 0.25482 0.0
C457 C 0.54358 0.54625 0.23542 0.0
C458 C 0.51505 0.49817 0.24473 0.0
C459 C 0.49863 0.49068 0.23787 0.0
C460 C 0.49498 0.48895 0.21701 0.0
C461 C 0.47987 0.48052 0.21046 0.0
C462 C 0.46837 0.4735 0.22477 0.0
C463 C 0.47175 0.4742 0.2455 0.0
C464 C 0.48685 0.48325 0.25207 0.0
H465 H 0.50948 0.98407 0.20551 0.0
H466 H 0.51219 0.98544 0.2708 0.0
H467 H 0.55274 0.00389 0.23534 0.0
H468 H 0.48788 0.96631 0.22651 0.0
H469 H 0.48892 0.96756 0.2534 0.0
H470 H 0.48472 0.98558 0.20627 0.0
H471 H 0.45569 0.99875 0.2362 0.0
H472 H 0.47822 0.98041 0.27093 0.0
C473 C 0.51619 0.98787 0.21932 0.0
C474 C 0.53202 0.99468 0.21825 0.0
C475 C 0.50892 0.98464 0.23829 0.0
C476 C 0.51774 0.98857 0.25621 0.0
C477 C 0.53361 0.99561 0.25528 0.0
C478 C 0.54056 0.99894 0.23624 0.0
C479 C 0.49192 0.97451 0.23941 0.0
C480 C 0.48341 0.9831 0.23885 0.0
C481 C 0.4802 0.9875 0.22007 0.0
C482 C 0.46998 0.99293 0.21891 0.0
C483 C 0.46368 0.99469 0.23686 0.0
C484 C 0.46651 0.99014 0.25554 0.0
C485 C 0.47655 0.98455 0.2566 0.0
H486 H 0.49182 0.99722 0.82366 0.0
H487 H 0.48585 0.99738 0.75887 0.0
H488 H 0.46736 0.01737 0.79835 0.0
H489 H 0.49177 0.97724 0.79796 0.0
H490 H 0.49605 0.98285 0.77225 0.0
H491 H 0.51087 0.9917 0.82577 0.0
H492 H 0.55699 0.01087 0.80713 0.0
H493 H 0.52202 0.99843 0.76218 0.0
C494 C 0.48814 1.00083 0.8105 0.0
C495 C 0.47994 0.00838 0.81331 0.0
C496 C 0.49085 0.99725 0.79085 0.0
C497 C 0.48479 1.00094 0.77399 0.0
C498 C 0.47641 0.00828 0.77677 0.0
C499 C 0.47441 0.01229 0.79631 0.0
C500 C 0.49784 0.98731 0.78806 0.0
C501 C 0.51455 0.99517 0.79341 0.0
C502 C 0.51919 0.99611 0.81381 0.0
C503 C 0.53453 0.00213 0.8188 0.0
C504 C 0.54522 0.00682 0.80329 0.0
C505 C 0.5408 0.00519 0.78286 0.0
C506 C 0.52552 0.99989 0.77796 0.0
H507 H 0.02293 0.50528 0.81978 0.0
H508 H 0.00961 0.49467 0.75691 0.0
H509 H 1.00181 0.45931 0.79871 0.0
H510 H 0.03483 0.52471 0.79239 0.0
H511 H 0.02757 0.5205 0.76713 0.0
H512 H 0.01858 0.52672 0.82047 0.0
H513 H 0.99374 0.54787 0.79989 0.0
H514 H 0.00958 0.52753 0.75666 0.0
C515 C 0.01737 0.49704 0.80772 0.0
C516 C 0.01216 0.4817 0.8115 0.0
C517 C 0.0164 0.50186 0.78803 0.0
C518 C 0.00994 0.49104 0.77224 0.0
C519 C 0.00443 0.47561 0.77609 0.0
C520 C 0.00551 0.47111 0.79577 0.0
C521 C 0.02417 0.51859 0.78335 0.0
C522 C 0.01445 0.52552 0.78813 0.0
C523 C 0.01314 0.52934 0.80828 0.0
C524 C 0.00546 0.53722 0.81264 0.0
C525 C 0.99893 0.54107 0.79671 0.0
C526 C 1.00044 0.53773 0.77651 0.0
C527 C 0.00807 0.5298 0.77229 0.0
H528 H 0.50748 0.48512 0.83139 0.0
H529 H 0.50338 0.48181 0.76627 0.0
H530 H 0.46363 0.46095 0.80355 0.0
H531 H 0.52862 0.48781 0.80894 0.0
H532 H 0.52725 0.48897 0.78216 0.0
H533 H 0.5272 0.5095 0.83043 0.0
H534 H 0.56084 0.55255 0.80735 0.0
H535 H 0.54258 0.51331 0.76875 0.0
C536 C 0.50053 0.48181 0.8178 0.0
C537 C 0.48471 0.47353 0.81959 0.0
C538 C 0.5074 0.48522 0.79857 0.0
C539 C 0.49816 0.47978 0.78107 0.0
C540 C 0.48229 0.47096 0.78267 0.0
C541 C 0.47576 0.46827 0.802 0.0
C542 C 0.52443 0.49236 0.79683 0.0
C543 C 0.53298 0.50948 0.7989 0.0
C544 C 0.5337 0.51634 0.81778 0.0
C545 C 0.54348 0.53194 0.82081 0.0
C546 C 0.55269 0.54066 0.80483 0.0
C547 C 0.5525 0.53403 0.78614 0.0
C548 C 0.54237 0.51852 0.78301 0.0
H549 H 0.69807 0.86316 0.53325 0.0
H550 H 0.70119 0.87143 0.59771 0.0
H551 H 0.6806 0.88988 0.55887 0.0
H552 H 0.71779 0.86198 0.55556 0.0
H553 H 0.71624 0.86208 0.58242 0.0
H554 H 0.69797 0.83974 0.53489 0.0
H555 H 0.6804 0.79724 0.56547 0.0
H556 H 0.70178 0.83866 0.59996 0.0
C557 C 0.69542 0.8677 0.54649 0.0
C558 C 0.68808 0.87609 0.54399 0.0
C559 C 0.69994 0.8657 0.5659 0.0
C560 C 0.69724 0.87246 0.58284 0.0
C561 C 0.69016 0.88116 0.58048 0.0
C562 C 0.68538 0.8826 0.56104 0.0
C563 C 0.70947 0.85825 0.56813 0.0
C564 C 0.70013 0.84114 0.5676 0.0
C565 C 0.69535 0.8334 0.54886 0.0
C566 C 0.68835 0.81755 0.54802 0.0
C567 C 0.68559 0.80946 0.56613 0.0
C568 C 0.69045 0.81691 0.5849 0.0
C569 C 0.69763 0.83279 0.58558 0.0
H570 H 0.18761 0.84494 0.54099 0.0
H571 H 0.19192 0.85348 0.60546 0.0
H572 H 0.21059 0.89061 0.56396 0.0
H573 H 0.18647 0.82585 0.56735 0.0
H574 H 0.18358 0.82847 0.5933 0.0
H575 H 0.16604 0.81868 0.54173 0.0
H576 H 0.12094 0.79501 0.56526 0.0
H577 H 0.1584 0.82173 0.60548 0.0
C578 C 0.19097 0.85279 0.55366 0.0
C579 C 0.19896 0.86846 0.55002 0.0
C580 C 0.18797 0.84723 0.57365 0.0
C581 C 0.19335 0.85757 0.59002 0.0
C582 C 0.20131 0.87321 0.58649 0.0
C583 C 0.20373 0.87852 0.56655 0.0
C584 C 0.18107 0.83047 0.57754 0.0
C585 C 0.16414 0.82173 0.57389 0.0
C586 C 0.15837 0.81618 0.55432 0.0
C587 C 0.14279 0.80645 0.55128 0.0
C588 C 0.13293 0.8028 0.56766 0.0
C589 C 0.13837 0.80829 0.58723 0.0
C590 C 0.15404 0.81779 0.59031 0.0
H591 H 0.17171 0.32232 0.53009 0.0
H592 H 0.18054 0.31645 0.59237 0.0
H593 H 0.21734 0.34208 0.55166 0.0
H594 H 0.15305 0.30001 0.55342 0.0
H595 H 0.15547 0.30267 0.58007 0.0
H596 H 0.14847 0.3187 0.53233 0.0
H597 H 0.11744 0.32892 0.56207 0.0
H598 H 0.14194 0.31273 0.59696 0.0
C599 C 0.1795 0.3251 0.54266 0.0
C600 C 0.19512 0.33343 0.53887 0.0
C601 C 0.17406 0.31959 0.56225 0.0
C602 C 0.18458 0.32176 0.57777 0.0
C603 C 0.20023 0.32946 0.57384 0.0
C604 C 0.20529 0.33603 0.55475 0.0
C605 C 0.15726 0.30883 0.56554 0.0
C606 C 0.14757 0.31627 0.565 0.0
C607 C 0.14384 0.32024 0.54624 0.0
C608 C 0.13296 0.32478 0.54508 0.0
C609 C 0.12596 0.32555 0.56288 0.0
C610 C 0.12883 0.32091 0.5815 0.0
C611 C 0.14 0.31672 0.58268 0.0
H612 H 0.03486 0.41949 0.04756 0.0
H613 H 0.03685 0.43697 0.07438 0.0
H614 H 0.99302 0.40361 0.09677 0.0
H615 H 0.99092 0.38602 0.06981 0.0
H616 H 0.99629 0.43212 0.09412 0.0
H617 H 0.02403 0.40966 0.12145 0.0
H618 H 0.04326 0.4018 0.12094 0.0
H619 H 0.07845 0.44816 0.11487 0.0
H620 H 0.0594 0.45628 0.11501 0.0
H621 H 1.00033 0.46351 0.19196 0.0
H622 H 0.99769 0.44816 0.16205 0.0
H623 H 0.04277 0.48135 0.14336 0.0
H624 H 0.04562 0.49657 0.17363 0.0
H625 H 0.03914 0.45352 0.14323 0.0
H626 H 0.01151 0.47616 0.11696 0.0
H627 H 0.99228 0.48401 0.11693 0.0
H628 H 0.95694 0.43754 0.12079 0.0
H629 H 0.97598 0.42941 0.12114 0.0
C630 C 0.02567 0.41584 0.05823 0.0
C631 C 0.01275 0.40136 0.05664 0.0
C632 C 0.02683 0.42584 0.07357 0.0
C633 C 0.01513 0.42155 0.08764 0.0
C634 C 1.00218 0.40713 0.08605 0.0
C635 C 1.00103 0.39708 0.07073 0.0
C636 C 0.01645 0.43218 0.10398 0.0
C637 C 0.00554 0.43667 0.10504 0.0
C638 C 0.02876 0.4384 0.11784 0.0
C639 C 0.04027 0.43356 0.11804 0.0
C640 C 0.03586 0.41817 0.11985 0.0
C641 C 0.04673 0.41367 0.11965 0.0
C642 C 0.06206 0.42447 0.11781 0.0
C643 C 0.06656 0.4398 0.11626 0.0
C644 C 0.05573 0.44436 0.11641 0.0
C645 C 0.0096 0.46764 0.18131 0.0
C646 C 0.0232 0.48122 0.18516 0.0
C647 C 0.00805 0.4589 0.16416 0.0
C648 C 0.02002 0.46362 0.15041 0.0
C649 C 0.03338 0.47749 0.15377 0.0
C650 C 0.03494 0.48626 0.17095 0.0
C651 C 0.01896 0.45351 0.13344 0.0
C652 C 0.02991 0.44907 0.13227 0.0
C653 C 0.00669 0.44735 0.11949 0.0
C654 C 0.99519 0.45219 0.11926 0.0
C655 C 0.99965 0.46762 0.11797 0.0
C656 C 0.98878 0.47211 0.11786 0.0
C657 C 0.9734 0.46128 0.1189 0.0
C658 C 0.96886 0.44592 0.12001 0.0
C659 C 0.97968 0.44136 0.12014 0.0
H660 H 0.965 0.46478 0.11882 0.0
H661 H 0.07046 0.42096 0.11764 0.0
H662 H 0.63617 0.61858 0.08549 0.0
H663 H 0.62055 0.60129 0.11226 0.0
H664 H 0.58044 0.59697 0.08363 0.0
H665 H 0.59602 0.6146 0.05733 0.0
H666 H 0.57849 0.5994 0.12232 0.0
H667 H 0.59055 0.56887 0.07992 0.0
H668 H 0.60713 0.56208 0.0611 0.0
H669 H 0.62913 0.5619 0.11668 0.0
H670 H 0.61281 0.5689 0.13582 0.0
H671 H 0.5274 0.53652 0.18227 0.0
H672 H 0.54117 0.55003 0.15161 0.0
H673 H 0.58361 0.56308 0.18181 0.0
H674 H 0.56992 0.54979 0.21235 0.0
H675 H 0.58294 0.55471 0.14074 0.0
H676 H 0.57147 0.5869 0.18227 0.0
H677 H 0.55431 0.59314 0.20063 0.0
H678 H 0.5303 0.58928 0.14523 0.0
H679 H 0.5472 0.58277 0.12659 0.0
C680 C 0.62403 0.61399 0.085 0.0
C681 C 0.61732 0.61793 0.06932 0.0
C682 C 0.61509 0.60402 0.10021 0.0
C683 C 0.59926 0.59759 0.09979 0.0
C684 C 0.59261 0.60173 0.08429 0.0
C685 C 0.60154 0.61182 0.06925 0.0
C686 C 0.58961 0.58668 0.11558 0.0
C687 C 0.57931 0.5895 0.12607 0.0
C688 C 0.59075 0.57382 0.12072 0.0
C689 C 0.60054 0.56955 0.10928 0.0
C690 C 0.59899 0.56749 0.08812 0.0
C691 C 0.60834 0.56359 0.07739 0.0
C692 C 0.6192 0.5616 0.08768 0.0
C693 C 0.62072 0.56346 0.10873 0.0
C694 C 0.61141 0.56739 0.11953 0.0
C695 C 0.53964 0.54204 0.1821 0.0
C696 C 0.54766 0.54223 0.19955 0.0
C697 C 0.54748 0.54977 0.1647 0.0
C698 C 0.56341 0.55764 0.16454 0.0
C699 C 0.57134 0.55707 0.18161 0.0
C700 C 0.56354 0.54953 0.19902 0.0
C701 C 0.57195 0.56751 0.14735 0.0
C702 C 0.58205 0.56452 0.13672 0.0
C703 C 0.57054 0.58013 0.14193 0.0
C704 C 0.56048 0.58418 0.15309 0.0
C705 C 0.56245 0.58726 0.17404 0.0
C706 C 0.55279 0.59086 0.18449 0.0
C707 C 0.54119 0.59156 0.17412 0.0
C708 C 0.53927 0.5887 0.15325 0.0
C709 C 0.54889 0.58506 0.14274 0.0
H710 H 0.53372 0.59436 0.18223 0.0
H711 H 0.62642 0.55858 0.07935 0.0
H712 H 0.40851 0.99228 0.04561 0.0
H713 H 0.42386 0.99059 0.07287 0.0
H714 H 0.4197 0.02439 0.10714 0.0
H715 H 0.40467 0.02646 0.07953 0.0
H716 H 0.44743 0.02853 0.11183 0.0
H717 H 0.39674 0.98653 0.1166 0.0
H718 H 0.3734 0.9641 0.10418 0.0
H719 H 0.39831 0.94136 0.09197 0.0
H720 H 0.42185 0.96374 0.10408 0.0
H721 H 0.44066 0.98325 0.20885 0.0
H722 H 0.4306 0.9872 0.17755 0.0
H723 H 0.47541 0.00968 0.15186 0.0
H724 H 0.48578 0.00635 0.18394 0.0
H725 H 0.42879 0.97759 0.14123 0.0
H726 H 0.47728 0.03619 0.11734 0.0
H727 H 0.49843 0.05922 0.13279 0.0
H728 H 0.47419 0.04967 0.18887 0.0
H729 H 0.45284 0.0267 0.17368 0.0
C730 C 0.41095 0.99943 0.0589 0.0
C731 C 0.40526 0.00938 0.06056 0.0
C732 C 0.41972 0.99844 0.07447 0.0
C733 C 0.42274 0.00718 0.09221 0.0
C734 C 0.41751 0.01753 0.09361 0.0
C735 C 0.40886 0.01865 0.07789 0.0
C736 C 0.43056 0.00487 0.10972 0.0
C737 C 0.44341 0.01739 0.11821 0.0
C738 C 0.42522 0.99037 0.11824 0.0
C739 C 0.41108 0.97686 0.11104 0.0
C740 C 0.39726 0.97678 0.11113 0.0
C741 C 0.38399 0.96408 0.10417 0.0
C742 C 0.38438 0.95133 0.09723 0.0
C743 C 0.39803 0.95125 0.09731 0.0
C744 C 0.41134 0.96394 0.10423 0.0
C745 C 0.44848 0.98926 0.1967 0.0
C746 C 0.4641 0.99481 0.19909 0.0
C747 C 0.44265 0.99134 0.17867 0.0
C748 C 0.45223 0.99887 0.16236 0.0
C749 C 0.46781 0.00403 0.16435 0.0
C750 C 0.47371 0.00203 0.1826 0.0
C751 C 0.44562 1.00127 0.14356 0.0
C752 C 0.43298 0.98873 0.13472 0.0
C753 C 0.45087 0.01581 0.1352 0.0
C754 C 0.46357 0.02964 0.14444 0.0
C755 C 0.47647 0.03903 0.13296 0.0
C756 C 0.48848 0.05207 0.14166 0.0
C757 C 0.48768 0.05587 0.16182 0.0
C758 C 0.47483 0.04667 0.17329 0.0
C759 C 0.46278 0.03364 0.16464 0.0
H760 H 0.49699 0.06596 0.16854 0.0
H761 H 0.37411 0.9415 0.09185 0.0
H762 H 0.41602 0.03527 0.96326 0.0
H763 H 0.43222 0.03577 0.93559 0.0
H764 H 0.40934 0.98699 0.93562 0.0
H765 H 0.39287 0.98639 0.96301 0.0
H766 H 0.44281 0.00304 0.93601 0.0
H767 H 0.40042 1.00115 0.90004 0.0
H768 H 0.38254 0.00998 0.8919 0.0
H769 H 0.41957 0.05335 0.8749 0.0
H770 H 0.43769 0.04484 0.88324 0.0
H771 H 0.467 0.98719 0.84295 0.0
H772 H 0.45439 0.98884 0.87344 0.0
H773 H 0.46882 0.03546 0.85995 0.0
H774 H 0.48113 0.0337 0.82914 0.0
H775 H 0.4404 0.02155 0.86741 0.0
H776 H 0.48293 0.02481 0.90173 0.0
H777 H 0.50208 0.0179 0.91085 0.0
H778 H 0.46716 0.97474 0.93223 0.0
H779 H 0.44774 0.98135 0.92299 0.0
C780 C 0.41441 0.02466 0.95731 0.0
C781 C 0.40317 0.01079 0.96522 0.0
C782 C 0.42366 0.02496 0.94153 0.0
C783 C 0.42195 0.01142 0.93362 0.0
C784 C 0.41082 0.99756 0.94159 0.0
C785 C 0.40139 0.99723 0.95712 0.0
C786 C 0.43178 0.01173 0.91697 0.0
C787 C 0.4422 0.00691 0.92092 0.0
C788 C 0.43131 0.01731 0.89757 0.0
C789 C 0.42042 0.02242 0.8925 0.0
C790 C 0.40476 0.01262 0.89476 0.0
C791 C 0.39458 0.01756 0.89007 0.0
C792 C 0.39992 0.03224 0.88295 0.0
C793 C 0.41545 0.04199 0.88045 0.0
C794 C 0.42568 0.03712 0.88515 0.0
C795 C 0.46787 0.99792 0.84683 0.0
C796 C 0.47509 0.01034 0.83373 0.0
C797 C 0.46062 0.99885 0.86426 0.0
C798 C 0.46068 0.01231 0.86911 0.0
C799 C 0.46854 0.02494 0.85652 0.0
C800 C 0.47565 0.02396 0.83899 0.0
C801 C 0.45154 0.0128 0.8863 0.0
C802 C 0.44117 0.01775 0.88249 0.0
C803 C 0.45227 0.0076 0.90593 0.0
C804 C 0.46387 0.00353 0.91149 0.0
C805 C 0.47932 0.0138 0.90822 0.0
C806 C 0.49023 0.00994 0.91345 0.0
C807 C 0.48584 0.99586 0.92207 0.0
C808 C 0.47053 0.98564 0.92553 0.0
C809 C 0.45957 0.98944 0.92032 0.0
H810 H 0.4943 0.99288 0.92611 0.0
H811 H 0.39202 0.03604 0.87933 0.0
H812 H 0.02574 0.39832 0.94207 0.0
H813 H 0.02739 0.41625 0.91625 0.0
H814 H 0.99502 0.42336 0.94916 0.0
H815 H 0.99302 0.40516 0.97465 0.0
H816 H 0.98867 0.42103 0.91046 0.0
H817 H 0.03358 0.44965 0.95025 0.0
H818 H 0.05735 0.45506 0.9673 0.0
H819 H 0.07643 0.45385 0.90991 0.0
H820 H 0.05269 0.44822 0.89253 0.0
H821 H 1.00113 0.4832 0.84867 0.0
H822 H 1.00193 0.47037 0.87981 0.0
H823 H 0.02941 0.45535 0.84929 0.0
H824 H 0.02856 0.46805 0.81836 0.0
H825 H 0.03838 0.46374 0.88931 0.0
H826 H 0.99243 0.43274 0.85046 0.0
H827 H 0.96868 0.42751 0.83353 0.0
H828 H 0.95169 0.43369 0.89006 0.0
H829 H 0.97546 0.43919 0.90727 0.0
C830 C 0.01893 0.40366 0.94373 0.0
C831 C 0.00927 0.40035 0.96039 0.0
C832 C 0.01997 0.41399 0.92905 0.0
C833 C 0.01153 0.42138 0.93093 0.0
C834 C 1.00168 0.41786 0.9474 0.0
C835 C 1.00055 0.40745 0.96196 0.0
C836 C 0.0128 0.4326 0.91561 0.0
C837 C 0.99954 0.43052 0.90613 0.0
C838 C 0.02697 0.44491 0.90973 0.0
C839 C 0.04131 0.44839 0.92011 0.0
C840 C 0.04281 0.45043 0.94128 0.0
C841 C 0.05628 0.45355 0.951 0.0
C842 C 0.06838 0.45476 0.9397 0.0
C843 C 0.06704 0.45289 0.91864 0.0
C844 C 0.05358 0.44975 0.90885 0.0
C845 C 0.00761 0.47746 0.84887 0.0
C846 C 0.01472 0.4765 0.83123 0.0
C847 C 0.00801 0.47009 0.86656 0.0
C848 C 0.01561 0.46178 0.86676 0.0
C849 C 0.0235 0.46169 0.84947 0.0
C850 C 0.02298 0.4689 0.83183 0.0
C851 C 0.0143 0.45204 0.88416 0.0
C852 C 0.02754 0.45437 0.89393 0.0
C853 C 1.00011 0.43999 0.89039 0.0
C854 C 0.98578 0.43655 0.8801 0.0
C855 C 0.98367 0.4331 0.85924 0.0
C856 C 0.9702 0.43007 0.8496 0.0
C857 C 0.9587 0.43031 0.8607 0.0
C858 C 0.96062 0.43354 0.88147 0.0
C859 C 0.97409 0.43661 0.89118 0.0
H860 H 0.94828 0.42796 0.85321 0.0
H861 H 0.0788 0.45718 0.94725 0.0
H862 H 0.61172 0.63245 0.95732 0.0
H863 H 0.59497 0.61516 0.93082 0.0
H864 H 0.59949 0.57887 0.95667 0.0
H865 H 0.61622 0.59606 0.9831 0.0
H866 H 0.60294 0.58033 0.91568 0.0
H867 H 0.5676 0.58006 0.96373 0.0
H868 H 0.55649 0.59151 0.98565 0.0
H869 H 0.54732 0.61078 0.9335 0.0
H870 H 0.55859 0.59962 0.91128 0.0
H871 H 0.5482 0.52143 0.85648 0.0
H872 H 0.55867 0.53595 0.88785 0.0
H873 H 0.55594 0.57332 0.86225 0.0
H874 H 0.54522 0.55873 0.83095 0.0
H875 H 0.55075 0.57069 0.904 0.0
H876 H 0.58716 0.57264 0.85636 0.0
H877 H 0.59827 0.56157 0.83373 0.0
H878 H 0.60591 0.54004 0.88459 0.0
H879 H 0.59456 0.55075 0.90748 0.0
C880 C 0.60915 0.62079 0.95731 0.0
C881 C 0.61527 0.6156 0.97227 0.0
C882 C 0.59952 0.61091 0.94226 0.0
C883 C 0.59587 0.59569 0.94191 0.0
C884 C 0.60213 0.59056 0.95669 0.0
C885 C 0.61168 0.60039 0.97179 0.0
C886 C 0.58578 0.58515 0.92591 0.0
C887 C 0.59145 0.57805 0.91335 0.0
C888 C 0.57091 0.58245 0.92255 0.0
C889 C 0.56408 0.58913 0.93586 0.0
C890 C 0.56333 0.58684 0.95695 0.0
C891 C 0.55698 0.59326 0.96943 0.0
C892 C 0.55124 0.6019 0.96098 0.0
C893 C 0.55179 0.60411 0.94003 0.0
C894 C 0.55815 0.59772 0.92748 0.0
C895 C 0.54929 0.5325 0.85782 0.0
C896 C 0.54604 0.53902 0.84122 0.0
C897 C 0.55538 0.54084 0.87569 0.0
C898 C 0.55835 0.55581 0.87719 0.0
C899 C 0.55381 0.56181 0.86136 0.0
C900 C 0.54775 0.5535 0.84348 0.0
C901 C 0.5679 0.56582 0.89396 0.0
C902 C 0.56219 0.57289 0.90651 0.0
C903 C 0.5828 0.56861 0.89726 0.0
C904 C 0.58986 0.56235 0.88359 0.0
C905 C 0.59111 0.56545 0.8627 0.0
C906 C 0.59745 0.55925 0.84982 0.0
C907 C 0.60276 0.55008 0.85771 0.0
C908 C 0.60177 0.54712 0.8785 0.0
C909 C 0.59538 0.55325 0.89143 0.0
H910 H 0.60768 0.54529 0.84773 0.0
H911 H 0.54632 0.60686 0.97066 0.0
H912 H 0.03489 0.63138 0.95987 0.0
H913 H 0.03449 0.61419 0.93362 0.0
H914 H 0.98574 0.59213 0.93063 0.0
H915 H 0.98606 0.60905 0.95724 0.0
H916 H 0.99419 0.57164 0.9309 0.0
H917 H 0.00867 0.61706 0.89355 0.0
H918 H 0.02392 0.64426 0.88578 0.0
H919 H 0.06359 0.64021 0.87965 0.0
H920 H 0.04861 0.61301 0.88764 0.0
H921 H 0.98193 0.5361 0.83362 0.0
H922 H 0.98353 0.55069 0.86398 0.0
H923 H 0.03157 0.56751 0.86795 0.0
H924 H 0.03004 0.553 0.83744 0.0
H925 H 0.02453 0.59026 0.86814 0.0
H926 H 0.00882 0.54385 0.90332 0.0
H927 H 0.99276 0.51657 0.91004 0.0
H928 H 0.95438 0.52241 0.91906 0.0
H929 H 0.97015 0.54971 0.91209 0.0
C930 C 0.0241 0.62294 0.9535 0.0
C931 C 0.01051 0.6216 0.96055 0.0
C932 C 0.02388 0.61313 0.93847 0.0
C933 C 0.01009 0.60192 0.92999 0.0
C934 C 0.99652 0.60065 0.93695 0.0
C935 C 0.99672 0.61038 0.95208 0.0
C936 C 0.00976 0.5914 0.91407 0.0
C937 C 1.0007 0.57572 0.91707 0.0
C938 C 0.01852 0.59668 0.89622 0.0
C939 C 0.02755 0.61303 0.89142 0.0
C940 C 0.02067 0.622 0.89071 0.0
C941 C 0.02926 0.63741 0.88623 0.0
C942 C 0.04472 0.64397 0.88228 0.0
C943 C 0.05162 0.63512 0.88275 0.0
C944 C 0.04308 0.6197 0.88723 0.0
C945 C 0.99277 0.54264 0.84126 0.0
C946 C 0.00586 0.54339 0.8332 0.0
C947 C 0.99366 0.55095 0.85861 0.0
C948 C 0.00767 0.56019 0.86824 0.0
C949 C 0.02065 0.56044 0.86076 0.0
C950 C 0.01974 0.55203 0.84346 0.0
C951 C 0.00892 0.57054 0.88496 0.0
C952 C 0.01812 0.58619 0.88206 0.0
C953 C 1.00018 0.56523 0.90278 0.0
C954 C 0.99065 0.54881 0.90701 0.0
C955 C 0.99693 0.5393 0.90656 0.0
C956 C 0.98788 0.52384 0.91045 0.0
C957 C 0.97255 0.51776 0.91493 0.0
C958 C 0.96625 0.52714 0.91557 0.0
C959 C 0.97524 0.54261 0.91167 0.0
H960 H 0.96557 0.50578 0.91794 0.0
H961 H 0.05135 0.6559 0.87882 0.0
H962 H 0.38536 0.40628 0.95905 0.0
H963 H 0.40234 0.42293 0.93274 0.0
H964 H 0.43389 0.40766 0.94605 0.0
H965 H 0.41707 0.39112 0.9725 0.0
H966 H 0.44839 0.4381 0.94169 0.0
H967 H 0.41093 0.39447 0.90467 0.0
H968 H 0.38507 0.3753 0.89401 0.0
H969 H 0.37752 0.4103 0.87112 0.0
H970 H 0.40328 0.4297 0.88189 0.0
H971 H 0.49183 0.46044 0.8506 0.0
H972 H 0.47666 0.44824 0.88066 0.0
H973 H 0.44532 0.46301 0.86349 0.0
H974 H 0.46037 0.47505 0.8333 0.0
H975 H 0.43063 0.4338 0.87053 0.0
H976 H 0.46872 0.47749 0.90583 0.0
H977 H 0.49466 0.49659 0.91626 0.0
H978 H 0.50121 0.46177 0.94222 0.0
H979 H 0.47537 0.44242 0.93169 0.0
C980 C 0.39589 0.40643 0.95631 0.0
C981 C 0.39985 0.39733 0.96776 0.0
C982 C 0.40558 0.41595 0.94127 0.0
C983 C 0.41935 0.41647 0.93733 0.0
C984 C 0.42335 0.40746 0.94885 0.0
C985 C 0.41368 0.39795 0.96387 0.0
C986 C 0.42954 0.42628 0.92107 0.0
C987 C 0.44457 0.43708 0.92608 0.0
C988 C 0.42445 0.42519 0.90081 0.0
C989 C 0.40897 0.41354 0.89428 0.0
C990 C 0.40371 0.39808 0.89751 0.0
C991 C 0.38908 0.38718 0.89142 0.0
C992 C 0.37964 0.39158 0.88195 0.0
C993 C 0.38483 0.4069 0.87849 0.0
C994 C 0.39945 0.41786 0.88457 0.0
C995 C 0.48195 0.46145 0.85357 0.0
C996 C 0.47726 0.46868 0.83962 0.0
C997 C 0.47325 0.45444 0.87073 0.0
C998 C 0.45982 0.4547 0.87437 0.0
C999 C 0.45557 0.46259 0.86096 0.0
C1000 C 0.4642 0.4695 0.84377 0.0
C1001 C 0.44954 0.44569 0.89109 0.0
C1002 C 0.43447 0.43497 0.88616 0.0
C1003 C 0.45461 0.44687 0.91139 0.0
C1004 C 0.47015 0.45849 0.9178 0.0
C1005 C 0.47573 0.47388 0.91362 0.0
C1006 C 0.49041 0.48476 0.91958 0.0
C1007 C 0.49959 0.48039 0.92985 0.0
C1008 C 0.49409 0.46514 0.93424 0.0
C1009 C 0.47942 0.45421 0.9283 0.0
H1010 H 0.51095 0.48883 0.93445 0.0
H1011 H 0.36832 0.38312 0.87724 0.0
H1012 H 0.602 0.9795 0.96884 0.0
H1013 H 0.58393 0.97745 0.94269 0.0
H1014 H 0.60782 0.02609 0.93704 0.0
H1015 H 0.6257 0.02821 0.9634 0.0
H1016 H 0.57818 0.01541 0.93888 0.0
H1017 H 0.61092 0.00299 0.90135 0.0
H1018 H 0.62412 0.98888 0.89396 0.0
H1019 H 0.58144 0.94752 0.88917 0.0
H1020 H 0.56798 0.96136 0.89679 0.0
H1021 H 0.55605 0.0259 0.84063 0.0
H1022 H 0.56831 0.02471 0.87203 0.0
H1023 H 0.53745 0.97656 0.8749 0.0
H1024 H 0.52505 0.97776 0.84351 0.0
H1025 H 0.5679 0.98456 0.87628 0.0
H1026 H 0.53518 0.99757 0.91079 0.0
H1027 H 0.52216 0.01188 0.91757 0.0
H1028 H 0.56494 0.0524 0.92733 0.0
H1029 H 0.57827 0.03833 0.92039 0.0
C1030 C 0.60347 0.98974 0.96188 0.0
C1031 C 0.61529 0.00402 0.96811 0.0
C1032 C 0.59314 0.98856 0.94693 0.0
C1033 C 0.59456 0.00162 0.93782 0.0
C1034 C 0.60647 0.01586 0.9439 0.0
C1035 C 0.61673 0.01705 0.95888 0.0
C1036 C 0.58355 1.00055 0.92214 0.0
C1037 C 0.57604 0.00877 0.9251 0.0
C1038 C 0.58038 0.99152 0.90446 0.0
C1039 C 0.58846 0.98318 0.89987 0.0
C1040 C 0.60436 0.99087 0.89889 0.0
C1041 C 0.61188 0.98292 0.89463 0.0
C1042 C 0.60363 0.96731 0.89116 0.0
C1043 C 0.58782 0.95961 0.89189 0.0
C1044 C 0.58024 0.9675 0.89617 0.0
C1045 C 0.55162 0.01516 0.84833 0.0
C1046 C 0.53958 0.00194 0.8398 0.0
C1047 C 0.55861 0.01448 0.86623 0.0
C1048 C 0.55379 1.00054 0.87578 0.0
C1049 C 0.54132 0.98742 0.86777 0.0
C1050 C 0.53417 0.98813 0.84998 0.0
C1051 C 0.56275 0.9996 0.89289 0.0
C1052 C 0.5699 0.99103 0.89018 0.0
C1053 C 0.56565 0.00836 0.91074 0.0
C1054 C 0.55773 0.01691 0.9149 0.0
C1055 C 0.54182 0.00956 0.91421 0.0
C1056 C 0.53438 0.01763 0.91812 0.0
C1057 C 0.5427 0.03306 0.92281 0.0
C1058 C 0.55851 0.04045 0.92367 0.0
C1059 C 0.56602 0.03242 0.91979 0.0
H1060 H 0.5369 0.03928 0.92583 0.0
H1061 H 0.60948 0.96117 0.88786 0.0
H1062 H 0.62904 0.00499 0.09014 0.0
H1063 H 0.61153 0.00259 0.11704 0.0
H1064 H 0.58971 0.01891 0.07646 0.0
H1065 H 0.60725 0.02145 0.04953 0.0
H1066 H 0.59289 0.03048 0.11545 0.0
H1067 H 0.57403 0.98185 0.08324 0.0
H1068 H 0.57614 0.96026 0.07042 0.0
H1069 H 0.58628 0.95175 0.13054 0.0
H1070 H 0.58441 0.97341 0.14369 0.0
H1071 H 0.52913 0.00572 0.18139 0.0
H1072 H 0.54393 0.00893 0.15054 0.0
H1073 H 0.56736 0.98923 0.18107 0.0
H1074 H 0.55237 0.98554 0.21127 0.0
H1075 H 0.56139 0.97913 0.1441 0.0
H1076 H 0.58268 0.02835 0.17615 0.0
H1077 H 0.58214 0.05059 0.18981 0.0
H1078 H 0.56879 0.05851 0.13137 0.0
H1079 H 0.56906 0.03618 0.11743 0.0
C1080 C 0.62067 0.00829 0.08705 0.0
C1081 C 0.61945 0.01331 0.0677 0.0
C1082 C 0.61063 0.00684 0.10239 0.0
C1083 C 0.59916 0.01034 0.09863 0.0
C1084 C 0.59843 0.01609 0.07965 0.0
C1085 C 0.60844 0.01751 0.06428 0.0
C1086 C 0.58749 0.00723 0.11415 0.0
C1087 C 0.58583 0.01922 0.12153 0.0
C1088 C 0.57841 0.99256 0.12221 0.0
C1089 C 0.57919 0.97932 0.11442 0.0
C1090 C 0.57678 0.97541 0.09371 0.0
C1091 C 0.57792 0.96316 0.08639 0.0
C1092 C 0.58137 0.95466 0.09965 0.0
C1093 C 0.58361 0.95835 0.12029 0.0
C1094 C 0.58249 0.9706 0.12769 0.0
C1095 C 0.53731 0.00193 0.18133 0.0
C1096 C 0.53981 0.99566 0.19884 0.0
C1097 C 0.54584 0.00386 0.1638 0.0
C1098 C 0.55697 0.99957 0.16359 0.0
C1099 C 0.55893 0.99272 0.18082 0.0
C1100 C 0.55044 0.99074 0.19818 0.0
C1101 C 0.56699 0.00246 0.14584 0.0
C1102 C 0.56832 0.99038 0.13794 0.0
C1103 C 0.57587 0.01708 0.13747 0.0
C1104 C 0.57571 0.0305 0.14582 0.0
C1105 C 0.57951 0.03476 0.16626 0.0
C1106 C 0.57927 0.04739 0.17404 0.0
C1107 C 0.57538 0.05592 0.16148 0.0
C1108 C 0.57176 0.05187 0.14109 0.0
C1109 C 0.57196 0.03923 0.13324 0.0
H1110 H 0.57521 0.0657 0.16754 0.0
H1111 H 0.58228 0.9452 0.09395 0.0
H1112 H 0.02997 0.61766 0.04364 0.0
H1113 H 0.02929 0.59985 0.06883 0.0
H1114 H 0.98981 0.59759 0.09587 0.0
H1115 H 0.9906 0.61566 0.07087 0.0
H1116 H 0.00964 0.60058 0.12426 0.0
H1117 H 0.98718 0.56835 0.06646 0.0
H1118 H 0.98537 0.56028 0.03077 0.0
H1119 H 0.02595 0.55791 0.03794 0.0
H1120 H 0.02813 0.56618 0.07361 0.0
H1121 H 0.99542 0.54239 0.19057 0.0
H1122 H 0.99064 0.55266 0.15977 0.0
H1123 H 0.03367 0.56189 0.13587 0.0
H1124 H 0.03855 0.55168 0.16672 0.0
H1125 H 0.01032 0.5538 0.10538 0.0
H1126 H 0.03448 0.58925 0.161 0.0
H1127 H 0.03666 0.59717 0.1968 0.0
H1128 H 0.99269 0.59297 0.19339 0.0
H1129 H 0.99028 0.58504 0.15752 0.0
C1130 C 0.02113 0.61337 0.05495 0.0
C1131 C 0.01033 0.61806 0.05528 0.0
C1132 C 0.02069 0.6031 0.06925 0.0
C1133 C 0.00936 0.59718 0.08406 0.0
C1134 C 0.99862 0.60195 0.08453 0.0
C1135 C 0.99908 0.61227 0.07025 0.0
C1136 C 0.00904 0.58645 0.09949 0.0
C1137 C 0.0095 0.59023 0.12006 0.0
C1138 C 0.00921 0.57307 0.09409 0.0
C1139 C 0.00789 0.56801 0.07267 0.0
C1140 C 0.99578 0.56621 0.06039 0.0
C1141 C 0.99468 0.56159 0.04017 0.0
C1142 C 0.00555 0.55861 0.03208 0.0
C1143 C 0.01754 0.56023 0.04422 0.0
C1144 C 0.01871 0.56487 0.06445 0.0
C1145 C 0.00363 0.54615 0.17846 0.0
C1146 C 0.01743 0.54641 0.18113 0.0
C1147 C 1.0009 0.55202 0.1609 0.0
C1148 C 0.01193 0.55828 0.14574 0.0
C1149 C 0.02503 0.55712 0.14741 0.0
C1150 C 0.02777 0.55123 0.16502 0.0
C1151 C 0.01087 0.568 0.12993 0.0
C1152 C 0.01026 0.56408 0.10941 0.0
C1153 C 0.01059 0.58128 0.13529 0.0
C1154 C 0.01215 0.58644 0.15667 0.0
C1155 C 0.02526 0.58997 0.16793 0.0
C1156 C 0.02653 0.59445 0.18823 0.0
C1157 C 0.01478 0.59547 0.19744 0.0
C1158 C 1.00178 0.59214 0.18628 0.0
C1159 C 1.00047 0.5877 0.16594 0.0
H1160 H 0.01579 0.59891 0.21319 0.0
H1161 H 0.00468 0.55503 0.01642 0.0
H1162 H 0.39486 0.417 0.05692 0.0
H1163 H 0.41243 0.43445 0.08247 0.0
H1164 H 0.42647 0.40216 0.0972 0.0
H1165 H 0.40856 0.38447 0.07204 0.0
H1166 H 0.42324 0.41398 0.13057 0.0
H1167 H 0.44863 0.43414 0.06799 0.0
H1168 H 0.45159 0.44351 0.03295 0.0
H1169 H 0.44461 0.47959 0.053 0.0
H1170 H 0.44139 0.4703 0.08814 0.0
H1171 H 0.48811 0.46438 0.18643 0.0
H1172 H 0.47542 0.45113 0.15495 0.0
H1173 H 0.44924 0.47363 0.15502 0.0
H1174 H 0.46164 0.48659 0.18685 0.0
H1175 H 0.46015 0.46737 0.11346 0.0
H1176 H 0.43215 0.44471 0.17569 0.0
H1177 H 0.43082 0.43582 0.21075 0.0
H1178 H 0.44437 0.4044 0.19042 0.0
H1179 H 0.44604 0.41333 0.15525 0.0
C1180 C 0.40166 0.4136 0.06566 0.0
C1181 C 0.40036 0.39938 0.06246 0.0
C1182 C 0.41178 0.42363 0.08016 0.0
C1183 C 0.421 0.41976 0.09153 0.0
C1184 C 0.41953 0.40544 0.08858 0.0
C1185 C 0.40929 0.39534 0.07419 0.0
C1186 C 0.43201 0.43054 0.10669 0.0
C1187 C 0.43142 0.42558 0.12667 0.0
C1188 C 0.44263 0.44578 0.10178 0.0
C1189 C 0.44463 0.45144 0.08068 0.0
C1190 C 0.44762 0.44401 0.06491 0.0
C1191 C 0.44936 0.44931 0.04503 0.0
C1192 C 0.44826 0.46212 0.04074 0.0
C1193 C 0.44545 0.46966 0.05634 0.0
C1194 C 0.44367 0.46439 0.07625 0.0
C1195 C 0.48012 0.46696 0.17924 0.0
C1196 C 0.47587 0.47653 0.18889 0.0
C1197 C 0.47284 0.45935 0.16136 0.0
C1198 C 0.46138 0.46139 0.15278 0.0
C1199 C 0.45813 0.47202 0.16138 0.0
C1200 C 0.4652 0.47941 0.17949 0.0
C1201 C 0.4512 0.45073 0.13706 0.0
C1202 C 0.45196 0.45573 0.11713 0.0
C1203 C 0.44082 0.4355 0.14191 0.0
C1204 C 0.43938 0.4298 0.16291 0.0
C1205 C 0.43496 0.43599 0.17873 0.0
C1206 C 0.43413 0.43094 0.19861 0.0
C1207 C 0.43756 0.41959 0.20282 0.0
C1208 C 0.44174 0.41321 0.18714 0.0
C1209 C 0.44263 0.41826 0.16723 0.0
H1210 H 0.43693 0.4157 0.21823 0.0
H1211 H 0.44961 0.46621 0.02534 0.0
H1212 H 0.67596 0.72299 0.4175 0.0
H1213 H 0.67615 0.73952 0.44444 0.0
H1214 H 0.66046 0.76085 0.40205 0.0
H1215 H 0.66076 0.74462 0.3748 0.0
H1216 H 0.68187 0.78166 0.42417 0.0
H1217 H 0.63685 0.73615 0.43934 0.0
H1218 H 0.62023 0.70884 0.44534 0.0
H1219 H 0.64727 0.71149 0.49697 0.0
H1220 H 0.66419 0.73877 0.49112 0.0
H1221 H 0.6747 0.82045 0.51343 0.0
H1222 H 0.66848 0.80511 0.48214 0.0
H1223 H 0.68913 0.78085 0.50745 0.0
H1224 H 0.69555 0.79615 0.53818 0.0
H1225 H 0.66033 0.76184 0.49194 0.0
H1226 H 0.70695 0.8077 0.47241 0.0
H1227 H 0.72214 0.83513 0.46603 0.0
H1228 H 0.6894 0.8316 0.42194 0.0
H1229 H 0.6739 0.8042 0.42832 0.0
C1230 C 0.67241 0.7311 0.41395 0.0
C1231 C 0.66828 0.73247 0.39407 0.0
C1232 C 0.67245 0.74051 0.42939 0.0
C1233 C 0.66807 0.7513 0.4254 0.0
C1234 C 0.66383 0.7526 0.40554 0.0
C1235 C 0.66395 0.74328 0.39001 0.0
C1236 C 0.66857 0.76155 0.44186 0.0
C1237 C 0.67688 0.77729 0.43886 0.0
C1238 C 0.66203 0.75593 0.46105 0.0
C1239 C 0.65186 0.73951 0.4647 0.0
C1240 C 0.63932 0.73089 0.45189 0.0
C1241 C 0.62983 0.71542 0.45528 0.0
C1242 C 0.63271 0.70843 0.4715 0.0
C1243 C 0.64506 0.71691 0.4844 0.0
C1244 C 0.65459 0.73239 0.48107 0.0
C1245 C 0.67801 0.81193 0.51215 0.0
C1246 C 0.68534 0.80928 0.5284 0.0
C1247 C 0.67442 0.80317 0.49435 0.0
C1248 C 0.67821 0.79173 0.4926 0.0
C1249 C 0.6859 0.78944 0.50859 0.0
C1250 C 0.68951 0.79816 0.52619 0.0
C1251 C 0.67412 0.78182 0.47442 0.0
C1252 C 0.66506 0.76614 0.47711 0.0
C1253 C 0.67975 0.7875 0.45492 0.0
C1254 C 0.68917 0.80395 0.45103 0.0
C1255 C 0.70293 0.81281 0.46149 0.0
C1256 C 0.71161 0.82835 0.45786 0.0
C1257 C 0.70671 0.83513 0.44366 0.0
C1258 C 0.69316 0.82636 0.433 0.0
C1259 C 0.68443 0.81083 0.43661 0.0
H1260 H 0.71345 0.84716 0.44086 0.0
H1261 H 0.62535 0.69645 0.4741 0.0
H1262 H 0.27083 0.96114 0.40702 0.0
H1263 H 0.25344 0.94453 0.43299 0.0
H1264 H 0.27413 0.9167 0.43026 0.0
H1265 H 0.29171 0.93339 0.40436 0.0
H1266 H 0.24168 0.9001 0.42961 0.0
H1267 H 0.28279 0.93935 0.46851 0.0
H1268 H 0.30089 0.96576 0.47832 0.0
H1269 H 0.26405 0.9728 0.4937 0.0
H1270 H 0.24571 0.94648 0.4837 0.0
H1271 H 0.21291 0.85959 0.52245 0.0
H1272 H 0.22687 0.87346 0.49241 0.0
H1273 H 0.21185 0.90569 0.50164 0.0
H1274 H 0.19799 0.89192 0.53178 0.0
H1275 H 0.24133 0.91989 0.49831 0.0
H1276 H 0.20004 0.88123 0.46044 0.0
H1277 H 0.18125 0.85535 0.44942 0.0
H1278 H 0.21702 0.84743 0.4312 0.0
H1279 H 0.23605 0.87321 0.44238 0.0
C1280 C 0.27171 0.95151 0.41199 0.0
C1281 C 0.28267 0.94859 0.40373 0.0
C1282 C 0.26177 0.94204 0.42682 0.0
C1283 C 0.26253 0.92941 0.43357 0.0
C1284 C 0.27336 0.92638 0.42522 0.0
C1285 C 0.28344 0.93596 0.41054 0.0
C1286 C 0.25209 0.9195 0.44951 0.0
C1287 C 0.24169 0.90432 0.44474 0.0
C1288 C 0.25186 0.92519 0.46901 0.0
C1289 C 0.26288 0.94099 0.47515 0.0
C1290 C 0.27854 0.94657 0.47381 0.0
C1291 C 0.28885 0.96151 0.47944 0.0
C1292 C 0.28363 0.97097 0.48657 0.0
C1293 C 0.26808 0.96547 0.48815 0.0
C1294 C 0.25773 0.95054 0.48252 0.0
C1295 C 0.21217 0.86933 0.51767 0.0
C1296 C 0.20437 0.87468 0.52947 0.0
C1297 C 0.22021 0.8773 0.50052 0.0
C1298 C 0.22046 0.89067 0.49476 0.0
C1299 C 0.21192 0.89548 0.50585 0.0
C1300 C 0.20395 0.88757 0.52301 0.0
C1301 C 0.23073 0.90039 0.47846 0.0
C1302 C 0.24119 0.91558 0.48319 0.0
C1303 C 0.23088 0.89472 0.45888 0.0
C1304 C 0.21948 0.87912 0.45244 0.0
C1305 C 0.20391 0.87392 0.45429 0.0
C1306 C 0.19321 0.85928 0.44797 0.0
C1307 C 0.19794 0.84975 0.43965 0.0
C1308 C 0.21338 0.85483 0.43766 0.0
C1309 C 0.22413 0.86946 0.44398 0.0
H1310 H 0.18964 0.83847 0.43464 0.0
H1311 H 0.29162 0.98253 0.49091 0.0
H1312 H 0.07669 0.33156 0.3705 0.0
H1313 H 0.09175 0.32921 0.39763 0.0
H1314 H 0.08072 0.35596 0.43724 0.0
H1315 H 0.06592 0.35868 0.40992 0.0
H1316 H 0.10959 0.36322 0.44278 0.0
H1317 H 0.06115 0.31717 0.43921 0.0
H1318 H 0.0404 0.29463 0.42233 0.0
H1319 H 0.071 0.27866 0.40805 0.0
H1320 H 0.09198 0.3012 0.42462 0.0
H1321 H 0.10365 0.31312 0.53327 0.0
H1322 H 0.09392 0.31768 0.502 0.0
H1323 H 0.13952 0.34508 0.48003 0.0
H1324 H 0.14944 0.3409 0.51195 0.0
H1325 H 0.09501 0.3111 0.46398 0.0
H1326 H 0.13995 0.37333 0.45004 0.0
H1327 H 0.15875 0.39585 0.46919 0.0
H1328 H 0.13171 0.37929 0.52282 0.0
H1329 H 0.11268 0.35678 0.50393 0.0
C1330 C 0.07756 0.33704 0.38494 0.0
C1331 C 0.07001 0.34519 0.38817 0.0
C1332 C 0.08616 0.33567 0.40044 0.0
C1333 C 0.08718 0.34221 0.41957 0.0
C1334 C 0.08008 0.35081 0.4226 0.0
C1335 C 0.07157 0.3523 0.40703 0.0
C1336 C 0.09494 0.33942 0.4367 0.0
C1337 C 0.10647 0.35183 0.44734 0.0
C1338 C 0.09079 0.32456 0.4428 0.0
C1339 C 0.07816 0.31095 0.43296 0.0
C1340 C 0.06347 0.3089 0.43235 0.0
C1341 C 0.05167 0.29612 0.42286 0.0
C1342 C 0.0544 0.28525 0.41407 0.0
C1343 C 0.06892 0.28711 0.41483 0.0
C1344 C 0.08076 0.29987 0.42428 0.0
C1345 C 0.11165 0.32024 0.52188 0.0
C1346 C 0.12734 0.32691 0.52524 0.0
C1347 C 0.10605 0.3227 0.5039 0.0
C1348 C 0.11596 0.33185 0.48873 0.0
C1349 C 0.13166 0.33814 0.49166 0.0
C1350 C 0.13731 0.33568 0.5098 0.0
C1351 C 0.1096 0.33489 0.4702 0.0
C1352 C 0.09832 0.32251 0.45924 0.0
C1353 C 0.11373 0.34975 0.46415 0.0
C1354 C 0.12501 0.3633 0.47563 0.0
C1355 C 0.13802 0.37452 0.46591 0.0
C1356 C 0.14871 0.38728 0.47671 0.0
C1357 C 0.14646 0.38897 0.49723 0.0
C1358 C 0.13348 0.37793 0.50696 0.0
C1359 C 0.12275 0.36517 0.49621 0.0
H1360 H 0.15475 0.39885 0.50557 0.0
H1361 H 0.04527 0.27537 0.40671 0.0
H1362 H 0.08419 0.36811 0.29634 0.0
H1363 H 0.10013 0.36682 0.26983 0.0
H1364 H 0.06629 0.32034 0.25745 0.0
H1365 H 0.05036 0.32148 0.28429 0.0
H1366 H 0.09431 0.32383 0.25927 0.0
H1367 H 0.07097 0.34879 0.22573 0.0
H1368 H 0.06363 0.36826 0.22172 0.0
H1369 H 0.11046 0.40307 0.2222 0.0
H1370 H 0.11807 0.38382 0.22648 0.0
H1371 H 0.12256 0.31653 0.16361 0.0
H1372 H 0.10853 0.31687 0.19342 0.0
H1373 H 0.14009 0.36465 0.20148 0.0
H1374 H 0.15359 0.36437 0.17098 0.0
H1375 H 0.11334 0.36038 0.20255 0.0
H1376 H 0.13698 0.33559 0.23539 0.0
H1377 H 0.14444 0.31623 0.23966 0.0
H1378 H 0.09766 0.28137 0.24089 0.0
H1379 H 0.08991 0.30049 0.23637 0.0
C1380 C 0.08008 0.35764 0.28788 0.0
C1381 C 0.06599 0.34492 0.29232 0.0
C1382 C 0.0892 0.35693 0.27271 0.0
C1383 C 0.08435 0.34352 0.26152 0.0
C1384 C 0.07026 0.3308 0.26589 0.0
C1385 C 0.06114 0.33149 0.28114 0.0
C1386 C 0.09408 0.34277 0.24542 0.0
C1387 C 0.09835 0.3317 0.24671 0.0
C1388 C 0.09965 0.35328 0.22934 0.0
C1389 C 0.09508 0.36486 0.22661 0.0
C1390 C 0.0797 0.3606 0.22512 0.0
C1391 C 0.07549 0.3716 0.22278 0.0
C1392 C 0.08657 0.3869 0.22175 0.0
C1393 C 0.10189 0.39122 0.22301 0.0
C1394 C 0.10615 0.38027 0.22538 0.0
C1395 C 0.1267 0.32697 0.17217 0.0
C1396 C 0.1392 0.34039 0.16528 0.0
C1397 C 0.11871 0.32718 0.18921 0.0
C1398 C 0.12329 0.34077 0.19989 0.0
C1399 C 0.1363 0.35403 0.19352 0.0
C1400 C 0.14409 0.35387 0.17624 0.0
C1401 C 0.11378 0.3415 0.21641 0.0
C1402 C 0.10945 0.35254 0.21515 0.0
C1403 C 0.10823 0.33099 0.23254 0.0
C1404 C 0.11287 0.31948 0.23538 0.0
C1405 C 0.12828 0.32379 0.23644 0.0
C1406 C 0.13256 0.31286 0.23892 0.0
C1407 C 0.12153 0.29758 0.2405 0.0
C1408 C 0.10619 0.2932 0.23965 0.0
C1409 C 0.10185 0.30409 0.23716 0.0
H1410 H 0.12487 0.28913 0.24242 0.0
H1411 H 0.08329 0.39539 0.21995 0.0
H1412 H 0.65543 0.71772 0.2841 0.0
H1413 H 0.65568 0.73441 0.25756 0.0
H1414 H 0.70028 0.76906 0.27688 0.0
H1415 H 0.6999 0.75248 0.30395 0.0
H1416 H 0.68312 0.7812 0.27019 0.0
H1417 H 0.69465 0.74824 0.23281 0.0
H1418 H 0.69154 0.72389 0.22101 0.0
H1419 H 0.64797 0.71154 0.19574 0.0
H1420 H 0.65073 0.73573 0.20764 0.0
H1421 H 0.69617 0.82363 0.17717 0.0
H1422 H 0.6971 0.81014 0.20731 0.0
H1423 H 0.65096 0.775 0.19609 0.0
H1424 H 0.6499 0.78848 0.16616 0.0
H1425 H 0.67056 0.7641 0.19864 0.0
H1426 H 0.65972 0.79791 0.23661 0.0
H1427 H 0.66378 0.82264 0.24836 0.0
H1428 H 0.70758 0.83408 0.27183 0.0
H1429 H 0.7039 0.80952 0.25992 0.0
C1430 C 0.66537 0.72883 0.28258 0.0
C1431 C 0.67768 0.73376 0.29605 0.0
C1432 C 0.66551 0.73837 0.26735 0.0
C1433 C 0.67807 0.75296 0.26503 0.0
C1434 C 0.69046 0.75786 0.27835 0.0
C1435 C 0.69028 0.74834 0.29373 0.0
C1436 C 0.67803 0.76314 0.24896 0.0
C1437 C 0.68062 0.77756 0.25448 0.0
C1438 C 0.67455 0.75833 0.22849 0.0
C1439 C 0.67285 0.74376 0.22128 0.0
C1440 C 0.68436 0.74029 0.22488 0.0
C1441 C 0.68267 0.72652 0.21814 0.0
C1442 C 0.66956 0.71616 0.20767 0.0
C1443 C 0.65812 0.71957 0.20387 0.0
C1444 C 0.65975 0.73331 0.21059 0.0
C1445 C 0.68607 0.81329 0.18151 0.0
C1446 C 0.67299 0.80705 0.16919 0.0
C1447 C 0.68664 0.80555 0.19869 0.0
C1448 C 0.67414 0.7915 0.20385 0.0
C1449 C 0.66078 0.78576 0.19229 0.0
C1450 C 0.66018 0.79348 0.17521 0.0
C1451 C 0.67537 0.78204 0.21993 0.0
C1452 C 0.67309 0.76776 0.21435 0.0
C1453 C 0.67931 0.78707 0.24024 0.0
C1454 C 0.68159 0.80192 0.24717 0.0
C1455 C 0.67029 0.80576 0.24407 0.0
C1456 C 0.67251 0.81974 0.25081 0.0
C1457 C 0.68594 0.82993 0.26081 0.0
C1458 C 0.69719 0.82618 0.26407 0.0
C1459 C 0.69504 0.81223 0.25733 0.0
H1460 H 0.68761 0.8407 0.26612 0.0
H1461 H 0.66827 0.70551 0.20247 0.0
H1462 H 0.27265 0.96025 0.30236 0.0
H1463 H 0.25644 0.94294 0.27549 0.0
H1464 H 0.27678 0.9152 0.28452 0.0
H1465 H 0.29299 0.93241 0.31131 0.0
H1466 H 0.27469 0.92042 0.24446 0.0
H1467 H 0.24211 0.90385 0.30234 0.0
H1468 H 0.22893 0.90681 0.3317 0.0
H1469 H 0.20543 0.92171 0.29235 0.0
H1470 H 0.21864 0.91905 0.26277 0.0
H1471 H 0.22406 0.85682 0.18703 0.0
H1472 H 0.2355 0.87114 0.21837 0.0
H1473 H 0.21929 0.90169 0.20371 0.0
H1474 H 0.20802 0.88751 0.1722 0.0
H1475 H 0.21858 0.89464 0.24698 0.0
H1476 H 0.25186 0.9124 0.1896 0.0
H1477 H 0.26476 0.90935 0.15998 0.0
H1478 H 0.28699 0.89252 0.19848 0.0
H1479 H 0.27396 0.89519 0.22831 0.0
C1480 C 0.27367 0.95047 0.29858 0.0
C1481 C 0.28408 0.94768 0.30895 0.0
C1482 C 0.26436 0.94056 0.28331 0.0
C1483 C 0.26531 0.9277 0.27813 0.0
C1484 C 0.27584 0.92502 0.28829 0.0
C1485 C 0.28507 0.93486 0.30362 0.0
C1486 C 0.25549 0.91712 0.26192 0.0
C1487 C 0.26243 0.91463 0.24519 0.0
C1488 C 0.23948 0.90982 0.26262 0.0
C1489 C 0.23149 0.9114 0.28036 0.0
C1490 C 0.23423 0.90789 0.29996 0.0
C1491 C 0.22674 0.90949 0.31664 0.0
C1492 C 0.21638 0.91449 0.3139 0.0
C1493 C 0.21347 0.91786 0.29446 0.0
C1494 C 0.22095 0.9163 0.27772 0.0
C1495 C 0.22249 0.86626 0.19086 0.0
C1496 C 0.21518 0.87109 0.17726 0.0
C1497 C 0.2291 0.87448 0.20868 0.0
C1498 C 0.22834 0.88754 0.21322 0.0
C1499 C 0.21997 0.89163 0.20048 0.0
C1500 C 0.21356 0.88355 0.18252 0.0
C1501 C 0.23782 0.8979 0.22974 0.0
C1502 C 0.23085 0.9004 0.2464 0.0
C1503 C 0.25381 0.90527 0.229 0.0
C1504 C 0.2618 0.90381 0.21115 0.0
C1505 C 0.25939 0.90791 0.19172 0.0
C1506 C 0.26674 0.90627 0.1749 0.0
C1507 C 0.27666 0.90071 0.17734 0.0
C1508 C 0.27928 0.8968 0.19661 0.0
C1509 C 0.27191 0.89837 0.21348 0.0
H1510 H 0.28235 0.89946 0.1643 0.0
H1511 H 0.21058 0.91571 0.32683 0.0
H1512 H 0.69883 0.96764 0.29355 0.0
H1513 H 0.69932 0.95103 0.26712 0.0
H1514 H 0.6525 0.9184 0.27892 0.0
H1515 H 0.65209 0.9348 0.30575 0.0
H1516 H 0.66797 0.9043 0.27448 0.0
H1517 H 0.66329 0.94191 0.23714 0.0
H1518 H 0.66997 0.96768 0.22671 0.0
H1519 H 0.71351 0.97607 0.20694 0.0
H1520 H 0.70716 0.9504 0.21751 0.0
H1521 H 0.64974 0.86609 0.17721 0.0
H1522 H 0.65143 0.88044 0.20805 0.0
H1523 H 0.70011 0.90516 0.20347 0.0
H1524 H 0.69847 0.89057 0.17293 0.0
H1525 H 0.68484 0.92305 0.20473 0.0
H1526 H 0.68785 0.88385 0.24008 0.0
H1527 H 0.67972 0.85748 0.24897 0.0
H1528 H 0.63764 0.85145 0.27137 0.0
H1529 H 0.64536 0.87773 0.26211 0.0
C1530 C 0.68862 0.95696 0.29042 0.0
C1531 C 0.67539 0.95255 0.30163 0.0
C1532 C 0.6889 0.94748 0.2753 0.0
C1533 C 0.67589 0.93351 0.27087 0.0
C1534 C 0.66268 0.9291 0.28207 0.0
C1535 C 0.66243 0.93852 0.29732 0.0
C1536 C 0.67606 0.92349 0.25457 0.0
C1537 C 0.67151 0.90837 0.25918 0.0
C1538 C 0.68094 0.92885 0.23467 0.0
C1539 C 0.68481 0.9443 0.22833 0.0
C1540 C 0.67434 0.9493 0.23073 0.0
C1541 C 0.67805 0.96388 0.22476 0.0
C1542 C 0.69217 0.97353 0.21622 0.0
C1543 C 0.70259 0.9686 0.21359 0.0
C1544 C 0.69893 0.95403 0.21955 0.0
C1545 C 0.66079 0.87429 0.18318 0.0
C1546 C 0.67398 0.87718 0.17289 0.0
C1547 C 0.66175 0.88248 0.2007 0.0
C1548 C 0.67589 0.89385 0.20795 0.0
C1549 C 0.68911 0.89639 0.1981 0.0
C1550 C 0.68817 0.88799 0.1808 0.0
C1551 C 0.67674 0.90395 0.22468 0.0
C1552 C 0.68143 0.91906 0.2201 0.0
C1553 C 0.67179 0.89852 0.24447 0.0
C1554 C 0.66713 0.88273 0.25019 0.0
C1555 C 0.67679 0.87687 0.2467 0.0
C1556 C 0.67227 0.86193 0.25185 0.0
C1557 C 0.65817 0.85278 0.26073 0.0
C1558 C 0.64856 0.85855 0.26447 0.0
C1559 C 0.653 0.87347 0.25926 0.0
H1560 H 0.6547 0.84122 0.26473 0.0
H1561 H 0.69503 0.98481 0.21161 0.0
H1562 H 0.05152 0.72713 0.27387 0.0
H1563 H 0.06942 0.74265 0.24746 0.0
H1564 H 0.10439 0.7653 0.29277 0.0
H1565 H 0.08671 0.74953 0.31918 0.0
H1566 H 0.09885 0.78415 0.25877 0.0
H1567 H 0.11016 0.74391 0.27227 0.0
H1568 H 0.10271 0.71712 0.27698 0.0
H1569 H 0.08297 0.70647 0.21727 0.0
H1570 H 0.0901 0.73318 0.21234 0.0
H1571 H 0.15796 0.81965 0.18501 0.0
H1572 H 0.1437 0.80776 0.21588 0.0
H1573 H 0.11268 0.76823 0.18105 0.0
H1574 H 0.12744 0.77929 0.15093 0.0
H1575 H 0.11825 0.75907 0.21316 0.0
H1576 H 0.10485 0.79717 0.19864 0.0
H1577 H 0.10965 0.82303 0.19258 0.0
H1578 H 0.13032 0.83697 0.2515 0.0
H1579 H 0.12579 0.81122 0.25781 0.0
C1580 C 0.06299 0.73548 0.27819 0.0
C1581 C 0.06777 0.73709 0.29851 0.0
C1582 C 0.07317 0.74432 0.26314 0.0
C1583 C 0.08816 0.75509 0.26827 0.0
C1584 C 0.09284 0.75707 0.28861 0.0
C1585 C 0.08276 0.74801 0.3036 0.0
C1586 C 0.09914 0.76365 0.25217 0.0
C1587 C 0.10332 0.77881 0.24892 0.0
C1588 C 0.10463 0.75651 0.23919 0.0
C1589 C 0.10052 0.7405 0.24203 0.0
C1590 C 0.10411 0.73583 0.26022 0.0
C1591 C 0.09997 0.72066 0.26291 0.0
C1592 C 0.09234 0.71009 0.24745 0.0
C1593 C 0.08887 0.71467 0.22924 0.0
C1594 C 0.09296 0.72982 0.22649 0.0
C1595 C 0.14817 0.80838 0.18399 0.0
C1596 C 0.14375 0.80061 0.16528 0.0
C1597 C 0.13991 0.80166 0.20162 0.0
C1598 C 0.12693 0.78715 0.20081 0.0
C1599 C 0.1226 0.77943 0.18218 0.0
C1600 C 0.13096 0.78595 0.16477 0.0
C1601 C 0.11784 0.77967 0.21918 0.0
C1602 C 0.11398 0.76461 0.22299 0.0
C1603 C 0.1124 0.78686 0.23237 0.0
C1604 C 0.11515 0.80233 0.22859 0.0
C1605 C 0.11052 0.80579 0.21024 0.0
C1606 C 0.11318 0.82042 0.20677 0.0
C1607 C 0.12033 0.83165 0.22162 0.0
C1608 C 0.12481 0.82827 0.24 0.0
C1609 C 0.12219 0.81366 0.24353 0.0
H1610 H 0.12237 0.84297 0.21891 0.0
H1611 H 0.08914 0.69835 0.24957 0.0
H1612 H 0.28804 0.36268 0.29811 0.0
H1613 H 0.27077 0.36168 0.27157 0.0
H1614 H 0.25064 0.31314 0.26781 0.0
H1615 H 0.26818 0.31412 0.29404 0.0
H1616 H 0.25455 0.32451 0.23117 0.0
H1617 H 0.23313 0.32984 0.29233 0.0
H1618 H 0.2329 0.34109 0.32532 0.0
H1619 H 0.24351 0.38275 0.29614 0.0
H1620 H 0.2442 0.37187 0.26296 0.0
H1621 H 0.1927 0.31448 0.1708 0.0
H1622 H 0.20511 0.31357 0.20231 0.0
H1623 H 0.23406 0.36208 0.20088 0.0
H1624 H 0.22184 0.363 0.16922 0.0
H1625 H 0.22362 0.34905 0.24136 0.0
H1626 H 0.24739 0.34366 0.18076 0.0
H1627 H 0.24712 0.3318 0.148 0.0
H1628 H 0.23072 0.28893 0.17733 0.0
H1629 H 0.23063 0.30051 0.21023 0.0
C1630 C 0.27997 0.3518 0.29158 0.0
C1631 C 0.27943 0.33847 0.29818 0.0
C1632 C 0.27003 0.35123 0.2765 0.0
C1633 C 0.25921 0.3373 0.26794 0.0
C1634 C 0.25885 0.324 0.27425 0.0
C1635 C 0.26887 0.32458 0.28924 0.0
C1636 C 0.24838 0.33666 0.25226 0.0
C1637 C 0.24761 0.32965 0.23358 0.0
C1638 C 0.23942 0.34352 0.25525 0.0
C1639 C 0.23884 0.35007 0.27515 0.0
C1640 C 0.23553 0.34144 0.29294 0.0
C1641 C 0.2353 0.34775 0.31169 0.0
C1642 C 0.23817 0.36262 0.31284 0.0
C1643 C 0.24129 0.37122 0.29523 0.0
C1644 C 0.24161 0.365 0.27644 0.0
C1645 C 0.20139 0.32497 0.17758 0.0
C1646 C 0.20636 0.33881 0.16766 0.0
C1647 C 0.2085 0.32444 0.19548 0.0
C1648 C 0.22056 0.33776 0.20379 0.0
C1649 C 0.22476 0.3517 0.19471 0.0
C1650 C 0.21781 0.35221 0.17666 0.0
C1651 C 0.22995 0.33701 0.22042 0.0
C1652 C 0.23047 0.34378 0.23917 0.0
C1653 C 0.23859 0.32983 0.21761 0.0
C1654 C 0.23883 0.32291 0.19789 0.0
C1655 C 0.2436 0.33168 0.18019 0.0
C1656 C 0.24353 0.32501 0.1616 0.0
C1657 C 0.23886 0.30961 0.16057 0.0
C1658 C 0.2343 0.30086 0.17814 0.0
C1659 C 0.23431 0.30746 0.19676 0.0
H1660 H 0.23882 0.30447 0.14617 0.0
H1661 H 0.23797 0.36748 0.32737 0.0
H1662 H 0.26002 0.31903 0.38533 0.0
H1663 H 0.24301 0.32028 0.41022 0.0
H1664 H 0.27787 0.36526 0.42767 0.0
H1665 H 0.29504 0.36403 0.40286 0.0
H1666 H 0.26463 0.34801 0.4603 0.0
H1667 H 0.24762 0.35972 0.39889 0.0
H1668 H 0.23846 0.35611 0.36352 0.0
H1669 H 0.19913 0.31406 0.37942 0.0
H1670 H 0.20817 0.31728 0.41483 0.0
H1671 H 0.2181 0.36036 0.52506 0.0
H1672 H 0.23283 0.36408 0.49427 0.0
H1673 H 0.20121 0.31836 0.47518 0.0
H1674 H 0.18642 0.3146 0.50593 0.0
H1675 H 0.21308 0.33797 0.44251 0.0
H1676 H 0.23147 0.3242 0.50162 0.0
H1677 H 0.24017 0.32674 0.53711 0.0
H1678 H 0.27634 0.37185 0.52538 0.0
H1679 H 0.26786 0.36953 0.48973 0.0
C1680 C 0.26408 0.3292 0.39447 0.0
C1681 C 0.27888 0.34144 0.39215 0.0
C1682 C 0.2543 0.32994 0.40859 0.0
C1683 C 0.25908 0.34295 0.42062 0.0
C1684 C 0.27391 0.35514 0.41848 0.0
C1685 C 0.28371 0.35441 0.40432 0.0
C1686 C 0.24877 0.34359 0.43594 0.0
C1687 C 0.25349 0.34612 0.45631 0.0
C1688 C 0.23405 0.34072 0.43085 0.0
C1689 C 0.22864 0.33869 0.40951 0.0
C1690 C 0.23709 0.34963 0.39481 0.0
C1691 C 0.2319 0.34767 0.37475 0.0
C1692 C 0.21822 0.33486 0.36922 0.0
C1693 C 0.20972 0.32398 0.38373 0.0
C1694 C 0.21487 0.32587 0.4038 0.0
C1695 C 0.21403 0.35128 0.51396 0.0
C1696 C 0.20119 0.33715 0.51796 0.0
C1697 C 0.22249 0.35338 0.49644 0.0
C1698 C 0.2183 0.34138 0.48268 0.0
C1699 C 0.20468 0.32775 0.48564 0.0
C1700 C 0.19618 0.32564 0.50317 0.0
C1701 C 0.22899 0.34239 0.46673 0.0
C1702 C 0.22432 0.34008 0.44635 0.0
C1703 C 0.24374 0.34534 0.47176 0.0
C1704 C 0.24894 0.34675 0.4931 0.0
C1705 C 0.24122 0.33469 0.50665 0.0
C1706 C 0.24611 0.33609 0.52679 0.0
C1707 C 0.25873 0.34949 0.53356 0.0
C1708 C 0.26654 0.36149 0.52014 0.0
C1709 C 0.26173 0.36012 0.49995 0.0
H1710 H 0.26247 0.35056 0.54917 0.0
H1711 H 0.21418 0.33338 0.35372 0.0
H1712 H 0.65524 0.94463 0.40844 0.0
H1713 H 0.65573 0.92749 0.43384 0.0
H1714 H 0.70108 0.93988 0.41592 0.0
H1715 H 0.70051 0.95676 0.39015 0.0
H1716 H 0.68477 0.91018 0.42151 0.0
H1717 H 0.69433 0.95439 0.45926 0.0
H1718 H 0.68948 0.9745 0.47105 0.0
H1719 H 0.64699 0.94106 0.49604 0.0
H1720 H 0.6515 0.92073 0.48415 0.0
H1721 H 0.70732 0.88753 0.51192 0.0
H1722 H 0.7039 0.89927 0.4816 0.0
H1723 H 0.65835 0.88561 0.50013 0.0
H1724 H 0.66183 0.87406 0.53059 0.0
H1725 H 0.67398 0.91506 0.49352 0.0
H1726 H 0.66595 0.8707 0.45728 0.0
H1727 H 0.67214 0.85135 0.4462 0.0
H1728 H 0.71317 0.88577 0.41914 0.0
H1729 H 0.70736 0.90537 0.43032 0.0
C1730 C 0.66533 0.94374 0.40997 0.0
C1731 C 0.67787 0.95212 0.3974 0.0
C1732 C 0.66561 0.93395 0.4245 0.0
C1733 C 0.67851 0.9325 0.42695 0.0
C1734 C 0.691 0.94079 0.4143 0.0
C1735 C 0.69069 0.9505 0.39967 0.0
C1736 C 0.67905 0.92251 0.44287 0.0
C1737 C 0.68255 0.91132 0.4373 0.0
C1738 C 0.67591 0.92383 0.46342 0.0
C1739 C 0.67318 0.93603 0.47062 0.0
C1740 C 0.6839 0.95132 0.46713 0.0
C1741 C 0.68122 0.96276 0.47386 0.0
C1742 C 0.66792 0.95906 0.48424 0.0
C1743 C 0.65728 0.94391 0.48797 0.0
C1744 C 0.6599 0.93242 0.48125 0.0
C1745 C 0.69642 0.8866 0.50916 0.0
C1746 C 0.68485 0.87993 0.52361 0.0
C1747 C 0.69447 0.89335 0.49184 0.0
C1748 C 0.68086 0.89336 0.48859 0.0
C1749 C 0.66897 0.88582 0.50237 0.0
C1750 C 0.67094 0.87917 0.51971 0.0
C1751 C 0.67959 0.90261 0.47219 0.0
C1752 C 0.67604 0.91377 0.47771 0.0
C1753 C 0.68283 0.90133 0.45167 0.0
C1754 C 0.68627 0.88953 0.44479 0.0
C1755 C 0.67635 0.87416 0.4491 0.0
C1756 C 0.67978 0.86314 0.44278 0.0
C1757 C 0.69305 0.86734 0.43202 0.0
C1758 C 0.7029 0.88255 0.4275 0.0
C1759 C 0.69953 0.89361 0.4338 0.0
H1760 H 0.69569 0.85881 0.42713 0.0
H1761 H 0.66587 0.96793 0.48944 0.0
H1762 H 0.06096 0.71391 0.41153 0.0
H1763 H 0.07734 0.72871 0.44001 0.0
H1764 H 0.08548 0.76998 0.41128 0.0
H1765 H 0.06896 0.75527 0.38295 0.0
H1766 H 0.11229 0.77049 0.42681 0.0
H1767 H 0.06245 0.75881 0.44766 0.0
H1768 H 0.03526 0.7419 0.45417 0.0
H1769 H 0.04588 0.71742 0.49776 0.0
H1770 H 0.07315 0.73404 0.49127 0.0
H1771 H 0.14441 0.81923 0.51422 0.0
H1772 H 0.13068 0.80597 0.48312 0.0
H1773 H 0.11361 0.76308 0.5134 0.0
H1774 H 0.12695 0.77629 0.54439 0.0
H1775 H 0.09129 0.76427 0.49608 0.0
H1776 H 0.14049 0.77462 0.47542 0.0
H1777 H 0.16783 0.79042 0.46888 0.0
H1778 H 0.15893 0.81628 0.42545 0.0
H1779 H 0.1315 0.8007 0.4319 0.0
C1780 C 0.06621 0.72613 0.41134 0.0
C1781 C 0.06362 0.73344 0.39512 0.0
C1782 C 0.07556 0.73456 0.42756 0.0
C1783 C 0.0826 0.75042 0.42769 0.0
C1784 C 0.08018 0.75775 0.4114 0.0
C1785 C 0.07067 0.74933 0.39533 0.0
C1786 C 0.09221 0.75933 0.44507 0.0
C1787 C 0.10771 0.76931 0.44194 0.0
C1788 C 0.08623 0.75752 0.46479 0.0
C1789 C 0.06984 0.74757 0.46882 0.0
C1790 C 0.05899 0.74974 0.4585 0.0
C1791 C 0.04356 0.74022 0.46221 0.0
C1792 C 0.03884 0.72857 0.47633 0.0
C1793 C 0.04955 0.72643 0.48681 0.0
C1794 C 0.065 0.73591 0.48313 0.0
C1795 C 0.13793 0.80697 0.514 0.0
C1796 C 0.13661 0.79874 0.53162 0.0
C1797 C 0.1301 0.7994 0.49628 0.0
C1798 C 0.12106 0.78351 0.49594 0.0
C1799 C 0.12038 0.77533 0.51334 0.0
C1800 C 0.12803 0.78286 0.53099 0.0
C1801 C 0.11152 0.77533 0.47802 0.0
C1802 C 0.09596 0.76551 0.481 0.0
C1803 C 0.1175 0.77719 0.45823 0.0
C1804 C 0.13396 0.78659 0.4543 0.0
C1805 C 0.14436 0.78375 0.4646 0.0
C1806 C 0.15987 0.79264 0.46088 0.0
C1807 C 0.16511 0.80436 0.44679 0.0
C1808 C 0.15485 0.8072 0.43637 0.0
C1809 C 0.13932 0.79832 0.44003 0.0
H1810 H 0.17712 0.81119 0.44391 0.0
H1811 H 0.02689 0.72121 0.47919 0.0
H1812 H 0.36048 0.08652 0.71597 0.0
H1813 H 0.35903 0.10321 0.74142 0.0
H1814 H 0.31575 0.06673 0.76087 0.0
H1815 H 0.3173 0.04988 0.73571 0.0
H1816 H 0.33982 0.11332 0.74746 0.0
H1817 H 0.31219 0.06979 0.81163 0.0
H1818 H 0.31063 0.04619 0.82365 0.0
H1819 H 0.35362 0.05923 0.79663 0.0
H1820 H 0.35553 0.08298 0.78468 0.0
H1821 H 0.32244 0.12649 0.86072 0.0
H1822 H 0.31707 0.11139 0.82966 0.0
H1823 H 0.35992 0.14515 0.80509 0.0
H1824 H 0.36517 0.16034 0.83597 0.0
H1825 H 0.33348 0.09924 0.8201 0.0
H1826 H 0.36026 0.14154 0.75354 0.0
H1827 H 0.36231 0.16524 0.74113 0.0
H1828 H 0.32209 0.15559 0.77349 0.0
H1829 H 0.31964 0.13171 0.78586 0.0
C1830 C 0.35067 0.08204 0.72572 0.0
C1831 C 0.33907 0.06685 0.72398 0.0
C1832 C 0.34982 0.09162 0.74017 0.0
C1833 C 0.33735 0.08622 0.75318 0.0
C1834 C 0.32559 0.07111 0.75121 0.0
C1835 C 0.32649 0.06149 0.73683 0.0
C1836 C 0.33687 0.09632 0.76908 0.0
C1837 C 0.33855 0.11032 0.76338 0.0
C1838 C 0.33484 0.09224 0.78979 0.0
C1839 C 0.3339 0.07806 0.79706 0.0
C1840 C 0.32132 0.06763 0.8083 0.0
C1841 C 0.32038 0.05423 0.8151 0.0
C1842 C 0.33199 0.05119 0.81084 0.0
C1843 C 0.3446 0.06157 0.79984 0.0
C1844 C 0.34561 0.07499 0.79303 0.0
C1845 C 0.33044 0.13091 0.84837 0.0
C1846 C 0.34423 0.14455 0.85076 0.0
C1847 C 0.32741 0.12226 0.83068 0.0
C1848 C 0.33811 0.12707 0.81505 0.0
C1849 C 0.35137 0.14127 0.81677 0.0
C1850 C 0.35436 0.14998 0.83443 0.0
C1851 C 0.33649 0.11636 0.79857 0.0
C1852 C 0.33451 0.10222 0.80418 0.0
C1853 C 0.33837 0.1204 0.77783 0.0
C1854 C 0.33984 0.13486 0.77075 0.0
C1855 C 0.35183 0.14445 0.75798 0.0
C1856 C 0.35306 0.15792 0.75095 0.0
C1857 C 0.34233 0.16191 0.75651 0.0
C1858 C 0.3304 0.15249 0.76922 0.0
C1859 C 0.3291 0.13899 0.77629 0.0
H1860 H 0.34324 0.17226 0.75089 0.0
H1861 H 0.33123 0.0408 0.8161 0.0
H1862 H 0.9707 0.28485 0.75301 0.0
H1863 H 0.95521 0.26719 0.77961 0.0
H1864 H 0.91467 0.25697 0.74624 0.0
H1865 H 0.93 0.27483 0.72005 0.0
H1866 H 0.9111 0.26096 0.78444 0.0
H1867 H 0.92894 0.23215 0.74801 0.0
H1868 H 0.94817 0.22728 0.73293 0.0
H1869 H 0.96835 0.23147 0.79163 0.0
H1870 H 0.94936 0.23656 0.80704 0.0
H1871 H 0.86083 0.19925 0.84568 0.0
H1872 H 0.87529 0.21218 0.81515 0.0
H1873 H 0.91706 0.22759 0.84839 0.0
H1874 H 0.90268 0.21484 0.87875 0.0
H1875 H 0.91915 0.21966 0.80908 0.0
H1876 H 0.90282 0.25017 0.84489 0.0
H1877 H 0.88388 0.2552 0.86057 0.0
H1878 H 0.86122 0.24801 0.80311 0.0
H1879 H 0.87991 0.24271 0.78715 0.0
C1880 C 0.95849 0.27882 0.75139 0.0
C1881 C 0.95157 0.28124 0.73447 0.0
C1882 C 0.94964 0.26866 0.76652 0.0
C1883 C 0.93374 0.26058 0.76482 0.0
C1884 C 0.92688 0.26304 0.74792 0.0
C1885 C 0.93568 0.27326 0.73293 0.0
C1886 C 0.92417 0.24984 0.78083 0.0
C1887 C 0.91272 0.25178 0.78954 0.0
C1888 C 0.92644 0.23802 0.78786 0.0
C1889 C 0.9378 0.23486 0.77865 0.0
C1890 C 0.93754 0.23213 0.75768 0.0
C1891 C 0.94839 0.22932 0.74908 0.0
C1892 C 0.95949 0.2291 0.7613 0.0
C1893 C 0.95975 0.23166 0.78218 0.0
C1894 C 0.94894 0.23449 0.79085 0.0
C1895 C 0.87308 0.20513 0.84623 0.0
C1896 C 0.8807 0.20617 0.86445 0.0
C1897 C 0.88133 0.21255 0.82889 0.0
C1898 C 0.89726 0.221 0.82961 0.0
C1899 C 0.90481 0.22118 0.84751 0.0
C1900 C 0.8966 0.21393 0.86482 0.0
C1901 C 0.9061 0.23078 0.81248 0.0
C1902 C 0.91745 0.22873 0.8037 0.0
C1903 C 0.90379 0.24253 0.80538 0.0
C1904 C 0.89265 0.24588 0.81489 0.0
C1905 C 0.89373 0.24955 0.83564 0.0
C1906 C 0.88305 0.25247 0.84457 0.0
C1907 C 0.87133 0.25189 0.83285 0.0
C1908 C 0.87029 0.24843 0.81217 0.0
C1909 C 0.88092 0.24547 0.80317 0.0
H1910 H 0.86307 0.25415 0.83979 0.0
H1911 H 0.96788 0.22693 0.75461 0.0
H1912 H 0.73391 0.6867 0.74876 0.0
H1913 H 0.751 0.68519 0.77361 0.0
H1914 H 0.76304 0.6616 0.72973 0.0
H1915 H 0.74554 0.66255 0.70522 0.0
H1916 H 0.75839 0.64797 0.76297 0.0
H1917 H 0.78809 0.69951 0.74483 0.0
H1918 H 0.79395 0.72563 0.73809 0.0
H1919 H 0.78496 0.7308 0.80027 0.0
H1920 H 0.77884 0.70464 0.80732 0.0
H1921 H 0.82165 0.67575 0.84844 0.0
H1922 H 0.8132 0.6798 0.81507 0.0
H1923 H 0.76687 0.64824 0.83086 0.0
H1924 H 0.77518 0.64406 0.86358 0.0
H1925 H 0.79438 0.69097 0.80644 0.0
H1926 H 0.74707 0.62836 0.79121 0.0
H1927 H 0.74316 0.60271 0.79605 0.0
H1928 H 0.79125 0.62065 0.79625 0.0
H1929 H 0.79545 0.64637 0.79111 0.0
C1930 C 0.74026 0.68124 0.74444 0.0
C1931 C 0.73834 0.67467 0.72511 0.0
C1932 C 0.75013 0.6805 0.75858 0.0
C1933 C 0.75852 0.67346 0.7535 0.0
C1934 C 0.75672 0.66708 0.73406 0.0
C1935 C 0.7467 0.66762 0.72006 0.0
C1936 C 0.76841 0.6719 0.76882 0.0
C1937 C 0.76634 0.65742 0.77232 0.0
C1938 C 0.77919 0.68428 0.78069 0.0
C1939 C 0.78292 0.70006 0.77657 0.0
C1940 C 0.78727 0.70618 0.75704 0.0
C1941 C 0.79065 0.721 0.75317 0.0
C1942 C 0.78981 0.72986 0.76874 0.0
C1943 C 0.78561 0.72393 0.78822 0.0
C1944 C 0.7822 0.70911 0.79217 0.0
C1945 C 0.80971 0.66958 0.84454 0.0
C1946 C 0.79905 0.65971 0.85858 0.0
C1947 C 0.8049 0.67194 0.82561 0.0
C1948 C 0.78941 0.66424 0.82044 0.0
C1949 C 0.77887 0.65416 0.83436 0.0
C1950 C 0.78363 0.65186 0.85313 0.0
C1951 C 0.78382 0.66698 0.80099 0.0
C1952 C 0.78664 0.68162 0.79676 0.0
C1953 C 0.77403 0.65483 0.78807 0.0
C1954 C 0.77157 0.63933 0.79087 0.0
C1955 C 0.75681 0.62683 0.79215 0.0
C1956 C 0.75455 0.61228 0.79498 0.0
C1957 C 0.76695 0.61006 0.79649 0.0
C1958 C 0.78165 0.62239 0.79513 0.0
C1959 C 0.78398 0.63696 0.79229 0.0
H1960 H 0.76517 0.59878 0.7987 0.0
H1961 H 0.79242 0.74133 0.76571 0.0
H1962 H 0.71662 0.65938 0.61468 0.0
H1963 H 0.73268 0.65905 0.58748 0.0
H1964 H 0.77169 0.69676 0.61565 0.0
H1965 H 0.75561 0.69743 0.64249 0.0
H1966 H 0.77292 0.70067 0.57652 0.0
H1967 H 0.76453 0.65969 0.61963 0.0
H1968 H 0.74948 0.63632 0.63918 0.0
H1969 H 0.72741 0.61223 0.58446 0.0
H1970 H 0.74218 0.63552 0.56461 0.0
H1971 H 0.82475 0.69204 0.51321 0.0
H1972 H 0.8117 0.69179 0.54468 0.0
H1973 H 0.76898 0.65874 0.51797 0.0
H1974 H 0.78196 0.65909 0.48667 0.0
H1975 H 0.77169 0.65282 0.55854 0.0
H1976 H 0.77895 0.69469 0.51633 0.0
H1977 H 0.79434 0.71813 0.49704 0.0
H1978 H 0.81926 0.74057 0.55112 0.0
H1979 H 0.80415 0.71717 0.57067 0.0
C1980 C 0.7286 0.66765 0.61498 0.0
C1981 C 0.73486 0.6784 0.63073 0.0
C1982 C 0.7378 0.66739 0.59952 0.0
C1983 C 0.75347 0.67769 0.59971 0.0
C1984 C 0.75966 0.68866 0.61519 0.0
C1985 C 0.75045 0.68903 0.63053 0.0
C1986 C 0.7634 0.67706 0.58377 0.0
C1987 C 0.77283 0.69025 0.57286 0.0
C1988 C 0.76321 0.66345 0.57879 0.0
C1989 C 0.75438 0.64939 0.59066 0.0
C1990 C 0.75639 0.64944 0.61178 0.0
C1991 C 0.74792 0.6362 0.62291 0.0
C1992 C 0.73747 0.62281 0.61307 0.0
C1993 C 0.7355 0.62261 0.59207 0.0
C1994 C 0.74393 0.63582 0.58087 0.0
C1995 C 0.81263 0.68454 0.51433 0.0
C1996 C 0.80428 0.67559 0.4977 0.0
C1997 C 0.80519 0.68444 0.53219 0.0
C1998 C 0.78935 0.67532 0.53356 0.0
C1999 C 0.78118 0.66582 0.51725 0.0
C2000 C 0.78857 0.66604 0.49941 0.0
C2001 C 0.78103 0.67637 0.55128 0.0
C2002 C 0.77189 0.66325 0.56246 0.0
C2003 C 0.78155 0.69006 0.55661 0.0
C2004 C 0.79055 0.70415 0.5449 0.0
C2005 C 0.78779 0.70459 0.52407 0.0
C2006 C 0.79645 0.71787 0.51309 0.0
C2007 C 0.8078 0.73082 0.52283 0.0
C2008 C 0.81048 0.73052 0.54359 0.0
C2009 C 0.80187 0.71726 0.55462 0.0
H2010 H 0.81449 0.74109 0.51431 0.0
H2011 H 0.73092 0.61257 0.62172 0.0
H2012 H 0.36685 0.0788 0.62845 0.0
H2013 H 0.3672 0.09562 0.60177 0.0
H2014 H 0.3185 0.06926 0.59714 0.0
H2015 H 0.31807 0.05246 0.62381 0.0
H2016 H 0.33265 0.07676 0.55956 0.0
H2017 H 0.33415 0.10142 0.62278 0.0
H2018 H 0.34441 0.11223 0.65657 0.0
H2019 H 0.38689 0.14412 0.62993 0.0
H2020 H 0.37693 0.13334 0.59599 0.0
H2021 H 0.31682 0.12481 0.50336 0.0
H2022 H 0.31752 0.11065 0.53278 0.0
H2023 H 0.36596 0.13985 0.53711 0.0
H2024 H 0.36527 0.15416 0.50774 0.0
H2025 H 0.35302 0.13131 0.57463 0.0
H2026 H 0.35184 0.10751 0.51153 0.0
H2027 H 0.34208 0.09696 0.47747 0.0
H2028 H 0.3 0.06341 0.50327 0.0
H2029 H 0.30938 0.07397 0.53747 0.0
C2030 C 0.35624 0.07652 0.62162 0.0
C2031 C 0.34243 0.06435 0.62824 0.0
C2032 C 0.35645 0.08618 0.60646 0.0
C2033 C 0.34286 0.08376 0.59763 0.0
C2034 C 0.32911 0.07133 0.60378 0.0
C2035 C 0.32888 0.06176 0.61904 0.0
C2036 C 0.34289 0.09433 0.58225 0.0
C2037 C 0.33694 0.08865 0.5629 0.0
C2038 C 0.34888 0.10992 0.5865 0.0
C2039 C 0.35485 0.11647 0.60687 0.0
C2040 C 0.34572 0.11066 0.62415 0.0
C2041 C 0.35147 0.11679 0.64333 0.0
C2042 C 0.36631 0.12882 0.64541 0.0
C2043 C 0.37541 0.13478 0.6283 0.0
C2044 C 0.36971 0.12867 0.60909 0.0
C2045 C 0.32755 0.12843 0.51093 0.0
C2046 C 0.341 0.14049 0.50322 0.0
C2047 C 0.32796 0.1203 0.52764 0.0
C2048 C 0.34184 0.12397 0.53679 0.0
C2049 C 0.35514 0.13678 0.53018 0.0
C2050 C 0.35473 0.14499 0.51348 0.0
C2051 C 0.34258 0.11369 0.55201 0.0
C2052 C 0.34874 0.11943 0.57126 0.0
C2053 C 0.33689 0.09815 0.54762 0.0
C2054 C 0.33127 0.09164 0.52707 0.0
C2055 C 0.34046 0.09796 0.50994 0.0
C2056 C 0.335 0.09197 0.4906 0.0
C2057 C 0.32042 0.07955 0.4882 0.0
C2058 C 0.31129 0.07306 0.50515 0.0
C2059 C 0.31667 0.07904 0.52452 0.0
H2060 H 0.3162 0.07495 0.47322 0.0
H2061 H 0.37074 0.13356 0.66027 0.0
H2062 H 0.9481 0.26437 0.64814 0.0
H2063 H 0.93117 0.24852 0.62107 0.0
H2064 H 0.92726 0.2862 0.59927 0.0
H2065 H 0.94416 0.30221 0.62673 0.0
H2066 H 0.89977 0.25956 0.59869 0.0
H2067 H 0.94995 0.27676 0.57518 0.0
H2068 H 0.97619 0.28173 0.57702 0.0
H2069 H 0.9598 0.23415 0.58308 0.0
H2070 H 0.93345 0.22891 0.58158 0.0
H2071 H 0.87619 0.22898 0.49753 0.0
H2072 H 0.88677 0.24364 0.52881 0.0
H2073 H 0.89147 0.20721 0.55374 0.0
H2074 H 0.88113 0.19263 0.52245 0.0
H2075 H 0.9182 0.23388 0.55257 0.0
H2076 H 0.86757 0.21688 0.57496 0.0
H2077 H 0.84158 0.2125 0.57236 0.0
H2078 H 0.85899 0.26031 0.56696 0.0
H2079 H 0.88512 0.26498 0.56923 0.0
C2080 C 0.94365 0.26932 0.63762 0.0
C2081 C 0.94757 0.28458 0.63944 0.0
C2082 C 0.93397 0.26023 0.62214 0.0
C2083 C 0.9281 0.26622 0.608 0.0
C2084 C 0.9317 0.28137 0.61001 0.0
C2085 C 0.9414 0.29051 0.62561 0.0
C2086 C 0.91862 0.25667 0.59084 0.0
C2087 C 0.90384 0.25409 0.58841 0.0
C2088 C 0.92388 0.24937 0.57764 0.0
C2089 C 0.93972 0.25246 0.57846 0.0
C2090 C 0.95194 0.26737 0.57707 0.0
C2091 C 0.96683 0.27023 0.57802 0.0
C2092 C 0.96966 0.25827 0.58022 0.0
C2093 C 0.95759 0.24341 0.58141 0.0
C2094 C 0.94268 0.24048 0.58049 0.0
C2095 C 0.87907 0.22394 0.50993 0.0
C2096 C 0.8779 0.20969 0.5075 0.0
C2097 C 0.88507 0.2323 0.52781 0.0
C2098 C 0.88998 0.22655 0.54356 0.0
C2099 C 0.88777 0.21186 0.54175 0.0
C2100 C 0.88172 0.20348 0.52392 0.0
C2101 C 0.89921 0.2365 0.56058 0.0
C2102 C 0.91406 0.23927 0.56288 0.0
C2103 C 0.89402 0.24404 0.57346 0.0
C2104 C 0.87832 0.24127 0.57206 0.0
C2105 C 0.86587 0.22646 0.57302 0.0
C2106 C 0.85111 0.22392 0.57165 0.0
C2107 C 0.84863 0.23612 0.56944 0.0
C2108 C 0.86092 0.25088 0.56864 0.0
C2109 C 0.87571 0.25347 0.57 0.0
H2110 H 0.83719 0.23413 0.56839 0.0
H2111 H 0.9812 0.26051 0.58095 0.0
H2112 H 0.36827 0.29577 0.63517 0.0
H2113 H 0.3694 0.27845 0.61048 0.0
H2114 H 0.32068 0.25469 0.6047 0.0
H2115 H 0.31948 0.27162 0.63002 0.0
H2116 H 0.32967 0.23501 0.60556 0.0
H2117 H 0.34512 0.28093 0.5686 0.0
H2118 H 0.36042 0.30827 0.56171 0.0
H2119 H 0.40067 0.30492 0.55935 0.0
H2120 H 0.38562 0.27758 0.56648 0.0
H2121 H 0.3205 0.20366 0.50602 0.0
H2122 H 0.32128 0.21649 0.53782 0.0
H2123 H 0.36886 0.23168 0.5444 0.0
H2124 H 0.36808 0.21873 0.51257 0.0
H2125 H 0.3623 0.25502 0.54495 0.0
H2126 H 0.34517 0.20769 0.57806 0.0
H2127 H 0.32878 0.18026 0.58332 0.0
H2128 H 0.29032 0.18616 0.59101 0.0
H2129 H 0.30643 0.21361 0.5855 0.0
C2130 C 0.35781 0.28687 0.62858 0.0
C2131 C 0.34379 0.2851 0.6344 0.0
C2132 C 0.35846 0.27699 0.61443 0.0
C2133 C 0.34514 0.26536 0.60547 0.0
C2134 C 0.33112 0.26355 0.61139 0.0
C2135 C 0.33045 0.27328 0.62577 0.0
C2136 C 0.34577 0.25515 0.58982 0.0
C2137 C 0.33671 0.2394 0.59222 0.0
C2138 C 0.35521 0.26082 0.57261 0.0
C2139 C 0.36427 0.27725 0.5683 0.0
C2140 C 0.35725 0.28605 0.56676 0.0
C2141 C 0.36587 0.30154 0.56279 0.0
C2142 C 0.38151 0.30834 0.56015 0.0
C2143 C 0.38856 0.29965 0.56143 0.0
C2144 C 0.37999 0.28415 0.56542 0.0
C2145 C 0.331 0.20935 0.51461 0.0
C2146 C 0.34422 0.21019 0.50695 0.0
C2147 C 0.33144 0.21666 0.53275 0.0
C2148 C 0.34513 0.22504 0.54346 0.0
C2149 C 0.35818 0.22524 0.53637 0.0
C2150 C 0.3577 0.21775 0.51832 0.0
C2151 C 0.3461 0.23494 0.56061 0.0
C2152 C 0.35542 0.25064 0.55844 0.0
C2153 C 0.33673 0.22922 0.57783 0.0
C2154 C 0.327 0.21271 0.58121 0.0
C2155 C 0.3332 0.20313 0.58071 0.0
C2156 C 0.32396 0.18757 0.58377 0.0
C2157 C 0.30851 0.18146 0.58746 0.0
C2158 C 0.30228 0.1909 0.58814 0.0
C2159 C 0.31147 0.20647 0.58508 0.0
H2160 H 0.30138 0.16942 0.58982 0.0
H2161 H 0.38817 0.32034 0.55708 0.0
H2162 H 0.75036 0.06008 0.63883 0.0
H2163 H 0.76768 0.07696 0.61311 0.0
H2164 H 0.73512 0.09021 0.59616 0.0
H2165 H 0.7176 0.07314 0.62178 0.0
H2166 H 0.74768 0.08522 0.56321 0.0
H2167 H 0.7657 0.11334 0.62541 0.0
H2168 H 0.77437 0.11758 0.66105 0.0
H2169 H 0.81187 0.11176 0.64505 0.0
H2170 H 0.80329 0.10726 0.60935 0.0
H2171 H 0.79606 0.14584 0.50222 0.0
H2172 H 0.78076 0.13341 0.53207 0.0
H2173 H 0.81159 0.11787 0.54867 0.0
H2174 H 0.82705 0.13048 0.51888 0.0
H2175 H 0.79994 0.12485 0.5823 0.0
H2176 H 0.78144 0.09574 0.52063 0.0
H2177 H 0.77319 0.09188 0.48483 0.0
H2178 H 0.73661 0.09941 0.49991 0.0
H2179 H 0.74484 0.10362 0.53577 0.0
C2180 C 0.74684 0.06653 0.62957 0.0
C2181 C 0.73264 0.06533 0.63237 0.0
C2182 C 0.7568 0.07625 0.61495 0.0
C2183 C 0.7528 0.08504 0.60294 0.0
C2184 C 0.73846 0.08358 0.60534 0.0
C2185 C 0.72847 0.07383 0.61997 0.0
C2186 C 0.76359 0.09571 0.58785 0.0
C2187 C 0.75902 0.09404 0.56745 0.0
C2188 C 0.77851 0.10701 0.5933 0.0
C2189 C 0.78377 0.10983 0.61473 0.0
C2190 C 0.77573 0.11286 0.62952 0.0
C2191 C 0.78064 0.11532 0.64972 0.0
C2192 C 0.79365 0.11491 0.65532 0.0
C2193 C 0.80179 0.11207 0.6407 0.0
C2194 C 0.79692 0.10957 0.62047 0.0
C2195 C 0.79977 0.1401 0.51255 0.0
C2196 C 0.81264 0.13899 0.50819 0.0
C2197 C 0.79101 0.13297 0.52954 0.0
C2198 C 0.79486 0.12444 0.54231 0.0
C2199 C 0.80839 0.12435 0.53894 0.0
C2200 C 0.81724 0.13159 0.52197 0.0
C2201 C 0.78399 0.11436 0.55776 0.0
C2202 C 0.78856 0.1161 0.57814 0.0
C2203 C 0.76906 0.10308 0.55231 0.0
C2204 C 0.76384 0.10014 0.53085 0.0
C2205 C 0.77169 0.09666 0.5163 0.0
C2206 C 0.76702 0.09441 0.49599 0.0
C2207 C 0.7544 0.09543 0.49009 0.0
C2208 C 0.7464 0.09864 0.5045 0.0
C2209 C 0.75106 0.10096 0.52482 0.0
H2210 H 0.75082 0.0937 0.47435 0.0
H2211 H 0.79743 0.11681 0.67097 0.0
H2212 H 0.95032 0.66047 0.61313 0.0
H2213 H 0.93446 0.66076 0.58537 0.0
H2214 H 0.92818 0.69396 0.61776 0.0
H2215 H 0.94407 0.69376 0.64558 0.0
H2216 H 0.90123 0.67064 0.60105 0.0
H2217 H 0.95186 0.70545 0.57979 0.0
H2218 H 0.97859 0.71384 0.57251 0.0
H2219 H 0.96476 0.67857 0.52778 0.0
H2220 H 0.93793 0.66982 0.53502 0.0
H2221 H 0.87099 0.68961 0.51362 0.0
H2222 H 0.88454 0.68961 0.54463 0.0
H2223 H 0.89824 0.66075 0.51477 0.0
H2224 H 0.88515 0.66111 0.48389 0.0
H2225 H 0.92176 0.6837 0.53139 0.0
H2226 H 0.87124 0.6481 0.55325 0.0
H2227 H 0.84442 0.63924 0.5606 0.0
H2228 H 0.85771 0.67531 0.60394 0.0
H2229 H 0.88462 0.6845 0.59663 0.0
C2230 C 0.94559 0.66786 0.61432 0.0
C2231 C 0.94851 0.67715 0.63147 0.0
C2232 C 0.93654 0.66802 0.59845 0.0
C2233 C 0.93021 0.67745 0.59947 0.0
C2234 C 0.93294 0.6866 0.61669 0.0
C2235 C 0.9421 0.68653 0.63249 0.0
C2236 C 0.92091 0.67787 0.58238 0.0
C2237 C 0.90574 0.67369 0.58585 0.0
C2238 C 0.92675 0.68163 0.56253 0.0
C2239 C 0.94288 0.6869 0.55809 0.0
C2240 C 0.95452 0.6994 0.56852 0.0
C2241 C 0.96968 0.70424 0.56438 0.0
C2242 C 0.97337 0.69672 0.54973 0.0
C2243 C 0.96189 0.68437 0.53915 0.0
C2244 C 0.9467 0.67948 0.54325 0.0
C2245 C 0.8767 0.68308 0.51393 0.0
C2246 C 0.87713 0.67541 0.49647 0.0
C2247 C 0.88442 0.68307 0.53159 0.0
C2248 C 0.89246 0.67519 0.53204 0.0
C2249 C 0.89226 0.66701 0.51479 0.0
C2250 C 0.88473 0.66716 0.49719 0.0
C2251 C 0.90189 0.67611 0.54986 0.0
C2252 C 0.91718 0.68065 0.54657 0.0
C2253 C 0.8961 0.6726 0.56981 0.0
C2254 C 0.87994 0.66709 0.57422 0.0
C2255 C 0.86844 0.65422 0.56422 0.0
C2256 C 0.85322 0.64912 0.5684 0.0
C2257 C 0.84936 0.65674 0.58268 0.0
C2258 C 0.86071 0.66944 0.59285 0.0
C2259 C 0.87595 0.67459 0.5887 0.0
H2260 H 0.83757 0.65277 0.58591 0.0
H2261 H 0.98512 0.70048 0.54654 0.0
H2262 H 0.92446 0.6526 0.71187 0.0
H2263 H 0.90632 0.65047 0.73749 0.0
H2264 H 0.94204 0.68841 0.77015 0.0
H2265 H 0.96015 0.69091 0.74411 0.0
H2266 H 0.90406 0.64375 0.77495 0.0
H2267 H 0.92848 0.7072 0.79677 0.0
H2268 H 0.94152 0.73217 0.78027 0.0
H2269 H 0.92254 0.71127 0.7227 0.0
H2270 H 0.90923 0.68621 0.73889 0.0
H2271 H 0.88479 0.65163 0.87314 0.0
H2272 H 0.89743 0.65391 0.84114 0.0
H2273 H 0.8706 0.67063 0.81264 0.0
H2274 H 0.85815 0.66888 0.84522 0.0
H2275 H 0.89993 0.68706 0.8015 0.0
H2276 H 0.8629 0.63493 0.80274 0.0
H2277 H 0.84791 0.6094 0.8172 0.0
H2278 H 0.88823 0.60652 0.82413 0.0
H2279 H 0.9035 0.63213 0.80999 0.0
C2280 C 0.92844 0.66055 0.72446 0.0
C2281 C 0.94373 0.67193 0.726 0.0
C2282 C 0.91805 0.65931 0.73911 0.0
C2283 C 0.92273 0.66937 0.75568 0.0
C2284 C 0.93805 0.68071 0.7573 0.0
C2285 C 0.94843 0.68206 0.7425 0.0
C2286 C 0.91174 0.66752 0.77174 0.0
C2287 C 0.90312 0.65322 0.78063 0.0
C2288 C 0.91014 0.67975 0.77887 0.0
C2289 C 0.91796 0.69481 0.76904 0.0
C2290 C 0.92703 0.70794 0.78061 0.0
C2291 C 0.93448 0.72211 0.77131 0.0
C2292 C 0.93289 0.7233 0.75045 0.0
C2293 C 0.92381 0.71033 0.73885 0.0
C2294 C 0.91632 0.69614 0.74808 0.0
C2295 C 0.88164 0.65595 0.86016 0.0
C2296 C 0.87059 0.66028 0.86179 0.0
C2297 C 0.88877 0.65707 0.84177 0.0
C2298 C 0.88486 0.66229 0.82442 0.0
C2299 C 0.87376 0.66655 0.82586 0.0
C2300 C 0.8666 0.66545 0.8444 0.0
C2301 C 0.89271 0.66344 0.80503 0.0
C2302 C 0.90075 0.67758 0.79556 0.0
C2303 C 0.8935 0.65098 0.797 0.0
C2304 C 0.88436 0.6355 0.80539 0.0
C2305 C 0.86859 0.6289 0.80746 0.0
C2306 C 0.86004 0.6144 0.81559 0.0
C2307 C 0.86712 0.60635 0.8216 0.0
C2308 C 0.88276 0.61277 0.81946 0.0
C2309 C 0.89136 0.62727 0.81136 0.0
H2310 H 0.86048 0.59513 0.82789 0.0
H2311 H 0.93868 0.73428 0.74327 0.0
H2312 H 0.31676 0.2744 0.73231 0.0
H2313 H 0.31653 0.25714 0.75825 0.0
H2314 H 0.36493 0.27717 0.75287 0.0
H2315 H 0.36523 0.29433 0.72692 0.0
H2316 H 0.35036 0.24606 0.75358 0.0
H2317 H 0.34996 0.28649 0.79206 0.0
H2318 H 0.3397 0.30294 0.80174 0.0
H2319 H 0.29756 0.2639 0.81818 0.0
H2320 H 0.30751 0.24722 0.80835 0.0
H2321 H 0.37205 0.22494 0.8444 0.0
H2322 H 0.36808 0.23679 0.81465 0.0
H2323 H 0.32113 0.21816 0.83087 0.0
H2324 H 0.32529 0.20677 0.86105 0.0
H2325 H 0.33243 0.24637 0.82325 0.0
H2326 H 0.33292 0.20584 0.78861 0.0
H2327 H 0.34249 0.18878 0.77947 0.0
H2328 H 0.38273 0.22621 0.75501 0.0
H2329 H 0.37357 0.2436 0.76449 0.0
C2330 C 0.32735 0.27515 0.73674 0.0
C2331 C 0.34102 0.28577 0.72767 0.0
C2332 C 0.3272 0.26529 0.75153 0.0
C2333 C 0.34072 0.26591 0.75753 0.0
C2334 C 0.35436 0.27646 0.74842 0.0
C2335 C 0.35452 0.28632 0.73369 0.0
C2336 C 0.34081 0.25576 0.77352 0.0
C2337 C 0.34655 0.24618 0.76887 0.0
C2338 C 0.33535 0.25556 0.79326 0.0
C2339 C 0.32942 0.26561 0.79927 0.0
C2340 C 0.33847 0.28142 0.7976 0.0
C2341 C 0.33272 0.29078 0.80313 0.0
C2342 C 0.31798 0.28447 0.81051 0.0
C2343 C 0.30897 0.26878 0.81243 0.0
C2344 C 0.31466 0.25936 0.80689 0.0
C2345 C 0.36081 0.22308 0.8413 0.0
C2346 C 0.34895 0.21491 0.85491 0.0
C2347 C 0.35853 0.22985 0.82429 0.0
C2348 C 0.34426 0.2283 0.82037 0.0
C2349 C 0.33225 0.21957 0.83357 0.0
C2350 C 0.33459 0.213 0.85073 0.0
C2351 C 0.34218 0.23672 0.80347 0.0
C2352 C 0.33607 0.24603 0.80793 0.0
C2353 C 0.34713 0.2365 0.7835 0.0
C2354 C 0.35259 0.22605 0.77742 0.0
C2355 C 0.34386 0.21046 0.7814 0.0
C2356 C 0.34921 0.20072 0.77615 0.0
C2357 C 0.36321 0.20639 0.76665 0.0
C2358 C 0.37188 0.22183 0.76237 0.0
C2359 C 0.36661 0.23164 0.76769 0.0
H2360 H 0.36735 0.19883 0.7626 0.0
H2361 H 0.31354 0.29173 0.81479 0.0
H2362 H 0.73178 0.04885 0.74557 0.0
H2363 H 0.74856 0.06507 0.77267 0.0
H2364 H 0.75246 0.1044 0.74287 0.0
H2365 H 0.73572 0.0882 0.71555 0.0
H2366 H 0.78005 0.10937 0.75709 0.0
H2367 H 0.7303 0.09092 0.783 0.0
H2368 H 0.70408 0.07173 0.79152 0.0
H2369 H 0.72054 0.05015 0.83174 0.0
H2370 H 0.74687 0.06909 0.82323 0.0
H2371 H 0.81079 0.15503 0.84914 0.0
H2372 H 0.79714 0.14286 0.81741 0.0
H2373 H 0.78825 0.09954 0.8399 0.0
H2374 H 0.80162 0.11159 0.87141 0.0
H2375 H 0.76265 0.09883 0.82837 0.0
H2376 H 0.81259 0.11692 0.80102 0.0
H2377 H 0.83871 0.13632 0.7924 0.0
H2378 H 0.82181 0.15908 0.75513 0.0
H2379 H 0.79558 0.13991 0.76377 0.0
C2380 C 0.73617 0.06095 0.74479 0.0
C2381 C 0.73234 0.06725 0.72852 0.0
C2382 C 0.74576 0.0702 0.7603 0.0
C2383 C 0.75165 0.08594 0.75988 0.0
C2384 C 0.74803 0.09229 0.74349 0.0
C2385 C 0.73839 0.08302 0.72798 0.0
C2386 C 0.76139 0.09561 0.77679 0.0
C2387 C 0.7762 0.10724 0.77267 0.0
C2388 C 0.75639 0.09275 0.7971 0.0
C2389 C 0.74056 0.08136 0.80234 0.0
C2390 C 0.72833 0.08202 0.79354 0.0
C2391 C 0.71345 0.0712 0.79839 0.0
C2392 C 0.71065 0.05971 0.81213 0.0
C2393 C 0.72273 0.05904 0.82108 0.0
C2394 C 0.73764 0.06983 0.81627 0.0
C2395 C 0.80624 0.14299 0.84696 0.0
C2396 C 0.80716 0.13419 0.8626 0.0
C2397 C 0.79843 0.13604 0.82893 0.0
C2398 C 0.79158 0.12026 0.82637 0.0
C2399 C 0.79332 0.11169 0.8416 0.0
C2400 C 0.80102 0.11858 0.85952 0.0
C2401 C 0.7815 0.1123 0.80879 0.0
C2402 C 0.76653 0.10104 0.8128 0.0
C2403 C 0.78637 0.11558 0.78844 0.0
C2404 C 0.80213 0.12709 0.78324 0.0
C2405 C 0.81445 0.12614 0.79115 0.0
C2406 C 0.82927 0.13708 0.78622 0.0
C2407 C 0.83192 0.14895 0.77328 0.0
C2408 C 0.81974 0.14989 0.76519 0.0
C2409 C 0.8049 0.13899 0.77008 0.0
H2410 H 0.84341 0.1574 0.76948 0.0
H2411 H 0.69912 0.05134 0.81586 0.0
H2412 H 0.03319 0.35214 0.04975 0.0
H2413 H 0.05495 0.35016 0.0611 0.0
H2414 H 0.08152 0.37891 0.01202 0.0
H2415 H 0.05965 0.38069 0.00034 0.0
H2416 H 0.08738 0.3564 0.01703 0.0
H2417 H 0.08554 0.39325 0.05969 0.0
H2418 H 0.07384 0.40352 0.08269 0.0
H2419 H 0.06506 0.36879 0.12595 0.0
H2420 H 0.07651 0.35817 0.1031 0.0
H2421 H 0.14854 0.3745 0.10406 0.0
H2422 H 0.13239 0.38069 0.08345 0.0
H2423 H 0.10941 0.33522 0.059 0.0
H2424 H 0.12594 0.32925 0.07905 0.0
H2425 H 0.10413 0.36948 0.08866 0.0
H2426 H 0.0909 0.33277 0.01544 0.0
H2427 H 0.10417 0.32485 0.99155 0.0
H2428 H 0.14662 0.36401 0.00766 0.0
H2429 H 0.13359 0.37228 0.03144 0.0
C2430 C 0.04363 0.35796 0.04129 0.0
C2431 C 0.04474 0.36665 0.02422 0.0
C2432 C 0.05609 0.35687 0.04784 0.0
C2433 C 0.06996 0.36458 0.03761 0.0
C2434 C 0.07096 0.37289 0.02019 0.0
C2435 C 0.05846 0.37394 0.01356 0.0
C2436 C 0.08348 0.36426 0.04547 0.0
C2437 C 0.09109 0.35928 0.03267 0.0
C2438 C 0.08859 0.36843 0.06573 0.0
C2439 C 0.08178 0.37484 0.0796 0.0
C2440 C 0.08102 0.38774 0.07405 0.0
C2441 C 0.07444 0.39363 0.08707 0.0
C2442 C 0.06868 0.38679 0.10574 0.0
C2443 C 0.06952 0.37407 0.11147 0.0
C2444 C 0.07606 0.36812 0.0985 0.0
C2445 C 0.14041 0.36604 0.09368 0.0
C2446 C 0.13853 0.35144 0.09301 0.0
C2447 C 0.1311 0.36952 0.08205 0.0
C2448 C 0.1196 0.35843 0.06967 0.0
C2449 C 0.11833 0.34409 0.06811 0.0
C2450 C 0.12781 0.34067 0.07954 0.0
C2451 C 0.10793 0.36128 0.06037 0.0
C2452 C 0.10058 0.3667 0.07294 0.0
C2453 C 0.10334 0.35787 0.03979 0.0
C2454 C 0.11126 0.35307 0.02536 0.0
C2455 C 0.10306 0.33973 0.01382 0.0
C2456 C 0.11054 0.33517 0.00031 0.0
C2457 C 0.12624 0.3439 0.99813 0.0
C2458 C 0.13447 0.35723 0.00942 0.0
C2459 C 0.12704 0.36185 0.02294 0.0
H2460 H 0.13201 0.34034 0.98768 0.0
H2461 H 0.06359 0.39136 0.1158 0.0
H2462 H 0.67399 0.69885 0.02687 0.0
H2463 H 0.67838 0.72406 0.0355 0.0
H2464 H 0.63025 0.70574 0.04202 0.0
H2465 H 0.6258 0.68064 0.03244 0.0
H2466 H 0.64157 0.73224 0.02598 0.0
H2467 H 0.65492 0.71281 0.08362 0.0
H2468 H 0.66812 0.70192 0.10241 0.0
H2469 H 0.71103 0.74082 0.08833 0.0
H2470 H 0.69809 0.75185 0.06923 0.0
H2471 H 0.64354 0.78379 0.1025 0.0
H2472 H 0.63998 0.76272 0.08071 0.0
H2473 H 0.68693 0.78812 0.06343 0.0
H2474 H 0.69043 0.80933 0.08494 0.0
H2475 H 0.67764 0.75965 0.08224 0.0
H2476 H 0.66225 0.78005 0.0279 0.0
H2477 H 0.64745 0.79027 0.01179 0.0
H2478 H 0.60628 0.7486 0.0231 0.0
H2479 H 0.62082 0.7382 0.03956 0.0
C2480 C 0.66435 0.70024 0.02998 0.0
C2481 C 0.64956 0.68777 0.02916 0.0
C2482 C 0.66686 0.71465 0.035 0.0
C2483 C 0.65468 0.7168 0.03987 0.0
C2484 C 0.63986 0.70441 0.03839 0.0
C2485 C 0.63732 0.69005 0.03299 0.0
C2486 C 0.65739 0.73176 0.04733 0.0
C2487 C 0.64938 0.73817 0.03838 0.0
C2488 C 0.66773 0.73967 0.06335 0.0
C2489 C 0.67554 0.73306 0.0748 0.0
C2490 C 0.66718 0.71898 0.0844 0.0
C2491 C 0.67461 0.7128 0.09513 0.0
C2492 C 0.69041 0.72065 0.09651 0.0
C2493 C 0.6988 0.73473 0.08721 0.0
C2494 C 0.69142 0.74096 0.07644 0.0
C2495 C 0.65292 0.78506 0.09342 0.0
C2496 C 0.66722 0.79818 0.09524 0.0
C2497 C 0.6509 0.77304 0.08103 0.0
C2498 C 0.6632 0.77387 0.07049 0.0
C2499 C 0.67729 0.7873 0.07138 0.0
C2500 C 0.67924 0.79944 0.08352 0.0
C2501 C 0.66182 0.76005 0.06093 0.0
C2502 C 0.67001 0.75381 0.06962 0.0
C2503 C 0.65141 0.75218 0.04504 0.0
C2504 C 0.64263 0.75839 0.03512 0.0
C2505 C 0.65003 0.77311 0.02712 0.0
C2506 C 0.64169 0.77892 0.01789 0.0
C2507 C 0.62593 0.7701 0.01646 0.0
C2508 C 0.61849 0.75542 0.02423 0.0
C2509 C 0.62678 0.74956 0.03349 0.0
H2510 H 0.61949 0.77462 0.00931 0.0
H2511 H 0.69614 0.71585 0.10483 0.0
H2512 H 0.33017 0.98861 0.05259 0.0
H2513 H 0.3062 0.96786 0.06488 0.0
H2514 H 0.31066 0.93676 0.02494 0.0
H2515 H 0.33445 0.95768 0.01203 0.0
H2516 H 0.28216 0.92949 0.02592 0.0
H2517 H 0.31961 0.93936 0.07608 0.0
H2518 H 0.3406 0.95447 0.09994 0.0
H2519 H 0.31226 0.9668 0.13313 0.0
H2520 H 0.29116 0.95193 0.10928 0.0
H2521 H 0.23446 0.86489 0.09124 0.0
H2522 H 0.2547 0.88418 0.07042 0.0
H2523 H 0.24506 0.9179 0.09373 0.0
H2524 H 0.22436 0.89863 0.11385 0.0
H2525 H 0.27611 0.92264 0.10041 0.0
H2526 H 0.23825 0.91118 0.04831 0.0
H2527 H 0.2179 0.89423 0.02469 0.0
H2528 H 0.24815 0.88235 0.99579 0.0
H2529 H 0.26863 0.89907 0.01946 0.0
C2530 C 0.326 0.97737 0.04633 0.0
C2531 C 0.33424 0.97474 0.03147 0.0
C2532 C 0.31232 0.96549 0.05342 0.0
C2533 C 0.30675 0.95065 0.04617 0.0
C2534 C 0.31473 0.94808 0.03084 0.0
C2535 C 0.32834 0.96004 0.02351 0.0
C2536 C 0.29286 0.93783 0.05509 0.0
C2537 C 0.28093 0.9279 0.0422 0.0
C2538 C 0.29118 0.93568 0.07635 0.0
C2539 C 0.30384 0.94465 0.09076 0.0
C2540 C 0.31789 0.94539 0.08837 0.0
C2541 C 0.3298 0.9539 0.10191 0.0
C2542 C 0.32777 0.96163 0.11801 0.0
C2543 C 0.31382 0.96083 0.12063 0.0
C2544 C 0.30187 0.95235 0.10711 0.0
C2545 C 0.23623 0.87627 0.09138 0.0
C2546 C 0.22787 0.88022 0.10445 0.0
C2547 C 0.2479 0.88731 0.07957 0.0
C2548 C 0.25144 0.90246 0.08073 0.0
C2549 C 0.24254 0.90627 0.09275 0.0
C2550 C 0.23076 0.89524 0.10429 0.0
C2551 C 0.26539 0.91461 0.07128 0.0
C2552 C 0.27738 0.9243 0.08413 0.0
C2553 C 0.26722 0.91628 0.05005 0.0
C2554 C 0.25492 0.90625 0.03581 0.0
C2555 C 0.24052 0.90483 0.03706 0.0
C2556 C 0.22897 0.89529 0.02363 0.0
C2557 C 0.23172 0.88718 0.00879 0.0
C2558 C 0.24603 0.88862 0.00732 0.0
C2559 C 0.25762 0.89814 0.02072 0.0
H2560 H 0.22276 0.8798 0.9984 0.0
H2561 H 0.33701 0.9682 0.12848 0.0
H2562 H 0.36399 0.03731 0.9668 0.0
H2563 H 0.36259 0.05932 0.95528 0.0
H2564 H 0.37452 0.07882 0.01531 0.0
H2565 H 0.37627 0.05689 0.02693 0.0
H2566 H 0.34809 0.07928 0.9919 0.0
H2567 H 0.40108 0.09407 0.98837 0.0
H2568 H 0.4221 0.08988 0.97927 0.0
H2569 H 0.40909 0.08549 0.91649 0.0
H2570 H 0.38785 0.08943 0.92527 0.0
H2571 H 0.35678 0.14764 0.94719 0.0
H2572 H 0.36092 0.13064 0.96923 0.0
H2573 H 0.3674 0.10954 0.91636 0.0
H2574 H 0.36427 0.12685 0.89467 0.0
H2575 H 0.38701 0.11282 0.94264 0.0
H2576 H 0.33297 0.094 0.94455 0.0
H2577 H 0.3101 0.09564 0.95142 0.0
H2578 H 0.32298 0.10527 0.01419 0.0
H2579 H 0.34603 0.10387 0.00761 0.0
C2580 C 0.36619 0.04621 0.97762 0.0
C2581 C 0.3703 0.04541 0.99775 0.0
C2582 C 0.36539 0.05876 0.97101 0.0
C2583 C 0.36847 0.07067 0.98446 0.0
C2584 C 0.37206 0.06971 0.00476 0.0
C2585 C 0.37311 0.05723 0.01132 0.0
C2586 C 0.36873 0.08439 0.97675 0.0
C2587 C 0.35675 0.08686 0.98146 0.0
C2588 C 0.37988 0.09403 0.96287 0.0
C2589 C 0.39282 0.09194 0.95751 0.0
C2590 C 0.40264 0.09211 0.97265 0.0
C2591 C 0.41461 0.08979 0.96754 0.0
C2592 C 0.41692 0.08739 0.94732 0.0
C2593 C 0.40729 0.08735 0.93215 0.0
C2594 C 0.3953 0.08964 0.93718 0.0
C2595 C 0.35923 0.13946 0.94036 0.0
C2596 C 0.35985 0.13841 0.91913 0.0
C2597 C 0.36147 0.12966 0.95294 0.0
C2598 C 0.36426 0.11861 0.94448 0.0
C2599 C 0.36523 0.11789 0.92335 0.0
C2600 C 0.3632 0.1277 0.91089 0.0
C2601 C 0.36605 0.10755 0.95717 0.0
C2602 C 0.37847 0.10554 0.95342 0.0
C2603 C 0.35512 0.09816 0.97159 0.0
C2604 C 0.3413 0.09903 0.97554 0.0
C2605 C 0.33098 0.09659 0.95978 0.0
C2606 C 0.31798 0.09745 0.96363 0.0
C2607 C 0.31512 0.10061 0.98321 0.0
C2608 C 0.32523 0.10287 0.99901 0.0
C2609 C 0.33826 0.10204 0.99523 0.0
H2610 H 0.30504 0.10127 0.98617 0.0
H2611 H 0.42618 0.08559 0.9434 0.0
H2612 H 0.95457 0.33609 0.00401 0.0
H2613 H 0.93288 0.31154 0.99449 0.0
H2614 H 0.96331 0.29613 0.97539 0.0
H2615 H 0.98497 0.3209 0.98394 0.0
H2616 H 0.9428 0.28774 0.94877 0.0
H2617 H 0.94139 0.28435 0.02127 0.0
H2618 H 0.94065 0.2923 0.05641 0.0
H2619 H 0.89833 0.29023 0.04397 0.0
H2620 H 0.89891 0.28245 0.00867 0.0
H2621 H 0.88956 0.20881 0.9485 0.0
H2622 H 0.90658 0.23184 0.96776 0.0
H2623 H 0.88282 0.25359 0.94453 0.0
H2624 H 0.86608 0.23074 0.92469 0.0
H2625 H 0.89881 0.25793 0.99362 0.0
H2626 H 0.90488 0.26621 0.91801 0.0
H2627 H 0.90576 0.25618 0.88424 0.0
H2628 H 0.94017 0.247 0.90542 0.0
H2629 H 0.93926 0.25674 0.93945 0.0
C2630 C 0.9566 0.32742 0.99785 0.0
C2631 C 0.97145 0.3304 0.9947 0.0
C2632 C 0.94419 0.31334 0.99254 0.0
C2633 C 0.94638 0.30181 0.98446 0.0
C2634 C 0.96126 0.30478 0.98154 0.0
C2635 C 0.97365 0.31895 0.98648 0.0
C2636 C 0.93325 0.28689 0.97824 0.0
C2637 C 0.93329 0.28129 0.95875 0.0
C2638 C 0.92066 0.27831 0.99105 0.0
C2639 C 0.92027 0.28296 0.01227 0.0
C2640 C 0.93198 0.28569 0.02599 0.0
C2641 C 0.93158 0.29015 0.04594 0.0
C2642 C 0.91947 0.29181 0.05241 0.0
C2643 C 0.90771 0.28896 0.03894 0.0
C2644 C 0.90806 0.28451 0.01896 0.0
C2645 C 0.88754 0.21827 0.94827 0.0
C2646 C 0.87647 0.21803 0.93531 0.0
C2647 C 0.8973 0.23141 0.95919 0.0
C2648 C 0.89593 0.24436 0.9575 0.0
C2649 C 0.88395 0.24365 0.94611 0.0
C2650 C 0.87438 0.23061 0.93487 0.0
C2651 C 0.90853 0.25919 0.96435 0.0
C2652 C 0.90837 0.26462 0.98382 0.0
C2653 C 0.92113 0.26758 0.95173 0.0
C2654 C 0.92192 0.26207 0.93123 0.0
C2655 C 0.91256 0.26196 0.91547 0.0
C2656 C 0.91306 0.25634 0.8963 0.0
C2657 C 0.92301 0.25095 0.89269 0.0
C2658 C 0.93246 0.25117 0.90825 0.0
C2659 C 0.93196 0.25673 0.92747 0.0
H2660 H 0.92344 0.24668 0.87782 0.0
H2661 H 0.91919 0.29526 0.06786 0.0
H2662 H 0.67803 0.64325 0.97285 0.0
H2663 H 0.70138 0.64361 0.9637 0.0
H2664 H 0.71593 0.65151 0.02625 0.0
H2665 H 0.69233 0.65088 0.03566 0.0
H2666 H 0.73878 0.67093 0.99445 0.0
H2667 H 0.70548 0.61916 0.01289 0.0
H2668 H 0.68126 0.595 0.01274 0.0
H2669 H 0.68425 0.59115 0.94828 0.0
H2670 H 0.70838 0.61542 0.94799 0.0
H2671 H 0.79981 0.66175 0.95569 0.0
H2672 H 0.77996 0.65931 0.97913 0.0
H2673 H 0.74663 0.63846 0.93129 0.0
H2674 H 0.76603 0.64032 0.90846 0.0
H2675 H 0.73502 0.62446 0.96468 0.0
H2676 H 0.76415 0.67733 0.94446 0.0
H2677 H 0.78737 0.70231 0.94212 0.0
H2678 H 0.79151 0.70475 0.00706 0.0
H2679 H 0.76839 0.6797 0.00975 0.0
C2680 C 0.6862 0.64511 0.98468 0.0
C2681 C 0.68334 0.64699 0.00498 0.0
C2682 C 0.69952 0.64529 0.97942 0.0
C2683 C 0.71033 0.64752 0.99431 0.0
C2684 C 0.70771 0.64977 0.01456 0.0
C2685 C 0.69423 0.64935 0.0199 0.0
C2686 C 0.72413 0.64715 0.98842 0.0
C2687 C 0.73809 0.66071 0.98838 0.0
C2688 C 0.72313 0.63386 0.98028 0.0
C2689 C 0.7087 0.61916 0.98042 0.0
C2690 C 0.70092 0.61322 0.99866 0.0
C2691 C 0.68722 0.59949 0.99866 0.0
C2692 C 0.68121 0.59156 0.98051 0.0
C2693 C 0.68892 0.59731 0.96233 0.0
C2694 C 0.70262 0.61104 0.96224 0.0
C2695 C 0.78819 0.65648 0.95038 0.0
C2696 C 0.78452 0.65151 0.93015 0.0
C2697 C 0.77688 0.65518 0.96369 0.0
C2698 C 0.76179 0.64888 0.95691 0.0
C2699 C 0.75814 0.64337 0.93696 0.0
C2700 C 0.76931 0.6446 0.92382 0.0
C2701 C 0.74964 0.64839 0.96986 0.0
C2702 C 0.7359 0.63463 0.97125 0.0
C2703 C 0.75081 0.66156 0.97892 0.0
C2704 C 0.76468 0.67658 0.97729 0.0
C2705 C 0.77009 0.68316 0.95823 0.0
C2706 C 0.78321 0.69733 0.95684 0.0
C2707 C 0.79095 0.70509 0.97443 0.0
C2708 C 0.78554 0.69871 0.99345 0.0
C2709 C 0.77242 0.68453 0.99491 0.0
H2710 H 0.8011 0.71606 0.97333 0.0
H2711 H 0.67059 0.58093 0.98054 0.0
H2712 H 0.95826 0.63442 0.01919 0.0
H2713 H 0.93616 0.63697 0.01139 0.0
H2714 H 0.96425 0.6769 0.97631 0.0
H2715 H 0.98638 0.67439 0.98399 0.0
H2716 H 0.94289 0.67961 0.00043 0.0
H2717 H 0.94465 0.64446 0.95244 0.0
H2718 H 0.94561 0.62161 0.94275 0.0
H2719 H 0.90388 0.59376 0.97395 0.0
H2720 H 0.90279 0.61649 0.98407 0.0
H2721 H 0.89449 0.68455 0.92777 0.0
H2722 H 0.91329 0.6839 0.94996 0.0
H2723 H 0.87943 0.64017 0.97208 0.0
H2724 H 0.86075 0.64042 0.94901 0.0
H2725 H 0.9021 0.6383 0.95951 0.0
H2726 H 0.89815 0.67299 0.00351 0.0
H2727 H 0.89701 0.6957 0.01345 0.0
H2728 H 0.94201 0.72418 0.99105 0.0
H2729 H 0.94335 0.70166 0.9807 0.0
C2730 C 0.95975 0.64382 0.00998 0.0
C2731 C 0.97403 0.65414 0.00207 0.0
C2732 C 0.94712 0.64527 0.00554 0.0
C2733 C 0.94855 0.65708 0.99317 0.0
C2734 C 0.9629 0.66772 0.98592 0.0
C2735 C 0.97552 0.66622 0.99022 0.0
C2736 C 0.93497 0.65777 0.98662 0.0
C2737 C 0.93397 0.67064 0.99141 0.0
C2738 C 0.92313 0.64584 0.97538 0.0
C2739 C 0.92374 0.63218 0.96922 0.0
C2740 C 0.93575 0.63347 0.95738 0.0
C2741 C 0.93631 0.62054 0.95178 0.0
C2742 C 0.92484 0.60625 0.95779 0.0
C2743 C 0.91277 0.60485 0.96935 0.0
C2744 C 0.91218 0.61775 0.97501 0.0
C2745 C 0.89095 0.67495 0.93772 0.0
C2746 C 0.87616 0.66245 0.9364 0.0
C2747 C 0.90171 0.67464 0.95058 0.0
C2748 C 0.89785 0.66196 0.96275 0.0
C2749 C 0.88273 0.65005 0.96278 0.0
C2750 C 0.87199 0.65029 0.94974 0.0
C2751 C 0.90994 0.66027 0.9731 0.0
C2752 C 0.91076 0.6472 0.96891 0.0
C2753 C 0.92153 0.672 0.98498 0.0
C2754 C 0.9208 0.68561 0.9912 0.0
C2755 C 0.90776 0.6841 0.00056 0.0
C2756 C 0.90709 0.69694 0.00629 0.0
C2757 C 0.91942 0.71137 0.00285 0.0
C2758 C 0.93246 0.71299 0.9937 0.0
C2759 C 0.93319 0.70019 0.98793 0.0
H2760 H 0.91887 0.7213 0.0073 0.0
H2761 H 0.92529 0.59625 0.95343 0.0
H2762 H 0.34478 0.32064 0.98451 0.0
H2763 H 0.34151 0.29598 0.9748 0.0
H2764 H 0.3814 0.30576 0.00938 0.0
H2765 H 0.3846 0.33035 0.01942 0.0
H2766 H 0.38099 0.29619 0.96857 0.0
H2767 H 0.34912 0.28039 0.02729 0.0
H2768 H 0.32856 0.27833 0.04894 0.0
H2769 H 0.29629 0.25492 0.00115 0.0
H2770 H 0.3167 0.25704 0.97909 0.0
H2771 H 0.37455 0.22727 0.94137 0.0
H2772 H 0.37598 0.24643 0.96498 0.0
H2773 H 0.33201 0.23757 0.94472 0.0
H2774 H 0.33008 0.21771 0.9221 0.0
H2775 H 0.33554 0.24634 0.98225 0.0
H2776 H 0.36573 0.26495 0.92218 0.0
H2777 H 0.38518 0.2678 0.89772 0.0
H2778 H 0.41924 0.28697 0.94446 0.0
H2779 H 0.39993 0.28402 0.96928 0.0
C2780 C 0.35277 0.31747 0.9902 0.0
C2781 C 0.36495 0.32742 0.0027 0.0
C2782 C 0.35085 0.30336 0.98472 0.0
C2783 C 0.36117 0.29902 0.99147 0.0
C2784 C 0.37328 0.30888 0.00408 0.0
C2785 C 0.37508 0.32291 0.00982 0.0
C2786 C 0.35979 0.28457 0.98434 0.0
C2787 C 0.37121 0.28525 0.97192 0.0
C2788 C 0.34679 0.27037 0.98819 0.0
C2789 C 0.33447 0.26898 0.00148 0.0
C2790 C 0.33766 0.27491 0.02133 0.0
C2791 C 0.32603 0.27371 0.03369 0.0
C2792 C 0.31113 0.26653 0.02641 0.0
C2793 C 0.30784 0.26049 0.00677 0.0
C2794 C 0.31943 0.26167 0.99434 0.0
C2795 C 0.36491 0.22893 0.94252 0.0
C2796 C 0.35233 0.22116 0.92949 0.0
C2797 C 0.36583 0.24007 0.95586 0.0
C2798 C 0.35436 0.24386 0.9561 0.0
C2799 C 0.34113 0.23505 0.94464 0.0
C2800 C 0.34009 0.22375 0.93157 0.0
C2801 C 0.35674 0.25794 0.96635 0.0
C2802 C 0.34546 0.25723 0.97921 0.0
C2803 C 0.36972 0.27221 0.96253 0.0
C2804 C 0.38137 0.2741 0.94762 0.0
C2805 C 0.37736 0.26968 0.92726 0.0
C2806 C 0.38835 0.27132 0.91333 0.0
C2807 C 0.40343 0.27752 0.91954 0.0
C2808 C 0.40755 0.28213 0.93968 0.0
C2809 C 0.39659 0.28048 0.95369 0.0
H2810 H 0.41193 0.27878 0.90874 0.0
H2811 H 0.30214 0.26562 0.036 0.0
H2812 H 0.68603 0.05965 0.02825 0.0
H2813 H 0.71146 0.08033 0.01962 0.0
H2814 H 0.71595 0.05131 0.97595 0.0
H2815 H 0.69064 0.03075 0.98431 0.0
H2816 H 0.74186 0.06779 0.00023 0.0
H2817 H 0.70653 0.07618 0.96025 0.0
H2818 H 0.68514 0.08075 0.95597 0.0
H2819 H 0.70842 0.12116 0.9923 0.0
H2820 H 0.72987 0.1167 0.99701 0.0
H2821 H 0.79139 0.10758 0.92257 0.0
H2822 H 0.77091 0.09222 0.94572 0.0
H2823 H 0.7774 0.13267 0.97587 0.0
H2824 H 0.79802 0.14824 0.95217 0.0
H2825 H 0.748 0.11393 0.96669 0.0
H2826 H 0.78558 0.10825 0.00086 0.0
H2827 H 0.80712 0.10391 0.00486 0.0
H2828 H 0.78024 0.05893 0.98063 0.0
H2829 H 0.75859 0.06307 0.97618 0.0
C2830 C 0.6925 0.05769 0.01689 0.0
C2831 C 0.68633 0.0436 0.0069 0.0
C2832 C 0.70699 0.0695 0.01196 0.0
C2833 C 0.71558 0.06736 0.99711 0.0
C2834 C 0.70955 0.0532 0.9875 0.0
C2835 C 0.69505 0.04148 0.99223 0.0
C2836 C 0.73067 0.07988 0.99092 0.0
C2837 C 0.74324 0.07789 0.9929 0.0
C2838 C 0.73257 0.09333 0.98207 0.0
C2839 C 0.7197 0.096 0.97921 0.0
C2840 C 0.70702 0.08596 0.96748 0.0
C2841 C 0.6949 0.08855 0.96495 0.0
C2842 C 0.6954 0.10121 0.97392 0.0
C2843 C 0.70804 0.11134 0.9854 0.0
C2844 C 0.72018 0.10879 0.98801 0.0
C2845 C 0.78861 0.11321 0.93433 0.0
C2846 C 0.79622 0.12908 0.93556 0.0
C2847 C 0.77696 0.10441 0.94767 0.0
C2848 C 0.77267 0.11125 0.96273 0.0
C2849 C 0.78056 0.12714 0.96443 0.0
C2850 C 0.79237 0.13602 0.95102 0.0
C2851 C 0.75916 0.1016 0.97532 0.0
C2852 C 0.74682 0.10407 0.97453 0.0
C2853 C 0.7575 0.08862 0.98539 0.0
C2854 C 0.77046 0.08601 0.98812 0.0
C2855 C 0.78428 0.09746 0.99626 0.0
C2856 C 0.79651 0.09503 0.99863 0.0
C2857 C 0.79505 0.08116 0.99299 0.0
C2858 C 0.78135 0.06967 0.985 0.0
C2859 C 0.76908 0.07205 0.98259 0.0
H2860 H 0.80453 0.0793 0.99483 0.0
H2861 H 0.68601 0.1032 0.97193 0.0
H2862 H 0.62013 0.95529 0.03816 0.0
H2863 H 0.62168 0.93317 0.04891 0.0
H2864 H 0.66953 0.95692 0.03628 0.0
H2865 H 0.66806 0.97906 0.02546 0.0
H2866 H 0.65494 0.9265 0.02386 0.0
H2867 H 0.65819 0.95589 0.08356 0.0
H2868 H 0.64906 0.96877 0.10636 0.0
H2869 H 0.60787 0.92675 0.11599 0.0
H2870 H 0.61669 0.91366 0.09303 0.0
H2871 H 0.68318 0.88958 0.08652 0.0
H2872 H 0.67667 0.90554 0.06632 0.0
H2873 H 0.63162 0.88272 0.09132 0.0
H2874 H 0.63842 0.8672 0.11219 0.0
H2875 H 0.64243 0.91098 0.09559 0.0
H2876 H 0.63968 0.88067 0.03892 0.0
H2877 H 0.648 0.86743 0.01551 0.0
H2878 H 0.68675 0.90983 0.99924 0.0
H2879 H 0.67879 0.92331 0.02276 0.0
C2880 C 0.63095 0.95575 0.03749 0.0
C2881 C 0.644 0.96895 0.0311 0.0
C2882 C 0.63182 0.94311 0.04365 0.0
C2883 C 0.64575 0.94344 0.04355 0.0
C2884 C 0.65867 0.95641 0.03645 0.0
C2885 C 0.65782 0.96907 0.03038 0.0
C2886 C 0.64706 0.93068 0.05201 0.0
C2887 C 0.65231 0.92312 0.03957 0.0
C2888 C 0.64321 0.92603 0.07234 0.0
C2889 C 0.63803 0.93383 0.08643 0.0
C2890 C 0.64715 0.94942 0.09045 0.0
C2891 C 0.64204 0.95675 0.10341 0.0
C2892 C 0.62788 0.94859 0.11257 0.0
C2893 C 0.61883 0.93306 0.10886 0.0
C2894 C 0.62388 0.92568 0.09589 0.0
C2895 C 0.67174 0.88763 0.08715 0.0
C2896 C 0.66127 0.87712 0.10081 0.0
C2897 C 0.668 0.89678 0.07559 0.0
C2898 C 0.6536 0.89536 0.07717 0.0
C2899 C 0.64282 0.88412 0.08986 0.0
C2900 C 0.64665 0.87516 0.10166 0.0
C2901 C 0.65039 0.90665 0.06749 0.0
C2902 C 0.64486 0.91407 0.07976 0.0
C2903 C 0.65385 0.91105 0.04695 0.0
C2904 C 0.65868 0.90299 0.03274 0.0
C2905 C 0.65004 0.88716 0.03046 0.0
C2906 C 0.65468 0.87962 0.01715 0.0
C2907 C 0.66791 0.88778 0.00592 0.0
C2908 C 0.67651 0.90352 0.00795 0.0
C2909 C 0.67192 0.91112 0.02125 0.0
H2910 H 0.67149 0.88192 0.99563 0.0
H2911 H 0.62393 0.95429 0.12258 0.0
H2912 H 0.04626 0.68577 0.05768 0.0
H2913 H 0.06721 0.7108 0.06679 0.0
H2914 H 0.07172 0.72426 0.00408 0.0
H2915 H 0.05103 0.69895 0.99479 0.0
H2916 H 0.09856 0.735 0.01957 0.0
H2917 H 0.05476 0.73636 0.03967 0.0
H2918 H 0.03012 0.72763 0.0561 0.0
H2919 H 0.05033 0.73055 0.11443 0.0
H2920 H 0.07506 0.73909 0.09832 0.0
H2921 H 0.12994 0.80849 0.09055 0.0
H2922 H 0.1108 0.78957 0.06761 0.0
H2923 H 0.13567 0.76565 0.06626 0.0
H2924 H 0.15507 0.78494 0.08827 0.0
H2925 H 0.0929 0.76291 0.0774 0.0
H2926 H 0.12548 0.74071 0.02847 0.0
H2927 H 0.14928 0.75117 0.00929 0.0
H2928 H 0.15026 0.7935 0.0033 0.0
H2929 H 0.12635 0.78324 0.02218 0.0
C2930 C 0.0517 0.69406 0.04583 0.0
C2931 C 0.04694 0.69042 0.02554 0.0
C2932 C 0.06365 0.70841 0.05106 0.0
C2933 C 0.07091 0.71958 0.03619 0.0
C2934 C 0.06629 0.71589 0.01585 0.0
C2935 C 0.05444 0.70144 0.01056 0.0
C2936 C 0.08331 0.73501 0.04202 0.0
C2937 C 0.09732 0.74116 0.03214 0.0
C2938 C 0.08159 0.74336 0.05795 0.0
C2939 C 0.06675 0.73827 0.06775 0.0
C2940 C 0.05393 0.73504 0.05598 0.0
C2941 C 0.03995 0.73014 0.06524 0.0
C2942 C 0.03866 0.72851 0.08629 0.0
C2943 C 0.05135 0.73181 0.09812 0.0
C2944 C 0.06536 0.7367 0.08894 0.0
C2945 C 0.13162 0.79956 0.08452 0.0
C2946 C 0.14404 0.79824 0.09096 0.0
C2947 C 0.12061 0.78865 0.0716 0.0
C2948 C 0.12167 0.77606 0.06516 0.0
C2949 C 0.13464 0.77533 0.07055 0.0
C2950 C 0.14579 0.78641 0.08315 0.0
C2951 C 0.1084 0.76277 0.0554 0.0
C2952 C 0.09418 0.75695 0.0646 0.0
C2953 C 0.10983 0.75502 0.03844 0.0
C2954 C 0.12415 0.76122 0.02688 0.0
C2955 C 0.13072 0.75222 0.02296 0.0
C2956 C 0.14425 0.75812 0.01217 0.0
C2957 C 0.1513 0.773 0.00512 0.0
C2958 C 0.14481 0.78199 0.00882 0.0
C2959 C 0.13128 0.77615 0.0196 0.0
H2960 H 0.16177 0.77754 0.99678 0.0
H2961 H 0.02782 0.72471 0.09343 0.0
H2962 H 0.33054 0.357 0.06175 0.0
H2963 H 0.30561 0.35298 0.07078 0.0
H2964 H 0.29946 0.36433 0.00986 0.0
H2965 H 0.32459 0.36868 0.00084 0.0
H2966 H 0.29037 0.3776 0.03611 0.0
H2967 H 0.28087 0.3274 0.02606 0.0
H2968 H 0.2849 0.30568 0.03018 0.0
H2969 H 0.27638 0.30483 0.094 0.0
H2970 H 0.27252 0.32669 0.09033 0.0
H2971 H 0.20693 0.32635 0.07807 0.0
H2972 H 0.22823 0.33022 0.05691 0.0
H2973 H 0.25718 0.37243 0.08804 0.0
H2974 H 0.23587 0.36881 0.10874 0.0
H2975 H 0.25258 0.33056 0.07031 0.0
H2976 H 0.28672 0.39599 0.05938 0.0
H2977 H 0.2817 0.41683 0.05271 0.0
H2978 H 0.23879 0.38545 0.02566 0.0
H2979 H 0.24364 0.36445 0.03189 0.0
C2980 C 0.32387 0.3586 0.05025 0.0
C2981 C 0.32952 0.36311 0.03056 0.0
C2982 C 0.30958 0.35624 0.05541 0.0
C2983 C 0.30053 0.35815 0.04093 0.0
C2984 C 0.3062 0.36275 0.02128 0.0
C2985 C 0.32054 0.36519 0.01613 0.0
C2986 C 0.2853 0.35558 0.04649 0.0
C2987 C 0.28208 0.36729 0.0435 0.0
C2988 C 0.27428 0.34197 0.05565 0.0
C2989 C 0.27651 0.32876 0.05793 0.0
C2990 C 0.27996 0.32264 0.041 0.0
C2991 C 0.2822 0.3103 0.04325 0.0
C2992 C 0.28092 0.30389 0.06235 0.0
C2993 C 0.27737 0.3098 0.07922 0.0
C2994 C 0.27514 0.32216 0.07706 0.0
C2995 C 0.2177 0.33671 0.07988 0.0
C2996 C 0.21973 0.34726 0.0951 0.0
C2997 C 0.22991 0.33884 0.06793 0.0
C2998 C 0.24435 0.35161 0.07086 0.0
C2999 C 0.24615 0.36257 0.08526 0.0
C3000 C 0.23397 0.36046 0.09717 0.0
C3001 C 0.25783 0.35278 0.06053 0.0
C3002 C 0.26077 0.34081 0.06268 0.0
C3003 C 0.26844 0.36602 0.05026 0.0
C3004 C 0.26551 0.37863 0.04625 0.0
C3005 C 0.27625 0.39354 0.05191 0.0
C3006 C 0.27342 0.40538 0.04823 0.0
C3007 C 0.25992 0.40246 0.03881 0.0
C3008 C 0.24923 0.38769 0.03301 0.0
C3009 C 0.252 0.37581 0.03665 0.0
H3010 H 0.25775 0.41164 0.03599 0.0
H3011 H 0.28266 0.29434 0.06406 0.0
H3012 H 0.70362 0.69517 0.39053 0.0
H3013 H 0.72596 0.69367 0.39988 0.0
H3014 H 0.74644 0.71318 0.34249 0.0
H3015 H 0.72382 0.71444 0.33281 0.0
H3016 H 0.75153 0.69065 0.35191 0.0
H3017 H 0.75807 0.73473 0.3854 0.0
H3018 H 0.75101 0.75024 0.40637 0.0
H3019 H 0.7448 0.72204 0.45776 0.0
H3020 H 0.75161 0.70622 0.43702 0.0
H3021 H 0.81805 0.7113 0.43232 0.0
H3022 H 0.80267 0.71815 0.41105 0.0
H3023 H 0.77333 0.67098 0.39567 0.0
H3024 H 0.78922 0.66436 0.41604 0.0
H3025 H 0.77623 0.71183 0.41839 0.0
H3026 H 0.75194 0.66563 0.35465 0.0
H3027 H 0.76082 0.65242 0.3321 0.0
H3028 H 0.80648 0.68938 0.33794 0.0
H3029 H 0.79785 0.70291 0.3603 0.0
C3030 C 0.71286 0.69915 0.37985 0.0
C3031 C 0.71199 0.70502 0.36098 0.0
C3032 C 0.72567 0.69833 0.38526 0.0
C3033 C 0.73801 0.70355 0.37204 0.0
C3034 C 0.73708 0.70915 0.35298 0.0
C3035 C 0.72418 0.7099 0.34749 0.0
C3036 C 0.75184 0.70319 0.37841 0.0
C3037 C 0.75702 0.69535 0.36638 0.0
C3038 C 0.75932 0.70972 0.397 0.0
C3039 C 0.75526 0.71923 0.4096 0.0
C3040 C 0.7551 0.73177 0.40114 0.0
C3041 C 0.75115 0.74063 0.41299 0.0
C3042 C 0.74743 0.73711 0.43338 0.0
C3043 C 0.74768 0.72475 0.44196 0.0
C3044 C 0.7516 0.71584 0.43017 0.0
C3045 C 0.80868 0.70254 0.42364 0.0
C3046 C 0.80492 0.68737 0.42545 0.0
C3047 C 0.79979 0.7064 0.41167 0.0
C3048 C 0.78679 0.69512 0.40162 0.0
C3049 C 0.78346 0.67999 0.40277 0.0
C3050 C 0.79254 0.67618 0.41442 0.0
C3051 C 0.77573 0.69885 0.39222 0.0
C3052 C 0.77098 0.7073 0.40375 0.0
C3053 C 0.76897 0.69322 0.37294 0.0
C3054 C 0.77424 0.68524 0.35928 0.0
C3055 C 0.76386 0.67098 0.35104 0.0
C3056 C 0.76886 0.66343 0.3383 0.0
C3057 C 0.78421 0.67004 0.33363 0.0
C3058 C 0.7946 0.68424 0.34163 0.0
C3059 C 0.78966 0.69185 0.35436 0.0
H3060 H 0.78806 0.66417 0.32378 0.0
H3061 H 0.74438 0.74398 0.44253 0.0
H3062 H 0.3323 0.02263 0.3962 0.0
H3063 H 0.33475 0.04694 0.40567 0.0
H3064 H 0.30648 0.04361 0.35481 0.0
H3065 H 0.30429 0.01943 0.34497 0.0
H3066 H 0.32896 0.07192 0.35888 0.0
H3067 H 0.29244 0.03455 0.40334 0.0
H3068 H 0.28249 0.01387 0.42826 0.0
H3069 H 0.31726 0.04257 0.47075 0.0
H3070 H 0.32761 0.06332 0.44592 0.0
H3071 H 0.30849 0.11669 0.43953 0.0
H3072 H 0.30326 0.09412 0.42001 0.0
H3073 H 0.34943 0.11694 0.39906 0.0
H3074 H 0.35453 0.13963 0.41819 0.0
H3075 H 0.31565 0.07823 0.42907 0.0
H3076 H 0.35268 0.09935 0.35683 0.0
H3077 H 0.36067 0.11964 0.33153 0.0
H3078 H 0.32097 0.12265 0.34356 0.0
H3079 H 0.31263 0.10224 0.36872 0.0
C3080 C 0.32668 0.02712 0.38695 0.0
C3081 C 0.31801 0.01906 0.36991 0.0
C3082 C 0.32804 0.041 0.39243 0.0
C3083 C 0.32059 0.04701 0.38116 0.0
C3084 C 0.3123 0.0392 0.36377 0.0
C3085 C 0.31102 0.02535 0.3582 0.0
C3086 C 0.32111 0.06122 0.38787 0.0
C3087 C 0.32603 0.0733 0.37422 0.0
C3088 C 0.31702 0.06297 0.40777 0.0
C3089 C 0.31089 0.05044 0.42267 0.0
C3090 C 0.29805 0.0364 0.41792 0.0
C3091 C 0.29233 0.02467 0.43204 0.0
C3092 C 0.29926 0.02689 0.45105 0.0
C3093 C 0.31192 0.04085 0.456 0.0
C3094 C 0.31772 0.05259 0.4419 0.0
C3095 C 0.31732 0.11706 0.43005 0.0
C3096 C 0.33188 0.1299 0.43024 0.0
C3097 C 0.31437 0.10413 0.41906 0.0
C3098 C 0.32596 0.10374 0.40814 0.0
C3099 C 0.34023 0.11697 0.40712 0.0
C3100 C 0.34313 0.12998 0.41798 0.0
C3101 C 0.32367 0.08905 0.40017 0.0
C3102 C 0.31849 0.07686 0.41366 0.0
C3103 C 0.32728 0.08717 0.38006 0.0
C3104 C 0.33211 0.09935 0.3648 0.0
C3105 C 0.34562 0.10429 0.35401 0.0
C3106 C 0.35022 0.11582 0.33971 0.0
C3107 C 0.34136 0.12246 0.33598 0.0
C3108 C 0.32785 0.11754 0.34651 0.0
C3109 C 0.3232 0.10601 0.36082 0.0
H3110 H 0.34494 0.13139 0.32491 0.0
H3111 H 0.2948 0.0178 0.46198 0.0
H3112 H 0.00537 0.31402 0.39273 0.0
H3113 H 0.98241 0.29151 0.40411 0.0
H3114 H 0.96909 0.27778 0.34198 0.0
H3115 H 0.99223 0.30036 0.33039 0.0
H3116 H 0.94509 0.27512 0.36823 0.0
H3117 H 0.98249 0.25983 0.36567 0.0
H3118 H 0.00761 0.26274 0.37239 0.0
H3119 H 1.00051 0.26284 0.4365 0.0
H3120 H 0.97543 0.26014 0.43018 0.0
H3121 H 0.88514 0.20617 0.41107 0.0
H3122 H 0.90605 0.22308 0.38869 0.0
H3123 H 0.93536 0.24231 0.44094 0.0
H3124 H 0.91502 0.22518 0.4629 0.0
H3125 H 0.95051 0.23896 0.41258 0.0
H3126 H 0.91657 0.25932 0.41639 0.0
H3127 H 0.89219 0.25852 0.41173 0.0
H3128 H 0.89323 0.2507 0.34787 0.0
H3129 H 0.91755 0.25128 0.35222 0.0
C3130 C 0.99755 0.30627 0.38145 0.0
C3131 C 1.00064 0.30893 0.36066 0.0
C3132 C 0.98445 0.29339 0.38799 0.0
C3133 C 0.97413 0.28292 0.37389 0.0
C3134 C 0.97694 0.28572 0.35308 0.0
C3135 C 0.99016 0.29857 0.34651 0.0
C3136 C 0.96063 0.26897 0.38117 0.0
C3137 C 0.94619 0.267 0.37757 0.0
C3138 C 0.96214 0.25853 0.39357 0.0
C3139 C 0.9771 0.25985 0.39743 0.0
C3140 C 0.98632 0.26055 0.3812 0.0
C3141 C 1.00054 0.26215 0.38494 0.0
C3142 C 0.00565 0.26299 0.40486 0.0
C3143 C 0.99653 0.26218 0.42108 0.0
C3144 C 0.9823 0.26059 0.41743 0.0
C3145 C 0.89611 0.21391 0.41766 0.0
C3146 C 0.89831 0.21456 0.43879 0.0
C3147 C 0.90802 0.22364 0.4049 0.0
C3148 C 0.92226 0.23417 0.41313 0.0
C3149 C 0.92452 0.23437 0.43415 0.0
C3150 C 0.91277 0.22466 0.44676 0.0
C3151 C 0.93492 0.24538 0.40038 0.0
C3152 C 0.94927 0.24684 0.40288 0.0
C3153 C 0.93334 0.25549 0.38728 0.0
C3154 C 0.91875 0.25513 0.38467 0.0
C3155 C 0.91153 0.25731 0.40139 0.0
C3156 C 0.89774 0.25692 0.3988 0.0
C3157 C 0.89114 0.2545 0.37952 0.0
C3158 C 0.89834 0.25253 0.36279 0.0
C3159 C 0.91212 0.25289 0.36531 0.0
H3160 H 0.88046 0.25421 0.37754 0.0
H3161 H 0.01666 0.26423 0.40773 0.0
H3162 H 0.01134 0.36778 0.31955 0.0
H3163 H 0.00788 0.38881 0.30924 0.0
H3164 H 0.05307 0.42062 0.33023 0.0
H3165 H 0.0564 0.39957 0.3412 0.0
H3166 H 0.03464 0.43133 0.33834 0.0
H3167 H 0.04558 0.41069 0.27984 0.0
H3168 H 0.04244 0.39074 0.25579 0.0
H3169 H 0.99727 0.38094 0.24182 0.0
H3170 H 1.00007 0.4007 0.266 0.0
H3171 H 0.04787 0.49193 0.26986 0.0
H3172 H 0.04774 0.47271 0.29212 0.0
H3173 H 1.00122 0.44176 0.27553 0.0
H3174 H 1.0013 0.46094 0.25336 0.0
H3175 H 0.01987 0.43079 0.26644 0.0
H3176 H 0.01058 0.4538 0.32398 0.0
H3177 H 0.01528 0.47474 0.34716 0.0
H3178 H 0.0593 0.48149 0.36169 0.0
H3179 H 0.05496 0.46072 0.33837 0.0
C3180 C 0.02049 0.37926 0.32215 0.0
C3181 C 0.0342 0.38203 0.331 0.0
C3182 C 0.01852 0.39128 0.3162 0.0
C3183 C 0.03032 0.40632 0.31858 0.0
C3184 C 0.04381 0.40913 0.32818 0.0
C3185 C 0.04573 0.39709 0.33437 0.0
C3186 C 0.02887 0.41902 0.31002 0.0
C3187 C 0.03154 0.43128 0.32258 0.0
C3188 C 0.02469 0.41893 0.28949 0.0
C3189 C 0.02298 0.40706 0.27489 0.0
C3190 C 0.03493 0.4042 0.27175 0.0
C3191 C 0.03322 0.39294 0.25808 0.0
C3192 C 0.01964 0.38455 0.24733 0.0
C3193 C 0.00777 0.38743 0.25019 0.0
C3194 C 0.00941 0.39866 0.26386 0.0
C3195 C 0.03743 0.48126 0.27165 0.0
C3196 C 0.02463 0.47788 0.25977 0.0
C3197 C 0.03739 0.47025 0.28431 0.0
C3198 C 0.02451 0.45574 0.28535 0.0
C3199 C 0.01131 0.45284 0.27486 0.0
C3200 C 0.01135 0.46382 0.26226 0.0
C3201 C 0.02542 0.44302 0.2948 0.0
C3202 C 0.0228 0.43078 0.28229 0.0
C3203 C 0.02986 0.4433 0.31523 0.0
C3204 C 0.03249 0.45579 0.32928 0.0
C3205 C 0.02132 0.45984 0.33198 0.0
C3206 C 0.02391 0.47166 0.34517 0.0
C3207 C 0.03759 0.47947 0.35585 0.0
C3208 C 0.04871 0.47544 0.35339 0.0
C3209 C 0.04618 0.46363 0.34021 0.0
H3210 H 0.03957 0.48862 0.36606 0.0
H3211 H 0.01834 0.37584 0.23675 0.0
H3212 H 0.65072 0.65309 0.33675 0.0
H3213 H 0.62991 0.62782 0.32811 0.0
H3214 H 0.59911 0.64517 0.3257 0.0
H3215 H 0.6198 0.67031 0.33549 0.0
H3216 H 0.58468 0.61848 0.34048 0.0
H3217 H 0.61565 0.63904 0.28191 0.0
H3218 H 0.63915 0.65073 0.26194 0.0
H3219 H 0.64485 0.61252 0.2735 0.0
H3220 H 0.62147 0.60069 0.29378 0.0
H3221 H 0.53504 0.56533 0.26322 0.0
H3222 H 0.55203 0.58703 0.28474 0.0
H3223 H 0.5746 0.56317 0.30461 0.0
H3224 H 0.55734 0.54132 0.28352 0.0
H3225 H 0.59272 0.59198 0.28287 0.0
H3226 H 0.55873 0.57075 0.33908 0.0
H3227 H 0.53404 0.55984 0.35613 0.0
H3228 H 0.53259 0.60049 0.34495 0.0
H3229 H 0.55718 0.61157 0.32755 0.0
C3230 C 0.63947 0.65147 0.33453 0.0
C3231 C 0.63689 0.66367 0.33661 0.0
C3232 C 0.62759 0.63703 0.32948 0.0
C3233 C 0.61295 0.63459 0.32572 0.0
C3234 C 0.61027 0.64671 0.32844 0.0
C3235 C 0.62211 0.6611 0.33397 0.0
C3236 C 0.60063 0.61959 0.31823 0.0
C3237 C 0.58643 0.61277 0.32776 0.0
C3238 C 0.60284 0.61198 0.30172 0.0
C3239 C 0.61691 0.61906 0.28955 0.0
C3240 C 0.62198 0.63318 0.28032 0.0
C3241 C 0.63526 0.63983 0.26893 0.0
C3242 C 0.64351 0.63239 0.26651 0.0
C3243 C 0.63846 0.61828 0.27543 0.0
C3244 C 0.62519 0.61159 0.28686 0.0
C3245 C 0.54317 0.56449 0.27294 0.0
C3246 C 0.54479 0.55163 0.27199 0.0
C3247 C 0.55291 0.57689 0.28512 0.0
C3248 C 0.56457 0.57669 0.29622 0.0
C3249 C 0.5656 0.56349 0.29624 0.0
C3250 C 0.55568 0.55098 0.28436 0.0
C3251 C 0.57692 0.59092 0.30518 0.0
C3252 C 0.59108 0.59764 0.29575 0.0
C3253 C 0.57452 0.59857 0.32136 0.0
C3254 C 0.55974 0.59194 0.33183 0.0
C3255 C 0.55308 0.57731 0.34007 0.0
C3256 C 0.53912 0.57111 0.34985 0.0
C3257 C 0.53173 0.57945 0.35158 0.0
C3258 C 0.53832 0.59403 0.34358 0.0
C3259 C 0.55228 0.60029 0.33378 0.0
H3260 H 0.52092 0.57463 0.35915 0.0
H3261 H 0.65379 0.63755 0.25768 0.0
H3262 H 0.35818 0.97694 0.37344 0.0
H3263 H 0.38294 0.98015 0.36471 0.0
H3264 H 0.37918 0.99501 0.3049 0.0
H3265 H 0.35465 0.99209 0.31365 0.0
H3266 H 0.39039 0.96632 0.33768 0.0
H3267 H 0.41304 0.01967 0.28619 0.0
H3268 H 0.41239 0.04348 0.28497 0.0
H3269 H 0.40454 0.04112 0.34911 0.0
H3270 H 0.40536 0.01743 0.35079 0.0
H3271 H 0.43774 0.96799 0.26039 0.0
H3272 H 0.41908 0.96768 0.28363 0.0
H3273 H 0.4538 0.00894 0.31175 0.0
H3274 H 0.47249 0.00942 0.28779 0.0
H3275 H 0.43072 0.01189 0.30356 0.0
H3276 H 0.43579 0.97417 0.3379 0.0
H3277 H 0.43771 0.9512 0.34201 0.0
H3278 H 0.39268 0.92394 0.31806 0.0
H3279 H 0.39055 0.94676 0.31352 0.0
C3280 C 0.36272 0.98104 0.3585 0.0
C3281 C 0.35447 0.98429 0.34424 0.0
C3282 C 0.37686 0.98284 0.35351 0.0
C3283 C 0.38305 0.98799 0.33421 0.0
C3284 C 0.37483 0.99132 0.32003 0.0
C3285 C 0.36075 0.98956 0.32501 0.0
C3286 C 0.39768 0.98914 0.32839 0.0
C3287 C 0.39927 0.97632 0.33037 0.0
C3288 C 0.40952 0.00236 0.31944 0.0
C3289 C 0.40916 0.0167 0.31858 0.0
C3290 C 0.41126 0.02427 0.30006 0.0
C3291 C 0.41084 0.03774 0.29928 0.0
C3292 C 0.40839 0.04379 0.31694 0.0
C3293 C 0.40638 0.0364 0.33543 0.0
C3294 C 0.4068 0.02294 0.3363 0.0
C3295 C 0.44145 0.97672 0.27197 0.0
C3296 C 0.45653 0.98859 0.2726 0.0
C3297 C 0.43079 0.97655 0.28529 0.0
C3298 C 0.43501 0.98817 0.29972 0.0
C3299 C 0.45027 0.99979 0.30085 0.0
C3300 C 0.46097 1.00001 0.28734 0.0
C3301 C 0.42311 0.98881 0.312 0.0
C3302 C 0.422 0.00197 0.31121 0.0
C3303 C 0.41188 0.97602 0.32248 0.0
C3304 C 0.41304 0.96221 0.3253 0.0
C3305 C 0.42632 0.96329 0.3334 0.0
C3306 C 0.42744 0.95029 0.33582 0.0
C3307 C 0.41533 0.93612 0.33029 0.0
C3308 C 0.40205 0.93492 0.32235 0.0
C3309 C 0.40087 0.94789 0.31989 0.0
H3310 H 0.41622 0.92607 0.33216 0.0
H3311 H 0.40806 0.05421 0.3163 0.0
H3312 H 0.65242 0.00613 0.32129 0.0
H3313 H 0.63068 0.00924 0.3131 0.0
H3314 H 0.60126 0.96841 0.34569 0.0
H3315 H 0.62296 0.96537 0.35425 0.0
H3316 H 0.59157 0.96995 0.30518 0.0
H3317 H 0.60819 0.99964 0.3666 0.0
H3318 H 0.6269 0.01961 0.38925 0.0
H3319 H 0.63452 0.0533 0.34482 0.0
H3320 H 0.61601 0.0335 0.32176 0.0
H3321 H 0.52754 0.9747 0.28495 0.0
H3322 H 0.54612 0.9738 0.30751 0.0
H3323 H 0.58005 0.01824 0.28775 0.0
H3324 H 0.56132 0.01952 0.26599 0.0
H3325 H 0.58643 0.01406 0.32519 0.0
H3326 H 0.57413 0.98636 0.26244 0.0
H3327 H 0.55716 0.96778 0.23694 0.0
H3328 H 0.54376 0.93197 0.28011 0.0
H3329 H 0.5605 0.95041 0.30599 0.0
C3330 C 0.64133 0.99788 0.32682 0.0
C3331 C 0.63938 0.98549 0.33839 0.0
C3332 C 0.62895 0.99971 0.32221 0.0
C3333 C 0.61439 0.9891 0.32889 0.0
C3334 C 0.61241 0.97674 0.34046 0.0
C3335 C 0.62482 0.97504 0.34535 0.0
C3336 C 0.60112 0.99049 0.32287 0.0
C3337 C 0.59026 0.97942 0.3099 0.0
C3338 C 0.59973 0.00312 0.3285 0.0
C3339 C 0.6108 0.01506 0.34239 0.0
C3340 C 0.61395 0.01129 0.36159 0.0
C3341 C 0.6245 0.02258 0.37451 0.0
C3342 C 0.63192 0.03771 0.36846 0.0
C3343 C 0.62877 0.04158 0.34948 0.0
C3344 C 0.61824 0.03032 0.33649 0.0
C3345 C 0.53875 0.98457 0.28612 0.0
C3346 C 0.54304 0.99707 0.27337 0.0
C3347 C 0.54944 0.98397 0.29885 0.0
C3348 C 0.56463 0.99573 0.29878 0.0
C3349 C 0.56846 0.00894 0.28789 0.0
C3350 C 0.55775 0.00963 0.27538 0.0
C3351 C 0.57681 0.99347 0.30753 0.0
C3352 C 0.58756 0.00443 0.3208 0.0
C3353 C 0.57836 0.98091 0.30179 0.0
C3354 C 0.56842 0.96978 0.28621 0.0
C3355 C 0.56749 0.97454 0.26653 0.0
C3356 C 0.55792 0.96403 0.25201 0.0
C3357 C 0.54935 0.94871 0.25692 0.0
C3358 C 0.55038 0.94385 0.27635 0.0
C3359 C 0.55991 0.95432 0.29095 0.0
H3360 H 0.54195 0.94059 0.24566 0.0
H3361 H 0.64009 0.04644 0.37849 0.0
H3362 H 0.0367 0.66144 0.35693 0.0
H3363 H 0.03433 0.63736 0.34593 0.0
H3364 H 0.03017 0.64793 0.28376 0.0
H3365 H 0.03207 0.67166 0.29469 0.0
H3366 H 0.01021 0.61988 0.29064 0.0
H3367 H 0.06376 0.65172 0.30483 0.0
H3368 H 0.08605 0.66785 0.32629 0.0
H3369 H 0.07328 0.63108 0.36766 0.0
H3370 H 0.05079 0.61478 0.34655 0.0
H3371 H 0.03639 0.58359 0.22753 0.0
H3372 H 0.03623 0.60259 0.24969 0.0
H3373 H 0.02486 0.57244 0.3005 0.0
H3374 H 0.0244 0.55285 0.27794 0.0
H3375 H 0.04962 0.60639 0.30577 0.0
H3376 H 0.99802 0.57344 0.28542 0.0
H3377 H 0.9774 0.55846 0.26104 0.0
H3378 H 0.98777 0.59891 0.22872 0.0
H3379 H 0.00881 0.61407 0.25241 0.0
C3380 C 0.03526 0.65858 0.34092 0.0
C3381 C 0.03457 0.66843 0.32667 0.0
C3382 C 0.03397 0.64485 0.33465 0.0
C3383 C 0.03218 0.64084 0.31398 0.0
C3384 C 0.03147 0.6507 0.2998 0.0
C3385 C 0.03261 0.66431 0.30606 0.0
C3386 C 0.031 0.62643 0.30681 0.0
C3387 C 0.01885 0.61696 0.29396 0.0
C3388 C 0.04201 0.62232 0.31159 0.0
C3389 C 0.0555 0.6321 0.32427 0.0
C3390 C 0.06564 0.64712 0.3186 0.0
C3391 C 0.07832 0.65628 0.33067 0.0
C3392 C 0.08105 0.65051 0.34836 0.0
C3393 C 0.07113 0.63554 0.35398 0.0
C3394 C 0.05842 0.62634 0.34196 0.0
C3395 C 0.03372 0.58088 0.24338 0.0
C3396 C 0.02997 0.56654 0.25086 0.0
C3397 C 0.03378 0.59183 0.25605 0.0
C3398 C 0.03034 0.58884 0.27663 0.0
C3399 C 0.02747 0.57489 0.28459 0.0
C3400 C 0.02723 0.56376 0.27173 0.0
C3401 C 0.02913 0.60025 0.28916 0.0
C3402 C 0.0408 0.60914 0.30292 0.0
C3403 C 0.01781 0.604 0.28497 0.0
C3404 C 0.00511 0.59489 0.27065 0.0
C3405 C 0.99605 0.57912 0.27296 0.0
C3406 C 0.98428 0.57059 0.25924 0.0
C3407 C 0.98132 0.57771 0.24327 0.0
C3408 C 0.99011 0.59339 0.24102 0.0
C3409 C 1.00198 0.60195 0.25458 0.0
H3410 H 0.97219 0.57109 0.23268 0.0
H3411 H 0.09087 0.65762 0.35769 0.0
H3412 H 0.35226 0.38968 0.35512 0.0
H3413 H 0.37729 0.41002 0.34475 0.0
H3414 H 0.37658 0.38263 0.29432 0.0
H3415 H 0.35168 0.36228 0.30466 0.0
H3416 H 0.40382 0.39624 0.31344 0.0
H3417 H 0.36859 0.411 0.28786 0.0
H3418 H 0.34839 0.41742 0.29089 0.0
H3419 H 0.37627 0.45395 0.33167 0.0
H3420 H 0.39657 0.44761 0.32907 0.0
H3421 H 0.45269 0.44419 0.23972 0.0
H3422 H 0.43144 0.42682 0.26048 0.0
H3423 H 0.44221 0.4626 0.30392 0.0
H3424 H 0.46353 0.48034 0.2826 0.0
H3425 H 0.41194 0.44678 0.29471 0.0
H3426 H 0.44871 0.43413 0.31602 0.0
H3427 H 0.46893 0.42784 0.31198 0.0
H3428 H 0.43835 0.38745 0.279 0.0
H3429 H 0.41799 0.39359 0.2826 0.0
C3430 C 0.35747 0.38799 0.34186 0.0
C3431 C 0.34998 0.37439 0.33067 0.0
C3432 C 0.37175 0.39964 0.33592 0.0
C3433 C 0.37878 0.3979 0.31867 0.0
C3434 C 0.3714 0.38423 0.3077 0.0
C3435 C 0.35713 0.37262 0.31358 0.0
C3436 C 0.39371 0.41032 0.31171 0.0
C3437 C 0.40558 0.40727 0.30927 0.0
C3438 C 0.3962 0.4249 0.30692 0.0
C3439 C 0.38401 0.42871 0.30847 0.0
C3440 C 0.37036 0.42032 0.29761 0.0
C3441 C 0.3589 0.42395 0.29922 0.0
C3442 C 0.36102 0.43605 0.31152 0.0
C3443 C 0.37463 0.44456 0.32218 0.0
C3444 C 0.38611 0.44095 0.32064 0.0
C3445 C 0.45054 0.4484 0.25368 0.0
C3446 C 0.45965 0.46368 0.25942 0.0
C3447 C 0.43848 0.4384 0.26566 0.0
C3448 C 0.43529 0.44333 0.28389 0.0
C3449 C 0.4445 0.45854 0.28993 0.0
C3450 C 0.45669 0.46863 0.27785 0.0
C3451 C 0.42191 0.43255 0.2959 0.0
C3452 C 0.41031 0.43587 0.29928 0.0
C3453 C 0.41966 0.4182 0.30156 0.0
C3454 C 0.43183 0.41436 0.29952 0.0
C3455 C 0.44632 0.42395 0.30781 0.0
C3456 C 0.4578 0.4204 0.30561 0.0
C3457 C 0.45493 0.40726 0.29522 0.0
C3458 C 0.44056 0.39762 0.28705 0.0
C3459 C 0.42903 0.40111 0.2892 0.0
H3460 H 0.46384 0.40455 0.29353 0.0
H3461 H 0.35214 0.43885 0.31275 0.0
H3462 H 0.33053 0.3181 0.38829 0.0
H3463 H 0.33605 0.29824 0.39781 0.0
H3464 H 0.30715 0.26981 0.34933 0.0
H3465 H 0.30161 0.28972 0.33963 0.0
H3466 H 0.30214 0.25454 0.38611 0.0
H3467 H 0.34393 0.28563 0.34346 0.0
H3468 H 0.36533 0.30952 0.33106 0.0
H3469 H 0.38782 0.31697 0.3887 0.0
H3470 H 0.36645 0.29322 0.40155 0.0
H3471 H 0.32588 0.20178 0.41434 0.0
H3472 H 0.32122 0.21834 0.39199 0.0
H3473 H 0.35102 0.25688 0.42928 0.0
H3474 H 0.35589 0.24058 0.45106 0.0
H3475 H 0.35498 0.26481 0.39099 0.0
H3476 H 0.31192 0.23707 0.4354 0.0
H3477 H 0.29042 0.21394 0.44943 0.0
H3478 H 0.27041 0.20093 0.39002 0.0
H3479 H 0.29192 0.22391 0.37561 0.0
C3480 C 0.32536 0.30764 0.37962 0.0
C3481 C 0.31566 0.30548 0.36319 0.0
C3482 C 0.32858 0.29632 0.38502 0.0
C3483 C 0.32213 0.2826 0.37414 0.0
C3484 C 0.31228 0.28033 0.35787 0.0
C3485 C 0.30916 0.29172 0.35234 0.0
C3486 C 0.32554 0.2706 0.38014 0.0
C3487 C 0.31366 0.25664 0.38676 0.0
C3488 C 0.34059 0.27342 0.38122 0.0
C3489 C 0.35353 0.28767 0.37351 0.0
C3490 C 0.35339 0.29241 0.35354 0.0
C3491 C 0.36552 0.30592 0.34642 0.0
C3492 C 0.37792 0.31477 0.35909 0.0
C3493 C 0.37821 0.3101 0.3789 0.0
C3494 C 0.3661 0.2966 0.3861 0.0
C3495 C 0.33161 0.21383 0.41743 0.0
C3496 C 0.34106 0.21989 0.43455 0.0
C3497 C 0.32888 0.22326 0.40479 0.0
C3498 C 0.33559 0.23885 0.40913 0.0
C3499 C 0.34567 0.24493 0.4256 0.0
C3500 C 0.34837 0.23558 0.43813 0.0
C3501 C 0.33163 0.24891 0.3976 0.0
C3502 C 0.34342 0.26255 0.38992 0.0
C3503 C 0.31652 0.24586 0.39575 0.0
C3504 C 0.3036 0.23208 0.4044 0.0
C3505 C 0.30299 0.22921 0.42532 0.0
C3506 C 0.2908 0.21614 0.43334 0.0
C3507 C 0.27908 0.20595 0.42062 0.0
C3508 C 0.27951 0.20882 0.39985 0.0
C3509 C 0.2917 0.22186 0.39175 0.0
H3510 H 0.26965 0.19584 0.42685 0.0
H3511 H 0.3873 0.32523 0.35356 0.0
H3512 H 0.72754 0.02102 0.34596 0.0
H3513 H 0.74875 0.04582 0.35599 0.0
H3514 H 0.71949 0.0524 0.3965 0.0
H3515 H 0.69827 0.02748 0.38682 0.0
H3516 H 0.73967 0.07863 0.37141 0.0
H3517 H 0.74041 0.04174 0.41696 0.0
H3518 H 0.74095 0.01841 0.42473 0.0
H3519 H 0.78278 0.03535 0.39252 0.0
H3520 H 0.78236 0.0587 0.3843 0.0
H3521 H 0.78762 0.13357 0.44295 0.0
H3522 H 0.76897 0.11321 0.42161 0.0
H3523 H 0.80371 0.10492 0.3987 0.0
H3524 H 0.82225 0.12462 0.42123 0.0
H3525 H 0.78194 0.07995 0.41054 0.0
H3526 H 0.78347 0.11808 0.36806 0.0
H3527 H 0.78335 0.14141 0.35902 0.0
H3528 H 0.73844 0.1229 0.38277 0.0
H3529 H 0.73837 0.09952 0.39222 0.0
C3530 C 0.7256 0.02779 0.35692 0.0
C3531 C 0.71127 0.02229 0.3657 0.0
C3532 C 0.73772 0.04194 0.36261 0.0
C3533 C 0.73567 0.05092 0.37697 0.0
C3534 C 0.72127 0.04566 0.38532 0.0
C3535 C 0.7092 0.0314 0.37988 0.0
C3536 C 0.74871 0.06542 0.38412 0.0
C3537 C 0.7489 0.07899 0.38008 0.0
C3538 C 0.76096 0.06586 0.39478 0.0
C3539 C 0.76125 0.05187 0.39981 0.0
C3540 C 0.74964 0.04042 0.41137 0.0
C3541 C 0.74995 0.02721 0.41589 0.0
C3542 C 0.76187 0.02537 0.40906 0.0
C3543 C 0.77354 0.03677 0.39776 0.0
C3544 C 0.77327 0.05 0.39317 0.0
C3545 C 0.79137 0.12759 0.43312 0.0
C3546 C 0.80641 0.1306 0.43408 0.0
C3547 C 0.78068 0.11601 0.42069 0.0
C3548 C 0.78486 0.10744 0.40842 0.0
C3549 C 0.80016 0.11128 0.40808 0.0
C3550 C 0.81082 0.12272 0.4208 0.0
C3551 C 0.77301 0.09343 0.39806 0.0
C3552 C 0.77294 0.07982 0.40156 0.0
C3553 C 0.76099 0.09303 0.38666 0.0
C3554 C 0.76096 0.10707 0.38097 0.0
C3555 C 0.77361 0.11901 0.37149 0.0
C3556 C 0.77357 0.13225 0.36627 0.0
C3557 C 0.76091 0.13365 0.37035 0.0
C3558 C 0.74825 0.1218 0.37962 0.0
C3559 C 0.74823 0.10854 0.38489 0.0
H3560 H 0.7609 0.14391 0.3663 0.0
H3561 H 0.76208 0.01514 0.41258 0.0
H3562 H 0.00301 0.72814 0.35158 0.0
H3563 H 0.97876 0.72553 0.36185 0.0
H3564 H 0.96003 0.67743 0.36874 0.0
H3565 H 0.98435 0.68 0.35892 0.0
H3566 H 0.94029 0.68734 0.34821 0.0
H3567 H 0.97089 0.69561 0.40883 0.0
H3568 H 0.99413 0.70965 0.42951 0.0
H3569 H 0.98985 0.74936 0.42729 0.0
H3570 H 0.9667 0.7356 0.40632 0.0
H3571 H 0.87812 0.66342 0.41464 0.0
H3572 H 0.89998 0.66908 0.39366 0.0
H3573 H 0.91999 0.71654 0.40875 0.0
H3574 H 0.89841 0.71062 0.4307 0.0
H3575 H 0.93957 0.7091 0.4153 0.0
H3576 H 0.9076 0.70086 0.35828 0.0
H3577 H 0.88472 0.68775 0.33675 0.0
H3578 H 0.89154 0.64973 0.33043 0.0
H3579 H 0.91434 0.66252 0.35216 0.0
C3580 C 0.99368 0.71699 0.35507 0.0
C3581 C 0.99558 0.70428 0.35456 0.0
C3582 C 0.97985 0.71552 0.36092 0.0
C3583 C 0.96764 0.70129 0.36604 0.0
C3584 C 0.96931 0.68849 0.36475 0.0
C3585 C 0.98322 0.68999 0.35925 0.0
C3586 C 0.9535 0.6999 0.37419 0.0
C3587 C 0.94003 0.692 0.36291 0.0
C3588 C 0.95334 0.7064 0.39307 0.0
C3589 C 0.96718 0.71463 0.40581 0.0
C3590 C 0.97499 0.70737 0.4126 0.0
C3591 C 0.98812 0.71527 0.4244 0.0
C3592 C 0.99349 0.7304 0.42965 0.0
C3593 C 0.9857 0.73765 0.42317 0.0
C3594 C 0.97257 0.72981 0.41134 0.0
C3595 C 0.88696 0.67511 0.41284 0.0
C3596 C 0.88656 0.68663 0.42398 0.0
C3597 C 0.89948 0.67837 0.40083 0.0
C3598 C 0.91169 0.69329 0.39939 0.0
C3599 C 0.91078 0.70494 0.40958 0.0
C3600 C 0.8984 0.70161 0.42193 0.0
C3601 C 0.92605 0.69643 0.3894 0.0
C3602 C 0.93968 0.70462 0.4004 0.0
C3603 C 0.92633 0.69035 0.37012 0.0
C3604 C 0.91264 0.68262 0.35698 0.0
C3605 C 0.90416 0.68966 0.35242 0.0
C3606 C 0.89122 0.6823 0.34016 0.0
C3607 C 0.88666 0.66791 0.33226 0.0
C3608 C 0.89507 0.66088 0.33657 0.0
C3609 C 0.90803 0.66819 0.34883 0.0
H3610 H 0.87663 0.66222 0.32277 0.0
H3611 H 0.00367 0.7365 0.43879 0.0
H3612 H 0.39223 0.04648 0.67592 0.0
H3613 H 0.41262 0.04221 0.68724 0.0
H3614 H 0.38274 0.01015 0.73141 0.0
H3615 H 0.36256 0.01494 0.72072 0.0
H3616 H 0.4084 0.02617 0.74833 0.0
H3617 H 0.39299 0.99959 0.68509 0.0
H3618 H 0.387 0.99597 0.64851 0.0
H3619 H 0.43273 0.02985 0.63479 0.0
H3620 H 0.43895 0.03382 0.67132 0.0
H3621 H 0.44792 0.98739 0.76649 0.0
H3622 H 0.42991 0.99181 0.74731 0.0
H3623 H 0.46581 0.03656 0.73209 0.0
H3624 H 0.48384 0.03228 0.75186 0.0
H3625 H 0.43833 0.01467 0.69973 0.0
H3626 H 0.45215 0.04076 0.76598 0.0
H3627 H 0.45692 0.04055 0.80265 0.0
H3628 H 0.41172 0.00336 0.81048 0.0
H3629 H 0.40682 0.00312 0.77372 0.0
C3630 C 0.39002 0.03851 0.68803 0.0
C3631 C 0.37579 0.03101 0.6974 0.0
C3632 C 0.40167 0.036 0.69442 0.0
C3633 C 0.39921 0.02565 0.71 0.0
C3634 C 0.38498 0.01819 0.71939 0.0
C3635 C 0.37342 0.0209 0.71323 0.0
C3636 C 0.41152 0.02279 0.71677 0.0
C3637 C 0.41482 0.02358 0.73762 0.0
C3638 C 0.42008 0.01947 0.70292 0.0
C3639 C 0.41639 0.01712 0.68094 0.0
C3640 C 0.40174 0.00636 0.67427 0.0
C3641 C 0.39831 0.00422 0.65355 0.0
C3642 C 0.40947 0.0127 0.63933 0.0
C3643 C 0.42409 0.02331 0.64582 0.0
C3644 C 0.42758 0.0255 0.66653 0.0
C3645 C 0.45206 0.99792 0.75833 0.0
C3646 C 0.46724 0.00943 0.76031 0.0
C3647 C 0.44177 1.00046 0.74749 0.0
C3648 C 0.44656 0.0145 0.73835 0.0
C3649 C 0.46197 0.02561 0.73892 0.0
C3650 C 0.47225 0.02315 0.7501 0.0
C3651 C 0.4351 0.01822 0.73101 0.0
C3652 C 0.43193 0.01747 0.71022 0.0
C3653 C 0.42645 0.02129 0.74488 0.0
C3654 C 0.42918 0.02182 0.76708 0.0
C3655 C 0.44327 0.03246 0.77549 0.0
C3656 C 0.446 0.03243 0.79629 0.0
C3657 C 0.43464 0.02192 0.80888 0.0
C3658 C 0.42051 0.01148 0.8007 0.0
C3659 C 0.41776 0.01142 0.77988 0.0
H3660 H 0.43678 0.0219 0.82498 0.0
H3661 H 0.40679 0.01103 0.62329 0.0
H3662 H 0.96335 0.34554 0.7181 0.0
H3663 H 0.96682 0.37061 0.7251 0.0
H3664 H 0.00427 0.39049 0.68356 0.0
H3665 H 1.00077 0.36531 0.67631 0.0
H3666 H 0.01062 0.40525 0.72139 0.0
H3667 H 0.97256 0.38886 0.66965 0.0
H3668 H 0.9484 0.37127 0.65265 0.0
H3669 H 0.92385 0.3729 0.70437 0.0
H3670 H 0.94787 0.39033 0.72182 0.0
H3671 H 0.01903 0.47668 0.741 0.0
H3672 H 0.01389 0.45504 0.71927 0.0
H3673 H 0.97346 0.42663 0.75331 0.0
H3674 H 0.97845 0.44824 0.77478 0.0
H3675 H 0.96977 0.4178 0.71375 0.0
H3676 H 0.00637 0.42985 0.76739 0.0
H3677 H 0.02977 0.44656 0.78656 0.0
H3678 H 0.05626 0.45187 0.73357 0.0
H3679 H 0.03296 0.43538 0.71399 0.0
C3680 C 0.97227 0.35523 0.71034 0.0
C3681 C 0.9818 0.35346 0.69665 0.0
C3682 C 0.97419 0.36954 0.71428 0.0
C3683 C 0.98571 0.38241 0.70472 0.0
C3684 C 0.99526 0.3807 0.69103 0.0
C3685 C 0.99323 0.36632 0.68688 0.0
C3686 C 0.98815 0.39765 0.70988 0.0
C3687 C 1.00183 0.40815 0.71925 0.0
C3688 C 0.97652 0.40126 0.70758 0.0
C3689 C 0.96203 0.39083 0.6971 0.0
C3690 C 0.96201 0.38538 0.67747 0.0
C3691 C 0.94834 0.37545 0.66774 0.0
C3692 C 0.9346 0.37095 0.67744 0.0
C3693 C 0.9345 0.37639 0.69688 0.0
C3694 C 0.94814 0.38631 0.70668 0.0
C3695 C 0.00874 0.46596 0.74328 0.0
C3696 C 0.99919 0.46408 0.75964 0.0
C3697 C 0.00588 0.45357 0.73099 0.0
C3698 C 0.99345 0.43914 0.73494 0.0
C3699 C 0.98314 0.43762 0.75002 0.0
C3700 C 0.98601 0.44997 0.7623 0.0
C3701 C 0.99219 0.42533 0.72539 0.0
C3702 C 0.97869 0.41505 0.71539 0.0
C3703 C 0.0039 0.42179 0.72737 0.0
C3704 C 0.01792 0.43155 0.73916 0.0
C3705 C 0.01718 0.43467 0.75979 0.0
C3706 C 0.03042 0.44409 0.77073 0.0
C3707 C 0.04449 0.45031 0.76127 0.0
C3708 C 0.04535 0.44707 0.74086 0.0
C3709 C 0.03213 0.4377 0.72983 0.0
H3710 H 0.05473 0.4576 0.76976 0.0
H3711 H 0.92403 0.36326 0.66987 0.0
H3712 H 0.66654 0.62497 0.67193 0.0
H3713 H 0.64248 0.60299 0.68203 0.0
H3714 H 0.64133 0.62751 0.73476 0.0
H3715 H 0.66528 0.6495 0.72471 0.0
H3716 H 0.63552 0.58583 0.71545 0.0
H3717 H 0.60505 0.61706 0.74575 0.0
H3718 H 0.60374 0.64001 0.73822 0.0
H3719 H 0.61655 0.63886 0.6766 0.0
H3720 H 0.61773 0.61578 0.68367 0.0
H3721 H 0.58269 0.54774 0.79229 0.0
H3722 H 0.60284 0.56534 0.76999 0.0
H3723 H 0.56961 0.55903 0.72451 0.0
H3724 H 0.54925 0.54121 0.74702 0.0
H3725 H 0.59001 0.58925 0.7324 0.0
H3726 H 0.59234 0.54531 0.71516 0.0
H3727 H 0.59315 0.52193 0.72138 0.0
H3728 H 0.6354 0.54748 0.75334 0.0
H3729 H 0.63474 0.57099 0.74758 0.0
C3730 C 0.66111 0.62569 0.68562 0.0
C3731 C 0.6678 0.63897 0.69751 0.0
C3732 C 0.64738 0.61312 0.69138 0.0
C3733 C 0.64 0.61364 0.70903 0.0
C3734 C 0.64667 0.62691 0.7209 0.0
C3735 C 0.66041 0.63945 0.71519 0.0
C3736 C 0.62564 0.60016 0.71557 0.0
C3737 C 0.62553 0.58655 0.71901 0.0
C3738 C 0.61247 0.60096 0.71978 0.0
C3739 C 0.61158 0.61473 0.7153 0.0
C3740 C 0.60751 0.62165 0.73057 0.0
C3741 C 0.60681 0.63469 0.72638 0.0
C3742 C 0.6101 0.64091 0.70695 0.0
C3743 C 0.61405 0.63406 0.69165 0.0
C3744 C 0.61476 0.62101 0.69575 0.0
C3745 C 0.57971 0.54994 0.77739 0.0
C3746 C 0.56447 0.54316 0.77131 0.0
C3747 C 0.59122 0.55995 0.76465 0.0
C3748 C 0.58776 0.56345 0.74553 0.0
C3749 C 0.57253 0.55645 0.73918 0.0
C3750 C 0.56094 0.54624 0.75194 0.0
C3751 C 0.60012 0.57515 0.73298 0.0
C3752 C 0.5999 0.58845 0.72849 0.0
C3753 C 0.61293 0.57401 0.72761 0.0
C3754 C 0.61345 0.55991 0.73101 0.0
C3755 C 0.60176 0.54593 0.72363 0.0
C3756 C 0.6022 0.53266 0.72706 0.0
C3757 C 0.61431 0.53322 0.73776 0.0
C3758 C 0.62603 0.54706 0.74504 0.0
C3759 C 0.62564 0.56037 0.74167 0.0
H3760 H 0.61463 0.52293 0.7404 0.0
H3761 H 0.60956 0.65101 0.70375 0.0
H3762 H 0.722 0.72939 0.68449 0.0
H3763 H 0.71839 0.75047 0.67465 0.0
H3764 H 0.67636 0.7191 0.64477 0.0
H3765 H 0.6802 0.69811 0.65399 0.0
H3766 H 0.69199 0.74129 0.62087 0.0
H3767 H 0.67829 0.73804 0.69076 0.0
H3768 H 0.68144 0.7372 0.72774 0.0
H3769 H 0.72101 0.78146 0.72643 0.0
H3770 H 0.71822 0.78248 0.68938 0.0
H3771 H 0.6663 0.7907 0.59834 0.0
H3772 H 0.66748 0.77196 0.62004 0.0
H3773 H 0.7145 0.80346 0.6331 0.0
H3774 H 0.71346 0.82224 0.61111 0.0
H3775 H 0.69616 0.78188 0.66679 0.0
H3776 H 0.71074 0.78336 0.59631 0.0
H3777 H 0.70688 0.78429 0.55953 0.0
H3778 H 0.66424 0.74284 0.56292 0.0
H3779 H 0.66786 0.74171 0.59981 0.0
C3780 C 0.71193 0.727 0.67598 0.0
C3781 C 0.70141 0.71211 0.66995 0.0
C3782 C 0.70982 0.73905 0.67046 0.0
C3783 C 0.69701 0.73641 0.6591 0.0
C3784 C 0.68634 0.72147 0.65349 0.0
C3785 C 0.68854 0.70946 0.6588 0.0
C3786 C 0.69518 0.74921 0.65188 0.0
C3787 C 0.69267 0.74998 0.63107 0.0
C3788 C 0.69641 0.76085 0.66498 0.0
C3789 C 0.69813 0.76027 0.68725 0.0
C3790 C 0.68774 0.74754 0.69833 0.0
C3791 C 0.68945 0.74704 0.71931 0.0
C3792 C 0.70144 0.75925 0.72942 0.0
C3793 C 0.71174 0.772 0.71857 0.0
C3794 C 0.71009 0.77255 0.69758 0.0
C3795 C 0.67675 0.79383 0.60639 0.0
C3796 C 0.68984 0.80786 0.60283 0.0
C3797 C 0.6774 0.78312 0.61879 0.0
C3798 C 0.69113 0.78627 0.62792 0.0
C3799 C 0.7038 0.80084 0.62621 0.0
C3800 C 0.70317 0.81158 0.61369 0.0
C3801 C 0.69284 0.77369 0.63604 0.0
C3802 C 0.6954 0.77305 0.65682 0.0
C3803 C 0.69158 0.76207 0.62301 0.0
C3804 C 0.68951 0.76252 0.6008 0.0
C3805 C 0.70051 0.77449 0.58922 0.0
C3806 C 0.69837 0.77505 0.56836 0.0
C3807 C 0.68528 0.76367 0.5589 0.0
C3808 C 0.67436 0.75166 0.57028 0.0
C3809 C 0.67647 0.75103 0.59115 0.0
H3810 H 0.68362 0.76414 0.54275 0.0
H3811 H 0.70274 0.75884 0.74567 0.0
H3812 H 0.28808 0.99995 0.67532 0.0
H3813 H 0.267 0.97528 0.66508 0.0
H3814 H 0.29856 0.96287 0.64104 0.0
H3815 H 0.31966 0.98783 0.65051 0.0
H3816 H 0.27677 0.95434 0.61566 0.0
H3817 H 0.27862 0.94847 0.68727 0.0
H3818 H 0.27917 0.95491 0.72347 0.0
H3819 H 0.23557 0.95125 0.71723 0.0
H3820 H 0.23484 0.94498 0.68091 0.0
H3821 H 0.22469 0.87553 0.60874 0.0
H3822 H 0.24326 0.89793 0.62783 0.0
H3823 H 0.21571 0.91853 0.61931 0.0
H3824 H 0.19736 0.89633 0.59955 0.0
H3825 H 0.23495 0.92183 0.66225 0.0
H3826 H 0.236 0.93082 0.58837 0.0
H3827 H 0.23547 0.92219 0.55321 0.0
H3828 H 0.27467 0.91825 0.56563 0.0
H3829 H 0.2752 0.92653 0.60102 0.0
C3830 C 0.29052 0.99193 0.66793 0.0
C3831 C 0.30552 0.9958 0.66375 0.0
C3832 C 0.27845 0.97777 0.66219 0.0
C3833 C 0.28114 0.96705 0.65256 0.0
C3834 C 0.29615 0.97091 0.64845 0.0
C3835 C 0.30822 0.98517 0.65391 0.0
C3836 C 0.26829 0.95202 0.64616 0.0
C3837 C 0.26776 0.94724 0.626 0.0
C3838 C 0.25636 0.94266 0.65948 0.0
C3839 C 0.25674 0.94639 0.68133 0.0
C3840 C 0.2692 0.94915 0.69358 0.0
C3841 C 0.26953 0.95275 0.71413 0.0
C3842 C 0.25743 0.95352 0.72263 0.0
C3843 C 0.24494 0.95066 0.71061 0.0
C3844 C 0.24456 0.94707 0.69005 0.0
C3845 C 0.22231 0.88458 0.61168 0.0
C3846 C 0.20959 0.88422 0.6029 0.0
C3847 C 0.23293 0.89737 0.62248 0.0
C3848 C 0.23082 0.90983 0.6249 0.0
C3849 C 0.21744 0.90894 0.61769 0.0
C3850 C 0.20698 0.89629 0.60649 0.0
C3851 C 0.24355 0.92449 0.63195 0.0
C3852 C 0.24404 0.92909 0.6521 0.0
C3853 C 0.25554 0.93363 0.61877 0.0
C3854 C 0.25553 0.92912 0.59736 0.0
C3855 C 0.24442 0.92798 0.58364 0.0
C3856 C 0.24413 0.92317 0.56367 0.0
C3857 C 0.25501 0.91964 0.5572 0.0
C3858 C 0.26623 0.92097 0.57067 0.0
C3859 C 0.26653 0.92571 0.59068 0.0
H3860 H 0.25476 0.91591 0.54173 0.0
H3861 H 0.25771 0.95631 0.73854 0.0
H3862 H 0.01062 0.30276 0.6455 0.0
H3863 H 0.0343 0.30367 0.63724 0.0
H3864 H 0.05322 0.3248 0.69502 0.0
H3865 H 0.02926 0.32381 0.70357 0.0
H3866 H 0.07278 0.33881 0.6604 0.0
H3867 H 0.04471 0.29013 0.69084 0.0
H3868 H 0.02214 0.26518 0.6968 0.0
H3869 H 0.0222 0.25278 0.63452 0.0
H3870 H 0.04464 0.27774 0.62809 0.0
H3871 H 0.13506 0.33256 0.62055 0.0
H3872 H 0.11639 0.33041 0.64595 0.0
H3873 H 0.08012 0.30144 0.60489 0.0
H3874 H 0.09851 0.30326 0.58015 0.0
H3875 H 0.07227 0.29149 0.64148 0.0
H3876 H 0.09506 0.34112 0.60919 0.0
H3877 H 0.11644 0.36638 0.60087 0.0
H3878 H 0.12536 0.37704 0.66431 0.0
H3879 H 0.10412 0.35175 0.67298 0.0
C3880 C 0.01978 0.30759 0.65652 0.0
C3881 C 0.01805 0.31318 0.67522 0.0
C3882 C 0.03331 0.30806 0.65179 0.0
C3883 C 0.04548 0.31417 0.66559 0.0
C3884 C 0.04393 0.31999 0.6842 0.0
C3885 C 0.03026 0.31938 0.68907 0.0
C3886 C 0.05972 0.31446 0.66008 0.0
C3887 C 0.07283 0.32846 0.65677 0.0
C3888 C 0.05973 0.30097 0.65513 0.0
C3889 C 0.04635 0.28584 0.65898 0.0
C3890 C 0.03986 0.28211 0.67838 0.0
C3891 C 0.0271 0.26797 0.68185 0.0
C3892 C 0.02073 0.25741 0.66605 0.0
C3893 C 0.02715 0.26097 0.64675 0.0
C3894 C 0.03991 0.2751 0.6432 0.0
C3895 C 0.12309 0.32551 0.61727 0.0
C3896 C 0.1182 0.31821 0.59836 0.0
C3897 C 0.11244 0.32436 0.63167 0.0
C3898 C 0.0968 0.31593 0.62725 0.0
C3899 C 0.09205 0.30802 0.60876 0.0
C3900 C 0.10259 0.30912 0.59455 0.0
C3901 C 0.08514 0.31586 0.64085 0.0
C3902 C 0.07245 0.30185 0.64571 0.0
C3903 C 0.08546 0.32935 0.64694 0.0
C3904 C 0.09816 0.34451 0.64172 0.0
C3905 C 0.10166 0.34883 0.62135 0.0
C3906 C 0.11373 0.36314 0.61658 0.0
C3907 C 0.12228 0.37329 0.63205 0.0
C3908 C 0.11875 0.36915 0.65234 0.0
C3909 C 0.1067 0.35484 0.65719 0.0
H3910 H 0.13162 0.38437 0.62833 0.0
H3911 H 0.01084 0.24646 0.66876 0.0
H3912 H 0.3127 0.32358 0.63102 0.0
H3913 H 0.29194 0.3274 0.62057 0.0
H3914 H 0.27719 0.32299 0.68265 0.0
H3915 H 0.29781 0.31869 0.69316 0.0
H3916 H 0.25347 0.308 0.65883 0.0
H3917 H 0.29521 0.35796 0.65905 0.0
H3918 H 0.32105 0.37873 0.65205 0.0
H3919 H 0.31192 0.37253 0.58804 0.0
H3920 H 0.28609 0.35156 0.59462 0.0
H3921 H 0.20256 0.33305 0.61571 0.0
H3922 H 0.222 0.33286 0.63795 0.0
H3923 H 0.24219 0.32437 0.58598 0.0
H3924 H 0.2227 0.32378 0.56417 0.0
H3925 H 0.26283 0.34972 0.61208 0.0
H3926 H 0.2224 0.29653 0.61384 0.0
H3927 H 0.19649 0.27629 0.62182 0.0
H3928 H 0.20338 0.29037 0.68429 0.0
H3929 H 0.22929 0.31085 0.67659 0.0
C3930 C 0.30509 0.32348 0.64248 0.0
C3931 C 0.30694 0.32091 0.66293 0.0
C3932 C 0.29325 0.32576 0.63651 0.0
C3933 C 0.28313 0.3258 0.65086 0.0
C3934 C 0.28488 0.32311 0.67131 0.0
C3935 C 0.29669 0.32069 0.67729 0.0
C3936 C 0.27055 0.32823 0.6442 0.0
C3937 C 0.25556 0.31734 0.649 0.0
C3938 C 0.27319 0.34044 0.63144 0.0
C3939 C 0.28871 0.35311 0.62735 0.0
C3940 C 0.29874 0.36095 0.64347 0.0
C3941 C 0.31338 0.37278 0.63958 0.0
C3942 C 0.31813 0.37694 0.61961 0.0
C3943 C 0.30822 0.3693 0.6035 0.0
C3944 C 0.29357 0.35745 0.60731 0.0
C3945 C 0.21109 0.33103 0.60913 0.0
C3946 C 0.21132 0.32887 0.58806 0.0
C3947 C 0.22219 0.33098 0.6218 0.0
C3948 C 0.23365 0.32884 0.6135 0.0
C3949 C 0.23362 0.32632 0.59264 0.0
C3950 C 0.22251 0.32612 0.58016 0.0
C3951 C 0.2459 0.3292 0.62608 0.0
C3952 C 0.26083 0.34065 0.62237 0.0
C3953 C 0.2432 0.31765 0.64001 0.0
C3954 C 0.22768 0.30533 0.64459 0.0
C3955 C 0.21833 0.2954 0.62923 0.0
C3956 C 0.20366 0.28387 0.63371 0.0
C3957 C 0.19827 0.28208 0.65354 0.0
C3958 C 0.20756 0.29179 0.66893 0.0
C3959 C 0.22223 0.30336 0.66452 0.0
H3960 H 0.18691 0.27314 0.65698 0.0
H3961 H 0.32948 0.38609 0.61663 0.0
H3962 H 0.71878 1.00026 0.68316 0.0
H3963 H 0.71621 0.97597 0.67309 0.0
H3964 H 0.67606 0.96523 0.63851 0.0
H3965 H 0.67864 0.98961 0.64835 0.0
H3966 H 0.6738 0.9405 0.66219 0.0
H3967 H 0.70713 0.97796 0.61393 0.0
H3968 H 0.72952 0.00203 0.60404 0.0
H3969 H 0.75866 0.98838 0.63248 0.0
H3970 H 0.7364 0.9643 0.6428 0.0
H3971 H 0.6669 0.88613 0.58984 0.0
H3972 H 0.66828 0.90628 0.61123 0.0
H3973 H 0.71311 0.91759 0.63113 0.0
H3974 H 0.71212 0.89798 0.60874 0.0
H3975 H 0.71398 0.94171 0.61887 0.0
H3976 H 0.6813 0.90304 0.66399 0.0
H3977 H 0.65923 0.879 0.67465 0.0
H3978 H 0.62933 0.89438 0.65395 0.0
H3979 H 0.65121 0.91844 0.6429 0.0
C3980 C 0.70934 0.99269 0.67353 0.0
C3981 C 0.69896 0.99687 0.66644 0.0
C3982 C 0.7079 0.97882 0.6678 0.0
C3983 C 0.69598 0.96884 0.65501 0.0
C3984 C 0.68531 0.97277 0.64843 0.0
C3985 C 0.68685 0.98672 0.65397 0.0
C3986 C 0.6951 0.95468 0.64758 0.0
C3987 C 0.6825 0.9407 0.6526 0.0
C3988 C 0.70671 0.95499 0.63563 0.0
C3989 C 0.7201 0.96942 0.62935 0.0
C3990 C 0.7183 0.98015 0.61823 0.0
C3991 C 0.73097 0.99378 0.61252 0.0
C3992 C 0.74551 0.99675 0.61769 0.0
C3993 C 0.7474 0.98607 0.62853 0.0
C3994 C 0.73476 0.97243 0.63431 0.0
C3995 C 0.67696 0.89274 0.59903 0.0
C3996 C 0.68947 0.89055 0.59735 0.0
C3997 C 0.67768 0.90419 0.61146 0.0
C3998 C 0.6908 0.91352 0.6229 0.0
C3999 C 0.70287 0.9106 0.62242 0.0
C4000 C 0.70223 0.89924 0.60977 0.0
C4001 C 0.69255 0.9273 0.6333 0.0
C4002 C 0.70533 0.94133 0.62875 0.0
C4003 C 0.68114 0.92698 0.64583 0.0
C4004 C 0.66792 0.91252 0.65248 0.0
C4005 C 0.67002 0.90126 0.66157 0.0
C4006 C 0.65754 0.88763 0.66771 0.0
C4007 C 0.64288 0.88515 0.66495 0.0
C4008 C 0.64069 0.89631 0.65608 0.0
C4009 C 0.65313 0.90996 0.6499 0.0
H4010 H 0.63323 0.87459 0.66971 0.0
H4011 H 0.7553 0.00731 0.61325 0.0
H4012 H 0.01794 0.70405 0.63822 0.0
H4013 H 0.04326 0.72494 0.63088 0.0
H4014 H 0.04585 0.74377 0.69044 0.0
H4015 H 0.02024 0.723 0.69769 0.0
H4016 H 0.0569 0.76564 0.66367 0.0
H4017 H 0.06558 0.72538 0.6794 0.0
H4018 H 0.06161 0.6995 0.67797 0.0
H4019 H 0.07283 0.70489 0.61472 0.0
H4020 H 0.07665 0.73073 0.61569 0.0
H4021 H 0.14052 0.79527 0.62235 0.0
H4022 H 0.11978 0.77976 0.64556 0.0
H4023 H 0.0905 0.79142 0.61253 0.0
H4024 H 0.11124 0.80721 0.58988 0.0
H4025 H 0.09558 0.75526 0.63479 0.0
H4026 H 0.0611 0.78681 0.63936 0.0
H4027 H 0.06611 0.81292 0.64376 0.0
H4028 H 0.10877 0.82569 0.67238 0.0
H4029 H 0.10394 0.79962 0.66844 0.0
C4030 C 0.02389 0.71262 0.64978 0.0
C4031 C 0.01711 0.71184 0.66857 0.0
C4032 C 0.03842 0.72453 0.64561 0.0
C4033 C 0.04662 0.73582 0.66023 0.0
C4034 C 0.0398 0.73518 0.67894 0.0
C4035 C 0.02517 0.72329 0.68308 0.0
C4036 C 0.06219 0.74835 0.65569 0.0
C4037 C 0.06541 0.7634 0.65748 0.0
C4038 C 0.07352 0.74549 0.64827 0.0
C4039 C 0.07132 0.72997 0.64761 0.0
C4040 C 0.06711 0.72102 0.66516 0.0
C4041 C 0.0649 0.70636 0.66443 0.0
C4042 C 0.06695 0.70055 0.64626 0.0
C4043 C 0.07125 0.7094 0.62879 0.0
C4044 C 0.07346 0.72407 0.62942 0.0
C4045 C 0.12984 0.79501 0.62061 0.0
C4046 C 0.12747 0.8024 0.60428 0.0
C4047 C 0.11794 0.78602 0.63374 0.0
C4048 C 0.10351 0.78435 0.63083 0.0
C4049 C 0.10151 0.79264 0.61538 0.0
C4050 C 0.11338 0.80162 0.60234 0.0
C4051 C 0.09009 0.77256 0.64192 0.0
C4052 C 0.08723 0.7576 0.64131 0.0
C4053 C 0.07927 0.77556 0.65086 0.0
C4054 C 0.08218 0.79125 0.65349 0.0
C4055 C 0.07151 0.79516 0.64671 0.0
C4056 C 0.07433 0.80997 0.6491 0.0
C4057 C 0.08777 0.82097 0.65831 0.0
C4058 C 0.09839 0.81717 0.66519 0.0
C4059 C 0.09563 0.80238 0.66286 0.0
H4060 H 0.08993 0.83242 0.66013 0.0
H4061 H 0.06523 0.6892 0.64573 0.0
H4062 H 0.99803 0.65272 0.71902 0.0
H4063 H 1.00156 0.63175 0.72946 0.0
H4064 H 0.96806 0.60257 0.68541 0.0
H4065 H 0.96479 0.62367 0.67454 0.0
H4066 H 0.98332 0.60632 0.74646 0.0
H4067 H 0.97547 0.57505 0.66969 0.0
H4068 H 0.9802 0.58104 0.6333 0.0
H4069 H 0.01551 0.62613 0.64822 0.0
H4070 H 0.01113 0.62035 0.68467 0.0
H4071 H 0.97319 0.53617 0.77119 0.0
H4072 H 0.96848 0.55358 0.75126 0.0
H4073 H 0.0134 0.57347 0.72635 0.0
H4074 H 0.01805 0.55589 0.74603 0.0
H4075 H 0.99337 0.57452 0.69912 0.0
H4076 H 0.00867 0.58772 0.76846 0.0
H4077 H 0.00698 0.58281 0.80522 0.0
H4078 H 0.96255 0.57759 0.80601 0.0
H4079 H 0.96385 0.58214 0.76914 0.0
C4080 C 0.9915 0.64186 0.71145 0.0
C4081 C 0.98115 0.63985 0.69594 0.0
C4082 C 0.99349 0.62986 0.71748 0.0
C4083 C 0.98516 0.61556 0.70816 0.0
C4084 C 0.97482 0.61354 0.69261 0.0
C4085 C 0.97291 0.62559 0.68647 0.0
C4086 C 0.98697 0.60272 0.71525 0.0
C4087 C 0.98548 0.59939 0.73605 0.0
C4088 C 0.99004 0.59374 0.70179 0.0
C4089 C 0.99285 0.5973 0.6799 0.0
C4090 C 0.98427 0.58623 0.6652 0.0
C4091 C 0.98689 0.58959 0.64456 0.0
C4092 C 0.99811 0.60398 0.63845 0.0
C4093 C 0.00678 0.61501 0.65297 0.0
C4094 C 0.00422 0.61171 0.67362 0.0
C4095 C 0.98184 0.54389 0.76088 0.0
C4096 C 0.99602 0.54478 0.76025 0.0
C4097 C 0.97917 0.55387 0.74957 0.0
C4098 C 0.99072 0.56506 0.73769 0.0
C4099 C 0.00435 0.56496 0.73546 0.0
C4100 C 0.00698 0.55488 0.74667 0.0
C4101 C 0.98942 0.57805 0.73016 0.0
C4102 C 0.99106 0.58142 0.7094 0.0
C4103 C 0.98693 0.58738 0.7437 0.0
C4104 C 0.9863 0.58513 0.766 0.0
C4105 C 0.99851 0.58545 0.77645 0.0
C4106 C 0.99762 0.58272 0.7973 0.0
C4107 C 0.98466 0.57986 0.80794 0.0
C4108 C 0.97258 0.57978 0.79774 0.0
C4109 C 0.97338 0.58243 0.77687 0.0
H4110 H 0.98398 0.57773 0.82407 0.0
H4111 H 1.00011 0.60656 0.62248 0.0
H4112 H 0.36447 0.36289 0.71214 0.0
H4113 H 0.38599 0.38766 0.72155 0.0
H4114 H 0.41499 0.37964 0.68242 0.0
H4115 H 0.39344 0.35498 0.67259 0.0
H4116 H 0.42536 0.38811 0.72402 0.0
H4117 H 0.40759 0.40471 0.6676 0.0
H4118 H 0.38841 0.40693 0.64743 0.0
H4119 H 0.38063 0.42924 0.69736 0.0
H4120 H 0.39961 0.42694 0.71795 0.0
H4121 H 0.48835 0.45674 0.75173 0.0
H4122 H 0.47008 0.43792 0.72809 0.0
H4123 H 0.43533 0.44616 0.751 0.0
H4124 H 0.45379 0.46575 0.77361 0.0
H4125 H 0.42913 0.43798 0.71345 0.0
H4126 H 0.44234 0.41847 0.77139 0.0
H4127 H 0.45958 0.41531 0.79455 0.0
H4128 H 0.47352 0.39729 0.74564 0.0
H4129 H 0.4565 0.40055 0.72211 0.0
C4130 C 0.37539 0.36648 0.70537 0.0
C4131 C 0.37729 0.357 0.69166 0.0
C4132 C 0.38765 0.38065 0.71069 0.0
C4133 C 0.40205 0.38549 0.7026 0.0
C4134 C 0.40395 0.37612 0.68875 0.0
C4135 C 0.39164 0.36206 0.68314 0.0
C4136 C 0.41528 0.39987 0.70972 0.0
C4137 C 0.42639 0.39907 0.72134 0.0
C4138 C 0.41629 0.41405 0.70677 0.0
C4139 C 0.40494 0.41554 0.69438 0.0
C4140 C 0.4017 0.40997 0.67434 0.0
C4141 C 0.39088 0.41127 0.66282 0.0
C4142 C 0.38328 0.41819 0.67112 0.0
C4143 C 0.38652 0.42387 0.69095 0.0
C4144 C 0.39732 0.42259 0.70255 0.0
C4145 C 0.477 0.45503 0.75119 0.0
C4146 C 0.47248 0.46255 0.76494 0.0
C4147 C 0.46647 0.44407 0.73783 0.0
C4148 C 0.45117 0.44019 0.73828 0.0
C4149 C 0.447 0.44876 0.75053 0.0
C4150 C 0.45756 0.45989 0.7636 0.0
C4151 C 0.43925 0.42626 0.72789 0.0
C4152 C 0.42831 0.42708 0.71581 0.0
C4153 C 0.43813 0.41198 0.73083 0.0
C4154 C 0.4483 0.40992 0.74495 0.0
C4155 C 0.44916 0.41392 0.76555 0.0
C4156 C 0.45888 0.41211 0.77875 0.0
C4157 C 0.46768 0.40615 0.77156 0.0
C4158 C 0.46673 0.40194 0.75117 0.0
C4159 C 0.45705 0.40377 0.7379 0.0
H4160 H 0.4752 0.40475 0.7818 0.0
H4161 H 0.37491 0.41918 0.66218 0.0
H4162 H 0.65885 0.01614 0.71921 0.0
H4163 H 0.63358 0.01122 0.7281 0.0
H4164 H 0.636 0.04179 0.6814 0.0
H4165 H 0.6614 0.04675 0.67232 0.0
H4166 H 0.62543 0.04626 0.71857 0.0
H4167 H 0.61382 0.00545 0.67302 0.0
H4168 H 0.61565 0.98406 0.65883 0.0
H4169 H 0.5997 0.96003 0.71485 0.0
H4170 H 0.59798 0.98137 0.7295 0.0
H4171 H 0.54907 0.02287 0.74851 0.0
H4172 H 0.57003 0.02791 0.72544 0.0
H4173 H 0.5788 0.99712 0.75965 0.0
H4174 H 0.55794 0.99193 0.78214 0.0
H4175 H 0.58185 0.99379 0.72061 0.0
H4176 H 0.59863 0.03605 0.76797 0.0
H4177 H 0.59767 0.05751 0.78369 0.0
H4178 H 0.60444 0.07865 0.72551 0.0
H4179 H 0.60525 0.0572 0.70942 0.0
C4180 C 0.65401 0.0218 0.71078 0.0
C4181 C 0.6621 0.03181 0.69503 0.0
C4182 C 0.63953 0.01893 0.71582 0.0
C4183 C 0.63283 0.02601 0.70527 0.0
C4184 C 0.64094 0.03616 0.68967 0.0
C4185 C 0.65541 0.03895 0.68448 0.0
C4186 C 0.61748 0.02291 0.71099 0.0
C4187 C 0.61579 0.03484 0.71858 0.0
C4188 C 0.60495 0.008 0.71118 0.0
C4189 C 0.60585 0.99506 0.70239 0.0
C4190 C 0.61079 0.99565 0.68237 0.0
C4191 C 0.6118 0.98353 0.67423 0.0
C4192 C 0.60781 0.9707 0.68594 0.0
C4193 C 0.60278 0.96997 0.7058 0.0
C4194 C 0.60177 0.98207 0.71401 0.0
C4195 C 0.55536 0.01703 0.75078 0.0
C4196 C 0.55206 0.00718 0.76723 0.0
C4197 C 0.56736 0.01997 0.73772 0.0
C4198 C 0.57614 0.01304 0.74097 0.0
C4199 C 0.57226 0.00263 0.7568 0.0
C4200 C 0.56039 0.99974 0.76975 0.0
C4201 C 0.58994 0.01704 0.72893 0.0
C4202 C 0.59136 0.00527 0.72013 0.0
C4203 C 0.60225 0.03207 0.7278 0.0
C4204 C 0.6018 0.04495 0.73747 0.0
C4205 C 0.59979 0.04522 0.75852 0.0
C4206 C 0.5993 0.05739 0.7675 0.0
C4207 C 0.60094 0.06941 0.7556 0.0
C4208 C 0.60313 0.06931 0.7347 0.0
C4209 C 0.60361 0.05716 0.72565 0.0
H4210 H 0.60056 0.07882 0.76258 0.0
H4211 H 0.6086 0.96133 0.67962 0.0
loop_
_geom_bond_atom_site_label_1
_geom_bond_atom_site_label_2
_geom_bond_distance
_geom_bond_site_symmetry_2
_ccdc_geom_bond_type
In0 O1 2.294 1_455 S
In0 O2 2.326 . S
In0 O6 2.266 1_455 S
In0 O7 2.326 1_454 S
In0 O8 2.266 1_554 S
In0 O9 2.326 1_454 S
In0 O11 2.294 . S
In0 O12 2.326 . S
O1 In0 2.294 1_655 S
O1 C10 1.240 1_655 S
O2 In0 2.326 . S
O2 C10 1.252 . S
C3 O6 1.252 1_556 S
C3 O7 1.260 . S
C4 O11 1.240 . S
C4 O12 1.252 . S
C5 O8 1.252 . S
C5 O9 1.260 1_455 S
O6 In0 2.266 1_655 S
O6 C3 1.252 1_554 S
O7 In0 2.326 1_656 S
O7 C3 1.260 . S
O8 In0 2.266 1_556 S
O8 C5 1.252 . S
O9 In0 2.326 1_656 S
O9 C5 1.260 1_655 S
C10 O1 1.240 1_455 S
C10 O2 1.252 . S
O11 In0 2.294 . S
O11 C4 1.240 . S
O12 In0 2.326 . S
O12 C4 1.252 . S
In13 O14 2.294 . S
In13 O15 2.326 . S
In13 O19 2.266 . S
In13 O20 2.326 1_554 S
In13 O21 2.266 1_554 S
In13 O22 2.326 1_554 S
In13 O24 2.294 . S
In13 O25 2.326 . S
O14 In13 2.294 . S
O14 C23 1.240 . S
O15 In13 2.326 . S
O15 C23 1.252 . S
C16 O19 1.252 1_556 S
C16 O20 1.260 . S
C17 O24 1.240 . S
C17 O25 1.252 . S
C18 O21 1.252 . S
C18 O22 1.260 . S
O19 In13 2.266 . S
O19 C16 1.252 1_554 S
O20 In13 2.326 1_556 S
O20 C16 1.260 . S
O21 In13 2.266 1_556 S
O21 C18 1.252 . S
O22 In13 2.326 1_556 S
O22 C18 1.260 . S
C23 O14 1.240 . S
C23 O15 1.252 . S
O24 In13 2.294 . S
O24 C17 1.240 . S
O25 In13 2.326 . S
O25 C17 1.252 . S
In26 O27 2.294 . S
In26 O28 2.326 1_554 S
In26 O32 2.266 . S
In26 O33 2.326 1_545 S
In26 O34 2.266 1_545 S
In26 O35 2.333 1_545 S
In26 O37 2.294 1_544 S
In26 O38 2.326 1_554 S
O27 In26 2.294 . S
O27 C36 1.240 1_554 S
O28 In26 2.326 1_556 S
O28 C36 1.252 . S
C29 O32 1.252 . S
C29 O33 1.260 1_545 S
C30 O37 1.240 1_545 S
C30 O38 1.252 . S
C31 O34 1.252 . S
C31 O35 1.325 . S
O32 In26 2.266 . S
O32 C29 1.252 . S
O33 In26 2.326 1_565 S
O33 C29 1.260 1_565 S
O34 In26 2.266 1_565 S
O34 C31 1.252 . S
O35 In26 2.333 1_565 S
O35 C31 1.325 . S
C36 O27 1.240 1_556 S
C36 O28 1.252 . S
O37 In26 2.294 1_566 S
O37 C30 1.240 1_565 S
O38 In26 2.326 1_556 S
O38 C30 1.252 . S
In39 O40 2.294 1_554 S
In39 O41 2.326 1_454 S
In39 O45 2.266 . S
In39 O46 2.326 . S
In39 O47 2.266 1_455 S
In39 O48 2.326 . S
In39 O50 2.294 1_455 S
In39 O51 2.326 1_454 S
O40 In39 2.294 1_556 S
O40 C49 1.240 . S
O41 In39 2.326 1_656 S
O41 C49 1.252 1_655 S
C42 O45 1.252 . S
C42 O46 1.260 . S
C43 O50 1.240 1_556 S
C43 O51 1.252 . S
C44 O47 1.252 1_455 S
C44 O48 1.260 . S
O45 In39 2.266 . S
O45 C42 1.252 . S
O46 In39 2.326 . S
O46 C42 1.260 . S
O47 In39 2.266 1_655 S
O47 C44 1.252 1_655 S
O48 In39 2.326 . S
O48 C44 1.260 . S
C49 O40 1.240 . S
C49 O41 1.252 1_455 S
O50 In39 2.294 1_655 S
O50 C43 1.240 1_554 S
O51 In39 2.326 1_656 S
O51 C43 1.252 . S
In52 O53 2.294 1_554 S
In52 O54 2.326 1_554 S
In52 O58 2.266 . S
In52 O59 2.326 . S
In52 O60 2.266 . S
In52 O61 2.326 . S
In52 O63 2.294 . S
In52 O64 2.326 1_554 S
O53 In52 2.294 1_556 S
O53 C62 1.240 . S
O54 In52 2.326 1_556 S
O54 C62 1.252 . S
C55 O58 1.252 . S
C55 O59 1.260 . S
C56 O63 1.240 1_556 S
C56 O64 1.252 . S
C57 O60 1.252 . S
C57 O61 1.260 . S
O58 In52 2.266 . S
O58 C55 1.252 . S
O59 In52 2.326 . S
O59 C55 1.260 . S
O60 In52 2.266 . S
O60 C57 1.252 . S
O61 In52 2.326 . S
O61 C57 1.260 . S
C62 O53 1.240 . S
C62 O54 1.252 . S
O63 In52 2.294 . S
O63 C56 1.240 1_554 S
O64 In52 2.326 1_556 S
O64 C56 1.252 . S
In65 O66 2.294 . S
In65 O67 2.326 1_545 S
In65 O71 2.266 . S
In65 O72 2.326 1_554 S
In65 O73 2.266 1_544 S
In65 O74 2.326 1_554 S
In65 O76 2.294 1_545 S
In65 O77 2.326 1_545 S
O66 In65 2.294 . S
O66 C75 1.240 . S
O67 In65 2.326 1_565 S
O67 C75 1.252 1_565 S
C68 O71 1.252 1_556 S
C68 O72 1.260 . S
C69 O76 1.240 . S
C69 O77 1.252 . S
C70 O73 1.252 1_545 S
C70 O74 1.260 . S
O71 In65 2.266 . S
O71 C68 1.252 1_554 S
O72 In65 2.326 1_556 S
O72 C68 1.260 . S
O73 In65 2.266 1_566 S
O73 C70 1.252 1_565 S
O74 In65 2.326 1_556 S
O74 C70 1.260 . S
C75 O66 1.240 . S
C75 O67 1.252 1_545 S
O76 In65 2.294 1_565 S
O76 C69 1.240 . S
O77 In65 2.326 1_565 S
O77 C69 1.252 . S
In78 O79 2.294 . S
In78 O80 2.326 . S
In78 O84 2.266 . S
In78 O85 2.326 . S
In78 O86 2.266 . S
In78 O87 2.326 . S
In78 O89 2.294 . S
In78 O90 2.326 . S
O79 In78 2.294 . S
O79 C88 1.240 . S
O80 In78 2.326 . S
O80 C88 1.252 . S
C81 O84 1.252 . S
C81 O85 1.260 . S
C82 O89 1.240 . S
C82 O90 1.252 . S
C83 O86 1.252 . S
C83 O87 1.260 . S
O84 In78 2.266 . S
O84 C81 1.252 . S
O85 In78 2.326 . S
O85 C81 1.260 . S
O86 In78 2.266 . S
O86 C83 1.252 . S
O87 In78 2.326 . S
O87 C83 1.260 . S
C88 O79 1.240 . S
C88 O80 1.252 . S
O89 In78 2.294 . S
O89 C82 1.240 . S
O90 In78 2.326 . S
O90 C82 1.252 . S
In91 O92 2.294 . S
In91 O93 2.326 . S
In91 O97 2.266 . S
In91 O98 2.326 . S
In91 O99 2.266 . S
In91 O100 2.326 . S
In91 O102 2.294 1_565 S
In91 O103 2.326 1_565 S
O92 In91 2.294 . S
O92 C101 1.240 . S
O93 In91 2.326 . S
O93 C101 1.252 . S
C94 O97 1.252 . S
C94 O98 1.260 . S
C95 O102 1.240 . S
C95 O103 1.252 . S
C96 O99 1.252 . S
C96 O100 1.260 . S
O97 In91 2.266 . S
O97 C94 1.252 . S
O98 In91 2.326 . S
O98 C94 1.260 . S
O99 In91 2.266 . S
O99 C96 1.252 . S
O100 In91 2.326 . S
O100 C96 1.260 . S
C101 O92 1.240 . S
C101 O93 1.252 . S
O102 In91 2.294 1_545 S
O102 C95 1.240 . S
O103 In91 2.326 1_545 S
O103 C95 1.252 . S
In104 O105 2.294 . S
In104 O106 2.326 . S
In104 O110 2.266 . S
In104 O111 2.326 . S
In104 O112 2.266 . S
In104 O113 2.326 . S
In104 O115 2.294 . S
In104 O116 2.326 . S
O105 In104 2.294 . S
O105 C114 1.240 . S
O106 In104 2.326 . S
O106 C114 1.252 . S
C107 O110 1.252 . S
C107 O111 1.260 . S
C108 O115 1.240 . S
C108 O116 1.252 . S
C109 O112 1.306 . S
C109 O113 1.264 . S
O110 In104 2.266 . S
O110 C107 1.252 . S
O111 In104 2.326 . S
O111 C107 1.260 . S
O112 In104 2.266 . S
O112 C109 1.306 . S
O113 In104 2.326 . S
O113 C109 1.264 . S
C114 O105 1.240 . S
C114 O106 1.252 . S
O115 In104 2.294 . S
O115 C108 1.240 . S
O116 In104 2.326 . S
O116 C108 1.252 . S
In117 O118 2.294 . S
In117 O119 2.326 . S
In117 O123 2.266 1_565 S
In117 O124 2.326 1_565 S
In117 O125 2.266 . S
In117 O126 2.326 . S
In117 O128 2.294 . S
In117 O129 2.326 . S
O118 In117 2.294 . S
O118 C127 1.240 . S
O119 In117 2.326 . S
O119 C127 1.252 . S
C120 O123 1.252 . S
C120 O124 1.260 . S
C121 O128 1.240 . S
C121 O129 1.252 . S
C122 O125 1.252 . S
C122 O126 1.260 . S
O123 In117 2.266 1_545 S
O123 C120 1.252 . S
O124 In117 2.326 1_545 S
O124 C120 1.260 . S
O125 In117 2.266 . S
O125 C122 1.252 . S
O126 In117 2.326 . S
O126 C122 1.260 . S
C127 O118 1.240 . S
C127 O119 1.252 . S
O128 In117 2.294 . S
O128 C121 1.240 . S
O129 In117 2.326 . S
O129 C121 1.252 . S
In130 O131 2.294 . S
In130 O132 2.326 . S
In130 O136 2.266 . S
In130 O137 2.326 . S
In130 O138 2.266 . S
In130 O139 2.326 . S
In130 O141 2.294 . S
In130 O142 2.326 . S
O131 In130 2.294 . S
O131 C140 1.240 . S
O132 In130 2.326 . S
O132 C140 1.252 . S
C133 O136 1.259 . S
C133 O137 1.307 . S
C134 O141 1.240 . S
C134 O142 1.252 . S
C135 O138 1.252 . S
C135 O139 1.260 . S
O136 In130 2.266 . S
O136 C133 1.259 . S
O137 In130 2.326 . S
O137 C133 1.307 . S
O138 In130 2.266 . S
O138 C135 1.252 . S
O139 In130 2.326 . S
O139 C135 1.260 . S
C140 O131 1.240 . S
C140 O132 1.252 . S
O141 In130 2.294 . S
O141 C134 1.240 . S
O142 In130 2.326 . S
O142 C134 1.252 . S
In143 O144 2.294 . S
In143 O145 2.326 . S
In143 O149 2.266 . S
In143 O150 2.326 . S
In143 O151 2.266 . S
In143 O152 2.326 . S
In143 O154 2.294 . S
In143 O155 2.326 . S
O144 In143 2.294 . S
O144 C153 1.240 . S
O145 In143 2.326 . S
O145 C153 1.252 . S
C146 O149 1.252 . S
C146 O150 1.260 . S
C147 O154 1.240 . S
C147 O155 1.252 . S
C148 O151 1.252 . S
C148 O152 1.260 . S
O149 In143 2.266 . S
O149 C146 1.252 . S
O150 In143 2.326 . S
O150 C146 1.260 . S
O151 In143 2.266 . S
O151 C148 1.252 . S
O152 In143 2.326 . S
O152 C148 1.260 . S
C153 O144 1.240 . S
C153 O145 1.252 . S
O154 In143 2.294 . S
O154 C147 1.240 . S
O155 In143 2.326 . S
O155 C147 1.252 . S
In156 O157 2.294 . S
In156 O158 2.326 . S
In156 O162 2.266 . S
In156 O163 2.326 . S
In156 O164 2.266 . S
In156 O165 2.326 . S
In156 O167 2.294 . S
In156 O168 2.326 . S
O157 In156 2.294 . S
O157 C166 1.240 . S
O158 In156 2.326 . S
O158 C166 1.252 . S
C159 O162 1.252 . S
C159 O163 1.260 . S
C160 O167 1.240 . S
C160 O168 1.252 . S
C161 O164 1.299 . S
C161 O165 1.263 . S
O162 In156 2.266 . S
O162 C159 1.252 . S
O163 In156 2.326 . S
O163 C159 1.260 . S
O164 In156 2.266 . S
O164 C161 1.299 . S
O165 In156 2.326 . S
O165 C161 1.263 . S
C166 O157 1.240 . S
C166 O158 1.252 . S
O167 In156 2.294 . S
O167 C160 1.240 . S
O168 In156 2.326 . S
O168 C160 1.252 . S
In169 O170 2.294 . S
In169 O171 2.326 . S
In169 O175 2.266 . S
In169 O176 2.326 . S
In169 O177 2.266 1_655 S
In169 O178 2.326 1_655 S
In169 O180 2.294 . S
In169 O181 2.326 . S
O170 In169 2.294 . S
O170 C179 1.240 . S
O171 In169 2.326 . S
O171 C179 1.252 . S
C172 O175 1.252 . S
C172 O176 1.260 . S
C173 O180 1.240 . S
C173 O181 1.252 . S
C174 O177 1.252 . S
C174 O178 1.260 . S
O175 In169 2.266 . S
O175 C172 1.252 . S
O176 In169 2.326 . S
O176 C172 1.260 . S
O177 In169 2.266 1_455 S
O177 C174 1.252 . S
O178 In169 2.326 1_455 S
O178 C174 1.260 . S
C179 O170 1.240 . S
C179 O171 1.252 . S
O180 In169 2.294 . S
O180 C173 1.240 . S
O181 In169 2.326 . S
O181 C173 1.252 . S
In182 O183 2.294 . S
In182 O184 2.326 . S
In182 O188 2.266 . S
In182 O189 2.326 . S
In182 O190 2.266 . S
In182 O191 2.326 . S
In182 O193 2.294 . S
In182 O194 2.326 . S
O183 In182 2.294 . S
O183 C192 1.240 . S
O184 In182 2.326 . S
O184 C192 1.252 . S
C185 O188 1.252 . S
C185 O189 1.260 . S
C186 O193 1.240 . S
C186 O194 1.252 . S
C187 O190 1.252 . S
C187 O191 1.260 . S
O188 In182 2.266 . S
O188 C185 1.252 . S
O189 In182 2.326 . S
O189 C185 1.260 . S
O190 In182 2.266 . S
O190 C187 1.252 . S
O191 In182 2.326 . S
O191 C187 1.260 . S
C192 O183 1.240 . S
C192 O184 1.252 . S
O193 In182 2.294 . S
O193 C186 1.240 . S
O194 In182 2.326 . S
O194 C186 1.252 . S
In195 O196 2.294 . S
In195 O197 2.326 . S
In195 O201 2.266 . S
In195 O202 2.326 . S
In195 O203 2.266 . S
In195 O204 2.326 . S
In195 O206 2.294 . S
In195 O207 2.326 . S
O196 In195 2.294 . S
O196 C205 1.240 . S
O197 In195 2.326 . S
O197 C205 1.252 . S
C198 O201 1.252 . S
C198 O202 1.260 . S
C199 O206 1.240 . S
C199 O207 1.252 . S
C200 O203 1.252 . S
C200 O204 1.260 . S
O201 In195 2.266 . S
O201 C198 1.252 . S
O202 In195 2.326 . S
O202 C198 1.260 . S
O203 In195 2.266 . S
O203 C200 1.252 . S
O204 In195 2.326 . S
O204 C200 1.260 . S
C205 O196 1.240 . S
C205 O197 1.252 . S
O206 In195 2.294 . S
O206 C199 1.240 . S
O207 In195 2.326 . S
O207 C199 1.252 . S
In208 O209 2.294 . S
In208 O210 2.326 . S
In208 O214 2.266 . S
In208 O215 2.326 . S
In208 O216 2.266 . S
In208 O217 2.326 . S
In208 O219 2.294 . S
In208 O220 2.326 . S
O209 In208 2.294 . S
O209 C218 1.240 . S
O210 In208 2.326 . S
O210 C218 1.252 . S
C211 O214 1.252 . S
C211 O215 1.260 . S
C212 O219 1.243 . S
C212 O220 1.278 . S
C213 O216 1.252 . S
C213 O217 1.260 . S
O214 In208 2.266 . S
O214 C211 1.252 . S
O215 In208 2.326 . S
O215 C211 1.260 . S
O216 In208 2.266 . S
O216 C213 1.252 . S
O217 In208 2.326 . S
O217 C213 1.260 . S
C218 O209 1.240 . S
C218 O210 1.252 . S
O219 In208 2.294 . S
O219 C212 1.243 . S
O220 In208 2.326 . S
O220 C212 1.278 . S
In221 O222 2.294 . S
In221 O223 2.326 . S
In221 O227 2.266 . S
In221 O228 2.326 . S
In221 O229 2.266 1_655 S
In221 O230 2.326 1_655 S
In221 O232 2.294 . S
In221 O233 2.326 . S
O222 In221 2.294 . S
O222 C231 1.240 . S
O223 In221 2.326 . S
O223 C231 1.252 . S
C224 O227 1.252 . S
C224 O228 1.260 . S
C225 O232 1.240 . S
C225 O233 1.252 . S
C226 O229 1.252 . S
C226 O230 1.260 . S
O227 In221 2.266 . S
O227 C224 1.252 . S
O228 In221 2.326 . S
O228 C224 1.260 . S
O229 In221 2.266 1_455 S
O229 C226 1.252 . S
O230 In221 2.326 1_455 S
O230 C226 1.260 . S
C231 O222 1.240 . S
C231 O223 1.252 . S
O232 In221 2.294 . S
O232 C225 1.240 . S
O233 In221 2.326 . S
O233 C225 1.252 . S
H234 C242 0.930 . S
H235 C245 0.930 . S
H236 C247 0.930 . S
H237 C248 0.970 . S
H238 C248 0.970 . S
H239 C250 0.930 . S
H240 C252 0.930 . S
H241 C254 0.930 . S
C242 H234 0.930 . S
C242 C243 1.382 . S
C242 C244 1.426 . S
C243 C242 1.382 . S
C243 C247 1.389 . S
C244 C242 1.426 . S
C244 C245 1.375 . S
C244 C248 1.532 . S
C245 H235 0.930 . S
C245 C244 1.375 . S
C245 C246 1.416 . S
C246 C245 1.416 . S
C246 C247 1.371 . S
C247 H236 0.930 . S
C247 C243 1.389 . S
C247 C246 1.371 . S
C248 H237 0.970 . S
C248 H238 0.970 . S
C248 C244 1.532 . S
C248 C249 1.499 . S
C249 C248 1.499 . S
C249 C250 1.370 . S
C249 C254 1.415 . S
C250 H239 0.930 . S
C250 C249 1.370 . S
C250 C251 1.407 . S
C251 C250 1.407 . S
C251 C252 1.365 . S
C252 H240 0.930 . S
C252 C251 1.365 . S
C252 C253 1.393 . S
C253 C252 1.393 . S
C253 C254 1.387 . S
C254 H241 0.930 . S
C254 C249 1.415 . S
C254 C253 1.387 . S
H255 C263 0.930 . S
H256 C266 0.930 . S
H257 C268 0.930 . S
H258 C269 0.970 . S
H259 C269 0.970 . S
H260 C271 0.930 . S
H261 C273 0.930 . S
H262 C275 0.930 . S
C263 H255 0.930 . S
C263 C264 1.382 . S
C263 C265 1.426 . S
C264 C263 1.382 . S
C264 C268 1.389 . S
C265 C263 1.426 . S
C265 C266 1.375 . S
C265 C269 1.532 . S
C266 H256 0.930 . S
C266 C265 1.375 . S
C266 C267 1.416 . S
C267 C266 1.416 . S
C267 C268 1.371 . S
C268 H257 0.930 . S
C268 C264 1.389 . S
C268 C267 1.371 . S
C269 H258 0.970 . S
C269 H259 0.970 . S
C269 C265 1.532 . S
C269 C270 1.499 . S
C270 C269 1.499 . S
C270 C271 1.370 . S
C270 C275 1.415 . S
C271 H260 0.930 . S
C271 C270 1.370 . S
C271 C272 1.407 . S
C272 C271 1.407 . S
C272 C273 1.365 . S
C273 H261 0.930 . S
C273 C272 1.365 . S
C273 C274 1.393 . S
C274 C273 1.393 . S
C274 C275 1.387 . S
C275 H262 0.930 . S
C275 C270 1.415 . S
C275 C274 1.387 . S
H276 C284 0.930 . S
H277 C287 0.930 . S
H278 C289 0.930 . S
H279 C290 0.970 . S
H280 C290 0.970 . S
H281 C292 0.930 . S
H282 C294 0.930 . S
H283 C296 0.930 . S
C284 H276 0.930 . S
C284 C285 1.382 . S
C284 C286 1.426 . S
C285 C284 1.382 . S
C285 C289 1.389 . S
C286 C284 1.426 . S
C286 C287 1.375 . S
C286 C290 1.532 . S
C287 H277 0.930 . S
C287 C286 1.375 . S
C287 C288 1.416 . S
C288 C287 1.416 . S
C288 C289 1.371 . S
C289 H278 0.930 . S
C289 C285 1.389 . S
C289 C288 1.371 . S
C290 H279 0.970 . S
C290 H280 0.970 . S
C290 C286 1.532 . S
C290 C291 1.499 . S
C291 C290 1.499 . S
C291 C292 1.370 . S
C291 C296 1.415 . S
C292 H281 0.930 . S
C292 C291 1.370 . S
C292 C293 1.407 . S
C293 C292 1.407 . S
C293 C294 1.365 . S
C294 H282 0.930 . S
C294 C293 1.365 . S
C294 C295 1.393 . S
C295 C294 1.393 . S
C295 C296 1.387 . S
C296 H283 0.930 . S
C296 C291 1.415 . S
C296 C295 1.387 . S
H297 C305 0.930 . S
H298 C308 0.930 . S
H299 C310 0.930 . S
H300 C311 0.970 . S
H301 C311 0.970 . S
H302 C313 0.930 . S
H303 C315 0.930 . S
H304 C317 0.930 . S
C305 H297 0.930 . S
C305 C306 1.382 . S
C305 C307 1.426 . S
C306 C305 1.382 . S
C306 C310 1.389 . S
C307 C305 1.426 . S
C307 C308 1.375 . S
C307 C311 1.532 . S
C308 H298 0.930 . S
C308 C307 1.375 . S
C308 C309 1.416 . S
C309 C308 1.416 . S
C309 C310 1.371 . S
C310 H299 0.930 . S
C310 C306 1.389 . S
C310 C309 1.371 . S
C311 H300 0.970 . S
C311 H301 0.970 . S
C311 C307 1.532 . S
C311 C312 1.499 . S
C312 C311 1.499 . S
C312 C313 1.370 . S
C312 C317 1.415 . S
C313 H302 0.930 . S
C313 C312 1.370 . S
C313 C314 1.407 . S
C314 C313 1.407 . S
C314 C315 1.365 . S
C315 H303 0.930 . S
C315 C314 1.365 . S
C315 C316 1.393 . S
C316 C315 1.393 . S
C316 C317 1.387 . S
C317 H304 0.930 . S
C317 C312 1.415 . S
C317 C316 1.387 . S
H318 C326 0.930 . S
H319 C329 0.930 . S
H320 C331 0.930 . S
H321 C332 0.970 . S
H322 C332 0.970 . S
H323 C334 0.930 . S
H324 C336 0.930 . S
H325 C338 0.930 . S
C326 H318 0.930 . S
C326 C327 1.382 . S
C326 C328 1.426 . S
C327 C326 1.382 . S
C327 C331 1.389 . S
C328 C326 1.426 . S
C328 C329 1.375 . S
C328 C332 1.532 . S
C329 H319 0.930 . S
C329 C328 1.375 . S
C329 C330 1.416 . S
C330 C329 1.416 . S
C330 C331 1.371 . S
C331 H320 0.930 . S
C331 C327 1.389 . S
C331 C330 1.371 . S
C332 H321 0.970 . S
C332 H322 0.970 . S
C332 C328 1.532 . S
C332 C333 1.499 . S
C333 C332 1.499 . S
C333 C334 1.370 . S
C333 C338 1.415 . S
C334 H323 0.930 . S
C334 C333 1.370 . S
C334 C335 1.407 . S
C335 C334 1.407 . S
C335 C336 1.365 . S
C336 H324 0.930 . S
C336 C335 1.365 . S
C336 C337 1.393 . S
C337 C336 1.393 . S
C337 C338 1.387 . S
C338 H325 0.930 . S
C338 C333 1.415 . S
C338 C337 1.387 . S
H339 C347 0.930 . S
H340 C350 0.930 . S
H341 C352 0.930 . S
H342 C353 0.970 . S
H343 C353 0.970 . S
H344 C355 0.930 . S
H345 C357 0.930 . S
H346 C359 0.930 . S
C347 H339 0.930 . S
C347 C348 1.382 . S
C347 C349 1.426 . S
C348 C347 1.382 . S
C348 C352 1.389 . S
C349 C347 1.426 . S
C349 C350 1.375 . S
C349 C353 1.532 . S
C350 H340 0.930 . S
C350 C349 1.375 . S
C350 C351 1.416 . S
C351 C350 1.416 . S
C351 C352 1.371 . S
C352 H341 0.930 . S
C352 C348 1.389 . S
C352 C351 1.371 . S
C353 H342 0.970 . S
C353 H343 0.970 . S
C353 C349 1.532 . S
C353 C354 1.499 . S
C354 C353 1.499 . S
C354 C355 1.370 . S
C354 C359 1.415 . S
C355 H344 0.930 . S
C355 C354 1.370 . S
C355 C356 1.407 . S
C356 C355 1.407 . S
C356 C357 1.365 . S
C357 H345 0.930 . S
C357 C356 1.365 . S
C357 C358 1.393 . S
C358 C357 1.393 . S
C358 C359 1.387 . S
C359 H346 0.930 . S
C359 C354 1.415 . S
C359 C358 1.387 . S
H360 C368 0.930 . S
H361 C371 0.930 . S
H362 C373 0.930 . S
H363 C374 0.970 . S
H364 C374 0.970 . S
H365 C376 0.930 . S
H366 C378 0.930 . S
H367 C380 0.930 . S
C368 H360 0.930 . S
C368 C369 1.382 . S
C368 C370 1.426 . S
C369 C368 1.382 . S
C369 C373 1.389 . S
C370 C368 1.426 . S
C370 C371 1.375 . S
C370 C374 1.532 . S
C371 H361 0.930 . S
C371 C370 1.375 . S
C371 C372 1.416 . S
C372 C371 1.416 . S
C372 C373 1.371 . S
C373 H362 0.930 . S
C373 C369 1.389 . S
C373 C372 1.371 . S
C374 H363 0.970 . S
C374 H364 0.970 . S
C374 C370 1.532 . S
C374 C375 1.499 . S
C375 C374 1.499 . S
C375 C376 1.370 . S
C375 C380 1.415 . S
C376 H365 0.930 . S
C376 C375 1.370 . S
C376 C377 1.407 . S
C377 C376 1.407 . S
C377 C378 1.365 . S
C378 H366 0.930 . S
C378 C377 1.365 . S
C378 C379 1.393 . S
C379 C378 1.393 . S
C379 C380 1.387 . S
C380 H367 0.930 . S
C380 C375 1.415 . S
C380 C379 1.387 . S
H381 C389 0.930 . S
H382 C392 0.930 . S
H383 C394 0.930 . S
H384 C395 0.970 . S
H385 C395 0.970 . S
H386 C397 0.930 . S
H387 C399 0.930 . S
H388 C401 0.930 . S
C389 H381 0.930 . S
C389 C390 1.382 . S
C389 C391 1.426 . S
C390 C389 1.382 . S
C390 C394 1.389 . S
C391 C389 1.426 . S
C391 C392 1.375 . S
C391 C395 1.532 . S
C392 H382 0.930 . S
C392 C391 1.375 . S
C392 C393 1.416 . S
C393 C392 1.416 . S
C393 C394 1.371 . S
C394 H383 0.930 . S
C394 C390 1.389 . S
C394 C393 1.371 . S
C395 H384 0.970 . S
C395 H385 0.970 . S
C395 C391 1.532 . S
C395 C396 1.499 . S
C396 C395 1.499 . S
C396 C397 1.370 . S
C396 C401 1.415 . S
C397 H386 0.930 . S
C397 C396 1.370 . S
C397 C398 1.407 . S
C398 C397 1.407 . S
C398 C399 1.365 . S
C399 H387 0.930 . S
C399 C398 1.365 . S
C399 C400 1.393 . S
C400 C399 1.393 . S
C400 C401 1.387 . S
C401 H388 0.930 . S
C401 C396 1.415 . S
C401 C400 1.387 . S
H402 C410 0.930 . S
H403 C413 0.930 . S
H404 C415 0.930 . S
H405 C416 0.970 . S
H406 C416 0.970 . S
H407 C418 0.930 . S
H408 C420 0.930 . S
H409 C422 0.930 . S
C410 H402 0.930 . S
C410 C411 1.382 . S
C410 C412 1.426 . S
C411 C410 1.382 . S
C411 C415 1.389 . S
C412 C410 1.426 . S
C412 C413 1.375 . S
C412 C416 1.532 . S
C413 H403 0.930 . S
C413 C412 1.375 . S
C413 C414 1.416 . S
C414 C413 1.416 . S
C414 C415 1.371 . S
C415 H404 0.930 . S
C415 C411 1.389 . S
C415 C414 1.371 . S
C416 H405 0.970 . S
C416 H406 0.970 . S
C416 C412 1.532 . S
C416 C417 1.499 . S
C417 C416 1.499 . S
C417 C418 1.370 . S
C417 C422 1.415 . S
C418 H407 0.930 . S
C418 C417 1.370 . S
C418 C419 1.407 . S
C419 C418 1.407 . S
C419 C420 1.365 . S
C420 H408 0.930 . S
C420 C419 1.365 . S
C420 C421 1.393 . S
C421 C420 1.393 . S
C421 C422 1.387 . S
C422 H409 0.930 . S
C422 C417 1.415 . S
C422 C421 1.387 . S
H423 C431 0.930 . S
H424 C434 0.930 . S
H425 C436 0.930 . S
H426 C437 0.970 . S
H427 C437 0.970 . S
H428 C439 0.930 . S
H429 C441 0.930 . S
H430 C443 0.930 . S
C431 H423 0.930 . S
C431 C432 1.382 . S
C431 C433 1.426 . S
C432 C431 1.382 . S
C432 C436 1.389 . S
C433 C431 1.426 . S
C433 C434 1.375 . S
C433 C437 1.532 . S
C434 H424 0.930 . S
C434 C433 1.375 . S
C434 C435 1.416 . S
C435 C434 1.416 . S
C435 C436 1.371 . S
C436 H425 0.930 . S
C436 C432 1.389 . S
C436 C435 1.371 . S
C437 H426 0.970 . S
C437 H427 0.970 . S
C437 C433 1.532 . S
C437 C438 1.499 . S
C438 C437 1.499 . S
C438 C439 1.370 . S
C438 C443 1.415 . S
C439 H428 0.930 . S
C439 C438 1.370 . S
C439 C440 1.407 . S
C440 C439 1.407 . S
C440 C441 1.365 . S
C441 H429 0.930 . S
C441 C440 1.365 . S
C441 C442 1.393 . S
C442 C441 1.393 . S
C442 C443 1.387 . S
C443 H430 0.930 . S
C443 C438 1.415 . S
C443 C442 1.387 . S
H444 C452 0.930 . S
H445 C455 0.930 . S
H446 C457 0.930 . S
H447 C458 0.970 . S
H448 C458 0.970 . S
H449 C460 0.930 . S
H450 C462 0.930 . S
H451 C464 0.930 . S
C452 H444 0.930 . S
C452 C453 1.382 . S
C452 C454 1.426 . S
C453 C452 1.382 . S
C453 C457 1.389 . S
C454 C452 1.426 . S
C454 C455 1.375 . S
C454 C458 1.532 . S
C455 H445 0.930 . S
C455 C454 1.375 . S
C455 C456 1.416 . S
C456 C455 1.416 . S
C456 C457 1.371 . S
C457 H446 0.930 . S
C457 C453 1.389 . S
C457 C456 1.371 . S
C458 H447 0.970 . S
C458 H448 0.970 . S
C458 C454 1.532 . S
C458 C459 1.499 . S
C459 C458 1.499 . S
C459 C460 1.370 . S
C459 C464 1.415 . S
C460 H449 0.930 . S
C460 C459 1.370 . S
C460 C461 1.407 . S
C461 C460 1.407 . S
C461 C462 1.365 . S
C462 H450 0.930 . S
C462 C461 1.365 . S
C462 C463 1.393 . S
C463 C462 1.393 . S
C463 C464 1.387 . S
C464 H451 0.930 . S
C464 C459 1.415 . S
C464 C463 1.387 . S
H465 C473 0.930 . S
H466 C476 0.930 . S
H467 C478 0.930 . S
H468 C479 0.970 . S
H469 C479 0.970 . S
H470 C481 0.930 . S
H471 C483 0.930 . S
H472 C485 0.930 . S
C473 H465 0.930 . S
C473 C474 1.382 . S
C473 C475 1.426 . S
C474 C473 1.382 . S
C474 C478 1.389 1_565 S
C475 C473 1.426 . S
C475 C476 1.375 . S
C475 C479 1.532 . S
C476 H466 0.930 . S
C476 C475 1.375 . S
C476 C477 1.416 . S
C477 C476 1.416 . S
C477 C478 1.371 1_565 S
C478 H467 0.930 . S
C478 C474 1.389 1_545 S
C478 C477 1.371 1_545 S
C479 H468 0.970 . S
C479 H469 0.970 . S
C479 C475 1.532 . S
C479 C480 1.499 . S
C480 C479 1.499 . S
C480 C481 1.370 . S
C480 C485 1.415 . S
C481 H470 0.930 . S
C481 C480 1.370 . S
C481 C482 1.443 . S
C482 C481 1.443 . S
C482 C483 1.350 1_565 S
C483 H471 0.930 . S
C483 C482 1.350 1_545 S
C483 C484 1.393 1_545 S
C484 C483 1.393 1_565 S
C484 C485 1.387 . S
C485 H472 0.930 . S
C485 C480 1.415 . S
C485 C484 1.387 . S
H486 C494 0.960 . S
H487 C497 0.930 . S
H488 C499 0.930 . S
H489 C500 0.970 . S
H490 C500 0.970 . S
H491 C502 0.930 1_565 S
H492 C504 0.930 . S
H493 C506 0.930 1_565 S
C494 H486 0.960 . S
C494 C495 1.333 1_565 S
C494 C496 1.446 . S
C495 C494 1.333 1_545 S
C495 C499 1.389 . S
C496 C494 1.446 . S
C496 C497 1.375 1_565 S
C496 C500 1.532 . S
C497 H487 0.930 . S
C497 C496 1.375 1_545 S
C497 C498 1.416 . S
C498 C497 1.416 . S
C498 C499 1.371 . S
C499 H488 0.930 . S
C499 C495 1.389 . S
C499 C498 1.371 . S
C500 H489 0.970 . S
C500 H490 0.970 . S
C500 C496 1.532 . S
C500 C501 1.499 . S
C501 C500 1.499 . S
C501 C502 1.370 1_565 S
C501 C506 1.415 1_565 S
C502 H491 0.930 1_545 S
C502 C501 1.370 1_545 S
C502 C503 1.407 . S
C503 C502 1.407 . S
C503 C504 1.365 . S
C504 H492 0.930 . S
C504 C503 1.365 . S
C504 C505 1.393 . S
C505 C504 1.393 . S
C505 C506 1.387 . S
C506 H493 0.930 1_545 S
C506 C501 1.415 1_545 S
C506 C505 1.387 . S
H507 C515 0.930 . S
H508 C518 0.930 . S
H509 C520 0.930 . S
H510 C521 0.970 . S
H511 C521 0.970 . S
H512 C523 0.930 . S
H513 C525 0.930 . S
H514 C527 0.930 . S
C515 H507 0.930 . S
C515 C516 1.382 . S
C515 C517 1.426 . S
C516 C515 1.382 . S
C516 C520 1.389 1_455 S
C517 C515 1.426 . S
C517 C518 1.375 . S
C517 C521 1.532 . S
C518 H508 0.930 . S
C518 C517 1.375 . S
C518 C519 1.421 . S
C519 C518 1.421 . S
C519 C520 1.381 1_455 S
C520 H509 0.930 . S
C520 C516 1.389 1_655 S
C520 C519 1.381 1_655 S
C521 H510 0.970 . S
C521 H511 0.970 . S
C521 C517 1.532 . S
C521 C522 1.499 . S
C522 C521 1.499 . S
C522 C523 1.370 . S
C522 C527 1.415 . S
C523 H512 0.930 . S
C523 C522 1.370 . S
C523 C524 1.407 . S
C524 C523 1.407 . S
C524 C525 1.365 1_455 S
C525 H513 0.930 . S
C525 C524 1.365 1_655 S
C525 C526 1.393 1_655 S
C526 C525 1.393 1_455 S
C526 C527 1.387 . S
C527 H514 0.930 . S
C527 C522 1.415 . S
C527 C526 1.387 . S
H528 C536 0.930 . S
H529 C539 0.930 . S
H530 C541 0.930 . S
H531 C542 0.970 . S
H532 C542 0.970 . S
H533 C544 0.930 . S
H534 C546 0.930 . S
H535 C548 0.930 . S
C536 H528 0.930 . S
C536 C537 1.382 . S
C536 C538 1.426 . S
C537 C536 1.382 . S
C537 C541 1.389 . S
C538 C536 1.426 . S
C538 C539 1.375 . S
C538 C542 1.532 . S
C539 H529 0.930 . S
C539 C538 1.375 . S
C539 C540 1.416 . S
C540 C539 1.416 . S
C540 C541 1.371 . S
C541 H530 0.930 . S
C541 C537 1.389 . S
C541 C540 1.371 . S
C542 H531 0.970 . S
C542 H532 0.970 . S
C542 C538 1.532 . S
C542 C543 1.499 . S
C543 C542 1.499 . S
C543 C544 1.370 . S
C543 C548 1.415 . S
C544 H533 0.930 . S
C544 C543 1.370 . S
C544 C545 1.407 . S
C545 C544 1.407 . S
C545 C546 1.365 . S
C546 H534 0.930 . S
C546 C545 1.365 . S
C546 C547 1.393 . S
C547 C546 1.393 . S
C547 C548 1.387 . S
C548 H535 0.930 . S
C548 C543 1.415 . S
C548 C547 1.387 . S
H549 C557 0.930 . S
H550 C560 0.930 . S
H551 C562 0.930 . S
H552 C563 0.970 . S
H553 C563 0.970 . S
H554 C565 0.930 . S
H555 C567 0.930 . S
H556 C569 0.930 . S
C557 H549 0.930 . S
C557 C558 1.382 . S
C557 C559 1.426 . S
C558 C557 1.382 . S
C558 C562 1.389 . S
C559 C557 1.426 . S
C559 C560 1.375 . S
C559 C563 1.532 . S
C560 H550 0.930 . S
C560 C559 1.375 . S
C560 C561 1.416 . S
C561 C560 1.416 . S
C561 C562 1.371 . S
C562 H551 0.930 . S
C562 C558 1.389 . S
C562 C561 1.371 . S
C563 H552 0.970 . S
C563 H553 0.970 . S
C563 C559 1.532 . S
C563 C564 1.499 . S
C564 C563 1.499 . S
C564 C565 1.370 . S
C564 C569 1.415 . S
C565 H554 0.930 . S
C565 C564 1.370 . S
C565 C566 1.407 . S
C566 C565 1.407 . S
C566 C567 1.365 . S
C567 H555 0.930 . S
C567 C566 1.365 . S
C567 C568 1.393 . S
C568 C567 1.393 . S
C568 C569 1.387 . S
C569 H556 0.930 . S
C569 C564 1.415 . S
C569 C568 1.387 . S
H570 C578 0.930 . S
H571 C581 0.930 . S
H572 C583 0.930 . S
H573 C584 0.970 . S
H574 C584 0.970 . S
H575 C586 0.930 . S
H576 C588 0.930 . S
H577 C590 0.930 . S
C578 H570 0.930 . S
C578 C579 1.382 . S
C578 C580 1.426 . S
C579 C578 1.382 . S
C579 C583 1.389 . S
C580 C578 1.426 . S
C580 C581 1.375 . S
C580 C584 1.532 . S
C581 H571 0.930 . S
C581 C580 1.375 . S
C581 C582 1.416 . S
C582 C581 1.416 . S
C582 C583 1.371 . S
C583 H572 0.930 . S
C583 C579 1.389 . S
C583 C582 1.371 . S
C584 H573 0.970 . S
C584 H574 0.970 . S
C584 C580 1.532 . S
C584 C585 1.499 . S
C585 C584 1.499 . S
C585 C586 1.370 . S
C585 C590 1.415 . S
C586 H575 0.930 . S
C586 C585 1.370 . S
C586 C587 1.407 . S
C587 C586 1.407 . S
C587 C588 1.365 . S
C588 H576 0.930 . S
C588 C587 1.365 . S
C588 C589 1.393 . S
C589 C588 1.393 . S
C589 C590 1.387 . S
C590 H577 0.930 . S
C590 C585 1.415 . S
C590 C589 1.387 . S
H591 C599 0.930 . S
H592 C602 0.930 . S
H593 C604 0.930 . S
H594 C605 0.970 . S
H595 C605 0.970 . S
H596 C607 0.930 . S
H597 C609 0.930 . S
H598 C611 0.930 . S
C599 H591 0.930 . S
C599 C600 1.382 . S
C599 C601 1.426 . S
C600 C599 1.382 . S
C600 C604 1.389 . S
C601 C599 1.426 . S
C601 C602 1.375 . S
C601 C605 1.532 . S
C602 H592 0.930 . S
C602 C601 1.375 . S
C602 C603 1.416 . S
C603 C602 1.416 . S
C603 C604 1.371 . S
C604 H593 0.930 . S
C604 C600 1.389 . S
C604 C603 1.371 . S
C605 H594 0.970 . S
C605 H595 0.970 . S
C605 C601 1.532 . S
C605 C606 1.499 . S
C606 C605 1.499 . S
C606 C607 1.370 . S
C606 C611 1.415 . S
C607 H596 0.930 . S
C607 C606 1.370 . S
C607 C608 1.407 . S
C608 C607 1.407 . S
C608 C609 1.365 . S
C609 H597 0.930 . S
C609 C608 1.365 . S
C609 C610 1.393 . S
C610 C609 1.393 . S
C610 C611 1.387 . S
C611 H598 0.930 . S
C611 C606 1.415 . S
C611 C610 1.387 . S
H612 C630 0.951 . S
H613 C632 0.951 . S
H614 C634 0.950 . S
H615 C635 0.950 . S
H616 C637 0.950 . S
H617 C640 0.950 . S
H618 C641 0.950 . S
H619 C643 0.950 . S
H620 C644 0.950 . S
H621 C645 0.993 . S
H622 C647 0.966 . S
H623 C649 0.950 . S
H624 C650 0.950 . S
H625 C652 0.950 . S
H626 C655 0.950 . S
H627 C656 0.950 . S
H628 C658 0.950 1_655 S
H629 C659 0.950 1_655 S
C630 H612 0.951 . S
C630 C631 1.366 . S
C630 C632 1.388 . S
C631 C630 1.366 . S
C631 C635 1.385 1_455 S
C632 H613 0.951 . S
C632 C630 1.388 . S
C632 C633 1.366 . S
C633 C632 1.366 . S
C633 C634 1.414 1_455 S
C633 C636 1.499 . S
C634 H614 0.950 . S
C634 C633 1.414 1_655 S
C634 C635 1.374 . S
C635 H615 0.950 . S
C635 C631 1.385 1_655 S
C635 C634 1.374 . S
C636 C633 1.499 . S
C636 C637 1.373 . S
C636 C638 1.389 . S
C637 H616 0.950 . S
C637 C636 1.373 . S
C637 C653 1.377 . S
C638 C636 1.389 . S
C638 C639 1.524 . S
C638 C652 1.377 . S
C639 C638 1.524 . S
C639 C640 1.397 1_455 S
C639 C644 1.363 . S
C640 H617 0.950 . S
C640 C639 1.397 1_655 S
C640 C641 1.334 . S
C641 H618 0.950 . S
C641 C640 1.334 . S
C641 C642 1.311 . S
C642 C641 1.311 . S
C642 C643 1.507 1_655 S
C642 H661 0.902 . S
C643 H619 0.950 . S
C643 C642 1.507 1_455 S
C643 C644 1.415 . S
C644 H620 0.950 . S
C644 C639 1.363 . S
C644 C643 1.415 . S
C645 H621 0.993 . S
C645 C646 1.342 1_655 S
C645 C647 1.381 . S
C646 C645 1.342 1_455 S
C646 C650 1.385 . S
C647 H622 0.966 . S
C647 C645 1.381 . S
C647 C648 1.340 1_655 S
C648 C647 1.340 1_455 S
C648 C649 1.414 . S
C648 C651 1.499 . S
C649 H623 0.950 . S
C649 C648 1.414 . S
C649 C650 1.374 . S
C650 H624 0.950 . S
C650 C646 1.385 . S
C650 C649 1.374 . S
C651 C648 1.499 . S
C651 C652 1.373 . S
C651 C653 1.389 . S
C652 H625 0.950 . S
C652 C638 1.377 . S
C652 C651 1.373 . S
C653 C637 1.377 . S
C653 C651 1.389 . S
C653 C654 1.524 . S
C654 C653 1.524 . S
C654 C655 1.397 . S
C654 C659 1.363 . S
C655 H626 0.950 . S
C655 C654 1.397 . S
C655 C656 1.334 . S
C656 H627 0.950 . S
C656 C655 1.334 . S
C656 C657 1.287 . S
C657 C656 1.287 . S
C657 C658 1.524 . S
C657 H660 0.999 . S
C658 H628 0.950 1_455 S
C658 C657 1.524 . S
C658 C659 1.415 . S
C659 H629 0.950 1_455 S
C659 C654 1.363 . S
C659 C658 1.415 . S
H660 C657 0.999 . S
H661 C642 0.902 . S
H662 C680 0.951 . S
H663 C682 0.951 . S
H664 C684 0.950 . S
H665 C685 0.950 . S
H666 C687 0.950 . S
H667 C690 0.950 . S
H668 C691 0.950 . S
H669 C693 0.950 . S
H670 C694 0.950 . S
H671 C695 0.951 . S
H672 C697 0.951 . S
H673 C699 0.950 . S
H674 C700 0.950 . S
H675 C702 0.950 . S
H676 C705 0.950 . S
H677 C706 0.950 . S
H678 C708 0.950 . S
H679 C709 0.950 . S
C680 H662 0.951 . S
C680 C681 1.366 . S
C680 C682 1.388 . S
C681 C680 1.366 . S
C681 C685 1.385 . S
C682 H663 0.951 . S
C682 C680 1.388 . S
C682 C683 1.366 . S
C683 C682 1.366 . S
C683 C684 1.414 . S
C683 C686 1.499 . S
C684 H664 0.950 . S
C684 C683 1.414 . S
C684 C685 1.374 . S
C685 H665 0.950 . S
C685 C681 1.385 . S
C685 C684 1.374 . S
C686 C683 1.499 . S
C686 C687 1.373 . S
C686 C688 1.389 . S
C687 H666 0.950 . S
C687 C686 1.373 . S
C687 C703 1.377 . S
C688 C686 1.389 . S
C688 C689 1.524 . S
C688 C702 1.377 . S
C689 C688 1.524 . S
C689 C690 1.397 . S
C689 C694 1.363 . S
C690 H667 0.950 . S
C690 C689 1.397 . S
C690 C691 1.334 . S
C691 H668 0.950 . S
C691 C690 1.334 . S
C691 C692 1.287 . S
C692 C691 1.287 . S
C692 C693 1.524 . S
C692 H711 0.913 . S
C693 H669 0.950 . S
C693 C692 1.524 . S
C693 C694 1.415 . S
C694 H670 0.950 . S
C694 C689 1.363 . S
C694 C693 1.415 . S
C695 H671 0.951 . S
C695 C696 1.366 . S
C695 C697 1.388 . S
C696 C695 1.366 . S
C696 C700 1.385 . S
C697 H672 0.951 . S
C697 C695 1.388 . S
C697 C698 1.366 . S
C698 C697 1.366 . S
C698 C699 1.414 . S
C698 C701 1.499 . S
C699 H673 0.950 . S
C699 C698 1.414 . S
C699 C700 1.374 . S
C700 H674 0.950 . S
C700 C696 1.385 . S
C700 C699 1.374 . S
C701 C698 1.499 . S
C701 C702 1.373 . S
C701 C703 1.389 . S
C702 H675 0.950 . S
C702 C688 1.377 . S
C702 C701 1.373 . S
C703 C687 1.377 . S
C703 C701 1.389 . S
C703 C704 1.524 . S
C704 C703 1.524 . S
C704 C705 1.397 . S
C704 C709 1.363 . S
C705 H676 0.950 . S
C705 C704 1.397 . S
C705 C706 1.334 . S
C706 H677 0.950 . S
C706 C705 1.334 . S
C706 C707 1.287 . S
C707 C706 1.287 . S
C707 C708 1.524 . S
C707 H710 0.999 . S
C708 H678 0.950 . S
C708 C707 1.524 . S
C708 C709 1.415 . S
C709 H679 0.950 . S
C709 C704 1.363 . S
C709 C708 1.415 . S
H710 C707 0.999 . S
H711 C692 0.913 . S
H712 C730 0.951 . S
H713 C732 0.951 . S
H714 C734 0.950 . S
H715 C735 0.950 . S
H716 C737 0.950 . S
H717 C740 0.950 . S
H718 C741 0.950 . S
H719 C743 0.950 . S
H720 C744 0.950 . S
H721 C745 0.951 . S
H722 C747 0.951 . S
H723 C749 0.950 . S
H724 C750 0.950 . S
H725 C752 0.950 . S
H726 C755 0.950 . S
H727 C756 0.950 . S
H728 C758 0.950 . S
H729 C759 0.950 . S
C730 H712 0.951 . S
C730 C731 1.366 1_565 S
C730 C732 1.388 . S
C731 C730 1.366 1_545 S
C731 C735 1.385 . S
C732 H713 0.951 . S
C732 C730 1.388 . S
C732 C733 1.366 1_565 S
C733 C732 1.366 1_545 S
C733 C734 1.414 . S
C733 C736 1.499 . S
C734 H714 0.950 . S
C734 C733 1.414 . S
C734 C735 1.374 . S
C735 H715 0.950 . S
C735 C731 1.385 . S
C735 C734 1.374 . S
C736 C733 1.499 . S
C736 C737 1.373 . S
C736 C738 1.389 1_545 S
C737 H716 0.950 . S
C737 C736 1.373 . S
C737 C753 1.377 . S
C738 C736 1.389 1_565 S
C738 C739 1.524 . S
C738 C752 1.377 . S
C739 C738 1.524 . S
C739 C740 1.397 . S
C739 C744 1.363 . S
C740 H717 0.950 . S
C740 C739 1.397 . S
C740 C741 1.334 . S
C741 H718 0.950 . S
C741 C740 1.334 . S
C741 C742 1.287 . S
C742 C741 1.287 . S
C742 C743 1.524 . S
C742 H761 0.913 . S
C743 H719 0.950 . S
C743 C742 1.524 . S
C743 C744 1.415 . S
C744 H720 0.950 . S
C744 C739 1.363 . S
C744 C743 1.415 . S
C745 H721 0.951 . S
C745 C746 1.366 . S
C745 C747 1.388 . S
C746 C745 1.366 . S
C746 C750 1.385 1_545 S
C747 H722 0.951 . S
C747 C745 1.388 . S
C747 C748 1.366 . S
C748 C747 1.366 . S
C748 C749 1.414 1_545 S
C748 C751 1.499 . S
C749 H723 0.950 . S
C749 C748 1.414 1_565 S
C749 C750 1.374 . S
C750 H724 0.950 . S
C750 C746 1.385 1_565 S
C750 C749 1.374 . S
C751 C748 1.499 . S
C751 C752 1.373 1_545 S
C751 C753 1.389 . S
C752 H725 0.950 . S
C752 C738 1.377 . S
C752 C751 1.373 1_565 S
C753 C737 1.377 . S
C753 C751 1.389 . S
C753 C754 1.524 . S
C754 C753 1.524 . S
C754 C755 1.397 . S
C754 C759 1.363 . S
C755 H726 0.950 . S
C755 C754 1.397 . S
C755 C756 1.334 . S
C756 H727 0.950 . S
C756 C755 1.334 . S
C756 C757 1.287 . S
C757 C756 1.287 . S
C757 C758 1.524 . S
C757 H760 0.999 . S
C758 H728 0.950 . S
C758 C757 1.524 . S
C758 C759 1.415 . S
C759 H729 0.950 . S
C759 C754 1.363 . S
C759 C758 1.415 . S
H760 C757 0.999 . S
H761 C742 0.913 . S
H762 C780 0.951 . S
H763 C782 0.951 . S
H764 C784 0.950 . S
H765 C785 0.950 . S
H766 C787 0.950 1_565 S
H767 C790 0.952 . S
H768 C791 0.950 . S
H769 C793 0.950 . S
H770 C794 0.950 . S
H771 C795 0.951 . S
H772 C797 0.951 . S
H773 C799 0.950 . S
H774 C800 0.950 . S
H775 C802 0.950 . S
H776 C805 0.950 . S
H777 C806 0.950 . S
H778 C808 0.950 . S
H779 C809 0.950 . S
C780 H762 0.951 . S
C780 C781 1.366 . S
C780 C782 1.388 . S
C781 C780 1.366 . S
C781 C785 1.385 1_545 S
C782 H763 0.951 . S
C782 C780 1.388 . S
C782 C783 1.366 . S
C783 C782 1.366 . S
C783 C784 1.414 1_545 S
C783 C786 1.499 . S
C784 H764 0.950 . S
C784 C783 1.414 1_565 S
C784 C785 1.374 . S
C785 H765 0.950 . S
C785 C781 1.385 1_565 S
C785 C784 1.374 . S
C786 C783 1.499 . S
C786 C787 1.373 . S
C786 C788 1.389 . S
C787 H766 0.950 1_545 S
C787 C786 1.373 . S
C787 C803 1.377 . S
C788 C786 1.389 . S
C788 C789 1.524 . S
C788 C802 1.377 . S
C789 C788 1.524 . S
C789 C790 1.397 . S
C789 C794 1.363 . S
C790 H767 0.952 . S
C790 C789 1.397 . S
C790 C791 1.334 . S
C791 H768 0.950 . S
C791 C790 1.334 . S
C791 C792 1.287 . S
C792 C791 1.287 . S
C792 C793 1.524 . S
C792 H811 0.913 . S
C793 H769 0.950 . S
C793 C792 1.524 . S
C793 C794 1.415 . S
C794 H770 0.950 . S
C794 C789 1.363 . S
C794 C793 1.415 . S
C795 H771 0.951 . S
C795 C796 1.366 1_565 S
C795 C797 1.388 . S
C796 C795 1.366 1_545 S
C796 C800 1.385 . S
C797 H772 0.951 . S
C797 C795 1.388 . S
C797 C798 1.366 1_565 S
C798 C797 1.366 1_545 S
C798 C799 1.414 . S
C798 C801 1.499 . S
C799 H773 0.950 . S
C799 C798 1.414 . S
C799 C800 1.374 . S
C800 H774 0.950 . S
C800 C796 1.385 . S
C800 C799 1.374 . S
C801 C798 1.499 . S
C801 C802 1.373 . S
C801 C803 1.389 . S
C802 H775 0.950 . S
C802 C788 1.377 . S
C802 C801 1.373 . S
C803 C787 1.377 . S
C803 C801 1.389 . S
C803 C804 1.524 1_545 S
C804 C803 1.524 1_565 S
C804 C805 1.397 1_565 S
C804 C809 1.363 . S
C805 H776 0.950 . S
C805 C804 1.397 1_545 S
C805 C806 1.334 . S
C806 H777 0.950 . S
C806 C805 1.334 . S
C806 C807 1.287 1_545 S
C807 C806 1.287 1_565 S
C807 C808 1.524 . S
C807 H810 0.999 . S
C808 H778 0.950 . S
C808 C807 1.524 . S
C808 C809 1.415 . S
C809 H779 0.950 . S
C809 C804 1.363 . S
C809 C808 1.415 . S
H810 C807 0.999 . S
H811 C792 0.913 . S
H812 C830 0.951 . S
H813 C832 0.951 . S
H814 C834 0.939 1_655 S
H815 C835 0.949 1_655 S
H816 C837 0.950 . S
H817 C840 0.950 . S
H818 C841 0.950 . S
H819 C843 0.950 . S
H820 C844 0.950 . S
H821 C845 0.923 1_655 S
H822 C847 0.946 1_655 S
H823 C849 0.950 . S
H824 C850 0.950 . S
H825 C852 0.950 . S
H826 C855 0.950 . S
H827 C856 0.950 . S
H828 C858 0.950 . S
H829 C859 0.950 . S
C830 H812 0.951 . S
C830 C831 1.366 . S
C830 C832 1.388 . S
C831 C830 1.366 . S
C831 C835 1.385 . S
C832 H813 0.951 . S
C832 C830 1.388 . S
C832 C833 1.366 . S
C833 C832 1.366 . S
C833 C834 1.414 . S
C833 C836 1.499 . S
C834 H814 0.939 1_455 S
C834 C833 1.414 . S
C834 C835 1.374 . S
C835 H815 0.949 1_455 S
C835 C831 1.385 . S
C835 C834 1.374 . S
C836 C833 1.499 . S
C836 C837 1.373 1_455 S
C836 C838 1.389 . S
C837 H816 0.950 . S
C837 C836 1.373 1_655 S
C837 C853 1.377 . S
C838 C836 1.389 . S
C838 C839 1.524 . S
C838 C852 1.377 . S
C839 C838 1.524 . S
C839 C840 1.397 . S
C839 C844 1.363 . S
C840 H817 0.950 . S
C840 C839 1.397 . S
C840 C841 1.334 . S
C841 H818 0.950 . S
C841 C840 1.334 . S
C841 C842 1.287 . S
C842 C841 1.287 . S
C842 C843 1.524 . S
C842 H861 0.913 . S
C843 H819 0.950 . S
C843 C842 1.524 . S
C843 C844 1.415 . S
C844 H820 0.950 . S
C844 C839 1.363 . S
C844 C843 1.415 . S
C845 H821 0.923 1_455 S
C845 C846 1.378 . S
C845 C847 1.397 . S
C846 C845 1.378 . S
C846 C850 1.385 . S
C847 H822 0.946 1_455 S
C847 C845 1.397 . S
C847 C848 1.379 . S
C848 C847 1.379 . S
C848 C849 1.414 . S
C848 C851 1.499 . S
C849 H823 0.950 . S
C849 C848 1.414 . S
C849 C850 1.374 . S
C850 H824 0.950 . S
C850 C846 1.385 . S
C850 C849 1.374 . S
C851 C848 1.499 . S
C851 C852 1.373 . S
C851 C853 1.389 1_455 S
C852 H825 0.950 . S
C852 C838 1.377 . S
C852 C851 1.373 . S
C853 C837 1.377 . S
C853 C851 1.389 1_655 S
C853 C854 1.524 . S
C854 C853 1.524 . S
C854 C855 1.397 . S
C854 C859 1.363 . S
C855 H826 0.950 . S
C855 C854 1.397 . S
C855 C856 1.334 . S
C856 H827 0.950 . S
C856 C855 1.334 . S
C856 C857 1.287 . S
C857 C856 1.287 . S
C857 C858 1.524 . S
C857 H860 0.999 . S
C858 H828 0.950 . S
C858 C857 1.524 . S
C858 C859 1.415 . S
C859 H829 0.950 . S
C859 C854 1.363 . S
C859 C858 1.415 . S
H860 C857 0.999 . S
H861 C842 0.913 . S
H862 C880 0.951 . S
H863 C882 0.951 . S
H864 C884 0.950 . S
H865 C885 0.950 . S
H866 C887 0.950 . S
H867 C890 0.950 . S
H868 C891 0.950 . S
H869 C893 0.950 . S
H870 C894 0.950 . S
H871 C895 0.951 . S
H872 C897 0.951 . S
H873 C899 0.950 . S
H874 C900 0.950 . S
H875 C902 0.950 . S
H876 C905 0.950 . S
H877 C906 0.950 . S
H878 C908 0.950 . S
H879 C909 0.950 . S
C880 H862 0.951 . S
C880 C881 1.366 . S
C880 C882 1.388 . S
C881 C880 1.366 . S
C881 C885 1.385 . S
C882 H863 0.951 . S
C882 C880 1.388 . S
C882 C883 1.366 . S
C883 C882 1.366 . S
C883 C884 1.414 . S
C883 C886 1.499 . S
C884 H864 0.950 . S
C884 C883 1.414 . S
C884 C885 1.374 . S
C885 H865 0.950 . S
C885 C881 1.385 . S
C885 C884 1.374 . S
C886 C883 1.499 . S
C886 C887 1.373 . S
C886 C888 1.389 . S
C887 H866 0.950 . S
C887 C886 1.373 . S
C887 C903 1.377 . S
C888 C886 1.389 . S
C888 C889 1.524 . S
C888 C902 1.377 . S
C889 C888 1.524 . S
C889 C890 1.397 . S
C889 C894 1.363 . S
C890 H867 0.950 . S
C890 C889 1.397 . S
C890 C891 1.334 . S
C891 H868 0.950 . S
C891 C890 1.334 . S
C891 C892 1.287 . S
C892 C891 1.287 . S
C892 C893 1.524 . S
C892 H911 0.913 . S
C893 H869 0.950 . S
C893 C892 1.524 . S
C893 C894 1.415 . S
C894 H870 0.950 . S
C894 C889 1.363 . S
C894 C893 1.415 . S
C895 H871 0.951 . S
C895 C896 1.366 . S
C895 C897 1.388 . S
C896 C895 1.366 . S
C896 C900 1.385 . S
C897 H872 0.951 . S
C897 C895 1.388 . S
C897 C898 1.366 . S
C898 C897 1.366 . S
C898 C899 1.414 . S
C898 C901 1.499 . S
C899 H873 0.950 . S
C899 C898 1.414 . S
C899 C900 1.374 . S
C900 H874 0.950 . S
C900 C896 1.385 . S
C900 C899 1.374 . S
C901 C898 1.499 . S
C901 C902 1.373 . S
C901 C903 1.389 . S
C902 H875 0.950 . S
C902 C888 1.377 . S
C902 C901 1.373 . S
C903 C887 1.377 . S
C903 C901 1.389 . S
C903 C904 1.524 . S
C904 C903 1.524 . S
C904 C905 1.397 . S
C904 C909 1.363 . S
C905 H876 0.950 . S
C905 C904 1.397 . S
C905 C906 1.334 . S
C906 H877 0.950 . S
C906 C905 1.334 . S
C906 C907 1.287 . S
C907 C906 1.287 . S
C907 C908 1.524 . S
C907 H910 0.999 . S
C908 H878 0.950 . S
C908 C907 1.524 . S
C908 C909 1.415 . S
C909 H879 0.950 . S
C909 C904 1.363 . S
C909 C908 1.415 . S
H910 C907 0.999 . S
H911 C892 0.913 . S
H912 C930 0.951 . S
H913 C932 0.951 . S
H914 C934 0.950 . S
H915 C935 0.950 . S
H916 C937 0.950 . S
H917 C940 0.939 1_655 S
H918 C941 0.950 1_655 S
H919 C943 0.950 . S
H920 C944 0.950 . S
H921 C945 0.951 . S
H922 C947 0.951 . S
H923 C949 0.950 . S
H924 C950 0.950 . S
H925 C952 0.950 . S
H926 C955 0.950 . S
H927 C956 0.950 . S
H928 C958 0.950 . S
H929 C959 0.950 . S
C930 H912 0.951 . S
C930 C931 1.366 . S
C930 C932 1.388 . S
C931 C930 1.366 . S
C931 C935 1.385 1_455 S
C932 H913 0.951 . S
C932 C930 1.388 . S
C932 C933 1.366 . S
C933 C932 1.366 . S
C933 C934 1.414 1_455 S
C933 C936 1.499 . S
C934 H914 0.950 . S
C934 C933 1.414 1_655 S
C934 C935 1.374 . S
C935 H915 0.950 . S
C935 C931 1.385 1_655 S
C935 C934 1.374 . S
C936 C933 1.499 . S
C936 C937 1.373 1_455 S
C936 C938 1.389 . S
C937 H916 0.950 . S
C937 C936 1.373 1_655 S
C937 C953 1.377 . S
C938 C936 1.389 . S
C938 C939 1.524 . S
C938 C952 1.377 . S
C939 C938 1.524 . S
C939 C940 1.412 . S
C939 C944 1.363 . S
C940 H917 0.939 1_455 S
C940 C939 1.412 . S
C940 C941 1.329 . S
C941 H918 0.950 1_455 S
C941 C940 1.329 . S
C941 C942 1.287 . S
C942 C941 1.287 . S
C942 C943 1.524 . S
C942 H961 0.913 . S
C943 H919 0.950 . S
C943 C942 1.524 . S
C943 C944 1.415 . S
C944 H920 0.950 . S
C944 C939 1.363 . S
C944 C943 1.415 . S
C945 H921 0.951 . S
C945 C946 1.323 1_655 S
C945 C947 1.388 . S
C946 C945 1.323 1_455 S
C946 C950 1.410 . S
C947 H922 0.951 . S
C947 C945 1.388 . S
C947 C948 1.366 1_655 S
C948 C947 1.366 1_455 S
C948 C949 1.414 . S
C948 C951 1.499 . S
C949 H923 0.950 . S
C949 C948 1.414 . S
C949 C950 1.374 . S
C950 H924 0.950 . S
C950 C946 1.410 . S
C950 C949 1.374 . S
C951 C948 1.499 . S
C951 C952 1.373 . S
C951 C953 1.389 1_455 S
C952 H925 0.950 . S
C952 C938 1.377 . S
C952 C951 1.373 . S
C953 C937 1.377 . S
C953 C951 1.389 1_655 S
C953 C954 1.524 . S
C954 C953 1.524 . S
C954 C955 1.397 1_655 S
C954 C959 1.363 . S
C955 H926 0.950 . S
C955 C954 1.397 1_455 S
C955 C956 1.334 . S
C956 H927 0.950 . S
C956 C955 1.334 . S
C956 C957 1.287 1_455 S
C957 C956 1.287 1_655 S
C957 C958 1.524 . S
C957 H960 0.999 . S
C958 H928 0.950 . S
C958 C957 1.524 . S
C958 C959 1.415 . S
C959 H929 0.950 . S
C959 C954 1.363 . S
C959 C958 1.415 . S
H960 C957 0.999 . S
H961 C942 0.913 . S
H962 C980 0.951 . S
H963 C982 0.951 . S
H964 C984 0.950 . S
H965 C985 0.950 . S
H966 C987 0.950 . S
H967 C990 0.950 . S
H968 C991 0.950 . S
H969 C993 0.950 . S
H970 C994 0.950 . S
H971 C995 0.951 . S
H972 C997 0.951 . S
H973 C999 0.950 . S
H974 C1000 0.950 . S
H975 C1002 0.950 . S
H976 C1005 0.950 . S
H977 C1006 0.950 . S
H978 C1008 0.950 . S
H979 C1009 0.950 . S
C980 H962 0.951 . S
C980 C981 1.366 . S
C980 C982 1.388 . S
C981 C980 1.366 . S
C981 C985 1.385 . S
C982 H963 0.951 . S
C982 C980 1.388 . S
C982 C983 1.366 . S
C983 C982 1.366 . S
C983 C984 1.414 . S
C983 C986 1.499 . S
C984 H964 0.950 . S
C984 C983 1.414 . S
C984 C985 1.374 . S
C985 H965 0.950 . S
C985 C981 1.385 . S
C985 C984 1.374 . S
C986 C983 1.499 . S
C986 C987 1.373 . S
C986 C988 1.389 . S
C987 H966 0.950 . S
C987 C986 1.373 . S
C987 C1003 1.377 . S
C988 C986 1.389 . S
C988 C989 1.524 . S
C988 C1002 1.377 . S
C989 C988 1.524 . S
C989 C990 1.397 . S
C989 C994 1.363 . S
C990 H967 0.950 . S
C990 C989 1.397 . S
C990 C991 1.334 . S
C991 H968 0.950 . S
C991 C990 1.334 . S
C991 C992 1.287 . S
C992 C991 1.287 . S
C992 C993 1.524 . S
C992 H1011 0.913 . S
C993 H969 0.950 . S
C993 C992 1.524 . S
C993 C994 1.415 . S
C994 H970 0.950 . S
C994 C989 1.363 . S
C994 C993 1.415 . S
C995 H971 0.951 . S
C995 C996 1.366 . S
C995 C997 1.388 . S
C996 C995 1.366 . S
C996 C1000 1.385 . S
C997 H972 0.951 . S
C997 C995 1.388 . S
C997 C998 1.366 . S
C998 C997 1.366 . S
C998 C999 1.414 . S
C998 C1001 1.499 . S
C999 H973 0.950 . S
C999 C998 1.414 . S
C999 C1000 1.374 . S
C1000 H974 0.950 . S
C1000 C996 1.385 . S
C1000 C999 1.374 . S
C1001 C998 1.499 . S
C1001 C1002 1.373 . S
C1001 C1003 1.389 . S
C1002 H975 0.950 . S
C1002 C988 1.377 . S
C1002 C1001 1.373 . S
C1003 C987 1.377 . S
C1003 C1001 1.389 . S
C1003 C1004 1.524 . S
C1004 C1003 1.524 . S
C1004 C1005 1.397 . S
C1004 C1009 1.363 . S
C1005 H976 0.950 . S
C1005 C1004 1.397 . S
C1005 C1006 1.334 . S
C1006 H977 0.950 . S
C1006 C1005 1.334 . S
C1006 C1007 1.287 . S
C1007 C1006 1.287 . S
C1007 C1008 1.524 . S
C1007 H1010 0.999 . S
C1008 H978 0.950 . S
C1008 C1007 1.524 . S
C1008 C1009 1.415 . S
C1009 H979 0.950 . S
C1009 C1004 1.363 . S
C1009 C1008 1.415 . S
H1010 C1007 0.999 . S
H1011 C992 0.913 . S
H1012 C1030 0.951 . S
H1013 C1032 0.951 . S
H1014 C1034 0.950 . S
H1015 C1035 0.950 . S
H1016 C1037 0.950 . S
H1017 C1040 0.950 . S
H1018 C1041 0.950 . S
H1019 C1043 0.950 . S
H1020 C1044 0.950 . S
H1021 C1045 0.951 . S
H1022 C1047 0.951 . S
H1023 C1049 0.950 . S
H1024 C1050 0.976 . S
H1025 C1052 0.950 . S
H1026 C1055 0.950 1_565 S
H1027 C1056 0.950 1_565 S
H1028 C1058 0.950 . S
H1029 C1059 0.950 . S
C1030 H1012 0.951 . S
C1030 C1031 1.366 1_565 S
C1030 C1032 1.388 . S
C1031 C1030 1.366 1_545 S
C1031 C1035 1.385 . S
C1032 H1013 0.951 . S
C1032 C1030 1.388 . S
C1032 C1033 1.366 1_565 S
C1033 C1032 1.366 1_545 S
C1033 C1034 1.414 . S
C1033 C1036 1.499 . S
C1034 H1014 0.950 . S
C1034 C1033 1.414 . S
C1034 C1035 1.374 . S
C1035 H1015 0.950 . S
C1035 C1031 1.385 . S
C1035 C1034 1.374 . S
C1036 C1033 1.499 . S
C1036 C1037 1.373 . S
C1036 C1038 1.389 . S
C1037 H1016 0.950 . S
C1037 C1036 1.373 . S
C1037 C1053 1.377 . S
C1038 C1036 1.389 . S
C1038 C1039 1.524 . S
C1038 C1052 1.377 . S
C1039 C1038 1.524 . S
C1039 C1040 1.397 . S
C1039 C1044 1.363 1_545 S
C1040 H1017 0.950 . S
C1040 C1039 1.397 . S
C1040 C1041 1.334 . S
C1041 H1018 0.950 . S
C1041 C1040 1.334 . S
C1041 C1042 1.287 . S
C1042 C1041 1.287 . S
C1042 C1043 1.524 1_545 S
C1042 H1061 0.913 . S
C1043 H1019 0.950 . S
C1043 C1042 1.524 1_565 S
C1043 C1044 1.415 . S
C1044 H1020 0.950 . S
C1044 C1039 1.363 1_565 S
C1044 C1043 1.415 . S
C1045 H1021 0.951 . S
C1045 C1046 1.366 . S
C1045 C1047 1.388 . S
C1046 C1045 1.366 . S
C1046 C1050 1.341 1_545 S
C1047 H1022 0.951 . S
C1047 C1045 1.388 . S
C1047 C1048 1.366 . S
C1048 C1047 1.366 . S
C1048 C1049 1.414 1_545 S
C1048 C1051 1.499 . S
C1049 H1023 0.950 . S
C1049 C1048 1.414 1_565 S
C1049 C1050 1.392 . S
C1050 H1024 0.976 . S
C1050 C1046 1.341 1_565 S
C1050 C1049 1.392 . S
C1051 C1048 1.499 . S
C1051 C1052 1.373 . S
C1051 C1053 1.389 . S
C1052 H1025 0.950 . S
C1052 C1038 1.377 . S
C1052 C1051 1.373 . S
C1053 C1037 1.377 . S
C1053 C1051 1.389 . S
C1053 C1054 1.524 . S
C1054 C1053 1.524 . S
C1054 C1055 1.397 . S
C1054 C1059 1.363 . S
C1055 H1026 0.950 1_545 S
C1055 C1054 1.397 . S
C1055 C1056 1.334 . S
C1056 H1027 0.950 1_545 S
C1056 C1055 1.334 . S
C1056 C1057 1.287 . S
C1057 C1056 1.287 . S
C1057 C1058 1.524 . S
C1057 H1060 0.999 . S
C1058 H1028 0.950 . S
C1058 C1057 1.524 . S
C1058 C1059 1.415 . S
C1059 H1029 0.950 . S
C1059 C1054 1.363 . S
C1059 C1058 1.415 . S
H1060 C1057 0.999 . S
H1061 C1042 0.913 . S
H1062 C1080 0.951 . S
H1063 C1082 0.951 . S
H1064 C1084 0.950 . S
H1065 C1085 0.950 . S
H1066 C1087 0.950 . S
H1067 C1090 0.950 . S
H1068 C1091 0.950 . S
H1069 C1093 0.950 . S
H1070 C1094 0.950 . S
H1071 C1095 0.951 . S
H1072 C1097 0.951 . S
H1073 C1099 0.950 . S
H1074 C1100 0.950 . S
H1075 C1102 0.950 . S
H1076 C1105 0.950 . S
H1077 C1106 0.950 . S
H1078 C1108 0.950 . S
H1079 C1109 0.950 . S
C1080 H1062 0.951 . S
C1080 C1081 1.366 1_565 S
C1080 C1082 1.388 . S
C1081 C1080 1.366 1_545 S
C1081 C1085 1.385 . S
C1082 H1063 0.951 . S
C1082 C1080 1.388 . S
C1082 C1083 1.366 1_565 S
C1083 C1082 1.366 1_545 S
C1083 C1084 1.414 . S
C1083 C1086 1.499 . S
C1084 H1064 0.950 . S
C1084 C1083 1.414 . S
C1084 C1085 1.374 . S
C1085 H1065 0.950 . S
C1085 C1081 1.385 . S
C1085 C1084 1.374 . S
C1086 C1083 1.499 . S
C1086 C1087 1.373 . S
C1086 C1088 1.389 1_545 S
C1087 H1066 0.950 . S
C1087 C1086 1.373 . S
C1087 C1103 1.377 . S
C1088 C1086 1.389 1_565 S
C1088 C1089 1.524 . S
C1088 C1102 1.377 . S
C1089 C1088 1.524 . S
C1089 C1090 1.397 . S
C1089 C1094 1.363 . S
C1090 H1067 0.950 . S
C1090 C1089 1.397 . S
C1090 C1091 1.334 . S
C1091 H1068 0.950 . S
C1091 C1090 1.334 . S
C1091 C1092 1.287 . S
C1092 C1091 1.287 . S
C1092 C1093 1.524 . S
C1092 H1111 0.913 . S
C1093 H1069 0.950 . S
C1093 C1092 1.524 . S
C1093 C1094 1.415 . S
C1094 H1070 0.950 . S
C1094 C1089 1.363 . S
C1094 C1093 1.415 . S
C1095 H1071 0.951 . S
C1095 C1096 1.390 . S
C1095 C1097 1.388 . S
C1096 C1095 1.390 . S
C1096 C1100 1.344 1_545 S
C1097 H1072 0.951 . S
C1097 C1095 1.388 . S
C1097 C1098 1.366 . S
C1098 C1097 1.366 . S
C1098 C1099 1.414 1_545 S
C1098 C1101 1.499 . S
C1099 H1073 0.950 . S
C1099 C1098 1.414 1_565 S
C1099 C1100 1.374 . S
C1100 H1074 0.950 . S
C1100 C1096 1.344 1_565 S
C1100 C1099 1.374 . S
C1101 C1098 1.499 . S
C1101 C1102 1.373 1_545 S
C1101 C1103 1.389 . S
C1102 H1075 0.950 . S
C1102 C1088 1.377 . S
C1102 C1101 1.373 1_565 S
C1103 C1087 1.377 . S
C1103 C1101 1.389 . S
C1103 C1104 1.524 . S
C1104 C1103 1.524 . S
C1104 C1105 1.397 . S
C1104 C1109 1.363 . S
C1105 H1076 0.950 . S
C1105 C1104 1.397 . S
C1105 C1106 1.334 . S
C1106 H1077 0.950 . S
C1106 C1105 1.334 . S
C1106 C1107 1.287 . S
C1107 C1106 1.287 . S
C1107 C1108 1.524 . S
C1107 H1110 0.999 . S
C1108 H1078 0.950 . S
C1108 C1107 1.524 . S
C1108 C1109 1.415 . S
C1109 H1079 0.950 . S
C1109 C1104 1.363 . S
C1109 C1108 1.415 . S
H1110 C1107 0.999 . S
H1111 C1092 0.913 . S
H1112 C1130 0.951 . S
H1113 C1132 0.951 . S
H1114 C1134 0.950 . S
H1115 C1135 0.950 . S
H1116 C1137 0.950 . S
H1117 C1140 0.950 . S
H1118 C1141 0.950 . S
H1119 C1143 0.950 . S
H1120 C1144 0.950 . S
H1121 C1145 0.951 1_655 S
H1122 C1147 0.951 1_655 S
H1123 C1149 0.950 . S
H1124 C1150 0.950 . S
H1125 C1152 0.950 . S
H1126 C1155 0.950 . S
H1127 C1156 0.950 . S
H1128 C1158 0.950 1_655 S
H1129 C1159 0.950 1_655 S
C1130 H1112 0.951 . S
C1130 C1131 1.366 . S
C1130 C1132 1.388 . S
C1131 C1130 1.366 . S
C1131 C1135 1.385 1_455 S
C1132 H1113 0.951 . S
C1132 C1130 1.388 . S
C1132 C1133 1.366 . S
C1133 C1132 1.366 . S
C1133 C1134 1.414 1_455 S
C1133 C1136 1.499 . S
C1134 H1114 0.950 . S
C1134 C1133 1.414 1_655 S
C1134 C1135 1.374 . S
C1135 H1115 0.950 . S
C1135 C1131 1.385 1_655 S
C1135 C1134 1.374 . S
C1136 C1133 1.499 . S
C1136 C1137 1.373 . S
C1136 C1138 1.389 . S
C1137 H1116 0.950 . S
C1137 C1136 1.373 . S
C1137 C1153 1.377 . S
C1138 C1136 1.389 . S
C1138 C1139 1.524 . S
C1138 C1152 1.377 . S
C1139 C1138 1.524 . S
C1139 C1140 1.397 1_455 S
C1139 C1144 1.363 . S
C1140 H1117 0.950 . S
C1140 C1139 1.397 1_655 S
C1140 C1141 1.334 . S
C1141 H1118 0.950 . S
C1141 C1140 1.334 . S
C1141 C1142 1.244 1_655 S
C1142 C1141 1.244 1_455 S
C1142 C1143 1.569 . S
C1142 H1161 0.914 1_455 S
C1143 H1119 0.950 . S
C1143 C1142 1.569 . S
C1143 C1144 1.415 . S
C1144 H1120 0.950 . S
C1144 C1139 1.363 . S
C1144 C1143 1.415 . S
C1145 H1121 0.951 1_455 S
C1145 C1146 1.366 . S
C1145 C1147 1.388 . S
C1146 C1145 1.366 . S
C1146 C1150 1.385 . S
C1147 H1122 0.951 1_455 S
C1147 C1145 1.388 . S
C1147 C1148 1.366 . S
C1148 C1147 1.366 . S
C1148 C1149 1.414 . S
C1148 C1151 1.499 . S
C1149 H1123 0.950 . S
C1149 C1148 1.414 . S
C1149 C1150 1.374 . S
C1150 H1124 0.950 . S
C1150 C1146 1.385 . S
C1150 C1149 1.374 . S
C1151 C1148 1.499 . S
C1151 C1152 1.373 . S
C1151 C1153 1.389 . S
C1152 H1125 0.950 . S
C1152 C1138 1.377 . S
C1152 C1151 1.373 . S
C1153 C1137 1.377 . S
C1153 C1151 1.389 . S
C1153 C1154 1.524 . S
C1154 C1153 1.524 . S
C1154 C1155 1.397 . S
C1154 C1159 1.363 . S
C1155 H1126 0.950 . S
C1155 C1154 1.397 . S
C1155 C1156 1.334 . S
C1156 H1127 0.950 . S
C1156 C1155 1.334 . S
C1156 C1157 1.287 . S
C1157 C1156 1.287 . S
C1157 C1158 1.524 . S
C1157 H1160 0.999 . S
C1158 H1128 0.950 1_455 S
C1158 C1157 1.524 . S
C1158 C1159 1.415 . S
C1159 H1129 0.950 1_455 S
C1159 C1154 1.363 . S
C1159 C1158 1.415 . S
H1160 C1157 0.999 . S
H1161 C1142 0.914 1_655 S
H1162 C1180 0.951 . S
H1163 C1182 0.951 . S
H1164 C1184 0.950 . S
H1165 C1185 0.950 . S
H1166 C1187 0.950 . S
H1167 C1190 0.950 . S
H1168 C1191 0.950 . S
H1169 C1193 0.950 . S
H1170 C1194 0.950 . S
H1171 C1195 0.951 . S
H1172 C1197 0.951 . S
H1173 C1199 0.950 . S
H1174 C1200 0.950 . S
H1175 C1202 0.950 . S
H1176 C1205 0.950 . S
H1177 C1206 0.950 . S
H1178 C1208 0.950 . S
H1179 C1209 0.950 . S
C1180 H1162 0.951 . S
C1180 C1181 1.366 . S
C1180 C1182 1.388 . S
C1181 C1180 1.366 . S
C1181 C1185 1.385 . S
C1182 H1163 0.951 . S
C1182 C1180 1.388 . S
C1182 C1183 1.366 . S
C1183 C1182 1.366 . S
C1183 C1184 1.414 . S
C1183 C1186 1.499 . S
C1184 H1164 0.950 . S
C1184 C1183 1.414 . S
C1184 C1185 1.374 . S
C1185 H1165 0.950 . S
C1185 C1181 1.385 . S
C1185 C1184 1.374 . S
C1186 C1183 1.499 . S
C1186 C1187 1.373 . S
C1186 C1188 1.389 . S
C1187 H1166 0.950 . S
C1187 C1186 1.373 . S
C1187 C1203 1.377 . S
C1188 C1186 1.389 . S
C1188 C1189 1.524 . S
C1188 C1202 1.377 . S
C1189 C1188 1.524 . S
C1189 C1190 1.397 . S
C1189 C1194 1.363 . S
C1190 H1167 0.950 . S
C1190 C1189 1.397 . S
C1190 C1191 1.334 . S
C1191 H1168 0.950 . S
C1191 C1190 1.334 . S
C1191 C1192 1.287 . S
C1192 C1191 1.287 . S
C1192 C1193 1.524 . S
C1192 H1211 0.913 . S
C1193 H1169 0.950 . S
C1193 C1192 1.524 . S
C1193 C1194 1.415 . S
C1194 H1170 0.950 . S
C1194 C1189 1.363 . S
C1194 C1193 1.415 . S
C1195 H1171 0.951 . S
C1195 C1196 1.366 . S
C1195 C1197 1.388 . S
C1196 C1195 1.366 . S
C1196 C1200 1.385 . S
C1197 H1172 0.951 . S
C1197 C1195 1.388 . S
C1197 C1198 1.366 . S
C1198 C1197 1.366 . S
C1198 C1199 1.414 . S
C1198 C1201 1.499 . S
C1199 H1173 0.950 . S
C1199 C1198 1.414 . S
C1199 C1200 1.374 . S
C1200 H1174 0.950 . S
C1200 C1196 1.385 . S
C1200 C1199 1.374 . S
C1201 C1198 1.499 . S
C1201 C1202 1.373 . S
C1201 C1203 1.389 . S
C1202 H1175 0.950 . S
C1202 C1188 1.377 . S
C1202 C1201 1.373 . S
C1203 C1187 1.377 . S
C1203 C1201 1.389 . S
C1203 C1204 1.524 . S
C1204 C1203 1.524 . S
C1204 C1205 1.397 . S
C1204 C1209 1.363 . S
C1205 H1176 0.950 . S
C1205 C1204 1.397 . S
C1205 C1206 1.334 . S
C1206 H1177 0.950 . S
C1206 C1205 1.334 . S
C1206 C1207 1.287 . S
C1207 C1206 1.287 . S
C1207 C1208 1.524 . S
C1207 H1210 0.999 . S
C1208 H1178 0.950 . S
C1208 C1207 1.524 . S
C1208 C1209 1.415 . S
C1209 H1179 0.950 . S
C1209 C1204 1.363 . S
C1209 C1208 1.415 . S
H1210 C1207 0.999 . S
H1211 C1192 0.913 . S
H1212 C1230 0.951 . S
H1213 C1232 0.951 . S
H1214 C1234 0.950 . S
H1215 C1235 0.950 . S
H1216 C1237 0.950 . S
H1217 C1240 0.950 . S
H1218 C1241 0.950 . S
H1219 C1243 0.950 . S
H1220 C1244 0.950 . S
H1221 C1245 0.951 . S
H1222 C1247 0.951 . S
H1223 C1249 0.950 . S
H1224 C1250 0.950 . S
H1225 C1252 0.950 . S
H1226 C1255 0.950 . S
H1227 C1256 0.950 . S
H1228 C1258 0.950 . S
H1229 C1259 0.950 . S
C1230 H1212 0.951 . S
C1230 C1231 1.366 . S
C1230 C1232 1.388 . S
C1231 C1230 1.366 . S
C1231 C1235 1.385 . S
C1232 H1213 0.951 . S
C1232 C1230 1.388 . S
C1232 C1233 1.366 . S
C1233 C1232 1.366 . S
C1233 C1234 1.414 . S
C1233 C1236 1.499 . S
C1234 H1214 0.950 . S
C1234 C1233 1.414 . S
C1234 C1235 1.374 . S
C1235 H1215 0.950 . S
C1235 C1231 1.385 . S
C1235 C1234 1.374 . S
C1236 C1233 1.499 . S
C1236 C1237 1.373 . S
C1236 C1238 1.389 . S
C1237 H1216 0.950 . S
C1237 C1236 1.373 . S
C1237 C1253 1.377 . S
C1238 C1236 1.389 . S
C1238 C1239 1.524 . S
C1238 C1252 1.377 . S
C1239 C1238 1.524 . S
C1239 C1240 1.397 . S
C1239 C1244 1.363 . S
C1240 H1217 0.950 . S
C1240 C1239 1.397 . S
C1240 C1241 1.334 . S
C1241 H1218 0.950 . S
C1241 C1240 1.334 . S
C1241 C1242 1.287 . S
C1242 C1241 1.287 . S
C1242 C1243 1.524 . S
C1242 H1261 0.913 . S
C1243 H1219 0.950 . S
C1243 C1242 1.524 . S
C1243 C1244 1.415 . S
C1244 H1220 0.950 . S
C1244 C1239 1.363 . S
C1244 C1243 1.415 . S
C1245 H1221 0.951 . S
C1245 C1246 1.366 . S
C1245 C1247 1.388 . S
C1246 C1245 1.366 . S
C1246 C1250 1.385 . S
C1247 H1222 0.951 . S
C1247 C1245 1.388 . S
C1247 C1248 1.366 . S
C1248 C1247 1.366 . S
C1248 C1249 1.414 . S
C1248 C1251 1.499 . S
C1249 H1223 0.950 . S
C1249 C1248 1.414 . S
C1249 C1250 1.374 . S
C1250 H1224 0.950 . S
C1250 C1246 1.385 . S
C1250 C1249 1.374 . S
C1251 C1248 1.499 . S
C1251 C1252 1.373 . S
C1251 C1253 1.389 . S
C1252 H1225 0.950 . S
C1252 C1238 1.377 . S
C1252 C1251 1.373 . S
C1253 C1237 1.377 . S
C1253 C1251 1.389 . S
C1253 C1254 1.524 . S
C1254 C1253 1.524 . S
C1254 C1255 1.397 . S
C1254 C1259 1.363 . S
C1255 H1226 0.950 . S
C1255 C1254 1.397 . S
C1255 C1256 1.334 . S
C1256 H1227 0.950 . S
C1256 C1255 1.334 . S
C1256 C1257 1.287 . S
C1257 C1256 1.287 . S
C1257 C1258 1.524 . S
C1257 H1260 0.999 . S
C1258 H1228 0.950 . S
C1258 C1257 1.524 . S
C1258 C1259 1.415 . S
C1259 H1229 0.950 . S
C1259 C1254 1.363 . S
C1259 C1258 1.415 . S
H1260 C1257 0.999 . S
H1261 C1242 0.913 . S
H1262 C1280 0.951 . S
H1263 C1282 0.951 . S
H1264 C1284 0.950 . S
H1265 C1285 0.950 . S
H1266 C1287 0.950 . S
H1267 C1290 0.950 . S
H1268 C1291 0.950 . S
H1269 C1293 0.950 . S
H1270 C1294 0.950 . S
H1271 C1295 0.951 . S
H1272 C1297 0.951 . S
H1273 C1299 0.950 . S
H1274 C1300 0.950 . S
H1275 C1302 0.950 . S
H1276 C1305 0.950 . S
H1277 C1306 0.950 . S
H1278 C1308 0.950 . S
H1279 C1309 0.950 . S
C1280 H1262 0.951 . S
C1280 C1281 1.366 . S
C1280 C1282 1.388 . S
C1281 C1280 1.366 . S
C1281 C1285 1.385 . S
C1282 H1263 0.951 . S
C1282 C1280 1.388 . S
C1282 C1283 1.366 . S
C1283 C1282 1.366 . S
C1283 C1284 1.414 . S
C1283 C1286 1.499 . S
C1284 H1264 0.950 . S
C1284 C1283 1.414 . S
C1284 C1285 1.374 . S
C1285 H1265 0.950 . S
C1285 C1281 1.385 . S
C1285 C1284 1.374 . S
C1286 C1283 1.499 . S
C1286 C1287 1.373 . S
C1286 C1288 1.389 . S
C1287 H1266 0.950 . S
C1287 C1286 1.373 . S
C1287 C1303 1.377 . S
C1288 C1286 1.389 . S
C1288 C1289 1.524 . S
C1288 C1302 1.377 . S
C1289 C1288 1.524 . S
C1289 C1290 1.397 . S
C1289 C1294 1.363 . S
C1290 H1267 0.950 . S
C1290 C1289 1.397 . S
C1290 C1291 1.334 . S
C1291 H1268 0.950 . S
C1291 C1290 1.334 . S
C1291 C1292 1.287 . S
C1292 C1291 1.287 . S
C1292 C1293 1.524 . S
C1292 H1311 0.913 . S
C1293 H1269 0.950 . S
C1293 C1292 1.524 . S
C1293 C1294 1.415 . S
C1294 H1270 0.950 . S
C1294 C1289 1.363 . S
C1294 C1293 1.415 . S
C1295 H1271 0.951 . S
C1295 C1296 1.366 . S
C1295 C1297 1.388 . S
C1296 C1295 1.366 . S
C1296 C1300 1.385 . S
C1297 H1272 0.951 . S
C1297 C1295 1.388 . S
C1297 C1298 1.366 . S
C1298 C1297 1.366 . S
C1298 C1299 1.414 . S
C1298 C1301 1.499 . S
C1299 H1273 0.950 . S
C1299 C1298 1.414 . S
C1299 C1300 1.374 . S
C1300 H1274 0.950 . S
C1300 C1296 1.385 . S
C1300 C1299 1.374 . S
C1301 C1298 1.499 . S
C1301 C1302 1.373 . S
C1301 C1303 1.389 . S
C1302 H1275 0.950 . S
C1302 C1288 1.377 . S
C1302 C1301 1.373 . S
C1303 C1287 1.377 . S
C1303 C1301 1.389 . S
C1303 C1304 1.524 . S
C1304 C1303 1.524 . S
C1304 C1305 1.397 . S
C1304 C1309 1.363 . S
C1305 H1276 0.950 . S
C1305 C1304 1.397 . S
C1305 C1306 1.334 . S
C1306 H1277 0.950 . S
C1306 C1305 1.334 . S
C1306 C1307 1.287 . S
C1307 C1306 1.287 . S
C1307 C1308 1.524 . S
C1307 H1310 0.999 . S
C1308 H1278 0.950 . S
C1308 C1307 1.524 . S
C1308 C1309 1.415 . S
C1309 H1279 0.950 . S
C1309 C1304 1.363 . S
C1309 C1308 1.415 . S
H1310 C1307 0.999 . S
H1311 C1292 0.913 . S
H1312 C1330 0.951 . S
H1313 C1332 0.951 . S
H1314 C1334 0.950 . S
H1315 C1335 0.950 . S
H1316 C1337 0.950 . S
H1317 C1340 0.950 . S
H1318 C1341 0.950 . S
H1319 C1343 0.950 . S
H1320 C1344 0.950 . S
H1321 C1345 0.951 . S
H1322 C1347 0.951 . S
H1323 C1349 0.950 . S
H1324 C1350 0.950 . S
H1325 C1352 0.950 . S
H1326 C1355 0.950 . S
H1327 C1356 0.950 . S
H1328 C1358 0.950 . S
H1329 C1359 0.950 . S
C1330 H1312 0.951 . S
C1330 C1331 1.366 . S
C1330 C1332 1.388 . S
C1331 C1330 1.366 . S
C1331 C1335 1.385 . S
C1332 H1313 0.951 . S
C1332 C1330 1.388 . S
C1332 C1333 1.366 . S
C1333 C1332 1.366 . S
C1333 C1334 1.414 . S
C1333 C1336 1.499 . S
C1334 H1314 0.950 . S
C1334 C1333 1.414 . S
C1334 C1335 1.374 . S
C1335 H1315 0.950 . S
C1335 C1331 1.385 . S
C1335 C1334 1.374 . S
C1336 C1333 1.499 . S
C1336 C1337 1.373 . S
C1336 C1338 1.389 . S
C1337 H1316 0.950 . S
C1337 C1336 1.373 . S
C1337 C1353 1.377 . S
C1338 C1336 1.389 . S
C1338 C1339 1.524 . S
C1338 C1352 1.377 . S
C1339 C1338 1.524 . S
C1339 C1340 1.397 . S
C1339 C1344 1.363 . S
C1340 H1317 0.950 . S
C1340 C1339 1.397 . S
C1340 C1341 1.334 . S
C1341 H1318 0.950 . S
C1341 C1340 1.334 . S
C1341 C1342 1.287 . S
C1342 C1341 1.287 . S
C1342 C1343 1.524 . S
C1342 H1361 0.913 . S
C1343 H1319 0.950 . S
C1343 C1342 1.524 . S
C1343 C1344 1.415 . S
C1344 H1320 0.950 . S
C1344 C1339 1.363 . S
C1344 C1343 1.415 . S
C1345 H1321 0.951 . S
C1345 C1346 1.366 . S
C1345 C1347 1.388 . S
C1346 C1345 1.366 . S
C1346 C1350 1.385 . S
C1347 H1322 0.951 . S
C1347 C1345 1.388 . S
C1347 C1348 1.366 . S
C1348 C1347 1.366 . S
C1348 C1349 1.414 . S
C1348 C1351 1.499 . S
C1349 H1323 0.950 . S
C1349 C1348 1.414 . S
C1349 C1350 1.374 . S
C1350 H1324 0.950 . S
C1350 C1346 1.385 . S
C1350 C1349 1.374 . S
C1351 C1348 1.499 . S
C1351 C1352 1.373 . S
C1351 C1353 1.389 . S
C1352 H1325 0.950 . S
C1352 C1338 1.377 . S
C1352 C1351 1.373 . S
C1353 C1337 1.377 . S
C1353 C1351 1.389 . S
C1353 C1354 1.524 . S
C1354 C1353 1.524 . S
C1354 C1355 1.397 . S
C1354 C1359 1.363 . S
C1355 H1326 0.950 . S
C1355 C1354 1.397 . S
C1355 C1356 1.334 . S
C1356 H1327 0.950 . S
C1356 C1355 1.334 . S
C1356 C1357 1.287 . S
C1357 C1356 1.287 . S
C1357 C1358 1.524 . S
C1357 H1360 0.999 . S
C1358 H1328 0.950 . S
C1358 C1357 1.524 . S
C1358 C1359 1.415 . S
C1359 H1329 0.950 . S
C1359 C1354 1.363 . S
C1359 C1358 1.415 . S
H1360 C1357 0.999 . S
H1361 C1342 0.913 . S
H1362 C1380 0.951 . S
H1363 C1382 0.951 . S
H1364 C1384 0.950 . S
H1365 C1385 0.950 . S
H1366 C1387 0.950 . S
H1367 C1390 0.950 . S
H1368 C1391 0.950 . S
H1369 C1393 0.950 . S
H1370 C1394 0.950 . S
H1371 C1395 0.951 . S
H1372 C1397 0.951 . S
H1373 C1399 0.950 . S
H1374 C1400 0.950 . S
H1375 C1402 0.950 . S
H1376 C1405 0.950 . S
H1377 C1406 0.950 . S
H1378 C1408 0.950 . S
H1379 C1409 0.950 . S
C1380 H1362 0.951 . S
C1380 C1381 1.366 . S
C1380 C1382 1.388 . S
C1381 C1380 1.366 . S
C1381 C1385 1.385 . S
C1382 H1363 0.951 . S
C1382 C1380 1.388 . S
C1382 C1383 1.366 . S
C1383 C1382 1.366 . S
C1383 C1384 1.414 . S
C1383 C1386 1.499 . S
C1384 H1364 0.950 . S
C1384 C1383 1.414 . S
C1384 C1385 1.374 . S
C1385 H1365 0.950 . S
C1385 C1381 1.385 . S
C1385 C1384 1.374 . S
C1386 C1383 1.499 . S
C1386 C1387 1.373 . S
C1386 C1388 1.389 . S
C1387 H1366 0.950 . S
C1387 C1386 1.373 . S
C1387 C1403 1.377 . S
C1388 C1386 1.389 . S
C1388 C1389 1.524 . S
C1388 C1402 1.377 . S
C1389 C1388 1.524 . S
C1389 C1390 1.397 . S
C1389 C1394 1.363 . S
C1390 H1367 0.950 . S
C1390 C1389 1.397 . S
C1390 C1391 1.334 . S
C1391 H1368 0.950 . S
C1391 C1390 1.334 . S
C1391 C1392 1.287 . S
C1392 C1391 1.287 . S
C1392 C1393 1.524 . S
C1392 H1411 0.913 . S
C1393 H1369 0.950 . S
C1393 C1392 1.524 . S
C1393 C1394 1.415 . S
C1394 H1370 0.950 . S
C1394 C1389 1.363 . S
C1394 C1393 1.415 . S
C1395 H1371 0.951 . S
C1395 C1396 1.366 . S
C1395 C1397 1.388 . S
C1396 C1395 1.366 . S
C1396 C1400 1.385 . S
C1397 H1372 0.951 . S
C1397 C1395 1.388 . S
C1397 C1398 1.366 . S
C1398 C1397 1.366 . S
C1398 C1399 1.414 . S
C1398 C1401 1.499 . S
C1399 H1373 0.950 . S
C1399 C1398 1.414 . S
C1399 C1400 1.374 . S
C1400 H1374 0.950 . S
C1400 C1396 1.385 . S
C1400 C1399 1.374 . S
C1401 C1398 1.499 . S
C1401 C1402 1.373 . S
C1401 C1403 1.389 . S
C1402 H1375 0.950 . S
C1402 C1388 1.377 . S
C1402 C1401 1.373 . S
C1403 C1387 1.377 . S
C1403 C1401 1.389 . S
C1403 C1404 1.524 . S
C1404 C1403 1.524 . S
C1404 C1405 1.397 . S
C1404 C1409 1.363 . S
C1405 H1376 0.950 . S
C1405 C1404 1.397 . S
C1405 C1406 1.334 . S
C1406 H1377 0.950 . S
C1406 C1405 1.334 . S
C1406 C1407 1.287 . S
C1407 C1406 1.287 . S
C1407 C1408 1.524 . S
C1407 H1410 0.999 . S
C1408 H1378 0.950 . S
C1408 C1407 1.524 . S
C1408 C1409 1.415 . S
C1409 H1379 0.950 . S
C1409 C1404 1.363 . S
C1409 C1408 1.415 . S
H1410 C1407 0.999 . S
H1411 C1392 0.913 . S
H1412 C1430 0.951 . S
H1413 C1432 0.951 . S
H1414 C1434 0.950 . S
H1415 C1435 0.950 . S
H1416 C1437 0.950 . S
H1417 C1440 0.950 . S
H1418 C1441 0.950 . S
H1419 C1443 0.950 . S
H1420 C1444 0.950 . S
H1421 C1445 0.951 . S
H1422 C1447 0.951 . S
H1423 C1449 0.950 . S
H1424 C1450 0.950 . S
H1425 C1452 0.950 . S
H1426 C1455 0.950 . S
H1427 C1456 0.950 . S
H1428 C1458 0.950 . S
H1429 C1459 0.950 . S
C1430 H1412 0.951 . S
C1430 C1431 1.366 . S
C1430 C1432 1.388 . S
C1431 C1430 1.366 . S
C1431 C1435 1.385 . S
C1432 H1413 0.951 . S
C1432 C1430 1.388 . S
C1432 C1433 1.366 . S
C1433 C1432 1.366 . S
C1433 C1434 1.414 . S
C1433 C1436 1.499 . S
C1434 H1414 0.950 . S
C1434 C1433 1.414 . S
C1434 C1435 1.374 . S
C1435 H1415 0.950 . S
C1435 C1431 1.385 . S
C1435 C1434 1.374 . S
C1436 C1433 1.499 . S
C1436 C1437 1.373 . S
C1436 C1438 1.389 . S
C1437 H1416 0.950 . S
C1437 C1436 1.373 . S
C1437 C1453 1.377 . S
C1438 C1436 1.389 . S
C1438 C1439 1.524 . S
C1438 C1452 1.377 . S
C1439 C1438 1.524 . S
C1439 C1440 1.397 . S
C1439 C1444 1.363 . S
C1440 H1417 0.950 . S
C1440 C1439 1.397 . S
C1440 C1441 1.334 . S
C1441 H1418 0.950 . S
C1441 C1440 1.334 . S
C1441 C1442 1.287 . S
C1442 C1441 1.287 . S
C1442 C1443 1.524 . S
C1442 H1461 0.913 . S
C1443 H1419 0.950 . S
C1443 C1442 1.524 . S
C1443 C1444 1.415 . S
C1444 H1420 0.950 . S
C1444 C1439 1.363 . S
C1444 C1443 1.415 . S
C1445 H1421 0.951 . S
C1445 C1446 1.366 . S
C1445 C1447 1.388 . S
C1446 C1445 1.366 . S
C1446 C1450 1.385 . S
C1447 H1422 0.951 . S
C1447 C1445 1.388 . S
C1447 C1448 1.366 . S
C1448 C1447 1.366 . S
C1448 C1449 1.414 . S
C1448 C1451 1.499 . S
C1449 H1423 0.950 . S
C1449 C1448 1.414 . S
C1449 C1450 1.374 . S
C1450 H1424 0.950 . S
C1450 C1446 1.385 . S
C1450 C1449 1.374 . S
C1451 C1448 1.499 . S
C1451 C1452 1.373 . S
C1451 C1453 1.389 . S
C1452 H1425 0.950 . S
C1452 C1438 1.377 . S
C1452 C1451 1.373 . S
C1453 C1437 1.377 . S
C1453 C1451 1.389 . S
C1453 C1454 1.524 . S
C1454 C1453 1.524 . S
C1454 C1455 1.397 . S
C1454 C1459 1.363 . S
C1455 H1426 0.950 . S
C1455 C1454 1.397 . S
C1455 C1456 1.334 . S
C1456 H1427 0.950 . S
C1456 C1455 1.334 . S
C1456 C1457 1.287 . S
C1457 C1456 1.287 . S
C1457 C1458 1.524 . S
C1457 H1460 0.999 . S
C1458 H1428 0.950 . S
C1458 C1457 1.524 . S
C1458 C1459 1.415 . S
C1459 H1429 0.950 . S
C1459 C1454 1.363 . S
C1459 C1458 1.415 . S
H1460 C1457 0.999 . S
H1461 C1442 0.913 . S
H1462 C1480 0.951 . S
H1463 C1482 0.951 . S
H1464 C1484 0.950 . S
H1465 C1485 0.950 . S
H1466 C1487 0.950 . S
H1467 C1490 0.950 . S
H1468 C1491 0.950 . S
H1469 C1493 0.950 . S
H1470 C1494 0.950 . S
H1471 C1495 0.951 . S
H1472 C1497 0.951 . S
H1473 C1499 0.950 . S
H1474 C1500 0.950 . S
H1475 C1502 0.950 . S
H1476 C1505 0.950 . S
H1477 C1506 0.950 . S
H1478 C1508 0.950 . S
H1479 C1509 0.950 . S
C1480 H1462 0.951 . S
C1480 C1481 1.366 . S
C1480 C1482 1.388 . S
C1481 C1480 1.366 . S
C1481 C1485 1.385 . S
C1482 H1463 0.951 . S
C1482 C1480 1.388 . S
C1482 C1483 1.366 . S
C1483 C1482 1.366 . S
C1483 C1484 1.414 . S
C1483 C1486 1.499 . S
C1484 H1464 0.950 . S
C1484 C1483 1.414 . S
C1484 C1485 1.374 . S
C1485 H1465 0.950 . S
C1485 C1481 1.385 . S
C1485 C1484 1.374 . S
C1486 C1483 1.499 . S
C1486 C1487 1.373 . S
C1486 C1488 1.389 . S
C1487 H1466 0.950 . S
C1487 C1486 1.373 . S
C1487 C1503 1.377 . S
C1488 C1486 1.389 . S
C1488 C1489 1.524 . S
C1488 C1502 1.377 . S
C1489 C1488 1.524 . S
C1489 C1490 1.397 . S
C1489 C1494 1.363 . S
C1490 H1467 0.950 . S
C1490 C1489 1.397 . S
C1490 C1491 1.334 . S
C1491 H1468 0.950 . S
C1491 C1490 1.334 . S
C1491 C1492 1.287 . S
C1492 C1491 1.287 . S
C1492 C1493 1.524 . S
C1492 H1511 0.913 . S
C1493 H1469 0.950 . S
C1493 C1492 1.524 . S
C1493 C1494 1.415 . S
C1494 H1470 0.950 . S
C1494 C1489 1.363 . S
C1494 C1493 1.415 . S
C1495 H1471 0.951 . S
C1495 C1496 1.366 . S
C1495 C1497 1.388 . S
C1496 C1495 1.366 . S
C1496 C1500 1.385 . S
C1497 H1472 0.951 . S
C1497 C1495 1.388 . S
C1497 C1498 1.366 . S
C1498 C1497 1.366 . S
C1498 C1499 1.414 . S
C1498 C1501 1.499 . S
C1499 H1473 0.950 . S
C1499 C1498 1.414 . S
C1499 C1500 1.374 . S
C1500 H1474 0.950 . S
C1500 C1496 1.385 . S
C1500 C1499 1.374 . S
C1501 C1498 1.499 . S
C1501 C1502 1.373 . S
C1501 C1503 1.389 . S
C1502 H1475 0.950 . S
C1502 C1488 1.377 . S
C1502 C1501 1.373 . S
C1503 C1487 1.377 . S
C1503 C1501 1.389 . S
C1503 C1504 1.524 . S
C1504 C1503 1.524 . S
C1504 C1505 1.397 . S
C1504 C1509 1.363 . S
C1505 H1476 0.950 . S
C1505 C1504 1.397 . S
C1505 C1506 1.334 . S
C1506 H1477 0.950 . S
C1506 C1505 1.334 . S
C1506 C1507 1.287 . S
C1507 C1506 1.287 . S
C1507 C1508 1.524 . S
C1507 H1510 0.999 . S
C1508 H1478 0.950 . S
C1508 C1507 1.524 . S
C1508 C1509 1.415 . S
C1509 H1479 0.950 . S
C1509 C1504 1.363 . S
C1509 C1508 1.415 . S
H1510 C1507 0.999 . S
H1511 C1492 0.913 . S
H1512 C1530 0.951 . S
H1513 C1532 0.951 . S
H1514 C1534 0.950 . S
H1515 C1535 0.950 . S
H1516 C1537 0.950 . S
H1517 C1540 0.950 . S
H1518 C1541 0.950 . S
H1519 C1543 0.950 . S
H1520 C1544 0.950 . S
H1521 C1545 0.951 . S
H1522 C1547 0.951 . S
H1523 C1549 0.950 . S
H1524 C1550 0.950 . S
H1525 C1552 0.950 . S
H1526 C1555 0.950 . S
H1527 C1556 0.950 . S
H1528 C1558 0.950 . S
H1529 C1559 0.950 . S
C1530 H1512 0.951 . S
C1530 C1531 1.366 . S
C1530 C1532 1.388 . S
C1531 C1530 1.366 . S
C1531 C1535 1.385 . S
C1532 H1513 0.951 . S
C1532 C1530 1.388 . S
C1532 C1533 1.366 . S
C1533 C1532 1.366 . S
C1533 C1534 1.414 . S
C1533 C1536 1.499 . S
C1534 H1514 0.950 . S
C1534 C1533 1.414 . S
C1534 C1535 1.374 . S
C1535 H1515 0.950 . S
C1535 C1531 1.385 . S
C1535 C1534 1.374 . S
C1536 C1533 1.499 . S
C1536 C1537 1.373 . S
C1536 C1538 1.389 . S
C1537 H1516 0.950 . S
C1537 C1536 1.373 . S
C1537 C1553 1.377 . S
C1538 C1536 1.389 . S
C1538 C1539 1.524 . S
C1538 C1552 1.377 . S
C1539 C1538 1.524 . S
C1539 C1540 1.397 . S
C1539 C1544 1.363 . S
C1540 H1517 0.950 . S
C1540 C1539 1.397 . S
C1540 C1541 1.334 . S
C1541 H1518 0.950 . S
C1541 C1540 1.334 . S
C1541 C1542 1.287 . S
C1542 C1541 1.287 . S
C1542 C1543 1.524 . S
C1542 H1561 0.913 . S
C1543 H1519 0.950 . S
C1543 C1542 1.524 . S
C1543 C1544 1.415 . S
C1544 H1520 0.950 . S
C1544 C1539 1.363 . S
C1544 C1543 1.415 . S
C1545 H1521 0.951 . S
C1545 C1546 1.366 . S
C1545 C1547 1.388 . S
C1546 C1545 1.366 . S
C1546 C1550 1.385 . S
C1547 H1522 0.951 . S
C1547 C1545 1.388 . S
C1547 C1548 1.366 . S
C1548 C1547 1.366 . S
C1548 C1549 1.414 . S
C1548 C1551 1.499 . S
C1549 H1523 0.950 . S
C1549 C1548 1.414 . S
C1549 C1550 1.374 . S
C1550 H1524 0.950 . S
C1550 C1546 1.385 . S
C1550 C1549 1.374 . S
C1551 C1548 1.499 . S
C1551 C1552 1.373 . S
C1551 C1553 1.389 . S
C1552 H1525 0.950 . S
C1552 C1538 1.377 . S
C1552 C1551 1.373 . S
C1553 C1537 1.377 . S
C1553 C1551 1.389 . S
C1553 C1554 1.524 . S
C1554 C1553 1.524 . S
C1554 C1555 1.397 . S
C1554 C1559 1.363 . S
C1555 H1526 0.950 . S
C1555 C1554 1.397 . S
C1555 C1556 1.334 . S
C1556 H1527 0.950 . S
C1556 C1555 1.334 . S
C1556 C1557 1.287 . S
C1557 C1556 1.287 . S
C1557 C1558 1.524 . S
C1557 H1560 0.999 . S
C1558 H1528 0.950 . S
C1558 C1557 1.524 . S
C1558 C1559 1.415 . S
C1559 H1529 0.950 . S
C1559 C1554 1.363 . S
C1559 C1558 1.415 . S
H1560 C1557 0.999 . S
H1561 C1542 0.913 . S
H1562 C1580 0.951 . S
H1563 C1582 0.951 . S
H1564 C1584 0.950 . S
H1565 C1585 0.950 . S
H1566 C1587 0.950 . S
H1567 C1590 0.950 . S
H1568 C1591 0.950 . S
H1569 C1593 0.950 . S
H1570 C1594 0.950 . S
H1571 C1595 0.951 . S
H1572 C1597 0.951 . S
H1573 C1599 0.950 . S
H1574 C1600 0.950 . S
H1575 C1602 0.950 . S
H1576 C1605 0.950 . S
H1577 C1606 0.950 . S
H1578 C1608 0.950 . S
H1579 C1609 0.950 . S
C1580 H1562 0.951 . S
C1580 C1581 1.366 . S
C1580 C1582 1.388 . S
C1581 C1580 1.366 . S
C1581 C1585 1.385 . S
C1582 H1563 0.951 . S
C1582 C1580 1.388 . S
C1582 C1583 1.366 . S
C1583 C1582 1.366 . S
C1583 C1584 1.414 . S
C1583 C1586 1.499 . S
C1584 H1564 0.950 . S
C1584 C1583 1.414 . S
C1584 C1585 1.374 . S
C1585 H1565 0.950 . S
C1585 C1581 1.385 . S
C1585 C1584 1.374 . S
C1586 C1583 1.499 . S
C1586 C1587 1.373 . S
C1586 C1588 1.389 . S
C1587 H1566 0.950 . S
C1587 C1586 1.373 . S
C1587 C1603 1.377 . S
C1588 C1586 1.389 . S
C1588 C1589 1.524 . S
C1588 C1602 1.377 . S
C1589 C1588 1.524 . S
C1589 C1590 1.397 . S
C1589 C1594 1.363 . S
C1590 H1567 0.950 . S
C1590 C1589 1.397 . S
C1590 C1591 1.334 . S
C1591 H1568 0.950 . S
C1591 C1590 1.334 . S
C1591 C1592 1.287 . S
C1592 C1591 1.287 . S
C1592 C1593 1.524 . S
C1592 H1611 0.913 . S
C1593 H1569 0.950 . S
C1593 C1592 1.524 . S
C1593 C1594 1.415 . S
C1594 H1570 0.950 . S
C1594 C1589 1.363 . S
C1594 C1593 1.415 . S
C1595 H1571 0.951 . S
C1595 C1596 1.366 . S
C1595 C1597 1.388 . S
C1596 C1595 1.366 . S
C1596 C1600 1.385 . S
C1597 H1572 0.951 . S
C1597 C1595 1.388 . S
C1597 C1598 1.366 . S
C1598 C1597 1.366 . S
C1598 C1599 1.414 . S
C1598 C1601 1.499 . S
C1599 H1573 0.950 . S
C1599 C1598 1.414 . S
C1599 C1600 1.374 . S
C1600 H1574 0.950 . S
C1600 C1596 1.385 . S
C1600 C1599 1.374 . S
C1601 C1598 1.499 . S
C1601 C1602 1.373 . S
C1601 C1603 1.389 . S
C1602 H1575 0.950 . S
C1602 C1588 1.377 . S
C1602 C1601 1.373 . S
C1603 C1587 1.377 . S
C1603 C1601 1.389 . S
C1603 C1604 1.524 . S
C1604 C1603 1.524 . S
C1604 C1605 1.397 . S
C1604 C1609 1.363 . S
C1605 H1576 0.950 . S
C1605 C1604 1.397 . S
C1605 C1606 1.334 . S
C1606 H1577 0.950 . S
C1606 C1605 1.334 . S
C1606 C1607 1.287 . S
C1607 C1606 1.287 . S
C1607 C1608 1.524 . S
C1607 H1610 0.999 . S
C1608 H1578 0.950 . S
C1608 C1607 1.524 . S
C1608 C1609 1.415 . S
C1609 H1579 0.950 . S
C1609 C1604 1.363 . S
C1609 C1608 1.415 . S
H1610 C1607 0.999 . S
H1611 C1592 0.913 . S
H1612 C1630 0.951 . S
H1613 C1632 0.951 . S
H1614 C1634 0.950 . S
H1615 C1635 0.950 . S
H1616 C1637 0.950 . S
H1617 C1640 0.950 . S
H1618 C1641 0.950 . S
H1619 C1643 0.950 . S
H1620 C1644 0.950 . S
H1621 C1645 0.951 . S
H1622 C1647 0.951 . S
H1623 C1649 0.950 . S
H1624 C1650 0.950 . S
H1625 C1652 0.950 . S
H1626 C1655 0.950 . S
H1627 C1656 0.950 . S
H1628 C1658 0.950 . S
H1629 C1659 0.950 . S
C1630 H1612 0.951 . S
C1630 C1631 1.366 . S
C1630 C1632 1.388 . S
C1631 C1630 1.366 . S
C1631 C1635 1.385 . S
C1632 H1613 0.951 . S
C1632 C1630 1.388 . S
C1632 C1633 1.366 . S
C1633 C1632 1.366 . S
C1633 C1634 1.414 . S
C1633 C1636 1.499 . S
C1634 H1614 0.950 . S
C1634 C1633 1.414 . S
C1634 C1635 1.374 . S
C1635 H1615 0.950 . S
C1635 C1631 1.385 . S
C1635 C1634 1.374 . S
C1636 C1633 1.499 . S
C1636 C1637 1.373 . S
C1636 C1638 1.389 . S
C1637 H1616 0.950 . S
C1637 C1636 1.373 . S
C1637 C1653 1.377 . S
C1638 C1636 1.389 . S
C1638 C1639 1.524 . S
C1638 C1652 1.377 . S
C1639 C1638 1.524 . S
C1639 C1640 1.397 . S
C1639 C1644 1.363 . S
C1640 H1617 0.950 . S
C1640 C1639 1.397 . S
C1640 C1641 1.334 . S
C1641 H1618 0.950 . S
C1641 C1640 1.334 . S
C1641 C1642 1.287 . S
C1642 C1641 1.287 . S
C1642 C1643 1.524 . S
C1642 H1661 0.913 . S
C1643 H1619 0.950 . S
C1643 C1642 1.524 . S
C1643 C1644 1.415 . S
C1644 H1620 0.950 . S
C1644 C1639 1.363 . S
C1644 C1643 1.415 . S
C1645 H1621 0.951 . S
C1645 C1646 1.366 . S
C1645 C1647 1.388 . S
C1646 C1645 1.366 . S
C1646 C1650 1.385 . S
C1647 H1622 0.951 . S
C1647 C1645 1.388 . S
C1647 C1648 1.366 . S
C1648 C1647 1.366 . S
C1648 C1649 1.414 . S
C1648 C1651 1.499 . S
C1649 H1623 0.950 . S
C1649 C1648 1.414 . S
C1649 C1650 1.374 . S
C1650 H1624 0.950 . S
C1650 C1646 1.385 . S
C1650 C1649 1.374 . S
C1651 C1648 1.499 . S
C1651 C1652 1.373 . S
C1651 C1653 1.389 . S
C1652 H1625 0.950 . S
C1652 C1638 1.377 . S
C1652 C1651 1.373 . S
C1653 C1637 1.377 . S
C1653 C1651 1.389 . S
C1653 C1654 1.524 . S
C1654 C1653 1.524 . S
C1654 C1655 1.397 . S
C1654 C1659 1.363 . S
C1655 H1626 0.950 . S
C1655 C1654 1.397 . S
C1655 C1656 1.334 . S
C1656 H1627 0.950 . S
C1656 C1655 1.334 . S
C1656 C1657 1.287 . S
C1657 C1656 1.287 . S
C1657 C1658 1.524 . S
C1657 H1660 0.999 . S
C1658 H1628 0.950 . S
C1658 C1657 1.524 . S
C1658 C1659 1.415 . S
C1659 H1629 0.950 . S
C1659 C1654 1.363 . S
C1659 C1658 1.415 . S
H1660 C1657 0.999 . S
H1661 C1642 0.913 . S
H1662 C1680 0.951 . S
H1663 C1682 0.951 . S
H1664 C1684 0.950 . S
H1665 C1685 0.950 . S
H1666 C1687 0.950 . S
H1667 C1690 0.950 . S
H1668 C1691 0.950 . S
H1669 C1693 0.950 . S
H1670 C1694 0.950 . S
H1671 C1695 0.951 . S
H1672 C1697 0.951 . S
H1673 C1699 0.950 . S
H1674 C1700 0.950 . S
H1675 C1702 0.950 . S
H1676 C1705 0.950 . S
H1677 C1706 0.950 . S
H1678 C1708 0.950 . S
H1679 C1709 0.950 . S
C1680 H1662 0.951 . S
C1680 C1681 1.366 . S
C1680 C1682 1.388 . S
C1681 C1680 1.366 . S
C1681 C1685 1.385 . S
C1682 H1663 0.951 . S
C1682 C1680 1.388 . S
C1682 C1683 1.366 . S
C1683 C1682 1.366 . S
C1683 C1684 1.414 . S
C1683 C1686 1.499 . S
C1684 H1664 0.950 . S
C1684 C1683 1.414 . S
C1684 C1685 1.374 . S
C1685 H1665 0.950 . S
C1685 C1681 1.385 . S
C1685 C1684 1.374 . S
C1686 C1683 1.499 . S
C1686 C1687 1.373 . S
C1686 C1688 1.389 . S
C1687 H1666 0.950 . S
C1687 C1686 1.373 . S
C1687 C1703 1.377 . S
C1688 C1686 1.389 . S
C1688 C1689 1.524 . S
C1688 C1702 1.377 . S
C1689 C1688 1.524 . S
C1689 C1690 1.397 . S
C1689 C1694 1.363 . S
C1690 H1667 0.950 . S
C1690 C1689 1.397 . S
C1690 C1691 1.334 . S
C1691 H1668 0.950 . S
C1691 C1690 1.334 . S
C1691 C1692 1.287 . S
C1692 C1691 1.287 . S
C1692 C1693 1.524 . S
C1692 H1711 0.913 . S
C1693 H1669 0.950 . S
C1693 C1692 1.524 . S
C1693 C1694 1.415 . S
C1694 H1670 0.950 . S
C1694 C1689 1.363 . S
C1694 C1693 1.415 . S
C1695 H1671 0.951 . S
C1695 C1696 1.366 . S
C1695 C1697 1.388 . S
C1696 C1695 1.366 . S
C1696 C1700 1.385 . S
C1697 H1672 0.951 . S
C1697 C1695 1.388 . S
C1697 C1698 1.366 . S
C1698 C1697 1.366 . S
C1698 C1699 1.414 . S
C1698 C1701 1.499 . S
C1699 H1673 0.950 . S
C1699 C1698 1.414 . S
C1699 C1700 1.374 . S
C1700 H1674 0.950 . S
C1700 C1696 1.385 . S
C1700 C1699 1.374 . S
C1701 C1698 1.499 . S
C1701 C1702 1.373 . S
C1701 C1703 1.389 . S
C1702 H1675 0.950 . S
C1702 C1688 1.377 . S
C1702 C1701 1.373 . S
C1703 C1687 1.377 . S
C1703 C1701 1.389 . S
C1703 C1704 1.524 . S
C1704 C1703 1.524 . S
C1704 C1705 1.397 . S
C1704 C1709 1.363 . S
C1705 H1676 0.950 . S
C1705 C1704 1.397 . S
C1705 C1706 1.334 . S
C1706 H1677 0.950 . S
C1706 C1705 1.334 . S
C1706 C1707 1.287 . S
C1707 C1706 1.287 . S
C1707 C1708 1.524 . S
C1707 H1710 0.999 . S
C1708 H1678 0.950 . S
C1708 C1707 1.524 . S
C1708 C1709 1.415 . S
C1709 H1679 0.950 . S
C1709 C1704 1.363 . S
C1709 C1708 1.415 . S
H1710 C1707 0.999 . S
H1711 C1692 0.913 . S
H1712 C1730 0.951 . S
H1713 C1732 0.951 . S
H1714 C1734 0.950 . S
H1715 C1735 0.950 . S
H1716 C1737 0.950 . S
H1717 C1740 0.950 . S
H1718 C1741 0.950 . S
H1719 C1743 0.950 . S
H1720 C1744 0.950 . S
H1721 C1745 0.951 . S
H1722 C1747 0.951 . S
H1723 C1749 0.950 . S
H1724 C1750 0.950 . S
H1725 C1752 0.950 . S
H1726 C1755 0.950 . S
H1727 C1756 0.950 . S
H1728 C1758 0.950 . S
H1729 C1759 0.950 . S
C1730 H1712 0.951 . S
C1730 C1731 1.366 . S
C1730 C1732 1.388 . S
C1731 C1730 1.366 . S
C1731 C1735 1.385 . S
C1732 H1713 0.951 . S
C1732 C1730 1.388 . S
C1732 C1733 1.366 . S
C1733 C1732 1.366 . S
C1733 C1734 1.414 . S
C1733 C1736 1.499 . S
C1734 H1714 0.950 . S
C1734 C1733 1.414 . S
C1734 C1735 1.374 . S
C1735 H1715 0.950 . S
C1735 C1731 1.385 . S
C1735 C1734 1.374 . S
C1736 C1733 1.499 . S
C1736 C1737 1.373 . S
C1736 C1738 1.389 . S
C1737 H1716 0.950 . S
C1737 C1736 1.373 . S
C1737 C1753 1.377 . S
C1738 C1736 1.389 . S
C1738 C1739 1.524 . S
C1738 C1752 1.377 . S
C1739 C1738 1.524 . S
C1739 C1740 1.397 . S
C1739 C1744 1.363 . S
C1740 H1717 0.950 . S
C1740 C1739 1.397 . S
C1740 C1741 1.334 . S
C1741 H1718 0.950 . S
C1741 C1740 1.334 . S
C1741 C1742 1.287 . S
C1742 C1741 1.287 . S
C1742 C1743 1.524 . S
C1742 H1761 0.913 . S
C1743 H1719 0.950 . S
C1743 C1742 1.524 . S
C1743 C1744 1.415 . S
C1744 H1720 0.950 . S
C1744 C1739 1.363 . S
C1744 C1743 1.415 . S
C1745 H1721 0.951 . S
C1745 C1746 1.366 . S
C1745 C1747 1.388 . S
C1746 C1745 1.366 . S
C1746 C1750 1.385 . S
C1747 H1722 0.951 . S
C1747 C1745 1.388 . S
C1747 C1748 1.366 . S
C1748 C1747 1.366 . S
C1748 C1749 1.414 . S
C1748 C1751 1.499 . S
C1749 H1723 0.950 . S
C1749 C1748 1.414 . S
C1749 C1750 1.374 . S
C1750 H1724 0.950 . S
C1750 C1746 1.385 . S
C1750 C1749 1.374 . S
C1751 C1748 1.499 . S
C1751 C1752 1.373 . S
C1751 C1753 1.389 . S
C1752 H1725 0.950 . S
C1752 C1738 1.377 . S
C1752 C1751 1.373 . S
C1753 C1737 1.377 . S
C1753 C1751 1.389 . S
C1753 C1754 1.524 . S
C1754 C1753 1.524 . S
C1754 C1755 1.397 . S
C1754 C1759 1.363 . S
C1755 H1726 0.950 . S
C1755 C1754 1.397 . S
C1755 C1756 1.334 . S
C1756 H1727 0.950 . S
C1756 C1755 1.334 . S
C1756 C1757 1.287 . S
C1757 C1756 1.287 . S
C1757 C1758 1.524 . S
C1757 H1760 0.999 . S
C1758 H1728 0.950 . S
C1758 C1757 1.524 . S
C1758 C1759 1.415 . S
C1759 H1729 0.950 . S
C1759 C1754 1.363 . S
C1759 C1758 1.415 . S
H1760 C1757 0.999 . S
H1761 C1742 0.913 . S
H1762 C1780 0.951 . S
H1763 C1782 0.951 . S
H1764 C1784 0.950 . S
H1765 C1785 0.950 . S
H1766 C1787 0.950 . S
H1767 C1790 0.950 . S
H1768 C1791 0.950 . S
H1769 C1793 0.950 . S
H1770 C1794 0.950 . S
H1771 C1795 0.951 . S
H1772 C1797 0.951 . S
H1773 C1799 0.950 . S
H1774 C1800 0.950 . S
H1775 C1802 0.950 . S
H1776 C1805 0.950 . S
H1777 C1806 0.950 . S
H1778 C1808 0.950 . S
H1779 C1809 0.950 . S
C1780 H1762 0.951 . S
C1780 C1781 1.366 . S
C1780 C1782 1.388 . S
C1781 C1780 1.366 . S
C1781 C1785 1.385 . S
C1782 H1763 0.951 . S
C1782 C1780 1.388 . S
C1782 C1783 1.366 . S
C1783 C1782 1.366 . S
C1783 C1784 1.414 . S
C1783 C1786 1.499 . S
C1784 H1764 0.950 . S
C1784 C1783 1.414 . S
C1784 C1785 1.374 . S
C1785 H1765 0.950 . S
C1785 C1781 1.385 . S
C1785 C1784 1.374 . S
C1786 C1783 1.499 . S
C1786 C1787 1.373 . S
C1786 C1788 1.389 . S
C1787 H1766 0.950 . S
C1787 C1786 1.373 . S
C1787 C1803 1.377 . S
C1788 C1786 1.389 . S
C1788 C1789 1.524 . S
C1788 C1802 1.377 . S
C1789 C1788 1.524 . S
C1789 C1790 1.397 . S
C1789 C1794 1.363 . S
C1790 H1767 0.950 . S
C1790 C1789 1.397 . S
C1790 C1791 1.334 . S
C1791 H1768 0.950 . S
C1791 C1790 1.334 . S
C1791 C1792 1.287 . S
C1792 C1791 1.287 . S
C1792 C1793 1.524 . S
C1792 H1811 0.913 . S
C1793 H1769 0.950 . S
C1793 C1792 1.524 . S
C1793 C1794 1.415 . S
C1794 H1770 0.950 . S
C1794 C1789 1.363 . S
C1794 C1793 1.415 . S
C1795 H1771 0.951 . S
C1795 C1796 1.366 . S
C1795 C1797 1.388 . S
C1796 C1795 1.366 . S
C1796 C1800 1.385 . S
C1797 H1772 0.951 . S
C1797 C1795 1.388 . S
C1797 C1798 1.366 . S
C1798 C1797 1.366 . S
C1798 C1799 1.414 . S
C1798 C1801 1.499 . S
C1799 H1773 0.950 . S
C1799 C1798 1.414 . S
C1799 C1800 1.374 . S
C1800 H1774 0.950 . S
C1800 C1796 1.385 . S
C1800 C1799 1.374 . S
C1801 C1798 1.499 . S
C1801 C1802 1.373 . S
C1801 C1803 1.389 . S
C1802 H1775 0.950 . S
C1802 C1788 1.377 . S
C1802 C1801 1.373 . S
C1803 C1787 1.377 . S
C1803 C1801 1.389 . S
C1803 C1804 1.524 . S
C1804 C1803 1.524 . S
C1804 C1805 1.397 . S
C1804 C1809 1.363 . S
C1805 H1776 0.950 . S
C1805 C1804 1.397 . S
C1805 C1806 1.334 . S
C1806 H1777 0.950 . S
C1806 C1805 1.334 . S
C1806 C1807 1.287 . S
C1807 C1806 1.287 . S
C1807 C1808 1.524 . S
C1807 H1810 0.999 . S
C1808 H1778 0.950 . S
C1808 C1807 1.524 . S
C1808 C1809 1.415 . S
C1809 H1779 0.950 . S
C1809 C1804 1.363 . S
C1809 C1808 1.415 . S
H1810 C1807 0.999 . S
H1811 C1792 0.913 . S
H1812 C1830 0.951 . S
H1813 C1832 0.951 . S
H1814 C1834 0.950 . S
H1815 C1835 0.950 . S
H1816 C1837 0.950 . S
H1817 C1840 0.950 . S
H1818 C1841 0.950 . S
H1819 C1843 0.950 . S
H1820 C1844 0.950 . S
H1821 C1845 0.951 . S
H1822 C1847 0.951 . S
H1823 C1849 0.950 . S
H1824 C1850 0.950 . S
H1825 C1852 0.950 . S
H1826 C1855 0.950 . S
H1827 C1856 0.950 . S
H1828 C1858 0.950 . S
H1829 C1859 0.950 . S
C1830 H1812 0.951 . S
C1830 C1831 1.366 . S
C1830 C1832 1.388 . S
C1831 C1830 1.366 . S
C1831 C1835 1.385 . S
C1832 H1813 0.951 . S
C1832 C1830 1.388 . S
C1832 C1833 1.366 . S
C1833 C1832 1.366 . S
C1833 C1834 1.414 . S
C1833 C1836 1.499 . S
C1834 H1814 0.950 . S
C1834 C1833 1.414 . S
C1834 C1835 1.374 . S
C1835 H1815 0.950 . S
C1835 C1831 1.385 . S
C1835 C1834 1.374 . S
C1836 C1833 1.499 . S
C1836 C1837 1.373 . S
C1836 C1838 1.389 . S
C1837 H1816 0.950 . S
C1837 C1836 1.373 . S
C1837 C1853 1.377 . S
C1838 C1836 1.389 . S
C1838 C1839 1.524 . S
C1838 C1852 1.377 . S
C1839 C1838 1.524 . S
C1839 C1840 1.397 . S
C1839 C1844 1.363 . S
C1840 H1817 0.950 . S
C1840 C1839 1.397 . S
C1840 C1841 1.334 . S
C1841 H1818 0.950 . S
C1841 C1840 1.334 . S
C1841 C1842 1.287 . S
C1842 C1841 1.287 . S
C1842 C1843 1.524 . S
C1842 H1861 0.913 . S
C1843 H1819 0.950 . S
C1843 C1842 1.524 . S
C1843 C1844 1.415 . S
C1844 H1820 0.950 . S
C1844 C1839 1.363 . S
C1844 C1843 1.415 . S
C1845 H1821 0.951 . S
C1845 C1846 1.366 . S
C1845 C1847 1.388 . S
C1846 C1845 1.366 . S
C1846 C1850 1.385 . S
C1847 H1822 0.951 . S
C1847 C1845 1.388 . S
C1847 C1848 1.366 . S
C1848 C1847 1.366 . S
C1848 C1849 1.414 . S
C1848 C1851 1.499 . S
C1849 H1823 0.950 . S
C1849 C1848 1.414 . S
C1849 C1850 1.374 . S
C1850 H1824 0.950 . S
C1850 C1846 1.385 . S
C1850 C1849 1.374 . S
C1851 C1848 1.499 . S
C1851 C1852 1.373 . S
C1851 C1853 1.389 . S
C1852 H1825 0.950 . S
C1852 C1838 1.377 . S
C1852 C1851 1.373 . S
C1853 C1837 1.377 . S
C1853 C1851 1.389 . S
C1853 C1854 1.524 . S
C1854 C1853 1.524 . S
C1854 C1855 1.397 . S
C1854 C1859 1.363 . S
C1855 H1826 0.950 . S
C1855 C1854 1.397 . S
C1855 C1856 1.334 . S
C1856 H1827 0.950 . S
C1856 C1855 1.334 . S
C1856 C1857 1.287 . S
C1857 C1856 1.287 . S
C1857 C1858 1.524 . S
C1857 H1860 0.999 . S
C1858 H1828 0.950 . S
C1858 C1857 1.524 . S
C1858 C1859 1.415 . S
C1859 H1829 0.950 . S
C1859 C1854 1.363 . S
C1859 C1858 1.415 . S
H1860 C1857 0.999 . S
H1861 C1842 0.913 . S
H1862 C1880 0.951 . S
H1863 C1882 0.951 . S
H1864 C1884 0.950 . S
H1865 C1885 0.950 . S
H1866 C1887 0.950 . S
H1867 C1890 0.950 . S
H1868 C1891 0.950 . S
H1869 C1893 0.950 . S
H1870 C1894 0.950 . S
H1871 C1895 0.951 . S
H1872 C1897 0.951 . S
H1873 C1899 0.950 . S
H1874 C1900 0.950 . S
H1875 C1902 0.950 . S
H1876 C1905 0.950 . S
H1877 C1906 0.950 . S
H1878 C1908 0.950 . S
H1879 C1909 0.950 . S
C1880 H1862 0.951 . S
C1880 C1881 1.366 . S
C1880 C1882 1.388 . S
C1881 C1880 1.366 . S
C1881 C1885 1.385 . S
C1882 H1863 0.951 . S
C1882 C1880 1.388 . S
C1882 C1883 1.366 . S
C1883 C1882 1.366 . S
C1883 C1884 1.414 . S
C1883 C1886 1.499 . S
C1884 H1864 0.950 . S
C1884 C1883 1.414 . S
C1884 C1885 1.374 . S
C1885 H1865 0.950 . S
C1885 C1881 1.385 . S
C1885 C1884 1.374 . S
C1886 C1883 1.499 . S
C1886 C1887 1.373 . S
C1886 C1888 1.389 . S
C1887 H1866 0.950 . S
C1887 C1886 1.373 . S
C1887 C1903 1.377 . S
C1888 C1886 1.389 . S
C1888 C1889 1.524 . S
C1888 C1902 1.377 . S
C1889 C1888 1.524 . S
C1889 C1890 1.397 . S
C1889 C1894 1.363 . S
C1890 H1867 0.950 . S
C1890 C1889 1.397 . S
C1890 C1891 1.334 . S
C1891 H1868 0.950 . S
C1891 C1890 1.334 . S
C1891 C1892 1.287 . S
C1892 C1891 1.287 . S
C1892 C1893 1.524 . S
C1892 H1911 0.913 . S
C1893 H1869 0.950 . S
C1893 C1892 1.524 . S
C1893 C1894 1.415 . S
C1894 H1870 0.950 . S
C1894 C1889 1.363 . S
C1894 C1893 1.415 . S
C1895 H1871 0.951 . S
C1895 C1896 1.366 . S
C1895 C1897 1.388 . S
C1896 C1895 1.366 . S
C1896 C1900 1.385 . S
C1897 H1872 0.951 . S
C1897 C1895 1.388 . S
C1897 C1898 1.366 . S
C1898 C1897 1.366 . S
C1898 C1899 1.414 . S
C1898 C1901 1.499 . S
C1899 H1873 0.950 . S
C1899 C1898 1.414 . S
C1899 C1900 1.374 . S
C1900 H1874 0.950 . S
C1900 C1896 1.385 . S
C1900 C1899 1.374 . S
C1901 C1898 1.499 . S
C1901 C1902 1.373 . S
C1901 C1903 1.389 . S
C1902 H1875 0.950 . S
C1902 C1888 1.377 . S
C1902 C1901 1.373 . S
C1903 C1887 1.377 . S
C1903 C1901 1.389 . S
C1903 C1904 1.524 . S
C1904 C1903 1.524 . S
C1904 C1905 1.397 . S
C1904 C1909 1.363 . S
C1905 H1876 0.950 . S
C1905 C1904 1.397 . S
C1905 C1906 1.334 . S
C1906 H1877 0.950 . S
C1906 C1905 1.334 . S
C1906 C1907 1.287 . S
C1907 C1906 1.287 . S
C1907 C1908 1.524 . S
C1907 H1910 0.999 . S
C1908 H1878 0.950 . S
C1908 C1907 1.524 . S
C1908 C1909 1.415 . S
C1909 H1879 0.950 . S
C1909 C1904 1.363 . S
C1909 C1908 1.415 . S
H1910 C1907 0.999 . S
H1911 C1892 0.913 . S
H1912 C1930 0.951 . S
H1913 C1932 0.951 . S
H1914 C1934 0.950 . S
H1915 C1935 0.950 . S
H1916 C1937 0.950 . S
H1917 C1940 0.950 . S
H1918 C1941 0.950 . S
H1919 C1943 0.950 . S
H1920 C1944 0.950 . S
H1921 C1945 0.951 . S
H1922 C1947 0.951 . S
H1923 C1949 0.950 . S
H1924 C1950 0.950 . S
H1925 C1952 0.950 . S
H1926 C1955 0.950 . S
H1927 C1956 0.950 . S
H1928 C1958 0.950 . S
H1929 C1959 0.950 . S
C1930 H1912 0.951 . S
C1930 C1931 1.366 . S
C1930 C1932 1.388 . S
C1931 C1930 1.366 . S
C1931 C1935 1.385 . S
C1932 H1913 0.951 . S
C1932 C1930 1.388 . S
C1932 C1933 1.366 . S
C1933 C1932 1.366 . S
C1933 C1934 1.414 . S
C1933 C1936 1.499 . S
C1934 H1914 0.950 . S
C1934 C1933 1.414 . S
C1934 C1935 1.374 . S
C1935 H1915 0.950 . S
C1935 C1931 1.385 . S
C1935 C1934 1.374 . S
C1936 C1933 1.499 . S
C1936 C1937 1.373 . S
C1936 C1938 1.389 . S
C1937 H1916 0.950 . S
C1937 C1936 1.373 . S
C1937 C1953 1.377 . S
C1938 C1936 1.389 . S
C1938 C1939 1.524 . S
C1938 C1952 1.377 . S
C1939 C1938 1.524 . S
C1939 C1940 1.397 . S
C1939 C1944 1.363 . S
C1940 H1917 0.950 . S
C1940 C1939 1.397 . S
C1940 C1941 1.334 . S
C1941 H1918 0.950 . S
C1941 C1940 1.334 . S
C1941 C1942 1.287 . S
C1942 C1941 1.287 . S
C1942 C1943 1.524 . S
C1942 H1961 0.913 . S
C1943 H1919 0.950 . S
C1943 C1942 1.524 . S
C1943 C1944 1.415 . S
C1944 H1920 0.950 . S
C1944 C1939 1.363 . S
C1944 C1943 1.415 . S
C1945 H1921 0.951 . S
C1945 C1946 1.366 . S
C1945 C1947 1.388 . S
C1946 C1945 1.366 . S
C1946 C1950 1.385 . S
C1947 H1922 0.951 . S
C1947 C1945 1.388 . S
C1947 C1948 1.366 . S
C1948 C1947 1.366 . S
C1948 C1949 1.414 . S
C1948 C1951 1.499 . S
C1949 H1923 0.950 . S
C1949 C1948 1.414 . S
C1949 C1950 1.374 . S
C1950 H1924 0.950 . S
C1950 C1946 1.385 . S
C1950 C1949 1.374 . S
C1951 C1948 1.499 . S
C1951 C1952 1.373 . S
C1951 C1953 1.389 . S
C1952 H1925 0.950 . S
C1952 C1938 1.377 . S
C1952 C1951 1.373 . S
C1953 C1937 1.377 . S
C1953 C1951 1.389 . S
C1953 C1954 1.524 . S
C1954 C1953 1.524 . S
C1954 C1955 1.397 . S
C1954 C1959 1.363 . S
C1955 H1926 0.950 . S
C1955 C1954 1.397 . S
C1955 C1956 1.334 . S
C1956 H1927 0.950 . S
C1956 C1955 1.334 . S
C1956 C1957 1.287 . S
C1957 C1956 1.287 . S
C1957 C1958 1.524 . S
C1957 H1960 0.999 . S
C1958 H1928 0.950 . S
C1958 C1957 1.524 . S
C1958 C1959 1.415 . S
C1959 H1929 0.950 . S
C1959 C1954 1.363 . S
C1959 C1958 1.415 . S
H1960 C1957 0.999 . S
H1961 C1942 0.913 . S
H1962 C1980 0.951 . S
H1963 C1982 0.951 . S
H1964 C1984 0.950 . S
H1965 C1985 0.950 . S
H1966 C1987 0.950 . S
H1967 C1990 0.950 . S
H1968 C1991 0.950 . S
H1969 C1993 0.950 . S
H1970 C1994 0.950 . S
H1971 C1995 0.951 . S
H1972 C1997 0.951 . S
H1973 C1999 0.950 . S
H1974 C2000 0.950 . S
H1975 C2002 0.950 . S
H1976 C2005 0.950 . S
H1977 C2006 0.950 . S
H1978 C2008 0.950 . S
H1979 C2009 0.950 . S
C1980 H1962 0.951 . S
C1980 C1981 1.366 . S
C1980 C1982 1.388 . S
C1981 C1980 1.366 . S
C1981 C1985 1.385 . S
C1982 H1963 0.951 . S
C1982 C1980 1.388 . S
C1982 C1983 1.366 . S
C1983 C1982 1.366 . S
C1983 C1984 1.414 . S
C1983 C1986 1.499 . S
C1984 H1964 0.950 . S
C1984 C1983 1.414 . S
C1984 C1985 1.374 . S
C1985 H1965 0.950 . S
C1985 C1981 1.385 . S
C1985 C1984 1.374 . S
C1986 C1983 1.499 . S
C1986 C1987 1.373 . S
C1986 C1988 1.389 . S
C1987 H1966 0.950 . S
C1987 C1986 1.373 . S
C1987 C2003 1.377 . S
C1988 C1986 1.389 . S
C1988 C1989 1.524 . S
C1988 C2002 1.377 . S
C1989 C1988 1.524 . S
C1989 C1990 1.397 . S
C1989 C1994 1.363 . S
C1990 H1967 0.950 . S
C1990 C1989 1.397 . S
C1990 C1991 1.334 . S
C1991 H1968 0.950 . S
C1991 C1990 1.334 . S
C1991 C1992 1.287 . S
C1992 C1991 1.287 . S
C1992 C1993 1.524 . S
C1992 H2011 0.913 . S
C1993 H1969 0.950 . S
C1993 C1992 1.524 . S
C1993 C1994 1.415 . S
C1994 H1970 0.950 . S
C1994 C1989 1.363 . S
C1994 C1993 1.415 . S
C1995 H1971 0.951 . S
C1995 C1996 1.366 . S
C1995 C1997 1.388 . S
C1996 C1995 1.366 . S
C1996 C2000 1.385 . S
C1997 H1972 0.951 . S
C1997 C1995 1.388 . S
C1997 C1998 1.366 . S
C1998 C1997 1.366 . S
C1998 C1999 1.414 . S
C1998 C2001 1.499 . S
C1999 H1973 0.950 . S
C1999 C1998 1.414 . S
C1999 C2000 1.374 . S
C2000 H1974 0.950 . S
C2000 C1996 1.385 . S
C2000 C1999 1.374 . S
C2001 C1998 1.499 . S
C2001 C2002 1.373 . S
C2001 C2003 1.389 . S
C2002 H1975 0.950 . S
C2002 C1988 1.377 . S
C2002 C2001 1.373 . S
C2003 C1987 1.377 . S
C2003 C2001 1.389 . S
C2003 C2004 1.524 . S
C2004 C2003 1.524 . S
C2004 C2005 1.397 . S
C2004 C2009 1.363 . S
C2005 H1976 0.950 . S
C2005 C2004 1.397 . S
C2005 C2006 1.334 . S
C2006 H1977 0.950 . S
C2006 C2005 1.334 . S
C2006 C2007 1.287 . S
C2007 C2006 1.287 . S
C2007 C2008 1.524 . S
C2007 H2010 0.999 . S
C2008 H1978 0.950 . S
C2008 C2007 1.524 . S
C2008 C2009 1.415 . S
C2009 H1979 0.950 . S
C2009 C2004 1.363 . S
C2009 C2008 1.415 . S
H2010 C2007 0.999 . S
H2011 C1992 0.913 . S
H2012 C2030 0.951 . S
H2013 C2032 0.951 . S
H2014 C2034 0.950 . S
H2015 C2035 0.950 . S
H2016 C2037 0.950 . S
H2017 C2040 0.950 . S
H2018 C2041 0.950 . S
H2019 C2043 0.950 . S
H2020 C2044 0.950 . S
H2021 C2045 0.951 . S
H2022 C2047 0.951 . S
H2023 C2049 0.950 . S
H2024 C2050 0.950 . S
H2025 C2052 0.950 . S
H2026 C2055 0.950 . S
H2027 C2056 0.950 . S
H2028 C2058 0.950 . S
H2029 C2059 0.950 . S
C2030 H2012 0.951 . S
C2030 C2031 1.366 . S
C2030 C2032 1.388 . S
C2031 C2030 1.366 . S
C2031 C2035 1.385 . S
C2032 H2013 0.951 . S
C2032 C2030 1.388 . S
C2032 C2033 1.366 . S
C2033 C2032 1.366 . S
C2033 C2034 1.414 . S
C2033 C2036 1.499 . S
C2034 H2014 0.950 . S
C2034 C2033 1.414 . S
C2034 C2035 1.374 . S
C2035 H2015 0.950 . S
C2035 C2031 1.385 . S
C2035 C2034 1.374 . S
C2036 C2033 1.499 . S
C2036 C2037 1.373 . S
C2036 C2038 1.389 . S
C2037 H2016 0.950 . S
C2037 C2036 1.373 . S
C2037 C2053 1.377 . S
C2038 C2036 1.389 . S
C2038 C2039 1.524 . S
C2038 C2052 1.377 . S
C2039 C2038 1.524 . S
C2039 C2040 1.397 . S
C2039 C2044 1.363 . S
C2040 H2017 0.950 . S
C2040 C2039 1.397 . S
C2040 C2041 1.334 . S
C2041 H2018 0.950 . S
C2041 C2040 1.334 . S
C2041 C2042 1.287 . S
C2042 C2041 1.287 . S
C2042 C2043 1.524 . S
C2042 H2061 0.913 . S
C2043 H2019 0.950 . S
C2043 C2042 1.524 . S
C2043 C2044 1.415 . S
C2044 H2020 0.950 . S
C2044 C2039 1.363 . S
C2044 C2043 1.415 . S
C2045 H2021 0.951 . S
C2045 C2046 1.366 . S
C2045 C2047 1.388 . S
C2046 C2045 1.366 . S
C2046 C2050 1.385 . S
C2047 H2022 0.951 . S
C2047 C2045 1.388 . S
C2047 C2048 1.366 . S
C2048 C2047 1.366 . S
C2048 C2049 1.414 . S
C2048 C2051 1.499 . S
C2049 H2023 0.950 . S
C2049 C2048 1.414 . S
C2049 C2050 1.374 . S
C2050 H2024 0.950 . S
C2050 C2046 1.385 . S
C2050 C2049 1.374 . S
C2051 C2048 1.499 . S
C2051 C2052 1.373 . S
C2051 C2053 1.389 . S
C2052 H2025 0.950 . S
C2052 C2038 1.377 . S
C2052 C2051 1.373 . S
C2053 C2037 1.377 . S
C2053 C2051 1.389 . S
C2053 C2054 1.524 . S
C2054 C2053 1.524 . S
C2054 C2055 1.397 . S
C2054 C2059 1.363 . S
C2055 H2026 0.950 . S
C2055 C2054 1.397 . S
C2055 C2056 1.334 . S
C2056 H2027 0.950 . S
C2056 C2055 1.334 . S
C2056 C2057 1.287 . S
C2057 C2056 1.287 . S
C2057 C2058 1.524 . S
C2057 H2060 0.999 . S
C2058 H2028 0.950 . S
C2058 C2057 1.524 . S
C2058 C2059 1.415 . S
C2059 H2029 0.950 . S
C2059 C2054 1.363 . S
C2059 C2058 1.415 . S
H2060 C2057 0.999 . S
H2061 C2042 0.913 . S
H2062 C2080 0.951 . S
H2063 C2082 0.951 . S
H2064 C2084 0.950 . S
H2065 C2085 0.950 . S
H2066 C2087 0.950 . S
H2067 C2090 0.950 . S
H2068 C2091 0.950 . S
H2069 C2093 0.950 . S
H2070 C2094 0.950 . S
H2071 C2095 0.951 . S
H2072 C2097 0.951 . S
H2073 C2099 0.950 . S
H2074 C2100 0.950 . S
H2075 C2102 0.950 . S
H2076 C2105 0.950 . S
H2077 C2106 0.950 . S
H2078 C2108 0.950 . S
H2079 C2109 0.950 . S
C2080 H2062 0.951 . S
C2080 C2081 1.366 . S
C2080 C2082 1.388 . S
C2081 C2080 1.366 . S
C2081 C2085 1.385 . S
C2082 H2063 0.951 . S
C2082 C2080 1.388 . S
C2082 C2083 1.366 . S
C2083 C2082 1.366 . S
C2083 C2084 1.414 . S
C2083 C2086 1.499 . S
C2084 H2064 0.950 . S
C2084 C2083 1.414 . S
C2084 C2085 1.374 . S
C2085 H2065 0.950 . S
C2085 C2081 1.385 . S
C2085 C2084 1.374 . S
C2086 C2083 1.499 . S
C2086 C2087 1.373 . S
C2086 C2088 1.389 . S
C2087 H2066 0.950 . S
C2087 C2086 1.373 . S
C2087 C2103 1.377 . S
C2088 C2086 1.389 . S
C2088 C2089 1.524 . S
C2088 C2102 1.377 . S
C2089 C2088 1.524 . S
C2089 C2090 1.397 . S
C2089 C2094 1.363 . S
C2090 H2067 0.950 . S
C2090 C2089 1.397 . S
C2090 C2091 1.334 . S
C2091 H2068 0.950 . S
C2091 C2090 1.334 . S
C2091 C2092 1.287 . S
C2092 C2091 1.287 . S
C2092 C2093 1.524 . S
C2092 H2111 0.913 . S
C2093 H2069 0.950 . S
C2093 C2092 1.524 . S
C2093 C2094 1.415 . S
C2094 H2070 0.950 . S
C2094 C2089 1.363 . S
C2094 C2093 1.415 . S
C2095 H2071 0.951 . S
C2095 C2096 1.366 . S
C2095 C2097 1.388 . S
C2096 C2095 1.366 . S
C2096 C2100 1.385 . S
C2097 H2072 0.951 . S
C2097 C2095 1.388 . S
C2097 C2098 1.366 . S
C2098 C2097 1.366 . S
C2098 C2099 1.414 . S
C2098 C2101 1.499 . S
C2099 H2073 0.950 . S
C2099 C2098 1.414 . S
C2099 C2100 1.374 . S
C2100 H2074 0.950 . S
C2100 C2096 1.385 . S
C2100 C2099 1.374 . S
C2101 C2098 1.499 . S
C2101 C2102 1.373 . S
C2101 C2103 1.389 . S
C2102 H2075 0.950 . S
C2102 C2088 1.377 . S
C2102 C2101 1.373 . S
C2103 C2087 1.377 . S
C2103 C2101 1.389 . S
C2103 C2104 1.524 . S
C2104 C2103 1.524 . S
C2104 C2105 1.397 . S
C2104 C2109 1.363 . S
C2105 H2076 0.950 . S
C2105 C2104 1.397 . S
C2105 C2106 1.334 . S
C2106 H2077 0.950 . S
C2106 C2105 1.334 . S
C2106 C2107 1.287 . S
C2107 C2106 1.287 . S
C2107 C2108 1.524 . S
C2107 H2110 0.999 . S
C2108 H2078 0.950 . S
C2108 C2107 1.524 . S
C2108 C2109 1.415 . S
C2109 H2079 0.950 . S
C2109 C2104 1.363 . S
C2109 C2108 1.415 . S
H2110 C2107 0.999 . S
H2111 C2092 0.913 . S
H2112 C2130 0.951 . S
H2113 C2132 0.951 . S
H2114 C2134 0.950 . S
H2115 C2135 0.950 . S
H2116 C2137 0.950 . S
H2117 C2140 0.950 . S
H2118 C2141 0.950 . S
H2119 C2143 0.950 . S
H2120 C2144 0.950 . S
H2121 C2145 0.951 . S
H2122 C2147 0.951 . S
H2123 C2149 0.950 . S
H2124 C2150 0.950 . S
H2125 C2152 0.950 . S
H2126 C2155 0.950 . S
H2127 C2156 0.950 . S
H2128 C2158 0.950 . S
H2129 C2159 0.950 . S
C2130 H2112 0.951 . S
C2130 C2131 1.366 . S
C2130 C2132 1.388 . S
C2131 C2130 1.366 . S
C2131 C2135 1.385 . S
C2132 H2113 0.951 . S
C2132 C2130 1.388 . S
C2132 C2133 1.366 . S
C2133 C2132 1.366 . S
C2133 C2134 1.414 . S
C2133 C2136 1.499 . S
C2134 H2114 0.950 . S
C2134 C2133 1.414 . S
C2134 C2135 1.374 . S
C2135 H2115 0.950 . S
C2135 C2131 1.385 . S
C2135 C2134 1.374 . S
C2136 C2133 1.499 . S
C2136 C2137 1.373 . S
C2136 C2138 1.389 . S
C2137 H2116 0.950 . S
C2137 C2136 1.373 . S
C2137 C2153 1.377 . S
C2138 C2136 1.389 . S
C2138 C2139 1.524 . S
C2138 C2152 1.377 . S
C2139 C2138 1.524 . S
C2139 C2140 1.397 . S
C2139 C2144 1.363 . S
C2140 H2117 0.950 . S
C2140 C2139 1.397 . S
C2140 C2141 1.334 . S
C2141 H2118 0.950 . S
C2141 C2140 1.334 . S
C2141 C2142 1.287 . S
C2142 C2141 1.287 . S
C2142 C2143 1.524 . S
C2142 H2161 0.913 . S
C2143 H2119 0.950 . S
C2143 C2142 1.524 . S
C2143 C2144 1.415 . S
C2144 H2120 0.950 . S
C2144 C2139 1.363 . S
C2144 C2143 1.415 . S
C2145 H2121 0.951 . S
C2145 C2146 1.366 . S
C2145 C2147 1.388 . S
C2146 C2145 1.366 . S
C2146 C2150 1.385 . S
C2147 H2122 0.951 . S
C2147 C2145 1.388 . S
C2147 C2148 1.366 . S
C2148 C2147 1.366 . S
C2148 C2149 1.414 . S
C2148 C2151 1.499 . S
C2149 H2123 0.950 . S
C2149 C2148 1.414 . S
C2149 C2150 1.374 . S
C2150 H2124 0.950 . S
C2150 C2146 1.385 . S
C2150 C2149 1.374 . S
C2151 C2148 1.499 . S
C2151 C2152 1.373 . S
C2151 C2153 1.389 . S
C2152 H2125 0.950 . S
C2152 C2138 1.377 . S
C2152 C2151 1.373 . S
C2153 C2137 1.377 . S
C2153 C2151 1.389 . S
C2153 C2154 1.524 . S
C2154 C2153 1.524 . S
C2154 C2155 1.397 . S
C2154 C2159 1.363 . S
C2155 H2126 0.950 . S
C2155 C2154 1.397 . S
C2155 C2156 1.334 . S
C2156 H2127 0.950 . S
C2156 C2155 1.334 . S
C2156 C2157 1.287 . S
C2157 C2156 1.287 . S
C2157 C2158 1.524 . S
C2157 H2160 0.999 . S
C2158 H2128 0.950 . S
C2158 C2157 1.524 . S
C2158 C2159 1.415 . S
C2159 H2129 0.950 . S
C2159 C2154 1.363 . S
C2159 C2158 1.415 . S
H2160 C2157 0.999 . S
H2161 C2142 0.913 . S
H2162 C2180 0.951 . S
H2163 C2182 0.951 . S
H2164 C2184 0.950 . S
H2165 C2185 0.950 . S
H2166 C2187 0.950 . S
H2167 C2190 0.950 . S
H2168 C2191 0.950 . S
H2169 C2193 0.950 . S
H2170 C2194 0.950 . S
H2171 C2195 0.951 . S
H2172 C2197 0.951 . S
H2173 C2199 0.950 . S
H2174 C2200 0.950 . S
H2175 C2202 0.950 . S
H2176 C2205 0.950 . S
H2177 C2206 0.950 . S
H2178 C2208 0.950 . S
H2179 C2209 0.950 . S
C2180 H2162 0.951 . S
C2180 C2181 1.366 . S
C2180 C2182 1.388 . S
C2181 C2180 1.366 . S
C2181 C2185 1.385 . S
C2182 H2163 0.951 . S
C2182 C2180 1.388 . S
C2182 C2183 1.366 . S
C2183 C2182 1.366 . S
C2183 C2184 1.414 . S
C2183 C2186 1.499 . S
C2184 H2164 0.950 . S
C2184 C2183 1.414 . S
C2184 C2185 1.374 . S
C2185 H2165 0.950 . S
C2185 C2181 1.385 . S
C2185 C2184 1.374 . S
C2186 C2183 1.499 . S
C2186 C2187 1.373 . S
C2186 C2188 1.389 . S
C2187 H2166 0.950 . S
C2187 C2186 1.373 . S
C2187 C2203 1.377 . S
C2188 C2186 1.389 . S
C2188 C2189 1.524 . S
C2188 C2202 1.377 . S
C2189 C2188 1.524 . S
C2189 C2190 1.397 . S
C2189 C2194 1.363 . S
C2190 H2167 0.950 . S
C2190 C2189 1.397 . S
C2190 C2191 1.334 . S
C2191 H2168 0.950 . S
C2191 C2190 1.334 . S
C2191 C2192 1.287 . S
C2192 C2191 1.287 . S
C2192 C2193 1.524 . S
C2192 H2211 0.913 . S
C2193 H2169 0.950 . S
C2193 C2192 1.524 . S
C2193 C2194 1.415 . S
C2194 H2170 0.950 . S
C2194 C2189 1.363 . S
C2194 C2193 1.415 . S
C2195 H2171 0.951 . S
C2195 C2196 1.366 . S
C2195 C2197 1.388 . S
C2196 C2195 1.366 . S
C2196 C2200 1.385 . S
C2197 H2172 0.951 . S
C2197 C2195 1.388 . S
C2197 C2198 1.366 . S
C2198 C2197 1.366 . S
C2198 C2199 1.414 . S
C2198 C2201 1.499 . S
C2199 H2173 0.950 . S
C2199 C2198 1.414 . S
C2199 C2200 1.374 . S
C2200 H2174 0.950 . S
C2200 C2196 1.385 . S
C2200 C2199 1.374 . S
C2201 C2198 1.499 . S
C2201 C2202 1.373 . S
C2201 C2203 1.389 . S
C2202 H2175 0.950 . S
C2202 C2188 1.377 . S
C2202 C2201 1.373 . S
C2203 C2187 1.377 . S
C2203 C2201 1.389 . S
C2203 C2204 1.524 . S
C2204 C2203 1.524 . S
C2204 C2205 1.397 . S
C2204 C2209 1.363 . S
C2205 H2176 0.950 . S
C2205 C2204 1.397 . S
C2205 C2206 1.334 . S
C2206 H2177 0.950 . S
C2206 C2205 1.334 . S
C2206 C2207 1.287 . S
C2207 C2206 1.287 . S
C2207 C2208 1.524 . S
C2207 H2210 0.999 . S
C2208 H2178 0.950 . S
C2208 C2207 1.524 . S
C2208 C2209 1.415 . S
C2209 H2179 0.950 . S
C2209 C2204 1.363 . S
C2209 C2208 1.415 . S
H2210 C2207 0.999 . S
H2211 C2192 0.913 . S
H2212 C2230 0.951 . S
H2213 C2232 0.951 . S
H2214 C2234 0.950 . S
H2215 C2235 0.950 . S
H2216 C2237 0.950 . S
H2217 C2240 0.950 . S
H2218 C2241 0.950 . S
H2219 C2243 0.950 . S
H2220 C2244 0.950 . S
H2221 C2245 0.951 . S
H2222 C2247 0.951 . S
H2223 C2249 0.950 . S
H2224 C2250 0.950 . S
H2225 C2252 0.950 . S
H2226 C2255 0.950 . S
H2227 C2256 0.950 . S
H2228 C2258 0.950 . S
H2229 C2259 0.950 . S
C2230 H2212 0.951 . S
C2230 C2231 1.366 . S
C2230 C2232 1.388 . S
C2231 C2230 1.366 . S
C2231 C2235 1.385 . S
C2232 H2213 0.951 . S
C2232 C2230 1.388 . S
C2232 C2233 1.366 . S
C2233 C2232 1.366 . S
C2233 C2234 1.414 . S
C2233 C2236 1.499 . S
C2234 H2214 0.950 . S
C2234 C2233 1.414 . S
C2234 C2235 1.374 . S
C2235 H2215 0.950 . S
C2235 C2231 1.385 . S
C2235 C2234 1.374 . S
C2236 C2233 1.499 . S
C2236 C2237 1.373 . S
C2236 C2238 1.389 . S
C2237 H2216 0.950 . S
C2237 C2236 1.373 . S
C2237 C2253 1.377 . S
C2238 C2236 1.389 . S
C2238 C2239 1.524 . S
C2238 C2252 1.377 . S
C2239 C2238 1.524 . S
C2239 C2240 1.397 . S
C2239 C2244 1.363 . S
C2240 H2217 0.950 . S
C2240 C2239 1.397 . S
C2240 C2241 1.334 . S
C2241 H2218 0.950 . S
C2241 C2240 1.334 . S
C2241 C2242 1.287 . S
C2242 C2241 1.287 . S
C2242 C2243 1.524 . S
C2242 H2261 0.913 . S
C2243 H2219 0.950 . S
C2243 C2242 1.524 . S
C2243 C2244 1.415 . S
C2244 H2220 0.950 . S
C2244 C2239 1.363 . S
C2244 C2243 1.415 . S
C2245 H2221 0.951 . S
C2245 C2246 1.366 . S
C2245 C2247 1.388 . S
C2246 C2245 1.366 . S
C2246 C2250 1.385 . S
C2247 H2222 0.951 . S
C2247 C2245 1.388 . S
C2247 C2248 1.366 . S
C2248 C2247 1.366 . S
C2248 C2249 1.414 . S
C2248 C2251 1.499 . S
C2249 H2223 0.950 . S
C2249 C2248 1.414 . S
C2249 C2250 1.374 . S
C2250 H2224 0.950 . S
C2250 C2246 1.385 . S
C2250 C2249 1.374 . S
C2251 C2248 1.499 . S
C2251 C2252 1.373 . S
C2251 C2253 1.389 . S
C2252 H2225 0.950 . S
C2252 C2238 1.377 . S
C2252 C2251 1.373 . S
C2253 C2237 1.377 . S
C2253 C2251 1.389 . S
C2253 C2254 1.524 . S
C2254 C2253 1.524 . S
C2254 C2255 1.397 . S
C2254 C2259 1.363 . S
C2255 H2226 0.950 . S
C2255 C2254 1.397 . S
C2255 C2256 1.334 . S
C2256 H2227 0.950 . S
C2256 C2255 1.334 . S
C2256 C2257 1.287 . S
C2257 C2256 1.287 . S
C2257 C2258 1.524 . S
C2257 H2260 0.999 . S
C2258 H2228 0.950 . S
C2258 C2257 1.524 . S
C2258 C2259 1.415 . S
C2259 H2229 0.950 . S
C2259 C2254 1.363 . S
C2259 C2258 1.415 . S
H2260 C2257 0.999 . S
H2261 C2242 0.913 . S
H2262 C2280 0.951 . S
H2263 C2282 0.951 . S
H2264 C2284 0.950 . S
H2265 C2285 0.950 . S
H2266 C2287 0.950 . S
H2267 C2290 0.950 . S
H2268 C2291 0.950 . S
H2269 C2293 0.950 . S
H2270 C2294 0.950 . S
H2271 C2295 0.951 . S
H2272 C2297 0.951 . S
H2273 C2299 0.950 . S
H2274 C2300 0.950 . S
H2275 C2302 0.950 . S
H2276 C2305 0.950 . S
H2277 C2306 0.950 . S
H2278 C2308 0.950 . S
H2279 C2309 0.950 . S
C2280 H2262 0.951 . S
C2280 C2281 1.366 . S
C2280 C2282 1.388 . S
C2281 C2280 1.366 . S
C2281 C2285 1.385 . S
C2282 H2263 0.951 . S
C2282 C2280 1.388 . S
C2282 C2283 1.366 . S
C2283 C2282 1.366 . S
C2283 C2284 1.414 . S
C2283 C2286 1.499 . S
C2284 H2264 0.950 . S
C2284 C2283 1.414 . S
C2284 C2285 1.374 . S
C2285 H2265 0.950 . S
C2285 C2281 1.385 . S
C2285 C2284 1.374 . S
C2286 C2283 1.499 . S
C2286 C2287 1.373 . S
C2286 C2288 1.389 . S
C2287 H2266 0.950 . S
C2287 C2286 1.373 . S
C2287 C2303 1.377 . S
C2288 C2286 1.389 . S
C2288 C2289 1.524 . S
C2288 C2302 1.377 . S
C2289 C2288 1.524 . S
C2289 C2290 1.397 . S
C2289 C2294 1.363 . S
C2290 H2267 0.950 . S
C2290 C2289 1.397 . S
C2290 C2291 1.334 . S
C2291 H2268 0.950 . S
C2291 C2290 1.334 . S
C2291 C2292 1.287 . S
C2292 C2291 1.287 . S
C2292 C2293 1.524 . S
C2292 H2311 0.913 . S
C2293 H2269 0.950 . S
C2293 C2292 1.524 . S
C2293 C2294 1.415 . S
C2294 H2270 0.950 . S
C2294 C2289 1.363 . S
C2294 C2293 1.415 . S
C2295 H2271 0.951 . S
C2295 C2296 1.366 . S
C2295 C2297 1.388 . S
C2296 C2295 1.366 . S
C2296 C2300 1.385 . S
C2297 H2272 0.951 . S
C2297 C2295 1.388 . S
C2297 C2298 1.366 . S
C2298 C2297 1.366 . S
C2298 C2299 1.414 . S
C2298 C2301 1.499 . S
C2299 H2273 0.950 . S
C2299 C2298 1.414 . S
C2299 C2300 1.374 . S
C2300 H2274 0.950 . S
C2300 C2296 1.385 . S
C2300 C2299 1.374 . S
C2301 C2298 1.499 . S
C2301 C2302 1.373 . S
C2301 C2303 1.389 . S
C2302 H2275 0.950 . S
C2302 C2288 1.377 . S
C2302 C2301 1.373 . S
C2303 C2287 1.377 . S
C2303 C2301 1.389 . S
C2303 C2304 1.524 . S
C2304 C2303 1.524 . S
C2304 C2305 1.397 . S
C2304 C2309 1.363 . S
C2305 H2276 0.950 . S
C2305 C2304 1.397 . S
C2305 C2306 1.334 . S
C2306 H2277 0.950 . S
C2306 C2305 1.334 . S
C2306 C2307 1.287 . S
C2307 C2306 1.287 . S
C2307 C2308 1.524 . S
C2307 H2310 0.999 . S
C2308 H2278 0.950 . S
C2308 C2307 1.524 . S
C2308 C2309 1.415 . S
C2309 H2279 0.950 . S
C2309 C2304 1.363 . S
C2309 C2308 1.415 . S
H2310 C2307 0.999 . S
H2311 C2292 0.913 . S
H2312 C2330 0.951 . S
H2313 C2332 0.951 . S
H2314 C2334 0.950 . S
H2315 C2335 0.950 . S
H2316 C2337 0.950 . S
H2317 C2340 0.950 . S
H2318 C2341 0.950 . S
H2319 C2343 0.950 . S
H2320 C2344 0.950 . S
H2321 C2345 0.951 . S
H2322 C2347 0.951 . S
H2323 C2349 0.950 . S
H2324 C2350 0.950 . S
H2325 C2352 0.950 . S
H2326 C2355 0.950 . S
H2327 C2356 0.950 . S
H2328 C2358 0.950 . S
H2329 C2359 0.950 . S
C2330 H2312 0.951 . S
C2330 C2331 1.366 . S
C2330 C2332 1.388 . S
C2331 C2330 1.366 . S
C2331 C2335 1.385 . S
C2332 H2313 0.951 . S
C2332 C2330 1.388 . S
C2332 C2333 1.366 . S
C2333 C2332 1.366 . S
C2333 C2334 1.414 . S
C2333 C2336 1.499 . S
C2334 H2314 0.950 . S
C2334 C2333 1.414 . S
C2334 C2335 1.374 . S
C2335 H2315 0.950 . S
C2335 C2331 1.385 . S
C2335 C2334 1.374 . S
C2336 C2333 1.499 . S
C2336 C2337 1.373 . S
C2336 C2338 1.389 . S
C2337 H2316 0.950 . S
C2337 C2336 1.373 . S
C2337 C2353 1.377 . S
C2338 C2336 1.389 . S
C2338 C2339 1.524 . S
C2338 C2352 1.377 . S
C2339 C2338 1.524 . S
C2339 C2340 1.397 . S
C2339 C2344 1.363 . S
C2340 H2317 0.950 . S
C2340 C2339 1.397 . S
C2340 C2341 1.334 . S
C2341 H2318 0.950 . S
C2341 C2340 1.334 . S
C2341 C2342 1.287 . S
C2342 C2341 1.287 . S
C2342 C2343 1.524 . S
C2342 H2361 0.913 . S
C2343 H2319 0.950 . S
C2343 C2342 1.524 . S
C2343 C2344 1.415 . S
C2344 H2320 0.950 . S
C2344 C2339 1.363 . S
C2344 C2343 1.415 . S
C2345 H2321 0.951 . S
C2345 C2346 1.366 . S
C2345 C2347 1.388 . S
C2346 C2345 1.366 . S
C2346 C2350 1.385 . S
C2347 H2322 0.951 . S
C2347 C2345 1.388 . S
C2347 C2348 1.366 . S
C2348 C2347 1.366 . S
C2348 C2349 1.414 . S
C2348 C2351 1.499 . S
C2349 H2323 0.950 . S
C2349 C2348 1.414 . S
C2349 C2350 1.374 . S
C2350 H2324 0.950 . S
C2350 C2346 1.385 . S
C2350 C2349 1.374 . S
C2351 C2348 1.499 . S
C2351 C2352 1.373 . S
C2351 C2353 1.389 . S
C2352 H2325 0.950 . S
C2352 C2338 1.377 . S
C2352 C2351 1.373 . S
C2353 C2337 1.377 . S
C2353 C2351 1.389 . S
C2353 C2354 1.524 . S
C2354 C2353 1.524 . S
C2354 C2355 1.397 . S
C2354 C2359 1.363 . S
C2355 H2326 0.950 . S
C2355 C2354 1.397 . S
C2355 C2356 1.334 . S
C2356 H2327 0.950 . S
C2356 C2355 1.334 . S
C2356 C2357 1.287 . S
C2357 C2356 1.287 . S
C2357 C2358 1.524 . S
C2357 H2360 0.999 . S
C2358 H2328 0.950 . S
C2358 C2357 1.524 . S
C2358 C2359 1.415 . S
C2359 H2329 0.950 . S
C2359 C2354 1.363 . S
C2359 C2358 1.415 . S
H2360 C2357 0.999 . S
H2361 C2342 0.913 . S
H2362 C2380 0.951 . S
H2363 C2382 0.951 . S
H2364 C2384 0.950 . S
H2365 C2385 0.950 . S
H2366 C2387 0.950 . S
H2367 C2390 0.950 . S
H2368 C2391 0.950 . S
H2369 C2393 0.950 . S
H2370 C2394 0.950 . S
H2371 C2395 0.951 . S
H2372 C2397 0.951 . S
H2373 C2399 0.950 . S
H2374 C2400 0.950 . S
H2375 C2402 0.950 . S
H2376 C2405 0.950 . S
H2377 C2406 0.950 . S
H2378 C2408 0.950 . S
H2379 C2409 0.950 . S
C2380 H2362 0.951 . S
C2380 C2381 1.366 . S
C2380 C2382 1.388 . S
C2381 C2380 1.366 . S
C2381 C2385 1.385 . S
C2382 H2363 0.951 . S
C2382 C2380 1.388 . S
C2382 C2383 1.366 . S
C2383 C2382 1.366 . S
C2383 C2384 1.414 . S
C2383 C2386 1.499 . S
C2384 H2364 0.950 . S
C2384 C2383 1.414 . S
C2384 C2385 1.374 . S
C2385 H2365 0.950 . S
C2385 C2381 1.385 . S
C2385 C2384 1.374 . S
C2386 C2383 1.499 . S
C2386 C2387 1.373 . S
C2386 C2388 1.389 . S
C2387 H2366 0.950 . S
C2387 C2386 1.373 . S
C2387 C2403 1.377 . S
C2388 C2386 1.389 . S
C2388 C2389 1.524 . S
C2388 C2402 1.377 . S
C2389 C2388 1.524 . S
C2389 C2390 1.397 . S
C2389 C2394 1.363 . S
C2390 H2367 0.950 . S
C2390 C2389 1.397 . S
C2390 C2391 1.334 . S
C2391 H2368 0.950 . S
C2391 C2390 1.334 . S
C2391 C2392 1.287 . S
C2392 C2391 1.287 . S
C2392 C2393 1.524 . S
C2392 H2411 0.913 . S
C2393 H2369 0.950 . S
C2393 C2392 1.524 . S
C2393 C2394 1.415 . S
C2394 H2370 0.950 . S
C2394 C2389 1.363 . S
C2394 C2393 1.415 . S
C2395 H2371 0.951 . S
C2395 C2396 1.366 . S
C2395 C2397 1.388 . S
C2396 C2395 1.366 . S
C2396 C2400 1.385 . S
C2397 H2372 0.951 . S
C2397 C2395 1.388 . S
C2397 C2398 1.366 . S
C2398 C2397 1.366 . S
C2398 C2399 1.414 . S
C2398 C2401 1.499 . S
C2399 H2373 0.950 . S
C2399 C2398 1.414 . S
C2399 C2400 1.374 . S
C2400 H2374 0.950 . S
C2400 C2396 1.385 . S
C2400 C2399 1.374 . S
C2401 C2398 1.499 . S
C2401 C2402 1.373 . S
C2401 C2403 1.389 . S
C2402 H2375 0.950 . S
C2402 C2388 1.377 . S
C2402 C2401 1.373 . S
C2403 C2387 1.377 . S
C2403 C2401 1.389 . S
C2403 C2404 1.524 . S
C2404 C2403 1.524 . S
C2404 C2405 1.397 . S
C2404 C2409 1.363 . S
C2405 H2376 0.950 . S
C2405 C2404 1.397 . S
C2405 C2406 1.334 . S
C2406 H2377 0.950 . S
C2406 C2405 1.334 . S
C2406 C2407 1.287 . S
C2407 C2406 1.287 . S
C2407 C2408 1.524 . S
C2407 H2410 0.999 . S
C2408 H2378 0.950 . S
C2408 C2407 1.524 . S
C2408 C2409 1.415 . S
C2409 H2379 0.950 . S
C2409 C2404 1.363 . S
C2409 C2408 1.415 . S
H2410 C2407 0.999 . S
H2411 C2392 0.913 . S
H2412 C2430 0.951 . S
H2413 C2432 0.951 . S
H2414 C2434 0.950 . S
H2415 C2435 0.950 . S
H2416 C2437 0.950 . S
H2417 C2440 0.950 . S
H2418 C2441 0.950 . S
H2419 C2443 0.950 . S
H2420 C2444 0.950 . S
H2421 C2445 0.951 . S
H2422 C2447 0.951 . S
H2423 C2449 0.950 . S
H2424 C2450 0.950 . S
H2425 C2452 0.950 . S
H2426 C2455 0.950 . S
H2427 C2456 0.950 . S
H2428 C2458 0.950 . S
H2429 C2459 0.950 . S
C2430 H2412 0.951 . S
C2430 C2431 1.366 . S
C2430 C2432 1.388 . S
C2431 C2430 1.366 . S
C2431 C2435 1.385 . S
C2432 H2413 0.951 . S
C2432 C2430 1.388 . S
C2432 C2433 1.366 . S
C2433 C2432 1.366 . S
C2433 C2434 1.414 . S
C2433 C2436 1.499 . S
C2434 H2414 0.950 . S
C2434 C2433 1.414 . S
C2434 C2435 1.374 . S
C2435 H2415 0.950 . S
C2435 C2431 1.385 . S
C2435 C2434 1.374 . S
C2436 C2433 1.499 . S
C2436 C2437 1.373 . S
C2436 C2438 1.389 . S
C2437 H2416 0.950 . S
C2437 C2436 1.373 . S
C2437 C2453 1.377 . S
C2438 C2436 1.389 . S
C2438 C2439 1.524 . S
C2438 C2452 1.377 . S
C2439 C2438 1.524 . S
C2439 C2440 1.397 . S
C2439 C2444 1.363 . S
C2440 H2417 0.950 . S
C2440 C2439 1.397 . S
C2440 C2441 1.334 . S
C2441 H2418 0.950 . S
C2441 C2440 1.334 . S
C2441 C2442 1.287 . S
C2442 C2441 1.287 . S
C2442 C2443 1.524 . S
C2442 H2461 0.913 . S
C2443 H2419 0.950 . S
C2443 C2442 1.524 . S
C2443 C2444 1.415 . S
C2444 H2420 0.950 . S
C2444 C2439 1.363 . S
C2444 C2443 1.415 . S
C2445 H2421 0.951 . S
C2445 C2446 1.366 . S
C2445 C2447 1.388 . S
C2446 C2445 1.366 . S
C2446 C2450 1.385 . S
C2447 H2422 0.951 . S
C2447 C2445 1.388 . S
C2447 C2448 1.366 . S
C2448 C2447 1.366 . S
C2448 C2449 1.414 . S
C2448 C2451 1.499 . S
C2449 H2423 0.950 . S
C2449 C2448 1.414 . S
C2449 C2450 1.374 . S
C2450 H2424 0.950 . S
C2450 C2446 1.385 . S
C2450 C2449 1.374 . S
C2451 C2448 1.499 . S
C2451 C2452 1.373 . S
C2451 C2453 1.389 . S
C2452 H2425 0.950 . S
C2452 C2438 1.377 . S
C2452 C2451 1.373 . S
C2453 C2437 1.377 . S
C2453 C2451 1.389 . S
C2453 C2454 1.524 . S
C2454 C2453 1.524 . S
C2454 C2455 1.397 . S
C2454 C2459 1.363 . S
C2455 H2426 0.950 . S
C2455 C2454 1.397 . S
C2455 C2456 1.334 . S
C2456 H2427 0.950 . S
C2456 C2455 1.334 . S
C2456 C2457 1.287 . S
C2457 C2456 1.287 . S
C2457 C2458 1.524 . S
C2457 H2460 0.999 . S
C2458 H2428 0.950 . S
C2458 C2457 1.524 . S
C2458 C2459 1.415 . S
C2459 H2429 0.950 . S
C2459 C2454 1.363 . S
C2459 C2458 1.415 . S
H2460 C2457 0.999 . S
H2461 C2442 0.913 . S
H2462 C2480 0.951 . S
H2463 C2482 0.951 . S
H2464 C2484 0.950 . S
H2465 C2485 0.950 . S
H2466 C2487 0.950 . S
H2467 C2490 0.950 . S
H2468 C2491 0.950 . S
H2469 C2493 0.950 . S
H2470 C2494 0.950 . S
H2471 C2495 0.951 . S
H2472 C2497 0.951 . S
H2473 C2499 0.950 . S
H2474 C2500 0.950 . S
H2475 C2502 0.950 . S
H2476 C2505 0.950 . S
H2477 C2506 0.950 . S
H2478 C2508 0.950 . S
H2479 C2509 0.950 . S
C2480 H2462 0.951 . S
C2480 C2481 1.366 . S
C2480 C2482 1.388 . S
C2481 C2480 1.366 . S
C2481 C2485 1.385 . S
C2482 H2463 0.951 . S
C2482 C2480 1.388 . S
C2482 C2483 1.366 . S
C2483 C2482 1.366 . S
C2483 C2484 1.414 . S
C2483 C2486 1.499 . S
C2484 H2464 0.950 . S
C2484 C2483 1.414 . S
C2484 C2485 1.374 . S
C2485 H2465 0.950 . S
C2485 C2481 1.385 . S
C2485 C2484 1.374 . S
C2486 C2483 1.499 . S
C2486 C2487 1.373 . S
C2486 C2488 1.389 . S
C2487 H2466 0.950 . S
C2487 C2486 1.373 . S
C2487 C2503 1.377 . S
C2488 C2486 1.389 . S
C2488 C2489 1.524 . S
C2488 C2502 1.377 . S
C2489 C2488 1.524 . S
C2489 C2490 1.397 . S
C2489 C2494 1.363 . S
C2490 H2467 0.950 . S
C2490 C2489 1.397 . S
C2490 C2491 1.334 . S
C2491 H2468 0.950 . S
C2491 C2490 1.334 . S
C2491 C2492 1.287 . S
C2492 C2491 1.287 . S
C2492 C2493 1.524 . S
C2492 H2511 0.913 . S
C2493 H2469 0.950 . S
C2493 C2492 1.524 . S
C2493 C2494 1.415 . S
C2494 H2470 0.950 . S
C2494 C2489 1.363 . S
C2494 C2493 1.415 . S
C2495 H2471 0.951 . S
C2495 C2496 1.366 . S
C2495 C2497 1.388 . S
C2496 C2495 1.366 . S
C2496 C2500 1.385 . S
C2497 H2472 0.951 . S
C2497 C2495 1.388 . S
C2497 C2498 1.366 . S
C2498 C2497 1.366 . S
C2498 C2499 1.414 . S
C2498 C2501 1.499 . S
C2499 H2473 0.950 . S
C2499 C2498 1.414 . S
C2499 C2500 1.374 . S
C2500 H2474 0.950 . S
C2500 C2496 1.385 . S
C2500 C2499 1.374 . S
C2501 C2498 1.499 . S
C2501 C2502 1.373 . S
C2501 C2503 1.389 . S
C2502 H2475 0.950 . S
C2502 C2488 1.377 . S
C2502 C2501 1.373 . S
C2503 C2487 1.377 . S
C2503 C2501 1.389 . S
C2503 C2504 1.524 . S
C2504 C2503 1.524 . S
C2504 C2505 1.397 . S
C2504 C2509 1.363 . S
C2505 H2476 0.950 . S
C2505 C2504 1.397 . S
C2505 C2506 1.334 . S
C2506 H2477 0.950 . S
C2506 C2505 1.334 . S
C2506 C2507 1.287 . S
C2507 C2506 1.287 . S
C2507 C2508 1.524 . S
C2507 H2510 0.999 . S
C2508 H2478 0.950 . S
C2508 C2507 1.524 . S
C2508 C2509 1.415 . S
C2509 H2479 0.950 . S
C2509 C2504 1.363 . S
C2509 C2508 1.415 . S
H2510 C2507 0.999 . S
H2511 C2492 0.913 . S
H2512 C2530 0.951 . S
H2513 C2532 0.951 . S
H2514 C2534 0.950 . S
H2515 C2535 0.950 . S
H2516 C2537 0.950 . S
H2517 C2540 0.950 . S
H2518 C2541 0.950 . S
H2519 C2543 0.950 . S
H2520 C2544 0.950 . S
H2521 C2545 0.951 . S
H2522 C2547 0.951 . S
H2523 C2549 0.950 . S
H2524 C2550 0.950 . S
H2525 C2552 0.950 . S
H2526 C2555 0.950 . S
H2527 C2556 0.950 . S
H2528 C2558 0.950 . S
H2529 C2559 0.950 . S
C2530 H2512 0.951 . S
C2530 C2531 1.366 . S
C2530 C2532 1.388 . S
C2531 C2530 1.366 . S
C2531 C2535 1.385 . S
C2532 H2513 0.951 . S
C2532 C2530 1.388 . S
C2532 C2533 1.366 . S
C2533 C2532 1.366 . S
C2533 C2534 1.414 . S
C2533 C2536 1.499 . S
C2534 H2514 0.950 . S
C2534 C2533 1.414 . S
C2534 C2535 1.374 . S
C2535 H2515 0.950 . S
C2535 C2531 1.385 . S
C2535 C2534 1.374 . S
C2536 C2533 1.499 . S
C2536 C2537 1.373 . S
C2536 C2538 1.389 . S
C2537 H2516 0.950 . S
C2537 C2536 1.373 . S
C2537 C2553 1.377 . S
C2538 C2536 1.389 . S
C2538 C2539 1.524 . S
C2538 C2552 1.377 . S
C2539 C2538 1.524 . S
C2539 C2540 1.397 . S
C2539 C2544 1.363 . S
C2540 H2517 0.950 . S
C2540 C2539 1.397 . S
C2540 C2541 1.334 . S
C2541 H2518 0.950 . S
C2541 C2540 1.334 . S
C2541 C2542 1.287 . S
C2542 C2541 1.287 . S
C2542 C2543 1.524 . S
C2542 H2561 0.913 . S
C2543 H2519 0.950 . S
C2543 C2542 1.524 . S
C2543 C2544 1.415 . S
C2544 H2520 0.950 . S
C2544 C2539 1.363 . S
C2544 C2543 1.415 . S
C2545 H2521 0.951 . S
C2545 C2546 1.366 . S
C2545 C2547 1.388 . S
C2546 C2545 1.366 . S
C2546 C2550 1.385 . S
C2547 H2522 0.951 . S
C2547 C2545 1.388 . S
C2547 C2548 1.366 . S
C2548 C2547 1.366 . S
C2548 C2549 1.414 . S
C2548 C2551 1.499 . S
C2549 H2523 0.950 . S
C2549 C2548 1.414 . S
C2549 C2550 1.374 . S
C2550 H2524 0.950 . S
C2550 C2546 1.385 . S
C2550 C2549 1.374 . S
C2551 C2548 1.499 . S
C2551 C2552 1.373 . S
C2551 C2553 1.389 . S
C2552 H2525 0.950 . S
C2552 C2538 1.377 . S
C2552 C2551 1.373 . S
C2553 C2537 1.377 . S
C2553 C2551 1.389 . S
C2553 C2554 1.524 . S
C2554 C2553 1.524 . S
C2554 C2555 1.397 . S
C2554 C2559 1.363 . S
C2555 H2526 0.950 . S
C2555 C2554 1.397 . S
C2555 C2556 1.334 . S
C2556 H2527 0.950 . S
C2556 C2555 1.334 . S
C2556 C2557 1.287 . S
C2557 C2556 1.287 . S
C2557 C2558 1.524 . S
C2557 H2560 0.999 . S
C2558 H2528 0.950 . S
C2558 C2557 1.524 . S
C2558 C2559 1.415 . S
C2559 H2529 0.950 . S
C2559 C2554 1.363 . S
C2559 C2558 1.415 . S
H2560 C2557 0.999 . S
H2561 C2542 0.913 . S
H2562 C2580 0.951 . S
H2563 C2582 0.951 . S
H2564 C2584 0.950 1_554 S
H2565 C2585 0.950 . S
H2566 C2587 0.950 . S
H2567 C2590 0.950 . S
H2568 C2591 0.950 . S
H2569 C2593 0.950 . S
H2570 C2594 0.950 . S
H2571 C2595 0.951 . S
H2572 C2597 0.951 . S
H2573 C2599 0.950 . S
H2574 C2600 0.950 . S
H2575 C2602 0.950 . S
H2576 C2605 0.950 . S
H2577 C2606 0.950 . S
H2578 C2608 0.950 . S
H2579 C2609 0.937 1_554 S
C2580 H2562 0.951 . S
C2580 C2581 1.366 . S
C2580 C2582 1.388 . S
C2581 C2580 1.366 . S
C2581 C2585 1.385 1_556 S
C2582 H2563 0.951 . S
C2582 C2580 1.388 . S
C2582 C2583 1.366 . S
C2583 C2582 1.366 . S
C2583 C2584 1.414 . S
C2583 C2586 1.499 . S
C2584 H2564 0.950 1_556 S
C2584 C2583 1.414 . S
C2584 C2585 1.374 1_556 S
C2585 H2565 0.950 . S
C2585 C2581 1.385 1_554 S
C2585 C2584 1.374 1_554 S
C2586 C2583 1.499 . S
C2586 C2587 1.373 . S
C2586 C2588 1.389 . S
C2587 H2566 0.950 . S
C2587 C2586 1.373 . S
C2587 C2603 1.377 . S
C2588 C2586 1.389 . S
C2588 C2589 1.524 . S
C2588 C2602 1.377 . S
C2589 C2588 1.524 . S
C2589 C2590 1.397 . S
C2589 C2594 1.363 . S
C2590 H2567 0.950 . S
C2590 C2589 1.397 . S
C2590 C2591 1.334 . S
C2591 H2568 0.950 . S
C2591 C2590 1.334 . S
C2591 C2592 1.287 . S
C2592 C2591 1.287 . S
C2592 C2593 1.524 . S
C2592 H2611 0.913 . S
C2593 H2569 0.950 . S
C2593 C2592 1.524 . S
C2593 C2594 1.415 . S
C2594 H2570 0.950 . S
C2594 C2589 1.363 . S
C2594 C2593 1.415 . S
C2595 H2571 0.951 . S
C2595 C2596 1.366 . S
C2595 C2597 1.388 . S
C2596 C2595 1.366 . S
C2596 C2600 1.385 . S
C2597 H2572 0.951 . S
C2597 C2595 1.388 . S
C2597 C2598 1.366 . S
C2598 C2597 1.366 . S
C2598 C2599 1.414 . S
C2598 C2601 1.499 . S
C2599 H2573 0.950 . S
C2599 C2598 1.414 . S
C2599 C2600 1.374 . S
C2600 H2574 0.950 . S
C2600 C2596 1.385 . S
C2600 C2599 1.374 . S
C2601 C2598 1.499 . S
C2601 C2602 1.373 . S
C2601 C2603 1.389 . S
C2602 H2575 0.950 . S
C2602 C2588 1.377 . S
C2602 C2601 1.373 . S
C2603 C2587 1.377 . S
C2603 C2601 1.389 . S
C2603 C2604 1.524 . S
C2604 C2603 1.524 . S
C2604 C2605 1.397 . S
C2604 C2609 1.363 . S
C2605 H2576 0.950 . S
C2605 C2604 1.397 . S
C2605 C2606 1.334 . S
C2606 H2577 0.950 . S
C2606 C2605 1.334 . S
C2606 C2607 1.287 . S
C2607 C2606 1.287 . S
C2607 C2608 1.524 1_556 S
C2607 H2610 0.999 . S
C2608 H2578 0.950 . S
C2608 C2607 1.524 1_554 S
C2608 C2609 1.415 1_554 S
C2609 H2579 0.937 1_556 S
C2609 C2604 1.363 . S
C2609 C2608 1.415 1_556 S
H2610 C2607 0.999 . S
H2611 C2592 0.913 . S
H2612 C2630 0.951 . S
H2613 C2632 0.951 . S
H2614 C2634 0.950 . S
H2615 C2635 0.950 . S
H2616 C2637 0.950 . S
H2617 C2640 0.950 . S
H2618 C2641 0.950 . S
H2619 C2643 0.950 . S
H2620 C2644 0.950 1_556 S
H2621 C2645 0.951 . S
H2622 C2647 0.951 . S
H2623 C2649 0.950 . S
H2624 C2650 0.950 . S
H2625 C2652 0.950 . S
H2626 C2655 0.950 . S
H2627 C2656 0.950 . S
H2628 C2658 0.950 . S
H2629 C2659 0.950 . S
C2630 H2612 0.951 . S
C2630 C2631 1.366 . S
C2630 C2632 1.388 . S
C2631 C2630 1.366 . S
C2631 C2635 1.385 . S
C2632 H2613 0.951 . S
C2632 C2630 1.388 . S
C2632 C2633 1.366 . S
C2633 C2632 1.366 . S
C2633 C2634 1.414 . S
C2633 C2636 1.499 . S
C2634 H2614 0.950 . S
C2634 C2633 1.414 . S
C2634 C2635 1.374 . S
C2635 H2615 0.950 . S
C2635 C2631 1.385 . S
C2635 C2634 1.374 . S
C2636 C2633 1.499 . S
C2636 C2637 1.373 . S
C2636 C2638 1.389 . S
C2637 H2616 0.950 . S
C2637 C2636 1.373 . S
C2637 C2653 1.377 . S
C2638 C2636 1.389 . S
C2638 C2639 1.524 . S
C2638 C2652 1.377 . S
C2639 C2638 1.524 . S
C2639 C2640 1.397 1_556 S
C2639 C2644 1.363 1_556 S
C2640 H2617 0.950 . S
C2640 C2639 1.397 1_554 S
C2640 C2641 1.334 . S
C2641 H2618 0.950 . S
C2641 C2640 1.334 . S
C2641 C2642 1.287 . S
C2642 C2641 1.287 . S
C2642 C2643 1.524 . S
C2642 H2661 0.913 . S
C2643 H2619 0.950 . S
C2643 C2642 1.524 . S
C2643 C2644 1.415 . S
C2644 H2620 0.950 1_554 S
C2644 C2639 1.363 1_554 S
C2644 C2643 1.415 . S
C2645 H2621 0.951 . S
C2645 C2646 1.366 . S
C2645 C2647 1.388 . S
C2646 C2645 1.366 . S
C2646 C2650 1.385 . S
C2647 H2622 0.951 . S
C2647 C2645 1.388 . S
C2647 C2648 1.366 . S
C2648 C2647 1.366 . S
C2648 C2649 1.414 . S
C2648 C2651 1.499 . S
C2649 H2623 0.950 . S
C2649 C2648 1.414 . S
C2649 C2650 1.374 . S
C2650 H2624 0.950 . S
C2650 C2646 1.385 . S
C2650 C2649 1.374 . S
C2651 C2648 1.499 . S
C2651 C2652 1.373 . S
C2651 C2653 1.389 . S
C2652 H2625 0.950 . S
C2652 C2638 1.377 . S
C2652 C2651 1.373 . S
C2653 C2637 1.377 . S
C2653 C2651 1.389 . S
C2653 C2654 1.524 . S
C2654 C2653 1.524 . S
C2654 C2655 1.397 . S
C2654 C2659 1.363 . S
C2655 H2626 0.950 . S
C2655 C2654 1.397 . S
C2655 C2656 1.334 . S
C2656 H2627 0.950 . S
C2656 C2655 1.334 . S
C2656 C2657 1.287 . S
C2657 C2656 1.287 . S
C2657 C2658 1.524 . S
C2657 H2660 0.999 . S
C2658 H2628 0.950 . S
C2658 C2657 1.524 . S
C2658 C2659 1.415 . S
C2659 H2629 0.950 . S
C2659 C2654 1.363 . S
C2659 C2658 1.415 . S
H2660 C2657 0.999 . S
H2661 C2642 0.913 . S
H2662 C2680 0.951 . S
H2663 C2682 0.951 . S
H2664 C2684 0.919 1_554 S
H2665 C2685 0.950 . S
H2666 C2687 0.950 . S
H2667 C2690 0.950 . S
H2668 C2691 0.950 . S
H2669 C2693 0.950 . S
H2670 C2694 0.950 . S
H2671 C2695 0.951 . S
H2672 C2697 0.951 . S
H2673 C2699 0.950 . S
H2674 C2700 0.950 . S
H2675 C2702 0.950 . S
H2676 C2705 0.950 . S
H2677 C2706 0.950 . S
H2678 C2708 0.950 . S
H2679 C2709 0.923 1_554 S
C2680 H2662 0.951 . S
C2680 C2681 1.366 . S
C2680 C2682 1.388 . S
C2681 C2680 1.366 . S
C2681 C2685 1.385 1_556 S
C2682 H2663 0.951 . S
C2682 C2680 1.388 . S
C2682 C2683 1.366 . S
C2683 C2682 1.366 . S
C2683 C2684 1.414 . S
C2683 C2686 1.499 . S
C2684 H2664 0.919 1_556 S
C2684 C2683 1.414 . S
C2684 C2685 1.374 1_556 S
C2685 H2665 0.950 . S
C2685 C2681 1.385 1_554 S
C2685 C2684 1.374 1_554 S
C2686 C2683 1.499 . S
C2686 C2687 1.373 . S
C2686 C2688 1.389 . S
C2687 H2666 0.950 . S
C2687 C2686 1.373 . S
C2687 C2703 1.377 . S
C2688 C2686 1.389 . S
C2688 C2689 1.524 . S
C2688 C2702 1.377 . S
C2689 C2688 1.524 . S
C2689 C2690 1.397 . S
C2689 C2694 1.363 . S
C2690 H2667 0.950 . S
C2690 C2689 1.397 . S
C2690 C2691 1.334 . S
C2691 H2668 0.950 . S
C2691 C2690 1.334 . S
C2691 C2692 1.287 . S
C2692 C2691 1.287 . S
C2692 C2693 1.524 . S
C2692 H2711 0.913 . S
C2693 H2669 0.950 . S
C2693 C2692 1.524 . S
C2693 C2694 1.415 . S
C2694 H2670 0.950 . S
C2694 C2689 1.363 . S
C2694 C2693 1.415 . S
C2695 H2671 0.951 . S
C2695 C2696 1.366 . S
C2695 C2697 1.388 . S
C2696 C2695 1.366 . S
C2696 C2700 1.385 . S
C2697 H2672 0.951 . S
C2697 C2695 1.388 . S
C2697 C2698 1.366 . S
C2698 C2697 1.366 . S
C2698 C2699 1.414 . S
C2698 C2701 1.499 . S
C2699 H2673 0.950 . S
C2699 C2698 1.414 . S
C2699 C2700 1.374 . S
C2700 H2674 0.950 . S
C2700 C2696 1.385 . S
C2700 C2699 1.374 . S
C2701 C2698 1.499 . S
C2701 C2702 1.373 . S
C2701 C2703 1.389 . S
C2702 H2675 0.950 . S
C2702 C2688 1.377 . S
C2702 C2701 1.373 . S
C2703 C2687 1.377 . S
C2703 C2701 1.389 . S
C2703 C2704 1.524 . S
C2704 C2703 1.524 . S
C2704 C2705 1.397 . S
C2704 C2709 1.363 . S
C2705 H2676 0.950 . S
C2705 C2704 1.397 . S
C2705 C2706 1.334 . S
C2706 H2677 0.950 . S
C2706 C2705 1.334 . S
C2706 C2707 1.287 . S
C2707 C2706 1.287 . S
C2707 C2708 1.524 1_556 S
C2707 H2710 0.999 . S
C2708 H2678 0.950 . S
C2708 C2707 1.524 1_554 S
C2708 C2709 1.415 1_554 S
C2709 H2679 0.923 1_556 S
C2709 C2704 1.363 . S
C2709 C2708 1.415 1_556 S
H2710 C2707 0.999 . S
H2711 C2692 0.913 . S
H2712 C2730 0.951 . S
H2713 C2732 0.951 . S
H2714 C2734 0.950 . S
H2715 C2735 0.950 . S
H2716 C2737 0.950 . S
H2717 C2740 0.950 . S
H2718 C2741 0.950 . S
H2719 C2743 0.950 . S
H2720 C2744 0.950 . S
H2721 C2745 0.951 . S
H2722 C2747 0.951 . S
H2723 C2749 0.950 . S
H2724 C2750 0.950 . S
H2725 C2752 0.950 . S
H2726 C2755 0.950 . S
H2727 C2756 0.950 . S
H2728 C2758 0.950 . S
H2729 C2759 0.950 . S
C2730 H2712 0.951 . S
C2730 C2731 1.366 . S
C2730 C2732 1.388 . S
C2731 C2730 1.366 . S
C2731 C2735 1.385 . S
C2732 H2713 0.951 . S
C2732 C2730 1.388 . S
C2732 C2733 1.366 . S
C2733 C2732 1.366 . S
C2733 C2734 1.414 . S
C2733 C2736 1.499 . S
C2734 H2714 0.950 . S
C2734 C2733 1.414 . S
C2734 C2735 1.374 . S
C2735 H2715 0.950 . S
C2735 C2731 1.385 . S
C2735 C2734 1.374 . S
C2736 C2733 1.499 . S
C2736 C2737 1.373 . S
C2736 C2738 1.389 . S
C2737 H2716 0.950 . S
C2737 C2736 1.373 . S
C2737 C2753 1.377 . S
C2738 C2736 1.389 . S
C2738 C2739 1.524 . S
C2738 C2752 1.377 . S
C2739 C2738 1.524 . S
C2739 C2740 1.397 . S
C2739 C2744 1.363 . S
C2740 H2717 0.950 . S
C2740 C2739 1.397 . S
C2740 C2741 1.334 . S
C2741 H2718 0.950 . S
C2741 C2740 1.334 . S
C2741 C2742 1.287 . S
C2742 C2741 1.287 . S
C2742 C2743 1.524 . S
C2742 H2761 0.913 . S
C2743 H2719 0.950 . S
C2743 C2742 1.524 . S
C2743 C2744 1.415 . S
C2744 H2720 0.950 . S
C2744 C2739 1.363 . S
C2744 C2743 1.415 . S
C2745 H2721 0.951 . S
C2745 C2746 1.366 . S
C2745 C2747 1.388 . S
C2746 C2745 1.366 . S
C2746 C2750 1.385 . S
C2747 H2722 0.951 . S
C2747 C2745 1.388 . S
C2747 C2748 1.366 . S
C2748 C2747 1.366 . S
C2748 C2749 1.414 . S
C2748 C2751 1.499 . S
C2749 H2723 0.950 . S
C2749 C2748 1.414 . S
C2749 C2750 1.374 . S
C2750 H2724 0.950 . S
C2750 C2746 1.385 . S
C2750 C2749 1.374 . S
C2751 C2748 1.499 . S
C2751 C2752 1.373 . S
C2751 C2753 1.389 . S
C2752 H2725 0.950 . S
C2752 C2738 1.377 . S
C2752 C2751 1.373 . S
C2753 C2737 1.377 . S
C2753 C2751 1.389 . S
C2753 C2754 1.524 . S
C2754 C2753 1.524 . S
C2754 C2755 1.397 . S
C2754 C2759 1.363 . S
C2755 H2726 0.950 . S
C2755 C2754 1.397 . S
C2755 C2756 1.334 . S
C2756 H2727 0.950 . S
C2756 C2755 1.334 . S
C2756 C2757 1.287 . S
C2757 C2756 1.287 . S
C2757 C2758 1.524 . S
C2757 H2760 0.999 1_556 S
C2758 H2728 0.950 . S
C2758 C2757 1.524 . S
C2758 C2759 1.415 . S
C2759 H2729 0.950 . S
C2759 C2754 1.363 . S
C2759 C2758 1.415 . S
H2760 C2757 0.999 1_554 S
H2761 C2742 0.913 . S
H2762 C2780 0.951 . S
H2763 C2782 0.951 . S
H2764 C2784 0.950 . S
H2765 C2785 0.950 . S
H2766 C2787 0.950 . S
H2767 C2790 0.950 . S
H2768 C2791 0.950 . S
H2769 C2793 0.950 . S
H2770 C2794 0.950 . S
H2771 C2795 0.951 . S
H2772 C2797 0.951 . S
H2773 C2799 0.950 . S
H2774 C2800 0.950 . S
H2775 C2802 0.950 . S
H2776 C2805 0.950 . S
H2777 C2806 0.950 . S
H2778 C2808 0.950 . S
H2779 C2809 0.950 . S
C2780 H2762 0.951 . S
C2780 C2781 1.366 . S
C2780 C2782 1.388 . S
C2781 C2780 1.366 . S
C2781 C2785 1.385 . S
C2782 H2763 0.951 . S
C2782 C2780 1.388 . S
C2782 C2783 1.366 . S
C2783 C2782 1.366 . S
C2783 C2784 1.414 . S
C2783 C2786 1.499 . S
C2784 H2764 0.950 . S
C2784 C2783 1.414 . S
C2784 C2785 1.374 . S
C2785 H2765 0.950 . S
C2785 C2781 1.385 . S
C2785 C2784 1.374 . S
C2786 C2783 1.499 . S
C2786 C2787 1.373 . S
C2786 C2788 1.389 . S
C2787 H2766 0.950 . S
C2787 C2786 1.373 . S
C2787 C2803 1.377 . S
C2788 C2786 1.389 . S
C2788 C2789 1.524 . S
C2788 C2802 1.377 . S
C2789 C2788 1.524 . S
C2789 C2790 1.397 1_556 S
C2789 C2794 1.363 . S
C2790 H2767 0.950 . S
C2790 C2789 1.397 1_554 S
C2790 C2791 1.334 . S
C2791 H2768 0.950 . S
C2791 C2790 1.334 . S
C2791 C2792 1.287 . S
C2792 C2791 1.287 . S
C2792 C2793 1.524 . S
C2792 H2811 0.913 . S
C2793 H2769 0.950 . S
C2793 C2792 1.524 . S
C2793 C2794 1.415 1_554 S
C2794 H2770 0.950 . S
C2794 C2789 1.363 . S
C2794 C2793 1.415 1_556 S
C2795 H2771 0.951 . S
C2795 C2796 1.366 . S
C2795 C2797 1.388 . S
C2796 C2795 1.366 . S
C2796 C2800 1.385 . S
C2797 H2772 0.951 . S
C2797 C2795 1.388 . S
C2797 C2798 1.366 . S
C2798 C2797 1.366 . S
C2798 C2799 1.414 . S
C2798 C2801 1.499 . S
C2799 H2773 0.950 . S
C2799 C2798 1.414 . S
C2799 C2800 1.374 . S
C2800 H2774 0.950 . S
C2800 C2796 1.385 . S
C2800 C2799 1.374 . S
C2801 C2798 1.499 . S
C2801 C2802 1.373 . S
C2801 C2803 1.389 . S
C2802 H2775 0.950 . S
C2802 C2788 1.377 . S
C2802 C2801 1.373 . S
C2803 C2787 1.377 . S
C2803 C2801 1.389 . S
C2803 C2804 1.524 . S
C2804 C2803 1.524 . S
C2804 C2805 1.397 . S
C2804 C2809 1.363 . S
C2805 H2776 0.950 . S
C2805 C2804 1.397 . S
C2805 C2806 1.334 . S
C2806 H2777 0.950 . S
C2806 C2805 1.334 . S
C2806 C2807 1.287 . S
C2807 C2806 1.287 . S
C2807 C2808 1.524 . S
C2807 H2810 0.999 . S
C2808 H2778 0.950 . S
C2808 C2807 1.524 . S
C2808 C2809 1.415 . S
C2809 H2779 0.950 . S
C2809 C2804 1.363 . S
C2809 C2808 1.415 . S
H2810 C2807 0.999 . S
H2811 C2792 0.913 . S
H2812 C2830 0.951 1_554 S
H2813 C2832 0.951 . S
H2814 C2834 0.950 . S
H2815 C2835 0.950 . S
H2816 C2837 0.950 . S
H2817 C2840 0.950 . S
H2818 C2841 0.950 . S
H2819 C2843 0.950 . S
H2820 C2844 0.950 . S
H2821 C2845 0.951 . S
H2822 C2847 0.951 . S
H2823 C2849 0.950 . S
H2824 C2850 0.950 . S
H2825 C2852 0.950 . S
H2826 C2855 0.950 . S
H2827 C2856 0.950 . S
H2828 C2858 0.950 . S
H2829 C2859 0.950 . S
C2830 H2812 0.951 1_556 S
C2830 C2831 1.366 . S
C2830 C2832 1.388 . S
C2831 C2830 1.366 . S
C2831 C2835 1.385 . S
C2832 H2813 0.951 . S
C2832 C2830 1.388 . S
C2832 C2833 1.366 . S
C2833 C2832 1.366 . S
C2833 C2834 1.414 . S
C2833 C2836 1.499 . S
C2834 H2814 0.950 . S
C2834 C2833 1.414 . S
C2834 C2835 1.374 . S
C2835 H2815 0.950 . S
C2835 C2831 1.385 . S
C2835 C2834 1.374 . S
C2836 C2833 1.499 . S
C2836 C2837 1.373 . S
C2836 C2838 1.389 . S
C2837 H2816 0.950 . S
C2837 C2836 1.373 . S
C2837 C2853 1.377 . S
C2838 C2836 1.389 . S
C2838 C2839 1.524 . S
C2838 C2852 1.377 . S
C2839 C2838 1.524 . S
C2839 C2840 1.397 . S
C2839 C2844 1.363 . S
C2840 H2817 0.950 . S
C2840 C2839 1.397 . S
C2840 C2841 1.334 . S
C2841 H2818 0.950 . S
C2841 C2840 1.334 . S
C2841 C2842 1.287 . S
C2842 C2841 1.287 . S
C2842 C2843 1.524 . S
C2842 H2861 0.913 . S
C2843 H2819 0.950 . S
C2843 C2842 1.524 . S
C2843 C2844 1.415 . S
C2844 H2820 0.950 . S
C2844 C2839 1.363 . S
C2844 C2843 1.415 . S
C2845 H2821 0.951 . S
C2845 C2846 1.366 . S
C2845 C2847 1.388 . S
C2846 C2845 1.366 . S
C2846 C2850 1.385 . S
C2847 H2822 0.951 . S
C2847 C2845 1.388 . S
C2847 C2848 1.366 . S
C2848 C2847 1.366 . S
C2848 C2849 1.414 . S
C2848 C2851 1.499 . S
C2849 H2823 0.950 . S
C2849 C2848 1.414 . S
C2849 C2850 1.374 . S
C2850 H2824 0.950 . S
C2850 C2846 1.385 . S
C2850 C2849 1.374 . S
C2851 C2848 1.499 . S
C2851 C2852 1.373 . S
C2851 C2853 1.389 . S
C2852 H2825 0.950 . S
C2852 C2838 1.377 . S
C2852 C2851 1.373 . S
C2853 C2837 1.377 . S
C2853 C2851 1.389 . S
C2853 C2854 1.524 . S
C2854 C2853 1.524 . S
C2854 C2855 1.397 . S
C2854 C2859 1.363 . S
C2855 H2826 0.950 . S
C2855 C2854 1.397 . S
C2855 C2856 1.334 . S
C2856 H2827 0.950 . S
C2856 C2855 1.334 . S
C2856 C2857 1.287 . S
C2857 C2856 1.287 . S
C2857 C2858 1.524 . S
C2857 H2860 0.999 . S
C2858 H2828 0.950 . S
C2858 C2857 1.524 . S
C2858 C2859 1.415 . S
C2859 H2829 0.950 . S
C2859 C2854 1.363 . S
C2859 C2858 1.415 . S
H2860 C2857 0.999 . S
H2861 C2842 0.913 . S
H2862 C2880 0.951 . S
H2863 C2882 0.951 . S
H2864 C2884 0.950 . S
H2865 C2885 0.950 . S
H2866 C2887 0.950 . S
H2867 C2890 0.950 . S
H2868 C2891 0.950 . S
H2869 C2893 0.950 . S
H2870 C2894 0.950 . S
H2871 C2895 0.951 . S
H2872 C2897 0.951 . S
H2873 C2899 0.950 . S
H2874 C2900 0.950 . S
H2875 C2902 0.950 . S
H2876 C2905 0.950 . S
H2877 C2906 0.950 . S
H2878 C2908 0.950 . S
H2879 C2909 0.950 . S
C2880 H2862 0.951 . S
C2880 C2881 1.366 . S
C2880 C2882 1.388 . S
C2881 C2880 1.366 . S
C2881 C2885 1.385 . S
C2882 H2863 0.951 . S
C2882 C2880 1.388 . S
C2882 C2883 1.366 . S
C2883 C2882 1.366 . S
C2883 C2884 1.414 . S
C2883 C2886 1.499 . S
C2884 H2864 0.950 . S
C2884 C2883 1.414 . S
C2884 C2885 1.374 . S
C2885 H2865 0.950 . S
C2885 C2881 1.385 . S
C2885 C2884 1.374 . S
C2886 C2883 1.499 . S
C2886 C2887 1.373 . S
C2886 C2888 1.389 . S
C2887 H2866 0.950 . S
C2887 C2886 1.373 . S
C2887 C2903 1.377 . S
C2888 C2886 1.389 . S
C2888 C2889 1.524 . S
C2888 C2902 1.377 . S
C2889 C2888 1.524 . S
C2889 C2890 1.397 . S
C2889 C2894 1.363 . S
C2890 H2867 0.950 . S
C2890 C2889 1.397 . S
C2890 C2891 1.334 . S
C2891 H2868 0.950 . S
C2891 C2890 1.334 . S
C2891 C2892 1.287 . S
C2892 C2891 1.287 . S
C2892 C2893 1.524 . S
C2892 H2911 0.913 . S
C2893 H2869 0.950 . S
C2893 C2892 1.524 . S
C2893 C2894 1.415 . S
C2894 H2870 0.950 . S
C2894 C2889 1.363 . S
C2894 C2893 1.415 . S
C2895 H2871 0.951 . S
C2895 C2896 1.366 . S
C2895 C2897 1.388 . S
C2896 C2895 1.366 . S
C2896 C2900 1.385 . S
C2897 H2872 0.951 . S
C2897 C2895 1.388 . S
C2897 C2898 1.366 . S
C2898 C2897 1.366 . S
C2898 C2899 1.414 . S
C2898 C2901 1.499 . S
C2899 H2873 0.950 . S
C2899 C2898 1.414 . S
C2899 C2900 1.374 . S
C2900 H2874 0.950 . S
C2900 C2896 1.385 . S
C2900 C2899 1.374 . S
C2901 C2898 1.499 . S
C2901 C2902 1.373 . S
C2901 C2903 1.389 . S
C2902 H2875 0.950 . S
C2902 C2888 1.377 . S
C2902 C2901 1.373 . S
C2903 C2887 1.377 . S
C2903 C2901 1.389 . S
C2903 C2904 1.524 . S
C2904 C2903 1.524 . S
C2904 C2905 1.397 . S
C2904 C2909 1.363 . S
C2905 H2876 0.950 . S
C2905 C2904 1.397 . S
C2905 C2906 1.334 . S
C2906 H2877 0.950 . S
C2906 C2905 1.334 . S
C2906 C2907 1.287 . S
C2907 C2906 1.287 . S
C2907 C2908 1.524 . S
C2907 H2910 0.999 . S
C2908 H2878 0.950 . S
C2908 C2907 1.524 . S
C2908 C2909 1.415 . S
C2909 H2879 0.950 . S
C2909 C2904 1.363 . S
C2909 C2908 1.415 . S
H2910 C2907 0.999 . S
H2911 C2892 0.913 . S
H2912 C2930 0.951 . S
H2913 C2932 0.951 . S
H2914 C2934 0.950 . S
H2915 C2935 0.950 . S
H2916 C2937 0.950 . S
H2917 C2940 0.950 . S
H2918 C2941 0.950 . S
H2919 C2943 0.950 . S
H2920 C2944 0.950 . S
H2921 C2945 0.951 . S
H2922 C2947 0.951 . S
H2923 C2949 0.950 . S
H2924 C2950 0.950 . S
H2925 C2952 0.950 . S
H2926 C2955 0.950 . S
H2927 C2956 0.950 . S
H2928 C2958 0.950 . S
H2929 C2959 0.950 . S
C2930 H2912 0.951 . S
C2930 C2931 1.366 . S
C2930 C2932 1.388 . S
C2931 C2930 1.366 . S
C2931 C2935 1.385 . S
C2932 H2913 0.951 . S
C2932 C2930 1.388 . S
C2932 C2933 1.366 . S
C2933 C2932 1.366 . S
C2933 C2934 1.414 . S
C2933 C2936 1.499 . S
C2934 H2914 0.950 . S
C2934 C2933 1.414 . S
C2934 C2935 1.374 . S
C2935 H2915 0.950 . S
C2935 C2931 1.385 . S
C2935 C2934 1.374 . S
C2936 C2933 1.499 . S
C2936 C2937 1.373 . S
C2936 C2938 1.389 . S
C2937 H2916 0.950 . S
C2937 C2936 1.373 . S
C2937 C2953 1.377 . S
C2938 C2936 1.389 . S
C2938 C2939 1.524 . S
C2938 C2952 1.377 . S
C2939 C2938 1.524 . S
C2939 C2940 1.397 . S
C2939 C2944 1.363 . S
C2940 H2917 0.950 . S
C2940 C2939 1.397 . S
C2940 C2941 1.334 . S
C2941 H2918 0.950 . S
C2941 C2940 1.334 . S
C2941 C2942 1.287 . S
C2942 C2941 1.287 . S
C2942 C2943 1.524 . S
C2942 H2961 0.913 . S
C2943 H2919 0.950 . S
C2943 C2942 1.524 . S
C2943 C2944 1.415 . S
C2944 H2920 0.950 . S
C2944 C2939 1.363 . S
C2944 C2943 1.415 . S
C2945 H2921 0.951 . S
C2945 C2946 1.366 . S
C2945 C2947 1.388 . S
C2946 C2945 1.366 . S
C2946 C2950 1.385 . S
C2947 H2922 0.951 . S
C2947 C2945 1.388 . S
C2947 C2948 1.366 . S
C2948 C2947 1.366 . S
C2948 C2949 1.414 . S
C2948 C2951 1.499 . S
C2949 H2923 0.950 . S
C2949 C2948 1.414 . S
C2949 C2950 1.374 . S
C2950 H2924 0.950 . S
C2950 C2946 1.385 . S
C2950 C2949 1.374 . S
C2951 C2948 1.499 . S
C2951 C2952 1.373 . S
C2951 C2953 1.389 . S
C2952 H2925 0.950 . S
C2952 C2938 1.377 . S
C2952 C2951 1.373 . S
C2953 C2937 1.377 . S
C2953 C2951 1.389 . S
C2953 C2954 1.524 . S
C2954 C2953 1.524 . S
C2954 C2955 1.397 . S
C2954 C2959 1.363 . S
C2955 H2926 0.950 . S
C2955 C2954 1.397 . S
C2955 C2956 1.334 . S
C2956 H2927 0.950 . S
C2956 C2955 1.334 . S
C2956 C2957 1.287 . S
C2957 C2956 1.287 . S
C2957 C2958 1.524 . S
C2957 H2960 0.999 . S
C2958 H2928 0.950 . S
C2958 C2957 1.524 . S
C2958 C2959 1.415 . S
C2959 H2929 0.950 . S
C2959 C2954 1.363 . S
C2959 C2958 1.415 . S
H2960 C2957 0.999 . S
H2961 C2942 0.913 . S
H2962 C2980 0.951 . S
H2963 C2982 0.951 . S
H2964 C2984 0.950 . S
H2965 C2985 0.950 . S
H2966 C2987 0.950 . S
H2967 C2990 0.950 . S
H2968 C2991 0.950 . S
H2969 C2993 0.950 . S
H2970 C2994 0.950 . S
H2971 C2995 0.951 . S
H2972 C2997 0.951 . S
H2973 C2999 0.950 . S
H2974 C3000 0.950 . S
H2975 C3002 0.950 . S
H2976 C3005 0.950 . S
H2977 C3006 0.950 . S
H2978 C3008 0.950 . S
H2979 C3009 0.950 . S
C2980 H2962 0.951 . S
C2980 C2981 1.366 . S
C2980 C2982 1.388 . S
C2981 C2980 1.366 . S
C2981 C2985 1.385 . S
C2982 H2963 0.951 . S
C2982 C2980 1.388 . S
C2982 C2983 1.366 . S
C2983 C2982 1.366 . S
C2983 C2984 1.414 . S
C2983 C2986 1.499 . S
C2984 H2964 0.950 . S
C2984 C2983 1.414 . S
C2984 C2985 1.374 . S
C2985 H2965 0.950 . S
C2985 C2981 1.385 . S
C2985 C2984 1.374 . S
C2986 C2983 1.499 . S
C2986 C2987 1.373 . S
C2986 C2988 1.389 . S
C2987 H2966 0.950 . S
C2987 C2986 1.373 . S
C2987 C3003 1.377 . S
C2988 C2986 1.389 . S
C2988 C2989 1.524 . S
C2988 C3002 1.377 . S
C2989 C2988 1.524 . S
C2989 C2990 1.397 . S
C2989 C2994 1.363 . S
C2990 H2967 0.950 . S
C2990 C2989 1.397 . S
C2990 C2991 1.334 . S
C2991 H2968 0.950 . S
C2991 C2990 1.334 . S
C2991 C2992 1.287 . S
C2992 C2991 1.287 . S
C2992 C2993 1.524 . S
C2992 H3011 0.913 . S
C2993 H2969 0.950 . S
C2993 C2992 1.524 . S
C2993 C2994 1.415 . S
C2994 H2970 0.950 . S
C2994 C2989 1.363 . S
C2994 C2993 1.415 . S
C2995 H2971 0.951 . S
C2995 C2996 1.366 . S
C2995 C2997 1.388 . S
C2996 C2995 1.366 . S
C2996 C3000 1.385 . S
C2997 H2972 0.951 . S
C2997 C2995 1.388 . S
C2997 C2998 1.366 . S
C2998 C2997 1.366 . S
C2998 C2999 1.414 . S
C2998 C3001 1.499 . S
C2999 H2973 0.950 . S
C2999 C2998 1.414 . S
C2999 C3000 1.374 . S
C3000 H2974 0.950 . S
C3000 C2996 1.385 . S
C3000 C2999 1.374 . S
C3001 C2998 1.499 . S
C3001 C3002 1.373 . S
C3001 C3003 1.389 . S
C3002 H2975 0.950 . S
C3002 C2988 1.377 . S
C3002 C3001 1.373 . S
C3003 C2987 1.377 . S
C3003 C3001 1.389 . S
C3003 C3004 1.524 . S
C3004 C3003 1.524 . S
C3004 C3005 1.397 . S
C3004 C3009 1.363 . S
C3005 H2976 0.950 . S
C3005 C3004 1.397 . S
C3005 C3006 1.334 . S
C3006 H2977 0.950 . S
C3006 C3005 1.334 . S
C3006 C3007 1.287 . S
C3007 C3006 1.287 . S
C3007 C3008 1.524 . S
C3007 H3010 0.999 . S
C3008 H2978 0.950 . S
C3008 C3007 1.524 . S
C3008 C3009 1.415 . S
C3009 H2979 0.950 . S
C3009 C3004 1.363 . S
C3009 C3008 1.415 . S
H3010 C3007 0.999 . S
H3011 C2992 0.913 . S
H3012 C3030 0.951 . S
H3013 C3032 0.951 . S
H3014 C3034 0.950 . S
H3015 C3035 0.950 . S
H3016 C3037 0.950 . S
H3017 C3040 0.950 . S
H3018 C3041 0.950 . S
H3019 C3043 0.950 . S
H3020 C3044 0.950 . S
H3021 C3045 0.951 . S
H3022 C3047 0.951 . S
H3023 C3049 0.950 . S
H3024 C3050 0.950 . S
H3025 C3052 0.950 . S
H3026 C3055 0.950 . S
H3027 C3056 0.950 . S
H3028 C3058 0.950 . S
H3029 C3059 0.950 . S
C3030 H3012 0.951 . S
C3030 C3031 1.366 . S
C3030 C3032 1.388 . S
C3031 C3030 1.366 . S
C3031 C3035 1.385 . S
C3032 H3013 0.951 . S
C3032 C3030 1.388 . S
C3032 C3033 1.366 . S
C3033 C3032 1.366 . S
C3033 C3034 1.414 . S
C3033 C3036 1.499 . S
C3034 H3014 0.950 . S
C3034 C3033 1.414 . S
C3034 C3035 1.374 . S
C3035 H3015 0.950 . S
C3035 C3031 1.385 . S
C3035 C3034 1.374 . S
C3036 C3033 1.499 . S
C3036 C3037 1.373 . S
C3036 C3038 1.389 . S
C3037 H3016 0.950 . S
C3037 C3036 1.373 . S
C3037 C3053 1.377 . S
C3038 C3036 1.389 . S
C3038 C3039 1.524 . S
C3038 C3052 1.377 . S
C3039 C3038 1.524 . S
C3039 C3040 1.397 . S
C3039 C3044 1.363 . S
C3040 H3017 0.950 . S
C3040 C3039 1.397 . S
C3040 C3041 1.334 . S
C3041 H3018 0.950 . S
C3041 C3040 1.334 . S
C3041 C3042 1.287 . S
C3042 C3041 1.287 . S
C3042 C3043 1.524 . S
C3042 H3061 0.913 . S
C3043 H3019 0.950 . S
C3043 C3042 1.524 . S
C3043 C3044 1.415 . S
C3044 H3020 0.950 . S
C3044 C3039 1.363 . S
C3044 C3043 1.415 . S
C3045 H3021 0.951 . S
C3045 C3046 1.366 . S
C3045 C3047 1.388 . S
C3046 C3045 1.366 . S
C3046 C3050 1.385 . S
C3047 H3022 0.951 . S
C3047 C3045 1.388 . S
C3047 C3048 1.366 . S
C3048 C3047 1.366 . S
C3048 C3049 1.414 . S
C3048 C3051 1.499 . S
C3049 H3023 0.950 . S
C3049 C3048 1.414 . S
C3049 C3050 1.374 . S
C3050 H3024 0.950 . S
C3050 C3046 1.385 . S
C3050 C3049 1.374 . S
C3051 C3048 1.499 . S
C3051 C3052 1.373 . S
C3051 C3053 1.389 . S
C3052 H3025 0.950 . S
C3052 C3038 1.377 . S
C3052 C3051 1.373 . S
C3053 C3037 1.377 . S
C3053 C3051 1.389 . S
C3053 C3054 1.524 . S
C3054 C3053 1.524 . S
C3054 C3055 1.397 . S
C3054 C3059 1.363 . S
C3055 H3026 0.950 . S
C3055 C3054 1.397 . S
C3055 C3056 1.334 . S
C3056 H3027 0.950 . S
C3056 C3055 1.334 . S
C3056 C3057 1.287 . S
C3057 C3056 1.287 . S
C3057 C3058 1.524 . S
C3057 H3060 0.999 . S
C3058 H3028 0.950 . S
C3058 C3057 1.524 . S
C3058 C3059 1.415 . S
C3059 H3029 0.950 . S
C3059 C3054 1.363 . S
C3059 C3058 1.415 . S
H3060 C3057 0.999 . S
H3061 C3042 0.913 . S
H3062 C3080 0.951 . S
H3063 C3082 0.951 . S
H3064 C3084 0.950 . S
H3065 C3085 0.950 . S
H3066 C3087 0.950 . S
H3067 C3090 0.950 . S
H3068 C3091 0.950 . S
H3069 C3093 0.950 . S
H3070 C3094 0.950 . S
H3071 C3095 0.951 . S
H3072 C3097 0.951 . S
H3073 C3099 0.950 . S
H3074 C3100 0.950 . S
H3075 C3102 0.950 . S
H3076 C3105 0.950 . S
H3077 C3106 0.950 . S
H3078 C3108 0.950 . S
H3079 C3109 0.950 . S
C3080 H3062 0.951 . S
C3080 C3081 1.366 . S
C3080 C3082 1.388 . S
C3081 C3080 1.366 . S
C3081 C3085 1.385 . S
C3082 H3063 0.951 . S
C3082 C3080 1.388 . S
C3082 C3083 1.366 . S
C3083 C3082 1.366 . S
C3083 C3084 1.414 . S
C3083 C3086 1.499 . S
C3084 H3064 0.950 . S
C3084 C3083 1.414 . S
C3084 C3085 1.374 . S
C3085 H3065 0.950 . S
C3085 C3081 1.385 . S
C3085 C3084 1.374 . S
C3086 C3083 1.499 . S
C3086 C3087 1.373 . S
C3086 C3088 1.389 . S
C3087 H3066 0.950 . S
C3087 C3086 1.373 . S
C3087 C3103 1.377 . S
C3088 C3086 1.389 . S
C3088 C3089 1.524 . S
C3088 C3102 1.377 . S
C3089 C3088 1.524 . S
C3089 C3090 1.397 . S
C3089 C3094 1.363 . S
C3090 H3067 0.950 . S
C3090 C3089 1.397 . S
C3090 C3091 1.334 . S
C3091 H3068 0.950 . S
C3091 C3090 1.334 . S
C3091 C3092 1.287 . S
C3092 C3091 1.287 . S
C3092 C3093 1.524 . S
C3092 H3111 0.913 . S
C3093 H3069 0.950 . S
C3093 C3092 1.524 . S
C3093 C3094 1.415 . S
C3094 H3070 0.950 . S
C3094 C3089 1.363 . S
C3094 C3093 1.415 . S
C3095 H3071 0.951 . S
C3095 C3096 1.366 . S
C3095 C3097 1.388 . S
C3096 C3095 1.366 . S
C3096 C3100 1.385 . S
C3097 H3072 0.951 . S
C3097 C3095 1.388 . S
C3097 C3098 1.366 . S
C3098 C3097 1.366 . S
C3098 C3099 1.414 . S
C3098 C3101 1.499 . S
C3099 H3073 0.950 . S
C3099 C3098 1.414 . S
C3099 C3100 1.374 . S
C3100 H3074 0.950 . S
C3100 C3096 1.385 . S
C3100 C3099 1.374 . S
C3101 C3098 1.499 . S
C3101 C3102 1.373 . S
C3101 C3103 1.389 . S
C3102 H3075 0.950 . S
C3102 C3088 1.377 . S
C3102 C3101 1.373 . S
C3103 C3087 1.377 . S
C3103 C3101 1.389 . S
C3103 C3104 1.524 . S
C3104 C3103 1.524 . S
C3104 C3105 1.397 . S
C3104 C3109 1.363 . S
C3105 H3076 0.950 . S
C3105 C3104 1.397 . S
C3105 C3106 1.334 . S
C3106 H3077 0.950 . S
C3106 C3105 1.334 . S
C3106 C3107 1.287 . S
C3107 C3106 1.287 . S
C3107 C3108 1.524 . S
C3107 H3110 0.999 . S
C3108 H3078 0.950 . S
C3108 C3107 1.524 . S
C3108 C3109 1.415 . S
C3109 H3079 0.950 . S
C3109 C3104 1.363 . S
C3109 C3108 1.415 . S
H3110 C3107 0.999 . S
H3111 C3092 0.913 . S
H3112 C3130 0.951 . S
H3113 C3132 0.951 . S
H3114 C3134 0.950 . S
H3115 C3135 0.950 . S
H3116 C3137 0.950 . S
H3117 C3140 0.950 . S
H3118 C3141 0.950 . S
H3119 C3143 0.950 . S
H3120 C3144 0.950 . S
H3121 C3145 0.951 . S
H3122 C3147 0.951 . S
H3123 C3149 0.950 . S
H3124 C3150 0.950 . S
H3125 C3152 0.950 . S
H3126 C3155 0.950 . S
H3127 C3156 0.950 . S
H3128 C3158 0.950 . S
H3129 C3159 0.950 . S
C3130 H3112 0.951 . S
C3130 C3131 1.366 . S
C3130 C3132 1.388 . S
C3131 C3130 1.366 . S
C3131 C3135 1.385 . S
C3132 H3113 0.951 . S
C3132 C3130 1.388 . S
C3132 C3133 1.366 . S
C3133 C3132 1.366 . S
C3133 C3134 1.414 . S
C3133 C3136 1.499 . S
C3134 H3114 0.950 . S
C3134 C3133 1.414 . S
C3134 C3135 1.374 . S
C3135 H3115 0.950 . S
C3135 C3131 1.385 . S
C3135 C3134 1.374 . S
C3136 C3133 1.499 . S
C3136 C3137 1.373 . S
C3136 C3138 1.389 . S
C3137 H3116 0.950 . S
C3137 C3136 1.373 . S
C3137 C3153 1.377 . S
C3138 C3136 1.389 . S
C3138 C3139 1.524 . S
C3138 C3152 1.377 . S
C3139 C3138 1.524 . S
C3139 C3140 1.397 . S
C3139 C3144 1.363 . S
C3140 H3117 0.950 . S
C3140 C3139 1.397 . S
C3140 C3141 1.334 . S
C3141 H3118 0.950 . S
C3141 C3140 1.334 . S
C3141 C3142 1.287 . S
C3142 C3141 1.287 . S
C3142 C3143 1.524 . S
C3142 H3161 0.985 . S
C3143 H3119 0.950 . S
C3143 C3142 1.524 . S
C3143 C3144 1.415 . S
C3144 H3120 0.950 . S
C3144 C3139 1.363 . S
C3144 C3143 1.415 . S
C3145 H3121 0.951 . S
C3145 C3146 1.366 . S
C3145 C3147 1.388 . S
C3146 C3145 1.366 . S
C3146 C3150 1.385 . S
C3147 H3122 0.951 . S
C3147 C3145 1.388 . S
C3147 C3148 1.366 . S
C3148 C3147 1.366 . S
C3148 C3149 1.414 . S
C3148 C3151 1.499 . S
C3149 H3123 0.950 . S
C3149 C3148 1.414 . S
C3149 C3150 1.374 . S
C3150 H3124 0.950 . S
C3150 C3146 1.385 . S
C3150 C3149 1.374 . S
C3151 C3148 1.499 . S
C3151 C3152 1.373 . S
C3151 C3153 1.389 . S
C3152 H3125 0.950 . S
C3152 C3138 1.377 . S
C3152 C3151 1.373 . S
C3153 C3137 1.377 . S
C3153 C3151 1.389 . S
C3153 C3154 1.524 . S
C3154 C3153 1.524 . S
C3154 C3155 1.397 . S
C3154 C3159 1.363 . S
C3155 H3126 0.950 . S
C3155 C3154 1.397 . S
C3155 C3156 1.334 . S
C3156 H3127 0.950 . S
C3156 C3155 1.334 . S
C3156 C3157 1.287 . S
C3157 C3156 1.287 . S
C3157 C3158 1.524 . S
C3157 H3160 0.999 . S
C3158 H3128 0.950 . S
C3158 C3157 1.524 . S
C3158 C3159 1.415 . S
C3159 H3129 0.950 . S
C3159 C3154 1.363 . S
C3159 C3158 1.415 . S
H3160 C3157 0.999 . S
H3161 C3142 0.985 . S
H3162 C3180 0.949 1_655 S
H3163 C3182 0.951 1_655 S
H3164 C3184 0.950 . S
H3165 C3185 0.950 . S
H3166 C3187 0.950 . S
H3167 C3190 0.950 1_455 S
H3168 C3191 0.950 . S
H3169 C3193 0.950 . S
H3170 C3194 0.950 . S
H3171 C3195 0.951 . S
H3172 C3197 0.951 . S
H3173 C3199 0.950 1_655 S
H3174 C3200 0.950 1_655 S
H3175 C3202 0.950 1_655 S
H3176 C3205 0.950 . S
H3177 C3206 0.950 . S
H3178 C3208 0.950 . S
H3179 C3209 0.950 . S
C3180 H3162 0.949 1_455 S
C3180 C3181 1.366 . S
C3180 C3182 1.388 . S
C3181 C3180 1.366 . S
C3181 C3185 1.385 . S
C3182 H3163 0.951 1_455 S
C3182 C3180 1.388 . S
C3182 C3183 1.366 . S
C3183 C3182 1.366 . S
C3183 C3184 1.414 . S
C3183 C3186 1.499 . S
C3184 H3164 0.950 . S
C3184 C3183 1.414 . S
C3184 C3185 1.374 . S
C3185 H3165 0.950 . S
C3185 C3181 1.385 . S
C3185 C3184 1.374 . S
C3186 C3183 1.499 . S
C3186 C3187 1.373 . S
C3186 C3188 1.389 . S
C3187 H3166 0.950 . S
C3187 C3186 1.373 . S
C3187 C3203 1.377 . S
C3188 C3186 1.389 . S
C3188 C3189 1.524 1_455 S
C3188 C3202 1.377 . S
C3189 C3188 1.524 1_655 S
C3189 C3190 1.397 . S
C3189 C3194 1.363 . S
C3190 H3167 0.950 1_655 S
C3190 C3189 1.397 . S
C3190 C3191 1.334 . S
C3191 H3168 0.950 . S
C3191 C3190 1.334 . S
C3191 C3192 1.287 . S
C3192 C3191 1.287 . S
C3192 C3193 1.524 . S
C3192 H3211 0.913 . S
C3193 H3169 0.950 . S
C3193 C3192 1.524 . S
C3193 C3194 1.415 . S
C3194 H3170 0.950 . S
C3194 C3189 1.363 . S
C3194 C3193 1.415 . S
C3195 H3171 0.951 . S
C3195 C3196 1.366 . S
C3195 C3197 1.388 . S
C3196 C3195 1.366 . S
C3196 C3200 1.385 . S
C3197 H3172 0.951 . S
C3197 C3195 1.388 . S
C3197 C3198 1.366 . S
C3198 C3197 1.366 . S
C3198 C3199 1.414 . S
C3198 C3201 1.499 . S
C3199 H3173 0.950 1_455 S
C3199 C3198 1.414 . S
C3199 C3200 1.374 . S
C3200 H3174 0.950 1_455 S
C3200 C3196 1.385 . S
C3200 C3199 1.374 . S
C3201 C3198 1.499 . S
C3201 C3202 1.373 . S
C3201 C3203 1.389 . S
C3202 H3175 0.950 1_455 S
C3202 C3188 1.377 . S
C3202 C3201 1.373 . S
C3203 C3187 1.377 . S
C3203 C3201 1.389 . S
C3203 C3204 1.524 . S
C3204 C3203 1.524 . S
C3204 C3205 1.397 . S
C3204 C3209 1.363 . S
C3205 H3176 0.950 . S
C3205 C3204 1.397 . S
C3205 C3206 1.334 . S
C3206 H3177 0.950 . S
C3206 C3205 1.334 . S
C3206 C3207 1.287 . S
C3207 C3206 1.287 . S
C3207 C3208 1.524 . S
C3207 H3210 0.999 . S
C3208 H3178 0.950 . S
C3208 C3207 1.524 . S
C3208 C3209 1.415 . S
C3209 H3179 0.950 . S
C3209 C3204 1.363 . S
C3209 C3208 1.415 . S
H3210 C3207 0.999 . S
H3211 C3192 0.913 . S
H3212 C3230 0.951 . S
H3213 C3232 0.951 . S
H3214 C3234 0.950 . S
H3215 C3235 0.950 . S
H3216 C3237 0.950 . S
H3217 C3240 0.950 . S
H3218 C3241 0.950 . S
H3219 C3243 0.950 . S
H3220 C3244 0.950 . S
H3221 C3245 0.951 . S
H3222 C3247 0.951 . S
H3223 C3249 0.950 . S
H3224 C3250 0.950 . S
H3225 C3252 0.950 . S
H3226 C3255 0.950 . S
H3227 C3256 0.950 . S
H3228 C3258 0.950 . S
H3229 C3259 0.950 . S
C3230 H3212 0.951 . S
C3230 C3231 1.366 . S
C3230 C3232 1.388 . S
C3231 C3230 1.366 . S
C3231 C3235 1.385 . S
C3232 H3213 0.951 . S
C3232 C3230 1.388 . S
C3232 C3233 1.366 . S
C3233 C3232 1.366 . S
C3233 C3234 1.414 . S
C3233 C3236 1.499 . S
C3234 H3214 0.950 . S
C3234 C3233 1.414 . S
C3234 C3235 1.374 . S
C3235 H3215 0.950 . S
C3235 C3231 1.385 . S
C3235 C3234 1.374 . S
C3236 C3233 1.499 . S
C3236 C3237 1.373 . S
C3236 C3238 1.389 . S
C3237 H3216 0.950 . S
C3237 C3236 1.373 . S
C3237 C3253 1.377 . S
C3238 C3236 1.389 . S
C3238 C3239 1.524 . S
C3238 C3252 1.377 . S
C3239 C3238 1.524 . S
C3239 C3240 1.397 . S
C3239 C3244 1.363 . S
C3240 H3217 0.950 . S
C3240 C3239 1.397 . S
C3240 C3241 1.334 . S
C3241 H3218 0.950 . S
C3241 C3240 1.334 . S
C3241 C3242 1.287 . S
C3242 C3241 1.287 . S
C3242 C3243 1.524 . S
C3242 H3261 0.913 . S
C3243 H3219 0.950 . S
C3243 C3242 1.524 . S
C3243 C3244 1.415 . S
C3244 H3220 0.950 . S
C3244 C3239 1.363 . S
C3244 C3243 1.415 . S
C3245 H3221 0.951 . S
C3245 C3246 1.366 . S
C3245 C3247 1.388 . S
C3246 C3245 1.366 . S
C3246 C3250 1.385 . S
C3247 H3222 0.951 . S
C3247 C3245 1.388 . S
C3247 C3248 1.366 . S
C3248 C3247 1.366 . S
C3248 C3249 1.414 . S
C3248 C3251 1.499 . S
C3249 H3223 0.950 . S
C3249 C3248 1.414 . S
C3249 C3250 1.374 . S
C3250 H3224 0.950 . S
C3250 C3246 1.385 . S
C3250 C3249 1.374 . S
C3251 C3248 1.499 . S
C3251 C3252 1.373 . S
C3251 C3253 1.389 . S
C3252 H3225 0.950 . S
C3252 C3238 1.377 . S
C3252 C3251 1.373 . S
C3253 C3237 1.377 . S
C3253 C3251 1.389 . S
C3253 C3254 1.524 . S
C3254 C3253 1.524 . S
C3254 C3255 1.397 . S
C3254 C3259 1.363 . S
C3255 H3226 0.950 . S
C3255 C3254 1.397 . S
C3255 C3256 1.334 . S
C3256 H3227 0.950 . S
C3256 C3255 1.334 . S
C3256 C3257 1.287 . S
C3257 C3256 1.287 . S
C3257 C3258 1.524 . S
C3257 H3260 0.999 . S
C3258 H3228 0.950 . S
C3258 C3257 1.524 . S
C3258 C3259 1.415 . S
C3259 H3229 0.950 . S
C3259 C3254 1.363 . S
C3259 C3258 1.415 . S
H3260 C3257 0.999 . S
H3261 C3242 0.913 . S
H3262 C3280 0.951 1_545 S
H3263 C3282 0.954 1_545 S
H3264 C3284 0.950 . S
H3265 C3285 0.950 . S
H3266 C3287 0.950 . S
H3267 C3290 0.950 . S
H3268 C3291 0.950 . S
H3269 C3293 0.950 . S
H3270 C3294 0.950 . S
H3271 C3295 0.951 . S
H3272 C3297 0.951 . S
H3273 C3299 0.950 . S
H3274 C3300 0.950 . S
H3275 C3302 0.950 . S
H3276 C3305 0.950 . S
H3277 C3306 0.950 . S
H3278 C3308 0.950 . S
H3279 C3309 0.950 . S
C3280 H3262 0.951 1_565 S
C3280 C3281 1.366 . S
C3280 C3282 1.373 . S
C3281 C3280 1.366 . S
C3281 C3285 1.385 . S
C3282 H3263 0.954 1_565 S
C3282 C3280 1.373 . S
C3282 C3283 1.379 . S
C3283 C3282 1.379 . S
C3283 C3284 1.414 . S
C3283 C3286 1.499 . S
C3284 H3264 0.950 . S
C3284 C3283 1.414 . S
C3284 C3285 1.374 . S
C3285 H3265 0.950 . S
C3285 C3281 1.385 . S
C3285 C3284 1.374 . S
C3286 C3283 1.499 . S
C3286 C3287 1.373 . S
C3286 C3288 1.389 1_565 S
C3287 H3266 0.950 . S
C3287 C3286 1.373 . S
C3287 C3303 1.377 . S
C3288 C3286 1.389 1_545 S
C3288 C3289 1.524 . S
C3288 C3302 1.377 . S
C3289 C3288 1.524 . S
C3289 C3290 1.397 . S
C3289 C3294 1.363 . S
C3290 H3267 0.950 . S
C3290 C3289 1.397 . S
C3290 C3291 1.334 . S
C3291 H3268 0.950 . S
C3291 C3290 1.334 . S
C3291 C3292 1.287 . S
C3292 C3291 1.287 . S
C3292 C3293 1.524 . S
C3292 H3311 0.913 . S
C3293 H3269 0.950 . S
C3293 C3292 1.524 . S
C3293 C3294 1.415 . S
C3294 H3270 0.950 . S
C3294 C3289 1.363 . S
C3294 C3293 1.415 . S
C3295 H3271 0.951 . S
C3295 C3296 1.366 . S
C3295 C3297 1.388 . S
C3296 C3295 1.366 . S
C3296 C3300 1.385 1_565 S
C3297 H3272 0.951 . S
C3297 C3295 1.388 . S
C3297 C3298 1.366 . S
C3298 C3297 1.366 . S
C3298 C3299 1.414 1_565 S
C3298 C3301 1.499 . S
C3299 H3273 0.950 . S
C3299 C3298 1.414 1_545 S
C3299 C3300 1.374 . S
C3300 H3274 0.950 . S
C3300 C3296 1.385 1_545 S
C3300 C3299 1.374 . S
C3301 C3298 1.499 . S
C3301 C3302 1.373 1_565 S
C3301 C3303 1.389 . S
C3302 H3275 0.950 . S
C3302 C3288 1.377 . S
C3302 C3301 1.373 1_545 S
C3303 C3287 1.377 . S
C3303 C3301 1.389 . S
C3303 C3304 1.524 . S
C3304 C3303 1.524 . S
C3304 C3305 1.397 . S
C3304 C3309 1.363 . S
C3305 H3276 0.950 . S
C3305 C3304 1.397 . S
C3305 C3306 1.334 . S
C3306 H3277 0.950 . S
C3306 C3305 1.334 . S
C3306 C3307 1.287 . S
C3307 C3306 1.287 . S
C3307 C3308 1.524 . S
C3307 H3310 0.999 . S
C3308 H3278 0.950 . S
C3308 C3307 1.524 . S
C3308 C3309 1.415 . S
C3309 H3279 0.950 . S
C3309 C3304 1.363 . S
C3309 C3308 1.415 . S
H3310 C3307 0.999 . S
H3311 C3292 0.913 . S
H3312 C3330 0.951 1_545 S
H3313 C3332 0.990 . S
H3314 C3334 0.950 . S
H3315 C3335 0.950 . S
H3316 C3337 0.950 . S
H3317 C3340 0.950 . S
H3318 C3341 0.950 . S
H3319 C3343 0.950 . S
H3320 C3344 0.950 . S
H3321 C3345 0.951 . S
H3322 C3347 0.951 . S
H3323 C3349 0.950 . S
H3324 C3350 0.950 . S
H3325 C3352 0.950 . S
H3326 C3355 0.950 . S
H3327 C3356 0.950 . S
H3328 C3358 0.950 . S
H3329 C3359 0.950 . S
C3330 H3312 0.951 1_565 S
C3330 C3331 1.369 . S
C3330 C3332 1.344 1_565 S
C3331 C3330 1.369 . S
C3331 C3335 1.385 . S
C3332 H3313 0.990 . S
C3332 C3330 1.344 1_545 S
C3332 C3333 1.374 1_545 S
C3333 C3332 1.374 1_565 S
C3333 C3334 1.414 . S
C3333 C3336 1.499 . S
C3334 H3314 0.950 . S
C3334 C3333 1.414 . S
C3334 C3335 1.374 . S
C3335 H3315 0.950 . S
C3335 C3331 1.385 . S
C3335 C3334 1.374 . S
C3336 C3333 1.499 . S
C3336 C3337 1.373 . S
C3336 C3338 1.389 1_565 S
C3337 H3316 0.950 . S
C3337 C3336 1.373 . S
C3337 C3353 1.377 . S
C3338 C3336 1.389 1_545 S
C3338 C3339 1.524 . S
C3338 C3352 1.377 . S
C3339 C3338 1.524 . S
C3339 C3340 1.397 . S
C3339 C3344 1.363 . S
C3340 H3317 0.950 . S
C3340 C3339 1.397 . S
C3340 C3341 1.334 . S
C3341 H3318 0.950 . S
C3341 C3340 1.334 . S
C3341 C3342 1.287 . S
C3342 C3341 1.287 . S
C3342 C3343 1.524 . S
C3342 H3361 0.913 . S
C3343 H3319 0.950 . S
C3343 C3342 1.524 . S
C3343 C3344 1.415 . S
C3344 H3320 0.950 . S
C3344 C3339 1.363 . S
C3344 C3343 1.415 . S
C3345 H3321 0.951 . S
C3345 C3346 1.406 . S
C3345 C3347 1.388 . S
C3346 C3345 1.406 . S
C3346 C3350 1.392 1_565 S
C3347 H3322 0.951 . S
C3347 C3345 1.388 . S
C3347 C3348 1.366 . S
C3348 C3347 1.366 . S
C3348 C3349 1.414 1_565 S
C3348 C3351 1.499 . S
C3349 H3323 0.950 . S
C3349 C3348 1.414 1_545 S
C3349 C3350 1.374 . S
C3350 H3324 0.950 . S
C3350 C3346 1.392 1_545 S
C3350 C3349 1.374 . S
C3351 C3348 1.499 . S
C3351 C3352 1.373 1_565 S
C3351 C3353 1.389 . S
C3352 H3325 0.950 . S
C3352 C3338 1.377 . S
C3352 C3351 1.373 1_545 S
C3353 C3337 1.377 . S
C3353 C3351 1.389 . S
C3353 C3354 1.524 . S
C3354 C3353 1.524 . S
C3354 C3355 1.397 . S
C3354 C3359 1.363 . S
C3355 H3326 0.950 . S
C3355 C3354 1.397 . S
C3355 C3356 1.334 . S
C3356 H3327 0.950 . S
C3356 C3355 1.334 . S
C3356 C3357 1.287 . S
C3357 C3356 1.287 . S
C3357 C3358 1.524 . S
C3357 H3360 0.999 . S
C3358 H3328 0.950 . S
C3358 C3357 1.524 . S
C3358 C3359 1.415 . S
C3359 H3329 0.950 . S
C3359 C3354 1.363 . S
C3359 C3358 1.415 . S
H3360 C3357 0.999 . S
H3361 C3342 0.913 . S
H3362 C3380 0.951 . S
H3363 C3382 0.951 . S
H3364 C3384 0.950 . S
H3365 C3385 0.950 . S
H3366 C3387 0.950 . S
H3367 C3390 0.950 . S
H3368 C3391 0.950 . S
H3369 C3393 0.950 . S
H3370 C3394 0.950 . S
H3371 C3395 0.951 . S
H3372 C3397 0.951 . S
H3373 C3399 0.950 . S
H3374 C3400 0.950 . S
H3375 C3402 0.950 . S
H3376 C3405 0.950 . S
H3377 C3406 0.950 . S
H3378 C3408 0.950 . S
H3379 C3409 0.950 1_455 S
C3380 H3362 0.951 . S
C3380 C3381 1.366 . S
C3380 C3382 1.388 . S
C3381 C3380 1.366 . S
C3381 C3385 1.385 . S
C3382 H3363 0.951 . S
C3382 C3380 1.388 . S
C3382 C3383 1.366 . S
C3383 C3382 1.366 . S
C3383 C3384 1.414 . S
C3383 C3386 1.499 . S
C3384 H3364 0.950 . S
C3384 C3383 1.414 . S
C3384 C3385 1.374 . S
C3385 H3365 0.950 . S
C3385 C3381 1.385 . S
C3385 C3384 1.374 . S
C3386 C3383 1.499 . S
C3386 C3387 1.373 . S
C3386 C3388 1.389 . S
C3387 H3366 0.950 . S
C3387 C3386 1.373 . S
C3387 C3403 1.377 . S
C3388 C3386 1.389 . S
C3388 C3389 1.524 . S
C3388 C3402 1.377 . S
C3389 C3388 1.524 . S
C3389 C3390 1.397 . S
C3389 C3394 1.363 . S
C3390 H3367 0.950 . S
C3390 C3389 1.397 . S
C3390 C3391 1.334 . S
C3391 H3368 0.950 . S
C3391 C3390 1.334 . S
C3391 C3392 1.287 . S
C3392 C3391 1.287 . S
C3392 C3393 1.524 . S
C3392 H3411 0.913 . S
C3393 H3369 0.950 . S
C3393 C3392 1.524 . S
C3393 C3394 1.415 . S
C3394 H3370 0.950 . S
C3394 C3389 1.363 . S
C3394 C3393 1.415 . S
C3395 H3371 0.951 . S
C3395 C3396 1.366 . S
C3395 C3397 1.388 . S
C3396 C3395 1.366 . S
C3396 C3400 1.385 . S
C3397 H3372 0.951 . S
C3397 C3395 1.388 . S
C3397 C3398 1.366 . S
C3398 C3397 1.366 . S
C3398 C3399 1.414 . S
C3398 C3401 1.499 . S
C3399 H3373 0.950 . S
C3399 C3398 1.414 . S
C3399 C3400 1.374 . S
C3400 H3374 0.950 . S
C3400 C3396 1.385 . S
C3400 C3399 1.374 . S
C3401 C3398 1.499 . S
C3401 C3402 1.373 . S
C3401 C3403 1.389 . S
C3402 H3375 0.950 . S
C3402 C3388 1.377 . S
C3402 C3401 1.373 . S
C3403 C3387 1.377 . S
C3403 C3401 1.389 . S
C3403 C3404 1.524 1_455 S
C3404 C3403 1.524 1_655 S
C3404 C3405 1.397 . S
C3404 C3409 1.363 . S
C3405 H3376 0.950 . S
C3405 C3404 1.397 . S
C3405 C3406 1.334 . S
C3406 H3377 0.950 . S
C3406 C3405 1.334 . S
C3406 C3407 1.287 . S
C3407 C3406 1.287 . S
C3407 C3408 1.524 . S
C3407 H3410 0.999 . S
C3408 H3378 0.950 . S
C3408 C3407 1.524 . S
C3408 C3409 1.415 . S
C3409 H3379 0.950 1_655 S
C3409 C3404 1.363 . S
C3409 C3408 1.415 . S
H3410 C3407 0.999 . S
H3411 C3392 0.913 . S
H3412 C3430 0.951 . S
H3413 C3432 0.951 . S
H3414 C3434 0.950 . S
H3415 C3435 0.950 . S
H3416 C3437 0.950 . S
H3417 C3440 0.950 . S
H3418 C3441 0.950 . S
H3419 C3443 0.950 . S
H3420 C3444 0.950 . S
H3421 C3445 0.951 . S
H3422 C3447 0.951 . S
H3423 C3449 0.950 . S
H3424 C3450 0.950 . S
H3425 C3452 0.950 . S
H3426 C3455 0.950 . S
H3427 C3456 0.950 . S
H3428 C3458 0.950 . S
H3429 C3459 0.950 . S
C3430 H3412 0.951 . S
C3430 C3431 1.366 . S
C3430 C3432 1.388 . S
C3431 C3430 1.366 . S
C3431 C3435 1.385 . S
C3432 H3413 0.951 . S
C3432 C3430 1.388 . S
C3432 C3433 1.366 . S
C3433 C3432 1.366 . S
C3433 C3434 1.414 . S
C3433 C3436 1.499 . S
C3434 H3414 0.950 . S
C3434 C3433 1.414 . S
C3434 C3435 1.374 . S
C3435 H3415 0.950 . S
C3435 C3431 1.385 . S
C3435 C3434 1.374 . S
C3436 C3433 1.499 . S
C3436 C3437 1.373 . S
C3436 C3438 1.389 . S
C3437 H3416 0.950 . S
C3437 C3436 1.373 . S
C3437 C3453 1.377 . S
C3438 C3436 1.389 . S
C3438 C3439 1.524 . S
C3438 C3452 1.377 . S
C3439 C3438 1.524 . S
C3439 C3440 1.397 . S
C3439 C3444 1.363 . S
C3440 H3417 0.950 . S
C3440 C3439 1.397 . S
C3440 C3441 1.334 . S
C3441 H3418 0.950 . S
C3441 C3440 1.334 . S
C3441 C3442 1.287 . S
C3442 C3441 1.287 . S
C3442 C3443 1.524 . S
C3442 H3461 0.913 . S
C3443 H3419 0.950 . S
C3443 C3442 1.524 . S
C3443 C3444 1.415 . S
C3444 H3420 0.950 . S
C3444 C3439 1.363 . S
C3444 C3443 1.415 . S
C3445 H3421 0.951 . S
C3445 C3446 1.366 . S
C3445 C3447 1.388 . S
C3446 C3445 1.366 . S
C3446 C3450 1.385 . S
C3447 H3422 0.951 . S
C3447 C3445 1.388 . S
C3447 C3448 1.366 . S
C3448 C3447 1.366 . S
C3448 C3449 1.414 . S
C3448 C3451 1.499 . S
C3449 H3423 0.950 . S
C3449 C3448 1.414 . S
C3449 C3450 1.374 . S
C3450 H3424 0.950 . S
C3450 C3446 1.385 . S
C3450 C3449 1.374 . S
C3451 C3448 1.499 . S
C3451 C3452 1.373 . S
C3451 C3453 1.389 . S
C3452 H3425 0.950 . S
C3452 C3438 1.377 . S
C3452 C3451 1.373 . S
C3453 C3437 1.377 . S
C3453 C3451 1.389 . S
C3453 C3454 1.524 . S
C3454 C3453 1.524 . S
C3454 C3455 1.397 . S
C3454 C3459 1.363 . S
C3455 H3426 0.950 . S
C3455 C3454 1.397 . S
C3455 C3456 1.334 . S
C3456 H3427 0.950 . S
C3456 C3455 1.334 . S
C3456 C3457 1.287 . S
C3457 C3456 1.287 . S
C3457 C3458 1.524 . S
C3457 H3460 0.999 . S
C3458 H3428 0.950 . S
C3458 C3457 1.524 . S
C3458 C3459 1.415 . S
C3459 H3429 0.950 . S
C3459 C3454 1.363 . S
C3459 C3458 1.415 . S
H3460 C3457 0.999 . S
H3461 C3442 0.913 . S
H3462 C3480 0.951 . S
H3463 C3482 0.951 . S
H3464 C3484 0.950 . S
H3465 C3485 0.950 . S
H3466 C3487 0.950 . S
H3467 C3490 0.950 . S
H3468 C3491 0.950 . S
H3469 C3493 0.950 . S
H3470 C3494 0.950 . S
H3471 C3495 0.951 . S
H3472 C3497 0.951 . S
H3473 C3499 0.950 . S
H3474 C3500 0.950 . S
H3475 C3502 0.950 . S
H3476 C3505 0.950 . S
H3477 C3506 0.950 . S
H3478 C3508 0.950 . S
H3479 C3509 0.950 . S
C3480 H3462 0.951 . S
C3480 C3481 1.366 . S
C3480 C3482 1.388 . S
C3481 C3480 1.366 . S
C3481 C3485 1.385 . S
C3482 H3463 0.951 . S
C3482 C3480 1.388 . S
C3482 C3483 1.366 . S
C3483 C3482 1.366 . S
C3483 C3484 1.414 . S
C3483 C3486 1.499 . S
C3484 H3464 0.950 . S
C3484 C3483 1.414 . S
C3484 C3485 1.374 . S
C3485 H3465 0.950 . S
C3485 C3481 1.385 . S
C3485 C3484 1.374 . S
C3486 C3483 1.499 . S
C3486 C3487 1.373 . S
C3486 C3488 1.389 . S
C3487 H3466 0.950 . S
C3487 C3486 1.373 . S
C3487 C3503 1.377 . S
C3488 C3486 1.389 . S
C3488 C3489 1.524 . S
C3488 C3502 1.377 . S
C3489 C3488 1.524 . S
C3489 C3490 1.397 . S
C3489 C3494 1.363 . S
C3490 H3467 0.950 . S
C3490 C3489 1.397 . S
C3490 C3491 1.334 . S
C3491 H3468 0.950 . S
C3491 C3490 1.334 . S
C3491 C3492 1.287 . S
C3492 C3491 1.287 . S
C3492 C3493 1.524 . S
C3492 H3511 0.913 . S
C3493 H3469 0.950 . S
C3493 C3492 1.524 . S
C3493 C3494 1.415 . S
C3494 H3470 0.950 . S
C3494 C3489 1.363 . S
C3494 C3493 1.415 . S
C3495 H3471 0.951 . S
C3495 C3496 1.366 . S
C3495 C3497 1.388 . S
C3496 C3495 1.366 . S
C3496 C3500 1.385 . S
C3497 H3472 0.951 . S
C3497 C3495 1.388 . S
C3497 C3498 1.366 . S
C3498 C3497 1.366 . S
C3498 C3499 1.414 . S
C3498 C3501 1.499 . S
C3499 H3473 0.950 . S
C3499 C3498 1.414 . S
C3499 C3500 1.374 . S
C3500 H3474 0.950 . S
C3500 C3496 1.385 . S
C3500 C3499 1.374 . S
C3501 C3498 1.499 . S
C3501 C3502 1.373 . S
C3501 C3503 1.389 . S
C3502 H3475 0.950 . S
C3502 C3488 1.377 . S
C3502 C3501 1.373 . S
C3503 C3487 1.377 . S
C3503 C3501 1.389 . S
C3503 C3504 1.524 . S
C3504 C3503 1.524 . S
C3504 C3505 1.397 . S
C3504 C3509 1.363 . S
C3505 H3476 0.950 . S
C3505 C3504 1.397 . S
C3505 C3506 1.334 . S
C3506 H3477 0.950 . S
C3506 C3505 1.334 . S
C3506 C3507 1.287 . S
C3507 C3506 1.287 . S
C3507 C3508 1.524 . S
C3507 H3510 0.999 . S
C3508 H3478 0.950 . S
C3508 C3507 1.524 . S
C3508 C3509 1.415 . S
C3509 H3479 0.950 . S
C3509 C3504 1.363 . S
C3509 C3508 1.415 . S
H3510 C3507 0.999 . S
H3511 C3492 0.913 . S
H3512 C3530 0.951 . S
H3513 C3532 0.951 . S
H3514 C3534 0.950 . S
H3515 C3535 0.950 . S
H3516 C3537 0.950 . S
H3517 C3540 0.950 . S
H3518 C3541 0.950 . S
H3519 C3543 0.950 . S
H3520 C3544 0.950 . S
H3521 C3545 0.951 . S
H3522 C3547 0.951 . S
H3523 C3549 0.950 . S
H3524 C3550 0.950 . S
H3525 C3552 0.950 . S
H3526 C3555 0.950 . S
H3527 C3556 0.950 . S
H3528 C3558 0.950 . S
H3529 C3559 0.950 . S
C3530 H3512 0.951 . S
C3530 C3531 1.366 . S
C3530 C3532 1.388 . S
C3531 C3530 1.366 . S
C3531 C3535 1.385 . S
C3532 H3513 0.951 . S
C3532 C3530 1.388 . S
C3532 C3533 1.366 . S
C3533 C3532 1.366 . S
C3533 C3534 1.414 . S
C3533 C3536 1.499 . S
C3534 H3514 0.950 . S
C3534 C3533 1.414 . S
C3534 C3535 1.374 . S
C3535 H3515 0.950 . S
C3535 C3531 1.385 . S
C3535 C3534 1.374 . S
C3536 C3533 1.499 . S
C3536 C3537 1.373 . S
C3536 C3538 1.389 . S
C3537 H3516 0.950 . S
C3537 C3536 1.373 . S
C3537 C3553 1.377 . S
C3538 C3536 1.389 . S
C3538 C3539 1.524 . S
C3538 C3552 1.377 . S
C3539 C3538 1.524 . S
C3539 C3540 1.397 . S
C3539 C3544 1.363 . S
C3540 H3517 0.950 . S
C3540 C3539 1.397 . S
C3540 C3541 1.334 . S
C3541 H3518 0.950 . S
C3541 C3540 1.334 . S
C3541 C3542 1.287 . S
C3542 C3541 1.287 . S
C3542 C3543 1.524 . S
C3542 H3561 0.913 . S
C3543 H3519 0.950 . S
C3543 C3542 1.524 . S
C3543 C3544 1.415 . S
C3544 H3520 0.950 . S
C3544 C3539 1.363 . S
C3544 C3543 1.415 . S
C3545 H3521 0.951 . S
C3545 C3546 1.366 . S
C3545 C3547 1.388 . S
C3546 C3545 1.366 . S
C3546 C3550 1.385 . S
C3547 H3522 0.951 . S
C3547 C3545 1.388 . S
C3547 C3548 1.366 . S
C3548 C3547 1.366 . S
C3548 C3549 1.414 . S
C3548 C3551 1.499 . S
C3549 H3523 0.950 . S
C3549 C3548 1.414 . S
C3549 C3550 1.374 . S
C3550 H3524 0.950 . S
C3550 C3546 1.385 . S
C3550 C3549 1.374 . S
C3551 C3548 1.499 . S
C3551 C3552 1.373 . S
C3551 C3553 1.389 . S
C3552 H3525 0.950 . S
C3552 C3538 1.377 . S
C3552 C3551 1.373 . S
C3553 C3537 1.377 . S
C3553 C3551 1.389 . S
C3553 C3554 1.524 . S
C3554 C3553 1.524 . S
C3554 C3555 1.397 . S
C3554 C3559 1.363 . S
C3555 H3526 0.950 . S
C3555 C3554 1.397 . S
C3555 C3556 1.334 . S
C3556 H3527 0.950 . S
C3556 C3555 1.334 . S
C3556 C3557 1.287 . S
C3557 C3556 1.287 . S
C3557 C3558 1.524 . S
C3557 H3560 0.999 . S
C3558 H3528 0.950 . S
C3558 C3557 1.524 . S
C3558 C3559 1.415 . S
C3559 H3529 0.950 . S
C3559 C3554 1.363 . S
C3559 C3558 1.415 . S
H3560 C3557 0.999 . S
H3561 C3542 0.913 . S
H3562 C3580 0.951 . S
H3563 C3582 0.951 . S
H3564 C3584 0.950 . S
H3565 C3585 0.950 . S
H3566 C3587 0.950 . S
H3567 C3590 0.950 . S
H3568 C3591 0.950 . S
H3569 C3593 0.950 . S
H3570 C3594 0.950 . S
H3571 C3595 0.951 . S
H3572 C3597 0.951 . S
H3573 C3599 0.950 . S
H3574 C3600 0.950 . S
H3575 C3602 0.950 . S
H3576 C3605 0.950 . S
H3577 C3606 0.950 . S
H3578 C3608 0.950 . S
H3579 C3609 0.950 . S
C3580 H3562 0.951 . S
C3580 C3581 1.366 . S
C3580 C3582 1.388 . S
C3581 C3580 1.366 . S
C3581 C3585 1.385 . S
C3582 H3563 0.951 . S
C3582 C3580 1.388 . S
C3582 C3583 1.366 . S
C3583 C3582 1.366 . S
C3583 C3584 1.414 . S
C3583 C3586 1.499 . S
C3584 H3564 0.950 . S
C3584 C3583 1.414 . S
C3584 C3585 1.374 . S
C3585 H3565 0.950 . S
C3585 C3581 1.385 . S
C3585 C3584 1.374 . S
C3586 C3583 1.499 . S
C3586 C3587 1.373 . S
C3586 C3588 1.389 . S
C3587 H3566 0.950 . S
C3587 C3586 1.373 . S
C3587 C3603 1.377 . S
C3588 C3586 1.389 . S
C3588 C3589 1.524 . S
C3588 C3602 1.377 . S
C3589 C3588 1.524 . S
C3589 C3590 1.397 . S
C3589 C3594 1.363 . S
C3590 H3567 0.950 . S
C3590 C3589 1.397 . S
C3590 C3591 1.334 . S
C3591 H3568 0.950 . S
C3591 C3590 1.334 . S
C3591 C3592 1.287 . S
C3592 C3591 1.287 . S
C3592 C3593 1.524 . S
C3592 H3611 0.913 . S
C3593 H3569 0.950 . S
C3593 C3592 1.524 . S
C3593 C3594 1.415 . S
C3594 H3570 0.950 . S
C3594 C3589 1.363 . S
C3594 C3593 1.415 . S
C3595 H3571 0.951 . S
C3595 C3596 1.366 . S
C3595 C3597 1.388 . S
C3596 C3595 1.366 . S
C3596 C3600 1.385 . S
C3597 H3572 0.951 . S
C3597 C3595 1.388 . S
C3597 C3598 1.366 . S
C3598 C3597 1.366 . S
C3598 C3599 1.414 . S
C3598 C3601 1.499 . S
C3599 H3573 0.950 . S
C3599 C3598 1.414 . S
C3599 C3600 1.374 . S
C3600 H3574 0.950 . S
C3600 C3596 1.385 . S
C3600 C3599 1.374 . S
C3601 C3598 1.499 . S
C3601 C3602 1.373 . S
C3601 C3603 1.389 . S
C3602 H3575 0.950 . S
C3602 C3588 1.377 . S
C3602 C3601 1.373 . S
C3603 C3587 1.377 . S
C3603 C3601 1.389 . S
C3603 C3604 1.524 . S
C3604 C3603 1.524 . S
C3604 C3605 1.397 . S
C3604 C3609 1.363 . S
C3605 H3576 0.950 . S
C3605 C3604 1.397 . S
C3605 C3606 1.334 . S
C3606 H3577 0.950 . S
C3606 C3605 1.334 . S
C3606 C3607 1.287 . S
C3607 C3606 1.287 . S
C3607 C3608 1.524 . S
C3607 H3610 0.999 . S
C3608 H3578 0.950 . S
C3608 C3607 1.524 . S
C3608 C3609 1.415 . S
C3609 H3579 0.950 . S
C3609 C3604 1.363 . S
C3609 C3608 1.415 . S
H3610 C3607 0.999 . S
H3611 C3592 0.913 . S
H3612 C3630 0.951 . S
H3613 C3632 0.951 . S
H3614 C3634 0.950 . S
H3615 C3635 0.950 . S
H3616 C3637 0.950 . S
H3617 C3640 0.950 . S
H3618 C3641 0.950 . S
H3619 C3643 0.950 . S
H3620 C3644 0.950 . S
H3621 C3645 0.951 . S
H3622 C3647 0.951 . S
H3623 C3649 0.950 . S
H3624 C3650 0.950 . S
H3625 C3652 0.950 . S
H3626 C3655 0.950 . S
H3627 C3656 0.950 . S
H3628 C3658 0.950 . S
H3629 C3659 0.950 . S
C3630 H3612 0.951 . S
C3630 C3631 1.366 . S
C3630 C3632 1.388 . S
C3631 C3630 1.366 . S
C3631 C3635 1.385 . S
C3632 H3613 0.951 . S
C3632 C3630 1.388 . S
C3632 C3633 1.366 . S
C3633 C3632 1.366 . S
C3633 C3634 1.414 . S
C3633 C3636 1.499 . S
C3634 H3614 0.950 . S
C3634 C3633 1.414 . S
C3634 C3635 1.374 . S
C3635 H3615 0.950 . S
C3635 C3631 1.385 . S
C3635 C3634 1.374 . S
C3636 C3633 1.499 . S
C3636 C3637 1.373 . S
C3636 C3638 1.389 . S
C3637 H3616 0.950 . S
C3637 C3636 1.373 . S
C3637 C3653 1.377 . S
C3638 C3636 1.389 . S
C3638 C3639 1.533 . S
C3638 C3652 1.377 . S
C3639 C3638 1.533 . S
C3639 C3640 1.391 1_545 S
C3639 C3644 1.358 . S
C3640 H3617 0.950 . S
C3640 C3639 1.391 1_565 S
C3640 C3641 1.334 . S
C3641 H3618 0.950 . S
C3641 C3640 1.334 . S
C3641 C3642 1.287 . S
C3642 C3641 1.287 . S
C3642 C3643 1.524 . S
C3642 H3661 0.913 . S
C3643 H3619 0.950 . S
C3643 C3642 1.524 . S
C3643 C3644 1.415 1_565 S
C3644 H3620 0.950 . S
C3644 C3639 1.358 . S
C3644 C3643 1.415 1_545 S
C3645 H3621 0.951 . S
C3645 C3646 1.366 . S
C3645 C3647 1.388 . S
C3646 C3645 1.366 . S
C3646 C3650 1.385 . S
C3647 H3622 0.951 . S
C3647 C3645 1.388 . S
C3647 C3648 1.366 . S
C3648 C3647 1.366 . S
C3648 C3649 1.414 . S
C3648 C3651 1.499 . S
C3649 H3623 0.950 . S
C3649 C3648 1.414 . S
C3649 C3650 1.374 . S
C3650 H3624 0.950 . S
C3650 C3646 1.385 . S
C3650 C3649 1.374 . S
C3651 C3648 1.499 . S
C3651 C3652 1.373 . S
C3651 C3653 1.389 . S
C3652 H3625 0.950 . S
C3652 C3638 1.377 . S
C3652 C3651 1.373 . S
C3653 C3637 1.377 . S
C3653 C3651 1.389 . S
C3653 C3654 1.524 . S
C3654 C3653 1.524 . S
C3654 C3655 1.397 . S
C3654 C3659 1.363 . S
C3655 H3626 0.950 . S
C3655 C3654 1.397 . S
C3655 C3656 1.334 . S
C3656 H3627 0.950 . S
C3656 C3655 1.334 . S
C3656 C3657 1.287 . S
C3657 C3656 1.287 . S
C3657 C3658 1.524 . S
C3657 H3660 0.999 . S
C3658 H3628 0.950 . S
C3658 C3657 1.524 . S
C3658 C3659 1.415 . S
C3659 H3629 0.950 . S
C3659 C3654 1.363 . S
C3659 C3658 1.415 . S
H3660 C3657 0.999 . S
H3661 C3642 0.913 . S
H3662 C3680 0.951 . S
H3663 C3682 0.951 . S
H3664 C3684 0.950 . S
H3665 C3685 0.950 . S
H3666 C3687 0.950 . S
H3667 C3690 0.950 . S
H3668 C3691 0.950 . S
H3669 C3693 0.950 . S
H3670 C3694 0.950 . S
H3671 C3695 0.951 . S
H3672 C3697 0.951 . S
H3673 C3699 0.950 . S
H3674 C3700 0.950 . S
H3675 C3702 0.950 . S
H3676 C3705 0.950 . S
H3677 C3706 0.950 . S
H3678 C3708 0.950 . S
H3679 C3709 0.950 . S
C3680 H3662 0.951 . S
C3680 C3681 1.366 . S
C3680 C3682 1.388 . S
C3681 C3680 1.366 . S
C3681 C3685 1.385 1_655 S
C3682 H3663 0.951 . S
C3682 C3680 1.388 . S
C3682 C3683 1.366 . S
C3683 C3682 1.366 . S
C3683 C3684 1.414 1_655 S
C3683 C3686 1.499 . S
C3684 H3664 0.950 . S
C3684 C3683 1.414 1_455 S
C3684 C3685 1.374 . S
C3685 H3665 0.950 . S
C3685 C3681 1.385 1_455 S
C3685 C3684 1.374 . S
C3686 C3683 1.499 . S
C3686 C3687 1.373 1_655 S
C3686 C3688 1.389 . S
C3687 H3666 0.950 . S
C3687 C3686 1.373 1_455 S
C3687 C3703 1.377 . S
C3688 C3686 1.389 . S
C3688 C3689 1.524 . S
C3688 C3702 1.377 . S
C3689 C3688 1.524 . S
C3689 C3690 1.397 . S
C3689 C3694 1.363 . S
C3690 H3667 0.950 . S
C3690 C3689 1.397 . S
C3690 C3691 1.334 . S
C3691 H3668 0.950 . S
C3691 C3690 1.334 . S
C3691 C3692 1.287 . S
C3692 C3691 1.287 . S
C3692 C3693 1.524 . S
C3692 H3711 0.913 . S
C3693 H3669 0.950 . S
C3693 C3692 1.524 . S
C3693 C3694 1.415 . S
C3694 H3670 0.950 . S
C3694 C3689 1.363 . S
C3694 C3693 1.415 . S
C3695 H3671 0.951 . S
C3695 C3696 1.366 1_455 S
C3695 C3697 1.388 . S
C3696 C3695 1.366 1_655 S
C3696 C3700 1.385 . S
C3697 H3672 0.951 . S
C3697 C3695 1.388 . S
C3697 C3698 1.366 1_455 S
C3698 C3697 1.366 1_655 S
C3698 C3699 1.414 . S
C3698 C3701 1.499 . S
C3699 H3673 0.950 . S
C3699 C3698 1.414 . S
C3699 C3700 1.374 . S
C3700 H3674 0.950 . S
C3700 C3696 1.385 . S
C3700 C3699 1.374 . S
C3701 C3698 1.499 . S
C3701 C3702 1.373 . S
C3701 C3703 1.389 1_655 S
C3702 H3675 0.950 . S
C3702 C3688 1.377 . S
C3702 C3701 1.373 . S
C3703 C3687 1.377 . S
C3703 C3701 1.389 1_455 S
C3703 C3704 1.524 . S
C3704 C3703 1.524 . S
C3704 C3705 1.397 . S
C3704 C3709 1.363 . S
C3705 H3676 0.950 . S
C3705 C3704 1.397 . S
C3705 C3706 1.334 . S
C3706 H3677 0.950 . S
C3706 C3705 1.334 . S
C3706 C3707 1.287 . S
C3707 C3706 1.287 . S
C3707 C3708 1.524 . S
C3707 H3710 0.999 . S
C3708 H3678 0.950 . S
C3708 C3707 1.524 . S
C3708 C3709 1.415 . S
C3709 H3679 0.950 . S
C3709 C3704 1.363 . S
C3709 C3708 1.415 . S
H3710 C3707 0.999 . S
H3711 C3692 0.913 . S
H3712 C3730 0.951 . S
H3713 C3732 0.951 . S
H3714 C3734 0.950 . S
H3715 C3735 0.950 . S
H3716 C3737 0.950 . S
H3717 C3740 0.950 . S
H3718 C3741 0.950 . S
H3719 C3743 0.950 . S
H3720 C3744 0.950 . S
H3721 C3745 0.951 . S
H3722 C3747 0.951 . S
H3723 C3749 0.950 . S
H3724 C3750 0.950 . S
H3725 C3752 0.950 . S
H3726 C3755 0.950 . S
H3727 C3756 0.950 . S
H3728 C3758 0.950 . S
H3729 C3759 0.950 . S
C3730 H3712 0.951 . S
C3730 C3731 1.366 . S
C3730 C3732 1.388 . S
C3731 C3730 1.366 . S
C3731 C3735 1.385 . S
C3732 H3713 0.951 . S
C3732 C3730 1.388 . S
C3732 C3733 1.366 . S
C3733 C3732 1.366 . S
C3733 C3734 1.414 . S
C3733 C3736 1.499 . S
C3734 H3714 0.950 . S
C3734 C3733 1.414 . S
C3734 C3735 1.374 . S
C3735 H3715 0.950 . S
C3735 C3731 1.385 . S
C3735 C3734 1.374 . S
C3736 C3733 1.499 . S
C3736 C3737 1.373 . S
C3736 C3738 1.389 . S
C3737 H3716 0.950 . S
C3737 C3736 1.373 . S
C3737 C3753 1.377 . S
C3738 C3736 1.389 . S
C3738 C3739 1.524 . S
C3738 C3752 1.377 . S
C3739 C3738 1.524 . S
C3739 C3740 1.397 . S
C3739 C3744 1.363 . S
C3740 H3717 0.950 . S
C3740 C3739 1.397 . S
C3740 C3741 1.334 . S
C3741 H3718 0.950 . S
C3741 C3740 1.334 . S
C3741 C3742 1.287 . S
C3742 C3741 1.287 . S
C3742 C3743 1.524 . S
C3742 H3761 0.913 . S
C3743 H3719 0.950 . S
C3743 C3742 1.524 . S
C3743 C3744 1.415 . S
C3744 H3720 0.950 . S
C3744 C3739 1.363 . S
C3744 C3743 1.415 . S
C3745 H3721 0.951 . S
C3745 C3746 1.366 . S
C3745 C3747 1.388 . S
C3746 C3745 1.366 . S
C3746 C3750 1.385 . S
C3747 H3722 0.951 . S
C3747 C3745 1.388 . S
C3747 C3748 1.366 . S
C3748 C3747 1.366 . S
C3748 C3749 1.414 . S
C3748 C3751 1.499 . S
C3749 H3723 0.950 . S
C3749 C3748 1.414 . S
C3749 C3750 1.374 . S
C3750 H3724 0.950 . S
C3750 C3746 1.385 . S
C3750 C3749 1.374 . S
C3751 C3748 1.499 . S
C3751 C3752 1.373 . S
C3751 C3753 1.389 . S
C3752 H3725 0.950 . S
C3752 C3738 1.377 . S
C3752 C3751 1.373 . S
C3753 C3737 1.377 . S
C3753 C3751 1.389 . S
C3753 C3754 1.524 . S
C3754 C3753 1.524 . S
C3754 C3755 1.397 . S
C3754 C3759 1.363 . S
C3755 H3726 0.950 . S
C3755 C3754 1.397 . S
C3755 C3756 1.334 . S
C3756 H3727 0.950 . S
C3756 C3755 1.334 . S
C3756 C3757 1.287 . S
C3757 C3756 1.287 . S
C3757 C3758 1.524 . S
C3757 H3760 0.999 . S
C3758 H3728 0.950 . S
C3758 C3757 1.524 . S
C3758 C3759 1.415 . S
C3759 H3729 0.950 . S
C3759 C3754 1.363 . S
C3759 C3758 1.415 . S
H3760 C3757 0.999 . S
H3761 C3742 0.913 . S
H3762 C3780 0.951 . S
H3763 C3782 0.951 . S
H3764 C3784 0.950 . S
H3765 C3785 0.950 . S
H3766 C3787 0.950 . S
H3767 C3790 0.950 . S
H3768 C3791 0.950 . S
H3769 C3793 0.950 . S
H3770 C3794 0.950 . S
H3771 C3795 0.951 . S
H3772 C3797 0.951 . S
H3773 C3799 0.950 . S
H3774 C3800 0.950 . S
H3775 C3802 0.950 . S
H3776 C3805 0.950 . S
H3777 C3806 0.950 . S
H3778 C3808 0.950 . S
H3779 C3809 0.950 . S
C3780 H3762 0.951 . S
C3780 C3781 1.366 . S
C3780 C3782 1.388 . S
C3781 C3780 1.366 . S
C3781 C3785 1.385 . S
C3782 H3763 0.951 . S
C3782 C3780 1.388 . S
C3782 C3783 1.366 . S
C3783 C3782 1.366 . S
C3783 C3784 1.414 . S
C3783 C3786 1.499 . S
C3784 H3764 0.950 . S
C3784 C3783 1.414 . S
C3784 C3785 1.374 . S
C3785 H3765 0.950 . S
C3785 C3781 1.385 . S
C3785 C3784 1.374 . S
C3786 C3783 1.499 . S
C3786 C3787 1.373 . S
C3786 C3788 1.389 . S
C3787 H3766 0.950 . S
C3787 C3786 1.373 . S
C3787 C3803 1.377 . S
C3788 C3786 1.389 . S
C3788 C3789 1.524 . S
C3788 C3802 1.377 . S
C3789 C3788 1.524 . S
C3789 C3790 1.397 . S
C3789 C3794 1.363 . S
C3790 H3767 0.950 . S
C3790 C3789 1.397 . S
C3790 C3791 1.334 . S
C3791 H3768 0.950 . S
C3791 C3790 1.334 . S
C3791 C3792 1.287 . S
C3792 C3791 1.287 . S
C3792 C3793 1.524 . S
C3792 H3811 0.913 . S
C3793 H3769 0.950 . S
C3793 C3792 1.524 . S
C3793 C3794 1.415 . S
C3794 H3770 0.950 . S
C3794 C3789 1.363 . S
C3794 C3793 1.415 . S
C3795 H3771 0.951 . S
C3795 C3796 1.366 . S
C3795 C3797 1.388 . S
C3796 C3795 1.366 . S
C3796 C3800 1.385 . S
C3797 H3772 0.951 . S
C3797 C3795 1.388 . S
C3797 C3798 1.366 . S
C3798 C3797 1.366 . S
C3798 C3799 1.414 . S
C3798 C3801 1.499 . S
C3799 H3773 0.950 . S
C3799 C3798 1.414 . S
C3799 C3800 1.374 . S
C3800 H3774 0.950 . S
C3800 C3796 1.385 . S
C3800 C3799 1.374 . S
C3801 C3798 1.499 . S
C3801 C3802 1.373 . S
C3801 C3803 1.389 . S
C3802 H3775 0.950 . S
C3802 C3788 1.377 . S
C3802 C3801 1.373 . S
C3803 C3787 1.377 . S
C3803 C3801 1.389 . S
C3803 C3804 1.524 . S
C3804 C3803 1.524 . S
C3804 C3805 1.397 . S
C3804 C3809 1.363 . S
C3805 H3776 0.950 . S
C3805 C3804 1.397 . S
C3805 C3806 1.334 . S
C3806 H3777 0.950 . S
C3806 C3805 1.334 . S
C3806 C3807 1.287 . S
C3807 C3806 1.287 . S
C3807 C3808 1.524 . S
C3807 H3810 0.999 . S
C3808 H3778 0.950 . S
C3808 C3807 1.524 . S
C3808 C3809 1.415 . S
C3809 H3779 0.950 . S
C3809 C3804 1.363 . S
C3809 C3808 1.415 . S
H3810 C3807 0.999 . S
H3811 C3792 0.913 . S
H3812 C3830 0.951 . S
H3813 C3832 0.951 . S
H3814 C3834 0.950 . S
H3815 C3835 0.950 . S
H3816 C3837 0.950 . S
H3817 C3840 0.950 . S
H3818 C3841 0.950 . S
H3819 C3843 0.950 . S
H3820 C3844 0.950 . S
H3821 C3845 0.951 . S
H3822 C3847 0.951 . S
H3823 C3849 0.950 . S
H3824 C3850 0.950 . S
H3825 C3852 0.950 . S
H3826 C3855 0.950 . S
H3827 C3856 0.950 . S
H3828 C3858 0.950 . S
H3829 C3859 0.950 . S
C3830 H3812 0.951 . S
C3830 C3831 1.366 . S
C3830 C3832 1.388 . S
C3831 C3830 1.366 . S
C3831 C3835 1.385 . S
C3832 H3813 0.951 . S
C3832 C3830 1.388 . S
C3832 C3833 1.366 . S
C3833 C3832 1.366 . S
C3833 C3834 1.414 . S
C3833 C3836 1.499 . S
C3834 H3814 0.950 . S
C3834 C3833 1.414 . S
C3834 C3835 1.374 . S
C3835 H3815 0.950 . S
C3835 C3831 1.385 . S
C3835 C3834 1.374 . S
C3836 C3833 1.499 . S
C3836 C3837 1.373 . S
C3836 C3838 1.389 . S
C3837 H3816 0.950 . S
C3837 C3836 1.373 . S
C3837 C3853 1.377 . S
C3838 C3836 1.389 . S
C3838 C3839 1.524 . S
C3838 C3852 1.377 . S
C3839 C3838 1.524 . S
C3839 C3840 1.397 . S
C3839 C3844 1.363 . S
C3840 H3817 0.950 . S
C3840 C3839 1.397 . S
C3840 C3841 1.334 . S
C3841 H3818 0.950 . S
C3841 C3840 1.334 . S
C3841 C3842 1.287 . S
C3842 C3841 1.287 . S
C3842 C3843 1.524 . S
C3842 H3861 0.913 . S
C3843 H3819 0.950 . S
C3843 C3842 1.524 . S
C3843 C3844 1.415 . S
C3844 H3820 0.950 . S
C3844 C3839 1.363 . S
C3844 C3843 1.415 . S
C3845 H3821 0.951 . S
C3845 C3846 1.366 . S
C3845 C3847 1.388 . S
C3846 C3845 1.366 . S
C3846 C3850 1.385 . S
C3847 H3822 0.951 . S
C3847 C3845 1.388 . S
C3847 C3848 1.366 . S
C3848 C3847 1.366 . S
C3848 C3849 1.414 . S
C3848 C3851 1.499 . S
C3849 H3823 0.950 . S
C3849 C3848 1.414 . S
C3849 C3850 1.374 . S
C3850 H3824 0.950 . S
C3850 C3846 1.385 . S
C3850 C3849 1.374 . S
C3851 C3848 1.499 . S
C3851 C3852 1.373 . S
C3851 C3853 1.389 . S
C3852 H3825 0.950 . S
C3852 C3838 1.377 . S
C3852 C3851 1.373 . S
C3853 C3837 1.377 . S
C3853 C3851 1.389 . S
C3853 C3854 1.524 . S
C3854 C3853 1.524 . S
C3854 C3855 1.397 . S
C3854 C3859 1.363 . S
C3855 H3826 0.950 . S
C3855 C3854 1.397 . S
C3855 C3856 1.334 . S
C3856 H3827 0.950 . S
C3856 C3855 1.334 . S
C3856 C3857 1.287 . S
C3857 C3856 1.287 . S
C3857 C3858 1.524 . S
C3857 H3860 0.999 . S
C3858 H3828 0.950 . S
C3858 C3857 1.524 . S
C3858 C3859 1.415 . S
C3859 H3829 0.950 . S
C3859 C3854 1.363 . S
C3859 C3858 1.415 . S
H3860 C3857 0.999 . S
H3861 C3842 0.913 . S
H3862 C3880 0.951 . S
H3863 C3882 0.951 . S
H3864 C3884 0.950 . S
H3865 C3885 0.950 . S
H3866 C3887 0.950 . S
H3867 C3890 0.950 . S
H3868 C3891 0.950 . S
H3869 C3893 0.950 . S
H3870 C3894 0.950 . S
H3871 C3895 0.951 . S
H3872 C3897 0.951 . S
H3873 C3899 0.950 . S
H3874 C3900 0.950 . S
H3875 C3902 0.950 . S
H3876 C3905 0.950 . S
H3877 C3906 0.950 . S
H3878 C3908 0.950 . S
H3879 C3909 0.950 . S
C3880 H3862 0.951 . S
C3880 C3881 1.366 . S
C3880 C3882 1.388 . S
C3881 C3880 1.366 . S
C3881 C3885 1.385 . S
C3882 H3863 0.951 . S
C3882 C3880 1.388 . S
C3882 C3883 1.366 . S
C3883 C3882 1.366 . S
C3883 C3884 1.414 . S
C3883 C3886 1.499 . S
C3884 H3864 0.950 . S
C3884 C3883 1.414 . S
C3884 C3885 1.374 . S
C3885 H3865 0.950 . S
C3885 C3881 1.385 . S
C3885 C3884 1.374 . S
C3886 C3883 1.499 . S
C3886 C3887 1.373 . S
C3886 C3888 1.389 . S
C3887 H3866 0.950 . S
C3887 C3886 1.373 . S
C3887 C3903 1.377 . S
C3888 C3886 1.389 . S
C3888 C3889 1.524 . S
C3888 C3902 1.377 . S
C3889 C3888 1.524 . S
C3889 C3890 1.397 . S
C3889 C3894 1.363 . S
C3890 H3867 0.950 . S
C3890 C3889 1.397 . S
C3890 C3891 1.334 . S
C3891 H3868 0.950 . S
C3891 C3890 1.334 . S
C3891 C3892 1.287 . S
C3892 C3891 1.287 . S
C3892 C3893 1.524 . S
C3892 H3911 0.913 . S
C3893 H3869 0.950 . S
C3893 C3892 1.524 . S
C3893 C3894 1.415 . S
C3894 H3870 0.950 . S
C3894 C3889 1.363 . S
C3894 C3893 1.415 . S
C3895 H3871 0.951 . S
C3895 C3896 1.366 . S
C3895 C3897 1.388 . S
C3896 C3895 1.366 . S
C3896 C3900 1.385 . S
C3897 H3872 0.951 . S
C3897 C3895 1.388 . S
C3897 C3898 1.366 . S
C3898 C3897 1.366 . S
C3898 C3899 1.414 . S
C3898 C3901 1.499 . S
C3899 H3873 0.950 . S
C3899 C3898 1.414 . S
C3899 C3900 1.374 . S
C3900 H3874 0.950 . S
C3900 C3896 1.385 . S
C3900 C3899 1.374 . S
C3901 C3898 1.499 . S
C3901 C3902 1.373 . S
C3901 C3903 1.389 . S
C3902 H3875 0.950 . S
C3902 C3888 1.377 . S
C3902 C3901 1.373 . S
C3903 C3887 1.377 . S
C3903 C3901 1.389 . S
C3903 C3904 1.524 . S
C3904 C3903 1.524 . S
C3904 C3905 1.397 . S
C3904 C3909 1.363 . S
C3905 H3876 0.950 . S
C3905 C3904 1.397 . S
C3905 C3906 1.334 . S
C3906 H3877 0.950 . S
C3906 C3905 1.334 . S
C3906 C3907 1.287 . S
C3907 C3906 1.287 . S
C3907 C3908 1.524 . S
C3907 H3910 0.999 . S
C3908 H3878 0.950 . S
C3908 C3907 1.524 . S
C3908 C3909 1.415 . S
C3909 H3879 0.950 . S
C3909 C3904 1.363 . S
C3909 C3908 1.415 . S
H3910 C3907 0.999 . S
H3911 C3892 0.913 . S
H3912 C3930 0.951 . S
H3913 C3932 0.951 . S
H3914 C3934 0.950 . S
H3915 C3935 0.950 . S
H3916 C3937 0.950 . S
H3917 C3940 0.950 . S
H3918 C3941 0.950 . S
H3919 C3943 0.950 . S
H3920 C3944 0.950 . S
H3921 C3945 0.951 . S
H3922 C3947 0.951 . S
H3923 C3949 0.950 . S
H3924 C3950 0.950 . S
H3925 C3952 0.950 . S
H3926 C3955 0.950 . S
H3927 C3956 0.950 . S
H3928 C3958 0.950 . S
H3929 C3959 0.950 . S
C3930 H3912 0.951 . S
C3930 C3931 1.366 . S
C3930 C3932 1.388 . S
C3931 C3930 1.366 . S
C3931 C3935 1.385 . S
C3932 H3913 0.951 . S
C3932 C3930 1.388 . S
C3932 C3933 1.366 . S
C3933 C3932 1.366 . S
C3933 C3934 1.414 . S
C3933 C3936 1.499 . S
C3934 H3914 0.950 . S
C3934 C3933 1.414 . S
C3934 C3935 1.374 . S
C3935 H3915 0.950 . S
C3935 C3931 1.385 . S
C3935 C3934 1.374 . S
C3936 C3933 1.499 . S
C3936 C3937 1.373 . S
C3936 C3938 1.389 . S
C3937 H3916 0.950 . S
C3937 C3936 1.373 . S
C3937 C3953 1.377 . S
C3938 C3936 1.389 . S
C3938 C3939 1.524 . S
C3938 C3952 1.377 . S
C3939 C3938 1.524 . S
C3939 C3940 1.397 . S
C3939 C3944 1.363 . S
C3940 H3917 0.950 . S
C3940 C3939 1.397 . S
C3940 C3941 1.334 . S
C3941 H3918 0.950 . S
C3941 C3940 1.334 . S
C3941 C3942 1.287 . S
C3942 C3941 1.287 . S
C3942 C3943 1.524 . S
C3942 H3961 0.913 . S
C3943 H3919 0.950 . S
C3943 C3942 1.524 . S
C3943 C3944 1.415 . S
C3944 H3920 0.950 . S
C3944 C3939 1.363 . S
C3944 C3943 1.415 . S
C3945 H3921 0.951 . S
C3945 C3946 1.366 . S
C3945 C3947 1.388 . S
C3946 C3945 1.366 . S
C3946 C3950 1.385 . S
C3947 H3922 0.951 . S
C3947 C3945 1.388 . S
C3947 C3948 1.366 . S
C3948 C3947 1.366 . S
C3948 C3949 1.414 . S
C3948 C3951 1.499 . S
C3949 H3923 0.950 . S
C3949 C3948 1.414 . S
C3949 C3950 1.374 . S
C3950 H3924 0.950 . S
C3950 C3946 1.385 . S
C3950 C3949 1.374 . S
C3951 C3948 1.499 . S
C3951 C3952 1.373 . S
C3951 C3953 1.389 . S
C3952 H3925 0.950 . S
C3952 C3938 1.377 . S
C3952 C3951 1.373 . S
C3953 C3937 1.377 . S
C3953 C3951 1.389 . S
C3953 C3954 1.524 . S
C3954 C3953 1.524 . S
C3954 C3955 1.397 . S
C3954 C3959 1.363 . S
C3955 H3926 0.950 . S
C3955 C3954 1.397 . S
C3955 C3956 1.334 . S
C3956 H3927 0.950 . S
C3956 C3955 1.334 . S
C3956 C3957 1.287 . S
C3957 C3956 1.287 . S
C3957 C3958 1.524 . S
C3957 H3960 0.999 . S
C3958 H3928 0.950 . S
C3958 C3957 1.524 . S
C3958 C3959 1.415 . S
C3959 H3929 0.950 . S
C3959 C3954 1.363 . S
C3959 C3958 1.415 . S
H3960 C3957 0.999 . S
H3961 C3942 0.913 . S
H3962 C3980 0.951 . S
H3963 C3982 0.951 . S
H3964 C3984 0.950 . S
H3965 C3985 0.950 . S
H3966 C3987 0.950 . S
H3967 C3990 0.950 . S
H3968 C3991 0.950 . S
H3969 C3993 0.950 . S
H3970 C3994 0.950 . S
H3971 C3995 0.951 . S
H3972 C3997 0.951 . S
H3973 C3999 0.950 . S
H3974 C4000 0.950 . S
H3975 C4002 0.950 . S
H3976 C4005 0.950 . S
H3977 C4006 0.950 . S
H3978 C4008 0.950 . S
H3979 C4009 0.950 . S
C3980 H3962 0.951 . S
C3980 C3981 1.366 . S
C3980 C3982 1.388 . S
C3981 C3980 1.366 . S
C3981 C3985 1.385 . S
C3982 H3963 0.951 . S
C3982 C3980 1.388 . S
C3982 C3983 1.366 . S
C3983 C3982 1.366 . S
C3983 C3984 1.414 . S
C3983 C3986 1.499 . S
C3984 H3964 0.950 . S
C3984 C3983 1.414 . S
C3984 C3985 1.374 . S
C3985 H3965 0.950 . S
C3985 C3981 1.385 . S
C3985 C3984 1.374 . S
C3986 C3983 1.499 . S
C3986 C3987 1.373 . S
C3986 C3988 1.389 . S
C3987 H3966 0.950 . S
C3987 C3986 1.373 . S
C3987 C4003 1.377 . S
C3988 C3986 1.389 . S
C3988 C3989 1.524 . S
C3988 C4002 1.377 . S
C3989 C3988 1.524 . S
C3989 C3990 1.397 . S
C3989 C3994 1.363 . S
C3990 H3967 0.950 . S
C3990 C3989 1.397 . S
C3990 C3991 1.334 . S
C3991 H3968 0.950 . S
C3991 C3990 1.334 . S
C3991 C3992 1.287 . S
C3992 C3991 1.287 . S
C3992 C3993 1.524 . S
C3992 H4011 0.913 . S
C3993 H3969 0.950 . S
C3993 C3992 1.524 . S
C3993 C3994 1.415 . S
C3994 H3970 0.950 . S
C3994 C3989 1.363 . S
C3994 C3993 1.415 . S
C3995 H3971 0.951 . S
C3995 C3996 1.366 . S
C3995 C3997 1.388 . S
C3996 C3995 1.366 . S
C3996 C4000 1.385 . S
C3997 H3972 0.951 . S
C3997 C3995 1.388 . S
C3997 C3998 1.366 . S
C3998 C3997 1.366 . S
C3998 C3999 1.414 . S
C3998 C4001 1.499 . S
C3999 H3973 0.950 . S
C3999 C3998 1.414 . S
C3999 C4000 1.374 . S
C4000 H3974 0.950 . S
C4000 C3996 1.385 . S
C4000 C3999 1.374 . S
C4001 C3998 1.499 . S
C4001 C4002 1.373 . S
C4001 C4003 1.389 . S
C4002 H3975 0.950 . S
C4002 C3988 1.377 . S
C4002 C4001 1.373 . S
C4003 C3987 1.377 . S
C4003 C4001 1.389 . S
C4003 C4004 1.524 . S
C4004 C4003 1.524 . S
C4004 C4005 1.397 . S
C4004 C4009 1.363 . S
C4005 H3976 0.950 . S
C4005 C4004 1.397 . S
C4005 C4006 1.334 . S
C4006 H3977 0.950 . S
C4006 C4005 1.334 . S
C4006 C4007 1.287 . S
C4007 C4006 1.287 . S
C4007 C4008 1.524 . S
C4007 H4010 0.999 . S
C4008 H3978 0.950 . S
C4008 C4007 1.524 . S
C4008 C4009 1.415 . S
C4009 H3979 0.950 . S
C4009 C4004 1.363 . S
C4009 C4008 1.415 . S
H4010 C4007 0.999 . S
H4011 C3992 0.913 . S
H4012 C4030 0.951 . S
H4013 C4032 0.951 . S
H4014 C4034 0.950 . S
H4015 C4035 0.950 . S
H4016 C4037 0.950 . S
H4017 C4040 0.950 . S
H4018 C4041 0.950 . S
H4019 C4043 0.950 . S
H4020 C4044 0.950 . S
H4021 C4045 0.951 . S
H4022 C4047 0.951 . S
H4023 C4049 0.950 . S
H4024 C4050 0.950 . S
H4025 C4052 0.950 . S
H4026 C4055 0.950 . S
H4027 C4056 0.950 . S
H4028 C4058 0.950 . S
H4029 C4059 0.950 . S
C4030 H4012 0.951 . S
C4030 C4031 1.366 . S
C4030 C4032 1.388 . S
C4031 C4030 1.366 . S
C4031 C4035 1.385 . S
C4032 H4013 0.951 . S
C4032 C4030 1.388 . S
C4032 C4033 1.366 . S
C4033 C4032 1.366 . S
C4033 C4034 1.414 . S
C4033 C4036 1.499 . S
C4034 H4014 0.950 . S
C4034 C4033 1.414 . S
C4034 C4035 1.374 . S
C4035 H4015 0.950 . S
C4035 C4031 1.385 . S
C4035 C4034 1.374 . S
C4036 C4033 1.499 . S
C4036 C4037 1.373 . S
C4036 C4038 1.389 . S
C4037 H4016 0.950 . S
C4037 C4036 1.373 . S
C4037 C4053 1.377 . S
C4038 C4036 1.389 . S
C4038 C4039 1.524 . S
C4038 C4052 1.377 . S
C4039 C4038 1.524 . S
C4039 C4040 1.397 . S
C4039 C4044 1.363 . S
C4040 H4017 0.950 . S
C4040 C4039 1.397 . S
C4040 C4041 1.334 . S
C4041 H4018 0.950 . S
C4041 C4040 1.334 . S
C4041 C4042 1.287 . S
C4042 C4041 1.287 . S
C4042 C4043 1.524 . S
C4042 H4061 0.913 . S
C4043 H4019 0.950 . S
C4043 C4042 1.524 . S
C4043 C4044 1.415 . S
C4044 H4020 0.950 . S
C4044 C4039 1.363 . S
C4044 C4043 1.415 . S
C4045 H4021 0.951 . S
C4045 C4046 1.366 . S
C4045 C4047 1.388 . S
C4046 C4045 1.366 . S
C4046 C4050 1.385 . S
C4047 H4022 0.951 . S
C4047 C4045 1.388 . S
C4047 C4048 1.366 . S
C4048 C4047 1.366 . S
C4048 C4049 1.414 . S
C4048 C4051 1.499 . S
C4049 H4023 0.950 . S
C4049 C4048 1.414 . S
C4049 C4050 1.374 . S
C4050 H4024 0.950 . S
C4050 C4046 1.385 . S
C4050 C4049 1.374 . S
C4051 C4048 1.499 . S
C4051 C4052 1.373 . S
C4051 C4053 1.389 . S
C4052 H4025 0.950 . S
C4052 C4038 1.377 . S
C4052 C4051 1.373 . S
C4053 C4037 1.377 . S
C4053 C4051 1.389 . S
C4053 C4054 1.524 . S
C4054 C4053 1.524 . S
C4054 C4055 1.397 . S
C4054 C4059 1.363 . S
C4055 H4026 0.950 . S
C4055 C4054 1.397 . S
C4055 C4056 1.334 . S
C4056 H4027 0.950 . S
C4056 C4055 1.334 . S
C4056 C4057 1.287 . S
C4057 C4056 1.287 . S
C4057 C4058 1.524 . S
C4057 H4060 0.999 . S
C4058 H4028 0.950 . S
C4058 C4057 1.524 . S
C4058 C4059 1.415 . S
C4059 H4029 0.950 . S
C4059 C4054 1.363 . S
C4059 C4058 1.415 . S
H4060 C4057 0.999 . S
H4061 C4042 0.913 . S
H4062 C4080 0.951 . S
H4063 C4082 0.951 . S
H4064 C4084 0.950 . S
H4065 C4085 0.950 . S
H4066 C4087 0.950 . S
H4067 C4090 1.001 . S
H4068 C4091 0.950 1_655 S
H4069 C4093 0.950 . S
H4070 C4094 0.950 . S
H4071 C4095 0.951 . S
H4072 C4097 0.951 . S
H4073 C4099 0.950 . S
H4074 C4100 0.950 . S
H4075 C4102 0.950 . S
H4076 C4105 0.950 1_455 S
H4077 C4106 0.950 . S
H4078 C4108 0.950 . S
H4079 C4109 0.950 . S
C4080 H4062 0.951 . S
C4080 C4081 1.366 1_455 S
C4080 C4082 1.388 . S
C4081 C4080 1.366 1_655 S
C4081 C4085 1.385 . S
C4082 H4063 0.951 . S
C4082 C4080 1.388 . S
C4082 C4083 1.366 1_455 S
C4083 C4082 1.366 1_655 S
C4083 C4084 1.414 . S
C4083 C4086 1.499 . S
C4084 H4064 0.950 . S
C4084 C4083 1.414 . S
C4084 C4085 1.374 . S
C4085 H4065 0.950 . S
C4085 C4081 1.385 . S
C4085 C4084 1.374 . S
C4086 C4083 1.499 . S
C4086 C4087 1.373 . S
C4086 C4088 1.389 1_655 S
C4087 H4066 0.950 . S
C4087 C4086 1.373 . S
C4087 C4103 1.377 . S
C4088 C4086 1.389 1_455 S
C4088 C4089 1.524 . S
C4088 C4102 1.377 . S
C4089 C4088 1.524 . S
C4089 C4090 1.361 1_455 S
C4089 C4094 1.363 . S
C4090 H4067 1.001 . S
C4090 C4089 1.361 1_655 S
C4090 C4091 1.321 1_655 S
C4091 H4068 0.950 1_455 S
C4091 C4090 1.321 1_455 S
C4091 C4092 1.287 . S
C4092 C4091 1.287 . S
C4092 C4093 1.524 . S
C4092 H4111 0.913 . S
C4093 H4069 0.950 . S
C4093 C4092 1.524 . S
C4093 C4094 1.415 . S
C4094 H4070 0.950 . S
C4094 C4089 1.363 . S
C4094 C4093 1.415 . S
C4095 H4071 0.951 . S
C4095 C4096 1.366 . S
C4095 C4097 1.388 . S
C4096 C4095 1.366 . S
C4096 C4100 1.385 1_655 S
C4097 H4072 0.951 . S
C4097 C4095 1.388 . S
C4097 C4098 1.366 . S
C4098 C4097 1.366 . S
C4098 C4099 1.414 1_655 S
C4098 C4101 1.499 . S
C4099 H4073 0.950 . S
C4099 C4098 1.414 1_455 S
C4099 C4100 1.374 . S
C4100 H4074 0.950 . S
C4100 C4096 1.385 1_455 S
C4100 C4099 1.374 . S
C4101 C4098 1.499 . S
C4101 C4102 1.373 1_655 S
C4101 C4103 1.389 . S
C4102 H4075 0.950 . S
C4102 C4088 1.377 . S
C4102 C4101 1.373 1_455 S
C4103 C4087 1.377 . S
C4103 C4101 1.389 . S
C4103 C4104 1.524 . S
C4104 C4103 1.524 . S
C4104 C4105 1.397 . S
C4104 C4109 1.363 . S
C4105 H4076 0.950 1_655 S
C4105 C4104 1.397 . S
C4105 C4106 1.334 . S
C4106 H4077 0.950 . S
C4106 C4105 1.334 . S
C4106 C4107 1.287 . S
C4107 C4106 1.287 . S
C4107 C4108 1.524 . S
C4107 H4110 0.999 . S
C4108 H4078 0.950 . S
C4108 C4107 1.524 . S
C4108 C4109 1.415 . S
C4109 H4079 0.950 . S
C4109 C4104 1.363 . S
C4109 C4108 1.415 . S
H4110 C4107 0.999 . S
H4111 C4092 0.913 . S
H4112 C4130 0.951 . S
H4113 C4132 0.951 . S
H4114 C4134 0.950 . S
H4115 C4135 0.950 . S
H4116 C4137 0.950 . S
H4117 C4140 0.950 . S
H4118 C4141 0.950 . S
H4119 C4143 0.950 . S
H4120 C4144 0.950 . S
H4121 C4145 0.951 . S
H4122 C4147 0.951 . S
H4123 C4149 0.950 . S
H4124 C4150 0.950 . S
H4125 C4152 0.950 . S
H4126 C4155 0.950 . S
H4127 C4156 0.950 . S
H4128 C4158 0.950 . S
H4129 C4159 0.950 . S
C4130 H4112 0.951 . S
C4130 C4131 1.366 . S
C4130 C4132 1.388 . S
C4131 C4130 1.366 . S
C4131 C4135 1.385 . S
C4132 H4113 0.951 . S
C4132 C4130 1.388 . S
C4132 C4133 1.366 . S
C4133 C4132 1.366 . S
C4133 C4134 1.414 . S
C4133 C4136 1.499 . S
C4134 H4114 0.950 . S
C4134 C4133 1.414 . S
C4134 C4135 1.374 . S
C4135 H4115 0.950 . S
C4135 C4131 1.385 . S
C4135 C4134 1.374 . S
C4136 C4133 1.499 . S
C4136 C4137 1.373 . S
C4136 C4138 1.389 . S
C4137 H4116 0.950 . S
C4137 C4136 1.373 . S
C4137 C4153 1.377 . S
C4138 C4136 1.389 . S
C4138 C4139 1.524 . S
C4138 C4152 1.377 . S
C4139 C4138 1.524 . S
C4139 C4140 1.397 . S
C4139 C4144 1.363 . S
C4140 H4117 0.950 . S
C4140 C4139 1.397 . S
C4140 C4141 1.334 . S
C4141 H4118 0.950 . S
C4141 C4140 1.334 . S
C4141 C4142 1.287 . S
C4142 C4141 1.287 . S
C4142 C4143 1.524 . S
C4142 H4161 0.913 . S
C4143 H4119 0.950 . S
C4143 C4142 1.524 . S
C4143 C4144 1.415 . S
C4144 H4120 0.950 . S
C4144 C4139 1.363 . S
C4144 C4143 1.415 . S
C4145 H4121 0.951 . S
C4145 C4146 1.366 . S
C4145 C4147 1.388 . S
C4146 C4145 1.366 . S
C4146 C4150 1.385 . S
C4147 H4122 0.951 . S
C4147 C4145 1.388 . S
C4147 C4148 1.366 . S
C4148 C4147 1.366 . S
C4148 C4149 1.414 . S
C4148 C4151 1.499 . S
C4149 H4123 0.950 . S
C4149 C4148 1.414 . S
C4149 C4150 1.374 . S
C4150 H4124 0.950 . S
C4150 C4146 1.385 . S
C4150 C4149 1.374 . S
C4151 C4148 1.499 . S
C4151 C4152 1.373 . S
C4151 C4153 1.389 . S
C4152 H4125 0.950 . S
C4152 C4138 1.377 . S
C4152 C4151 1.373 . S
C4153 C4137 1.377 . S
C4153 C4151 1.389 . S
C4153 C4154 1.524 . S
C4154 C4153 1.524 . S
C4154 C4155 1.397 . S
C4154 C4159 1.363 . S
C4155 H4126 0.950 . S
C4155 C4154 1.397 . S
C4155 C4156 1.334 . S
C4156 H4127 0.950 . S
C4156 C4155 1.334 . S
C4156 C4157 1.287 . S
C4157 C4156 1.287 . S
C4157 C4158 1.524 . S
C4157 H4160 0.999 . S
C4158 H4128 0.950 . S
C4158 C4157 1.524 . S
C4158 C4159 1.415 . S
C4159 H4129 0.950 . S
C4159 C4154 1.363 . S
C4159 C4158 1.415 . S
H4160 C4157 0.999 . S
H4161 C4142 0.913 . S
H4162 C4180 0.951 . S
H4163 C4182 0.951 . S
H4164 C4184 0.950 . S
H4165 C4185 0.950 . S
H4166 C4187 0.950 . S
H4167 C4190 0.950 . S
H4168 C4191 0.950 . S
H4169 C4193 0.950 . S
H4170 C4194 0.950 . S
H4171 C4195 0.951 . S
H4172 C4197 0.951 . S
H4173 C4199 0.950 . S
H4174 C4200 0.950 . S
H4175 C4202 0.923 1_565 S
H4176 C4205 0.950 . S
H4177 C4206 0.950 . S
H4178 C4208 0.950 . S
H4179 C4209 0.950 . S
C4180 H4162 0.951 . S
C4180 C4181 1.366 . S
C4180 C4182 1.388 . S
C4181 C4180 1.366 . S
C4181 C4185 1.385 . S
C4182 H4163 0.951 . S
C4182 C4180 1.388 . S
C4182 C4183 1.366 . S
C4183 C4182 1.366 . S
C4183 C4184 1.414 . S
C4183 C4186 1.499 . S
C4184 H4164 0.950 . S
C4184 C4183 1.414 . S
C4184 C4185 1.374 . S
C4185 H4165 0.950 . S
C4185 C4181 1.385 . S
C4185 C4184 1.374 . S
C4186 C4183 1.499 . S
C4186 C4187 1.373 . S
C4186 C4188 1.389 . S
C4187 H4166 0.950 . S
C4187 C4186 1.373 . S
C4187 C4203 1.377 . S
C4188 C4186 1.389 . S
C4188 C4189 1.524 1_545 S
C4188 C4202 1.377 . S
C4189 C4188 1.524 1_565 S
C4189 C4190 1.397 . S
C4189 C4194 1.363 . S
C4190 H4167 0.950 . S
C4190 C4189 1.397 . S
C4190 C4191 1.334 . S
C4191 H4168 0.950 . S
C4191 C4190 1.334 . S
C4191 C4192 1.287 . S
C4192 C4191 1.287 . S
C4192 C4193 1.524 . S
C4192 H4211 0.913 . S
C4193 H4169 0.950 . S
C4193 C4192 1.524 . S
C4193 C4194 1.415 . S
C4194 H4170 0.950 . S
C4194 C4189 1.363 . S
C4194 C4193 1.415 . S
C4195 H4171 0.951 . S
C4195 C4196 1.366 . S
C4195 C4197 1.388 . S
C4196 C4195 1.366 . S
C4196 C4200 1.385 . S
C4197 H4172 0.951 . S
C4197 C4195 1.388 . S
C4197 C4198 1.366 . S
C4198 C4197 1.366 . S
C4198 C4199 1.414 . S
C4198 C4201 1.499 . S
C4199 H4173 0.950 . S
C4199 C4198 1.414 . S
C4199 C4200 1.374 . S
C4200 H4174 0.950 . S
C4200 C4196 1.385 . S
C4200 C4199 1.374 . S
C4201 C4198 1.499 . S
C4201 C4202 1.373 . S
C4201 C4203 1.389 . S
C4202 H4175 0.923 1_545 S
C4202 C4188 1.377 . S
C4202 C4201 1.373 . S
C4203 C4187 1.377 . S
C4203 C4201 1.389 . S
C4203 C4204 1.524 . S
C4204 C4203 1.524 . S
C4204 C4205 1.397 . S
C4204 C4209 1.363 . S
C4205 H4176 0.950 . S
C4205 C4204 1.397 . S
C4205 C4206 1.334 . S
C4206 H4177 0.950 . S
C4206 C4205 1.334 . S
C4206 C4207 1.287 . S
C4207 C4206 1.287 . S
C4207 C4208 1.524 . S
C4207 H4210 0.999 . S
C4208 H4178 0.950 . S
C4208 C4207 1.524 . S
C4208 C4209 1.415 . S
C4209 H4179 0.950 . S
C4209 C4204 1.363 . S
C4209 C4208 1.415 . S
H4210 C4207 0.999 . S
H4211 C4192 0.913 . S
C631 C10 1.655 . S
C646 C440 1.593 . S
C681 C23 1.639 . S
C696 C453 1.600 . S
C746 C482 1.565 1_545 S
C731 C29 1.644 . S
C781 C30 1.642 . S
C796 C495 1.603 . S
C831 C5 1.656 . S
C846 C516 1.622 . S
C881 C18 1.643 . S
C896 C545 1.586 . S
C931 C49 1.650 . S
C946 C524 1.617 . S
C996 C537 1.588 . S
C981 C62 1.635 . S
C1046 C503 1.590 . S
C1031 C70 1.637 . S
C1081 C75 1.638 . S
C1096 C474 1.597 1_545 S
C1146 C432 1.607 . S
C1131 C44 1.652 . S
C1181 C57 1.639 . S
C1196 C461 1.592 . S
C1231 C88 1.654 . S
C1246 C566 1.593 . S
C1281 C101 1.639 . S
C1296 C579 1.600 . S
C1346 C608 1.583 . S
C1331 C107 1.641 . S
C1381 C108 1.642 . S
C1396 C243 1.603 . S
C1431 C83 1.656 . S
C1446 C264 1.620 . S
C1481 C96 1.643 . S
C1496 C293 1.586 . S
C1531 C127 1.650 . S
C1546 C272 1.599 . S
C1581 C140 1.635 . S
C1596 C285 1.588 . S
C1646 C251 1.590 . S
C1631 C146 1.637 . S
C1696 C600 1.590 . S
C1681 C147 1.638 . S
C1746 C558 1.606 . S
C1731 C122 1.651 . S
C1796 C587 1.592 . S
C1781 C135 1.639 . S
C1831 C160 1.654 . S
C1846 C314 1.593 . S
C1881 C173 1.639 . S
C1896 C327 1.599 . S
C1931 C185 1.641 . S
C1946 C356 1.584 . S
C1981 C186 1.642 . S
C1996 C369 1.603 . S
C2046 C390 1.621 . S
C2031 C159 1.656 . S
C2096 C419 1.585 . S
C2081 C172 1.643 . S
C2146 C398 1.599 . S
C2131 C205 1.650 . S
C2196 C411 1.588 . S
C2181 C218 1.635 . S
C2231 C224 1.637 . S
C2246 C377 1.590 . S
C2296 C348 1.591 . S
C2281 C225 1.638 . S
C2331 C200 1.652 . S
C2346 C306 1.607 . S
C2396 C335 1.592 . S
C2381 C213 1.639 . S
C2446 C246 1.390 . S
C2431 C4 1.514 . S
C2481 C17 1.497 . S
C2496 C267 1.374 . S
C2546 C295 1.415 . S
C2531 C31 1.507 . S
C2596 C316 1.404 . S
C2581 C36 1.494 . S
C2646 C330 1.392 . S
C2631 C3 1.518 . S
C2696 C358 1.416 . S
C2681 C16 1.509 . S
C2731 C43 1.516 . S
C2746 C351 1.388 . S
C2781 C56 1.499 . S
C2796 C309 1.375 . S
C2831 C68 1.508 . S
C2846 C337 1.417 . S
C2881 C69 1.496 . S
C2896 C274 1.407 . S
C2946 C288 1.390 . S
C2931 C42 1.519 . S
C2981 C55 1.510 . S
C2996 C253 1.418 . S
C3046 C372 1.390 . S
C3031 C82 1.514 . S
C3081 C95 1.497 . S
C3096 C393 1.375 . S
C3131 C109 1.461 1_655 S
C3146 C421 1.415 . S
C3196 C442 1.404 . S
C3181 C114 1.494 . S
C3231 C81 1.518 . S
C3246 C456 1.391 . S
C3281 C94 1.509 . S
C3296 C484 1.421 . S
C3331 C121 1.515 . S
C3346 C477 1.371 . S
C3381 C134 1.499 . S
C3396 C435 1.374 . S
C3446 C463 1.417 . S
C3431 C148 1.508 . S
C3481 C153 1.496 . S
C3496 C400 1.407 . S
C3531 C120 1.519 . S
C3546 C414 1.390 . S
C3596 C379 1.419 . S
C3581 C133 1.458 1_655 S
C3646 C498 1.390 . S
C3631 C166 1.514 . S
C3681 C179 1.498 . S
C3696 C519 1.392 1_655 S
C3731 C187 1.507 . S
C3746 C547 1.415 . S
C3796 C568 1.406 . S
C3781 C192 1.494 . S
C3846 C582 1.392 . S
C3831 C161 1.478 1_565 S
C3881 C174 1.509 . S
C3896 C610 1.416 . S
C3931 C199 1.515 . S
C3946 C603 1.389 . S
C3981 C212 1.470 1_565 S
C3996 C561 1.373 . S
C4046 C589 1.416 . S
C4031 C226 1.508 . S
C4096 C526 1.408 1_655 S
C4081 C231 1.490 . S
C4146 C540 1.391 . S
C4131 C198 1.519 . S
C4181 C211 1.510 . S
C4196 C505 1.419 . S
