# Generated by pormake.
# Topology anh, (6,3)-cn, num edge types: 1
# Building blocks:
#     Node 0, Type 0, BuildingBlock: PAMTUU_clean_sbu_0, # of connection points: 6
#     Node 1, Type 0, BuildingBlock: PAMTUU_clean_sbu_0, # of connection points: 6
#     Node 2, Type 0, BuildingBlock: PAMTUU_clean_sbu_0, # of connection points: 6
#     Node 3, Type 1, BuildingBlock: BELTOD_clean_linker_0, # of connection points: 3
#     Node 4, Type 1, BuildingBlock: BELTOD_clean_linker_0, # of connection points: 3
#     Node 5, Type 1, BuildingBlock: BELTOD_clean_linker_0, # of connection points: 3
#     Node 6, Type 1, BuildingBlock: BELTOD_clean_linker_0, # of connection points: 3
#     Node 7, Type 1, BuildingBlock: BELTOD_clean_linker_0, # of connection points: 3
#     Node 8, Type 1, BuildingBlock: BELTOD_clean_linker_0, # of connection points: 3
#     Edge 9, Type (0, 1), BuildingBlock: EZIPEK_clean_linker_0, # of connection points: 2
#     Edge 10, Type (0, 1), BuildingBlock: EZIPEK_clean_linker_0, # of connection points: 2
#     Edge 11, Type (0, 1), BuildingBlock: EZIPEK_clean_linker_0, # of connection points: 2
#     Edge 12, Type (0, 1), BuildingBlock: EZIPEK_clean_linker_0, # of connection points: 2
#     Edge 13, Type (0, 1), BuildingBlock: EZIPEK_clean_linker_0, # of connection points: 2
#     Edge 14, Type (0, 1), BuildingBlock: EZIPEK_clean_linker_0, # of connection points: 2
#     Edge 15, Type (0, 1), BuildingBlock: EZIPEK_clean_linker_0, # of connection points: 2
#     Edge 16, Type (0, 1), BuildingBlock: EZIPEK_clean_linker_0, # of connection points: 2
#     Edge 17, Type (0, 1), BuildingBlock: EZIPEK_clean_linker_0, # of connection points: 2
#     Edge 18, Type (0, 1), BuildingBlock: EZIPEK_clean_linker_0, # of connection points: 2
#     Edge 19, Type (0, 1), BuildingBlock: EZIPEK_clean_linker_0, # of connection points: 2
#     Edge 20, Type (0, 1), BuildingBlock: EZIPEK_clean_linker_0, # of connection points: 2
#     Edge 21, Type (0, 1), BuildingBlock: EZIPEK_clean_linker_0, # of connection points: 2
#     Edge 22, Type (0, 1), BuildingBlock: EZIPEK_clean_linker_0, # of connection points: 2
#     Edge 23, Type (0, 1), BuildingBlock: EZIPEK_clean_linker_0, # of connection points: 2
#     Edge 24, Type (0, 1), BuildingBlock: EZIPEK_clean_linker_0, # of connection points: 2
#     Edge 25, Type (0, 1), BuildingBlock: EZIPEK_clean_linker_0, # of connection points: 2
#     Edge 26, Type (0, 1), BuildingBlock: EZIPEK_clean_linker_0, # of connection points: 2
# Relax obj value: 0.330
# Max RMSD: 0.196
# Mean RMSD: 0.158
data_MOF--net-anh--node1-PAMTUU_clean_sbu_0--node2-BELTOD_clean_linker_0--edge1-EZIPEK_clean_linker_0
_symmetry_space_group_name_H-M    P1
_symmetry_Int_Tables_number       1
_symmetry_cell_setting            triclinic
loop_
_symmetry_equiv_pos_as_xyz
'x, y, z'
_cell_length_a     27.654416
_cell_length_b     27.785196
_cell_length_c     46.909596
_cell_angle_alpha  92.838475
_cell_angle_beta   91.400779
_cell_angle_gamma 120.03968
loop_
_atom_site_label
_atom_site_type_symbol
_atom_site_fract_x
_atom_site_fract_y
_atom_site_fract_z
_atom_type_partial_charge
Tb0 Tb 1.06981 0.62425 0.17734 0.0
Tb1 Tb 0.13116 0.55641 0.16418 0.0
C2 C 0.08625 0.59343 0.11313 0.0
C3 C 0.95226 0.64531 0.17978 0.0
C4 C 0.8365 0.57209 0.17245 0.0
C5 C 0.87129 0.57653 0.15034 0.0
C6 C 0.9287 0.61272 0.15395 0.0
C7 C 0.9169 0.64363 0.20122 0.0
C8 C 0.85906 0.60718 0.19754 0.0
C9 C 1.0125 0.66993 0.1867 0.0
O10 O 1.00021 0.53663 0.18376 0.0
O11 O 1.04098 0.48733 0.16772 0.0
O12 O 0.1147 0.54741 0.20853 0.0
O13 O 0.1147 0.62859 0.21728 0.0
O14 O 0.12411 0.48485 0.14396 0.0
O15 O 0.19965 0.54289 0.16921 0.0
O16 O 0.20437 0.64521 0.17452 0.0
O17 O 0.15866 0.69506 0.17554 0.0
O18 O 1.05266 0.59865 0.13092 0.0
O19 O 0.12687 0.58672 0.12299 0.0
C20 C 0.99619 0.4874 0.17771 0.0
O21 O 1.02403 0.64412 0.20577 0.0
O22 O 1.04446 0.68049 0.16509 0.0
C23 C 0.11982 0.58737 0.2262 0.0
C24 C 0.20657 0.48602 0.13119 0.0
C25 C 0.25341 0.43706 0.09624 0.0
C26 C 0.20638 0.43886 0.08604 0.0
C27 C 0.18329 0.46359 0.10333 0.0
C28 C 0.25584 0.4874 0.14048 0.0
C29 C 0.27928 0.46327 0.12304 0.0
C30 C 0.17444 0.49726 0.1524 0.0
C31 C 0.20681 0.69482 0.17684 0.0
H32 H 0.85426 0.54978 0.1308 0.0
H33 H 0.95484 0.6123 0.13723 0.0
H34 H 0.93435 0.66772 0.22146 0.0
H35 H 0.83242 0.6042 0.21471 0.0
H36 H 0.18597 0.4186 0.06541 0.0
H37 H 0.14518 0.46178 0.09554 0.0
H38 H 0.27414 0.50385 0.16192 0.0
H39 H 0.31555 0.46189 0.13117 0.0
Tb40 Tb 0.55051 0.09494 0.50981 0.0
Tb41 Tb 0.682 0.15682 0.51039 0.0
C42 C 0.61346 0.11957 0.45163 0.0
C43 C 0.41257 0.98214 0.48978 0.0
C44 C 0.38818 0.88417 0.45763 0.0
C45 C 0.38714 0.92754 0.44412 0.0
C46 C 0.39954 0.97652 0.46014 0.0
C47 C 0.40535 0.93529 0.50353 0.0
C48 C 0.39365 0.88681 0.4875 0.0
C49 C 0.44571 1.03821 0.50467 0.0
O50 O 0.56695 1.02496 0.5197 0.0
O51 O 0.6588 0.06589 0.50968 0.0
O52 O 0.66023 0.13188 0.55321 0.0
O53 O 0.57836 0.13243 0.55325 0.0
O54 O 0.75281 0.15749 0.49549 0.0
O55 O 0.76071 0.21862 0.5286 0.0
O56 O 0.66615 0.2298 0.51665 0.0
O57 O 0.57037 0.18438 0.51081 0.0
O58 O 0.57097 0.08378 0.46561 0.0
O59 O 0.65876 0.15877 0.46577 0.0
C60 C 0.61244 1.02053 0.51659 0.0
O61 O 0.47478 1.04124 0.52774 0.0
O62 O 0.47558 0.07836 0.48838 0.0
C63 C 0.62182 0.13577 0.56692 0.0
C64 C 0.84059 0.24022 0.50135 0.0
C65 C 0.95017 0.31156 0.4861 0.0
C66 C 0.92491 0.25411 0.47958 0.0
C67 C 0.8706 0.21873 0.48718 0.0
C68 C 0.86551 0.29812 0.50735 0.0
C69 C 0.92016 0.33373 0.49961 0.0
C70 C 0.78693 0.20037 0.51259 0.0
C71 C 0.61882 0.23213 0.51538 0.0
H72 H 0.38151 0.92531 0.42106 0.0
H73 H 0.40376 1.01153 0.44898 0.0
H74 H 0.41378 0.93766 0.52638 0.0
H75 H 0.39277 0.85277 0.49826 0.0
H76 H 0.94771 0.2366 0.4691 0.0
H77 H 0.85263 0.1742 0.48276 0.0
H78 H 0.84349 0.31565 0.51858 0.0
H79 H 0.93944 0.37821 0.50467 0.0
Tb80 Tb 0.54327 0.51817 0.83119 0.0
Tb81 Tb 0.60987 0.6481 0.84465 0.0
C82 C 0.5818 0.5934 0.77988 0.0
C83 C 0.51409 0.38045 0.84323 0.0
C84 C 0.58607 0.3467 0.86596 0.0
C85 C 0.56382 0.32985 0.83767 0.0
C86 C 0.52783 0.34644 0.82639 0.0
C87 C 0.53147 0.39193 0.87255 0.0
C88 C 0.56709 0.37478 0.88389 0.0
C89 C 0.49435 0.41396 0.82893 0.0
O90 O 0.63371 0.53768 0.83097 0.0
O91 O 0.67811 0.62686 0.85157 0.0
O92 O 0.57486 0.61471 0.88481 0.0
O93 O 0.57724 0.53558 0.87488 0.0
O94 O 0.63555 0.72603 0.82927 0.0
O95 O 0.66369 0.71918 0.87151 0.0
O96 O 0.52103 0.63135 0.84586 0.0
O97 O 0.47291 0.53711 0.83626 0.0
O98 O 0.54344 0.54581 0.78864 0.0
O99 O 0.61633 0.63444 0.79837 0.0
C100 C 0.68062 0.58197 0.84252 0.0
O101 O 0.48019 0.44321 0.8457 0.0
O102 O 0.52592 0.4433 0.80895 0.0
C103 C 0.57481 0.57077 0.89328 0.0
C104 C 0.64766 0.79351 0.8643 0.0
C105 C 0.61025 0.86973 0.87148 0.0
C106 C 0.66407 0.88696 0.8622 0.0
C107 C 0.68266 0.84908 0.85866 0.0
C108 C 0.59546 0.77686 0.87571 0.0
C109 C 0.57698 0.81518 0.87959 0.0
C110 C 0.66205 0.75249 0.8534 0.0
C111 C 0.47191 0.58396 0.8427 0.0
H112 H 0.57779 0.30759 0.82366 0.0
H113 H 0.51502 0.33711 0.80383 0.0
H114 H 0.52153 0.41804 0.88619 0.0
H115 H 0.58374 0.38767 0.90581 0.0
H116 H 0.69035 0.92904 0.85592 0.0
H117 H 0.72282 0.86233 0.84968 0.0
H118 H 0.56786 0.73374 0.87997 0.0
H119 H 0.53555 0.80145 0.88699 0.0
P120 P 0.61811 0.08649 0.22488 0.0
H121 H 0.57737 0.96958 0.19723 0.0
H122 H 0.48717 0.88411 0.1874 0.0
H123 H 0.40237 0.97345 0.20956 0.0
H124 H 0.49369 0.05934 0.22082 0.0
H125 H 0.72609 0.12257 0.1941 0.0
H126 H 0.80851 0.21093 0.18407 0.0
H127 H 0.72818 0.29974 0.21483 0.0
H128 H 0.64479 0.21059 0.22493 0.0
H129 H 0.54405 1.01186 0.26728 0.0
H130 H 0.67992 0.18184 0.26977 0.0
O131 O 0.65446 0.05349 0.22669 0.0
H132 H 0.54199 1.0196 0.3194 0.0
H133 H 0.6766 0.18961 0.32183 0.0
C134 C 0.54605 1.0248 0.20949 0.0
C135 C 0.54011 0.97246 0.19968 0.0
C136 C 0.48689 0.92185 0.19402 0.0
C137 C 0.4343 0.91871 0.19733 0.0
C138 C 0.43999 0.97145 0.20646 0.0
C139 C 0.49358 1.02219 0.21261 0.0
C140 C 0.67549 0.15617 0.21037 0.0
C141 C 0.72439 0.16028 0.1984 0.0
C142 C 0.77324 0.21235 0.19267 0.0
C143 C 0.77786 0.26539 0.19832 0.0
C144 C 0.72842 0.26155 0.20955 0.0
C145 C 0.67925 0.20914 0.21531 0.0
C146 C 0.61045 0.09696 0.26353 0.0
C147 C 0.5723 1.0516 0.27861 0.0
C148 C 0.57138 0.05573 0.30871 0.0
C149 C 0.60878 0.10536 0.32497 0.0
C150 C 0.64672 0.15095 0.31004 0.0
C151 C 0.64807 0.14659 0.27992 0.0
P152 P 0.63623 0.64029 0.55796 0.0
H153 H 0.71504 0.59944 0.53924 0.0
H154 H 0.71018 0.50984 0.53037 0.0
H155 H 0.53253 0.42542 0.53857 0.0
H156 H 0.53765 0.5163 0.54855 0.0
H157 H 0.65747 0.71158 0.50615 0.0
H158 H 0.65234 0.79577 0.49675 0.0
H159 H 0.57426 0.78456 0.57598 0.0
H160 H 0.57906 0.7008 0.58528 0.0
H161 H 0.7114 0.68361 0.61063 0.0
H162 H 0.53408 0.57949 0.59077 0.0
O163 O 0.70553 0.68034 0.55704 0.0
H164 H 0.69626 0.67187 0.66157 0.0
H165 H 0.51904 0.56805 0.64227 0.0
C166 C 0.62661 0.56847 0.54409 0.0
C167 C 0.6741 0.56252 0.53873 0.0
C168 C 0.67146 0.50963 0.53366 0.0
C169 C 0.62097 0.45736 0.53337 0.0
C170 C 0.57296 0.46294 0.53836 0.0
C171 C 0.57574 0.51628 0.54383 0.0
C172 C 0.61678 0.69511 0.54621 0.0
C173 C 0.63726 0.72532 0.52132 0.0
C174 C 0.63501 0.77521 0.51603 0.0
C175 C 0.61281 0.79961 0.53537 0.0
C176 C 0.59171 0.76906 0.56003 0.0
C177 C 0.59391 0.71929 0.56528 0.0
C178 C 0.6239 0.63247 0.59633 0.0
C179 C 0.66905 0.65829 0.617 0.0
C180 C 0.66049 0.65163 0.64635 0.0
C181 C 0.60652 0.61912 0.65605 0.0
C182 C 0.56114 0.59346 0.6355 0.0
C183 C 0.56976 0.59994 0.60601 0.0
P184 P 0.09167 0.61078 0.88772 0.0
H185 H 0.16149 0.62966 0.83485 0.0
H186 H 0.24551 0.62388 0.82407 0.0
H187 H 0.23653 0.55032 0.90356 0.0
H188 H 0.15221 0.55475 0.9139 0.0
H189 H 1.03969 0.68291 0.89034 0.0
H190 H 0.94852 0.67371 0.87938 0.0
H191 H 0.88508 0.50444 0.8468 0.0
H192 H 0.97758 0.5135 0.85825 0.0
H193 H 0.17072 0.6723 0.9373 0.0
H194 H 1.00291 0.53261 0.92453 0.0
O195 O 0.13061 0.67958 0.88563 0.0
H196 H 0.16466 0.66657 0.98928 0.0
H197 H 0.99689 0.52692 0.97676 0.0
C198 C 0.14619 0.591 0.87507 0.0
C199 C 0.17578 0.61034 0.84979 0.0
C200 C 0.22566 0.6079 0.84374 0.0
C201 C 0.25072 0.58685 0.86275 0.0
C202 C 0.2206 0.56687 0.88782 0.0
C203 C 0.17065 0.56898 0.89374 0.0
C204 C 1.01939 0.59982 0.87472 0.0
C205 C 1.0072 0.64347 0.88036 0.0
C206 C 0.95351 0.6381 0.87416 0.0
C207 C 0.90658 0.58813 0.8621 0.0
C208 C 0.91834 0.54397 0.85623 0.0
C209 C 0.97262 0.54935 0.86262 0.0
C210 C 0.08714 0.60325 0.92657 0.0
C211 C 0.13246 0.64031 0.94555 0.0
C212 C 0.12901 0.63713 0.97541 0.0
C213 C 0.08018 0.59658 0.98733 0.0
C214 C 1.03503 0.55883 0.96836 0.0
C215 C 1.03852 0.56203 0.9384 0.0
P216 P 0.3125 0.51154 0.38943 0.0
H217 H 0.37988 0.57822 0.44166 0.0
H218 H 0.40953 0.676 0.45512 0.0
H219 H 0.39122 0.70294 0.36674 0.0
H220 H 0.36088 0.60566 0.35337 0.0
H221 H 0.24397 0.39486 0.39977 0.0
H222 H 0.16108 0.3484 0.42781 0.0
H223 H 0.20197 0.50658 0.46992 0.0
H224 H 0.28243 0.55316 0.44142 0.0
H225 H 0.29033 0.48398 0.32732 0.0
H226 H 0.22869 0.54519 0.39548 0.0
O227 O 0.34202 0.47645 0.37585 0.0
H228 H 0.23592 0.50373 0.29236 0.0
H229 H 0.17402 0.56335 0.36084 0.0
C230 C 0.36387 0.58402 0.39694 0.0
C231 C 0.3841 0.6056 0.42506 0.0
C232 C 0.40119 0.6613 0.43273 0.0
C233 C 0.4003 0.69552 0.41194 0.0
C234 C 0.39098 0.67656 0.38305 0.0
C235 C 0.37339 0.62088 0.37553 0.0
C236 C 0.27082 0.47749 0.41885 0.0
C237 C 0.23691 0.41929 0.41609 0.0
C238 C 0.18946 0.39278 0.43193 0.0
C239 C 0.17585 0.42437 0.45078 0.0
C240 C 0.21253 0.48169 0.45571 0.0
C241 C 0.2594 0.5082 0.43962 0.0
C242 C 0.26269 0.5118 0.36409 0.0
C243 C 0.26369 0.49956 0.33486 0.0
C244 C 0.23291 0.51097 0.31498 0.0
C245 C 0.20091 0.53456 0.32425 0.0
C246 C 0.19792 0.54443 0.35346 0.0
C247 C 0.22894 0.53353 0.37321 0.0
P248 P 0.77348 0.19905 0.77631 0.0
H249 H 0.74406 0.28639 0.76979 0.0
H250 H 0.71681 0.33066 0.80712 0.0
H251 H 0.79667 0.28397 0.87143 0.0
H252 H 0.82283 0.23797 0.83392 0.0
H253 H 0.76522 0.09244 0.78722 0.0
H254 H 0.70131 1.01568 0.81526 0.0
H255 H 0.60808 0.09906 0.8329 0.0
H256 H 0.67187 0.17595 0.80509 0.0
H257 H 0.66631 0.18585 0.7551 0.0
H258 H 0.81457 0.1992 0.71932 0.0
O259 O 0.83376 0.19915 0.77478 0.0
H260 H 0.62287 0.17058 0.70688 0.0
H261 H 0.77064 0.18346 0.67108 0.0
C262 C 0.78406 0.25757 0.79916 0.0
C263 C 0.75778 0.28738 0.7917 0.0
C264 C 0.74217 0.31265 0.81306 0.0
C265 C 0.75319 0.30868 0.84195 0.0
C266 C 0.7872 0.28659 0.84922 0.0
C267 C 0.80254 0.26093 0.82777 0.0
C268 C 0.7237 0.14007 0.7943 0.0
C269 C 0.73092 0.09413 0.79692 0.0
C270 C 0.69459 1.05054 0.81288 0.0
C271 C 0.65058 0.05238 0.82622 0.0
C272 C 0.64205 0.09733 0.82282 0.0
C273 C 0.67843 0.14094 0.80688 0.0
C274 C 0.74388 0.19393 0.74087 0.0
C275 C 0.68973 0.18592 0.73698 0.0
C276 C 0.66481 0.1771 0.70951 0.0
C277 C 0.69357 0.17564 0.68562 0.0
C278 C 0.74792 0.18436 0.6894 0.0
C279 C 0.77297 0.19352 0.71688 0.0
P280 P 0.51997 0.30797 0.04522 0.0
H281 H 0.50859 0.29271 0.10711 0.0
H282 H 0.57471 0.34957 0.14729 0.0
H283 H 0.70781 0.42024 0.08925 0.0
H284 H 0.64155 0.36586 0.04909 0.0
H285 H 0.40524 0.24712 0.02021 0.0
H286 H 0.32699 0.26493 0.02546 0.0
H287 H 0.42044 0.3874 0.09497 0.0
H288 H 0.4986 0.37232 0.0889 0.0
H289 H 0.5184 0.30909 0.98265 0.0
H290 H 0.57443 0.42827 0.05582 0.0
O291 O 0.50691 0.24772 0.02875 0.0
H292 H 0.53565 0.3836 0.95126 0.0
H293 H 0.59003 0.50205 0.02457 0.0
C294 C 0.56985 0.32774 0.07507 0.0
C295 C 0.55226 0.31946 0.10313 0.0
C296 C 0.58986 0.35155 0.12607 0.0
C297 C 0.64565 0.38974 0.12099 0.0
C298 C 0.66466 0.39134 0.09342 0.0
C299 C 0.6269 0.36028 0.07054 0.0
C300 C 0.45683 0.30619 0.05513 0.0
C301 C 0.40786 0.27608 0.03733 0.0
C302 C 0.36355 0.28649 0.04011 0.0
C303 C 0.36809 0.32692 0.06084 0.0
C304 C 0.41602 0.35532 0.07924 0.0
C305 C 0.46035 0.34579 0.07609 0.0
C306 C 0.5464 0.36338 0.02146 0.0
C307 C 0.53612 0.35143 0.99185 0.0
C308 C 0.54566 0.3938 0.97401 0.0
C309 C 0.56464 0.44831 0.98566 0.0
C310 C 0.5762 0.46046 0.0152 0.0
C311 C 0.56746 0.41834 0.03294 0.0
C312 C 0.30982 0.42363 0.05907 0.0
C313 C 0.27163 0.40164 0.08088 0.0
C314 C 0.28127 0.31858 0.07999 0.0
C315 C 0.32631 0.34516 0.06204 0.0
N316 N 0.38081 0.41862 0.03161 0.0
N317 N 0.21544 0.32669 0.11036 0.0
C318 C 0.33893 0.39593 0.05019 0.0
C319 C 0.25487 0.34802 0.09043 0.0
N320 N 0.31859 0.47126 0.04735 0.0
N321 N 0.26474 0.26569 0.08725 0.0
H322 H 0.19326 0.34593 0.11729 0.0
H323 H 0.20534 0.29086 0.12071 0.0
H324 H 0.28401 0.24374 0.0799 0.0
H325 H 0.22985 0.24183 0.09873 0.0
H326 H 0.34276 0.48775 0.02993 0.0
H327 H 0.29854 0.49286 0.05398 0.0
H328 H 0.39686 0.45824 0.02433 0.0
H329 H 0.40073 0.39764 0.02377 0.0
C330 C 1.01985 0.36929 0.45156 0.0
C331 C 1.00874 0.34766 0.47885 0.0
C332 C 0.10764 0.37729 0.48827 0.0
C333 C 0.11884 0.39959 0.46114 0.0
N334 N 0.0891 0.42675 0.41901 0.0
N335 N 1.04141 0.33895 0.52533 0.0
C336 C 1.07595 0.39873 0.44342 0.0
C337 C 1.0526 0.35429 0.49794 0.0
N338 N 0.97646 0.35971 0.43303 0.0
N339 N 0.14926 0.37663 0.50429 0.0
H340 H 1.00133 0.32146 0.53293 0.0
H341 H 1.07209 0.34734 0.54121 0.0
H342 H 0.19034 0.39445 0.49805 0.0
H343 H 0.14273 0.35567 0.52285 0.0
H344 H 0.98092 0.36799 0.41156 0.0
H345 H 0.93495 0.34031 0.43869 0.0
H346 H 1.06096 0.4331 0.40694 0.0
H347 H 0.12944 0.44741 0.41174 0.0
C348 C 0.56079 0.90553 0.84247 0.0
C349 C 0.58875 0.90854 0.86879 0.0
C350 C 0.63277 1.00962 0.87304 0.0
C351 C 0.61492 1.00685 0.84415 0.0
N352 N 0.54739 0.9565 0.80522 0.0
N353 N 0.63127 0.95788 0.91382 0.0
C354 C 0.57301 0.95595 0.83035 0.0
C355 C 0.61684 0.95906 0.88596 0.0
N356 N 0.52704 0.85486 0.82816 0.0
N357 N 0.66814 0.06027 0.88699 0.0
H358 H 0.61989 0.92016 0.92275 0.0
H359 H 0.65039 0.99273 0.92828 0.0
H360 H 0.67894 0.09763 0.87787 0.0
H361 H 0.68706 0.06549 0.90722 0.0
H362 H 0.50992 0.8494 0.80746 0.0
H363 H 0.51607 0.81758 0.83733 0.0
H364 H 0.51459 0.92124 0.79433 0.0
H365 H 0.55672 0.99373 0.79634 0.0
C366 C 0.7627 0.47329 0.17693 0.0
C367 C 0.77716 0.52745 0.16914 0.0
C368 C 0.69088 0.48924 0.13909 0.0
C369 C 0.68227 0.43513 0.14259 0.0
N370 N 0.69776 0.37324 0.17026 0.0
N371 N 0.75327 0.58942 0.147 0.0
C372 C 0.71402 0.42635 0.1636 0.0
C373 C 0.73978 0.53619 0.15205 0.0
N374 N 0.79771 0.46714 0.19557 0.0
N375 N 0.65231 0.49507 0.12312 0.0
H376 H 0.78781 0.6242 0.15738 0.0
H377 H 0.73134 0.5996 0.13251 0.0
H378 H 0.61583 0.46094 0.11375 0.0
H379 H 0.65395 0.53281 0.12062 0.0
H380 H 0.79271 0.42905 0.20078 0.0
H381 H 0.83291 0.50109 0.20598 0.0
H382 H 0.71627 0.36344 0.18678 0.0
H383 H 0.66285 0.33843 0.16021 0.0
C384 C 0.3403 0.78403 0.43956 0.0
C385 C 0.38854 0.83774 0.44097 0.0
C386 C 0.44457 0.79884 0.42194 0.0
C387 C 0.39642 0.74519 0.4207 0.0
N388 N 0.29615 0.68687 0.42227 0.0
N389 N 0.48347 0.89879 0.42821 0.0
C390 C 0.34347 0.73785 0.42761 0.0
C391 C 0.43962 0.84598 0.43023 0.0
N392 N 0.29193 0.77715 0.4504 0.0
N393 N 0.49534 0.80431 0.41638 0.0
H394 H 0.48269 0.9345 0.4353 0.0
H395 H 0.51954 0.90765 0.41781 0.0
H396 H 0.50005 0.77058 0.4097 0.0
H397 H 0.53326 0.84134 0.42026 0.0
H398 H 0.25743 0.73848 0.45356 0.0
H399 H 0.28713 0.81061 0.45755 0.0
H400 H 0.25579 0.68017 0.42385 0.0
H401 H 0.29665 0.65153 0.41413 0.0
C402 C 0.62561 0.28693 0.87772 0.0
C403 C 0.63461 0.34104 0.87464 0.0
C404 C 0.73379 0.37522 0.86868 0.0
C405 C 0.72091 0.31967 0.86336 0.0
N406 N 0.65734 0.22143 0.86678 0.0
N407 N 0.69824 0.43881 0.86933 0.0
C408 C 0.66809 0.27507 0.87006 0.0
C409 C 0.68945 0.38632 0.87184 0.0
N410 N 0.57565 0.247 0.88683 0.0
N411 N 0.78824 0.41696 0.86946 0.0
H412 H 0.66731 0.44928 0.87219 0.0
H413 H 0.73559 0.47121 0.86284 0.0
H414 H 0.82071 0.4085 0.86671 0.0
H415 H 0.8011 0.45832 0.87569 0.0
H416 H 0.56725 0.20733 0.89137 0.0
H417 H 0.54436 0.25582 0.89227 0.0
H418 H 0.61772 0.18665 0.86775 0.0
H419 H 0.68826 0.21162 0.86233 0.0
C420 C 0.6538 0.96147 0.53995 0.0
C421 C 0.61216 0.96332 0.52156 0.0
C422 C 0.57248 0.85851 0.51134 0.0
C423 C 0.6128 0.85648 0.53043 0.0
N424 N 0.68913 0.90856 0.56517 0.0
N425 N 0.52697 0.90762 0.49252 0.0
C426 C 0.65258 0.90895 0.54519 0.0
C427 C 0.57029 0.90994 0.50824 0.0
N428 N 0.69518 1.01057 0.55299 0.0
N429 N 0.53624 0.81076 0.49527 0.0
H430 H 0.52585 0.94297 0.48715 0.0
H431 H 0.4905 0.87052 0.48629 0.0
H432 H 0.53482 0.77295 0.49761 0.0
H433 H 0.51015 0.80899 0.4784 0.0
H434 H 0.73135 1.01539 0.56314 0.0
H435 H 0.69449 1.04768 0.55288 0.0
H436 H 0.71484 0.94208 0.57958 0.0
H437 H 0.69149 0.87296 0.56857 0.0
C438 C 0.76121 0.58362 0.87514 0.0
C439 C 0.73761 0.58084 0.84706 0.0
C440 C 0.82181 0.57743 0.82843 0.0
C441 C 0.84662 0.58291 0.85666 0.0
N442 N 0.83838 0.5952 0.90705 0.0
N443 N 0.74453 0.56793 0.79674 0.0
C444 C 0.81564 0.5873 0.87987 0.0
C445 C 0.7679 0.57553 0.82375 0.0
N446 N 0.72885 0.57763 0.89767 0.0
N447 N 0.85163 0.5771 0.80571 0.0
H448 H 0.70803 0.56926 0.79259 0.0
H449 H 0.75913 0.55777 0.77853 0.0
H450 H 0.88993 0.57859 0.80814 0.0
H451 H 0.84068 0.5784 0.78453 0.0
H452 H 0.73861 0.57213 0.91835 0.0
H453 H 0.68879 0.57192 0.89498 0.0
H454 H 0.82393 0.60726 0.92474 0.0
H455 H 0.87389 0.59244 0.91184 0.0
C456 C 0.30966 0.77002 0.16251 0.0
C457 C 0.26536 0.75249 0.182 0.0
C458 C 0.33308 0.84105 0.21255 0.0
C459 C 0.37527 0.8613 0.19183 0.0
N460 N 0.39396 0.84542 0.14349 0.0
N461 N 0.23565 0.78172 0.2241 0.0
C462 C 0.36069 0.82535 0.16598 0.0
C463 C 0.27749 0.79146 0.20635 0.0
N464 N 0.30313 0.7339 0.13997 0.0
N465 N 0.34694 0.86712 0.23937 0.0
H466 H 0.19621 0.74613 0.22177 0.0
H467 H 0.23873 0.81109 0.23983 0.0
H468 H 0.38651 0.9008 0.24535 0.0
H469 H 0.32157 0.85157 0.25652 0.0
H470 H 0.33549 0.73979 0.12705 0.0
H471 H 0.26626 0.69603 0.13535 0.0
H472 H 0.38368 0.82525 0.1231 0.0
H473 H 0.42891 0.88533 0.14432 0.0
C474 C 0.59018 0.30066 0.54226 0.0
C475 C 0.61939 0.29012 0.51994 0.0
C476 C 0.64363 0.38598 0.5044 0.0
C477 C 0.61944 0.39878 0.52845 0.0
N478 N 0.57968 0.36765 0.5736 0.0
N479 N 0.67991 0.33008 0.48144 0.0
C480 C 0.5952 0.35552 0.54806 0.0
C481 C 0.64812 0.33533 0.5018 0.0
N482 N 0.55677 0.25792 0.55841 0.0
N483 N 0.65953 0.42075 0.48264 0.0
H484 H 0.68131 0.29359 0.47737 0.0
H485 H 0.70772 0.36304 0.46995 0.0
H486 H 0.65483 0.45571 0.48282 0.0
H487 H 0.67162 0.4119 0.46314 0.0
H488 H 0.52882 0.25975 0.57229 0.0
H489 H 0.55372 0.21901 0.5564 0.0
H490 H 0.56802 0.3415 0.59036 0.0
H491 H 0.58432 0.40653 0.57928 0.0
C492 C 0.40775 0.63132 0.84205 0.0
C493 C 0.41387 0.58357 0.84681 0.0
C494 C 0.31038 0.53583 0.85743 0.0
C495 C 0.30714 0.58578 0.8568 0.0
N496 N 0.36193 0.68509 0.85374 0.0
N497 N 0.36602 0.49165 0.8652 0.0
C498 C 0.35857 0.63442 0.85057 0.0
C499 C 0.36363 0.53635 0.85612 0.0
N500 N 0.44739 0.67341 0.82756 0.0
N501 N 0.26166 0.48619 0.85799 0.0
H502 H 0.40173 0.48836 0.86533 0.0
H503 H 0.33365 0.45995 0.87552 0.0
H504 H 0.22258 0.48326 0.85803 0.0
H505 H 0.25955 0.44774 0.85509 0.0
H506 H 0.44322 0.70658 0.82112 0.0
H507 H 0.48037 0.6715 0.81844 0.0
H508 H 0.39933 0.72261 0.85275 0.0
H509 H 0.3288 0.68982 0.86048 0.0
C510 C 0.93859 0.39102 0.20227 0.0
C511 C 0.93979 0.43023 0.18287 0.0
C512 C 0.83587 0.36023 0.1722 0.0
C513 C 0.83382 0.32314 0.19314 0.0
N514 N 0.88568 0.31156 0.23134 0.0
N515 N 0.88364 0.45143 0.15172 0.0
C516 C 0.88619 0.34105 0.2088 0.0
C517 C 0.88645 0.41442 0.16879 0.0
N518 N 0.9882 0.40132 0.21486 0.0
N519 N 0.78976 0.34239 0.15414 0.0
H520 H 0.91884 0.48862 0.14714 0.0
H521 H 0.84623 0.44712 0.14355 0.0
H522 H 0.75324 0.30425 0.15567 0.0
H523 H 0.78892 0.3629 0.13632 0.0
H524 H 0.99278 0.37234 0.2261 0.0
H525 H 1.0259 0.43781 0.21254 0.0
H526 H 0.9194 0.32465 0.24606 0.0
H527 H 0.84953 0.27628 0.23697 0.0
C528 C 1.07303 0.54613 0.06345 0.0
C529 C 1.07762 0.59185 0.08093 0.0
C530 C 1.07415 0.63588 0.0368 0.0
C531 C 1.07695 0.59369 0.01959 0.0
N532 N 0.0869 0.51227 0.01738 0.0
N533 N 0.08938 0.68399 0.08379 0.0
C534 C 1.07828 0.54968 0.03319 0.0
C535 C 1.07953 0.63755 0.06745 0.0
N536 N 1.06158 0.49817 0.07569 0.0
N537 N 1.06506 0.67384 0.02385 0.0
H538 H 0.09368 0.68704 0.10605 0.0
H539 H 0.09778 0.72113 0.07527 0.0
H540 H 1.06094 0.67393 0.00169 0.0
H541 H 1.05662 0.70193 0.03497 0.0
H542 H 1.05226 0.46146 0.06394 0.0
H543 H 1.05552 0.49319 0.09745 0.0
H544 H 0.09493 0.48331 0.02641 0.0
H545 H 0.09093 0.51326 0.99533 0.0
C546 C 0.64978 0.1039 0.40455 0.0
C547 C 0.61118 0.11459 0.41915 0.0
C548 C 0.56819 0.11498 0.37209 0.0
C549 C 0.6096 0.1087 0.35755 0.0
N550 N 0.69324 0.10223 0.36027 0.0
N551 N 0.53797 0.13741 0.41668 0.0
C552 C 0.65143 0.1048 0.37396 0.0
C553 C 0.57128 0.12162 0.40282 0.0
N554 N 0.68317 0.09 0.41987 0.0
N555 N 0.52544 0.11426 0.35646 0.0
H556 H 0.53908 0.1429 0.43889 0.0
H557 H 0.51241 0.14942 0.40632 0.0
H558 H 0.52341 0.11276 0.33418 0.0
H559 H 0.49015 0.1116 0.36537 0.0
H560 H 0.70785 0.07567 0.4106 0.0
H561 H 0.68261 0.08798 0.44201 0.0
H562 H 0.72889 0.10653 0.37082 0.0
H563 H 0.69417 0.09924 0.33807 0.0
C564 C 0.58102 0.64172 0.73512 0.0
C565 C 0.58783 0.60006 0.7481 0.0
C566 C 0.60054 0.5672 0.70029 0.0
C567 C 0.59823 0.61159 0.68769 0.0
N568 N 0.59288 0.69531 0.69368 0.0
N569 N 0.61303 0.5287 0.74345 0.0
C570 C 0.59038 0.65005 0.70533 0.0
C571 C 0.59972 0.56412 0.73072 0.0
N572 N 0.56309 0.6718 0.75098 0.0
N573 N 0.60271 0.52728 0.68304 0.0
H574 H 0.61353 0.52549 0.76548 0.0
H575 H 0.62838 0.50606 0.73255 0.0
H576 H 0.60499 0.52892 0.66092 0.0
H577 H 0.5979 0.49039 0.69028 0.0
H578 H 0.55132 0.69843 0.74231 0.0
H579 H 0.55536 0.66668 0.77259 0.0
H580 H 0.59423 0.72847 0.70575 0.0
H581 H 0.5975 0.70165 0.67195 0.0
C582 C 0.65322 0.19893 0.61157 0.0
C583 C 0.62909 0.14412 0.59842 0.0
C584 C 0.63654 0.10875 0.64421 0.0
C585 C 0.6668 0.1644 0.65643 0.0
N586 N 0.70501 0.2629 0.65268 0.0
N587 N 0.59818 1.04669 0.60115 0.0
C588 C 0.67475 0.20961 0.64047 0.0
C589 C 0.62028 0.09883 0.61454 0.0
N590 N 0.65615 0.24076 0.59622 0.0
N591 N 0.62312 0.06553 0.66112 0.0
H592 H 0.58274 1.03741 0.57988 0.0
H593 H 0.59721 1.01311 0.61057 0.0
H594 H 0.63542 0.07145 0.6828 0.0
H595 H 0.59647 1.02385 0.65435 0.0
H596 H 0.66776 0.28042 0.60502 0.0
H597 H 0.64336 0.23476 0.57466 0.0
H598 H 0.71812 0.2984 0.64151 0.0
H599 H 0.71965 0.27202 0.67408 0.0
C600 C 0.61896 0.57344 0.9403 0.0
C601 C 0.56967 0.5574 0.92345 0.0
C602 C 0.51562 0.48356 0.95493 0.0
C603 C 0.56659 0.49088 0.96711 0.0
N604 N 0.66753 0.54431 0.97266 0.0
N605 N 0.46992 0.50431 0.91652 0.0
C606 C 0.6186 0.53715 0.9607 0.0
C607 C 0.51739 0.51515 0.93173 0.0
N608 N 0.66584 0.62301 0.93634 0.0
N609 N 0.46596 0.44682 0.96578 0.0
H610 H 0.47079 0.5306 0.90116 0.0
H611 H 0.43069 0.46969 0.91872 0.0
H612 H 0.46363 0.42366 0.98306 0.0
H613 H 0.42764 0.44256 0.95936 0.0
H614 H 0.70242 0.6397 0.94937 0.0
H615 H 0.66595 0.64947 0.92125 0.0
H616 H 0.70688 0.57442 0.96689 0.0
H617 H 0.66896 0.51791 0.98727 0.0
C618 C 0.09782 0.53954 0.27111 0.0
C619 C 0.13549 0.58573 0.25623 0.0
C620 C 0.21066 0.60703 0.29196 0.0
C621 C 0.17594 0.55491 0.30323 0.0
N622 N 0.08626 0.47139 0.30475 0.0
N623 N 0.22828 0.66337 0.25165 0.0
C624 C 0.11904 0.52143 0.2935 0.0
C625 C 0.19179 0.62035 0.2668 0.0
N626 N 1.04192 0.51303 0.26346 0.0
N627 N 0.26175 0.64348 0.30522 0.0
H628 H 0.21569 0.67481 0.2334 0.0
H629 H 0.27138 0.68559 0.25614 0.0
H630 H 0.2773 0.63459 0.32348 0.0
H631 H 0.28655 0.68433 0.29969 0.0
H632 H 1.01131 0.48147 0.27461 0.0
H633 H 1.02584 0.52629 0.24719 0.0
H634 H 1.04626 0.44213 0.29645 0.0
H635 H 0.10033 0.45768 0.32166 0.0
loop_
_geom_bond_atom_site_label_1
_geom_bond_atom_site_label_2
_geom_bond_distance
_geom_bond_site_symmetry_2
_ccdc_geom_bond_type
Tb0 C9 2.764 1_455 S
Tb0 O10 2.325 1_455 S
Tb0 O13 2.303 . S
Tb0 O17 2.322 . S
Tb0 O18 2.349 . S
Tb0 O21 2.415 1_455 S
Tb0 O22 2.399 1_455 S
Tb1 O11 2.322 1_455 S
Tb1 O12 2.349 . S
Tb1 O14 2.415 . S
Tb1 O15 2.399 . S
Tb1 O16 2.325 . S
Tb1 O19 2.303 . S
Tb1 C30 2.764 . S
C2 O18 1.261 . S
C2 O19 1.257 . S
C3 C6 1.358 . S
C3 C7 1.332 . S
C3 C9 1.504 . S
C4 C5 1.373 . S
C4 C8 1.308 . S
C5 C4 1.373 . S
C5 C6 1.429 . S
C5 H32 0.932 . S
C6 C3 1.358 . S
C6 C5 1.429 . S
C6 H33 0.930 . S
C7 C3 1.332 . S
C7 C8 1.394 . S
C7 H34 0.932 . S
C8 C4 1.308 . S
C8 C7 1.394 . S
C8 H35 0.929 . S
C9 Tb0 2.764 1_655 S
C9 C3 1.504 . S
C9 O21 1.239 . S
C9 O22 1.263 . S
O10 Tb0 2.325 1_655 S
O10 C20 1.236 . S
O11 Tb1 2.322 1_655 S
O11 C20 1.257 . S
O12 Tb1 2.349 . S
O12 C23 1.261 . S
O13 Tb0 2.303 . S
O13 C23 1.257 . S
O14 Tb1 2.415 . S
O14 C30 1.239 . S
O15 Tb1 2.399 . S
O15 C30 1.263 . S
O16 Tb1 2.325 . S
O16 C31 1.236 . S
O17 Tb0 2.322 . S
O17 C31 1.257 . S
O18 Tb0 2.349 . S
O18 C2 1.261 . S
O19 Tb1 2.303 . S
O19 C2 1.257 . S
C20 O10 1.236 . S
C20 O11 1.257 . S
O21 Tb0 2.415 1_655 S
O21 C9 1.239 . S
O22 Tb0 2.399 1_655 S
O22 C9 1.263 . S
C23 O12 1.261 . S
C23 O13 1.257 . S
C24 C27 1.358 . S
C24 C28 1.332 . S
C24 C30 1.504 . S
C25 C26 1.373 . S
C25 C29 1.308 . S
C26 C25 1.373 . S
C26 C27 1.429 . S
C26 H36 0.932 . S
C27 C24 1.358 . S
C27 C26 1.429 . S
C27 H37 0.930 . S
C28 C24 1.332 . S
C28 C29 1.394 . S
C28 H38 0.932 . S
C29 C25 1.308 . S
C29 C28 1.394 . S
C29 H39 0.929 . S
C30 Tb1 2.764 . S
C30 O14 1.239 . S
C30 O15 1.263 . S
C30 C24 1.504 . S
C31 O16 1.236 . S
C31 O17 1.257 . S
H32 C5 0.932 . S
H33 C6 0.930 . S
H34 C7 0.932 . S
H35 C8 0.929 . S
H36 C26 0.932 . S
H37 C27 0.930 . S
H38 C28 0.932 . S
H39 C29 0.929 . S
Tb40 C49 2.764 . S
Tb40 O50 2.325 . S
Tb40 O53 2.303 1_565 S
Tb40 O57 2.322 1_565 S
Tb40 O58 2.349 1_565 S
Tb40 O61 2.415 . S
Tb40 O62 2.399 . S
Tb41 O51 2.322 1_545 S
Tb41 O52 2.349 . S
Tb41 O54 2.415 . S
Tb41 O55 2.399 . S
Tb41 O56 2.325 . S
Tb41 O59 2.303 . S
Tb41 C70 2.764 . S
C42 O58 1.261 . S
C42 O59 1.257 . S
C43 C46 1.358 . S
C43 C47 1.332 . S
C43 C49 1.504 . S
C44 C45 1.373 . S
C44 C48 1.308 . S
C45 C44 1.373 . S
C45 C46 1.429 . S
C45 H72 0.932 . S
C46 C43 1.358 . S
C46 C45 1.429 . S
C46 H73 0.930 . S
C47 C43 1.332 . S
C47 C48 1.394 . S
C47 H74 0.932 . S
C48 C44 1.308 . S
C48 C47 1.394 . S
C48 H75 0.929 . S
C49 Tb40 2.764 . S
C49 C43 1.504 . S
C49 O61 1.239 . S
C49 O62 1.263 . S
O50 Tb40 2.325 . S
O50 C60 1.236 . S
O51 Tb41 2.322 1_565 S
O51 C60 1.257 . S
O52 Tb41 2.349 . S
O52 C63 1.261 . S
O53 Tb40 2.303 1_545 S
O53 C63 1.257 . S
O54 Tb41 2.415 . S
O54 C70 1.239 . S
O55 Tb41 2.399 . S
O55 C70 1.263 . S
O56 Tb41 2.325 . S
O56 C71 1.236 . S
O57 Tb40 2.322 1_545 S
O57 C71 1.257 . S
O58 Tb40 2.349 1_545 S
O58 C42 1.261 . S
O59 Tb41 2.303 . S
O59 C42 1.257 . S
C60 O50 1.236 . S
C60 O51 1.257 . S
O61 Tb40 2.415 . S
O61 C49 1.239 . S
O62 Tb40 2.399 . S
O62 C49 1.263 . S
C63 O52 1.261 . S
C63 O53 1.257 . S
C64 C67 1.358 . S
C64 C68 1.332 . S
C64 C70 1.504 . S
C65 C66 1.373 . S
C65 C69 1.308 . S
C66 C65 1.373 . S
C66 C67 1.429 . S
C66 H76 0.932 . S
C67 C64 1.358 . S
C67 C66 1.429 . S
C67 H77 0.930 . S
C68 C64 1.332 . S
C68 C69 1.394 . S
C68 H78 0.932 . S
C69 C65 1.308 . S
C69 C68 1.394 . S
C69 H79 0.929 . S
C70 Tb41 2.764 . S
C70 O54 1.239 . S
C70 O55 1.263 . S
C70 C64 1.504 . S
C71 O56 1.236 . S
C71 O57 1.257 . S
H72 C45 0.932 . S
H73 C46 0.930 . S
H74 C47 0.932 . S
H75 C48 0.929 . S
H76 C66 0.932 . S
H77 C67 0.930 . S
H78 C68 0.932 . S
H79 C69 0.929 . S
Tb80 C89 2.764 . S
Tb80 O90 2.325 . S
Tb80 O93 2.303 . S
Tb80 O97 2.322 . S
Tb80 O98 2.349 . S
Tb80 O101 2.415 . S
Tb80 O102 2.399 . S
Tb81 O91 2.322 . S
Tb81 O92 2.349 . S
Tb81 O94 2.415 . S
Tb81 O95 2.399 . S
Tb81 O96 2.325 . S
Tb81 O99 2.303 . S
Tb81 C110 2.764 . S
C82 O98 1.261 . S
C82 O99 1.257 . S
C83 C86 1.358 . S
C83 C87 1.332 . S
C83 C89 1.504 . S
C84 C85 1.373 . S
C84 C88 1.308 . S
C85 C84 1.373 . S
C85 C86 1.429 . S
C85 H112 0.932 . S
C86 C83 1.358 . S
C86 C85 1.429 . S
C86 H113 0.930 . S
C87 C83 1.332 . S
C87 C88 1.394 . S
C87 H114 0.932 . S
C88 C84 1.308 . S
C88 C87 1.394 . S
C88 H115 0.929 . S
C89 Tb80 2.764 . S
C89 C83 1.504 . S
C89 O101 1.239 . S
C89 O102 1.263 . S
O90 Tb80 2.325 . S
O90 C100 1.236 . S
O91 Tb81 2.322 . S
O91 C100 1.257 . S
O92 Tb81 2.349 . S
O92 C103 1.261 . S
O93 Tb80 2.303 . S
O93 C103 1.257 . S
O94 Tb81 2.415 . S
O94 C110 1.239 . S
O95 Tb81 2.399 . S
O95 C110 1.263 . S
O96 Tb81 2.325 . S
O96 C111 1.236 . S
O97 Tb80 2.322 . S
O97 C111 1.257 . S
O98 Tb80 2.349 . S
O98 C82 1.261 . S
O99 Tb81 2.303 . S
O99 C82 1.257 . S
C100 O90 1.236 . S
C100 O91 1.257 . S
O101 Tb80 2.415 . S
O101 C89 1.239 . S
O102 Tb80 2.399 . S
O102 C89 1.263 . S
C103 O92 1.261 . S
C103 O93 1.257 . S
C104 C107 1.358 . S
C104 C108 1.332 . S
C104 C110 1.504 . S
C105 C106 1.373 . S
C105 C109 1.308 . S
C106 C105 1.373 . S
C106 C107 1.429 . S
C106 H116 0.932 . S
C107 C104 1.358 . S
C107 C106 1.429 . S
C107 H117 0.930 . S
C108 C104 1.332 . S
C108 C109 1.394 . S
C108 H118 0.932 . S
C109 C105 1.308 . S
C109 C108 1.394 . S
C109 H119 0.929 . S
C110 Tb81 2.764 . S
C110 O94 1.239 . S
C110 O95 1.263 . S
C110 C104 1.504 . S
C111 O96 1.236 . S
C111 O97 1.257 . S
H112 C85 0.932 . S
H113 C86 0.930 . S
H114 C87 0.932 . S
H115 C88 0.929 . S
H116 C106 0.932 . S
H117 C107 0.930 . S
H118 C108 0.932 . S
H119 C109 0.929 . S
P120 O131 1.495 . S
P120 C134 1.812 . S
P120 C140 1.799 1_565 S
P120 C146 1.817 1_565 S
H121 C135 0.941 . S
H122 C136 0.939 . S
H123 C138 0.940 . S
H124 C139 0.940 . S
H125 C141 0.939 . S
H126 C142 0.942 . S
H127 C144 0.940 . S
H128 C145 0.939 . S
H129 C147 0.941 . S
H130 C151 0.939 . S
O131 P120 1.495 . S
H132 C148 0.939 . S
H133 C150 0.940 . S
C134 P120 1.812 . S
C134 C135 1.389 . S
C134 C139 1.391 . S
C135 H121 0.941 . S
C135 C134 1.389 . S
C135 C136 1.397 . S
C136 H122 0.939 . S
C136 C135 1.397 . S
C136 C137 1.378 . S
C137 C136 1.378 . S
C137 C138 1.378 . S
C138 H123 0.940 . S
C138 C137 1.378 . S
C138 C139 1.396 . S
C139 H124 0.940 . S
C139 C134 1.391 . S
C139 C138 1.396 . S
C140 P120 1.799 1_545 S
C140 C141 1.378 . S
C140 C145 1.400 . S
C141 H125 0.939 . S
C141 C140 1.378 . S
C141 C142 1.361 . S
C142 H126 0.942 . S
C142 C141 1.361 . S
C142 C143 1.369 . S
C143 C142 1.369 . S
C143 C144 1.404 . S
C144 H127 0.940 . S
C144 C143 1.404 . S
C144 C145 1.389 . S
C145 H128 0.939 . S
C145 C140 1.400 . S
C145 C144 1.389 . S
C146 P120 1.817 1_545 S
C146 C147 1.391 1_545 S
C146 C151 1.391 . S
C147 H129 0.941 . S
C147 C146 1.391 1_565 S
C147 C148 1.396 . S
C148 H132 0.939 . S
C148 C147 1.396 . S
C148 C149 1.397 1_565 S
C149 C148 1.397 1_545 S
C149 C150 1.385 . S
C150 H133 0.940 . S
C150 C149 1.385 . S
C150 C151 1.388 . S
C151 H130 0.939 . S
C151 C146 1.391 . S
C151 C150 1.388 . S
P152 O163 1.490 . S
P152 C166 1.812 . S
P152 C172 1.803 . S
P152 C178 1.819 . S
H153 C167 0.941 . S
H154 C168 0.939 . S
H155 C170 0.940 . S
H156 C171 0.940 . S
H157 C173 0.939 . S
H158 C174 0.942 . S
H159 C176 0.940 . S
H160 C177 0.939 . S
H161 C179 0.941 . S
H162 C183 0.939 . S
O163 P152 1.490 . S
H164 C180 0.939 . S
H165 C182 0.940 . S
C166 P152 1.812 . S
C166 C167 1.389 . S
C166 C171 1.391 . S
C167 H153 0.941 . S
C167 C166 1.389 . S
C167 C168 1.397 . S
C168 H154 0.939 . S
C168 C167 1.397 . S
C168 C169 1.378 . S
C169 C168 1.378 . S
C169 C170 1.378 . S
C170 H155 0.940 . S
C170 C169 1.378 . S
C170 C171 1.396 . S
C171 H156 0.940 . S
C171 C166 1.391 . S
C171 C170 1.396 . S
C172 P152 1.803 . S
C172 C173 1.378 . S
C172 C177 1.400 . S
C173 H157 0.939 . S
C173 C172 1.378 . S
C173 C174 1.361 . S
C174 H158 0.942 . S
C174 C173 1.361 . S
C174 C175 1.369 . S
C175 C174 1.369 . S
C175 C176 1.404 . S
C176 H159 0.940 . S
C176 C175 1.404 . S
C176 C177 1.389 . S
C177 H160 0.939 . S
C177 C172 1.400 . S
C177 C176 1.389 . S
C178 P152 1.819 . S
C178 C179 1.391 . S
C178 C183 1.391 . S
C179 H161 0.941 . S
C179 C178 1.391 . S
C179 C180 1.396 . S
C180 H164 0.939 . S
C180 C179 1.396 . S
C180 C181 1.397 . S
C181 C180 1.397 . S
C181 C182 1.385 . S
C182 H165 0.940 . S
C182 C181 1.385 . S
C182 C183 1.388 . S
C183 H162 0.939 . S
C183 C178 1.391 . S
C183 C182 1.388 . S
P184 O195 1.490 . S
P184 C198 1.812 . S
P184 C204 1.803 . S
P184 C210 1.819 . S
H185 C199 0.941 . S
H186 C200 0.939 . S
H187 C202 0.940 . S
H188 C203 0.940 . S
H189 C205 0.939 . S
H190 C206 0.942 . S
H191 C208 0.940 . S
H192 C209 0.939 . S
H193 C211 0.941 . S
H194 C215 0.939 . S
O195 P184 1.490 . S
H196 C212 0.939 . S
H197 C214 0.940 1_655 S
C198 P184 1.812 . S
C198 C199 1.389 . S
C198 C203 1.391 . S
C199 H185 0.941 . S
C199 C198 1.389 . S
C199 C200 1.397 . S
C200 H186 0.939 . S
C200 C199 1.397 . S
C200 C201 1.378 . S
C201 C200 1.378 . S
C201 C202 1.378 . S
C202 H187 0.940 . S
C202 C201 1.378 . S
C202 C203 1.396 . S
C203 H188 0.940 . S
C203 C198 1.391 . S
C203 C202 1.396 . S
C204 P184 1.803 . S
C204 C205 1.378 . S
C204 C209 1.400 . S
C205 H189 0.939 . S
C205 C204 1.378 . S
C205 C206 1.361 1_455 S
C206 H190 0.942 . S
C206 C205 1.361 1_655 S
C206 C207 1.369 . S
C207 C206 1.369 . S
C207 C208 1.404 . S
C208 H191 0.940 . S
C208 C207 1.404 . S
C208 C209 1.389 1_655 S
C209 H192 0.939 . S
C209 C204 1.400 . S
C209 C208 1.389 1_455 S
C210 P184 1.819 . S
C210 C211 1.391 . S
C210 C215 1.391 . S
C211 H193 0.941 . S
C211 C210 1.391 . S
C211 C212 1.396 . S
C212 H196 0.939 . S
C212 C211 1.396 . S
C212 C213 1.397 . S
C213 C212 1.397 . S
C213 C214 1.385 . S
C214 H197 0.940 1_455 S
C214 C213 1.385 . S
C214 C215 1.388 . S
C215 H194 0.939 . S
C215 C210 1.391 . S
C215 C214 1.388 . S
P216 O227 1.490 . S
P216 C230 1.812 . S
P216 C236 1.803 1_455 S
P216 C242 1.819 . S
H217 C231 0.941 . S
H218 C232 0.939 . S
H219 C234 0.940 . S
H220 C235 0.940 . S
H221 C237 0.939 . S
H222 C238 0.942 . S
H223 C240 0.940 . S
H224 C241 0.939 . S
H225 C243 0.941 . S
H226 C247 0.939 . S
O227 P216 1.490 . S
H228 C244 0.939 . S
H229 C246 0.940 . S
C230 P216 1.812 . S
C230 C231 1.389 . S
C230 C235 1.391 . S
C231 H217 0.941 . S
C231 C230 1.389 . S
C231 C232 1.397 . S
C232 H218 0.939 . S
C232 C231 1.397 . S
C232 C233 1.378 . S
C233 C232 1.378 . S
C233 C234 1.378 . S
C234 H219 0.940 . S
C234 C233 1.378 . S
C234 C235 1.396 . S
C235 H220 0.940 . S
C235 C230 1.391 . S
C235 C234 1.396 . S
C236 P216 1.803 1_655 S
C236 C237 1.378 . S
C236 C241 1.400 . S
C237 H221 0.939 . S
C237 C236 1.378 . S
C237 C238 1.361 . S
C238 H222 0.942 . S
C238 C237 1.361 . S
C238 C239 1.369 . S
C239 C238 1.369 . S
C239 C240 1.404 . S
C240 H223 0.940 . S
C240 C239 1.404 . S
C240 C241 1.389 . S
C241 H224 0.939 . S
C241 C236 1.400 . S
C241 C240 1.389 . S
C242 P216 1.819 . S
C242 C243 1.391 . S
C242 C247 1.391 1_455 S
C243 H225 0.941 . S
C243 C242 1.391 . S
C243 C244 1.396 . S
C244 H228 0.939 . S
C244 C243 1.396 . S
C244 C245 1.397 . S
C245 C244 1.397 . S
C245 C246 1.385 1_455 S
C246 H229 0.940 . S
C246 C245 1.385 1_655 S
C246 C247 1.388 . S
C247 H226 0.939 . S
C247 C242 1.391 1_655 S
C247 C246 1.388 . S
P248 O259 1.490 . S
P248 C262 1.812 . S
P248 C268 1.803 1_545 S
P248 C274 1.819 . S
H249 C263 0.941 . S
H250 C264 0.939 . S
H251 C266 0.940 . S
H252 C267 0.940 . S
H253 C269 0.939 . S
H254 C270 0.942 . S
H255 C272 0.940 . S
H256 C273 0.939 . S
H257 C275 0.941 . S
H258 C279 0.939 . S
O259 P248 1.490 . S
H260 C276 0.939 . S
H261 C278 0.940 . S
C262 P248 1.812 . S
C262 C263 1.389 . S
C262 C267 1.391 . S
C263 H249 0.941 . S
C263 C262 1.389 . S
C263 C264 1.397 . S
C264 H250 0.939 . S
C264 C263 1.397 . S
C264 C265 1.378 . S
C265 C264 1.378 . S
C265 C266 1.378 . S
C266 H251 0.940 . S
C266 C265 1.378 . S
C266 C267 1.396 . S
C267 H252 0.940 . S
C267 C262 1.391 . S
C267 C266 1.396 . S
C268 P248 1.803 1_565 S
C268 C269 1.378 . S
C268 C273 1.400 . S
C269 H253 0.939 . S
C269 C268 1.378 . S
C269 C270 1.361 . S
C270 H254 0.942 . S
C270 C269 1.361 . S
C270 C271 1.369 . S
C271 C270 1.369 . S
C271 C272 1.404 . S
C272 H255 0.940 . S
C272 C271 1.404 . S
C272 C273 1.389 . S
C273 H256 0.939 . S
C273 C268 1.400 . S
C273 C272 1.389 . S
C274 P248 1.819 . S
C274 C275 1.391 . S
C274 C279 1.391 1_545 S
C275 H257 0.941 . S
C275 C274 1.391 . S
C275 C276 1.396 . S
C276 H260 0.939 . S
C276 C275 1.396 . S
C276 C277 1.397 1_545 S
C277 C276 1.397 1_565 S
C277 C278 1.385 . S
C278 H261 0.940 . S
C278 C277 1.385 . S
C278 C279 1.388 . S
C279 H258 0.939 . S
C279 C274 1.391 1_565 S
C279 C278 1.388 . S
P280 O291 1.490 . S
P280 C294 1.812 . S
P280 C300 1.803 . S
P280 C306 1.819 . S
H281 C295 0.941 . S
H282 C296 0.939 . S
H283 C298 0.940 . S
H284 C299 0.940 . S
H285 C301 0.939 . S
H286 C302 0.942 . S
H287 C304 0.940 . S
H288 C305 0.939 . S
H289 C307 0.941 . S
H290 C311 0.939 . S
O291 P280 1.490 . S
H292 C308 0.939 . S
H293 C310 0.940 . S
C294 P280 1.812 . S
C294 C295 1.389 . S
C294 C299 1.391 . S
C295 H281 0.941 . S
C295 C294 1.389 . S
C295 C296 1.397 . S
C296 H282 0.939 . S
C296 C295 1.397 . S
C296 C297 1.378 . S
C297 C296 1.378 . S
C297 C298 1.378 . S
C298 H283 0.940 . S
C298 C297 1.378 . S
C298 C299 1.396 . S
C299 H284 0.940 . S
C299 C294 1.391 . S
C299 C298 1.396 . S
C300 P280 1.803 . S
C300 C301 1.378 . S
C300 C305 1.400 . S
C301 H285 0.939 . S
C301 C300 1.378 . S
C301 C302 1.361 . S
C302 H286 0.942 . S
C302 C301 1.361 . S
C302 C303 1.369 . S
C303 C302 1.369 . S
C303 C304 1.404 . S
C304 H287 0.940 . S
C304 C303 1.404 . S
C304 C305 1.389 . S
C305 H288 0.939 . S
C305 C300 1.400 . S
C305 C304 1.389 . S
C306 P280 1.819 . S
C306 C307 1.391 . S
C306 C311 1.391 . S
C307 H289 0.941 . S
C307 C306 1.391 . S
C307 C308 1.396 1_554 S
C308 H292 0.939 . S
C308 C307 1.396 1_556 S
C308 C309 1.397 . S
C309 C308 1.397 . S
C309 C310 1.385 1_556 S
C310 H293 0.940 . S
C310 C309 1.385 1_554 S
C310 C311 1.388 . S
C311 H290 0.939 . S
C311 C306 1.391 . S
C311 C310 1.388 . S
C312 C313 1.363 . S
C312 C318 1.379 . S
C312 N320 1.356 . S
C313 C312 1.363 . S
C313 C319 1.363 . S
C314 C315 1.363 . S
C314 C319 1.379 . S
C314 N321 1.356 . S
C315 C314 1.363 . S
C315 C318 1.363 . S
N316 C318 1.356 . S
N316 H328 0.984 . S
N316 H329 0.985 . S
N317 C319 1.356 . S
N317 H322 0.984 . S
N317 H323 0.985 . S
C318 C312 1.379 . S
C318 C315 1.363 . S
C318 N316 1.356 . S
C319 C313 1.363 . S
C319 C314 1.379 . S
C319 N317 1.356 . S
N320 C312 1.356 . S
N320 H326 0.984 . S
N320 H327 0.984 . S
N321 C314 1.356 . S
N321 H324 0.984 . S
N321 H325 0.985 . S
H322 N317 0.984 . S
H323 N317 0.985 . S
H324 N321 0.984 . S
H325 N321 0.985 . S
H326 N320 0.984 . S
H327 N320 0.984 . S
H328 N316 0.984 . S
H329 N316 0.985 . S
C330 C331 1.363 . S
C330 C336 1.379 . S
C330 N338 1.356 . S
C331 C330 1.363 . S
C331 C337 1.363 . S
C332 C333 1.363 . S
C332 C337 1.379 . S
C332 N339 1.356 . S
C333 C332 1.363 . S
C333 C336 1.363 . S
N334 C336 1.356 . S
N334 H346 0.984 . S
N334 H347 0.985 . S
N335 C337 1.356 . S
N335 H340 0.984 . S
N335 H341 0.985 . S
C336 C330 1.379 . S
C336 C333 1.363 . S
C336 N334 1.356 . S
C337 C331 1.363 . S
C337 C332 1.379 . S
C337 N335 1.356 . S
N338 C330 1.356 . S
N338 H344 0.984 . S
N338 H345 0.984 . S
N339 C332 1.356 . S
N339 H342 0.984 . S
N339 H343 0.985 . S
H340 N335 0.984 . S
H341 N335 0.985 . S
H342 N339 0.984 . S
H343 N339 0.985 . S
H344 N338 0.984 . S
H345 N338 0.984 . S
H346 N334 0.984 . S
H347 N334 0.985 . S
C348 C349 1.363 . S
C348 C354 1.379 . S
C348 N356 1.356 . S
C349 C348 1.363 . S
C349 C355 1.363 . S
C350 C351 1.363 . S
C350 C355 1.379 . S
C350 N357 1.356 . S
C351 C350 1.363 . S
C351 C354 1.363 . S
N352 C354 1.356 . S
N352 H364 0.984 . S
N352 H365 0.985 . S
N353 C355 1.356 . S
N353 H358 0.984 . S
N353 H359 0.985 . S
C354 C348 1.379 . S
C354 C351 1.363 . S
C354 N352 1.356 . S
C355 C349 1.363 . S
C355 C350 1.379 . S
C355 N353 1.356 . S
N356 C348 1.356 . S
N356 H362 0.984 . S
N356 H363 0.984 . S
N357 C350 1.356 . S
N357 H360 0.984 . S
N357 H361 0.985 . S
H358 N353 0.984 . S
H359 N353 0.985 . S
H360 N357 0.984 . S
H361 N357 0.985 . S
H362 N356 0.984 . S
H363 N356 0.984 . S
H364 N352 0.984 . S
H365 N352 0.985 . S
C366 C367 1.363 . S
C366 C372 1.379 . S
C366 N374 1.356 . S
C367 C366 1.363 . S
C367 C373 1.363 . S
C368 C369 1.363 . S
C368 C373 1.379 . S
C368 N375 1.356 . S
C369 C368 1.363 . S
C369 C372 1.363 . S
N370 C372 1.356 . S
N370 H382 0.984 . S
N370 H383 0.985 . S
N371 C373 1.356 . S
N371 H376 0.984 . S
N371 H377 0.985 . S
C372 C366 1.379 . S
C372 C369 1.363 . S
C372 N370 1.356 . S
C373 C367 1.363 . S
C373 C368 1.379 . S
C373 N371 1.356 . S
N374 C366 1.356 . S
N374 H380 0.984 . S
N374 H381 0.984 . S
N375 C368 1.356 . S
N375 H378 0.984 . S
N375 H379 0.985 . S
H376 N371 0.984 . S
H377 N371 0.985 . S
H378 N375 0.984 . S
H379 N375 0.985 . S
H380 N374 0.984 . S
H381 N374 0.984 . S
H382 N370 0.984 . S
H383 N370 0.985 . S
C384 C385 1.363 . S
C384 C390 1.379 . S
C384 N392 1.356 . S
C385 C384 1.363 . S
C385 C391 1.363 . S
C386 C387 1.363 . S
C386 C391 1.379 . S
C386 N393 1.356 . S
C387 C386 1.363 . S
C387 C390 1.363 . S
N388 C390 1.356 . S
N388 H400 0.984 . S
N388 H401 0.985 . S
N389 C391 1.356 . S
N389 H394 0.984 . S
N389 H395 0.985 . S
C390 C384 1.379 . S
C390 C387 1.363 . S
C390 N388 1.356 . S
C391 C385 1.363 . S
C391 C386 1.379 . S
C391 N389 1.356 . S
N392 C384 1.356 . S
N392 H398 0.984 . S
N392 H399 0.984 . S
N393 C386 1.356 . S
N393 H396 0.984 . S
N393 H397 0.985 . S
H394 N389 0.984 . S
H395 N389 0.985 . S
H396 N393 0.984 . S
H397 N393 0.985 . S
H398 N392 0.984 . S
H399 N392 0.984 . S
H400 N388 0.984 . S
H401 N388 0.985 . S
C402 C403 1.363 . S
C402 C408 1.379 . S
C402 N410 1.356 . S
C403 C402 1.363 . S
C403 C409 1.363 . S
C404 C405 1.363 . S
C404 C409 1.379 . S
C404 N411 1.356 . S
C405 C404 1.363 . S
C405 C408 1.363 . S
N406 C408 1.356 . S
N406 H418 0.984 . S
N406 H419 0.985 . S
N407 C409 1.356 . S
N407 H412 0.984 . S
N407 H413 0.985 . S
C408 C402 1.379 . S
C408 C405 1.363 . S
C408 N406 1.356 . S
C409 C403 1.363 . S
C409 C404 1.379 . S
C409 N407 1.356 . S
N410 C402 1.356 . S
N410 H416 0.984 . S
N410 H417 0.984 . S
N411 C404 1.356 . S
N411 H414 0.984 . S
N411 H415 0.985 . S
H412 N407 0.984 . S
H413 N407 0.985 . S
H414 N411 0.984 . S
H415 N411 0.985 . S
H416 N410 0.984 . S
H417 N410 0.984 . S
H418 N406 0.984 . S
H419 N406 0.985 . S
C420 C421 1.363 . S
C420 C426 1.379 . S
C420 N428 1.356 . S
C421 C420 1.363 . S
C421 C427 1.363 . S
C422 C423 1.363 . S
C422 C427 1.379 . S
C422 N429 1.356 . S
C423 C422 1.363 . S
C423 C426 1.363 . S
N424 C426 1.356 . S
N424 H436 0.984 . S
N424 H437 0.985 . S
N425 C427 1.356 . S
N425 H430 0.984 . S
N425 H431 0.985 . S
C426 C420 1.379 . S
C426 C423 1.363 . S
C426 N424 1.356 . S
C427 C421 1.363 . S
C427 C422 1.379 . S
C427 N425 1.356 . S
N428 C420 1.356 . S
N428 H434 0.984 . S
N428 H435 0.984 . S
N429 C422 1.356 . S
N429 H432 0.984 . S
N429 H433 0.985 . S
H430 N425 0.984 . S
H431 N425 0.985 . S
H432 N429 0.984 . S
H433 N429 0.985 . S
H434 N428 0.984 . S
H435 N428 0.984 . S
H436 N424 0.984 . S
H437 N424 0.985 . S
C438 C439 1.363 . S
C438 C444 1.379 . S
C438 N446 1.356 . S
C439 C438 1.363 . S
C439 C445 1.363 . S
C440 C441 1.363 . S
C440 C445 1.379 . S
C440 N447 1.356 . S
C441 C440 1.363 . S
C441 C444 1.363 . S
N442 C444 1.356 . S
N442 H454 0.984 . S
N442 H455 0.985 . S
N443 C445 1.356 . S
N443 H448 0.984 . S
N443 H449 0.985 . S
C444 C438 1.379 . S
C444 C441 1.363 . S
C444 N442 1.356 . S
C445 C439 1.363 . S
C445 C440 1.379 . S
C445 N443 1.356 . S
N446 C438 1.356 . S
N446 H452 0.984 . S
N446 H453 0.984 . S
N447 C440 1.356 . S
N447 H450 0.984 . S
N447 H451 0.985 . S
H448 N443 0.984 . S
H449 N443 0.985 . S
H450 N447 0.984 . S
H451 N447 0.985 . S
H452 N446 0.984 . S
H453 N446 0.984 . S
H454 N442 0.984 . S
H455 N442 0.985 . S
C456 C457 1.363 . S
C456 C462 1.379 . S
C456 N464 1.356 . S
C457 C456 1.363 . S
C457 C463 1.363 . S
C458 C459 1.363 . S
C458 C463 1.379 . S
C458 N465 1.356 . S
C459 C458 1.363 . S
C459 C462 1.363 . S
N460 C462 1.356 . S
N460 H472 0.984 . S
N460 H473 0.985 . S
N461 C463 1.356 . S
N461 H466 0.984 . S
N461 H467 0.985 . S
C462 C456 1.379 . S
C462 C459 1.363 . S
C462 N460 1.356 . S
C463 C457 1.363 . S
C463 C458 1.379 . S
C463 N461 1.356 . S
N464 C456 1.356 . S
N464 H470 0.984 . S
N464 H471 0.984 . S
N465 C458 1.356 . S
N465 H468 0.984 . S
N465 H469 0.985 . S
H466 N461 0.984 . S
H467 N461 0.985 . S
H468 N465 0.984 . S
H469 N465 0.985 . S
H470 N464 0.984 . S
H471 N464 0.984 . S
H472 N460 0.984 . S
H473 N460 0.985 . S
C474 C475 1.363 . S
C474 C480 1.379 . S
C474 N482 1.356 . S
C475 C474 1.363 . S
C475 C481 1.363 . S
C476 C477 1.363 . S
C476 C481 1.379 . S
C476 N483 1.356 . S
C477 C476 1.363 . S
C477 C480 1.363 . S
N478 C480 1.356 . S
N478 H490 0.984 . S
N478 H491 0.985 . S
N479 C481 1.356 . S
N479 H484 0.984 . S
N479 H485 0.985 . S
C480 C474 1.379 . S
C480 C477 1.363 . S
C480 N478 1.356 . S
C481 C475 1.363 . S
C481 C476 1.379 . S
C481 N479 1.356 . S
N482 C474 1.356 . S
N482 H488 0.984 . S
N482 H489 0.984 . S
N483 C476 1.356 . S
N483 H486 0.984 . S
N483 H487 0.985 . S
H484 N479 0.984 . S
H485 N479 0.985 . S
H486 N483 0.984 . S
H487 N483 0.985 . S
H488 N482 0.984 . S
H489 N482 0.984 . S
H490 N478 0.984 . S
H491 N478 0.985 . S
C492 C493 1.363 . S
C492 C498 1.379 . S
C492 N500 1.356 . S
C493 C492 1.363 . S
C493 C499 1.363 . S
C494 C495 1.363 . S
C494 C499 1.379 . S
C494 N501 1.356 . S
C495 C494 1.363 . S
C495 C498 1.363 . S
N496 C498 1.356 . S
N496 H508 0.984 . S
N496 H509 0.985 . S
N497 C499 1.356 . S
N497 H502 0.984 . S
N497 H503 0.985 . S
C498 C492 1.379 . S
C498 C495 1.363 . S
C498 N496 1.356 . S
C499 C493 1.363 . S
C499 C494 1.379 . S
C499 N497 1.356 . S
N500 C492 1.356 . S
N500 H506 0.984 . S
N500 H507 0.984 . S
N501 C494 1.356 . S
N501 H504 0.984 . S
N501 H505 0.985 . S
H502 N497 0.984 . S
H503 N497 0.985 . S
H504 N501 0.984 . S
H505 N501 0.985 . S
H506 N500 0.984 . S
H507 N500 0.984 . S
H508 N496 0.984 . S
H509 N496 0.985 . S
C510 C511 1.363 . S
C510 C516 1.379 . S
C510 N518 1.356 . S
C511 C510 1.363 . S
C511 C517 1.363 . S
C512 C513 1.363 . S
C512 C517 1.379 . S
C512 N519 1.356 . S
C513 C512 1.363 . S
C513 C516 1.363 . S
N514 C516 1.356 . S
N514 H526 0.984 . S
N514 H527 0.985 . S
N515 C517 1.356 . S
N515 H520 0.984 . S
N515 H521 0.985 . S
C516 C510 1.379 . S
C516 C513 1.363 . S
C516 N514 1.356 . S
C517 C511 1.363 . S
C517 C512 1.379 . S
C517 N515 1.356 . S
N518 C510 1.356 . S
N518 H524 0.984 . S
N518 H525 0.984 . S
N519 C512 1.356 . S
N519 H522 0.984 . S
N519 H523 0.985 . S
H520 N515 0.984 . S
H521 N515 0.985 . S
H522 N519 0.984 . S
H523 N519 0.985 . S
H524 N518 0.984 . S
H525 N518 0.984 . S
H526 N514 0.984 . S
H527 N514 0.985 . S
C528 C529 1.363 . S
C528 C534 1.379 . S
C528 N536 1.356 . S
C529 C528 1.363 . S
C529 C535 1.363 . S
C530 C531 1.363 . S
C530 C535 1.379 . S
C530 N537 1.356 . S
C531 C530 1.363 . S
C531 C534 1.363 . S
N532 C534 1.356 . S
N532 H544 0.984 . S
N532 H545 0.985 1_554 S
N533 C535 1.356 . S
N533 H538 0.984 . S
N533 H539 0.985 . S
C534 C528 1.379 . S
C534 C531 1.363 . S
C534 N532 1.356 . S
C535 C529 1.363 . S
C535 C530 1.379 . S
C535 N533 1.356 . S
N536 C528 1.356 . S
N536 H542 0.984 . S
N536 H543 0.984 . S
N537 C530 1.356 . S
N537 H540 0.984 . S
N537 H541 0.985 . S
H538 N533 0.984 . S
H539 N533 0.985 . S
H540 N537 0.984 . S
H541 N537 0.985 . S
H542 N536 0.984 . S
H543 N536 0.984 . S
H544 N532 0.984 . S
H545 N532 0.985 1_556 S
C546 C547 1.363 . S
C546 C552 1.379 . S
C546 N554 1.356 1_545 S
C547 C546 1.363 . S
C547 C553 1.363 . S
C548 C549 1.363 . S
C548 C553 1.379 . S
C548 N555 1.356 . S
C549 C548 1.363 . S
C549 C552 1.363 . S
N550 C552 1.356 1_565 S
N550 H562 0.984 . S
N550 H563 0.985 . S
N551 C553 1.356 . S
N551 H556 0.984 . S
N551 H557 0.985 . S
C552 C546 1.379 . S
C552 C549 1.363 . S
C552 N550 1.356 1_545 S
C553 C547 1.363 . S
C553 C548 1.379 . S
C553 N551 1.356 . S
N554 C546 1.356 1_565 S
N554 H560 0.984 . S
N554 H561 0.984 . S
N555 C548 1.356 . S
N555 H558 0.984 . S
N555 H559 0.985 . S
H556 N551 0.984 . S
H557 N551 0.985 . S
H558 N555 0.984 . S
H559 N555 0.985 . S
H560 N554 0.984 . S
H561 N554 0.984 . S
H562 N550 0.984 . S
H563 N550 0.985 . S
C564 C565 1.363 . S
C564 C570 1.379 . S
C564 N572 1.356 . S
C565 C564 1.363 . S
C565 C571 1.363 . S
C566 C567 1.363 . S
C566 C571 1.379 . S
C566 N573 1.356 . S
C567 C566 1.363 . S
C567 C570 1.363 . S
N568 C570 1.356 . S
N568 H580 0.984 . S
N568 H581 0.985 . S
N569 C571 1.356 . S
N569 H574 0.984 . S
N569 H575 0.985 . S
C570 C564 1.379 . S
C570 C567 1.363 . S
C570 N568 1.356 . S
C571 C565 1.363 . S
C571 C566 1.379 . S
C571 N569 1.356 . S
N572 C564 1.356 . S
N572 H578 0.984 . S
N572 H579 0.984 . S
N573 C566 1.356 . S
N573 H576 0.984 . S
N573 H577 0.985 . S
H574 N569 0.984 . S
H575 N569 0.985 . S
H576 N573 0.984 . S
H577 N573 0.985 . S
H578 N572 0.984 . S
H579 N572 0.984 . S
H580 N568 0.984 . S
H581 N568 0.985 . S
C582 C583 1.363 . S
C582 C588 1.379 . S
C582 N590 1.356 . S
C583 C582 1.363 . S
C583 C589 1.363 1_545 S
C584 C585 1.363 . S
C584 C589 1.379 . S
C584 N591 1.356 . S
C585 C584 1.363 . S
C585 C588 1.363 1_565 S
N586 C588 1.356 . S
N586 H598 0.984 . S
N586 H599 0.985 . S
N587 C589 1.356 . S
N587 H592 0.984 . S
N587 H593 0.985 . S
C588 C582 1.379 . S
C588 C585 1.363 1_545 S
C588 N586 1.356 . S
C589 C583 1.363 1_565 S
C589 C584 1.379 . S
C589 N587 1.356 . S
N590 C582 1.356 . S
N590 H596 0.984 . S
N590 H597 0.984 . S
N591 C584 1.356 . S
N591 H594 0.984 . S
N591 H595 0.985 . S
H592 N587 0.984 . S
H593 N587 0.985 . S
H594 N591 0.984 . S
H595 N591 0.985 . S
H596 N590 0.984 . S
H597 N590 0.984 . S
H598 N586 0.984 . S
H599 N586 0.985 . S
C600 C601 1.363 . S
C600 C606 1.379 . S
C600 N608 1.356 . S
C601 C600 1.363 . S
C601 C607 1.363 . S
C602 C603 1.363 . S
C602 C607 1.379 . S
C602 N609 1.356 . S
C603 C602 1.363 . S
C603 C606 1.363 . S
N604 C606 1.356 . S
N604 H616 0.984 1_556 S
N604 H617 0.985 1_556 S
N605 C607 1.356 . S
N605 H610 0.984 . S
N605 H611 0.985 . S
C606 C600 1.379 . S
C606 C603 1.363 . S
C606 N604 1.356 . S
C607 C601 1.363 . S
C607 C602 1.379 . S
C607 N605 1.356 . S
N608 C600 1.356 . S
N608 H614 0.984 . S
N608 H615 0.984 . S
N609 C602 1.356 . S
N609 H612 0.984 . S
N609 H613 0.985 . S
H610 N605 0.984 . S
H611 N605 0.985 . S
H612 N609 0.984 . S
H613 N609 0.985 . S
H614 N608 0.984 . S
H615 N608 0.984 . S
H616 N604 0.984 1_554 S
H617 N604 0.985 1_554 S
C618 C619 1.363 1_655 S
C618 C624 1.379 . S
C618 N626 1.356 . S
C619 C618 1.363 1_455 S
C619 C625 1.363 . S
C620 C621 1.363 . S
C620 C625 1.379 . S
C620 N627 1.356 . S
C621 C620 1.363 . S
C621 C624 1.363 1_455 S
N622 C624 1.356 . S
N622 H634 0.984 . S
N622 H635 0.985 . S
N623 C625 1.356 . S
N623 H628 0.984 . S
N623 H629 0.985 . S
C624 C618 1.379 . S
C624 C621 1.363 1_655 S
C624 N622 1.356 . S
C625 C619 1.363 . S
C625 C620 1.379 . S
C625 N623 1.356 . S
N626 C618 1.356 . S
N626 H632 0.984 . S
N626 H633 0.984 . S
N627 C620 1.356 . S
N627 H630 0.984 . S
N627 H631 0.985 . S
H628 N623 0.984 . S
H629 N623 0.985 . S
H630 N627 0.984 . S
H631 N627 0.985 . S
H632 N626 0.984 . S
H633 N626 0.984 . S
H634 N622 0.984 . S
H635 N622 0.985 . S
C313 C25 0.719 . S
C315 C303 0.702 . S
C331 C65 0.703 . S
C333 C239 0.686 . S
C349 C105 0.780 . S
C351 C271 0.787 . S
C367 C4 0.804 . S
C369 C297 0.850 . S
C387 C233 0.681 . S
C385 C44 0.688 . S
C405 C265 0.728 . S
C403 C84 0.726 . S
C421 C60 3.001 . S
C423 C175 2.924 . S
C439 C100 3.112 . S
C441 C207 3.030 . S
C457 C31 3.132 . S
C459 C137 3.049 . S
C477 C169 3.064 . S
C475 C71 3.135 . S
C495 C201 2.982 . S
C493 C111 3.023 . S
C511 C20 3.011 . S
C513 C143 2.932 . S
C531 C213 1.799 1_554 S
C529 C2 1.759 . S
C547 C42 1.777 . S
C549 C149 1.785 . S
C565 C82 1.766 . S
C567 C181 1.785 . S
C585 C277 0.973 . S
C583 C63 1.023 . S
C603 C309 1.098 . S
C601 C103 1.092 . S
C619 C23 0.992 . S
C621 C245 0.959 . S
