# Generated by pormake.
# Topology llk, (3,12)-cn, num edge types: 1
# Building blocks:
#     Node 0, Type 0, BuildingBlock: CUQRIR_clean_linker_1, # of connection points: 3
#     Node 1, Type 0, BuildingBlock: CUQRIR_clean_linker_1, # of connection points: 3
#     Node 2, Type 0, BuildingBlock: CUQRIR_clean_linker_1, # of connection points: 3
#     Node 3, Type 0, BuildingBlock: CUQRIR_clean_linker_1, # of connection points: 3
#     Node 4, Type 0, BuildingBlock: CUQRIR_clean_linker_1, # of connection points: 3
#     Node 5, Type 0, BuildingBlock: CUQRIR_clean_linker_1, # of connection points: 3
#     Node 6, Type 0, BuildingBlock: CUQRIR_clean_linker_1, # of connection points: 3
#     Node 7, Type 0, BuildingBlock: CUQRIR_clean_linker_1, # of connection points: 3
#     Node 8, Type 0, BuildingBlock: CUQRIR_clean_linker_1, # of connection points: 3
#     Node 9, Type 0, BuildingBlock: CUQRIR_clean_linker_1, # of connection points: 3
#     Node 10, Type 0, BuildingBlock: CUQRIR_clean_linker_1, # of connection points: 3
#     Node 11, Type 0, BuildingBlock: CUQRIR_clean_linker_1, # of connection points: 3
#     Node 12, Type 0, BuildingBlock: CUQRIR_clean_linker_1, # of connection points: 3
#     Node 13, Type 0, BuildingBlock: CUQRIR_clean_linker_1, # of connection points: 3
#     Node 14, Type 0, BuildingBlock: CUQRIR_clean_linker_1, # of connection points: 3
#     Node 15, Type 0, BuildingBlock: CUQRIR_clean_linker_1, # of connection points: 3
#     Node 16, Type 0, BuildingBlock: CUQRIR_clean_linker_1, # of connection points: 3
#     Node 17, Type 0, BuildingBlock: CUQRIR_clean_linker_1, # of connection points: 3
#     Node 18, Type 0, BuildingBlock: CUQRIR_clean_linker_1, # of connection points: 3
#     Node 19, Type 0, BuildingBlock: CUQRIR_clean_linker_1, # of connection points: 3
#     Node 20, Type 0, BuildingBlock: CUQRIR_clean_linker_1, # of connection points: 3
#     Node 21, Type 0, BuildingBlock: CUQRIR_clean_linker_1, # of connection points: 3
#     Node 22, Type 0, BuildingBlock: CUQRIR_clean_linker_1, # of connection points: 3
#     Node 23, Type 0, BuildingBlock: CUQRIR_clean_linker_1, # of connection points: 3
#     Node 24, Type 1, BuildingBlock: QEWDON_clean_sbu_0, # of connection points: 12
#     Node 25, Type 1, BuildingBlock: QEWDON_clean_sbu_0, # of connection points: 12
#     Node 26, Type 1, BuildingBlock: QEWDON_clean_sbu_0, # of connection points: 12
#     Node 27, Type 1, BuildingBlock: QEWDON_clean_sbu_0, # of connection points: 12
#     Node 28, Type 1, BuildingBlock: QEWDON_clean_sbu_0, # of connection points: 12
#     Node 29, Type 1, BuildingBlock: QEWDON_clean_sbu_0, # of connection points: 12
#     Edge 30, Type (0, 1), BuildingBlock: XIVTED_clean_linker_0, # of connection points: 2
#     Edge 31, Type (0, 1), BuildingBlock: XIVTED_clean_linker_0, # of connection points: 2
#     Edge 32, Type (0, 1), BuildingBlock: XIVTED_clean_linker_0, # of connection points: 2
#     Edge 33, Type (0, 1), BuildingBlock: XIVTED_clean_linker_0, # of connection points: 2
#     Edge 34, Type (0, 1), BuildingBlock: XIVTED_clean_linker_0, # of connection points: 2
#     Edge 35, Type (0, 1), BuildingBlock: XIVTED_clean_linker_0, # of connection points: 2
#     Edge 36, Type (0, 1), BuildingBlock: XIVTED_clean_linker_0, # of connection points: 2
#     Edge 37, Type (0, 1), BuildingBlock: XIVTED_clean_linker_0, # of connection points: 2
#     Edge 38, Type (0, 1), BuildingBlock: XIVTED_clean_linker_0, # of connection points: 2
#     Edge 39, Type (0, 1), BuildingBlock: XIVTED_clean_linker_0, # of connection points: 2
#     Edge 40, Type (0, 1), BuildingBlock: XIVTED_clean_linker_0, # of connection points: 2
#     Edge 41, Type (0, 1), BuildingBlock: XIVTED_clean_linker_0, # of connection points: 2
#     Edge 42, Type (0, 1), BuildingBlock: XIVTED_clean_linker_0, # of connection points: 2
#     Edge 43, Type (0, 1), BuildingBlock: XIVTED_clean_linker_0, # of connection points: 2
#     Edge 44, Type (0, 1), BuildingBlock: XIVTED_clean_linker_0, # of connection points: 2
#     Edge 45, Type (0, 1), BuildingBlock: XIVTED_clean_linker_0, # of connection points: 2
#     Edge 46, Type (0, 1), BuildingBlock: XIVTED_clean_linker_0, # of connection points: 2
#     Edge 47, Type (0, 1), BuildingBlock: XIVTED_clean_linker_0, # of connection points: 2
#     Edge 48, Type (0, 1), BuildingBlock: XIVTED_clean_linker_0, # of connection points: 2
#     Edge 49, Type (0, 1), BuildingBlock: XIVTED_clean_linker_0, # of connection points: 2
#     Edge 50, Type (0, 1), BuildingBlock: XIVTED_clean_linker_0, # of connection points: 2
#     Edge 51, Type (0, 1), BuildingBlock: XIVTED_clean_linker_0, # of connection points: 2
#     Edge 52, Type (0, 1), BuildingBlock: XIVTED_clean_linker_0, # of connection points: 2
#     Edge 53, Type (0, 1), BuildingBlock: XIVTED_clean_linker_0, # of connection points: 2
#     Edge 54, Type (0, 1), BuildingBlock: XIVTED_clean_linker_0, # of connection points: 2
#     Edge 55, Type (0, 1), BuildingBlock: XIVTED_clean_linker_0, # of connection points: 2
#     Edge 56, Type (0, 1), BuildingBlock: XIVTED_clean_linker_0, # of connection points: 2
#     Edge 57, Type (0, 1), BuildingBlock: XIVTED_clean_linker_0, # of connection points: 2
#     Edge 58, Type (0, 1), BuildingBlock: XIVTED_clean_linker_0, # of connection points: 2
#     Edge 59, Type (0, 1), BuildingBlock: XIVTED_clean_linker_0, # of connection points: 2
#     Edge 60, Type (0, 1), BuildingBlock: XIVTED_clean_linker_0, # of connection points: 2
#     Edge 61, Type (0, 1), BuildingBlock: XIVTED_clean_linker_0, # of connection points: 2
#     Edge 62, Type (0, 1), BuildingBlock: XIVTED_clean_linker_0, # of connection points: 2
#     Edge 63, Type (0, 1), BuildingBlock: XIVTED_clean_linker_0, # of connection points: 2
#     Edge 64, Type (0, 1), BuildingBlock: XIVTED_clean_linker_0, # of connection points: 2
#     Edge 65, Type (0, 1), BuildingBlock: XIVTED_clean_linker_0, # of connection points: 2
#     Edge 66, Type (0, 1), BuildingBlock: XIVTED_clean_linker_0, # of connection points: 2
#     Edge 67, Type (0, 1), BuildingBlock: XIVTED_clean_linker_0, # of connection points: 2
#     Edge 68, Type (0, 1), BuildingBlock: XIVTED_clean_linker_0, # of connection points: 2
#     Edge 69, Type (0, 1), BuildingBlock: XIVTED_clean_linker_0, # of connection points: 2
#     Edge 70, Type (0, 1), BuildingBlock: XIVTED_clean_linker_0, # of connection points: 2
#     Edge 71, Type (0, 1), BuildingBlock: XIVTED_clean_linker_0, # of connection points: 2
#     Edge 72, Type (0, 1), BuildingBlock: XIVTED_clean_linker_0, # of connection points: 2
#     Edge 73, Type (0, 1), BuildingBlock: XIVTED_clean_linker_0, # of connection points: 2
#     Edge 74, Type (0, 1), BuildingBlock: XIVTED_clean_linker_0, # of connection points: 2
#     Edge 75, Type (0, 1), BuildingBlock: XIVTED_clean_linker_0, # of connection points: 2
#     Edge 76, Type (0, 1), BuildingBlock: XIVTED_clean_linker_0, # of connection points: 2
#     Edge 77, Type (0, 1), BuildingBlock: XIVTED_clean_linker_0, # of connection points: 2
#     Edge 78, Type (0, 1), BuildingBlock: XIVTED_clean_linker_0, # of connection points: 2
#     Edge 79, Type (0, 1), BuildingBlock: XIVTED_clean_linker_0, # of connection points: 2
#     Edge 80, Type (0, 1), BuildingBlock: XIVTED_clean_linker_0, # of connection points: 2
#     Edge 81, Type (0, 1), BuildingBlock: XIVTED_clean_linker_0, # of connection points: 2
#     Edge 82, Type (0, 1), BuildingBlock: XIVTED_clean_linker_0, # of connection points: 2
#     Edge 83, Type (0, 1), BuildingBlock: XIVTED_clean_linker_0, # of connection points: 2
#     Edge 84, Type (0, 1), BuildingBlock: XIVTED_clean_linker_0, # of connection points: 2
#     Edge 85, Type (0, 1), BuildingBlock: XIVTED_clean_linker_0, # of connection points: 2
#     Edge 86, Type (0, 1), BuildingBlock: XIVTED_clean_linker_0, # of connection points: 2
#     Edge 87, Type (0, 1), BuildingBlock: XIVTED_clean_linker_0, # of connection points: 2
#     Edge 88, Type (0, 1), BuildingBlock: XIVTED_clean_linker_0, # of connection points: 2
#     Edge 89, Type (0, 1), BuildingBlock: XIVTED_clean_linker_0, # of connection points: 2
#     Edge 90, Type (0, 1), BuildingBlock: XIVTED_clean_linker_0, # of connection points: 2
#     Edge 91, Type (0, 1), BuildingBlock: XIVTED_clean_linker_0, # of connection points: 2
#     Edge 92, Type (0, 1), BuildingBlock: XIVTED_clean_linker_0, # of connection points: 2
#     Edge 93, Type (0, 1), BuildingBlock: XIVTED_clean_linker_0, # of connection points: 2
#     Edge 94, Type (0, 1), BuildingBlock: XIVTED_clean_linker_0, # of connection points: 2
#     Edge 95, Type (0, 1), BuildingBlock: XIVTED_clean_linker_0, # of connection points: 2
#     Edge 96, Type (0, 1), BuildingBlock: XIVTED_clean_linker_0, # of connection points: 2
#     Edge 97, Type (0, 1), BuildingBlock: XIVTED_clean_linker_0, # of connection points: 2
#     Edge 98, Type (0, 1), BuildingBlock: XIVTED_clean_linker_0, # of connection points: 2
#     Edge 99, Type (0, 1), BuildingBlock: XIVTED_clean_linker_0, # of connection points: 2
#     Edge 100, Type (0, 1), BuildingBlock: XIVTED_clean_linker_0, # of connection points: 2
#     Edge 101, Type (0, 1), BuildingBlock: XIVTED_clean_linker_0, # of connection points: 2
# Relax obj value: 0.114
# Max RMSD: 0.217
# Mean RMSD: 0.171
data_MOF--net-llk--node1-QEWDON_clean_sbu_0--node2-CUQRIR_clean_linker_1--edge1-XIVTED_clean_linker_0
_symmetry_space_group_name_H-M    P1
_symmetry_Int_Tables_number       1
_symmetry_cell_setting            triclinic
loop_
_symmetry_equiv_pos_as_xyz
'x, y, z'
_cell_length_a     44.932291
_cell_length_b     44.801564
_cell_length_c     43.098733
_cell_angle_alpha  90.081384
_cell_angle_beta   89.969773
_cell_angle_gamma 89.716116
loop_
_atom_site_label
_atom_site_type_symbol
_atom_site_fract_x
_atom_site_fract_y
_atom_site_fract_z
_atom_type_partial_charge
C0 C 0.04579 0.25622 0.25357 0.0
N1 N 0.0422 0.28629 0.255 0.0
N2 N 0.05245 0.24496 0.28198 0.0
C3 C 0.04045 0.23769 0.22503 0.0
C4 C 0.05248 0.26926 0.30065 0.0
N5 N 0.0461 0.29428 0.28442 0.0
C6 C 0.05563 0.26801 0.33545 0.0
H7 H 0.02002 0.24555 0.21301 0.0
H8 H 0.03843 0.21364 0.23061 0.0
H9 H 0.05942 0.24048 0.20885 0.0
H10 H 0.07416 0.25288 0.34201 0.0
H11 H 0.03484 0.25897 0.34561 0.0
H12 H 0.05998 0.29037 0.3455 0.0
C13 C 0.76878 0.04251 0.22603 0.0
N14 N 0.73898 0.04207 0.2217 0.0
N15 N 0.77509 0.04786 0.25625 0.0
C16 C 0.79134 0.0347 0.20165 0.0
C17 C 0.74817 0.05031 0.27002 0.0
N18 N 0.72627 0.04687 0.24904 0.0
C19 C 0.74339 0.05215 0.30456 0.0
H20 H 0.79028 0.01037 0.19693 0.0
H21 H 0.81417 0.04051 0.2093 0.0
H22 H 0.78601 0.04653 0.17973 0.0
H23 H 0.75979 0.06743 0.31528 0.0
H24 H 0.74675 0.02965 0.31475 0.0
H25 H 0.72056 0.05999 0.31022 0.0
C26 C 0.00893 0.76898 0.23834 0.0
N27 N 0.01764 0.77147 0.26845 0.0
N28 N 0.01181 0.74046 0.22841 0.0
C29 C -0.0025 0.79406 0.21844 0.0
C30 C 0.02313 0.72575 0.2531 0.0
N31 N 0.02694 0.74456 0.27738 0.0
C32 C 0.02829 0.69247 0.25436 0.0
H33 H 0.97285 0.79478 0.21991 0.0
H34 H 0.0036 0.79033 0.1938 0.0
H35 H 0.00655 0.81582 0.22621 0.0
H36 H 0.05211 0.68788 0.25917 0.0
H37 H 0.02247 0.68114 0.23234 0.0
H38 H 0.01507 0.68273 0.27357 0.0
C39 C 0.23868 0.98082 0.21332 0.0
N40 N 0.2673 0.97894 0.22291 0.0
N41 N 0.21991 0.97665 0.23747 0.0
C42 C 0.22916 0.99073 0.18156 0.0
C43 C 0.23823 0.97249 0.26202 0.0
N44 N 0.26702 0.97403 0.25326 0.0
C45 C 0.22793 0.97123 0.29524 0.0
H46 H 0.23348 0.01499 0.17918 0.0
H47 H 0.20511 0.98655 0.17777 0.0
H48 H 0.24238 0.97893 0.16355 0.0
H49 H 0.20701 0.95833 0.29711 0.0
H50 H 0.22344 0.99427 0.30355 0.0
H51 H 0.24514 0.96093 0.31033 0.0
C52 C -0.00579 0.77404 0.7647 0.0
N53 N -0.00842 0.7439 0.7646 0.0
N54 N 0.98319 0.78589 0.73817 0.0
C55 C 0.00992 0.79165 0.78942 0.0
C56 C 0.97368 0.76185 0.72209 0.0
N57 N 0.97883 0.73627 0.73791 0.0
C58 C 0.96408 0.76299 0.68861 0.0
H59 H -0.00643 0.79809 0.80755 0.0
H60 H 0.01968 0.81238 0.77982 0.0
H61 H 0.02765 0.77798 0.80045 0.0
H62 H 0.98398 0.76047 0.67354 0.0
H63 H 0.95323 0.78467 0.68322 0.0
H64 H 0.94848 0.74457 0.68328 0.0
C65 C 0.25456 0.97507 0.77888 0.0
N66 N 0.284 0.97309 0.78514 0.0
N67 N 0.24991 0.97244 0.74804 0.0
C68 C 0.23052 0.98092 0.80233 0.0
C69 C 0.27743 0.9693 0.7358 0.0
N70 N 0.29818 0.96964 0.75835 0.0
C71 C 0.28429 0.97111 0.70163 0.0
H72 H 0.20918 0.97107 0.79451 0.0
H73 H 0.22729 0.00538 0.80472 0.0
H74 H 0.23678 0.97167 0.8253 0.0
H75 H 0.28609 0.99494 0.69494 0.0
H76 H 0.26631 0.96088 0.68764 0.0
H77 H 0.30566 0.95982 0.69612 0.0
C78 C 0.00518 0.26154 0.77006 0.0
N79 N -9e-05 0.26004 0.73905 0.0
N80 N -8e-05 0.28952 0.78081 0.0
C81 C 0.01645 0.23621 0.78958 0.0
C82 C -0.00874 0.3049 0.75535 0.0
N83 N -0.00886 0.28704 0.73001 0.0
C84 C 0.98549 0.33808 0.75462 0.0
H85 H 0.00791 0.21459 0.7808 0.0
H86 H 0.00984 0.23928 0.8142 0.0
H87 H 0.04112 0.23567 0.78837 0.0
H88 H 0.98624 0.34834 0.77801 0.0
H89 H 0.96322 0.34252 0.74452 0.0
H90 H 0.00224 0.34895 0.7395 0.0
C91 C 0.77835 0.04737 0.7997 0.0
N92 N 0.74992 0.05244 0.79062 0.0
N93 N 0.79739 0.05333 0.77626 0.0
C94 C 0.78745 0.03508 0.83067 0.0
C95 C 0.77951 0.06165 0.75248 0.0
N96 N 0.75061 0.0613 0.76123 0.0
C97 C 0.7897 0.06542 0.71936 0.0
H98 H 0.81074 0.04131 0.83617 0.0
H99 H 0.78602 0.01037 0.8299 0.0
H100 H 0.77231 0.04332 0.84918 0.0
H101 H 0.77853 0.04868 0.70442 0.0
H102 H 0.8141 0.0629 0.71666 0.0
H103 H 0.78303 0.08786 0.71096 0.0
C104 C 0.22986 0.26527 0.0156 0.0
N105 N 0.25968 0.26726 0.01955 0.0
N106 N 0.21676 0.29222 0.02047 0.0
C107 C 0.21357 0.23711 0.0077 0.0
C108 C 0.23974 0.31066 0.02695 0.0
N109 N 0.26571 0.29541 0.0267 0.0
C110 C 0.23711 0.34406 0.03025 0.0
H111 H 0.21384 0.23405 0.98216 0.0
H112 H 0.19007 0.23837 0.01557 0.0
H113 H 0.22473 0.21752 0.0184 0.0
H114 H 0.23292 0.34959 0.05497 0.0
H115 H 0.21832 0.35289 0.01626 0.0
H116 H 0.25785 0.35535 0.02287 0.0
C117 C 0.20831 0.77728 0.0264 0.0
N118 N 0.23821 0.77808 0.02169 0.0
N119 N 0.19893 0.74866 0.02919 0.0
C120 C 0.18844 0.80427 0.02827 0.0
C121 C 0.22391 0.73219 0.02527 0.0
N122 N 0.24766 0.74995 0.02075 0.0
C123 C 0.22496 0.69852 0.02553 0.0
H124 H 0.19015 0.81405 0.05186 0.0
H125 H 0.16484 0.79846 0.02402 0.0
H126 H 0.19571 0.82139 0.01133 0.0
H127 H 0.20496 0.68919 0.01403 0.0
H128 H 0.22518 0.69071 0.04995 0.0
H129 H 0.24506 0.68962 0.01377 0.0
C130 C 0.76118 0.25481 0.9849 0.0
N131 N 0.77712 0.28025 0.98506 0.0
N132 N 0.7793 0.2309 0.98821 0.0
C133 C 0.72777 0.25309 0.98312 0.0
C134 C 0.80688 0.24259 0.99078 0.0
N135 N 0.80554 0.27277 0.98888 0.0
C136 C 0.8349 0.2245 0.99407 0.0
H137 H 0.71939 0.23632 -0.00013 0.0
H138 H 0.72135 0.24561 0.95952 0.0
H139 H 0.71701 0.27492 0.98796 0.0
H140 H 0.8319 0.20172 0.98446 0.0
H141 H 0.84041 0.22246 0.01907 0.0
H142 H 0.85373 0.23562 0.98219 0.0
C143 C 0.74235 0.77669 0.97853 0.0
N144 N 0.76012 0.75246 0.97996 0.0
N145 N 0.75858 0.80189 0.98018 0.0
C146 C 0.70879 0.77581 0.97937 0.0
C147 C 0.78702 0.79219 0.98296 0.0
N148 N 0.78797 0.76188 0.98266 0.0
C149 C 0.81342 0.81226 0.98644 0.0
H150 H 0.69905 0.79482 0.96637 0.0
H151 H 0.70132 0.77756 0.00386 0.0
H152 H 0.70019 0.75467 0.96953 0.0
H153 H 0.81778 0.81583 0.01151 0.0
H154 H 0.80894 0.8343 0.97564 0.0
H155 H 0.83349 0.80195 0.97582 0.0
C156 C 0.53233 0.75176 0.74232 0.0
N157 N 0.53386 0.78191 0.74486 0.0
N158 N 0.5369 0.73866 0.77019 0.0
C159 C 0.52623 0.73477 0.71296 0.0
C160 C 0.54104 0.76186 0.78985 0.0
N161 N 0.53949 0.78812 0.77448 0.0
C162 C 0.54228 0.75917 0.82471 0.0
H163 H 0.50182 0.73238 0.71007 0.0
H164 H 0.53613 0.71206 0.7142 0.0
H165 H 0.53532 0.74668 0.69252 0.0
H166 H 0.56428 0.76698 0.83298 0.0
H167 H 0.53903 0.73596 0.83281 0.0
H168 H 0.52502 0.77371 0.8354 0.0
C169 C 0.30508 0.54152 0.74047 0.0
N170 N 0.2752 0.54139 0.73659 0.0
N171 N 0.31195 0.54377 0.77101 0.0
C172 C 0.32735 0.53817 0.71476 0.0
C173 C 0.2852 0.5446 0.78544 0.0
N174 N 0.26293 0.54324 0.7645 0.0
C175 C 0.28112 0.54453 0.8201 0.0
H176 H 0.32962 0.51414 0.70889 0.0
H177 H 0.34944 0.54676 0.7219 0.0
H178 H 0.31955 0.55009 0.69371 0.0
H179 H 0.29163 0.56469 0.83016 0.0
H180 H 0.29262 0.52477 0.83006 0.0
H181 H 0.25731 0.54418 0.82687 0.0
C182 C 0.46114 0.26831 0.73169 0.0
N183 N 0.46258 0.26662 0.76301 0.0
N184 N 0.44908 0.24313 0.71953 0.0
C185 C 0.47573 0.29231 0.71285 0.0
C186 C 0.4429 0.22646 0.74494 0.0
N187 N 0.45174 0.24025 0.77129 0.0
C188 C 0.43396 0.19409 0.7435 0.0
H189 H 0.46969 0.31459 0.72226 0.0
H190 H 0.46908 0.29088 0.6881 0.0
H191 H 0.50026 0.2898 0.71464 0.0
H192 H 0.4535 0.18037 0.73653 0.0
H193 H 0.41624 0.1909 0.72593 0.0
H194 H 0.42575 0.18614 0.76631 0.0
C195 C 0.71549 0.48911 0.74641 0.0
N196 N 0.74473 0.48669 0.75377 0.0
N197 N 0.69833 0.48191 0.77115 0.0
C198 C 0.70362 0.49915 0.71561 0.0
C199 C 0.71818 0.47573 0.79389 0.0
N200 N 0.74632 0.47838 0.78328 0.0
C201 C 0.70977 0.4714 0.82753 0.0
H202 H 0.70304 0.5239 0.71511 0.0
H203 H 0.68066 0.49081 0.71201 0.0
H204 H 0.71828 0.49126 0.69653 0.0
H205 H 0.69969 0.449 0.83028 0.0
H206 H 0.69283 0.48819 0.83459 0.0
H207 H 0.72899 0.47316 0.84346 0.0
C208 C 0.49683 0.28095 0.26992 0.0
N209 N 0.49812 0.25074 0.27159 0.0
N210 N 0.49213 0.28995 0.24023 0.0
C211 C 0.50085 0.30147 0.29714 0.0
C212 C 0.49077 0.2641 0.224 0.0
N213 N 0.49404 0.2404 0.24303 0.0
C214 C 0.48892 0.26179 0.18915 0.0
H215 H 0.48154 0.29916 0.313 0.0
H216 H 0.50256 0.32512 0.28983 0.0
H217 H 0.52108 0.29484 0.31025 0.0
H218 H 0.50509 0.24494 0.18046 0.0
H219 H 0.4933 0.28333 0.17746 0.0
H220 H 0.46633 0.25408 0.18268 0.0
C221 C 0.71857 0.48672 0.27362 0.0
N222 N 0.7478 0.49245 0.27816 0.0
N223 N 0.71365 0.47852 0.24374 0.0
C224 C 0.69516 0.48852 0.29841 0.0
C225 C 0.74089 0.4798 0.23036 0.0
N226 N 0.7616 0.48781 0.25138 0.0
C227 C 0.74684 0.4758 0.19619 0.0
H228 H 0.70412 0.48013 0.32076 0.0
H229 H 0.67512 0.4756 0.29185 0.0
H230 H 0.68872 0.51225 0.30175 0.0
H231 H 0.72763 0.48366 0.1822 0.0
H232 H 0.75042 0.45173 0.19131 0.0
H233 H 0.76699 0.48814 0.18884 0.0
C234 C 0.55772 0.76165 0.28857 0.0
N235 N 0.55713 0.76092 0.2571 0.0
N236 N 0.56022 0.79016 0.29892 0.0
C237 C 0.55605 0.73473 0.30917 0.0
C238 C 0.56059 0.80668 0.27262 0.0
N239 N 0.55913 0.78893 0.24728 0.0
C240 C 0.55807 0.84031 0.27188 0.0
H241 H 0.53233 0.72939 0.31356 0.0
H242 H 0.567 0.73913 0.33178 0.0
H243 H 0.56665 0.71514 0.29779 0.0
H244 H 0.58071 0.84996 0.2735 0.0
H245 H 0.54475 0.84872 0.29176 0.0
H246 H 0.54756 0.84846 0.25022 0.0
C247 C 0.29751 0.55025 0.26431 0.0
N248 N 0.26938 0.54163 0.25719 0.0
N249 N 0.31548 0.54718 0.23922 0.0
C250 C 0.30739 0.5618 0.29527 0.0
C251 C 0.29749 0.53627 0.21686 0.0
N252 N 0.26963 0.53285 0.22775 0.0
C253 C 0.30649 0.53187 0.18346 0.0
H254 H 0.30338 0.58624 0.29619 0.0
H255 H 0.33153 0.55762 0.29873 0.0
H256 H 0.29449 0.55118 0.31422 0.0
H257 H 0.33075 0.52767 0.18126 0.0
H258 H 0.30082 0.55235 0.17024 0.0
H259 H 0.29435 0.51293 0.17291 0.0
C260 C 0.7561 0.77062 0.49236 0.0
N261 N 0.78608 0.76936 0.48835 0.0
N262 N 0.74565 0.79829 0.48579 0.0
C263 C 0.73711 0.74534 0.50352 0.0
C264 C 0.77017 0.81378 0.47762 0.0
N265 N 0.79476 0.79623 0.47901 0.0
C266 C 0.77053 0.84683 0.47107 0.0
H267 H 0.74646 0.72356 0.49589 0.0
H268 H 0.71398 0.74778 0.49483 0.0
H269 H 0.73645 0.74572 0.52925 0.0
H270 H 0.78596 0.85809 0.48737 0.0
H271 H 0.74817 0.85721 0.47305 0.0
H272 H 0.77886 0.85064 0.4472 0.0
C273 C 0.74934 0.26629 0.49158 0.0
N274 N 0.77889 0.2665 0.48543 0.0
N275 N 0.73822 0.23854 0.48752 0.0
C276 C 0.73218 0.29239 0.50428 0.0
C277 C 0.76199 0.2221 0.47834 0.0
N278 N 0.78683 0.23901 0.47714 0.0
C279 C 0.76161 0.18871 0.47404 0.0
H280 H 0.73743 0.29491 0.5293 0.0
H281 H 0.70785 0.28915 0.50165 0.0
H282 H 0.73902 0.3132 0.49235 0.0
H283 H 0.73871 0.18035 0.47019 0.0
H284 H 0.77098 0.17792 0.49507 0.0
H285 H 0.77557 0.18213 0.45394 0.0
C286 C 0.21964 0.75979 0.547 0.0
N287 N 0.23713 0.7835 0.54087 0.0
N288 N 0.23573 0.73419 0.54725 0.0
C289 C 0.1861 0.76098 0.54809 0.0
C290 C 0.26388 0.74333 0.54087 0.0
N291 N 0.26469 0.77336 0.53705 0.0
C292 C 0.28977 0.72278 0.53511 0.0
H293 H 0.17785 0.74798 0.56816 0.0
H294 H 0.17704 0.75067 0.52668 0.0
H295 H 0.17755 0.78417 0.55006 0.0
H296 H 0.29474 0.72245 0.50988 0.0
H297 H 0.28485 0.69976 0.54297 0.0
H298 H 0.30983 0.73114 0.54725 0.0
C299 C 0.21264 0.26661 0.54448 0.0
N300 N 0.2292 0.24132 0.54508 0.0
N301 N 0.2299 0.29053 0.53816 0.0
C302 C 0.17909 0.26731 0.54559 0.0
C303 C 0.25749 0.27886 0.53433 0.0
N304 N 0.25708 0.24898 0.53876 0.0
C305 C 0.28435 0.2965 0.52501 0.0
H306 H 0.16977 0.28949 0.53952 0.0
H307 H 0.17165 0.26149 0.56936 0.0
H308 H 0.16989 0.2504 0.52943 0.0
H309 H 0.28192 0.32019 0.53221 0.0
H310 H 0.28661 0.29571 0.49939 0.0
H311 H 0.30481 0.2868 0.5354 0.0
Zn312 Zn 0.96964 0.98569 0.45292 0.0
Zn313 Zn 0.96024 0.05735 0.46709 0.0
O314 O 0.98952 0.02308 0.46983 0.0
H315 H 0.00624 0.02282 0.48385 0.0
C316 C 0.94303 0.94395 0.52943 0.0
O317 O 0.94496 0.96754 0.5115 0.0
Zn318 Zn 0.06954 0.05685 0.54808 0.0
Zn319 Zn 0.06104 0.98519 0.54878 0.0
O320 O 0.03886 0.02448 0.54897 0.0
H321 H 0.02102 0.02518 0.56124 0.0
Zn322 Zn 0.96596 0.98585 0.57675 0.0
O323 O 0.96847 0.02191 0.54906 0.0
Zn324 Zn 0.96969 0.05793 0.5766 0.0
H325 H 0.9744 0.02096 0.5276 0.0
Zn326 Zn 0.06188 0.97912 0.43793 0.0
O327 O 0.06104 0.01518 0.46549 0.0
H328 H 0.05847 0.01452 0.48772 0.0
Zn329 Zn 0.0617 0.0513 0.43876 0.0
C330 C 0.1057 0.94959 0.47746 0.0
O331 O 0.10223 0.97418 0.49369 0.0
O332 O 0.9312 0.99674 0.43006 0.0
O333 O 0.92358 0.04428 0.44322 0.0
O334 O 0.1031 0.99161 0.56504 0.0
O335 O 0.10677 0.04101 0.56863 0.0
O336 O 0.95342 0.99715 0.62127 0.0
O337 O 0.95703 0.04679 0.62035 0.0
C338 C 0.00396 0.08773 0.43031 0.0
O339 O 0.06584 0.9906 0.39198 0.0
O340 O 0.07074 0.04009 0.39372 0.0
O341 O 0.04144 0.95054 0.57348 0.0
C342 C 0.91597 0.02072 0.42852 0.0
O343 O -0.0066 0.95124 0.43093 0.0
C344 C 0.0298 0.09461 0.58498 0.0
O345 O 0.95082 0.94599 0.55774 0.0
C346 C 0.11711 0.01487 0.57348 0.0
O347 O 0.09047 0.94585 0.45292 0.0
C348 C 0.93832 0.08969 0.52888 0.0
O349 O 0.97724 0.08951 0.43971 0.0
O350 O 0.02078 0.06848 0.443 0.0
C351 C 0.95139 0.02248 0.63468 0.0
O352 O 0.0561 0.0921 0.57451 0.0
O353 O 0.01094 0.07536 0.57607 0.0
C354 C 0.09494 0.0805 0.48608 0.0
O355 O 0.94213 0.08779 0.55808 0.0
O356 O 0.95223 0.07136 0.5114 0.0
C357 C 0.0704 0.01552 0.37856 0.0
O358 O 0.09281 0.07867 0.4567 0.0
O359 O 0.07613 0.06645 0.50255 0.0
C360 C 0.02739 0.95614 0.59849 0.0
O361 O 0.02342 0.98404 0.60699 0.0
C362 C -0.00769 0.95244 0.40146 0.0
O363 O 0.97965 0.9758 0.3885 0.0
Zn364 Zn 0.46139 0.07664 0.04498 0.0
Zn365 Zn 0.46348 0.07662 0.97034 0.0
O366 O 0.4696 0.05082 0.00746 0.0
H367 H 0.47708 0.03058 0.00787 0.0
C368 C 0.53425 0.08876 0.08898 0.0
O369 O 0.51467 0.08535 0.0667 0.0
Zn370 Zn 0.54178 0.96717 0.95538 0.0
Zn371 Zn 0.54746 0.97305 0.0287 0.0
O372 O 0.537 0.99643 0.98995 0.0
H373 H 0.5237 0.01338 0.98915 0.0
Zn374 Zn 0.57501 0.06731 0.0403 0.0
O375 O 0.54553 0.06667 0.00499 0.0
Zn376 Zn 0.56882 0.06757 0.96541 0.0
H377 H 0.52437 0.06963 0.00731 0.0
Zn378 Zn 0.44402 0.9496 0.04223 0.0
O379 O 0.46924 0.95702 0.00438 0.0
H380 H 0.49004 0.96228 0.00508 0.0
Zn381 Zn 0.44136 0.96454 0.96926 0.0
C382 C 0.49041 0.91607 0.07565 0.0
O383 O 0.5081 0.9297 0.05605 0.0
O384 O 0.43807 0.11452 0.03361 0.0
O385 O 0.43924 0.1137 0.98204 0.0
O386 O 0.57553 0.93814 0.01884 0.0
O387 O 0.5702 0.93422 0.96783 0.0
O388 O 0.61661 0.0795 0.02562 0.0
O389 O 0.61217 0.07864 0.97413 0.0
C390 C 0.43151 0.02613 0.94207 0.0
O391 O 0.40127 0.93875 0.03028 0.0
O392 O 0.39947 0.94859 0.97965 0.0
O393 O 0.5675 0.99673 0.06348 0.0
C394 C 0.43064 0.12553 0.0075 0.0
O395 O 0.44383 0.05549 0.08318 0.0
C396 C 0.57234 0.01214 0.92161 0.0
O397 O 0.56134 0.08225 0.08371 0.0
C398 C 0.58263 0.92622 0.99308 0.0
O399 O 0.46264 0.92154 0.07497 0.0
C400 C 0.52138 0.10122 0.93613 0.0
O401 O 0.43728 0.05389 0.94078 0.0
O402 O 0.44516 0.00942 0.96122 0.0
C403 C 0.62771 0.0827 -0.00137 0.0
O404 O 0.56215 0.98589 0.91917 0.0
O405 O 0.56447 0.02739 0.94516 0.0
C406 C 0.48385 0.94091 0.92696 0.0
O407 O 0.54948 0.09748 0.93716 0.0
O408 O 0.50524 0.08572 0.95427 0.0
C409 C 0.38733 0.9389 0.00456 0.0
O410 O 0.45607 0.94101 0.93218 0.0
O411 O 0.50021 0.95483 0.94598 0.0
C412 C 0.59235 0.00756 0.05525 0.0
O413 O 0.6002 0.00587 0.02592 0.0
C414 C 0.43251 0.0297 0.0804 0.0
O415 O 0.43454 0.01576 0.05365 0.0
Zn416 Zn 0.95789 0.48892 0.97137 0.0
Zn417 Zn 0.94772 0.56078 0.96776 0.0
O418 O 0.979 0.52899 0.97443 0.0
H419 H -0.0022 0.53245 0.98459 0.0
C420 C 0.93348 0.44512 0.02715 0.0
O421 O 0.92221 0.46956 0.01513 0.0
Zn422 Zn 0.05462 0.55477 0.04222 0.0
Zn423 Zn 0.05368 0.48308 0.05117 0.0
O424 O 0.02696 0.51929 0.04365 0.0
H425 H 0.00636 0.51849 0.03736 0.0
Zn426 Zn 0.95828 0.4896 0.06855 0.0
O427 O 0.94435 0.52471 0.04233 0.0
Zn428 Zn 0.95151 0.5579 0.07219 0.0
H429 H 0.92814 0.52414 0.02764 0.0
Zn430 Zn 0.05149 0.48346 0.92542 0.0
O431 O 0.0507 0.51695 0.95681 0.0
H432 H 0.04853 0.51428 0.97892 0.0
Zn433 Zn 0.04737 0.55429 0.93126 0.0
C434 C 0.0624 0.43326 0.96905 0.0
O435 O 0.05039 0.45151 0.98945 0.0
O436 O 0.91799 0.49367 0.9492 0.0
O437 O 0.91164 0.54291 0.94643 0.0
O438 O 0.09361 0.49536 0.07013 0.0
O439 O 0.09287 0.54472 0.06476 0.0
O440 O 0.94447 0.49577 0.11369 0.0
O441 O 0.93752 0.54496 0.11509 0.0
C442 C 0.98913 0.59008 0.9271 0.0
O443 O 0.07044 0.49797 0.88474 0.0
O444 O 0.06649 0.54742 0.88875 0.0
O445 O 0.03776 0.44409 0.0715 0.0
C446 C 0.90308 0.51636 0.94049 0.0
O447 O 0.97944 0.44938 0.95841 0.0
C448 C 0.01009 0.59043 0.07259 0.0
O449 O 0.95061 0.44721 0.05049 0.0
C450 C 0.10531 0.52084 0.07443 0.0
O451 O 0.06484 0.44157 0.94098 0.0
C452 C 0.9278 0.59774 0.02808 0.0
O453 O 0.96352 0.59258 0.93939 0.0
O454 O 0.0042 0.56657 0.93277 0.0
C455 C 0.93618 0.51932 0.12799 0.0
O456 O 0.03695 0.59022 0.06364 0.0
O457 O -0.00512 0.56686 0.069 0.0
C458 C 0.06928 0.58871 0.98219 0.0
O459 O 0.9297 0.59411 0.05726 0.0
O460 O 0.93854 0.57744 0.01059 0.0
C461 C 0.07495 0.52407 0.874 0.0
O462 O 0.06803 0.58788 0.95275 0.0
O463 O 0.06098 0.56579 -0.00272 0.0
C464 C 0.02169 0.44466 0.09578 0.0
O465 O 0.01202 0.47051 0.10624 0.0
C466 C -0.00859 0.44854 0.9317 0.0
O467 O -0.00774 0.47317 0.91521 0.0
Zn468 Zn 0.4776 0.46266 0.98477 0.0
Zn469 Zn 0.48142 0.46894 0.0581 0.0
O470 O 0.48249 0.49353 0.01921 0.0
H471 H 0.48521 0.51476 0.01675 0.0
C472 C 0.54471 0.39924 0.92821 0.0
O473 O 0.55705 0.38587 0.95211 0.0
Zn474 Zn 0.5607 0.5717 0.05398 0.0
Zn475 Zn 0.55264 0.57672 0.98038 0.0
O476 O 0.54261 0.55027 0.01738 0.0
H477 H 0.53664 0.52962 0.01652 0.0
Zn478 Zn 0.56829 0.44985 0.96236 0.0
O479 O 0.5472 0.45603 0.0035 0.0
Zn480 Zn 0.57887 0.46054 0.03621 0.0
H481 H 0.52693 0.44981 0.00689 0.0
Zn482 Zn 0.46305 0.57936 0.98325 0.0
O483 O 0.49212 0.58501 0.01914 0.0
H484 H 0.50891 0.59837 0.01802 0.0
Zn485 Zn 0.46628 0.58013 0.05657 0.0
C486 C 0.48703 0.58402 0.91741 0.0
O487 O 0.49544 0.55601 0.91958 0.0
O488 O 0.45503 0.42576 0.00052 0.0
O489 O 0.45386 0.43369 0.05153 0.0
O490 O 0.58736 0.6043 0.99026 0.0
O491 O 0.59453 0.59908 0.04095 0.0
O492 O 0.6125 0.43871 0.96889 0.0
O493 O 0.61902 0.44582 0.01966 0.0
C494 C 0.46292 0.52193 0.0939 0.0
O495 O 0.42253 0.59669 0.99549 0.0
O496 O 0.42565 0.59853 0.04691 0.0
O497 O 0.55859 0.56011 0.93574 0.0
C498 C 0.44645 0.4185 0.02767 0.0
O499 O 0.46516 0.47686 0.94056 0.0
C500 C 0.58275 0.51408 0.07733 0.0
O501 O 0.54563 0.42756 0.92675 0.0
C502 C 0.60205 0.60994 0.01476 0.0
O503 O 0.47464 0.59678 0.9404 0.0
C504 C 0.54067 0.43871 0.08233 0.0
O505 O 0.46754 0.49386 0.09434 0.0
O506 O 0.46663 0.5361 0.06855 0.0
C507 C 0.62895 0.43799 0.99302 0.0
O508 O 0.57764 0.54148 0.08273 0.0
O509 O 0.57893 0.50375 0.05005 0.0
C510 C 0.51078 0.60779 0.09661 0.0
O511 O 0.56757 0.43652 0.07362 0.0
O512 O 0.5232 0.45407 0.06539 0.0
C513 C 0.41177 0.60416 0.0217 0.0
O514 O 0.48324 0.60445 0.09111 0.0
O515 O 0.52988 0.59385 0.08013 0.0
C516 C 0.55993 0.53304 0.92704 0.0
O517 O 0.55502 0.51172 0.94728 0.0
C518 C 0.45298 0.50229 0.93715 0.0
O519 O 0.44988 0.5197 0.96151 0.0
Zn520 Zn 0.95643 0.4993 0.46134 0.0
Zn521 Zn 0.94748 0.57014 0.46594 0.0
O522 O 0.97754 0.53753 0.47144 0.0
H523 H -0.00654 0.53875 0.48642 0.0
C524 C 0.90917 0.44359 0.51671 0.0
O525 O 0.90185 0.46889 0.50332 0.0
Zn526 Zn 0.0644 0.55064 0.54837 0.0
Zn527 Zn 0.07032 0.47922 0.54971 0.0
O528 O 0.04093 0.51316 0.54343 0.0
H529 H 0.02064 0.51161 0.53621 0.0
Zn530 Zn 0.94418 0.48274 0.55921 0.0
O531 O 0.94358 0.52216 0.53533 0.0
Zn532 Zn 0.95057 0.55278 0.56898 0.0
H533 H 0.93284 0.52507 0.51615 0.0
Zn534 Zn 0.06084 0.48935 0.43174 0.0
O535 O 0.04866 0.52268 0.46061 0.0
H536 H 0.0435 0.52009 0.48216 0.0
Zn537 Zn 0.05092 0.56132 0.43758 0.0
C538 C 0.1009 0.45878 0.47495 0.0
O539 O 0.09958 0.48467 0.48925 0.0
O540 O 0.9144 0.50627 0.44459 0.0
O541 O 0.90995 0.55574 0.44327 0.0
O542 O 0.10906 0.49301 0.57092 0.0
O543 O 0.10444 0.54244 0.56929 0.0
O544 O 0.92663 0.48878 0.60271 0.0
O545 O 0.93018 0.53792 0.60858 0.0
C546 C -0.00535 0.60268 0.43537 0.0
O547 O 0.08046 0.50614 0.39277 0.0
O548 O 0.07154 0.55506 0.39523 0.0
O549 O 0.05433 0.4379 0.56344 0.0
C550 C 0.8997 0.52969 0.43768 0.0
O551 O 0.97927 0.46576 0.43839 0.0
C552 C 0.01291 0.5787 0.58203 0.0
O553 O 0.92758 0.44383 0.53912 0.0
C554 C 0.11901 0.51899 0.57685 0.0
O555 O 0.08537 0.45471 0.45069 0.0
C556 C 0.92547 0.59857 0.52996 0.0
O557 O 0.96743 0.60403 0.44362 0.0
O558 O 0.00884 0.57833 0.43944 0.0
C559 C 0.92173 0.51243 0.61834 0.0
O560 O 0.04063 0.57849 0.57557 0.0
O561 O -0.0041 0.55896 0.57028 0.0
C562 C 0.08501 0.58621 0.48895 0.0
O563 O 0.92903 0.59132 0.55818 0.0
O564 O 0.93783 0.58207 0.50969 0.0
C565 C 0.08321 0.53234 0.38176 0.0
O566 O 0.07893 0.58805 0.46025 0.0
O567 O 0.0697 0.56837 0.50546 0.0
C568 C 0.02718 0.43355 0.57032 0.0
O569 O 0.00803 0.45563 0.56751 0.0
C570 C -0.00483 0.47054 0.4145 0.0
O571 O -0.00072 0.49811 0.40512 0.0
Zn572 Zn 0.46381 0.9893 0.46296 0.0
Zn573 Zn 0.44097 0.05809 0.46587 0.0
O574 O 0.47454 0.0311 0.47884 0.0
H575 H 0.49288 0.03735 0.48845 0.0
C576 C 0.41575 0.93425 0.52597 0.0
O577 O 0.4104 0.95686 0.50737 0.0
Zn578 Zn 0.56328 0.06279 0.54228 0.0
Zn579 Zn 0.56523 0.99202 0.55982 0.0
O580 O 0.54093 0.02413 0.53905 0.0
H581 H 0.52194 0.02084 0.52922 0.0
Zn582 Zn 0.45794 0.97654 0.55818 0.0
O583 O 0.45088 0.01437 0.53271 0.0
Zn584 Zn 0.4553 0.04916 0.56159 0.0
H585 H 0.45389 0.9952 0.54244 0.0
Zn586 Zn 0.55214 0.99067 0.44051 0.0
O587 O 0.55071 0.02804 0.46751 0.0
H588 H 0.5517 0.00897 0.45712 0.0
Zn589 Zn 0.54447 0.06272 0.43858 0.0
C590 C 0.58662 0.94801 0.48206 0.0
O591 O 0.58502 0.9691 0.5032 0.0
O592 O 0.42832 0.98978 0.4328 0.0
O593 O 0.41232 0.03669 0.43683 0.0
O594 O 0.6017 0.00983 0.58117 0.0
O595 O 0.6014 0.05792 0.56821 0.0
O596 O 0.45666 0.98581 0.60503 0.0
O597 O 0.44964 0.03504 0.60598 0.0
C598 C 0.48342 0.09481 0.43286 0.0
O599 O 0.5587 0.0012 0.39431 0.0
O600 O 0.55563 0.0508 0.39508 0.0
O601 O 0.54455 0.96153 0.58863 0.0
C602 C 0.41039 0.01057 0.42509 0.0
O603 O 0.49579 0.95742 0.45061 0.0
C604 C 0.51017 0.0892 0.56982 0.0
O605 O 0.43498 0.93714 0.54742 0.0
C606 C 0.61284 0.03585 0.58288 0.0
O607 O 0.57467 0.95228 0.45569 0.0
C608 C 0.41119 0.08838 0.52793 0.0
O609 O 0.45643 0.09222 0.44088 0.0
O610 O 0.50137 0.07413 0.44073 0.0
C611 C 0.45168 0.00995 0.61989 0.0
O612 O 0.53796 0.09186 0.56531 0.0
O613 O 0.49652 0.06725 0.55754 0.0
C614 C 0.57623 0.09909 0.48084 0.0
O615 O 0.42316 0.07909 0.5529 0.0
O616 O 0.41995 0.079 0.50153 0.0
C617 C 0.56004 0.02635 0.38057 0.0
O618 O 0.56941 0.09735 0.45232 0.0
O619 O 0.56757 0.07822 0.49861 0.0
C620 C 0.53037 0.93791 0.58195 0.0
O621 O 0.5259 0.93087 0.55272 0.0
C622 C 0.48896 0.93013 0.45447 0.0
O623 O 0.46394 0.92379 0.46874 0.0
H624 H 0.23741 0.20376 0.49715 0.0
H625 H 0.09685 0.10789 0.54289 0.0
H626 H 0.19321 0.21235 0.58535 0.0
H627 H 0.14855 0.09338 0.46015 0.0
H628 H 0.13535 0.14116 0.56256 0.0
H629 H 0.2099 0.15802 0.48709 0.0
C630 C 0.22251 0.1954 0.51481 0.0
C631 C 0.21747 0.21165 0.54208 0.0
C632 C 0.13858 0.13026 0.54035 0.0
C633 C 0.18482 0.16012 0.53027 0.0
C634 C 0.11659 0.11112 0.52926 0.0
C635 C 0.11936 0.09794 0.49993 0.0
C636 C 0.16351 0.13634 0.52178 0.0
C637 C 0.14528 0.10343 0.48276 0.0
C638 C 0.20651 0.16948 0.50896 0.0
C639 C 0.19736 0.20041 0.56392 0.0
N640 N 0.16621 0.1224 0.49382 0.0
N641 N 0.18133 0.17554 0.55734 0.0
H642 H 0.81848 0.23642 0.52928 0.0
H643 H 0.92881 0.10886 0.4682 0.0
H644 H 0.82006 0.21127 0.43298 0.0
H645 H 0.90194 0.1246 0.56309 0.0
H646 H 0.89719 0.15139 0.45211 0.0
H647 H 0.86037 0.20335 0.53908 0.0
C648 C 0.82865 0.22486 0.50992 0.0
C649 C 0.81625 0.22676 0.48031 0.0
C650 C 0.8985 0.14539 0.47641 0.0
C651 C 0.86283 0.18704 0.49151 0.0
C652 C 0.91638 0.12114 0.48555 0.0
C653 C 0.91834 0.11336 0.51705 0.0
C654 C 0.88283 0.16176 0.49906 0.0
C655 C 0.90158 0.12988 0.53858 0.0
C656 C 0.85212 0.20539 0.51556 0.0
C657 C 0.82933 0.21028 0.45612 0.0
N658 N 0.88473 0.15318 0.52919 0.0
N659 N 0.85171 0.19053 0.46232 0.0
H660 H 0.82505 0.82487 0.43379 0.0
H661 H 0.93737 0.89061 0.55962 0.0
H662 H 0.83152 0.79439 0.52816 0.0
H663 H 0.91716 0.93392 0.47265 0.0
H664 H 0.9088 0.84731 0.54281 0.0
H665 H 0.8689 0.85645 0.44212 0.0
C666 C 0.83633 0.82426 0.45597 0.0
C667 C 0.82468 0.80744 0.48047 0.0
C668 C 0.91089 0.86615 0.52726 0.0
C669 C 0.87439 0.84329 0.49032 0.0
C670 C 0.92717 0.89092 0.53685 0.0
C671 C 0.92915 0.9162 0.51779 0.0
C672 C 0.89634 0.86664 0.49845 0.0
C673 C 0.91587 0.91509 0.48831 0.0
C674 C 0.86118 0.8423 0.46079 0.0
C675 C 0.84001 0.80701 0.50872 0.0
N676 N 0.89967 0.89088 0.4797 0.0
N677 N 0.86384 0.82506 0.51305 0.0
H678 H 0.22075 0.79594 0.48294 0.0
H679 H 0.13883 0.94802 0.53082 0.0
H680 H 0.22632 0.83316 0.5747 0.0
H681 H 0.12373 0.90021 0.44527 0.0
H682 H 0.17612 0.91054 0.54545 0.0
H683 H 0.19182 0.83935 0.46612 0.0
C684 C 0.21649 0.81392 0.49919 0.0
C685 C 0.22614 0.81162 0.52991 0.0
C686 C 0.16469 0.90837 0.52345 0.0
C687 C 0.19209 0.86054 0.5116 0.0
C688 C 0.14337 0.92968 0.51512 0.0
C689 C 0.12804 0.92712 0.48686 0.0
C690 C 0.17083 0.88453 0.50322 0.0
C691 C 0.13486 0.90299 0.46735 0.0
C692 C 0.19972 0.83844 0.48983 0.0
C693 C 0.21952 0.83473 0.55067 0.0
N694 N 0.15573 0.88266 0.47591 0.0
N695 N 0.20258 0.85828 0.54121 0.0
H696 H 0.54572 0.21125 0.23657 0.0
H697 H 0.47906 0.10926 0.10639 0.0
H698 H 0.45146 0.20329 0.22237 0.0
H699 H 0.56957 0.10108 0.13903 0.0
H700 H 0.46696 0.13902 0.15232 0.0
H701 H 0.55381 0.16601 0.20614 0.0
C702 C 0.52664 0.19891 0.22835 0.0
C703 C 0.49788 0.21016 0.23278 0.0
C704 C 0.48933 0.13026 0.14971 0.0
C705 C 0.50684 0.15978 0.19582 0.0
C706 C 0.49629 0.11334 0.12342 0.0
C707 C 0.52553 0.10314 0.11856 0.0
C708 C 0.51184 0.13724 0.1711 0.0
C709 C 0.54686 0.10889 0.14154 0.0
C710 C 0.5312 0.17341 0.21044 0.0
C711 C 0.47388 0.1947 0.21985 0.0
N712 N 0.53969 0.12592 0.16656 0.0
N713 N 0.4789 0.17051 0.20143 0.0
H714 H 0.79149 0.53967 0.25445 0.0
H715 H 0.92778 0.46822 0.1616 0.0
H716 H 0.80147 0.44624 0.23376 0.0
H717 H 0.90677 0.56241 0.16183 0.0
H718 H 0.89056 0.46058 0.20191 0.0
H719 H 0.84189 0.54854 0.23419 0.0
C720 C 0.80479 0.52098 0.24641 0.0
C721 C 0.7927 0.49228 0.24547 0.0
C722 C 0.89449 0.48301 0.19355 0.0
C723 C 0.84966 0.50203 0.2221 0.0
C724 C 0.91585 0.48745 0.17058 0.0
C725 C 0.91992 0.51592 0.15768 0.0
C726 C 0.87703 0.50717 0.20373 0.0
C727 C 0.90406 0.53999 0.17068 0.0
C728 C 0.83333 0.52599 0.23471 0.0
C729 C 0.8103 0.46866 0.23461 0.0
N730 N 0.88289 0.53498 0.1926 0.0
N731 N 0.83783 0.47408 0.223 0.0
H732 H 0.50755 0.78145 0.217 0.0
H733 H 0.54886 0.90297 0.08825 0.0
H734 H 0.5943 0.82087 0.20925 0.0
H735 H 0.45915 0.87804 0.11271 0.0
H736 H 0.5678 0.86619 0.12543 0.0
H737 H 0.4917 0.80868 0.17049 0.0
C738 C 0.52344 0.79521 0.20477 0.0
C739 C 0.55215 0.79909 0.21656 0.0
C740 C 0.54398 0.86871 0.12248 0.0
C741 C 0.53426 0.83084 0.16425 0.0
C742 C 0.53316 0.88972 0.10134 0.0
C743 C 0.50237 0.89377 0.0976 0.0
C744 C 0.52387 0.85151 0.13975 0.0
C745 C 0.48305 0.87588 0.11504 0.0
C746 C 0.51439 0.811 0.17856 0.0
C747 C 0.572 0.81745 0.20051 0.0
N748 N 0.49412 0.85559 0.13539 0.0
N749 N 0.5626 0.83299 0.17527 0.0
H750 H 0.25125 0.4826 0.19949 0.0
H751 H 0.13009 0.5712 0.09923 0.0
H752 H 0.23061 0.57561 0.21232 0.0
H753 H 0.13992 0.47523 0.09674 0.0
H754 H 0.16905 0.57352 0.1385 0.0
H755 H 0.21119 0.47912 0.16083 0.0
C756 C 0.23781 0.50209 0.1943 0.0
C757 C 0.24381 0.52938 0.20867 0.0
C758 C 0.16276 0.55197 0.12926 0.0
C759 C 0.19883 0.52603 0.16459 0.0
C760 C 0.14071 0.55064 0.1066 0.0
C761 C 0.13167 0.52296 0.0947 0.0
C762 C 0.176 0.52546 0.13996 0.0
C763 C 0.14613 0.49706 0.10531 0.0
C764 C 0.21519 0.50025 0.17228 0.0
C765 C 0.22625 0.55424 0.20153 0.0
N766 N 0.16754 0.49894 0.12741 0.0
N767 N 0.20462 0.55208 0.17973 0.0
H768 H 0.49114 0.82355 0.77065 0.0
H769 H 0.54167 0.9234 0.9149 0.0
H770 H 0.57795 0.81699 0.81224 0.0
H771 H 0.45303 0.92204 0.87652 0.0
H772 H 0.55871 0.89162 0.87192 0.0
H773 H 0.48042 0.86732 0.80281 0.0
C774 C 0.50817 0.83189 0.78612 0.0
C775 C 0.53532 0.81677 0.7891 0.0
C776 C 0.53561 0.8986 0.87277 0.0
C777 C 0.5231 0.86611 0.82669 0.0
C778 C 0.52591 0.91676 0.89728 0.0
C779 C 0.49581 0.9249 0.89961 0.0
C780 C 0.51503 0.88876 0.85045 0.0
C781 C 0.47635 0.91583 0.87599 0.0
C782 C 0.50203 0.85665 0.80469 0.0
C783 C 0.55662 0.82804 0.80972 0.0
N784 N 0.48623 0.89809 0.8526 0.0
N785 N 0.54994 0.85185 0.8281 0.0
H786 H 0.22202 0.58727 0.76513 0.0
H787 H 0.09964 0.47952 0.83871 0.0
H788 H 0.23399 0.49305 0.77938 0.0
H789 H 0.09708 0.57551 0.84806 0.0
H790 H 0.14204 0.48408 0.80382 0.0
H791 H 0.17012 0.58302 0.7832 0.0
C792 C 0.21334 0.56566 0.77164 0.0
C793 C 0.2318 0.54047 0.77111 0.0
C794 C 0.13189 0.50417 0.81311 0.0
C795 C 0.17324 0.53527 0.79162 0.0
C796 C 0.10753 0.50164 0.83294 0.0
C797 C 0.09511 0.52716 0.84696 0.0
C798 C 0.14395 0.53241 0.80713 0.0
C799 C 0.10617 0.55519 0.83819 0.0
C800 C 0.18395 0.56319 0.78195 0.0
C801 C 0.22009 0.51284 0.77965 0.0
N802 N 0.13029 0.55705 0.81921 0.0
N803 N 0.19155 0.51097 0.78981 0.0
H804 H 0.50223 0.20948 0.77475 0.0
H805 H 0.46285 0.12 0.92783 0.0
H806 H 0.42317 0.23166 0.82624 0.0
H807 H 0.55219 0.13291 0.89358 0.0
H808 H 0.44489 0.15695 0.88975 0.0
H809 H 0.51833 0.17676 0.81675 0.0
C810 C 0.48865 0.20775 0.79545 0.0
C811 C 0.46198 0.22375 0.79779 0.0
C812 C 0.46842 0.15173 0.89096 0.0
C813 C 0.4794 0.18561 0.84547 0.0
C814 C 0.47866 0.13069 0.91263 0.0
C815 C 0.50907 0.12343 0.91412 0.0
C816 C 0.48876 0.16495 0.87042 0.0
C817 C 0.52855 0.13771 0.8935 0.0
C818 C 0.49764 0.18904 0.81929 0.0
C819 C 0.44428 0.2201 0.82427 0.0
N820 N 0.51804 0.15752 0.8725 0.0
N821 N 0.45325 0.20117 0.84725 0.0
H822 H 0.7742 0.43632 0.81733 0.0
H823 H 0.87282 0.55797 0.906 0.0
H824 H 0.77525 0.52953 0.79367 0.0
H825 H 0.87624 0.46354 0.92599 0.0
H826 H 0.83618 0.54815 0.8655 0.0
H827 H 0.81257 0.44547 0.8568 0.0
C828 C 0.78311 0.45857 0.82022 0.0
C829 C 0.77198 0.48225 0.80257 0.0
C830 C 0.84486 0.52961 0.87887 0.0
C831 C 0.81491 0.49318 0.84758 0.0
C832 C 0.86556 0.53524 0.90222 0.0
C833 C 0.87768 0.51155 0.91939 0.0
C834 C 0.83616 0.5001 0.87274 0.0
C835 C 0.86758 0.4825 0.91327 0.0
C836 C 0.8047 0.46391 0.84276 0.0
C837 C 0.78368 0.51082 0.80693 0.0
N838 N 0.8475 0.4776 0.89037 0.0
N839 N 0.8044 0.51559 0.82923 0.0
H840 H 0.74506 0.71104 0.93814 0.0
H841 H 0.63836 0.63197 0.061 0.0
H842 H 0.74861 0.72926 0.03596 0.0
H843 H 0.62938 0.62688 0.96132 0.0
H844 H 0.68483 0.65982 0.05401 0.0
H845 H 0.71066 0.66996 0.9481 0.0
C846 C 0.73949 0.70535 0.96185 0.0
C847 C 0.74958 0.72302 0.98632 0.0
C848 C 0.67269 0.65237 0.03376 0.0
C849 C 0.70922 0.67756 -0.002 0.0
C850 C 0.64611 0.63667 0.03772 0.0
C851 C 0.62973 0.6274 0.01173 0.0
C852 C 0.68295 0.65853 0.00363 0.0
C853 C 0.64096 0.63387 0.9821 0.0
C854 C 0.71951 0.68235 0.96759 0.0
C855 C 0.74132 0.71563 0.01668 0.0
N856 N 0.66675 0.64904 0.97891 0.0
N857 N 0.72105 0.69375 0.02171 0.0
H858 H 0.28379 0.74171 0.06931 0.0
H859 H 0.37725 0.62151 0.97261 0.0
H860 H 0.27766 0.73132 0.97044 0.0
H861 H 0.38834 0.63522 0.07115 0.0
H862 H 0.34169 0.66263 0.97138 0.0
H863 H 0.32562 0.7063 0.07012 0.0
C864 C 0.29233 0.73292 0.04763 0.0
C865 C 0.27783 0.73953 0.01974 0.0
C866 C 0.3518 0.65661 0.99331 0.0
C867 C 0.32427 0.69803 0.0204 0.0
C868 C 0.3719 0.63285 0.99413 0.0
C869 C 0.38593 0.62481 0.02205 0.0
C870 C 0.34548 0.67254 0.02062 0.0
C871 C 0.37805 0.64049 0.04912 0.0
C872 C 0.31572 0.7123 0.04808 0.0
C873 C 0.28882 0.72703 0.99224 0.0
N874 N 0.35845 0.66368 0.04769 0.0
N875 N 0.3111 0.70646 0.99328 0.0
H876 H 0.30909 0.29287 0.98372 0.0
H877 H 0.41527 0.40191 0.07958 0.0
H878 H 0.28844 0.32611 0.07497 0.0
H879 H 0.42841 0.37894 0.98314 0.0
H880 H 0.37411 0.36653 0.08188 0.0
H881 H 0.35792 0.31684 0.98662 0.0
C882 C 0.31518 0.30498 0.00451 0.0
C883 C 0.29503 0.30783 0.0291 0.0
C884 C 0.38624 0.36903 0.06033 0.0
C885 C 0.3503 0.3355 0.0326 0.0
C886 C 0.40982 0.38914 0.05901 0.0
C887 C 0.42497 0.39383 0.03096 0.0
C888 C 0.37783 0.35347 0.03344 0.0
C889 C 0.41707 0.37643 0.00514 0.0
C890 C 0.34288 0.31871 0.00617 0.0
C891 C 0.30352 0.32383 0.05552 0.0
N892 N 0.39384 0.35727 0.00692 0.0
N893 N 0.33052 0.3373 0.05653 0.0
H894 H 0.77423 0.319 0.0328 0.0
H895 H 0.65872 0.42142 0.94025 0.0
H896 H 0.75178 0.30793 0.93656 0.0
H897 H 0.66722 0.42204 0.04006 0.0
H898 H 0.7025 0.38928 0.93691 0.0
H899 H 0.7447 0.36548 0.0341 0.0
C900 C 0.76364 0.32697 0.0118 0.0
C901 C 0.7651 0.30999 0.98457 0.0
C902 C 0.69506 0.39677 0.95954 0.0
C903 C 0.73135 0.3624 0.98572 0.0
C904 C 0.67005 0.41522 0.96148 0.0
C905 C 0.65881 0.42396 0.99054 0.0
C906 C 0.70893 0.3868 0.98682 0.0
C907 C 0.67481 0.41554 0.01718 0.0
C908 C 0.74673 0.35325 0.01252 0.0
C909 C 0.75095 0.32066 0.9579 0.0
N910 N 0.69878 0.39701 0.01471 0.0
N911 N 0.73441 0.34608 0.95918 0.0
H912 H 0.02933 0.71886 0.71164 0.0
H913 H 0.96675 0.57641 0.62419 0.0
H914 H 0.93834 0.69301 0.72584 0.0
H915 H 0.03562 0.63388 0.5892 0.0
H916 H 0.95659 0.61291 0.66572 0.0
H917 H 0.03505 0.67916 0.67326 0.0
C918 C 0.0109 0.70393 0.70727 0.0
C919 C 0.98364 0.70846 0.72219 0.0
C920 C 0.97357 0.61758 0.64857 0.0
C921 C 0.98927 0.66407 0.67731 0.0
C922 C 0.97904 0.597 0.62468 0.0
C923 C 0.00195 0.60215 0.60323 0.0
C924 C -0.00843 0.643 0.65103 0.0
C925 C 0.01793 0.62884 0.60542 0.0
C926 C 0.01389 0.68172 0.68505 0.0
C927 C 0.95986 0.68949 0.71513 0.0
N928 N 0.01267 0.64804 0.62906 0.0
N929 N 0.96312 0.66801 0.69292 0.0
H930 H 0.32285 0.02396 0.75954 0.0
H931 H 0.45664 0.9617 0.65849 0.0
H932 H 0.34217 0.9311 0.74396 0.0
H933 H 0.42478 0.05276 0.65605 0.0
H934 H 0.4273 0.95334 0.70526 0.0
H935 H 0.3714 0.03702 0.73717 0.0
C936 C 0.33796 0.00637 0.75232 0.0
C937 C 0.32891 0.97655 0.75317 0.0
C938 C 0.42728 0.97535 0.6949 0.0
C939 C 0.38373 0.99097 0.72736 0.0
C940 C 0.44409 0.98019 0.66821 0.0
C941 C 0.44233 0.00768 0.6527 0.0
C942 C 0.40848 0.99808 0.70599 0.0
C943 C 0.42627 0.03099 0.66682 0.0
C944 C 0.36546 0.01372 0.73947 0.0
C945 C 0.3487 0.95431 0.74345 0.0
N946 N 0.40934 0.02545 0.69228 0.0
N947 N 0.3751 0.96199 0.73045 0.0
H948 H 0.94597 0.31385 0.69933 0.0
H949 H 0.06104 0.38333 0.57904 0.0
H950 H 0.03731 0.28603 0.69041 0.0
H951 H 0.9731 0.41918 0.59578 0.0
H952 H 0.04858 0.33998 0.61055 0.0
H953 H 0.95131 0.34439 0.65239 0.0
C954 C 0.96687 0.3136 0.68683 0.0
C955 C -0.00868 0.2978 0.69861 0.0
C956 C 0.03186 0.35713 0.60703 0.0
C957 C -0.00213 0.33266 0.64548 0.0
C958 C 0.03896 0.38193 0.58902 0.0
C959 C 0.01829 0.40524 0.58526 0.0
C960 C 0.00393 0.35563 0.62156 0.0
C961 C 0.98988 0.40195 0.5984 0.0
C962 C 0.97001 0.33106 0.66023 0.0
C963 C 0.01798 0.2979 0.6818 0.0
N964 N 0.98369 0.37782 0.61635 0.0
N965 N 0.02072 0.31548 0.65632 0.0
H966 H 0.71788 0.01303 0.74802 0.0
H967 H 0.63728 0.08916 0.60214 0.0
H968 H 0.72985 0.10541 0.72439 0.0
H969 H 0.64079 0.99415 0.61888 0.0
H970 H 0.66876 0.09688 0.6479 0.0
H971 H 0.68451 0.0073 0.70354 0.0
C972 C 0.71263 0.0323 0.73388 0.0
C973 C 0.72613 0.05978 0.73985 0.0
C974 C 0.66275 0.07436 0.64135 0.0
C975 C 0.6891 0.05336 0.6883 0.0
C976 C 0.64501 0.06991 0.61506 0.0
C977 C 0.63619 0.04097 0.60661 0.0
C978 C 0.67152 0.04973 0.6594 0.0
C979 C 0.64682 0.01691 0.62444 0.0
C980 C 0.69407 0.02898 0.70821 0.0
C981 C 0.71951 0.08398 0.72045 0.0
N982 N 0.66363 0.02186 0.65004 0.0
N983 N 0.70156 0.0802 0.69535 0.0
H984 H 0.07462 0.34732 0.27997 0.0
H985 H 0.98241 0.41173 0.42281 0.0
H986 H -0.00143 0.30416 0.32024 0.0
H987 H 0.03053 0.47117 0.3622 0.0
H988 H -0.00561 0.37041 0.38839 0.0
H989 H 0.06334 0.39245 0.31111 0.0
C990 C 0.05532 0.34771 0.295 0.0
C991 C 0.03754 0.32231 0.29802 0.0
C992 C 0.00234 0.39249 0.38255 0.0
C993 C 0.02499 0.3727 0.33377 0.0
C994 C -0.00429 0.41611 0.40236 0.0
C995 C 0.00524 0.44506 0.39526 0.0
C996 C 0.01891 0.39761 0.35548 0.0
C997 C 0.02255 0.44922 0.36842 0.0
C998 C 0.04897 0.37319 0.31278 0.0
C999 C 0.0128 0.32343 0.31769 0.0
N1000 N 0.02886 0.42569 0.3494 0.0
N1001 N 0.00745 0.34805 0.33511 0.0
H1002 H 0.70329 0.99525 0.26815 0.0
H1003 H 0.5684 0.07576 0.34417 0.0
H1004 H 0.68095 0.08645 0.24747 0.0
H1005 H 0.57999 0.97998 0.34456 0.0
H1006 H 0.60245 0.07895 0.30031 0.0
H1007 H 0.653 0.98746 0.28807 0.0
C1008 C 0.68727 0.01338 0.26727 0.0
C1009 C 0.69571 0.0414 0.25629 0.0
C1010 C 0.59696 0.05715 0.30945 0.0
C1011 C 0.63876 0.03334 0.27988 0.0
C1012 C 0.57747 0.05529 0.33454 0.0
C1013 C 0.57227 0.02764 0.34882 0.0
C1014 C 0.61149 0.03124 0.29895 0.0
C1015 C 0.58405 0.00187 0.33488 0.0
C1016 C 0.65865 0.00906 0.27855 0.0
C1017 C 0.67482 0.06457 0.25583 0.0
N1018 N 0.60375 0.00437 0.31119 0.0
N1019 N 0.6473 0.06022 0.26808 0.0
H1020 H 0.07499 0.71563 0.30047 0.0
H1021 H 0.97612 0.66006 0.44176 0.0
H1022 H 0.98876 0.75051 0.3251 0.0
H1023 H 0.04461 0.6065 0.39856 0.0
H1024 H -0.00763 0.70292 0.4116 0.0
H1025 H 0.07514 0.68569 0.34825 0.0
C1026 C 0.05654 0.7176 0.31652 0.0
C1027 C 0.03156 0.73493 0.30882 0.0
C1028 C 0.00421 0.68193 0.4091 0.0
C1029 C 0.03162 0.70138 0.36316 0.0
C1030 C -0.00507 0.65741 0.42623 0.0
C1031 C 0.00858 0.62946 0.42198 0.0
C1032 C 0.02712 0.67846 0.3873 0.0
C1033 C 0.03327 0.62753 0.40218 0.0
C1034 C 0.0566 0.70058 0.34363 0.0
C1035 C 0.00837 0.73734 0.33034 0.0
N1036 N 0.04142 0.65162 0.385 0.0
N1037 N 0.00874 0.72034 0.35636 0.0
H1038 H 0.30975 0.93525 0.27155 0.0
H1039 H 0.37151 0.05033 0.39865 0.0
H1040 H 0.27794 0.02526 0.28278 0.0
H1041 H 0.40086 0.95853 0.39283 0.0
H1042 H 0.33921 0.04201 0.35415 0.0
H1043 H 0.34643 0.94392 0.31316 0.0
C1044 C 0.31104 0.95696 0.28252 0.0
C1045 C 0.2913 0.97971 0.274 0.0
C1046 C 0.35263 0.02362 0.36264 0.0
C1047 C 0.3322 0.98976 0.32145 0.0
C1048 C 0.37098 0.02833 0.38823 0.0
C1049 C 0.38884 0.00507 0.39972 0.0
C1050 C 0.352 0.99543 0.34833 0.0
C1051 C 0.38738 0.9771 0.38493 0.0
C1052 C 0.33166 0.9619 0.30629 0.0
C1053 C 0.29315 0.00739 0.28887 0.0
N1054 N 0.36929 0.97307 0.36 0.0
N1055 N 0.31315 0.01164 0.31196 0.0
H1056 H 0.09461 0.21028 0.30854 0.0
H1057 H 0.96804 0.11307 0.3873 0.0
H1058 H 0.00235 0.21266 0.28226 0.0
H1059 H 0.06077 0.10323 0.41129 0.0
H1060 H 0.98184 0.14474 0.3441 0.0
H1061 H 0.08486 0.16597 0.34058 0.0
C1062 C 0.07253 0.20071 0.30877 0.0
C1063 C 0.04921 0.21485 0.29288 0.0
C1064 C -0.00068 0.13561 0.3586 0.0
C1065 C 0.03763 0.16502 0.32979 0.0
C1066 C -0.00858 0.11762 0.38351 0.0
C1067 C 0.01328 0.10587 0.40335 0.0
C1068 C 0.02936 0.14247 0.35353 0.0
C1069 C 0.04322 0.11202 0.39676 0.0
C1070 C 0.06689 0.17567 0.32719 0.0
C1071 C 0.02088 0.2021 0.29403 0.0
N1072 N 0.05039 0.1303 0.37262 0.0
N1073 N 0.01578 0.17817 0.31254 0.0
H1074 H 0.80962 0.09069 0.27976 0.0
H1075 H 0.8936 0.97598 0.39194 0.0
H1076 H 0.80007 0.99558 0.2721 0.0
H1077 H 0.88709 0.07097 0.40833 0.0
H1078 H 0.86369 0.98213 0.34504 0.0
H1079 H 0.84554 0.08348 0.32191 0.0
C1080 C 0.81616 0.06827 0.28631 0.0
C1081 C 0.80244 0.04367 0.27259 0.0
C1082 C 0.86866 0.00155 0.35906 0.0
C1083 C 0.84203 0.03506 0.32137 0.0
C1084 C 0.88547 0.99805 0.38602 0.0
C1085 C 0.89291 0.02301 0.40419 0.0
C1086 C 0.85939 0.03022 0.35009 0.0
C1087 C 0.88187 0.05105 0.3952 0.0
C1088 C 0.83611 0.0641 0.31065 0.0
C1089 C 0.81074 0.01495 0.28209 0.0
N1090 N 0.86588 0.05391 0.36867 0.0
N1091 N 0.82978 0.01137 0.30628 0.0
H1092 H 0.97021 0.80858 0.27448 0.0
H1093 H 0.02492 0.90228 0.4176 0.0
H1094 H 0.05882 0.79253 0.30899 0.0
H1095 H 0.97789 0.94281 0.34102 0.0
H1096 H 0.03319 0.85742 0.38537 0.0
H1097 H 0.967 0.85344 0.3067 0.0
C1098 C 0.98915 0.81476 0.28851 0.0
C1099 C 0.01519 0.79742 0.2883 0.0
C1100 C 0.02134 0.87636 0.37574 0.0
C1101 C 0.01109 0.84783 0.32642 0.0
C1102 C 0.01657 0.90187 0.39403 0.0
C1103 C 0.00056 0.92631 0.38204 0.0
C1104 C 0.00932 0.87515 0.34569 0.0
C1105 C 0.9903 0.92458 0.35132 0.0
C1106 C 0.98721 0.84016 0.30709 0.0
C1107 C 0.03848 0.80555 0.30832 0.0
N1108 N -0.00555 0.89932 0.33443 0.0
N1109 N 0.03589 0.8302 0.32674 0.0
H1110 H 0.19918 0.03276 0.24063 0.0
H1111 H 0.0642 0.96998 0.33682 0.0
H1112 H 0.17245 0.94084 0.24277 0.0
H1113 H 0.09859 0.05942 0.34539 0.0
H1114 H 0.09175 0.96396 0.28848 0.0
H1115 H 0.15141 0.04718 0.264 0.0
C1116 C 0.18251 0.01584 0.24477 0.0
C1117 C 0.18939 0.98567 0.24003 0.0
C1118 C 0.09278 0.98515 0.30055 0.0
C1119 C 0.1355 0.00155 0.26752 0.0
C1120 C 0.07704 0.98862 0.3282 0.0
C1121 C 0.07989 0.01491 0.3457 0.0
C1122 C 0.11178 0.00797 0.29053 0.0
C1123 C 0.09624 0.03854 0.33298 0.0
C1124 C 0.15546 0.02394 0.25838 0.0
C1125 C 0.16763 0.96432 0.24615 0.0
N1126 N 0.11219 0.03425 0.30652 0.0
N1127 N 0.14182 0.97258 0.26021 0.0
H1128 H 0.03476 0.79716 0.70983 0.0
H1129 H 0.98914 0.95835 0.64811 0.0
H1130 H 0.94961 0.83577 0.73217 0.0
H1131 H 0.04725 0.89839 0.59789 0.0
H1132 H 0.9785 0.91826 0.6851 0.0
H1133 H 0.04533 0.83984 0.67598 0.0
C1134 C 0.01873 0.81522 0.70814 0.0
C1135 C -0.00841 0.81352 0.72393 0.0
C1136 C -0.00656 0.91394 0.66586 0.0
C1137 C 0.00295 0.86177 0.68501 0.0
C1138 C -0.00056 0.93673 0.64467 0.0
C1139 C 0.01893 0.93166 0.61969 0.0
C1140 C 0.00769 0.8862 0.66249 0.0
C1141 C 0.03192 0.90326 0.61663 0.0
C1142 C 0.02449 0.83924 0.68861 0.0
C1143 C 0.97097 0.83683 0.72063 0.0
N1144 N 0.0263 0.88171 0.63795 0.0
N1145 N 0.97705 0.86014 0.70143 0.0
H1146 H 0.23 0.02753 0.73533 0.0
H1147 H 0.14707 0.96343 0.58682 0.0
H1148 H 0.2138 0.93436 0.71909 0.0
H1149 H 0.14175 0.05663 0.61225 0.0
H1150 H 0.17594 0.95376 0.63336 0.0
H1151 H 0.1981 0.04006 0.69085 0.0
C1152 C 0.21855 0.00988 0.72305 0.0
C1153 C 0.22399 0.97999 0.73062 0.0
C1154 C 0.16862 0.97638 0.6287 0.0
C1155 C 0.18915 0.99368 0.67938 0.0
C1156 C 0.15251 0.98202 0.60184 0.0
C1157 C 0.14161 0.01082 0.59581 0.0
C1158 C 0.17406 0.99971 0.64964 0.0
C1159 C 0.14959 0.03405 0.61605 0.0
C1160 C 0.20089 0.0169 0.69746 0.0
C1161 C 0.20961 0.95763 0.71388 0.0
N1162 N 0.16512 0.02792 0.64234 0.0
N1163 N 0.19316 0.96489 0.68864 0.0
H1164 H 0.05001 0.22773 0.72897 0.0
H1165 H 0.97539 0.11211 0.61026 0.0
H1166 H 0.9581 0.23554 0.70221 0.0
H1167 H 0.06931 0.1319 0.61253 0.0
H1168 H 0.96702 0.15186 0.64908 0.0
H1169 H 0.05617 0.18643 0.6919 0.0
C1170 C 0.03107 0.22034 0.71553 0.0
C1171 C 0.00348 0.23466 0.71869 0.0
C1172 C 0.9894 0.1474 0.64091 0.0
C1173 C 0.01017 0.18768 0.6762 0.0
C1174 C -0.00583 0.12474 0.6188 0.0
C1175 C 0.02307 0.11863 0.60794 0.0
C1176 C 0.01375 0.16361 0.65256 0.0
C1177 C 0.0466 0.13572 0.62 0.0
C1178 C 0.03456 0.197 0.69424 0.0
C1179 C 0.97966 0.22481 0.70034 0.0
N1180 N 0.04144 0.15717 0.64165 0.0
N1181 N 0.98346 0.20181 0.67995 0.0
H1182 H 0.81932 0.99799 0.7685 0.0
H1183 H 0.9489 0.07091 0.67345 0.0
H1184 H 0.84411 0.09028 0.77502 0.0
H1185 H 0.92634 0.97743 0.66872 0.0
H1186 H 0.92025 0.07524 0.72128 0.0
H1187 H 0.86738 0.98666 0.74409 0.0
C1188 C 0.83563 0.01555 0.76602 0.0
C1189 C 0.82809 0.04505 0.77345 0.0
C1190 C 0.92196 0.05363 0.71011 0.0
C1191 C 0.88225 0.03282 0.74464 0.0
C1192 C 0.93829 0.05117 0.68271 0.0
C1193 C 0.93929 0.02399 0.66655 0.0
C1194 C 0.90611 0.02886 0.72118 0.0
C1195 C 0.92566 0.99901 0.68004 0.0
C1196 C 0.86286 0.00925 0.7518 0.0
C1197 C 0.84944 0.0673 0.76949 0.0
N1198 N 0.90907 0.00221 0.70621 0.0
N1199 N 0.87536 0.06088 0.75468 0.0
H1200 H 0.30243 0.02741 0.22611 0.0
H1201 H 0.40119 0.9774 0.08086 0.0
H1202 H 0.29058 0.94396 0.17837 0.0
H1203 H 0.41856 0.05605 0.13584 0.0
H1204 H 0.36283 0.96287 0.118 0.0
H1205 H 0.34672 0.03715 0.19456 0.0
C1206 C 0.30953 0.01105 0.20912 0.0
C1207 C 0.29334 0.98483 0.20473 0.0
C1208 C 0.37525 0.98314 0.1221 0.0
C1209 C 0.34338 0.99573 0.16834 0.0
C1210 C 0.39722 0.9914 0.10094 0.0
C1211 C 0.41282 0.01818 0.10501 0.0
C1212 C 0.36877 0.00188 0.14741 0.0
C1213 C 0.40689 0.03536 0.13158 0.0
C1214 C 0.33466 0.01655 0.19108 0.0
C1215 C 0.30276 0.96443 0.18214 0.0
N1216 N 0.38511 0.02708 0.15157 0.0
N1217 N 0.32717 0.97033 0.16462 0.0
H1218 H -0.00482 0.32446 0.25088 0.0
H1219 H 0.0494 0.39055 0.08777 0.0
H1220 H 0.07273 0.29321 0.20171 0.0
H1221 H 0.98805 0.4369 0.14833 0.0
H1222 H 0.05089 0.34907 0.12446 0.0
H1223 H 0.98584 0.36073 0.20928 0.0
C1224 C 0.01022 0.3253 0.23129 0.0
C1225 C 0.03498 0.30619 0.22978 0.0
C1226 C 0.03688 0.36819 0.12958 0.0
C1227 C 0.02415 0.34694 0.18189 0.0
C1228 C 0.03586 0.39185 0.10854 0.0
C1229 C 0.01887 0.41748 0.11516 0.0
C1230 C 0.02066 0.37001 0.15739 0.0
C1231 C 0.00173 0.41775 0.14244 0.0
C1232 C 0.0048 0.34581 0.20749 0.0
C1233 C 0.05334 0.3075 0.20355 0.0
N1234 N 0.00323 0.39449 0.16266 0.0
N1235 N 0.04765 0.32761 0.18068 0.0
H1236 H 0.70774 0.99237 0.20986 0.0
H1237 H 0.64688 0.03302 0.04573 0.0
H1238 H 0.73326 0.07695 0.17124 0.0
H1239 H 0.58808 0.00238 0.11822 0.0
H1240 H 0.68513 0.04276 0.08494 0.0
H1241 H 0.67077 0.98663 0.16842 0.0
C1242 C 0.70574 0.00946 0.19228 0.0
C1243 C 0.72295 0.03531 0.19389 0.0
C1244 C 0.66367 0.03424 0.09209 0.0
C1245 C 0.68165 0.02878 0.14655 0.0
C1246 C 0.64177 0.02889 0.06988 0.0
C1247 C 0.61414 0.01709 0.07876 0.0
C1248 C 0.65818 0.02665 0.12303 0.0
C1249 C 0.60902 0.01151 0.11033 0.0
C1250 C 0.68472 0.00628 0.16888 0.0
C1251 C 0.72025 0.0567 0.1704 0.0
N1252 N 0.63107 0.01585 0.13131 0.0
N1253 N 0.69981 0.05302 0.14747 0.0
H1254 H 0.96378 0.70549 0.22166 0.0
H1255 H 0.02619 0.64729 0.05983 0.0
H1256 H 0.03663 0.74466 0.17177 0.0
H1257 H 0.96779 0.59612 0.11841 0.0
H1258 H 0.01734 0.69099 0.09236 0.0
H1259 H 0.95303 0.67358 0.17658 0.0
C1260 C 0.97685 0.70789 0.2007 0.0
C1261 C 0.00116 0.72737 0.20013 0.0
C1262 C 0.00592 0.67041 0.09779 0.0
C1263 C 0.98943 0.6911 0.14896 0.0
C1264 C 0.01088 0.64546 0.07917 0.0
C1265 C -0.00192 0.61793 0.08683 0.0
C1266 C 0.98837 0.66774 0.12455 0.0
C1267 C 0.97816 0.61689 0.11183 0.0
C1268 C 0.97088 0.68968 0.17515 0.0
C1269 C 0.01772 0.72982 0.17283 0.0
N1270 N 0.97439 0.64133 0.13028 0.0
N1271 N 0.01181 0.71157 0.14841 0.0
H1272 H 0.27847 0.01878 0.82588 0.0
H1273 H 0.43377 0.98044 0.90051 0.0
H1274 H 0.32416 0.93563 0.80925 0.0
H1275 H 0.37524 0.047 0.93934 0.0
H1276 H 0.39293 0.96229 0.86822 0.0
H1277 H 0.31173 0.02843 0.86979 0.0
C1278 C 0.29495 0.00217 0.83222 0.0
C1279 C 0.29879 0.97638 0.81434 0.0
C1280 C 0.38877 0.98044 0.88429 0.0
C1281 C 0.33735 0.98755 0.86327 0.0
C1282 C 0.41198 0.99042 0.90294 0.0
C1283 C 0.40738 0.01443 0.92306 0.0
C1284 C 0.36109 0.99517 0.88543 0.0
C1285 C 0.37939 0.02826 0.92401 0.0
C1286 C 0.31407 0.00773 0.857 0.0
C1287 C 0.32084 0.95579 0.8227 0.0
N1288 N 0.35724 0.01854 0.90526 0.0
N1289 N 0.33967 0.96199 0.84634 0.0
H1290 H 0.9652 0.28673 0.83162 0.0
H1291 H 0.97629 0.39175 0.94993 0.0
H1292 H 0.04691 0.32307 0.79669 0.0
H1293 H 0.02595 0.43957 0.88037 0.0
H1294 H 0.98392 0.34553 0.92039 0.0
H1295 H 0.96807 0.32055 0.87634 0.0
C1296 C 0.98442 0.30099 0.83425 0.0
C1297 C 0.00599 0.30209 0.81086 0.0
C1298 C -0.00679 0.36611 0.91164 0.0
C1299 C 0.00936 0.3413 0.86131 0.0
C1300 C 0.98913 0.39247 0.92866 0.0
C1301 C -5e-05 0.41969 0.91722 0.0
C1302 C 0.00836 0.36702 0.88309 0.0
C1303 C 0.01667 0.41922 0.88971 0.0
C1304 C 0.9861 0.32039 0.85969 0.0
C1305 C 0.0301 0.32149 0.81459 0.0
N1306 N 0.02018 0.39339 0.87352 0.0
N1307 N 0.0308 0.34081 0.83894 0.0
H1308 H 0.72997 1.00013 0.81277 0.0
H1309 H 0.5999 0.06736 0.91599 0.0
H1310 H 0.71004 0.09403 0.80861 0.0
H1311 H 0.59718 0.97916 0.8756 0.0
H1312 H 0.64309 0.07878 0.88287 0.0
H1313 H 0.68451 0.99237 0.8433 0.0
C1314 C 0.71591 0.01905 0.81852 0.0
C1315 C 0.72339 0.04767 0.80847 0.0
C1316 C 0.63267 0.05708 0.88121 0.0
C1317 C 0.67183 0.03929 0.84327 0.0
C1318 C 0.60813 0.05055 0.90013 0.0
C1319 C 0.59511 0.02213 0.89902 0.0
C1320 C 0.64432 0.03486 0.86152 0.0
C1321 C 0.6065 0.00132 0.87758 0.0
C1322 C 0.69002 0.01471 0.8357 0.0
C1323 C 0.70463 0.07166 0.81611 0.0
N1324 N 0.6306 0.00795 0.86009 0.0
N1325 N 0.67969 0.06703 0.83338 0.0
H1326 H 0.96884 0.74828 0.82193 0.0
H1327 H 0.02501 0.58746 0.87538 0.0
H1328 H 0.02794 0.69458 0.76616 0.0
H1329 H 0.97672 0.64894 0.93391 0.0
H1330 H 0.03165 0.62755 0.83713 0.0
H1331 H 0.97579 0.71355 0.86499 0.0
C1332 C 0.98342 0.72919 0.81887 0.0
C1333 C -0.00269 0.72401 0.79028 0.0
C1334 C 0.02017 0.63241 0.85865 0.0
C1335 C 0.0052 0.68369 0.83927 0.0
C1336 C 0.01673 0.60961 0.88064 0.0
C1337 C 0.00021 0.61487 0.90774 0.0
C1338 C 0.00683 0.66047 0.86391 0.0
C1339 C 0.98935 0.64384 0.91314 0.0
C1340 C 0.98739 0.70929 0.84339 0.0
C1341 C 0.01594 0.69888 0.78738 0.0
N1342 N -0.00748 0.66536 0.8913 0.0
N1343 N 0.01911 0.67946 0.81148 0.0
H1344 H 0.18412 0.28719 0.96825 0.0
H1345 H 0.07444 0.41464 0.02835 0.0
H1346 H 0.18107 0.31868 0.06251 0.0
H1347 H 0.08209 0.3872 0.93263 0.0
H1348 H 0.10454 0.37151 0.04358 0.0
H1349 H 0.13785 0.31458 0.95737 0.0
C1350 C 0.17304 0.29912 0.98686 0.0
C1351 C 0.18627 0.30106 0.01617 0.0
C1352 C 0.09927 0.37466 0.01928 0.0
C1353 C 0.13416 0.33306 0.00395 0.0
C1354 C 0.08202 0.39928 0.01057 0.0
C1355 C 0.07631 0.40489 0.9791 0.0
C1356 C 0.11092 0.35556 0.99633 0.0
C1357 C 0.08653 0.38409 0.95711 0.0
C1358 C 0.14687 0.31499 0.98066 0.0
C1359 C 0.17144 0.31698 0.03957 0.0
N1360 N 0.10367 0.36059 0.9661 0.0
N1361 N 0.14643 0.33284 0.03285 0.0
H1362 H 0.15469 0.75408 0.98757 0.0
H1363 H 0.0962 0.5968 0.03925 0.0
H1364 H 0.17743 0.71439 0.07522 0.0
H1365 H 0.06405 0.6446 0.95915 0.0
H1366 H 0.11833 0.64316 0.05863 0.0
H1367 H 0.11295 0.71957 0.98283 0.0
C1368 C 0.14999 0.73888 0.00644 0.0
C1369 C 0.16938 0.73683 0.03171 0.0
C1370 C 0.10592 0.64361 0.0371 0.0
C1371 C 0.12291 0.69614 0.02588 0.0
C1372 C 0.09326 0.61711 0.02611 0.0
C1373 C 0.07885 0.61671 -0.00271 0.0
C1374 C 0.10423 0.6697 0.01896 0.0
C1375 C 0.07568 0.64373 0.98114 0.0
C1376 C 0.12646 0.71883 0.00362 0.0
C1377 C 0.16285 0.71638 0.05534 0.0
N1378 N 0.08861 0.66896 0.99195 0.0
N1379 N 0.14064 0.69623 0.05151 0.0
H1380 H 0.29534 0.25037 0.06596 0.0
H1381 H 0.39688 0.14529 0.95831 0.0
H1382 H 0.27475 0.23269 0.97029 0.0
H1383 H 0.41179 0.15988 0.05613 0.0
H1384 H 0.35367 0.17882 0.96087 0.0
H1385 H 0.33857 0.21722 0.06217 0.0
C1386 C 0.29979 0.23888 0.04431 0.0
C1387 C 0.2816 0.24382 0.01851 0.0
C1388 C 0.36656 0.1748 0.98169 0.0
C1389 C 0.33126 0.20648 0.01349 0.0
C1390 C 0.39142 0.15591 0.98019 0.0
C1391 C 0.40795 0.14962 0.0071 0.0
C1392 C 0.3583 0.18754 0.01025 0.0
C1393 C 0.39967 0.16389 0.03482 0.0
C1394 C 0.32453 0.22021 0.04199 0.0
C1395 C 0.2882 0.22892 0.99074 0.0
N1396 N 0.37539 0.18199 0.03568 0.0
N1397 N 0.31271 0.21098 0.98885 0.0
H1398 H 0.8184 0.31472 0.94646 0.0
H1399 H 0.94093 0.39049 0.05488 0.0
H1400 H 0.84737 0.2779 0.03358 0.0
H1401 H 0.9012 0.43306 0.97509 0.0
H1402 H 0.91512 0.34428 0.04138 0.0
H1403 H 0.85624 0.35366 0.95103 0.0
C1404 C 0.83302 0.31484 0.96642 0.0
C1405 C 0.8298 0.29351 0.98984 0.0
C1406 C 0.91237 0.36365 0.02664 0.0
C1407 C 0.87304 0.3376 0.99534 0.0
C1408 C 0.92717 0.38999 0.03426 0.0
C1409 C 0.92264 0.41582 0.01647 0.0
C1410 C 0.89302 0.36321 0.00105 0.0
C1411 C 0.90484 0.41383 0.98982 0.0
C1412 C 0.85463 0.33689 0.96902 0.0
C1413 C 0.8494 0.29404 0.01507 0.0
N1414 N 0.89039 0.38809 0.98313 0.0
N1415 N 0.87007 0.31598 0.01735 0.0
H1416 H 0.74343 0.82849 0.03359 0.0
H1417 H 0.61118 0.90525 0.94129 0.0
H1418 H 0.7424 0.83897 0.93457 0.0
H1419 H 0.61763 0.90699 0.04131 0.0
H1420 H 0.66085 0.88341 0.93878 0.0
H1421 H 0.70137 0.86327 0.03781 0.0
C1422 C 0.73529 0.83955 0.01292 0.0
C1423 C 0.74613 0.83111 0.98372 0.0
C1424 C 0.65142 0.88856 0.96129 0.0
C1425 C 0.69728 0.8693 0.98792 0.0
C1426 C 0.6228 0.90061 0.96278 0.0
C1427 C 0.61003 0.90784 0.99158 0.0
C1428 C 0.66741 0.88344 0.98878 0.0
C1429 C 0.62645 0.90162 0.01859 0.0
C1430 C 0.7109 0.85883 0.01518 0.0
C1431 C 0.73459 0.84527 0.95743 0.0
N1432 N 0.65427 0.88976 0.01652 0.0
N1433 N 0.71022 0.86313 0.96002 0.0
H1434 H 0.82983 0.76222 0.02774 0.0
H1435 H 0.90154 0.60727 0.971 0.0
H1436 H 0.80324 0.71719 0.94405 0.0
H1437 H 0.92095 0.65026 0.0583 0.0
H1438 H 0.87158 0.65108 0.95603 0.0
H1439 H 0.86964 0.72526 0.03476 0.0
C1440 C 0.83283 0.74479 0.01058 0.0
C1441 C 0.81342 0.74251 0.98536 0.0
C1442 C 0.88271 0.65097 0.97831 0.0
C1443 C 0.85822 0.69983 0.99337 0.0
C1444 C 0.89986 0.62607 0.98675 0.0
C1445 C 0.91322 0.62497 0.01611 0.0
C1446 C 0.87923 0.67484 -0.00066 0.0
C1447 C 0.91049 0.64993 0.03566 0.0
C1448 C 0.85534 0.72357 0.01463 0.0
C1449 C 0.81773 0.7193 0.96396 0.0
N1450 N 0.89365 0.67367 0.02704 0.0
N1451 N 0.83954 0.69866 0.96854 0.0
H1452 H 0.24437 0.82391 0.06186 0.0
H1453 H 0.36248 0.90971 0.95489 0.0
H1454 H 0.2736 0.79125 0.97296 0.0
H1455 H 0.34807 0.9293 0.05181 0.0
H1456 H 0.32267 0.87249 0.95729 0.0
H1457 H 0.27586 0.86806 0.05517 0.0
C1458 C 0.25734 0.82626 0.04085 0.0
C1459 C 0.2566 0.80408 0.01796 0.0
C1460 C 0.32793 0.8853 0.97788 0.0
C1461 C 0.29259 0.85432 0.00997 0.0
C1462 C 0.3504 0.90682 0.97643 0.0
C1463 C 0.35878 0.92249 0.00326 0.0
C1464 C 0.3136 0.87964 0.00628 0.0
C1465 C 0.34252 0.91756 0.03062 0.0
C1466 C 0.27533 0.85134 0.03701 0.0
C1467 C 0.27396 0.80783 0.99122 0.0
N1468 N 0.32094 0.89643 0.03148 0.0
N1469 N 0.29128 0.83249 0.98792 0.0
H1470 H 0.77165 0.19741 0.03918 0.0
H1471 H 0.65906 0.09578 0.94568 0.0
H1472 H 0.76389 0.19682 0.93982 0.0
H1473 H 0.6664 0.09633 0.04562 0.0
H1474 H 0.70553 0.12357 0.9425 0.0
H1475 H 0.74191 0.1516 0.04159 0.0
C1476 C 0.76457 0.18678 0.01786 0.0
C1477 C 0.77008 0.2004 0.98928 0.0
C1478 C 0.69722 0.11722 0.96512 0.0
C1479 C 0.7355 0.14902 0.99159 0.0
C1480 C 0.67064 0.10133 0.96694 0.0
C1481 C 0.65835 0.0944 0.99597 0.0
C1482 C 0.71147 0.12647 0.99251 0.0
C1483 C 0.67466 0.10176 0.02272 0.0
C1484 C 0.74741 0.1609 0.01914 0.0
C1485 C 0.76006 0.18656 0.96218 0.0
N1486 N 0.70008 0.11786 0.02035 0.0
N1487 N 0.74283 0.16182 0.96398 0.0
H1488 H 0.48123 0.71889 0.77633 0.0
H1489 H 0.52567 0.5718 0.86968 0.0
H1490 H 0.57296 0.69311 0.78694 0.0
H1491 H 0.45867 0.63486 0.89926 0.0
H1492 H 0.53723 0.60444 0.8253 0.0
H1493 H 0.46629 0.67473 0.80615 0.0
C1494 C 0.49805 0.70313 0.78395 0.0
C1495 C 0.52821 0.70922 0.77932 0.0
C1496 C 0.51981 0.61078 0.84142 0.0
C1497 C 0.51162 0.65935 0.81346 0.0
C1498 C 0.51339 0.59238 0.86674 0.0
C1499 C 0.49196 0.60116 0.88865 0.0
C1500 C 0.50372 0.63743 0.83752 0.0
C1501 C 0.47585 0.62755 0.88331 0.0
C1502 C 0.48963 0.67825 0.80112 0.0
C1503 C 0.54948 0.68874 0.79005 0.0
N1504 N 0.48207 0.64475 0.8583 0.0
N1505 N 0.54081 0.66471 0.80703 0.0
H1506 H 0.33923 0.5867 0.80362 0.0
H1507 H 0.44962 0.46932 0.8834 0.0
H1508 H 0.34796 0.49551 0.77367 0.0
H1509 H 0.42574 0.55504 0.92222 0.0
H1510 H 0.42199 0.48218 0.83623 0.0
H1511 H 0.38102 0.57935 0.83943 0.0
C1512 C 0.35063 0.56535 0.80414 0.0
C1513 C 0.3404 0.54164 0.78598 0.0
C1514 C 0.42317 0.4983 0.85494 0.0
C1515 C 0.38745 0.53264 0.8272 0.0
C1516 C 0.43893 0.49099 0.88188 0.0
C1517 C 0.43966 0.51097 0.90702 0.0
C1518 C 0.40819 0.52583 0.85308 0.0
C1519 C 0.42557 0.5388 0.9036 0.0
C1520 C 0.37425 0.56104 0.82464 0.0
C1521 C 0.35552 0.51427 0.78735 0.0
N1522 N 0.41027 0.54529 0.87728 0.0
N1523 N 0.37809 0.51032 0.80803 0.0
H1524 H 0.51562 0.26108 0.7926 0.0
H1525 H 0.51137 0.41841 0.87819 0.0
H1526 H 0.44136 0.32072 0.77966 0.0
H1527 H 0.54859 0.33901 0.91988 0.0
H1528 H 0.49179 0.3875 0.83561 0.0
H1529 H 0.53519 0.29435 0.83272 0.0
C1530 C 0.50333 0.28108 0.79845 0.0
C1531 C 0.47632 0.28773 0.78377 0.0
C1532 C 0.5042 0.377 0.8542 0.0
C1533 C 0.49917 0.32658 0.82853 0.0
C1534 C 0.5154 0.39455 0.87844 0.0
C1535 C 0.53171 0.38128 0.90266 0.0
C1536 C 0.50989 0.34614 0.85393 0.0
C1537 C 0.53621 0.35026 0.90177 0.0
C1538 C 0.5146 0.30019 0.82111 0.0
C1539 C 0.46207 0.3148 0.79094 0.0
N1540 N 0.52559 0.33383 0.87773 0.0
N1541 N 0.47363 0.33334 0.81291 0.0
H1542 H 0.65587 0.44254 0.78627 0.0
H1543 H 0.5809 0.57179 0.88329 0.0
H1544 H 0.67196 0.53588 0.77134 0.0
H1545 H 0.5641 0.47821 0.89862 0.0
H1546 H 0.6043 0.5595 0.83397 0.0
H1547 H 0.6118 0.45527 0.81712 0.0
C1548 C 0.64912 0.4657 0.78828 0.0
C1549 C 0.66742 0.48825 0.77656 0.0
C1550 C 0.59511 0.54163 0.84782 0.0
C1551 C 0.61809 0.50318 0.81274 0.0
C1552 C 0.58171 0.54863 0.8761 0.0
C1553 C 0.57072 0.52594 0.89536 0.0
C1554 C 0.59818 0.51163 0.83888 0.0
C1555 C 0.5725 0.49638 0.8847 0.0
C1556 C 0.62429 0.47304 0.80625 0.0
C1557 C 0.65823 0.51795 0.78002 0.0
N1558 N 0.5864 0.49003 0.8574 0.0
N1559 N 0.6346 0.52464 0.7985 0.0
H1560 H 0.45024 0.32196 0.21 0.0
H1561 H 0.57632 0.41759 0.12805 0.0
H1562 H 0.54195 0.32271 0.23829 0.0
H1563 H 0.48375 0.42482 0.10254 0.0
H1564 H 0.56249 0.38782 0.17272 0.0
H1565 H 0.45985 0.36465 0.17559 0.0
C1566 C 0.47214 0.33192 0.20965 0.0
C1567 C 0.49535 0.31919 0.22697 0.0
C1568 C 0.54505 0.39601 0.15759 0.0
C1569 C 0.50684 0.36708 0.18724 0.0
C1570 C 0.55295 0.41298 0.13188 0.0
C1571 C 0.53118 0.42322 0.11103 0.0
C1572 C 0.51508 0.38875 0.16256 0.0
C1573 C 0.50127 0.41701 0.11769 0.0
C1574 C 0.47773 0.356 0.18987 0.0
C1575 C 0.52351 0.33226 0.22549 0.0
N1576 N 0.4941 0.39977 0.14265 0.0
N1577 N 0.52858 0.3552 0.20562 0.0
H1578 H 0.69957 0.42981 0.21018 0.0
H1579 H 0.62495 0.46959 0.07766 0.0
H1580 H 0.66573 0.51494 0.24064 0.0
H1581 H 0.56425 0.51801 0.13688 0.0
H1582 H 0.6501 0.45015 0.12377 0.0
H1583 H 0.6595 0.4271 0.17155 0.0
C1584 C 0.68314 0.44754 0.20914 0.0
C1585 C 0.68606 0.47289 0.228 0.0
C1586 C 0.63055 0.46404 0.12678 0.0
C1587 C 0.64091 0.4704 0.1838 0.0
C1588 C 0.61621 0.47512 0.10037 0.0
C1589 C 0.59272 0.49552 0.10356 0.0
C1590 C 0.62149 0.47395 0.15638 0.0
C1591 C 0.58259 0.50254 0.13353 0.0
C1592 C 0.66056 0.44616 0.18697 0.0
C1593 C 0.66419 0.49515 0.22632 0.0
N1594 N 0.59748 0.49238 0.15878 0.0
N1595 N 0.64272 0.49362 0.20418 0.0
H1596 H 0.59217 0.74512 0.20909 0.0
H1597 H 0.47696 0.62477 0.14608 0.0
H1598 H 0.51317 0.71977 0.25872 0.0
H1599 H 0.56494 0.63456 0.10731 0.0
H1600 H 0.49017 0.65923 0.18758 0.0
H1601 H 0.58315 0.7048 0.17159 0.0
C1602 C 0.57315 0.73068 0.21221 0.0
C1603 C 0.55354 0.7354 0.23704 0.0
C1604 C 0.50671 0.65375 0.17017 0.0
C1605 C 0.54273 0.68967 0.19426 0.0
C1606 C 0.49915 0.63413 0.14634 0.0
C1607 C 0.51982 0.62696 0.12299 0.0
C1608 C 0.53505 0.66676 0.17057 0.0
C1609 C 0.54833 0.63951 0.12481 0.0
C1610 C 0.56799 0.70773 0.19091 0.0
C1611 C 0.52905 0.71642 0.24016 0.0
N1612 N 0.55501 0.65908 0.148 0.0
N1613 N 0.52419 0.69453 0.21886 0.0
H1614 H 0.33398 0.5974 0.21179 0.0
H1615 H 0.47261 0.50372 0.15318 0.0
H1616 H 0.36466 0.51546 0.25262 0.0
H1617 H 0.42848 0.57256 0.10042 0.0
H1618 H 0.44542 0.51977 0.19935 0.0
H1619 H 0.38056 0.6008 0.18235 0.0
C1620 C 0.35138 0.58105 0.21581 0.0
C1621 C 0.34573 0.55613 0.23449 0.0
C1622 C 0.4422 0.53188 0.17786 0.0
C1623 C 0.39831 0.55907 0.20024 0.0
C1624 C 0.45769 0.52273 0.15145 0.0
C1625 C 0.45239 0.53654 0.12272 0.0
C1626 C 0.42098 0.55483 0.17553 0.0
C1627 C 0.43319 0.56127 0.12199 0.0
C1628 C 0.3777 0.58267 0.19866 0.0
C1629 C 0.36845 0.53505 0.23852 0.0
N1630 N 0.4177 0.56927 0.14787 0.0
N1631 N 0.39353 0.53659 0.22094 0.0
H1632 H 0.75877 0.53641 0.72086 0.0
H1633 H 0.90765 0.46321 0.65262 0.0
H1634 H 0.78945 0.4481 0.74406 0.0
H1635 H 0.88685 0.55691 0.64312 0.0
H1636 H 0.86507 0.45773 0.6872 0.0
H1637 H 0.80504 0.54459 0.69147 0.0
C1638 C 0.77512 0.51865 0.71927 0.0
C1639 C 0.77033 0.49138 0.7343 0.0
C1640 C 0.87002 0.47961 0.67794 0.0
C1641 C 0.8233 0.50063 0.70166 0.0
C1642 C 0.89448 0.48279 0.65832 0.0
C1643 C 0.9008 0.51053 0.64482 0.0
C1644 C 0.85138 0.50425 0.68384 0.0
C1645 C 0.88289 0.53511 0.65307 0.0
C1646 C 0.80163 0.5234 0.70294 0.0
C1647 C 0.79242 0.4693 0.73247 0.0
N1648 N 0.85871 0.5313 0.67167 0.0
N1649 N 0.81787 0.47432 0.71637 0.0
H1650 H 0.4903 0.78484 0.70078 0.0
H1651 H 0.53982 0.94527 0.64395 0.0
H1652 H 0.56836 0.82974 0.73481 0.0
H1653 H 0.50594 0.88162 0.57754 0.0
H1654 H 0.53719 0.90722 0.68413 0.0
H1655 H 0.48477 0.8236 0.6607 0.0
C1656 C 0.50646 0.80261 0.69955 0.0
C1657 C 0.53017 0.80391 0.72074 0.0
C1658 C 0.5301 0.9017 0.6608 0.0
C1659 C 0.52303 0.84876 0.67638 0.0
C1660 C 0.53147 0.9234 0.63782 0.0
C1661 C 0.52373 0.91645 0.60709 0.0
C1662 C 0.52056 0.87289 0.65324 0.0
C1663 C 0.51254 0.88781 0.60082 0.0
C1664 C 0.50308 0.82479 0.67698 0.0
C1665 C 0.54978 0.82804 0.71896 0.0
N1666 N 0.51149 0.86689 0.62372 0.0
N1667 N 0.54568 0.84961 0.69732 0.0
H1668 H 0.25942 0.58444 0.69643 0.0
H1669 H 0.15331 0.47411 0.60128 0.0
H1670 H 0.25253 0.49039 0.71427 0.0
H1671 H 0.14821 0.57018 0.59436 0.0
H1672 H 0.19567 0.47907 0.63618 0.0
H1673 H 0.22475 0.57904 0.65256 0.0
C1674 C 0.25097 0.56258 0.69048 0.0
C1675 C 0.2588 0.53773 0.70833 0.0
C1676 C 0.18544 0.49907 0.62685 0.0
C1677 C 0.21903 0.53128 0.65911 0.0
C1678 C 0.16124 0.49628 0.60682 0.0
C1679 C 0.14684 0.52179 0.59511 0.0
C1680 C 0.1955 0.52757 0.63525 0.0
C1681 C 0.15837 0.54988 0.60304 0.0
C1682 C 0.23112 0.55947 0.66575 0.0
C1683 C 0.24708 0.50987 0.70053 0.0
N1684 N 0.18188 0.55202 0.62279 0.0
N1685 N 0.22763 0.50737 0.67654 0.0
H1686 H 0.41104 0.22363 0.67521 0.0
H1687 H 0.53167 0.10512 0.62528 0.0
H1688 H 0.50374 0.22962 0.69908 0.0
H1689 H 0.45897 0.12312 0.5628 0.0
H1690 H 0.5163 0.14733 0.65712 0.0
H1691 H 0.42361 0.18583 0.63547 0.0
C1692 C 0.43413 0.21782 0.67111 0.0
C1693 C 0.45647 0.22974 0.69013 0.0
C1694 C 0.50344 0.14196 0.63663 0.0
C1695 C 0.47076 0.18603 0.64625 0.0
C1696 C 0.51196 0.11763 0.61869 0.0
C1697 C 0.49619 0.11031 0.59172 0.0
C1698 C 0.47884 0.1593 0.62771 0.0
C1699 C 0.47102 0.12744 0.58401 0.0
C1700 C 0.44123 0.19611 0.64881 0.0
C1701 C 0.486 0.22119 0.68457 0.0
N1702 N 0.46302 0.15131 0.60199 0.0
N1703 N 0.49222 0.19944 0.6636 0.0
H1704 H 0.776 0.45164 0.31234 0.0
H1705 H 0.86448 0.5728 0.41006 0.0
H1706 H 0.75479 0.54514 0.30771 0.0
H1707 H 0.87039 0.47776 0.42582 0.0
H1708 H 0.82188 0.56419 0.37561 0.0
H1709 H 0.80846 0.46122 0.35681 0.0
C1710 C 0.77783 0.47412 0.32139 0.0
C1711 C 0.76277 0.49762 0.30699 0.0
C1712 C 0.83232 0.54532 0.38698 0.0
C1713 C 0.80027 0.50919 0.35702 0.0
C1714 C 0.85661 0.55022 0.40666 0.0
C1715 C 0.87139 0.52595 0.42048 0.0
C1716 C 0.82294 0.51597 0.38102 0.0
C1717 C 0.86008 0.49718 0.41535 0.0
C1718 C 0.79636 0.47971 0.34659 0.0
C1719 C 0.76601 0.52655 0.31874 0.0
N1720 N 0.83684 0.493 0.39581 0.0
N1721 N 0.78476 0.53167 0.34297 0.0
H1722 H 0.51536 0.77941 0.3392 0.0
H1723 H 0.53592 0.93568 0.41423 0.0
H1724 H 0.59666 0.82862 0.32811 0.0
H1725 H 0.48024 0.86972 0.45796 0.0
H1726 H 0.55961 0.89618 0.38385 0.0
H1727 H 0.50311 0.81002 0.38475 0.0
C1728 C 0.53112 0.79596 0.34711 0.0
C1729 C 0.55694 0.80173 0.32994 0.0
C1730 C 0.54263 0.89025 0.40056 0.0
C1731 C 0.54265 0.83753 0.38099 0.0
C1732 C 0.52919 0.91282 0.41808 0.0
C1733 C 0.50618 0.90607 0.43889 0.0
C1734 C 0.53248 0.86075 0.40322 0.0
C1735 C 0.49784 0.87602 0.44214 0.0
C1736 C 0.52404 0.81361 0.37289 0.0
C1737 C 0.57642 0.82379 0.34073 0.0
N1738 N 0.51062 0.85454 0.4241 0.0
N1739 N 0.56856 0.8414 0.36512 0.0
H1740 H 0.24564 0.58766 0.29033 0.0
H1741 H 0.10412 0.49062 0.34091 0.0
H1742 H 0.23302 0.49526 0.26665 0.0
H1743 H 0.115 0.58282 0.36752 0.0
H1744 H 0.14954 0.49362 0.31025 0.0
H1745 H 0.19747 0.58749 0.31769 0.0
C1746 C 0.2329 0.56725 0.29143 0.0
C1747 C 0.24323 0.54134 0.27659 0.0
C1748 C 0.14187 0.51337 0.32243 0.0
C1749 C 0.18801 0.54109 0.30677 0.0
C1750 C 0.11571 0.51174 0.33974 0.0
C1751 C 0.1057 0.53648 0.35694 0.0
C1752 C 0.15844 0.53988 0.32234 0.0
C1753 C 0.12176 0.56323 0.35452 0.0
C1754 C 0.2053 0.56721 0.30663 0.0
C1755 C 0.22569 0.51562 0.27791 0.0
N1756 N 0.14755 0.56412 0.33789 0.0
N1757 N 0.19898 0.51614 0.29264 0.0
H1758 H 0.45664 0.24597 0.31606 0.0
H1759 H 0.53284 0.10377 0.39513 0.0
H1760 H 0.54378 0.21483 0.28989 0.0
H1761 H 0.45303 0.1469 0.4287 0.0
H1762 H 0.54011 0.14552 0.35893 0.0
H1763 H 0.45717 0.21144 0.36007 0.0
C1764 C 0.47596 0.2319 0.31984 0.0
C1765 C 0.49988 0.23264 0.29913 0.0
C1766 C 0.52123 0.14593 0.37455 0.0
C1767 C 0.50072 0.19268 0.34895 0.0
C1768 C 0.51716 0.12212 0.39527 0.0
C1769 C 0.492 0.12145 0.41454 0.0
C1770 C 0.49995 0.1691 0.37324 0.0
C1771 C 0.47246 0.14605 0.41385 0.0
C1772 C 0.47632 0.21213 0.34483 0.0
C1773 C 0.52451 0.21408 0.30481 0.0
N1774 N 0.47666 0.16856 0.39337 0.0
N1775 N 0.52419 0.19454 0.329 0.0
H1776 H 0.69909 0.79635 0.44672 0.0
H1777 H 0.62091 0.93385 0.53284 0.0
H1778 H 0.72729 0.82992 0.53534 0.0
H1779 H 0.59336 0.89963 0.44376 0.0
H1780 H 0.65465 0.89111 0.53838 0.0
H1781 H 0.65453 0.82826 0.44964 0.0
C1782 C 0.69523 0.80982 0.46722 0.0
C1783 C 0.71645 0.81056 0.49091 0.0
C1784 C 0.64095 0.89277 0.51778 0.0
C1785 C 0.66648 0.84785 0.49414 0.0
C1786 C 0.62167 0.9172 0.51459 0.0
C1787 C 0.60457 0.92063 0.48756 0.0
C1788 C 0.64319 0.8716 0.49375 0.0
C1789 C 0.60635 0.89817 0.46483 0.0
C1790 C 0.67007 0.82824 0.46883 0.0
C1791 C 0.71107 0.82871 0.51684 0.0
N1792 N 0.62551 0.87485 0.4683 0.0
N1793 N 0.68681 0.847 0.5176 0.0
H1794 H 0.7265 0.20232 0.53571 0.0
H1795 H 0.57364 0.15499 0.45745 0.0
H1796 H 0.68596 0.24746 0.45847 0.0
H1797 H 0.61727 0.10291 0.52828 0.0
H1798 H 0.60815 0.19567 0.46709 0.0
H1799 H 0.68101 0.17281 0.54257 0.0
C1800 C 0.70751 0.20654 0.52085 0.0
C1801 C 0.70968 0.22708 0.49645 0.0
C1802 C 0.61 0.17559 0.48093 0.0
C1803 C 0.65806 0.19335 0.50363 0.0
C1804 C 0.59025 0.15234 0.47547 0.0
C1805 C 0.59293 0.12539 0.49179 0.0
C1806 C 0.63303 0.17179 0.50255 0.0
C1807 C 0.61454 0.1233 0.51515 0.0
C1808 C 0.68172 0.18964 0.52459 0.0
C1809 C 0.68488 0.23182 0.47755 0.0
N1810 N 0.63422 0.14602 0.51943 0.0
N1811 N 0.66019 0.21476 0.48125 0.0
H1812 H 0.79152 0.73727 0.54118 0.0
H1813 H 0.91257 0.62272 0.47224 0.0
H1814 H 0.82582 0.74534 0.44837 0.0
H1815 H 0.89375 0.63345 0.56987 0.0
H1816 H 0.87849 0.66462 0.46121 0.0
H1817 H 0.82593 0.6956 0.55048 0.0
C1818 C 0.80613 0.72992 0.52268 0.0
C1819 C 0.8057 0.74433 0.49389 0.0
C1820 C 0.882 0.65778 0.48502 0.0
C1821 C 0.84541 0.69697 0.50426 0.0
C1822 C 0.90145 0.6339 0.49132 0.0
C1823 C 0.90613 0.62451 0.52203 0.0
C1824 C 0.86689 0.67205 0.50958 0.0
C1825 C 0.89096 0.6398 0.54582 0.0
C1826 C 0.82594 0.70635 0.52799 0.0
C1827 C 0.82555 0.73456 0.47083 0.0
N1828 N 0.87202 0.66258 0.53908 0.0
N1829 N 0.84453 0.71136 0.47641 0.0
H1830 H 0.27674 0.80597 0.48552 0.0
H1831 H 0.41694 0.88576 0.56472 0.0
H1832 H 0.31057 0.78304 0.57577 0.0
H1833 H 0.37259 0.92006 0.48331 0.0
H1834 H 0.38325 0.84314 0.56457 0.0
H1835 H 0.31647 0.84302 0.47995 0.0
C1836 C 0.2927 0.8087 0.50407 0.0
C1837 C 0.29031 0.79183 0.53131 0.0
C1838 C 0.381 0.85988 0.54661 0.0
C1839 C 0.33596 0.83376 0.5251 0.0
C1840 C 0.4003 0.88424 0.54662 0.0
C1841 C 0.39744 0.90678 0.52418 0.0
C1842 C 0.35865 0.85786 0.52394 0.0
C1843 C 0.3755 0.90339 0.50123 0.0
C1844 C 0.3154 0.82973 0.50088 0.0
C1845 C 0.31186 0.79564 0.55442 0.0
N1846 N 0.35685 0.87952 0.50181 0.0
N1847 N 0.33369 0.81631 0.5509 0.0
H1848 H 0.22361 0.31022 0.47989 0.0
H1849 H 0.13205 0.45609 0.52958 0.0
H1850 H 0.21014 0.33459 0.5754 0.0
H1851 H 0.11885 0.409 0.44328 0.0
H1852 H 0.16855 0.41808 0.54504 0.0
H1853 H 0.19442 0.35408 0.46387 0.0
C1854 C 0.2152 0.3255 0.49734 0.0
C1855 C 0.21928 0.31934 0.52884 0.0
C1856 C 0.15763 0.41618 0.52274 0.0
C1857 C 0.18554 0.36872 0.51111 0.0
C1858 C 0.13675 0.43777 0.51394 0.0
C1859 C 0.12221 0.4356 0.48522 0.0
C1860 C 0.16434 0.3926 0.50239 0.0
C1861 C 0.12934 0.41147 0.46574 0.0
C1862 C 0.1983 0.35018 0.48834 0.0
C1863 C 0.20755 0.33911 0.55089 0.0
N1864 N 0.14998 0.39098 0.47464 0.0
N1865 N 0.19098 0.36296 0.54163 0.0
H1866 H 0.29308 0.23814 0.48954 0.0
H1867 H 0.38787 0.11453 0.57999 0.0
H1868 H 0.27557 0.21237 0.58388 0.0
H1869 H 0.38343 0.11776 0.47991 0.0
H1870 H 0.35191 0.15538 0.58262 0.0
H1871 H 0.33185 0.19915 0.48633 0.0
C1872 C 0.29792 0.22456 0.50969 0.0
C1873 C 0.28164 0.22839 0.53714 0.0
C1874 C 0.35871 0.14704 0.56009 0.0
C1875 C 0.32528 0.18402 0.53373 0.0
C1876 C 0.37923 0.12367 0.55853 0.0
C1877 C 0.38856 0.11247 0.52967 0.0
C1878 C 0.34752 0.15955 0.53261 0.0
C1879 C 0.37676 0.12554 0.50268 0.0
C1880 C 0.31969 0.20222 0.50781 0.0
C1881 C 0.28796 0.20997 0.56247 0.0
N1882 N 0.35688 0.14845 0.5048 0.0
N1883 N 0.30937 0.18861 0.56023 0.0
H1884 H 0.80209 0.2868 0.53913 0.0
H1885 H 0.87258 0.43279 0.46696 0.0
H1886 H 0.80032 0.30225 0.44071 0.0
H1887 H 0.90833 0.3912 0.5493 0.0
H1888 H 0.84199 0.38837 0.45802 0.0
H1889 H 0.83694 0.32858 0.54518 0.0
C1890 C 0.80927 0.29904 0.51885 0.0
C1891 C 0.79892 0.29114 0.48938 0.0
C1892 C 0.85678 0.38894 0.47784 0.0
C1893 C 0.83771 0.33922 0.496 0.0
C1894 C 0.87422 0.41425 0.48298 0.0
C1895 C 0.89299 0.41579 0.50899 0.0
C1896 C 0.85769 0.36529 0.49918 0.0
C1897 C 0.89419 0.39106 0.52897 0.0
C1898 C 0.82905 0.32277 0.52222 0.0
C1899 C 0.80822 0.30779 0.46371 0.0
N1900 N 0.87651 0.36702 0.52387 0.0
N1901 N 0.82693 0.33131 0.4676 0.0
H1902 H 0.20554 0.70225 0.58997 0.0
H1903 H 0.12763 0.61205 0.45412 0.0
H1904 H 0.23493 0.70145 0.49504 0.0
H1905 H 0.10181 0.59995 0.54978 0.0
H1906 H 0.16926 0.64182 0.4706 0.0
H1907 H 0.17128 0.66098 0.57831 0.0
C1908 C 0.20545 0.69255 0.56695 0.0
C1909 C 0.22303 0.70499 0.5434 0.0
C1910 C 0.15483 0.63251 0.48821 0.0
C1911 C 0.18356 0.6587 0.52962 0.0
C1912 C 0.13073 0.61552 0.47879 0.0
C1913 C 0.11091 0.60341 0.5006 0.0
C1914 C 0.15944 0.638 0.51984 0.0
C1915 C 0.11654 0.6087 0.53219 0.0
C1916 C 0.18576 0.66928 0.56022 0.0
C1917 C 0.22197 0.69216 0.51384 0.0
N1918 N 0.14019 0.6259 0.5409 0.0
N1919 N 0.20225 0.67005 0.50768 0.0
loop_
_geom_bond_atom_site_label_1
_geom_bond_atom_site_label_2
_geom_bond_distance
_geom_bond_site_symmetry_2
_ccdc_geom_bond_type
C0 N1 1.317 . S
C0 N2 1.348 . S
C0 C3 1.485 . S
N1 C0 1.317 . S
N1 N5 1.370 . S
N2 C0 1.348 . S
N2 C4 1.346 . S
C3 C0 1.485 . S
C3 H7 0.960 . S
C3 H8 0.961 . S
C3 H9 0.960 . S
C4 N2 1.346 . S
C4 N5 1.307 . S
C4 C6 1.486 . S
N5 N1 1.370 . S
N5 C4 1.307 . S
C6 C4 1.486 . S
C6 H10 0.960 . S
C6 H11 0.960 . S
C6 H12 0.959 . S
H7 C3 0.960 . S
H8 C3 0.961 . S
H9 C3 0.960 . S
H10 C6 0.960 . S
H11 C6 0.960 . S
H12 C6 0.959 . S
C13 N14 1.317 . S
C13 N15 1.348 . S
C13 C16 1.485 . S
N14 C13 1.317 . S
N14 N18 1.370 . S
N15 C13 1.348 . S
N15 C17 1.346 . S
C16 C13 1.485 . S
C16 H20 0.960 . S
C16 H21 0.961 . S
C16 H22 0.960 . S
C17 N15 1.346 . S
C17 N18 1.307 . S
C17 C19 1.486 . S
N18 N14 1.370 . S
N18 C17 1.307 . S
C19 C17 1.486 . S
C19 H23 0.960 . S
C19 H24 0.960 . S
C19 H25 0.959 . S
H20 C16 0.960 . S
H21 C16 0.961 . S
H22 C16 0.960 . S
H23 C19 0.960 . S
H24 C19 0.960 . S
H25 C19 0.959 . S
C26 N27 1.317 . S
C26 N28 1.348 . S
C26 C29 1.485 . S
N27 C26 1.317 . S
N27 N31 1.370 . S
N28 C26 1.348 . S
N28 C30 1.346 . S
C29 C26 1.485 . S
C29 H33 0.960 . S
C29 H34 0.961 . S
C29 H35 0.960 . S
C30 N28 1.346 . S
C30 N31 1.307 . S
C30 C32 1.486 . S
N31 N27 1.370 . S
N31 C30 1.307 . S
C32 C30 1.486 . S
C32 H36 0.960 . S
C32 H37 0.960 . S
C32 H38 0.959 . S
H33 C29 0.960 . S
H34 C29 0.961 . S
H35 C29 0.960 . S
H36 C32 0.960 . S
H37 C32 0.960 . S
H38 C32 0.959 . S
C39 N40 1.317 . S
C39 N41 1.347 1_565 S
C39 C42 1.486 . S
N40 C39 1.317 . S
N40 N44 1.370 1_565 S
N41 C39 1.347 1_545 S
N41 C43 1.347 . S
C42 C39 1.486 . S
C42 H46 0.960 1_565 S
C42 H47 0.961 . S
C42 H48 0.960 . S
C43 N41 1.347 . S
C43 N44 1.307 . S
C43 C45 1.486 . S
N44 N40 1.370 1_545 S
N44 C43 1.307 . S
C45 C43 1.486 . S
C45 H49 0.960 1_545 S
C45 H50 0.960 . S
C45 H51 0.959 . S
H46 C42 0.960 1_545 S
H47 C42 0.961 . S
H48 C42 0.960 . S
H49 C45 0.960 1_565 S
H50 C45 0.960 . S
H51 C45 0.959 . S
C52 N53 1.317 . S
C52 N54 1.348 . S
C52 C55 1.485 . S
N53 C52 1.317 . S
N53 N57 1.371 . S
N54 C52 1.348 . S
N54 C56 1.347 . S
C55 C52 1.485 . S
C55 H59 0.960 1_455 S
C55 H60 0.961 . S
C55 H61 0.960 . S
C56 N54 1.347 . S
C56 N57 1.307 . S
C56 C58 1.486 . S
N57 N53 1.371 . S
N57 C56 1.307 . S
C58 C56 1.486 . S
C58 H62 0.967 . S
C58 H63 0.954 1_455 S
C58 H64 0.957 1_455 S
H59 C55 0.960 1_655 S
H60 C55 0.961 . S
H61 C55 0.960 . S
H62 C58 0.967 . S
H63 C58 0.954 1_655 S
H64 C58 0.957 1_655 S
C65 N66 1.317 . S
C65 N67 1.348 . S
C65 C68 1.485 . S
N66 C65 1.317 . S
N66 N70 1.370 . S
N67 C65 1.348 . S
N67 C69 1.346 . S
C68 C65 1.485 . S
C68 H72 0.960 1_545 S
C68 H73 0.961 . S
C68 H74 0.960 . S
C69 N67 1.346 . S
C69 N70 1.307 . S
C69 C71 1.486 . S
N70 N66 1.370 . S
N70 C69 1.307 . S
C71 C69 1.486 . S
C71 H75 0.960 . S
C71 H76 0.960 1_545 S
C71 H77 0.959 1_545 S
H72 C68 0.960 1_565 S
H73 C68 0.961 . S
H74 C68 0.960 . S
H75 C71 0.960 . S
H76 C71 0.960 1_565 S
H77 C71 0.959 1_565 S
C78 N79 1.317 . S
C78 N80 1.348 . S
C78 C81 1.485 . S
N79 C78 1.317 . S
N79 N83 1.370 . S
N80 C78 1.348 . S
N80 C82 1.346 . S
C81 C78 1.485 . S
C81 H85 0.960 . S
C81 H86 0.961 . S
C81 H87 0.960 . S
C82 N80 1.346 . S
C82 N83 1.307 . S
C82 C84 1.486 . S
N83 N79 1.370 . S
N83 C82 1.307 . S
C84 C82 1.486 . S
C84 H88 0.960 . S
C84 H89 0.960 . S
C84 H90 0.959 . S
H85 C81 0.960 . S
H86 C81 0.961 . S
H87 C81 0.960 . S
H88 C84 0.960 . S
H89 C84 0.960 . S
H90 C84 0.959 . S
C91 N92 1.317 . S
C91 N93 1.348 . S
C91 C94 1.485 . S
N92 C91 1.317 . S
N92 N96 1.370 . S
N93 C91 1.348 . S
N93 C95 1.346 . S
C94 C91 1.485 . S
C94 H98 0.960 . S
C94 H99 0.961 . S
C94 H100 0.960 . S
C95 N93 1.346 . S
C95 N96 1.307 . S
C95 C97 1.486 . S
N96 N92 1.370 . S
N96 C95 1.307 . S
C97 C95 1.486 . S
C97 H101 0.960 . S
C97 H102 0.960 . S
C97 H103 0.959 . S
H98 C94 0.960 . S
H99 C94 0.961 . S
H100 C94 0.960 . S
H101 C97 0.960 . S
H102 C97 0.960 . S
H103 C97 0.959 . S
C104 N105 1.317 . S
C104 N106 1.348 . S
C104 C107 1.485 . S
N105 C104 1.317 . S
N105 N109 1.370 . S
N106 C104 1.348 . S
N106 C108 1.346 . S
C107 C104 1.485 . S
C107 H111 0.988 . S
C107 H112 0.961 . S
C107 H113 0.960 . S
C108 N106 1.346 . S
C108 N109 1.307 . S
C108 C110 1.486 . S
N109 N105 1.370 . S
N109 C108 1.307 . S
C110 C108 1.486 . S
C110 H114 0.960 . S
C110 H115 0.975 . S
C110 H116 0.959 . S
H111 C107 0.988 . S
H112 C107 0.961 . S
H113 C107 0.960 . S
H114 C110 0.960 . S
H115 C110 0.975 . S
H116 C110 0.959 . S
C117 N118 1.317 . S
C117 N119 1.348 . S
C117 C120 1.485 . S
N118 C117 1.317 . S
N118 N122 1.370 . S
N119 C117 1.348 . S
N119 C121 1.346 . S
C120 C117 1.485 . S
C120 H124 0.960 . S
C120 H125 0.961 1_554 S
C120 H126 0.960 . S
C121 N119 1.346 . S
C121 N122 1.307 . S
C121 C123 1.486 . S
N122 N118 1.370 . S
N122 C121 1.307 . S
C123 C121 1.486 . S
C123 H127 0.960 1_554 S
C123 H128 0.960 . S
C123 H129 0.959 . S
H124 C120 0.960 . S
H125 C120 0.961 1_556 S
H126 C120 0.960 . S
H127 C123 0.960 1_556 S
H128 C123 0.960 . S
H129 C123 0.959 . S
C130 N131 1.317 . S
C130 N132 1.350 . S
C130 C133 1.485 . S
N131 C130 1.317 . S
N131 N135 1.371 . S
N132 C130 1.350 . S
N132 C134 1.345 1_556 S
C133 C130 1.485 . S
C133 H137 0.960 1_556 S
C133 H138 0.961 . S
C133 H139 0.960 . S
C134 N132 1.345 1_554 S
C134 N135 1.307 1_554 S
C134 C136 1.486 . S
N135 N131 1.371 . S
N135 C134 1.307 1_556 S
C136 C134 1.486 . S
C136 H140 0.960 1_554 S
C136 H141 0.960 . S
C136 H142 0.959 . S
H137 C133 0.960 1_554 S
H138 C133 0.961 . S
H139 C133 0.960 . S
H140 C136 0.960 1_556 S
H141 C136 0.960 . S
H142 C136 0.959 . S
C143 N144 1.317 . S
C143 N145 1.348 . S
C143 C146 1.485 . S
N144 C143 1.317 . S
N144 N148 1.370 . S
N145 C143 1.348 . S
N145 C147 1.346 . S
C146 C143 1.485 . S
C146 H150 0.960 1_554 S
C146 H151 0.961 . S
C146 H152 0.960 . S
C147 N145 1.346 . S
C147 N148 1.307 . S
C147 C149 1.486 . S
N148 N144 1.370 . S
N148 C147 1.307 . S
C149 C147 1.486 . S
C149 H153 0.960 . S
C149 H154 0.960 1_554 S
C149 H155 0.959 1_554 S
H150 C146 0.960 1_556 S
H151 C146 0.961 . S
H152 C146 0.960 . S
H153 C149 0.960 . S
H154 C149 0.960 1_556 S
H155 C149 0.959 1_556 S
C156 N157 1.317 . S
C156 N158 1.348 . S
C156 C159 1.485 . S
N157 C156 1.317 . S
N157 N161 1.370 . S
N158 C156 1.348 . S
N158 C160 1.346 . S
C159 C156 1.485 . S
C159 H163 0.960 . S
C159 H164 0.961 . S
C159 H165 0.960 . S
C160 N158 1.346 . S
C160 N161 1.307 . S
C160 C162 1.486 . S
N161 N157 1.370 . S
N161 C160 1.307 . S
C162 C160 1.486 . S
C162 H166 0.960 . S
C162 H167 0.960 . S
C162 H168 0.959 . S
H163 C159 0.960 . S
H164 C159 0.961 . S
H165 C159 0.960 . S
H166 C162 0.960 . S
H167 C162 0.960 . S
H168 C162 0.959 . S
C169 N170 1.317 . S
C169 N171 1.348 . S
C169 C172 1.485 . S
N170 C169 1.317 . S
N170 N174 1.370 . S
N171 C169 1.348 . S
N171 C173 1.346 . S
C172 C169 1.485 . S
C172 H176 0.960 . S
C172 H177 0.961 . S
C172 H178 0.960 . S
C173 N171 1.346 . S
C173 N174 1.307 . S
C173 C175 1.486 . S
N174 N170 1.370 . S
N174 C173 1.307 . S
C175 C173 1.486 . S
C175 H179 0.960 . S
C175 H180 0.960 . S
C175 H181 0.959 . S
H176 C172 0.960 . S
H177 C172 0.961 . S
H178 C172 0.960 . S
H179 C175 0.960 . S
H180 C175 0.960 . S
H181 C175 0.959 . S
C182 N183 1.317 . S
C182 N184 1.348 . S
C182 C185 1.485 . S
N183 C182 1.317 . S
N183 N187 1.370 . S
N184 C182 1.348 . S
N184 C186 1.346 . S
C185 C182 1.485 . S
C185 H189 0.960 . S
C185 H190 0.961 . S
C185 H191 0.960 . S
C186 N184 1.346 . S
C186 N187 1.307 . S
C186 C188 1.486 . S
N187 N183 1.370 . S
N187 C186 1.307 . S
C188 C186 1.486 . S
C188 H192 0.960 . S
C188 H193 0.960 . S
C188 H194 0.959 . S
H189 C185 0.960 . S
H190 C185 0.961 . S
H191 C185 0.960 . S
H192 C188 0.960 . S
H193 C188 0.960 . S
H194 C188 0.959 . S
C195 N196 1.317 . S
C195 N197 1.348 . S
C195 C198 1.485 . S
N196 C195 1.317 . S
N196 N200 1.370 . S
N197 C195 1.348 . S
N197 C199 1.346 . S
C198 C195 1.485 . S
C198 H202 0.960 . S
C198 H203 0.961 . S
C198 H204 0.960 . S
C199 N197 1.346 . S
C199 N200 1.307 . S
C199 C201 1.486 . S
N200 N196 1.370 . S
N200 C199 1.307 . S
C201 C199 1.486 . S
C201 H205 0.960 . S
C201 H206 0.960 . S
C201 H207 0.959 . S
H202 C198 0.960 . S
H203 C198 0.961 . S
H204 C198 0.960 . S
H205 C201 0.960 . S
H206 C201 0.960 . S
H207 C201 0.959 . S
C208 N209 1.317 . S
C208 N210 1.348 . S
C208 C211 1.485 . S
N209 C208 1.317 . S
N209 N213 1.370 . S
N210 C208 1.348 . S
N210 C212 1.346 . S
C211 C208 1.485 . S
C211 H215 0.960 . S
C211 H216 0.961 . S
C211 H217 0.960 . S
C212 N210 1.346 . S
C212 N213 1.307 . S
C212 C214 1.486 . S
N213 N209 1.370 . S
N213 C212 1.307 . S
C214 C212 1.486 . S
C214 H218 0.960 . S
C214 H219 0.960 . S
C214 H220 0.959 . S
H215 C211 0.960 . S
H216 C211 0.961 . S
H217 C211 0.960 . S
H218 C214 0.960 . S
H219 C214 0.960 . S
H220 C214 0.959 . S
C221 N222 1.317 . S
C221 N223 1.348 . S
C221 C224 1.485 . S
N222 C221 1.317 . S
N222 N226 1.370 . S
N223 C221 1.348 . S
N223 C225 1.346 . S
C224 C221 1.485 . S
C224 H228 0.960 . S
C224 H229 0.961 . S
C224 H230 0.960 . S
C225 N223 1.346 . S
C225 N226 1.307 . S
C225 C227 1.486 . S
N226 N222 1.370 . S
N226 C225 1.307 . S
C227 C225 1.486 . S
C227 H231 0.960 . S
C227 H232 0.960 . S
C227 H233 0.959 . S
H228 C224 0.960 . S
H229 C224 0.961 . S
H230 C224 0.960 . S
H231 C227 0.960 . S
H232 C227 0.960 . S
H233 C227 0.959 . S
C234 N235 1.317 . S
C234 N236 1.348 . S
C234 C237 1.485 . S
N235 C234 1.317 . S
N235 N239 1.370 . S
N236 C234 1.348 . S
N236 C238 1.346 . S
C237 C234 1.485 . S
C237 H241 0.960 . S
C237 H242 0.961 . S
C237 H243 0.960 . S
C238 N236 1.346 . S
C238 N239 1.307 . S
C238 C240 1.486 . S
N239 N235 1.370 . S
N239 C238 1.307 . S
C240 C238 1.486 . S
C240 H244 0.960 . S
C240 H245 0.960 . S
C240 H246 0.959 . S
H241 C237 0.960 . S
H242 C237 0.961 . S
H243 C237 0.960 . S
H244 C240 0.960 . S
H245 C240 0.960 . S
H246 C240 0.959 . S
C247 N248 1.317 . S
C247 N249 1.348 . S
C247 C250 1.485 . S
N248 C247 1.317 . S
N248 N252 1.370 . S
N249 C247 1.348 . S
N249 C251 1.346 . S
C250 C247 1.485 . S
C250 H254 0.960 . S
C250 H255 0.961 . S
C250 H256 0.960 . S
C251 N249 1.346 . S
C251 N252 1.307 . S
C251 C253 1.486 . S
N252 N248 1.370 . S
N252 C251 1.307 . S
C253 C251 1.486 . S
C253 H257 0.960 . S
C253 H258 0.960 . S
C253 H259 0.959 . S
H254 C250 0.960 . S
H255 C250 0.961 . S
H256 C250 0.960 . S
H257 C253 0.960 . S
H258 C253 0.960 . S
H259 C253 0.959 . S
C260 N261 1.317 . S
C260 N262 1.348 . S
C260 C263 1.485 . S
N261 C260 1.317 . S
N261 N265 1.370 . S
N262 C260 1.348 . S
N262 C264 1.346 . S
C263 C260 1.485 . S
C263 H267 0.960 . S
C263 H268 0.961 . S
C263 H269 0.960 . S
C264 N262 1.346 . S
C264 N265 1.307 . S
C264 C266 1.486 . S
N265 N261 1.370 . S
N265 C264 1.307 . S
C266 C264 1.486 . S
C266 H270 0.960 . S
C266 H271 0.960 . S
C266 H272 0.959 . S
H267 C263 0.960 . S
H268 C263 0.961 . S
H269 C263 0.960 . S
H270 C266 0.960 . S
H271 C266 0.960 . S
H272 C266 0.959 . S
C273 N274 1.317 . S
C273 N275 1.348 . S
C273 C276 1.485 . S
N274 C273 1.317 . S
N274 N278 1.370 . S
N275 C273 1.348 . S
N275 C277 1.346 . S
C276 C273 1.485 . S
C276 H280 0.960 . S
C276 H281 0.961 . S
C276 H282 0.960 . S
C277 N275 1.346 . S
C277 N278 1.307 . S
C277 C279 1.486 . S
N278 N274 1.370 . S
N278 C277 1.307 . S
C279 C277 1.486 . S
C279 H283 0.960 . S
C279 H284 0.960 . S
C279 H285 0.959 . S
H280 C276 0.960 . S
H281 C276 0.961 . S
H282 C276 0.960 . S
H283 C279 0.960 . S
H284 C279 0.960 . S
H285 C279 0.959 . S
C286 N287 1.317 . S
C286 N288 1.348 . S
C286 C289 1.485 . S
N287 C286 1.317 . S
N287 N291 1.370 . S
N288 C286 1.348 . S
N288 C290 1.346 . S
C289 C286 1.485 . S
C289 H293 0.960 . S
C289 H294 0.961 . S
C289 H295 0.960 . S
C290 N288 1.346 . S
C290 N291 1.307 . S
C290 C292 1.486 . S
N291 N287 1.370 . S
N291 C290 1.307 . S
C292 C290 1.486 . S
C292 H296 0.960 . S
C292 H297 0.960 . S
C292 H298 0.959 . S
H293 C289 0.960 . S
H294 C289 0.961 . S
H295 C289 0.960 . S
H296 C292 0.960 . S
H297 C292 0.960 . S
H298 C292 0.959 . S
C299 N300 1.317 . S
C299 N301 1.348 . S
C299 C302 1.485 . S
N300 C299 1.317 . S
N300 N304 1.370 . S
N301 C299 1.348 . S
N301 C303 1.346 . S
C302 C299 1.485 . S
C302 H306 0.960 . S
C302 H307 0.961 . S
C302 H308 0.960 . S
C303 N301 1.346 . S
C303 N304 1.307 . S
C303 C305 1.486 . S
N304 N300 1.370 . S
N304 C303 1.307 . S
C305 C303 1.486 . S
C305 H309 0.960 . S
C305 H310 0.960 . S
C305 H311 0.959 . S
H306 C302 0.960 . S
H307 C302 0.961 . S
H308 C302 0.960 . S
H309 C305 0.960 . S
H310 C305 0.960 . S
H311 C305 0.959 . S
Zn312 O314 1.933 1_665 S
Zn312 O332 1.985 . S
Zn312 O343 1.955 1_655 S
Zn313 O314 1.911 1_655 S
Zn313 O333 1.970 . S
Zn313 O349 1.945 1_655 S
Zn313 O356 1.981 . S
O314 Zn312 1.933 1_445 S
O314 Zn313 1.911 1_455 S
O314 H315 0.841 . S
H315 O314 0.841 . S
C316 O317 1.246 . S
C316 O345 1.276 . S
O317 C316 1.246 . S
Zn318 O320 1.911 . S
Zn318 O335 1.970 . S
Zn318 O352 1.945 . S
Zn318 O359 1.981 . S
Zn319 O320 1.933 1_565 S
Zn319 O334 1.985 . S
Zn319 O341 1.955 . S
O320 Zn318 1.911 . S
O320 Zn319 1.933 1_545 S
O320 H321 0.841 . S
H321 O320 0.841 . S
Zn322 O323 1.933 1_565 S
Zn322 O336 1.985 . S
Zn322 O345 1.955 . S
O323 Zn322 1.933 1_545 S
O323 Zn324 1.911 . S
O323 H325 0.841 . S
Zn324 O323 1.911 . S
Zn324 O337 1.970 . S
Zn324 O353 1.981 1_655 S
Zn324 O355 1.945 . S
H325 O323 0.841 . S
Zn326 O327 1.933 1_565 S
Zn326 O339 1.985 . S
Zn326 O347 1.955 . S
O327 Zn326 1.933 1_545 S
O327 H328 0.841 . S
O327 Zn329 1.911 . S
H328 O327 0.841 . S
Zn329 O327 1.911 . S
Zn329 O340 1.970 . S
Zn329 O350 1.981 . S
Zn329 O358 1.945 . S
C330 O331 1.246 . S
C330 O347 1.276 . S
O331 C330 1.246 . S
O332 Zn312 1.985 . S
O332 C342 1.245 1_565 S
O333 Zn313 1.970 . S
O333 C342 1.263 . S
O334 Zn319 1.985 . S
O334 C346 1.245 1_565 S
O335 Zn318 1.970 . S
O335 C346 1.263 . S
O336 Zn322 1.985 . S
O336 C351 1.245 1_565 S
O337 Zn324 1.970 . S
O337 C351 1.263 . S
C338 O349 1.262 . S
C338 O350 1.245 . S
O339 Zn326 1.985 . S
O339 C357 1.245 1_565 S
O340 Zn329 1.970 . S
O340 C357 1.263 . S
O341 Zn319 1.955 . S
O341 C360 1.276 . S
C342 O332 1.245 1_545 S
C342 O333 1.263 . S
O343 Zn312 1.955 1_455 S
O343 C362 1.276 . S
C344 O352 1.262 . S
C344 O353 1.245 . S
O345 C316 1.276 . S
O345 Zn322 1.955 . S
C346 O334 1.245 1_545 S
C346 O335 1.263 . S
O347 Zn326 1.955 . S
O347 C330 1.276 . S
C348 O355 1.262 . S
C348 O356 1.245 . S
O349 Zn313 1.945 1_455 S
O349 C338 1.262 . S
O350 Zn329 1.981 . S
O350 C338 1.245 . S
C351 O336 1.245 1_545 S
C351 O337 1.263 . S
O352 Zn318 1.945 . S
O352 C344 1.262 . S
O353 Zn324 1.981 1_455 S
O353 C344 1.245 . S
C354 O358 1.262 . S
C354 O359 1.245 . S
O355 Zn324 1.945 . S
O355 C348 1.262 . S
O356 Zn313 1.981 . S
O356 C348 1.245 . S
C357 O339 1.245 1_545 S
C357 O340 1.263 . S
O358 Zn329 1.945 . S
O358 C354 1.262 . S
O359 Zn318 1.981 . S
O359 C354 1.245 . S
C360 O341 1.276 . S
C360 O361 1.246 . S
O361 C360 1.246 . S
C362 O343 1.276 . S
C362 O363 1.246 . S
O363 C362 1.246 . S
Zn364 O366 1.933 . S
Zn364 O384 1.985 . S
Zn364 O395 1.955 . S
Zn365 O366 1.911 1_556 S
Zn365 O385 1.970 . S
Zn365 O401 1.945 . S
Zn365 O408 1.981 . S
O366 Zn364 1.933 . S
O366 Zn365 1.911 1_554 S
O366 H367 0.841 . S
H367 O366 0.841 . S
C368 O369 1.246 . S
C368 O397 1.276 . S
O369 C368 1.246 . S
Zn370 O372 1.911 1_556 S
Zn370 O387 1.970 . S
Zn370 O404 1.945 . S
Zn370 O411 1.981 . S
Zn371 O372 1.933 . S
Zn371 O386 1.985 . S
Zn371 O393 1.955 . S
O372 Zn370 1.911 1_554 S
O372 Zn371 1.933 . S
O372 H373 0.841 1_565 S
H373 O372 0.841 1_545 S
Zn374 O375 1.933 . S
Zn374 O388 1.985 . S
Zn374 O397 1.955 . S
O375 Zn374 1.933 . S
O375 Zn376 1.911 1_554 S
O375 H377 0.841 . S
Zn376 O375 1.911 1_556 S
Zn376 O389 1.970 . S
Zn376 O405 1.981 . S
Zn376 O407 1.945 . S
H377 O375 0.841 . S
Zn378 O379 1.933 . S
Zn378 O391 1.985 . S
Zn378 O399 1.955 . S
O379 Zn378 1.933 . S
O379 H380 0.841 . S
O379 Zn381 1.911 1_554 S
H380 O379 0.841 . S
Zn381 O379 1.911 1_556 S
Zn381 O392 1.970 . S
Zn381 O402 2.009 . S
Zn381 O410 1.945 . S
C382 O383 1.246 . S
C382 O399 1.276 . S
O383 C382 1.246 . S
O384 Zn364 1.985 . S
O384 C394 1.245 . S
O385 Zn365 1.970 . S
O385 C394 1.263 1_556 S
O386 Zn371 1.985 . S
O386 C398 1.245 . S
O387 Zn370 1.970 . S
O387 C398 1.263 1_556 S
O388 Zn374 1.985 . S
O388 C403 1.245 . S
O389 Zn376 1.970 . S
O389 C403 1.263 1_556 S
C390 O401 1.262 . S
C390 O402 1.226 1_545 S
O391 Zn378 1.985 . S
O391 C409 1.245 . S
O392 Zn381 1.970 . S
O392 C409 1.263 1_556 S
O393 Zn371 1.955 . S
O393 C412 1.276 1_565 S
C394 O384 1.245 . S
C394 O385 1.263 1_554 S
O395 Zn364 1.955 . S
O395 C414 1.276 . S
C396 O404 1.262 1_545 S
C396 O405 1.245 . S
O397 C368 1.276 . S
O397 Zn374 1.955 . S
C398 O386 1.245 . S
C398 O387 1.263 1_554 S
O399 Zn378 1.955 . S
O399 C382 1.276 . S
C400 O407 1.262 . S
C400 O408 1.245 . S
O401 Zn365 1.945 . S
O401 C390 1.262 . S
O402 Zn381 2.009 . S
O402 C390 1.226 1_565 S
C403 O388 1.245 . S
C403 O389 1.263 1_554 S
O404 Zn370 1.945 . S
O404 C396 1.262 1_565 S
O405 Zn376 1.981 . S
O405 C396 1.245 . S
C406 O410 1.262 . S
C406 O411 1.245 . S
O407 Zn376 1.945 . S
O407 C400 1.262 . S
O408 Zn365 1.981 . S
O408 C400 1.245 . S
C409 O391 1.245 . S
C409 O392 1.263 1_554 S
O410 Zn381 1.945 . S
O410 C406 1.262 . S
O411 Zn370 1.981 . S
O411 C406 1.245 . S
C412 O393 1.276 1_545 S
C412 O413 1.246 . S
O413 C412 1.246 . S
C414 O395 1.276 . S
C414 O415 1.246 1_545 S
O415 C414 1.246 1_565 S
Zn416 O418 1.933 . S
Zn416 O436 1.985 . S
Zn416 O447 1.955 . S
Zn417 O418 1.911 . S
Zn417 O437 1.970 . S
Zn417 O453 1.945 . S
Zn417 O460 1.981 . S
O418 Zn416 1.933 . S
O418 Zn417 1.911 . S
O418 H419 0.841 1_655 S
H419 O418 0.841 1_455 S
C420 O421 1.246 1_554 S
C420 O449 1.276 . S
O421 C420 1.246 1_556 S
Zn422 O424 1.911 . S
Zn422 O439 1.970 . S
Zn422 O456 1.945 . S
Zn422 O463 1.981 . S
Zn423 O424 1.933 . S
Zn423 O438 1.985 . S
Zn423 O445 1.955 . S
O424 Zn422 1.911 . S
O424 Zn423 1.933 . S
O424 H425 0.841 . S
H425 O424 0.841 . S
Zn426 O427 1.933 . S
Zn426 O440 1.985 . S
Zn426 O449 1.955 . S
O427 Zn426 1.933 . S
O427 Zn428 1.911 . S
O427 H429 0.841 . S
Zn428 O427 1.911 . S
Zn428 O441 1.970 . S
Zn428 O457 1.981 . S
Zn428 O459 1.945 . S
H429 O427 0.841 . S
Zn430 O431 1.933 . S
Zn430 O443 1.985 . S
Zn430 O451 1.955 . S
O431 Zn430 1.933 . S
O431 H432 0.841 1_556 S
O431 Zn433 1.911 . S
H432 O431 0.841 1_554 S
Zn433 O431 1.911 . S
Zn433 O444 1.970 . S
Zn433 O454 1.981 . S
Zn433 O462 1.945 . S
C434 O435 1.246 . S
C434 O451 1.276 1_554 S
O435 C434 1.246 . S
O436 Zn416 1.985 . S
O436 C446 1.245 . S
O437 Zn417 1.970 . S
O437 C446 1.263 . S
O438 Zn423 1.985 . S
O438 C450 1.245 . S
O439 Zn422 1.970 . S
O439 C450 1.263 . S
O440 Zn426 1.985 . S
O440 C455 1.245 . S
O441 Zn428 1.970 . S
O441 C455 1.263 . S
C442 O453 1.262 1_455 S
C442 O454 1.245 . S
O443 Zn430 1.985 . S
O443 C461 1.245 . S
O444 Zn433 1.970 . S
O444 C461 1.263 . S
O445 Zn423 1.955 . S
O445 C464 1.276 . S
C446 O436 1.245 . S
C446 O437 1.263 . S
O447 Zn416 1.955 . S
O447 C466 1.276 1_655 S
C448 O456 1.262 . S
C448 O457 1.245 1_455 S
O449 C420 1.276 . S
O449 Zn426 1.955 . S
C450 O438 1.245 . S
C450 O439 1.263 . S
O451 Zn430 1.955 . S
O451 C434 1.276 1_556 S
C452 O459 1.262 . S
C452 O460 1.245 1_554 S
O453 Zn417 1.945 . S
O453 C442 1.262 1_655 S
O454 Zn433 1.981 . S
O454 C442 1.245 . S
C455 O440 1.245 . S
C455 O441 1.263 . S
O456 Zn422 1.945 . S
O456 C448 1.262 . S
O457 Zn428 1.981 . S
O457 C448 1.245 1_655 S
C458 O462 1.262 1_554 S
C458 O463 1.245 . S
O459 Zn428 1.945 . S
O459 C452 1.262 . S
O460 Zn417 1.981 . S
O460 C452 1.245 1_556 S
C461 O443 1.245 . S
C461 O444 1.263 . S
O462 Zn433 1.945 . S
O462 C458 1.262 1_556 S
O463 Zn422 1.981 . S
O463 C458 1.245 . S
C464 O445 1.276 . S
C464 O465 1.246 1_455 S
O465 C464 1.246 1_655 S
C466 O447 1.276 1_455 S
C466 O467 1.246 . S
O467 C466 1.246 . S
Zn468 O470 1.933 1_556 S
Zn468 O488 1.985 . S
Zn468 O499 1.955 . S
Zn469 O470 1.911 . S
Zn469 O489 1.970 . S
Zn469 O505 1.945 . S
Zn469 O512 1.981 . S
O470 Zn468 1.933 1_554 S
O470 Zn469 1.911 . S
O470 H471 0.841 . S
H471 O470 0.841 . S
C472 O473 1.246 . S
C472 O501 1.276 . S
O473 C472 1.246 . S
Zn474 O476 1.911 . S
Zn474 O491 1.970 . S
Zn474 O508 1.945 . S
Zn474 O515 1.981 . S
Zn475 O476 1.933 1_556 S
Zn475 O490 1.985 . S
Zn475 O497 1.955 . S
O476 Zn474 1.911 . S
O476 Zn475 1.933 1_554 S
O476 H477 0.841 . S
H477 O476 0.841 . S
Zn478 O479 1.933 1_556 S
Zn478 O492 1.985 . S
Zn478 O501 1.955 . S
O479 Zn478 1.933 1_554 S
O479 Zn480 1.911 . S
O479 H481 0.841 . S
Zn480 O479 1.911 . S
Zn480 O493 1.970 . S
Zn480 O509 1.981 . S
Zn480 O511 1.945 . S
H481 O479 0.841 . S
Zn482 O483 1.933 1_556 S
Zn482 O495 1.985 . S
Zn482 O503 1.955 . S
O483 Zn482 1.933 1_554 S
O483 H484 0.841 . S
O483 Zn485 1.911 . S
H484 O483 0.841 . S
Zn485 O483 1.911 . S
Zn485 O496 1.970 . S
Zn485 O506 1.981 . S
Zn485 O514 1.945 . S
C486 O487 1.246 . S
C486 O503 1.276 . S
O487 C486 1.246 . S
O488 Zn468 1.985 . S
O488 C498 1.245 1_556 S
O489 Zn469 1.970 . S
O489 C498 1.263 . S
O490 Zn475 1.985 . S
O490 C502 1.245 1_556 S
O491 Zn474 1.970 . S
O491 C502 1.263 . S
O492 Zn478 1.985 . S
O492 C507 1.245 1_556 S
O493 Zn480 1.970 . S
O493 C507 1.263 . S
C494 O505 1.262 . S
C494 O506 1.245 . S
O495 Zn482 1.985 . S
O495 C513 1.245 1_556 S
O496 Zn485 1.970 . S
O496 C513 1.263 . S
O497 Zn475 1.955 . S
O497 C516 1.276 . S
C498 O488 1.245 1_554 S
C498 O489 1.263 . S
O499 Zn468 1.955 . S
O499 C518 1.276 . S
C500 O508 1.262 . S
C500 O509 1.245 . S
O501 C472 1.276 . S
O501 Zn478 1.955 . S
C502 O490 1.245 1_554 S
C502 O491 1.263 . S
O503 Zn482 1.955 . S
O503 C486 1.276 . S
C504 O511 1.262 . S
C504 O512 1.245 . S
O505 Zn469 1.945 . S
O505 C494 1.262 . S
O506 Zn485 1.981 . S
O506 C494 1.245 . S
C507 O492 1.245 1_554 S
C507 O493 1.263 . S
O508 Zn474 1.945 . S
O508 C500 1.262 . S
O509 Zn480 1.981 . S
O509 C500 1.245 . S
C510 O514 1.262 . S
C510 O515 1.245 . S
O511 Zn480 1.945 . S
O511 C504 1.262 . S
O512 Zn469 1.981 . S
O512 C504 1.245 . S
C513 O495 1.245 1_554 S
C513 O496 1.263 . S
O514 Zn485 1.945 . S
O514 C510 1.262 . S
O515 Zn474 1.981 . S
O515 C510 1.245 . S
C516 O497 1.276 . S
C516 O517 1.246 . S
O517 C516 1.246 . S
C518 O499 1.276 . S
C518 O519 1.246 . S
O519 C518 1.246 . S
Zn520 O522 1.933 . S
Zn520 O540 1.985 . S
Zn520 O551 1.955 . S
Zn521 O522 1.911 . S
Zn521 O541 1.970 . S
Zn521 O557 1.945 . S
Zn521 O564 1.981 . S
O522 Zn520 1.933 . S
O522 Zn521 1.911 . S
O522 H523 0.841 1_655 S
H523 O522 0.841 1_455 S
C524 O525 1.246 . S
C524 O553 1.276 . S
O525 C524 1.246 . S
Zn526 O528 1.911 . S
Zn526 O543 1.970 . S
Zn526 O560 1.945 . S
Zn526 O567 1.981 . S
Zn527 O528 1.933 . S
Zn527 O542 1.985 . S
Zn527 O549 1.955 . S
O528 Zn526 1.911 . S
O528 Zn527 1.933 . S
O528 H529 0.841 . S
H529 O528 0.841 . S
Zn530 O531 1.933 . S
Zn530 O544 1.985 . S
Zn530 O553 1.955 . S
O531 Zn530 1.933 . S
O531 Zn532 1.911 . S
O531 H533 0.841 . S
Zn532 O531 1.911 . S
Zn532 O545 1.970 . S
Zn532 O561 1.981 1_655 S
Zn532 O563 1.945 . S
H533 O531 0.841 . S
Zn534 O535 1.933 . S
Zn534 O547 1.985 . S
Zn534 O555 1.955 . S
O535 Zn534 1.933 . S
O535 H536 0.841 . S
O535 Zn537 1.911 . S
H536 O535 0.841 . S
Zn537 O535 1.911 . S
Zn537 O548 1.970 . S
Zn537 O558 1.981 . S
Zn537 O566 1.945 . S
C538 O539 1.246 . S
C538 O555 1.276 . S
O539 C538 1.246 . S
O540 Zn520 1.985 . S
O540 C550 1.245 . S
O541 Zn521 1.970 . S
O541 C550 1.263 . S
O542 Zn527 1.985 . S
O542 C554 1.245 . S
O543 Zn526 1.970 . S
O543 C554 1.263 . S
O544 Zn530 1.985 . S
O544 C559 1.245 . S
O545 Zn532 1.970 . S
O545 C559 1.263 . S
C546 O557 1.262 1_455 S
C546 O558 1.245 . S
O547 Zn534 1.985 . S
O547 C565 1.245 . S
O548 Zn537 1.970 . S
O548 C565 1.263 . S
O549 Zn527 1.955 . S
O549 C568 1.276 . S
C550 O540 1.245 . S
C550 O541 1.263 . S
O551 Zn520 1.955 . S
O551 C570 1.276 1_655 S
C552 O560 1.262 . S
C552 O561 1.245 . S
O553 C524 1.276 . S
O553 Zn530 1.955 . S
C554 O542 1.245 . S
C554 O543 1.263 . S
O555 Zn534 1.955 . S
O555 C538 1.276 . S
C556 O563 1.262 . S
C556 O564 1.245 . S
O557 Zn521 1.945 . S
O557 C546 1.262 1_655 S
O558 Zn537 1.981 . S
O558 C546 1.245 . S
C559 O544 1.245 . S
C559 O545 1.263 . S
O560 Zn526 1.945 . S
O560 C552 1.262 . S
O561 Zn532 1.981 1_455 S
O561 C552 1.245 . S
C562 O566 1.262 . S
C562 O567 1.245 . S
O563 Zn532 1.945 . S
O563 C556 1.262 . S
O564 Zn521 1.981 . S
O564 C556 1.245 . S
C565 O547 1.245 . S
C565 O548 1.263 . S
O566 Zn537 1.945 . S
O566 C562 1.262 . S
O567 Zn526 1.981 . S
O567 C562 1.245 . S
C568 O549 1.276 . S
C568 O569 1.246 . S
O569 C568 1.246 . S
C570 O551 1.276 1_455 S
C570 O571 1.246 . S
O571 C570 1.246 . S
Zn572 O574 1.933 1_565 S
Zn572 O592 1.985 . S
Zn572 O603 1.955 . S
Zn573 O574 1.911 . S
Zn573 O593 1.970 . S
Zn573 O609 1.945 . S
Zn573 O616 1.981 . S
O574 Zn572 1.933 1_545 S
O574 Zn573 1.911 . S
O574 H575 0.841 . S
H575 O574 0.841 . S
C576 O577 1.246 . S
C576 O605 1.276 . S
O577 C576 1.246 . S
Zn578 O580 1.911 . S
Zn578 O595 1.970 . S
Zn578 O612 1.945 . S
Zn578 O619 1.981 . S
Zn579 O580 1.933 1_565 S
Zn579 O594 1.985 . S
Zn579 O601 1.955 . S
O580 Zn578 1.911 . S
O580 Zn579 1.933 1_545 S
O580 H581 0.841 . S
H581 O580 0.841 . S
Zn582 O583 1.933 1_565 S
Zn582 O596 1.985 . S
Zn582 O605 1.955 . S
O583 Zn582 1.933 1_545 S
O583 Zn584 1.911 . S
O583 H585 0.841 . S
Zn584 O583 1.911 . S
Zn584 O597 1.970 . S
Zn584 O613 1.981 . S
Zn584 O615 1.945 . S
H585 O583 0.841 . S
Zn586 O587 1.933 1_565 S
Zn586 O599 1.985 . S
Zn586 O607 1.955 . S
O587 Zn586 1.933 1_545 S
O587 H588 0.841 . S
O587 Zn589 1.911 . S
H588 O587 0.841 . S
Zn589 O587 1.911 . S
Zn589 O600 1.970 . S
Zn589 O610 1.981 . S
Zn589 O618 1.945 . S
C590 O591 1.246 . S
C590 O607 1.276 . S
O591 C590 1.246 . S
O592 Zn572 1.985 . S
O592 C602 1.245 1_565 S
O593 Zn573 1.970 . S
O593 C602 1.263 . S
O594 Zn579 1.985 . S
O594 C606 1.245 1_565 S
O595 Zn578 1.970 . S
O595 C606 1.263 . S
O596 Zn582 1.985 . S
O596 C611 1.245 1_565 S
O597 Zn584 1.970 . S
O597 C611 1.263 . S
C598 O609 1.262 . S
C598 O610 1.245 . S
O599 Zn586 1.985 . S
O599 C617 1.245 1_565 S
O600 Zn589 1.970 . S
O600 C617 1.263 . S
O601 Zn579 1.955 . S
O601 C620 1.276 . S
C602 O592 1.245 1_545 S
C602 O593 1.263 . S
O603 Zn572 1.955 . S
O603 C622 1.276 . S
C604 O612 1.262 . S
C604 O613 1.245 . S
O605 C576 1.276 . S
O605 Zn582 1.955 . S
C606 O594 1.245 1_545 S
C606 O595 1.263 . S
O607 Zn586 1.955 . S
O607 C590 1.276 . S
C608 O615 1.262 . S
C608 O616 1.245 . S
O609 Zn573 1.945 . S
O609 C598 1.262 . S
O610 Zn589 1.981 . S
O610 C598 1.245 . S
C611 O596 1.245 1_545 S
C611 O597 1.263 . S
O612 Zn578 1.945 . S
O612 C604 1.262 . S
O613 Zn584 1.981 . S
O613 C604 1.245 . S
C614 O618 1.262 . S
C614 O619 1.245 . S
O615 Zn584 1.945 . S
O615 C608 1.262 . S
O616 Zn573 1.981 . S
O616 C608 1.245 . S
C617 O599 1.245 1_545 S
C617 O600 1.263 . S
O618 Zn589 1.945 . S
O618 C614 1.262 . S
O619 Zn578 1.981 . S
O619 C614 1.245 . S
C620 O601 1.276 . S
C620 O621 1.246 . S
O621 C620 1.246 . S
C622 O603 1.276 . S
C622 O623 1.246 . S
O623 C622 1.246 . S
H624 C630 0.930 . S
H625 C634 0.930 . S
H626 C639 0.929 . S
H627 C637 0.929 . S
H628 C632 0.929 . S
H629 C638 0.929 . S
C630 H624 0.930 . S
C630 C631 1.367 . S
C630 C638 1.378 . S
C631 C630 1.367 . S
C631 C639 1.433 . S
C632 H628 0.929 . S
C632 C634 1.378 . S
C632 C636 1.350 . S
C633 C636 1.463 . S
C633 C638 1.350 . S
C633 N641 1.427 . S
C634 H625 0.930 . S
C634 C632 1.378 . S
C634 C635 1.367 . S
C635 C634 1.367 . S
C635 C637 1.433 . S
C636 C632 1.350 . S
C636 C633 1.463 . S
C636 N640 1.427 . S
C637 H627 0.929 . S
C637 C635 1.433 . S
C637 N640 1.384 . S
C638 H629 0.929 . S
C638 C630 1.378 . S
C638 C633 1.350 . S
C639 H626 0.929 . S
C639 C631 1.433 . S
C639 N641 1.384 . S
N640 C636 1.427 . S
N640 C637 1.384 . S
N641 C633 1.427 . S
N641 C639 1.384 . S
H642 C648 0.930 . S
H643 C652 0.930 . S
H644 C657 0.929 . S
H645 C655 0.929 . S
H646 C650 0.929 . S
H647 C656 0.929 . S
C648 H642 0.930 . S
C648 C649 1.367 . S
C648 C656 1.378 . S
C649 C648 1.367 . S
C649 C657 1.433 . S
C650 H646 0.929 . S
C650 C652 1.378 . S
C650 C654 1.350 . S
C651 C654 1.463 . S
C651 C656 1.350 . S
C651 N659 1.427 . S
C652 H643 0.930 . S
C652 C650 1.378 . S
C652 C653 1.367 . S
C653 C652 1.367 . S
C653 C655 1.433 . S
C654 C650 1.350 . S
C654 C651 1.463 . S
C654 N658 1.427 . S
C655 H645 0.929 . S
C655 C653 1.433 . S
C655 N658 1.384 . S
C656 H647 0.929 . S
C656 C648 1.378 . S
C656 C651 1.350 . S
C657 H644 0.929 . S
C657 C649 1.433 . S
C657 N659 1.384 . S
N658 C654 1.427 . S
N658 C655 1.384 . S
N659 C651 1.427 . S
N659 C657 1.384 . S
H660 C666 0.930 . S
H661 C670 0.930 . S
H662 C675 0.929 . S
H663 C673 0.929 . S
H664 C668 0.929 . S
H665 C674 0.929 . S
C666 H660 0.930 . S
C666 C667 1.367 . S
C666 C674 1.378 . S
C667 C666 1.367 . S
C667 C675 1.433 . S
C668 H664 0.929 . S
C668 C670 1.378 . S
C668 C672 1.350 . S
C669 C672 1.463 . S
C669 C674 1.350 . S
C669 N677 1.427 . S
C670 H661 0.930 . S
C670 C668 1.378 . S
C670 C671 1.367 . S
C671 C670 1.367 . S
C671 C673 1.433 . S
C672 C668 1.350 . S
C672 C669 1.463 . S
C672 N676 1.427 . S
C673 H663 0.929 . S
C673 C671 1.433 . S
C673 N676 1.384 . S
C674 H665 0.929 . S
C674 C666 1.378 . S
C674 C669 1.350 . S
C675 H662 0.929 . S
C675 C667 1.433 . S
C675 N677 1.384 . S
N676 C672 1.427 . S
N676 C673 1.384 . S
N677 C669 1.427 . S
N677 C675 1.384 . S
H678 C684 0.930 . S
H679 C688 0.930 . S
H680 C693 0.929 . S
H681 C691 0.929 . S
H682 C686 0.929 . S
H683 C692 0.929 . S
C684 H678 0.930 . S
C684 C685 1.367 . S
C684 C692 1.378 . S
C685 C684 1.367 . S
C685 C693 1.433 . S
C686 H682 0.929 . S
C686 C688 1.378 . S
C686 C690 1.350 . S
C687 C690 1.463 . S
C687 C692 1.350 . S
C687 N695 1.427 . S
C688 H679 0.930 . S
C688 C686 1.378 . S
C688 C689 1.367 . S
C689 C688 1.367 . S
C689 C691 1.433 . S
C690 C686 1.350 . S
C690 C687 1.463 . S
C690 N694 1.427 . S
C691 H681 0.929 . S
C691 C689 1.433 . S
C691 N694 1.384 . S
C692 H683 0.929 . S
C692 C684 1.378 . S
C692 C687 1.350 . S
C693 H680 0.929 . S
C693 C685 1.433 . S
C693 N695 1.384 . S
N694 C690 1.427 . S
N694 C691 1.384 . S
N695 C687 1.427 . S
N695 C693 1.384 . S
H696 C702 0.930 . S
H697 C706 0.930 . S
H698 C711 0.929 . S
H699 C709 0.929 . S
H700 C704 0.929 . S
H701 C710 0.929 . S
C702 H696 0.930 . S
C702 C703 1.367 . S
C702 C710 1.378 . S
C703 C702 1.367 . S
C703 C711 1.433 . S
C704 H700 0.929 . S
C704 C706 1.378 . S
C704 C708 1.350 . S
C705 C708 1.463 . S
C705 C710 1.350 . S
C705 N713 1.427 . S
C706 H697 0.930 . S
C706 C704 1.378 . S
C706 C707 1.367 . S
C707 C706 1.367 . S
C707 C709 1.433 . S
C708 C704 1.350 . S
C708 C705 1.463 . S
C708 N712 1.427 . S
C709 H699 0.929 . S
C709 C707 1.433 . S
C709 N712 1.384 . S
C710 H701 0.929 . S
C710 C702 1.378 . S
C710 C705 1.350 . S
C711 H698 0.929 . S
C711 C703 1.433 . S
C711 N713 1.384 . S
N712 C708 1.427 . S
N712 C709 1.384 . S
N713 C705 1.427 . S
N713 C711 1.384 . S
H714 C720 0.930 . S
H715 C724 0.930 . S
H716 C729 0.929 . S
H717 C727 0.929 . S
H718 C722 0.929 . S
H719 C728 0.929 . S
C720 H714 0.930 . S
C720 C721 1.367 . S
C720 C728 1.378 . S
C721 C720 1.367 . S
C721 C729 1.433 . S
C722 H718 0.929 . S
C722 C724 1.378 . S
C722 C726 1.350 . S
C723 C726 1.463 . S
C723 C728 1.350 . S
C723 N731 1.427 . S
C724 H715 0.930 . S
C724 C722 1.378 . S
C724 C725 1.367 . S
C725 C724 1.367 . S
C725 C727 1.433 . S
C726 C722 1.350 . S
C726 C723 1.463 . S
C726 N730 1.427 . S
C727 H717 0.929 . S
C727 C725 1.433 . S
C727 N730 1.384 . S
C728 H719 0.929 . S
C728 C720 1.378 . S
C728 C723 1.350 . S
C729 H716 0.929 . S
C729 C721 1.433 . S
C729 N731 1.384 . S
N730 C726 1.427 . S
N730 C727 1.384 . S
N731 C723 1.427 . S
N731 C729 1.384 . S
H732 C738 0.930 . S
H733 C742 0.930 . S
H734 C747 0.929 . S
H735 C745 0.929 . S
H736 C740 0.929 . S
H737 C746 0.929 . S
C738 H732 0.930 . S
C738 C739 1.367 . S
C738 C746 1.378 . S
C739 C738 1.367 . S
C739 C747 1.433 . S
C740 H736 0.929 . S
C740 C742 1.378 . S
C740 C744 1.350 . S
C741 C744 1.463 . S
C741 C746 1.350 . S
C741 N749 1.427 . S
C742 H733 0.930 . S
C742 C740 1.378 . S
C742 C743 1.367 . S
C743 C742 1.367 . S
C743 C745 1.433 . S
C744 C740 1.350 . S
C744 C741 1.463 . S
C744 N748 1.427 . S
C745 H735 0.929 . S
C745 C743 1.433 . S
C745 N748 1.384 . S
C746 H737 0.929 . S
C746 C738 1.378 . S
C746 C741 1.350 . S
C747 H734 0.929 . S
C747 C739 1.433 . S
C747 N749 1.384 . S
N748 C744 1.427 . S
N748 C745 1.384 . S
N749 C741 1.427 . S
N749 C747 1.384 . S
H750 C756 0.930 . S
H751 C760 0.930 . S
H752 C765 0.929 . S
H753 C763 0.929 . S
H754 C758 0.929 . S
H755 C764 0.929 . S
C756 H750 0.930 . S
C756 C757 1.367 . S
C756 C764 1.378 . S
C757 C756 1.367 . S
C757 C765 1.433 . S
C758 H754 0.929 . S
C758 C760 1.378 . S
C758 C762 1.350 . S
C759 C762 1.463 . S
C759 C764 1.350 . S
C759 N767 1.427 . S
C760 H751 0.930 . S
C760 C758 1.378 . S
C760 C761 1.367 . S
C761 C760 1.367 . S
C761 C763 1.433 . S
C762 C758 1.350 . S
C762 C759 1.463 . S
C762 N766 1.427 . S
C763 H753 0.929 . S
C763 C761 1.433 . S
C763 N766 1.384 . S
C764 H755 0.929 . S
C764 C756 1.378 . S
C764 C759 1.350 . S
C765 H752 0.929 . S
C765 C757 1.433 . S
C765 N767 1.384 . S
N766 C762 1.427 . S
N766 C763 1.384 . S
N767 C759 1.427 . S
N767 C765 1.384 . S
H768 C774 0.930 . S
H769 C778 0.930 . S
H770 C783 0.929 . S
H771 C781 0.929 . S
H772 C776 0.929 . S
H773 C782 0.929 . S
C774 H768 0.930 . S
C774 C775 1.367 . S
C774 C782 1.378 . S
C775 C774 1.367 . S
C775 C783 1.433 . S
C776 H772 0.929 . S
C776 C778 1.378 . S
C776 C780 1.350 . S
C777 C780 1.463 . S
C777 C782 1.350 . S
C777 N785 1.427 . S
C778 H769 0.930 . S
C778 C776 1.378 . S
C778 C779 1.367 . S
C779 C778 1.367 . S
C779 C781 1.433 . S
C780 C776 1.350 . S
C780 C777 1.463 . S
C780 N784 1.427 . S
C781 H771 0.929 . S
C781 C779 1.433 . S
C781 N784 1.384 . S
C782 H773 0.929 . S
C782 C774 1.378 . S
C782 C777 1.350 . S
C783 H770 0.929 . S
C783 C775 1.433 . S
C783 N785 1.384 . S
N784 C780 1.427 . S
N784 C781 1.384 . S
N785 C777 1.427 . S
N785 C783 1.384 . S
H786 C792 0.930 . S
H787 C796 0.930 . S
H788 C801 0.929 . S
H789 C799 0.929 . S
H790 C794 0.929 . S
H791 C800 0.929 . S
C792 H786 0.930 . S
C792 C793 1.367 . S
C792 C800 1.378 . S
C793 C792 1.367 . S
C793 C801 1.433 . S
C794 H790 0.929 . S
C794 C796 1.378 . S
C794 C798 1.350 . S
C795 C798 1.463 . S
C795 C800 1.350 . S
C795 N803 1.427 . S
C796 H787 0.930 . S
C796 C794 1.378 . S
C796 C797 1.367 . S
C797 C796 1.367 . S
C797 C799 1.433 . S
C798 C794 1.350 . S
C798 C795 1.463 . S
C798 N802 1.427 . S
C799 H789 0.929 . S
C799 C797 1.433 . S
C799 N802 1.384 . S
C800 H791 0.929 . S
C800 C792 1.378 . S
C800 C795 1.350 . S
C801 H788 0.929 . S
C801 C793 1.433 . S
C801 N803 1.384 . S
N802 C798 1.427 . S
N802 C799 1.384 . S
N803 C795 1.427 . S
N803 C801 1.384 . S
H804 C810 0.930 . S
H805 C814 0.930 . S
H806 C819 0.929 . S
H807 C817 0.929 . S
H808 C812 0.929 . S
H809 C818 0.929 . S
C810 H804 0.930 . S
C810 C811 1.367 . S
C810 C818 1.378 . S
C811 C810 1.367 . S
C811 C819 1.433 . S
C812 H808 0.929 . S
C812 C814 1.378 . S
C812 C816 1.350 . S
C813 C816 1.463 . S
C813 C818 1.350 . S
C813 N821 1.427 . S
C814 H805 0.930 . S
C814 C812 1.378 . S
C814 C815 1.367 . S
C815 C814 1.367 . S
C815 C817 1.433 . S
C816 C812 1.350 . S
C816 C813 1.463 . S
C816 N820 1.427 . S
C817 H807 0.929 . S
C817 C815 1.433 . S
C817 N820 1.384 . S
C818 H809 0.929 . S
C818 C810 1.378 . S
C818 C813 1.350 . S
C819 H806 0.929 . S
C819 C811 1.433 . S
C819 N821 1.384 . S
N820 C816 1.427 . S
N820 C817 1.384 . S
N821 C813 1.427 . S
N821 C819 1.384 . S
H822 C828 0.930 . S
H823 C832 0.930 . S
H824 C837 0.929 . S
H825 C835 0.929 . S
H826 C830 0.929 . S
H827 C836 0.929 . S
C828 H822 0.930 . S
C828 C829 1.367 . S
C828 C836 1.378 . S
C829 C828 1.367 . S
C829 C837 1.433 . S
C830 H826 0.929 . S
C830 C832 1.378 . S
C830 C834 1.350 . S
C831 C834 1.463 . S
C831 C836 1.350 . S
C831 N839 1.427 . S
C832 H823 0.930 . S
C832 C830 1.378 . S
C832 C833 1.367 . S
C833 C832 1.367 . S
C833 C835 1.433 . S
C834 C830 1.350 . S
C834 C831 1.463 . S
C834 N838 1.427 . S
C835 H825 0.929 . S
C835 C833 1.433 . S
C835 N838 1.384 . S
C836 H827 0.929 . S
C836 C828 1.378 . S
C836 C831 1.350 . S
C837 H824 0.929 . S
C837 C829 1.433 . S
C837 N839 1.384 . S
N838 C834 1.427 . S
N838 C835 1.384 . S
N839 C831 1.427 . S
N839 C837 1.384 . S
H840 C846 0.930 . S
H841 C850 0.930 . S
H842 C855 0.929 . S
H843 C853 0.929 . S
H844 C848 0.929 . S
H845 C854 0.929 . S
C846 H840 0.930 . S
C846 C847 1.367 1_556 S
C846 C854 1.378 . S
C847 C846 1.367 1_554 S
C847 C855 1.433 . S
C848 H844 0.929 . S
C848 C850 1.378 . S
C848 C852 1.350 . S
C849 C852 1.463 . S
C849 C854 1.350 1_554 S
C849 N857 1.427 . S
C850 H841 0.930 . S
C850 C848 1.378 . S
C850 C851 1.367 . S
C851 C850 1.367 . S
C851 C853 1.433 1_554 S
C852 C848 1.350 . S
C852 C849 1.463 . S
C852 N856 1.427 1_554 S
C853 H843 0.929 . S
C853 C851 1.433 1_556 S
C853 N856 1.384 . S
C854 H845 0.929 . S
C854 C846 1.378 . S
C854 C849 1.350 1_556 S
C855 H842 0.929 . S
C855 C847 1.433 . S
C855 N857 1.384 . S
N856 C852 1.427 1_556 S
N856 C853 1.384 . S
N857 C849 1.427 . S
N857 C855 1.384 . S
H858 C864 0.930 . S
H859 C868 0.930 . S
H860 C873 0.929 . S
H861 C871 0.929 . S
H862 C866 0.929 . S
H863 C872 0.929 . S
C864 H858 0.930 . S
C864 C865 1.367 . S
C864 C872 1.378 . S
C865 C864 1.367 . S
C865 C873 1.433 1_554 S
C866 H862 0.929 . S
C866 C868 1.378 . S
C866 C870 1.350 1_556 S
C867 C870 1.463 . S
C867 C872 1.350 . S
C867 N875 1.427 1_554 S
C868 H859 0.930 . S
C868 C866 1.378 . S
C868 C869 1.367 1_556 S
C869 C868 1.367 1_554 S
C869 C871 1.433 . S
C870 C866 1.350 1_554 S
C870 C867 1.463 . S
C870 N874 1.427 . S
C871 H861 0.929 . S
C871 C869 1.433 . S
C871 N874 1.384 . S
C872 H863 0.929 . S
C872 C864 1.378 . S
C872 C867 1.350 . S
C873 H860 0.929 . S
C873 C865 1.433 1_556 S
C873 N875 1.384 . S
N874 C870 1.427 . S
N874 C871 1.384 . S
N875 C867 1.427 1_556 S
N875 C873 1.384 . S
H876 C882 0.930 . S
H877 C886 0.930 . S
H878 C891 0.929 . S
H879 C889 0.929 . S
H880 C884 0.929 . S
H881 C890 0.929 . S
C882 H876 0.930 . S
C882 C883 1.367 . S
C882 C890 1.378 . S
C883 C882 1.367 . S
C883 C891 1.433 . S
C884 H880 0.929 . S
C884 C886 1.378 . S
C884 C888 1.350 . S
C885 C888 1.463 . S
C885 C890 1.350 . S
C885 N893 1.427 . S
C886 H877 0.930 . S
C886 C884 1.378 . S
C886 C887 1.367 . S
C887 C886 1.367 . S
C887 C889 1.433 . S
C888 C884 1.350 . S
C888 C885 1.463 . S
C888 N892 1.427 . S
C889 H879 0.929 . S
C889 C887 1.433 . S
C889 N892 1.384 . S
C890 H881 0.929 . S
C890 C882 1.378 . S
C890 C885 1.350 . S
C891 H878 0.929 . S
C891 C883 1.433 . S
C891 N893 1.384 . S
N892 C888 1.427 . S
N892 C889 1.384 . S
N893 C885 1.427 . S
N893 C891 1.384 . S
H894 C900 0.930 . S
H895 C904 0.930 . S
H896 C909 0.929 . S
H897 C907 0.929 . S
H898 C902 0.929 . S
H899 C908 0.929 . S
C900 H894 0.930 . S
C900 C901 1.367 . S
C900 C908 1.378 . S
C901 C900 1.367 . S
C901 C909 1.433 1_554 S
C902 H898 0.929 . S
C902 C904 1.378 . S
C902 C906 1.350 1_556 S
C903 C906 1.463 . S
C903 C908 1.350 . S
C903 N911 1.427 1_554 S
C904 H895 0.930 . S
C904 C902 1.378 . S
C904 C905 1.367 1_556 S
C905 C904 1.367 1_554 S
C905 C907 1.433 . S
C906 C902 1.350 1_554 S
C906 C903 1.463 . S
C906 N910 1.427 . S
C907 H897 0.929 . S
C907 C905 1.433 . S
C907 N910 1.384 . S
C908 H899 0.929 . S
C908 C900 1.378 . S
C908 C903 1.350 . S
C909 H896 0.929 . S
C909 C901 1.433 1_556 S
C909 N911 1.384 . S
N910 C906 1.427 . S
N910 C907 1.384 . S
N911 C903 1.427 1_556 S
N911 C909 1.384 . S
H912 C918 0.930 . S
H913 C922 0.932 . S
H914 C927 0.929 . S
H915 C925 0.929 . S
H916 C920 0.929 . S
H917 C926 0.929 . S
C918 H912 0.930 . S
C918 C919 1.367 . S
C918 C926 1.378 . S
C919 C918 1.367 . S
C919 C927 1.433 1_455 S
C920 H916 0.929 . S
C920 C922 1.378 . S
C920 C924 1.350 1_655 S
C921 C924 1.463 . S
C921 C926 1.350 . S
C921 N929 1.427 1_455 S
C922 H913 0.932 . S
C922 C920 1.378 . S
C922 C923 1.365 1_655 S
C923 C922 1.365 1_455 S
C923 C925 1.433 . S
C924 C920 1.350 1_455 S
C924 C921 1.463 . S
C924 N928 1.427 . S
C925 H915 0.929 . S
C925 C923 1.433 . S
C925 N928 1.384 . S
C926 H917 0.929 . S
C926 C918 1.378 . S
C926 C921 1.350 . S
C927 H914 0.929 . S
C927 C919 1.433 1_655 S
C927 N929 1.384 . S
N928 C924 1.427 . S
N928 C925 1.384 . S
N929 C921 1.427 1_655 S
N929 C927 1.384 . S
H930 C936 0.930 . S
H931 C940 0.930 . S
H932 C945 0.929 . S
H933 C943 0.929 . S
H934 C938 0.929 . S
H935 C944 0.929 . S
C936 H930 0.930 . S
C936 C937 1.367 . S
C936 C944 1.378 . S
C937 C936 1.367 . S
C937 C945 1.433 1_545 S
C938 H934 0.929 . S
C938 C940 1.378 . S
C938 C942 1.350 1_565 S
C939 C942 1.463 . S
C939 C944 1.350 . S
C939 N947 1.427 1_545 S
C940 H931 0.930 . S
C940 C938 1.378 . S
C940 C941 1.367 1_565 S
C941 C940 1.367 1_545 S
C941 C943 1.433 . S
C942 C938 1.350 1_545 S
C942 C939 1.463 . S
C942 N946 1.427 . S
C943 H933 0.929 . S
C943 C941 1.433 . S
C943 N946 1.384 . S
C944 H935 0.929 . S
C944 C936 1.378 . S
C944 C939 1.350 . S
C945 H932 0.929 . S
C945 C937 1.433 1_565 S
C945 N947 1.384 . S
N946 C942 1.427 . S
N946 C943 1.384 . S
N947 C939 1.427 1_565 S
N947 C945 1.384 . S
H948 C954 0.929 . S
H949 C958 0.930 . S
H950 C963 0.929 . S
H951 C961 0.915 1_655 S
H952 C956 0.929 . S
H953 C962 0.929 1_655 S
C954 H948 0.929 . S
C954 C955 1.367 . S
C954 C962 1.378 . S
C955 C954 1.367 . S
C955 C963 1.433 . S
C956 H952 0.929 . S
C956 C958 1.378 . S
C956 C960 1.350 . S
C957 C960 1.463 . S
C957 C962 1.350 . S
C957 N965 1.427 . S
C958 H949 0.930 . S
C958 C956 1.378 . S
C958 C959 1.367 . S
C959 C958 1.367 . S
C959 C961 1.447 . S
C960 C956 1.350 . S
C960 C957 1.463 . S
C960 N964 1.427 . S
C961 H951 0.915 1_455 S
C961 C959 1.447 . S
C961 N964 1.386 . S
C962 H953 0.929 1_455 S
C962 C954 1.378 . S
C962 C957 1.350 . S
C963 H950 0.929 . S
C963 C955 1.433 . S
C963 N965 1.384 . S
N964 C960 1.427 . S
N964 C961 1.386 . S
N965 C957 1.427 . S
N965 C963 1.384 . S
H966 C972 0.930 1_565 S
H967 C976 0.930 . S
H968 C981 0.929 . S
H969 C979 0.935 . S
H970 C974 0.929 . S
H971 C980 0.929 1_565 S
C972 H966 0.930 1_545 S
C972 C973 1.367 . S
C972 C980 1.378 . S
C973 C972 1.367 . S
C973 C981 1.433 . S
C974 H970 0.929 . S
C974 C976 1.378 . S
C974 C978 1.350 . S
C975 C978 1.463 . S
C975 C980 1.350 . S
C975 N983 1.427 . S
C976 H967 0.930 . S
C976 C974 1.378 . S
C976 C977 1.367 . S
C977 C976 1.367 . S
C977 C979 1.428 1_545 S
C978 C974 1.350 . S
C978 C975 1.463 . S
C978 N982 1.427 . S
C979 H969 0.935 . S
C979 C977 1.428 1_565 S
C979 N982 1.383 1_565 S
C980 H971 0.929 1_545 S
C980 C972 1.378 . S
C980 C975 1.350 . S
C981 H968 0.929 . S
C981 C973 1.433 . S
C981 N983 1.384 . S
N982 C978 1.427 . S
N982 C979 1.383 1_545 S
N983 C975 1.427 . S
N983 C981 1.384 . S
H984 C990 0.930 . S
H985 C994 0.930 . S
H986 C999 0.929 . S
H987 C997 0.929 . S
H988 C992 0.929 . S
H989 C998 0.929 . S
C990 H984 0.930 . S
C990 C991 1.367 . S
C990 C998 1.378 . S
C991 C990 1.367 . S
C991 C999 1.433 . S
C992 H988 0.929 . S
C992 C994 1.378 . S
C992 C996 1.350 . S
C993 C996 1.463 . S
C993 C998 1.350 . S
C993 N1001 1.427 . S
C994 H985 0.930 . S
C994 C992 1.378 . S
C994 C995 1.367 . S
C995 C994 1.367 . S
C995 C997 1.433 . S
C996 C992 1.350 . S
C996 C993 1.463 . S
C996 N1000 1.427 . S
C997 H987 0.929 . S
C997 C995 1.433 . S
C997 N1000 1.384 . S
C998 H989 0.929 . S
C998 C990 1.378 . S
C998 C993 1.350 . S
C999 H986 0.929 . S
C999 C991 1.433 . S
C999 N1001 1.384 . S
N1000 C996 1.427 . S
N1000 C997 1.384 . S
N1001 C993 1.427 . S
N1001 C999 1.384 . S
H1002 C1008 0.930 . S
H1003 C1012 0.930 . S
H1004 C1017 0.929 . S
H1005 C1015 0.929 1_565 S
H1006 C1010 0.929 . S
H1007 C1016 0.929 . S
C1008 H1002 0.930 . S
C1008 C1009 1.367 . S
C1008 C1016 1.378 . S
C1009 C1008 1.367 . S
C1009 C1017 1.433 . S
C1010 H1006 0.929 . S
C1010 C1012 1.378 . S
C1010 C1014 1.350 . S
C1011 C1014 1.463 . S
C1011 C1016 1.350 . S
C1011 N1019 1.427 . S
C1012 H1003 0.930 . S
C1012 C1010 1.378 . S
C1012 C1013 1.367 . S
C1013 C1012 1.367 . S
C1013 C1015 1.433 . S
C1014 C1010 1.350 . S
C1014 C1011 1.463 . S
C1014 N1018 1.427 . S
C1015 H1005 0.929 1_545 S
C1015 C1013 1.433 . S
C1015 N1018 1.384 . S
C1016 H1007 0.929 . S
C1016 C1008 1.378 . S
C1016 C1011 1.350 . S
C1017 H1004 0.929 . S
C1017 C1009 1.433 . S
C1017 N1019 1.384 . S
N1018 C1014 1.427 . S
N1018 C1015 1.384 . S
N1019 C1011 1.427 . S
N1019 C1017 1.384 . S
H1020 C1026 0.930 . S
H1021 C1030 0.930 . S
H1022 C1035 0.929 . S
H1023 C1033 0.929 . S
H1024 C1028 0.929 . S
H1025 C1034 0.929 . S
C1026 H1020 0.930 . S
C1026 C1027 1.367 . S
C1026 C1034 1.378 . S
C1027 C1026 1.367 . S
C1027 C1035 1.433 . S
C1028 H1024 0.929 . S
C1028 C1030 1.378 . S
C1028 C1032 1.350 . S
C1029 C1032 1.463 . S
C1029 C1034 1.350 . S
C1029 N1037 1.427 . S
C1030 H1021 0.930 . S
C1030 C1028 1.378 . S
C1030 C1031 1.367 . S
C1031 C1030 1.367 . S
C1031 C1033 1.433 . S
C1032 C1028 1.350 . S
C1032 C1029 1.463 . S
C1032 N1036 1.427 . S
C1033 H1023 0.929 . S
C1033 C1031 1.433 . S
C1033 N1036 1.384 . S
C1034 H1025 0.929 . S
C1034 C1026 1.378 . S
C1034 C1029 1.350 . S
C1035 H1022 0.929 . S
C1035 C1027 1.433 . S
C1035 N1037 1.384 . S
N1036 C1032 1.427 . S
N1036 C1033 1.384 . S
N1037 C1029 1.427 . S
N1037 C1035 1.384 . S
H1038 C1044 0.930 . S
H1039 C1048 0.930 . S
H1040 C1053 0.929 . S
H1041 C1051 0.929 . S
H1042 C1046 0.929 . S
H1043 C1052 0.929 . S
C1044 H1038 0.930 . S
C1044 C1045 1.367 1_565 S
C1044 C1052 1.378 . S
C1045 C1044 1.367 1_545 S
C1045 C1053 1.433 . S
C1046 H1042 0.929 . S
C1046 C1048 1.378 . S
C1046 C1050 1.350 . S
C1047 C1050 1.463 . S
C1047 C1052 1.350 1_545 S
C1047 N1055 1.427 . S
C1048 H1039 0.930 . S
C1048 C1046 1.378 . S
C1048 C1049 1.367 . S
C1049 C1048 1.367 . S
C1049 C1051 1.433 1_545 S
C1050 C1046 1.350 . S
C1050 C1047 1.463 . S
C1050 N1054 1.427 1_545 S
C1051 H1041 0.929 . S
C1051 C1049 1.433 1_565 S
C1051 N1054 1.384 . S
C1052 H1043 0.929 . S
C1052 C1044 1.378 . S
C1052 C1047 1.350 1_565 S
C1053 H1040 0.929 . S
C1053 C1045 1.433 . S
C1053 N1055 1.384 . S
N1054 C1050 1.427 1_565 S
N1054 C1051 1.384 . S
N1055 C1047 1.427 . S
N1055 C1053 1.384 . S
H1056 C1062 0.930 . S
H1057 C1066 0.930 1_655 S
H1058 C1071 0.929 1_655 S
H1059 C1069 0.929 . S
H1060 C1064 0.929 1_655 S
H1061 C1070 0.929 . S
C1062 H1056 0.930 . S
C1062 C1063 1.367 . S
C1062 C1070 1.378 . S
C1063 C1062 1.367 . S
C1063 C1071 1.433 . S
C1064 H1060 0.929 1_455 S
C1064 C1066 1.378 . S
C1064 C1068 1.350 . S
C1065 C1068 1.463 . S
C1065 C1070 1.350 . S
C1065 N1073 1.427 . S
C1066 H1057 0.930 1_455 S
C1066 C1064 1.378 . S
C1066 C1067 1.367 . S
C1067 C1066 1.367 . S
C1067 C1069 1.433 . S
C1068 C1064 1.350 . S
C1068 C1065 1.463 . S
C1068 N1072 1.427 . S
C1069 H1059 0.929 . S
C1069 C1067 1.433 . S
C1069 N1072 1.384 . S
C1070 H1061 0.929 . S
C1070 C1062 1.378 . S
C1070 C1065 1.350 . S
C1071 H1058 0.929 1_455 S
C1071 C1063 1.433 . S
C1071 N1073 1.384 . S
N1072 C1068 1.427 . S
N1072 C1069 1.384 . S
N1073 C1065 1.427 . S
N1073 C1071 1.384 . S
H1074 C1080 0.930 . S
H1075 C1084 0.930 . S
H1076 C1089 0.929 1_565 S
H1077 C1087 0.929 . S
H1078 C1082 0.929 . S
H1079 C1088 0.929 . S
C1080 H1074 0.930 . S
C1080 C1081 1.367 . S
C1080 C1088 1.378 . S
C1081 C1080 1.367 . S
C1081 C1089 1.433 . S
C1082 H1078 0.929 . S
C1082 C1084 1.378 . S
C1082 C1086 1.350 1_565 S
C1083 C1086 1.463 . S
C1083 C1088 1.350 . S
C1083 N1091 1.427 . S
C1084 H1075 0.930 . S
C1084 C1082 1.378 . S
C1084 C1085 1.367 1_565 S
C1085 C1084 1.367 1_545 S
C1085 C1087 1.433 . S
C1086 C1082 1.350 1_545 S
C1086 C1083 1.463 . S
C1086 N1090 1.427 . S
C1087 H1077 0.929 . S
C1087 C1085 1.433 . S
C1087 N1090 1.384 . S
C1088 H1079 0.929 . S
C1088 C1080 1.378 . S
C1088 C1083 1.350 . S
C1089 H1076 0.929 1_545 S
C1089 C1081 1.433 . S
C1089 N1091 1.384 . S
N1090 C1086 1.427 . S
N1090 C1087 1.384 . S
N1091 C1083 1.427 . S
N1091 C1089 1.384 . S
H1092 C1098 0.930 . S
H1093 C1102 0.930 . S
H1094 C1107 0.929 . S
H1095 C1105 0.929 . S
H1096 C1100 0.929 . S
H1097 C1106 0.929 . S
C1098 H1092 0.930 . S
C1098 C1099 1.367 . S
C1098 C1106 1.378 . S
C1099 C1098 1.367 . S
C1099 C1107 1.433 . S
C1100 H1096 0.929 . S
C1100 C1102 1.378 . S
C1100 C1104 1.350 . S
C1101 C1104 1.463 . S
C1101 C1106 1.350 . S
C1101 N1109 1.427 . S
C1102 H1093 0.930 . S
C1102 C1100 1.378 . S
C1102 C1103 1.367 . S
C1103 C1102 1.367 . S
C1103 C1105 1.433 . S
C1104 C1100 1.350 . S
C1104 C1101 1.463 . S
C1104 N1108 1.427 . S
C1105 H1095 0.929 . S
C1105 C1103 1.433 . S
C1105 N1108 1.384 . S
C1106 H1097 0.929 . S
C1106 C1098 1.378 . S
C1106 C1101 1.350 . S
C1107 H1094 0.929 . S
C1107 C1099 1.433 . S
C1107 N1109 1.384 . S
N1108 C1104 1.427 . S
N1108 C1105 1.384 . S
N1109 C1101 1.427 . S
N1109 C1107 1.384 . S
H1110 C1116 0.930 . S
H1111 C1120 0.926 1_565 S
H1112 C1125 0.929 . S
H1113 C1123 0.929 . S
H1114 C1118 0.929 1_565 S
H1115 C1124 0.929 . S
C1116 H1110 0.930 . S
C1116 C1117 1.367 . S
C1116 C1124 1.378 . S
C1117 C1116 1.367 . S
C1117 C1125 1.433 1_545 S
C1118 H1114 0.929 1_545 S
C1118 C1120 1.378 . S
C1118 C1122 1.350 . S
C1119 C1122 1.463 . S
C1119 C1124 1.350 . S
C1119 N1127 1.427 1_545 S
C1120 H1111 0.926 1_545 S
C1120 C1118 1.378 . S
C1120 C1121 1.367 . S
C1121 C1120 1.367 . S
C1121 C1123 1.433 . S
C1122 C1118 1.350 . S
C1122 C1119 1.463 . S
C1122 N1126 1.427 . S
C1123 H1113 0.929 . S
C1123 C1121 1.433 . S
C1123 N1126 1.384 . S
C1124 H1115 0.929 . S
C1124 C1116 1.378 . S
C1124 C1119 1.350 . S
C1125 H1112 0.929 . S
C1125 C1117 1.433 1_565 S
C1125 N1127 1.384 . S
N1126 C1122 1.427 . S
N1126 C1123 1.384 . S
N1127 C1119 1.427 1_565 S
N1127 C1125 1.384 . S
H1128 C1134 0.928 1_655 S
H1129 C1138 0.930 . S
H1130 C1143 0.929 . S
H1131 C1141 0.929 . S
H1132 C1136 0.929 . S
H1133 C1142 0.929 . S
C1134 H1128 0.928 1_455 S
C1134 C1135 1.367 . S
C1134 C1142 1.378 . S
C1135 C1134 1.367 . S
C1135 C1143 1.433 . S
C1136 H1132 0.929 . S
C1136 C1138 1.378 . S
C1136 C1140 1.350 . S
C1137 C1140 1.463 . S
C1137 C1142 1.350 . S
C1137 N1145 1.427 . S
C1138 H1129 0.930 . S
C1138 C1136 1.378 . S
C1138 C1139 1.367 . S
C1139 C1138 1.367 . S
C1139 C1141 1.433 . S
C1140 C1136 1.350 . S
C1140 C1137 1.463 . S
C1140 N1144 1.427 . S
C1141 H1131 0.929 . S
C1141 C1139 1.433 . S
C1141 N1144 1.384 . S
C1142 H1133 0.929 . S
C1142 C1134 1.378 . S
C1142 C1137 1.350 . S
C1143 H1130 0.929 . S
C1143 C1135 1.433 . S
C1143 N1145 1.384 . S
N1144 C1140 1.427 . S
N1144 C1141 1.384 . S
N1145 C1137 1.427 . S
N1145 C1143 1.384 . S
H1146 C1152 0.930 . S
H1147 C1156 0.930 . S
H1148 C1161 0.929 . S
H1149 C1159 0.929 . S
H1150 C1154 0.929 . S
H1151 C1160 0.929 . S
C1152 H1146 0.930 . S
C1152 C1153 1.367 . S
C1152 C1160 1.378 . S
C1153 C1152 1.367 . S
C1153 C1161 1.433 1_545 S
C1154 H1150 0.929 . S
C1154 C1156 1.378 . S
C1154 C1158 1.350 1_565 S
C1155 C1158 1.463 . S
C1155 C1160 1.350 . S
C1155 N1163 1.427 1_545 S
C1156 H1147 0.930 . S
C1156 C1154 1.378 . S
C1156 C1157 1.367 1_565 S
C1157 C1156 1.367 1_545 S
C1157 C1159 1.433 . S
C1158 C1154 1.350 1_545 S
C1158 C1155 1.463 . S
C1158 N1162 1.427 . S
C1159 H1149 0.929 . S
C1159 C1157 1.433 . S
C1159 N1162 1.384 . S
C1160 H1151 0.929 . S
C1160 C1152 1.378 . S
C1160 C1155 1.350 . S
C1161 H1148 0.929 . S
C1161 C1153 1.433 1_565 S
C1161 N1163 1.384 . S
N1162 C1158 1.427 . S
N1162 C1159 1.384 . S
N1163 C1155 1.427 1_565 S
N1163 C1161 1.384 . S
H1164 C1170 0.930 . S
H1165 C1174 0.955 . S
H1166 C1179 0.929 . S
H1167 C1177 0.929 . S
H1168 C1172 0.929 . S
H1169 C1178 0.929 . S
C1170 H1164 0.930 . S
C1170 C1171 1.367 . S
C1170 C1178 1.378 . S
C1171 C1170 1.367 . S
C1171 C1179 1.433 1_455 S
C1172 H1168 0.929 . S
C1172 C1174 1.378 . S
C1172 C1176 1.350 1_655 S
C1173 C1176 1.463 . S
C1173 C1178 1.350 . S
C1173 N1181 1.427 1_455 S
C1174 H1165 0.955 . S
C1174 C1172 1.378 . S
C1174 C1175 1.342 1_655 S
C1175 C1174 1.342 1_455 S
C1175 C1177 1.433 . S
C1176 C1172 1.350 1_455 S
C1176 C1173 1.463 . S
C1176 N1180 1.427 . S
C1177 H1167 0.929 . S
C1177 C1175 1.433 . S
C1177 N1180 1.384 . S
C1178 H1169 0.929 . S
C1178 C1170 1.378 . S
C1178 C1173 1.350 . S
C1179 H1166 0.929 . S
C1179 C1171 1.433 1_655 S
C1179 N1181 1.384 . S
N1180 C1176 1.427 . S
N1180 C1177 1.384 . S
N1181 C1173 1.427 1_655 S
N1181 C1179 1.384 . S
H1182 C1188 0.930 1_565 S
H1183 C1192 0.930 . S
H1184 C1197 0.929 . S
H1185 C1195 0.929 . S
H1186 C1190 0.929 . S
H1187 C1196 0.929 1_565 S
C1188 H1182 0.930 1_545 S
C1188 C1189 1.367 . S
C1188 C1196 1.378 . S
C1189 C1188 1.367 . S
C1189 C1197 1.433 . S
C1190 H1186 0.929 . S
C1190 C1192 1.378 . S
C1190 C1194 1.350 . S
C1191 C1194 1.463 . S
C1191 C1196 1.350 . S
C1191 N1199 1.427 . S
C1192 H1183 0.930 . S
C1192 C1190 1.378 . S
C1192 C1193 1.367 . S
C1193 C1192 1.367 . S
C1193 C1195 1.433 1_545 S
C1194 C1190 1.350 . S
C1194 C1191 1.463 . S
C1194 N1198 1.427 1_545 S
C1195 H1185 0.929 . S
C1195 C1193 1.433 1_565 S
C1195 N1198 1.384 . S
C1196 H1187 0.929 1_545 S
C1196 C1188 1.378 . S
C1196 C1191 1.350 . S
C1197 H1184 0.929 . S
C1197 C1189 1.433 . S
C1197 N1199 1.384 . S
N1198 C1194 1.427 1_565 S
N1198 C1195 1.384 . S
N1199 C1191 1.427 . S
N1199 C1197 1.384 . S
H1200 C1206 0.930 . S
H1201 C1210 0.930 . S
H1202 C1215 0.929 . S
H1203 C1213 0.929 . S
H1204 C1208 0.929 . S
H1205 C1214 0.929 . S
C1206 H1200 0.930 . S
C1206 C1207 1.367 . S
C1206 C1214 1.378 . S
C1207 C1206 1.367 . S
C1207 C1215 1.433 1_545 S
C1208 H1204 0.929 . S
C1208 C1210 1.378 . S
C1208 C1212 1.350 1_565 S
C1209 C1212 1.463 . S
C1209 C1214 1.350 . S
C1209 N1217 1.427 1_545 S
C1210 H1201 0.930 . S
C1210 C1208 1.378 . S
C1210 C1211 1.367 1_565 S
C1211 C1210 1.367 1_545 S
C1211 C1213 1.433 . S
C1212 C1208 1.350 1_545 S
C1212 C1209 1.463 . S
C1212 N1216 1.427 . S
C1213 H1203 0.929 . S
C1213 C1211 1.433 . S
C1213 N1216 1.384 . S
C1214 H1205 0.929 . S
C1214 C1206 1.378 . S
C1214 C1209 1.350 . S
C1215 H1202 0.929 . S
C1215 C1207 1.433 1_565 S
C1215 N1217 1.384 . S
N1216 C1212 1.427 . S
N1216 C1213 1.384 . S
N1217 C1209 1.427 1_565 S
N1217 C1215 1.384 . S
H1218 C1224 0.930 1_655 S
H1219 C1228 0.930 . S
H1220 C1233 0.929 . S
H1221 C1231 0.929 . S
H1222 C1226 0.929 . S
H1223 C1232 0.929 . S
C1224 H1218 0.930 1_455 S
C1224 C1225 1.367 . S
C1224 C1232 1.378 1_455 S
C1225 C1224 1.367 . S
C1225 C1233 1.433 . S
C1226 H1222 0.929 . S
C1226 C1228 1.378 . S
C1226 C1230 1.350 . S
C1227 C1230 1.463 . S
C1227 C1232 1.350 1_455 S
C1227 N1235 1.427 . S
C1228 H1219 0.930 . S
C1228 C1226 1.378 . S
C1228 C1229 1.367 . S
C1229 C1228 1.367 . S
C1229 C1231 1.433 1_455 S
C1230 C1226 1.350 . S
C1230 C1227 1.463 . S
C1230 N1234 1.427 1_455 S
C1231 H1221 0.929 . S
C1231 C1229 1.433 1_655 S
C1231 N1234 1.384 . S
C1232 H1223 0.929 . S
C1232 C1224 1.378 1_655 S
C1232 C1227 1.350 1_655 S
C1233 H1220 0.929 . S
C1233 C1225 1.433 . S
C1233 N1235 1.384 . S
N1234 C1230 1.427 1_655 S
N1234 C1231 1.384 . S
N1235 C1227 1.427 . S
N1235 C1233 1.384 . S
H1236 C1242 0.930 . S
H1237 C1246 0.930 . S
H1238 C1251 0.929 . S
H1239 C1249 0.929 . S
H1240 C1244 0.929 . S
H1241 C1250 0.929 . S
C1242 H1236 0.930 . S
C1242 C1243 1.367 . S
C1242 C1250 1.378 . S
C1243 C1242 1.367 . S
C1243 C1251 1.433 . S
C1244 H1240 0.929 . S
C1244 C1246 1.378 . S
C1244 C1248 1.350 . S
C1245 C1248 1.463 . S
C1245 C1250 1.350 . S
C1245 N1253 1.427 . S
C1246 H1237 0.930 . S
C1246 C1244 1.378 . S
C1246 C1247 1.367 . S
C1247 C1246 1.367 . S
C1247 C1249 1.433 . S
C1248 C1244 1.350 . S
C1248 C1245 1.463 . S
C1248 N1252 1.427 . S
C1249 H1239 0.929 . S
C1249 C1247 1.433 . S
C1249 N1252 1.384 . S
C1250 H1241 0.929 . S
C1250 C1242 1.378 . S
C1250 C1245 1.350 . S
C1251 H1238 0.929 . S
C1251 C1243 1.433 . S
C1251 N1253 1.384 . S
N1252 C1248 1.427 . S
N1252 C1249 1.384 . S
N1253 C1245 1.427 . S
N1253 C1251 1.384 . S
H1254 C1260 0.930 1_655 S
H1255 C1264 0.930 . S
H1256 C1269 0.929 . S
H1257 C1267 0.929 . S
H1258 C1262 0.929 . S
H1259 C1268 0.929 1_655 S
C1260 H1254 0.930 1_455 S
C1260 C1261 1.367 . S
C1260 C1268 1.378 . S
C1261 C1260 1.367 . S
C1261 C1269 1.433 . S
C1262 H1258 0.929 . S
C1262 C1264 1.378 . S
C1262 C1266 1.350 . S
C1263 C1266 1.463 . S
C1263 C1268 1.350 . S
C1263 N1271 1.427 . S
C1264 H1255 0.930 . S
C1264 C1262 1.378 . S
C1264 C1265 1.367 . S
C1265 C1264 1.367 . S
C1265 C1267 1.433 1_455 S
C1266 C1262 1.350 . S
C1266 C1263 1.463 . S
C1266 N1270 1.427 1_455 S
C1267 H1257 0.929 . S
C1267 C1265 1.433 1_655 S
C1267 N1270 1.384 . S
C1268 H1259 0.929 1_455 S
C1268 C1260 1.378 . S
C1268 C1263 1.350 . S
C1269 H1256 0.929 . S
C1269 C1261 1.433 . S
C1269 N1271 1.384 . S
N1270 C1266 1.427 1_655 S
N1270 C1267 1.384 . S
N1271 C1263 1.427 . S
N1271 C1269 1.384 . S
H1272 C1278 0.930 . S
H1273 C1282 0.930 . S
H1274 C1287 0.929 . S
H1275 C1285 0.929 . S
H1276 C1280 0.929 . S
H1277 C1286 0.929 . S
C1278 H1272 0.930 . S
C1278 C1279 1.367 . S
C1278 C1286 1.378 . S
C1279 C1278 1.367 . S
C1279 C1287 1.433 1_545 S
C1280 H1276 0.929 . S
C1280 C1282 1.378 . S
C1280 C1284 1.350 1_565 S
C1281 C1284 1.463 . S
C1281 C1286 1.350 . S
C1281 N1289 1.427 1_545 S
C1282 H1273 0.930 . S
C1282 C1280 1.378 . S
C1282 C1283 1.367 1_565 S
C1283 C1282 1.367 1_545 S
C1283 C1285 1.433 . S
C1284 C1280 1.350 1_545 S
C1284 C1281 1.463 . S
C1284 N1288 1.427 . S
C1285 H1275 0.929 . S
C1285 C1283 1.433 . S
C1285 N1288 1.384 . S
C1286 H1277 0.929 . S
C1286 C1278 1.378 . S
C1286 C1281 1.350 . S
C1287 H1274 0.929 . S
C1287 C1279 1.433 1_565 S
C1287 N1289 1.384 . S
N1288 C1284 1.427 . S
N1288 C1285 1.384 . S
N1289 C1281 1.427 1_565 S
N1289 C1287 1.384 . S
H1290 C1296 0.930 . S
H1291 C1300 0.930 . S
H1292 C1305 0.929 . S
H1293 C1303 0.929 . S
H1294 C1298 0.929 . S
H1295 C1304 0.929 . S
C1296 H1290 0.930 . S
C1296 C1297 1.367 . S
C1296 C1304 1.378 . S
C1297 C1296 1.367 . S
C1297 C1305 1.433 . S
C1298 H1294 0.929 . S
C1298 C1300 1.378 . S
C1298 C1302 1.350 . S
C1299 C1302 1.463 . S
C1299 C1304 1.350 . S
C1299 N1307 1.427 . S
C1300 H1291 0.930 . S
C1300 C1298 1.378 . S
C1300 C1301 1.367 . S
C1301 C1300 1.367 . S
C1301 C1303 1.433 . S
C1302 C1298 1.350 . S
C1302 C1299 1.463 . S
C1302 N1306 1.427 . S
C1303 H1293 0.929 . S
C1303 C1301 1.433 . S
C1303 N1306 1.384 . S
C1304 H1295 0.929 . S
C1304 C1296 1.378 . S
C1304 C1299 1.350 . S
C1305 H1292 0.929 . S
C1305 C1297 1.433 . S
C1305 N1307 1.384 . S
N1306 C1302 1.427 . S
N1306 C1303 1.384 . S
N1307 C1299 1.427 . S
N1307 C1305 1.384 . S
H1308 C1314 0.930 1_565 S
H1309 C1318 0.930 . S
H1310 C1323 0.929 . S
H1311 C1321 0.929 . S
H1312 C1316 0.929 . S
H1313 C1322 0.929 1_565 S
C1314 H1308 0.930 1_545 S
C1314 C1315 1.367 . S
C1314 C1322 1.378 . S
C1315 C1314 1.367 . S
C1315 C1323 1.433 . S
C1316 H1312 0.929 . S
C1316 C1318 1.378 . S
C1316 C1320 1.350 . S
C1317 C1320 1.463 . S
C1317 C1322 1.350 . S
C1317 N1325 1.427 . S
C1318 H1309 0.930 . S
C1318 C1316 1.378 . S
C1318 C1319 1.367 . S
C1319 C1318 1.367 . S
C1319 C1321 1.433 1_545 S
C1320 C1316 1.350 . S
C1320 C1317 1.463 . S
C1320 N1324 1.418 1_545 S
C1321 H1311 0.929 . S
C1321 C1319 1.433 1_565 S
C1321 N1324 1.384 . S
C1322 H1313 0.929 1_545 S
C1322 C1314 1.378 . S
C1322 C1317 1.350 . S
C1323 H1310 0.929 . S
C1323 C1315 1.433 . S
C1323 N1325 1.384 . S
N1324 C1320 1.418 1_565 S
N1324 C1321 1.384 . S
N1325 C1317 1.427 . S
N1325 C1323 1.384 . S
H1326 C1332 0.930 . S
H1327 C1336 0.930 . S
H1328 C1341 0.929 . S
H1329 C1339 0.929 . S
H1330 C1334 0.929 . S
H1331 C1340 0.929 . S
C1332 H1326 0.930 . S
C1332 C1333 1.360 1_655 S
C1332 C1340 1.378 . S
C1333 C1332 1.360 1_455 S
C1333 C1341 1.441 . S
C1334 H1330 0.929 . S
C1334 C1336 1.378 . S
C1334 C1338 1.350 . S
C1335 C1338 1.463 . S
C1335 C1340 1.350 1_455 S
C1335 N1343 1.427 . S
C1336 H1327 0.930 . S
C1336 C1334 1.378 . S
C1336 C1337 1.367 . S
C1337 C1336 1.367 . S
C1337 C1339 1.433 1_455 S
C1338 C1334 1.350 . S
C1338 C1335 1.463 . S
C1338 N1342 1.427 1_455 S
C1339 H1329 0.929 . S
C1339 C1337 1.433 1_655 S
C1339 N1342 1.384 . S
C1340 H1331 0.929 . S
C1340 C1332 1.378 . S
C1340 C1335 1.350 1_655 S
C1341 H1328 0.929 . S
C1341 C1333 1.441 . S
C1341 N1343 1.384 . S
N1342 C1338 1.427 1_655 S
N1342 C1339 1.384 . S
N1343 C1335 1.427 . S
N1343 C1341 1.384 . S
H1344 C1350 0.930 . S
H1345 C1354 0.930 . S
H1346 C1359 0.929 . S
H1347 C1357 0.929 . S
H1348 C1352 0.929 . S
H1349 C1358 0.929 . S
C1350 H1344 0.930 . S
C1350 C1351 1.367 . S
C1350 C1358 1.378 . S
C1351 C1350 1.367 . S
C1351 C1359 1.433 . S
C1352 H1348 0.929 . S
C1352 C1354 1.378 . S
C1352 C1356 1.350 . S
C1353 C1356 1.463 . S
C1353 C1358 1.350 . S
C1353 N1361 1.427 . S
C1354 H1345 0.930 . S
C1354 C1352 1.378 . S
C1354 C1355 1.367 . S
C1355 C1354 1.367 . S
C1355 C1357 1.433 . S
C1356 C1352 1.350 . S
C1356 C1353 1.463 . S
C1356 N1360 1.427 . S
C1357 H1347 0.929 . S
C1357 C1355 1.433 . S
C1357 N1360 1.384 . S
C1358 H1349 0.929 . S
C1358 C1350 1.378 . S
C1358 C1353 1.350 . S
C1359 H1346 0.929 . S
C1359 C1351 1.433 . S
C1359 N1361 1.384 . S
N1360 C1356 1.427 . S
N1360 C1357 1.384 . S
N1361 C1353 1.427 . S
N1361 C1359 1.384 . S
H1362 C1368 0.930 . S
H1363 C1372 0.930 . S
H1364 C1377 0.929 . S
H1365 C1375 0.929 . S
H1366 C1370 0.929 . S
H1367 C1376 0.929 . S
C1368 H1362 0.930 . S
C1368 C1369 1.367 1_556 S
C1368 C1376 1.378 . S
C1369 C1368 1.367 1_554 S
C1369 C1377 1.433 . S
C1370 H1366 0.929 . S
C1370 C1372 1.378 . S
C1370 C1374 1.350 . S
C1371 C1374 1.463 . S
C1371 C1376 1.350 1_554 S
C1371 N1379 1.427 . S
C1372 H1363 0.930 . S
C1372 C1370 1.378 . S
C1372 C1373 1.367 . S
C1373 C1372 1.367 . S
C1373 C1375 1.433 1_554 S
C1374 C1370 1.350 . S
C1374 C1371 1.463 . S
C1374 N1378 1.427 1_554 S
C1375 H1365 0.929 . S
C1375 C1373 1.433 1_556 S
C1375 N1378 1.384 . S
C1376 H1367 0.929 . S
C1376 C1368 1.378 . S
C1376 C1371 1.350 1_556 S
C1377 H1364 0.929 . S
C1377 C1369 1.433 . S
C1377 N1379 1.384 . S
N1378 C1374 1.427 1_556 S
N1378 C1375 1.384 . S
N1379 C1371 1.427 . S
N1379 C1377 1.384 . S
H1380 C1386 0.930 . S
H1381 C1390 0.930 . S
H1382 C1395 0.929 . S
H1383 C1393 0.929 . S
H1384 C1388 0.929 . S
H1385 C1394 0.929 . S
C1386 H1380 0.930 . S
C1386 C1387 1.367 . S
C1386 C1394 1.378 . S
C1387 C1386 1.367 . S
C1387 C1395 1.433 1_554 S
C1388 H1384 0.929 . S
C1388 C1390 1.378 . S
C1388 C1392 1.350 1_556 S
C1389 C1392 1.463 . S
C1389 C1394 1.350 . S
C1389 N1397 1.427 1_554 S
C1390 H1381 0.930 . S
C1390 C1388 1.378 . S
C1390 C1391 1.367 1_556 S
C1391 C1390 1.367 1_554 S
C1391 C1393 1.433 . S
C1392 C1388 1.350 1_554 S
C1392 C1389 1.463 . S
C1392 N1396 1.427 . S
C1393 H1383 0.929 . S
C1393 C1391 1.433 . S
C1393 N1396 1.384 . S
C1394 H1385 0.929 . S
C1394 C1386 1.378 . S
C1394 C1389 1.350 . S
C1395 H1382 0.929 . S
C1395 C1387 1.433 1_556 S
C1395 N1397 1.384 . S
N1396 C1392 1.427 . S
N1396 C1393 1.384 . S
N1397 C1389 1.427 1_556 S
N1397 C1395 1.384 . S
H1398 C1404 0.930 . S
H1399 C1408 0.930 . S
H1400 C1413 0.929 . S
H1401 C1411 0.929 . S
H1402 C1406 0.929 . S
H1403 C1412 0.929 . S
C1404 H1398 0.930 . S
C1404 C1405 1.384 . S
C1404 C1412 1.378 . S
C1405 C1404 1.384 . S
C1405 C1413 1.416 1_556 S
C1406 H1402 0.929 . S
C1406 C1408 1.378 . S
C1406 C1410 1.350 . S
C1407 C1410 1.463 1_556 S
C1407 C1412 1.350 . S
C1407 N1415 1.427 1_556 S
C1408 H1399 0.930 . S
C1408 C1406 1.378 . S
C1408 C1409 1.355 1_554 S
C1409 C1408 1.355 1_556 S
C1409 C1411 1.445 . S
C1410 C1406 1.350 . S
C1410 C1407 1.463 1_554 S
C1410 N1414 1.427 1_554 S
C1411 H1401 0.929 . S
C1411 C1409 1.445 . S
C1411 N1414 1.384 . S
C1412 H1403 0.929 . S
C1412 C1404 1.378 . S
C1412 C1407 1.350 . S
C1413 H1400 0.929 . S
C1413 C1405 1.416 1_554 S
C1413 N1415 1.384 . S
N1414 C1410 1.427 1_556 S
N1414 C1411 1.384 . S
N1415 C1407 1.427 1_554 S
N1415 C1413 1.384 . S
H1416 C1422 0.930 . S
H1417 C1426 0.930 . S
H1418 C1431 0.929 . S
H1419 C1429 0.929 . S
H1420 C1424 0.929 . S
H1421 C1430 0.929 . S
C1422 H1416 0.930 . S
C1422 C1423 1.367 . S
C1422 C1430 1.378 . S
C1423 C1422 1.367 . S
C1423 C1431 1.433 1_554 S
C1424 H1420 0.929 . S
C1424 C1426 1.378 . S
C1424 C1428 1.350 1_556 S
C1425 C1428 1.463 . S
C1425 C1430 1.350 . S
C1425 N1433 1.427 1_554 S
C1426 H1417 0.930 . S
C1426 C1424 1.378 . S
C1426 C1427 1.367 1_556 S
C1427 C1426 1.367 1_554 S
C1427 C1429 1.433 . S
C1428 C1424 1.350 1_554 S
C1428 C1425 1.463 . S
C1428 N1432 1.427 . S
C1429 H1419 0.929 . S
C1429 C1427 1.433 . S
C1429 N1432 1.384 . S
C1430 H1421 0.929 . S
C1430 C1422 1.378 . S
C1430 C1425 1.350 . S
C1431 H1418 0.929 . S
C1431 C1423 1.433 1_556 S
C1431 N1433 1.384 . S
N1432 C1428 1.427 . S
N1432 C1429 1.384 . S
N1433 C1425 1.427 1_556 S
N1433 C1431 1.384 . S
H1434 C1440 0.930 . S
H1435 C1444 0.930 . S
H1436 C1449 0.929 . S
H1437 C1447 0.929 . S
H1438 C1442 0.929 . S
H1439 C1448 0.929 . S
C1440 H1434 0.930 . S
C1440 C1441 1.367 . S
C1440 C1448 1.378 . S
C1441 C1440 1.367 . S
C1441 C1449 1.433 1_554 S
C1442 H1438 0.929 . S
C1442 C1444 1.378 . S
C1442 C1446 1.350 1_556 S
C1443 C1446 1.463 . S
C1443 C1448 1.350 . S
C1443 N1451 1.427 1_554 S
C1444 H1435 0.930 . S
C1444 C1442 1.378 . S
C1444 C1445 1.367 1_556 S
C1445 C1444 1.367 1_554 S
C1445 C1447 1.433 . S
C1446 C1442 1.350 1_554 S
C1446 C1443 1.463 . S
C1446 N1450 1.427 . S
C1447 H1437 0.929 . S
C1447 C1445 1.433 . S
C1447 N1450 1.384 . S
C1448 H1439 0.929 . S
C1448 C1440 1.378 . S
C1448 C1443 1.350 . S
C1449 H1436 0.929 . S
C1449 C1441 1.433 1_556 S
C1449 N1451 1.384 . S
N1450 C1446 1.427 . S
N1450 C1447 1.384 . S
N1451 C1443 1.427 1_556 S
N1451 C1449 1.384 . S
H1452 C1458 0.930 . S
H1453 C1462 0.930 . S
H1454 C1467 0.929 . S
H1455 C1465 0.929 . S
H1456 C1460 0.929 . S
H1457 C1466 0.929 . S
C1458 H1452 0.930 . S
C1458 C1459 1.367 . S
C1458 C1466 1.378 . S
C1459 C1458 1.367 . S
C1459 C1467 1.433 1_554 S
C1460 H1456 0.929 . S
C1460 C1462 1.378 . S
C1460 C1464 1.350 1_556 S
C1461 C1464 1.463 . S
C1461 C1466 1.350 . S
C1461 N1469 1.427 1_554 S
C1462 H1453 0.930 . S
C1462 C1460 1.378 . S
C1462 C1463 1.367 1_556 S
C1463 C1462 1.367 1_554 S
C1463 C1465 1.433 . S
C1464 C1460 1.350 1_554 S
C1464 C1461 1.463 . S
C1464 N1468 1.427 . S
C1465 H1455 0.929 . S
C1465 C1463 1.433 . S
C1465 N1468 1.384 . S
C1466 H1457 0.929 . S
C1466 C1458 1.378 . S
C1466 C1461 1.350 . S
C1467 H1454 0.929 . S
C1467 C1459 1.433 1_556 S
C1467 N1469 1.384 . S
N1468 C1464 1.427 . S
N1468 C1465 1.384 . S
N1469 C1461 1.427 1_556 S
N1469 C1467 1.384 . S
H1470 C1476 0.930 . S
H1471 C1480 0.930 . S
H1472 C1485 0.929 . S
H1473 C1483 0.929 . S
H1474 C1478 0.929 . S
H1475 C1484 0.929 . S
C1476 H1470 0.930 . S
C1476 C1477 1.367 . S
C1476 C1484 1.378 . S
C1477 C1476 1.367 . S
C1477 C1485 1.433 1_554 S
C1478 H1474 0.929 . S
C1478 C1480 1.378 . S
C1478 C1482 1.350 1_556 S
C1479 C1482 1.463 . S
C1479 C1484 1.350 . S
C1479 N1487 1.427 1_554 S
C1480 H1471 0.930 . S
C1480 C1478 1.378 . S
C1480 C1481 1.367 1_556 S
C1481 C1480 1.367 1_554 S
C1481 C1483 1.433 . S
C1482 C1478 1.350 1_554 S
C1482 C1479 1.463 . S
C1482 N1486 1.427 . S
C1483 H1473 0.929 . S
C1483 C1481 1.433 . S
C1483 N1486 1.384 . S
C1484 H1475 0.929 . S
C1484 C1476 1.378 . S
C1484 C1479 1.350 . S
C1485 H1472 0.929 . S
C1485 C1477 1.433 1_556 S
C1485 N1487 1.384 . S
N1486 C1482 1.427 . S
N1486 C1483 1.384 . S
N1487 C1479 1.427 1_556 S
N1487 C1485 1.384 . S
H1488 C1494 0.930 . S
H1489 C1498 0.930 . S
H1490 C1503 0.929 . S
H1491 C1501 0.929 . S
H1492 C1496 0.929 . S
H1493 C1502 0.929 . S
C1494 H1488 0.930 . S
C1494 C1495 1.367 . S
C1494 C1502 1.378 . S
C1495 C1494 1.367 . S
C1495 C1503 1.433 . S
C1496 H1492 0.929 . S
C1496 C1498 1.378 . S
C1496 C1500 1.350 . S
C1497 C1500 1.463 . S
C1497 C1502 1.350 . S
C1497 N1505 1.427 . S
C1498 H1489 0.930 . S
C1498 C1496 1.378 . S
C1498 C1499 1.367 . S
C1499 C1498 1.367 . S
C1499 C1501 1.433 . S
C1500 C1496 1.350 . S
C1500 C1497 1.463 . S
C1500 N1504 1.427 . S
C1501 H1491 0.929 . S
C1501 C1499 1.433 . S
C1501 N1504 1.384 . S
C1502 H1493 0.929 . S
C1502 C1494 1.378 . S
C1502 C1497 1.350 . S
C1503 H1490 0.929 . S
C1503 C1495 1.433 . S
C1503 N1505 1.384 . S
N1504 C1500 1.427 . S
N1504 C1501 1.384 . S
N1505 C1497 1.427 . S
N1505 C1503 1.384 . S
H1506 C1512 0.930 . S
H1507 C1516 0.930 . S
H1508 C1521 0.929 . S
H1509 C1519 0.929 . S
H1510 C1514 0.929 . S
H1511 C1520 0.929 . S
C1512 H1506 0.930 . S
C1512 C1513 1.367 . S
C1512 C1520 1.378 . S
C1513 C1512 1.367 . S
C1513 C1521 1.433 . S
C1514 H1510 0.929 . S
C1514 C1516 1.378 . S
C1514 C1518 1.350 . S
C1515 C1518 1.463 . S
C1515 C1520 1.350 . S
C1515 N1523 1.427 . S
C1516 H1507 0.930 . S
C1516 C1514 1.378 . S
C1516 C1517 1.367 . S
C1517 C1516 1.367 . S
C1517 C1519 1.433 . S
C1518 C1514 1.350 . S
C1518 C1515 1.463 . S
C1518 N1522 1.427 . S
C1519 H1509 0.929 . S
C1519 C1517 1.433 . S
C1519 N1522 1.384 . S
C1520 H1511 0.929 . S
C1520 C1512 1.378 . S
C1520 C1515 1.350 . S
C1521 H1508 0.929 . S
C1521 C1513 1.433 . S
C1521 N1523 1.384 . S
N1522 C1518 1.427 . S
N1522 C1519 1.384 . S
N1523 C1515 1.427 . S
N1523 C1521 1.384 . S
H1524 C1530 0.930 . S
H1525 C1534 0.930 . S
H1526 C1539 0.929 . S
H1527 C1537 0.929 . S
H1528 C1532 0.929 . S
H1529 C1538 0.929 . S
C1530 H1524 0.930 . S
C1530 C1531 1.367 . S
C1530 C1538 1.378 . S
C1531 C1530 1.367 . S
C1531 C1539 1.433 . S
C1532 H1528 0.929 . S
C1532 C1534 1.378 . S
C1532 C1536 1.350 . S
C1533 C1536 1.463 . S
C1533 C1538 1.350 . S
C1533 N1541 1.427 . S
C1534 H1525 0.930 . S
C1534 C1532 1.378 . S
C1534 C1535 1.367 . S
C1535 C1534 1.367 . S
C1535 C1537 1.433 . S
C1536 C1532 1.350 . S
C1536 C1533 1.463 . S
C1536 N1540 1.427 . S
C1537 H1527 0.929 . S
C1537 C1535 1.433 . S
C1537 N1540 1.384 . S
C1538 H1529 0.929 . S
C1538 C1530 1.378 . S
C1538 C1533 1.350 . S
C1539 H1526 0.929 . S
C1539 C1531 1.433 . S
C1539 N1541 1.384 . S
N1540 C1536 1.427 . S
N1540 C1537 1.384 . S
N1541 C1533 1.427 . S
N1541 C1539 1.384 . S
H1542 C1548 0.930 . S
H1543 C1552 0.930 . S
H1544 C1557 0.929 . S
H1545 C1555 0.929 . S
H1546 C1550 0.929 . S
H1547 C1556 0.929 . S
C1548 H1542 0.930 . S
C1548 C1549 1.367 . S
C1548 C1556 1.378 . S
C1549 C1548 1.367 . S
C1549 C1557 1.433 . S
C1550 H1546 0.929 . S
C1550 C1552 1.378 . S
C1550 C1554 1.350 . S
C1551 C1554 1.463 . S
C1551 C1556 1.350 . S
C1551 N1559 1.427 . S
C1552 H1543 0.930 . S
C1552 C1550 1.378 . S
C1552 C1553 1.367 . S
C1553 C1552 1.367 . S
C1553 C1555 1.433 . S
C1554 C1550 1.350 . S
C1554 C1551 1.463 . S
C1554 N1558 1.427 . S
C1555 H1545 0.929 . S
C1555 C1553 1.433 . S
C1555 N1558 1.384 . S
C1556 H1547 0.929 . S
C1556 C1548 1.378 . S
C1556 C1551 1.350 . S
C1557 H1544 0.929 . S
C1557 C1549 1.433 . S
C1557 N1559 1.384 . S
N1558 C1554 1.427 . S
N1558 C1555 1.384 . S
N1559 C1551 1.427 . S
N1559 C1557 1.384 . S
H1560 C1566 0.930 . S
H1561 C1570 0.930 . S
H1562 C1575 0.929 . S
H1563 C1573 0.929 . S
H1564 C1568 0.929 . S
H1565 C1574 0.929 . S
C1566 H1560 0.930 . S
C1566 C1567 1.367 . S
C1566 C1574 1.378 . S
C1567 C1566 1.367 . S
C1567 C1575 1.433 . S
C1568 H1564 0.929 . S
C1568 C1570 1.378 . S
C1568 C1572 1.350 . S
C1569 C1572 1.463 . S
C1569 C1574 1.350 . S
C1569 N1577 1.427 . S
C1570 H1561 0.930 . S
C1570 C1568 1.378 . S
C1570 C1571 1.367 . S
C1571 C1570 1.367 . S
C1571 C1573 1.433 . S
C1572 C1568 1.350 . S
C1572 C1569 1.463 . S
C1572 N1576 1.427 . S
C1573 H1563 0.929 . S
C1573 C1571 1.433 . S
C1573 N1576 1.384 . S
C1574 H1565 0.929 . S
C1574 C1566 1.378 . S
C1574 C1569 1.350 . S
C1575 H1562 0.929 . S
C1575 C1567 1.433 . S
C1575 N1577 1.384 . S
N1576 C1572 1.427 . S
N1576 C1573 1.384 . S
N1577 C1569 1.427 . S
N1577 C1575 1.384 . S
H1578 C1584 0.930 . S
H1579 C1588 0.930 . S
H1580 C1593 0.929 . S
H1581 C1591 0.929 . S
H1582 C1586 0.929 . S
H1583 C1592 0.929 . S
C1584 H1578 0.930 . S
C1584 C1585 1.367 . S
C1584 C1592 1.378 . S
C1585 C1584 1.367 . S
C1585 C1593 1.433 . S
C1586 H1582 0.929 . S
C1586 C1588 1.378 . S
C1586 C1590 1.350 . S
C1587 C1590 1.463 . S
C1587 C1592 1.350 . S
C1587 N1595 1.427 . S
C1588 H1579 0.930 . S
C1588 C1586 1.378 . S
C1588 C1589 1.367 . S
C1589 C1588 1.367 . S
C1589 C1591 1.433 . S
C1590 C1586 1.350 . S
C1590 C1587 1.463 . S
C1590 N1594 1.427 . S
C1591 H1581 0.929 . S
C1591 C1589 1.433 . S
C1591 N1594 1.384 . S
C1592 H1583 0.929 . S
C1592 C1584 1.378 . S
C1592 C1587 1.350 . S
C1593 H1580 0.929 . S
C1593 C1585 1.433 . S
C1593 N1595 1.384 . S
N1594 C1590 1.427 . S
N1594 C1591 1.384 . S
N1595 C1587 1.427 . S
N1595 C1593 1.384 . S
H1596 C1602 0.930 . S
H1597 C1606 0.930 . S
H1598 C1611 0.929 . S
H1599 C1609 0.929 . S
H1600 C1604 0.929 . S
H1601 C1610 0.929 . S
C1602 H1596 0.930 . S
C1602 C1603 1.367 . S
C1602 C1610 1.378 . S
C1603 C1602 1.367 . S
C1603 C1611 1.433 . S
C1604 H1600 0.929 . S
C1604 C1606 1.378 . S
C1604 C1608 1.350 . S
C1605 C1608 1.463 . S
C1605 C1610 1.350 . S
C1605 N1613 1.427 . S
C1606 H1597 0.930 . S
C1606 C1604 1.378 . S
C1606 C1607 1.367 . S
C1607 C1606 1.367 . S
C1607 C1609 1.433 . S
C1608 C1604 1.350 . S
C1608 C1605 1.463 . S
C1608 N1612 1.427 . S
C1609 H1599 0.929 . S
C1609 C1607 1.433 . S
C1609 N1612 1.384 . S
C1610 H1601 0.929 . S
C1610 C1602 1.378 . S
C1610 C1605 1.350 . S
C1611 H1598 0.929 . S
C1611 C1603 1.433 . S
C1611 N1613 1.384 . S
N1612 C1608 1.427 . S
N1612 C1609 1.384 . S
N1613 C1605 1.427 . S
N1613 C1611 1.384 . S
H1614 C1620 0.930 . S
H1615 C1624 0.930 . S
H1616 C1629 0.929 . S
H1617 C1627 0.929 . S
H1618 C1622 0.929 . S
H1619 C1628 0.929 . S
C1620 H1614 0.930 . S
C1620 C1621 1.367 . S
C1620 C1628 1.378 . S
C1621 C1620 1.367 . S
C1621 C1629 1.433 . S
C1622 H1618 0.929 . S
C1622 C1624 1.378 . S
C1622 C1626 1.350 . S
C1623 C1626 1.463 . S
C1623 C1628 1.350 . S
C1623 N1631 1.427 . S
C1624 H1615 0.930 . S
C1624 C1622 1.378 . S
C1624 C1625 1.367 . S
C1625 C1624 1.367 . S
C1625 C1627 1.433 . S
C1626 C1622 1.350 . S
C1626 C1623 1.463 . S
C1626 N1630 1.427 . S
C1627 H1617 0.929 . S
C1627 C1625 1.433 . S
C1627 N1630 1.384 . S
C1628 H1619 0.929 . S
C1628 C1620 1.378 . S
C1628 C1623 1.350 . S
C1629 H1616 0.929 . S
C1629 C1621 1.433 . S
C1629 N1631 1.384 . S
N1630 C1626 1.427 . S
N1630 C1627 1.384 . S
N1631 C1623 1.427 . S
N1631 C1629 1.384 . S
H1632 C1638 0.930 . S
H1633 C1642 0.930 . S
H1634 C1647 0.929 . S
H1635 C1645 0.929 . S
H1636 C1640 0.929 . S
H1637 C1646 0.929 . S
C1638 H1632 0.930 . S
C1638 C1639 1.367 . S
C1638 C1646 1.378 . S
C1639 C1638 1.367 . S
C1639 C1647 1.433 . S
C1640 H1636 0.929 . S
C1640 C1642 1.378 . S
C1640 C1644 1.350 . S
C1641 C1644 1.463 . S
C1641 C1646 1.350 . S
C1641 N1649 1.427 . S
C1642 H1633 0.930 . S
C1642 C1640 1.378 . S
C1642 C1643 1.367 . S
C1643 C1642 1.367 . S
C1643 C1645 1.433 . S
C1644 C1640 1.350 . S
C1644 C1641 1.463 . S
C1644 N1648 1.427 . S
C1645 H1635 0.929 . S
C1645 C1643 1.433 . S
C1645 N1648 1.384 . S
C1646 H1637 0.929 . S
C1646 C1638 1.378 . S
C1646 C1641 1.350 . S
C1647 H1634 0.929 . S
C1647 C1639 1.433 . S
C1647 N1649 1.384 . S
N1648 C1644 1.427 . S
N1648 C1645 1.384 . S
N1649 C1641 1.427 . S
N1649 C1647 1.384 . S
H1650 C1656 0.930 . S
H1651 C1660 0.930 . S
H1652 C1665 0.929 . S
H1653 C1663 0.929 . S
H1654 C1658 0.929 . S
H1655 C1664 0.929 . S
C1656 H1650 0.930 . S
C1656 C1657 1.367 . S
C1656 C1664 1.378 . S
C1657 C1656 1.367 . S
C1657 C1665 1.433 . S
C1658 H1654 0.929 . S
C1658 C1660 1.378 . S
C1658 C1662 1.350 . S
C1659 C1662 1.463 . S
C1659 C1664 1.350 . S
C1659 N1667 1.427 . S
C1660 H1651 0.930 . S
C1660 C1658 1.378 . S
C1660 C1661 1.367 . S
C1661 C1660 1.367 . S
C1661 C1663 1.433 . S
C1662 C1658 1.350 . S
C1662 C1659 1.463 . S
C1662 N1666 1.427 . S
C1663 H1653 0.929 . S
C1663 C1661 1.433 . S
C1663 N1666 1.384 . S
C1664 H1655 0.929 . S
C1664 C1656 1.378 . S
C1664 C1659 1.350 . S
C1665 H1652 0.929 . S
C1665 C1657 1.433 . S
C1665 N1667 1.384 . S
N1666 C1662 1.427 . S
N1666 C1663 1.384 . S
N1667 C1659 1.427 . S
N1667 C1665 1.384 . S
H1668 C1674 0.930 . S
H1669 C1678 0.930 . S
H1670 C1683 0.929 . S
H1671 C1681 0.929 . S
H1672 C1676 0.929 . S
H1673 C1682 0.929 . S
C1674 H1668 0.930 . S
C1674 C1675 1.367 . S
C1674 C1682 1.378 . S
C1675 C1674 1.367 . S
C1675 C1683 1.433 . S
C1676 H1672 0.929 . S
C1676 C1678 1.378 . S
C1676 C1680 1.350 . S
C1677 C1680 1.463 . S
C1677 C1682 1.350 . S
C1677 N1685 1.427 . S
C1678 H1669 0.930 . S
C1678 C1676 1.378 . S
C1678 C1679 1.367 . S
C1679 C1678 1.367 . S
C1679 C1681 1.433 . S
C1680 C1676 1.350 . S
C1680 C1677 1.463 . S
C1680 N1684 1.427 . S
C1681 H1671 0.929 . S
C1681 C1679 1.433 . S
C1681 N1684 1.384 . S
C1682 H1673 0.929 . S
C1682 C1674 1.378 . S
C1682 C1677 1.350 . S
C1683 H1670 0.929 . S
C1683 C1675 1.433 . S
C1683 N1685 1.384 . S
N1684 C1680 1.427 . S
N1684 C1681 1.384 . S
N1685 C1677 1.427 . S
N1685 C1683 1.384 . S
H1686 C1692 0.930 . S
H1687 C1696 0.930 . S
H1688 C1701 0.929 . S
H1689 C1699 0.929 . S
H1690 C1694 0.929 . S
H1691 C1700 0.929 . S
C1692 H1686 0.930 . S
C1692 C1693 1.367 . S
C1692 C1700 1.378 . S
C1693 C1692 1.367 . S
C1693 C1701 1.433 . S
C1694 H1690 0.929 . S
C1694 C1696 1.378 . S
C1694 C1698 1.350 . S
C1695 C1698 1.463 . S
C1695 C1700 1.350 . S
C1695 N1703 1.427 . S
C1696 H1687 0.930 . S
C1696 C1694 1.378 . S
C1696 C1697 1.367 . S
C1697 C1696 1.367 . S
C1697 C1699 1.433 . S
C1698 C1694 1.350 . S
C1698 C1695 1.463 . S
C1698 N1702 1.427 . S
C1699 H1689 0.929 . S
C1699 C1697 1.433 . S
C1699 N1702 1.384 . S
C1700 H1691 0.929 . S
C1700 C1692 1.378 . S
C1700 C1695 1.350 . S
C1701 H1688 0.929 . S
C1701 C1693 1.433 . S
C1701 N1703 1.384 . S
N1702 C1698 1.427 . S
N1702 C1699 1.384 . S
N1703 C1695 1.427 . S
N1703 C1701 1.384 . S
H1704 C1710 0.930 . S
H1705 C1714 0.930 . S
H1706 C1719 0.929 . S
H1707 C1717 0.929 . S
H1708 C1712 0.929 . S
H1709 C1718 0.929 . S
C1710 H1704 0.930 . S
C1710 C1711 1.367 . S
C1710 C1718 1.378 . S
C1711 C1710 1.367 . S
C1711 C1719 1.433 . S
C1712 H1708 0.929 . S
C1712 C1714 1.378 . S
C1712 C1716 1.350 . S
C1713 C1716 1.463 . S
C1713 C1718 1.350 . S
C1713 N1721 1.427 . S
C1714 H1705 0.930 . S
C1714 C1712 1.378 . S
C1714 C1715 1.367 . S
C1715 C1714 1.367 . S
C1715 C1717 1.433 . S
C1716 C1712 1.350 . S
C1716 C1713 1.463 . S
C1716 N1720 1.427 . S
C1717 H1707 0.929 . S
C1717 C1715 1.433 . S
C1717 N1720 1.384 . S
C1718 H1709 0.929 . S
C1718 C1710 1.378 . S
C1718 C1713 1.350 . S
C1719 H1706 0.929 . S
C1719 C1711 1.433 . S
C1719 N1721 1.384 . S
N1720 C1716 1.427 . S
N1720 C1717 1.384 . S
N1721 C1713 1.427 . S
N1721 C1719 1.384 . S
H1722 C1728 0.930 . S
H1723 C1732 0.930 . S
H1724 C1737 0.929 . S
H1725 C1735 0.929 . S
H1726 C1730 0.929 . S
H1727 C1736 0.929 . S
C1728 H1722 0.930 . S
C1728 C1729 1.367 . S
C1728 C1736 1.378 . S
C1729 C1728 1.367 . S
C1729 C1737 1.433 . S
C1730 H1726 0.929 . S
C1730 C1732 1.378 . S
C1730 C1734 1.350 . S
C1731 C1734 1.463 . S
C1731 C1736 1.350 . S
C1731 N1739 1.427 . S
C1732 H1723 0.930 . S
C1732 C1730 1.378 . S
C1732 C1733 1.367 . S
C1733 C1732 1.367 . S
C1733 C1735 1.433 . S
C1734 C1730 1.350 . S
C1734 C1731 1.463 . S
C1734 N1738 1.427 . S
C1735 H1725 0.929 . S
C1735 C1733 1.433 . S
C1735 N1738 1.384 . S
C1736 H1727 0.929 . S
C1736 C1728 1.378 . S
C1736 C1731 1.350 . S
C1737 H1724 0.929 . S
C1737 C1729 1.433 . S
C1737 N1739 1.384 . S
N1738 C1734 1.427 . S
N1738 C1735 1.384 . S
N1739 C1731 1.427 . S
N1739 C1737 1.384 . S
H1740 C1746 0.930 . S
H1741 C1750 0.930 . S
H1742 C1755 0.929 . S
H1743 C1753 0.929 . S
H1744 C1748 0.929 . S
H1745 C1754 0.929 . S
C1746 H1740 0.930 . S
C1746 C1747 1.367 . S
C1746 C1754 1.378 . S
C1747 C1746 1.367 . S
C1747 C1755 1.433 . S
C1748 H1744 0.929 . S
C1748 C1750 1.378 . S
C1748 C1752 1.350 . S
C1749 C1752 1.463 . S
C1749 C1754 1.350 . S
C1749 N1757 1.427 . S
C1750 H1741 0.930 . S
C1750 C1748 1.378 . S
C1750 C1751 1.367 . S
C1751 C1750 1.367 . S
C1751 C1753 1.433 . S
C1752 C1748 1.350 . S
C1752 C1749 1.463 . S
C1752 N1756 1.427 . S
C1753 H1743 0.929 . S
C1753 C1751 1.433 . S
C1753 N1756 1.384 . S
C1754 H1745 0.929 . S
C1754 C1746 1.378 . S
C1754 C1749 1.350 . S
C1755 H1742 0.929 . S
C1755 C1747 1.433 . S
C1755 N1757 1.384 . S
N1756 C1752 1.427 . S
N1756 C1753 1.384 . S
N1757 C1749 1.427 . S
N1757 C1755 1.384 . S
H1758 C1764 0.930 . S
H1759 C1768 0.930 . S
H1760 C1773 0.929 . S
H1761 C1771 0.929 . S
H1762 C1766 0.929 . S
H1763 C1772 0.929 . S
C1764 H1758 0.930 . S
C1764 C1765 1.367 . S
C1764 C1772 1.378 . S
C1765 C1764 1.367 . S
C1765 C1773 1.433 . S
C1766 H1762 0.929 . S
C1766 C1768 1.378 . S
C1766 C1770 1.350 . S
C1767 C1770 1.463 . S
C1767 C1772 1.350 . S
C1767 N1775 1.427 . S
C1768 H1759 0.930 . S
C1768 C1766 1.378 . S
C1768 C1769 1.367 . S
C1769 C1768 1.367 . S
C1769 C1771 1.433 . S
C1770 C1766 1.350 . S
C1770 C1767 1.463 . S
C1770 N1774 1.427 . S
C1771 H1761 0.929 . S
C1771 C1769 1.433 . S
C1771 N1774 1.384 . S
C1772 H1763 0.929 . S
C1772 C1764 1.378 . S
C1772 C1767 1.350 . S
C1773 H1760 0.929 . S
C1773 C1765 1.433 . S
C1773 N1775 1.384 . S
N1774 C1770 1.427 . S
N1774 C1771 1.384 . S
N1775 C1767 1.427 . S
N1775 C1773 1.384 . S
H1776 C1782 0.930 . S
H1777 C1786 0.930 . S
H1778 C1791 0.929 . S
H1779 C1789 0.929 . S
H1780 C1784 0.929 . S
H1781 C1790 0.929 . S
C1782 H1776 0.930 . S
C1782 C1783 1.367 . S
C1782 C1790 1.378 . S
C1783 C1782 1.367 . S
C1783 C1791 1.433 . S
C1784 H1780 0.929 . S
C1784 C1786 1.378 . S
C1784 C1788 1.350 . S
C1785 C1788 1.463 . S
C1785 C1790 1.350 . S
C1785 N1793 1.427 . S
C1786 H1777 0.930 . S
C1786 C1784 1.378 . S
C1786 C1787 1.367 . S
C1787 C1786 1.367 . S
C1787 C1789 1.433 . S
C1788 C1784 1.350 . S
C1788 C1785 1.463 . S
C1788 N1792 1.427 . S
C1789 H1779 0.929 . S
C1789 C1787 1.433 . S
C1789 N1792 1.384 . S
C1790 H1781 0.929 . S
C1790 C1782 1.378 . S
C1790 C1785 1.350 . S
C1791 H1778 0.929 . S
C1791 C1783 1.433 . S
C1791 N1793 1.384 . S
N1792 C1788 1.427 . S
N1792 C1789 1.384 . S
N1793 C1785 1.427 . S
N1793 C1791 1.384 . S
H1794 C1800 0.930 . S
H1795 C1804 0.930 . S
H1796 C1809 0.929 . S
H1797 C1807 0.929 . S
H1798 C1802 0.929 . S
H1799 C1808 0.929 . S
C1800 H1794 0.930 . S
C1800 C1801 1.367 . S
C1800 C1808 1.378 . S
C1801 C1800 1.367 . S
C1801 C1809 1.433 . S
C1802 H1798 0.929 . S
C1802 C1804 1.378 . S
C1802 C1806 1.350 . S
C1803 C1806 1.463 . S
C1803 C1808 1.350 . S
C1803 N1811 1.427 . S
C1804 H1795 0.930 . S
C1804 C1802 1.378 . S
C1804 C1805 1.367 . S
C1805 C1804 1.367 . S
C1805 C1807 1.433 . S
C1806 C1802 1.350 . S
C1806 C1803 1.463 . S
C1806 N1810 1.427 . S
C1807 H1797 0.929 . S
C1807 C1805 1.433 . S
C1807 N1810 1.384 . S
C1808 H1799 0.929 . S
C1808 C1800 1.378 . S
C1808 C1803 1.350 . S
C1809 H1796 0.929 . S
C1809 C1801 1.433 . S
C1809 N1811 1.384 . S
N1810 C1806 1.427 . S
N1810 C1807 1.384 . S
N1811 C1803 1.427 . S
N1811 C1809 1.384 . S
H1812 C1818 0.930 . S
H1813 C1822 0.930 . S
H1814 C1827 0.929 . S
H1815 C1825 0.929 . S
H1816 C1820 0.929 . S
H1817 C1826 0.929 . S
C1818 H1812 0.930 . S
C1818 C1819 1.367 . S
C1818 C1826 1.378 . S
C1819 C1818 1.367 . S
C1819 C1827 1.433 . S
C1820 H1816 0.929 . S
C1820 C1822 1.378 . S
C1820 C1824 1.350 . S
C1821 C1824 1.463 . S
C1821 C1826 1.350 . S
C1821 N1829 1.427 . S
C1822 H1813 0.930 . S
C1822 C1820 1.378 . S
C1822 C1823 1.367 . S
C1823 C1822 1.367 . S
C1823 C1825 1.433 . S
C1824 C1820 1.350 . S
C1824 C1821 1.463 . S
C1824 N1828 1.427 . S
C1825 H1815 0.929 . S
C1825 C1823 1.433 . S
C1825 N1828 1.384 . S
C1826 H1817 0.929 . S
C1826 C1818 1.378 . S
C1826 C1821 1.350 . S
C1827 H1814 0.929 . S
C1827 C1819 1.433 . S
C1827 N1829 1.384 . S
N1828 C1824 1.427 . S
N1828 C1825 1.384 . S
N1829 C1821 1.427 . S
N1829 C1827 1.384 . S
H1830 C1836 0.930 . S
H1831 C1840 0.930 . S
H1832 C1845 0.929 . S
H1833 C1843 0.929 . S
H1834 C1838 0.929 . S
H1835 C1844 0.929 . S
C1836 H1830 0.930 . S
C1836 C1837 1.367 . S
C1836 C1844 1.378 . S
C1837 C1836 1.367 . S
C1837 C1845 1.433 . S
C1838 H1834 0.929 . S
C1838 C1840 1.378 . S
C1838 C1842 1.350 . S
C1839 C1842 1.463 . S
C1839 C1844 1.350 . S
C1839 N1847 1.427 . S
C1840 H1831 0.930 . S
C1840 C1838 1.378 . S
C1840 C1841 1.367 . S
C1841 C1840 1.367 . S
C1841 C1843 1.433 . S
C1842 C1838 1.350 . S
C1842 C1839 1.463 . S
C1842 N1846 1.427 . S
C1843 H1833 0.929 . S
C1843 C1841 1.433 . S
C1843 N1846 1.384 . S
C1844 H1835 0.929 . S
C1844 C1836 1.378 . S
C1844 C1839 1.350 . S
C1845 H1832 0.929 . S
C1845 C1837 1.433 . S
C1845 N1847 1.384 . S
N1846 C1842 1.427 . S
N1846 C1843 1.384 . S
N1847 C1839 1.427 . S
N1847 C1845 1.384 . S
H1848 C1854 0.930 . S
H1849 C1858 0.930 . S
H1850 C1863 0.929 . S
H1851 C1861 0.929 . S
H1852 C1856 0.929 . S
H1853 C1862 0.929 . S
C1854 H1848 0.930 . S
C1854 C1855 1.367 . S
C1854 C1862 1.378 . S
C1855 C1854 1.367 . S
C1855 C1863 1.433 . S
C1856 H1852 0.929 . S
C1856 C1858 1.378 . S
C1856 C1860 1.350 . S
C1857 C1860 1.463 . S
C1857 C1862 1.350 . S
C1857 N1865 1.427 . S
C1858 H1849 0.930 . S
C1858 C1856 1.378 . S
C1858 C1859 1.367 . S
C1859 C1858 1.367 . S
C1859 C1861 1.433 . S
C1860 C1856 1.350 . S
C1860 C1857 1.463 . S
C1860 N1864 1.427 . S
C1861 H1851 0.929 . S
C1861 C1859 1.433 . S
C1861 N1864 1.384 . S
C1862 H1853 0.929 . S
C1862 C1854 1.378 . S
C1862 C1857 1.350 . S
C1863 H1850 0.929 . S
C1863 C1855 1.433 . S
C1863 N1865 1.384 . S
N1864 C1860 1.427 . S
N1864 C1861 1.384 . S
N1865 C1857 1.427 . S
N1865 C1863 1.384 . S
H1866 C1872 0.930 . S
H1867 C1876 0.930 . S
H1868 C1881 0.929 . S
H1869 C1879 0.929 . S
H1870 C1874 0.929 . S
H1871 C1880 0.929 . S
C1872 H1866 0.930 . S
C1872 C1873 1.367 . S
C1872 C1880 1.378 . S
C1873 C1872 1.367 . S
C1873 C1881 1.433 . S
C1874 H1870 0.929 . S
C1874 C1876 1.378 . S
C1874 C1878 1.350 . S
C1875 C1878 1.463 . S
C1875 C1880 1.350 . S
C1875 N1883 1.427 . S
C1876 H1867 0.930 . S
C1876 C1874 1.378 . S
C1876 C1877 1.367 . S
C1877 C1876 1.367 . S
C1877 C1879 1.433 . S
C1878 C1874 1.350 . S
C1878 C1875 1.463 . S
C1878 N1882 1.427 . S
C1879 H1869 0.929 . S
C1879 C1877 1.433 . S
C1879 N1882 1.384 . S
C1880 H1871 0.929 . S
C1880 C1872 1.378 . S
C1880 C1875 1.350 . S
C1881 H1868 0.929 . S
C1881 C1873 1.433 . S
C1881 N1883 1.384 . S
N1882 C1878 1.427 . S
N1882 C1879 1.384 . S
N1883 C1875 1.427 . S
N1883 C1881 1.384 . S
H1884 C1890 0.930 . S
H1885 C1894 0.930 . S
H1886 C1899 0.929 . S
H1887 C1897 0.929 . S
H1888 C1892 0.929 . S
H1889 C1898 0.929 . S
C1890 H1884 0.930 . S
C1890 C1891 1.367 . S
C1890 C1898 1.378 . S
C1891 C1890 1.367 . S
C1891 C1899 1.433 . S
C1892 H1888 0.929 . S
C1892 C1894 1.378 . S
C1892 C1896 1.350 . S
C1893 C1896 1.463 . S
C1893 C1898 1.350 . S
C1893 N1901 1.427 . S
C1894 H1885 0.930 . S
C1894 C1892 1.378 . S
C1894 C1895 1.367 . S
C1895 C1894 1.367 . S
C1895 C1897 1.433 . S
C1896 C1892 1.350 . S
C1896 C1893 1.463 . S
C1896 N1900 1.427 . S
C1897 H1887 0.929 . S
C1897 C1895 1.433 . S
C1897 N1900 1.384 . S
C1898 H1889 0.929 . S
C1898 C1890 1.378 . S
C1898 C1893 1.350 . S
C1899 H1886 0.929 . S
C1899 C1891 1.433 . S
C1899 N1901 1.384 . S
N1900 C1896 1.427 . S
N1900 C1897 1.384 . S
N1901 C1893 1.427 . S
N1901 C1899 1.384 . S
H1902 C1908 0.930 . S
H1903 C1912 0.930 . S
H1904 C1917 0.929 . S
H1905 C1915 0.929 . S
H1906 C1910 0.929 . S
H1907 C1916 0.929 . S
C1908 H1902 0.930 . S
C1908 C1909 1.367 . S
C1908 C1916 1.378 . S
C1909 C1908 1.367 . S
C1909 C1917 1.433 . S
C1910 H1906 0.929 . S
C1910 C1912 1.378 . S
C1910 C1914 1.350 . S
C1911 C1914 1.463 . S
C1911 C1916 1.350 . S
C1911 N1919 1.427 . S
C1912 H1903 0.930 . S
C1912 C1910 1.378 . S
C1912 C1913 1.367 . S
C1913 C1912 1.367 . S
C1913 C1915 1.433 . S
C1914 C1910 1.350 . S
C1914 C1911 1.463 . S
C1914 N1918 1.427 . S
C1915 H1905 0.929 . S
C1915 C1913 1.433 . S
C1915 N1918 1.384 . S
C1916 H1907 0.929 . S
C1916 C1908 1.378 . S
C1916 C1911 1.350 . S
C1917 H1904 0.929 . S
C1917 C1909 1.433 . S
C1917 N1919 1.384 . S
N1918 C1914 1.427 . S
N1918 C1915 1.384 . S
N1919 C1911 1.427 . S
N1919 C1917 1.384 . S
C635 C354 1.246 . S
C631 N300 1.273 . S
C649 N278 1.508 . S
C653 C348 1.469 . S
C671 C316 1.573 . S
C667 N265 1.634 . S
C685 N287 1.421 . S
C689 C330 1.367 . S
C707 C368 1.721 . S
C703 N213 1.780 . S
C725 C455 1.243 . S
C721 N226 1.255 . S
C739 N239 1.813 . S
C743 C382 1.767 . S
C761 C450 1.164 . S
C757 N252 1.160 . S
C775 N161 1.830 . S
C779 C406 1.771 . S
C797 C461 1.509 . S
C793 N174 1.541 . S
C811 N187 1.754 . S
C815 C400 1.717 . S
C829 N200 1.012 . S
C833 C446 1.014 . S
C851 C502 1.039 . S
C847 N144 1.035 . S
C865 N122 1.567 . S
C869 C513 1.577 . S
C883 N109 1.339 . S
C887 C498 1.318 . S
C905 C507 1.404 . S
C901 N131 1.408 1_554 S
C919 N57 1.359 . S
C923 C552 1.325 . S
C937 N70 0.630 . S
C941 C611 0.619 . S
C955 N83 1.510 . S
C959 C568 1.466 . S
C973 N96 1.139 . S
C977 C606 1.143 . S
C995 C570 1.464 . S
C991 N5 1.523 . S
C1013 C617 0.771 . S
C1009 N18 0.790 . S
C1027 N31 1.365 . S
C1031 C546 1.351 . S
C1049 C602 0.947 . S
C1045 N44 0.946 . S
C1067 C338 1.288 . S
C1063 N2 1.323 . S
C1081 N15 1.278 . S
C1085 C342 1.296 . S
C1099 N27 1.736 . S
C1103 C362 1.638 . S
C1117 N41 0.857 . S
C1121 C357 0.886 . S
C1135 N54 1.368 . S
C1139 C360 1.341 . S
C1157 C346 1.076 . S
C1153 N67 1.056 . S
C1171 N79 1.670 . S
C1175 C344 1.597 . S
C1193 C351 1.058 . S
C1189 N93 1.043 . S
C1211 C414 1.569 . S
C1207 N40 1.675 1_545 S
C1225 N1 1.919 . S
C1229 C464 1.776 . S
C1247 C412 1.366 . S
C1243 N14 1.444 . S
C1265 C448 1.414 . S
C1261 N28 1.438 . S
C1279 N66 1.349 . S
C1283 C390 1.296 . S
C1301 C466 1.477 . S
C1297 N80 1.487 . S
C1319 C396 1.543 . S
C1315 N92 1.621 . S
C1337 C442 1.713 . S
C1333 N53 1.808 . S
C1355 C434 1.500 . S
C1351 N106 1.536 . S
C1369 N119 1.363 . S
C1373 C458 1.360 . S
C1391 C394 1.489 . S
C1387 N105 1.515 . S
C1409 C420 1.523 1_556 S
C1405 N135 1.605 . S
C1423 N145 1.010 . S
C1427 C398 1.034 . S
C1441 N148 1.679 . S
C1445 C452 1.617 . S
C1463 C409 1.682 . S
C1459 N118 1.705 . S
C1481 C403 1.314 . S
C1477 N132 1.245 1_554 S
C1499 C486 1.614 . S
C1495 N158 1.625 . S
C1517 C518 1.468 . S
C1513 N171 1.499 . S
C1531 N183 1.983 . S
C1535 C472 1.902 . S
C1553 C516 1.024 . S
C1549 N197 1.037 . S
C1571 C504 1.579 . S
C1567 N210 1.590 . S
C1585 N223 1.220 . S
C1589 C500 1.229 . S
C1603 N235 1.995 . S
C1607 C510 1.913 . S
C1625 C494 1.184 . S
C1621 N249 1.214 . S
C1643 C559 1.460 . S
C1639 N196 1.499 . S
C1657 N157 1.669 . S
C1661 C620 1.560 . S
C1679 C554 1.232 . S
C1675 N170 1.243 . S
C1697 C604 1.270 . S
C1693 N184 1.256 . S
C1715 C550 1.179 . S
C1711 N222 1.187 . S
C1729 N236 1.252 . S
C1733 C622 1.261 . S
C1751 C565 1.442 . S
C1747 N248 1.471 . S
C1769 C598 1.448 . S
C1765 N209 1.514 . S
C1787 C590 1.652 . S
C1783 N262 1.714 . S
C1801 N275 1.781 . S
C1805 C614 1.700 . S
C1823 C556 1.698 . S
C1819 N261 1.769 . S
C1837 N291 2.053 . S
C1841 C576 1.903 . S
C1859 C538 1.339 . S
C1855 N301 1.354 . S
C1877 C608 1.729 . S
C1873 N304 1.834 . S
C1895 C524 1.699 . S
C1891 N274 1.803 . S
C1909 N288 1.302 . S
C1913 C562 1.277 . S
