# Generated by pormake.
# Topology tsx, (6,3)-cn, num edge types: 1
# Building blocks:
#     Node 0, Type 0, BuildingBlock: FUNLAD_clean_sbu_0, # of connection points: 6
#     Node 1, Type 0, BuildingBlock: FUNLAD_clean_sbu_0, # of connection points: 6
#     Node 2, Type 1, BuildingBlock: KAKCAD_clean_linker_0, # of connection points: 3
#     Node 3, Type 1, BuildingBlock: KAKCAD_clean_linker_0, # of connection points: 3
#     Node 4, Type 1, BuildingBlock: KAKCAD_clean_linker_0, # of connection points: 3
#     Node 5, Type 1, BuildingBlock: KAKCAD_clean_linker_0, # of connection points: 3
#     Edge 6, Type (0, 1), BuildingBlock: FUNLAD_clean_linker_1, # of connection points: 2
#     Edge 7, Type (0, 1), BuildingBlock: FUNLAD_clean_linker_1, # of connection points: 2
#     Edge 8, Type (0, 1), BuildingBlock: FUNLAD_clean_linker_1, # of connection points: 2
#     Edge 9, Type (0, 1), BuildingBlock: FUNLAD_clean_linker_1, # of connection points: 2
#     Edge 10, Type (0, 1), BuildingBlock: FUNLAD_clean_linker_1, # of connection points: 2
#     Edge 11, Type (0, 1), BuildingBlock: FUNLAD_clean_linker_1, # of connection points: 2
#     Edge 12, Type (0, 1), BuildingBlock: FUNLAD_clean_linker_1, # of connection points: 2
#     Edge 13, Type (0, 1), BuildingBlock: FUNLAD_clean_linker_1, # of connection points: 2
#     Edge 14, Type (0, 1), BuildingBlock: FUNLAD_clean_linker_1, # of connection points: 2
#     Edge 15, Type (0, 1), BuildingBlock: FUNLAD_clean_linker_1, # of connection points: 2
#     Edge 16, Type (0, 1), BuildingBlock: FUNLAD_clean_linker_1, # of connection points: 2
#     Edge 17, Type (0, 1), BuildingBlock: FUNLAD_clean_linker_1, # of connection points: 2
# Relax obj value: 0.164
# Max RMSD: 0.155
# Mean RMSD: 0.090
data_MOF--net-tsx--node1-FUNLAD_clean_sbu_0--node2-KAKCAD_clean_linker_0--edge1-FUNLAD_clean_linker_1
_symmetry_space_group_name_H-M    P1
_symmetry_Int_Tables_number       1
_symmetry_cell_setting            triclinic
loop_
_symmetry_equiv_pos_as_xyz
'x, y, z'
_cell_length_a     24.048892
_cell_length_b     26.654245
_cell_length_c     51.362369
_cell_angle_alpha  91.39094
_cell_angle_beta   92.131813
_cell_angle_gamma 89.867179
loop_
_atom_site_label
_atom_site_type_symbol
_atom_site_fract_x
_atom_site_fract_y
_atom_site_fract_z
_atom_type_partial_charge
C0 C 0.91734 0.93838 0.00281 0.0
N1 N 0.00155 0.99763 0.06957 0.0
C2 C 0.95207 0.99374 0.08135 0.0
C3 C 0.95054 0.98946 0.10834 0.0
C4 C 0.00025 0.98924 0.12355 0.0
C5 C 0.05095 0.99265 0.1108 0.0
C6 C 0.05054 0.99688 0.08369 0.0
Zn7 Zn 0.00081 0.00568 0.02994 0.0
C8 C 0.07912 0.9372 0.00391 0.0
N9 N 0.9955 0.02274 0.94729 0.0
C10 C 0.94595 0.02904 0.93409 0.0
C11 C 0.04407 0.02025 0.93454 0.0
C12 C 0.04391 0.02303 0.90741 0.0
C13 C 0.99316 0.02851 0.89326 0.0
C14 C 0.94394 0.03241 0.90697 0.0
Zn15 Zn 0.99704 0.01515 0.98689 0.0
O16 O 0.94046 0.94823 0.025 0.0
C17 C 0.91824 0.08341 0.01287 0.0
O18 O 0.9319 0.96202 0.98304 0.0
H19 H 0.08308 0.01583 0.94541 0.0
H20 H 0.91354 0.99429 0.06981 0.0
H21 H 0.90781 0.031 0.94458 0.0
O22 O 0.93632 0.06007 0.03272 0.0
O23 O 0.93792 0.07339 0.99071 0.0
H24 H 0.08944 -0.00022 0.07393 0.0
O25 O 0.06233 0.06814 0.99129 0.0
O26 O 0.06156 0.06295 0.03394 0.0
O27 O 0.05599 0.95642 0.98388 0.0
O28 O 0.06494 0.95152 0.0265 0.0
C29 C 0.08129 0.08183 0.01377 0.0
H30 H 0.91059 0.98675 0.11728 0.0
H31 H 0.09069 0.99206 0.12128 0.0
H32 H 0.08318 0.02145 0.89781 0.0
H33 H 0.9041 0.03713 0.89676 0.0
C34 C 0.43737 0.44179 0.49877 0.0
N35 N 0.51546 0.51134 0.56458 0.0
C36 C 0.46605 0.51012 0.57664 0.0
C37 C 0.46484 0.50968 0.60384 0.0
C38 C 0.5151 0.51048 0.61878 0.0
C39 C 0.56531 0.51182 0.60577 0.0
C40 C 0.56461 0.51195 0.57858 0.0
Zn41 Zn 0.51666 0.51369 0.52472 0.0
C42 C 0.59856 0.44203 0.50264 0.0
N43 N 0.52058 0.51924 0.44152 0.0
C44 C 0.47198 0.51949 0.4271 0.0
C45 C 0.5705 0.51919 0.4299 0.0
C46 C 0.5728 0.51858 0.40278 0.0
C47 C 0.52343 0.518 0.38731 0.0
C48 C 0.47234 0.51904 0.39989 0.0
Zn49 Zn 0.51887 0.5172 0.48132 0.0
O50 O 0.45495 0.45759 0.52113 0.0
C51 C 0.43612 0.58822 0.50283 0.0
O52 O 0.45687 0.46022 0.47843 0.0
H53 H 0.6087 0.51913 0.4417 0.0
H54 H 0.42742 0.51005 0.56516 0.0
H55 H 0.43273 0.51969 0.43672 0.0
O56 O 0.45366 0.57017 0.52433 0.0
O57 O 0.45662 0.5729 0.48164 0.0
H58 H 0.60344 0.51293 0.56865 0.0
O59 O 0.58107 0.57373 0.48491 0.0
O60 O 0.57878 0.57001 0.52755 0.0
O61 O 0.58079 0.46144 0.48161 0.0
O62 O 0.57923 0.45677 0.52424 0.0
C63 C 0.59877 0.58868 0.5074 0.0
H64 H 0.42492 0.50998 0.61287 0.0
H65 H 0.60488 0.51278 0.61657 0.0
H66 H 0.61304 0.51807 0.39396 0.0
H67 H 0.43283 0.51942 0.38921 0.0
C68 C 0.00931 0.95323 0.33877 0.0
C69 C 0.0212 -0.00097 0.32708 0.0
C70 C 0.00291 0.95124 0.36569 0.0
C71 C 0.00816 0.9949 0.38151 0.0
C72 C 0.02057 0.04049 0.36983 0.0
C73 C 0.02739 0.04241 0.34296 0.0
C74 C 0.00097 0.99293 0.4101 0.0
C75 C 0.02561 0.95427 0.42469 0.0
C76 C 0.01982 0.95267 0.45183 0.0
C77 C 0.98821 0.98988 0.46424 0.0
C78 C 0.96315 0.02861 0.44997 0.0
C79 C 0.96995 0.03007 0.42296 0.0
C80 C 0.92984 0.06758 0.46332 0.0
C81 C 0.88918 0.054 0.48073 0.0
C82 C 0.93832 0.11858 0.45862 0.0
C83 C 0.90617 0.15535 0.47079 0.0
C84 C 0.86417 0.14176 0.4877 0.0
C85 C 0.04891 0.91346 0.46728 0.0
C86 C 0.05077 0.86358 0.45788 0.0
C87 C 0.0772 0.9261 0.49098 0.0
C88 C 0.10895 0.89024 0.50428 0.0
C89 C 0.11371 0.84124 0.49399 0.0
C90 C 0.08267 0.82778 0.47111 0.0
C91 C 0.85678 0.09071 0.4928 0.0
H92 H 0.00577 0.91869 0.32733 0.0
H93 H 0.99332 0.91556 0.37412 0.0
H94 H 0.02572 0.07464 0.38154 0.0
H95 H 0.03711 0.07806 0.33452 0.0
H96 H 0.05109 0.92644 0.41503 0.0
H97 H 0.94996 0.05958 0.41184 0.0
H98 H 0.98357 0.98909 0.4851 0.0
H99 H 0.8815 0.01489 0.48452 0.0
H100 H 0.97015 0.13005 0.44562 0.0
H101 H 0.91481 0.19409 0.46677 0.0
H102 H 0.02815 0.85238 0.44006 0.0
H103 H 0.07688 0.96425 0.49869 0.0
H104 H 0.82499 0.07901 0.50577 0.0
H105 H 0.08343 0.78982 0.46317 0.0
H106 H 0.1319 0.90147 0.52201 0.0
C107 C 0.02099 0.03701 0.67916 0.0
C108 C 0.03355 0.99175 0.69165 0.0
C109 C 0.02114 0.03943 0.65202 0.0
C110 C 0.03386 0.99676 0.63674 0.0
C111 C 0.04649 0.95156 0.6492 0.0
C112 C 0.04681 0.94925 0.6764 0.0
C113 C 0.03425 -0.00017 0.60791 0.0
C114 C 0.0593 0.04083 0.59638 0.0
C115 C 0.05784 0.04565 0.56917 0.0
C116 C 0.03068 0.00875 0.55342 0.0
C117 C 0.00609 0.96708 0.56462 0.0
C118 C 0.00843 0.96269 0.59186 0.0
C119 C 0.97511 0.92943 0.54813 0.0
C120 C 0.93479 0.94487 0.52953 0.0
C121 C 0.98319 0.87792 0.55197 0.0
C122 C 0.94971 0.84258 0.53838 0.0
C123 C 0.90702 0.8582 0.52087 0.0
C124 C 0.08536 0.08908 0.55746 0.0
C125 C 0.08141 0.1372 0.56902 0.0
C126 C 0.1179 0.08245 0.53546 0.0
C127 C 0.14798 0.1226 0.52602 0.0
C128 C 0.14628 0.17022 0.53851 0.0
C129 C 0.11144 0.17721 0.55963 0.0
C130 C 0.90133 0.90956 0.51591 0.0
H131 H 0.01215 0.07096 0.69024 0.0
H132 H 0.011 0.07475 0.64297 0.0
H133 H 0.05703 0.91822 0.63795 0.0
H134 H 0.05719 0.91407 0.68555 0.0
H135 H 0.08094 0.06865 0.60869 0.0
H136 H 0.98801 0.93141 0.60063 0.0
H137 H 0.02824 0.01265 0.53246 0.0
H138 H 0.92754 0.9844 0.52635 0.0
H139 H 0.01482 0.86505 0.56583 0.0
H140 H 0.95695 0.80323 0.54196 0.0
H141 H 0.05565 0.14382 0.58563 0.0
H142 H 0.12167 0.04584 0.52606 0.0
H143 H 0.86919 0.92262 0.50236 0.0
H144 H 0.10858 0.21353 0.56944 0.0
H145 H 0.17286 0.11565 0.50921 0.0
C146 C 0.46021 0.44976 0.83543 0.0
C147 C 0.47367 0.49087 0.82031 0.0
C148 C 0.46393 0.4534 0.86266 0.0
C149 C 0.48023 0.49861 0.87535 0.0
C150 C 0.49279 0.54005 0.86022 0.0
C151 C 0.48964 0.53626 0.833 0.0
C152 C 0.48421 0.50255 0.90428 0.0
C153 C 0.51053 0.46467 0.9188 0.0
C154 C 0.51614 0.46901 0.9461 0.0
C155 C 0.4936 0.51088 0.959 0.0
C156 C 0.4667 0.5487 0.94479 0.0
C157 C 0.46265 0.54466 0.91748 0.0
C158 C 0.44207 0.59226 0.95846 0.0
C159 C 0.40288 0.58495 0.97759 0.0
C160 C 0.45614 0.6413 0.95183 0.0
C161 C 0.43047 0.68245 0.96377 0.0
C162 C 0.3893 0.67511 0.98192 0.0
C163 C 0.54942 0.43171 0.9608 0.0
C164 C 0.54043 0.38013 0.95646 0.0
C165 C 0.59378 0.44766 0.9775 0.0
C166 C 0.63048 0.41269 0.98846 0.0
C167 C 0.62302 0.36118 0.98327 0.0
C168 C 0.57676 0.34508 0.96768 0.0
C169 C 0.37629 0.62607 0.98908 0.0
H170 H 0.44724 0.41455 0.82615 0.0
H171 H 0.45336 0.421 0.8738 0.0
H172 H 0.50561 0.57535 0.86945 0.0
H173 H 0.49881 0.5692 0.82203 0.0
H174 H 0.52893 0.43285 0.90875 0.0
H175 H 0.44147 0.57378 0.90654 0.0
H176 H 0.49767 0.51439 0.98007 0.0
H177 H 0.3916 0.5474 0.98303 0.0
H178 H 0.48667 0.6477 0.93729 0.0
H179 H 0.44123 0.72 0.95809 0.0
H180 H 0.50635 0.36702 0.9437 0.0
H181 H 0.60179 0.48728 0.981 0.0
H182 H 0.3453 0.61953 0.00338 0.0
H183 H 0.57031 0.30575 0.96279 0.0
H184 H 0.66595 0.42602 1.00027 0.0
C185 C 0.48721 0.54624 0.16753 0.0
C186 C 0.4982 0.5055 0.18375 0.0
C187 C 0.49388 0.54159 0.14066 0.0
C188 C 0.5108 0.49575 0.12937 0.0
C189 C 0.52054 0.45458 0.14551 0.0
C190 C 0.5144 0.45937 0.17243 0.0
C191 C 0.51882 0.49108 0.10088 0.0
C192 C 0.54745 0.52839 0.08804 0.0
C193 C 0.55596 0.52405 0.06119 0.0
C194 C 0.53515 0.48213 0.04699 0.0
C195 C 0.50552 0.44479 0.0594 0.0
C196 C 0.49795 0.44942 0.08642 0.0
C197 C 0.47967 0.40234 0.04414 0.0
C198 C 0.45171 0.41054 0.02006 0.0
C199 C 0.47905 0.35405 0.05448 0.0
C200 C 0.44752 0.31589 0.04215 0.0
C201 C 0.41573 0.32536 0.01925 0.0
C202 C 0.58771 0.56311 0.04827 0.0
C203 C 0.57472 0.61398 0.05234 0.0
C204 C 0.63348 0.54998 0.03335 0.0
C205 C 0.66736 0.58725 0.02373 0.0
C206 C 0.65537 0.63817 0.02842 0.0
C207 C 0.60812 0.65122 0.04246 0.0
C208 C 0.42025 0.37225 0.00768 0.0
H209 H 0.47407 0.582 0.17572 0.0
H210 H 0.48533 0.57378 0.12867 0.0
H211 H 0.53365 0.41879 0.13736 0.0
H212 H 0.52166 0.4267 0.1842 0.0
H213 H 0.56457 0.56028 0.09911 0.0
H214 H 0.47405 0.42147 0.09611 0.0
H215 H 0.54163 0.47892 0.02626 0.0
H216 H 0.45149 0.44726 0.01148 0.0
H217 H 0.5017 0.34611 0.07254 0.0
H218 H 0.44696 0.27945 0.051 0.0
H219 H 0.53948 0.62494 0.06374 0.0
H220 H 0.64452 0.51094 0.03014 0.0
H221 H 0.39683 0.38025 0.98983 0.0
H222 H 0.59834 0.69002 0.04704 0.0
H223 H 0.70381 0.5763 0.01317 0.0
H224 H 0.14098 0.12961 0.03642 0.0
C225 C 0.12706 0.11829 0.01676 0.0
H226 H 0.14126 0.12394 0.97654 0.0
H227 H 0.27094 0.31939 0.03682 0.0
H228 H 0.17822 0.3505 0.04518 0.0
H229 H 0.09523 0.30024 0.03227 0.0
H230 H 0.10452 0.21838 0.01115 0.0
C231 C 0.1531 0.13637 0.99628 0.0
C232 C 0.20199 0.17007 1.00033 0.0
C233 C 0.19564 0.21842 0.01198 0.0
C234 C 0.24337 0.24778 0.01893 0.0
C235 C 0.23604 0.29549 0.0311 0.0
C236 C 0.18306 0.31389 0.03594 0.0
C237 C 0.13634 0.28557 0.02871 0.0
C238 C 0.14229 0.23846 0.01679 0.0
H239 H 0.36146 0.29103 0.98779 0.0
C240 C 0.37435 0.28868 0.00825 0.0
H241 H 0.3551 0.25804 0.04444 0.0
H242 H 0.22823 0.08106 0.97587 0.0
H243 H 0.32072 0.05178 0.96572 0.0
H244 H 0.40345 0.10344 0.97726 0.0
H245 H 0.39414 0.18472 0.9991 0.0
C246 C 0.3467 0.25782 0.02352 0.0
C247 C 0.29715 0.22928 0.01359 0.0
C248 C 0.30332 0.1824 1.00044 0.0
C249 C 0.25559 0.15271 0.99376 0.0
C250 C 0.26298 0.10535 0.98125 0.0
C251 C 0.31587 0.08805 0.97533 0.0
C252 C 0.36245 0.11713 0.98184 0.0
C253 C 0.35653 0.16372 0.99433 0.0
H254 H 0.12495 0.88107 0.98117 0.0
C255 C 0.12194 0.89844 1.00044 0.0
H256 H 0.15556 0.90245 0.039 0.0
H257 H 0.26224 0.68525 0.0346 0.0
H258 H 0.20046 0.67987 0.07066 0.0
H259 H 0.13743 0.74985 0.08148 0.0
H260 H 0.13634 0.82586 0.05655 0.0
C261 C 0.15823 0.88544 0.01964 0.0
C262 C 0.20078 0.84574 0.01509 0.0
C263 C 0.2005 0.80142 0.02978 0.0
C264 C 0.2359 0.7606 0.02315 0.0
C265 C 0.23542 0.71703 0.03842 0.0
C266 C 0.20028 0.71348 0.05924 0.0
C267 C 0.16486 0.7529 0.06535 0.0
C268 C 0.1647 0.79639 0.05085 0.0
H269 H 0.38154 0.75355 0.99654 0.0
C270 C 0.35874 0.71897 0.99226 0.0
H271 H 0.27991 0.68457 0.98843 0.0
H272 H 0.22347 0.93017 0.98803 0.0
H273 H 0.2824 0.93511 0.95085 0.0
H274 H 0.33294 0.86043 0.93496 0.0
H275 H 0.32672 0.78133 0.95673 0.0
C276 C 0.303 0.71874 0.99332 0.0
C277 C 0.27056 0.76372 1.00149 0.0
C278 C 0.27177 0.80864 0.98716 0.0
C279 C 0.23893 0.85047 0.99486 0.0
C280 C 0.24476 0.89635 0.98188 0.0
C281 C 0.27881 0.89983 0.96067 0.0
C282 C 0.30752 0.85789 0.95184 0.0
C283 C 0.30405 0.81272 0.96477 0.0
H284 H 0.84815 0.89882 0.98179 0.0
C285 C 0.87305 0.90048 0.99989 0.0
H286 H 0.88727 0.87034 0.03714 0.0
H287 H 0.65204 0.7817 0.0537 0.0
H288 H 0.65656 0.8494 0.08596 0.0
H289 H 0.73284 0.91116 0.08666 0.0
H290 H 0.80542 0.90514 0.05528 0.0
C291 C 0.86302 0.86831 0.01885 0.0
C292 C 0.81537 0.8328 0.01683 0.0
C293 C 0.77243 0.83766 0.03491 0.0
C294 C 0.72776 0.80278 0.0341 0.0
C295 C 0.6865 0.80755 0.05303 0.0
C296 C 0.68858 0.84626 0.07174 0.0
C297 C 0.73156 0.88098 0.07216 0.0
C298 C 0.77308 0.87694 0.05404 0.0
H299 H 0.73975 0.66562 0.02127 0.0
C300 C 0.69612 0.67652 0.02122 0.0
H301 H 0.63877 0.73578 0.01554 0.0
H302 H 0.89339 0.80944 0.98064 0.0
H303 H 0.88531 0.74548 0.9464 0.0
H304 H 0.80256 0.69094 0.94212 0.0
H305 H 0.72812 0.69927 0.97258 0.0
C306 C 0.68211 0.72422 0.01611 0.0
C307 C 0.72563 0.7636 0.0149 0.0
C308 C 0.76696 0.76038 0.99593 0.0
C309 C 0.81293 0.79392 0.99743 0.0
C310 C 0.85604 0.78691 0.97962 0.0
C311 C 0.85217 0.74999 0.95997 0.0
C312 C 0.80572 0.71913 0.95763 0.0
C313 C 0.76351 0.72406 0.97536 0.0
H314 H 0.84967 0.12008 0.03345 0.0
C315 C 0.87232 0.11961 0.01552 0.0
H316 H 0.87873 0.14917 0.97808 0.0
H317 H 0.63394 0.21734 0.95713 0.0
H318 H 0.64404 0.15058 0.9249 0.0
H319 H 0.727 0.09602 0.92576 0.0
H320 H 0.80071 0.10842 0.95864 0.0
C321 C 0.85673 0.15027 0.9962 0.0
C322 C 0.80528 0.18137 0.99731 0.0
C323 C 0.76166 0.17261 0.97838 0.0
C324 C 0.71311 0.20316 0.97833 0.0
C325 C 0.67129 0.19477 0.95852 0.0
C326 C 0.67654 0.15654 0.9398 0.0
C327 C 0.72327 0.12589 0.94025 0.0
C328 C 0.76542 0.13361 0.95924 0.0
H329 H 0.71016 0.34067 0.99264 0.0
C330 C 0.66792 0.32604 0.99132 0.0
H331 H 0.61779 0.26174 0.99465 0.0
H332 H 0.88294 0.21212 0.03493 0.0
H333 H 0.86955 0.27432 0.06931 0.0
H334 H 0.78063 0.32009 0.0723 0.0
H335 H 0.70521 0.30487 0.04038 0.0
C336 C 0.65961 0.27708 0.9955 0.0
C337 C 0.70762 0.24174 0.9976 0.0
C338 C 0.74976 0.24852 0.01744 0.0
C339 C 0.79956 0.21967 0.01674 0.0
C340 C 0.843 0.23072 0.03537 0.0
C341 C 0.83606 0.26672 0.0551 0.0
C342 C 0.78612 0.29267 0.05671 0.0
C343 C 0.74335 0.28386 0.03815 0.0
H344 H 0.65571 0.63845 0.53038 0.0
C345 C 0.64266 0.62701 0.51062 0.0
H346 H 0.6564 0.63536 0.47053 0.0
H347 H 0.77023 0.83425 0.53535 0.0
H348 H 0.67525 0.8588 0.54355 0.0
H349 H 0.59649 0.80492 0.52865 0.0
H350 H 0.61243 0.72572 0.50581 0.0
C351 C 0.6674 0.6475 0.4904 0.0
C352 C 0.71351 0.68425 0.49498 0.0
C353 C 0.70332 0.73145 0.50727 0.0
C354 C 0.74861 0.76335 0.51498 0.0
C355 C 0.7374 0.80907 0.52845 0.0
C356 C 0.68303 0.8236 0.53335 0.0
C357 C 0.6387 0.79321 0.52503 0.0
C358 C 0.64846 0.74767 0.51211 0.0
H359 H 0.84186 0.83447 0.49146 0.0
C360 C 0.86571 0.82262 0.50865 0.0
H361 H 0.87256 0.76718 0.53754 0.0
H362 H 0.74694 0.59867 0.46936 0.0
H363 H 0.84157 0.57635 0.45892 0.0
H364 H 0.91983 0.63282 0.47129 0.0
H365 H 0.90393 0.71199 0.49429 0.0
C366 C 0.85155 0.77954 0.51977 0.0
C367 C 0.8038 0.74877 0.50951 0.0
C368 C 0.81364 0.7031 0.49577 0.0
C369 C 0.76843 0.67077 0.48846 0.0
C370 C 0.77965 0.62483 0.47523 0.0
C371 C 0.83379 0.61154 0.46913 0.0
C372 C 0.87787 0.64331 0.47611 0.0
C373 C 0.86819 0.68857 0.48932 0.0
H374 H 0.6551 0.39161 0.48202 0.0
C375 C 0.63991 0.40146 0.50117 0.0
H376 H 0.64388 0.38433 0.54125 0.0
H377 H 0.73214 0.18701 0.46983 0.0
H378 H 0.63492 0.17739 0.45659 0.0
H379 H 0.56439 0.23712 0.47231 0.0
H380 H 0.59107 0.30744 0.50099 0.0
C381 C 0.65741 0.37487 0.52178 0.0
C382 C 0.69682 0.33242 0.518 0.0
C383 C 0.68014 0.29001 0.50244 0.0
C384 C 0.72044 0.25448 0.49429 0.0
C385 C 0.70314 0.21436 0.4773 0.0
C386 C 0.64741 0.20845 0.46946 0.0
C387 C 0.60773 0.24215 0.47823 0.0
C388 C 0.62365 0.28253 0.49453 0.0
H389 H 0.79885 0.16595 0.51466 0.0
C390 C 0.82614 0.17902 0.49982 0.0
H391 H 0.8455 0.24186 0.47714 0.0
H392 H 0.74066 0.40539 0.55096 0.0
H393 H 0.83688 0.41195 0.56685 0.0
H394 H 0.90647 0.3489 0.55379 0.0
H395 H 0.88035 0.27897 0.52464 0.0
C396 C 0.82021 0.22661 0.49204 0.0
C397 C 0.77693 0.26031 0.50274 0.0
C398 C 0.79269 0.30041 0.52005 0.0
C399 C 0.75251 0.33653 0.52774 0.0
C400 C 0.76956 0.37686 0.54459 0.0
C401 C 0.82459 0.38101 0.55386 0.0
C402 C 0.86379 0.34552 0.54649 0.0
C403 C 0.8483 0.30565 0.52974 0.0
H404 H 0.38468 0.38628 0.47686 0.0
C405 C 0.39592 0.40115 0.49623 0.0
H406 H 0.38558 0.39492 0.53666 0.0
H407 H 0.16571 0.26931 0.48733 0.0
H408 H 0.13417 0.34849 0.46961 0.0
H409 H 0.19388 0.42367 0.47328 0.0
H410 H 0.28577 0.41992 0.4942 0.0
C411 C 0.37324 0.38136 0.51717 0.0
C412 C 0.33628 0.33671 0.51489 0.0
C413 C 0.28196 0.34015 0.50331 0.0
C414 C 0.24652 0.29742 0.50225 0.0
C415 C 0.19344 0.30115 0.48955 0.0
C416 C 0.17497 0.34627 0.47916 0.0
C417 C 0.20867 0.38855 0.48114 0.0
C418 C 0.26152 0.38579 0.49308 0.0
H419 H 0.1734 0.24943 0.54045 0.0
C420 C 0.18141 0.21314 0.53114 0.0
H421 H 0.23748 0.17338 0.50727 0.0
H422 H 0.43935 0.31648 0.53672 0.0
H423 H 0.47002 0.23786 0.55519 0.0
H424 H 0.40698 0.16501 0.55531 0.0
H425 H 0.31317 0.17015 0.53673 0.0
C426 C 0.2255 0.20917 0.51583 0.0
C427 C 0.26453 0.25209 0.5138 0.0
C428 C 0.31927 0.24838 0.52486 0.0
C429 C 0.35524 0.29067 0.52529 0.0
C430 C 0.4099 0.28581 0.53625 0.0
C431 C 0.42815 0.24084 0.54688 0.0
C432 C 0.39269 0.19981 0.54691 0.0
C433 C 0.33887 0.20331 0.53611 0.0
H434 H 0.37983 0.64091 0.48282 0.0
C435 C 0.3917 0.62625 0.50181 0.0
H436 H 0.37419 0.62687 0.54188 0.0
H437 H 0.26027 0.83156 0.48685 0.0
H438 H 0.35542 0.86061 0.48408 0.0
H439 H 0.43431 0.8075 0.49857 0.0
H440 H 0.41848 0.72475 0.51563 0.0
C441 C 0.36465 0.64236 0.52286 0.0
C442 C 0.31778 0.67858 0.51979 0.0
C443 C 0.32771 0.72754 0.51081 0.0
C444 C 0.28224 0.75857 0.50305 0.0
C445 C 0.29332 0.80656 0.4932 0.0
C446 C 0.34772 0.82374 0.49155 0.0
C447 C 0.39214 0.79381 0.49966 0.0
C448 C 0.38251 0.74627 0.50924 0.0
H449 H 0.16608 0.81307 0.52704 0.0
C450 C 0.15372 0.80612 0.50669 0.0
H451 H 0.17195 0.76446 0.4724 0.0
H452 H 0.28438 0.58963 0.53971 0.0
H453 H 0.18911 0.56277 0.54493 0.0
H454 H 0.11022 0.61738 0.53215 0.0
H455 H 0.12614 0.69927 0.51398 0.0
C456 C 0.18025 0.77014 0.49317 0.0
C457 C 0.227 0.74108 0.50499 0.0
C458 C 0.217 0.69397 0.51605 0.0
C459 C 0.26251 0.66262 0.52352 0.0
C460 C 0.25136 0.61505 0.53382 0.0
C461 C 0.19688 0.59918 0.53692 0.0
C462 C 0.15245 0.62993 0.52971 0.0
C463 C 0.16213 0.67676 0.51931 0.0
H464 H 0.95549 0.98008 0.16 0.0
C465 C 0.99658 0.98562 0.15236 0.0
H466 H 0.0821 0.99477 0.16343 0.0
H467 H 0.95138 0.05462 0.27176 0.0
H468 H 0.92104 0.12876 0.24882 0.0
H469 H 0.94272 0.13953 0.20272 0.0
H470 H 0.99396 0.07569 0.17917 0.0
C471 C 0.03993 0.98999 0.16962 0.0
C472 C 0.03169 0.98613 0.19811 0.0
C473 C 0.00371 0.02479 0.2119 0.0
C474 C 0.99355 0.01967 0.23883 0.0
C475 C 0.96249 0.05747 0.25165 0.0
C476 C 0.9444 0.10012 0.23864 0.0
C477 C 0.95642 0.10609 0.21267 0.0
C478 C 0.98564 0.069 0.19935 0.0
H479 H 0.05329 0.03407 0.29199 0.0
C480 C 0.0288 0.00288 0.29859 0.0
H481 H 0.97918 0.9405 0.28636 0.0
H482 H 0.08692 0.9055 0.17752 0.0
H483 H 0.12015 0.83248 0.20077 0.0
H484 H 0.10571 0.82496 0.24781 0.0
H485 H 0.05771 0.89024 0.27189 0.0
C486 C 0.00467 0.97158 0.2806 0.0
C487 C 0.01372 0.97694 0.25223 0.0
C488 C 0.04232 0.93863 0.23848 0.0
C489 C 0.05125 0.94322 0.21141 0.0
C490 C 0.07941 0.90412 0.19813 0.0
C491 C 0.09868 0.86198 0.21123 0.0
C492 C 0.0905 0.85773 0.23771 0.0
C493 C 0.06277 0.89547 0.25129 0.0
H494 H 0.95427 0.04955 0.85529 0.0
C495 C 0.99017 0.03114 0.86439 0.0
H496 H 0.06219 0.98774 0.85719 0.0
H497 H 0.96343 0.92858 0.7435 0.0
H498 H 0.94055 0.85342 0.76643 0.0
H499 H 0.95512 0.84946 0.81414 0.0
H500 H 0.99212 0.92099 0.83922 0.0
C501 C 0.02802 0.00969 0.84902 0.0
C502 C 0.02164 0.01164 0.82016 0.0
C503 C 0.00165 0.96905 0.80569 0.0
C504 C 0.99464 0.97091 0.7781 0.0
C505 C 0.97166 0.92868 0.76434 0.0
C506 C 0.95785 0.88539 0.7773 0.0
C507 C 0.96596 0.88319 0.80416 0.0
C508 C 0.98733 0.92448 0.81831 0.0
H509 H 0.06248 0.96015 0.72928 0.0
C510 C 0.03535 0.98827 0.72049 0.0
H511 H 0.97571 0.04488 0.72782 0.0
H512 H 0.06247 0.09929 0.8421 0.0
H513 H 0.08597 0.17451 0.81927 0.0
H514 H 0.07512 0.17758 0.77139 0.0
H515 H 0.04073 0.10552 0.74604 0.0
C516 C 0.00398 0.01715 0.73603 0.0
C517 C 0.00945 0.01493 0.76497 0.0
C518 C 0.02926 0.05761 0.77951 0.0
C519 C 0.03544 0.05592 0.80713 0.0
C520 C 0.05629 0.09874 0.82112 0.0
C521 C 0.07016 0.14212 0.80826 0.0
C522 C 0.06406 0.14384 0.7813 0.0
C523 C 0.04408 0.10218 0.76699 0.0
H524 H 0.55502 0.52582 0.65767 0.0
C525 C 0.51702 0.51218 0.64777 0.0
H526 H 0.43781 0.48018 0.65356 0.0
H527 H 0.53478 0.42005 0.76744 0.0
H528 H 0.5527 0.34199 0.74406 0.0
H529 H 0.53704 0.33501 0.69638 0.0
H530 H 0.50395 0.40644 0.67173 0.0
C531 C 0.47535 0.49676 0.66236 0.0
C532 C 0.48064 0.50004 0.69131 0.0
C533 C 0.49811 0.45759 0.70554 0.0
C534 C 0.50555 0.46126 0.73315 0.0
C535 C 0.52622 0.41897 0.74663 0.0
C536 C 0.53718 0.37398 0.7334 0.0
C537 C 0.52848 0.37007 0.70655 0.0
C538 C 0.50943 0.41133 0.69265 0.0
H539 H 0.43976 0.45822 0.78295 0.0
C540 C 0.46898 0.48568 0.79143 0.0
H541 H 0.531 0.53866 0.78338 0.0
H542 H 0.44504 0.5879 0.66984 0.0
H543 H 0.42577 0.66598 0.69309 0.0
H544 H 0.43674 0.67217 0.741 0.0
H545 H 0.46711 0.60043 0.76597 0.0
C546 C 0.50074 0.51168 0.77547 0.0
C547 C 0.49359 0.50706 0.74654 0.0
C548 C 0.47577 0.54944 0.73223 0.0
C549 C 0.46929 0.5459 0.7046 0.0
C550 C 0.45104 0.58866 0.69083 0.0
C551 C 0.43967 0.63367 0.70393 0.0
C552 C 0.44585 0.63715 0.73091 0.0
C553 C 0.4635 0.59566 0.745 0.0
H554 H 0.56914 0.51767 0.35069 0.0
C555 C 0.52768 0.51594 0.35841 0.0
H556 H 0.44214 0.50639 0.34771 0.0
H557 H 0.56 0.57587 0.23842 0.0
H558 H 0.57799 0.65553 0.26085 0.0
H559 H 0.55491 0.66823 0.30695 0.0
H560 H 0.51483 0.60095 0.331 0.0
C561 C 0.48418 0.51072 0.34128 0.0
C562 C 0.49279 0.50528 0.31277 0.0
C563 C 0.51378 0.5458 0.29866 0.0
C564 C 0.52437 0.5393 0.2717 0.0
C565 C 0.54874 0.57936 0.25856 0.0
C566 C 0.55969 0.62523 0.27127 0.0
C567 C 0.54691 0.63232 0.29724 0.0
C568 C 0.52422 0.59324 0.31087 0.0
H569 H 0.46227 0.5409 0.21878 0.0
C570 C 0.49104 0.5121 0.21223 0.0
H571 H 0.55022 0.45775 0.22435 0.0
H572 H 0.45249 0.41999 0.334 0.0
H573 H 0.43096 0.34139 0.31116 0.0
H574 H 0.44507 0.3314 0.26399 0.0
H575 H 0.48119 0.39984 0.23942 0.0
C576 C 0.5204 0.48611 0.2302 0.0
C577 C 0.51118 0.4931 0.25859 0.0
C578 C 0.48938 0.4529 0.27262 0.0
C579 C 0.48037 0.45893 0.29973 0.0
C580 C 0.45946 0.41779 0.31332 0.0
C581 C 0.447 0.37237 0.30046 0.0
C582 C 0.45501 0.36673 0.27391 0.0
C583 C 0.47589 0.40635 0.26005 0.0
loop_
_geom_bond_atom_site_label_1
_geom_bond_atom_site_label_2
_geom_bond_distance
_geom_bond_site_symmetry_2
_ccdc_geom_bond_type
C0 O16 1.251 . S
C0 O18 1.254 1_554 S
N1 C2 1.333 1_445 S
N1 C6 1.307 . S
N1 Zn7 2.020 . S
C2 N1 1.333 1_665 S
C2 C3 1.379 . S
C2 H20 0.952 . S
C3 C2 1.379 . S
C3 C4 1.390 1_665 S
C3 H30 0.949 . S
C4 C3 1.390 1_445 S
C4 C5 1.357 . S
C5 C4 1.357 . S
C5 C6 1.370 . S
C5 H31 0.950 . S
C6 N1 1.307 . S
C6 C5 1.370 . S
C6 H24 0.948 . S
Zn7 N1 2.020 . S
Zn7 O16 2.039 1_445 S
Zn7 O22 2.034 1_455 S
Zn7 O26 2.025 . S
Zn7 O28 2.024 1_545 S
C8 O27 1.246 1_554 S
C8 O28 1.249 . S
N9 C10 1.307 1_445 S
N9 C11 1.333 . S
N9 Zn15 2.020 . S
C10 N9 1.307 1_665 S
C10 C14 1.370 . S
C10 H21 0.948 . S
C11 N9 1.333 . S
C11 C12 1.379 . S
C11 H19 0.952 . S
C12 C11 1.379 . S
C12 C13 1.390 . S
C12 H32 0.949 . S
C13 C12 1.390 . S
C13 C14 1.357 1_445 S
C14 C10 1.370 . S
C14 C13 1.357 1_665 S
C14 H33 0.950 . S
Zn15 N9 2.020 . S
Zn15 O18 2.025 1_445 S
Zn15 O23 2.024 1_455 S
Zn15 O25 2.039 . S
Zn15 O27 2.034 1_545 S
O16 C0 1.251 . S
O16 Zn7 2.039 1_665 S
C17 O22 1.246 . S
C17 O23 1.249 1_554 S
O18 C0 1.254 1_556 S
O18 Zn15 2.025 1_665 S
H19 C11 0.952 . S
H20 C2 0.952 . S
H21 C10 0.948 . S
O22 Zn7 2.034 1_655 S
O22 C17 1.246 . S
O23 Zn15 2.024 1_655 S
O23 C17 1.249 1_556 S
H24 C6 0.948 . S
O25 Zn15 2.039 . S
O25 C29 1.251 1_556 S
O26 Zn7 2.025 . S
O26 C29 1.254 . S
O27 C8 1.246 1_556 S
O27 Zn15 2.034 1_565 S
O28 Zn7 2.024 1_565 S
O28 C8 1.249 . S
C29 O25 1.251 1_554 S
C29 O26 1.254 . S
H30 C3 0.949 . S
H31 C5 0.950 . S
H32 C12 0.949 . S
H33 C14 0.950 . S
C34 O50 1.251 . S
C34 O52 1.254 . S
N35 C36 1.333 . S
N35 C40 1.307 . S
N35 Zn41 2.020 . S
C36 N35 1.333 . S
C36 C37 1.379 . S
C36 H54 0.952 . S
C37 C36 1.379 . S
C37 C38 1.390 . S
C37 H64 0.949 . S
C38 C37 1.390 . S
C38 C39 1.357 . S
C39 C38 1.357 . S
C39 C40 1.370 . S
C39 H65 0.950 . S
C40 N35 1.307 . S
C40 C39 1.370 . S
C40 H58 0.948 . S
Zn41 N35 2.020 . S
Zn41 O50 2.039 . S
Zn41 O56 2.034 . S
Zn41 O60 2.025 . S
Zn41 O62 2.024 . S
C42 O61 1.246 . S
C42 O62 1.249 . S
N43 C44 1.307 . S
N43 C45 1.333 . S
N43 Zn49 2.020 . S
C44 N43 1.307 . S
C44 C48 1.370 . S
C44 H55 0.948 . S
C45 N43 1.333 . S
C45 C46 1.379 . S
C45 H53 0.952 . S
C46 C45 1.379 . S
C46 C47 1.390 . S
C46 H66 0.949 . S
C47 C46 1.390 . S
C47 C48 1.357 . S
C48 C44 1.370 . S
C48 C47 1.357 . S
C48 H67 0.950 . S
Zn49 N43 2.020 . S
Zn49 O52 2.025 . S
Zn49 O57 2.024 . S
Zn49 O59 2.039 . S
Zn49 O61 2.034 . S
O50 C34 1.251 . S
O50 Zn41 2.039 . S
C51 O56 1.246 . S
C51 O57 1.249 . S
O52 C34 1.254 . S
O52 Zn49 2.025 . S
H53 C45 0.952 . S
H54 C36 0.952 . S
H55 C44 0.948 . S
O56 Zn41 2.034 . S
O56 C51 1.246 . S
O57 Zn49 2.024 . S
O57 C51 1.249 . S
H58 C40 0.948 . S
O59 Zn49 2.039 . S
O59 C63 1.251 . S
O60 Zn41 2.025 . S
O60 C63 1.254 . S
O61 C42 1.246 . S
O61 Zn49 2.034 . S
O62 Zn41 2.024 . S
O62 C42 1.249 . S
C63 O59 1.251 . S
C63 O60 1.254 . S
H64 C37 0.949 . S
H65 C39 0.950 . S
H66 C46 0.949 . S
H67 C48 0.950 . S
C68 C69 1.386 1_565 S
C68 C70 1.397 . S
C68 H92 0.931 . S
C69 C68 1.386 1_545 S
C69 C73 1.397 1_655 S
C70 C68 1.397 . S
C70 C71 1.385 1_655 S
C70 H93 0.930 . S
C71 C70 1.385 1_455 S
C71 C72 1.378 1_565 S
C71 C74 1.480 . S
C72 C71 1.378 1_545 S
C72 C73 1.389 . S
C72 H94 0.929 . S
C73 C69 1.397 1_455 S
C73 C72 1.389 . S
C73 H95 0.931 . S
C74 C71 1.480 . S
C74 C75 1.388 . S
C74 C79 1.389 1_465 S
C75 C74 1.388 . S
C75 C76 1.401 . S
C75 H96 0.930 . S
C76 C75 1.401 . S
C76 C77 1.370 1_455 S
C76 C85 1.511 . S
C77 C76 1.370 1_655 S
C77 C78 1.398 1_565 S
C77 H98 0.932 . S
C78 C77 1.398 1_545 S
C78 C79 1.361 . S
C78 C80 1.500 . S
C79 C74 1.389 1_645 S
C79 C78 1.361 . S
C79 H97 0.931 . S
C80 C78 1.500 . S
C80 C81 1.371 . S
C80 C82 1.365 . S
C81 C80 1.371 . S
C81 C91 1.386 . S
C81 H99 0.931 . S
C82 C80 1.365 . S
C82 C83 1.409 . S
C82 H100 0.929 . S
C83 C82 1.409 . S
C83 C84 1.380 . S
C83 H101 0.930 . S
C84 C83 1.380 . S
C84 C91 1.357 . S
C85 C76 1.511 . S
C85 C86 1.341 . S
C85 C87 1.371 . S
C86 C85 1.341 . S
C86 C90 1.394 . S
C86 H102 0.930 . S
C87 C85 1.371 . S
C87 C88 1.392 . S
C87 H103 0.931 . S
C88 C87 1.392 . S
C88 C89 1.331 . S
C88 H106 0.932 . S
C89 C88 1.331 . S
C89 C90 1.336 . S
C90 C86 1.394 . S
C90 C89 1.336 . S
C90 H105 0.929 . S
C91 C81 1.386 . S
C91 C84 1.357 . S
C91 H104 0.928 . S
H92 C68 0.931 . S
H93 C70 0.930 . S
H94 C72 0.929 . S
H95 C73 0.931 . S
H96 C75 0.930 . S
H97 C79 0.931 . S
H98 C77 0.932 . S
H99 C81 0.931 . S
H100 C82 0.929 . S
H101 C83 0.930 . S
H102 C86 0.930 . S
H103 C87 0.931 . S
H104 C91 0.928 . S
H105 C90 0.929 . S
H106 C88 0.932 . S
C107 C108 1.386 . S
C107 C109 1.397 . S
C107 H131 0.931 . S
C108 C107 1.386 . S
C108 C112 1.397 1_545 S
C109 C107 1.397 . S
C109 C110 1.384 . S
C109 H132 0.930 . S
C110 C109 1.384 . S
C110 C111 1.377 1_545 S
C110 C113 1.481 . S
C111 C110 1.377 1_565 S
C111 C112 1.389 . S
C111 H133 0.929 . S
C112 C108 1.397 1_565 S
C112 C111 1.389 . S
C112 H134 0.931 . S
C113 C110 1.481 . S
C113 C114 1.387 . S
C113 C118 1.390 1_445 S
C114 C113 1.387 . S
C114 C115 1.401 . S
C114 H135 0.930 . S
C115 C114 1.401 . S
C115 C116 1.376 . S
C115 C124 1.511 . S
C116 C115 1.376 . S
C116 C117 1.392 1_445 S
C116 H137 0.931 . S
C117 C116 1.392 1_665 S
C117 C118 1.361 . S
C117 C119 1.500 . S
C118 C113 1.390 1_665 S
C118 C117 1.361 . S
C118 H136 0.931 . S
C119 C117 1.500 . S
C119 C120 1.371 . S
C119 C121 1.365 . S
C120 C119 1.371 . S
C120 C130 1.386 . S
C120 H138 0.931 . S
C121 C119 1.365 . S
C121 C122 1.409 . S
C121 H139 0.929 . S
C122 C121 1.409 . S
C122 C123 1.380 . S
C122 H140 0.930 . S
C123 C122 1.380 . S
C123 C130 1.357 . S
C124 C115 1.511 . S
C124 C125 1.341 . S
C124 C126 1.371 . S
C125 C124 1.341 . S
C125 C129 1.394 . S
C125 H141 0.930 . S
C126 C124 1.371 . S
C126 C127 1.392 . S
C126 H142 0.931 . S
C127 C126 1.392 . S
C127 C128 1.331 . S
C127 H145 0.932 . S
C128 C127 1.331 . S
C128 C129 1.336 . S
C129 C125 1.394 . S
C129 C128 1.336 . S
C129 H144 0.929 . S
C130 C120 1.386 . S
C130 C123 1.357 . S
C130 H143 0.928 . S
H131 C107 0.931 . S
H132 C109 0.930 . S
H133 C111 0.929 . S
H134 C112 0.931 . S
H135 C114 0.930 . S
H136 C118 0.931 . S
H137 C116 0.931 . S
H138 C120 0.931 . S
H139 C121 0.929 . S
H140 C122 0.930 . S
H141 C125 0.930 . S
H142 C126 0.931 . S
H143 C130 0.928 . S
H144 C129 0.929 . S
H145 C127 0.932 . S
C146 C147 1.386 . S
C146 C148 1.397 . S
C146 H170 0.931 . S
C147 C146 1.386 . S
C147 C151 1.397 . S
C148 C146 1.397 . S
C148 C149 1.384 . S
C148 H171 0.930 . S
C149 C148 1.384 . S
C149 C150 1.377 . S
C149 C152 1.481 . S
C150 C149 1.377 . S
C150 C151 1.389 . S
C150 H172 0.929 . S
C151 C147 1.397 . S
C151 C150 1.389 . S
C151 H173 0.931 . S
C152 C149 1.481 . S
C152 C153 1.387 . S
C152 C157 1.390 . S
C153 C152 1.387 . S
C153 C154 1.401 . S
C153 H174 0.930 . S
C154 C153 1.401 . S
C154 C155 1.376 . S
C154 C163 1.511 . S
C155 C154 1.376 . S
C155 C156 1.392 . S
C155 H176 0.931 . S
C156 C155 1.392 . S
C156 C157 1.361 . S
C156 C158 1.500 . S
C157 C152 1.390 . S
C157 C156 1.361 . S
C157 H175 0.931 . S
C158 C156 1.500 . S
C158 C159 1.371 . S
C158 C160 1.365 . S
C159 C158 1.371 . S
C159 C169 1.386 1_556 S
C159 H177 0.931 . S
C160 C158 1.365 . S
C160 C161 1.409 . S
C160 H178 0.929 . S
C161 C160 1.409 . S
C161 C162 1.380 . S
C161 H179 0.930 . S
C162 C161 1.380 . S
C162 C169 1.357 1_556 S
C163 C154 1.511 . S
C163 C164 1.341 . S
C163 C165 1.371 . S
C164 C163 1.341 . S
C164 C168 1.394 . S
C164 H180 0.930 . S
C165 C163 1.371 . S
C165 C166 1.392 1_556 S
C165 H181 0.931 1_556 S
C166 C165 1.392 1_554 S
C166 C167 1.331 1_554 S
C166 H184 0.932 . S
C167 C166 1.331 1_556 S
C167 C168 1.336 . S
C168 C164 1.394 . S
C168 C167 1.336 . S
C168 H183 0.929 . S
C169 C159 1.386 1_554 S
C169 C162 1.357 1_554 S
C169 H182 0.928 . S
H170 C146 0.931 . S
H171 C148 0.930 . S
H172 C150 0.929 . S
H173 C151 0.931 . S
H174 C153 0.930 . S
H175 C157 0.931 . S
H176 C155 0.931 . S
H177 C159 0.931 . S
H178 C160 0.929 . S
H179 C161 0.930 . S
H180 C164 0.930 . S
H181 C165 0.931 1_554 S
H182 C169 0.928 . S
H183 C168 0.929 . S
H184 C166 0.932 . S
C185 C186 1.386 . S
C185 C187 1.397 . S
C185 H209 0.931 . S
C186 C185 1.386 . S
C186 C190 1.397 . S
C187 C185 1.397 . S
C187 C188 1.384 . S
C187 H210 0.930 . S
C188 C187 1.384 . S
C188 C189 1.377 . S
C188 C191 1.481 . S
C189 C188 1.377 . S
C189 C190 1.389 . S
C189 H211 0.929 . S
C190 C186 1.397 . S
C190 C189 1.389 . S
C190 H212 0.931 . S
C191 C188 1.481 . S
C191 C192 1.387 . S
C191 C196 1.390 . S
C192 C191 1.387 . S
C192 C193 1.401 . S
C192 H213 0.930 . S
C193 C192 1.401 . S
C193 C194 1.376 . S
C193 C202 1.511 . S
C194 C193 1.376 . S
C194 C195 1.392 . S
C194 H215 0.931 . S
C195 C194 1.392 . S
C195 C196 1.361 . S
C195 C197 1.500 . S
C196 C191 1.390 . S
C196 C195 1.361 . S
C196 H214 0.931 . S
C197 C195 1.500 . S
C197 C198 1.371 . S
C197 C199 1.365 . S
C198 C197 1.371 . S
C198 C208 1.386 . S
C198 H216 0.931 . S
C199 C197 1.365 . S
C199 C200 1.409 . S
C199 H217 0.929 . S
C200 C199 1.409 . S
C200 C201 1.380 . S
C200 H218 0.930 . S
C201 C200 1.380 . S
C201 C208 1.357 . S
C202 C193 1.511 . S
C202 C203 1.341 . S
C202 C204 1.371 . S
C203 C202 1.341 . S
C203 C207 1.394 . S
C203 H219 0.930 . S
C204 C202 1.371 . S
C204 C205 1.392 . S
C204 H220 0.931 . S
C205 C204 1.392 . S
C205 C206 1.331 . S
C205 H223 0.932 1_554 S
C206 C205 1.331 . S
C206 C207 1.336 . S
C207 C203 1.394 . S
C207 C206 1.336 . S
C207 H222 0.929 . S
C208 C198 1.386 . S
C208 C201 1.357 . S
C208 H221 0.928 1_554 S
H209 C185 0.931 . S
H210 C187 0.930 . S
H211 C189 0.929 . S
H212 C190 0.931 . S
H213 C192 0.930 . S
H214 C196 0.931 . S
H215 C194 0.931 . S
H216 C198 0.931 . S
H217 C199 0.929 . S
H218 C200 0.930 . S
H219 C203 0.930 . S
H220 C204 0.931 . S
H221 C208 0.928 1_556 S
H222 C207 0.929 . S
H223 C205 0.932 1_556 S
H224 C225 0.951 . S
C225 H224 0.951 . S
C225 C231 1.265 . S
H226 C231 0.950 . S
H227 C235 0.949 . S
H228 C236 0.950 . S
H229 C237 0.951 . S
H230 C238 0.951 . S
C231 C225 1.265 . S
C231 H226 0.950 . S
C231 C232 1.478 . S
C232 C231 1.478 . S
C232 C233 1.397 . S
C232 C249 1.394 1_554 S
C233 C232 1.397 . S
C233 C234 1.438 . S
C233 C238 1.429 . S
C234 C233 1.438 . S
C234 C235 1.428 . S
C234 C247 1.394 . S
C235 H227 0.949 . S
C235 C234 1.428 . S
C235 C236 1.345 . S
C236 H228 0.950 . S
C236 C235 1.345 . S
C236 C237 1.424 . S
C237 H229 0.951 . S
C237 C236 1.424 . S
C237 C238 1.347 . S
C238 H230 0.951 . S
C238 C233 1.429 . S
C238 C237 1.347 . S
H239 C240 0.951 . S
C240 H239 0.951 . S
C240 C246 1.265 . S
H241 C246 0.950 . S
H242 C250 0.949 . S
H243 C251 0.950 . S
H244 C252 0.951 . S
H245 C253 0.951 . S
C246 C240 1.265 . S
C246 H241 0.950 . S
C246 C247 1.478 . S
C247 C234 1.394 . S
C247 C246 1.478 . S
C247 C248 1.397 1_554 S
C248 C247 1.397 1_556 S
C248 C249 1.438 . S
C248 C253 1.429 . S
C249 C232 1.394 1_556 S
C249 C248 1.438 . S
C249 C250 1.428 . S
C250 H242 0.949 . S
C250 C249 1.428 . S
C250 C251 1.345 . S
C251 H243 0.950 . S
C251 C250 1.345 . S
C251 C252 1.424 . S
C252 H244 0.951 . S
C252 C251 1.424 . S
C252 C253 1.347 . S
C253 H245 0.951 . S
C253 C248 1.429 . S
C253 C252 1.347 . S
H254 C255 0.949 1_556 S
C255 H254 0.949 1_554 S
C255 C261 1.265 . S
H256 C261 0.950 . S
H257 C265 0.949 . S
H258 C266 0.950 . S
H259 C267 0.951 . S
H260 C268 0.951 . S
C261 C255 1.265 . S
C261 H256 0.950 . S
C261 C262 1.478 . S
C262 C261 1.478 . S
C262 C263 1.397 . S
C262 C279 1.394 1_554 S
C263 C262 1.397 . S
C263 C264 1.438 . S
C263 C268 1.429 . S
C264 C263 1.438 . S
C264 C265 1.428 . S
C264 C277 1.355 1_554 S
C265 H257 0.949 . S
C265 C264 1.428 . S
C265 C266 1.345 . S
C266 H258 0.950 . S
C266 C265 1.345 . S
C266 C267 1.424 . S
C267 H259 0.951 . S
C267 C266 1.424 . S
C267 C268 1.347 . S
C268 H260 0.951 . S
C268 C263 1.429 . S
C268 C267 1.347 . S
H269 C270 0.946 1_554 S
C270 H269 0.946 1_556 S
C270 C276 1.269 . S
H271 C276 0.950 . S
H272 C280 0.949 . S
H273 C281 0.950 . S
H274 C282 0.951 . S
H275 C283 0.951 . S
C276 C270 1.269 . S
C276 H271 0.950 . S
C276 C277 1.483 . S
C277 C264 1.355 1_556 S
C277 C276 1.483 . S
C277 C278 1.433 . S
C278 C277 1.433 . S
C278 C279 1.438 . S
C278 C283 1.429 . S
C279 C262 1.394 1_556 S
C279 C278 1.438 . S
C279 C280 1.428 . S
C280 H272 0.949 . S
C280 C279 1.428 . S
C280 C281 1.345 . S
C281 H273 0.950 . S
C281 C280 1.345 . S
C281 C282 1.424 . S
C282 H274 0.951 . S
C282 C281 1.424 . S
C282 C283 1.347 . S
C283 H275 0.951 . S
C283 C278 1.429 . S
C283 C282 1.347 . S
H284 C285 0.950 . S
C285 H284 0.950 . S
C285 C291 1.265 . S
H286 C291 0.950 . S
H287 C295 0.949 . S
H288 C296 0.950 . S
H289 C297 0.951 . S
H290 C298 0.951 . S
C291 C285 1.265 . S
C291 H286 0.950 . S
C291 C292 1.478 . S
C292 C291 1.478 . S
C292 C293 1.397 . S
C292 C309 1.394 1_554 S
C293 C292 1.397 . S
C293 C294 1.438 . S
C293 C298 1.429 . S
C294 C293 1.438 . S
C294 C295 1.428 . S
C294 C307 1.394 . S
C295 H287 0.949 . S
C295 C294 1.428 . S
C295 C296 1.345 . S
C296 H288 0.950 . S
C296 C295 1.345 . S
C296 C297 1.424 . S
C297 H289 0.951 . S
C297 C296 1.424 . S
C297 C298 1.347 . S
C298 H290 0.951 . S
C298 C293 1.429 . S
C298 C297 1.347 . S
H299 C300 0.951 . S
C300 H299 0.951 . S
C300 C306 1.265 . S
H301 C306 0.956 . S
H302 C310 0.949 . S
H303 C311 0.950 . S
H304 C312 0.951 . S
H305 C313 0.951 . S
C306 C300 1.265 . S
C306 H301 0.956 . S
C306 C307 1.478 . S
C307 C294 1.394 . S
C307 C306 1.478 . S
C307 C308 1.397 1_554 S
C308 C307 1.397 1_556 S
C308 C309 1.438 . S
C308 C313 1.429 . S
C309 C292 1.394 1_556 S
C309 C308 1.438 . S
C309 C310 1.428 . S
C310 H302 0.949 . S
C310 C309 1.428 . S
C310 C311 1.345 . S
C311 H303 0.950 . S
C311 C310 1.345 . S
C311 C312 1.424 . S
C312 H304 0.951 . S
C312 C311 1.424 . S
C312 C313 1.347 . S
C313 H305 0.951 . S
C313 C308 1.429 . S
C313 C312 1.347 . S
H314 C315 0.951 . S
C315 H314 0.951 . S
C315 C321 1.265 . S
H316 C321 0.956 . S
H317 C325 0.949 . S
H318 C326 0.950 . S
H319 C327 0.951 . S
H320 C328 0.951 . S
C321 C315 1.265 . S
C321 H316 0.956 . S
C321 C322 1.478 . S
C322 C321 1.478 . S
C322 C323 1.397 1_554 S
C322 C339 1.394 . S
C323 C322 1.397 1_556 S
C323 C324 1.438 . S
C323 C328 1.429 . S
C324 C323 1.438 . S
C324 C325 1.428 . S
C324 C337 1.394 1_556 S
C325 H317 0.949 . S
C325 C324 1.428 . S
C325 C326 1.345 . S
C326 H318 0.950 . S
C326 C325 1.345 . S
C326 C327 1.424 . S
C327 H319 0.951 . S
C327 C326 1.424 . S
C327 C328 1.347 . S
C328 H320 0.951 . S
C328 C323 1.429 . S
C328 C327 1.347 . S
H329 C330 0.947 1_556 S
C330 H329 0.947 1_554 S
C330 C336 1.269 . S
H331 C336 0.950 . S
H332 C340 0.949 . S
H333 C341 0.950 . S
H334 C342 0.951 . S
H335 C343 0.951 . S
C336 C330 1.269 . S
C336 H331 0.950 . S
C336 C337 1.478 . S
C337 C324 1.394 1_554 S
C337 C336 1.478 . S
C337 C338 1.397 . S
C338 C337 1.397 . S
C338 C339 1.438 . S
C338 C343 1.429 . S
C339 C322 1.394 . S
C339 C338 1.438 . S
C339 C340 1.428 . S
C340 H332 0.949 . S
C340 C339 1.428 . S
C340 C341 1.345 . S
C341 H333 0.950 . S
C341 C340 1.345 . S
C341 C342 1.424 . S
C342 H334 0.951 . S
C342 C341 1.424 . S
C342 C343 1.347 . S
C343 H335 0.951 . S
C343 C338 1.429 . S
C343 C342 1.347 . S
H344 C345 0.951 . S
C345 H344 0.951 . S
C345 C351 1.265 . S
H346 C351 0.950 . S
H347 C355 0.949 . S
H348 C356 0.950 . S
H349 C357 0.951 . S
H350 C358 0.951 . S
C351 C345 1.265 . S
C351 H346 0.950 . S
C351 C352 1.478 . S
C352 C351 1.478 . S
C352 C353 1.397 . S
C352 C369 1.394 . S
C353 C352 1.397 . S
C353 C354 1.438 . S
C353 C358 1.429 . S
C354 C353 1.438 . S
C354 C355 1.428 . S
C354 C367 1.394 . S
C355 H347 0.949 . S
C355 C354 1.428 . S
C355 C356 1.345 . S
C356 H348 0.950 . S
C356 C355 1.345 . S
C356 C357 1.424 . S
C357 H349 0.951 . S
C357 C356 1.424 . S
C357 C358 1.347 . S
C358 H350 0.951 . S
C358 C353 1.429 . S
C358 C357 1.347 . S
H359 C360 0.951 . S
C360 H359 0.951 . S
C360 C366 1.265 . S
H361 C366 0.950 . S
H362 C370 0.949 . S
H363 C371 0.950 . S
H364 C372 0.951 . S
H365 C373 0.951 . S
C366 C360 1.265 . S
C366 H361 0.950 . S
C366 C367 1.478 . S
C367 C354 1.394 . S
C367 C366 1.478 . S
C367 C368 1.397 . S
C368 C367 1.397 . S
C368 C369 1.438 . S
C368 C373 1.429 . S
C369 C352 1.394 . S
C369 C368 1.438 . S
C369 C370 1.428 . S
C370 H362 0.949 . S
C370 C369 1.428 . S
C370 C371 1.345 . S
C371 H363 0.950 . S
C371 C370 1.345 . S
C371 C372 1.424 . S
C372 H364 0.951 . S
C372 C371 1.424 . S
C372 C373 1.347 . S
C373 H365 0.951 . S
C373 C368 1.429 . S
C373 C372 1.347 . S
H374 C375 0.951 . S
C375 H374 0.951 . S
C375 C381 1.265 . S
H376 C381 0.950 . S
H377 C385 0.949 . S
H378 C386 0.950 . S
H379 C387 0.951 . S
H380 C388 0.951 . S
C381 C375 1.265 . S
C381 H376 0.950 . S
C381 C382 1.478 . S
C382 C381 1.478 . S
C382 C383 1.397 . S
C382 C399 1.394 . S
C383 C382 1.397 . S
C383 C384 1.438 . S
C383 C388 1.429 . S
C384 C383 1.438 . S
C384 C385 1.428 . S
C384 C397 1.394 . S
C385 H377 0.949 . S
C385 C384 1.428 . S
C385 C386 1.345 . S
C386 H378 0.950 . S
C386 C385 1.345 . S
C386 C387 1.424 . S
C387 H379 0.951 . S
C387 C386 1.424 . S
C387 C388 1.347 . S
C388 H380 0.951 . S
C388 C383 1.429 . S
C388 C387 1.347 . S
H389 C390 0.951 . S
C390 H389 0.951 . S
C390 C396 1.265 . S
H391 C396 0.950 . S
H392 C400 0.949 . S
H393 C401 0.950 . S
H394 C402 0.951 . S
H395 C403 0.951 . S
C396 C390 1.265 . S
C396 H391 0.950 . S
C396 C397 1.478 . S
C397 C384 1.394 . S
C397 C396 1.478 . S
C397 C398 1.397 . S
C398 C397 1.397 . S
C398 C399 1.438 . S
C398 C403 1.429 . S
C399 C382 1.394 . S
C399 C398 1.438 . S
C399 C400 1.428 . S
C400 H392 0.949 . S
C400 C399 1.428 . S
C400 C401 1.345 . S
C401 H393 0.950 . S
C401 C400 1.345 . S
C401 C402 1.424 . S
C402 H394 0.951 . S
C402 C401 1.424 . S
C402 C403 1.347 . S
C403 H395 0.951 . S
C403 C398 1.429 . S
C403 C402 1.347 . S
H404 C405 0.951 . S
C405 H404 0.951 . S
C405 C411 1.265 . S
H406 C411 0.950 . S
H407 C415 0.949 . S
H408 C416 0.950 . S
H409 C417 0.951 . S
H410 C418 0.951 . S
C411 C405 1.265 . S
C411 H406 0.950 . S
C411 C412 1.478 . S
C412 C411 1.478 . S
C412 C413 1.397 . S
C412 C429 1.394 . S
C413 C412 1.397 . S
C413 C414 1.438 . S
C413 C418 1.429 . S
C414 C413 1.438 . S
C414 C415 1.428 . S
C414 C427 1.394 . S
C415 H407 0.949 . S
C415 C414 1.428 . S
C415 C416 1.345 . S
C416 H408 0.950 . S
C416 C415 1.345 . S
C416 C417 1.424 . S
C417 H409 0.951 . S
C417 C416 1.424 . S
C417 C418 1.347 . S
C418 H410 0.951 . S
C418 C413 1.429 . S
C418 C417 1.347 . S
H419 C420 0.951 . S
C420 H419 0.951 . S
C420 C426 1.265 . S
H421 C426 0.950 . S
H422 C430 0.949 . S
H423 C431 0.950 . S
H424 C432 0.951 . S
H425 C433 0.951 . S
C426 C420 1.265 . S
C426 H421 0.950 . S
C426 C427 1.478 . S
C427 C414 1.394 . S
C427 C426 1.478 . S
C427 C428 1.397 . S
C428 C427 1.397 . S
C428 C429 1.438 . S
C428 C433 1.429 . S
C429 C412 1.394 . S
C429 C428 1.438 . S
C429 C430 1.428 . S
C430 H422 0.949 . S
C430 C429 1.428 . S
C430 C431 1.345 . S
C431 H423 0.950 . S
C431 C430 1.345 . S
C431 C432 1.424 . S
C432 H424 0.951 . S
C432 C431 1.424 . S
C432 C433 1.347 . S
C433 H425 0.951 . S
C433 C428 1.429 . S
C433 C432 1.347 . S
H434 C435 0.951 . S
C435 H434 0.951 . S
C435 C441 1.265 . S
H436 C441 0.950 . S
H437 C445 0.949 . S
H438 C446 0.950 . S
H439 C447 0.951 . S
H440 C448 0.951 . S
C441 C435 1.265 . S
C441 H436 0.950 . S
C441 C442 1.478 . S
C442 C441 1.478 . S
C442 C443 1.397 . S
C442 C459 1.394 . S
C443 C442 1.397 . S
C443 C444 1.438 . S
C443 C448 1.429 . S
C444 C443 1.438 . S
C444 C445 1.428 . S
C444 C457 1.394 . S
C445 H437 0.949 . S
C445 C444 1.428 . S
C445 C446 1.345 . S
C446 H438 0.950 . S
C446 C445 1.345 . S
C446 C447 1.424 . S
C447 H439 0.951 . S
C447 C446 1.424 . S
C447 C448 1.347 . S
C448 H440 0.951 . S
C448 C443 1.429 . S
C448 C447 1.347 . S
H449 C450 0.951 . S
C450 H449 0.951 . S
C450 C456 1.265 . S
H451 C456 0.950 . S
H452 C460 0.949 . S
H453 C461 0.950 . S
H454 C462 0.951 . S
H455 C463 0.951 . S
C456 C450 1.265 . S
C456 H451 0.950 . S
C456 C457 1.478 . S
C457 C444 1.394 . S
C457 C456 1.478 . S
C457 C458 1.397 . S
C458 C457 1.397 . S
C458 C459 1.438 . S
C458 C463 1.429 . S
C459 C442 1.394 . S
C459 C458 1.438 . S
C459 C460 1.428 . S
C460 H452 0.949 . S
C460 C459 1.428 . S
C460 C461 1.345 . S
C461 H453 0.950 . S
C461 C460 1.345 . S
C461 C462 1.424 . S
C462 H454 0.951 . S
C462 C461 1.424 . S
C462 C463 1.347 . S
C463 H455 0.951 . S
C463 C458 1.429 . S
C463 C462 1.347 . S
H464 C465 0.951 1_565 S
C465 H464 0.951 1_545 S
C465 C471 1.265 1_655 S
H466 C471 0.950 . S
H467 C475 0.949 . S
H468 C476 0.950 . S
H469 C477 0.951 . S
H470 C478 0.951 . S
C471 C465 1.265 1_455 S
C471 H466 0.950 . S
C471 C472 1.478 . S
C472 C471 1.478 . S
C472 C473 1.397 . S
C472 C489 1.394 1_445 S
C473 C472 1.397 . S
C473 C474 1.438 . S
C473 C478 1.429 . S
C474 C473 1.438 . S
C474 C475 1.428 . S
C474 C487 1.408 1_455 S
C475 H467 0.949 . S
C475 C474 1.428 . S
C475 C476 1.345 . S
C476 H468 0.950 . S
C476 C475 1.345 . S
C476 C477 1.424 . S
C477 H469 0.951 . S
C477 C476 1.424 . S
C477 C478 1.347 . S
C478 H470 0.951 . S
C478 C473 1.429 . S
C478 C477 1.347 . S
H479 C480 0.951 . S
C480 H479 0.951 . S
C480 C486 1.265 1_445 S
H481 C486 0.950 . S
H482 C490 0.953 . S
H483 C491 0.950 . S
H484 C492 0.951 . S
H485 C493 0.951 . S
C486 C480 1.265 1_665 S
C486 H481 0.950 . S
C486 C487 1.477 1_565 S
C487 C474 1.408 1_655 S
C487 C486 1.477 1_545 S
C487 C488 1.384 1_545 S
C488 C487 1.384 1_565 S
C488 C489 1.438 . S
C488 C493 1.429 . S
C489 C472 1.394 1_665 S
C489 C488 1.438 . S
C489 C490 1.428 . S
C490 H482 0.953 . S
C490 C489 1.428 . S
C490 C491 1.345 . S
C491 H483 0.950 . S
C491 C490 1.345 . S
C491 C492 1.424 . S
C492 H484 0.951 . S
C492 C491 1.424 . S
C492 C493 1.347 . S
C493 H485 0.951 . S
C493 C488 1.429 . S
C493 C492 1.347 . S
H494 C495 0.951 1_655 S
C495 H494 0.951 1_455 S
C495 C501 1.265 . S
H496 C501 0.949 1_565 S
H497 C505 0.949 . S
H498 C506 0.950 . S
H499 C507 0.951 . S
H500 C508 0.951 . S
C501 C495 1.265 . S
C501 H496 0.949 1_545 S
C501 C502 1.478 . S
C502 C501 1.478 . S
C502 C503 1.397 1_545 S
C502 C519 1.394 . S
C503 C502 1.397 1_565 S
C503 C504 1.438 . S
C503 C508 1.429 . S
C504 C503 1.438 . S
C504 C505 1.428 . S
C504 C517 1.394 1_565 S
C505 H497 0.949 . S
C505 C504 1.428 . S
C505 C506 1.345 . S
C506 H498 0.950 . S
C506 C505 1.345 . S
C506 C507 1.424 . S
C507 H499 0.951 . S
C507 C506 1.424 . S
C507 C508 1.347 . S
C508 H500 0.951 . S
C508 C503 1.429 . S
C508 C507 1.347 . S
H509 C510 0.951 . S
C510 H509 0.951 . S
C510 C516 1.265 1_455 S
H511 C516 0.950 . S
H512 C520 0.949 1_455 S
H513 C521 0.950 . S
H514 C522 0.951 . S
H515 C523 0.951 . S
C516 C510 1.265 1_655 S
C516 H511 0.950 . S
C516 C517 1.478 1_655 S
C517 C504 1.394 1_545 S
C517 C516 1.478 1_455 S
C517 C518 1.397 1_455 S
C518 C517 1.397 1_655 S
C518 C519 1.438 1_655 S
C518 C523 1.429 . S
C519 C502 1.394 . S
C519 C518 1.438 1_455 S
C519 C520 1.428 1_455 S
C520 H512 0.949 1_655 S
C520 C519 1.428 1_655 S
C520 C521 1.345 . S
C521 H513 0.950 . S
C521 C520 1.345 . S
C521 C522 1.424 . S
C522 H514 0.951 . S
C522 C521 1.424 . S
C522 C523 1.347 . S
C523 H515 0.951 . S
C523 C518 1.429 . S
C523 C522 1.347 . S
H524 C525 0.951 . S
C525 H524 0.951 . S
C525 C531 1.265 . S
H526 C531 0.950 . S
H527 C535 0.949 . S
H528 C536 0.950 . S
H529 C537 0.951 . S
H530 C538 0.951 . S
C531 C525 1.265 . S
C531 H526 0.950 . S
C531 C532 1.478 . S
C532 C531 1.478 . S
C532 C533 1.397 . S
C532 C549 1.394 . S
C533 C532 1.397 . S
C533 C534 1.438 . S
C533 C538 1.429 . S
C534 C533 1.438 . S
C534 C535 1.428 . S
C534 C547 1.394 . S
C535 H527 0.949 . S
C535 C534 1.428 . S
C535 C536 1.345 . S
C536 H528 0.950 . S
C536 C535 1.345 . S
C536 C537 1.424 . S
C537 H529 0.951 . S
C537 C536 1.424 . S
C537 C538 1.347 . S
C538 H530 0.951 . S
C538 C533 1.429 . S
C538 C537 1.347 . S
H539 C540 0.951 . S
C540 H539 0.951 . S
C540 C546 1.265 . S
H541 C546 0.950 . S
H542 C550 0.949 . S
H543 C551 0.950 . S
H544 C552 0.951 . S
H545 C553 0.951 . S
C546 C540 1.265 . S
C546 H541 0.950 . S
C546 C547 1.478 . S
C547 C534 1.394 . S
C547 C546 1.478 . S
C547 C548 1.397 . S
C548 C547 1.397 . S
C548 C549 1.438 . S
C548 C553 1.429 . S
C549 C532 1.394 . S
C549 C548 1.438 . S
C549 C550 1.428 . S
C550 H542 0.949 . S
C550 C549 1.428 . S
C550 C551 1.345 . S
C551 H543 0.950 . S
C551 C550 1.345 . S
C551 C552 1.424 . S
C552 H544 0.951 . S
C552 C551 1.424 . S
C552 C553 1.347 . S
C553 H545 0.951 . S
C553 C548 1.429 . S
C553 C552 1.347 . S
H554 C555 0.951 . S
C555 H554 0.951 . S
C555 C561 1.265 . S
H556 C561 0.950 . S
H557 C565 0.949 . S
H558 C566 0.950 . S
H559 C567 0.951 . S
H560 C568 0.951 . S
C561 C555 1.265 . S
C561 H556 0.950 . S
C561 C562 1.478 . S
C562 C561 1.478 . S
C562 C563 1.397 . S
C562 C579 1.394 . S
C563 C562 1.397 . S
C563 C564 1.438 . S
C563 C568 1.429 . S
C564 C563 1.438 . S
C564 C565 1.428 . S
C564 C577 1.394 . S
C565 H557 0.949 . S
C565 C564 1.428 . S
C565 C566 1.345 . S
C566 H558 0.950 . S
C566 C565 1.345 . S
C566 C567 1.424 . S
C567 H559 0.951 . S
C567 C566 1.424 . S
C567 C568 1.347 . S
C568 H560 0.951 . S
C568 C563 1.429 . S
C568 C567 1.347 . S
H569 C570 0.951 . S
C570 H569 0.951 . S
C570 C576 1.265 . S
H571 C576 0.950 . S
H572 C580 0.949 . S
H573 C581 0.950 . S
H574 C582 0.951 . S
H575 C583 0.951 . S
C576 C570 1.265 . S
C576 H571 0.950 . S
C576 C577 1.478 . S
C577 C564 1.394 . S
C577 C576 1.478 . S
C577 C578 1.397 . S
C578 C577 1.397 . S
C578 C579 1.438 . S
C578 C583 1.429 . S
C579 C562 1.394 . S
C579 C578 1.438 . S
C579 C580 1.428 . S
C580 H572 0.949 . S
C580 C579 1.428 . S
C580 C581 1.345 . S
C581 H573 0.950 . S
C581 C580 1.345 . S
C581 C582 1.424 . S
C582 H574 0.951 . S
C582 C581 1.424 . S
C582 C583 1.347 . S
C583 H575 0.951 . S
C583 C578 1.429 . S
C583 C582 1.347 . S
C240 C201 1.433 . S
C225 C29 1.477 . S
C255 C8 1.469 . S
C270 C162 1.435 . S
C285 C0 1.456 . S
C300 C206 1.418 . S
C315 C17 1.461 . S
C330 C167 1.426 1_554 S
C345 C63 1.478 . S
C360 C123 1.423 . S
C375 C42 1.457 . S
C390 C84 1.437 . S
C420 C128 1.419 . S
C405 C34 1.456 . S
C450 C89 1.444 . S
C435 C51 1.460 . S
C465 C4 1.481 1_655 S
C480 C69 1.473 1_455 S
C495 C13 1.467 . S
C510 C108 1.477 . S
C540 C147 1.478 . S
C525 C38 1.469 . S
C555 C47 1.478 . S
C570 C186 1.472 . S
