# Generated by pormake.
# Topology zzz, (3,6)-cn, num edge types: 1
# Building blocks:
#     Node 0, Type 0, BuildingBlock: BETDIP_clean_linker_0, # of connection points: 3
#     Node 1, Type 0, BuildingBlock: BETDIP_clean_linker_0, # of connection points: 3
#     Node 2, Type 0, BuildingBlock: BETDIP_clean_linker_0, # of connection points: 3
#     Node 3, Type 0, BuildingBlock: BETDIP_clean_linker_0, # of connection points: 3
#     Node 4, Type 0, BuildingBlock: BETDIP_clean_linker_0, # of connection points: 3
#     Node 5, Type 0, BuildingBlock: BETDIP_clean_linker_0, # of connection points: 3
#     Node 6, Type 0, BuildingBlock: BETDIP_clean_linker_0, # of connection points: 3
#     Node 7, Type 0, BuildingBlock: BETDIP_clean_linker_0, # of connection points: 3
#     Node 8, Type 1, BuildingBlock: BETDAH_clean_sbu_0, # of connection points: 6
#     Node 9, Type 1, BuildingBlock: BETDAH_clean_sbu_0, # of connection points: 6
#     Node 10, Type 1, BuildingBlock: BETDAH_clean_sbu_0, # of connection points: 6
#     Node 11, Type 1, BuildingBlock: BETDAH_clean_sbu_0, # of connection points: 6
#     Edge 12, Type (0, 1), BuildingBlock: UVAHIK_clean_linker_0, # of connection points: 2
#     Edge 13, Type (0, 1), BuildingBlock: UVAHIK_clean_linker_0, # of connection points: 2
#     Edge 14, Type (0, 1), BuildingBlock: UVAHIK_clean_linker_0, # of connection points: 2
#     Edge 15, Type (0, 1), BuildingBlock: UVAHIK_clean_linker_0, # of connection points: 2
#     Edge 16, Type (0, 1), BuildingBlock: UVAHIK_clean_linker_0, # of connection points: 2
#     Edge 17, Type (0, 1), BuildingBlock: UVAHIK_clean_linker_0, # of connection points: 2
#     Edge 18, Type (0, 1), BuildingBlock: UVAHIK_clean_linker_0, # of connection points: 2
#     Edge 19, Type (0, 1), BuildingBlock: UVAHIK_clean_linker_0, # of connection points: 2
#     Edge 20, Type (0, 1), BuildingBlock: UVAHIK_clean_linker_0, # of connection points: 2
#     Edge 21, Type (0, 1), BuildingBlock: UVAHIK_clean_linker_0, # of connection points: 2
#     Edge 22, Type (0, 1), BuildingBlock: UVAHIK_clean_linker_0, # of connection points: 2
#     Edge 23, Type (0, 1), BuildingBlock: UVAHIK_clean_linker_0, # of connection points: 2
#     Edge 24, Type (0, 1), BuildingBlock: UVAHIK_clean_linker_0, # of connection points: 2
#     Edge 25, Type (0, 1), BuildingBlock: UVAHIK_clean_linker_0, # of connection points: 2
#     Edge 26, Type (0, 1), BuildingBlock: UVAHIK_clean_linker_0, # of connection points: 2
#     Edge 27, Type (0, 1), BuildingBlock: UVAHIK_clean_linker_0, # of connection points: 2
#     Edge 28, Type (0, 1), BuildingBlock: UVAHIK_clean_linker_0, # of connection points: 2
#     Edge 29, Type (0, 1), BuildingBlock: UVAHIK_clean_linker_0, # of connection points: 2
#     Edge 30, Type (0, 1), BuildingBlock: UVAHIK_clean_linker_0, # of connection points: 2
#     Edge 31, Type (0, 1), BuildingBlock: UVAHIK_clean_linker_0, # of connection points: 2
#     Edge 32, Type (0, 1), BuildingBlock: UVAHIK_clean_linker_0, # of connection points: 2
#     Edge 33, Type (0, 1), BuildingBlock: UVAHIK_clean_linker_0, # of connection points: 2
#     Edge 34, Type (0, 1), BuildingBlock: UVAHIK_clean_linker_0, # of connection points: 2
#     Edge 35, Type (0, 1), BuildingBlock: UVAHIK_clean_linker_0, # of connection points: 2
# Relax obj value: 0.227
# Max RMSD: 0.175
# Mean RMSD: 0.160
data_MOF--net-zzz--node1-BETDAH_clean_sbu_0--node2-BETDIP_clean_linker_0--edge1-UVAHIK_clean_linker_0
_symmetry_space_group_name_H-M    P1
_symmetry_Int_Tables_number       1
_symmetry_cell_setting            triclinic
loop_
_symmetry_equiv_pos_as_xyz
'x, y, z'
_cell_length_a     68.650526
_cell_length_b     68.664486
_cell_length_c     16.834139
_cell_angle_alpha  89.748861
_cell_angle_beta   89.956865
_cell_angle_gamma 89.910317
loop_
_atom_site_label
_atom_site_type_symbol
_atom_site_fract_x
_atom_site_fract_y
_atom_site_fract_z
_atom_type_partial_charge
H0 H 0.7482 0.52607 0.36868 0.0
H1 H 0.72963 0.49562 0.15858 0.0
H2 H 0.78929 0.49218 0.23406 0.0
H3 H 0.7194 0.54416 0.19943 0.0
C4 C 0.70974 0.53279 0.22124 0.0
C5 C 0.75147 0.51649 0.31948 0.0
C6 C 0.7707 0.50981 0.30737 0.0
C7 C 0.73668 0.51148 0.26495 0.0
C8 C 0.74102 0.49941 0.20027 0.0
C9 C 0.75985 0.49199 0.19017 0.0
C10 C 0.77453 0.49736 0.24351 0.0
N11 N 0.71734 0.51845 0.27392 0.0
H12 H 0.99686 0.75619 0.37805 0.0
H13 H 0.02857 0.74104 0.16586 0.0
H14 H 0.04186 0.79401 0.28764 0.0
H15 H 0.98777 0.73576 0.1505 0.0
C16 C 0.9922 0.72395 0.1898 0.0
C17 C 0.00826 0.75934 0.33542 0.0
C18 C 0.01917 0.77673 0.34165 0.0
C19 C 0.01175 0.74631 0.27215 0.0
C20 C 0.02609 0.75077 0.21539 0.0
C21 C 0.03724 0.76769 0.22218 0.0
C22 C 0.03384 0.78042 0.2854 0.0
N23 N 1.00076 0.72887 0.2641 0.0
H24 H 0.75707 0.99802 0.41733 0.0
H25 H 0.77838 0.99512 0.17686 0.0
H26 H 0.71703 0.99147 0.22205 0.0
H27 H 0.79885 0.96834 0.31579 0.0
C28 C 0.80333 0.98342 0.30825 0.0
C29 C 0.75421 0.99664 0.35434 0.0
C30 C 0.73491 0.99412 0.32683 0.0
C31 C 0.76995 0.99652 0.30004 0.0
C32 C 0.76633 0.99477 0.2185 0.0
C33 C 0.7473 0.99288 0.19045 0.0
C34 C 0.73179 0.99245 0.24461 0.0
N35 N 0.78954 0.99826 0.32616 0.0
H36 H 0.50803 0.76811 0.40971 0.0
H37 H 0.5235 0.78759 0.17427 0.0
H38 H 0.52984 0.72728 0.23796 0.0
H39 H 0.53885 0.81302 0.31608 0.0
C40 C 0.52366 0.81529 0.30024 0.0
C41 C 0.51362 0.76498 0.35096 0.0
C42 C 0.51946 0.74583 0.3314 0.0
C43 C 0.51574 0.78021 0.29473 0.0
C44 C 0.52262 0.77603 0.21821 0.0
C45 C 0.52759 0.75698 0.19717 0.0
C46 C 0.52635 0.74213 0.25446 0.0
N47 N 0.51034 0.79969 0.31297 0.0
H48 H 0.2567 0.49928 0.01962 0.0
H49 H 0.27311 0.52429 0.24452 0.0
H50 H 0.21395 0.52836 0.16444 0.0
H51 H 0.30053 0.53316 0.1058 0.0
C52 C 0.30256 0.51836 0.12749 0.0
C53 C 0.25284 0.50714 0.07302 0.0
C54 C 0.23358 0.51387 0.08403 0.0
C55 C 0.26729 0.51138 0.13017 0.0
C56 C 0.26221 0.52155 0.19937 0.0
C57 C 0.24295 0.52726 0.21227 0.0
C58 C 0.22885 0.52368 0.15425 0.0
N59 N 0.28684 0.50502 0.12005 0.0
H60 H 0.01396 0.26538 0.01411 0.0
H61 H 1.00322 0.27925 0.25996 0.0
H62 H 1.00189 0.21972 0.18298 0.0
H63 H 0.98126 0.30381 0.13192 0.0
C64 C 0.99632 0.30834 0.13913 0.0
C65 C 0.01094 0.2607 0.0744 0.0
C66 C 0.008 0.24078 0.09145 0.0
C67 C 0.00896 0.27466 0.13539 0.0
C68 C 1.0046 0.26855 0.21309 0.0
C69 C 1.0026 0.24875 0.23086 0.0
C70 C 1.00418 0.23503 0.16981 0.0
N71 N 0.01135 0.29487 0.11972 0.0
H72 H 0.25114 0.02077 0.06895 0.0
H73 H 0.23329 0.97987 0.25031 0.0
H74 H 0.28992 0.97498 0.14508 0.0
H75 H 0.20453 0.98452 0.129 0.0
C76 C 0.20387 0.99839 0.15988 0.0
C77 C 0.25419 0.00817 0.10583 0.0
C78 C 0.27224 0.9984 0.09903 0.0
C79 C 0.23975 1.001 0.15833 0.0
C80 C 0.24394 0.98488 0.2073 0.0
C81 C 0.26198 0.97556 0.20221 0.0
C82 C 0.27582 0.98213 0.14745 0.0
N83 N 0.22107 0.00994 0.16297 0.0
H84 H 0.49298 0.25503 0.03657 0.0
H85 H 0.53723 0.23886 0.20654 0.0
H86 H 0.53363 0.29771 0.12053 0.0
H87 H 0.53511 0.21038 0.11877 0.0
C88 C 0.51991 0.20877 0.13593 0.0
C89 C 0.50547 0.25879 0.07258 0.0
C90 C 0.51279 0.278 0.07134 0.0
C91 C 0.51456 0.2444 0.12027 0.0
C92 C 0.53056 0.24962 0.16796 0.0
C93 C 0.53763 0.26875 0.1684 0.0
C94 C 0.52871 0.28272 0.11932 0.0
N95 N 0.5072 0.22496 0.12338 0.0
Ho96 Ho 0.01276 1.0031 0.79379 0.0
Ho97 Ho 0.99095 0.01309 0.65391 0.0
C98 C 1.00138 0.9689 0.66729 0.0
C99 C 0.02742 0.98546 0.91524 0.0
C100 C 0.03769 0.96652 0.91981 0.0
C101 C 0.0273 0.94956 0.93935 0.0
C102 C 0.03614 0.93132 0.9336 0.0
C103 C 0.05562 0.92961 0.90878 0.0
C104 C 0.06629 0.94659 0.89234 0.0
C105 C 0.05741 0.96487 0.8977 0.0
C106 C 0.03583 0.0137 0.66987 0.0
C107 C 1.00287 0.04729 0.77856 0.0
C108 C 0.97608 0.03129 0.53455 0.0
C109 C 0.96707 0.05068 0.53631 0.0
C110 C 0.96878 0.06324 0.47106 0.0
C111 C 0.96347 0.08281 0.47824 0.0
C112 C 0.95646 0.09012 0.55102 0.0
C113 C 0.95396 0.07722 0.61515 0.0
C114 C 0.95928 0.0577 0.60793 0.0
C115 C 0.96795 1.0024 0.77772 0.0
O116 O 1.00517 0.97344 0.74203 0.0
O117 O 0.99796 0.98278 0.6147 0.0
O118 O 0.03642 0.99945 0.87735 0.0
O119 O 0.00891 0.98467 0.89712 0.0
O120 O 0.0385 0.01901 0.74263 0.0
O121 O 0.02112 1.00275 0.66603 0.0
O122 O 0.99944 0.04263 0.7038 0.0
O123 O 1.00562 0.03346 0.83194 0.0
O124 O 0.96679 0.01768 0.57345 0.0
O125 O 0.99475 0.03121 0.54953 0.0
O126 O 0.96539 0.99702 0.70499 0.0
O127 O 0.98259 0.01345 0.7819 0.0
H128 H 0.01216 0.95033 0.95722 0.0
H129 H 0.02769 0.91852 0.94872 0.0
H130 H 0.08135 0.94571 0.8734 0.0
H131 H 0.06588 0.97764 0.88246 0.0
H132 H 0.97508 0.05814 0.41588 0.0
H133 H 0.96589 0.09243 0.42805 0.0
H134 H 0.94848 0.08234 0.67169 0.0
H135 H 0.95811 0.04829 0.65957 0.0
Ho136 Ho 0.50998 0.02239 0.7905 0.0
Ho137 Ho 0.49524 1.00249 0.63317 0.0
C138 C 0.54135 0.00733 0.65603 0.0
C139 C 0.53109 0.03059 0.91116 0.0
C140 C 0.55206 0.02624 0.91796 0.0
C141 C 0.55917 0.00802 0.89346 0.0
C142 C 0.57895 1.00531 0.87883 0.0
C143 C 0.59215 0.02072 0.88873 0.0
C144 C 0.5852 0.03863 0.91777 0.0
C145 C 0.5653 0.04137 0.93206 0.0
C146 C 0.49815 0.04678 0.67351 0.0
C147 C 0.46447 0.01547 0.77291 0.0
C148 C 0.47913 0.99542 0.49888 0.0
C149 C 0.46209 0.98326 0.48178 0.0
C150 C 0.44849 0.97937 0.54206 0.0
C151 C 0.43242 0.96757 0.52723 0.0
C152 C 0.42972 0.95918 0.45201 0.0
C153 C 0.44368 0.96273 0.39225 0.0
C154 C 0.45974 0.97471 0.40707 0.0
C155 C 0.49853 0.97554 0.75293 0.0
O156 O 0.53782 0.01286 0.72993 0.0
O157 O 0.52722 1.00391 0.60448 0.0
O158 O 0.52688 0.04342 0.85612 0.0
O159 O 0.51931 0.01556 0.91028 0.0
O160 O 0.49548 0.04987 0.74892 0.0
O161 O 0.50766 0.03114 0.66392 0.0
O162 O 0.46773 0.01233 0.69614 0.0
O163 O 0.47881 0.01759 0.82491 0.0
O164 O 0.49444 0.98587 0.52452 0.0
O165 O 0.47553 0.01126 0.53984 0.0
O166 O 0.49234 0.97156 0.68228 0.0
O167 O 0.50228 0.99341 0.75339 0.0
H168 H 0.54936 0.99616 0.88033 0.0
H169 H 0.58369 0.99141 0.85557 0.0
H170 H 0.59505 0.05067 0.92772 0.0
H171 H 0.56014 0.05561 0.94998 0.0
H172 H 0.45022 0.98558 0.60065 0.0
H173 H 0.42185 0.96547 0.57426 0.0
H174 H 0.44218 0.95629 0.33397 0.0
H175 H 0.4703 0.97728 0.36035 0.0
Ho176 Ho 0.4922 0.51748 0.7714 0.0
Ho177 Ho 0.51187 0.50495 0.62473 0.0
C178 C 0.5053 0.54984 0.63954 0.0
C179 C 0.48328 0.53755 0.8946 0.0
C180 C 0.48899 0.55789 0.90962 0.0
C181 C 0.50861 0.5635 0.9023 0.0
C182 C 0.51361 0.58311 0.89676 0.0
C183 C 0.49912 0.59758 0.89804 0.0
C184 C 0.47962 0.59202 0.91035 0.0
C185 C 0.47461 0.57234 0.91613 0.0
C186 C 0.4675 0.50637 0.65497 0.0
C187 C 0.49906 0.47223 0.75961 0.0
C188 C 0.5225 0.48634 0.49932 0.0
C189 C 0.52897 0.466 0.49015 0.0
C190 C 0.51804 0.45068 0.52305 0.0
C191 C 0.52532 0.43174 0.52308 0.0
C192 C 0.54362 0.42761 0.48966 0.0
C193 C 0.5544 0.44288 0.45529 0.0
C194 C 0.54712 0.46193 0.45563 0.0
C195 C 0.53683 0.51674 0.73903 0.0
O196 O 0.50336 0.54565 0.71597 0.0
O197 O 0.50606 0.53572 0.58673 0.0
O198 O 0.47138 0.53529 0.83484 0.0
O199 O 0.49738 0.52469 0.89456 0.0
O200 O 0.46496 0.50236 0.72967 0.0
O201 O 0.48263 0.51655 0.64625 0.0
O202 O 0.50517 0.47609 0.68645 0.0
O203 O 0.49407 0.4863 0.8087 0.0
O204 O 0.53429 0.49742 0.53974 0.0
O205 O 0.50422 0.48898 0.51894 0.0
O206 O 0.53898 0.52029 0.66389 0.0
O207 O 0.52183 0.50639 0.74987 0.0
H208 H 0.52007 0.55276 0.89588 0.0
H209 H 0.52873 0.58682 0.88657 0.0
H210 H 0.46816 0.60285 0.91343 0.0
H211 H 0.45939 0.56837 0.92128 0.0
H212 H 0.50406 0.45334 0.55084 0.0
H213 H 0.51674 0.42039 0.55104 0.0
H214 H 0.56841 0.44012 0.42794 0.0
H215 H 0.55584 0.47355 0.43034 0.0
Ho216 Ho 0.99695 0.50035 0.76048 0.0
Ho217 Ho 0.00801 0.52288 0.62233 0.0
C218 C 0.96351 0.51369 0.63275 0.0
C219 C 0.97854 0.48538 0.8796 0.0
C220 C 0.95807 0.47887 0.88538 0.0
C221 C 0.94271 0.49213 0.87371 0.0
C222 C 0.92363 0.48553 0.86627 0.0
C223 C 0.91943 0.46556 0.87057 0.0
C224 C 0.93458 0.45234 0.88639 0.0
C225 C 0.95378 0.45895 0.89349 0.0
C226 C 0.0084 0.47815 0.63583 0.0
C227 C 0.04141 0.50956 0.75075 0.0
C228 C 0.02593 0.53807 0.50235 0.0
C229 C 0.04603 0.54549 0.49632 0.0
C230 C 0.0618 0.53382 0.52026 0.0
C231 C 0.08035 0.54179 0.52771 0.0
C232 C 0.08359 0.56149 0.50993 0.0
C233 C 0.06809 0.57298 0.48196 0.0
C234 C 0.04937 0.56506 0.47585 0.0
C235 C 0.99604 0.54523 0.74529 0.0
O236 O 0.96768 0.50911 0.7073 0.0
O237 O 0.9776 0.51717 0.58145 0.0
O238 O 0.98953 0.47516 0.83214 0.0
O239 O 0.98141 0.50411 0.87123 0.0
O240 O 0.01362 0.47515 0.70874 0.0
O241 O 0.99737 0.49284 0.63225 0.0
O242 O 0.03727 0.51424 0.67623 0.0
O243 O 0.02732 0.5059 0.8018 0.0
O244 O 0.01455 0.54803 0.54917 0.0
O245 O 0.02391 0.51927 0.5123 0.0
O246 O 0.99105 0.54785 0.67195 0.0
O247 O 0.00728 0.53066 0.75067 0.0
H248 H 0.94544 0.5076 0.86742 0.0
H249 H 0.91213 0.49608 0.85617 0.0
H250 H 0.93167 0.43687 0.89076 0.0
H251 H 0.96535 0.44843 0.90254 0.0
H252 H 0.05974 0.51862 0.53531 0.0
H253 H 0.09222 0.53253 0.54733 0.0
H254 H 0.07036 0.58816 0.46694 0.0
H255 H 0.03742 0.57434 0.4574 0.0
C256 C 0.18498 0.01779 0.2619 0.0
C257 C 0.18568 1.00328 0.20334 0.0
C258 C 0.16803 0.02048 0.30753 0.0
C259 C 0.12307 0.99381 0.36886 0.0
H260 H 0.10624 0.04432 0.44472 0.0
C261 C 0.05054 1.00342 0.5397 0.0
C262 C 0.05137 0.01482 0.60871 0.0
C263 C 0.06618 1.00323 0.48601 0.0
C264 C 0.11081 0.03008 0.42432 0.0
H265 H 0.16908 0.98082 0.14446 0.0
H266 H 0.1395 0.98587 0.2214 0.0
H267 H 0.13494 0.04194 0.35924 0.0
H268 H 0.06889 0.03551 0.67403 0.0
H269 H 0.09608 0.03526 0.58041 0.0
H270 H 0.09898 0.98196 0.4337 0.0
C271 C 0.15206 0.99484 0.23429 0.0
C272 C 0.12733 0.02871 0.37544 0.0
C273 C 0.16898 0.99205 0.18949 0.0
C274 C 0.06784 0.02654 0.62141 0.0
C275 C 0.08339 0.02647 0.56751 0.0
C276 C 0.10653 0.99521 0.41716 0.0
C277 C 0.15142 0.00879 0.29522 0.0
C278 C 0.13372 0.01053 0.34698 0.0
C279 C 0.08293 0.01457 0.49975 0.0
C280 C 0.10018 0.01334 0.44574 0.0
H281 H 0.19768 0.02659 0.27433 0.0
H282 H 0.1682 0.03128 0.3542 0.0
H283 H 0.12772 0.97948 0.34997 0.0
H284 H 0.03803 0.99427 0.52819 0.0
H285 H 0.06521 0.99409 0.43392 0.0
C286 C 0.49543 0.18667 0.2049 0.0
C287 C 0.51477 0.19166 0.18624 0.0
C288 C 0.49147 0.17052 0.25419 0.0
C289 C 0.51215 0.14277 0.41775 0.0
H290 H 0.48063 0.09871 0.35372 0.0
C291 C 0.49135 0.08147 0.63682 0.0
C292 C 0.49638 0.06251 0.61296 0.0
C293 C 0.4916 0.09695 0.58256 0.0
C294 C 0.48943 0.11095 0.37232 0.0
H295 H 0.545 0.18372 0.20418 0.0
H296 H 0.53813 0.15616 0.29173 0.0
H297 H 0.4845 0.12677 0.26338 0.0
H298 H 0.50472 0.04479 0.51234 0.0
H299 H 0.50469 0.07195 0.41649 0.0
H300 H 0.51701 0.12722 0.5266 0.0
C301 C 0.52605 0.16448 0.26778 0.0
C302 C 0.49152 0.12702 0.32097 0.0
C303 C 0.52996 0.18024 0.2175 0.0
C304 C 0.50081 0.05924 0.53251 0.0
C305 C 0.50074 0.07476 0.47769 0.0
C306 C 0.50973 0.12697 0.46954 0.0
C307 C 0.5068 0.15944 0.28693 0.0
C308 C 0.50311 0.14299 0.3429 0.0
C309 C 0.49656 0.09387 0.50261 0.0
C310 C 0.4985 0.11078 0.44726 0.0
H311 H 0.48343 0.19519 0.1815 0.0
H312 H 0.47649 0.16696 0.26826 0.0
H313 H 0.52117 0.15487 0.43617 0.0
H314 H 0.4878 0.0845 0.69824 0.0
H315 H 0.48815 0.11146 0.60341 0.0
C316 C 0.32159 0.49844 0.22758 0.0
C317 C 0.32064 0.51379 0.17226 0.0
C318 C 0.3381 0.49605 0.276 0.0
C319 C 0.38113 0.52426 0.34918 0.0
H320 H 0.39865 0.47392 0.4262 0.0
C321 C 0.45314 0.51519 0.52265 0.0
C322 C 0.45194 0.50467 0.59428 0.0
C323 C 0.43768 0.515 0.46841 0.0
C324 C 0.39387 0.48808 0.40534 0.0
H325 H 0.33643 0.53809 0.12169 0.0
H326 H 0.36545 0.53344 0.20238 0.0
H327 H 0.37091 0.47582 0.33538 0.0
H328 H 0.43396 0.48506 0.66371 0.0
H329 H 0.40705 0.48446 0.56814 0.0
H330 H 0.4043 0.53644 0.41801 0.0
C331 C 0.35332 0.52362 0.21127 0.0
C332 C 0.37788 0.48921 0.35347 0.0
C333 C 0.33675 0.52618 0.16411 0.0
C334 C 0.43527 0.49336 0.60909 0.0
C335 C 0.4199 0.49295 0.55425 0.0
C336 C 0.39722 0.52309 0.39993 0.0
C337 C 0.35411 0.50883 0.26947 0.0
C338 C 0.37126 0.50734 0.32448 0.0
C339 C 0.42077 0.50407 0.48395 0.0
C340 C 0.4038 0.50502 0.42873 0.0
H341 H 0.30929 0.48877 0.23579 0.0
H342 H 0.33797 0.4846 0.32039 0.0
H343 H 0.37627 0.53856 0.33045 0.0
H344 H 0.46582 0.524 0.50941 0.0
H345 H 0.43889 0.52355 0.4144 0.0
C346 C 0.98547 0.34169 0.17613 0.0
C347 C 1.00018 0.32749 0.17662 0.0
C348 C 0.98771 0.3591 0.21791 0.0
C349 C 0.02412 0.38959 0.32888 0.0
H350 H 0.97722 0.41119 0.42237 0.0
C351 C 0.023 0.44746 0.58182 0.0
C352 C 0.00965 0.46289 0.57386 0.0
C353 C 0.02309 0.43205 0.52746 0.0
C354 C 0.99043 0.40547 0.396 0.0
H355 H 0.02893 0.32042 0.22093 0.0
H356 H 0.03266 0.35047 0.29671 0.0
H357 H 0.97509 0.38217 0.3409 0.0
H358 H 0.98622 0.47451 0.50158 0.0
H359 H 0.9861 0.44737 0.40753 0.0
H360 H 0.03944 0.41264 0.38797 0.0
C361 C 0.01954 0.34854 0.26203 0.0
C362 C 0.98924 0.38881 0.34865 0.0
C363 C 0.01743 0.33122 0.21867 0.0
C364 C 0.9967 0.46283 0.50925 0.0
C365 C 0.99656 0.44725 0.45568 0.0
C366 C 0.02533 0.40611 0.37753 0.0
C367 C 1.00456 0.36265 0.26335 0.0
C368 C 1.00604 0.3806 0.31383 0.0
C369 C 0.00961 0.43156 0.46467 0.0
C370 C 0.00847 0.41428 0.41138 0.0
H371 H 0.97204 0.3392 0.14396 0.0
H372 H 0.97604 0.3697 0.21496 0.0
H373 H 0.03738 0.38402 0.30258 0.0
H374 H 0.03317 0.44713 0.63099 0.0
H375 H 0.03325 0.42014 0.53628 0.0
C376 C 0.8262 1.00532 0.23049 0.0
C377 C 0.82203 0.98728 0.26644 0.0
C378 C 0.84305 0.00765 0.1838 0.0
C379 C 0.8788 0.97787 0.06973 0.0
H380 H 0.90783 0.02612 0.05495 0.0
C381 C 0.93541 0.99027 0.82208 0.0
C382 C 0.95252 1.00062 0.83925 0.0
C383 C 0.92027 0.98908 0.87748 0.0
C384 C 0.90002 0.01246 0.05892 0.0
H385 H 0.83255 0.95788 0.28452 0.0
H386 H 0.86205 0.96203 0.20603 0.0
H387 H 0.88048 0.02355 0.14759 0.0
H388 H 0.96723 0.01774 0.92865 0.0
H389 H 0.94084 0.01538 0.02665 0.0
H390 H 0.89843 0.96659 0.98274 0.0
C391 C 0.85219 0.97428 0.21145 0.0
C392 C 0.88414 0.01106 0.11143 0.0
C393 C 0.83535 0.97193 0.25723 0.0
C394 C 0.95422 0.00965 0.91373 0.0
C395 C 0.93901 0.00841 0.96958 0.0
C396 C 0.89464 0.97924 0.01768 0.0
C397 C 0.85612 0.99202 0.17241 0.0
C398 C 0.87327 0.99373 0.11751 0.0
C399 C 0.92179 0.99809 0.95216 0.0
C400 C 0.90542 0.99659 0.01087 0.0
H401 H 0.81614 0.0174 0.23596 0.0
H402 H 0.84544 0.02149 0.15434 0.0
H403 H 0.87069 0.96437 0.07139 0.0
H404 H 0.93357 0.98323 0.76512 0.0
H405 H 0.90718 0.98131 0.86096 0.0
C406 C 0.50214 0.83454 0.20642 0.0
C407 C 0.51844 0.83345 0.25663 0.0
C408 C 0.49898 0.85112 0.15874 0.0
C409 C 0.52562 0.89464 0.07699 0.0
H410 H 0.47388 0.91066 0.01188 0.0
C411 C 0.51122 0.96438 0.88658 0.0
C412 C 0.49946 0.96134 0.81959 0.0
C413 C 0.51287 0.94992 0.94568 0.0
C414 C 0.48844 0.90636 0.02956 0.0
H415 H 0.54374 0.84903 0.29861 0.0
H416 H 0.53779 0.87817 0.21949 0.0
H417 H 0.47771 0.88357 0.10487 0.0
H418 H 0.47982 0.94101 0.76295 0.0
H419 H 0.48229 0.91613 0.86637 0.0
H420 H 0.53624 0.9177 0.00228 0.0
C421 C 0.52775 0.86612 0.21392 0.0
C422 C 0.49067 0.89068 0.0826 0.0
C423 C 0.53107 0.84947 0.26028 0.0
C424 C 0.489 0.94381 0.81394 0.0
C425 C 0.49034 0.92957 0.87342 0.0
C426 C 0.52336 0.91048 0.02498 0.0
C427 C 0.5119 0.86711 0.16093 0.0
C428 C 0.50933 0.8844 0.10666 0.0
C429 C 0.50247 0.9323 0.9396 0.0
C430 C 0.50476 0.91641 0.99986 0.0
H431 H 0.49227 0.82232 0.20151 0.0
H432 H 0.48674 0.85105 0.11825 0.0
H433 H 0.54028 0.89014 0.09211 0.0
H434 H 0.51954 0.97764 0.8922 0.0
H435 H 0.52231 0.9525 0.99607 0.0
C436 C 0.68114 0.54863 0.15662 0.0
C437 C 0.68965 0.53179 0.18887 0.0
C438 C 0.66309 0.54778 0.11817 0.0
C439 C 0.62045 0.51483 0.07529 0.0
H440 H 0.61418 0.55038 0.89785 0.0
C441 C 0.55035 0.51525 0.87854 0.0
C442 C 0.55282 0.51937 0.79733 0.0
C443 C 0.56594 0.51747 0.9319 0.0
C444 C 0.61567 0.54012 0.94648 0.0
H445 H 0.68589 0.50079 0.20686 0.0
H446 H 0.65486 0.499 0.13652 0.0
H447 H 0.64312 0.55216 0.97853 0.0
H448 H 0.57361 0.52886 0.70838 0.0
H449 H 0.60071 0.53188 0.79931 0.0
H450 H 0.59343 0.50199 0.03929 0.0
C451 C 0.66167 0.5131 0.14309 0.0
C452 C 0.63225 0.54142 0.99431 0.0
C453 C 0.67956 0.51407 0.18335 0.0
C454 C 0.57114 0.5257 0.77068 0.0
C455 C 0.58672 0.52761 0.82338 0.0
C456 C 0.60394 0.51331 0.02638 0.0
C457 C 0.65328 0.52992 0.1086 0.0
C458 C 0.63502 0.52877 0.05949 0.0
C459 C 0.58443 0.52364 0.90501 0.0
C460 C 0.60139 0.52582 0.96061 0.0
H461 H 0.68858 0.5625 0.1604 0.0
H462 H 0.65701 0.56121 0.0951 0.0
H463 H 0.62174 0.50499 0.1254 0.0
H464 H 0.53638 0.51036 0.90083 0.0
H465 H 0.56343 0.51448 0.99425 0.0
C466 C 1.0014 0.68812 0.19416 0.0
C467 C 0.99141 0.70375 0.15837 0.0
C468 C 1.00195 0.66976 0.15723 0.0
C469 C 0.99592 0.64788 0.95684 0.0
H470 H 0.99279 0.5985 0.06868 0.0
C471 C 0.98257 0.57728 0.78713 0.0
C472 C 0.99436 0.56109 0.80464 0.0
C473 C 0.98236 0.59353 0.83672 0.0
C474 C 0.99386 0.61218 0.03676 0.0
H475 H 0.97357 0.71225 0.05813 0.0
H476 H 0.97403 0.68045 0.99526 0.0
H477 H 0.99205 0.62907 0.14379 0.0
H478 H 0.01453 0.54887 0.89036 0.0
H479 H 0.01412 0.57747 0.97806 0.0
H480 H 0.99752 0.63122 0.85008 0.0
C481 C 0.98191 0.68228 0.05044 0.0
C482 C 0.99346 0.62971 0.07977 0.0
C483 C 0.98147 0.70051 0.08689 0.0
C484 C 1.00531 0.56115 0.87528 0.0
C485 C 1.00505 0.57751 0.92546 0.0
C486 C 0.99622 0.63048 0.91416 0.0
C487 C 0.99252 0.66673 0.08389 0.0
C488 C 0.99412 0.64783 0.04013 0.0
C489 C 0.99393 0.5941 0.90555 0.0
C490 C 0.99486 0.6124 0.95322 0.0
H491 H 0.00929 0.6902 0.24912 0.0
H492 H 0.01031 0.65817 0.1847 0.0
H493 H 0.99709 0.66145 0.92416 0.0
H494 H 0.97379 0.57764 0.73367 0.0
H495 H 0.9733 0.60584 0.82042 0.0
C496 C 0.00884 0.22658 0.3451 0.0
C497 C 0.99808 0.24197 0.31216 0.0
C498 C 1.0022 0.21699 0.41289 0.0
C499 C 0.98604 0.19727 0.55686 0.0
H500 H 0.93312 0.18218 0.50641 0.0
C501 C 0.96062 0.12067 0.63039 0.0
C502 C 0.95365 0.11137 0.56174 0.0
C503 C 0.96126 0.14099 0.63442 0.0
C504 C 0.94782 0.18634 0.5222 0.0
H505 H 0.97307 0.26081 0.32805 0.0
H506 H 0.96132 0.24398 0.44748 0.0
H507 H 0.94612 0.21233 0.45278 0.0
H508 H 0.94003 0.11603 0.44717 0.0
H509 H 0.94163 0.15126 0.45276 0.0
H510 H 0.98847 0.1702 0.61871 0.0
C511 C 0.97481 0.2392 0.4204 0.0
C512 C 0.95524 0.20381 0.49229 0.0
C513 C 0.98156 0.24888 0.3524 0.0
C514 C 0.94584 0.12277 0.50016 0.0
C515 C 0.94649 0.14303 0.50409 0.0
C516 C 0.9787 0.17967 0.58597 0.0
C517 C 0.98457 0.22256 0.44908 0.0
C518 C 0.97488 0.20873 0.5045 0.0
C519 C 0.95492 0.15239 0.56989 0.0
C520 C 0.95998 0.17339 0.56402 0.0
H521 H 0.02176 0.22115 0.31541 0.0
H522 H 0.01006 0.20415 0.43244 0.0
H523 H 1.00107 0.20094 0.5692 0.0
H524 H 0.9667 0.11231 0.67907 0.0
H525 H 0.96763 0.14772 0.68634 0.0
C526 C 0.27492 0.96633 0.3336 0.0
C527 C 0.26795 0.96045 0.2594 0.0
C528 C 0.28806 0.95458 0.37514 0.0
C529 C 0.32664 0.92189 0.30984 0.0
H530 H 0.34541 0.9342 0.52061 0.0
C531 C 0.40197 0.95075 0.36231 0.0
C532 C 0.41167 0.94803 0.43489 0.0
C533 C 0.38366 0.94259 0.34987 0.0
C534 C 0.34037 0.93008 0.4621 0.0
H535 H 0.26668 0.93681 0.17527 0.0
H536 H 0.28869 0.91562 0.25005 0.0
H537 H 0.31063 0.93543 0.49328 0.0
H538 H 0.41033 0.93332 0.5492 0.0
H539 H 0.37803 0.91933 0.52775 0.0
H540 H 0.3564 0.91711 0.27818 0.0
C541 C 0.28478 0.92959 0.27503 0.0
C542 C 0.3204 0.93101 0.44613 0.0
C543 C 0.27196 0.94157 0.2326 0.0
C544 C 0.40306 0.93602 0.49314 0.0
C545 C 0.38462 0.92792 0.48082 0.0
C546 C 0.34651 0.9207 0.32611 0.0
C547 C 0.29431 0.93668 0.34311 0.0
C548 C 0.31346 0.92841 0.36821 0.0
C549 C 0.37453 0.93153 0.40972 0.0
C550 C 0.3537 0.92621 0.40068 0.0
H551 H 0.27208 0.98094 0.35483 0.0
H552 H 0.29493 0.96069 0.42719 0.0
H553 H 0.32207 0.91962 0.24907 0.0
H554 H 0.40797 0.96013 0.31659 0.0
H555 H 0.37617 0.94603 0.29497 0.0
C556 C 0.55209 0.26879 0.30546 0.0
C557 C 0.55281 0.27501 0.22583 0.0
C558 C 0.56226 0.27897 0.36398 0.0
C559 C 0.59012 0.32612 0.39137 0.0
H560 H 0.548 0.33499 0.54009 0.0
C561 C 0.57088 0.40316 0.50367 0.0
C562 C 0.55109 0.40731 0.48957 0.0
C563 C 0.57769 0.38392 0.50188 0.0
C564 C 0.56006 0.33265 0.49968 0.0
H565 H 0.56756 0.2943 0.14336 0.0
H566 H 0.58394 0.31284 0.2443 0.0
H567 H 0.55114 0.30363 0.478 0.0
H568 H 0.52303 0.39453 0.46198 0.0
H569 H 0.53474 0.36135 0.45895 0.0
H570 H 0.59734 0.35619 0.40657 0.0
C571 C 0.5758 0.30016 0.26316 0.0
C572 C 0.56211 0.31445 0.46444 0.0
C573 C 0.56606 0.2897 0.20469 0.0
C574 C 0.53826 0.39186 0.47483 0.0
C575 C 0.545 0.37276 0.47353 0.0
C576 C 0.58779 0.34451 0.4255 0.0
C577 C 0.57279 0.29591 0.34422 0.0
C578 C 0.57613 0.31145 0.40452 0.0
C579 C 0.56478 0.36853 0.48659 0.0
C580 C 0.57175 0.34829 0.47495 0.0
H581 H 0.54231 0.25727 0.32392 0.0
H582 H 0.56032 0.27463 0.42538 0.0
H583 H 0.60172 0.32409 0.3486 0.0
H584 H 0.58109 0.41476 0.51617 0.0
H585 H 0.59302 0.38109 0.51185 0.0
C586 C 0.24089 0.55529 0.30614 0.0
C587 C 0.23678 0.53581 0.28812 0.0
C588 C 0.23106 0.56451 0.36855 0.0
C589 C 0.1938 0.5552 0.52816 0.0
H590 H 0.16874 0.60035 0.4345 0.0
C591 C 0.11394 0.56681 0.58851 0.0
C592 C 0.10341 0.56952 0.51786 0.0
C593 C 0.13384 0.57097 0.5912 0.0
C594 C 0.17558 0.5878 0.46195 0.0
H595 H 0.2208 0.51012 0.32353 0.0
H596 H 0.20357 0.52591 0.431 0.0
H597 H 0.20022 0.58991 0.38517 0.0
H598 H 0.10481 0.57998 0.39672 0.0
H599 H 0.13952 0.58629 0.39928 0.0
H600 H 0.16819 0.55148 0.59757 0.0
C601 C 0.21442 0.53427 0.39903 0.0
C602 C 0.19389 0.58198 0.43453 0.0
C603 C 0.22414 0.52518 0.33688 0.0
C604 C 0.11267 0.57783 0.45187 0.0
C605 C 0.13263 0.5816 0.45391 0.0
C606 C 0.17531 0.56072 0.55419 0.0
C607 C 0.21704 0.55429 0.4134 0.0
C608 C 0.20245 0.56469 0.46301 0.0
C609 C 0.14368 0.5774 0.52254 0.0
C610 C 0.16533 0.57619 0.51689 0.0
H611 H 0.25064 0.56369 0.26876 0.0
H612 H 0.23357 0.57987 0.37857 0.0
H613 H 0.20037 0.54224 0.55349 0.0
H614 H 0.10694 0.56066 0.64059 0.0
H615 H 0.14168 0.56806 0.64577 0.0
C616 C 0.06986 0.77923 0.17715 0.0
C617 C 0.05074 0.77375 0.15855 0.0
C618 C 0.08073 0.79035 0.1235 0.0
C619 C 0.07716 0.8168 0.92727 0.0
H620 H 0.09257 0.8603 0.05873 0.0
C621 C 0.05417 0.89454 0.86975 0.0
C622 C 0.06472 0.9101 0.90224 0.0
C623 C 0.0612 0.87553 0.87573 0.0
C624 C 0.08895 0.84826 0.02013 0.0
H625 H 0.02862 0.77366 0.06715 0.0
H626 H 0.04705 0.79371 0.97492 0.0
H627 H 0.08978 0.82846 0.11725 0.0
H628 H 0.09181 0.91822 0.95917 0.0
H629 H 0.10424 0.88497 0.96892 0.0
H630 H 0.07478 0.83736 0.83157 0.0
C631 C 0.05407 0.78917 0.02949 0.0
C632 C 0.08735 0.82979 0.05393 0.0
C633 C 0.04339 0.77772 0.08254 0.0
C634 C 0.08329 0.9065 0.93413 0.0
C635 C 0.09037 0.88745 0.93997 0.0
C636 C 0.07867 0.83538 0.89343 0.0
C637 C 0.07238 0.79667 0.05147 0.0
C638 C 0.08026 0.81406 0.00921 0.0
C639 C 0.07898 0.87167 0.91425 0.0
C640 C 0.08344 0.8515 0.94083 0.0
H641 H 0.07585 0.77611 0.23538 0.0
H642 H 0.09501 0.79537 0.14138 0.0
H643 H 0.07219 0.80489 0.89053 0.0
H644 H 0.04001 0.89697 0.84299 0.0
H645 H 0.05196 0.86378 0.85558 0.0
C646 C 0.73033 0.97866 0.07383 0.0
C647 C 0.7431 0.99264 0.10444 0.0
C648 C 0.72197 0.98131 0.99918 0.0
C649 C 0.70385 0.02328 0.89817 0.0
H650 H 0.67605 0.98288 0.78537 0.0
C651 C 0.62354 0.03325 0.83049 0.0
C652 C 0.61297 0.01812 0.86704 0.0
C653 C 0.64335 0.03094 0.81337 0.0
C654 C 0.68386 0.99446 0.81498 0.0
H655 H 0.75912 0.01903 0.078 0.0
H656 H 0.74436 0.0238 0.94702 0.0
H657 H 0.70851 0.97617 0.83799 0.0
H658 H 0.61484 0.98847 0.91157 0.0
H659 H 0.64913 0.98453 0.88264 0.0
H660 H 0.6786 0.04096 0.88211 0.0
C661 C 0.74071 0.01085 0.98083 0.0
C662 C 0.70245 0.99064 0.84495 0.0
C663 C 0.74918 0.00811 0.05562 0.0
C664 C 0.62243 1.00036 0.88269 0.0
C665 C 0.64213 0.99804 0.86535 0.0
C666 C 0.6853 0.0271 0.86819 0.0
C667 C 0.72611 0.99812 0.95408 0.0
C668 C 0.71185 1.00445 0.8929 0.0
C669 C 0.65295 0.01345 0.83236 0.0
C670 C 0.67451 0.01217 0.83241 0.0
H671 H 0.72564 0.96648 0.11022 0.0
H672 H 0.71074 0.97121 0.98102 0.0
H673 H 0.71067 0.03435 0.93428 0.0
H674 H 0.61656 0.04694 0.81559 0.0
H675 H 0.6513 0.04304 0.78766 0.0
C676 C 0.51881 0.7575 0.05319 0.0
C677 C 0.53175 0.75178 0.11361 0.0
C678 C 0.51872 0.74768 0.98062 0.0
C679 C 0.54123 0.70486 0.87613 0.0
H680 H 0.4879 0.68646 0.88147 0.0
C681 C 0.52162 0.62598 0.91406 0.0
C682 C 0.50432 0.61824 0.88298 0.0
C683 C 0.52654 0.64539 0.90045 0.0
C684 C 0.50277 0.69158 0.87669 0.0
H685 H 0.55671 0.73372 0.14148 0.0
H686 H 0.5563 0.71627 0.01681 0.0
H687 H 0.49527 0.71873 0.92881 0.0
H688 H 0.4791 0.62464 0.80957 0.0
H689 H 0.48747 0.65883 0.78772 0.0
H690 H 0.54879 0.67673 0.83089 0.0
C691 C 0.54618 0.72824 0.02417 0.0
C692 C 0.50705 0.71025 0.90375 0.0
C693 C 0.54631 0.73808 0.09636 0.0
C694 C 0.49228 0.63029 0.83616 0.0
C695 C 0.49719 0.64977 0.82265 0.0
C696 C 0.53694 0.68611 0.84941 0.0
C697 C 0.53145 0.73192 0.9679 0.0
C698 C 0.52652 0.7165 0.90962 0.0
C699 C 0.51424 0.65759 0.8557 0.0
C700 C 0.51786 0.67885 0.8551 0.0
H701 H 0.50751 0.76815 0.06464 0.0
H702 H 0.50749 0.75118 0.93769 0.0
H703 H 0.55631 0.70948 0.87769 0.0
H704 H 0.53111 0.61721 0.95116 0.0
H705 H 0.53951 0.65107 0.92856 0.0
C706 C 0.76145 0.48607 0.04376 0.0
C707 C 0.76501 0.47962 0.12163 0.0
C708 C 0.77118 0.4774 0.97992 0.0
C709 C 0.80856 0.43908 0.93087 0.0
H710 H 0.83497 0.48331 0.83651 0.0
C711 C 0.88772 0.46646 0.79765 0.0
C712 C 0.89913 0.45887 0.85981 0.0
C713 C 0.86771 0.46294 0.7952 0.0
C714 C 0.82759 0.47059 0.85994 0.0
H715 H 0.77919 0.45754 0.19332 0.0
H716 H 0.79642 0.44273 0.08341 0.0
H717 H 0.8032 0.48772 0.89455 0.0
H718 H 0.89898 0.44031 0.96406 0.0
H719 H 0.86402 0.43446 0.96119 0.0
H720 H 0.83398 0.4224 0.90178 0.0
C721 C 0.78619 0.45433 0.0703 0.0
C722 C 0.80918 0.47312 0.89332 0.0
C723 C 0.77648 0.46295 0.13376 0.0
C724 C 0.8905 0.44634 0.91559 0.0
C725 C 0.87046 0.4429 0.91346 0.0
C726 C 0.82708 0.43656 0.89771 0.0
C727 C 0.78463 0.46223 0.99331 0.0
C728 C 0.80003 0.45771 0.93394 0.0
C729 C 0.85872 0.45186 0.85524 0.0
C730 C 0.83727 0.4526 0.86644 0.0
H731 H 0.75255 0.49885 0.0329 0.0
H732 H 0.76935 0.48357 0.92108 0.0
H733 H 0.80166 0.42678 0.95982 0.0
H734 H 0.89416 0.47579 0.75278 0.0
H735 H 0.85913 0.46976 0.74879 0.0
C736 C 0.02466 0.21655 0.00276 0.0
C737 C 0.00743 0.22543 0.02959 0.0
C738 C 0.02398 0.19859 0.96297 0.0
C739 C 0.99322 0.15485 0.95895 0.0
H740 H 0.02567 0.13835 0.78307 0.0
C741 C 1.00432 0.07352 0.88256 0.0
C742 C 1.0034 0.06819 0.80209 0.0
C743 C 1.0047 0.09318 0.90465 0.0
C744 C 0.01643 0.14276 0.832 0.0
H745 H 0.97605 0.223 0.03327 0.0
H746 H 0.97477 0.19197 0.96298 0.0
H747 H 0.02639 0.17243 0.82631 0.0
H748 H 1.00227 0.07957 0.68165 0.0
H749 H 1.00328 0.11383 0.72036 0.0
H750 H 0.9834 0.1253 0.96557 0.0
C751 C 0.98882 0.1987 0.97281 0.0
C752 C 0.01695 0.16226 0.85707 0.0
C753 C 0.98951 0.2166 0.01207 0.0
C754 C 1.00302 0.08308 0.74424 0.0
C755 C 1.00368 0.10276 0.76636 0.0
C756 C 0.99289 0.13539 0.93462 0.0
C757 C 1.00606 0.18909 0.95029 0.0
C758 C 1.00532 0.16856 0.92092 0.0
C759 C 1.00439 0.10808 0.84691 0.0
C760 C 1.00454 0.12902 0.87108 0.0
H761 H 0.03867 0.22283 0.01721 0.0
H762 H 0.03754 0.19156 0.94684 0.0
H763 H 0.98425 0.15908 0.00895 0.0
H764 H 1.00464 0.06249 0.92875 0.0
H765 H 1.00546 0.09672 0.96721 0.0
C766 C 0.29692 0.99077 0.99467 0.0
C767 C 0.28807 1.00468 0.04402 0.0
C768 C 0.31462 0.99467 0.95679 0.0
C769 C 0.35841 0.02582 0.9777 0.0
H770 H 0.37283 1.00078 0.78033 0.0
C771 C 0.43924 0.01652 0.88214 0.0
C772 C 0.44386 0.01674 0.8007 0.0
C773 C 0.41978 0.01707 0.90767 0.0
C774 C 0.36911 0.00815 0.83499 0.0
H775 H 0.29038 0.03404 0.08896 0.0
H776 H 0.32119 0.04123 0.02067 0.0
H777 H 0.33929 0.9995 0.82551 0.0
H778 H 0.43142 0.0182 0.68237 0.0
H779 H 0.39775 0.01971 0.72654 0.0
H780 H 0.3882 0.03482 0.98622 0.0
C781 C 0.31458 0.02707 0.0125 0.0
C782 C 0.34979 0.00719 0.8616 0.0
C783 C 0.29676 0.02311 0.05064 0.0
C784 C 0.42849 0.01785 0.74559 0.0
C785 C 0.40907 0.01859 0.77107 0.0
C786 C 0.37774 0.02692 0.95074 0.0
C787 C 0.32405 0.01268 0.96681 0.0
C788 C 0.34418 0.01569 0.9341 0.0
C789 C 0.40435 0.01802 0.85251 0.0
C790 C 0.38348 0.01784 0.87951 0.0
H791 H 0.29063 0.97638 0.98884 0.0
H792 H 0.32139 0.98308 0.92322 0.0
H793 H 0.3548 0.0324 0.03416 0.0
H794 H 0.45066 0.01556 0.92637 0.0
H795 H 0.41686 0.01628 0.9708 0.0
C796 C 0.49141 0.3073 0.05957 0.0
C797 C 0.50417 0.29403 0.02327 0.0
C798 C 0.48799 0.32568 0.02553 0.0
C799 C 0.49534 0.35621 0.84292 0.0
H800 H 0.49767 0.39852 0.9943 0.0
C801 C 0.50732 0.43661 0.74419 0.0
C802 C 0.49806 0.45153 0.78716 0.0
C803 C 0.50655 0.41718 0.77023 0.0
C804 C 0.49666 0.38696 0.95097 0.0
H805 H 0.52301 0.2894 0.9222 0.0
H806 H 0.51684 0.3213 0.86172 0.0
H807 H 0.49776 0.36502 0.0416 0.0
H808 H 0.48055 0.45748 0.89147 0.0
H809 H 0.47893 0.4237 0.93626 0.0
H810 H 0.49437 0.3782 0.75219 0.0
C811 C 0.5092 0.3175 0.91587 0.0
C812 C 0.4967 0.36763 0.97827 0.0
C813 C 0.51265 0.29913 0.95013 0.0
C814 C 0.48796 0.44644 0.85695 0.0
C815 C 0.48711 0.427 0.88289 0.0
C816 C 0.49522 0.37557 0.81555 0.0
C817 C 0.49737 0.33132 0.95457 0.0
C818 C 0.49614 0.35194 0.92475 0.0
C819 C 0.49646 0.41203 0.84015 0.0
C820 C 0.496 0.39129 0.86914 0.0
H821 H 0.48509 0.30393 0.11699 0.0
H822 H 0.47856 0.33577 0.05653 0.0
H823 H 0.4947 0.34456 0.79984 0.0
H824 H 0.51552 0.43998 0.69102 0.0
H825 H 0.51426 0.40626 0.73622 0.0
C826 C 0.20829 0.52773 0.99378 0.0
C827 C 0.21785 0.51122 0.02439 0.0
C828 C 0.19068 0.52597 0.95272 0.0
C829 C 0.14808 0.49344 0.94069 0.0
H830 H 0.13252 0.52866 0.77157 0.0
C831 C 0.06695 0.5058 0.85755 0.0
C832 C 0.06215 0.50851 0.77701 0.0
C833 C 0.08647 0.50493 0.88202 0.0
C834 C 0.13661 0.51855 0.81823 0.0
H835 H 0.21682 0.47983 0.03373 0.0
H836 H 0.18603 0.47659 0.96064 0.0
H837 H 0.16618 0.5285 0.81745 0.0
H838 H 0.07438 0.51196 0.65923 0.0
H839 H 0.10824 0.51052 0.70136 0.0
H840 H 0.11852 0.48344 0.94131 0.0
C841 C 0.19213 0.49097 0.96888 0.0
C842 C 0.15594 0.51859 0.84511 0.0
C843 C 0.2099 0.49276 0.00969 0.0
C844 C 0.07744 0.51018 0.7217 0.0
C845 C 0.09694 0.50936 0.74606 0.0
C846 C 0.12873 0.49342 0.91389 0.0
C847 C 0.18202 0.50762 0.94166 0.0
C848 C 0.16192 0.50621 0.90746 0.0
C849 C 0.10178 0.50674 0.82664 0.0
C850 C 0.12264 0.50614 0.85291 0.0
H851 H 0.21398 0.54216 0.0053 0.0
H852 H 0.18333 0.53915 0.93368 0.0
H853 H 0.15201 0.48384 0.98933 0.0
H854 H 0.05562 0.50449 0.90204 0.0
H855 H 0.08955 0.50318 0.94472 0.0
C856 C 0.99577 0.79996 0.4078 0.0
C857 C 0.01469 0.7923 0.40074 0.0
C858 C 0.99252 0.81755 0.44821 0.0
C859 C 0.01649 0.85448 0.581 0.0
H860 H 0.98107 0.89035 0.47667 0.0
C861 C 1.00418 0.93306 0.69876 0.0
C862 C 1.00154 0.94806 0.64249 0.0
C863 C 1.00443 0.91346 0.67548 0.0
C864 C 0.99116 0.88062 0.50637 0.0
H865 H 0.04476 0.7964 0.43559 0.0
H866 H 0.03925 0.82688 0.50481 0.0
H867 H 0.98378 0.85706 0.42922 0.0
H868 H 0.99725 0.95403 0.51717 0.0
H869 H 0.99811 0.92006 0.47638 0.0
H870 H 0.02457 0.87829 0.65569 0.0
C871 C 0.02679 0.81944 0.47989 0.0
C872 C 0.99247 0.86132 0.47988 0.0
C873 C 0.03001 0.80192 0.43976 0.0
C874 C 0.99919 0.94291 0.56231 0.0
C875 C 0.99954 0.92332 0.53895 0.0
C876 C 0.01527 0.87382 0.60721 0.0
C877 C 0.0081 0.8279 0.48267 0.0
C878 C 1.00534 0.84798 0.51607 0.0
C879 C 1.00214 0.90825 0.59512 0.0
C880 C 1.00276 0.88729 0.56968 0.0
H881 H 0.98368 0.79301 0.37795 0.0
H882 H 0.97784 0.82333 0.45033 0.0
H883 H 0.02638 0.84468 0.61138 0.0
H884 H 1.00601 0.93641 0.76112 0.0
H885 H 0.00621 0.90238 0.72088 0.0
C886 C 0.70264 0.97975 0.36576 0.0
C887 C 0.71758 0.99325 0.381 0.0
C888 C 0.68492 0.98056 0.40654 0.0
C889 C 0.65383 0.01476 0.52311 0.0
H890 H 0.62198 0.96855 0.54849 0.0
C891 C 0.57688 0.01554 0.67101 0.0
C892 C 0.56208 1.00544 0.63053 0.0
C893 C 0.59643 0.01387 0.64759 0.0
C894 C 0.63064 0.98162 0.54144 0.0
H895 H 0.72585 0.01751 0.45534 0.0
H896 H 0.69506 0.01851 0.52928 0.0
H897 H 0.65545 0.96544 0.50234 0.0
H898 H 0.55638 0.98562 0.53358 0.0
H899 H 0.59055 0.98243 0.49357 0.0
H900 H 0.62892 0.03083 0.56396 0.0
C901 C 0.69688 0.00761 0.48361 0.0
C902 C 0.6499 0.97988 0.51463 0.0
C903 C 0.71469 0.00688 0.44204 0.0
C904 C 0.56737 0.9936 0.56607 0.0
C905 C 0.58698 0.99167 0.5435 0.0
C906 C 0.63462 0.01647 0.55115 0.0
C907 C 0.68152 0.99472 0.4652 0.0
C908 C 0.66171 0.99645 0.50307 0.0
C909 C 0.60177 1.00182 0.58386 0.0
C910 C 0.62263 0.99995 0.55902 0.0
H911 H 0.7044 0.96885 0.31996 0.0
H912 H 0.6736 0.97048 0.38928 0.0
H913 H 0.66221 0.02794 0.51442 0.0
H914 H 0.57335 0.02497 0.72036 0.0
H915 H 0.60741 0.02187 0.67989 0.0
C916 C 0.53493 0.71742 0.40018 0.0
C917 C 0.5183 0.72902 0.38776 0.0
C918 C 0.5335 0.69912 0.43655 0.0
C919 C 0.5013 0.66572 0.5526 0.0
H920 H 0.53147 0.62587 0.4455 0.0
C921 C 0.50617 0.5858 0.66963 0.0
C922 C 0.50658 0.57065 0.61358 0.0
C923 C 0.50739 0.60537 0.64567 0.0
C924 C 0.5228 0.63672 0.47591 0.0
H925 H 0.48722 0.73084 0.40739 0.0
H926 H 0.48463 0.69874 0.47168 0.0
H927 H 0.53379 0.65955 0.40169 0.0
H928 H 0.50831 0.56446 0.48762 0.0
H929 H 0.51008 0.59847 0.44575 0.0
H930 H 0.49006 0.64268 0.62602 0.0
C931 C 0.49886 0.7039 0.45362 0.0
C932 C 0.52434 0.65618 0.45141 0.0
C933 C 0.50032 0.72236 0.41716 0.0
C934 C 0.50808 0.57566 0.53268 0.0
C935 C 0.5092 0.59524 0.50866 0.0
C936 C 0.49982 0.64618 0.57745 0.0
C937 C 0.51535 0.69174 0.46124 0.0
C938 C 0.51365 0.67101 0.48929 0.0
C939 C 0.50892 0.61042 0.56481 0.0
C940 C 0.5105 0.63136 0.53919 0.0
H941 H 0.54899 0.72216 0.37814 0.0
H942 H 0.54661 0.69046 0.44307 0.0
H943 H 0.49291 0.6767 0.58352 0.0
H944 H 0.50497 0.58257 0.73231 0.0
H945 H 0.5075 0.61653 0.69074 0.0
C946 C 0.80357 0.52485 0.31893 0.0
C947 C 0.78752 0.51612 0.35663 0.0
C948 C 0.82129 0.52703 0.35861 0.0
C949 C 0.84964 0.50516 0.52382 0.0
H950 H 0.88564 0.54681 0.47223 0.0
C951 C 0.92755 0.51001 0.65939 0.0
C952 C 0.94275 0.51494 0.60693 0.0
C953 C 0.90802 0.51133 0.63559 0.0
C954 C 0.87582 0.53499 0.4869 0.0
H955 H 0.77719 0.50356 0.46683 0.0
H956 H 0.80818 0.50777 0.53774 0.0
H957 H 0.85226 0.54831 0.42363 0.0
H958 H 0.94913 0.52518 0.48768 0.0
H959 H 0.91515 0.52743 0.4461 0.0
H960 H 0.87334 0.49188 0.5872 0.0
C961 C 0.80712 0.5127 0.47672 0.0
C962 C 0.85662 0.53584 0.459 0.0
C963 C 0.78927 0.51054 0.43667 0.0
C964 C 0.93787 0.52126 0.52986 0.0
C965 C 0.91833 0.52268 0.50614 0.0
C966 C 0.86885 0.50439 0.55229 0.0
C967 C 0.82356 0.52052 0.43749 0.0
C968 C 0.84332 0.52075 0.47556 0.0
C969 C 0.90313 0.51773 0.55866 0.0
C970 C 0.88231 0.51911 0.53288 0.0
H971 H 0.80267 0.52911 0.25697 0.0
H972 H 0.83352 0.53286 0.32564 0.0
H973 H 0.84 0.49311 0.53715 0.0
H974 H 0.93073 0.50516 0.71908 0.0
H975 H 0.89673 0.50762 0.67793 0.0
loop_
_geom_bond_atom_site_label_1
_geom_bond_atom_site_label_2
_geom_bond_distance
_geom_bond_site_symmetry_2
_ccdc_geom_bond_type
H0 C5 0.930 . S
H1 C8 0.930 . S
H2 C10 0.930 . S
H3 C4 1.016 . S
C4 H3 1.016 . S
C4 N11 1.286 . S
C5 H0 0.930 . S
C5 C6 1.397 . S
C5 C7 1.361 . S
C6 C5 1.397 . S
C6 C10 1.390 . S
C7 C5 1.361 . S
C7 C8 1.393 . S
C7 N11 1.413 . S
C8 H1 0.930 . S
C8 C7 1.393 . S
C8 C9 1.399 . S
C9 C8 1.399 . S
C9 C10 1.381 . S
C10 H2 0.930 . S
C10 C6 1.390 . S
C10 C9 1.381 . S
N11 C4 1.286 . S
N11 C7 1.413 . S
H12 C17 0.930 . S
H13 C20 0.930 . S
H14 C22 0.930 . S
H15 C16 1.036 . S
C16 H15 1.036 . S
C16 N23 1.261 1_655 S
C17 H12 0.930 . S
C17 C18 1.403 . S
C17 C19 1.361 . S
C18 C17 1.403 . S
C18 C22 1.387 1_455 S
C19 C17 1.361 . S
C19 C20 1.393 . S
C19 N23 1.413 . S
C20 H13 0.930 . S
C20 C19 1.393 . S
C20 C21 1.399 . S
C21 C20 1.399 . S
C21 C22 1.381 1_455 S
C22 H14 0.930 . S
C22 C18 1.387 1_655 S
C22 C21 1.381 1_655 S
N23 C16 1.261 1_455 S
N23 C19 1.413 . S
H24 C29 0.930 . S
H25 C32 0.930 . S
H26 C34 0.930 . S
H27 C28 1.034 . S
C28 H27 1.034 . S
C28 N35 1.262 1_565 S
C29 H24 0.930 . S
C29 C30 1.403 . S
C29 C31 1.361 . S
C30 C29 1.403 . S
C30 C34 1.386 1_545 S
C31 C29 1.361 . S
C31 C32 1.393 . S
C31 N35 1.413 . S
C32 H25 0.930 . S
C32 C31 1.393 . S
C32 C33 1.399 . S
C33 C32 1.399 . S
C33 C34 1.381 1_545 S
C34 H26 0.930 . S
C34 C30 1.386 1_565 S
C34 C33 1.381 1_565 S
N35 C28 1.262 1_545 S
N35 C31 1.413 . S
H36 C41 0.930 . S
H37 C44 0.930 . S
H38 C46 0.930 . S
H39 C40 1.016 . S
C40 H39 1.016 . S
C40 N47 1.286 . S
C41 H36 0.930 . S
C41 C42 1.397 . S
C41 C43 1.361 . S
C42 C41 1.397 . S
C42 C46 1.390 . S
C43 C41 1.361 . S
C43 C44 1.393 . S
C43 N47 1.413 . S
C44 H37 0.930 . S
C44 C43 1.393 . S
C44 C45 1.399 . S
C45 C44 1.399 . S
C45 C46 1.381 . S
C46 H38 0.930 . S
C46 C42 1.390 . S
C46 C45 1.381 . S
N47 C40 1.286 . S
N47 C43 1.413 . S
H48 C53 0.930 . S
H49 C56 0.930 . S
H50 C58 0.929 1_556 S
H51 C52 1.016 . S
C52 H51 1.016 . S
C52 N59 1.286 . S
C53 H48 0.930 . S
C53 C54 1.397 . S
C53 C55 1.361 1_556 S
C54 C53 1.397 . S
C54 C58 1.390 1_556 S
C55 C53 1.361 1_554 S
C55 C56 1.393 . S
C55 N59 1.413 . S
C56 H49 0.930 . S
C56 C55 1.393 . S
C56 C57 1.399 . S
C57 C56 1.399 . S
C57 C58 1.381 . S
C58 H50 0.929 1_554 S
C58 C54 1.390 1_554 S
C58 C57 1.381 . S
N59 C52 1.286 . S
N59 C55 1.413 . S
H60 C65 0.930 . S
H61 C68 0.930 . S
H62 C70 0.931 1_656 S
H63 C64 1.006 1_655 S
C64 H63 1.006 1_455 S
C64 N71 1.286 . S
C65 H60 0.930 . S
C65 C66 1.397 . S
C65 C67 1.361 1_556 S
C66 C65 1.397 . S
C66 C70 1.390 1_556 S
C67 C65 1.361 1_554 S
C67 C68 1.393 . S
C67 N71 1.413 . S
C68 H61 0.930 . S
C68 C67 1.393 . S
C68 C69 1.399 . S
C69 C68 1.399 . S
C69 C70 1.381 . S
C70 H62 0.931 1_454 S
C70 C66 1.390 1_554 S
C70 C69 1.381 . S
N71 C64 1.286 . S
N71 C67 1.413 . S
H72 C77 0.930 . S
H73 C80 0.930 . S
H74 C82 0.928 1_556 S
H75 C76 1.007 1_565 S
C76 H75 1.007 1_545 S
C76 N83 1.286 . S
C77 H72 0.930 . S
C77 C78 1.397 . S
C77 C79 1.361 1_556 S
C78 C77 1.397 . S
C78 C82 1.390 1_556 S
C79 C77 1.361 1_554 S
C79 C80 1.393 . S
C79 N83 1.413 . S
C80 H73 0.930 . S
C80 C79 1.393 . S
C80 C81 1.399 . S
C81 C80 1.399 . S
C81 C82 1.381 . S
C82 H74 0.928 1_554 S
C82 C78 1.390 1_554 S
C82 C81 1.381 . S
N83 C76 1.286 . S
N83 C79 1.413 . S
H84 C89 0.930 . S
H85 C92 0.930 . S
H86 C94 0.930 1_556 S
H87 C88 1.016 . S
C88 H87 1.016 . S
C88 N95 1.286 . S
C89 H84 0.930 . S
C89 C90 1.397 . S
C89 C91 1.361 1_556 S
C90 C89 1.397 . S
C90 C94 1.390 1_556 S
C91 C89 1.361 1_554 S
C91 C92 1.393 . S
C91 N95 1.413 . S
C92 H85 0.930 . S
C92 C91 1.393 . S
C92 C93 1.399 . S
C93 C92 1.399 . S
C93 C94 1.381 . S
C94 H86 0.930 1_554 S
C94 C90 1.390 1_554 S
C94 C93 1.381 . S
N95 C88 1.286 . S
N95 C91 1.413 . S
Ho96 C99 2.811 . S
Ho96 O116 2.322 . S
Ho96 O118 2.378 . S
Ho96 O119 2.540 . S
Ho96 O120 2.381 . S
Ho96 O121 2.669 1_565 S
Ho96 O123 2.346 1_565 S
Ho96 O127 2.305 1_455 S
Ho97 C108 2.811 . S
Ho97 O117 2.346 1_545 S
Ho97 O121 2.305 1_655 S
Ho97 O122 2.322 . S
Ho97 O124 2.378 . S
Ho97 O125 2.524 1_655 S
Ho97 O126 2.381 . S
Ho97 O127 2.669 1_545 S
C98 O116 1.259 1_655 S
C98 O117 1.268 . S
C99 Ho96 2.811 . S
C99 C100 1.488 . S
C99 O118 1.215 . S
C99 O119 1.324 . S
C100 C99 1.488 . S
C100 C101 1.348 . S
C100 C105 1.413 . S
C101 C100 1.348 . S
C101 C102 1.442 . S
C101 H128 0.930 1_455 S
C102 C101 1.442 . S
C102 C103 1.381 . S
C102 H129 0.931 1_455 S
C103 C102 1.381 . S
C103 C104 1.321 . S
C104 C103 1.321 . S
C104 C105 1.403 . S
C104 H130 0.934 . S
C105 C100 1.413 . S
C105 C104 1.403 . S
C105 H131 0.930 . S
C106 O120 1.275 1_545 S
C106 O121 1.256 . S
C107 O122 1.259 1_455 S
C107 O123 1.268 . S
C108 Ho97 2.811 . S
C108 C109 1.488 . S
C108 O124 1.215 . S
C108 O125 1.289 1_655 S
C109 C108 1.488 . S
C109 C110 1.336 1_655 S
C109 C114 1.413 . S
C110 C109 1.336 1_455 S
C110 C111 1.440 1_455 S
C110 H132 0.944 . S
C111 C110 1.440 1_655 S
C111 C112 1.381 . S
C111 H133 0.931 1_655 S
C112 C111 1.381 . S
C112 C113 1.321 . S
C113 C112 1.321 . S
C113 C114 1.403 . S
C113 H134 0.934 . S
C114 C109 1.413 . S
C114 C113 1.403 . S
C114 H135 0.930 . S
C115 O126 1.275 . S
C115 O127 1.256 1_545 S
O116 Ho96 2.322 . S
O116 C98 1.259 1_455 S
O117 Ho97 2.346 1_565 S
O117 C98 1.268 . S
O118 Ho96 2.378 . S
O118 C99 1.215 . S
O119 Ho96 2.540 . S
O119 C99 1.324 . S
O120 Ho96 2.381 . S
O120 C106 1.275 1_565 S
O121 Ho96 2.669 1_545 S
O121 Ho97 2.305 1_455 S
O121 C106 1.256 . S
O122 Ho97 2.322 . S
O122 C107 1.259 1_655 S
O123 Ho96 2.346 1_545 S
O123 C107 1.268 . S
O124 Ho97 2.378 . S
O124 C108 1.215 . S
O125 Ho97 2.524 1_455 S
O125 C108 1.289 1_455 S
O126 Ho97 2.381 . S
O126 C115 1.275 . S
O127 Ho96 2.305 1_655 S
O127 Ho97 2.669 1_565 S
O127 C115 1.256 1_565 S
H128 C101 0.930 1_655 S
H129 C102 0.931 1_655 S
H130 C104 0.934 . S
H131 C105 0.930 . S
H132 C110 0.944 . S
H133 C111 0.931 1_455 S
H134 C113 0.934 . S
H135 C114 0.930 . S
Ho136 C139 2.811 . S
Ho136 O156 2.322 . S
Ho136 O158 2.378 . S
Ho136 O159 2.541 . S
Ho136 O160 2.381 . S
Ho136 O161 2.669 . S
Ho136 O163 2.346 . S
Ho136 O167 2.305 1_545 S
Ho137 C148 2.811 . S
Ho137 O157 2.346 . S
Ho137 O161 2.305 1_565 S
Ho137 O162 2.322 . S
Ho137 O164 2.378 . S
Ho137 O165 2.524 1_565 S
Ho137 O166 2.381 . S
Ho137 O167 2.669 . S
C138 O156 1.259 1_565 S
C138 O157 1.268 . S
C139 Ho136 2.811 . S
C139 C140 1.488 . S
C139 O158 1.215 . S
C139 O159 1.328 . S
C140 C139 1.488 . S
C140 C141 1.348 . S
C140 C145 1.413 . S
C141 C140 1.348 . S
C141 C142 1.442 . S
C141 H168 0.930 1_545 S
C142 C141 1.442 . S
C142 C143 1.381 . S
C142 H169 0.931 1_545 S
C143 C142 1.381 . S
C143 C144 1.321 . S
C144 C143 1.321 . S
C144 C145 1.403 . S
C144 H170 0.934 . S
C145 C140 1.413 . S
C145 C144 1.403 . S
C145 H171 0.930 . S
C146 O160 1.275 . S
C146 O161 1.256 . S
C147 O162 1.259 1_545 S
C147 O163 1.268 . S
C148 Ho137 2.811 . S
C148 C149 1.488 . S
C148 O164 1.215 . S
C148 O165 1.289 1_565 S
C149 C148 1.488 . S
C149 C150 1.333 1_565 S
C149 C154 1.413 . S
C150 C149 1.333 1_545 S
C150 C151 1.440 1_545 S
C150 H172 0.947 . S
C151 C150 1.440 1_565 S
C151 C152 1.381 . S
C151 H173 0.931 1_565 S
C152 C151 1.381 . S
C152 C153 1.321 . S
C153 C152 1.321 . S
C153 C154 1.403 . S
C153 H174 0.934 . S
C154 C149 1.413 . S
C154 C153 1.403 . S
C154 H175 0.930 . S
C155 O166 1.275 . S
C155 O167 1.256 . S
O156 Ho136 2.322 . S
O156 C138 1.259 1_545 S
O157 Ho137 2.346 . S
O157 C138 1.268 . S
O158 Ho136 2.378 . S
O158 C139 1.215 . S
O159 Ho136 2.541 . S
O159 C139 1.328 . S
O160 Ho136 2.381 . S
O160 C146 1.275 . S
O161 Ho136 2.669 . S
O161 Ho137 2.305 1_545 S
O161 C146 1.256 . S
O162 Ho137 2.322 . S
O162 C147 1.259 1_565 S
O163 Ho136 2.346 . S
O163 C147 1.268 . S
O164 Ho137 2.378 . S
O164 C148 1.215 . S
O165 Ho137 2.524 1_545 S
O165 C148 1.289 1_545 S
O166 Ho137 2.381 . S
O166 C155 1.275 . S
O167 Ho136 2.305 1_565 S
O167 Ho137 2.669 . S
O167 C155 1.256 . S
H168 C141 0.930 1_565 S
H169 C142 0.931 1_565 S
H170 C144 0.934 . S
H171 C145 0.930 . S
H172 C150 0.947 . S
H173 C151 0.931 1_545 S
H174 C153 0.934 . S
H175 C154 0.930 . S
Ho176 C179 2.811 . S
Ho176 O196 2.322 . S
Ho176 O198 2.378 . S
Ho176 O199 2.524 . S
Ho176 O200 2.381 . S
Ho176 O201 2.669 . S
Ho176 O203 2.346 . S
Ho176 O207 2.305 . S
Ho177 C188 2.811 . S
Ho177 O197 2.346 . S
Ho177 O201 2.305 . S
Ho177 O202 2.322 . S
Ho177 O204 2.378 . S
Ho177 O205 2.524 . S
Ho177 O206 2.381 . S
Ho177 O207 2.669 . S
C178 O196 1.259 . S
C178 O197 1.268 . S
C179 Ho176 2.811 . S
C179 C180 1.488 . S
C179 O198 1.215 . S
C179 O199 1.289 . S
C180 C179 1.488 . S
C180 C181 1.348 . S
C180 C185 1.413 . S
C181 C180 1.348 . S
C181 C182 1.442 . S
C181 H208 0.930 . S
C182 C181 1.442 . S
C182 C183 1.381 . S
C182 H209 0.931 . S
C183 C182 1.381 . S
C183 C184 1.321 . S
C184 C183 1.321 . S
C184 C185 1.403 . S
C184 H210 0.934 . S
C185 C180 1.413 . S
C185 C184 1.403 . S
C185 H211 0.930 . S
C186 O200 1.275 . S
C186 O201 1.256 . S
C187 O202 1.259 . S
C187 O203 1.268 . S
C188 Ho177 2.811 . S
C188 C189 1.488 . S
C188 O204 1.215 . S
C188 O205 1.289 . S
C189 C188 1.488 . S
C189 C190 1.348 . S
C189 C194 1.413 . S
C190 C189 1.348 . S
C190 C191 1.442 . S
C190 H212 0.930 . S
C191 C190 1.442 . S
C191 C192 1.381 . S
C191 H213 0.931 . S
C192 C191 1.381 . S
C192 C193 1.321 . S
C193 C192 1.321 . S
C193 C194 1.403 . S
C193 H214 0.934 . S
C194 C189 1.413 . S
C194 C193 1.403 . S
C194 H215 0.930 . S
C195 O206 1.275 . S
C195 O207 1.256 . S
O196 Ho176 2.322 . S
O196 C178 1.259 . S
O197 Ho177 2.346 . S
O197 C178 1.268 . S
O198 Ho176 2.378 . S
O198 C179 1.215 . S
O199 Ho176 2.524 . S
O199 C179 1.289 . S
O200 Ho176 2.381 . S
O200 C186 1.275 . S
O201 Ho176 2.669 . S
O201 Ho177 2.305 . S
O201 C186 1.256 . S
O202 Ho177 2.322 . S
O202 C187 1.259 . S
O203 Ho176 2.346 . S
O203 C187 1.268 . S
O204 Ho177 2.378 . S
O204 C188 1.215 . S
O205 Ho177 2.524 . S
O205 C188 1.289 . S
O206 Ho177 2.381 . S
O206 C195 1.275 . S
O207 Ho176 2.305 . S
O207 Ho177 2.669 . S
O207 C195 1.256 . S
H208 C181 0.930 . S
H209 C182 0.931 . S
H210 C184 0.934 . S
H211 C185 0.930 . S
H212 C190 0.930 . S
H213 C191 0.931 . S
H214 C193 0.934 . S
H215 C194 0.930 . S
Ho216 C219 2.811 . S
Ho216 O236 2.322 . S
Ho216 O238 2.378 . S
Ho216 O239 2.524 . S
Ho216 O240 2.381 . S
Ho216 O241 2.669 1_655 S
Ho216 O243 2.346 1_655 S
Ho216 O247 2.305 . S
Ho217 C228 2.811 . S
Ho217 O237 2.346 1_455 S
Ho217 O241 2.305 . S
Ho217 O242 2.322 . S
Ho217 O244 2.378 . S
Ho217 O245 2.524 . S
Ho217 O246 2.381 . S
Ho217 O247 2.669 1_455 S
C218 O236 1.259 . S
C218 O237 1.268 . S
C219 Ho216 2.811 . S
C219 C220 1.488 . S
C219 O238 1.215 . S
C219 O239 1.289 . S
C220 C219 1.488 . S
C220 C221 1.348 . S
C220 C225 1.413 . S
C221 C220 1.348 . S
C221 C222 1.442 . S
C221 H248 0.930 . S
C222 C221 1.442 . S
C222 C223 1.381 . S
C222 H249 0.931 . S
C223 C222 1.381 . S
C223 C224 1.321 . S
C224 C223 1.321 . S
C224 C225 1.403 . S
C224 H250 0.934 . S
C225 C220 1.413 . S
C225 C224 1.403 . S
C225 H251 0.930 . S
C226 O240 1.275 1_455 S
C226 O241 1.256 . S
C227 O242 1.259 . S
C227 O243 1.268 . S
C228 Ho217 2.811 . S
C228 C229 1.488 . S
C228 O244 1.215 . S
C228 O245 1.289 . S
C229 C228 1.488 . S
C229 C230 1.348 . S
C229 C234 1.413 . S
C230 C229 1.348 . S
C230 C231 1.442 . S
C230 H252 0.930 . S
C231 C230 1.442 . S
C231 C232 1.381 . S
C231 H253 0.931 . S
C232 C231 1.381 . S
C232 C233 1.321 . S
C233 C232 1.321 . S
C233 C234 1.403 . S
C233 H254 0.934 . S
C234 C229 1.413 . S
C234 C233 1.403 . S
C234 H255 0.930 . S
C235 O246 1.275 . S
C235 O247 1.256 1_455 S
O236 Ho216 2.322 . S
O236 C218 1.259 . S
O237 Ho217 2.346 1_655 S
O237 C218 1.268 . S
O238 Ho216 2.378 . S
O238 C219 1.215 . S
O239 Ho216 2.524 . S
O239 C219 1.289 . S
O240 Ho216 2.381 . S
O240 C226 1.275 1_655 S
O241 Ho216 2.669 1_455 S
O241 Ho217 2.305 . S
O241 C226 1.256 . S
O242 Ho217 2.322 . S
O242 C227 1.259 . S
O243 Ho216 2.346 1_455 S
O243 C227 1.268 . S
O244 Ho217 2.378 . S
O244 C228 1.215 . S
O245 Ho217 2.524 . S
O245 C228 1.289 . S
O246 Ho217 2.381 . S
O246 C235 1.275 . S
O247 Ho216 2.305 . S
O247 Ho217 2.669 1_655 S
O247 C235 1.256 1_655 S
H248 C221 0.930 . S
H249 C222 0.931 . S
H250 C224 0.934 . S
H251 C225 0.930 . S
H252 C230 0.930 . S
H253 C231 0.931 . S
H254 C233 0.934 . S
H255 C234 0.930 . S
C256 C257 1.349 . S
C256 C258 1.327 . S
C256 H281 0.950 . S
C257 C256 1.349 . S
C257 C273 1.349 1_545 S
C258 C256 1.327 . S
C258 C277 1.429 . S
C258 H282 0.950 . S
C259 C276 1.574 . S
C259 C278 1.368 1_565 S
C259 H283 0.949 . S
H260 C264 0.949 . S
C261 C262 1.349 1_565 S
C261 C263 1.327 . S
C261 H284 0.950 . S
C262 C261 1.349 1_545 S
C262 C274 1.349 . S
C263 C261 1.327 . S
C263 C279 1.429 1_565 S
C263 H285 0.950 . S
C264 H260 0.949 . S
C264 C272 1.574 . S
C264 C280 1.368 . S
H265 C273 0.950 . S
H266 C271 0.950 . S
H267 C272 0.949 . S
H268 C274 0.950 . S
H269 C275 0.950 . S
H270 C276 0.949 . S
C271 H266 0.950 . S
C271 C273 1.327 . S
C271 C277 1.429 1_565 S
C272 C264 1.574 . S
C272 H267 0.949 . S
C272 C278 1.368 . S
C273 C257 1.349 1_565 S
C273 H265 0.950 . S
C273 C271 1.327 . S
C274 C262 1.349 . S
C274 H268 0.950 . S
C274 C275 1.327 . S
C275 H269 0.950 . S
C275 C274 1.327 . S
C275 C279 1.429 . S
C276 C259 1.574 . S
C276 H270 0.949 . S
C276 C280 1.368 1_565 S
C277 C258 1.429 . S
C277 C271 1.429 1_545 S
C277 C278 1.523 . S
C278 C259 1.368 1_545 S
C278 C272 1.368 . S
C278 C277 1.523 . S
C279 C263 1.429 1_545 S
C279 C275 1.429 . S
C279 C280 1.523 . S
C280 C264 1.368 . S
C280 C276 1.368 1_545 S
C280 C279 1.523 . S
H281 C256 0.950 . S
H282 C258 0.950 . S
H283 C259 0.949 . S
H284 C261 0.950 . S
H285 C263 0.950 . S
C286 C287 1.349 . S
C286 C288 1.327 . S
C286 H311 0.950 . S
C287 C286 1.349 . S
C287 C303 1.349 . S
C288 C286 1.327 . S
C288 C307 1.429 . S
C288 H312 0.950 . S
C289 C306 1.574 . S
C289 C308 1.368 . S
C289 H313 0.949 . S
H290 C294 0.949 . S
C291 C292 1.349 . S
C291 C293 1.327 . S
C291 H314 0.950 . S
C292 C291 1.349 . S
C292 C304 1.349 . S
C293 C291 1.327 . S
C293 C309 1.429 . S
C293 H315 0.950 . S
C294 H290 0.949 . S
C294 C302 1.574 . S
C294 C310 1.368 . S
H295 C303 0.950 . S
H296 C301 0.950 . S
H297 C302 0.949 . S
H298 C304 0.950 . S
H299 C305 0.950 . S
H300 C306 0.949 . S
C301 H296 0.950 . S
C301 C303 1.327 . S
C301 C307 1.429 . S
C302 C294 1.574 . S
C302 H297 0.949 . S
C302 C308 1.368 . S
C303 C287 1.349 . S
C303 H295 0.950 . S
C303 C301 1.327 . S
C304 C292 1.349 . S
C304 H298 0.950 . S
C304 C305 1.327 . S
C305 H299 0.950 . S
C305 C304 1.327 . S
C305 C309 1.429 . S
C306 C289 1.574 . S
C306 H300 0.949 . S
C306 C310 1.368 . S
C307 C288 1.429 . S
C307 C301 1.429 . S
C307 C308 1.523 . S
C308 C289 1.368 . S
C308 C302 1.368 . S
C308 C307 1.523 . S
C309 C293 1.429 . S
C309 C305 1.429 . S
C309 C310 1.523 . S
C310 C294 1.368 . S
C310 C306 1.368 . S
C310 C309 1.523 . S
H311 C286 0.950 . S
H312 C288 0.950 . S
H313 C289 0.949 . S
H314 C291 0.950 . S
H315 C293 0.950 . S
C316 C317 1.349 . S
C316 C318 1.327 . S
C316 H341 0.950 . S
C317 C316 1.349 . S
C317 C333 1.349 . S
C318 C316 1.327 . S
C318 C337 1.429 . S
C318 H342 0.950 . S
C319 C336 1.574 . S
C319 C338 1.368 . S
C319 H343 0.949 . S
H320 C324 0.949 . S
C321 C322 1.349 . S
C321 C323 1.327 . S
C321 H344 0.950 . S
C322 C321 1.349 . S
C322 C334 1.349 . S
C323 C321 1.327 . S
C323 C339 1.429 . S
C323 H345 0.950 . S
C324 H320 0.949 . S
C324 C332 1.574 . S
C324 C340 1.368 . S
H325 C333 0.950 . S
H326 C331 0.950 . S
H327 C332 0.949 . S
H328 C334 0.950 . S
H329 C335 0.950 . S
H330 C336 0.949 . S
C331 H326 0.950 . S
C331 C333 1.327 . S
C331 C337 1.429 . S
C332 C324 1.574 . S
C332 H327 0.949 . S
C332 C338 1.368 . S
C333 C317 1.349 . S
C333 H325 0.950 . S
C333 C331 1.327 . S
C334 C322 1.349 . S
C334 H328 0.950 . S
C334 C335 1.327 . S
C335 H329 0.950 . S
C335 C334 1.327 . S
C335 C339 1.429 . S
C336 C319 1.574 . S
C336 H330 0.949 . S
C336 C340 1.368 . S
C337 C318 1.429 . S
C337 C331 1.429 . S
C337 C338 1.523 . S
C338 C319 1.368 . S
C338 C332 1.368 . S
C338 C337 1.523 . S
C339 C323 1.429 . S
C339 C335 1.429 . S
C339 C340 1.523 . S
C340 C324 1.368 . S
C340 C336 1.368 . S
C340 C339 1.523 . S
H341 C316 0.950 . S
H342 C318 0.950 . S
H343 C319 0.949 . S
H344 C321 0.950 . S
H345 C323 0.950 . S
C346 C347 1.349 1_655 S
C346 C348 1.327 . S
C346 H371 0.950 . S
C347 C346 1.349 1_455 S
C347 C363 1.349 . S
C348 C346 1.327 . S
C348 C367 1.429 1_655 S
C348 H372 0.950 . S
C349 C366 1.574 . S
C349 C368 1.368 . S
C349 H373 0.949 . S
H350 C354 0.949 . S
C351 C352 1.349 . S
C351 C353 1.327 . S
C351 H374 0.950 . S
C352 C351 1.349 . S
C352 C364 1.349 1_455 S
C353 C351 1.327 . S
C353 C369 1.429 . S
C353 H375 0.950 . S
C354 H350 0.949 . S
C354 C362 1.574 . S
C354 C370 1.368 1_655 S
H355 C363 0.950 . S
H356 C361 0.950 . S
H357 C362 0.949 . S
H358 C364 0.950 . S
H359 C365 0.950 . S
H360 C366 0.949 . S
C361 H356 0.950 . S
C361 C363 1.327 . S
C361 C367 1.429 . S
C362 C354 1.574 . S
C362 H357 0.949 . S
C362 C368 1.368 1_655 S
C363 C347 1.349 . S
C363 H355 0.950 . S
C363 C361 1.327 . S
C364 C352 1.349 1_655 S
C364 H358 0.950 . S
C364 C365 1.327 . S
C365 H359 0.950 . S
C365 C364 1.327 . S
C365 C369 1.429 1_655 S
C366 C349 1.574 . S
C366 H360 0.949 . S
C366 C370 1.368 . S
C367 C348 1.429 1_455 S
C367 C361 1.429 . S
C367 C368 1.523 . S
C368 C349 1.368 . S
C368 C362 1.368 1_455 S
C368 C367 1.523 . S
C369 C353 1.429 . S
C369 C365 1.429 1_455 S
C369 C370 1.523 . S
C370 C354 1.368 1_455 S
C370 C366 1.368 . S
C370 C369 1.523 . S
H371 C346 0.950 . S
H372 C348 0.950 . S
H373 C349 0.949 . S
H374 C351 0.950 . S
H375 C353 0.950 . S
C376 C377 1.342 1_545 S
C376 C378 1.327 . S
C376 H401 0.950 . S
C377 C376 1.342 1_565 S
C377 C393 1.355 . S
C378 C376 1.327 . S
C378 C397 1.431 1_545 S
C378 H402 0.950 . S
C379 C396 1.574 1_554 S
C379 C398 1.370 1_565 S
C379 H403 0.949 . S
H380 C384 0.949 . S
C381 C382 1.327 1_565 S
C381 C383 1.327 . S
C381 H404 0.950 . S
C382 C381 1.327 1_545 S
C382 C394 1.371 . S
C383 C381 1.327 . S
C383 C399 1.417 1_565 S
C383 H405 0.950 . S
C384 H380 0.949 . S
C384 C392 1.574 . S
C384 C400 1.376 . S
H385 C393 0.950 . S
H386 C391 0.950 . S
H387 C392 0.949 . S
H388 C394 0.950 . S
H389 C395 0.950 . S
H390 C396 0.949 . S
C391 H386 0.950 . S
C391 C393 1.327 . S
C391 C397 1.426 . S
C392 C384 1.574 . S
C392 H387 0.949 . S
C392 C398 1.366 . S
C393 C377 1.355 . S
C393 H385 0.950 . S
C393 C391 1.327 . S
C394 C382 1.371 . S
C394 H388 0.950 . S
C394 C395 1.327 . S
C395 H389 0.950 . S
C395 C394 1.327 . S
C395 C399 1.441 . S
C396 C379 1.574 1_556 S
C396 H390 0.949 . S
C396 C400 1.360 1_566 S
C397 C378 1.431 1_565 S
C397 C391 1.426 . S
C397 C398 1.523 1_565 S
C398 C379 1.370 1_545 S
C398 C392 1.366 . S
C398 C397 1.523 1_545 S
C399 C383 1.417 1_545 S
C399 C395 1.441 . S
C399 C400 1.523 1_556 S
C400 C384 1.376 . S
C400 C396 1.360 1_544 S
C400 C399 1.523 1_554 S
H401 C376 0.950 . S
H402 C378 0.950 . S
H403 C379 0.949 . S
H404 C381 0.950 . S
H405 C383 0.950 . S
C406 C407 1.349 . S
C406 C408 1.327 . S
C406 H431 0.950 . S
C407 C406 1.349 . S
C407 C423 1.349 . S
C408 C406 1.327 . S
C408 C427 1.429 . S
C408 H432 0.950 . S
C409 C426 1.574 . S
C409 C428 1.368 . S
C409 H433 0.949 . S
H410 C414 0.949 . S
C411 C412 1.349 . S
C411 C413 1.327 . S
C411 H434 0.950 . S
C412 C411 1.349 . S
C412 C424 1.349 . S
C413 C411 1.327 . S
C413 C429 1.429 . S
C413 H435 0.950 1_556 S
C414 H410 0.949 . S
C414 C422 1.574 1_556 S
C414 C430 1.368 1_556 S
H415 C423 0.950 . S
H416 C421 0.950 . S
H417 C422 0.949 . S
H418 C424 0.950 . S
H419 C425 0.950 . S
H420 C426 0.949 . S
C421 H416 0.950 . S
C421 C423 1.327 . S
C421 C427 1.429 . S
C422 C414 1.574 1_554 S
C422 H417 0.949 . S
C422 C428 1.368 . S
C423 C407 1.349 . S
C423 H415 0.950 . S
C423 C421 1.327 . S
C424 C412 1.349 . S
C424 H418 0.950 . S
C424 C425 1.327 . S
C425 H419 0.950 . S
C425 C424 1.327 . S
C425 C429 1.429 . S
C426 C409 1.574 . S
C426 H420 0.949 . S
C426 C430 1.369 . S
C427 C408 1.429 . S
C427 C421 1.429 . S
C427 C428 1.523 . S
C428 C409 1.368 . S
C428 C422 1.368 . S
C428 C427 1.523 . S
C429 C413 1.429 . S
C429 C425 1.429 . S
C429 C430 1.523 1_556 S
C430 C414 1.368 1_554 S
C430 C426 1.369 . S
C430 C429 1.523 1_554 S
H431 C406 0.950 . S
H432 C408 0.950 . S
H433 C409 0.949 . S
H434 C411 0.950 . S
H435 C413 0.950 1_554 S
C436 C437 1.349 . S
C436 C438 1.327 . S
C436 H461 0.950 . S
C437 C436 1.349 . S
C437 C453 1.349 . S
C438 C436 1.327 . S
C438 C457 1.429 . S
C438 H462 0.950 . S
C439 C456 1.574 . S
C439 C458 1.368 . S
C439 H463 0.949 . S
H440 C444 0.949 . S
C441 C442 1.349 . S
C441 C443 1.327 . S
C441 H464 0.950 . S
C442 C441 1.349 . S
C442 C454 1.349 . S
C443 C441 1.327 . S
C443 C459 1.429 . S
C443 H465 0.950 . S
C444 H440 0.949 . S
C444 C452 1.574 1_556 S
C444 C460 1.369 1_556 S
H445 C453 0.950 . S
H446 C451 0.950 . S
H447 C452 0.949 . S
H448 C454 0.950 . S
H449 C455 0.950 . S
H450 C456 0.949 . S
C451 H446 0.950 . S
C451 C453 1.327 . S
C451 C457 1.429 . S
C452 C444 1.574 1_554 S
C452 H447 0.949 . S
C452 C458 1.368 . S
C453 C437 1.349 . S
C453 H445 0.950 . S
C453 C451 1.327 . S
C454 C442 1.349 . S
C454 H448 0.950 . S
C454 C455 1.327 . S
C455 H449 0.950 . S
C455 C454 1.327 . S
C455 C459 1.429 . S
C456 C439 1.574 . S
C456 H450 0.949 . S
C456 C460 1.367 . S
C457 C438 1.429 . S
C457 C451 1.429 . S
C457 C458 1.523 . S
C458 C439 1.368 . S
C458 C452 1.368 . S
C458 C457 1.523 . S
C459 C443 1.429 . S
C459 C455 1.429 . S
C459 C460 1.524 1_556 S
C460 C444 1.369 1_554 S
C460 C456 1.367 . S
C460 C459 1.524 1_554 S
H461 C436 0.950 . S
H462 C438 0.950 . S
H463 C439 0.949 . S
H464 C441 0.950 . S
H465 C443 0.950 . S
C466 C467 1.352 . S
C466 C468 1.327 . S
C466 H491 0.950 . S
C467 C466 1.352 . S
C467 C483 1.346 1_655 S
C468 C466 1.327 . S
C468 C487 1.428 . S
C468 H492 0.950 . S
C469 C486 1.574 1_554 S
C469 C488 1.367 . S
C469 H493 0.949 . S
H470 C474 0.949 . S
C471 C472 1.356 . S
C471 C473 1.327 . S
C471 H494 0.950 . S
C472 C471 1.356 . S
C472 C484 1.342 1_455 S
C473 C471 1.327 . S
C473 C489 1.432 . S
C473 H495 0.950 . S
C474 H470 0.949 . S
C474 C482 1.574 . S
C474 C490 1.366 1_655 S
H475 C483 0.950 . S
H476 C481 0.950 . S
H477 C482 0.949 . S
H478 C484 0.950 . S
H479 C485 0.950 1_554 S
H480 C486 0.949 . S
C481 H476 0.950 . S
C481 C483 1.327 . S
C481 C487 1.429 1_455 S
C482 C474 1.574 . S
C482 H477 0.949 . S
C482 C488 1.370 1_655 S
C483 C467 1.346 1_455 S
C483 H475 0.950 . S
C483 C481 1.327 . S
C484 C472 1.342 1_655 S
C484 H478 0.950 . S
C484 C485 1.327 . S
C485 H479 0.950 1_556 S
C485 C484 1.327 . S
C485 C489 1.425 1_655 S
C486 C469 1.574 1_556 S
C486 H480 0.949 . S
C486 C490 1.370 1_556 S
C487 C468 1.428 . S
C487 C481 1.429 1_655 S
C487 C488 1.523 1_655 S
C488 C469 1.367 . S
C488 C482 1.370 1_455 S
C488 C487 1.523 1_455 S
C489 C473 1.432 . S
C489 C485 1.425 1_455 S
C489 C490 1.523 1_556 S
C490 C474 1.366 1_455 S
C490 C486 1.370 1_554 S
C490 C489 1.523 1_554 S
H491 C466 0.950 . S
H492 C468 0.950 . S
H493 C469 0.949 . S
H494 C471 0.950 . S
H495 C473 0.950 . S
C496 C497 1.349 . S
C496 C498 1.327 . S
C496 H521 0.950 . S
C497 C496 1.349 . S
C497 C513 1.349 1_455 S
C498 C496 1.327 . S
C498 C517 1.429 1_455 S
C498 H522 0.950 . S
C499 C516 1.574 . S
C499 C518 1.368 . S
C499 H523 0.949 . S
H500 C504 0.949 1_455 S
C501 C502 1.349 . S
C501 C503 1.327 . S
C501 H524 0.950 . S
C502 C501 1.349 . S
C502 C514 1.349 . S
C503 C501 1.327 . S
C503 C519 1.429 . S
C503 H525 0.950 . S
C504 H500 0.949 1_655 S
C504 C512 1.574 1_655 S
C504 C520 1.368 . S
H505 C513 0.950 . S
H506 C511 0.950 . S
H507 C512 0.949 . S
H508 C514 0.950 . S
H509 C515 0.950 . S
H510 C516 0.949 . S
C511 H506 0.950 . S
C511 C513 1.327 . S
C511 C517 1.429 . S
C512 C504 1.574 1_455 S
C512 H507 0.949 . S
C512 C518 1.368 1_455 S
C513 C497 1.349 1_655 S
C513 H505 0.950 . S
C513 C511 1.327 . S
C514 C502 1.349 . S
C514 H508 0.950 . S
C514 C515 1.327 . S
C515 H509 0.950 . S
C515 C514 1.327 . S
C515 C519 1.429 . S
C516 C499 1.574 . S
C516 H510 0.949 . S
C516 C520 1.368 . S
C517 C498 1.429 1_655 S
C517 C511 1.429 . S
C517 C518 1.523 . S
C518 C499 1.368 . S
C518 C512 1.368 1_655 S
C518 C517 1.523 . S
C519 C503 1.429 . S
C519 C515 1.429 . S
C519 C520 1.523 . S
C520 C504 1.368 . S
C520 C516 1.368 . S
C520 C519 1.523 . S
H521 C496 0.950 . S
H522 C498 0.950 . S
H523 C499 0.949 . S
H524 C501 0.950 . S
H525 C503 0.950 . S
C526 C527 1.349 . S
C526 C528 1.327 . S
C526 H551 0.950 . S
C527 C526 1.349 . S
C527 C543 1.349 1_545 S
C528 C526 1.327 . S
C528 C547 1.429 1_545 S
C528 H552 0.950 . S
C529 C546 1.574 . S
C529 C548 1.368 . S
C529 H553 0.949 . S
H530 C534 0.949 . S
C531 C532 1.349 . S
C531 C533 1.327 . S
C531 H554 0.950 . S
C532 C531 1.349 . S
C532 C544 1.349 . S
C533 C531 1.327 . S
C533 C549 1.429 . S
C533 H555 0.950 . S
C534 H530 0.949 . S
C534 C542 1.574 . S
C534 C550 1.368 1_545 S
H535 C543 0.950 . S
H536 C541 0.950 . S
H537 C542 0.949 . S
H538 C544 0.982 . S
H539 C545 0.950 1_545 S
H540 C546 0.949 . S
C541 H536 0.950 . S
C541 C543 1.327 . S
C541 C547 1.429 . S
C542 C534 1.574 . S
C542 H537 0.949 . S
C542 C548 1.368 1_545 S
C543 C527 1.349 1_565 S
C543 H535 0.950 . S
C543 C541 1.327 . S
C544 C532 1.349 . S
C544 H538 0.982 . S
C544 C545 1.327 . S
C545 H539 0.950 1_565 S
C545 C544 1.327 . S
C545 C549 1.429 . S
C546 C529 1.574 . S
C546 H540 0.949 . S
C546 C550 1.368 . S
C547 C528 1.429 1_565 S
C547 C541 1.429 . S
C547 C548 1.523 . S
C548 C529 1.368 . S
C548 C542 1.368 1_565 S
C548 C547 1.523 . S
C549 C533 1.429 . S
C549 C545 1.429 . S
C549 C550 1.523 . S
C550 C534 1.368 1_565 S
C550 C546 1.368 . S
C550 C549 1.523 . S
H551 C526 0.950 . S
H552 C528 0.950 . S
H553 C529 0.949 . S
H554 C531 0.950 . S
H555 C533 0.950 . S
C556 C557 1.349 . S
C556 C558 1.327 . S
C556 H581 0.950 . S
C557 C556 1.349 . S
C557 C573 1.349 . S
C558 C556 1.327 . S
C558 C577 1.429 . S
C558 H582 0.950 . S
C559 C576 1.574 . S
C559 C578 1.368 . S
C559 H583 0.949 . S
H560 C564 0.949 . S
C561 C562 1.349 . S
C561 C563 1.327 . S
C561 H584 0.950 . S
C562 C561 1.349 . S
C562 C574 1.349 . S
C563 C561 1.327 . S
C563 C579 1.429 . S
C563 H585 0.950 . S
C564 H560 0.949 . S
C564 C572 1.574 . S
C564 C580 1.368 . S
H565 C573 0.950 . S
H566 C571 0.950 . S
H567 C572 0.949 . S
H568 C574 0.950 . S
H569 C575 0.950 . S
H570 C576 0.949 . S
C571 H566 0.950 . S
C571 C573 1.327 . S
C571 C577 1.429 . S
C572 C564 1.574 . S
C572 H567 0.949 . S
C572 C578 1.368 . S
C573 C557 1.349 . S
C573 H565 0.950 . S
C573 C571 1.327 . S
C574 C562 1.349 . S
C574 H568 0.950 . S
C574 C575 1.327 . S
C575 H569 0.950 . S
C575 C574 1.327 . S
C575 C579 1.429 . S
C576 C559 1.574 . S
C576 H570 0.949 . S
C576 C580 1.368 . S
C577 C558 1.429 . S
C577 C571 1.429 . S
C577 C578 1.523 . S
C578 C559 1.368 . S
C578 C572 1.368 . S
C578 C577 1.523 . S
C579 C563 1.429 . S
C579 C575 1.429 . S
C579 C580 1.523 . S
C580 C564 1.368 . S
C580 C576 1.368 . S
C580 C579 1.523 . S
H581 C556 0.950 . S
H582 C558 0.950 . S
H583 C559 0.949 . S
H584 C561 0.950 . S
H585 C563 0.950 . S
C586 C587 1.349 . S
C586 C588 1.327 . S
C586 H611 0.950 . S
C587 C586 1.349 . S
C587 C603 1.349 . S
C588 C586 1.327 . S
C588 C607 1.429 . S
C588 H612 0.950 . S
C589 C606 1.574 . S
C589 C608 1.368 . S
C589 H613 0.949 . S
H590 C594 0.949 . S
C591 C592 1.349 . S
C591 C593 1.327 . S
C591 H614 0.950 . S
C592 C591 1.349 . S
C592 C604 1.349 . S
C593 C591 1.327 . S
C593 C609 1.429 . S
C593 H615 0.950 . S
C594 H590 0.949 . S
C594 C602 1.574 . S
C594 C610 1.368 . S
H595 C603 0.950 . S
H596 C601 0.950 . S
H597 C602 0.949 . S
H598 C604 0.950 . S
H599 C605 0.950 . S
H600 C606 0.949 . S
C601 H596 0.950 . S
C601 C603 1.327 . S
C601 C607 1.429 . S
C602 C594 1.574 . S
C602 H597 0.949 . S
C602 C608 1.368 . S
C603 C587 1.349 . S
C603 H595 0.950 . S
C603 C601 1.327 . S
C604 C592 1.349 . S
C604 H598 0.950 . S
C604 C605 1.327 . S
C605 H599 0.950 . S
C605 C604 1.327 . S
C605 C609 1.429 . S
C606 C589 1.574 . S
C606 H600 0.949 . S
C606 C610 1.368 . S
C607 C588 1.429 . S
C607 C601 1.429 . S
C607 C608 1.523 . S
C608 C589 1.368 . S
C608 C602 1.368 . S
C608 C607 1.523 . S
C609 C593 1.429 . S
C609 C605 1.429 . S
C609 C610 1.523 . S
C610 C594 1.368 . S
C610 C606 1.368 . S
C610 C609 1.523 . S
H611 C586 0.950 . S
H612 C588 0.950 . S
H613 C589 0.949 . S
H614 C591 0.950 . S
H615 C593 0.950 . S
C616 C617 1.349 1_455 S
C616 C618 1.327 . S
C616 H641 0.950 . S
C617 C616 1.349 1_655 S
C617 C633 1.349 . S
C618 C616 1.327 . S
C618 C637 1.429 . S
C618 H642 0.950 . S
C619 C636 1.574 . S
C619 C638 1.368 . S
C619 H643 0.949 1_455 S
H620 C624 0.949 . S
C621 C622 1.349 . S
C621 C623 1.327 . S
C621 H644 0.950 . S
C622 C621 1.349 . S
C622 C634 1.349 1_556 S
C623 C621 1.327 . S
C623 C639 1.429 1_556 S
C623 H645 0.950 . S
C624 H620 0.949 . S
C624 C632 1.574 . S
C624 C640 1.368 . S
H625 C633 0.950 . S
H626 C631 0.950 . S
H627 C632 0.949 . S
H628 C634 0.950 . S
H629 C635 0.950 . S
H630 C636 0.952 . S
C631 H626 0.950 . S
C631 C633 1.327 . S
C631 C637 1.429 1_655 S
C632 C624 1.574 . S
C632 H627 0.949 . S
C632 C638 1.368 . S
C633 C617 1.349 . S
C633 H625 0.950 . S
C633 C631 1.327 . S
C634 C622 1.349 1_554 S
C634 H628 0.950 . S
C634 C635 1.327 . S
C635 H629 0.950 . S
C635 C634 1.327 . S
C635 C639 1.429 . S
C636 C619 1.574 . S
C636 H630 0.952 . S
C636 C640 1.368 . S
C637 C618 1.429 . S
C637 C631 1.429 1_455 S
C637 C638 1.523 . S
C638 C619 1.368 . S
C638 C632 1.368 . S
C638 C637 1.523 . S
C639 C623 1.429 1_554 S
C639 C635 1.429 . S
C639 C640 1.523 . S
C640 C624 1.368 . S
C640 C636 1.368 . S
C640 C639 1.523 . S
H641 C616 0.950 . S
H642 C618 0.950 . S
H643 C619 0.949 1_655 S
H644 C621 0.950 . S
H645 C623 0.950 . S
C646 C647 1.349 . S
C646 C648 1.327 . S
C646 H671 0.950 . S
C647 C646 1.349 . S
C647 C663 1.349 1_565 S
C648 C646 1.327 . S
C648 C667 1.429 1_565 S
C648 H672 0.950 . S
C649 C666 1.574 . S
C649 C668 1.368 . S
C649 H673 0.949 . S
H650 C654 0.949 . S
C651 C652 1.350 . S
C651 C653 1.325 1_556 S
C651 H674 0.951 . S
C652 C651 1.350 . S
C652 C664 1.349 . S
C653 C651 1.325 1_554 S
C653 C669 1.429 . S
C653 H675 0.950 . S
C654 H650 0.949 . S
C654 C662 1.574 . S
C654 C670 1.368 1_565 S
H655 C663 0.950 . S
H656 C661 0.950 . S
H657 C662 0.949 . S
H658 C664 0.950 1_565 S
H659 C665 0.950 1_565 S
H660 C666 0.949 . S
C661 H656 0.950 . S
C661 C663 1.327 . S
C661 C667 1.429 . S
C662 C654 1.574 . S
C662 H657 0.949 . S
C662 C668 1.368 1_565 S
C663 C647 1.349 1_545 S
C663 H655 0.950 . S
C663 C661 1.327 . S
C664 C652 1.349 . S
C664 H658 0.950 1_545 S
C664 C665 1.327 1_556 S
C665 H659 0.950 1_545 S
C665 C664 1.327 1_554 S
C665 C669 1.429 . S
C666 C649 1.574 . S
C666 H660 0.949 . S
C666 C670 1.368 . S
C667 C648 1.429 1_545 S
C667 C661 1.429 . S
C667 C668 1.523 . S
C668 C649 1.368 . S
C668 C662 1.368 1_545 S
C668 C667 1.523 . S
C669 C653 1.429 . S
C669 C665 1.429 . S
C669 C670 1.523 . S
C670 C654 1.368 1_545 S
C670 C666 1.368 . S
C670 C669 1.523 . S
H671 C646 0.950 . S
H672 C648 0.950 . S
H673 C649 0.949 . S
H674 C651 0.951 . S
H675 C653 0.950 . S
C676 C677 1.349 . S
C676 C678 1.327 . S
C676 H701 0.950 . S
C677 C676 1.349 . S
C677 C693 1.349 . S
C678 C676 1.327 . S
C678 C697 1.429 . S
C678 H702 0.950 . S
C679 C696 1.574 . S
C679 C698 1.368 . S
C679 H703 0.949 . S
H680 C684 0.949 . S
C681 C682 1.349 1_554 S
C681 C683 1.327 . S
C681 H704 0.950 . S
C682 C681 1.349 1_556 S
C682 C694 1.349 . S
C683 C681 1.327 . S
C683 C699 1.429 . S
C683 H705 0.950 . S
C684 H680 0.949 . S
C684 C692 1.574 . S
C684 C700 1.368 . S
H685 C693 0.950 . S
H686 C691 0.950 . S
H687 C692 0.949 . S
H688 C694 0.950 . S
H689 C695 0.950 . S
H690 C696 0.949 . S
C691 H686 0.950 . S
C691 C693 1.327 . S
C691 C697 1.429 . S
C692 C684 1.574 . S
C692 H687 0.949 . S
C692 C698 1.368 . S
C693 C677 1.349 . S
C693 H685 0.950 . S
C693 C691 1.327 . S
C694 C682 1.349 . S
C694 H688 0.950 . S
C694 C695 1.327 1_556 S
C695 H689 0.950 . S
C695 C694 1.327 1_554 S
C695 C699 1.429 . S
C696 C679 1.574 . S
C696 H690 0.949 . S
C696 C700 1.368 . S
C697 C678 1.429 . S
C697 C691 1.429 . S
C697 C698 1.523 . S
C698 C679 1.368 . S
C698 C692 1.368 . S
C698 C697 1.523 . S
C699 C683 1.429 . S
C699 C695 1.429 . S
C699 C700 1.523 . S
C700 C684 1.368 . S
C700 C696 1.368 . S
C700 C699 1.523 . S
H701 C676 0.950 . S
H702 C678 0.950 . S
H703 C679 0.949 . S
H704 C681 0.950 . S
H705 C683 0.950 . S
C706 C707 1.349 . S
C706 C708 1.327 . S
C706 H731 0.950 . S
C707 C706 1.349 . S
C707 C723 1.349 . S
C708 C706 1.327 . S
C708 C727 1.429 . S
C708 H732 0.950 . S
C709 C726 1.574 . S
C709 C728 1.368 . S
C709 H733 0.949 . S
H710 C714 0.949 . S
C711 C712 1.349 . S
C711 C713 1.327 1_556 S
C711 H734 0.950 . S
C712 C711 1.349 . S
C712 C724 1.349 1_556 S
C713 C711 1.327 1_554 S
C713 C729 1.429 . S
C713 H735 0.948 1_554 S
C714 H710 0.949 . S
C714 C722 1.574 . S
C714 C730 1.368 . S
H715 C723 0.950 . S
H716 C721 0.950 . S
H717 C722 0.949 . S
H718 C724 0.950 . S
H719 C725 0.950 . S
H720 C726 0.949 . S
C721 H716 0.950 . S
C721 C723 1.327 . S
C721 C727 1.429 . S
C722 C714 1.574 . S
C722 H717 0.949 . S
C722 C728 1.368 . S
C723 C707 1.349 . S
C723 H715 0.950 . S
C723 C721 1.327 . S
C724 C712 1.349 1_554 S
C724 H718 0.950 . S
C724 C725 1.327 . S
C725 H719 0.950 . S
C725 C724 1.327 . S
C725 C729 1.429 . S
C726 C709 1.574 . S
C726 H720 0.949 . S
C726 C730 1.368 . S
C727 C708 1.429 . S
C727 C721 1.429 . S
C727 C728 1.523 . S
C728 C709 1.368 . S
C728 C722 1.368 . S
C728 C727 1.523 . S
C729 C713 1.429 . S
C729 C725 1.429 . S
C729 C730 1.523 . S
C730 C714 1.368 . S
C730 C726 1.368 . S
C730 C729 1.523 . S
H731 C706 0.950 . S
H732 C708 0.950 . S
H733 C709 0.949 . S
H734 C711 0.950 . S
H735 C713 0.948 1_556 S
C736 C737 1.349 . S
C736 C738 1.327 . S
C736 H761 0.950 . S
C737 C736 1.349 . S
C737 C753 1.349 1_455 S
C738 C736 1.327 . S
C738 C757 1.429 . S
C738 H762 0.950 . S
C739 C756 1.574 . S
C739 C758 1.368 1_655 S
C739 H763 0.949 . S
H740 C744 0.949 . S
C741 C742 1.327 1_655 S
C741 C743 1.330 . S
C741 H764 0.971 . S
C742 C741 1.327 1_455 S
C742 C754 1.349 . S
C743 C741 1.330 . S
C743 C759 1.429 1_655 S
C743 H765 0.950 . S
C744 H740 0.949 . S
C744 C752 1.574 . S
C744 C760 1.368 . S
H745 C753 0.950 . S
H746 C751 0.950 . S
H747 C752 0.949 . S
H748 C754 0.950 . S
H749 C755 0.950 . S
H750 C756 0.949 . S
C751 H746 0.950 . S
C751 C753 1.327 . S
C751 C757 1.429 1_655 S
C752 C744 1.574 . S
C752 H747 0.949 . S
C752 C758 1.368 . S
C753 C737 1.349 1_655 S
C753 H745 0.950 . S
C753 C751 1.327 . S
C754 C742 1.349 . S
C754 H748 0.950 . S
C754 C755 1.327 . S
C755 H749 0.950 . S
C755 C754 1.327 . S
C755 C759 1.429 . S
C756 C739 1.574 . S
C756 H750 0.949 . S
C756 C760 1.368 1_655 S
C757 C738 1.429 . S
C757 C751 1.429 1_455 S
C757 C758 1.523 . S
C758 C739 1.368 1_455 S
C758 C752 1.368 . S
C758 C757 1.523 . S
C759 C743 1.429 1_455 S
C759 C755 1.429 . S
C759 C760 1.523 . S
C760 C744 1.368 . S
C760 C756 1.368 1_455 S
C760 C759 1.523 . S
H761 C736 0.950 . S
H762 C738 0.950 . S
H763 C739 0.949 . S
H764 C741 0.971 . S
H765 C743 0.950 . S
C766 C767 1.349 1_565 S
C766 C768 1.327 . S
C766 H791 0.950 . S
C767 C766 1.349 1_545 S
C767 C783 1.349 . S
C768 C766 1.327 . S
C768 C787 1.429 1_565 S
C768 H792 0.950 . S
C769 C786 1.574 . S
C769 C788 1.368 . S
C769 H793 0.949 . S
H770 C774 0.949 . S
C771 C772 1.349 . S
C771 C773 1.327 . S
C771 H794 0.950 . S
C772 C771 1.349 . S
C772 C784 1.349 1_545 S
C773 C771 1.327 . S
C773 C789 1.429 . S
C773 H795 0.950 . S
C774 H770 0.949 . S
C774 C782 1.574 . S
C774 C790 1.368 1_565 S
H775 C783 0.950 . S
H776 C781 0.950 . S
H777 C782 0.949 . S
H778 C784 0.950 . S
H779 C785 0.950 . S
H780 C786 0.949 . S
C781 H776 0.950 . S
C781 C783 1.327 . S
C781 C787 1.429 . S
C782 C774 1.574 . S
C782 H777 0.949 . S
C782 C788 1.368 1_565 S
C783 C767 1.349 . S
C783 H775 0.950 . S
C783 C781 1.327 . S
C784 C772 1.349 1_565 S
C784 H778 0.950 . S
C784 C785 1.327 . S
C785 H779 0.950 . S
C785 C784 1.327 . S
C785 C789 1.429 1_565 S
C786 C769 1.574 . S
C786 H780 0.949 . S
C786 C790 1.368 . S
C787 C768 1.429 1_545 S
C787 C781 1.429 . S
C787 C788 1.523 . S
C788 C769 1.368 . S
C788 C782 1.368 1_545 S
C788 C787 1.523 . S
C789 C773 1.429 . S
C789 C785 1.429 1_545 S
C789 C790 1.523 . S
C790 C774 1.368 1_545 S
C790 C786 1.368 . S
C790 C789 1.523 . S
H791 C766 0.950 . S
H792 C768 0.950 . S
H793 C769 0.949 . S
H794 C771 0.950 . S
H795 C773 0.950 . S
C796 C797 1.349 . S
C796 C798 1.327 . S
C796 H821 0.950 . S
C797 C796 1.349 . S
C797 C813 1.349 . S
C798 C796 1.327 . S
C798 C817 1.429 . S
C798 H822 0.950 . S
C799 C816 1.574 . S
C799 C818 1.368 . S
C799 H823 0.949 . S
H800 C804 0.949 . S
C801 C802 1.349 . S
C801 C803 1.327 . S
C801 H824 0.950 . S
C802 C801 1.349 . S
C802 C814 1.349 . S
C803 C801 1.327 . S
C803 C819 1.429 . S
C803 H825 0.950 . S
C804 H800 0.949 . S
C804 C812 1.574 . S
C804 C820 1.368 . S
H805 C813 0.950 . S
H806 C811 0.950 . S
H807 C812 0.949 . S
H808 C814 0.950 . S
H809 C815 0.950 . S
H810 C816 0.949 . S
C811 H806 0.950 . S
C811 C813 1.327 . S
C811 C817 1.429 . S
C812 C804 1.574 . S
C812 H807 0.949 . S
C812 C818 1.368 . S
C813 C797 1.349 . S
C813 H805 0.950 . S
C813 C811 1.327 . S
C814 C802 1.349 . S
C814 H808 0.950 . S
C814 C815 1.327 . S
C815 H809 0.950 . S
C815 C814 1.327 . S
C815 C819 1.429 . S
C816 C799 1.574 . S
C816 H810 0.949 . S
C816 C820 1.368 . S
C817 C798 1.429 . S
C817 C811 1.429 . S
C817 C818 1.523 . S
C818 C799 1.368 . S
C818 C812 1.368 . S
C818 C817 1.523 . S
C819 C803 1.429 . S
C819 C815 1.429 . S
C819 C820 1.523 . S
C820 C804 1.368 . S
C820 C816 1.368 . S
C820 C819 1.523 . S
H821 C796 0.950 . S
H822 C798 0.950 . S
H823 C799 0.949 . S
H824 C801 0.950 . S
H825 C803 0.950 . S
C826 C827 1.349 . S
C826 C828 1.327 . S
C826 H851 0.950 . S
C827 C826 1.349 . S
C827 C843 1.349 . S
C828 C826 1.327 . S
C828 C847 1.429 . S
C828 H852 0.950 . S
C829 C846 1.574 . S
C829 C848 1.368 . S
C829 H853 0.949 . S
H830 C834 0.949 . S
C831 C832 1.349 . S
C831 C833 1.327 . S
C831 H854 0.950 . S
C832 C831 1.349 . S
C832 C844 1.349 . S
C833 C831 1.327 . S
C833 C849 1.429 . S
C833 H855 0.950 . S
C834 H830 0.949 . S
C834 C842 1.574 . S
C834 C850 1.368 . S
H835 C843 0.950 . S
H836 C841 0.950 . S
H837 C842 0.949 . S
H838 C844 0.950 . S
H839 C845 0.950 . S
H840 C846 0.949 . S
C841 H836 0.950 . S
C841 C843 1.327 . S
C841 C847 1.429 . S
C842 C834 1.574 . S
C842 H837 0.949 . S
C842 C848 1.368 . S
C843 C827 1.349 . S
C843 H835 0.950 . S
C843 C841 1.327 . S
C844 C832 1.349 . S
C844 H838 0.950 . S
C844 C845 1.327 . S
C845 H839 0.950 . S
C845 C844 1.327 . S
C845 C849 1.429 . S
C846 C829 1.574 . S
C846 H840 0.949 . S
C846 C850 1.368 . S
C847 C828 1.429 . S
C847 C841 1.429 . S
C847 C848 1.523 . S
C848 C829 1.368 . S
C848 C842 1.368 . S
C848 C847 1.523 . S
C849 C833 1.429 . S
C849 C845 1.429 . S
C849 C850 1.523 . S
C850 C834 1.368 . S
C850 C846 1.368 . S
C850 C849 1.523 . S
H851 C826 0.950 . S
H852 C828 0.950 . S
H853 C829 0.949 . S
H854 C831 0.950 . S
H855 C833 0.950 . S
C856 C857 1.349 . S
C856 C858 1.327 . S
C856 H881 0.950 . S
C857 C856 1.349 . S
C857 C873 1.349 1_655 S
C858 C856 1.327 . S
C858 C877 1.429 . S
C858 H882 0.950 . S
C859 C876 1.574 . S
C859 C878 1.368 1_455 S
C859 H883 0.949 . S
H860 C864 0.949 . S
C861 C862 1.349 1_455 S
C861 C863 1.327 . S
C861 H884 0.950 . S
C862 C861 1.349 1_655 S
C862 C874 1.349 . S
C863 C861 1.327 . S
C863 C879 1.429 1_455 S
C863 H885 0.950 . S
C864 H860 0.949 . S
C864 C872 1.574 . S
C864 C880 1.368 . S
H865 C873 0.950 . S
H866 C871 0.950 . S
H867 C872 0.949 . S
H868 C874 0.950 . S
H869 C875 0.950 . S
H870 C876 0.949 . S
C871 H866 0.950 . S
C871 C873 1.327 . S
C871 C877 1.429 1_455 S
C872 C864 1.574 . S
C872 H867 0.949 . S
C872 C878 1.368 . S
C873 C857 1.349 1_455 S
C873 H865 0.950 . S
C873 C871 1.327 . S
C874 C862 1.349 . S
C874 H868 0.950 . S
C874 C875 1.327 . S
C875 H869 0.950 . S
C875 C874 1.327 . S
C875 C879 1.429 . S
C876 C859 1.574 . S
C876 H870 0.949 . S
C876 C880 1.368 1_455 S
C877 C858 1.429 . S
C877 C871 1.429 1_655 S
C877 C878 1.523 . S
C878 C859 1.368 1_655 S
C878 C872 1.368 . S
C878 C877 1.523 . S
C879 C863 1.429 1_655 S
C879 C875 1.429 . S
C879 C880 1.523 . S
C880 C864 1.368 . S
C880 C876 1.368 1_655 S
C880 C879 1.523 . S
H881 C856 0.950 . S
H882 C858 0.950 . S
H883 C859 0.949 . S
H884 C861 0.950 . S
H885 C863 0.950 . S
C886 C887 1.400 . S
C886 C888 1.327 . S
C886 H911 0.950 . S
C887 C886 1.400 . S
C887 C903 1.301 1_565 S
C888 C886 1.327 . S
C888 C907 1.429 . S
C888 H912 0.950 . S
C889 C906 1.574 . S
C889 C908 1.368 1_545 S
C889 H913 0.949 . S
H890 C894 0.949 . S
C891 C892 1.349 1_545 S
C891 C893 1.327 . S
C891 H914 0.950 . S
C892 C891 1.349 1_565 S
C892 C904 1.349 . S
C893 C891 1.327 . S
C893 C909 1.429 1_545 S
C893 H915 0.950 . S
C894 H890 0.949 . S
C894 C902 1.574 . S
C894 C910 1.368 . S
H895 C903 0.950 . S
H896 C901 0.950 . S
H897 C902 0.949 . S
H898 C904 0.950 . S
H899 C905 0.950 . S
H900 C906 0.949 . S
C901 H896 0.950 . S
C901 C903 1.327 . S
C901 C907 1.429 1_545 S
C902 C894 1.574 . S
C902 H897 0.949 . S
C902 C908 1.368 . S
C903 C887 1.301 1_545 S
C903 H895 0.950 . S
C903 C901 1.327 . S
C904 C892 1.349 . S
C904 H898 0.950 . S
C904 C905 1.327 . S
C905 H899 0.950 . S
C905 C904 1.327 . S
C905 C909 1.429 . S
C906 C889 1.574 . S
C906 H900 0.949 . S
C906 C910 1.368 1_545 S
C907 C888 1.429 . S
C907 C901 1.429 1_565 S
C907 C908 1.523 . S
C908 C889 1.368 1_565 S
C908 C902 1.368 . S
C908 C907 1.523 . S
C909 C893 1.429 1_565 S
C909 C905 1.429 . S
C909 C910 1.523 . S
C910 C894 1.368 . S
C910 C906 1.368 1_565 S
C910 C909 1.523 . S
H911 C886 0.950 . S
H912 C888 0.950 . S
H913 C889 0.949 . S
H914 C891 0.950 . S
H915 C893 0.950 . S
C916 C917 1.349 . S
C916 C918 1.327 . S
C916 H941 0.950 . S
C917 C916 1.349 . S
C917 C933 1.349 . S
C918 C916 1.327 . S
C918 C937 1.429 . S
C918 H942 0.950 . S
C919 C936 1.574 . S
C919 C938 1.368 . S
C919 H943 0.949 . S
H920 C924 0.949 . S
C921 C922 1.349 . S
C921 C923 1.327 . S
C921 H944 0.950 . S
C922 C921 1.349 . S
C922 C934 1.349 . S
C923 C921 1.327 . S
C923 C939 1.429 . S
C923 H945 0.950 . S
C924 H920 0.949 . S
C924 C932 1.574 . S
C924 C940 1.368 . S
H925 C933 0.950 . S
H926 C931 0.950 . S
H927 C932 0.949 . S
H928 C934 0.950 . S
H929 C935 0.950 . S
H930 C936 0.949 . S
C931 H926 0.950 . S
C931 C933 1.327 . S
C931 C937 1.429 . S
C932 C924 1.574 . S
C932 H927 0.949 . S
C932 C938 1.368 . S
C933 C917 1.349 . S
C933 H925 0.950 . S
C933 C931 1.327 . S
C934 C922 1.349 . S
C934 H928 0.950 . S
C934 C935 1.327 . S
C935 H929 0.950 . S
C935 C934 1.327 . S
C935 C939 1.429 . S
C936 C919 1.574 . S
C936 H930 0.949 . S
C936 C940 1.368 . S
C937 C918 1.429 . S
C937 C931 1.429 . S
C937 C938 1.523 . S
C938 C919 1.368 . S
C938 C932 1.368 . S
C938 C937 1.523 . S
C939 C923 1.429 . S
C939 C935 1.429 . S
C939 C940 1.523 . S
C940 C924 1.368 . S
C940 C936 1.368 . S
C940 C939 1.523 . S
H941 C916 0.950 . S
H942 C918 0.950 . S
H943 C919 0.949 . S
H944 C921 0.950 . S
H945 C923 0.950 . S
C946 C947 1.349 . S
C946 C948 1.327 . S
C946 H971 0.950 . S
C947 C946 1.349 . S
C947 C963 1.349 . S
C948 C946 1.327 . S
C948 C967 1.429 . S
C948 H972 0.950 . S
C949 C966 1.574 . S
C949 C968 1.368 . S
C949 H973 0.949 . S
H950 C954 0.949 . S
C951 C952 1.349 . S
C951 C953 1.327 . S
C951 H974 0.950 . S
C952 C951 1.349 . S
C952 C964 1.349 . S
C953 C951 1.327 . S
C953 C969 1.429 . S
C953 H975 0.950 . S
C954 H950 0.949 . S
C954 C962 1.574 . S
C954 C970 1.368 . S
H955 C963 0.950 . S
H956 C961 0.950 . S
H957 C962 0.949 . S
H958 C964 0.950 . S
H959 C965 0.950 . S
H960 C966 0.949 . S
C961 H956 0.950 . S
C961 C963 1.327 . S
C961 C967 1.429 . S
C962 C954 1.574 . S
C962 H957 0.949 . S
C962 C968 1.368 . S
C963 C947 1.349 . S
C963 H955 0.950 . S
C963 C961 1.327 . S
C964 C952 1.349 . S
C964 H958 0.950 . S
C964 C965 1.327 . S
C965 H959 0.950 . S
C965 C964 1.327 . S
C965 C969 1.429 . S
C966 C949 1.574 . S
C966 H960 0.949 . S
C966 C970 1.368 . S
C967 C948 1.429 . S
C967 C961 1.429 . S
C967 C968 1.523 . S
C968 C949 1.368 . S
C968 C962 1.368 . S
C968 C967 1.523 . S
C969 C953 1.429 . S
C969 C965 1.429 . S
C969 C970 1.523 . S
C970 C954 1.368 . S
C970 C966 1.368 . S
C970 C969 1.523 . S
H971 C946 0.950 . S
H972 C948 0.950 . S
H973 C949 0.949 . S
H974 C951 0.950 . S
H975 C953 0.950 . S
C257 C76 1.726 . S
C262 C106 1.828 . S
C292 C146 1.829 . S
C287 C88 1.727 . S
C322 C186 1.828 . S
C317 C52 1.726 . S
C352 C226 1.828 . S
C347 C64 1.726 . S
C382 C115 1.832 . S
C377 C28 1.726 . S
C407 C40 1.727 . S
C412 C155 1.828 . S
C437 C4 1.727 . S
C442 C195 1.829 . S
C467 C16 1.726 . S
C472 C235 1.831 . S
C502 C112 0.324 . S
C497 C69 0.378 . S
C532 C152 0.324 . S
C527 C81 0.378 . S
C562 C192 0.324 . S
C557 C93 0.378 . S
C587 C57 0.378 . S
C592 C232 0.324 . S
C617 C21 0.392 1_655 S
C622 C103 0.324 . S
C652 C143 0.324 . S
C647 C33 0.391 1_565 S
C682 C183 0.324 . S
C677 C45 0.392 . S
C707 C9 0.392 . S
C712 C223 0.324 . S
C737 C66 1.881 . S
C742 C107 2.071 . S
C767 C78 1.881 . S
C772 C147 2.071 . S
C802 C187 2.071 . S
C797 C90 1.881 . S
C832 C227 2.071 . S
C827 C54 1.881 . S
C857 C18 1.882 1_655 S
C862 C98 2.071 . S
C892 C138 2.071 . S
C887 C30 1.881 1_565 S
C922 C178 2.070 . S
C917 C42 1.884 . S
C947 C6 1.884 . S
C952 C218 2.071 . S
