# Generated by pormake.
# Topology nom, (4,4)-cn, num edge types: 1
# Building blocks:
#     Node 0, Type 0, BuildingBlock: GIZVER_clean_linker_0, # of connection points: 4
#     Node 1, Type 0, BuildingBlock: GIZVER_clean_linker_0, # of connection points: 4
#     Node 2, Type 0, BuildingBlock: GIZVER_clean_linker_0, # of connection points: 4
#     Node 3, Type 0, BuildingBlock: GIZVER_clean_linker_0, # of connection points: 4
#     Node 4, Type 0, BuildingBlock: GIZVER_clean_linker_0, # of connection points: 4
#     Node 5, Type 0, BuildingBlock: GIZVER_clean_linker_0, # of connection points: 4
#     Node 6, Type 1, BuildingBlock: QUQFOY_clean_sbu_3, # of connection points: 4
#     Node 7, Type 1, BuildingBlock: QUQFOY_clean_sbu_3, # of connection points: 4
#     Node 8, Type 1, BuildingBlock: QUQFOY_clean_sbu_3, # of connection points: 4
#     Node 9, Type 1, BuildingBlock: QUQFOY_clean_sbu_3, # of connection points: 4
#     Node 10, Type 1, BuildingBlock: QUQFOY_clean_sbu_3, # of connection points: 4
#     Node 11, Type 1, BuildingBlock: QUQFOY_clean_sbu_3, # of connection points: 4
#     Edge 12, Type (0, 1), BuildingBlock: ZUJKAS_clean_linker_0, # of connection points: 2
#     Edge 13, Type (0, 1), BuildingBlock: ZUJKAS_clean_linker_0, # of connection points: 2
#     Edge 14, Type (0, 1), BuildingBlock: ZUJKAS_clean_linker_0, # of connection points: 2
#     Edge 15, Type (0, 1), BuildingBlock: ZUJKAS_clean_linker_0, # of connection points: 2
#     Edge 16, Type (0, 1), BuildingBlock: ZUJKAS_clean_linker_0, # of connection points: 2
#     Edge 17, Type (0, 1), BuildingBlock: ZUJKAS_clean_linker_0, # of connection points: 2
#     Edge 18, Type (0, 1), BuildingBlock: ZUJKAS_clean_linker_0, # of connection points: 2
#     Edge 19, Type (0, 1), BuildingBlock: ZUJKAS_clean_linker_0, # of connection points: 2
#     Edge 20, Type (0, 1), BuildingBlock: ZUJKAS_clean_linker_0, # of connection points: 2
#     Edge 21, Type (0, 1), BuildingBlock: ZUJKAS_clean_linker_0, # of connection points: 2
#     Edge 22, Type (0, 1), BuildingBlock: ZUJKAS_clean_linker_0, # of connection points: 2
#     Edge 23, Type (0, 1), BuildingBlock: ZUJKAS_clean_linker_0, # of connection points: 2
#     Edge 24, Type (0, 1), BuildingBlock: ZUJKAS_clean_linker_0, # of connection points: 2
#     Edge 25, Type (0, 1), BuildingBlock: ZUJKAS_clean_linker_0, # of connection points: 2
#     Edge 26, Type (0, 1), BuildingBlock: ZUJKAS_clean_linker_0, # of connection points: 2
#     Edge 27, Type (0, 1), BuildingBlock: ZUJKAS_clean_linker_0, # of connection points: 2
#     Edge 28, Type (0, 1), BuildingBlock: ZUJKAS_clean_linker_0, # of connection points: 2
#     Edge 29, Type (0, 1), BuildingBlock: ZUJKAS_clean_linker_0, # of connection points: 2
#     Edge 30, Type (0, 1), BuildingBlock: ZUJKAS_clean_linker_0, # of connection points: 2
#     Edge 31, Type (0, 1), BuildingBlock: ZUJKAS_clean_linker_0, # of connection points: 2
#     Edge 32, Type (0, 1), BuildingBlock: ZUJKAS_clean_linker_0, # of connection points: 2
#     Edge 33, Type (0, 1), BuildingBlock: ZUJKAS_clean_linker_0, # of connection points: 2
#     Edge 34, Type (0, 1), BuildingBlock: ZUJKAS_clean_linker_0, # of connection points: 2
#     Edge 35, Type (0, 1), BuildingBlock: ZUJKAS_clean_linker_0, # of connection points: 2
# Relax obj value: 0.004
# Max RMSD: 0.067
# Mean RMSD: 0.046
data_MOF--net-nom--node1-QUQFOY_clean_sbu_3--node2-GIZVER_clean_linker_0--edge1-ZUJKAS_clean_linker_0
_symmetry_space_group_name_H-M    P1
_symmetry_Int_Tables_number       1
_symmetry_cell_setting            triclinic
loop_
_symmetry_equiv_pos_as_xyz
'x, y, z'
_cell_length_a     60.381699
_cell_length_b     61.750657
_cell_length_c     59.423306
_cell_angle_alpha  90.042207
_cell_angle_beta   89.905064
_cell_angle_gamma 120.04973
loop_
_atom_site_label
_atom_site_type_symbol
_atom_site_fract_x
_atom_site_fract_y
_atom_site_fract_z
_atom_type_partial_charge
H0 H 0.96757 0.53273 0.34361 0.0
H1 H 0.98772 0.52972 0.27468 0.0
H2 H 0.9166 0.47138 0.3014 0.0
H3 H 0.00069 0.5698 0.32593 0.0
H4 H 0.00455 0.57047 0.29617 0.0
H5 H 0.02677 0.56014 0.35076 0.0
H6 H 0.09496 0.56608 0.32212 0.0
H7 H 0.03621 0.56199 0.27876 0.0
C8 C 0.96348 0.52284 0.32772 0.0
C9 C 0.94039 0.50014 0.32498 0.0
C10 C 0.98067 0.53355 0.30963 0.0
C11 C 0.97487 0.52112 0.2888 0.0
C12 C 0.95193 0.4984 0.2858 0.0
C13 C 0.93507 0.48797 0.30407 0.0
C14 C 0.00329 0.55968 0.31158 0.0
C15 C 0.02803 0.55953 0.31444 0.0
C16 C 0.03758 0.56015 0.33617 0.0
C17 C 0.062 0.56307 0.33901 0.0
C18 C 0.07597 0.56355 0.31997 0.0
C19 C 0.06702 0.56342 0.29821 0.0
C20 C 0.0429 0.56125 0.2955 0.0
H21 H 0.4307 0.96619 0.51314 0.0
H22 H 0.447 0.98474 0.44297 0.0
H23 H 0.43679 0.91509 0.46789 0.0
H24 H 0.42464 0.9988 0.49685 0.0
H25 H 0.42678 0.00348 0.46714 0.0
H26 H 0.46499 0.01758 0.52016 0.0
H27 H 0.52507 0.08761 0.49465 0.0
H28 H 0.46455 0.03755 0.45074 0.0
C29 C 0.43467 0.9617 0.49653 0.0
C30 C 0.43413 0.93892 0.49292 0.0
C31 C 0.43935 0.97831 0.47855 0.0
C32 C 0.44393 0.97221 0.4569 0.0
C33 C 0.4435 0.94956 0.45304 0.0
C34 C 0.43876 0.93324 0.47114 0.0
C35 C 0.43675 0.00117 0.48189 0.0
C36 C 0.46247 0.02446 0.48488 0.0
C37 C 0.47418 0.03026 0.50618 0.0
C38 C 0.49697 0.05294 0.50974 0.0
C39 C 0.50831 0.06947 0.49164 0.0
C40 C 0.49678 0.06423 0.47036 0.0
C41 C 0.47391 0.04152 0.46699 0.0
H42 H 0.43051 0.46898 0.63248 0.0
H43 H 0.4528 0.4696 0.70135 0.0
H44 H 0.44531 0.53061 0.6756 0.0
H45 H 0.42392 0.43079 0.64974 0.0
H46 H 0.42791 0.42973 0.6794 0.0
H47 H 0.4654 0.45325 0.62527 0.0
H48 H 0.52001 0.4319 0.64565 0.0
H49 H 0.46217 0.42448 0.69212 0.0
C50 C 0.43674 0.47848 0.64853 0.0
C51 C 0.43834 0.50179 0.65162 0.0
C52 C 0.44213 0.46686 0.6664 0.0
C53 C 0.44934 0.47885 0.68743 0.0
C54 C 0.45086 0.50207 0.6908 0.0
C55 C 0.44568 0.51346 0.67272 0.0
C56 C 0.43735 0.44054 0.66388 0.0
C57 C 0.46181 0.4402 0.65959 0.0
C58 C 0.47346 0.44691 0.63823 0.0
C59 C 0.49478 0.4444 0.63329 0.0
C60 C 0.50431 0.43502 0.64977 0.0
C61 C 0.49253 0.42755 0.67085 0.0
C62 C 0.47166 0.43075 0.67598 0.0
H63 H 0.96899 0.43235 0.79393 0.0
H64 H 0.00319 0.4705 0.85604 0.0
H65 H 0.92707 0.45329 0.83879 0.0
H66 H 0.00947 0.43807 0.80422 0.0
H67 H 0.01546 0.44072 0.83376 0.0
H68 H 0.02471 0.47971 0.78197 0.0
H69 H 0.1003 0.53601 0.80212 0.0
H70 H 0.05416 0.47512 0.84671 0.0
C71 C 0.96828 0.44196 0.80894 0.0
C72 C 0.94552 0.44168 0.81454 0.0
C73 C 0.98943 0.45284 0.82365 0.0
C74 C 0.9876 0.46347 0.84403 0.0
C75 C 0.96523 0.46394 0.84939 0.0
C76 C 0.94469 0.4537 0.83426 0.0
C77 C 0.01256 0.45022 0.81909 0.0
C78 C 0.03629 0.47527 0.81522 0.0
C79 C 0.03964 0.48773 0.7946 0.0
C80 C 0.06263 0.50984 0.78987 0.0
C81 C 0.08215 0.51947 0.80602 0.0
C82 C 0.07946 0.50697 0.82639 0.0
C83 C 0.0562 0.48517 0.83119 0.0
H84 H 0.5887 0.05147 0.01195 0.0
H85 H 0.558 0.02619 0.94556 0.0
H86 H 0.56923 0.09638 0.97078 0.0
H87 H 0.59007 0.01664 0.99587 0.0
H88 H 0.58667 0.0127 0.96608 0.0
H89 H 0.54707 0.99862 0.01917 0.0
H90 H 0.49344 0.92404 -0.00267 0.0
H91 H 0.55362 0.97368 0.95289 0.0
C92 C 0.58031 0.05371 -0.00335 0.0
C93 C 0.57857 0.07533 0.99362 0.0
C94 C 0.57243 0.03564 0.97945 0.0
C95 C 0.5631 0.03961 0.95911 0.0
C96 C 0.56174 0.06147 0.95579 0.0
C97 C 0.56894 0.07886 0.97342 0.0
C98 C 0.57696 0.0138 0.98161 0.0
C99 C 0.55233 0.98943 0.98517 0.0
C100 C 0.53966 0.98451 0.00607 0.0
C101 C 0.5181 0.96105 0.01036 0.0
C102 C 0.5094 0.94255 0.99371 0.0
C103 C 0.52224 0.94678 0.97314 0.0
C104 C 0.54333 0.97049 0.96863 0.0
H105 H 0.57681 0.54423 0.13972 0.0
H106 H 0.55054 0.53703 0.20809 0.0
H107 H 0.55977 0.47874 0.17809 0.0
H108 H 0.58507 0.58108 0.16126 0.0
H109 H 0.57638 0.5785 0.19019 0.0
H110 H 0.55336 0.57328 0.13135 0.0
H111 H 0.49219 0.5857 0.15093 0.0
H112 H 0.53543 0.57345 0.2016 0.0
C113 C 0.56955 0.53314 0.15491 0.0
C114 C 0.56794 0.50966 0.15628 0.0
C115 C 0.56327 0.54309 0.17357 0.0
C116 C 0.55469 0.52907 0.19353 0.0
C117 C 0.55303 0.50561 0.1952 0.0
C118 C 0.55932 0.49599 0.17639 0.0
C119 C 0.56929 0.56993 0.17335 0.0
C120 C 0.54628 0.57209 0.16713 0.0
C121 C 0.54123 0.57418 0.14436 0.0
C122 C 0.52194 0.57946 0.13853 0.0
C123 C 0.5068 0.5812 0.15552 0.0
C124 C 0.51142 0.57913 0.1783 0.0
C125 C 0.53119 0.57442 0.18404 0.0
C126 C 0.693 0.41502 0.41618 0.0
O127 O 0.68892 0.43126 0.42541 0.0
Cd128 Cd 0.64844 0.42651 0.4354 0.0
O129 O 0.67442 0.39324 0.41154 0.0
Cd130 Cd 0.62661 0.36968 0.41626 0.0
C131 C 0.61812 0.41036 0.38385 0.0
O132 O 0.62543 0.3867 0.45277 0.0
O133 O 0.58895 0.36555 0.43653 0.0
O134 O 0.62659 0.33156 0.42735 0.0
C135 C 0.60151 0.37808 0.45351 0.0
O136 O 0.62764 0.42581 0.40009 0.0
C137 C 0.61084 0.31761 0.41243 0.0
O138 O 0.61684 0.38912 0.38463 0.0
O139 O 0.6029 0.32804 0.39878 0.0
C140 C 0.28539 0.59483 0.56229 0.0
O141 O 0.26475 0.57863 0.55299 0.0
Cd142 Cd 0.22936 0.58386 0.543 0.0
O143 O 0.28897 0.61651 0.56711 0.0
Cd144 Cd 0.26468 0.63944 0.56302 0.0
C145 C 0.21457 0.59807 0.59488 0.0
O146 O 0.24631 0.62387 0.52579 0.0
O147 O 0.23052 0.64293 0.54438 0.0
O148 O 0.30413 0.67819 0.55352 0.0
C149 C 0.2309 0.63216 0.52637 0.0
O150 O 0.20812 0.58328 0.57811 0.0
C151 C 0.30103 0.69172 0.56785 0.0
O152 O 0.2354 0.61903 0.59468 0.0
O153 O 0.28147 0.68077 0.58047 0.0
C154 C 0.69555 0.27846 0.72586 0.0
O155 O 0.6914 0.25824 0.71656 0.0
Cd156 Cd 0.65075 0.223 0.70758 0.0
O157 O 0.67698 0.28188 0.73108 0.0
Cd158 Cd 0.62902 0.25831 0.7271 0.0
C159 C 0.62123 0.20939 0.7595 0.0
O160 O 0.62774 0.24041 0.69043 0.0
O161 O 0.59121 0.22581 0.70665 0.0
O162 O 0.62768 0.29609 0.71692 0.0
C163 C 0.60381 0.22576 0.68961 0.0
O164 O 0.63063 0.20315 0.74322 0.0
C165 C 0.61241 0.29418 0.73254 0.0
O166 O 0.61979 0.22928 0.75856 0.0
O167 O 0.60542 0.27597 0.74606 0.0
C168 C 0.32554 0.60068 0.92283 0.0
O169 O 0.33054 0.58584 0.93352 0.0
Cd170 Cd 0.37222 0.59145 0.93923 0.0
O171 O 0.34359 0.62128 0.91504 0.0
Cd172 Cd 0.39168 0.64496 0.91574 0.0
C173 C 0.39489 0.60071 0.88462 0.0
O174 O 0.39863 0.63278 0.95293 0.0
O175 O 0.43137 0.64901 0.93089 0.0
O176 O 0.39374 0.68421 0.92596 0.0
C177 C 0.42222 0.64036 0.95016 0.0
O178 O 0.38756 0.58723 0.90231 0.0
C179 C 0.40755 0.69679 0.90944 0.0
O180 O 0.39661 0.62215 0.88426 0.0
O181 O 0.41338 0.68505 0.89525 0.0
C182 C 0.72739 0.42709 0.05858 0.0
O183 O 0.74874 0.44448 0.05133 0.0
Cd184 Cd 0.78574 0.44204 0.0415 0.0
O185 O 0.7236 0.40496 0.06133 0.0
Cd186 Cd 0.74876 0.38294 0.05579 0.0
C187 C 0.79696 0.42084 0.09152 0.0
O188 O 0.77008 0.40412 0.02138 0.0
O189 O 0.78436 0.38184 0.03633 0.0
O190 O 0.71404 0.34456 0.03955 0.0
C191 C 0.78569 0.39612 0.02044 0.0
O192 O 0.80386 0.43798 0.07674 0.0
C193 C 0.71282 0.33024 0.05542 0.0
O194 O 0.77685 0.39957 0.08882 0.0
O195 O 0.72779 0.34051 0.07197 0.0
C196 C 0.31114 0.72772 0.21809 0.0
O197 O 0.31378 0.74779 0.20967 0.0
Cd198 Cd 0.3536 0.78526 0.20263 0.0
O199 O 0.33069 0.72614 0.22368 0.0
Cd200 Cd 0.37844 0.75274 0.22287 0.0
C201 C 0.37974 0.79872 0.2558 0.0
O202 O 0.38034 0.7713 0.18641 0.0
O203 O 0.41639 0.78635 0.20351 0.0
O204 O 0.38014 0.71474 0.21457 0.0
C205 C 0.40413 0.78674 0.18638 0.0
O206 O 0.37052 0.80456 0.23915 0.0
C207 C 0.39627 0.71807 0.22981 0.0
O208 O 0.38303 0.77988 0.25483 0.0
O209 O 0.40397 0.73743 0.242 0.0
H210 H 0.09601 0.54251 0.28664 0.0
H211 H 0.13599 0.56323 0.26509 0.0
H212 H 0.12068 0.62207 0.24695 0.0
H213 H 0.08066 0.60136 0.26831 0.0
H214 H 0.14836 0.60994 0.2129 0.0
H215 H 0.19043 0.62693 0.2989 0.0
H216 H 0.16971 0.59479 0.29118 0.0
H217 H 0.15682 0.61528 0.29421 0.0
C218 C 0.1007 0.55933 0.27729 0.0
C219 C 0.08541 0.57049 0.27931 0.0
C220 C 0.12357 0.57121 0.2651 0.0
C221 C 0.13152 0.59445 0.25492 0.0
C222 C 0.1149 0.60417 0.25479 0.0
H223 H 0.26557 0.72549 0.20954 0.0
H224 H 0.22257 0.6906 0.21616 0.0
C225 C 0.09195 0.59224 0.26689 0.0
C226 C 0.15844 0.61047 0.24769 0.0
H227 H 0.21881 0.6455 0.26881 0.0
C228 C 0.16385 0.61754 0.22503 0.0
C229 C 0.17855 0.6204 0.26362 0.0
C230 C 0.17372 0.61419 0.28838 0.0
C231 C 0.1889 0.63451 0.2179 0.0
C232 C 0.20887 0.64504 0.23398 0.0
C233 C 0.20351 0.63736 0.2565 0.0
C234 C 0.23504 0.66542 0.2283 0.0
C235 C 0.19373 0.64103 0.19325 0.0
C236 C 0.25648 0.66313 0.23344 0.0
C237 C 0.28124 0.68323 0.22994 0.0
C238 C 0.285 0.70607 0.22136 0.0
C239 C 0.26344 0.70818 0.21608 0.0
C240 C 0.23876 0.68813 0.21963 0.0
H241 H 0.17912 0.62581 0.18258 0.0
H242 H 0.19261 0.65815 0.19001 0.0
H243 H 0.21299 0.64468 0.18809 0.0
H244 H 0.25404 0.64585 0.24039 0.0
H245 H 0.29739 0.68094 0.23417 0.0
H246 H 0.54624 0.09316 0.45631 0.0
H247 H 0.56443 0.13401 0.43786 0.0
H248 H 0.48863 0.12281 0.42843 0.0
H249 H 0.47031 0.08204 0.4471 0.0
H250 H 0.55539 0.15526 0.39536 0.0
H251 H 0.52684 0.18149 0.47551 0.0
H252 H 0.52792 0.15295 0.47257 0.0
H253 H 0.50206 0.15536 0.46038 0.0
C254 C 0.53341 0.09906 0.44961 0.0
C255 C 0.50689 0.08456 0.45334 0.0
C256 C 0.54382 0.12236 0.43905 0.0
C257 C 0.52787 0.13153 0.43211 0.0
C258 C 0.50123 0.11606 0.4338 0.0
H259 H 0.57608 0.28278 0.38325 0.0
H260 H 0.55646 0.23716 0.38549 0.0
C261 C 0.49079 0.0927 0.44432 0.0
C262 C 0.53926 0.15844 0.42665 0.0
H263 H 0.54875 0.21339 0.44901 0.0
C264 C 0.55377 0.16799 0.40692 0.0
C265 C 0.53743 0.17499 0.44202 0.0
C266 C 0.5229 0.16585 0.46391 0.0
C267 C 0.56654 0.1938 0.40218 0.0
C268 C 0.56469 0.21028 0.4176 0.0
C269 C 0.55005 0.20065 0.43721 0.0
C270 C 0.57852 0.23777 0.41437 0.0
C271 C 0.58252 0.20341 0.38112 0.0
C272 C 0.59751 0.2532 0.42977 0.0
C273 C 0.60871 0.27918 0.42857 0.0
C274 C 0.60097 0.29028 0.41203 0.0
C275 C 0.58249 0.27481 0.39616 0.0
C276 C 0.57134 0.24876 0.39734 0.0
H277 H 0.5853 0.18883 0.3728 0.0
H278 H 0.57287 0.2097 0.36906 0.0
H279 H 0.60154 0.21977 0.38507 0.0
H280 H 0.60323 0.24505 0.4431 0.0
H281 H 0.62287 0.29052 0.44105 0.0
H282 H 0.39489 0.47768 0.62617 0.0
H283 H 0.37473 0.49696 0.60475 0.0
H284 H 0.43968 0.56998 0.61757 0.0
H285 H 0.46017 0.5508 0.63876 0.0
H286 H 0.39197 0.56281 0.63306 0.0
H287 H 0.38641 0.53392 0.54386 0.0
H288 H 0.37641 0.50895 0.56393 0.0
H289 H 0.40917 0.53378 0.5635 0.0
C290 C 0.40535 0.49775 0.62368 0.0
C291 C 0.42906 0.51273 0.63429 0.0
C292 C 0.39377 0.50876 0.61146 0.0
C293 C 0.40574 0.5349 0.60956 0.0
C294 C 0.43015 0.54977 0.61884 0.0
H295 H 0.33471 0.62556 0.57683 0.0
H296 H 0.36646 0.61351 0.58669 0.0
C297 C 0.44178 0.53879 0.63096 0.0
C298 C 0.39133 0.5467 0.60077 0.0
H299 H 0.35942 0.55009 0.55479 0.0
C300 C 0.38515 0.56038 0.61585 0.0
C301 C 0.38234 0.54329 0.5784 0.0
C302 C 0.38907 0.52937 0.56138 0.0
C303 C 0.36927 0.56985 0.60945 0.0
C304 C 0.35987 0.56612 0.58714 0.0
C305 C 0.36666 0.553 0.57187 0.0
C306 C 0.34153 0.57409 0.5798 0.0
C307 C 0.3617 0.58265 0.627 0.0
C308 C 0.31731 0.55614 0.57189 0.0
C309 C 0.2993 0.563 0.56597 0.0
C310 C 0.30507 0.58801 0.5679 0.0
C311 C 0.32955 0.60611 0.57538 0.0
C312 C 0.34769 0.59922 0.58111 0.0
H313 H 0.36533 0.57851 0.64435 0.0
H314 H 0.3731 0.6032 0.62451 0.0
H315 H 0.34112 0.57683 0.62555 0.0
H316 H 0.31212 0.53664 0.5707 0.0
H317 H 0.28068 0.54855 0.56023 0.0
H318 H 0.93754 0.43798 0.76859 0.0
H319 H 0.89677 0.41182 0.7488 0.0
H320 H 0.85871 0.38408 0.81254 0.0
H321 H 0.89897 0.40928 0.83215 0.0
H322 H 0.84751 0.34675 0.78126 0.0
H323 H 0.83456 0.42303 0.74564 0.0
H324 H 0.86438 0.42427 0.73956 0.0
H325 H 0.85701 0.42839 0.76796 0.0
C326 C 0.92043 0.42625 0.77828 0.0
C327 C 0.92139 0.42602 0.80193 0.0
C328 C 0.89716 0.41152 0.76701 0.0
C329 C 0.87465 0.39633 0.77925 0.0
C330 C 0.87577 0.39582 0.80277 0.0
H331 H 0.71265 0.32025 0.75253 0.0
H332 H 0.75702 0.34975 0.7633 0.0
C333 C 0.89882 0.41041 0.81396 0.0
C334 C 0.84977 0.38022 0.76799 0.0
H335 H 0.80203 0.38156 0.73832 0.0
C336 C 0.83765 0.35433 0.77167 0.0
C337 C 0.83685 0.39023 0.7558 0.0
C338 C 0.84867 0.41801 0.75207 0.0
C339 C 0.81279 0.33817 0.76388 0.0
C340 C 0.79985 0.34812 0.7516 0.0
C341 C 0.81206 0.374 0.74764 0.0
C342 C 0.77336 0.33185 0.74338 0.0
C343 C 0.80025 0.3107 0.76961 0.0
C344 C 0.76796 0.31249 0.72815 0.0
C345 C 0.74273 0.29554 0.72215 0.0
C346 C 0.72233 0.29776 0.73105 0.0
C347 C 0.72788 0.31793 0.74546 0.0
C348 C 0.75321 0.33483 0.75159 0.0
H349 H 0.81017 0.30719 0.78366 0.0
H350 H 0.77988 0.30309 0.77435 0.0
H351 H 0.80094 0.30025 0.75468 0.0
H352 H 0.78325 0.31016 0.72125 0.0
H353 H 0.73922 0.28046 0.71075 0.0
H354 H 0.50728 0.94061 0.9287 0.0
H355 H 0.48998 0.90162 0.90657 0.0
H356 H 0.50371 0.86541 0.96252 0.0
H357 H 0.52112 0.90398 0.98425 0.0
H358 H 0.51636 0.85336 0.921 0.0
H359 H 0.4186 0.84157 0.92104 0.0
H360 H 0.44424 0.86985 0.90914 0.0
H361 H 0.44378 0.86421 0.9388 0.0
C362 C 0.50697 0.92438 0.93597 0.0
C363 C 0.51522 0.92509 0.9582 0.0
C364 C 0.49694 0.90213 0.92345 0.0
C365 C 0.4952 0.8805 0.93305 0.0
C366 C 0.50479 0.8818 0.95478 0.0
H367 H 0.40052 0.72654 0.93908 0.0
H368 H 0.42149 0.77208 0.9391 0.0
C369 C 0.51465 0.90381 0.96721 0.0
C370 C 0.48209 0.85584 0.92158 0.0
H371 H 0.42235 0.80722 0.90987 0.0
C372 C 0.49589 0.84339 0.91803 0.0
C373 C 0.45534 0.84287 0.91794 0.0
C374 C 0.43946 0.85513 0.922 0.0
C375 C 0.48349 0.81789 0.91237 0.0
C376 C 0.45657 0.8046 0.90972 0.0
C377 C 0.44298 0.81746 0.91187 0.0
C378 C 0.44192 0.77689 0.90785 0.0
C379 C 0.49911 0.80501 0.91093 0.0
C380 C 0.44585 0.76434 0.88993 0.0
C381 C 0.43399 0.73817 0.88997 0.0
C382 C 0.41783 0.72414 0.90784 0.0
C383 C 0.41293 0.73675 0.92511 0.0
C384 C 0.42486 0.76282 0.92512 0.0
H385 H 0.51888 0.81696 0.91736 0.0
H386 H 0.48987 0.78727 0.92066 0.0
H387 H 0.50042 0.80041 0.8931 0.0
H388 H 0.45853 0.77478 0.8762 0.0
H389 H 0.43801 0.72901 0.87632 0.0
H390 H 0.54927 0.46189 0.14036 0.0
H391 H 0.57311 0.44621 0.11913 0.0
H392 H 0.63543 0.5217 0.11051 0.0
H393 H 0.61233 0.53745 0.13255 0.0
H394 H 0.59746 0.45432 0.07694 0.0
H395 H 0.66705 0.48805 0.14741 0.0
H396 H 0.63661 0.4868 0.14918 0.0
H397 H 0.66301 0.51218 0.13465 0.0
C398 C 0.56791 0.4752 0.13365 0.0
C399 C 0.57909 0.50089 0.13855 0.0
C400 C 0.58144 0.4662 0.12144 0.0
C401 C 0.6063 0.48274 0.1138 0.0
C402 C 0.61647 0.50858 0.11671 0.0
H403 H 0.73048 0.4726 0.0559 0.0
H404 H 0.69893 0.48382 0.06785 0.0
C405 C 0.60306 0.51759 0.12908 0.0
C406 C 0.62252 0.47292 0.10492 0.0
H407 H 0.67792 0.47251 0.11532 0.0
C408 C 0.615 0.45818 0.08534 0.0
C409 C 0.64516 0.47762 0.11618 0.0
C410 C 0.65336 0.4918 0.13814 0.0
C411 C 0.63008 0.44879 0.07631 0.0
C412 C 0.65307 0.45424 0.08721 0.0
C413 C 0.6603 0.46852 0.10697 0.0
C414 C 0.6707 0.44637 0.07799 0.0
C415 C 0.6218 0.43364 0.05493 0.0
C416 C 0.66515 0.42147 0.07967 0.0
C417 C 0.6833 0.41491 0.07297 0.0
C418 C 0.70725 0.43321 0.0645 0.0
C419 C 0.71231 0.45799 0.06237 0.0
C420 C 0.69428 0.46449 0.06914 0.0
H421 H 0.60469 0.43302 0.04735 0.0
H422 H 0.63765 0.44159 0.04246 0.0
H423 H 0.61722 0.4142 0.05858 0.0
H424 H 0.64711 0.40729 0.08673 0.0
H425 H 0.67877 0.39567 0.07482 0.0
H426 H 0.45292 0.90763 0.5019 0.0
H427 H 0.43195 0.86899 0.52367 0.0
H428 H 0.37592 0.88763 0.54715 0.0
H429 H 0.39577 0.92554 0.52414 0.0
H430 H 0.41813 0.85314 0.566 0.0
H431 H 0.33116 0.82377 0.51398 0.0
H432 H 0.36105 0.85175 0.50806 0.0
H433 H 0.34062 0.85148 0.53029 0.0
C434 C 0.43623 0.90363 0.51182 0.0
C435 C 0.42561 0.91936 0.51073 0.0
C436 C 0.42436 0.88159 0.52442 0.0
C437 C 0.40183 0.87495 0.53644 0.0
C438 C 0.39281 0.89196 0.5374 0.0
H439 H 0.29326 0.72633 0.58969 0.0
H440 H 0.31879 0.77197 0.5864 0.0
C441 C 0.40444 0.91387 0.52448 0.0
C442 C 0.38668 0.84929 0.54589 0.0
H443 H 0.32951 0.79492 0.54049 0.0
C444 C 0.39866 0.84049 0.5606 0.0
C445 C 0.36132 0.83264 0.53865 0.0
C446 C 0.34782 0.84024 0.52172 0.0
C447 C 0.38614 0.81547 0.56789 0.0
C448 C 0.36104 0.79891 0.56036 0.0
C449 C 0.34873 0.80783 0.54634 0.0
C450 C 0.34779 0.77174 0.56517 0.0
C451 C 0.3999 0.80671 0.58328 0.0
C452 C 0.35581 0.75658 0.55447 0.0
C453 C 0.34113 0.73052 0.55607 0.0
C454 C 0.31822 0.71919 0.56851 0.0
C455 C 0.31085 0.73449 0.58005 0.0
C456 C 0.3254 0.76055 0.57821 0.0
H457 H 0.41694 0.82263 0.5912 0.0
H458 H 0.38684 0.79443 0.59671 0.0
H459 H 0.40636 0.79561 0.57342 0.0
H460 H 0.37284 0.76488 0.54406 0.0
H461 H 0.34731 0.71926 0.547 0.0
H462 H 0.49092 0.38428 0.66086 0.0
H463 H 0.50929 0.36329 0.68201 0.0
H464 H 0.5307 0.41774 0.73522 0.0
H465 H 0.51229 0.43914 0.71368 0.0
H466 H 0.57081 0.41172 0.72082 0.0
H467 H 0.48675 0.319 0.73723 0.0
H468 H 0.48793 0.32725 0.70816 0.0
H469 H 0.48384 0.34576 0.72947 0.0
C470 C 0.49907 0.39147 0.67729 0.0
C471 C 0.50021 0.41325 0.68571 0.0
C472 C 0.50941 0.37937 0.68944 0.0
C473 C 0.52103 0.38868 0.71037 0.0
C474 C 0.52158 0.4101 0.7192 0.0
H475 H 0.58008 0.29504 0.76448 0.0
H476 H 0.5597 0.32079 0.76462 0.0
C477 C 0.51101 0.42222 0.707 0.0
C478 C 0.53469 0.37722 0.72148 0.0
H479 H 0.52758 0.32019 0.73409 0.0
C480 C 0.5613 0.39181 0.72428 0.0
C481 C 0.52229 0.35135 0.72641 0.0
C482 C 0.49358 0.33502 0.7254 0.0
C483 C 0.57602 0.38082 0.73008 0.0
C484 C 0.56386 0.35453 0.73267 0.0
C485 C 0.53704 0.34029 0.73171 0.0
C486 C 0.57852 0.34112 0.73428 0.0
C487 C 0.60453 0.39747 0.73283 0.0
C488 C 0.596 0.34404 0.71728 0.0
C489 C 0.60775 0.32946 0.71722 0.0
C490 C 0.60201 0.31138 0.73401 0.0
C491 C 0.58493 0.30882 0.75132 0.0
C492 C 0.57326 0.32353 0.75142 0.0
H493 H 0.60933 0.41643 0.73867 0.0
H494 H 0.61246 0.38948 0.74499 0.0
H495 H 0.61401 0.39964 0.7163 0.0
H496 H 0.59984 0.35693 0.70351 0.0
H497 H 0.62067 0.33179 0.70357 0.0
H498 H 0.12689 0.51775 0.81327 0.0
H499 H 0.16528 0.53295 0.83616 0.0
H500 H 0.12235 0.52973 0.89537 0.0
H501 H 0.08344 0.51459 0.87224 0.0
H502 H 0.1718 0.57646 0.88852 0.0
H503 H 0.17965 0.49101 0.88245 0.0
H504 H 0.17463 0.50153 0.85578 0.0
H505 H 0.15016 0.49092 0.87705 0.0
C506 C 0.12557 0.52034 0.83115 0.0
C507 C 0.10223 0.5152 0.84097 0.0
C508 C 0.14749 0.52885 0.84423 0.0
C509 C 0.14659 0.53227 0.86744 0.0
C510 C 0.12334 0.5271 0.87745 0.0
H511 H 0.28312 0.5621 0.94224 0.0
H512 H 0.23841 0.54678 0.93275 0.0
C513 C 0.10119 0.51838 0.8643 0.0
C514 C 0.17034 0.5417 0.88079 0.0
H515 H 0.21777 0.52881 0.89256 0.0
C516 C 0.18171 0.56594 0.88981 0.0
C517 C 0.18306 0.52783 0.88261 0.0
C518 C 0.17116 0.50128 0.87415 0.0
C519 C 0.20617 0.57715 0.89961 0.0
C520 C 0.21964 0.56385 0.90003 0.0
C521 C 0.2076 0.53913 0.89205 0.0
C522 C 0.24656 0.57531 0.90778 0.0
C523 C 0.21742 0.60316 0.90921 0.0
C524 C 0.26609 0.59669 0.89711 0.0
C525 C 0.29178 0.60563 0.90259 0.0
C526 C 0.29841 0.59311 0.91862 0.0
C527 C 0.27874 0.57213 0.92972 0.0
C528 C 0.25312 0.56335 0.92435 0.0
H529 H 0.20222 0.60737 0.91412 0.0
H530 H 0.22951 0.60563 0.92413 0.0
H531 H 0.22953 0.61697 0.89623 0.0
H532 H 0.26156 0.6059 0.88389 0.0
H533 H 0.30645 0.62174 0.89365 0.0
H534 H 0.5553 0.0914 0.02324 0.0
H535 H 0.57528 0.13214 0.04238 0.0
H536 H 0.64883 0.14897 0.01587 0.0
H537 H 0.62906 0.10778 -0.00199 0.0
H538 H 0.65511 0.1692 0.05562 0.0
H539 H 0.5918 0.19227 0.00599 0.0
H540 H 0.57485 0.16666 0.02508 0.0
H541 H 0.59236 0.16368 0.00186 0.0
C542 C 0.57585 0.10355 0.02226 0.0
C543 C 0.59077 0.09657 0.00939 0.0
C544 C 0.58721 0.12695 0.03286 0.0
C545 C 0.61346 0.14402 0.02998 0.0
C546 C 0.62855 0.13626 0.01829 0.0
H547 H 0.69054 0.30265 0.01789 0.0
H548 H 0.66555 0.25724 0.0146 0.0
C549 C 0.6173 0.1127 0.00815 0.0
C550 C 0.62508 0.17056 0.03736 0.0
H551 H 0.62155 0.2236 0.02981 0.0
C552 C 0.6477 0.18109 0.05009 0.0
C553 C 0.61561 0.1862 0.02988 0.0
C554 C 0.59249 0.17674 0.01478 0.0
C555 C 0.66156 0.20684 0.05489 0.0
C556 C 0.65198 0.22241 0.04753 0.0
C557 C 0.62885 0.21169 0.03554 0.0
C558 C 0.66662 0.25013 0.05017 0.0
C559 C 0.68699 0.21719 0.0667 0.0
C560 C 0.6753 0.26147 0.07132 0.0
C561 C 0.69013 0.28756 0.07316 0.0
C562 C 0.69592 0.30279 0.05397 0.0
C563 C 0.68634 0.29145 0.033 0.0
C564 C 0.67202 0.26544 0.03111 0.0
H565 H 0.6946 0.20414 0.06574 0.0
H566 H 0.70141 0.2354 0.05934 0.0
H567 H 0.68455 0.22012 0.08475 0.0
H568 H 0.67074 0.25019 0.08639 0.0
H569 H 0.69705 0.2958 0.08957 0.0
H570 H 0.46036 0.56339 0.18036 0.0
H571 H 0.441 0.58455 0.19995 0.0
H572 H 0.5119 0.63073 0.23505 0.0
H573 H 0.53184 0.61052 0.2145 0.0
H574 H 0.43219 0.59609 0.2418 0.0
H575 H 0.50551 0.6819 0.19783 0.0
H576 H 0.50145 0.65147 0.19214 0.0
H577 H 0.51808 0.66835 0.21703 0.0
C578 C 0.47169 0.5777 0.19261 0.0
C579 C 0.49781 0.58575 0.19544 0.0
C580 C 0.46056 0.58973 0.20388 0.0
C581 C 0.47527 0.60984 0.21837 0.0
C582 C 0.50043 0.61577 0.22339 0.0
H583 H 0.43644 0.72452 0.25591 0.0
H584 H 0.45534 0.69748 0.25777 0.0
C585 C 0.51171 0.60394 0.21188 0.0
C586 C 0.46515 0.62628 0.22562 0.0
H587 H 0.47402 0.68498 0.21809 0.0
C588 C 0.44151 0.61561 0.23689 0.0
C589 C 0.47719 0.65175 0.219 0.0
C590 C 0.50183 0.66406 0.20567 0.0
C591 C 0.42935 0.62954 0.24122 0.0
C592 C 0.4411 0.65471 0.23403 0.0
C593 C 0.46517 0.66569 0.22366 0.0
C594 C 0.42789 0.66946 0.23517 0.0
C595 C 0.40381 0.61714 0.25304 0.0
C596 C 0.40621 0.66263 0.22184 0.0
C597 C 0.39556 0.67813 0.22053 0.0
C598 C 0.40636 0.70075 0.23258 0.0
C599 C 0.42764 0.70719 0.24646 0.0
C600 C 0.43843 0.69177 0.24758 0.0
H601 H 0.40055 0.60032 0.26257 0.0
H602 H 0.40234 0.63036 0.2648 0.0
H603 H 0.38837 0.61116 0.24034 0.0
H604 H 0.39809 0.64573 0.21178 0.0
H605 H 0.37917 0.67264 0.2097 0.0
H606 H 0.92526 0.52754 0.35018 0.0
H607 H 0.88573 0.51171 0.37179 0.0
H608 H 0.86812 0.43598 0.35895 0.0
H609 H 0.9082 0.45169 0.33815 0.0
H610 H 0.84027 0.48434 0.35097 0.0
H611 H 0.84509 0.43062 0.42365 0.0
H612 H 0.87316 0.45261 0.40811 0.0
H613 H 0.85267 0.42161 0.39731 0.0
C614 C 0.91357 0.50755 0.35275 0.0
C615 C 0.91983 0.49087 0.34231 0.0
C616 C 0.89082 0.49851 0.36496 0.0
C617 C 0.87394 0.47265 0.36702 0.0
C618 C 0.88098 0.45599 0.35792 0.0
H619 H 0.71036 0.386 0.39625 0.0
H620 H 0.75453 0.39901 0.38523 0.0
C621 C 0.9038 0.46501 0.34583 0.0
C622 C 0.84765 0.46329 0.37577 0.0
H623 H 0.80363 0.42408 0.41422 0.0
C624 C 0.83239 0.47135 0.36495 0.0
C625 C 0.83724 0.44607 0.3938 0.0
C626 C 0.85296 0.43738 0.40654 0.0
C627 C 0.80701 0.46258 0.37154 0.0
C628 C 0.79662 0.44544 0.38955 0.0
C629 C 0.81171 0.43717 0.40035 0.0
C630 C 0.77037 0.43678 0.39778 0.0
C631 C 0.79133 0.47152 0.35904 0.0
C632 C 0.76488 0.45362 0.40876 0.0
C633 C 0.73984 0.44634 0.41503 0.0
C634 C 0.71969 0.42199 0.41043 0.0
C635 C 0.72538 0.4049 0.39995 0.0
C636 C 0.75058 0.41225 0.39372 0.0
H637 H 0.80038 0.48071 0.34286 0.0
H638 H 0.77182 0.45567 0.35557 0.0
H639 H 0.78934 0.48528 0.36961 0.0
H640 H 0.77997 0.47259 0.41214 0.0
H641 H 0.73627 0.45999 0.42318 0.0
H642 H 0.11018 0.60018 0.34829 0.0
H643 H 0.13291 0.60972 0.38385 0.0
H644 H 0.06547 0.5512 0.41635 0.0
H645 H 0.04263 0.54073 0.38013 0.0
H646 H 0.1233 0.62479 0.42383 0.0
H647 H 0.12037 0.53361 0.43271 0.0
H648 H 0.11181 0.5429 0.40687 0.0
H649 H 0.09004 0.53229 0.43028 0.0
C650 C 0.1002 0.58903 0.36289 0.0
C651 C 0.07479 0.56925 0.36129 0.0
C652 C 0.11316 0.59472 0.38328 0.0
C653 C 0.10103 0.58095 0.40267 0.0
C654 C 0.07533 0.56173 0.40146 0.0
H655 H 0.18824 0.63673 0.52855 0.0
H656 H 0.1542 0.62326 0.50058 0.0
C657 C 0.06227 0.55591 0.38086 0.0
C658 C 0.116 0.58691 0.42377 0.0
H659 H 0.14409 0.56459 0.45953 0.0
C660 C 0.12762 0.61156 0.43186 0.0
C661 C 0.12177 0.56965 0.43399 0.0
C662 C 0.11055 0.54317 0.42551 0.0
C663 C 0.14571 0.61977 0.44926 0.0
C664 C 0.15178 0.60261 0.45927 0.0
C665 C 0.13938 0.57768 0.4518 0.0
C666 C 0.1721 0.61048 0.4765 0.0
C667 C 0.15912 0.64704 0.45587 0.0
C668 C 0.19318 0.60723 0.47249 0.0
C669 C 0.21249 0.61459 0.48856 0.0
C670 C 0.21111 0.62543 0.50892 0.0
C671 C 0.19 0.62871 0.5129 0.0
C672 C 0.17055 0.62108 0.49691 0.0
H673 H 0.15695 0.65876 0.44286 0.0
H674 H 0.15068 0.64912 0.47175 0.0
H675 H 0.17984 0.65436 0.45868 0.0
H676 H 0.19474 0.59907 0.45684 0.0
H677 H 0.22847 0.61175 0.48506 0.0
H678 H 0.54667 0.07498 0.52359 0.0
H679 H 0.56445 0.09983 0.55778 0.0
H680 H 0.48825 0.07676 0.58142 0.0
H681 H 0.47035 0.05199 0.54722 0.0
H682 H 0.55327 0.13903 0.56507 0.0
H683 H 0.52664 0.07573 0.63907 0.0
H684 H 0.52791 0.06557 0.6108 0.0
H685 H 0.50134 0.06899 0.61945 0.0
C686 C 0.5337 0.07458 0.53642 0.0
C687 C 0.50714 0.06171 0.53269 0.0
C688 C 0.54387 0.08876 0.55592 0.0
C689 C 0.52766 0.09012 0.57209 0.0
C690 C 0.50106 0.07565 0.56929 0.0
H691 H 0.5532 0.19086 0.68416 0.0
H692 H 0.53437 0.15787 0.65556 0.0
C693 C 0.49085 0.06145 0.54976 0.0
C694 C 0.53856 0.10956 0.58978 0.0
H695 H 0.54408 0.11905 0.64657 0.0
C696 C 0.55144 0.13468 0.5829 0.0
C697 C 0.53571 0.10377 0.61296 0.0
C698 C 0.52232 0.07706 0.62113 0.0
C699 C 0.56145 0.15423 0.59859 0.0
C700 C 0.55903 0.14851 0.62181 0.0
C701 C 0.54595 0.12336 0.62874 0.0
C702 C 0.57037 0.16843 0.6391 0.0
C703 C 0.574 0.18084 0.59012 0.0
C704 C 0.59683 0.18519 0.63935 0.0
C705 C 0.60758 0.20413 0.65548 0.0
C706 C 0.5921 0.2065 0.67186 0.0
C707 C 0.5656 0.18958 0.67168 0.0
C708 C 0.55483 0.17068 0.65544 0.0
H709 H 0.56777 0.1818 0.57274 0.0
H710 H 0.5696 0.19265 0.60125 0.0
H711 H 0.59506 0.18885 0.5898 0.0
H712 H 0.60924 0.18347 0.62717 0.0
H713 H 0.62809 0.21669 0.6553 0.0
H714 H 0.47959 0.55126 0.70306 0.0
H715 H 0.47596 0.57009 0.73812 0.0
H716 H 0.42522 0.49669 0.76506 0.0
H717 H 0.42824 0.47772 0.72993 0.0
H718 H 0.42465 0.55906 0.75142 0.0
H719 H 0.47443 0.53692 0.81839 0.0
H720 H 0.48232 0.53802 0.78889 0.0
H721 H 0.45405 0.51156 0.79996 0.0
C722 C 0.46812 0.53911 0.71665 0.0
C723 C 0.45401 0.51301 0.71364 0.0
C724 C 0.46614 0.54989 0.73666 0.0
C725 C 0.45036 0.53476 0.75411 0.0
C726 C 0.43778 0.50865 0.75186 0.0
H727 H 0.38542 0.5533 0.87647 0.0
H728 H 0.39963 0.53862 0.84441 0.0
C729 C 0.43961 0.49784 0.73179 0.0
C730 C 0.44411 0.54616 0.77318 0.0
H731 H 0.44753 0.55258 0.83026 0.0
C732 C 0.42986 0.55793 0.76867 0.0
C733 C 0.45072 0.5443 0.79557 0.0
C734 C 0.46639 0.53219 0.80111 0.0
C735 C 0.42135 0.56731 0.78608 0.0
C736 C 0.42792 0.56547 0.80857 0.0
C737 C 0.44253 0.554 0.81302 0.0
C738 C 0.41915 0.57462 0.82777 0.0
C739 C 0.40455 0.57815 0.78025 0.0
C740 C 0.42541 0.59976 0.82908 0.0
C741 C 0.41698 0.60816 0.84726 0.0
C742 C 0.40255 0.59164 0.86466 0.0
C743 C 0.39648 0.56651 0.86335 0.0
C744 C 0.40467 0.5581 0.84507 0.0
H745 H 0.39558 0.57185 0.76343 0.0
H746 H 0.38916 0.57284 0.79294 0.0
H747 H 0.41636 0.59886 0.77987 0.0
H748 H 0.43707 0.61298 0.81619 0.0
H749 H 0.42226 0.62769 0.84791 0.0
H750 H 0.94866 0.49619 0.8608 0.0
H751 H 0.92537 0.49376 0.8953 0.0
H752 H 0.94562 0.44156 0.92324 0.0
H753 H 0.96917 0.44423 0.88893 0.0
H754 H 0.88437 0.4466 0.90252 0.0
H755 H 0.94443 0.47956 0.97926 0.0
H756 H 0.95736 0.48981 0.95132 0.0
H757 H 0.95095 0.45982 0.96155 0.0
C758 C 0.94923 0.48524 0.87479 0.0
C759 C 0.96053 0.47029 0.87222 0.0
C760 C 0.93586 0.48378 0.89444 0.0
C761 C 0.93366 0.46739 0.91179 0.0
C762 C 0.94739 0.45463 0.91025 0.0
H763 H 0.82251 0.38311 0.01485 0.0
H764 H 0.85903 0.40186 0.98894 0.0
C765 C 0.9609 0.45619 0.89061 0.0
C766 C 0.91291 0.45945 0.92862 0.0
H767 H 0.89948 0.45173 0.98484 0.0
C768 C 0.88771 0.44811 0.92053 0.0
C769 C 0.9173 0.46096 0.95206 0.0
C770 C 0.94399 0.47339 0.96161 0.0
C771 C 0.86672 0.43771 0.93519 0.0
C772 C 0.87105 0.43917 0.95866 0.0
C773 C 0.89625 0.45069 0.96683 0.0
C774 C 0.84951 0.42848 0.97485 0.0
C775 C 0.84009 0.42444 0.92536 0.0
C776 C 0.83221 0.43735 0.97557 0.0
C777 C 0.81122 0.42652 0.99011 0.0
C778 C 0.80734 0.4068 0.00442 0.0
C779 C 0.82492 0.39818 0.00393 0.0
C780 C 0.84585 0.40896 0.98926 0.0
H781 H 0.84015 0.41929 0.90745 0.0
H782 H 0.82733 0.40718 0.93498 0.0
H783 H 0.83193 0.43702 0.92616 0.0
H784 H 0.83494 0.45269 0.96485 0.0
H785 H 0.7982 0.43379 0.99028 0.0
H786 H 0.46774 0.93968 0.02141 0.0
H787 H 0.44769 0.91546 0.05549 0.0
H788 H 0.52225 0.93997 0.08388 0.0
H789 H 0.54235 0.96438 0.04986 0.0
H790 H 0.4585 0.87715 0.06436 0.0
H791 H 0.47979 0.93873 0.13895 0.0
H792 H 0.48103 0.94964 0.1105 0.0
H793 H 0.50675 0.94595 0.12118 0.0
C794 C 0.47979 0.94073 0.03534 0.0
C795 C 0.50655 0.95379 0.03304 0.0
C796 C 0.46835 0.92685 0.05474 0.0
C797 C 0.48348 0.92589 0.07218 0.0
C798 C 0.51022 0.94077 0.07078 0.0
H799 H 0.45454 0.82278 0.18251 0.0
H800 H 0.47371 0.85681 0.15492 0.0
C801 C 0.5217 0.95476 0.05136 0.0
C802 C 0.47157 0.90609 0.08952 0.0
H803 H 0.46312 0.89532 0.14607 0.0
C804 C 0.45928 0.88112 0.08222 0.0
C805 C 0.47305 0.91136 0.11278 0.0
C806 C 0.48568 0.93787 0.1214 0.0
C807 C 0.44863 0.86122 0.09755 0.0
C808 C 0.4498 0.86642 0.12083 0.0
C809 C 0.46219 0.89141 0.12819 0.0
C810 C 0.43814 0.84607 0.13771 0.0
C811 C 0.43683 0.83482 0.08867 0.0
C812 C 0.41178 0.82887 0.13722 0.0
C813 C 0.40083 0.80931 0.15277 0.0
C814 C 0.41601 0.80676 0.1693 0.0
C815 C 0.44238 0.82418 0.16991 0.0
C816 C 0.45334 0.84369 0.15425 0.0
H817 H 0.44373 0.83433 0.07144 0.0
H818 H 0.44117 0.82301 0.09985 0.0
H819 H 0.41575 0.82645 0.08789 0.0
H820 H 0.39963 0.83064 0.12485 0.0
H821 H 0.38042 0.79638 0.15201 0.0
H822 H 0.52475 0.45537 0.20421 0.0
H823 H 0.52719 0.43412 0.23809 0.0
H824 H 0.57531 0.50554 0.26967 0.0
H825 H 0.57345 0.52689 0.23585 0.0
H826 H 0.57585 0.44283 0.25226 0.0
H827 H 0.52624 0.4629 0.32071 0.0
H828 H 0.52002 0.4649 0.29126 0.0
H829 H 0.54783 0.48992 0.30453 0.0
C830 C 0.53536 0.46654 0.21858 0.0
C831 C 0.54906 0.49283 0.21726 0.0
C832 C 0.53667 0.45436 0.23791 0.0
C833 C 0.55134 0.46826 0.25638 0.0
C834 C 0.56351 0.49446 0.25574 0.0
H835 H 0.62468 0.45624 0.37356 0.0
H836 H 0.60619 0.46731 0.34228 0.0
C837 C 0.56235 0.50665 0.23638 0.0
C838 C 0.55709 0.4558 0.27487 0.0
H839 H 0.55592 0.44995 0.33198 0.0
C840 C 0.57113 0.44395 0.26968 0.0
C841 C 0.55101 0.4575 0.29751 0.0
C842 C 0.53524 0.46929 0.30389 0.0
C843 C 0.58045 0.43487 0.28667 0.0
C844 C 0.57502 0.43721 0.30942 0.0
C845 C 0.56012 0.44823 0.31453 0.0
C846 C 0.58607 0.42998 0.32824 0.0
C847 C 0.59715 0.42411 0.28014 0.0
C848 C 0.58094 0.40527 0.33073 0.0
C849 C 0.59178 0.3989 0.34851 0.0
C850 C 0.60762 0.41708 0.36427 0.0
C851 C 0.61257 0.44176 0.36174 0.0
C852 C 0.60194 0.44812 0.34391 0.0
H853 H 0.60434 0.42905 0.2626 0.0
H854 H 0.61382 0.43085 0.29162 0.0
H855 H 0.58585 0.40341 0.28135 0.0
H856 H 0.56835 0.39086 0.31908 0.0
H857 H 0.58735 0.37967 0.35013 0.0
H858 H 0.46957 0.92647 0.43875 0.0
H859 H 0.46366 0.90416 0.40322 0.0
H860 H 0.41368 0.93039 0.37972 0.0
H861 H 0.41913 0.95239 0.41533 0.0
H862 H 0.41274 0.8661 0.39055 0.0
H863 H 0.46002 0.93875 0.32443 0.0
H864 H 0.46849 0.94479 0.35385 0.0
H865 H 0.43987 0.94353 0.34371 0.0
C866 C 0.45774 0.9279 0.42583 0.0
C867 C 0.44466 0.94103 0.42991 0.0
C868 C 0.45444 0.91521 0.40555 0.0
C869 C 0.43829 0.91569 0.38888 0.0
C870 C 0.42653 0.9301 0.39227 0.0
H871 H 0.36932 0.83581 0.26625 0.0
H872 H 0.38409 0.86361 0.29885 0.0
C873 C 0.42973 0.94274 0.41261 0.0
C874 C 0.43118 0.89867 0.36932 0.0
H875 H 0.43261 0.89708 0.31198 0.0
C876 C 0.41727 0.87281 0.37336 0.0
C877 C 0.43694 0.90757 0.34699 0.0
C878 C 0.45232 0.93517 0.34187 0.0
C879 C 0.40834 0.85555 0.35559 0.0
C880 C 0.41407 0.86441 0.33318 0.0
C881 C 0.42825 0.89031 0.32917 0.0
C882 C 0.40496 0.84716 0.31364 0.0
C883 C 0.39207 0.82806 0.36099 0.0
C884 C 0.41181 0.82866 0.3111 0.0
C885 C 0.40314 0.81249 0.2926 0.0
C886 C 0.38778 0.81481 0.2761 0.0
C887 C 0.38109 0.83347 0.27865 0.0
C888 C 0.38958 0.84945 0.29724 0.0
H889 H 0.38368 0.82501 0.37815 0.0
H890 H 0.37626 0.81847 0.34867 0.0
H891 H 0.40412 0.81919 0.36028 0.0
H892 H 0.42414 0.8269 0.32329 0.0
H893 H 0.4089 0.79854 0.29102 0.0
H894 H 0.46843 0.42208 0.59508 0.0
H895 H 0.48682 0.41597 0.56049 0.0
H896 H 0.5627 0.46632 0.58534 0.0
H897 H 0.54443 0.47229 0.62001 0.0
H898 H 0.52667 0.4479 0.52613 0.0
H899 H 0.55373 0.39414 0.58394 0.0
H900 H 0.5309 0.40361 0.59165 0.0
H901 H 0.56456 0.42594 0.59207 0.0
C902 C 0.48898 0.43268 0.59271 0.0
C903 C 0.50508 0.44749 0.61021 0.0
C904 C 0.49945 0.42908 0.57301 0.0
C905 C 0.52608 0.44034 0.57065 0.0
C906 C 0.5421 0.45728 0.58704 0.0
H907 H 0.62532 0.40941 0.48884 0.0
H908 H 0.60662 0.42528 0.51618 0.0
C909 C 0.53167 0.46075 0.60674 0.0
C910 C 0.537 0.43145 0.55309 0.0
H911 H 0.56729 0.39776 0.54625 0.0
C912 C 0.53556 0.43694 0.53043 0.0
C913 C 0.54834 0.41696 0.55887 0.0
C914 C 0.54935 0.40958 0.58292 0.0
C915 C 0.54582 0.42877 0.51336 0.0
C916 C 0.55731 0.41442 0.5192 0.0
C917 C 0.55854 0.40884 0.54186 0.0
C918 C 0.56846 0.4051 0.50219 0.0
C919 C 0.54477 0.43599 0.48931 0.0
C920 C 0.55306 0.3881 0.48554 0.0
C921 C 0.56368 0.37893 0.46992 0.0
C922 C 0.58985 0.38651 0.47078 0.0
C923 C 0.6051 0.4032 0.48773 0.0
C924 C 0.59448 0.41236 0.50331 0.0
H925 H 0.54115 0.45192 0.48827 0.0
H926 H 0.5629 0.44114 0.48034 0.0
H927 H 0.52898 0.41981 0.48045 0.0
H928 H 0.53281 0.38179 0.48474 0.0
H929 H 0.55142 0.36603 0.45709 0.0
H930 H 0.05556 0.48572 0.74983 0.0
H931 H 0.07683 0.50483 0.71425 0.0
H932 H 0.10557 0.5782 0.743 0.0
H933 H 0.08423 0.55922 0.77864 0.0
H934 H 0.08082 0.54569 0.68345 0.0
H935 H 0.16898 0.56815 0.73147 0.0
H936 H 0.13739 0.54575 0.74144 0.0
H937 H 0.14855 0.57864 0.74333 0.0
C938 C 0.0655 0.50591 0.74828 0.0
C939 C 0.06852 0.52102 0.76705 0.0
C940 C 0.07775 0.5168 0.72799 0.0
C941 C 0.0931 0.54286 0.72623 0.0
C942 C 0.09401 0.55802 0.74419 0.0
H943 H 0.21787 0.62704 0.63117 0.0
H944 H 0.18749 0.6157 0.66236 0.0
C945 C 0.0818 0.54717 0.76448 0.0
C946 C 0.11096 0.55383 0.70708 0.0
H947 H 0.17401 0.57907 0.69328 0.0
C948 C 0.10122 0.55319 0.68555 0.0
C949 C 0.13753 0.56354 0.70998 0.0
C950 C 0.14886 0.56399 0.73274 0.0
C951 C 0.11747 0.56199 0.66671 0.0
C952 C 0.14398 0.57103 0.66952 0.0
C953 C 0.15371 0.57216 0.69117 0.0
C954 C 0.16184 0.57824 0.6502 0.0
C955 C 0.10611 0.56164 0.64403 0.0
C956 C 0.15776 0.56078 0.63329 0.0
C957 C 0.17502 0.56718 0.61547 0.0
C958 C 0.19693 0.59111 0.61434 0.0
C959 C 0.20123 0.60845 0.63154 0.0
C960 C 0.18384 0.60204 0.64932 0.0
H961 H 0.08796 0.56198 0.64574 0.0
H962 H 0.11963 0.57782 0.63356 0.0
H963 H 0.10175 0.54419 0.63505 0.0
H964 H 0.14135 0.54206 0.63399 0.0
H965 H 0.17119 0.5533 0.60262 0.0
H966 H 0.53365 0.08374 0.94504 0.0
H967 H 0.53546 0.10488 0.90967 0.0
H968 H 0.58168 0.07709 0.88016 0.0
H969 H 0.5804 0.05635 0.91545 0.0
H970 H 0.58411 0.14207 0.89371 0.0
H971 H 0.53197 0.06934 0.82893 0.0
H972 H 0.5263 0.06323 0.85875 0.0
H973 H 0.55366 0.0642 0.84569 0.0
C974 C 0.54367 0.08163 0.93083 0.0
C975 C 0.55706 0.06853 0.93313 0.0
C976 C 0.54462 0.09366 0.91064 0.0
C977 C 0.55864 0.09248 0.89231 0.0
C978 C 0.57038 0.07787 0.89398 0.0
H979 H 0.62773 0.1699 0.77012 0.0
H980 H 0.61057 0.14199 0.80249 0.0
C981 C 0.56957 0.06595 0.9142 0.0
C982 C 0.56428 0.10937 0.87281 0.0
H983 H 0.56117 0.11054 0.81554 0.0
C984 C 0.57876 0.13525 0.87662 0.0
C985 C 0.55746 0.10034 0.8506 0.0
C986 C 0.54129 0.07276 0.84568 0.0
C987 C 0.58761 0.15235 0.85872 0.0
C988 C 0.58121 0.14332 0.83641 0.0
C989 C 0.56608 0.11744 0.83265 0.0
C990 C 0.59118 0.16029 0.8167 0.0
C991 C 0.60475 0.1798 0.86384 0.0
C992 C 0.58588 0.17982 0.81387 0.0
C993 C 0.59596 0.19606 0.79549 0.0
C994 C 0.61119 0.19281 0.77942 0.0
C995 C 0.61613 0.17299 0.78218 0.0
C996 C 0.60625 0.15694 0.80064 0.0
H997 H 0.61297 0.18284 0.88104 0.0
H998 H 0.62071 0.18867 0.85154 0.0
H999 H 0.59343 0.18941 0.86278 0.0
H1000 H 0.57384 0.18243 0.82579 0.0
H1001 H 0.59152 0.21094 0.79372 0.0
H1002 H 0.51942 0.61998 0.12495 0.0
H1003 H 0.50859 0.6284 0.08783 0.0
H1004 H 0.50803 0.56293 0.06163 0.0
H1005 H 0.51805 0.55382 0.09941 0.0
H1006 H 0.53051 0.63695 0.04652 0.0
H1007 H 0.43614 0.54877 0.04722 0.0
H1008 H 0.45619 0.55997 0.07184 0.0
H1009 H 0.46401 0.54552 0.04933 0.0
C1010 C 0.51699 0.60733 0.1113 0.0
C1011 C 0.51891 0.58588 0.11515 0.0
C1012 C 0.51103 0.6123 0.09003 0.0
C1013 C 0.50701 0.59605 0.07205 0.0
C1014 C 0.51052 0.57542 0.07542 0.0
H1015 H 0.46807 0.64219 0.94427 0.0
H1016 H 0.49054 0.63015 0.97129 0.0
C1017 C 0.51643 0.57034 0.0969 0.0
C1018 C 0.49748 0.60031 0.05049 0.0
H1019 H 0.44361 0.57727 0.01828 0.0
C1020 C 0.51167 0.62377 0.04006 0.0
C1021 C 0.47279 0.58313 0.0423 0.0
C1022 C 0.45623 0.55799 0.05327 0.0
C1023 C 0.50133 0.63108 0.02249 0.0
C1024 C 0.47635 0.61416 0.01474 0.0
C1025 C 0.46272 0.5902 0.02433 0.0
C1026 C 0.46307 0.62156 -0.00188 0.0
C1027 C 0.51662 0.65737 0.01338 0.0
C1028 C 0.43993 0.6203 0.00408 0.0
C1029 C 0.42689 0.62681 0.9886 0.0
C1030 C 0.43681 0.63485 0.96688 0.0
C1031 C 0.4601 0.63633 0.96098 0.0
C1032 C 0.47301 0.62953 0.97641 0.0
H1033 H 0.53278 0.66967 0.02462 0.0
H1034 H 0.5247 0.65686 -0.00326 0.0
H1035 H 0.50431 0.66584 0.01111 0.0
H1036 H 0.43194 0.61424 0.02076 0.0
H1037 H 0.40898 0.62544 0.99363 0.0
H1038 H 0.92762 0.44887 0.27395 0.0
H1039 H 0.90457 0.43057 0.23884 0.0
H1040 H 0.93286 0.50449 0.21149 0.0
H1041 H 0.95553 0.5229 0.24652 0.0
H1042 H 0.86639 0.44101 0.22498 0.0
H1043 H 0.93918 0.46545 0.1581 0.0
H1044 H 0.94628 0.4654 0.18764 0.0
H1045 H 0.94496 0.49146 0.17564 0.0
C1046 C 0.9294 0.46121 0.26024 0.0
C1047 C 0.94327 0.48734 0.26307 0.0
C1048 C 0.91628 0.45072 0.24021 0.0
C1049 C 0.91712 0.46617 0.22256 0.0
C1050 C 0.93235 0.49222 0.22475 0.0
H1051 H 0.8368 0.46553 0.10538 0.0
H1052 H 0.86513 0.47346 0.13733 0.0
C1053 C 0.94537 0.50273 0.2448 0.0
C1054 C 0.89937 0.45547 0.20329 0.0
H1055 H 0.89694 0.45445 0.14595 0.0
C1056 C 0.873 0.44351 0.20768 0.0
C1057 C 0.90811 0.45892 0.18082 0.0
C1058 C 0.93618 0.4708 0.17521 0.0
C1059 C 0.85513 0.43607 0.19014 0.0
C1060 C 0.86392 0.44025 0.16762 0.0
C1061 C 0.89026 0.45134 0.16324 0.0
C1062 C 0.84631 0.43491 0.1484 0.0
C1063 C 0.82717 0.42505 0.19591 0.0
C1064 C 0.82625 0.41056 0.14404 0.0
C1065 C 0.80976 0.40597 0.12586 0.0
C1066 C 0.8133 0.42563 0.11157 0.0
C1067 C 0.83349 0.44995 0.11602 0.0
C1068 C 0.84979 0.45452 0.13423 0.0
H1069 H 0.82431 0.42834 0.2138 0.0
H1070 H 0.81812 0.43309 0.18506 0.0
H1071 H 0.81711 0.40455 0.19307 0.0
H1072 H 0.8235 0.39508 0.15453 0.0
H1073 H 0.79457 0.38699 0.12276 0.0
loop_
_geom_bond_atom_site_label_1
_geom_bond_atom_site_label_2
_geom_bond_distance
_geom_bond_site_symmetry_2
_ccdc_geom_bond_type
H0 C8 0.930 . S
H1 C11 0.930 . S
H2 C13 0.930 . S
H3 C14 0.970 . S
H4 C14 0.970 . S
H5 C16 0.930 . S
H6 C18 0.930 . S
H7 C20 0.930 . S
C8 H0 0.930 . S
C8 C9 1.382 . S
C8 C10 1.426 . S
C9 C8 1.382 . S
C9 C13 1.389 . S
C10 C8 1.426 . S
C10 C11 1.375 . S
C10 C14 1.532 1_655 S
C11 H1 0.930 . S
C11 C10 1.375 . S
C11 C12 1.416 . S
C12 C11 1.416 . S
C12 C13 1.371 . S
C13 H2 0.930 . S
C13 C9 1.389 . S
C13 C12 1.371 . S
C14 H3 0.970 . S
C14 H4 0.970 . S
C14 C10 1.532 1_455 S
C14 C15 1.499 . S
C15 C14 1.499 . S
C15 C16 1.370 . S
C15 C20 1.415 . S
C16 H5 0.930 . S
C16 C15 1.370 . S
C16 C17 1.407 . S
C17 C16 1.407 . S
C17 C18 1.365 . S
C18 H6 0.930 . S
C18 C17 1.365 . S
C18 C19 1.393 . S
C19 C18 1.393 . S
C19 C20 1.387 . S
C20 H7 0.930 . S
C20 C15 1.415 . S
C20 C19 1.387 . S
H21 C29 0.930 . S
H22 C32 0.930 . S
H23 C34 0.930 . S
H24 C35 0.970 . S
H25 C35 0.970 . S
H26 C37 0.930 . S
H27 C39 0.930 . S
H28 C41 0.930 . S
C29 H21 0.930 . S
C29 C30 1.382 . S
C29 C31 1.426 . S
C30 C29 1.382 . S
C30 C34 1.389 . S
C31 C29 1.426 . S
C31 C32 1.375 . S
C31 C35 1.532 1_565 S
C32 H22 0.930 . S
C32 C31 1.375 . S
C32 C33 1.416 . S
C33 C32 1.416 . S
C33 C34 1.371 . S
C34 H23 0.930 . S
C34 C30 1.389 . S
C34 C33 1.371 . S
C35 H24 0.970 . S
C35 H25 0.970 . S
C35 C31 1.532 1_545 S
C35 C36 1.499 . S
C36 C35 1.499 . S
C36 C37 1.370 . S
C36 C41 1.415 . S
C37 H26 0.930 . S
C37 C36 1.370 . S
C37 C38 1.407 . S
C38 C37 1.407 . S
C38 C39 1.365 . S
C39 H27 0.930 . S
C39 C38 1.365 . S
C39 C40 1.393 . S
C40 C39 1.393 . S
C40 C41 1.387 . S
C41 H28 0.930 . S
C41 C36 1.415 . S
C41 C40 1.387 . S
H42 C50 0.930 . S
H43 C53 0.930 . S
H44 C55 0.930 . S
H45 C56 0.970 . S
H46 C56 0.970 . S
H47 C58 0.930 . S
H48 C60 0.930 . S
H49 C62 0.930 . S
C50 H42 0.930 . S
C50 C51 1.382 . S
C50 C52 1.426 . S
C51 C50 1.382 . S
C51 C55 1.389 . S
C52 C50 1.426 . S
C52 C53 1.375 . S
C52 C56 1.532 . S
C53 H43 0.930 . S
C53 C52 1.375 . S
C53 C54 1.416 . S
C54 C53 1.416 . S
C54 C55 1.371 . S
C55 H44 0.930 . S
C55 C51 1.389 . S
C55 C54 1.371 . S
C56 H45 0.970 . S
C56 H46 0.970 . S
C56 C52 1.532 . S
C56 C57 1.499 . S
C57 C56 1.499 . S
C57 C58 1.370 . S
C57 C62 1.415 . S
C58 H47 0.930 . S
C58 C57 1.370 . S
C58 C59 1.407 . S
C59 C58 1.407 . S
C59 C60 1.365 . S
C60 H48 0.930 . S
C60 C59 1.365 . S
C60 C61 1.393 . S
C61 C60 1.393 . S
C61 C62 1.387 . S
C62 H49 0.930 . S
C62 C57 1.415 . S
C62 C61 1.387 . S
H63 C71 0.930 . S
H64 C74 0.930 . S
H65 C76 0.930 . S
H66 C77 0.970 . S
H67 C77 0.970 . S
H68 C79 0.930 . S
H69 C81 0.930 . S
H70 C83 0.930 . S
C71 H63 0.930 . S
C71 C72 1.382 . S
C71 C73 1.426 . S
C72 C71 1.382 . S
C72 C76 1.389 . S
C73 C71 1.426 . S
C73 C74 1.375 . S
C73 C77 1.532 1_655 S
C74 H64 0.930 . S
C74 C73 1.375 . S
C74 C75 1.416 . S
C75 C74 1.416 . S
C75 C76 1.371 . S
C76 H65 0.930 . S
C76 C72 1.389 . S
C76 C75 1.371 . S
C77 H66 0.970 . S
C77 H67 0.970 . S
C77 C73 1.532 1_455 S
C77 C78 1.499 . S
C78 C77 1.499 . S
C78 C79 1.370 . S
C78 C83 1.415 . S
C79 H68 0.930 . S
C79 C78 1.370 . S
C79 C80 1.407 . S
C80 C79 1.407 . S
C80 C81 1.365 . S
C81 H69 0.930 . S
C81 C80 1.365 . S
C81 C82 1.393 . S
C82 C81 1.393 . S
C82 C83 1.387 . S
C83 H70 0.930 . S
C83 C78 1.415 . S
C83 C82 1.387 . S
H84 C92 0.930 . S
H85 C95 0.930 . S
H86 C97 0.930 . S
H87 C98 0.970 1_554 S
H88 C98 0.970 . S
H89 C100 0.930 . S
H90 C102 0.930 . S
H91 C104 0.930 . S
C92 H84 0.930 . S
C92 C93 1.382 1_554 S
C92 C94 1.426 1_554 S
C93 C92 1.382 1_556 S
C93 C97 1.389 . S
C94 C92 1.426 1_556 S
C94 C95 1.375 . S
C94 C98 1.532 . S
C95 H85 0.930 . S
C95 C94 1.375 . S
C95 C96 1.416 . S
C96 C95 1.416 . S
C96 C97 1.371 . S
C97 H86 0.930 . S
C97 C93 1.389 . S
C97 C96 1.371 . S
C98 H87 0.970 1_556 S
C98 H88 0.970 . S
C98 C94 1.532 . S
C98 C99 1.499 1_545 S
C99 C98 1.499 1_565 S
C99 C100 1.370 1_556 S
C99 C104 1.415 . S
C100 H89 0.930 . S
C100 C99 1.370 1_554 S
C100 C101 1.407 . S
C101 C100 1.407 . S
C101 C102 1.365 . S
C102 H90 0.930 . S
C102 C101 1.365 . S
C102 C103 1.393 1_554 S
C103 C102 1.393 1_556 S
C103 C104 1.387 . S
C104 H91 0.930 . S
C104 C99 1.415 . S
C104 C103 1.387 . S
H105 C113 0.930 . S
H106 C116 0.930 . S
H107 C118 0.930 . S
H108 C119 0.970 . S
H109 C119 0.970 . S
H110 C121 0.930 . S
H111 C123 0.930 . S
H112 C125 0.930 . S
C113 H105 0.930 . S
C113 C114 1.382 . S
C113 C115 1.426 . S
C114 C113 1.382 . S
C114 C118 1.389 . S
C115 C113 1.426 . S
C115 C116 1.375 . S
C115 C119 1.532 . S
C116 H106 0.930 . S
C116 C115 1.375 . S
C116 C117 1.416 . S
C117 C116 1.416 . S
C117 C118 1.371 . S
C118 H107 0.930 . S
C118 C114 1.389 . S
C118 C117 1.371 . S
C119 H108 0.970 . S
C119 H109 0.970 . S
C119 C115 1.532 . S
C119 C120 1.499 . S
C120 C119 1.499 . S
C120 C121 1.370 . S
C120 C125 1.415 . S
C121 H110 0.930 . S
C121 C120 1.370 . S
C121 C122 1.407 . S
C122 C121 1.407 . S
C122 C123 1.365 . S
C123 H111 0.930 . S
C123 C122 1.365 . S
C123 C124 1.393 . S
C124 C123 1.393 . S
C124 C125 1.387 . S
C125 H112 0.930 . S
C125 C120 1.415 . S
C125 C124 1.387 . S
C126 O127 1.306 . S
C126 O129 1.160 . S
O127 C126 1.306 . S
O127 Cd128 2.228 . S
Cd128 O127 2.228 . S
Cd128 O132 2.273 . S
Cd128 O136 2.277 . S
O129 C126 1.160 . S
O129 Cd130 2.203 . S
Cd130 O129 2.203 . S
Cd130 O132 2.411 . S
Cd130 O133 2.333 . S
Cd130 O134 2.352 . S
Cd130 O138 2.277 . S
Cd130 O139 2.356 . S
C131 O136 1.209 . S
C131 O138 1.226 . S
O132 Cd128 2.273 . S
O132 Cd130 2.411 . S
O132 C135 1.320 . S
O133 Cd130 2.333 . S
O133 C135 1.214 . S
O134 Cd130 2.352 . S
O134 C137 1.258 . S
C135 O132 1.320 . S
C135 O133 1.214 . S
O136 Cd128 2.277 . S
O136 C131 1.209 . S
C137 O134 1.258 . S
C137 O139 1.282 . S
O138 Cd130 2.277 . S
O138 C131 1.226 . S
O139 Cd130 2.356 . S
O139 C137 1.282 . S
C140 O141 1.306 . S
C140 O143 1.160 . S
O141 C140 1.306 . S
O141 Cd142 2.228 . S
Cd142 O141 2.228 . S
Cd142 O146 2.273 . S
Cd142 O150 2.277 . S
O143 C140 1.160 . S
O143 Cd144 2.203 . S
Cd144 O143 2.203 . S
Cd144 O146 2.411 . S
Cd144 O147 2.333 . S
Cd144 O148 2.352 . S
Cd144 O152 2.277 . S
Cd144 O153 2.356 . S
C145 O150 1.209 . S
C145 O152 1.226 . S
O146 Cd142 2.273 . S
O146 Cd144 2.411 . S
O146 C149 1.320 . S
O147 Cd144 2.333 . S
O147 C149 1.214 . S
O148 Cd144 2.352 . S
O148 C151 1.258 . S
C149 O146 1.320 . S
C149 O147 1.214 . S
O150 Cd142 2.277 . S
O150 C145 1.209 . S
C151 O148 1.258 . S
C151 O153 1.282 . S
O152 Cd144 2.277 . S
O152 C145 1.226 . S
O153 Cd144 2.356 . S
O153 C151 1.282 . S
C154 O155 1.306 . S
C154 O157 1.160 . S
O155 C154 1.306 . S
O155 Cd156 2.228 . S
Cd156 O155 2.228 . S
Cd156 O160 2.273 . S
Cd156 O164 2.277 . S
O157 C154 1.160 . S
O157 Cd158 2.203 . S
Cd158 O157 2.203 . S
Cd158 O160 2.411 . S
Cd158 O161 2.333 . S
Cd158 O162 2.352 . S
Cd158 O166 2.277 . S
Cd158 O167 2.356 . S
C159 O164 1.209 . S
C159 O166 1.226 . S
O160 Cd156 2.273 . S
O160 Cd158 2.411 . S
O160 C163 1.320 . S
O161 Cd158 2.333 . S
O161 C163 1.214 . S
O162 Cd158 2.352 . S
O162 C165 1.258 . S
C163 O160 1.320 . S
C163 O161 1.214 . S
O164 Cd156 2.277 . S
O164 C159 1.209 . S
C165 O162 1.258 . S
C165 O167 1.282 . S
O166 Cd158 2.277 . S
O166 C159 1.226 . S
O167 Cd158 2.356 . S
O167 C165 1.282 . S
C168 O169 1.306 . S
C168 O171 1.160 . S
O169 C168 1.306 . S
O169 Cd170 2.228 . S
Cd170 O169 2.228 . S
Cd170 O174 2.273 . S
Cd170 O178 2.277 . S
O171 C168 1.160 . S
O171 Cd172 2.203 . S
Cd172 O171 2.203 . S
Cd172 O174 2.411 . S
Cd172 O175 2.333 . S
Cd172 O176 2.352 . S
Cd172 O180 2.277 . S
Cd172 O181 2.356 . S
C173 O178 1.209 . S
C173 O180 1.226 . S
O174 Cd170 2.273 . S
O174 Cd172 2.411 . S
O174 C177 1.320 . S
O175 Cd172 2.333 . S
O175 C177 1.214 . S
O176 Cd172 2.352 . S
O176 C179 1.258 . S
C177 O174 1.320 . S
C177 O175 1.214 . S
O178 Cd170 2.277 . S
O178 C173 1.209 . S
C179 O176 1.258 . S
C179 O181 1.282 . S
O180 Cd172 2.277 . S
O180 C173 1.226 . S
O181 Cd172 2.356 . S
O181 C179 1.282 . S
C182 O183 1.306 . S
C182 O185 1.160 . S
O183 C182 1.306 . S
O183 Cd184 2.228 . S
Cd184 O183 2.228 . S
Cd184 O188 2.273 . S
Cd184 O192 2.277 . S
O185 C182 1.160 . S
O185 Cd186 2.203 . S
Cd186 O185 2.203 . S
Cd186 O188 2.411 . S
Cd186 O189 2.333 . S
Cd186 O190 2.352 . S
Cd186 O194 2.277 . S
Cd186 O195 2.356 . S
C187 O192 1.209 . S
C187 O194 1.226 . S
O188 Cd184 2.273 . S
O188 Cd186 2.411 . S
O188 C191 1.320 . S
O189 Cd186 2.333 . S
O189 C191 1.214 . S
O190 Cd186 2.352 . S
O190 C193 1.258 . S
C191 O188 1.320 . S
C191 O189 1.214 . S
O192 Cd184 2.277 . S
O192 C187 1.209 . S
C193 O190 1.258 . S
C193 O195 1.282 . S
O194 Cd186 2.277 . S
O194 C187 1.226 . S
O195 Cd186 2.356 . S
O195 C193 1.282 . S
C196 O197 1.306 . S
C196 O199 1.160 . S
O197 C196 1.306 . S
O197 Cd198 2.228 . S
Cd198 O197 2.228 . S
Cd198 O202 2.273 . S
Cd198 O206 2.277 . S
O199 C196 1.160 . S
O199 Cd200 2.203 . S
Cd200 O199 2.203 . S
Cd200 O202 2.411 . S
Cd200 O203 2.333 . S
Cd200 O204 2.352 . S
Cd200 O208 2.277 . S
Cd200 O209 2.356 . S
C201 O206 1.209 . S
C201 O208 1.226 . S
O202 Cd198 2.273 . S
O202 Cd200 2.411 . S
O202 C205 1.320 . S
O203 Cd200 2.333 . S
O203 C205 1.214 . S
O204 Cd200 2.352 . S
O204 C207 1.258 . S
C205 O202 1.320 . S
C205 O203 1.214 . S
O206 Cd198 2.277 . S
O206 C201 1.209 . S
C207 O204 1.258 . S
C207 O209 1.282 . S
O208 Cd200 2.277 . S
O208 C201 1.226 . S
O209 Cd200 2.356 . S
O209 C207 1.282 . S
H210 C218 0.929 . S
H211 C220 0.930 . S
H212 C222 0.930 . S
H213 C225 0.929 . S
H214 C228 0.930 . S
H215 C230 0.960 . S
H216 C230 0.960 . S
H217 C230 0.960 . S
C218 H210 0.929 . S
C218 C219 1.377 . S
C218 C220 1.384 . S
C219 C218 1.377 . S
C219 C225 1.390 . S
C220 H211 0.930 . S
C220 C218 1.384 . S
C220 C221 1.372 . S
C221 C220 1.372 . S
C221 C222 1.400 . S
C221 C226 1.490 . S
C222 H212 0.930 . S
C222 C221 1.400 . S
C222 C225 1.386 . S
H223 C239 0.930 . S
H224 C240 0.931 . S
C225 H213 0.929 . S
C225 C219 1.390 . S
C225 C222 1.386 . S
C226 C221 1.490 . S
C226 C228 1.395 . S
C226 C229 1.403 . S
H227 C233 0.930 . S
C228 H214 0.930 . S
C228 C226 1.395 . S
C228 C231 1.403 . S
C229 C226 1.403 . S
C229 C230 1.524 . S
C229 C233 1.400 . S
C230 H215 0.960 . S
C230 H216 0.960 . S
C230 H217 0.960 . S
C230 C229 1.524 . S
C231 C228 1.403 . S
C231 C232 1.392 . S
C231 C235 1.495 . S
C232 C231 1.392 . S
C232 C233 1.385 . S
C232 C234 1.478 . S
C233 H227 0.930 . S
C233 C229 1.400 . S
C233 C232 1.385 . S
C234 C232 1.478 . S
C234 C236 1.381 . S
C234 C240 1.383 . S
C235 C231 1.495 . S
C235 H241 0.959 . S
C235 H242 0.961 . S
C235 H243 0.960 . S
C236 C234 1.381 . S
C236 C237 1.394 . S
C236 H244 0.930 . S
C237 C236 1.394 . S
C237 C238 1.383 . S
C237 H245 0.929 . S
C238 C237 1.383 . S
C238 C239 1.377 . S
C239 H223 0.930 . S
C239 C238 1.377 . S
C239 C240 1.379 . S
C240 H224 0.931 . S
C240 C234 1.383 . S
C240 C239 1.379 . S
H241 C235 0.959 . S
H242 C235 0.961 . S
H243 C235 0.960 . S
H244 C236 0.930 . S
H245 C237 0.929 . S
H246 C254 0.929 . S
H247 C256 0.930 . S
H248 C258 0.930 . S
H249 C261 0.929 . S
H250 C264 0.930 . S
H251 C266 0.960 . S
H252 C266 0.960 . S
H253 C266 0.960 . S
C254 H246 0.929 . S
C254 C255 1.377 . S
C254 C256 1.384 . S
C255 C254 1.377 . S
C255 C261 1.390 . S
C256 H247 0.930 . S
C256 C254 1.384 . S
C256 C257 1.372 . S
C257 C256 1.372 . S
C257 C258 1.400 . S
C257 C262 1.490 . S
C258 H248 0.930 . S
C258 C257 1.400 . S
C258 C261 1.386 . S
H259 C275 0.930 . S
H260 C276 0.931 . S
C261 H249 0.929 . S
C261 C255 1.390 . S
C261 C258 1.386 . S
C262 C257 1.490 . S
C262 C264 1.395 . S
C262 C265 1.403 . S
H263 C269 0.930 . S
C264 H250 0.930 . S
C264 C262 1.395 . S
C264 C267 1.403 . S
C265 C262 1.403 . S
C265 C266 1.524 . S
C265 C269 1.400 . S
C266 H251 0.960 . S
C266 H252 0.960 . S
C266 H253 0.960 . S
C266 C265 1.524 . S
C267 C264 1.403 . S
C267 C268 1.392 . S
C267 C271 1.495 . S
C268 C267 1.392 . S
C268 C269 1.385 . S
C268 C270 1.478 . S
C269 H263 0.930 . S
C269 C265 1.400 . S
C269 C268 1.385 . S
C270 C268 1.478 . S
C270 C272 1.381 . S
C270 C276 1.383 . S
C271 C267 1.495 . S
C271 H277 0.959 . S
C271 H278 0.961 . S
C271 H279 0.960 . S
C272 C270 1.381 . S
C272 C273 1.394 . S
C272 H280 0.930 . S
C273 C272 1.394 . S
C273 C274 1.383 . S
C273 H281 0.929 . S
C274 C273 1.383 . S
C274 C275 1.377 . S
C275 H259 0.930 . S
C275 C274 1.377 . S
C275 C276 1.379 . S
C276 H260 0.931 . S
C276 C270 1.383 . S
C276 C275 1.379 . S
H277 C271 0.959 . S
H278 C271 0.961 . S
H279 C271 0.960 . S
H280 C272 0.930 . S
H281 C273 0.929 . S
H282 C290 0.929 . S
H283 C292 0.930 . S
H284 C294 0.930 . S
H285 C297 0.929 . S
H286 C300 0.930 . S
H287 C302 0.960 . S
H288 C302 0.960 . S
H289 C302 0.960 . S
C290 H282 0.929 . S
C290 C291 1.377 . S
C290 C292 1.384 . S
C291 C290 1.377 . S
C291 C297 1.390 . S
C292 H283 0.930 . S
C292 C290 1.384 . S
C292 C293 1.372 . S
C293 C292 1.372 . S
C293 C294 1.400 . S
C293 C298 1.490 . S
C294 H284 0.930 . S
C294 C293 1.400 . S
C294 C297 1.386 . S
H295 C311 0.930 . S
H296 C312 0.931 . S
C297 H285 0.929 . S
C297 C291 1.390 . S
C297 C294 1.386 . S
C298 C293 1.490 . S
C298 C300 1.395 . S
C298 C301 1.403 . S
H299 C305 0.930 . S
C300 H286 0.930 . S
C300 C298 1.395 . S
C300 C303 1.403 . S
C301 C298 1.403 . S
C301 C302 1.524 . S
C301 C305 1.400 . S
C302 H287 0.960 . S
C302 H288 0.960 . S
C302 H289 0.960 . S
C302 C301 1.524 . S
C303 C300 1.403 . S
C303 C304 1.392 . S
C303 C307 1.495 . S
C304 C303 1.392 . S
C304 C305 1.385 . S
C304 C306 1.478 . S
C305 H299 0.930 . S
C305 C301 1.400 . S
C305 C304 1.385 . S
C306 C304 1.478 . S
C306 C308 1.381 . S
C306 C312 1.383 . S
C307 C303 1.495 . S
C307 H313 0.959 . S
C307 H314 0.961 . S
C307 H315 0.960 . S
C308 C306 1.381 . S
C308 C309 1.394 . S
C308 H316 0.930 . S
C309 C308 1.394 . S
C309 C310 1.383 . S
C309 H317 0.929 . S
C310 C309 1.383 . S
C310 C311 1.377 . S
C311 H295 0.930 . S
C311 C310 1.377 . S
C311 C312 1.379 . S
C312 H296 0.931 . S
C312 C306 1.383 . S
C312 C311 1.379 . S
H313 C307 0.959 . S
H314 C307 0.961 . S
H315 C307 0.960 . S
H316 C308 0.930 . S
H317 C309 0.929 . S
H318 C326 0.929 . S
H319 C328 0.930 . S
H320 C330 0.930 . S
H321 C333 0.929 . S
H322 C336 0.930 . S
H323 C338 0.960 . S
H324 C338 0.960 . S
H325 C338 0.960 . S
C326 H318 0.929 . S
C326 C327 1.377 . S
C326 C328 1.384 . S
C327 C326 1.377 . S
C327 C333 1.390 . S
C328 H319 0.930 . S
C328 C326 1.384 . S
C328 C329 1.372 . S
C329 C328 1.372 . S
C329 C330 1.400 . S
C329 C334 1.490 . S
C330 H320 0.930 . S
C330 C329 1.400 . S
C330 C333 1.386 . S
H331 C347 0.930 . S
H332 C348 0.931 . S
C333 H321 0.929 . S
C333 C327 1.390 . S
C333 C330 1.386 . S
C334 C329 1.490 . S
C334 C336 1.395 . S
C334 C337 1.403 . S
H335 C341 0.930 . S
C336 H322 0.930 . S
C336 C334 1.395 . S
C336 C339 1.403 . S
C337 C334 1.403 . S
C337 C338 1.524 . S
C337 C341 1.400 . S
C338 H323 0.960 . S
C338 H324 0.960 . S
C338 H325 0.960 . S
C338 C337 1.524 . S
C339 C336 1.403 . S
C339 C340 1.392 . S
C339 C343 1.495 . S
C340 C339 1.392 . S
C340 C341 1.385 . S
C340 C342 1.478 . S
C341 H335 0.930 . S
C341 C337 1.400 . S
C341 C340 1.385 . S
C342 C340 1.478 . S
C342 C344 1.381 . S
C342 C348 1.383 . S
C343 C339 1.495 . S
C343 H349 0.959 . S
C343 H350 0.961 . S
C343 H351 0.960 . S
C344 C342 1.381 . S
C344 C345 1.394 . S
C344 H352 0.930 . S
C345 C344 1.394 . S
C345 C346 1.383 . S
C345 H353 0.929 . S
C346 C345 1.383 . S
C346 C347 1.377 . S
C347 H331 0.930 . S
C347 C346 1.377 . S
C347 C348 1.379 . S
C348 H332 0.931 . S
C348 C342 1.383 . S
C348 C347 1.379 . S
H349 C343 0.959 . S
H350 C343 0.961 . S
H351 C343 0.960 . S
H352 C344 0.930 . S
H353 C345 0.929 . S
H354 C362 0.929 . S
H355 C364 0.930 . S
H356 C366 0.930 . S
H357 C369 0.929 1_554 S
H358 C372 0.930 . S
H359 C374 0.960 . S
H360 C374 0.960 . S
H361 C374 0.960 . S
C362 H354 0.929 . S
C362 C363 1.377 . S
C362 C364 1.384 . S
C363 C362 1.377 . S
C363 C369 1.390 . S
C364 H355 0.930 . S
C364 C362 1.384 . S
C364 C365 1.372 . S
C365 C364 1.372 . S
C365 C366 1.400 . S
C365 C370 1.490 . S
C366 H356 0.930 . S
C366 C365 1.400 . S
C366 C369 1.386 . S
H367 C383 0.930 . S
H368 C384 0.931 . S
C369 H357 0.929 1_556 S
C369 C363 1.390 . S
C369 C366 1.386 . S
C370 C365 1.490 . S
C370 C372 1.395 . S
C370 C373 1.403 . S
H371 C377 0.930 . S
C372 H358 0.930 . S
C372 C370 1.395 . S
C372 C375 1.403 . S
C373 C370 1.403 . S
C373 C374 1.524 . S
C373 C377 1.400 . S
C374 H359 0.960 . S
C374 H360 0.960 . S
C374 H361 0.960 . S
C374 C373 1.524 . S
C375 C372 1.403 . S
C375 C376 1.392 . S
C375 C379 1.495 . S
C376 C375 1.392 . S
C376 C377 1.385 . S
C376 C378 1.478 . S
C377 H371 0.930 . S
C377 C373 1.400 . S
C377 C376 1.385 . S
C378 C376 1.478 . S
C378 C380 1.381 . S
C378 C384 1.383 . S
C379 C375 1.495 . S
C379 H385 0.959 . S
C379 H386 0.961 . S
C379 H387 0.960 . S
C380 C378 1.381 . S
C380 C381 1.394 . S
C380 H388 0.930 . S
C381 C380 1.394 . S
C381 C382 1.383 . S
C381 H389 0.929 . S
C382 C381 1.383 . S
C382 C383 1.377 . S
C383 H367 0.930 . S
C383 C382 1.377 . S
C383 C384 1.379 . S
C384 H368 0.931 . S
C384 C378 1.383 . S
C384 C383 1.379 . S
H385 C379 0.959 . S
H386 C379 0.961 . S
H387 C379 0.960 . S
H388 C380 0.930 . S
H389 C381 0.929 . S
H390 C398 0.929 . S
H391 C400 0.930 . S
H392 C402 0.930 . S
H393 C405 0.929 . S
H394 C408 0.930 . S
H395 C410 0.960 . S
H396 C410 0.960 . S
H397 C410 0.960 . S
C398 H390 0.929 . S
C398 C399 1.377 . S
C398 C400 1.384 . S
C399 C398 1.377 . S
C399 C405 1.390 . S
C400 H391 0.930 . S
C400 C398 1.384 . S
C400 C401 1.372 . S
C401 C400 1.372 . S
C401 C402 1.400 . S
C401 C406 1.490 . S
C402 H392 0.930 . S
C402 C401 1.400 . S
C402 C405 1.386 . S
H403 C419 0.930 . S
H404 C420 0.931 . S
C405 H393 0.929 . S
C405 C399 1.390 . S
C405 C402 1.386 . S
C406 C401 1.490 . S
C406 C408 1.395 . S
C406 C409 1.403 . S
H407 C413 0.930 . S
C408 H394 0.930 . S
C408 C406 1.395 . S
C408 C411 1.403 . S
C409 C406 1.403 . S
C409 C410 1.524 . S
C409 C413 1.400 . S
C410 H395 0.960 . S
C410 H396 0.960 . S
C410 H397 0.960 . S
C410 C409 1.524 . S
C411 C408 1.403 . S
C411 C412 1.392 . S
C411 C415 1.495 . S
C412 C411 1.392 . S
C412 C413 1.385 . S
C412 C414 1.478 . S
C413 H407 0.930 . S
C413 C409 1.400 . S
C413 C412 1.385 . S
C414 C412 1.478 . S
C414 C416 1.381 . S
C414 C420 1.383 . S
C415 C411 1.495 . S
C415 H421 0.959 . S
C415 H422 0.961 . S
C415 H423 0.960 . S
C416 C414 1.381 . S
C416 C417 1.394 . S
C416 H424 0.930 . S
C417 C416 1.394 . S
C417 C418 1.383 . S
C417 H425 0.929 . S
C418 C417 1.383 . S
C418 C419 1.377 . S
C419 H403 0.930 . S
C419 C418 1.377 . S
C419 C420 1.379 . S
C420 H404 0.931 . S
C420 C414 1.383 . S
C420 C419 1.379 . S
H421 C415 0.959 . S
H422 C415 0.961 . S
H423 C415 0.960 . S
H424 C416 0.930 . S
H425 C417 0.929 . S
H426 C434 0.929 . S
H427 C436 0.930 . S
H428 C438 0.930 . S
H429 C441 0.929 . S
H430 C444 0.930 . S
H431 C446 0.960 . S
H432 C446 0.960 . S
H433 C446 0.960 . S
C434 H426 0.929 . S
C434 C435 1.377 . S
C434 C436 1.384 . S
C435 C434 1.377 . S
C435 C441 1.390 . S
C436 H427 0.930 . S
C436 C434 1.384 . S
C436 C437 1.372 . S
C437 C436 1.372 . S
C437 C438 1.400 . S
C437 C442 1.490 . S
C438 H428 0.930 . S
C438 C437 1.400 . S
C438 C441 1.386 . S
H439 C455 0.930 . S
H440 C456 0.931 . S
C441 H429 0.929 . S
C441 C435 1.390 . S
C441 C438 1.386 . S
C442 C437 1.490 . S
C442 C444 1.395 . S
C442 C445 1.403 . S
H443 C449 0.930 . S
C444 H430 0.930 . S
C444 C442 1.395 . S
C444 C447 1.403 . S
C445 C442 1.403 . S
C445 C446 1.524 . S
C445 C449 1.400 . S
C446 H431 0.960 . S
C446 H432 0.960 . S
C446 H433 0.960 . S
C446 C445 1.524 . S
C447 C444 1.403 . S
C447 C448 1.392 . S
C447 C451 1.495 . S
C448 C447 1.392 . S
C448 C449 1.385 . S
C448 C450 1.478 . S
C449 H443 0.930 . S
C449 C445 1.400 . S
C449 C448 1.385 . S
C450 C448 1.478 . S
C450 C452 1.381 . S
C450 C456 1.383 . S
C451 C447 1.495 . S
C451 H457 0.959 . S
C451 H458 0.961 . S
C451 H459 0.960 . S
C452 C450 1.381 . S
C452 C453 1.394 . S
C452 H460 0.930 . S
C453 C452 1.394 . S
C453 C454 1.383 . S
C453 H461 0.929 . S
C454 C453 1.383 . S
C454 C455 1.377 . S
C455 H439 0.930 . S
C455 C454 1.377 . S
C455 C456 1.379 . S
C456 H440 0.931 . S
C456 C450 1.383 . S
C456 C455 1.379 . S
H457 C451 0.959 . S
H458 C451 0.961 . S
H459 C451 0.960 . S
H460 C452 0.930 . S
H461 C453 0.929 . S
H462 C470 0.929 . S
H463 C472 0.930 . S
H464 C474 0.930 . S
H465 C477 0.929 . S
H466 C480 0.930 . S
H467 C482 0.960 . S
H468 C482 0.960 . S
H469 C482 0.960 . S
C470 H462 0.929 . S
C470 C471 1.377 . S
C470 C472 1.384 . S
C471 C470 1.377 . S
C471 C477 1.390 . S
C472 H463 0.930 . S
C472 C470 1.384 . S
C472 C473 1.372 . S
C473 C472 1.372 . S
C473 C474 1.400 . S
C473 C478 1.490 . S
C474 H464 0.930 . S
C474 C473 1.400 . S
C474 C477 1.386 . S
H475 C491 0.930 . S
H476 C492 0.931 . S
C477 H465 0.929 . S
C477 C471 1.390 . S
C477 C474 1.386 . S
C478 C473 1.490 . S
C478 C480 1.395 . S
C478 C481 1.403 . S
H479 C485 0.930 . S
C480 H466 0.930 . S
C480 C478 1.395 . S
C480 C483 1.403 . S
C481 C478 1.403 . S
C481 C482 1.524 . S
C481 C485 1.400 . S
C482 H467 0.960 . S
C482 H468 0.960 . S
C482 H469 0.960 . S
C482 C481 1.524 . S
C483 C480 1.403 . S
C483 C484 1.392 . S
C483 C487 1.495 . S
C484 C483 1.392 . S
C484 C485 1.385 . S
C484 C486 1.478 . S
C485 H479 0.930 . S
C485 C481 1.400 . S
C485 C484 1.385 . S
C486 C484 1.478 . S
C486 C488 1.381 . S
C486 C492 1.383 . S
C487 C483 1.495 . S
C487 H493 0.959 . S
C487 H494 0.961 . S
C487 H495 0.960 . S
C488 C486 1.381 . S
C488 C489 1.394 . S
C488 H496 0.930 . S
C489 C488 1.394 . S
C489 C490 1.383 . S
C489 H497 0.929 . S
C490 C489 1.383 . S
C490 C491 1.377 . S
C491 H475 0.930 . S
C491 C490 1.377 . S
C491 C492 1.379 . S
C492 H476 0.931 . S
C492 C486 1.383 . S
C492 C491 1.379 . S
H493 C487 0.959 . S
H494 C487 0.961 . S
H495 C487 0.960 . S
H496 C488 0.930 . S
H497 C489 0.929 . S
H498 C506 0.929 . S
H499 C508 0.930 . S
H500 C510 0.930 . S
H501 C513 0.929 . S
H502 C516 0.930 . S
H503 C518 0.960 . S
H504 C518 0.960 . S
H505 C518 0.960 . S
C506 H498 0.929 . S
C506 C507 1.377 . S
C506 C508 1.384 . S
C507 C506 1.377 . S
C507 C513 1.390 . S
C508 H499 0.930 . S
C508 C506 1.384 . S
C508 C509 1.372 . S
C509 C508 1.372 . S
C509 C510 1.400 . S
C509 C514 1.490 . S
C510 H500 0.930 . S
C510 C509 1.400 . S
C510 C513 1.386 . S
H511 C527 0.930 . S
H512 C528 0.931 . S
C513 H501 0.929 . S
C513 C507 1.390 . S
C513 C510 1.386 . S
C514 C509 1.490 . S
C514 C516 1.395 . S
C514 C517 1.403 . S
H515 C521 0.930 . S
C516 H502 0.930 . S
C516 C514 1.395 . S
C516 C519 1.403 . S
C517 C514 1.403 . S
C517 C518 1.524 . S
C517 C521 1.400 . S
C518 H503 0.960 . S
C518 H504 0.960 . S
C518 H505 0.960 . S
C518 C517 1.524 . S
C519 C516 1.403 . S
C519 C520 1.392 . S
C519 C523 1.495 . S
C520 C519 1.392 . S
C520 C521 1.385 . S
C520 C522 1.478 . S
C521 H515 0.930 . S
C521 C517 1.400 . S
C521 C520 1.385 . S
C522 C520 1.478 . S
C522 C524 1.381 . S
C522 C528 1.383 . S
C523 C519 1.495 . S
C523 H529 0.959 . S
C523 H530 0.961 . S
C523 H531 0.960 . S
C524 C522 1.381 . S
C524 C525 1.394 . S
C524 H532 0.930 . S
C525 C524 1.394 . S
C525 C526 1.383 . S
C525 H533 0.929 . S
C526 C525 1.383 . S
C526 C527 1.377 . S
C527 H511 0.930 . S
C527 C526 1.377 . S
C527 C528 1.379 . S
C528 H512 0.931 . S
C528 C522 1.383 . S
C528 C527 1.379 . S
H529 C523 0.959 . S
H530 C523 0.961 . S
H531 C523 0.960 . S
H532 C524 0.930 . S
H533 C525 0.929 . S
H534 C542 0.929 . S
H535 C544 0.930 . S
H536 C546 0.905 1_556 S
H537 C549 0.929 . S
H538 C552 0.930 . S
H539 C554 0.960 . S
H540 C554 0.960 . S
H541 C554 0.960 . S
C542 H534 0.929 . S
C542 C543 1.377 . S
C542 C544 1.384 . S
C543 C542 1.377 . S
C543 C549 1.390 1_554 S
C544 H535 0.930 . S
C544 C542 1.384 . S
C544 C545 1.372 . S
C545 C544 1.372 . S
C545 C546 1.436 . S
C545 C550 1.490 . S
C546 H536 0.905 1_554 S
C546 C545 1.436 . S
C546 C549 1.376 1_554 S
H547 C563 0.930 . S
H548 C564 0.931 . S
C549 H537 0.929 . S
C549 C543 1.390 1_556 S
C549 C546 1.376 1_556 S
C550 C545 1.490 . S
C550 C552 1.395 . S
C550 C553 1.403 . S
H551 C557 0.930 . S
C552 H538 0.930 . S
C552 C550 1.395 . S
C552 C555 1.403 . S
C553 C550 1.403 . S
C553 C554 1.524 1_554 S
C553 C557 1.400 . S
C554 H539 0.960 . S
C554 H540 0.960 . S
C554 H541 0.960 . S
C554 C553 1.524 1_556 S
C555 C552 1.403 . S
C555 C556 1.392 . S
C555 C559 1.495 . S
C556 C555 1.392 . S
C556 C557 1.385 . S
C556 C558 1.478 . S
C557 H551 0.930 . S
C557 C553 1.400 . S
C557 C556 1.385 . S
C558 C556 1.478 . S
C558 C560 1.381 . S
C558 C564 1.383 . S
C559 C555 1.495 . S
C559 H565 0.959 . S
C559 H566 0.961 . S
C559 H567 0.960 . S
C560 C558 1.381 . S
C560 C561 1.394 . S
C560 H568 0.930 . S
C561 C560 1.394 . S
C561 C562 1.383 . S
C561 H569 0.929 . S
C562 C561 1.383 . S
C562 C563 1.377 . S
C563 H547 0.930 . S
C563 C562 1.377 . S
C563 C564 1.379 . S
C564 H548 0.931 . S
C564 C558 1.383 . S
C564 C563 1.379 . S
H565 C559 0.959 . S
H566 C559 0.961 . S
H567 C559 0.960 . S
H568 C560 0.930 . S
H569 C561 0.929 . S
H570 C578 0.929 . S
H571 C580 0.930 . S
H572 C582 0.930 . S
H573 C585 0.929 . S
H574 C588 0.930 . S
H575 C590 0.960 . S
H576 C590 0.960 . S
H577 C590 0.960 . S
C578 H570 0.929 . S
C578 C579 1.377 . S
C578 C580 1.384 . S
C579 C578 1.377 . S
C579 C585 1.390 . S
C580 H571 0.930 . S
C580 C578 1.384 . S
C580 C581 1.372 . S
C581 C580 1.372 . S
C581 C582 1.400 . S
C581 C586 1.490 . S
C582 H572 0.930 . S
C582 C581 1.400 . S
C582 C585 1.386 . S
H583 C599 0.930 . S
H584 C600 0.931 . S
C585 H573 0.929 . S
C585 C579 1.390 . S
C585 C582 1.386 . S
C586 C581 1.490 . S
C586 C588 1.395 . S
C586 C589 1.403 . S
H587 C593 0.930 . S
C588 H574 0.930 . S
C588 C586 1.395 . S
C588 C591 1.403 . S
C589 C586 1.403 . S
C589 C590 1.524 . S
C589 C593 1.400 . S
C590 H575 0.960 . S
C590 H576 0.960 . S
C590 H577 0.960 . S
C590 C589 1.524 . S
C591 C588 1.403 . S
C591 C592 1.392 . S
C591 C595 1.495 . S
C592 C591 1.392 . S
C592 C593 1.385 . S
C592 C594 1.478 . S
C593 H587 0.930 . S
C593 C589 1.400 . S
C593 C592 1.385 . S
C594 C592 1.478 . S
C594 C596 1.381 . S
C594 C600 1.383 . S
C595 C591 1.495 . S
C595 H601 0.959 . S
C595 H602 0.961 . S
C595 H603 0.960 . S
C596 C594 1.381 . S
C596 C597 1.394 . S
C596 H604 0.930 . S
C597 C596 1.394 . S
C597 C598 1.383 . S
C597 H605 0.929 . S
C598 C597 1.383 . S
C598 C599 1.377 . S
C599 H583 0.930 . S
C599 C598 1.377 . S
C599 C600 1.379 . S
C600 H584 0.931 . S
C600 C594 1.383 . S
C600 C599 1.379 . S
H601 C595 0.959 . S
H602 C595 0.961 . S
H603 C595 0.960 . S
H604 C596 0.930 . S
H605 C597 0.929 . S
H606 C614 0.929 . S
H607 C616 0.930 . S
H608 C618 0.930 . S
H609 C621 0.929 . S
H610 C624 0.930 . S
H611 C626 0.960 . S
H612 C626 0.960 . S
H613 C626 0.960 . S
C614 H606 0.929 . S
C614 C615 1.377 . S
C614 C616 1.384 . S
C615 C614 1.377 . S
C615 C621 1.390 . S
C616 H607 0.930 . S
C616 C614 1.384 . S
C616 C617 1.372 . S
C617 C616 1.372 . S
C617 C618 1.400 . S
C617 C622 1.490 . S
C618 H608 0.930 . S
C618 C617 1.400 . S
C618 C621 1.386 . S
H619 C635 0.930 . S
H620 C636 0.931 . S
C621 H609 0.929 . S
C621 C615 1.390 . S
C621 C618 1.386 . S
C622 C617 1.490 . S
C622 C624 1.395 . S
C622 C625 1.403 . S
H623 C629 0.930 . S
C624 H610 0.930 . S
C624 C622 1.395 . S
C624 C627 1.403 . S
C625 C622 1.403 . S
C625 C626 1.524 . S
C625 C629 1.400 . S
C626 H611 0.960 . S
C626 H612 0.960 . S
C626 H613 0.960 . S
C626 C625 1.524 . S
C627 C624 1.403 . S
C627 C628 1.392 . S
C627 C631 1.495 . S
C628 C627 1.392 . S
C628 C629 1.385 . S
C628 C630 1.478 . S
C629 H623 0.930 . S
C629 C625 1.400 . S
C629 C628 1.385 . S
C630 C628 1.478 . S
C630 C632 1.381 . S
C630 C636 1.383 . S
C631 C627 1.495 . S
C631 H637 0.959 . S
C631 H638 0.961 . S
C631 H639 0.960 . S
C632 C630 1.381 . S
C632 C633 1.394 . S
C632 H640 0.930 . S
C633 C632 1.394 . S
C633 C634 1.383 . S
C633 H641 0.929 . S
C634 C633 1.383 . S
C634 C635 1.377 . S
C635 H619 0.930 . S
C635 C634 1.377 . S
C635 C636 1.379 . S
C636 H620 0.931 . S
C636 C630 1.383 . S
C636 C635 1.379 . S
H637 C631 0.959 . S
H638 C631 0.961 . S
H639 C631 0.960 . S
H640 C632 0.930 . S
H641 C633 0.929 . S
H642 C650 0.929 . S
H643 C652 0.930 . S
H644 C654 0.930 . S
H645 C657 0.929 . S
H646 C660 0.930 . S
H647 C662 0.960 . S
H648 C662 0.960 . S
H649 C662 0.960 . S
C650 H642 0.929 . S
C650 C651 1.377 . S
C650 C652 1.384 . S
C651 C650 1.377 . S
C651 C657 1.390 . S
C652 H643 0.930 . S
C652 C650 1.384 . S
C652 C653 1.372 . S
C653 C652 1.372 . S
C653 C654 1.400 . S
C653 C658 1.490 . S
C654 H644 0.930 . S
C654 C653 1.400 . S
C654 C657 1.386 . S
H655 C671 0.930 . S
H656 C672 0.931 . S
C657 H645 0.929 . S
C657 C651 1.390 . S
C657 C654 1.386 . S
C658 C653 1.490 . S
C658 C660 1.395 . S
C658 C661 1.403 . S
H659 C665 0.930 . S
C660 H646 0.930 . S
C660 C658 1.395 . S
C660 C663 1.403 . S
C661 C658 1.403 . S
C661 C662 1.524 . S
C661 C665 1.400 . S
C662 H647 0.960 . S
C662 H648 0.960 . S
C662 H649 0.960 . S
C662 C661 1.524 . S
C663 C660 1.403 . S
C663 C664 1.392 . S
C663 C667 1.495 . S
C664 C663 1.392 . S
C664 C665 1.385 . S
C664 C666 1.478 . S
C665 H659 0.930 . S
C665 C661 1.400 . S
C665 C664 1.385 . S
C666 C664 1.478 . S
C666 C668 1.381 . S
C666 C672 1.383 . S
C667 C663 1.495 . S
C667 H673 0.959 . S
C667 H674 0.961 . S
C667 H675 0.960 . S
C668 C666 1.381 . S
C668 C669 1.394 . S
C668 H676 0.930 . S
C669 C668 1.394 . S
C669 C670 1.383 . S
C669 H677 0.929 . S
C670 C669 1.383 . S
C670 C671 1.377 . S
C671 H655 0.930 . S
C671 C670 1.377 . S
C671 C672 1.379 . S
C672 H656 0.931 . S
C672 C666 1.383 . S
C672 C671 1.379 . S
H673 C667 0.959 . S
H674 C667 0.961 . S
H675 C667 0.960 . S
H676 C668 0.930 . S
H677 C669 0.929 . S
H678 C686 0.929 . S
H679 C688 0.930 . S
H680 C690 0.930 . S
H681 C693 0.929 . S
H682 C696 0.930 . S
H683 C698 0.960 . S
H684 C698 0.960 . S
H685 C698 0.960 . S
C686 H678 0.929 . S
C686 C687 1.377 . S
C686 C688 1.384 . S
C687 C686 1.377 . S
C687 C693 1.390 . S
C688 H679 0.930 . S
C688 C686 1.384 . S
C688 C689 1.372 . S
C689 C688 1.372 . S
C689 C690 1.400 . S
C689 C694 1.490 . S
C690 H680 0.930 . S
C690 C689 1.400 . S
C690 C693 1.386 . S
H691 C707 0.930 . S
H692 C708 0.931 . S
C693 H681 0.929 . S
C693 C687 1.390 . S
C693 C690 1.386 . S
C694 C689 1.490 . S
C694 C696 1.395 . S
C694 C697 1.403 . S
H695 C701 0.930 . S
C696 H682 0.930 . S
C696 C694 1.395 . S
C696 C699 1.403 . S
C697 C694 1.403 . S
C697 C698 1.524 . S
C697 C701 1.400 . S
C698 H683 0.960 . S
C698 H684 0.960 . S
C698 H685 0.960 . S
C698 C697 1.524 . S
C699 C696 1.403 . S
C699 C700 1.392 . S
C699 C703 1.495 . S
C700 C699 1.392 . S
C700 C701 1.385 . S
C700 C702 1.478 . S
C701 H695 0.930 . S
C701 C697 1.400 . S
C701 C700 1.385 . S
C702 C700 1.478 . S
C702 C704 1.381 . S
C702 C708 1.383 . S
C703 C699 1.495 . S
C703 H709 0.959 . S
C703 H710 0.961 . S
C703 H711 0.960 . S
C704 C702 1.381 . S
C704 C705 1.394 . S
C704 H712 0.930 . S
C705 C704 1.394 . S
C705 C706 1.383 . S
C705 H713 0.929 . S
C706 C705 1.383 . S
C706 C707 1.377 . S
C707 H691 0.930 . S
C707 C706 1.377 . S
C707 C708 1.379 . S
C708 H692 0.931 . S
C708 C702 1.383 . S
C708 C707 1.379 . S
H709 C703 0.959 . S
H710 C703 0.961 . S
H711 C703 0.960 . S
H712 C704 0.930 . S
H713 C705 0.929 . S
H714 C722 0.929 . S
H715 C724 0.930 . S
H716 C726 0.930 . S
H717 C729 0.929 . S
H718 C732 0.930 . S
H719 C734 0.960 . S
H720 C734 0.960 . S
H721 C734 0.960 . S
C722 H714 0.929 . S
C722 C723 1.377 . S
C722 C724 1.384 . S
C723 C722 1.377 . S
C723 C729 1.390 . S
C724 H715 0.930 . S
C724 C722 1.384 . S
C724 C725 1.372 . S
C725 C724 1.372 . S
C725 C726 1.400 . S
C725 C730 1.490 . S
C726 H716 0.930 . S
C726 C725 1.400 . S
C726 C729 1.386 . S
H727 C743 0.930 . S
H728 C744 0.931 . S
C729 H717 0.929 . S
C729 C723 1.390 . S
C729 C726 1.386 . S
C730 C725 1.490 . S
C730 C732 1.395 . S
C730 C733 1.403 . S
H731 C737 0.930 . S
C732 H718 0.930 . S
C732 C730 1.395 . S
C732 C735 1.403 . S
C733 C730 1.403 . S
C733 C734 1.524 . S
C733 C737 1.400 . S
C734 H719 0.960 . S
C734 H720 0.960 . S
C734 H721 0.960 . S
C734 C733 1.524 . S
C735 C732 1.403 . S
C735 C736 1.392 . S
C735 C739 1.495 . S
C736 C735 1.392 . S
C736 C737 1.385 . S
C736 C738 1.478 . S
C737 H731 0.930 . S
C737 C733 1.400 . S
C737 C736 1.385 . S
C738 C736 1.478 . S
C738 C740 1.381 . S
C738 C744 1.383 . S
C739 C735 1.495 . S
C739 H745 0.959 . S
C739 H746 0.961 . S
C739 H747 0.960 . S
C740 C738 1.381 . S
C740 C741 1.394 . S
C740 H748 0.930 . S
C741 C740 1.394 . S
C741 C742 1.383 . S
C741 H749 0.929 . S
C742 C741 1.383 . S
C742 C743 1.377 . S
C743 H727 0.930 . S
C743 C742 1.377 . S
C743 C744 1.379 . S
C744 H728 0.931 . S
C744 C738 1.383 . S
C744 C743 1.379 . S
H745 C739 0.959 . S
H746 C739 0.961 . S
H747 C739 0.960 . S
H748 C740 0.930 . S
H749 C741 0.929 . S
H750 C758 0.929 . S
H751 C760 0.930 . S
H752 C762 0.930 . S
H753 C765 0.929 . S
H754 C768 0.930 . S
H755 C770 0.960 . S
H756 C770 0.960 . S
H757 C770 0.960 . S
C758 H750 0.929 . S
C758 C759 1.377 . S
C758 C760 1.384 . S
C759 C758 1.377 . S
C759 C765 1.390 . S
C760 H751 0.930 . S
C760 C758 1.384 . S
C760 C761 1.372 . S
C761 C760 1.372 . S
C761 C762 1.400 . S
C761 C766 1.490 . S
C762 H752 0.930 . S
C762 C761 1.400 . S
C762 C765 1.386 . S
H763 C779 0.930 . S
H764 C780 0.931 . S
C765 H753 0.929 . S
C765 C759 1.390 . S
C765 C762 1.386 . S
C766 C761 1.490 . S
C766 C768 1.395 . S
C766 C769 1.403 . S
H767 C773 0.930 . S
C768 H754 0.930 . S
C768 C766 1.395 . S
C768 C771 1.403 . S
C769 C766 1.403 . S
C769 C770 1.524 . S
C769 C773 1.400 . S
C770 H755 0.960 . S
C770 H756 0.960 . S
C770 H757 0.960 . S
C770 C769 1.524 . S
C771 C768 1.403 . S
C771 C772 1.392 . S
C771 C775 1.495 . S
C772 C771 1.392 . S
C772 C773 1.385 . S
C772 C774 1.478 . S
C773 H767 0.930 . S
C773 C769 1.400 . S
C773 C772 1.385 . S
C774 C772 1.478 . S
C774 C776 1.381 . S
C774 C780 1.383 . S
C775 C771 1.495 . S
C775 H781 0.959 . S
C775 H782 0.961 . S
C775 H783 0.960 . S
C776 C774 1.381 . S
C776 C777 1.394 1_556 S
C776 H784 0.930 . S
C777 C776 1.394 1_554 S
C777 C778 1.383 . S
C777 H785 0.929 . S
C778 C777 1.383 . S
C778 C779 1.377 . S
C779 H763 0.930 . S
C779 C778 1.377 . S
C779 C780 1.379 1_554 S
C780 H764 0.931 . S
C780 C774 1.383 . S
C780 C779 1.379 1_556 S
H781 C775 0.959 . S
H782 C775 0.961 . S
H783 C775 0.960 . S
H784 C776 0.930 . S
H785 C777 0.929 . S
H786 C794 0.929 . S
H787 C796 0.930 . S
H788 C798 0.930 . S
H789 C801 0.929 . S
H790 C804 0.930 . S
H791 C806 0.960 . S
H792 C806 0.960 . S
H793 C806 0.960 . S
C794 H786 0.929 . S
C794 C795 1.377 . S
C794 C796 1.384 . S
C795 C794 1.377 . S
C795 C801 1.390 . S
C796 H787 0.930 . S
C796 C794 1.384 . S
C796 C797 1.372 . S
C797 C796 1.372 . S
C797 C798 1.400 . S
C797 C802 1.490 . S
C798 H788 0.930 . S
C798 C797 1.400 . S
C798 C801 1.386 . S
H799 C815 0.930 . S
H800 C816 0.931 . S
C801 H789 0.929 . S
C801 C795 1.390 . S
C801 C798 1.386 . S
C802 C797 1.490 . S
C802 C804 1.395 . S
C802 C805 1.403 . S
H803 C809 0.930 . S
C804 H790 0.930 . S
C804 C802 1.395 . S
C804 C807 1.403 . S
C805 C802 1.403 . S
C805 C806 1.524 . S
C805 C809 1.400 . S
C806 H791 0.960 . S
C806 H792 0.960 . S
C806 H793 0.960 . S
C806 C805 1.524 . S
C807 C804 1.403 . S
C807 C808 1.392 . S
C807 C811 1.495 . S
C808 C807 1.392 . S
C808 C809 1.385 . S
C808 C810 1.478 . S
C809 H803 0.930 . S
C809 C805 1.400 . S
C809 C808 1.385 . S
C810 C808 1.478 . S
C810 C812 1.381 . S
C810 C816 1.383 . S
C811 C807 1.495 . S
C811 H817 0.959 . S
C811 H818 0.961 . S
C811 H819 0.960 . S
C812 C810 1.381 . S
C812 C813 1.394 . S
C812 H820 0.930 . S
C813 C812 1.394 . S
C813 C814 1.383 . S
C813 H821 0.929 . S
C814 C813 1.383 . S
C814 C815 1.377 . S
C815 H799 0.930 . S
C815 C814 1.377 . S
C815 C816 1.379 . S
C816 H800 0.931 . S
C816 C810 1.383 . S
C816 C815 1.379 . S
H817 C811 0.959 . S
H818 C811 0.961 . S
H819 C811 0.960 . S
H820 C812 0.930 . S
H821 C813 0.929 . S
H822 C830 0.929 . S
H823 C832 0.930 . S
H824 C834 0.930 . S
H825 C837 0.929 . S
H826 C840 0.930 . S
H827 C842 0.960 . S
H828 C842 0.960 . S
H829 C842 0.960 . S
C830 H822 0.929 . S
C830 C831 1.377 . S
C830 C832 1.384 . S
C831 C830 1.377 . S
C831 C837 1.390 . S
C832 H823 0.930 . S
C832 C830 1.384 . S
C832 C833 1.372 . S
C833 C832 1.372 . S
C833 C834 1.400 . S
C833 C838 1.490 . S
C834 H824 0.930 . S
C834 C833 1.400 . S
C834 C837 1.386 . S
H835 C851 0.930 . S
H836 C852 0.931 . S
C837 H825 0.929 . S
C837 C831 1.390 . S
C837 C834 1.386 . S
C838 C833 1.490 . S
C838 C840 1.395 . S
C838 C841 1.403 . S
H839 C845 0.930 . S
C840 H826 0.930 . S
C840 C838 1.395 . S
C840 C843 1.403 . S
C841 C838 1.403 . S
C841 C842 1.524 . S
C841 C845 1.400 . S
C842 H827 0.960 . S
C842 H828 0.960 . S
C842 H829 0.960 . S
C842 C841 1.524 . S
C843 C840 1.403 . S
C843 C844 1.392 . S
C843 C847 1.495 . S
C844 C843 1.392 . S
C844 C845 1.385 . S
C844 C846 1.478 . S
C845 H839 0.930 . S
C845 C841 1.400 . S
C845 C844 1.385 . S
C846 C844 1.478 . S
C846 C848 1.381 . S
C846 C852 1.383 . S
C847 C843 1.495 . S
C847 H853 0.959 . S
C847 H854 0.961 . S
C847 H855 0.960 . S
C848 C846 1.381 . S
C848 C849 1.394 . S
C848 H856 0.930 . S
C849 C848 1.394 . S
C849 C850 1.383 . S
C849 H857 0.929 . S
C850 C849 1.383 . S
C850 C851 1.377 . S
C851 H835 0.930 . S
C851 C850 1.377 . S
C851 C852 1.379 . S
C852 H836 0.931 . S
C852 C846 1.383 . S
C852 C851 1.379 . S
H853 C847 0.959 . S
H854 C847 0.961 . S
H855 C847 0.960 . S
H856 C848 0.930 . S
H857 C849 0.929 . S
H858 C866 0.929 . S
H859 C868 0.930 . S
H860 C870 0.930 . S
H861 C873 0.929 . S
H862 C876 0.930 . S
H863 C878 0.960 . S
H864 C878 0.960 . S
H865 C878 0.960 . S
C866 H858 0.929 . S
C866 C867 1.377 . S
C866 C868 1.384 . S
C867 C866 1.377 . S
C867 C873 1.390 . S
C868 H859 0.930 . S
C868 C866 1.384 . S
C868 C869 1.372 . S
C869 C868 1.372 . S
C869 C870 1.400 . S
C869 C874 1.490 . S
C870 H860 0.930 . S
C870 C869 1.400 . S
C870 C873 1.386 . S
H871 C887 0.930 . S
H872 C888 0.931 . S
C873 H861 0.929 . S
C873 C867 1.390 . S
C873 C870 1.386 . S
C874 C869 1.490 . S
C874 C876 1.395 . S
C874 C877 1.403 . S
H875 C881 0.930 . S
C876 H862 0.930 . S
C876 C874 1.395 . S
C876 C879 1.403 . S
C877 C874 1.403 . S
C877 C878 1.524 . S
C877 C881 1.400 . S
C878 H863 0.960 . S
C878 H864 0.960 . S
C878 H865 0.960 . S
C878 C877 1.524 . S
C879 C876 1.403 . S
C879 C880 1.392 . S
C879 C883 1.495 . S
C880 C879 1.392 . S
C880 C881 1.385 . S
C880 C882 1.478 . S
C881 H875 0.930 . S
C881 C877 1.400 . S
C881 C880 1.385 . S
C882 C880 1.478 . S
C882 C884 1.381 . S
C882 C888 1.383 . S
C883 C879 1.495 . S
C883 H889 0.959 . S
C883 H890 0.961 . S
C883 H891 0.960 . S
C884 C882 1.381 . S
C884 C885 1.394 . S
C884 H892 0.930 . S
C885 C884 1.394 . S
C885 C886 1.383 . S
C885 H893 0.929 . S
C886 C885 1.383 . S
C886 C887 1.377 . S
C887 H871 0.930 . S
C887 C886 1.377 . S
C887 C888 1.379 . S
C888 H872 0.931 . S
C888 C882 1.383 . S
C888 C887 1.379 . S
H889 C883 0.959 . S
H890 C883 0.961 . S
H891 C883 0.960 . S
H892 C884 0.930 . S
H893 C885 0.929 . S
H894 C902 0.929 . S
H895 C904 0.930 . S
H896 C906 0.930 . S
H897 C909 0.929 . S
H898 C912 0.930 . S
H899 C914 0.960 . S
H900 C914 0.960 . S
H901 C914 0.960 . S
C902 H894 0.929 . S
C902 C903 1.377 . S
C902 C904 1.384 . S
C903 C902 1.377 . S
C903 C909 1.390 . S
C904 H895 0.930 . S
C904 C902 1.384 . S
C904 C905 1.372 . S
C905 C904 1.372 . S
C905 C906 1.400 . S
C905 C910 1.490 . S
C906 H896 0.930 . S
C906 C905 1.400 . S
C906 C909 1.386 . S
H907 C923 0.930 . S
H908 C924 0.931 . S
C909 H897 0.929 . S
C909 C903 1.390 . S
C909 C906 1.386 . S
C910 C905 1.490 . S
C910 C912 1.395 . S
C910 C913 1.403 . S
H911 C917 0.930 . S
C912 H898 0.930 . S
C912 C910 1.395 . S
C912 C915 1.403 . S
C913 C910 1.403 . S
C913 C914 1.524 . S
C913 C917 1.400 . S
C914 H899 0.960 . S
C914 H900 0.960 . S
C914 H901 0.960 . S
C914 C913 1.524 . S
C915 C912 1.403 . S
C915 C916 1.392 . S
C915 C919 1.495 . S
C916 C915 1.392 . S
C916 C917 1.385 . S
C916 C918 1.478 . S
C917 H911 0.930 . S
C917 C913 1.400 . S
C917 C916 1.385 . S
C918 C916 1.478 . S
C918 C920 1.381 . S
C918 C924 1.383 . S
C919 C915 1.495 . S
C919 H925 0.959 . S
C919 H926 0.961 . S
C919 H927 0.960 . S
C920 C918 1.381 . S
C920 C921 1.394 . S
C920 H928 0.930 . S
C921 C920 1.394 . S
C921 C922 1.383 . S
C921 H929 0.929 . S
C922 C921 1.383 . S
C922 C923 1.377 . S
C923 H907 0.930 . S
C923 C922 1.377 . S
C923 C924 1.379 . S
C924 H908 0.931 . S
C924 C918 1.383 . S
C924 C923 1.379 . S
H925 C919 0.959 . S
H926 C919 0.961 . S
H927 C919 0.960 . S
H928 C920 0.930 . S
H929 C921 0.929 . S
H930 C938 0.929 . S
H931 C940 0.930 . S
H932 C942 0.930 . S
H933 C945 0.929 . S
H934 C948 0.930 . S
H935 C950 0.960 . S
H936 C950 0.960 . S
H937 C950 0.960 . S
C938 H930 0.929 . S
C938 C939 1.377 . S
C938 C940 1.384 . S
C939 C938 1.377 . S
C939 C945 1.390 . S
C940 H931 0.930 . S
C940 C938 1.384 . S
C940 C941 1.372 . S
C941 C940 1.372 . S
C941 C942 1.400 . S
C941 C946 1.490 . S
C942 H932 0.930 . S
C942 C941 1.400 . S
C942 C945 1.386 . S
H943 C959 0.930 . S
H944 C960 0.931 . S
C945 H933 0.929 . S
C945 C939 1.390 . S
C945 C942 1.386 . S
C946 C941 1.490 . S
C946 C948 1.395 . S
C946 C949 1.403 . S
H947 C953 0.930 . S
C948 H934 0.930 . S
C948 C946 1.395 . S
C948 C951 1.403 . S
C949 C946 1.403 . S
C949 C950 1.524 . S
C949 C953 1.400 . S
C950 H935 0.960 . S
C950 H936 0.960 . S
C950 H937 0.960 . S
C950 C949 1.524 . S
C951 C948 1.403 . S
C951 C952 1.392 . S
C951 C955 1.495 . S
C952 C951 1.392 . S
C952 C953 1.385 . S
C952 C954 1.478 . S
C953 H947 0.930 . S
C953 C949 1.400 . S
C953 C952 1.385 . S
C954 C952 1.478 . S
C954 C956 1.381 . S
C954 C960 1.383 . S
C955 C951 1.495 . S
C955 H961 0.959 . S
C955 H962 0.961 . S
C955 H963 0.960 . S
C956 C954 1.381 . S
C956 C957 1.394 . S
C956 H964 0.930 . S
C957 C956 1.394 . S
C957 C958 1.383 . S
C957 H965 0.929 . S
C958 C957 1.383 . S
C958 C959 1.377 . S
C959 H943 0.930 . S
C959 C958 1.377 . S
C959 C960 1.379 . S
C960 H944 0.931 . S
C960 C954 1.383 . S
C960 C959 1.379 . S
H961 C955 0.959 . S
H962 C955 0.961 . S
H963 C955 0.960 . S
H964 C956 0.930 . S
H965 C957 0.929 . S
H966 C974 0.929 . S
H967 C976 0.930 . S
H968 C978 0.930 . S
H969 C981 0.929 . S
H970 C984 0.930 . S
H971 C986 0.960 . S
H972 C986 0.960 . S
H973 C986 0.960 . S
C974 H966 0.929 . S
C974 C975 1.377 . S
C974 C976 1.384 . S
C975 C974 1.377 . S
C975 C981 1.390 . S
C976 H967 0.930 . S
C976 C974 1.384 . S
C976 C977 1.372 . S
C977 C976 1.372 . S
C977 C978 1.400 . S
C977 C982 1.490 . S
C978 H968 0.930 . S
C978 C977 1.400 . S
C978 C981 1.386 . S
H979 C995 0.930 . S
H980 C996 0.931 . S
C981 H969 0.929 . S
C981 C975 1.390 . S
C981 C978 1.386 . S
C982 C977 1.490 . S
C982 C984 1.395 . S
C982 C985 1.403 . S
H983 C989 0.930 . S
C984 H970 0.930 . S
C984 C982 1.395 . S
C984 C987 1.403 . S
C985 C982 1.403 . S
C985 C986 1.524 . S
C985 C989 1.400 . S
C986 H971 0.960 . S
C986 H972 0.960 . S
C986 H973 0.960 . S
C986 C985 1.524 . S
C987 C984 1.403 . S
C987 C988 1.392 . S
C987 C991 1.495 . S
C988 C987 1.392 . S
C988 C989 1.385 . S
C988 C990 1.478 . S
C989 H983 0.930 . S
C989 C985 1.400 . S
C989 C988 1.385 . S
C990 C988 1.478 . S
C990 C992 1.381 . S
C990 C996 1.383 . S
C991 C987 1.495 . S
C991 H997 0.959 . S
C991 H998 0.961 . S
C991 H999 0.960 . S
C992 C990 1.381 . S
C992 C993 1.394 . S
C992 H1000 0.930 . S
C993 C992 1.394 . S
C993 C994 1.383 . S
C993 H1001 0.929 . S
C994 C993 1.383 . S
C994 C995 1.377 . S
C995 H979 0.930 . S
C995 C994 1.377 . S
C995 C996 1.379 . S
C996 H980 0.931 . S
C996 C990 1.383 . S
C996 C995 1.379 . S
H997 C991 0.959 . S
H998 C991 0.961 . S
H999 C991 0.960 . S
H1000 C992 0.930 . S
H1001 C993 0.929 . S
H1002 C1010 0.929 . S
H1003 C1012 0.930 . S
H1004 C1014 0.930 . S
H1005 C1017 0.929 . S
H1006 C1020 0.930 . S
H1007 C1022 0.960 . S
H1008 C1022 0.960 . S
H1009 C1022 0.960 . S
C1010 H1002 0.929 . S
C1010 C1011 1.377 . S
C1010 C1012 1.384 . S
C1011 C1010 1.377 . S
C1011 C1017 1.390 . S
C1012 H1003 0.930 . S
C1012 C1010 1.384 . S
C1012 C1013 1.372 . S
C1013 C1012 1.372 . S
C1013 C1014 1.400 . S
C1013 C1018 1.490 . S
C1014 H1004 0.930 . S
C1014 C1013 1.400 . S
C1014 C1017 1.386 . S
H1015 C1031 0.930 . S
H1016 C1032 0.931 . S
C1017 H1005 0.929 . S
C1017 C1011 1.390 . S
C1017 C1014 1.386 . S
C1018 C1013 1.490 . S
C1018 C1020 1.395 . S
C1018 C1021 1.403 . S
H1019 C1025 0.930 . S
C1020 H1006 0.930 . S
C1020 C1018 1.395 . S
C1020 C1023 1.403 . S
C1021 C1018 1.403 . S
C1021 C1022 1.524 . S
C1021 C1025 1.400 . S
C1022 H1007 0.960 . S
C1022 H1008 0.960 . S
C1022 H1009 0.960 . S
C1022 C1021 1.524 . S
C1023 C1020 1.403 . S
C1023 C1024 1.392 . S
C1023 C1027 1.495 . S
C1024 C1023 1.392 . S
C1024 C1025 1.385 . S
C1024 C1026 1.478 1_554 S
C1025 H1019 0.930 . S
C1025 C1021 1.400 . S
C1025 C1024 1.385 . S
C1026 C1024 1.478 1_556 S
C1026 C1028 1.381 . S
C1026 C1032 1.383 . S
C1027 C1023 1.495 . S
C1027 H1033 0.959 . S
C1027 H1034 0.961 1_554 S
C1027 H1035 0.960 . S
C1028 C1026 1.381 . S
C1028 C1029 1.394 . S
C1028 H1036 0.930 1_556 S
C1029 C1028 1.394 . S
C1029 C1030 1.383 . S
C1029 H1037 0.929 . S
C1030 C1029 1.383 . S
C1030 C1031 1.377 . S
C1031 H1015 0.930 . S
C1031 C1030 1.377 . S
C1031 C1032 1.379 . S
C1032 H1016 0.931 . S
C1032 C1026 1.383 . S
C1032 C1031 1.379 . S
H1033 C1027 0.959 . S
H1034 C1027 0.961 1_556 S
H1035 C1027 0.960 . S
H1036 C1028 0.930 1_554 S
H1037 C1029 0.929 . S
H1038 C1046 0.929 . S
H1039 C1048 0.930 . S
H1040 C1050 0.930 . S
H1041 C1053 0.929 . S
H1042 C1056 0.930 . S
H1043 C1058 0.960 . S
H1044 C1058 0.960 . S
H1045 C1058 0.960 . S
C1046 H1038 0.929 . S
C1046 C1047 1.377 . S
C1046 C1048 1.384 . S
C1047 C1046 1.377 . S
C1047 C1053 1.390 . S
C1048 H1039 0.930 . S
C1048 C1046 1.384 . S
C1048 C1049 1.372 . S
C1049 C1048 1.372 . S
C1049 C1050 1.400 . S
C1049 C1054 1.490 . S
C1050 H1040 0.930 . S
C1050 C1049 1.400 . S
C1050 C1053 1.386 . S
H1051 C1067 0.930 . S
H1052 C1068 0.931 . S
C1053 H1041 0.929 . S
C1053 C1047 1.390 . S
C1053 C1050 1.386 . S
C1054 C1049 1.490 . S
C1054 C1056 1.395 . S
C1054 C1057 1.403 . S
H1055 C1061 0.930 . S
C1056 H1042 0.930 . S
C1056 C1054 1.395 . S
C1056 C1059 1.403 . S
C1057 C1054 1.403 . S
C1057 C1058 1.524 . S
C1057 C1061 1.400 . S
C1058 H1043 0.960 . S
C1058 H1044 0.960 . S
C1058 H1045 0.960 . S
C1058 C1057 1.524 . S
C1059 C1056 1.403 . S
C1059 C1060 1.392 . S
C1059 C1063 1.495 . S
C1060 C1059 1.392 . S
C1060 C1061 1.385 . S
C1060 C1062 1.478 . S
C1061 H1055 0.930 . S
C1061 C1057 1.400 . S
C1061 C1060 1.385 . S
C1062 C1060 1.478 . S
C1062 C1064 1.381 . S
C1062 C1068 1.383 . S
C1063 C1059 1.495 . S
C1063 H1069 0.959 . S
C1063 H1070 0.961 . S
C1063 H1071 0.960 . S
C1064 C1062 1.381 . S
C1064 C1065 1.394 . S
C1064 H1072 0.930 . S
C1065 C1064 1.394 . S
C1065 C1066 1.383 . S
C1065 H1073 0.929 . S
C1066 C1065 1.383 . S
C1066 C1067 1.377 . S
C1067 H1051 0.930 . S
C1067 C1066 1.377 . S
C1067 C1068 1.379 . S
C1068 H1052 0.931 . S
C1068 C1062 1.383 . S
C1068 C1067 1.379 . S
H1069 C1063 0.959 . S
H1070 C1063 0.961 . S
H1071 C1063 0.960 . S
H1072 C1064 0.930 . S
H1073 C1065 0.929 . S
C238 C196 1.607 . S
C219 C19 1.540 . S
C255 C40 1.525 . S
C274 C137 1.608 . S
C291 C51 1.504 . S
C310 C140 1.613 . S
C327 C72 1.531 . S
C346 C154 1.611 . S
C382 C179 1.604 . S
C363 C103 1.528 . S
C399 C114 1.494 . S
C418 C182 1.609 . S
C435 C30 1.484 . S
C454 C151 1.597 . S
C471 C61 1.509 . S
C490 C165 1.605 . S
C507 C82 1.497 . S
C526 C168 1.591 . S
C562 C193 1.580 . S
C543 C93 1.487 1_554 S
C598 C207 1.600 . S
C579 C124 1.509 . S
C634 C126 1.578 . S
C615 C9 1.499 . S
C651 C17 1.427 . S
C670 C149 1.499 . S
C687 C38 1.440 . S
C706 C163 1.520 . S
C742 C173 1.520 . S
C723 C54 1.433 . S
C759 C75 1.429 . S
C778 C191 1.510 . S
C814 C205 1.518 . S
C795 C101 1.439 . S
C850 C131 1.522 . S
C831 C117 1.436 . S
C886 C201 1.547 . S
C867 C33 1.455 . S
C903 C59 1.441 . S
C922 C135 1.531 . S
C958 C145 1.535 . S
C939 C80 1.447 . S
C975 C96 1.457 . S
C994 C159 1.550 . S
C1011 C122 1.437 . S
C1030 C177 1.521 . S
C1047 C12 1.453 . S
C1066 C187 1.540 . S
