# Generated by pormake.
# Topology zzz, (3,6)-cn, num edge types: 1
# Building blocks:
#     Node 0, Type 0, BuildingBlock: KAKCAD_clean_linker_0, # of connection points: 3
#     Node 1, Type 0, BuildingBlock: KAKCAD_clean_linker_0, # of connection points: 3
#     Node 2, Type 0, BuildingBlock: KAKCAD_clean_linker_0, # of connection points: 3
#     Node 3, Type 0, BuildingBlock: KAKCAD_clean_linker_0, # of connection points: 3
#     Node 4, Type 0, BuildingBlock: KAKCAD_clean_linker_0, # of connection points: 3
#     Node 5, Type 0, BuildingBlock: KAKCAD_clean_linker_0, # of connection points: 3
#     Node 6, Type 0, BuildingBlock: KAKCAD_clean_linker_0, # of connection points: 3
#     Node 7, Type 0, BuildingBlock: KAKCAD_clean_linker_0, # of connection points: 3
#     Node 8, Type 1, BuildingBlock: VOLQOD_clean_sbu_1, # of connection points: 6
#     Node 9, Type 1, BuildingBlock: VOLQOD_clean_sbu_1, # of connection points: 6
#     Node 10, Type 1, BuildingBlock: VOLQOD_clean_sbu_1, # of connection points: 6
#     Node 11, Type 1, BuildingBlock: VOLQOD_clean_sbu_1, # of connection points: 6
#     Edge 12, Type (0, 1), BuildingBlock: UVAHIK_clean_linker_0, # of connection points: 2
#     Edge 13, Type (0, 1), BuildingBlock: UVAHIK_clean_linker_0, # of connection points: 2
#     Edge 14, Type (0, 1), BuildingBlock: UVAHIK_clean_linker_0, # of connection points: 2
#     Edge 15, Type (0, 1), BuildingBlock: UVAHIK_clean_linker_0, # of connection points: 2
#     Edge 16, Type (0, 1), BuildingBlock: UVAHIK_clean_linker_0, # of connection points: 2
#     Edge 17, Type (0, 1), BuildingBlock: UVAHIK_clean_linker_0, # of connection points: 2
#     Edge 18, Type (0, 1), BuildingBlock: UVAHIK_clean_linker_0, # of connection points: 2
#     Edge 19, Type (0, 1), BuildingBlock: UVAHIK_clean_linker_0, # of connection points: 2
#     Edge 20, Type (0, 1), BuildingBlock: UVAHIK_clean_linker_0, # of connection points: 2
#     Edge 21, Type (0, 1), BuildingBlock: UVAHIK_clean_linker_0, # of connection points: 2
#     Edge 22, Type (0, 1), BuildingBlock: UVAHIK_clean_linker_0, # of connection points: 2
#     Edge 23, Type (0, 1), BuildingBlock: UVAHIK_clean_linker_0, # of connection points: 2
#     Edge 24, Type (0, 1), BuildingBlock: UVAHIK_clean_linker_0, # of connection points: 2
#     Edge 25, Type (0, 1), BuildingBlock: UVAHIK_clean_linker_0, # of connection points: 2
#     Edge 26, Type (0, 1), BuildingBlock: UVAHIK_clean_linker_0, # of connection points: 2
#     Edge 27, Type (0, 1), BuildingBlock: UVAHIK_clean_linker_0, # of connection points: 2
#     Edge 28, Type (0, 1), BuildingBlock: UVAHIK_clean_linker_0, # of connection points: 2
#     Edge 29, Type (0, 1), BuildingBlock: UVAHIK_clean_linker_0, # of connection points: 2
#     Edge 30, Type (0, 1), BuildingBlock: UVAHIK_clean_linker_0, # of connection points: 2
#     Edge 31, Type (0, 1), BuildingBlock: UVAHIK_clean_linker_0, # of connection points: 2
#     Edge 32, Type (0, 1), BuildingBlock: UVAHIK_clean_linker_0, # of connection points: 2
#     Edge 33, Type (0, 1), BuildingBlock: UVAHIK_clean_linker_0, # of connection points: 2
#     Edge 34, Type (0, 1), BuildingBlock: UVAHIK_clean_linker_0, # of connection points: 2
#     Edge 35, Type (0, 1), BuildingBlock: UVAHIK_clean_linker_0, # of connection points: 2
# Relax obj value: 0.359
# Max RMSD: 0.257
# Mean RMSD: 0.208
data_MOF--net-zzz--node1-VOLQOD_clean_sbu_1--node2-KAKCAD_clean_linker_0--edge1-UVAHIK_clean_linker_0
_symmetry_space_group_name_H-M    P1
_symmetry_Int_Tables_number       1
_symmetry_cell_setting            triclinic
loop_
_symmetry_equiv_pos_as_xyz
'x, y, z'
_cell_length_a     71.5966
_cell_length_b     70.318916
_cell_length_c     28.095454
_cell_angle_alpha  90.088331
_cell_angle_beta   90.388634
_cell_angle_gamma 92.235494
loop_
_atom_site_label
_atom_site_type_symbol
_atom_site_fract_x
_atom_site_fract_y
_atom_site_fract_z
_atom_type_partial_charge
C0 C 0.81905 0.44084 0.99272 0.0
C1 C 0.83334 0.42955 0.01032 0.0
C2 C 0.80535 0.44746 0.02295 0.0
C3 C 0.80524 0.44258 0.07149 0.0
C4 C 0.81887 0.43033 0.08849 0.0
C5 C 0.83284 0.42404 0.05841 0.0
C6 C 0.79166 0.45112 0.10452 0.0
C7 C 0.77366 0.45543 0.08883 0.0
C8 C 0.76141 0.46499 0.11848 0.0
C9 C 0.76697 0.46988 0.16509 0.0
C10 C 0.78482 0.46539 0.18166 0.0
C11 C 0.79704 0.45615 0.15116 0.0
C12 C 0.79154 0.47103 0.22977 0.0
C13 C 0.7916 0.49013 0.24451 0.0
C14 C 0.80013 0.45764 0.25871 0.0
C15 C 0.80955 0.46335 0.30022 0.0
C16 C 0.81067 0.48263 0.31368 0.0
C17 C 0.74315 0.47035 0.09906 0.0
C18 C 0.74256 0.48138 0.05755 0.0
C19 C 0.7264 0.46306 0.11873 0.0
C20 C 0.70933 0.46598 0.0957 0.0
C21 C 0.70881 0.47652 0.0532 0.0
C22 C 0.72556 0.48454 0.03501 0.0
C23 C 0.80118 0.49591 0.28604 0.0
H24 H 0.81864 0.44499 0.95565 0.0
H25 H 0.79528 0.45698 0.00836 0.0
H26 H 0.81902 0.42587 0.12535 0.0
H27 H 0.84362 0.41545 0.07346 0.0
H28 H 0.76904 0.45139 0.05328 0.0
H29 H 0.81112 0.45364 0.16341 0.0
H30 H 0.75758 0.47735 0.18802 0.0
H31 H 0.78515 0.50074 0.22257 0.0
H32 H 0.80024 0.44282 0.24808 0.0
H33 H 0.81686 0.45276 0.32025 0.0
H34 H 0.75535 0.4871 0.0418 0.0
H35 H 0.7266 0.45441 0.1506 0.0
H36 H 0.80168 0.51084 0.29571 0.0
H37 H 0.72562 0.49254 0.00209 0.0
H38 H 0.6966 0.45973 0.11055 0.0
C39 C 0.03511 0.79161 0.03735 0.0
C40 C 0.04987 0.80252 0.05808 0.0
C41 C 0.02433 0.77889 0.06489 0.0
C42 C 0.02823 0.77664 0.11367 0.0
C43 C 0.04356 0.78699 0.13379 0.0
C44 C 0.05417 0.7999 0.10637 0.0
C45 C 0.01586 0.76426 0.1439 0.0
C46 C 0.00786 0.74714 0.12616 0.0
C47 C 0.99574 0.73577 0.15419 0.0
C48 C 0.99165 0.74144 0.20083 0.0
C49 C -0.00045 0.75858 0.21914 0.0
C50 C 0.0115 0.76987 0.19033 0.0
C51 C 0.995 0.76554 0.26742 0.0
C52 C 0.97636 0.76652 0.28227 0.0
C53 C 0.0093 0.77341 0.29663 0.0
C54 C 0.00505 0.78328 0.33797 0.0
C55 C 0.98636 0.78545 0.35142 0.0
C56 C 0.98766 0.71795 0.13366 0.0
C57 C 0.97625 0.71867 0.09301 0.0
C58 C 0.9934 0.7003 0.15018 0.0
C59 C 0.98881 0.68368 0.12449 0.0
C60 C 0.97825 0.68446 0.08205 0.0
C61 C 0.97142 0.70207 0.06774 0.0
C62 C 0.97208 0.77642 0.32389 0.0
H63 H 0.03135 0.79356 0.00031 0.0
H64 H 0.0125 0.77139 0.04827 0.0
H65 H 0.04724 0.78531 0.17096 0.0
H66 H 0.06559 0.80804 0.12306 0.0
H67 H 0.01122 0.74241 0.09059 0.0
H68 H 0.01693 0.78347 0.2037 0.0
H69 H 0.98234 0.73262 0.22253 0.0
H70 H 0.96506 0.76059 0.26038 0.0
H71 H 0.02381 0.77269 0.28628 0.0
H72 H 0.01645 0.79017 0.35776 0.0
H73 H 0.97167 0.73219 0.07979 0.0
H74 H 0.00239 0.69952 0.18124 0.0
H75 H 0.95755 0.77755 0.33359 0.0
H76 H 0.96288 0.70317 0.03599 0.0
H77 H 0.99447 0.67044 0.13643 0.0
C78 C 0.72307 0.04592 0.98988 0.0
C79 C 0.70902 0.05791 0.00538 0.0
C80 C 0.73563 0.0383 0.02227 0.0
C81 C 0.73485 0.04285 0.07098 0.0
C82 C 0.72155 0.05577 0.086 0.0
C83 C 0.70868 0.063 0.05382 0.0
C84 C 0.7472 0.03349 0.10622 0.0
C85 C 0.76528 0.02826 0.09387 0.0
C86 C 0.77651 0.01857 0.12625 0.0
C87 C 0.76983 0.01454 0.17216 0.0
C88 C 0.75187 0.01981 0.18534 0.0
C89 C 0.74064 0.02904 0.15206 0.0
C90 C 0.74426 0.01525 0.23312 0.0
C91 C 0.74531 0.99687 0.25229 0.0
C92 C 0.73447 0.02897 0.25804 0.0
C93 C 0.72505 0.02419 0.29985 0.0
C94 C 0.72522 0.00556 0.31792 0.0
C95 C 0.79507 0.01241 0.11116 0.0
C96 C 0.79677 0.00219 0.06855 0.0
C97 C 0.81121 0.0174 0.13773 0.0
C98 C 0.82885 0.01291 0.12084 0.0
C99 C 0.83056 0.00305 0.07761 0.0
C100 C 0.81433 0.99745 0.05208 0.0
C101 C 0.73582 0.99205 0.29427 0.0
H102 H 0.72418 0.04202 0.95275 0.0
H103 H 0.74551 0.02833 0.00907 0.0
H104 H 0.72078 0.06008 0.12292 0.0
H105 H 0.69806 0.07202 0.06753 0.0
H106 H 0.77081 0.03183 0.05907 0.0
H107 H 0.72645 0.03215 0.16161 0.0
H108 H 0.77851 0.00715 0.19731 0.0
H109 H 0.75273 0.986 0.23372 0.0
H110 H 0.73359 0.0433 0.24432 0.0
H111 H 0.71686 0.03492 0.31666 0.0
H112 H 0.78449 0.99808 0.04763 0.0
H113 H 0.81022 0.02533 0.17065 0.0
H114 H 0.73638 0.97763 0.30753 0.0
H115 H 0.81524 0.99001 0.01843 0.0
H116 H 0.84117 0.01733 0.14123 0.0
C117 C 0.56037 0.72469 0.34115 0.0
C118 C 0.57315 0.71045 0.35067 0.0
C119 C 0.56126 0.73484 0.2984 0.0
C120 C 0.57486 0.73078 0.26456 0.0
C121 C 0.58869 0.71792 0.27604 0.0
C122 C 0.58793 0.70792 0.31893 0.0
C123 C 0.5718 0.73588 0.2143 0.0
C124 C 0.57235 0.75484 0.19859 0.0
C125 C 0.56837 0.75895 0.15063 0.0
C126 C 0.5632 0.74401 0.11925 0.0
C127 C 0.56195 0.72511 0.13515 0.0
C128 C 0.56663 0.7212 0.18252 0.0
C129 C 0.55426 0.70955 0.10402 0.0
C130 C 0.53851 0.71241 0.07512 0.0
C131 C 0.5616 0.69131 0.10605 0.0
C132 C 0.55292 0.67611 0.0814 0.0
C133 C 0.53681 0.67885 0.05384 0.0
C134 C 0.56857 0.77879 0.13293 0.0
C135 C 0.55835 0.79265 0.15616 0.0
C136 C 0.57752 0.78344 0.08994 0.0
C137 C 0.57561 0.80132 0.0694 0.0
C138 C 0.56458 0.8149 0.09124 0.0
C139 C 0.55627 0.81053 0.13533 0.0
C140 C 0.52991 0.69722 0.05016 0.0
H141 H 0.54893 0.72702 0.36523 0.0
H142 H 0.55034 0.74455 0.28995 0.0
H143 H 0.59918 0.71446 0.25012 0.0
H144 H 0.5979 0.69697 0.32508 0.0
H145 H 0.57596 0.76624 0.22338 0.0
H146 H 0.56525 0.70673 0.19571 0.0
H147 H 0.55965 0.74718 0.08262 0.0
H148 H 0.53232 0.7262 0.07331 0.0
H149 H 0.5739 0.68871 0.12735 0.0
H150 H 0.55875 0.66216 0.08411 0.0
H151 H 0.55123 0.78937 0.18921 0.0
H152 H 0.58555 0.77301 0.07145 0.0
H153 H 0.51744 0.69971 0.02938 0.0
H154 H 0.54782 0.82078 0.15315 0.0
H155 H 0.58205 0.80418 0.03525 0.0
C156 C 0.2 0.59739 0.30734 0.0
C157 C 0.18274 0.5887 0.29397 0.0
C158 C 0.21595 0.59483 0.27976 0.0
C159 C 0.21491 0.58346 0.23845 0.0
C160 C 0.19731 0.5759 0.22369 0.0
C161 C 0.18145 0.57865 0.25082 0.0
C162 C 0.23208 0.57762 0.21346 0.0
C163 C 0.24814 0.57306 0.23939 0.0
C164 C 0.2629 0.56386 0.21736 0.0
C165 C 0.26142 0.55892 0.16891 0.0
C166 C 0.24578 0.56408 0.14222 0.0
C167 C 0.23154 0.5739 0.16439 0.0
C168 C 0.2424 0.55702 0.09323 0.0
C169 C 0.2368 0.56968 0.0578 0.0
C170 C 0.2404 0.53735 0.08492 0.0
C171 C 0.23094 0.53048 0.04427 0.0
C172 C 0.22342 0.54323 0.01144 0.0
C173 C 0.27921 0.55845 0.24632 0.0
C174 C 0.28833 0.57197 0.27611 0.0
C175 C 0.28507 0.53962 0.24651 0.0
C176 C 0.29952 0.5343 0.27693 0.0
C177 C 0.30852 0.54781 0.30705 0.0
C178 C 0.30292 0.56673 0.30594 0.0
C179 C 0.22748 0.56284 0.01711 0.0
H180 H 0.20144 0.60522 0.34048 0.0
H181 H 0.22918 0.60115 0.29178 0.0
H182 H 0.19583 0.56684 0.19262 0.0
H183 H 0.16828 0.57203 0.23919 0.0
H184 H 0.24874 0.57547 0.27748 0.0
H185 H 0.21932 0.57749 0.14376 0.0
H186 H 0.27232 0.55109 0.15206 0.0
H187 H 0.23827 0.58491 0.06344 0.0
H188 H 0.24447 0.52733 0.11198 0.0
H189 H 0.22802 0.51531 0.04093 0.0
H190 H 0.28406 0.58658 0.27654 0.0
H191 H 0.27814 0.52891 0.22416 0.0
H192 H 0.22219 0.57297 0.99187 0.0
H193 H 0.30952 0.57739 0.32903 0.0
H194 H 0.30366 0.51965 0.27692 0.0
C195 C 0.04182 0.19936 0.31951 0.0
C196 C 0.05015 0.1821 0.33013 0.0
C197 C 0.05107 0.21294 0.29102 0.0
C198 C 0.06889 0.20958 0.27275 0.0
C199 C 0.07744 0.19255 0.28458 0.0
C200 C 0.06815 0.17895 0.31288 0.0
C201 C 0.07806 0.22332 0.23937 0.0
C202 C 0.07701 0.24295 0.24654 0.0
C203 C 0.08417 0.256 0.21283 0.0
C204 C 0.09291 0.24924 0.17174 0.0
C205 C 0.09424 0.22953 0.1643 0.0
C206 C 0.08683 0.21678 0.19839 0.0
C207 C 0.1012 0.22166 0.11899 0.0
C208 C 0.09394 0.22771 0.07525 0.0
C209 C 0.11234 0.20564 0.11981 0.0
C210 C 0.11437 0.19463 0.07893 0.0
C211 C 0.10539 0.19947 0.03622 0.0
C212 C 0.08157 0.27655 0.2207 0.0
C213 C 0.0639 0.28268 0.23378 0.0
C214 C 0.09677 0.28979 0.21993 0.0
C215 C 0.09451 0.30858 0.23498 0.0
C216 C 0.07697 0.31443 0.2506 0.0
C217 C 0.06163 0.30135 0.24859 0.0
C218 C 0.09606 0.21673 0.03419 0.0
H219 H 0.0279 0.20211 0.33197 0.0
H220 H 0.04398 0.22579 0.282 0.0
H221 H 0.09127 0.18967 0.27169 0.0
H222 H 0.07506 0.16592 0.32123 0.0
H223 H 0.07047 0.24814 0.27848 0.0
H224 H 0.0869 0.2016 0.19158 0.0
H225 H 0.09815 0.25922 0.14518 0.0
H226 H 0.08532 0.24001 0.0735 0.0
H227 H 0.1183 0.2008 0.15299 0.0
H228 H 0.12165 0.18148 0.08205 0.0
H229 H 0.05191 0.27279 0.23427 0.0
H230 H 0.11053 0.28537 0.20999 0.0
H231 H 0.08933 0.22111 0.00157 0.0
H232 H 0.04797 0.30519 0.26089 0.0
H233 H 0.10656 0.31837 0.23562 0.0
C234 C 0.3235 0.95482 0.29219 0.0
C235 C 0.3395 0.96523 0.30802 0.0
C236 C 0.31093 0.96306 0.26069 0.0
C237 C 0.31438 0.9817 0.24398 0.0
C238 C 0.33061 0.99189 0.25907 0.0
C239 C 0.34299 0.98376 0.29088 0.0
C240 C 0.30092 0.99091 0.21208 0.0
C241 C 0.28187 0.99064 0.22314 0.0
C242 C 0.26931 0.00093 0.19561 0.0
C243 C 0.27588 0.01119 0.15574 0.0
C244 C 0.29492 0.0113 0.14388 0.0
C245 C 0.30729 0.00116 0.17228 0.0
C246 C 0.3023 0.02172 0.10184 0.0
C247 C 0.29448 0.0184 0.0565 0.0
C248 C 0.3187 0.03324 0.10614 0.0
C249 C 0.32789 0.04011 0.06571 0.0
C250 C 0.32092 0.03556 0.02004 0.0
C251 C 0.24977 0.00208 0.21176 0.0
C252 C 0.23943 0.98543 0.22381 0.0
C253 C 0.24231 0.01985 0.22129 0.0
C254 C 0.22536 0.02094 0.24538 0.0
C255 C 0.21548 0.00427 0.25967 0.0
C256 C 0.22237 0.98651 0.24727 0.0
C257 C 0.30376 0.02521 0.01588 0.0
H258 H 0.32051 0.94051 0.30503 0.0
H259 H 0.29854 0.9549 0.24938 0.0
H260 H 0.33353 0.00633 0.2471 0.0
H261 H 0.35533 0.99202 0.30221 0.0
H262 H 0.27698 0.98326 0.25483 0.0
H263 H 0.32198 0.00109 0.16314 0.0
H264 H 0.26628 0.01926 0.13452 0.0
H265 H 0.28185 0.00955 0.05229 0.0
H266 H 0.3249 0.03615 0.1408 0.0
H267 H 0.34113 0.0479 0.0703 0.0
H268 H 0.24493 0.97157 0.2168 0.0
H269 H 0.25012 0.03289 0.21269 0.0
H270 H 0.29793 0.02167 0.98116 0.0
H271 H 0.21512 0.97343 0.25813 0.0
H272 H 0.22027 0.0348 0.25425 0.0
C273 C 0.42558 0.27639 0.98341 0.0
C274 C 0.44207 0.27534 0.95686 0.0
C275 C 0.42339 0.266 0.02548 0.0
C276 C 0.4376 0.25431 0.04153 0.0
C277 C 0.45297 0.25143 0.0121 0.0
C278 C 0.45522 0.26189 0.97005 0.0
C279 C 0.43919 0.25029 0.09294 0.0
C280 C 0.44049 0.23177 0.11117 0.0
C281 C 0.4435 0.22911 0.16029 0.0
C282 C 0.44626 0.24506 0.19017 0.0
C283 C 0.44585 0.26354 0.17182 0.0
C284 C 0.4416 0.26596 0.12358 0.0
C285 C 0.45164 0.28028 0.20151 0.0
C286 C 0.44631 0.2816 0.24944 0.0
C287 C 0.46328 0.29481 0.1821 0.0
C288 C 0.46937 0.31032 0.20974 0.0
C289 C 0.46414 0.31162 0.25762 0.0
C290 C 0.44506 0.20996 0.18139 0.0
C291 C 0.43469 0.20514 0.22212 0.0
C292 C 0.45876 0.19768 0.16574 0.0
C293 C 0.46294 0.18157 0.19253 0.0
C294 C 0.45343 0.17749 0.23525 0.0
C295 C 0.43875 0.18904 0.2486 0.0
C296 C 0.45256 0.29712 0.27731 0.0
H297 H 0.4152 0.28662 0.97441 0.0
H298 H 0.41149 0.26856 0.04791 0.0
H299 H 0.46419 0.24264 0.024 0.0
H300 H 0.46793 0.26055 0.94984 0.0
H301 H 0.43908 0.21961 0.0875 0.0
H302 H 0.44103 0.28022 0.1091 0.0
H303 H 0.44978 0.24298 0.22735 0.0
H304 H 0.43726 0.2707 0.26534 0.0
H305 H 0.4681 0.29402 0.14572 0.0
H306 H 0.47859 0.3211 0.19388 0.0
H307 H 0.42396 0.21435 0.23466 0.0
H308 H 0.46705 0.20121 0.13464 0.0
H309 H 0.44823 0.29786 0.31411 0.0
H310 H 0.43083 0.18605 0.28063 0.0
H311 H 0.47437 0.173 0.18132 0.0
O312 O 0.07415 0.99631 0.65474 0.0
Zn313 Zn 0.05813 0.99577 0.71394 0.0
O314 O 0.03135 0.99229 0.69712 0.0
Zn315 Zn 0.01795 0.01441 0.71783 0.0
Zn316 Zn 0.02854 0.98933 0.62833 0.0
Zn317 Zn 0.02023 0.96975 0.72788 0.0
O318 O 0.99709 0.00742 0.76296 0.0
O319 O -0.00099 0.97618 0.77094 0.0
O320 O 0.0634 0.02062 0.74991 0.0
O321 O 0.03528 0.03278 0.75198 0.0
O322 O 0.00782 0.02875 0.6622 0.0
O323 O 0.01512 0.01124 0.59979 0.0
O324 O 0.01527 0.96455 0.61049 0.0
O325 O 0.0663 0.9739 0.75523 0.0
O326 O 0.01022 0.95039 0.67996 0.0
O327 O 0.0396 0.9573 0.76746 0.0
C328 C 0.07032 0.99313 0.61101 0.0
C329 C 0.99139 0.9917 0.7812 0.0
C330 C 0.00789 0.02592 0.61744 0.0
C331 C 0.05265 0.03381 0.76201 0.0
C332 C 0.00909 0.95039 0.6347 0.0
C333 C 0.05708 0.96008 0.77425 0.0
O334 O 0.05359 0.98969 0.59695 0.0
O335 O 0.51172 0.04355 0.62137 0.0
Zn336 Zn 0.51513 0.02871 0.68234 0.0
O337 O 0.52048 0.00193 0.66877 0.0
Zn338 Zn 0.501 0.98484 0.69506 0.0
Zn339 Zn 0.52191 0.9982 0.59996 0.0
Zn340 Zn 0.54418 0.99551 0.69777 0.0
O341 O 0.51099 0.96713 0.74511 0.0
O342 O 0.54155 0.97337 0.74252 0.0
O343 O 0.49082 0.03027 0.71859 0.0
O344 O 0.48094 1.00002 0.72456 0.0
O345 O 0.4886 0.96887 0.64355 0.0
O346 O 0.50349 0.97767 0.57766 0.0
O347 O 0.54791 0.99187 0.58015 0.0
O348 O 0.53598 0.04168 0.7214 0.0
O349 O 0.56349 0.98979 0.64841 0.0
O350 O 0.55429 0.01749 0.73636 0.0
C351 C 0.51197 0.03888 0.57753 0.0
C352 C 0.52753 0.96395 0.75911 0.0
C353 C 0.49101 0.9675 0.59882 0.0
C354 C 0.47866 0.01766 0.73177 0.0
C355 C 0.56295 0.98903 0.60313 0.0
C356 C 0.5502 0.0348 0.74161 0.0
O357 O 0.51549 0.02202 0.5648 0.0
O358 O 0.4638 0.49717 0.64847 0.0
Zn359 Zn 0.48514 0.49202 0.69461 0.0
O360 O 0.5095 0.49487 0.66156 0.0
Zn361 Zn 0.52293 0.47137 0.66687 0.0
Zn362 Zn 0.50585 0.50108 0.59475 0.0
Zn363 Zn 0.52488 0.51539 0.68923 0.0
O364 O 0.54669 0.47474 0.70612 0.0
O365 O 0.54714 0.50556 0.72346 0.0
O366 O 0.48087 0.4652 0.72121 0.0
O367 O 0.50686 0.45148 0.69903 0.0
O368 O 0.52785 0.4602 0.60246 0.0
O369 O 0.51363 0.47964 0.553 0.0
O370 O 0.51953 0.5254 0.57512 0.0
O371 O 0.48366 0.51159 0.74795 0.0
O372 O 0.53395 0.53485 0.64152 0.0
O373 O 0.50978 0.52919 0.73612 0.0
C374 C 0.46377 0.50272 0.60525 0.0
C375 C 0.5542 0.48928 0.72687 0.0
C376 C 0.52247 0.46457 0.56071 0.0
C377 C 0.4909 0.45062 0.71872 0.0
C378 C 0.53023 0.5372 0.59766 0.0
C379 C 0.49434 0.52608 0.75735 0.0
O380 O 0.47886 0.50497 0.58194 0.0
O381 O 0.98289 0.51334 0.61816 0.0
Zn382 Zn 0.00684 0.51701 0.65722 0.0
O383 O 0.0166 0.49237 0.67774 0.0
Zn384 Zn 0.0171 0.49056 0.74713 0.0
Zn385 Zn 0.00093 0.47164 0.65162 0.0
Zn386 Zn 0.0419 0.48961 0.65474 0.0
O387 O 0.04345 0.4887 0.77256 0.0
O388 O 0.06019 0.48491 0.70733 0.0
O389 O 0.00044 0.53269 0.7151 0.0
O390 O 0.00658 0.5139 0.77628 0.0
O391 O 0.00142 0.46795 0.76974 0.0
O392 O 0.99135 0.45402 0.70293 0.0
O393 O 0.0144 0.45679 0.60189 0.0
O394 O 0.02626 0.53247 0.61959 0.0
O395 O 0.04348 0.46888 0.60545 0.0
O396 O 0.05075 0.51403 0.62512 0.0
C397 C 0.97299 0.49833 0.60861 0.0
C398 C 0.05901 0.48595 0.7524 0.0
C399 C 0.99221 0.45463 0.74819 0.0
C400 C 0.0008 0.52948 0.75975 0.0
C401 C 0.03127 0.45722 0.5877 0.0
C402 C 0.04344 0.52943 0.61241 0.0
O403 O 0.97829 0.48193 0.6205 0.0
C404 C 0.18301 0.99363 0.28342 0.0
C405 C 0.19912 0.00524 0.29148 0.0
C406 C 0.16845 0.99313 0.31634 0.0
C407 C 0.15018 0.01826 0.42249 0.0
H408 H 0.12587 0.96904 0.44713 0.0
C409 C 0.10278 0.0031 0.58548 0.0
C410 C 0.08541 0.99394 0.57524 0.0
C411 C 0.11658 0.00469 0.55053 0.0
C412 C 0.13247 0.98289 0.44041 0.0
H413 H 0.21259 0.02555 0.33998 0.0
H414 H 0.18747 0.0244 0.39788 0.0
H415 H 0.14962 0.97197 0.38562 0.0
H416 H 0.06907 0.97889 0.52067 0.0
H417 H 0.09327 0.9814 0.46014 0.0
H418 H 0.13328 0.02897 0.47843 0.0
C419 C 0.18576 0.01603 0.36567 0.0
C420 C 0.146 0.98463 0.40493 0.0
C421 C 0.2002 0.01669 0.33248 0.0
C422 C 0.08228 0.98607 0.52969 0.0
C423 C 0.09615 0.98743 0.49506 0.0
C424 C 0.13681 0.01645 0.45839 0.0
C425 C 0.1698 0.00404 0.35839 0.0
C426 C 0.15502 0.00235 0.39541 0.0
C427 C 0.11336 0.99689 0.50498 0.0
C428 C 0.12781 0.99876 0.46761 0.0
H429 H 0.18178 0.98477 0.25189 0.0
H430 H 0.15621 0.98405 0.30898 0.0
H431 H 0.15659 0.03218 0.41572 0.0
H432 H 0.10559 0.00935 0.62017 0.0
H433 H 0.1298 0.01193 0.55917 0.0
C434 C 0.46092 0.16607 0.31731 0.0
C435 C 0.45981 0.16244 0.26811 0.0
C436 C 0.46744 0.15242 0.34862 0.0
C437 C 0.47463 0.10111 0.36133 0.0
H438 H 0.50725 0.1178 0.46531 0.0
C439 C 0.50751 0.04816 0.49203 0.0
C440 C 0.50754 0.05312 0.54058 0.0
C441 C 0.50267 0.06132 0.45724 0.0
C442 C 0.49802 0.11292 0.43675 0.0
H443 H 0.46467 0.14151 0.21331 0.0
H444 H 0.47628 0.1176 0.26824 0.0
H445 H 0.49697 0.14085 0.40702 0.0
H446 H 0.50263 0.07596 0.59042 0.0
H447 H 0.49404 0.09884 0.52983 0.0
H448 H 0.47554 0.07319 0.3914 0.0
C449 C 0.47191 0.13102 0.28247 0.0
C450 C 0.49213 0.12613 0.40329 0.0
C451 C 0.4654 0.14476 0.25098 0.0
C452 C 0.50282 0.07165 0.55341 0.0
C453 C 0.49798 0.08481 0.51861 0.0
C454 C 0.48052 0.08788 0.39486 0.0
C455 C 0.47311 0.13477 0.33165 0.0
C456 C 0.48019 0.12044 0.3655 0.0
C457 C 0.49775 0.07978 0.47011 0.0
C458 C 0.49213 0.09367 0.43326 0.0
H459 H 0.45704 0.17964 0.33172 0.0
H460 H 0.46795 0.15569 0.38631 0.0
H461 H 0.46528 0.09629 0.33294 0.0
H462 H 0.51113 0.03404 0.48076 0.0
H463 H 0.50288 0.05706 0.4202 0.0
C464 C 0.32097 0.52622 0.36977 0.0
C465 C 0.32348 0.54223 0.34032 0.0
C466 C 0.33474 0.52162 0.40295 0.0
C467 C 0.3766 0.54287 0.46554 0.0
H468 H 0.38816 0.49029 0.48937 0.0
C469 C 0.44643 0.5202 0.54314 0.0
C470 C 0.44607 0.50724 0.5812 0.0
C471 C 0.43003 0.52442 0.51907 0.0
C472 C 0.38486 0.50501 0.48353 0.0
H473 H 0.34256 0.56559 0.3212 0.0
H474 H 0.36682 0.55729 0.37773 0.0
H475 H 0.36251 0.49751 0.43528 0.0
H476 H 0.42823 0.48853 0.62392 0.0
H477 H 0.39936 0.49559 0.58046 0.0
H478 H 0.39956 0.55031 0.51206 0.0
C479 C 0.354 0.5486 0.37661 0.0
C480 C 0.37017 0.50919 0.4526 0.0
C481 C 0.34016 0.55331 0.34393 0.0
C482 C 0.42888 0.49861 0.59481 0.0
C483 C 0.41244 0.50257 0.56992 0.0
C484 C 0.3914 0.5387 0.49585 0.0
C485 C 0.35139 0.53283 0.40701 0.0
C486 C 0.36608 0.5282 0.44252 0.0
C487 C 0.41292 0.51556 0.53193 0.0
C488 C 0.39586 0.51976 0.5045 0.0
H489 H 0.30814 0.51755 0.36802 0.0
H490 H 0.33214 0.50951 0.42604 0.0
H491 H 0.37355 0.55766 0.45978 0.0
H492 H 0.45942 0.52717 0.53195 0.0
H493 H 0.4308 0.53436 0.48965 0.0
C494 C 0.05812 0.34307 0.26715 0.0
C495 C 0.07476 0.33334 0.27334 0.0
C496 C 0.05436 0.35872 0.29564 0.0
C497 C 0.07406 0.39515 0.37741 0.0
H498 H 0.02701 0.38767 0.44367 0.0
C499 C 0.0555 0.44012 0.54197 0.0
C500 C 0.03667 0.44422 0.54911 0.0
C501 C 0.06051 0.42777 0.50554 0.0
C502 C 0.04003 0.39028 0.42496 0.0
H503 H 0.1011 0.3334 0.31209 0.0
H504 H 0.09467 0.3611 0.36096 0.0
H505 H 0.03541 0.36535 0.38209 0.0
H506 H 0.00839 0.43906 0.52273 0.0
H507 H 0.01713 0.41818 0.45829 0.0
H508 H 0.07859 0.42026 0.41972 0.0
C509 C 0.08451 0.35644 0.33423 0.0
C510 C 0.04486 0.37741 0.38971 0.0
C511 C 0.08821 0.34061 0.30605 0.0
C512 C 0.023 0.43598 0.51859 0.0
C513 C 0.02804 0.4239 0.4817 0.0
C514 C 0.06909 0.40825 0.41225 0.0
C515 C 0.06726 0.36517 0.33048 0.0
C516 C 0.06194 0.37964 0.36577 0.0
C517 C 0.04684 0.41947 0.4749 0.0
C518 C 0.05205 0.40592 0.43675 0.0
H519 H 0.04765 0.33812 0.24153 0.0
H520 H 0.04107 0.36543 0.29151 0.0
H521 H 0.0873 0.3972 0.35933 0.0
H522 H 0.06635 0.44621 0.56504 0.0
H523 H 0.07509 0.42449 0.50205 0.0
C524 C 0.85307 0.98193 0.03755 0.0
C525 C 0.84915 0.99971 0.05712 0.0
C526 C 0.86977 0.97944 0.0133 0.0
C527 C 0.91661 0.00241 0.98864 0.0
H528 H 0.91226 0.97295 0.87198 0.0
C529 C 0.97006 0.00858 0.83598 0.0
C530 C 0.97582 0.99151 0.81563 0.0
C531 C 0.95554 0.0084 0.86896 0.0
C532 C 0.91374 0.98104 0.90474 0.0
H533 H 0.85973 0.02869 0.06773 0.0
H534 H 0.88866 0.02455 0.02452 0.0
H535 H 0.88546 0.97457 0.9245 0.0
H536 H 0.9708 0.96088 0.81389 0.0
H537 H 0.94521 0.96066 0.87098 0.0
H538 H 0.94475 0.00944 0.96751 0.0
C539 C 0.87912 0.01235 0.02873 0.0
C540 C 0.89842 0.98191 0.93504 0.0
C541 C 0.86251 0.01477 0.05345 0.0
C542 C 0.9667 0.97427 0.8289 0.0
C543 C 0.95202 0.97413 0.86145 0.0
C544 C 0.93187 0.00171 0.95802 0.0
C545 C 0.88281 0.99475 0.00755 0.0
C546 C 0.89958 0.99275 0.97719 0.0
C547 C 0.94633 0.99119 0.88185 0.0
C548 C 0.93052 0.99115 0.91558 0.0
H549 H 0.84306 0.97003 0.04037 0.0
H550 H 0.87231 0.96557 0.99842 0.0
H551 H 0.91814 0.01062 0.02117 0.0
H552 H 0.97683 0.0221 0.82668 0.0
H553 H 0.95129 0.02178 0.88378 0.0
C554 C 0.54222 0.83898 0.06242 0.0
C555 C 0.56063 0.83285 0.06596 0.0
C556 C 0.53807 0.85452 0.0338 0.0
C557 C 0.55897 0.89646 0.97191 0.0
H558 H 0.51713 0.88871 0.88471 0.0
C559 C 0.54889 0.94463 0.80895 0.0
C560 C 0.53062 0.94936 0.79613 0.0
C561 C 0.55193 0.93122 0.84448 0.0
C562 C 0.52868 0.89127 0.90928 0.0
H563 H 0.58925 0.83876 0.04419 0.0
H564 H 0.58201 0.86589 0.99415 0.0
H565 H 0.52354 0.86451 0.94395 0.0
H566 H 0.50122 0.94368 0.81088 0.0
H567 H 0.50658 0.92044 0.87338 0.0
H568 H 0.56418 0.92318 0.93719 0.0
C569 C 0.57078 0.8587 0.01351 0.0
C570 C 0.53235 0.87738 0.94325 0.0
C571 C 0.57491 0.84308 0.04187 0.0
C572 C 0.51548 0.9403 0.81967 0.0
C573 C 0.51854 0.92692 0.85542 0.0
C574 C 0.55524 0.9104 0.93811 0.0
C575 C 0.55226 0.86434 0.00838 0.0
C576 C 0.54766 0.87973 0.9746 0.0
C577 C 0.53682 0.92224 0.86832 0.0
C578 C 0.54018 0.90787 0.90597 0.0
H579 H 0.53088 0.83129 0.0802 0.0
H580 H 0.52369 0.85867 0.03095 0.0
H581 H 0.57072 0.89878 0.99599 0.0
H582 H 0.56088 0.95124 0.79146 0.0
H583 H 0.56619 0.92771 0.85282 0.0
C584 C 0.68654 0.49548 0.0053 0.0
C585 C 0.69122 0.47805 0.02558 0.0
C586 C 0.67125 0.49646 0.9744 0.0
C587 C 0.62841 0.46987 0.93172 0.0
H588 H 0.63543 0.50206 0.82077 0.0
C589 C 0.57623 0.46922 0.77304 0.0
C590 C 0.57089 0.48723 0.75759 0.0
C591 C 0.59112 0.46756 0.80512 0.0
C592 C 0.63323 0.49309 0.8517 0.0
H593 H 0.68334 0.44805 0.03036 0.0
H594 H 0.65678 0.44966 0.97589 0.0
H595 H 0.66033 0.50048 0.87994 0.0
H596 H 0.57736 0.5176 0.76263 0.0
H597 H 0.60336 0.51466 0.81805 0.0
H598 H 0.60133 0.46235 0.90282 0.0
C599 C 0.6647 0.46267 0.98442 0.0
C600 C 0.64745 0.49225 0.8858 0.0
C601 C 0.67991 0.46173 0.01568 0.0
C602 C 0.58108 0.5035 0.77385 0.0
C603 C 0.59604 0.50183 0.80546 0.0
C604 C 0.61422 0.47061 0.89737 0.0
C605 C 0.6604 0.47998 0.96266 0.0
C606 C 0.64517 0.48076 0.92646 0.0
C607 C 0.60109 0.48388 0.82188 0.0
C608 C 0.61645 0.48234 0.85719 0.0
H609 H 0.6949 0.50832 0.01277 0.0
H610 H 0.66808 0.51012 0.95924 0.0
H611 H 0.62609 0.46103 0.9628 0.0
H612 H 0.56865 0.45641 0.76128 0.0
H613 H 0.59483 0.45353 0.81687 0.0
C614 C 0.9737 0.649 0.0695 0.0
C615 C 0.97593 0.66745 0.05052 0.0
C616 C 0.97332 0.63305 0.03959 0.0
C617 C 0.96683 0.61771 0.91427 0.0
H618 H 0.00023 0.5778 0.94854 0.0
C619 C 0.99182 0.56289 0.7779 0.0
C620 C 0.99484 0.54427 0.79348 0.0
C621 C 0.98718 0.57702 0.81035 0.0
C622 C 0.99056 0.58861 0.93871 0.0
H623 H 0.97935 0.68344 0.98479 0.0
H624 H 0.97828 0.65577 0.93304 0.0
H625 H 0.99558 0.60383 0.00388 0.0
H626 H 0.99466 0.52575 0.85525 0.0
H627 H 0.98621 0.55024 0.9115 0.0
H628 H 0.96191 0.6026 0.84892 0.0
C629 C 0.97664 0.65364 0.97098 0.0
C630 C 0.98791 0.60355 0.9705 0.0
C631 C 0.97718 0.66954 0.0008 0.0
C632 C 0.99262 0.53999 0.84205 0.0
C633 C 0.98786 0.55407 0.87441 0.0
C634 C 0.96938 0.6027 0.88257 0.0
C635 C 0.975 0.63521 0.99004 0.0
C636 C 0.97625 0.61842 0.95832 0.0
C637 C 0.98532 0.57283 0.85911 0.0
C638 C 0.98151 0.58811 0.89407 0.0
H639 H 0.97244 0.64686 0.10752 0.0
H640 H 0.97185 0.61901 0.05524 0.0
H641 H 0.95757 0.62887 0.90415 0.0
H642 H 0.99346 0.56669 0.74077 0.0
H643 H 0.98558 0.59135 0.79735 0.0
C644 C 0.03011 0.17191 0.39927 0.0
C645 C 0.03995 0.1672 0.35804 0.0
C646 C 0.02099 0.15769 0.42614 0.0
C647 C 0.00344 0.1074 0.42181 0.0
H648 H 0.0146 0.10795 0.55698 0.0
C649 C 0.00562 0.04017 0.53616 0.0
C650 C 0.00218 0.04134 0.58526 0.0
C651 C 0.00434 0.05622 0.50731 0.0
C652 C 0.01089 0.10774 0.51955 0.0
H653 H 0.04734 0.14405 0.31163 0.0
H654 H 0.0317 0.11924 0.35882 0.0
H655 H 0.02393 0.13524 0.50853 0.0
H656 H 0.99276 0.05978 0.64155 0.0
H657 H 0.99023 0.08768 0.59095 0.0
H658 H 0.99095 0.07959 0.43265 0.0
C659 C 0.0309 0.1339 0.37026 0.0
C660 C 0.01631 0.1234 0.49172 0.0
C661 C 0.04009 0.14808 0.3436 0.0
C662 C 0.99576 0.05844 0.60398 0.0
C663 C 0.99441 0.07448 0.57506 0.0
C664 C 0.99795 0.09175 0.44969 0.0
C665 C 0.02141 0.13852 0.41207 0.0
C666 C 0.01314 0.12316 0.44235 0.0
C667 C -0.00052 0.07376 0.52686 0.0
C668 C 0.00212 0.09151 0.49865 0.0
H669 H 0.02982 0.18653 0.41133 0.0
H670 H 0.01371 0.16167 0.4581 0.0
H671 H 0.00052 0.10697 0.38393 0.0
H672 H 0.01049 0.02722 0.52044 0.0
H673 H 0.00844 0.05515 0.4704 0.0
C674 C 0.35995 0.93924 0.33619 0.0
C675 C 0.35244 0.95719 0.3432 0.0
C676 C 0.37365 0.93271 0.36734 0.0
C677 C 0.39558 0.94187 0.48574 0.0
H678 H 0.44147 0.9277 0.42495 0.0
C679 C 0.47698 0.95758 0.52039 0.0
C680 C 0.47741 0.95581 0.5702 0.0
C681 C 0.46183 0.94999 0.49411 0.0
C682 C 0.42871 0.93146 0.44255 0.0
H683 H 0.35245 0.98188 0.38937 0.0
H684 H 0.37623 0.97062 0.44345 0.0
H685 H 0.41289 0.92967 0.37763 0.0
H686 H 0.46332 0.94281 0.63084 0.0
H687 H 0.43706 0.92928 0.58479 0.0
H688 H 0.41152 0.94517 0.54975 0.0
C689 C 0.37163 0.9615 0.41421 0.0
C690 C 0.41229 0.93239 0.41554 0.0
C691 C 0.35815 0.96807 0.38296 0.0
C692 C 0.46327 0.94471 0.59258 0.0
C693 C 0.44817 0.93701 0.56622 0.0
C694 C 0.41195 0.941 0.51267 0.0
C695 C 0.37979 0.94392 0.40632 0.0
C696 C 0.39578 0.93847 0.43649 0.0
C697 C 0.44684 0.94035 0.517 0.0
C698 C 0.42891 0.93662 0.49097 0.0
H699 H 0.35577 0.93062 0.30566 0.0
H700 H 0.37967 0.91909 0.3605 0.0
H701 H 0.38296 0.94628 0.50299 0.0
H702 H 0.48768 0.96592 0.50191 0.0
H703 H 0.46127 0.95298 0.45634 0.0
C704 C 0.47882 0.32499 0.33231 0.0
C705 C 0.47122 0.32793 0.28681 0.0
C706 C 0.48661 0.3403 0.35842 0.0
C707 C 0.48571 0.39218 0.3702 0.0
H708 H 0.53313 0.38717 0.4357 0.0
C709 C 0.51787 0.45483 0.4756 0.0
C710 C 0.52361 0.45035 0.52206 0.0
C711 C 0.51472 0.44045 0.44183 0.0
C712 C 0.51985 0.38876 0.41775 0.0
H713 H 0.46531 0.34916 0.23349 0.0
H714 H 0.47889 0.37589 0.2791 0.0
H715 H 0.51998 0.36061 0.38852 0.0
H716 H 0.53213 0.42746 0.56818 0.0
H717 H 0.52633 0.40244 0.5097 0.0
H718 H 0.48518 0.42003 0.4003 0.0
C719 C 0.47887 0.36178 0.29453 0.0
C720 C 0.51231 0.37355 0.39087 0.0
C721 C 0.47121 0.34648 0.26833 0.0
C722 C 0.52766 0.43142 0.53277 0.0
C723 C 0.52437 0.41703 0.4991 0.0
C724 C 0.49317 0.40733 0.39723 0.0
C725 C 0.48679 0.35882 0.33966 0.0
C726 C 0.49509 0.37507 0.36716 0.0
C727 C 0.51713 0.4213 0.4539 0.0
C728 C 0.51026 0.40576 0.42165 0.0
H729 H 0.47914 0.31081 0.34722 0.0
H730 H 0.49241 0.33765 0.39339 0.0
H731 H 0.4723 0.39367 0.35279 0.0
H732 H 0.51486 0.46931 0.46599 0.0
H733 H 0.50962 0.44426 0.40688 0.0
C734 C 0.15716 0.57025 0.3347 0.0
C735 C 0.1668 0.58778 0.32745 0.0
C736 C 0.14317 0.56848 0.36863 0.0
C737 C 0.10886 0.59205 0.43861 0.0
H738 H 0.116 0.54957 0.52384 0.0
C739 C 0.07384 0.54719 0.60701 0.0
C740 C 0.05565 0.54388 0.58924 0.0
C741 C 0.08694 0.5579 0.58101 0.0
C742 C 0.11388 0.56173 0.50111 0.0
H743 H 0.16894 0.61738 0.34926 0.0
H744 H 0.14412 0.6142 0.40933 0.0
H745 H 0.13977 0.55794 0.46581 0.0
H746 H 0.03634 0.55024 0.53242 0.0
H747 H 0.0596 0.56843 0.48543 0.0
H748 H 0.08256 0.59542 0.47349 0.0
C749 C 0.14754 0.60193 0.38824 0.0
C750 C 0.12745 0.56638 0.46752 0.0
C751 C 0.16177 0.60369 0.35424 0.0
C752 C 0.05032 0.55265 0.5467 0.0
C753 C 0.06362 0.56311 0.52001 0.0
C754 C 0.09509 0.5873 0.47234 0.0
C755 C 0.13845 0.58418 0.39629 0.0
C756 C 0.12491 0.58127 0.43529 0.0
C757 C 0.08228 0.56509 0.53602 0.0
C758 C 0.09738 0.57189 0.5035 0.0
H759 H 0.16087 0.55763 0.3153 0.0
H760 H 0.13626 0.55467 0.374 0.0
H761 H 0.10663 0.60358 0.41395 0.0
H762 H 0.07815 0.54079 0.64019 0.0
H763 H 0.10105 0.55961 0.59494 0.0
C764 C 0.06599 0.81424 0.98414 0.0
C765 C 0.0596 0.81774 0.03033 0.0
C766 C 0.07315 0.82921 0.95612 0.0
C767 C 0.08676 0.88138 0.95947 0.0
H768 H 0.06799 0.87978 0.82972 0.0
C769 C 0.06242 0.94534 0.85281 0.0
C770 C 0.06663 0.94645 0.80426 0.0
C771 C 0.06839 0.93009 0.87994 0.0
C772 C 0.07371 0.88032 0.86552 0.0
H773 H 0.05611 0.83941 0.08402 0.0
H774 H 0.06784 0.86556 0.03497 0.0
H775 H 0.06554 0.85132 0.87838 0.0
H776 H 0.08067 0.93314 0.74577 0.0
H777 H 0.09073 0.90596 0.79311 0.0
H778 H 0.09343 0.91098 0.94718 0.0
C779 C 0.068 0.85129 0.0205 0.0
C780 C 0.07236 0.86396 0.89354 0.0
C781 C 0.06115 0.8363 0.04868 0.0
C782 C 0.07754 0.9326 0.78343 0.0
C783 C 0.08319 0.91709 0.81035 0.0
C784 C 0.08779 0.89785 0.93163 0.0
C785 C 0.07372 0.84803 0.97343 0.0
C786 C 0.07831 0.86442 0.94142 0.0
C787 C 0.07824 0.91548 0.85855 0.0
C788 C 0.08078 0.89756 0.88487 0.0
H789 H 0.06512 0.79999 0.9694 0.0
H790 H 0.07779 0.82606 0.92047 0.0
H791 H 0.09194 0.88218 0.99574 0.0
H792 H 0.05379 0.95581 0.86921 0.0
H793 H 0.06416 0.92905 0.91683 0.0
C794 C 0.685 0.08115 0.97843 0.0
C795 C 0.69397 0.06383 0.9721 0.0
C796 C 0.66942 0.08547 0.95067 0.0
C797 C 0.64396 0.07367 0.8401 0.0
H798 H 0.59855 0.07614 0.91403 0.0
C799 C 0.5683 0.0402 0.81603 0.0
C800 C 0.56273 0.0469 0.77138 0.0
C801 C 0.58276 0.04957 0.84121 0.0
C802 C 0.61114 0.07594 0.89288 0.0
H803 H 0.69362 0.03782 0.93 0.0
H804 H 0.66722 0.04583 0.88063 0.0
H805 H 0.629 0.07924 0.95409 0.0
H806 H 0.56721 0.06891 0.71845 0.0
H807 H 0.59328 0.08502 0.76197 0.0
H808 H 0.62611 0.0693 0.77928 0.0
C809 C 0.67226 0.056 0.90722 0.0
C810 C 0.62852 0.07776 0.91571 0.0
C811 C 0.68751 0.05148 0.93555 0.0
C812 C 0.57121 0.06366 0.75314 0.0
C813 C 0.58609 0.07279 0.77785 0.0
C814 C 0.62659 0.07218 0.81717 0.0
C815 C 0.66282 0.0728 0.91521 0.0
C816 C 0.64503 0.07577 0.88977 0.0
C817 C 0.59223 0.06553 0.8216 0.0
C818 C 0.61004 0.07244 0.84368 0.0
H819 H 0.68976 0.09126 0.00539 0.0
H820 H 0.66235 0.09853 0.95736 0.0
H821 H 0.65653 0.07212 0.81942 0.0
H822 H 0.56197 0.02724 0.83055 0.0
H823 H 0.58738 0.04353 0.87452 0.0
C824 C 0.52086 0.66395 0.98262 0.0
C825 C 0.52699 0.6625 0.02998 0.0
C826 C 0.51194 0.64839 0.9599 0.0
C827 C 0.50778 0.59608 0.96596 0.0
H828 H 0.47059 0.6031 0.86719 0.0
C829 C 0.48486 0.53497 0.83969 0.0
C830 C 0.48892 0.54021 0.79262 0.0
C831 C 0.48379 0.549 0.87495 0.0
C832 C 0.48079 0.60089 0.89512 0.0
H833 H 0.52796 0.64391 0.09135 0.0
H834 H 0.51219 0.61678 0.05189 0.0
H835 H 0.48027 0.62984 0.9184 0.0
H836 H 0.49367 0.56384 0.74435 0.0
H837 H 0.49128 0.58826 0.80525 0.0
H838 H 0.50868 0.56728 0.9416 0.0
C839 C 0.51461 0.62979 0.03193 0.0
C840 C 0.48646 0.61622 0.92415 0.0
C841 C 0.52367 0.64531 0.05452 0.0
C842 C 0.49048 0.55953 0.78053 0.0
C843 C 0.48902 0.57349 0.81533 0.0
C844 C 0.50198 0.58072 0.93719 0.0
C845 C 0.50879 0.63108 0.98419 0.0
C846 C 0.50055 0.61418 0.95871 0.0
C847 C 0.48635 0.56837 0.86315 0.0
C848 C 0.48894 0.58317 0.90037 0.0
H849 H 0.52339 0.67697 0.96273 0.0
H850 H 0.50802 0.6498 0.92282 0.0
H851 H 0.51876 0.594 0.99191 0.0
H852 H 0.48379 0.5201 0.8497 0.0
H853 H 0.48173 0.54472 0.91163 0.0
C854 C 0.8585 0.4075 0.98464 0.0
C855 C 0.84935 0.42477 0.97946 0.0
C856 C 0.87431 0.40385 0.95752 0.0
C857 C 0.915 0.41015 0.92095 0.0
H858 H 0.9158 0.42369 0.78723 0.0
C859 C 0.9783 0.44369 0.82547 0.0
C860 C 0.98002 0.44132 0.77602 0.0
C861 C 0.96376 0.43434 0.85006 0.0
C862 C 0.91583 0.41938 0.82422 0.0
H863 H 0.84995 0.45174 0.9416 0.0
H864 H 0.87686 0.44502 0.89357 0.0
H865 H 0.88616 0.42137 0.82898 0.0
H866 H 0.96916 0.42553 0.71468 0.0
H867 H 0.94388 0.40917 0.75775 0.0
H868 H 0.94484 0.40914 0.91671 0.0
C869 C 0.87172 0.43426 0.91832 0.0
C870 C 0.89885 0.41823 0.84819 0.0
C871 C 0.85619 0.43806 0.94582 0.0
C872 C 0.96807 0.42793 0.75264 0.0
C873 C 0.95354 0.41857 0.77726 0.0
C874 C 0.93208 0.41142 0.89699 0.0
C875 C 0.88103 0.41723 0.92415 0.0
C876 C 0.89835 0.41433 0.89713 0.0
C877 C 0.95068 0.4224 0.82571 0.0
C878 C 0.93272 0.41674 0.84876 0.0
H879 H 0.85352 0.39683 0.00973 0.0
H880 H 0.88128 0.3906 0.96258 0.0
H881 H 0.91497 0.40714 0.95876 0.0
H882 H 0.98736 0.45376 0.84473 0.0
H883 H 0.96193 0.43768 0.88734 0.0
C884 C 0.11741 0.1726 0.98664 0.0
C885 C 0.10311 0.1851 0.99738 0.0
C886 C 0.11381 0.15676 0.95717 0.0
C887 C 0.07419 0.12491 0.9244 0.0
H888 H 0.10637 0.10535 0.82684 0.0
C889 C 0.04821 0.06564 0.79893 0.0
C890 C 0.0602 0.05093 0.78773 0.0
C891 C 0.05488 0.08181 0.82326 0.0
C892 C 0.09737 0.11053 0.85443 0.0
H893 H 0.0741 0.19121 0.98307 0.0
H894 H 0.06808 0.16408 0.93106 0.0
H895 H 0.11567 0.13481 0.86916 0.0
H896 H 0.08877 0.04191 0.79291 0.0
H897 H 0.10044 0.0703 0.8362 0.0
H898 H 0.05596 0.10079 0.91036 0.0
C899 C 0.08197 0.16632 0.94606 0.0
C900 C 0.10267 0.12741 0.87849 0.0
C901 C 0.08554 0.18208 0.97538 0.0
C902 C 0.07915 0.05294 0.8011 0.0
C903 C 0.08586 0.06924 0.82563 0.0
C904 C 0.06896 0.10812 0.90064 0.0
C905 C 0.09584 0.15311 0.93804 0.0
C906 C 0.09093 0.13493 0.91313 0.0
C907 C 0.07372 0.08377 0.83735 0.0
C908 C 0.08029 0.10088 0.86477 0.0
H909 H 0.13117 0.17464 0.00251 0.0
H910 H 0.12479 0.14686 0.95147 0.0
H911 H 0.06509 0.13004 0.95187 0.0
H912 H 0.03357 0.06474 0.7889 0.0
H913 H 0.04522 0.09289 0.8308 0.0
C914 C 0.34384 0.05632 0.97411 0.0
C915 C 0.33286 0.03937 0.97778 0.0
C916 C 0.35766 0.05826 0.93931 0.0
C917 C 0.37644 0.03541 0.83043 0.0
H918 H 0.42442 0.05333 0.88162 0.0
C919 C 0.44613 0.01023 0.75978 0.0
C920 C 0.46119 0.02348 0.75465 0.0
C921 C 0.42953 0.0155 0.78086 0.0
C922 C 0.41109 0.04861 0.86645 0.0
H923 H 0.32719 0.01156 0.94618 0.0
H924 H 0.35116 0.01488 0.88591 0.0
H925 H 0.39621 0.05717 0.92809 0.0
H926 H 0.47054 0.05277 0.76761 0.0
H927 H 0.44148 0.0619 0.80539 0.0
H928 H 0.39155 0.026 0.76979 0.0
C929 C 0.34901 0.02683 0.90933 0.0
C930 C 0.39487 0.05086 0.893 0.0
C931 C 0.33519 0.02492 0.94399 0.0
C932 C 0.45922 0.04221 0.77107 0.0
C933 C 0.44261 0.04744 0.79274 0.0
C934 C 0.39266 0.03305 0.80406 0.0
C935 C 0.36081 0.04328 0.90749 0.0
C936 C 0.37742 0.04378 0.8759 0.0
C937 C 0.4276 0.03412 0.79773 0.0
C938 C 0.41021 0.03914 0.8224 0.0
H939 H 0.34219 0.06782 -0.00077 0.0
H940 H 0.36628 0.07126 0.93829 0.0
H941 H 0.3632 0.03014 0.81578 0.0
H942 H 0.4471 0.9957 0.74739 0.0
H943 H 0.41831 0.00484 0.78489 0.0
C944 C 0.43349 0.29744 0.89019 0.0
C945 C 0.44696 0.29048 0.92165 0.0
C946 C 0.43753 0.31364 0.86256 0.0
C947 C 0.47707 0.34581 0.82244 0.0
H948 H 0.43857 0.38278 0.80979 0.0
C949 C 0.47046 0.43069 0.77352 0.0
C950 C 0.48398 0.43201 0.73755 0.0
C951 C 0.46491 0.41291 0.79239 0.0
C952 C 0.44954 0.37269 0.81334 0.0
H953 H 0.47526 0.29508 0.94845 0.0
H954 H 0.48221 0.32316 0.90109 0.0
H955 H 0.43134 0.35239 0.84844 0.0
H956 H 0.50149 0.41567 0.69132 0.0
H957 H 0.49138 0.3849 0.72261 0.0
H958 H 0.49556 0.36635 0.78993 0.0
C959 C 0.46868 0.31595 0.89655 0.0
C960 C 0.4453 0.3551 0.83484 0.0
C961 C 0.4647 0.29974 0.92376 0.0
C962 C 0.49129 0.41519 0.71967 0.0
C963 C 0.48556 0.39749 0.73786 0.0
C964 C 0.48135 0.36342 0.80151 0.0
C965 C 0.45508 0.32332 0.8661 0.0
C966 C 0.45908 0.34149 0.84006 0.0
C967 C 0.47257 0.39608 0.77514 0.0
C968 C 0.46768 0.37716 0.79676 0.0
H969 H 0.41971 0.29058 0.88766 0.0
H970 H 0.42681 0.31871 0.83891 0.0
H971 H 0.48799 0.33563 0.82513 0.0
H972 H 0.46458 0.44341 0.788 0.0
H973 H 0.45502 0.41243 0.82137 0.0
C974 C 0.1921 0.54627 0.97378 0.0
C975 C 0.20881 0.53652 0.97691 0.0
C976 C 0.17726 0.53921 0.94584 0.0
C977 C 0.15783 0.49481 0.89079 0.0
H978 H 0.12431 0.53006 0.83204 0.0
C979 C 0.09314 0.48 0.76162 0.0
C980 C 0.07645 0.48649 0.78098 0.0
C981 C 0.11022 0.48353 0.78512 0.0
C982 C 0.13359 0.5201 0.8483 0.0
H983 H 0.22319 0.51183 0.95244 0.0
H984 H 0.19729 0.49965 0.90211 0.0
H985 H 0.15336 0.54215 0.86853 0.0
H986 H 0.0645 0.5009 0.84126 0.0
H987 H 0.09444 0.50746 0.88149 0.0
H988 H 0.1379 0.47275 0.86896 0.0
C989 C 0.1956 0.51264 0.92209 0.0
C990 C 0.15018 0.52698 0.86943 0.0
C991 C 0.21047 0.51966 0.95061 0.0
C992 C 0.07707 0.49565 0.82549 0.0
C993 C 0.09416 0.49947 0.84846 0.0
C994 C 0.14131 0.48789 0.86876 0.0
C995 C 0.17872 0.52226 0.91976 0.0
C996 C 0.1623 0.51451 0.89212 0.0
C997 C 0.11086 0.49382 0.82788 0.0
C998 C 0.12892 0.50057 0.8484 0.0
H999 H 0.19013 0.55899 0.99465 0.0
H1000 H 0.16438 0.54677 0.94616 0.0
H1001 H 0.16671 0.4848 0.90822 0.0
H1002 H 0.0931 0.47285 0.72744 0.0
H1003 H 0.123 0.47913 0.76867 0.0
C1004 C 0.96736 0.81139 0.38592 0.0
C1005 C 0.98202 0.79878 0.39077 0.0
C1006 C 0.96544 0.82628 0.41837 0.0
C1007 C 0.98403 0.84663 0.53362 0.0
H1008 H 0.9744 0.89456 0.47192 0.0
C1009 C 0.99254 0.91819 0.63476 0.0
C1010 C 0.00136 0.93325 0.60954 0.0
C1011 C 0.98636 0.90154 0.61115 0.0
C1012 C 0.9772 0.88132 0.48975 0.0
H1013 H 0.00508 0.79094 0.43624 0.0
H1014 H 0.0023 0.81725 0.49134 0.0
H1015 H 0.97049 0.86513 0.42726 0.0
H1016 H 0.01031 0.94268 0.53952 0.0
H1017 H 9e-05 0.91364 0.49881 0.0
H1018 H 0.99202 0.86302 0.59514 0.0
C1019 C 0.9921 0.81563 0.46287 0.0
C1020 C 0.97464 0.86433 0.4643 0.0
C1021 C 0.99387 0.80063 0.43078 0.0
C1022 C 0.00349 0.93143 0.56008 0.0
C1023 C 0.99748 0.91476 0.5366 0.0
C1024 C 0.9868 0.86367 0.55894 0.0
C1025 C 0.97825 0.82905 0.45619 0.0
C1026 C 0.97844 0.84677 0.48552 0.0
C1027 C 0.98899 0.8995 0.56184 0.0
C1028 C 0.98387 0.88127 0.53695 0.0
H1029 H 0.95798 0.81049 0.35554 0.0
H1030 H 0.95431 0.83604 0.4127 0.0
H1031 H 0.98677 0.83338 0.55147 0.0
H1032 H 0.99056 0.91917 0.67286 0.0
H1033 H 0.97963 0.89022 0.63165 0.0
C1034 C 0.70205 0.98295 0.35703 0.0
C1035 C 0.71291 7e-05 0.35845 0.0
C1036 C 0.68791 0.97944 0.39035 0.0
C1037 C 0.6551 0.00645 0.45659 0.0
H1038 H 0.64142 0.95898 0.51994 0.0
C1039 C 0.58142 0.99106 0.52798 0.0
C1040 C 0.58045 0.9864 0.57656 0.0
C1041 C 0.59842 0.99085 0.50402 0.0
C1042 C 0.64516 0.97231 0.5025 0.0
H1043 H 0.71861 0.02602 0.39874 0.0
H1044 H 0.69366 0.02003 0.45618 0.0
H1045 H 0.67109 0.96209 0.47645 0.0
H1046 H 0.59639 0.97683 0.63738 0.0
H1047 H 0.62612 0.97613 0.59488 0.0
H1048 H 0.62908 0.01656 0.48129 0.0
C1049 C 0.69599 0.00947 0.42895 0.0
C1050 C 0.66204 0.97407 0.47765 0.0
C1051 C 0.71021 0.01291 0.39598 0.0
C1052 C 0.5967 0.98059 0.60001 0.0
C1053 C 0.61368 0.98011 0.57575 0.0
C1054 C 0.63816 0.00459 0.48062 0.0
C1055 C 0.68429 0.99302 0.42544 0.0
C1056 C 0.66713 0.99118 0.45445 0.0
C1057 C 0.61475 0.98571 0.52789 0.0
C1058 C 0.63298 0.98749 0.50352 0.0
H1059 H 0.70363 0.97282 0.32842 0.0
H1060 H 0.67902 0.96669 0.38671 0.0
H1061 H 0.65854 0.01972 0.4385 0.0
H1062 H 0.5692 0.99559 0.50879 0.0
H1063 H 0.59889 0.99506 0.46695 0.0
C1064 C 0.55134 0.68727 0.39095 0.0
C1065 C 0.56925 0.69604 0.3882 0.0
C1066 C 0.54807 0.67141 0.41988 0.0
C1067 C 0.57339 0.63237 0.47703 0.0
H1068 H 0.52423 0.62008 0.52824 0.0
C1069 C 0.55244 0.5656 0.59227 0.0
C1070 C 0.53704 0.55487 0.57384 0.0
C1071 C 0.55769 0.58322 0.57237 0.0
C1072 C 0.53802 0.62337 0.5141 0.0
H1073 H 0.59759 0.6957 0.41547 0.0
H1074 H 0.59175 0.66836 0.46777 0.0
H1075 H 0.53077 0.65139 0.49374 0.0
H1076 H 0.51527 0.55407 0.51969 0.0
H1077 H 0.5242 0.58507 0.48585 0.0
H1078 H 0.58057 0.60429 0.49877 0.0
C1079 C 0.58032 0.6734 0.44643 0.0
C1080 C 0.54178 0.64126 0.49409 0.0
C1081 C 0.58365 0.68917 0.41685 0.0
C1082 C 0.52725 0.56193 0.53453 0.0
C1083 C 0.53226 0.5797 0.51537 0.0
C1084 C 0.5697 0.61459 0.49798 0.0
C1085 C 0.56258 0.664 0.44739 0.0
C1086 C 0.55937 0.64586 0.47414 0.0
C1087 C 0.54738 0.59057 0.53445 0.0
C1088 C 0.55186 0.60982 0.51565 0.0
H1089 H 0.54004 0.69196 0.36853 0.0
H1090 H 0.53433 0.66444 0.41867 0.0
H1091 H 0.58701 0.63521 0.46153 0.0
H1092 H 0.56026 0.5605 0.6225 0.0
H1093 H 0.56941 0.5914 0.5876 0.0
C1094 C 0.83583 0.50458 0.34798 0.0
C1095 C 0.82332 0.4888 0.35343 0.0
C1096 C 0.8502 0.50817 0.38118 0.0
C1097 C 0.87937 0.48105 0.45982 0.0
H1098 H 0.89783 0.52979 0.50933 0.0
C1099 C 0.9412 0.48478 0.58915 0.0
C1100 C 0.95472 0.49964 0.58411 0.0
C1101 C 0.9242 0.48519 0.56484 0.0
C1102 C 0.89296 0.51611 0.49536 0.0
H1103 H 0.81503 0.46554 0.40028 0.0
H1104 H 0.84019 0.47172 0.45788 0.0
H1105 H 0.86912 0.52796 0.46121 0.0
H1106 H 0.96083 0.52688 0.55056 0.0
H1107 H 0.93124 0.5273 0.50634 0.0
H1108 H 0.9033 0.46916 0.49184 0.0
C1109 C 0.83905 0.48111 0.42754 0.0
C1110 C 0.87648 0.51507 0.46806 0.0
C1111 C 0.82466 0.47757 0.39456 0.0
C1112 C 0.95066 0.51521 0.55505 0.0
C1113 C 0.93367 0.51549 0.52996 0.0
C1114 C 0.89585 0.4821 0.48647 0.0
C1115 C 0.85237 0.49601 0.42027 0.0
C1116 C 0.86947 0.49748 0.45037 0.0
C1117 C 0.92035 0.5003 0.53401 0.0
C1118 C 0.90283 0.49959 0.505 0.0
H1119 H 0.83528 0.51342 0.31652 0.0
H1120 H 0.86031 0.51972 0.3746 0.0
H1121 H 0.87458 0.46737 0.44562 0.0
H1122 H 0.94373 0.47275 0.61201 0.0
H1123 H 0.9141 0.47353 0.57006 0.0
loop_
_geom_bond_atom_site_label_1
_geom_bond_atom_site_label_2
_geom_bond_distance
_geom_bond_site_symmetry_2
_ccdc_geom_bond_type
C0 C1 1.386 . S
C0 C2 1.397 . S
C0 H24 0.931 . S
C1 C0 1.386 . S
C1 C5 1.397 . S
C2 C0 1.397 . S
C2 C3 1.384 . S
C2 H25 0.930 . S
C3 C2 1.384 . S
C3 C4 1.377 . S
C3 C6 1.481 1_556 S
C4 C3 1.377 . S
C4 C5 1.389 . S
C4 H26 0.929 . S
C5 C1 1.397 . S
C5 C4 1.389 . S
C5 H27 0.931 . S
C6 C3 1.481 1_554 S
C6 C7 1.387 1_554 S
C6 C11 1.390 . S
C7 C6 1.387 1_556 S
C7 C8 1.401 1_556 S
C7 H28 0.930 . S
C8 C7 1.401 1_554 S
C8 C9 1.376 . S
C8 C17 1.511 . S
C9 C8 1.376 . S
C9 C10 1.392 . S
C9 H30 0.931 . S
C10 C9 1.392 . S
C10 C11 1.361 . S
C10 C12 1.500 . S
C11 C6 1.390 . S
C11 C10 1.361 . S
C11 H29 0.931 . S
C12 C10 1.500 . S
C12 C13 1.371 . S
C12 C14 1.365 . S
C13 C12 1.371 . S
C13 C23 1.386 . S
C13 H31 0.931 . S
C14 C12 1.365 . S
C14 C15 1.409 . S
C14 H32 0.929 . S
C15 C14 1.409 . S
C15 C16 1.380 . S
C15 H33 0.930 . S
C16 C15 1.380 . S
C16 C23 1.357 . S
C17 C8 1.511 . S
C17 C18 1.341 1_554 S
C17 C19 1.371 . S
C18 C17 1.341 1_556 S
C18 C22 1.394 . S
C18 H34 0.930 . S
C19 C17 1.371 . S
C19 C20 1.392 . S
C19 H35 0.931 . S
C20 C19 1.392 . S
C20 C21 1.331 1_554 S
C20 H38 0.932 . S
C21 C20 1.331 1_556 S
C21 C22 1.336 . S
C22 C18 1.394 . S
C22 C21 1.336 . S
C22 H37 0.929 . S
C23 C13 1.386 . S
C23 C16 1.357 . S
C23 H36 0.928 . S
H24 C0 0.931 . S
H25 C2 0.930 . S
H26 C4 0.929 . S
H27 C5 0.931 . S
H28 C7 0.930 . S
H29 C11 0.931 . S
H30 C9 0.931 . S
H31 C13 0.931 . S
H32 C14 0.929 . S
H33 C15 0.930 . S
H34 C18 0.930 . S
H35 C19 0.931 . S
H36 C23 0.928 . S
H37 C22 0.929 . S
H38 C20 0.932 . S
C39 C40 1.386 . S
C39 C41 1.397 . S
C39 H63 0.931 . S
C40 C39 1.386 . S
C40 C44 1.397 1_656 S
C41 C39 1.397 . S
C41 C42 1.384 1_556 S
C41 H64 0.930 . S
C42 C41 1.384 1_554 S
C42 C43 1.377 1_655 S
C42 C45 1.481 . S
C43 C42 1.377 1_455 S
C43 C44 1.389 . S
C43 H65 0.929 . S
C44 C40 1.397 1_454 S
C44 C43 1.389 . S
C44 H66 0.931 . S
C45 C42 1.481 . S
C45 C46 1.387 . S
C45 C50 1.390 . S
C46 C45 1.387 . S
C46 C47 1.401 . S
C46 H67 0.930 . S
C47 C46 1.401 . S
C47 C48 1.376 . S
C47 C56 1.511 . S
C48 C47 1.376 . S
C48 C49 1.392 . S
C48 H69 0.931 . S
C49 C48 1.392 . S
C49 C50 1.361 . S
C49 C51 1.500 . S
C50 C45 1.390 . S
C50 C49 1.361 . S
C50 H68 0.931 . S
C51 C49 1.500 . S
C51 C52 1.371 . S
C51 C53 1.365 1_655 S
C52 C51 1.371 . S
C52 C62 1.386 . S
C52 H70 0.931 . S
C53 C51 1.365 1_455 S
C53 C54 1.409 . S
C53 H71 0.929 . S
C54 C53 1.409 . S
C54 C55 1.380 1_455 S
C54 H72 0.930 . S
C55 C54 1.380 1_655 S
C55 C62 1.357 . S
C56 C47 1.511 . S
C56 C57 1.341 . S
C56 C58 1.371 . S
C57 C56 1.341 . S
C57 C61 1.394 . S
C57 H73 0.930 . S
C58 C56 1.371 . S
C58 C59 1.392 . S
C58 H74 0.931 . S
C59 C58 1.392 . S
C59 C60 1.331 . S
C59 H77 0.932 . S
C60 C59 1.331 . S
C60 C61 1.336 . S
C61 C57 1.394 . S
C61 C60 1.336 . S
C61 H76 0.929 1_554 S
C62 C52 1.386 . S
C62 C55 1.357 . S
C62 H75 0.928 . S
H63 C39 0.931 . S
H64 C41 0.930 . S
H65 C43 0.929 . S
H66 C44 0.931 . S
H67 C46 0.930 . S
H68 C50 0.931 . S
H69 C48 0.931 . S
H70 C52 0.931 . S
H71 C53 0.929 . S
H72 C54 0.930 . S
H73 C57 0.930 . S
H74 C58 0.931 . S
H75 C62 0.928 . S
H76 C61 0.929 1_556 S
H77 C59 0.932 . S
C78 C79 1.388 . S
C78 C80 1.397 . S
C78 H102 0.931 . S
C79 C78 1.388 . S
C79 C83 1.395 1_565 S
C80 C78 1.397 . S
C80 C81 1.386 . S
C80 H103 0.930 . S
C81 C80 1.386 . S
C81 C82 1.376 1_565 S
C81 C84 1.480 1_556 S
C82 C81 1.376 1_545 S
C82 C83 1.389 . S
C82 H104 0.929 1_556 S
C83 C79 1.395 1_545 S
C83 C82 1.389 . S
C83 H105 0.931 . S
C84 C81 1.480 1_554 S
C84 C85 1.390 . S
C84 C89 1.390 . S
C85 C84 1.390 . S
C85 C86 1.401 . S
C85 H106 0.930 1_554 S
C86 C85 1.401 . S
C86 C87 1.376 . S
C86 C95 1.514 . S
C87 C86 1.376 . S
C87 C88 1.390 . S
C87 H108 0.936 . S
C88 C87 1.390 . S
C88 C89 1.361 . S
C88 C90 1.499 1_565 S
C89 C84 1.390 . S
C89 C88 1.361 . S
C89 H107 0.931 . S
C90 C88 1.499 1_545 S
C90 C91 1.362 1_545 S
C90 C92 1.375 . S
C91 C90 1.362 1_565 S
C91 C101 1.386 . S
C91 H109 0.931 . S
C92 C90 1.375 . S
C92 C93 1.409 . S
C92 H110 0.929 . S
C93 C92 1.409 . S
C93 C94 1.380 . S
C93 H111 0.930 . S
C94 C93 1.380 . S
C94 C101 1.357 1_545 S
C95 C86 1.514 . S
C95 C96 1.341 . S
C95 C97 1.371 1_565 S
C96 C95 1.341 . S
C96 C100 1.394 1_554 S
C96 H112 0.930 1_554 S
C97 C95 1.371 1_545 S
C97 C98 1.392 . S
C97 H113 0.931 . S
C98 C97 1.392 . S
C98 C99 1.318 1_545 S
C98 H116 0.932 . S
C99 C98 1.318 1_565 S
C99 C100 1.349 1_554 S
C100 C96 1.394 1_556 S
C100 C99 1.349 1_556 S
C100 H115 0.929 . S
C101 C91 1.386 . S
C101 C94 1.357 1_565 S
C101 H114 0.928 . S
H102 C78 0.931 . S
H103 C80 0.930 . S
H104 C82 0.929 1_554 S
H105 C83 0.931 . S
H106 C85 0.930 1_556 S
H107 C89 0.931 . S
H108 C87 0.936 . S
H109 C91 0.931 . S
H110 C92 0.929 . S
H111 C93 0.930 . S
H112 C96 0.930 1_556 S
H113 C97 0.931 . S
H114 C101 0.928 . S
H115 C100 0.929 . S
H116 C98 0.932 . S
C117 C118 1.386 . S
C117 C119 1.397 . S
C117 H141 0.931 . S
C118 C117 1.386 . S
C118 C122 1.397 . S
C119 C117 1.397 . S
C119 C120 1.384 . S
C119 H142 0.930 . S
C120 C119 1.384 . S
C120 C121 1.377 . S
C120 C123 1.481 . S
C121 C120 1.377 . S
C121 C122 1.389 . S
C121 H143 0.929 . S
C122 C118 1.397 . S
C122 C121 1.389 . S
C122 H144 0.931 . S
C123 C120 1.481 . S
C123 C124 1.387 . S
C123 C128 1.390 . S
C124 C123 1.387 . S
C124 C125 1.401 . S
C124 H145 0.930 . S
C125 C124 1.401 . S
C125 C126 1.376 . S
C125 C134 1.511 . S
C126 C125 1.376 . S
C126 C127 1.392 . S
C126 H147 0.931 1_554 S
C127 C126 1.392 . S
C127 C128 1.361 . S
C127 C129 1.500 1_554 S
C128 C123 1.390 . S
C128 C127 1.361 . S
C128 H146 0.931 . S
C129 C127 1.500 1_556 S
C129 C130 1.371 . S
C129 C131 1.365 . S
C130 C129 1.371 . S
C130 C140 1.386 . S
C130 H148 0.931 . S
C131 C129 1.365 . S
C131 C132 1.409 . S
C131 H149 0.929 1_556 S
C132 C131 1.409 . S
C132 C133 1.380 . S
C132 H150 0.930 . S
C133 C132 1.380 . S
C133 C140 1.357 . S
C134 C125 1.511 . S
C134 C135 1.341 . S
C134 C136 1.371 1_554 S
C135 C134 1.341 . S
C135 C139 1.394 . S
C135 H151 0.930 . S
C136 C134 1.371 1_556 S
C136 C137 1.392 . S
C136 H152 0.931 . S
C137 C136 1.392 . S
C137 C138 1.331 1_556 S
C137 H155 0.932 . S
C138 C137 1.331 1_554 S
C138 C139 1.336 . S
C139 C135 1.394 . S
C139 C138 1.336 . S
C139 H154 0.929 . S
C140 C130 1.386 . S
C140 C133 1.357 . S
C140 H153 0.928 . S
H141 C117 0.931 . S
H142 C119 0.930 . S
H143 C121 0.929 . S
H144 C122 0.931 . S
H145 C124 0.930 . S
H146 C128 0.931 . S
H147 C126 0.931 1_556 S
H148 C130 0.931 . S
H149 C131 0.929 1_554 S
H150 C132 0.930 . S
H151 C135 0.930 . S
H152 C136 0.931 . S
H153 C140 0.928 . S
H154 C139 0.929 . S
H155 C137 0.932 . S
C156 C157 1.386 . S
C156 C158 1.397 . S
C156 H180 0.931 . S
C157 C156 1.386 . S
C157 C161 1.397 . S
C158 C156 1.397 . S
C158 C159 1.384 . S
C158 H181 0.930 . S
C159 C158 1.384 . S
C159 C160 1.377 . S
C159 C162 1.481 . S
C160 C159 1.377 . S
C160 C161 1.389 . S
C160 H182 0.929 . S
C161 C157 1.397 . S
C161 C160 1.389 . S
C161 H183 0.931 . S
C162 C159 1.481 . S
C162 C163 1.387 . S
C162 C167 1.390 . S
C163 C162 1.387 . S
C163 C164 1.401 . S
C163 H184 0.930 . S
C164 C163 1.401 . S
C164 C165 1.376 . S
C164 C173 1.511 . S
C165 C164 1.376 . S
C165 C166 1.392 . S
C165 H186 0.931 . S
C166 C165 1.392 . S
C166 C167 1.361 . S
C166 C168 1.500 . S
C167 C162 1.390 . S
C167 C166 1.361 . S
C167 H185 0.931 . S
C168 C166 1.500 . S
C168 C169 1.371 . S
C168 C170 1.365 . S
C169 C168 1.371 . S
C169 C179 1.386 . S
C169 H187 0.931 . S
C170 C168 1.365 . S
C170 C171 1.409 . S
C170 H188 0.929 . S
C171 C170 1.409 . S
C171 C172 1.380 . S
C171 H189 0.930 . S
C172 C171 1.380 . S
C172 C179 1.357 . S
C173 C164 1.511 . S
C173 C174 1.341 . S
C173 C175 1.371 . S
C174 C173 1.341 . S
C174 C178 1.394 . S
C174 H190 0.930 . S
C175 C173 1.371 . S
C175 C176 1.392 . S
C175 H191 0.931 . S
C176 C175 1.392 . S
C176 C177 1.331 . S
C176 H194 0.932 . S
C177 C176 1.331 . S
C177 C178 1.336 . S
C178 C174 1.394 . S
C178 C177 1.336 . S
C178 H193 0.929 . S
C179 C169 1.386 . S
C179 C172 1.357 . S
C179 H192 0.928 . S
H180 C156 0.931 . S
H181 C158 0.930 . S
H182 C160 0.929 . S
H183 C161 0.931 . S
H184 C163 0.930 . S
H185 C167 0.931 . S
H186 C165 0.931 . S
H187 C169 0.931 . S
H188 C170 0.929 . S
H189 C171 0.930 . S
H190 C174 0.930 . S
H191 C175 0.931 . S
H192 C179 0.928 . S
H193 C178 0.929 . S
H194 C176 0.932 . S
C195 C196 1.386 . S
C195 C197 1.397 . S
C195 H219 0.931 . S
C196 C195 1.386 . S
C196 C200 1.397 . S
C197 C195 1.397 . S
C197 C198 1.384 . S
C197 H220 0.930 . S
C198 C197 1.384 . S
C198 C199 1.377 . S
C198 C201 1.481 . S
C199 C198 1.377 . S
C199 C200 1.389 . S
C199 H221 0.929 . S
C200 C196 1.397 . S
C200 C199 1.389 . S
C200 H222 0.931 . S
C201 C198 1.481 . S
C201 C202 1.387 . S
C201 C206 1.390 . S
C202 C201 1.387 . S
C202 C203 1.401 . S
C202 H223 0.930 . S
C203 C202 1.401 . S
C203 C204 1.376 . S
C203 C212 1.511 . S
C204 C203 1.376 . S
C204 C205 1.392 . S
C204 H225 0.931 . S
C205 C204 1.392 . S
C205 C206 1.361 . S
C205 C207 1.500 . S
C206 C201 1.390 . S
C206 C205 1.361 . S
C206 H224 0.931 . S
C207 C205 1.500 . S
C207 C208 1.371 . S
C207 C209 1.365 . S
C208 C207 1.371 . S
C208 C218 1.386 . S
C208 H226 0.931 . S
C209 C207 1.365 . S
C209 C210 1.409 . S
C209 H227 0.929 . S
C210 C209 1.409 . S
C210 C211 1.380 . S
C210 H228 0.930 . S
C211 C210 1.380 . S
C211 C218 1.357 . S
C212 C203 1.511 . S
C212 C213 1.341 . S
C212 C214 1.371 . S
C213 C212 1.341 . S
C213 C217 1.394 . S
C213 H229 0.930 . S
C214 C212 1.371 . S
C214 C215 1.392 . S
C214 H230 0.931 . S
C215 C214 1.392 . S
C215 C216 1.331 . S
C215 H233 0.932 . S
C216 C215 1.331 . S
C216 C217 1.336 . S
C217 C213 1.394 . S
C217 C216 1.336 . S
C217 H232 0.929 . S
C218 C208 1.386 . S
C218 C211 1.357 . S
C218 H231 0.928 . S
H219 C195 0.931 . S
H220 C197 0.930 . S
H221 C199 0.929 . S
H222 C200 0.931 . S
H223 C202 0.930 . S
H224 C206 0.931 . S
H225 C204 0.931 . S
H226 C208 0.931 . S
H227 C209 0.929 . S
H228 C210 0.930 . S
H229 C213 0.930 . S
H230 C214 0.931 . S
H231 C218 0.928 . S
H232 C217 0.929 . S
H233 C215 0.932 . S
C234 C235 1.387 1_565 S
C234 C236 1.397 . S
C234 H258 0.931 . S
C235 C234 1.387 1_545 S
C235 C239 1.396 . S
C236 C234 1.397 . S
C236 C237 1.385 1_565 S
C236 H259 0.930 . S
C237 C236 1.385 1_545 S
C237 C238 1.376 . S
C237 C240 1.481 1_545 S
C238 C237 1.376 . S
C238 C239 1.389 . S
C238 H260 0.929 . S
C239 C235 1.396 . S
C239 C238 1.389 . S
C239 H261 0.931 . S
C240 C237 1.481 1_565 S
C240 C241 1.388 . S
C240 C245 1.390 . S
C241 C240 1.388 . S
C241 C242 1.399 . S
C241 H262 0.935 . S
C242 C241 1.399 . S
C242 C243 1.376 . S
C242 C251 1.511 . S
C243 C242 1.376 . S
C243 C244 1.393 1_565 S
C243 H264 0.932 . S
C244 C243 1.393 1_545 S
C244 C245 1.361 1_545 S
C244 C246 1.499 . S
C245 C240 1.390 . S
C245 C244 1.361 1_565 S
C245 H263 0.931 1_565 S
C246 C244 1.499 . S
C246 C247 1.357 1_545 S
C246 C248 1.380 . S
C247 C246 1.357 1_565 S
C247 C257 1.386 . S
C247 H265 0.931 . S
C248 C246 1.380 . S
C248 C249 1.409 . S
C248 H266 0.929 . S
C249 C248 1.409 . S
C249 C250 1.386 . S
C249 H267 0.930 . S
C250 C249 1.386 . S
C250 C257 1.352 1_545 S
C251 C242 1.511 . S
C251 C252 1.341 . S
C251 C253 1.371 1_565 S
C252 C251 1.341 . S
C252 C256 1.394 . S
C252 H268 0.930 . S
C253 C251 1.371 1_545 S
C253 C254 1.392 . S
C253 H269 0.931 . S
C254 C253 1.392 . S
C254 C255 1.322 1_545 S
C254 H272 0.932 . S
C255 C254 1.322 1_565 S
C255 C256 1.347 . S
C256 C252 1.394 . S
C256 C255 1.347 . S
C256 H271 0.929 . S
C257 C247 1.386 . S
C257 C250 1.352 1_565 S
C257 H270 0.928 . S
H258 C234 0.931 . S
H259 C236 0.930 . S
H260 C238 0.929 . S
H261 C239 0.931 . S
H262 C241 0.935 . S
H263 C245 0.931 1_545 S
H264 C243 0.932 . S
H265 C247 0.931 . S
H266 C248 0.929 . S
H267 C249 0.930 . S
H268 C252 0.930 . S
H269 C253 0.931 . S
H270 C257 0.928 . S
H271 C256 0.929 . S
H272 C254 0.932 . S
C273 C274 1.386 . S
C273 C275 1.397 . S
C273 H297 0.931 . S
C274 C273 1.386 . S
C274 C278 1.397 . S
C275 C273 1.397 . S
C275 C276 1.384 . S
C275 H298 0.930 . S
C276 C275 1.384 . S
C276 C277 1.377 . S
C276 C279 1.481 . S
C277 C276 1.377 . S
C277 C278 1.389 . S
C277 H299 0.929 . S
C278 C274 1.397 . S
C278 C277 1.389 . S
C278 H300 0.931 . S
C279 C276 1.481 . S
C279 C280 1.387 . S
C279 C284 1.390 . S
C280 C279 1.387 . S
C280 C281 1.401 . S
C280 H301 0.930 . S
C281 C280 1.401 . S
C281 C282 1.376 . S
C281 C290 1.511 . S
C282 C281 1.376 . S
C282 C283 1.392 . S
C282 H303 0.931 . S
C283 C282 1.392 . S
C283 C284 1.361 . S
C283 C285 1.500 . S
C284 C279 1.390 . S
C284 C283 1.361 . S
C284 H302 0.931 . S
C285 C283 1.500 . S
C285 C286 1.371 . S
C285 C287 1.365 . S
C286 C285 1.371 . S
C286 C296 1.386 . S
C286 H304 0.931 . S
C287 C285 1.365 . S
C287 C288 1.409 . S
C287 H305 0.929 . S
C288 C287 1.409 . S
C288 C289 1.380 . S
C288 H306 0.930 . S
C289 C288 1.380 . S
C289 C296 1.357 . S
C290 C281 1.511 . S
C290 C291 1.341 . S
C290 C292 1.371 . S
C291 C290 1.341 . S
C291 C295 1.394 . S
C291 H307 0.930 . S
C292 C290 1.371 . S
C292 C293 1.392 . S
C292 H308 0.931 . S
C293 C292 1.392 . S
C293 C294 1.331 . S
C293 H311 0.932 . S
C294 C293 1.331 . S
C294 C295 1.336 . S
C295 C291 1.394 . S
C295 C294 1.336 . S
C295 H310 0.929 . S
C296 C286 1.386 . S
C296 C289 1.357 . S
C296 H309 0.928 . S
H297 C273 0.931 . S
H298 C275 0.930 . S
H299 C277 0.929 . S
H300 C278 0.931 . S
H301 C280 0.930 . S
H302 C284 0.931 . S
H303 C282 0.931 . S
H304 C286 0.931 . S
H305 C287 0.929 . S
H306 C288 0.930 . S
H307 C291 0.930 . S
H308 C292 0.931 . S
H309 C296 0.928 . S
H310 C295 0.929 . S
H311 C293 0.932 . S
O312 Zn313 1.954 . S
O312 C328 1.232 . S
Zn313 O312 1.954 . S
Zn313 O314 1.948 . S
Zn313 O320 1.885 1_565 S
Zn313 O325 1.965 . S
O314 Zn313 1.948 . S
O314 Zn315 1.904 1_565 S
O314 Zn316 1.952 . S
O314 Zn317 1.960 . S
Zn315 O314 1.904 1_545 S
Zn315 O318 1.933 1_455 S
Zn315 O321 1.941 . S
Zn315 O322 1.965 . S
Zn316 O314 1.952 . S
Zn316 O323 1.938 1_565 S
Zn316 O324 1.906 . S
Zn316 O334 1.953 . S
Zn317 O314 1.960 . S
Zn317 O319 1.932 1_455 S
Zn317 O326 1.977 . S
Zn317 O327 1.910 . S
O318 Zn315 1.933 1_655 S
O318 C329 1.226 . S
O319 Zn317 1.932 1_655 S
O319 C329 1.307 1_565 S
O320 Zn313 1.885 1_545 S
O320 C331 1.253 . S
O321 Zn315 1.941 . S
O321 C331 1.283 . S
O322 Zn315 1.965 . S
O322 C330 1.303 . S
O323 Zn316 1.938 1_545 S
O323 C330 1.247 . S
O324 Zn316 1.906 . S
O324 C332 1.304 . S
O325 Zn313 1.965 . S
O325 C333 1.311 . S
O326 Zn317 1.977 . S
O326 C332 1.272 . S
O327 Zn317 1.910 . S
O327 C333 1.231 . S
C328 O312 1.232 . S
C328 O334 1.298 . S
C329 O318 1.226 . S
C329 O319 1.307 1_545 S
C330 O322 1.303 . S
C330 O323 1.247 . S
C331 O320 1.253 . S
C331 O321 1.283 . S
C332 O324 1.304 . S
C332 O326 1.272 . S
C333 O325 1.311 . S
C333 O327 1.231 . S
O334 Zn316 1.953 . S
O334 C328 1.298 . S
O335 Zn336 1.953 . S
O335 C351 1.225 . S
Zn336 O335 1.953 . S
Zn336 O337 1.949 . S
Zn336 O343 1.919 . S
Zn336 O348 1.924 . S
O337 Zn336 1.949 . S
O337 Zn338 1.923 1_545 S
O337 Zn339 1.950 . S
O337 Zn340 1.945 1_545 S
Zn338 O337 1.923 1_565 S
Zn338 O341 1.933 . S
Zn338 O344 1.941 . S
Zn338 O345 1.965 . S
Zn339 O337 1.950 . S
Zn339 O346 1.938 . S
Zn339 O347 1.895 1_545 S
Zn339 O357 1.953 . S
Zn340 O337 1.945 1_565 S
Zn340 O342 1.932 . S
Zn340 O349 1.977 . S
Zn340 O350 1.910 1_565 S
O341 Zn338 1.933 . S
O341 C352 1.226 . S
O342 Zn340 1.932 . S
O342 C352 1.307 . S
O343 Zn336 1.919 . S
O343 C354 1.253 . S
O344 Zn338 1.941 . S
O344 C354 1.283 1_565 S
O345 Zn338 1.965 . S
O345 C353 1.303 . S
O346 Zn339 1.938 . S
O346 C353 1.247 1_545 S
O347 Zn339 1.895 1_565 S
O347 C355 1.319 . S
O348 Zn336 1.924 . S
O348 C356 1.311 . S
O349 Zn340 1.977 . S
O349 C355 1.272 . S
O350 Zn340 1.910 1_545 S
O350 C356 1.231 . S
C351 O335 1.225 . S
C351 O357 1.298 . S
C352 O341 1.226 . S
C352 O342 1.307 . S
C353 O345 1.303 . S
C353 O346 1.247 1_565 S
C354 O343 1.253 . S
C354 O344 1.283 1_545 S
C355 O347 1.319 . S
C355 O349 1.272 . S
C356 O348 1.311 . S
C356 O350 1.231 . S
O357 Zn339 1.953 . S
O357 C351 1.298 . S
O358 Zn359 1.953 . S
O358 C374 1.225 . S
Zn359 O358 1.953 . S
Zn359 O360 1.949 . S
Zn359 O366 1.919 . S
Zn359 O371 1.924 . S
O360 Zn359 1.949 . S
O360 Zn361 1.923 . S
O360 Zn362 1.950 . S
O360 Zn363 1.945 . S
Zn361 O360 1.923 . S
Zn361 O364 1.933 . S
Zn361 O367 1.941 . S
Zn361 O368 1.965 . S
Zn362 O360 1.950 . S
Zn362 O369 1.938 . S
Zn362 O370 1.906 . S
Zn362 O380 1.953 . S
Zn363 O360 1.945 . S
Zn363 O365 1.932 . S
Zn363 O372 1.977 . S
Zn363 O373 1.910 . S
O364 Zn361 1.933 . S
O364 C375 1.226 . S
O365 Zn363 1.932 . S
O365 C375 1.307 . S
O366 Zn359 1.919 . S
O366 C377 1.253 . S
O367 Zn361 1.941 . S
O367 C377 1.283 . S
O368 Zn361 1.965 . S
O368 C376 1.303 . S
O369 Zn362 1.938 . S
O369 C376 1.247 . S
O370 Zn362 1.906 . S
O370 C378 1.304 . S
O371 Zn359 1.924 . S
O371 C379 1.311 . S
O372 Zn363 1.977 . S
O372 C378 1.272 . S
O373 Zn363 1.910 . S
O373 C379 1.231 . S
C374 O358 1.225 . S
C374 O380 1.298 . S
C375 O364 1.226 . S
C375 O365 1.307 . S
C376 O368 1.303 . S
C376 O369 1.247 . S
C377 O366 1.253 . S
C377 O367 1.283 . S
C378 O370 1.304 . S
C378 O372 1.272 . S
C379 O371 1.311 . S
C379 O373 1.231 . S
O380 Zn362 1.953 . S
O380 C374 1.298 . S
O381 Zn382 1.953 1_655 S
O381 C397 1.225 . S
Zn382 O381 1.953 1_455 S
Zn382 O383 1.949 . S
Zn382 O389 1.919 . S
Zn382 O394 1.924 . S
O383 Zn382 1.949 . S
O383 Zn384 1.923 . S
O383 Zn385 1.950 1_455 S
O383 Zn386 1.945 . S
Zn384 O383 1.923 . S
Zn384 O387 1.933 . S
Zn384 O390 1.941 . S
Zn384 O391 1.965 1_455 S
Zn385 O383 1.950 1_655 S
Zn385 O392 1.938 . S
Zn385 O393 1.906 1_655 S
Zn385 O403 1.953 . S
Zn386 O383 1.945 . S
Zn386 O388 1.932 . S
Zn386 O395 1.977 . S
Zn386 O396 1.910 . S
O387 Zn384 1.933 . S
O387 C398 1.226 . S
O388 Zn386 1.932 . S
O388 C398 1.307 . S
O389 Zn382 1.919 . S
O389 C400 1.253 . S
O390 Zn384 1.941 . S
O390 C400 1.283 . S
O391 Zn384 1.965 1_655 S
O391 C399 1.303 . S
O392 Zn385 1.938 . S
O392 C399 1.247 . S
O393 Zn385 1.906 1_455 S
O393 C401 1.304 . S
O394 Zn382 1.924 . S
O394 C402 1.311 . S
O395 Zn386 1.977 . S
O395 C401 1.272 . S
O396 Zn386 1.910 . S
O396 C402 1.231 . S
C397 O381 1.225 . S
C397 O403 1.298 . S
C398 O387 1.226 . S
C398 O388 1.307 . S
C399 O391 1.303 . S
C399 O392 1.247 . S
C400 O389 1.253 . S
C400 O390 1.283 . S
C401 O393 1.304 . S
C401 O395 1.272 . S
C402 O394 1.311 . S
C402 O396 1.231 . S
O403 Zn385 1.953 . S
O403 C397 1.298 . S
C404 C405 1.373 . S
C404 C406 1.327 . S
C404 H429 0.950 . S
C405 C404 1.373 . S
C405 C421 1.325 1_565 S
C406 C404 1.327 . S
C406 C425 1.429 . S
C406 H430 0.950 . S
C407 C424 1.574 . S
C407 C426 1.368 1_545 S
C407 H431 0.949 . S
H408 C412 0.949 . S
C409 C410 1.349 1_545 S
C409 C411 1.327 . S
C409 H432 0.950 . S
C410 C409 1.349 1_565 S
C410 C422 1.349 . S
C411 C409 1.327 . S
C411 C427 1.429 1_545 S
C411 H433 0.950 . S
C412 H408 0.949 . S
C412 C420 1.574 . S
C412 C428 1.368 . S
H413 C421 0.950 . S
H414 C419 0.950 . S
H415 C420 0.949 . S
H416 C422 0.950 . S
H417 C423 0.950 . S
H418 C424 0.949 . S
C419 H414 0.950 . S
C419 C421 1.327 . S
C419 C425 1.429 1_545 S
C420 C412 1.574 . S
C420 H415 0.949 . S
C420 C426 1.368 . S
C421 C405 1.325 1_545 S
C421 H413 0.950 . S
C421 C419 1.327 . S
C422 C410 1.349 . S
C422 H416 0.950 . S
C422 C423 1.327 . S
C423 H417 0.950 . S
C423 C422 1.327 . S
C423 C427 1.429 . S
C424 C407 1.574 . S
C424 H418 0.949 . S
C424 C428 1.368 1_545 S
C425 C406 1.429 . S
C425 C419 1.429 1_565 S
C425 C426 1.523 . S
C426 C407 1.368 1_565 S
C426 C420 1.368 . S
C426 C425 1.523 . S
C427 C411 1.429 1_565 S
C427 C423 1.429 . S
C427 C428 1.523 . S
C428 C412 1.368 . S
C428 C424 1.368 1_565 S
C428 C427 1.523 . S
H429 C404 0.950 . S
H430 C406 0.950 . S
H431 C407 0.949 . S
H432 C409 0.950 . S
H433 C411 0.950 . S
C434 C435 1.349 . S
C434 C436 1.327 . S
C434 H459 0.950 . S
C435 C434 1.349 . S
C435 C451 1.349 . S
C436 C434 1.327 . S
C436 C455 1.429 . S
C436 H460 0.950 . S
C437 C454 1.574 . S
C437 C456 1.368 . S
C437 H461 0.949 . S
H438 C442 0.949 . S
C439 C440 1.349 . S
C439 C441 1.327 . S
C439 H462 0.950 . S
C440 C439 1.349 . S
C440 C452 1.349 . S
C441 C439 1.327 . S
C441 C457 1.429 . S
C441 H463 0.950 . S
C442 H438 0.949 . S
C442 C450 1.574 . S
C442 C458 1.368 . S
H443 C451 0.950 . S
H444 C449 0.950 . S
H445 C450 0.949 . S
H446 C452 0.950 . S
H447 C453 0.950 . S
H448 C454 0.949 . S
C449 H444 0.950 . S
C449 C451 1.327 . S
C449 C455 1.429 . S
C450 C442 1.574 . S
C450 H445 0.949 . S
C450 C456 1.368 . S
C451 C435 1.349 . S
C451 H443 0.950 . S
C451 C449 1.327 . S
C452 C440 1.349 . S
C452 H446 0.950 . S
C452 C453 1.327 . S
C453 H447 0.950 . S
C453 C452 1.327 . S
C453 C457 1.429 . S
C454 C437 1.574 . S
C454 H448 0.949 . S
C454 C458 1.368 . S
C455 C436 1.429 . S
C455 C449 1.429 . S
C455 C456 1.523 . S
C456 C437 1.368 . S
C456 C450 1.368 . S
C456 C455 1.523 . S
C457 C441 1.429 . S
C457 C453 1.429 . S
C457 C458 1.523 . S
C458 C442 1.368 . S
C458 C454 1.368 . S
C458 C457 1.523 . S
H459 C434 0.950 . S
H460 C436 0.950 . S
H461 C437 0.949 . S
H462 C439 0.950 . S
H463 C441 0.950 . S
C464 C465 1.349 . S
C464 C466 1.327 . S
C464 H489 0.950 . S
C465 C464 1.349 . S
C465 C481 1.349 . S
C466 C464 1.327 . S
C466 C485 1.429 . S
C466 H490 0.950 . S
C467 C484 1.574 . S
C467 C486 1.368 . S
C467 H491 0.949 . S
H468 C472 0.949 . S
C469 C470 1.349 . S
C469 C471 1.327 . S
C469 H492 0.950 . S
C470 C469 1.349 . S
C470 C482 1.349 . S
C471 C469 1.327 . S
C471 C487 1.429 . S
C471 H493 0.950 . S
C472 H468 0.949 . S
C472 C480 1.574 . S
C472 C488 1.368 . S
H473 C481 0.950 . S
H474 C479 0.950 . S
H475 C480 0.949 . S
H476 C482 0.950 . S
H477 C483 0.950 . S
H478 C484 0.949 . S
C479 H474 0.950 . S
C479 C481 1.327 . S
C479 C485 1.429 . S
C480 C472 1.574 . S
C480 H475 0.949 . S
C480 C486 1.368 . S
C481 C465 1.349 . S
C481 H473 0.950 . S
C481 C479 1.327 . S
C482 C470 1.349 . S
C482 H476 0.950 . S
C482 C483 1.327 . S
C483 H477 0.950 . S
C483 C482 1.327 . S
C483 C487 1.429 . S
C484 C467 1.574 . S
C484 H478 0.949 . S
C484 C488 1.368 . S
C485 C466 1.429 . S
C485 C479 1.429 . S
C485 C486 1.523 . S
C486 C467 1.368 . S
C486 C480 1.368 . S
C486 C485 1.523 . S
C487 C471 1.429 . S
C487 C483 1.429 . S
C487 C488 1.523 . S
C488 C472 1.368 . S
C488 C484 1.368 . S
C488 C487 1.523 . S
H489 C464 0.950 . S
H490 C466 0.950 . S
H491 C467 0.949 . S
H492 C469 0.950 . S
H493 C471 0.950 . S
C494 C495 1.349 . S
C494 C496 1.327 . S
C494 H519 0.950 . S
C495 C494 1.349 . S
C495 C511 1.349 . S
C496 C494 1.327 . S
C496 C515 1.429 . S
C496 H520 0.950 . S
C497 C514 1.574 . S
C497 C516 1.368 . S
C497 H521 0.949 . S
H498 C502 0.949 . S
C499 C500 1.349 . S
C499 C501 1.327 . S
C499 H522 0.950 . S
C500 C499 1.349 . S
C500 C512 1.349 . S
C501 C499 1.327 . S
C501 C517 1.429 . S
C501 H523 0.950 . S
C502 H498 0.949 . S
C502 C510 1.574 . S
C502 C518 1.368 . S
H503 C511 0.950 . S
H504 C509 0.950 . S
H505 C510 0.949 . S
H506 C512 0.950 . S
H507 C513 0.950 . S
H508 C514 0.949 . S
C509 H504 0.950 . S
C509 C511 1.327 . S
C509 C515 1.429 . S
C510 C502 1.574 . S
C510 H505 0.949 . S
C510 C516 1.368 . S
C511 C495 1.349 . S
C511 H503 0.950 . S
C511 C509 1.327 . S
C512 C500 1.349 . S
C512 H506 0.950 . S
C512 C513 1.327 . S
C513 H507 0.950 . S
C513 C512 1.327 . S
C513 C517 1.429 . S
C514 C497 1.574 . S
C514 H508 0.949 . S
C514 C518 1.368 . S
C515 C496 1.429 . S
C515 C509 1.429 . S
C515 C516 1.523 . S
C516 C497 1.368 . S
C516 C510 1.368 . S
C516 C515 1.523 . S
C517 C501 1.429 . S
C517 C513 1.429 . S
C517 C518 1.523 . S
C518 C502 1.368 . S
C518 C514 1.368 . S
C518 C517 1.523 . S
H519 C494 0.950 . S
H520 C496 0.950 . S
H521 C497 0.949 . S
H522 C499 0.950 . S
H523 C501 0.950 . S
C524 C525 1.336 1_566 S
C524 C526 1.327 . S
C524 H549 0.950 . S
C525 C524 1.336 1_544 S
C525 C541 1.356 . S
C526 C524 1.327 . S
C526 C545 1.429 1_565 S
C526 H550 0.950 . S
C527 C544 1.574 . S
C527 C546 1.368 . S
C527 H551 0.949 . S
H528 C532 0.949 . S
C529 C530 1.349 . S
C529 C531 1.327 . S
C529 H552 0.950 . S
C530 C529 1.349 . S
C530 C542 1.349 1_545 S
C531 C529 1.327 . S
C531 C547 1.429 . S
C531 H553 0.950 . S
C532 H528 0.949 . S
C532 C540 1.574 . S
C532 C548 1.368 1_565 S
H533 C541 0.950 . S
H534 C539 0.950 . S
H535 C540 0.949 . S
H536 C542 0.950 . S
H537 C543 0.950 . S
H538 C544 0.949 . S
C539 H534 0.950 . S
C539 C541 1.327 1_556 S
C539 C545 1.429 . S
C540 C532 1.574 . S
C540 H535 0.949 . S
C540 C546 1.368 1_565 S
C541 C525 1.356 . S
C541 H533 0.950 . S
C541 C539 1.327 1_554 S
C542 C530 1.349 1_565 S
C542 H536 0.950 . S
C542 C543 1.327 . S
C543 H537 0.950 . S
C543 C542 1.327 . S
C543 C547 1.429 1_565 S
C544 C527 1.574 . S
C544 H538 0.949 . S
C544 C548 1.368 . S
C545 C526 1.429 1_545 S
C545 C539 1.429 . S
C545 C546 1.523 . S
C546 C527 1.368 . S
C546 C540 1.368 1_545 S
C546 C545 1.523 . S
C547 C531 1.429 . S
C547 C543 1.429 1_545 S
C547 C548 1.523 . S
C548 C532 1.368 1_545 S
C548 C544 1.368 . S
C548 C547 1.523 . S
H549 C524 0.950 . S
H550 C526 0.950 . S
H551 C527 0.949 . S
H552 C529 0.950 . S
H553 C531 0.950 . S
C554 C555 1.349 . S
C554 C556 1.327 . S
C554 H579 0.950 . S
C555 C554 1.349 . S
C555 C571 1.349 . S
C556 C554 1.327 . S
C556 C575 1.429 . S
C556 H580 0.950 . S
C557 C574 1.574 . S
C557 C576 1.368 . S
C557 H581 0.949 . S
H558 C562 0.949 . S
C559 C560 1.349 . S
C559 C561 1.327 . S
C559 H582 0.950 . S
C560 C559 1.349 . S
C560 C572 1.349 . S
C561 C559 1.327 . S
C561 C577 1.429 . S
C561 H583 0.950 . S
C562 H558 0.949 . S
C562 C570 1.574 . S
C562 C578 1.368 . S
H563 C571 0.950 1_554 S
H564 C569 0.950 . S
H565 C570 0.949 . S
H566 C572 0.950 . S
H567 C573 0.950 . S
H568 C574 0.949 . S
C569 H564 0.950 . S
C569 C571 1.327 . S
C569 C575 1.429 . S
C570 C562 1.574 . S
C570 H565 0.949 . S
C570 C576 1.368 . S
C571 C555 1.349 . S
C571 H563 0.950 1_556 S
C571 C569 1.327 . S
C572 C560 1.349 . S
C572 H566 0.950 . S
C572 C573 1.327 . S
C573 H567 0.950 . S
C573 C572 1.327 . S
C573 C577 1.429 . S
C574 C557 1.574 . S
C574 H568 0.949 . S
C574 C578 1.368 . S
C575 C556 1.429 . S
C575 C569 1.429 . S
C575 C576 1.523 . S
C576 C557 1.368 . S
C576 C570 1.368 . S
C576 C575 1.523 . S
C577 C561 1.429 . S
C577 C573 1.429 . S
C577 C578 1.523 . S
C578 C562 1.368 . S
C578 C574 1.368 . S
C578 C577 1.523 . S
H579 C554 0.950 . S
H580 C556 0.950 . S
H581 C557 0.949 . S
H582 C559 0.950 . S
H583 C561 0.950 . S
C584 C585 1.349 . S
C584 C586 1.327 . S
C584 H609 0.950 . S
C585 C584 1.349 . S
C585 C601 1.349 . S
C586 C584 1.327 . S
C586 C605 1.429 . S
C586 H610 0.950 . S
C587 C604 1.574 . S
C587 C606 1.368 . S
C587 H611 0.949 . S
H588 C592 0.949 . S
C589 C590 1.349 . S
C589 C591 1.327 . S
C589 H612 0.950 . S
C590 C589 1.349 . S
C590 C602 1.349 . S
C591 C589 1.327 . S
C591 C607 1.429 . S
C591 H613 0.950 . S
C592 H588 0.949 . S
C592 C600 1.574 . S
C592 C608 1.368 . S
H593 C601 0.950 . S
H594 C599 0.950 . S
H595 C600 0.949 . S
H596 C602 0.950 . S
H597 C603 0.950 . S
H598 C604 0.949 . S
C599 H594 0.950 . S
C599 C601 1.327 . S
C599 C605 1.429 . S
C600 C592 1.574 . S
C600 H595 0.949 . S
C600 C606 1.368 . S
C601 C585 1.349 . S
C601 H593 0.950 . S
C601 C599 1.327 . S
C602 C590 1.349 . S
C602 H596 0.950 . S
C602 C603 1.327 . S
C603 H597 0.950 . S
C603 C602 1.327 . S
C603 C607 1.429 . S
C604 C587 1.574 . S
C604 H598 0.949 . S
C604 C608 1.368 . S
C605 C586 1.429 . S
C605 C599 1.429 . S
C605 C606 1.523 . S
C606 C587 1.368 . S
C606 C600 1.368 . S
C606 C605 1.523 . S
C607 C591 1.429 . S
C607 C603 1.429 . S
C607 C608 1.523 . S
C608 C592 1.368 . S
C608 C604 1.368 . S
C608 C607 1.523 . S
H609 C584 0.950 . S
H610 C586 0.950 . S
H611 C587 0.949 . S
H612 C589 0.950 . S
H613 C591 0.950 . S
C614 C615 1.349 . S
C614 C616 1.342 . S
C614 H639 0.950 . S
C615 C614 1.349 . S
C615 C631 1.349 1_554 S
C616 C614 1.342 . S
C616 C635 1.408 1_554 S
C616 H640 0.956 . S
C617 C634 1.574 . S
C617 C636 1.368 1_455 S
C617 H641 0.949 . S
H618 C622 0.952 . S
C619 C620 1.349 . S
C619 C621 1.327 . S
C619 H642 0.950 . S
C620 C619 1.349 . S
C620 C632 1.349 . S
C621 C619 1.327 . S
C621 C637 1.429 . S
C621 H643 0.950 . S
C622 H618 0.952 . S
C622 C630 1.583 . S
C622 C638 1.360 1_655 S
H623 C631 0.950 . S
H624 C629 0.957 . S
H625 C630 0.949 . S
H626 C632 0.950 . S
H627 C633 0.950 . S
H628 C634 0.949 . S
C629 H624 0.957 . S
C629 C631 1.327 . S
C629 C635 1.429 . S
C630 C622 1.583 . S
C630 H625 0.949 . S
C630 C636 1.368 . S
C631 C615 1.349 1_556 S
C631 H623 0.950 . S
C631 C629 1.327 . S
C632 C620 1.349 . S
C632 H626 0.950 . S
C632 C633 1.327 . S
C633 H627 0.950 . S
C633 C632 1.327 . S
C633 C637 1.429 . S
C634 C617 1.574 . S
C634 H628 0.949 . S
C634 C638 1.368 . S
C635 C616 1.408 1_556 S
C635 C629 1.429 . S
C635 C636 1.523 . S
C636 C617 1.368 1_655 S
C636 C630 1.368 . S
C636 C635 1.523 . S
C637 C621 1.429 . S
C637 C633 1.429 . S
C637 C638 1.523 . S
C638 C622 1.360 1_455 S
C638 C634 1.368 . S
C638 C637 1.523 . S
H639 C614 0.950 . S
H640 C616 0.956 . S
H641 C617 0.949 . S
H642 C619 0.950 . S
H643 C621 0.950 . S
C644 C645 1.349 . S
C644 C646 1.327 . S
C644 H669 0.950 . S
C645 C644 1.349 . S
C645 C661 1.349 . S
C646 C644 1.327 . S
C646 C665 1.429 . S
C646 H670 0.950 . S
C647 C664 1.574 . S
C647 C666 1.368 . S
C647 H671 0.949 . S
H648 C652 0.949 . S
C649 C650 1.349 . S
C649 C651 1.327 . S
C649 H672 0.950 . S
C650 C649 1.349 . S
C650 C662 1.349 . S
C651 C649 1.327 . S
C651 C667 1.429 . S
C651 H673 0.950 . S
C652 H648 0.949 . S
C652 C660 1.574 . S
C652 C668 1.368 . S
H653 C661 0.950 . S
H654 C659 0.950 . S
H655 C660 0.949 . S
H656 C662 0.950 . S
H657 C663 0.950 . S
H658 C664 0.949 . S
C659 H654 0.950 . S
C659 C661 1.327 . S
C659 C665 1.429 . S
C660 C652 1.574 . S
C660 H655 0.949 . S
C660 C666 1.368 . S
C661 C645 1.349 . S
C661 H653 0.950 . S
C661 C659 1.327 . S
C662 C650 1.349 . S
C662 H656 0.950 . S
C662 C663 1.327 . S
C663 H657 0.950 . S
C663 C662 1.327 . S
C663 C667 1.429 . S
C664 C647 1.574 . S
C664 H658 0.949 . S
C664 C668 1.368 . S
C665 C646 1.429 . S
C665 C659 1.429 . S
C665 C666 1.523 . S
C666 C647 1.368 . S
C666 C660 1.368 . S
C666 C665 1.523 . S
C667 C651 1.429 . S
C667 C663 1.429 . S
C667 C668 1.523 . S
C668 C652 1.368 . S
C668 C664 1.368 . S
C668 C667 1.523 . S
H669 C644 0.950 . S
H670 C646 0.950 . S
H671 C647 0.949 . S
H672 C649 0.950 . S
H673 C651 0.950 . S
C674 C675 1.329 1_565 S
C674 C676 1.327 . S
C674 H699 0.950 . S
C675 C674 1.329 1_545 S
C675 C691 1.368 . S
C676 C674 1.327 . S
C676 C695 1.430 . S
C676 H700 0.950 . S
C677 C694 1.574 . S
C677 C696 1.350 1_545 S
C677 H701 0.949 . S
H678 C682 0.949 . S
C679 C680 1.349 1_545 S
C679 C681 1.327 . S
C679 H702 0.950 . S
C680 C679 1.349 1_565 S
C680 C692 1.349 . S
C681 C679 1.327 . S
C681 C697 1.429 1_545 S
C681 H703 0.950 . S
C682 H678 0.949 . S
C682 C690 1.574 . S
C682 C698 1.368 . S
H683 C691 0.950 . S
H684 C689 0.950 . S
H685 C690 0.949 . S
H686 C692 0.950 . S
H687 C693 0.950 . S
H688 C694 0.949 . S
C689 H684 0.950 . S
C689 C691 1.327 . S
C689 C695 1.427 1_545 S
C690 C682 1.574 . S
C690 H685 0.949 . S
C690 C696 1.388 . S
C691 C675 1.368 . S
C691 H683 0.950 . S
C691 C689 1.327 . S
C692 C680 1.349 . S
C692 H686 0.950 . S
C692 C693 1.327 . S
C693 H687 0.950 . S
C693 C692 1.327 . S
C693 C697 1.429 . S
C694 C677 1.574 . S
C694 H688 0.949 . S
C694 C698 1.368 1_545 S
C695 C676 1.430 . S
C695 C689 1.427 1_565 S
C695 C696 1.522 . S
C696 C677 1.350 1_565 S
C696 C690 1.388 . S
C696 C695 1.522 . S
C697 C681 1.429 1_565 S
C697 C693 1.429 . S
C697 C698 1.523 . S
C698 C682 1.368 . S
C698 C694 1.368 1_565 S
C698 C697 1.523 . S
H699 C674 0.950 . S
H700 C676 0.950 . S
H701 C677 0.949 . S
H702 C679 0.950 . S
H703 C681 0.950 . S
C704 C705 1.349 . S
C704 C706 1.327 . S
C704 H729 0.950 . S
C705 C704 1.349 . S
C705 C721 1.349 . S
C706 C704 1.327 . S
C706 C725 1.429 . S
C706 H730 0.950 . S
C707 C724 1.574 . S
C707 C726 1.368 . S
C707 H731 0.949 . S
H708 C712 0.949 . S
C709 C710 1.349 . S
C709 C711 1.327 . S
C709 H732 0.950 . S
C710 C709 1.349 . S
C710 C722 1.349 . S
C711 C709 1.327 . S
C711 C727 1.429 . S
C711 H733 0.950 . S
C712 H708 0.949 . S
C712 C720 1.574 . S
C712 C728 1.368 . S
H713 C721 0.950 . S
H714 C719 0.950 . S
H715 C720 0.949 . S
H716 C722 0.950 . S
H717 C723 0.950 . S
H718 C724 0.949 . S
C719 H714 0.950 . S
C719 C721 1.327 . S
C719 C725 1.429 . S
C720 C712 1.574 . S
C720 H715 0.949 . S
C720 C726 1.368 . S
C721 C705 1.349 . S
C721 H713 0.950 . S
C721 C719 1.327 . S
C722 C710 1.349 . S
C722 H716 0.950 . S
C722 C723 1.327 . S
C723 H717 0.950 . S
C723 C722 1.327 . S
C723 C727 1.429 . S
C724 C707 1.574 . S
C724 H718 0.949 . S
C724 C728 1.368 . S
C725 C706 1.429 . S
C725 C719 1.429 . S
C725 C726 1.523 . S
C726 C707 1.368 . S
C726 C720 1.368 . S
C726 C725 1.523 . S
C727 C711 1.429 . S
C727 C723 1.429 . S
C727 C728 1.523 . S
C728 C712 1.368 . S
C728 C724 1.368 . S
C728 C727 1.523 . S
H729 C704 0.950 . S
H730 C706 0.950 . S
H731 C707 0.949 . S
H732 C709 0.950 . S
H733 C711 0.950 . S
C734 C735 1.349 . S
C734 C736 1.327 . S
C734 H759 0.950 . S
C735 C734 1.349 . S
C735 C751 1.349 . S
C736 C734 1.327 . S
C736 C755 1.429 . S
C736 H760 0.950 . S
C737 C754 1.574 . S
C737 C756 1.368 . S
C737 H761 0.949 . S
H738 C742 0.949 . S
C739 C740 1.349 . S
C739 C741 1.327 . S
C739 H762 0.950 . S
C740 C739 1.349 . S
C740 C752 1.349 . S
C741 C739 1.327 . S
C741 C757 1.429 . S
C741 H763 0.950 . S
C742 H738 0.949 . S
C742 C750 1.574 . S
C742 C758 1.368 . S
H743 C751 0.950 . S
H744 C749 0.950 . S
H745 C750 0.949 . S
H746 C752 0.950 . S
H747 C753 0.950 . S
H748 C754 0.949 . S
C749 H744 0.950 . S
C749 C751 1.327 . S
C749 C755 1.429 . S
C750 C742 1.574 . S
C750 H745 0.949 . S
C750 C756 1.368 . S
C751 C735 1.349 . S
C751 H743 0.950 . S
C751 C749 1.327 . S
C752 C740 1.349 . S
C752 H746 0.950 . S
C752 C753 1.327 . S
C753 H747 0.950 . S
C753 C752 1.327 . S
C753 C757 1.429 . S
C754 C737 1.574 . S
C754 H748 0.949 . S
C754 C758 1.368 . S
C755 C736 1.429 . S
C755 C749 1.429 . S
C755 C756 1.523 . S
C756 C737 1.368 . S
C756 C750 1.368 . S
C756 C755 1.523 . S
C757 C741 1.429 . S
C757 C753 1.429 . S
C757 C758 1.523 . S
C758 C742 1.368 . S
C758 C754 1.368 . S
C758 C757 1.523 . S
H759 C734 0.950 . S
H760 C736 0.950 . S
H761 C737 0.949 . S
H762 C739 0.950 . S
H763 C741 0.950 . S
C764 C765 1.349 . S
C764 C766 1.327 . S
C764 H789 0.950 . S
C765 C764 1.349 . S
C765 C781 1.350 1_655 S
C766 C764 1.327 . S
C766 C785 1.429 1_655 S
C766 H790 0.950 . S
C767 C784 1.574 . S
C767 C786 1.368 . S
C767 H791 0.949 . S
H768 C772 0.949 . S
C769 C770 1.349 . S
C769 C771 1.327 . S
C769 H792 0.950 . S
C770 C769 1.349 . S
C770 C782 1.349 . S
C771 C769 1.327 . S
C771 C787 1.429 . S
C771 H793 0.950 . S
C772 H768 0.949 . S
C772 C780 1.574 . S
C772 C788 1.368 . S
H773 C781 0.949 1_554 S
H774 C779 0.950 . S
H775 C780 0.949 . S
H776 C782 0.950 . S
H777 C783 0.950 . S
H778 C784 0.949 . S
C779 H774 0.950 . S
C779 C781 1.326 . S
C779 C785 1.429 . S
C780 C772 1.574 . S
C780 H775 0.949 . S
C780 C786 1.368 . S
C781 C765 1.350 1_455 S
C781 H773 0.949 1_556 S
C781 C779 1.326 . S
C782 C770 1.349 . S
C782 H776 0.950 . S
C782 C783 1.327 . S
C783 H777 0.950 . S
C783 C782 1.327 . S
C783 C787 1.429 . S
C784 C767 1.574 . S
C784 H778 0.949 . S
C784 C788 1.368 . S
C785 C766 1.429 1_455 S
C785 C779 1.429 . S
C785 C786 1.523 . S
C786 C767 1.368 . S
C786 C780 1.368 . S
C786 C785 1.523 . S
C787 C771 1.429 . S
C787 C783 1.429 . S
C787 C788 1.523 . S
C788 C772 1.368 . S
C788 C784 1.368 . S
C788 C787 1.523 . S
H789 C764 0.950 . S
H790 C766 0.950 . S
H791 C767 0.949 . S
H792 C769 0.950 . S
H793 C771 0.950 . S
C794 C795 1.349 1_545 S
C794 C796 1.327 . S
C794 H819 0.950 . S
C795 C794 1.349 1_565 S
C795 C811 1.349 . S
C796 C794 1.327 . S
C796 C815 1.429 . S
C796 H820 0.950 . S
C797 C814 1.578 . S
C797 C816 1.368 1_565 S
C797 H821 0.949 . S
H798 C802 0.949 . S
C799 C800 1.349 . S
C799 C801 1.327 . S
C799 H822 0.950 . S
C800 C799 1.349 . S
C800 C812 1.349 . S
C801 C799 1.327 . S
C801 C817 1.429 . S
C801 H823 0.950 1_545 S
C802 H798 0.949 . S
C802 C810 1.574 . S
C802 C818 1.368 . S
H803 C811 0.950 . S
H804 C809 0.950 . S
H805 C810 0.949 . S
H806 C812 0.950 . S
H807 C813 0.950 . S
H808 C814 0.960 . S
C809 H804 0.950 . S
C809 C811 1.327 . S
C809 C815 1.429 1_565 S
C810 C802 1.574 . S
C810 H805 0.949 . S
C810 C816 1.368 . S
C811 C795 1.349 . S
C811 H803 0.950 . S
C811 C809 1.327 . S
C812 C800 1.349 . S
C812 H806 0.950 . S
C812 C813 1.327 . S
C813 H807 0.950 . S
C813 C812 1.327 . S
C813 C817 1.429 . S
C814 C797 1.578 . S
C814 H808 0.960 . S
C814 C818 1.352 1_565 S
C815 C796 1.429 . S
C815 C809 1.429 1_545 S
C815 C816 1.523 . S
C816 C797 1.368 1_545 S
C816 C810 1.368 . S
C816 C815 1.523 . S
C817 C801 1.429 . S
C817 C813 1.429 . S
C817 C818 1.523 . S
C818 C802 1.368 . S
C818 C814 1.352 1_545 S
C818 C817 1.523 . S
H819 C794 0.950 . S
H820 C796 0.950 . S
H821 C797 0.949 . S
H822 C799 0.950 . S
H823 C801 0.950 1_565 S
C824 C825 1.349 . S
C824 C826 1.327 . S
C824 H849 0.950 . S
C825 C824 1.349 . S
C825 C841 1.349 . S
C826 C824 1.327 . S
C826 C845 1.429 . S
C826 H850 0.950 . S
C827 C844 1.574 . S
C827 C846 1.368 . S
C827 H851 0.949 . S
H828 C832 0.949 . S
C829 C830 1.349 . S
C829 C831 1.327 . S
C829 H852 0.950 . S
C830 C829 1.349 . S
C830 C842 1.349 . S
C831 C829 1.327 . S
C831 C847 1.429 . S
C831 H853 0.950 . S
C832 H828 0.949 . S
C832 C840 1.574 . S
C832 C848 1.368 . S
H833 C841 0.950 . S
H834 C839 0.950 . S
H835 C840 0.949 . S
H836 C842 0.950 . S
H837 C843 0.950 . S
H838 C844 0.949 . S
C839 H834 0.950 . S
C839 C841 1.327 . S
C839 C845 1.429 . S
C840 C832 1.574 . S
C840 H835 0.949 . S
C840 C846 1.368 . S
C841 C825 1.349 . S
C841 H833 0.950 . S
C841 C839 1.327 . S
C842 C830 1.349 . S
C842 H836 0.950 . S
C842 C843 1.327 . S
C843 H837 0.950 . S
C843 C842 1.327 . S
C843 C847 1.429 . S
C844 C827 1.574 . S
C844 H838 0.949 . S
C844 C848 1.368 . S
C845 C826 1.429 . S
C845 C839 1.429 . S
C845 C846 1.523 . S
C846 C827 1.368 . S
C846 C840 1.368 . S
C846 C845 1.523 . S
C847 C831 1.429 . S
C847 C843 1.429 . S
C847 C848 1.523 . S
C848 C832 1.368 . S
C848 C844 1.368 . S
C848 C847 1.523 . S
H849 C824 0.950 . S
H850 C826 0.950 . S
H851 C827 0.949 . S
H852 C829 0.950 . S
H853 C831 0.950 . S
C854 C855 1.349 . S
C854 C856 1.327 . S
C854 H879 0.950 . S
C855 C854 1.349 . S
C855 C871 1.349 . S
C856 C854 1.327 . S
C856 C875 1.429 . S
C856 H880 0.950 . S
C857 C874 1.574 . S
C857 C876 1.368 . S
C857 H881 0.949 . S
H858 C862 0.949 . S
C859 C860 1.349 . S
C859 C861 1.327 . S
C859 H882 0.950 . S
C860 C859 1.349 . S
C860 C872 1.349 . S
C861 C859 1.327 . S
C861 C877 1.429 . S
C861 H883 0.950 . S
C862 H858 0.949 . S
C862 C870 1.574 . S
C862 C878 1.368 . S
H863 C871 0.950 . S
H864 C869 0.950 . S
H865 C870 0.949 . S
H866 C872 0.950 . S
H867 C873 0.950 . S
H868 C874 0.949 . S
C869 H864 0.950 . S
C869 C871 1.327 . S
C869 C875 1.429 . S
C870 C862 1.574 . S
C870 H865 0.949 . S
C870 C876 1.368 . S
C871 C855 1.349 . S
C871 H863 0.950 . S
C871 C869 1.327 . S
C872 C860 1.349 . S
C872 H866 0.950 . S
C872 C873 1.327 . S
C873 H867 0.950 . S
C873 C872 1.327 . S
C873 C877 1.429 . S
C874 C857 1.574 . S
C874 H868 0.949 . S
C874 C878 1.368 . S
C875 C856 1.429 . S
C875 C869 1.429 . S
C875 C876 1.523 . S
C876 C857 1.368 . S
C876 C870 1.368 . S
C876 C875 1.523 . S
C877 C861 1.429 . S
C877 C873 1.429 . S
C877 C878 1.523 . S
C878 C862 1.368 . S
C878 C874 1.368 . S
C878 C877 1.523 . S
H879 C854 0.950 . S
H880 C856 0.950 . S
H881 C857 0.949 . S
H882 C859 0.950 . S
H883 C861 0.950 . S
C884 C885 1.349 . S
C884 C886 1.327 . S
C884 H909 0.950 . S
C885 C884 1.349 . S
C885 C901 1.349 . S
C886 C884 1.327 . S
C886 C905 1.429 . S
C886 H910 0.950 . S
C887 C904 1.574 . S
C887 C906 1.368 . S
C887 H911 0.949 1_556 S
H888 C892 0.949 . S
C889 C890 1.349 . S
C889 C891 1.327 . S
C889 H912 0.950 . S
C890 C889 1.349 . S
C890 C902 1.349 . S
C891 C889 1.327 . S
C891 C907 1.429 . S
C891 H913 0.950 . S
C892 H888 0.949 . S
C892 C900 1.574 . S
C892 C908 1.368 . S
H893 C901 0.950 . S
H894 C899 0.950 . S
H895 C900 0.949 . S
H896 C902 0.950 . S
H897 C903 0.950 . S
H898 C904 0.949 . S
C899 H894 0.950 . S
C899 C901 1.327 . S
C899 C905 1.429 . S
C900 C892 1.574 . S
C900 H895 0.949 . S
C900 C906 1.368 . S
C901 C885 1.349 . S
C901 H893 0.950 . S
C901 C899 1.327 . S
C902 C890 1.349 . S
C902 H896 0.950 . S
C902 C903 1.327 . S
C903 H897 0.950 . S
C903 C902 1.327 . S
C903 C907 1.429 . S
C904 C887 1.574 . S
C904 H898 0.949 . S
C904 C908 1.368 . S
C905 C886 1.429 . S
C905 C899 1.429 . S
C905 C906 1.523 1_554 S
C906 C887 1.368 . S
C906 C900 1.368 . S
C906 C905 1.523 1_556 S
C907 C891 1.429 . S
C907 C903 1.429 . S
C907 C908 1.523 . S
C908 C892 1.368 . S
C908 C904 1.368 . S
C908 C907 1.523 . S
H909 C884 0.950 . S
H910 C886 0.950 . S
H911 C887 0.949 1_554 S
H912 C889 0.950 . S
H913 C891 0.950 . S
C914 C915 1.351 . S
C914 C916 1.327 . S
C914 H939 0.950 . S
C915 C914 1.351 . S
C915 C931 1.346 1_545 S
C916 C914 1.327 . S
C916 C935 1.429 1_554 S
C916 H940 0.950 . S
C917 C934 1.574 . S
C917 C936 1.370 1_565 S
C917 H941 0.949 . S
H918 C922 0.949 . S
C919 C920 1.346 . S
C919 C921 1.327 . S
C919 H942 0.950 . S
C920 C919 1.346 . S
C920 C932 1.352 1_565 S
C921 C919 1.327 . S
C921 C937 1.433 1_565 S
C921 H943 0.950 . S
C922 H918 0.949 . S
C922 C930 1.574 . S
C922 C938 1.365 . S
H923 C931 0.950 . S
H924 C929 0.950 . S
H925 C930 0.949 . S
H926 C932 0.950 . S
H927 C933 0.950 . S
H928 C934 0.949 . S
C929 H924 0.950 . S
C929 C931 1.327 1_556 S
C929 C935 1.428 1_565 S
C930 C922 1.574 . S
C930 H925 0.949 . S
C930 C936 1.367 . S
C931 C915 1.346 1_565 S
C931 H923 0.950 . S
C931 C929 1.327 1_554 S
C932 C920 1.352 1_545 S
C932 H926 0.950 . S
C932 C933 1.327 . S
C933 H927 0.950 . S
C933 C932 1.327 . S
C933 C937 1.424 . S
C934 C917 1.574 . S
C934 H928 0.949 . S
C934 C938 1.372 1_565 S
C935 C916 1.429 1_556 S
C935 C929 1.428 1_545 S
C935 C936 1.523 . S
C936 C917 1.370 1_545 S
C936 C930 1.367 . S
C936 C935 1.523 . S
C937 C921 1.433 1_545 S
C937 C933 1.424 . S
C937 C938 1.523 . S
C938 C922 1.365 . S
C938 C934 1.372 1_545 S
C938 C937 1.523 . S
H939 C914 0.950 . S
H940 C916 0.950 . S
H941 C917 0.949 . S
H942 C919 0.950 . S
H943 C921 0.950 . S
C944 C945 1.349 1_556 S
C944 C946 1.327 . S
C944 H969 0.950 . S
C945 C944 1.349 1_554 S
C945 C961 1.349 . S
C946 C944 1.327 . S
C946 C965 1.429 . S
C946 H970 0.950 . S
C947 C964 1.574 . S
C947 C966 1.368 . S
C947 H971 0.949 . S
H948 C952 0.949 . S
C949 C950 1.349 . S
C949 C951 1.327 . S
C949 H972 0.950 . S
C950 C949 1.349 . S
C950 C962 1.349 . S
C951 C949 1.327 . S
C951 C967 1.429 . S
C951 H973 0.950 . S
C952 H948 0.949 . S
C952 C960 1.574 . S
C952 C968 1.368 . S
H953 C961 0.950 . S
H954 C959 0.950 . S
H955 C960 0.949 . S
H956 C962 0.950 . S
H957 C963 0.950 . S
H958 C964 0.949 . S
C959 H954 0.950 . S
C959 C961 1.327 . S
C959 C965 1.429 1_554 S
C960 C952 1.574 . S
C960 H955 0.949 . S
C960 C966 1.368 . S
C961 C945 1.349 . S
C961 H953 0.950 . S
C961 C959 1.327 . S
C962 C950 1.349 . S
C962 H956 0.950 . S
C962 C963 1.327 . S
C963 H957 0.950 . S
C963 C962 1.327 . S
C963 C967 1.429 . S
C964 C947 1.574 . S
C964 H958 0.949 . S
C964 C968 1.368 . S
C965 C946 1.429 . S
C965 C959 1.429 1_556 S
C965 C966 1.523 . S
C966 C947 1.368 . S
C966 C960 1.368 . S
C966 C965 1.523 . S
C967 C951 1.429 . S
C967 C963 1.429 . S
C967 C968 1.523 . S
C968 C952 1.368 . S
C968 C964 1.368 . S
C968 C967 1.523 . S
H969 C944 0.950 . S
H970 C946 0.950 . S
H971 C947 0.949 . S
H972 C949 0.950 . S
H973 C951 0.950 . S
C974 C975 1.357 . S
C974 C976 1.315 1_554 S
C974 H999 0.955 . S
C975 C974 1.357 . S
C975 C991 1.349 . S
C976 C974 1.315 1_556 S
C976 C995 1.429 . S
C976 H1000 0.950 . S
C977 C994 1.574 . S
C977 C996 1.368 . S
C977 H1001 0.949 . S
H978 C982 0.949 . S
C979 C980 1.349 . S
C979 C981 1.327 . S
C979 H1002 0.950 . S
C980 C979 1.349 . S
C980 C992 1.349 . S
C981 C979 1.327 . S
C981 C997 1.429 . S
C981 H1003 0.950 . S
C982 H978 0.949 . S
C982 C990 1.574 . S
C982 C998 1.368 . S
H983 C991 0.950 . S
H984 C989 0.950 . S
H985 C990 0.949 . S
H986 C992 0.950 . S
H987 C993 0.950 . S
H988 C994 0.949 . S
C989 H984 0.950 . S
C989 C991 1.327 1_556 S
C989 C995 1.429 . S
C990 C982 1.574 . S
C990 H985 0.949 . S
C990 C996 1.368 . S
C991 C975 1.349 . S
C991 H983 0.950 . S
C991 C989 1.327 1_554 S
C992 C980 1.349 . S
C992 H986 0.950 . S
C992 C993 1.327 . S
C993 H987 0.950 . S
C993 C992 1.327 . S
C993 C997 1.429 . S
C994 C977 1.574 . S
C994 H988 0.949 . S
C994 C998 1.368 . S
C995 C976 1.429 . S
C995 C989 1.429 . S
C995 C996 1.523 . S
C996 C977 1.368 . S
C996 C990 1.368 . S
C996 C995 1.523 . S
C997 C981 1.429 . S
C997 C993 1.429 . S
C997 C998 1.523 . S
C998 C982 1.368 . S
C998 C994 1.368 . S
C998 C997 1.523 . S
H999 C974 0.955 . S
H1000 C976 0.950 . S
H1001 C977 0.949 . S
H1002 C979 0.950 . S
H1003 C981 0.950 . S
C1004 C1005 1.349 . S
C1004 C1006 1.327 . S
C1004 H1029 0.950 . S
C1005 C1004 1.349 . S
C1005 C1021 1.349 1_655 S
C1006 C1004 1.327 . S
C1006 C1025 1.429 . S
C1006 H1030 0.950 . S
C1007 C1024 1.574 . S
C1007 C1026 1.368 1_455 S
C1007 H1031 0.949 . S
H1008 C1012 0.949 . S
C1009 C1010 1.349 . S
C1009 C1011 1.327 . S
C1009 H1032 0.950 . S
C1010 C1009 1.349 . S
C1010 C1022 1.349 1_455 S
C1011 C1009 1.327 . S
C1011 C1027 1.429 . S
C1011 H1033 0.950 . S
C1012 H1008 0.949 . S
C1012 C1020 1.574 . S
C1012 C1028 1.357 1_655 S
H1013 C1021 0.950 . S
H1014 C1019 0.950 . S
H1015 C1020 0.949 . S
H1016 C1022 0.950 . S
H1017 C1023 0.950 . S
H1018 C1024 0.949 . S
C1019 H1014 0.950 . S
C1019 C1021 1.327 . S
C1019 C1025 1.429 1_455 S
C1020 C1012 1.574 . S
C1020 H1015 0.949 . S
C1020 C1026 1.368 . S
C1021 C1005 1.349 1_455 S
C1021 H1013 0.950 . S
C1021 C1019 1.327 . S
C1022 C1010 1.349 1_655 S
C1022 H1016 0.950 . S
C1022 C1023 1.327 . S
C1023 H1017 0.950 . S
C1023 C1022 1.327 . S
C1023 C1027 1.429 1_655 S
C1024 C1007 1.574 . S
C1024 H1018 0.949 . S
C1024 C1028 1.380 . S
C1025 C1006 1.429 . S
C1025 C1019 1.429 1_655 S
C1025 C1026 1.523 . S
C1026 C1007 1.368 1_655 S
C1026 C1020 1.368 . S
C1026 C1025 1.523 . S
C1027 C1011 1.429 . S
C1027 C1023 1.429 1_455 S
C1027 C1028 1.524 . S
C1028 C1012 1.357 1_455 S
C1028 C1024 1.380 . S
C1028 C1027 1.524 . S
H1029 C1004 0.950 . S
H1030 C1006 0.950 . S
H1031 C1007 0.949 . S
H1032 C1009 0.950 . S
H1033 C1011 0.950 . S
C1034 C1035 1.349 . S
C1034 C1036 1.327 . S
C1034 H1059 0.950 . S
C1035 C1034 1.349 . S
C1035 C1051 1.349 1_565 S
C1036 C1034 1.327 . S
C1036 C1055 1.429 . S
C1036 H1060 0.950 . S
C1037 C1054 1.574 . S
C1037 C1056 1.368 1_545 S
C1037 H1061 0.949 . S
H1038 C1042 0.949 . S
C1039 C1040 1.380 . S
C1039 C1041 1.325 1_565 S
C1039 H1062 0.921 1_565 S
C1040 C1039 1.380 . S
C1040 C1052 1.349 . S
C1041 C1039 1.325 1_545 S
C1041 C1057 1.429 1_545 S
C1041 H1063 0.950 . S
C1042 H1038 0.949 . S
C1042 C1050 1.574 . S
C1042 C1058 1.368 . S
H1043 C1051 0.950 . S
H1044 C1049 0.950 . S
H1045 C1050 0.949 . S
H1046 C1052 0.950 . S
H1047 C1053 0.950 . S
H1048 C1054 0.949 . S
C1049 H1044 0.950 . S
C1049 C1051 1.327 . S
C1049 C1055 1.429 1_545 S
C1050 C1042 1.574 . S
C1050 H1045 0.949 . S
C1050 C1056 1.368 . S
C1051 C1035 1.349 1_545 S
C1051 H1043 0.950 . S
C1051 C1049 1.327 . S
C1052 C1040 1.349 . S
C1052 H1046 0.950 . S
C1052 C1053 1.327 . S
C1053 H1047 0.950 . S
C1053 C1052 1.327 . S
C1053 C1057 1.429 . S
C1054 C1037 1.574 . S
C1054 H1048 0.949 . S
C1054 C1058 1.368 1_545 S
C1055 C1036 1.429 . S
C1055 C1049 1.429 1_565 S
C1055 C1056 1.523 . S
C1056 C1037 1.368 1_565 S
C1056 C1050 1.368 . S
C1056 C1055 1.523 . S
C1057 C1041 1.429 1_565 S
C1057 C1053 1.429 . S
C1057 C1058 1.523 . S
C1058 C1042 1.368 . S
C1058 C1054 1.368 1_565 S
C1058 C1057 1.523 . S
H1059 C1034 0.950 . S
H1060 C1036 0.950 . S
H1061 C1037 0.949 . S
H1062 C1039 0.921 1_545 S
H1063 C1041 0.950 . S
C1064 C1065 1.349 . S
C1064 C1066 1.327 . S
C1064 H1089 0.950 . S
C1065 C1064 1.349 . S
C1065 C1081 1.349 . S
C1066 C1064 1.327 . S
C1066 C1085 1.429 . S
C1066 H1090 0.950 . S
C1067 C1084 1.574 . S
C1067 C1086 1.368 . S
C1067 H1091 0.949 . S
H1068 C1072 0.949 . S
C1069 C1070 1.349 . S
C1069 C1071 1.327 . S
C1069 H1092 0.950 . S
C1070 C1069 1.349 . S
C1070 C1082 1.349 . S
C1071 C1069 1.327 . S
C1071 C1087 1.429 . S
C1071 H1093 0.950 . S
C1072 H1068 0.949 . S
C1072 C1080 1.574 . S
C1072 C1088 1.368 . S
H1073 C1081 0.950 . S
H1074 C1079 0.950 . S
H1075 C1080 0.949 . S
H1076 C1082 0.950 . S
H1077 C1083 0.950 . S
H1078 C1084 0.949 . S
C1079 H1074 0.950 . S
C1079 C1081 1.327 . S
C1079 C1085 1.429 . S
C1080 C1072 1.574 . S
C1080 H1075 0.949 . S
C1080 C1086 1.368 . S
C1081 C1065 1.349 . S
C1081 H1073 0.950 . S
C1081 C1079 1.327 . S
C1082 C1070 1.349 . S
C1082 H1076 0.950 . S
C1082 C1083 1.327 . S
C1083 H1077 0.950 . S
C1083 C1082 1.327 . S
C1083 C1087 1.429 . S
C1084 C1067 1.574 . S
C1084 H1078 0.949 . S
C1084 C1088 1.368 . S
C1085 C1066 1.429 . S
C1085 C1079 1.429 . S
C1085 C1086 1.523 . S
C1086 C1067 1.368 . S
C1086 C1080 1.368 . S
C1086 C1085 1.523 . S
C1087 C1071 1.429 . S
C1087 C1083 1.429 . S
C1087 C1088 1.523 . S
C1088 C1072 1.368 . S
C1088 C1084 1.368 . S
C1088 C1087 1.523 . S
H1089 C1064 0.950 . S
H1090 C1066 0.950 . S
H1091 C1067 0.949 . S
H1092 C1069 0.950 . S
H1093 C1071 0.950 . S
C1094 C1095 1.349 . S
C1094 C1096 1.327 . S
C1094 H1119 0.950 . S
C1095 C1094 1.349 . S
C1095 C1111 1.349 . S
C1096 C1094 1.327 . S
C1096 C1115 1.429 . S
C1096 H1120 0.950 . S
C1097 C1114 1.574 . S
C1097 C1116 1.368 . S
C1097 H1121 0.949 . S
H1098 C1102 0.949 . S
C1099 C1100 1.349 . S
C1099 C1101 1.327 . S
C1099 H1122 0.950 . S
C1100 C1099 1.349 . S
C1100 C1112 1.349 . S
C1101 C1099 1.327 . S
C1101 C1117 1.429 . S
C1101 H1123 0.950 . S
C1102 H1098 0.949 . S
C1102 C1110 1.574 . S
C1102 C1118 1.368 . S
H1103 C1111 0.950 . S
H1104 C1109 0.950 . S
H1105 C1110 0.949 . S
H1106 C1112 0.950 . S
H1107 C1113 0.950 . S
H1108 C1114 0.949 . S
C1109 H1104 0.950 . S
C1109 C1111 1.327 . S
C1109 C1115 1.429 . S
C1110 C1102 1.574 . S
C1110 H1105 0.949 . S
C1110 C1116 1.368 . S
C1111 C1095 1.349 . S
C1111 H1103 0.950 . S
C1111 C1109 1.327 . S
C1112 C1100 1.349 . S
C1112 H1106 0.950 . S
C1112 C1113 1.327 . S
C1113 H1107 0.950 . S
C1113 C1112 1.327 . S
C1113 C1117 1.429 . S
C1114 C1097 1.574 . S
C1114 H1108 0.949 . S
C1114 C1118 1.368 . S
C1115 C1096 1.429 . S
C1115 C1109 1.429 . S
C1115 C1116 1.523 . S
C1116 C1097 1.368 . S
C1116 C1110 1.368 . S
C1116 C1115 1.523 . S
C1117 C1101 1.429 . S
C1117 C1113 1.429 . S
C1117 C1118 1.523 . S
C1118 C1102 1.368 . S
C1118 C1114 1.368 . S
C1118 C1117 1.523 . S
H1119 C1094 0.950 . S
H1120 C1096 0.950 . S
H1121 C1097 0.949 . S
H1122 C1099 0.950 . S
H1123 C1101 0.950 . S
C405 C255 1.585 . S
C410 C328 1.586 . S
C440 C351 1.794 . S
C435 C294 1.776 . S
C470 C374 1.694 . S
C465 C177 1.686 . S
C500 C401 1.574 . S
C495 C216 1.640 . S
C530 C329 1.553 . S
C525 C99 1.549 1_545 S
C555 C138 1.538 1_556 S
C560 C352 1.572 . S
C585 C21 1.389 . S
C590 C375 1.399 . S
C615 C60 1.660 . S
C620 C400 1.664 . S
C650 C330 0.425 . S
C645 C196 0.715 . S
C680 C353 0.699 . S
C675 C235 0.740 . S
C710 C376 0.417 . S
C705 C289 0.572 . S
C735 C157 0.515 . S
C740 C402 0.743 . S
C765 C40 0.385 . S
C770 C333 0.694 . S
C800 C356 0.793 . S
C795 C79 0.455 . S
C830 C379 0.731 . S
C825 C133 0.465 . S
C855 C1 0.581 . S
C860 C399 0.549 . S
C885 C211 1.910 . S
C890 C331 1.915 . S
C915 C250 1.791 . S
C920 C354 1.818 1_565 S
C950 C377 1.853 . S
C945 C274 1.821 . S
C980 C398 1.505 . S
C975 C172 1.435 . S
C1005 C55 1.856 . S
C1010 C332 1.836 . S
C1040 C355 1.708 . S
C1035 C94 1.736 1_565 S
C1070 C378 1.704 . S
C1065 C118 1.727 . S
C1095 C16 1.923 . S
C1100 C397 2.000 . S
