# Generated by pormake.
# Topology zzz, (3,6)-cn, num edge types: 1
# Building blocks:
#     Node 0, Type 0, BuildingBlock: BELTOD_clean_linker_0, # of connection points: 3
#     Node 1, Type 0, BuildingBlock: BELTOD_clean_linker_0, # of connection points: 3
#     Node 2, Type 0, BuildingBlock: BELTOD_clean_linker_0, # of connection points: 3
#     Node 3, Type 0, BuildingBlock: BELTOD_clean_linker_0, # of connection points: 3
#     Node 4, Type 0, BuildingBlock: BELTOD_clean_linker_0, # of connection points: 3
#     Node 5, Type 0, BuildingBlock: BELTOD_clean_linker_0, # of connection points: 3
#     Node 6, Type 0, BuildingBlock: BELTOD_clean_linker_0, # of connection points: 3
#     Node 7, Type 0, BuildingBlock: BELTOD_clean_linker_0, # of connection points: 3
#     Node 8, Type 1, BuildingBlock: HISSIN_clean_sbu_0, # of connection points: 6
#     Node 9, Type 1, BuildingBlock: HISSIN_clean_sbu_0, # of connection points: 6
#     Node 10, Type 1, BuildingBlock: HISSIN_clean_sbu_0, # of connection points: 6
#     Node 11, Type 1, BuildingBlock: HISSIN_clean_sbu_0, # of connection points: 6
#     Edge 12, Type (0, 1), BuildingBlock: CIFDUS_clean_linker_0, # of connection points: 2
#     Edge 13, Type (0, 1), BuildingBlock: CIFDUS_clean_linker_0, # of connection points: 2
#     Edge 14, Type (0, 1), BuildingBlock: CIFDUS_clean_linker_0, # of connection points: 2
#     Edge 15, Type (0, 1), BuildingBlock: CIFDUS_clean_linker_0, # of connection points: 2
#     Edge 16, Type (0, 1), BuildingBlock: CIFDUS_clean_linker_0, # of connection points: 2
#     Edge 17, Type (0, 1), BuildingBlock: CIFDUS_clean_linker_0, # of connection points: 2
#     Edge 18, Type (0, 1), BuildingBlock: CIFDUS_clean_linker_0, # of connection points: 2
#     Edge 19, Type (0, 1), BuildingBlock: CIFDUS_clean_linker_0, # of connection points: 2
#     Edge 20, Type (0, 1), BuildingBlock: CIFDUS_clean_linker_0, # of connection points: 2
#     Edge 21, Type (0, 1), BuildingBlock: CIFDUS_clean_linker_0, # of connection points: 2
#     Edge 22, Type (0, 1), BuildingBlock: CIFDUS_clean_linker_0, # of connection points: 2
#     Edge 23, Type (0, 1), BuildingBlock: CIFDUS_clean_linker_0, # of connection points: 2
#     Edge 24, Type (0, 1), BuildingBlock: CIFDUS_clean_linker_0, # of connection points: 2
#     Edge 25, Type (0, 1), BuildingBlock: CIFDUS_clean_linker_0, # of connection points: 2
#     Edge 26, Type (0, 1), BuildingBlock: CIFDUS_clean_linker_0, # of connection points: 2
#     Edge 27, Type (0, 1), BuildingBlock: CIFDUS_clean_linker_0, # of connection points: 2
#     Edge 28, Type (0, 1), BuildingBlock: CIFDUS_clean_linker_0, # of connection points: 2
#     Edge 29, Type (0, 1), BuildingBlock: CIFDUS_clean_linker_0, # of connection points: 2
#     Edge 30, Type (0, 1), BuildingBlock: CIFDUS_clean_linker_0, # of connection points: 2
#     Edge 31, Type (0, 1), BuildingBlock: CIFDUS_clean_linker_0, # of connection points: 2
#     Edge 32, Type (0, 1), BuildingBlock: CIFDUS_clean_linker_0, # of connection points: 2
#     Edge 33, Type (0, 1), BuildingBlock: CIFDUS_clean_linker_0, # of connection points: 2
#     Edge 34, Type (0, 1), BuildingBlock: CIFDUS_clean_linker_0, # of connection points: 2
#     Edge 35, Type (0, 1), BuildingBlock: CIFDUS_clean_linker_0, # of connection points: 2
# Relax obj value: 0.410
# Max RMSD: 0.232
# Mean RMSD: 0.183
data_MOF--net-zzz--node1-HISSIN_clean_sbu_0--node2-BELTOD_clean_linker_0--edge1-CIFDUS_clean_linker_0
_symmetry_space_group_name_H-M    P1
_symmetry_Int_Tables_number       1
_symmetry_cell_setting            triclinic
loop_
_symmetry_equiv_pos_as_xyz
'x, y, z'
_cell_length_a     46.759097
_cell_length_b     46.910024
_cell_length_c     17.941607
_cell_angle_alpha  89.655078
_cell_angle_beta   91.935522
_cell_angle_gamma 91.268974
loop_
_atom_site_label
_atom_site_type_symbol
_atom_site_fract_x
_atom_site_fract_y
_atom_site_fract_z
_atom_type_partial_charge
P0 P 0.71916 0.4903 0.35532 0.0
H1 H 0.7335 0.49037 0.51518 0.0
H2 H 0.77747 0.50279 0.58318 0.0
H3 H 0.80865 0.54635 0.38784 0.0
H4 H 0.76498 0.53184 0.3184 0.0
H5 H 0.65914 0.47635 0.32458 0.0
H6 H 0.6257 0.49099 0.22589 0.0
H7 H 0.68505 0.55749 0.16014 0.0
H8 H 0.71876 0.54282 0.26065 0.0
H9 H 0.76401 0.44948 0.38442 0.0
H10 H 0.72114 0.4859 0.19057 0.0
O11 O 0.7027 0.46717 0.41151 0.0
H12 H 0.79817 0.42717 0.30392 0.0
H13 H 0.75545 0.46463 0.11092 0.0
C14 C 0.74554 0.51034 0.41144 0.0
C15 C 0.74933 0.50336 0.48725 0.0
C16 C 0.77482 0.51057 0.52654 0.0
C17 C 0.79728 0.5253 0.49136 0.0
C18 C 0.79238 0.53435 0.41685 0.0
C19 C 0.76694 0.5267 0.37721 0.0
C20 C 0.69159 0.50853 0.30087 0.0
C21 C 0.66476 0.49477 0.29104 0.0
C22 C 0.64565 0.50296 0.23376 0.0
C23 C 0.6529 0.52507 0.18421 0.0
C24 C 0.6788 0.54041 0.1975 0.0
C25 C 0.69806 0.53213 0.2553 0.0
C26 C 0.74019 0.46968 0.29395 0.0
C27 C 0.76165 0.45233 0.32458 0.0
C28 C 0.78127 0.43975 0.2786 0.0
C29 C 0.77972 0.44436 0.20106 0.0
C30 C 0.75714 0.46041 0.1703 0.0
C31 C 0.73755 0.47293 0.21629 0.0
P32 P 0.04838 0.72972 0.32771 0.0
H33 H 0.04773 0.74807 0.4825 0.0
H34 H 0.03954 0.79394 0.53675 0.0
H35 H 1.00033 0.822 0.32783 0.0
H36 H 1.0117 0.77688 0.272 0.0
H37 H 0.05752 0.67047 0.29201 0.0
H38 H 0.04422 0.64069 0.1858 0.0
H39 H 0.99094 0.70742 0.09566 0.0
H40 H 1.00437 0.73736 0.20316 0.0
H41 H 0.09802 0.75919 0.39484 0.0
H42 H 0.06205 0.74507 0.17313 0.0
O43 O 0.06206 0.70872 0.39475 0.0
H44 H 0.12817 0.79799 0.34716 0.0
H45 H 0.09172 0.78347 0.12578 0.0
C46 C 0.02973 0.75822 0.37301 0.0
C47 C 0.03649 0.76367 0.44863 0.0
C48 C 0.03178 0.79039 0.48005 0.0
C49 C 0.01961 0.8126 0.43719 0.0
C50 C 1.01063 0.80618 0.36293 0.0
C51 C 0.01622 0.77967 0.33094 0.0
C52 C 0.03168 0.70624 0.25724 0.0
C53 C 0.04224 0.67857 0.25092 0.0
C54 C 0.03463 0.66141 0.18954 0.0
C55 C 0.01647 0.67151 0.13162 0.0
C56 C 1.00513 0.69895 0.13886 0.0
C57 C 0.01257 0.71607 0.20111 0.0
C58 C 0.07766 0.74923 0.28776 0.0
C59 C 0.09743 0.7636 0.33549 0.0
C60 C 0.11452 0.78588 0.30835 0.0
C61 C 0.11211 0.79397 0.23293 0.0
C62 C 0.09435 0.77762 0.18406 0.0
C63 C 0.07712 0.75558 0.21136 0.0
P64 P 0.80974 0.04754 0.29619 0.0
H65 H 0.80218 0.03327 0.4539 0.0
H66 H 0.75966 0.02329 0.52526 0.0
H67 H 0.70926 0.01434 0.32023 0.0
H68 H 0.75243 0.02319 0.24904 0.0
H69 H 0.87212 0.05015 0.31527 0.0
H70 H 0.90967 0.03701 0.23393 0.0
H71 H 0.84841 0.98807 0.09853 0.0
H72 H 0.81021 1.00252 0.18015 0.0
H73 H 0.75829 0.08218 0.28612 0.0
H74 H 0.82965 0.06544 0.14735 0.0
O75 O 0.82546 0.07 0.35755 0.0
H76 H 0.7344 0.1066 0.18202 0.0
H77 H 0.80596 0.08996 0.04372 0.0
C78 C 0.78072 0.02957 0.34568 0.0
C79 C 0.78222 0.02832 0.42394 0.0
C80 C 0.75756 0.02304 0.46499 0.0
C81 C 0.73045 0.01896 0.42915 0.0
C82 C 0.72949 0.01755 0.35046 0.0
C83 C 0.75435 0.02257 0.30933 0.0
C84 C 0.83805 0.02718 0.25498 0.0
C85 C 0.86666 0.03575 0.26981 0.0
C86 C 0.88842 0.02818 0.22238 0.0
C87 C 0.88246 0.01159 0.15818 0.0
C88 C 0.85402 1.00129 0.14627 0.0
C89 C 0.83211 0.00899 0.19409 0.0
C90 C 0.79475 0.06998 0.22323 0.0
C91 C 0.76886 0.08371 0.23345 0.0
C92 C 0.75545 0.09817 0.17417 0.0
C93 C 0.76807 0.09965 0.10412 0.0
C94 C 0.79541 0.0885 0.0965 0.0
C95 C 0.80878 0.07407 0.15582 0.0
P96 P 0.49136 0.79831 0.30531 0.0
H97 H 0.50676 0.79132 0.46393 0.0
H98 H 0.51741 0.74856 0.5367 0.0
H99 H 0.5302 0.70228 0.33395 0.0
H100 H 0.51932 0.74532 0.26079 0.0
H101 H 0.48161 0.859 0.28873 0.0
H102 H 0.49612 0.89445 0.19797 0.0
H103 H 0.55208 0.83396 0.10094 0.0
H104 H 0.53781 0.79814 0.19478 0.0
H105 H 0.44107 0.76397 0.34054 0.0
H106 H 0.48719 0.78639 0.14356 0.0
O107 O 0.47206 0.81503 0.36765 0.0
H108 H 0.41293 0.72841 0.26895 0.0
H109 H 0.46036 0.75062 0.07333 0.0
C110 C 0.51194 0.77169 0.35649 0.0
C111 C 0.51285 0.77237 0.43477 0.0
C112 C 0.51867 0.74772 0.47658 0.0
C113 C 0.52405 0.72178 0.44119 0.0
C114 C 0.52611 0.72186 0.36304 0.0
C115 C 0.52005 0.74659 0.32107 0.0
C116 C 0.50878 0.82579 0.24964 0.0
C117 C 0.49772 0.85336 0.24982 0.0
C118 C 0.50597 0.87377 0.19727 0.0
C119 C 0.5252 0.86712 0.14174 0.0
C120 C 0.53709 0.83974 0.14271 0.0
C121 C 0.52922 0.81936 0.19686 0.0
C122 C 0.46623 0.778 0.24765 0.0
C123 C 0.44464 0.76183 0.28152 0.0
C124 C 0.42874 0.74134 0.2407 0.0
C125 C 0.43446 0.73648 0.16543 0.0
C126 C 0.45494 0.75401 0.13075 0.0
C127 C 0.47066 0.77451 0.17147 0.0
P128 P 0.29132 0.42824 0.09959 0.0
H129 H 0.27489 0.4085 0.94892 0.0
H130 H 0.23464 0.42126 0.86641 0.0
H131 H 0.2205 0.49522 1.0012 0.0
H132 H 0.26096 0.48244 0.08332 0.0
H133 H 0.34723 0.40508 0.14055 0.0
H134 H 0.38572 0.42321 0.22325 0.0
H135 H 0.34697 0.50586 0.22127 0.0
H136 H 0.3085 0.48763 0.13732 0.0
H137 H 0.23065 0.41289 0.1077 0.0
H138 H 0.29792 0.44335 0.26012 0.0
O139 O 0.2972 0.3943 0.07849 0.0
H140 H 0.19484 0.42825 0.19465 0.0
H141 H 0.26218 0.4594 0.34487 0.0
C142 C 0.27129 0.44452 0.02254 0.0
C143 C 0.26396 0.42811 0.95928 0.0
C144 C 0.24054 0.43522 0.91253 0.0
C145 C 0.22382 0.45894 0.92793 0.0
C146 C 0.23286 0.47686 0.98728 0.0
C147 C 0.25634 0.46972 0.03407 0.0
C148 C 0.32486 0.44496 0.1319 0.0
C149 C 0.34756 0.42746 0.15492 0.0
C150 C 0.36961 0.43784 0.20284 0.0
C151 C 0.36923 0.46587 0.22992 0.0
C152 C 0.34772 0.48405 0.20209 0.0
C153 C 0.32588 0.47375 0.15305 0.0
C154 C 0.26694 0.42836 0.17533 0.0
C155 C 0.2378 0.42207 0.16054 0.0
C156 C 0.21735 0.43073 0.21013 0.0
C157 C 0.22602 0.44539 0.27512 0.0
C158 C 0.25521 0.44837 0.29432 0.0
C159 C 0.27561 0.43949 0.24515 0.0
P160 P 0.08099 0.2913 0.12725 0.0
H161 H 0.11622 0.27873 0.99947 0.0
H162 H 0.11028 0.24056 0.90849 0.0
H163 H 0.02152 0.2303 0.96427 0.0
H164 H 0.02726 0.26958 0.05209 0.0
H165 H 0.12045 0.32968 0.20889 0.0
H166 H 0.11378 0.3737 0.27533 0.0
H167 H 0.0286 0.37957 0.17722 0.0
H168 H 0.03587 0.33539 0.10725 0.0
H169 H 0.0867 0.23333 0.17978 0.0
H170 H 0.02591 0.30052 0.20098 0.0
O171 O 0.11477 0.28222 0.14689 0.0
H172 H 0.0525 0.19948 0.232 0.0
H173 H 0.99157 0.26669 0.25142 0.0
C174 C 0.07246 0.27682 0.03473 0.0
C175 C 0.09509 0.26928 0.98985 0.0
C176 C 0.09177 0.24684 0.93859 0.0
C177 C 0.06571 0.2312 0.93101 0.0
C178 C 0.04205 0.24137 0.96874 0.0
C179 C 0.04534 0.26414 0.01929 0.0
C180 C 0.07858 0.32874 0.15297 0.0
C181 C 0.10061 0.34073 0.19889 0.0
C182 C 0.09677 0.3661 0.23754 0.0
C183 C 0.07052 0.38006 0.23271 0.0
C184 C 0.049 0.36916 0.18293 0.0
C185 C 0.0532 0.34398 0.14246 0.0
C186 C 0.05921 0.26965 0.18713 0.0
C187 C 0.06639 0.24105 0.19765 0.0
C188 C 0.04661 0.22161 0.2262 0.0
C189 C 0.01916 0.23039 0.24419 0.0
C190 C 0.01257 0.25935 0.23794 0.0
C191 C 0.03241 0.27882 0.20928 0.0
P192 P 0.24002 0.06332 0.06218 0.0
H193 H 0.24383 0.04066 0.90979 0.0
H194 H 0.2852 0.02441 0.84344 0.0
H195 H 0.33313 0.01768 0.05212 0.0
H196 H 0.29125 0.0328 0.11875 0.0
H197 H 0.20895 0.09778 0.16402 0.0
H198 H 0.17337 0.08793 0.2574 0.0
H199 H 0.17587 0.99819 0.20724 0.0
H200 H 0.21256 0.00829 0.11395 0.0
H201 H 0.27956 0.10365 0.99364 0.0
H202 H 0.25952 0.07607 0.21601 0.0
O203 O 0.22167 0.07983 0.99389 0.0
H204 H 0.32805 0.11673 0.03759 0.0
H205 H 0.30672 0.08979 0.26006 0.0
C206 C 0.264 0.03809 0.01988 0.0
C207 C 0.26267 0.03441 0.94205 0.0
C208 C 0.28663 0.0254 0.90374 0.0
C209 C 0.31285 0.0203 0.94202 0.0
C210 C 0.3135 0.02183 0.0205 0.0
C211 C 0.28925 0.03008 0.05892 0.0
C212 C 0.21428 0.05374 0.13322 0.0
C213 C 0.20234 0.07584 0.17377 0.0
C214 C 0.18188 0.07019 0.22749 0.0
C215 C 0.17188 0.04223 0.24101 0.0
C216 C 0.18317 0.02 0.19872 0.0
C217 C 0.20427 0.02569 0.14553 0.0
C218 C 0.26587 0.08857 0.10117 0.0
C219 C 0.28483 0.10227 0.05279 0.0
C220 C 0.31266 0.1096 0.07786 0.0
C221 C 0.32155 0.10357 0.15181 0.0
C222 C 0.3008 0.09475 0.20264 0.0
C223 C 0.27334 0.08688 0.17729 0.0
P224 P 0.45337 0.2337 0.06705 0.0
H225 H 0.44798 0.24895 0.9079 0.0
H226 H 0.46655 0.29088 0.84286 0.0
H227 H 0.52707 0.30648 0.02572 0.0
H228 H 0.50835 0.26458 0.0907 0.0
H229 H 0.42271 0.18198 0.11038 0.0
H230 H 0.43423 0.1432 0.19588 0.0
H231 H 0.52103 0.17599 0.22056 0.0
H232 H 0.50926 0.21502 0.13352 0.0
H233 H 0.42745 0.2893 0.05552 0.0
H234 H 0.46702 0.23799 0.22922 0.0
O235 O 0.42236 0.22646 0.02153 0.0
H236 H 0.43983 0.33233 0.12685 0.0
H237 H 0.47945 0.28076 0.29952 0.0
C238 C 0.47672 0.25324 1.00455 0.0
C239 C 0.46621 0.26045 0.93265 0.0
C240 C 0.47676 0.28472 0.89542 0.0
C241 C 0.49791 0.30251 0.9296 0.0
C242 C 0.51045 0.29355 0.99812 0.0
C243 C 0.50011 0.26911 0.03487 0.0
C244 C 0.4652 0.2013 0.1139 0.0
C245 C 0.44452 0.18046 0.13199 0.0
C246 C 0.45113 0.15823 0.18155 0.0
C247 C 0.47857 0.15641 0.21564 0.0
C248 C 0.49961 0.17684 0.19587 0.0
C249 C 0.49303 0.19897 0.14515 0.0
C250 C 0.4471 0.26046 0.13569 0.0
C251 C 0.43737 0.28708 0.11063 0.0
C252 C 0.44454 0.3117 0.15119 0.0
C253 C 0.46121 0.30968 0.21736 0.0
C254 C 0.467 0.28272 0.24775 0.0
C255 C 0.4599 0.2582 0.20722 0.0
Eu256 Eu 0.99935 0.02701 0.6434 0.0
Eu257 Eu 0.05345 0.0128 0.75768 0.0
C258 C 0.03291 0.0779 0.73846 0.0
C259 C 0.94149 0.06622 0.53682 0.0
C260 C 0.94925 0.09172 0.57327 0.0
C261 C 0.92032 0.09327 0.43446 0.0
C262 C 0.94383 0.11781 0.53897 0.0
C263 C 0.92581 0.06708 0.46896 0.0
C264 C 0.9308 0.1188 0.46724 0.0
C265 C 0.95314 0.03928 0.56436 0.0
O266 O 0.01476 0.01565 0.83078 0.0
O267 O 0.98183 1.00217 0.741 0.0
C268 C 0.98862 1.0071 0.81141 0.0
O269 O 1.01246 0.98311 0.61036 0.0
O270 O 0.07578 0.01579 0.86632 0.0
O271 O 0.09483 0.99304 0.77657 0.0
O272 O 0.03489 0.96958 0.72019 0.0
C273 C 0.02342 0.96332 0.65393 0.0
O274 O 0.03717 0.03905 0.57222 0.0
O275 O 0.07411 0.02224 0.64754 0.0
O276 O 0.0545 0.06096 0.75195 0.0
O277 O 0.97705 0.03202 0.53528 0.0
O278 O 0.95377 0.03583 0.63644 0.0
O279 O 1.00894 0.06845 0.70565 0.0
C280 C 0.10627 0.97739 0.89838 0.0
C281 C 0.08825 0.96614 0.95271 0.0
C282 C 0.14254 0.94342 0.93598 0.0
C283 C 0.09727 0.94354 0.998 0.0
C284 C 0.13362 0.9662 0.89121 0.0
C285 C 0.12432 0.93168 0.9892 0.0
C286 C 0.09684 0.99999 0.84673 0.0
C287 C 0.06434 0.03301 0.58403 0.0
H288 H 0.96137 0.09148 0.62579 0.0
H289 H 0.90994 0.09343 0.37956 0.0
H290 H 0.95248 0.13695 0.56557 0.0
H291 H 0.91952 0.04753 0.44036 0.0
H292 H 0.06699 0.97432 0.95906 0.0
H293 H 0.16349 0.93469 0.9283 0.0
H294 H 0.08262 0.93458 0.03785 0.0
H295 H 0.14786 0.9747 0.84972 0.0
Eu296 Eu 0.53413 0.03698 0.73574 0.0
Eu297 Eu 0.50529 0.99026 0.62056 0.0
C298 C 0.52868 0.96909 0.78066 0.0
C299 C 0.5787 0.0953 0.83798 0.0
C300 C 0.59971 0.09731 0.78414 0.0
C301 C 0.60799 0.12513 0.92082 0.0
C302 C 0.62531 0.11239 0.79987 0.0
C303 C 0.58243 0.11025 0.90482 0.0
C304 C 0.63031 0.12525 0.87003 0.0
C305 C 0.55456 0.07513 0.82976 0.0
O306 O 0.47044 0.99678 0.70432 0.0
O307 O 0.48642 0.03951 0.75252 0.0
C308 C 0.46651 0.01936 0.74555 0.0
O309 O 0.53257 0.05888 0.62319 0.0
O310 O 0.47173 0.95975 0.58376 0.0
O311 O 0.50598 0.9706 0.51075 0.0
O312 O 0.49417 0.03384 0.57459 0.0
C313 C 0.51179 0.05596 0.57271 0.0
O314 O 0.57338 0.0228 0.67599 0.0
O315 O 0.55157 0.99432 0.58583 0.0
O316 O 0.52488 0.96214 0.71004 0.0
O317 O 0.53529 0.0806 0.77771 0.0
O318 O 0.56107 0.04822 0.83264 0.0
O319 O 0.52875 0.9959 0.80219 0.0
C320 C 0.45938 0.97272 0.45907 0.0
C321 C 0.46916 0.98181 0.38929 0.0
C322 C 0.41754 1.00192 0.43967 0.0
C323 C 0.45411 1.00212 0.34734 0.0
C324 C 0.4325 0.98166 0.48144 0.0
C325 C 0.42901 0.01354 0.37451 0.0
C326 C 0.47984 0.96069 0.51488 0.0
C327 C 0.57456 1.00723 0.61533 0.0
H328 H 0.59697 0.08592 0.73192 0.0
H329 H 0.61104 0.13438 0.97573 0.0
H330 H 0.64187 0.11243 0.75908 0.0
H331 H 0.56632 0.10888 0.94682 0.0
H332 H 0.4897 0.97513 0.37025 0.0
H333 H 0.39762 0.00955 0.4604 0.0
H334 H 0.46321 0.0103 0.29659 0.0
H335 H 0.42402 0.97483 0.53424 0.0
Eu336 Eu 0.49898 0.51806 0.71873 0.0
Eu337 Eu 0.55421 0.50006 0.62411 0.0
C338 C 0.56132 0.51732 0.79759 0.0
C339 C 0.44288 0.55897 0.82157 0.0
C340 C 0.45455 0.58553 0.80105 0.0
C341 C 0.4112 0.58242 0.90477 0.0
C342 C 0.4448 0.61042 0.83286 0.0
C343 C 0.42091 0.55753 0.87265 0.0
C344 C 0.42335 0.60908 0.88597 0.0
C345 C 0.45399 0.53267 0.79137 0.0
O346 O 0.53105 0.4583 0.65108 0.0
O347 O 0.50903 0.47308 0.75559 0.0
C348 C 0.51872 0.45256 0.71453 0.0
O349 O 0.48047 0.49454 0.61734 0.0
O350 O 0.58965 0.47188 0.60382 0.0
O351 O 0.58389 0.50949 0.53555 0.0
O352 O 0.51776 0.50083 0.53899 0.0
C353 C 0.49075 0.49465 0.55001 0.0
O354 O 0.50969 0.55703 0.64923 0.0
O355 O 0.55684 0.54822 0.6309 0.0
O356 O 0.56915 0.50036 0.74445 0.0
O357 O 0.45468 0.53142 0.71899 0.0
O358 O 0.47734 0.52329 0.82367 0.0
O359 O 0.53784 0.53222 0.79026 0.0
C360 C 0.59402 0.46653 0.47468 0.0
C361 C 0.60366 0.43844 0.47949 0.0
C362 C 0.56739 0.4545 0.36015 0.0
C363 C 0.59369 0.41812 0.42779 0.0
C364 C 0.57727 0.47478 0.41186 0.0
C365 C 0.57408 0.4257 0.37032 0.0
C366 C 0.5959 0.48472 0.54156 0.0
C367 C 0.53504 0.56546 0.62727 0.0
H368 H 0.47162 0.58694 0.76171 0.0
H369 H 0.39458 0.5808 0.9453 0.0
H370 H 0.45493 0.63059 0.81825 0.0
H371 H 0.41164 0.53712 0.88873 0.0
H372 H 0.61674 0.4316 0.52703 0.0
H373 H 0.55283 0.46101 0.31525 0.0
H374 H 0.59931 0.39607 0.43694 0.0
H375 H 0.56974 0.49637 0.40571 0.0
Eu376 Eu 0.02958 0.54433 0.64053 0.0
Eu377 Eu 1.00629 0.49007 0.73616 0.0
C378 C 0.07327 0.50617 0.73896 0.0
C379 C 0.08093 0.5824 0.52637 0.0
C380 C 0.10326 0.56907 0.56679 0.0
C381 C 0.10674 0.5763 0.41256 0.0
C382 C 0.12623 0.55812 0.52994 0.0
C383 C 0.08346 0.58711 0.4495 0.0
C384 C 0.12741 0.5605 0.45229 0.0
C385 C 0.05281 0.58418 0.56001 0.0
O386 O 1.01074 0.52662 0.81752 0.0
O387 O 1.00837 0.56493 0.73793 0.0
C388 C 1.00768 0.5541 0.80573 0.0
O389 O 0.98422 0.53584 0.59846 0.0
O390 O 1.0078 0.46435 0.83815 0.0
O391 O 0.98002 0.45135 0.745 0.0
O392 O 0.96609 0.51369 0.7012 0.0
C393 C 0.96233 0.52641 0.63615 0.0
O394 O 0.04396 0.50501 0.57903 0.0
O395 O 1.00834 0.47503 0.61743 0.0
O396 O 0.05445 0.48496 0.73441 0.0
O397 O 0.0338 0.56591 0.53322 0.0
O398 O 0.05291 0.58507 0.6327 0.0
O399 O 0.06611 0.53201 0.71857 0.0
C400 C 0.96396 0.44193 0.86631 0.0
C401 C 0.93681 0.45329 0.85163 0.0
C402 C 0.94751 0.42276 0.98376 0.0
C403 C 0.91516 0.44933 0.90253 0.0
C404 C 0.96911 0.42649 0.93239 0.0
C405 C 0.92036 0.43423 0.96934 0.0
C406 C 0.98734 0.44696 0.81482 0.0
C407 C 0.02807 0.48173 0.56973 0.0
H408 H 0.10186 0.56489 0.62599 0.0
H409 H 0.10735 0.57826 0.35244 0.0
H410 H 0.14214 0.54615 0.56149 0.0
H411 H 0.06632 0.59699 0.41722 0.0
H412 H 0.93242 0.46561 0.80142 0.0
H413 H 0.95203 0.41101 0.03482 0.0
H414 H 0.89458 0.45883 0.89064 0.0
H415 H 0.98998 0.41767 0.94472 0.0
H416 H 0.16979 0.06365 0.38244 0.0
H417 H 0.12279 0.00898 0.22734 0.0
H418 H 0.0845 1.00279 0.31653 0.0
H419 H 0.06401 0.01306 0.44004 0.0
H420 H 0.11316 0.06491 0.5973 0.0
H421 H 0.15043 0.07243 0.5062 0.0
C422 C 0.15115 0.05039 0.36799 0.0
C423 C 0.14929 0.0369 0.29771 0.0
C424 C 0.12931 0.04667 0.42007 0.0
C425 C 0.12506 0.01947 0.2809 0.0
C426 C 0.10299 0.01608 0.33186 0.0
C427 C 0.08273 0.02629 0.45378 0.0
C428 C 0.08552 0.0389 0.52505 0.0
C429 C 0.10475 0.02968 0.40164 0.0
C430 C 0.11031 0.05528 0.54272 0.0
C431 C 0.13172 0.05948 0.49066 0.0
H432 H 0.50803 0.16184 0.35011 0.0
H433 H 0.46212 0.10003 0.21187 0.0
H434 H 0.46854 0.06389 0.30878 0.0
H435 H 0.48447 0.05006 0.43619 0.0
H436 H 0.53199 0.11113 0.57301 0.0
H437 H 0.52689 0.14716 0.47468 0.0
C438 C 0.49957 0.1404 0.34094 0.0
C439 C 0.48442 0.13389 0.27354 0.0
C440 C 0.50287 0.1196 0.39776 0.0
C441 C 0.47347 0.10593 0.26332 0.0
C442 C 0.47695 0.08519 0.31905 0.0
C443 C 0.49365 0.07127 0.44463 0.0
C444 C 0.50838 0.07785 0.51247 0.0
C445 C 0.49109 0.09185 0.38713 0.0
C446 C 0.52048 0.1054 0.52167 0.0
C447 C 0.51757 0.12607 0.46532 0.0
H448 H 0.42713 0.45811 0.24634 0.0
H449 H 0.35544 0.49296 0.35726 0.0
H450 H 0.38615 0.50407 0.4665 0.0
H451 H 0.43331 0.50303 0.53243 0.0
H452 H 0.50561 0.47062 0.41928 0.0
H453 H 0.47489 0.45928 0.30995 0.0
C454 C 0.41829 0.46828 0.2943 0.0
C455 C 0.38898 0.4748 0.29321 0.0
C456 C 0.43619 0.47482 0.3571 0.0
C457 C 0.37796 0.4881 0.35587 0.0
C458 C 0.39548 0.49423 0.41879 0.0
C459 C 0.44228 0.49334 0.48397 0.0
C460 C 0.47168 0.48745 0.48442 0.0
C461 C 0.42459 0.48751 0.42037 0.0
C462 C 0.48306 0.47535 0.42056 0.0
C463 C 0.46549 0.46884 0.35793 0.0
H464 H 0.02433 0.38688 0.31885 0.0
H465 H 0.10529 0.42657 0.26694 0.0
H466 H 0.09912 0.46234 0.36375 0.0
H467 H 0.07185 0.48077 0.46936 0.0
H468 H 0.99176 0.43904 0.52237 0.0
H469 H 0.99656 0.40604 0.41998 0.0
C470 C 0.04039 0.40366 0.32771 0.0
C471 C 0.06514 0.40402 0.28509 0.0
C472 C 0.03708 0.42373 0.38492 0.0
C473 C 0.08601 0.42567 0.29879 0.0
C474 C 0.08255 0.44612 0.35447 0.0
C475 C 0.05539 0.46456 0.45827 0.0
C476 C 0.03155 0.46248 0.50449 0.0
C477 C 0.05838 0.4451 0.39899 0.0
C478 C 1.01051 0.44119 0.48877 0.0
C479 C 0.01315 0.42222 0.42977 0.0
H480 H 0.87714 1.00753 1.00451 0.0
H481 H 0.9405 1.0051 0.18508 0.0
H482 H 0.97848 1.00356 0.09569 0.0
H483 H 0.99444 1.00496 0.9652 0.0
H484 H 0.93077 1.00427 0.78543 0.0
H485 H 0.89273 1.00437 0.87504 0.0
C486 C 0.89914 1.00608 0.02484 0.0
C487 C 0.90552 1.00695 0.10248 0.0
C488 C 0.92118 1.00471 0.97275 0.0
C489 C 0.93454 1.00531 0.12627 0.0
C490 C 0.95647 1.00423 0.07491 0.0
C491 C 0.97225 1.00462 0.94557 0.0
C492 C 0.96574 1.00474 0.86808 0.0
C493 C 0.95015 1.00438 0.99786 0.0
C494 C 0.9367 1.0041 0.84431 0.0
C495 C 0.91478 1.00426 0.89575 0.0
H496 H 0.5252 0.85925 0.99013 0.0
H497 H 0.53827 0.92371 0.15899 0.0
H498 H 0.54179 0.96053 0.06281 0.0
H499 H 0.53801 0.97506 0.93123 0.0
H500 H 0.52435 0.91103 0.76122 0.0
H501 H 0.52448 0.87368 0.85682 0.0
C502 C 0.52937 0.88129 1.00577 0.0
C503 C 0.53132 0.88863 0.08199 0.0
C504 C 0.531 0.90258 0.94981 0.0
C505 C 0.53639 0.91741 0.10101 0.0
C506 C 0.5384 0.93853 0.04593 0.0
C507 C 0.53526 0.95294 0.91474 0.0
C508 C 0.531 0.94609 0.83863 0.0
C509 C 0.53517 0.93148 0.97019 0.0
C510 C 0.52762 0.91715 0.81904 0.0
C511 C 0.52764 0.89568 0.87387 0.0
H512 H 0.63281 0.48465 0.0885 0.0
H513 H 0.63326 0.57546 0.12283 0.0
H514 H 0.60362 0.58157 1.00814 0.0
H515 H 0.57771 0.5605 0.89606 0.0
H516 H 0.58082 0.46963 0.8625 0.0
H517 H 0.60838 0.46412 0.97888 0.0
C518 C 0.62619 0.5058 0.07141 0.0
C519 C 0.63493 0.52951 0.11479 0.0
C520 C 0.60966 0.50911 1.00521 0.0
C521 C 0.62677 0.55683 0.09058 0.0
C522 C 0.60976 0.56029 0.02508 0.0
C523 C 0.58435 0.53957 0.91472 0.0
C524 C 0.57724 0.5155 0.87049 0.0
C525 C 0.60104 0.53654 0.98166 0.0
C526 C 0.58621 0.48852 0.89501 0.0
C527 C 0.60195 0.4853 0.96174 0.0
H528 H 1.00623 0.61396 0.12123 0.0
H529 H 0.01524 0.68958 0.98549 0.0
H530 H 1.01157 0.66056 0.87257 0.0
H531 H 1.00913 0.61302 0.81204 0.0
H532 H 1.00081 0.53777 0.9502 0.0
H533 H 1.00107 0.56719 0.06128 0.0
C534 C 1.00735 0.62417 0.06699 0.0
C535 C 1.01118 0.65403 0.06244 0.0
C536 C 1.00556 0.60729 1.00212 0.0
C537 C 1.01205 0.66675 0.9912 0.0
C538 C 1.01018 0.65009 0.92636 0.0
C539 C 1.00707 0.60306 0.86633 0.0
C540 C 1.00517 0.57303 0.87203 0.0
C541 C 1.00738 0.62024 0.93104 0.0
C542 C 1.00252 0.5607 0.94336 0.0
C543 C 1.00267 0.57755 1.00737 0.0
H544 H 0.98193 0.23399 0.35717 0.0
H545 H 1.00704 0.17915 0.17961 0.0
H546 H 0.9759 0.14102 0.22513 0.0
H547 H 0.94847 0.12114 0.32611 0.0
H548 H 0.92414 0.17477 0.50687 0.0
H549 H 0.94726 0.21595 0.4477 0.0
C550 C 0.98008 0.21389 0.32764 0.0
C551 C 0.99733 0.20904 0.26652 0.0
C552 C 0.9623 0.19193 0.35454 0.0
C553 C 0.99464 0.183 0.22834 0.0
C554 C 0.97668 0.16129 0.25391 0.0
C555 C 0.9471 0.14202 0.35125 0.0
C556 C 0.935 0.14481 0.42136 0.0
C557 C 0.96132 0.16518 0.31855 0.0
C558 C 0.93372 0.17204 0.45332 0.0
C559 C 0.94713 0.19551 0.41984 0.0
H560 H 0.35182 0.11549 0.28095 0.0
H561 H 0.35911 0.07621 0.06611 0.0
H562 H 0.39747 0.04662 0.11504 0.0
H563 H 0.41937 0.02343 0.22577 0.0
H564 H 0.40977 0.06072 0.44249 0.0
H565 H 0.38157 0.09891 0.38674 0.0
C566 C 0.36255 0.10116 0.24433 0.0
C567 C 0.35193 0.09736 0.17081 0.0
C568 C 0.38333 0.08285 0.27414 0.0
C569 C 0.36658 0.07939 0.12322 0.0
C570 C 0.38822 0.06198 0.15161 0.0
C571 C 0.41157 0.04023 0.2605 0.0
C572 C 0.41553 0.0386 0.33837 0.0
C573 C 0.39518 0.06206 0.22816 0.0
C574 C 0.40583 0.06083 0.38264 0.0
C575 C 0.39001 0.08286 0.35077 0.0
H576 H 0.51815 0.31448 0.23051 0.0
H577 H 0.44113 0.36105 0.26244 0.0
H578 H 0.46986 0.40237 0.30739 0.0
H579 H 0.51679 0.4237 0.34334 0.0
H580 H 0.59369 0.37695 0.30893 0.0
H581 H 0.56497 0.33688 0.25864 0.0
C582 C 0.50771 0.33365 0.24801 0.0
C583 C 0.4777 0.33472 0.24529 0.0
C584 C 0.52429 0.35711 0.27259 0.0
C585 C 0.46425 0.35981 0.26543 0.0
C586 C 0.48065 0.38333 0.29075 0.0
C587 C 0.52732 0.40504 0.32312 0.0
C588 C 0.55734 0.40327 0.32959 0.0
C589 C 0.51068 0.38208 0.29504 0.0
C590 C 0.57063 0.3787 0.30477 0.0
C591 C 0.55424 0.35582 0.27623 0.0
H592 H 0.22219 0.50192 0.26943 0.0
H593 H 0.18363 0.42663 0.36551 0.0
H594 H 0.14955 0.45619 0.43005 0.0
H595 H 0.13123 0.50357 0.45859 0.0
H596 H 0.16823 0.5786 0.35683 0.0
H597 H 0.2026 0.54904 0.29375 0.0
C598 C 0.20631 0.49215 0.30486 0.0
C599 C 0.20538 0.46244 0.31425 0.0
C600 C 0.18669 0.50917 0.34002 0.0
C601 C 0.18462 0.44958 0.35861 0.0
C602 C 0.16525 0.46644 0.39513 0.0
C603 C 0.14697 0.51334 0.42278 0.0
C604 C 0.14774 0.54308 0.41273 0.0
C605 C 0.16618 0.49623 0.3863 0.0
C606 C 0.16759 0.55571 0.36524 0.0
C607 C 0.18714 0.53886 0.32951 0.0
H608 H 0.1384 0.80644 0.10322 0.0
H609 H 0.1097 0.8447 0.30484 0.0
H610 H 0.11533 0.89201 0.24999 0.0
H611 H 0.11993 0.92157 0.13743 0.0
H612 H 0.14587 0.88312 0.93343 0.0
H613 H 0.14999 0.83701 0.99632 0.0
C614 C 0.13401 0.82521 0.13559 0.0
C615 C 0.12331 0.82204 0.20749 0.0
C616 C 0.13631 0.85233 0.10277 0.0
C617 C 0.11813 0.84651 0.24948 0.0
C618 C 0.12098 0.87361 0.2178 0.0
C619 C 0.12692 0.90314 0.10726 0.0
C620 C 0.13213 0.90553 0.03084 0.0
C621 C 0.1287 0.87662 0.14335 0.0
C622 C 0.14172 0.88174 0.9924 0.0
C623 C 0.1439 0.85534 0.02817 0.0
H624 H 0.73364 0.14575 0.0891 0.0
H625 H 0.7634 0.07303 0.97014 0.0
H626 H 0.72612 0.07932 0.8741 0.0
H627 H 0.67925 0.09802 0.84151 0.0
H628 H 0.64778 0.16981 0.96117 0.0
H629 H 0.69169 0.17147 0.03891 0.0
C630 C 0.73231 0.13174 0.04117 0.0
C631 C 0.75085 0.10863 0.03759 0.0
C632 C 0.71023 0.13496 0.98701 0.0
C633 C 0.74939 0.09098 0.97443 0.0
C634 C 0.72787 0.09439 0.9197 0.0
C635 C 0.68234 0.11488 0.88227 0.0
C636 C 0.65981 0.13318 0.89701 0.0
C637 C 0.70728 0.11529 0.92774 0.0
C638 C 0.66445 0.15487 0.95021 0.0
C639 C 0.68952 0.1558 0.99483 0.0
H640 H 0.41722 0.73178 0.01902 0.0
H641 H 0.42611 0.68306 0.2232 0.0
H642 H 0.41821 0.63899 0.1542 0.0
H643 H 0.41799 0.61419 0.03482 0.0
H644 H 0.41326 0.66237 0.8294 0.0
H645 H 0.41087 0.70671 0.89975 0.0
C646 C 0.41708 0.71153 0.04851 0.0
C647 C 0.42273 0.7108 0.12604 0.0
C648 C 0.4139 0.68611 1.00806 0.0
C649 C 0.42168 0.68442 0.16367 0.0
C650 C 0.41754 0.65908 0.12409 0.0
C651 C 0.41558 0.6343 1.00538 0.0
C652 C 0.41614 0.63508 0.92714 0.0
C653 C 0.41495 0.65966 0.04608 0.0
C654 C 0.41332 0.66134 0.88974 0.0
C655 C 0.41193 0.68665 0.92989 0.0
H656 H 0.83685 0.44698 0.23312 0.0
H657 H 0.77499 0.42182 0.06053 0.0
H658 H 0.81355 0.41439 0.97464 0.0
H659 H 0.86443 0.41929 0.94559 0.0
H660 H 0.92604 0.4446 0.11834 0.0
H661 H 0.88798 0.44691 0.208 0.0
C662 C 0.83178 0.43913 0.1774 0.0
C663 C 0.80305 0.43522 0.15309 0.0
C664 C 0.854 0.43506 0.12828 0.0
C665 C 0.79691 0.42544 0.08023 0.0
C666 C 0.81894 0.42114 0.03115 0.0
C667 C 0.86948 0.42508 1.00307 0.0
C668 C 0.89788 0.43203 0.02529 0.0
C669 C 0.84748 0.42666 0.05399 0.0
C670 C 0.90431 0.43905 0.10008 0.0
C671 C 0.88256 0.44055 0.1512 0.0
H672 H 0.02101 0.20618 0.84687 0.0
H673 H 0.10725 0.19103 0.92911 0.0
H674 H 0.10527 0.14376 0.87447 0.0
H675 H 0.07868 0.10532 0.80845 0.0
H676 H 0.9921 0.11926 0.72784 0.0
H677 H 0.99467 0.16779 0.77687 0.0
C678 C 0.03942 0.19261 0.85286 0.0
C679 C 0.06437 0.20276 0.89193 0.0
C680 C 0.03808 0.16487 0.8218 0.0
C681 C 0.08795 0.18454 0.89817 0.0
C682 C 0.08677 0.15716 0.86745 0.0
C683 C 0.06036 0.11894 0.80103 0.0
C684 C 0.03519 0.10828 0.76434 0.0
C685 C 0.0619 0.14695 0.82971 0.0
C686 C 1.0118 0.12659 0.75564 0.0
C687 C 0.01322 0.15447 0.78391 0.0
H688 H 0.3657 0.04585 0.96316 0.0
H689 H 0.32034 0.98424 0.82401 0.0
H690 H 0.36334 0.97794 0.75177 0.0
H691 H 0.41423 0.99055 0.72652 0.0
H692 H 0.458 0.05434 0.8632 0.0
H693 H 0.41566 0.05901 0.93715 0.0
C694 C 0.36526 0.03081 0.9176 0.0
C695 C 0.33967 0.01539 0.89987 0.0
C696 C 0.38996 0.02777 0.8751 0.0
C697 C 0.33957 0.99644 0.83925 0.0
C698 C 0.36425 0.99282 0.79779 0.0
C699 C 0.41452 1.00549 0.77243 0.0
C700 C 0.43961 0.02207 0.78861 0.0
C701 C 0.38962 0.00849 0.8148 0.0
C702 C 0.43922 0.04138 0.84847 0.0
C703 C 0.41492 0.04404 0.8913 0.0
H704 H 0.50638 0.31959 0.78406 0.0
H705 H 0.50195 0.35202 1.00788 0.0
H706 H 0.5079 0.40063 0.96152 0.0
H707 H 0.5129 0.43443 0.85763 0.0
H708 H 0.51919 0.40294 0.63365 0.0
H709 H 0.51388 0.35381 0.67956 0.0
C710 C 0.50686 0.3373 0.82266 0.0
C711 C 0.5039 0.33191 0.89965 0.0
C712 C 0.51041 0.36552 0.79549 0.0
C713 C 0.50469 0.35526 0.94869 0.0
C714 C 0.50784 0.38321 0.9221 0.0
C715 C 0.51304 0.41685 0.81866 0.0
C716 C 0.51611 0.42251 0.74202 0.0
C717 C 0.51048 0.38864 0.84565 0.0
C718 C 0.51677 0.39932 0.6928 0.0
C719 C 0.51371 0.37117 0.71911 0.0
H720 H 0.20007 0.50892 0.87769 0.0
H721 H 0.18347 0.41819 0.88887 0.0
H722 H 0.13619 0.42438 0.83026 0.0
H723 H 0.09842 0.45569 0.77961 0.0
H724 H 0.11523 0.54644 0.76785 0.0
H725 H 0.16302 0.54004 0.82271 0.0
C726 C 0.18613 0.49049 0.86723 0.0
C727 C 0.19559 0.46311 0.8876 0.0
C728 C 0.15872 0.49418 0.83352 0.0
C729 C 0.17716 0.43949 0.87284 0.0
C730 C 0.1499 0.44302 0.83977 0.0
C731 C 0.11254 0.47407 0.7888 0.0
C732 C 0.10292 0.50153 0.76975 0.0
C733 C 0.1403 0.47028 0.82034 0.0
C734 C 0.12178 0.52502 0.78187 0.0
C735 C 0.14925 0.52141 0.81346 0.0
H736 H 0.01689 0.8307 0.5845 0.0
H737 H 0.02126 0.86352 0.35905 0.0
H738 H 0.02122 0.91178 0.40582 0.0
H739 H 0.02177 0.94544 0.51002 0.0
H740 H 0.02322 0.91359 0.73596 0.0
H741 H 0.02029 0.86448 0.68954 0.0
C742 C 0.0182 0.84818 0.54505 0.0
C743 C 0.01862 0.84263 0.46743 0.0
C744 C 0.01959 0.87641 0.57258 0.0
C745 C 0.01986 0.86631 0.41857 0.0
C746 C 0.02029 0.89426 0.44541 0.0
C747 C 0.02137 0.92778 0.54928 0.0
C748 C 0.02252 0.9333 0.62653 0.0
C749 C 0.02031 0.8996 0.52219 0.0
C750 C 0.02242 0.91004 0.67632 0.0
C751 C 0.02064 0.88193 0.64969 0.0
H752 H 0.67968 0.98793 0.40453 0.0
H753 H 0.71955 0.04976 0.55442 0.0
H754 H 0.67637 0.05065 0.62619 0.0
H755 H 0.62626 0.03524 0.64568 0.0
H756 H 0.58582 0.97432 0.49429 0.0
H757 H 0.62964 0.97209 0.42485 0.0
C758 C 0.67901 1.00169 0.45271 0.0
C759 C 0.70345 0.0185 0.47366 0.0
C760 C 0.65367 1.00242 0.49406 0.0
C761 C 0.70171 0.03598 0.53709 0.0
C762 C 0.67675 0.03674 0.57822 0.0
C763 C 0.62701 0.02128 0.59787 0.0
C764 C 0.60239 1.00496 0.57596 0.0
C765 C 0.65249 0.02014 0.55729 0.0
C766 C 0.60413 0.9872 0.51317 0.0
C767 C 0.62933 0.9859 0.47302 0.0
H768 H 0.56191 0.67754 0.43842 0.0
H769 H 0.48506 0.70429 0.54163 0.0
H770 H 0.48204 0.6592 0.60968 0.0
H771 H 0.50007 0.61125 0.63714 0.0
H772 H 0.57794 0.58473 0.53838 0.0
H773 H 0.58175 0.63033 0.47239 0.0
C774 C 0.5446 0.6735 0.47604 0.0
C775 C 0.5238 0.69444 0.48486 0.0
C776 C 0.54312 0.64743 0.51606 0.0
C777 C 0.50158 0.68882 0.53429 0.0
C778 C 0.49972 0.66291 0.57306 0.0
C779 C 0.51801 0.61548 0.60162 0.0
C780 C 0.53862 0.59437 0.59284 0.0
C781 C 0.52024 0.64195 0.5641 0.0
C782 C 0.56179 0.60049 0.54676 0.0
C783 C 0.56393 0.6266 0.50852 0.0
H784 H 0.85027 0.52575 0.4295 0.0
H785 H 0.81021 0.53256 0.64197 0.0
H786 H 0.85707 0.53245 0.70572 0.0
H787 H 0.91 0.52915 0.70193 0.0
H788 H 0.9493 0.52683 0.48796 0.0
H789 H 0.90241 0.5271 0.42481 0.0
C790 C 0.85153 0.52793 0.4896 0.0
C791 C 0.82622 0.52882 0.53018 0.0
C792 C 0.87869 0.52858 0.52621 0.0
C793 C 0.82895 0.53108 0.60854 0.0
C794 C 0.8559 0.53122 0.64539 0.0
C795 C 0.90824 0.52882 0.64152 0.0
C796 C 0.93325 0.52787 0.59995 0.0
C797 C 0.88097 0.5296 0.60493 0.0
C798 C 0.93053 0.52772 0.52158 0.0
C799 C 0.90364 0.52779 0.48521 0.0
loop_
_geom_bond_atom_site_label_1
_geom_bond_atom_site_label_2
_geom_bond_distance
_geom_bond_site_symmetry_2
_ccdc_geom_bond_type
P0 O11 1.490 . S
P0 C14 1.812 . S
P0 C20 1.803 . S
P0 C26 1.819 . S
H1 C15 0.941 . S
H2 C16 0.939 . S
H3 C18 0.940 . S
H4 C19 0.940 . S
H5 C21 0.939 . S
H6 C22 0.942 . S
H7 C24 0.940 . S
H8 C25 0.939 . S
H9 C27 0.941 . S
H10 C31 0.939 . S
O11 P0 1.490 . S
H12 C28 0.939 . S
H13 C30 0.940 . S
C14 P0 1.812 . S
C14 C15 1.389 . S
C14 C19 1.391 . S
C15 H1 0.941 . S
C15 C14 1.389 . S
C15 C16 1.397 . S
C16 H2 0.939 . S
C16 C15 1.397 . S
C16 C17 1.378 . S
C17 C16 1.378 . S
C17 C18 1.378 . S
C18 H3 0.940 . S
C18 C17 1.378 . S
C18 C19 1.396 . S
C19 H4 0.940 . S
C19 C14 1.391 . S
C19 C18 1.396 . S
C20 P0 1.803 . S
C20 C21 1.378 . S
C20 C25 1.400 . S
C21 H5 0.939 . S
C21 C20 1.378 . S
C21 C22 1.361 . S
C22 H6 0.942 . S
C22 C21 1.361 . S
C22 C23 1.369 . S
C23 C22 1.369 . S
C23 C24 1.404 . S
C24 H7 0.940 . S
C24 C23 1.404 . S
C24 C25 1.389 . S
C25 H8 0.939 . S
C25 C20 1.400 . S
C25 C24 1.389 . S
C26 P0 1.819 . S
C26 C27 1.391 . S
C26 C31 1.391 . S
C27 H9 0.941 . S
C27 C26 1.391 . S
C27 C28 1.396 . S
C28 H12 0.939 . S
C28 C27 1.396 . S
C28 C29 1.397 . S
C29 C28 1.397 . S
C29 C30 1.385 . S
C30 H13 0.940 . S
C30 C29 1.385 . S
C30 C31 1.388 . S
C31 H10 0.939 . S
C31 C26 1.391 . S
C31 C30 1.388 . S
P32 O43 1.490 . S
P32 C46 1.812 1_455 S
P32 C52 1.803 1_455 S
P32 C58 1.819 1_455 S
H33 C47 0.941 . S
H34 C48 0.939 1_455 S
H35 C50 0.940 . S
H36 C51 0.940 . S
H37 C53 0.939 . S
H38 C54 0.942 1_455 S
H39 C56 0.940 . S
H40 C57 0.939 . S
H41 C59 0.933 1_455 S
H42 C63 0.939 . S
O43 P32 1.490 . S
H44 C60 0.939 . S
H45 C62 0.940 . S
C46 P32 1.812 1_655 S
C46 C47 1.389 1_655 S
C46 C51 1.391 . S
C47 H33 0.941 . S
C47 C46 1.389 1_455 S
C47 C48 1.397 1_455 S
C48 H34 0.939 1_655 S
C48 C47 1.397 1_655 S
C48 C49 1.378 . S
C49 C48 1.378 . S
C49 C50 1.378 . S
C50 H35 0.940 . S
C50 C49 1.378 . S
C50 C51 1.396 . S
C51 H36 0.940 . S
C51 C46 1.391 . S
C51 C50 1.396 . S
C52 P32 1.803 1_655 S
C52 C53 1.378 1_655 S
C52 C57 1.400 . S
C53 H37 0.939 . S
C53 C52 1.378 1_455 S
C53 C54 1.361 1_455 S
C54 H38 0.942 1_655 S
C54 C53 1.361 1_655 S
C54 C55 1.369 . S
C55 C54 1.369 . S
C55 C56 1.404 . S
C56 H39 0.940 . S
C56 C55 1.404 . S
C56 C57 1.389 . S
C57 H40 0.939 . S
C57 C52 1.400 . S
C57 C56 1.389 . S
C58 P32 1.819 1_655 S
C58 C59 1.396 . S
C58 C63 1.391 . S
C59 H41 0.933 1_655 S
C59 C58 1.396 . S
C59 C60 1.401 . S
C60 H44 0.939 . S
C60 C59 1.401 . S
C60 C61 1.397 . S
C61 C60 1.397 . S
C61 C62 1.385 . S
C62 H45 0.940 . S
C62 C61 1.385 . S
C62 C63 1.388 . S
C63 H42 0.939 . S
C63 C58 1.391 . S
C63 C62 1.388 . S
P64 O75 1.490 . S
P64 C78 1.812 1_545 S
P64 C84 1.803 1_545 S
P64 C90 1.819 1_545 S
H65 C79 0.941 . S
H66 C80 0.939 1_545 S
H67 C82 0.940 . S
H68 C83 0.940 . S
H69 C85 0.939 . S
H70 C86 0.921 1_545 S
H71 C88 0.940 . S
H72 C89 0.939 . S
H73 C91 0.941 . S
H74 C95 0.939 . S
O75 P64 1.490 . S
H76 C92 0.939 1_545 S
H77 C94 0.940 . S
C78 P64 1.812 1_565 S
C78 C79 1.389 1_565 S
C78 C83 1.391 . S
C79 H65 0.941 . S
C79 C78 1.389 1_545 S
C79 C80 1.397 1_545 S
C80 H66 0.939 1_565 S
C80 C79 1.397 1_565 S
C80 C81 1.378 . S
C81 C80 1.378 . S
C81 C82 1.378 . S
C82 H67 0.940 . S
C82 C81 1.378 . S
C82 C83 1.396 . S
C83 H68 0.940 . S
C83 C78 1.391 . S
C83 C82 1.396 . S
C84 P64 1.803 1_565 S
C84 C85 1.378 1_565 S
C84 C89 1.400 . S
C85 H69 0.939 . S
C85 C84 1.378 1_545 S
C85 C86 1.347 1_545 S
C86 H70 0.921 1_565 S
C86 C85 1.347 1_565 S
C86 C87 1.405 . S
C87 C86 1.405 . S
C87 C88 1.404 . S
C88 H71 0.940 . S
C88 C87 1.404 . S
C88 C89 1.389 . S
C89 H72 0.939 . S
C89 C84 1.400 . S
C89 C88 1.389 . S
C90 P64 1.819 1_565 S
C90 C91 1.391 1_565 S
C90 C95 1.391 . S
C91 H73 0.941 . S
C91 C90 1.391 1_545 S
C91 C92 1.396 1_545 S
C92 H76 0.939 1_565 S
C92 C91 1.396 1_565 S
C92 C93 1.397 . S
C93 C92 1.397 . S
C93 C94 1.385 . S
C94 H77 0.940 . S
C94 C93 1.385 . S
C94 C95 1.388 . S
C95 H74 0.939 . S
C95 C90 1.391 . S
C95 C94 1.388 . S
P96 O107 1.490 . S
P96 C110 1.812 . S
P96 C116 1.803 . S
P96 C122 1.819 . S
H97 C111 0.941 . S
H98 C112 0.939 . S
H99 C114 0.940 . S
H100 C115 0.940 . S
H101 C117 0.939 . S
H102 C118 0.942 . S
H103 C120 0.940 . S
H104 C121 0.939 . S
H105 C123 0.941 . S
H106 C127 0.939 . S
O107 P96 1.490 . S
H108 C124 0.939 . S
H109 C126 0.940 . S
C110 P96 1.812 . S
C110 C111 1.389 . S
C110 C115 1.391 . S
C111 H97 0.941 . S
C111 C110 1.389 . S
C111 C112 1.397 . S
C112 H98 0.939 . S
C112 C111 1.397 . S
C112 C113 1.378 . S
C113 C112 1.378 . S
C113 C114 1.378 . S
C114 H99 0.940 . S
C114 C113 1.378 . S
C114 C115 1.396 . S
C115 H100 0.940 . S
C115 C110 1.391 . S
C115 C114 1.396 . S
C116 P96 1.803 . S
C116 C117 1.378 . S
C116 C121 1.400 . S
C117 H101 0.939 . S
C117 C116 1.378 . S
C117 C118 1.361 . S
C118 H102 0.942 . S
C118 C117 1.361 . S
C118 C119 1.369 . S
C119 C118 1.369 . S
C119 C120 1.404 . S
C120 H103 0.940 . S
C120 C119 1.404 . S
C120 C121 1.389 . S
C121 H104 0.939 . S
C121 C116 1.400 . S
C121 C120 1.389 . S
C122 P96 1.819 . S
C122 C123 1.391 . S
C122 C127 1.391 . S
C123 H105 0.941 . S
C123 C122 1.391 . S
C123 C124 1.396 . S
C124 H108 0.939 . S
C124 C123 1.396 . S
C124 C125 1.397 . S
C125 C124 1.397 . S
C125 C126 1.385 . S
C126 H109 0.940 . S
C126 C125 1.385 . S
C126 C127 1.388 . S
C127 H106 0.939 . S
C127 C122 1.391 . S
C127 C126 1.388 . S
P128 O139 1.490 . S
P128 C142 1.812 1_554 S
P128 C148 1.803 . S
P128 C154 1.819 . S
H129 C143 0.941 . S
H130 C144 0.939 . S
H131 C146 0.940 . S
H132 C147 0.940 1_554 S
H133 C149 0.939 . S
H134 C150 0.942 . S
H135 C152 0.940 . S
H136 C153 0.939 . S
H137 C155 0.941 . S
H138 C159 0.939 . S
O139 P128 1.490 . S
H140 C156 0.939 . S
H141 C158 0.940 . S
C142 P128 1.812 1_556 S
C142 C143 1.389 . S
C142 C147 1.391 . S
C143 H129 0.941 . S
C143 C142 1.389 . S
C143 C144 1.397 . S
C144 H130 0.939 . S
C144 C143 1.397 . S
C144 C145 1.378 . S
C145 C144 1.378 . S
C145 C146 1.378 . S
C146 H131 0.940 . S
C146 C145 1.378 . S
C146 C147 1.396 . S
C147 H132 0.940 1_556 S
C147 C142 1.391 . S
C147 C146 1.396 . S
C148 P128 1.803 . S
C148 C149 1.378 . S
C148 C153 1.400 . S
C149 H133 0.939 . S
C149 C148 1.378 . S
C149 C150 1.361 . S
C150 H134 0.942 . S
C150 C149 1.361 . S
C150 C151 1.369 . S
C151 C150 1.369 . S
C151 C152 1.404 . S
C152 H135 0.940 . S
C152 C151 1.404 . S
C152 C153 1.389 . S
C153 H136 0.939 . S
C153 C148 1.400 . S
C153 C152 1.389 . S
C154 P128 1.819 . S
C154 C155 1.391 . S
C154 C159 1.391 . S
C155 H137 0.941 . S
C155 C154 1.391 . S
C155 C156 1.396 . S
C156 H140 0.939 . S
C156 C155 1.396 . S
C156 C157 1.397 . S
C157 C156 1.397 . S
C157 C158 1.385 . S
C158 H141 0.940 . S
C158 C157 1.385 . S
C158 C159 1.388 . S
C159 H138 0.939 . S
C159 C154 1.391 . S
C159 C158 1.388 . S
P160 O171 1.490 . S
P160 C174 1.812 1_554 S
P160 C180 1.803 . S
P160 C186 1.819 . S
H161 C175 0.941 . S
H162 C176 0.939 . S
H163 C178 0.940 . S
H164 C179 0.940 . S
H165 C181 0.939 . S
H166 C182 0.942 . S
H167 C184 0.940 . S
H168 C185 0.939 . S
H169 C187 0.941 . S
H170 C191 0.939 . S
O171 P160 1.490 . S
H172 C188 0.939 . S
H173 C190 0.940 . S
C174 P160 1.812 1_556 S
C174 C175 1.389 . S
C174 C179 1.391 . S
C175 H161 0.941 . S
C175 C174 1.389 . S
C175 C176 1.397 . S
C176 H162 0.939 . S
C176 C175 1.397 . S
C176 C177 1.378 . S
C177 C176 1.378 . S
C177 C178 1.378 . S
C178 H163 0.940 . S
C178 C177 1.378 . S
C178 C179 1.396 . S
C179 H164 0.940 . S
C179 C174 1.391 . S
C179 C178 1.396 . S
C180 P160 1.803 . S
C180 C181 1.378 . S
C180 C185 1.400 . S
C181 H165 0.939 . S
C181 C180 1.378 . S
C181 C182 1.361 . S
C182 H166 0.942 . S
C182 C181 1.361 . S
C182 C183 1.369 . S
C183 C182 1.369 . S
C183 C184 1.404 . S
C184 H167 0.940 . S
C184 C183 1.404 . S
C184 C185 1.389 . S
C185 H168 0.939 . S
C185 C180 1.400 . S
C185 C184 1.389 . S
C186 P160 1.819 . S
C186 C187 1.391 . S
C186 C191 1.391 . S
C187 H169 0.941 . S
C187 C186 1.391 . S
C187 C188 1.396 . S
C188 H172 0.939 . S
C188 C187 1.396 . S
C188 C189 1.397 . S
C189 C188 1.397 . S
C189 C190 1.385 . S
C190 H173 0.940 . S
C190 C189 1.385 . S
C190 C191 1.388 . S
C191 H170 0.939 . S
C191 C186 1.391 . S
C191 C190 1.388 . S
P192 O203 1.490 . S
P192 C206 1.812 1_554 S
P192 C212 1.803 . S
P192 C218 1.819 . S
H193 C207 0.941 . S
H194 C208 0.939 . S
H195 C210 0.940 . S
H196 C211 0.940 . S
H197 C213 0.939 . S
H198 C214 0.942 . S
H199 C216 0.940 . S
H200 C217 0.939 1_556 S
H201 C219 0.941 . S
H202 C223 0.939 . S
O203 P192 1.490 . S
H204 C220 0.939 . S
H205 C222 0.940 . S
C206 P192 1.812 1_556 S
C206 C207 1.389 . S
C206 C211 1.391 . S
C207 H193 0.941 . S
C207 C206 1.389 . S
C207 C208 1.397 . S
C208 H194 0.939 . S
C208 C207 1.397 . S
C208 C209 1.378 . S
C209 C208 1.378 . S
C209 C210 1.378 . S
C210 H195 0.940 . S
C210 C209 1.378 . S
C210 C211 1.396 . S
C211 H196 0.940 . S
C211 C206 1.391 . S
C211 C210 1.396 . S
C212 P192 1.803 . S
C212 C213 1.378 . S
C212 C217 1.400 . S
C213 H197 0.939 . S
C213 C212 1.378 . S
C213 C214 1.361 . S
C214 H198 0.942 . S
C214 C213 1.361 . S
C214 C215 1.369 . S
C215 C214 1.369 . S
C215 C216 1.404 . S
C216 H199 0.940 . S
C216 C215 1.404 . S
C216 C217 1.389 . S
C217 H200 0.939 1_554 S
C217 C212 1.400 . S
C217 C216 1.389 . S
C218 P192 1.819 . S
C218 C219 1.391 . S
C218 C223 1.391 . S
C219 H201 0.941 . S
C219 C218 1.391 . S
C219 C220 1.396 . S
C220 H204 0.939 . S
C220 C219 1.396 . S
C220 C221 1.397 . S
C221 C220 1.397 . S
C221 C222 1.385 . S
C222 H205 0.940 . S
C222 C221 1.385 . S
C222 C223 1.388 . S
C223 H202 0.939 . S
C223 C218 1.391 . S
C223 C222 1.388 . S
P224 O235 1.490 . S
P224 C238 1.812 1_554 S
P224 C244 1.803 . S
P224 C250 1.819 . S
H225 C239 0.941 . S
H226 C240 0.939 . S
H227 C242 0.940 . S
H228 C243 0.940 1_554 S
H229 C245 0.939 . S
H230 C246 0.942 . S
H231 C248 0.940 . S
H232 C249 0.939 . S
H233 C251 0.941 . S
H234 C255 0.939 . S
O235 P224 1.490 . S
H236 C252 0.939 . S
H237 C254 0.940 . S
C238 P224 1.812 1_556 S
C238 C239 1.389 . S
C238 C243 1.391 . S
C239 H225 0.941 . S
C239 C238 1.389 . S
C239 C240 1.397 . S
C240 H226 0.939 . S
C240 C239 1.397 . S
C240 C241 1.378 . S
C241 C240 1.378 . S
C241 C242 1.378 . S
C242 H227 0.940 . S
C242 C241 1.378 . S
C242 C243 1.396 . S
C243 H228 0.940 1_556 S
C243 C238 1.391 . S
C243 C242 1.396 . S
C244 P224 1.803 . S
C244 C245 1.378 . S
C244 C249 1.400 . S
C245 H229 0.939 . S
C245 C244 1.378 . S
C245 C246 1.361 . S
C246 H230 0.942 . S
C246 C245 1.361 . S
C246 C247 1.369 . S
C247 C246 1.369 . S
C247 C248 1.404 . S
C248 H231 0.940 . S
C248 C247 1.404 . S
C248 C249 1.389 . S
C249 H232 0.939 . S
C249 C244 1.400 . S
C249 C248 1.389 . S
C250 P224 1.819 . S
C250 C251 1.391 . S
C250 C255 1.391 . S
C251 H233 0.941 . S
C251 C250 1.391 . S
C251 C252 1.396 . S
C252 H236 0.939 . S
C252 C251 1.396 . S
C252 C253 1.397 . S
C253 C252 1.397 . S
C253 C254 1.385 . S
C254 H237 0.940 . S
C254 C253 1.385 . S
C254 C255 1.388 . S
C255 H234 0.939 . S
C255 C250 1.391 . S
C255 C254 1.388 . S
Eu256 C265 2.828 . S
Eu256 O267 2.392 . S
Eu256 O269 2.418 1_545 S
Eu256 O274 2.373 1_655 S
Eu256 O277 2.488 . S
Eu256 O278 2.471 . S
Eu256 O279 2.349 1_655 S
Eu257 O266 2.373 1_455 S
Eu257 O270 2.488 . S
Eu257 O271 2.471 . S
Eu257 O272 2.349 . S
Eu257 O275 2.392 1_565 S
Eu257 O276 2.418 1_565 S
Eu257 C286 2.828 . S
C258 O276 1.244 . S
C258 O279 1.265 . S
C259 C260 1.379 1_655 S
C259 C263 1.373 . S
C259 C265 1.505 . S
C260 C259 1.379 1_455 S
C260 C262 1.369 . S
C260 H288 0.930 . S
C261 C263 1.383 . S
C261 C264 1.382 . S
C261 H289 0.930 . S
C262 C260 1.369 . S
C262 C264 1.392 1_455 S
C262 H290 0.930 . S
C263 C259 1.373 . S
C263 C261 1.383 . S
C263 H291 0.931 . S
C264 C261 1.382 . S
C264 C262 1.392 1_655 S
C265 Eu256 2.828 . S
C265 C259 1.505 . S
C265 O277 1.249 . S
C265 O278 1.244 . S
O266 Eu257 2.373 1_655 S
O266 C268 1.262 . S
O267 Eu256 2.392 . S
O267 C268 1.234 1_545 S
C268 O266 1.262 . S
C268 O267 1.234 1_565 S
O269 Eu256 2.418 1_565 S
O269 C273 1.244 . S
O270 Eu257 2.488 . S
O270 C286 1.249 . S
O271 Eu257 2.471 . S
O271 C286 1.244 . S
O272 Eu257 2.349 . S
O272 C273 1.265 1_455 S
C273 O269 1.244 . S
C273 O272 1.265 1_655 S
O274 Eu256 2.373 1_455 S
O274 C287 1.258 . S
O275 Eu257 2.392 1_545 S
O275 C287 1.242 . S
O276 Eu257 2.418 1_545 S
O276 C258 1.244 . S
O277 Eu256 2.488 . S
O277 C265 1.249 . S
O278 Eu256 2.471 . S
O278 C265 1.244 . S
O279 Eu256 2.349 1_455 S
O279 C258 1.265 . S
C280 C281 1.379 . S
C280 C284 1.373 . S
C280 C286 1.505 . S
C281 C280 1.379 . S
C281 C283 1.369 . S
C281 H292 0.930 1_455 S
C282 C284 1.383 1_554 S
C282 C285 1.382 . S
C282 H293 0.930 . S
C283 C281 1.369 . S
C283 C285 1.392 1_556 S
C283 H294 0.930 1_455 S
C284 C280 1.373 . S
C284 C282 1.383 1_556 S
C284 H295 0.931 . S
C285 C282 1.382 . S
C285 C283 1.392 1_554 S
C286 Eu257 2.828 . S
C286 O270 1.249 . S
C286 O271 1.244 . S
C286 C280 1.505 . S
C287 O274 1.258 . S
C287 O275 1.242 . S
H288 C260 0.930 . S
H289 C261 0.930 . S
H290 C262 0.930 . S
H291 C263 0.931 . S
H292 C281 0.930 1_655 S
H293 C282 0.930 . S
H294 C283 0.930 1_655 S
H295 C284 0.931 . S
Eu296 C305 2.828 . S
Eu296 O307 2.392 . S
Eu296 O309 2.418 . S
Eu296 O314 2.373 . S
Eu296 O317 2.488 . S
Eu296 O318 2.471 . S
Eu296 O319 2.349 1_545 S
Eu297 O306 2.373 1_565 S
Eu297 O310 2.488 . S
Eu297 O311 2.471 1_565 S
Eu297 O312 2.349 1_565 S
Eu297 O315 2.392 . S
Eu297 O316 2.418 . S
Eu297 C326 2.828 . S
C298 O316 1.244 . S
C298 O319 1.265 . S
C299 C300 1.379 . S
C299 C303 1.373 . S
C299 C305 1.505 . S
C300 C299 1.379 . S
C300 C302 1.369 . S
C300 H328 0.930 1_545 S
C301 C303 1.383 . S
C301 C304 1.382 . S
C301 H329 0.930 . S
C302 C300 1.369 . S
C302 C304 1.392 . S
C302 H330 0.930 1_545 S
C303 C299 1.373 . S
C303 C301 1.383 . S
C303 H331 0.931 . S
C304 C301 1.382 . S
C304 C302 1.392 . S
C305 Eu296 2.828 . S
C305 C299 1.505 . S
C305 O317 1.249 . S
C305 O318 1.244 . S
O306 Eu297 2.373 1_545 S
O306 C308 1.258 . S
O307 Eu296 2.392 . S
O307 C308 1.242 . S
C308 O306 1.258 . S
C308 O307 1.242 . S
O309 Eu296 2.418 . S
O309 C313 1.244 . S
O310 Eu297 2.488 . S
O310 C326 1.249 . S
O311 Eu297 2.471 1_545 S
O311 C326 1.244 1_545 S
O312 Eu297 2.349 1_545 S
O312 C313 1.265 . S
C313 O309 1.244 . S
C313 O312 1.265 . S
O314 Eu296 2.373 . S
O314 C327 1.258 1_545 S
O315 Eu297 2.392 . S
O315 C327 1.242 . S
O316 Eu297 2.418 . S
O316 C298 1.244 . S
O317 Eu296 2.488 . S
O317 C305 1.249 . S
O318 Eu296 2.471 . S
O318 C305 1.244 . S
O319 Eu296 2.349 1_565 S
O319 C298 1.265 . S
C320 C321 1.379 1_565 S
C320 C324 1.373 . S
C320 C326 1.505 . S
C321 C320 1.379 1_545 S
C321 C323 1.369 . S
C321 H332 0.930 . S
C322 C324 1.383 . S
C322 C325 1.382 . S
C322 H333 0.930 . S
C323 C321 1.369 . S
C323 C325 1.392 1_545 S
C323 H334 0.930 . S
C324 C320 1.373 . S
C324 C322 1.383 . S
C324 H335 0.931 . S
C325 C322 1.382 . S
C325 C323 1.392 1_565 S
C326 Eu297 2.828 . S
C326 O310 1.249 . S
C326 O311 1.244 1_565 S
C326 C320 1.505 . S
C327 O314 1.258 1_565 S
C327 O315 1.242 . S
H328 C300 0.930 1_565 S
H329 C301 0.930 . S
H330 C302 0.930 1_565 S
H331 C303 0.931 . S
H332 C321 0.930 . S
H333 C322 0.930 . S
H334 C323 0.930 . S
H335 C324 0.931 . S
Eu336 C345 2.828 . S
Eu336 O347 2.392 . S
Eu336 O349 2.418 . S
Eu336 O354 2.373 . S
Eu336 O357 2.488 . S
Eu336 O358 2.471 . S
Eu336 O359 2.349 . S
Eu337 O346 2.373 . S
Eu337 O350 2.488 . S
Eu337 O351 2.471 . S
Eu337 O352 2.349 . S
Eu337 O355 2.392 . S
Eu337 O356 2.418 . S
Eu337 C366 2.828 . S
C338 O356 1.244 . S
C338 O359 1.265 . S
C339 C340 1.379 . S
C339 C343 1.373 . S
C339 C345 1.505 . S
C340 C339 1.379 . S
C340 C342 1.369 . S
C340 H368 0.930 . S
C341 C343 1.383 . S
C341 C344 1.382 . S
C341 H369 0.930 . S
C342 C340 1.369 . S
C342 C344 1.392 . S
C342 H370 0.930 . S
C343 C339 1.373 . S
C343 C341 1.383 . S
C343 H371 0.931 . S
C344 C341 1.382 . S
C344 C342 1.392 . S
C345 Eu336 2.828 . S
C345 C339 1.505 . S
C345 O357 1.249 . S
C345 O358 1.244 . S
O346 Eu337 2.373 . S
O346 C348 1.258 . S
O347 Eu336 2.392 . S
O347 C348 1.242 . S
C348 O346 1.258 . S
C348 O347 1.242 . S
O349 Eu336 2.418 . S
O349 C353 1.244 . S
O350 Eu337 2.488 . S
O350 C366 1.249 . S
O351 Eu337 2.471 . S
O351 C366 1.244 . S
O352 Eu337 2.349 . S
O352 C353 1.265 . S
C353 O349 1.244 . S
C353 O352 1.265 . S
O354 Eu336 2.373 . S
O354 C367 1.258 . S
O355 Eu337 2.392 . S
O355 C367 1.242 . S
O356 Eu337 2.418 . S
O356 C338 1.244 . S
O357 Eu336 2.488 . S
O357 C345 1.249 . S
O358 Eu336 2.471 . S
O358 C345 1.244 . S
O359 Eu336 2.349 . S
O359 C338 1.265 . S
C360 C361 1.379 . S
C360 C364 1.373 . S
C360 C366 1.505 . S
C361 C360 1.379 . S
C361 C363 1.369 . S
C361 H372 0.930 . S
C362 C364 1.383 . S
C362 C365 1.382 . S
C362 H373 0.930 . S
C363 C361 1.369 . S
C363 C365 1.392 . S
C363 H374 0.930 . S
C364 C360 1.373 . S
C364 C362 1.383 . S
C364 H375 0.931 . S
C365 C362 1.382 . S
C365 C363 1.392 . S
C366 Eu337 2.828 . S
C366 O350 1.249 . S
C366 O351 1.244 . S
C366 C360 1.505 . S
C367 O354 1.258 . S
C367 O355 1.242 . S
H368 C340 0.930 . S
H369 C341 0.930 . S
H370 C342 0.930 . S
H371 C343 0.931 . S
H372 C361 0.930 . S
H373 C362 0.930 . S
H374 C363 0.930 . S
H375 C364 0.931 . S
Eu376 C385 2.828 . S
Eu376 O387 2.392 . S
Eu376 O389 2.418 1_455 S
Eu376 O394 2.373 . S
Eu376 O397 2.488 . S
Eu376 O398 2.471 . S
Eu376 O399 2.349 . S
Eu377 O386 2.373 . S
Eu377 O390 2.488 . S
Eu377 O391 2.471 . S
Eu377 O392 2.349 . S
Eu377 O395 2.392 1_655 S
Eu377 O396 2.418 1_655 S
Eu377 C406 2.828 . S
C378 O396 1.244 . S
C378 O399 1.265 . S
C379 C380 1.379 . S
C379 C383 1.373 . S
C379 C385 1.505 . S
C380 C379 1.379 . S
C380 C382 1.369 . S
C380 H408 0.930 . S
C381 C383 1.383 . S
C381 C384 1.382 . S
C381 H409 0.930 . S
C382 C380 1.369 . S
C382 C384 1.392 . S
C382 H410 0.930 . S
C383 C379 1.373 . S
C383 C381 1.383 . S
C383 H411 0.931 . S
C384 C381 1.382 . S
C384 C382 1.392 . S
C385 Eu376 2.828 . S
C385 C379 1.505 . S
C385 O397 1.249 . S
C385 O398 1.244 . S
O386 Eu377 2.373 . S
O386 C388 1.258 . S
O387 Eu376 2.392 . S
O387 C388 1.242 1_455 S
C388 O386 1.258 . S
C388 O387 1.242 1_655 S
O389 Eu376 2.418 1_655 S
O389 C393 1.244 . S
O390 Eu377 2.488 . S
O390 C406 1.249 . S
O391 Eu377 2.471 . S
O391 C406 1.244 . S
O392 Eu377 2.349 . S
O392 C393 1.265 . S
C393 O389 1.244 . S
C393 O392 1.265 . S
O394 Eu376 2.373 . S
O394 C407 1.258 . S
O395 Eu377 2.392 1_455 S
O395 C407 1.242 . S
O396 Eu377 2.418 1_455 S
O396 C378 1.244 . S
O397 Eu376 2.488 . S
O397 C385 1.249 . S
O398 Eu376 2.471 . S
O398 C385 1.244 . S
O399 Eu376 2.349 . S
O399 C378 1.265 . S
C400 C401 1.379 . S
C400 C404 1.373 . S
C400 C406 1.505 . S
C401 C400 1.379 . S
C401 C403 1.369 . S
C401 H412 0.930 . S
C402 C404 1.383 1_554 S
C402 C405 1.382 . S
C402 H413 0.930 . S
C403 C401 1.369 . S
C403 C405 1.392 1_556 S
C403 H414 0.930 . S
C404 C400 1.373 . S
C404 C402 1.383 1_556 S
C404 H415 0.931 . S
C405 C402 1.382 . S
C405 C403 1.392 1_554 S
C406 Eu377 2.828 . S
C406 O390 1.249 . S
C406 O391 1.244 . S
C406 C400 1.505 . S
C407 O394 1.258 . S
C407 O395 1.242 . S
H408 C380 0.930 . S
H409 C381 0.930 . S
H410 C382 0.930 . S
H411 C383 0.931 . S
H412 C401 0.930 . S
H413 C402 0.930 . S
H414 C403 0.930 . S
H415 C404 0.931 . S
H416 C422 0.930 . S
H417 C425 0.930 . S
H418 C426 0.930 . S
H419 C427 0.930 . S
H420 C430 0.930 . S
H421 C431 0.930 . S
C422 H416 0.930 . S
C422 C423 1.355 . S
C422 C424 1.415 . S
C423 C422 1.355 . S
C423 C425 1.419 . S
C424 C422 1.415 . S
C424 C429 1.425 . S
C424 C431 1.409 . S
C425 H417 0.930 . S
C425 C423 1.419 . S
C425 C426 1.362 . S
C426 H418 0.930 . S
C426 C425 1.362 . S
C426 C429 1.409 . S
C427 H419 0.930 . S
C427 C428 1.355 . S
C427 C429 1.415 . S
C428 C427 1.355 . S
C428 C430 1.419 . S
C429 C424 1.425 . S
C429 C426 1.409 . S
C429 C427 1.415 . S
C430 H420 0.930 . S
C430 C428 1.419 . S
C430 C431 1.362 . S
C431 H421 0.930 . S
C431 C424 1.409 . S
C431 C430 1.362 . S
H432 C438 0.930 . S
H433 C441 0.930 . S
H434 C442 0.930 . S
H435 C443 0.930 . S
H436 C446 0.930 . S
H437 C447 0.930 . S
C438 H432 0.930 . S
C438 C439 1.355 . S
C438 C440 1.415 . S
C439 C438 1.355 . S
C439 C441 1.419 . S
C440 C438 1.415 . S
C440 C445 1.425 . S
C440 C447 1.409 . S
C441 H433 0.930 . S
C441 C439 1.419 . S
C441 C442 1.362 . S
C442 H434 0.930 . S
C442 C441 1.362 . S
C442 C445 1.409 . S
C443 H435 0.930 . S
C443 C444 1.355 . S
C443 C445 1.415 . S
C444 C443 1.355 . S
C444 C446 1.419 . S
C445 C440 1.425 . S
C445 C442 1.409 . S
C445 C443 1.415 . S
C446 H436 0.930 . S
C446 C444 1.419 . S
C446 C447 1.362 . S
C447 H437 0.930 . S
C447 C440 1.409 . S
C447 C446 1.362 . S
H448 C454 0.930 . S
H449 C457 0.930 . S
H450 C458 0.930 . S
H451 C459 0.930 . S
H452 C462 0.930 . S
H453 C463 0.930 . S
C454 H448 0.930 . S
C454 C455 1.355 . S
C454 C456 1.415 . S
C455 C454 1.355 . S
C455 C457 1.419 . S
C456 C454 1.415 . S
C456 C461 1.425 . S
C456 C463 1.409 . S
C457 H449 0.930 . S
C457 C455 1.419 . S
C457 C458 1.362 . S
C458 H450 0.930 . S
C458 C457 1.362 . S
C458 C461 1.409 . S
C459 H451 0.930 . S
C459 C460 1.355 . S
C459 C461 1.415 . S
C460 C459 1.355 . S
C460 C462 1.419 . S
C461 C456 1.425 . S
C461 C458 1.409 . S
C461 C459 1.415 . S
C462 H452 0.930 . S
C462 C460 1.419 . S
C462 C463 1.362 . S
C463 H453 0.930 . S
C463 C456 1.409 . S
C463 C462 1.362 . S
H464 C470 0.930 . S
H465 C473 0.930 . S
H466 C474 0.930 . S
H467 C475 0.930 . S
H468 C478 0.930 . S
H469 C479 0.930 . S
C470 H464 0.930 . S
C470 C471 1.355 . S
C470 C472 1.415 . S
C471 C470 1.355 . S
C471 C473 1.419 . S
C472 C470 1.415 . S
C472 C477 1.425 . S
C472 C479 1.409 . S
C473 H465 0.930 . S
C473 C471 1.419 . S
C473 C474 1.362 . S
C474 H466 0.930 . S
C474 C473 1.362 . S
C474 C477 1.409 . S
C475 H467 0.930 . S
C475 C476 1.355 . S
C475 C477 1.415 . S
C476 C475 1.355 . S
C476 C478 1.419 . S
C477 C472 1.425 . S
C477 C474 1.409 . S
C477 C475 1.415 . S
C478 H468 0.930 . S
C478 C476 1.419 . S
C478 C479 1.362 . S
C479 H469 0.930 . S
C479 C472 1.409 . S
C479 C478 1.362 . S
H480 C486 0.930 . S
H481 C489 0.930 . S
H482 C490 0.930 1_545 S
H483 C491 0.930 1_545 S
H484 C494 0.930 . S
H485 C495 0.930 . S
C486 H480 0.930 . S
C486 C487 1.355 . S
C486 C488 1.415 . S
C487 C486 1.355 . S
C487 C489 1.419 . S
C488 C486 1.415 . S
C488 C493 1.425 . S
C488 C495 1.409 1_554 S
C489 H481 0.930 . S
C489 C487 1.419 . S
C489 C490 1.362 . S
C490 H482 0.930 1_565 S
C490 C489 1.362 . S
C490 C493 1.409 . S
C491 H483 0.930 1_565 S
C491 C492 1.355 . S
C491 C493 1.415 1_556 S
C492 C491 1.355 . S
C492 C494 1.419 . S
C493 C488 1.425 . S
C493 C490 1.409 . S
C493 C491 1.415 1_554 S
C494 H484 0.930 . S
C494 C492 1.419 . S
C494 C495 1.362 . S
C495 H485 0.930 . S
C495 C488 1.409 1_556 S
C495 C494 1.362 . S
H496 C502 0.930 . S
H497 C505 0.930 . S
H498 C506 0.930 . S
H499 C507 0.930 . S
H500 C510 0.930 . S
H501 C511 0.930 . S
C502 H496 0.930 . S
C502 C503 1.355 . S
C502 C504 1.415 1_554 S
C503 C502 1.355 . S
C503 C505 1.419 . S
C504 C502 1.415 1_556 S
C504 C509 1.425 . S
C504 C511 1.409 . S
C505 H497 0.930 . S
C505 C503 1.419 . S
C505 C506 1.362 . S
C506 H498 0.930 . S
C506 C505 1.362 . S
C506 C509 1.409 1_554 S
C507 H499 0.930 . S
C507 C508 1.355 . S
C507 C509 1.415 . S
C508 C507 1.355 . S
C508 C510 1.419 . S
C509 C504 1.425 . S
C509 C506 1.409 1_556 S
C509 C507 1.415 . S
C510 H500 0.930 . S
C510 C508 1.419 . S
C510 C511 1.362 . S
C511 H501 0.930 . S
C511 C504 1.409 . S
C511 C510 1.362 . S
H512 C518 0.930 . S
H513 C521 0.930 . S
H514 C522 0.935 . S
H515 C523 0.930 . S
H516 C526 0.930 . S
H517 C527 0.930 . S
C518 H512 0.930 . S
C518 C519 1.355 . S
C518 C520 1.415 1_554 S
C519 C518 1.355 . S
C519 C521 1.419 . S
C520 C518 1.415 1_556 S
C520 C525 1.425 . S
C520 C527 1.409 . S
C521 H513 0.930 . S
C521 C519 1.419 . S
C521 C522 1.362 . S
C522 H514 0.935 . S
C522 C521 1.362 . S
C522 C525 1.409 1_554 S
C523 H515 0.930 . S
C523 C524 1.355 . S
C523 C525 1.415 . S
C524 C523 1.355 . S
C524 C526 1.419 . S
C525 C520 1.425 . S
C525 C522 1.409 1_556 S
C525 C523 1.415 . S
C526 H516 0.930 . S
C526 C524 1.419 . S
C526 C527 1.362 . S
C527 H517 0.930 . S
C527 C520 1.409 . S
C527 C526 1.362 . S
H528 C534 0.930 . S
H529 C537 0.930 . S
H530 C538 0.930 1_455 S
H531 C539 0.930 1_455 S
H532 C542 0.930 . S
H533 C543 0.930 1_554 S
C534 H528 0.930 . S
C534 C535 1.355 . S
C534 C536 1.415 . S
C535 C534 1.355 . S
C535 C537 1.419 . S
C536 C534 1.415 . S
C536 C541 1.425 1_554 S
C536 C543 1.409 1_554 S
C537 H529 0.930 . S
C537 C535 1.419 . S
C537 C538 1.362 . S
C538 H530 0.930 1_655 S
C538 C537 1.362 . S
C538 C541 1.409 1_554 S
C539 H531 0.930 1_655 S
C539 C540 1.355 . S
C539 C541 1.415 . S
C540 C539 1.355 . S
C540 C542 1.419 . S
C541 C536 1.425 1_556 S
C541 C538 1.409 1_556 S
C541 C539 1.415 . S
C542 H532 0.930 . S
C542 C540 1.419 . S
C542 C543 1.362 . S
C543 H533 0.930 1_556 S
C543 C536 1.409 1_556 S
C543 C542 1.362 . S
H544 C550 0.930 . S
H545 C553 0.930 . S
H546 C554 0.930 . S
H547 C555 0.930 . S
H548 C558 0.930 . S
H549 C559 0.930 1_655 S
C550 H544 0.930 . S
C550 C551 1.355 . S
C550 C552 1.415 . S
C551 C550 1.355 . S
C551 C553 1.419 . S
C552 C550 1.415 . S
C552 C557 1.425 . S
C552 C559 1.409 . S
C553 H545 0.930 . S
C553 C551 1.419 . S
C553 C554 1.362 . S
C554 H546 0.930 . S
C554 C553 1.362 . S
C554 C557 1.409 . S
C555 H547 0.930 . S
C555 C556 1.355 1_455 S
C555 C557 1.415 . S
C556 C555 1.355 1_655 S
C556 C558 1.419 . S
C557 C552 1.425 . S
C557 C554 1.409 . S
C557 C555 1.415 . S
C558 H548 0.930 . S
C558 C556 1.419 . S
C558 C559 1.362 1_655 S
C559 H549 0.930 1_455 S
C559 C552 1.409 . S
C559 C558 1.362 1_455 S
H560 C566 0.930 . S
H561 C569 0.930 . S
H562 C570 0.930 . S
H563 C571 0.930 . S
H564 C574 0.930 . S
H565 C575 0.930 . S
C566 H560 0.930 . S
C566 C567 1.355 . S
C566 C568 1.415 . S
C567 C566 1.355 . S
C567 C569 1.419 . S
C568 C566 1.415 . S
C568 C573 1.425 . S
C568 C575 1.409 1_545 S
C569 H561 0.930 . S
C569 C567 1.419 . S
C569 C570 1.362 . S
C570 H562 0.930 . S
C570 C569 1.362 . S
C570 C573 1.409 . S
C571 H563 0.930 . S
C571 C572 1.355 1_545 S
C571 C573 1.415 . S
C572 C571 1.355 1_565 S
C572 C574 1.419 . S
C573 C568 1.425 . S
C573 C570 1.409 . S
C573 C571 1.415 . S
C574 H564 0.930 . S
C574 C572 1.419 . S
C574 C575 1.362 . S
C575 H565 0.930 . S
C575 C568 1.409 1_565 S
C575 C574 1.362 . S
H576 C582 0.930 . S
H577 C585 0.930 . S
H578 C586 0.930 . S
H579 C587 0.930 . S
H580 C590 0.930 . S
H581 C591 0.930 . S
C582 H576 0.930 . S
C582 C583 1.355 . S
C582 C584 1.415 . S
C583 C582 1.355 . S
C583 C585 1.419 . S
C584 C582 1.415 . S
C584 C589 1.425 . S
C584 C591 1.409 . S
C585 H577 0.930 . S
C585 C583 1.419 . S
C585 C586 1.362 . S
C586 H578 0.930 . S
C586 C585 1.362 . S
C586 C589 1.409 . S
C587 H579 0.930 . S
C587 C588 1.355 . S
C587 C589 1.415 . S
C588 C587 1.355 . S
C588 C590 1.419 . S
C589 C584 1.425 . S
C589 C586 1.409 . S
C589 C587 1.415 . S
C590 H580 0.930 . S
C590 C588 1.419 . S
C590 C591 1.362 . S
C591 H581 0.930 . S
C591 C584 1.409 . S
C591 C590 1.362 . S
H592 C598 0.930 . S
H593 C601 0.930 . S
H594 C602 0.930 . S
H595 C603 0.930 . S
H596 C606 0.930 . S
H597 C607 0.930 . S
C598 H592 0.930 . S
C598 C599 1.355 . S
C598 C600 1.415 . S
C599 C598 1.355 . S
C599 C601 1.419 . S
C600 C598 1.415 . S
C600 C605 1.425 . S
C600 C607 1.409 . S
C601 H593 0.930 . S
C601 C599 1.419 . S
C601 C602 1.362 . S
C602 H594 0.930 . S
C602 C601 1.362 . S
C602 C605 1.409 . S
C603 H595 0.930 . S
C603 C604 1.355 . S
C603 C605 1.415 . S
C604 C603 1.355 . S
C604 C606 1.419 . S
C605 C600 1.425 . S
C605 C602 1.409 . S
C605 C603 1.415 . S
C606 H596 0.930 . S
C606 C604 1.419 . S
C606 C607 1.362 . S
C607 H597 0.930 . S
C607 C600 1.409 . S
C607 C606 1.362 . S
H608 C614 0.930 . S
H609 C617 0.930 . S
H610 C618 0.930 . S
H611 C619 0.930 . S
H612 C622 0.930 . S
H613 C623 0.930 . S
C614 H608 0.930 . S
C614 C615 1.355 . S
C614 C616 1.415 . S
C615 C614 1.355 . S
C615 C617 1.419 . S
C616 C614 1.415 . S
C616 C621 1.425 . S
C616 C623 1.409 1_655 S
C617 H609 0.930 . S
C617 C615 1.419 . S
C617 C618 1.362 . S
C618 H610 0.930 . S
C618 C617 1.362 . S
C618 C621 1.409 . S
C619 H611 0.930 . S
C619 C620 1.355 1_655 S
C619 C621 1.415 . S
C620 C619 1.355 1_455 S
C620 C622 1.419 . S
C621 C616 1.425 . S
C621 C618 1.409 . S
C621 C619 1.415 . S
C622 H612 0.930 . S
C622 C620 1.419 . S
C622 C623 1.362 . S
C623 H613 0.930 . S
C623 C616 1.409 1_455 S
C623 C622 1.362 . S
H624 C630 0.930 . S
H625 C633 0.930 . S
H626 C634 0.930 . S
H627 C635 0.930 . S
H628 C638 0.930 . S
H629 C639 0.930 . S
C630 H624 0.930 . S
C630 C631 1.355 . S
C630 C632 1.415 . S
C631 C630 1.355 . S
C631 C633 1.419 . S
C632 C630 1.415 . S
C632 C637 1.425 1_565 S
C632 C639 1.409 1_554 S
C633 H625 0.930 . S
C633 C631 1.419 . S
C633 C634 1.362 1_565 S
C634 H626 0.930 . S
C634 C633 1.362 1_545 S
C634 C637 1.409 . S
C635 H627 0.930 . S
C635 C636 1.355 1_554 S
C635 C637 1.415 . S
C636 C635 1.355 1_556 S
C636 C638 1.419 . S
C637 C632 1.425 1_545 S
C637 C634 1.409 . S
C637 C635 1.415 . S
C638 H628 0.930 . S
C638 C636 1.419 . S
C638 C639 1.362 1_545 S
C639 H629 0.930 . S
C639 C632 1.409 1_556 S
C639 C638 1.362 1_565 S
H640 C646 0.930 . S
H641 C649 0.930 . S
H642 C650 0.930 . S
H643 C651 0.930 . S
H644 C654 0.930 . S
H645 C655 0.930 . S
C646 H640 0.930 . S
C646 C647 1.355 . S
C646 C648 1.415 1_554 S
C647 C646 1.355 . S
C647 C649 1.419 . S
C648 C646 1.415 1_556 S
C648 C653 1.425 1_556 S
C648 C655 1.409 . S
C649 H641 0.930 . S
C649 C647 1.419 . S
C649 C650 1.362 . S
C650 H642 0.930 . S
C650 C649 1.362 . S
C650 C653 1.409 . S
C651 H643 0.930 . S
C651 C652 1.355 . S
C651 C653 1.415 1_556 S
C652 C651 1.355 . S
C652 C654 1.419 . S
C653 C648 1.425 1_554 S
C653 C650 1.409 . S
C653 C651 1.415 1_554 S
C654 H644 0.930 . S
C654 C652 1.419 . S
C654 C655 1.362 . S
C655 H645 0.930 . S
C655 C648 1.409 . S
C655 C654 1.362 . S
H656 C662 0.930 . S
H657 C665 0.930 . S
H658 C666 0.930 . S
H659 C667 0.930 . S
H660 C670 0.930 . S
H661 C671 0.930 . S
C662 H656 0.930 . S
C662 C663 1.355 . S
C662 C664 1.415 . S
C663 C662 1.355 . S
C663 C665 1.419 . S
C664 C662 1.415 . S
C664 C669 1.425 . S
C664 C671 1.409 . S
C665 H657 0.930 . S
C665 C663 1.419 . S
C665 C666 1.362 . S
C666 H658 0.930 . S
C666 C665 1.362 . S
C666 C669 1.409 . S
C667 H659 0.930 . S
C667 C668 1.355 . S
C667 C669 1.415 . S
C668 C667 1.355 . S
C668 C670 1.419 . S
C669 C664 1.425 . S
C669 C666 1.409 . S
C669 C667 1.415 . S
C670 H660 0.930 . S
C670 C668 1.419 . S
C670 C671 1.362 . S
C671 H661 0.930 . S
C671 C664 1.409 . S
C671 C670 1.362 . S
H672 C678 0.930 . S
H673 C681 0.930 . S
H674 C682 0.930 . S
H675 C683 0.930 . S
H676 C686 0.930 1_655 S
H677 C687 0.930 1_655 S
C678 H672 0.930 . S
C678 C679 1.355 . S
C678 C680 1.415 . S
C679 C678 1.355 . S
C679 C681 1.419 . S
C680 C678 1.415 . S
C680 C685 1.425 . S
C680 C687 1.409 . S
C681 H673 0.930 . S
C681 C679 1.419 . S
C681 C682 1.362 . S
C682 H674 0.930 . S
C682 C681 1.362 . S
C682 C685 1.409 . S
C683 H675 0.930 . S
C683 C684 1.355 . S
C683 C685 1.415 . S
C684 C683 1.355 . S
C684 C686 1.419 . S
C685 C680 1.425 . S
C685 C682 1.409 . S
C685 C683 1.415 . S
C686 H676 0.930 1_455 S
C686 C684 1.419 . S
C686 C687 1.362 . S
C687 H677 0.930 1_455 S
C687 C680 1.409 . S
C687 C686 1.362 . S
H688 C694 0.930 . S
H689 C697 0.930 . S
H690 C698 0.930 . S
H691 C699 0.930 . S
H692 C702 0.930 . S
H693 C703 0.930 . S
C694 H688 0.930 . S
C694 C695 1.355 . S
C694 C696 1.415 . S
C695 C694 1.355 . S
C695 C697 1.419 . S
C696 C694 1.415 . S
C696 C701 1.425 . S
C696 C703 1.409 . S
C697 H689 0.930 . S
C697 C695 1.419 . S
C697 C698 1.362 . S
C698 H690 0.930 . S
C698 C697 1.362 . S
C698 C701 1.409 . S
C699 H691 0.930 . S
C699 C700 1.355 . S
C699 C701 1.415 . S
C700 C699 1.355 . S
C700 C702 1.419 . S
C701 C696 1.425 . S
C701 C698 1.409 . S
C701 C699 1.415 . S
C702 H692 0.930 . S
C702 C700 1.419 . S
C702 C703 1.362 . S
C703 H693 0.930 . S
C703 C696 1.409 . S
C703 C702 1.362 . S
H704 C710 0.930 . S
H705 C713 0.930 . S
H706 C714 0.930 . S
H707 C715 0.930 . S
H708 C718 0.930 . S
H709 C719 0.930 . S
C710 H704 0.930 . S
C710 C711 1.355 . S
C710 C712 1.415 . S
C711 C710 1.355 . S
C711 C713 1.419 . S
C712 C710 1.415 . S
C712 C717 1.425 . S
C712 C719 1.409 . S
C713 H705 0.930 . S
C713 C711 1.419 . S
C713 C714 1.362 . S
C714 H706 0.930 . S
C714 C713 1.362 . S
C714 C717 1.409 . S
C715 H707 0.930 . S
C715 C716 1.355 . S
C715 C717 1.415 . S
C716 C715 1.355 . S
C716 C718 1.419 . S
C717 C712 1.425 . S
C717 C714 1.409 . S
C717 C715 1.415 . S
C718 H708 0.930 . S
C718 C716 1.419 . S
C718 C719 1.362 . S
C719 H709 0.930 . S
C719 C712 1.409 . S
C719 C718 1.362 . S
H720 C726 0.930 . S
H721 C729 0.930 . S
H722 C730 0.930 . S
H723 C731 0.930 . S
H724 C734 0.930 . S
H725 C735 0.930 . S
C726 H720 0.930 . S
C726 C727 1.355 . S
C726 C728 1.415 . S
C727 C726 1.355 . S
C727 C729 1.419 . S
C728 C726 1.415 . S
C728 C733 1.425 . S
C728 C735 1.409 . S
C729 H721 0.930 . S
C729 C727 1.419 . S
C729 C730 1.362 . S
C730 H722 0.930 . S
C730 C729 1.362 . S
C730 C733 1.409 . S
C731 H723 0.930 . S
C731 C732 1.355 . S
C731 C733 1.415 . S
C732 C731 1.355 . S
C732 C734 1.419 . S
C733 C728 1.425 . S
C733 C730 1.409 . S
C733 C731 1.415 . S
C734 H724 0.930 . S
C734 C732 1.419 . S
C734 C735 1.362 . S
C735 H725 0.930 . S
C735 C728 1.409 . S
C735 C734 1.362 . S
H736 C742 0.930 . S
H737 C745 0.930 . S
H738 C746 0.930 . S
H739 C747 0.930 . S
H740 C750 0.930 . S
H741 C751 0.930 . S
C742 H736 0.930 . S
C742 C743 1.355 . S
C742 C744 1.415 . S
C743 C742 1.355 . S
C743 C745 1.419 . S
C744 C742 1.415 . S
C744 C749 1.425 . S
C744 C751 1.409 . S
C745 H737 0.930 . S
C745 C743 1.419 . S
C745 C746 1.362 . S
C746 H738 0.930 . S
C746 C745 1.362 . S
C746 C749 1.409 . S
C747 H739 0.930 . S
C747 C748 1.355 . S
C747 C749 1.415 . S
C748 C747 1.355 . S
C748 C750 1.419 . S
C749 C744 1.425 . S
C749 C746 1.409 . S
C749 C747 1.415 . S
C750 H740 0.930 . S
C750 C748 1.419 . S
C750 C751 1.362 . S
C751 H741 0.930 . S
C751 C744 1.409 . S
C751 C750 1.362 . S
H752 C758 0.930 . S
H753 C761 0.930 . S
H754 C762 0.930 . S
H755 C763 0.930 1_545 S
H756 C766 0.930 . S
H757 C767 0.930 . S
C758 H752 0.930 . S
C758 C759 1.355 . S
C758 C760 1.415 . S
C759 C758 1.355 . S
C759 C761 1.419 1_565 S
C760 C758 1.415 . S
C760 C765 1.425 . S
C760 C767 1.409 . S
C761 H753 0.930 . S
C761 C759 1.419 1_545 S
C761 C762 1.362 . S
C762 H754 0.930 . S
C762 C761 1.362 . S
C762 C765 1.409 1_545 S
C763 H755 0.930 1_565 S
C763 C764 1.355 . S
C763 C765 1.415 . S
C764 C763 1.355 . S
C764 C766 1.419 . S
C765 C760 1.425 . S
C765 C762 1.409 1_565 S
C765 C763 1.415 . S
C766 H756 0.930 . S
C766 C764 1.419 . S
C766 C767 1.362 . S
C767 H757 0.930 . S
C767 C760 1.409 . S
C767 C766 1.362 . S
H768 C774 0.930 . S
H769 C777 0.930 . S
H770 C778 0.930 . S
H771 C779 0.930 . S
H772 C782 0.930 . S
H773 C783 0.930 . S
C774 H768 0.930 . S
C774 C775 1.355 . S
C774 C776 1.415 . S
C775 C774 1.355 . S
C775 C777 1.419 . S
C776 C774 1.415 . S
C776 C781 1.425 . S
C776 C783 1.409 . S
C777 H769 0.930 . S
C777 C775 1.419 . S
C777 C778 1.362 . S
C778 H770 0.930 . S
C778 C777 1.362 . S
C778 C781 1.409 . S
C779 H771 0.930 . S
C779 C780 1.355 . S
C779 C781 1.415 . S
C780 C779 1.355 . S
C780 C782 1.419 . S
C781 C776 1.425 . S
C781 C778 1.409 . S
C781 C779 1.415 . S
C782 H772 0.930 . S
C782 C780 1.419 . S
C782 C783 1.362 . S
C783 H773 0.930 . S
C783 C776 1.409 . S
C783 C782 1.362 . S
H784 C790 0.930 . S
H785 C793 0.930 . S
H786 C794 0.930 . S
H787 C795 0.930 . S
H788 C798 0.930 . S
H789 C799 0.930 . S
C790 H784 0.930 . S
C790 C791 1.355 . S
C790 C792 1.415 . S
C791 C790 1.355 . S
C791 C793 1.419 . S
C792 C790 1.415 . S
C792 C797 1.425 . S
C792 C799 1.409 . S
C793 H785 0.930 . S
C793 C791 1.419 . S
C793 C794 1.362 . S
C794 H786 0.930 . S
C794 C793 1.362 . S
C794 C797 1.409 . S
C795 H787 0.930 . S
C795 C796 1.355 . S
C795 C797 1.415 . S
C796 C795 1.355 . S
C796 C798 1.419 . S
C797 C792 1.425 . S
C797 C794 1.409 . S
C797 C795 1.415 . S
C798 H788 0.930 . S
C798 C796 1.419 . S
C798 C799 1.362 . S
C799 H789 0.930 . S
C799 C792 1.409 . S
C799 C798 1.362 . S
C423 C215 2.640 . S
C428 C287 2.795 . S
C444 C313 2.360 . S
C439 C247 2.116 . S
C460 C353 2.320 . S
C455 C151 2.126 . S
C476 C407 2.748 . S
C471 C183 2.616 . S
C492 C268 2.799 . S
C487 C87 2.567 . S
C503 C119 2.165 . S
C508 C298 2.337 . S
C519 C23 2.106 . S
C524 C338 2.315 . S
C535 C55 2.479 . S
C540 C388 2.722 . S
C556 C264 0.592 . S
C551 C189 0.534 . S
C572 C325 0.850 . S
C567 C221 0.805 . S
C588 C365 0.621 . S
C583 C253 0.476 . S
C599 C157 0.424 . S
C604 C384 0.532 . S
C615 C61 0.766 . S
C620 C285 0.612 . S
C636 C304 0.773 . S
C631 C93 0.707 . S
C652 C344 0.512 . S
C647 C125 0.472 . S
C663 C29 0.564 . S
C668 C405 0.498 . S
C679 C177 2.398 . S
C684 C258 2.722 . S
C695 C209 2.929 . S
C700 C308 3.206 . S
C716 C348 2.986 . S
C711 C241 2.648 . S
C732 C378 2.462 . S
C727 C145 2.143 . S
C743 C49 2.324 . S
C748 C273 2.714 . S
C764 C327 3.217 . S
C759 C81 2.870 . S
C780 C367 2.988 . S
C775 C113 2.723 . S
C791 C17 2.137 . S
C796 C393 2.462 . S
