# Generated by pormake.
# Topology llk, (3,12)-cn, num edge types: 1
# Building blocks:
#     Node 0, Type 0, BuildingBlock: PAMTOO_clean_linker_0, # of connection points: 3
#     Node 1, Type 0, BuildingBlock: PAMTOO_clean_linker_0, # of connection points: 3
#     Node 2, Type 0, BuildingBlock: PAMTOO_clean_linker_0, # of connection points: 3
#     Node 3, Type 0, BuildingBlock: PAMTOO_clean_linker_0, # of connection points: 3
#     Node 4, Type 0, BuildingBlock: PAMTOO_clean_linker_0, # of connection points: 3
#     Node 5, Type 0, BuildingBlock: PAMTOO_clean_linker_0, # of connection points: 3
#     Node 6, Type 0, BuildingBlock: PAMTOO_clean_linker_0, # of connection points: 3
#     Node 7, Type 0, BuildingBlock: PAMTOO_clean_linker_0, # of connection points: 3
#     Node 8, Type 0, BuildingBlock: PAMTOO_clean_linker_0, # of connection points: 3
#     Node 9, Type 0, BuildingBlock: PAMTOO_clean_linker_0, # of connection points: 3
#     Node 10, Type 0, BuildingBlock: PAMTOO_clean_linker_0, # of connection points: 3
#     Node 11, Type 0, BuildingBlock: PAMTOO_clean_linker_0, # of connection points: 3
#     Node 12, Type 0, BuildingBlock: PAMTOO_clean_linker_0, # of connection points: 3
#     Node 13, Type 0, BuildingBlock: PAMTOO_clean_linker_0, # of connection points: 3
#     Node 14, Type 0, BuildingBlock: PAMTOO_clean_linker_0, # of connection points: 3
#     Node 15, Type 0, BuildingBlock: PAMTOO_clean_linker_0, # of connection points: 3
#     Node 16, Type 0, BuildingBlock: PAMTOO_clean_linker_0, # of connection points: 3
#     Node 17, Type 0, BuildingBlock: PAMTOO_clean_linker_0, # of connection points: 3
#     Node 18, Type 0, BuildingBlock: PAMTOO_clean_linker_0, # of connection points: 3
#     Node 19, Type 0, BuildingBlock: PAMTOO_clean_linker_0, # of connection points: 3
#     Node 20, Type 0, BuildingBlock: PAMTOO_clean_linker_0, # of connection points: 3
#     Node 21, Type 0, BuildingBlock: PAMTOO_clean_linker_0, # of connection points: 3
#     Node 22, Type 0, BuildingBlock: PAMTOO_clean_linker_0, # of connection points: 3
#     Node 23, Type 0, BuildingBlock: PAMTOO_clean_linker_0, # of connection points: 3
#     Node 24, Type 1, BuildingBlock: QEWDON_clean_sbu_0, # of connection points: 12
#     Node 25, Type 1, BuildingBlock: QEWDON_clean_sbu_0, # of connection points: 12
#     Node 26, Type 1, BuildingBlock: QEWDON_clean_sbu_0, # of connection points: 12
#     Node 27, Type 1, BuildingBlock: QEWDON_clean_sbu_0, # of connection points: 12
#     Node 28, Type 1, BuildingBlock: QEWDON_clean_sbu_0, # of connection points: 12
#     Node 29, Type 1, BuildingBlock: QEWDON_clean_sbu_0, # of connection points: 12
#     Edge 30, Type (0, 1), BuildingBlock: XIVTED_clean_linker_0, # of connection points: 2
#     Edge 31, Type (0, 1), BuildingBlock: XIVTED_clean_linker_0, # of connection points: 2
#     Edge 32, Type (0, 1), BuildingBlock: XIVTED_clean_linker_0, # of connection points: 2
#     Edge 33, Type (0, 1), BuildingBlock: XIVTED_clean_linker_0, # of connection points: 2
#     Edge 34, Type (0, 1), BuildingBlock: XIVTED_clean_linker_0, # of connection points: 2
#     Edge 35, Type (0, 1), BuildingBlock: XIVTED_clean_linker_0, # of connection points: 2
#     Edge 36, Type (0, 1), BuildingBlock: XIVTED_clean_linker_0, # of connection points: 2
#     Edge 37, Type (0, 1), BuildingBlock: XIVTED_clean_linker_0, # of connection points: 2
#     Edge 38, Type (0, 1), BuildingBlock: XIVTED_clean_linker_0, # of connection points: 2
#     Edge 39, Type (0, 1), BuildingBlock: XIVTED_clean_linker_0, # of connection points: 2
#     Edge 40, Type (0, 1), BuildingBlock: XIVTED_clean_linker_0, # of connection points: 2
#     Edge 41, Type (0, 1), BuildingBlock: XIVTED_clean_linker_0, # of connection points: 2
#     Edge 42, Type (0, 1), BuildingBlock: XIVTED_clean_linker_0, # of connection points: 2
#     Edge 43, Type (0, 1), BuildingBlock: XIVTED_clean_linker_0, # of connection points: 2
#     Edge 44, Type (0, 1), BuildingBlock: XIVTED_clean_linker_0, # of connection points: 2
#     Edge 45, Type (0, 1), BuildingBlock: XIVTED_clean_linker_0, # of connection points: 2
#     Edge 46, Type (0, 1), BuildingBlock: XIVTED_clean_linker_0, # of connection points: 2
#     Edge 47, Type (0, 1), BuildingBlock: XIVTED_clean_linker_0, # of connection points: 2
#     Edge 48, Type (0, 1), BuildingBlock: XIVTED_clean_linker_0, # of connection points: 2
#     Edge 49, Type (0, 1), BuildingBlock: XIVTED_clean_linker_0, # of connection points: 2
#     Edge 50, Type (0, 1), BuildingBlock: XIVTED_clean_linker_0, # of connection points: 2
#     Edge 51, Type (0, 1), BuildingBlock: XIVTED_clean_linker_0, # of connection points: 2
#     Edge 52, Type (0, 1), BuildingBlock: XIVTED_clean_linker_0, # of connection points: 2
#     Edge 53, Type (0, 1), BuildingBlock: XIVTED_clean_linker_0, # of connection points: 2
#     Edge 54, Type (0, 1), BuildingBlock: XIVTED_clean_linker_0, # of connection points: 2
#     Edge 55, Type (0, 1), BuildingBlock: XIVTED_clean_linker_0, # of connection points: 2
#     Edge 56, Type (0, 1), BuildingBlock: XIVTED_clean_linker_0, # of connection points: 2
#     Edge 57, Type (0, 1), BuildingBlock: XIVTED_clean_linker_0, # of connection points: 2
#     Edge 58, Type (0, 1), BuildingBlock: XIVTED_clean_linker_0, # of connection points: 2
#     Edge 59, Type (0, 1), BuildingBlock: XIVTED_clean_linker_0, # of connection points: 2
#     Edge 60, Type (0, 1), BuildingBlock: XIVTED_clean_linker_0, # of connection points: 2
#     Edge 61, Type (0, 1), BuildingBlock: XIVTED_clean_linker_0, # of connection points: 2
#     Edge 62, Type (0, 1), BuildingBlock: XIVTED_clean_linker_0, # of connection points: 2
#     Edge 63, Type (0, 1), BuildingBlock: XIVTED_clean_linker_0, # of connection points: 2
#     Edge 64, Type (0, 1), BuildingBlock: XIVTED_clean_linker_0, # of connection points: 2
#     Edge 65, Type (0, 1), BuildingBlock: XIVTED_clean_linker_0, # of connection points: 2
#     Edge 66, Type (0, 1), BuildingBlock: XIVTED_clean_linker_0, # of connection points: 2
#     Edge 67, Type (0, 1), BuildingBlock: XIVTED_clean_linker_0, # of connection points: 2
#     Edge 68, Type (0, 1), BuildingBlock: XIVTED_clean_linker_0, # of connection points: 2
#     Edge 69, Type (0, 1), BuildingBlock: XIVTED_clean_linker_0, # of connection points: 2
#     Edge 70, Type (0, 1), BuildingBlock: XIVTED_clean_linker_0, # of connection points: 2
#     Edge 71, Type (0, 1), BuildingBlock: XIVTED_clean_linker_0, # of connection points: 2
#     Edge 72, Type (0, 1), BuildingBlock: XIVTED_clean_linker_0, # of connection points: 2
#     Edge 73, Type (0, 1), BuildingBlock: XIVTED_clean_linker_0, # of connection points: 2
#     Edge 74, Type (0, 1), BuildingBlock: XIVTED_clean_linker_0, # of connection points: 2
#     Edge 75, Type (0, 1), BuildingBlock: XIVTED_clean_linker_0, # of connection points: 2
#     Edge 76, Type (0, 1), BuildingBlock: XIVTED_clean_linker_0, # of connection points: 2
#     Edge 77, Type (0, 1), BuildingBlock: XIVTED_clean_linker_0, # of connection points: 2
#     Edge 78, Type (0, 1), BuildingBlock: XIVTED_clean_linker_0, # of connection points: 2
#     Edge 79, Type (0, 1), BuildingBlock: XIVTED_clean_linker_0, # of connection points: 2
#     Edge 80, Type (0, 1), BuildingBlock: XIVTED_clean_linker_0, # of connection points: 2
#     Edge 81, Type (0, 1), BuildingBlock: XIVTED_clean_linker_0, # of connection points: 2
#     Edge 82, Type (0, 1), BuildingBlock: XIVTED_clean_linker_0, # of connection points: 2
#     Edge 83, Type (0, 1), BuildingBlock: XIVTED_clean_linker_0, # of connection points: 2
#     Edge 84, Type (0, 1), BuildingBlock: XIVTED_clean_linker_0, # of connection points: 2
#     Edge 85, Type (0, 1), BuildingBlock: XIVTED_clean_linker_0, # of connection points: 2
#     Edge 86, Type (0, 1), BuildingBlock: XIVTED_clean_linker_0, # of connection points: 2
#     Edge 87, Type (0, 1), BuildingBlock: XIVTED_clean_linker_0, # of connection points: 2
#     Edge 88, Type (0, 1), BuildingBlock: XIVTED_clean_linker_0, # of connection points: 2
#     Edge 89, Type (0, 1), BuildingBlock: XIVTED_clean_linker_0, # of connection points: 2
#     Edge 90, Type (0, 1), BuildingBlock: XIVTED_clean_linker_0, # of connection points: 2
#     Edge 91, Type (0, 1), BuildingBlock: XIVTED_clean_linker_0, # of connection points: 2
#     Edge 92, Type (0, 1), BuildingBlock: XIVTED_clean_linker_0, # of connection points: 2
#     Edge 93, Type (0, 1), BuildingBlock: XIVTED_clean_linker_0, # of connection points: 2
#     Edge 94, Type (0, 1), BuildingBlock: XIVTED_clean_linker_0, # of connection points: 2
#     Edge 95, Type (0, 1), BuildingBlock: XIVTED_clean_linker_0, # of connection points: 2
#     Edge 96, Type (0, 1), BuildingBlock: XIVTED_clean_linker_0, # of connection points: 2
#     Edge 97, Type (0, 1), BuildingBlock: XIVTED_clean_linker_0, # of connection points: 2
#     Edge 98, Type (0, 1), BuildingBlock: XIVTED_clean_linker_0, # of connection points: 2
#     Edge 99, Type (0, 1), BuildingBlock: XIVTED_clean_linker_0, # of connection points: 2
#     Edge 100, Type (0, 1), BuildingBlock: XIVTED_clean_linker_0, # of connection points: 2
#     Edge 101, Type (0, 1), BuildingBlock: XIVTED_clean_linker_0, # of connection points: 2
# Relax obj value: 0.092
# Max RMSD: 0.173
# Mean RMSD: 0.130
data_MOF--net-llk--node1-QEWDON_clean_sbu_0--node2-PAMTOO_clean_linker_0--edge1-XIVTED_clean_linker_0
_symmetry_space_group_name_H-M    P1
_symmetry_Int_Tables_number       1
_symmetry_cell_setting            triclinic
loop_
_symmetry_equiv_pos_as_xyz
'x, y, z'
_cell_length_a     45.662977
_cell_length_b     48.802907
_cell_length_c     47.264727
_cell_angle_alpha  89.984641
_cell_angle_beta   89.991487
_cell_angle_gamma 89.636576
loop_
_atom_site_label
_atom_site_type_symbol
_atom_site_fract_x
_atom_site_fract_y
_atom_site_fract_z
_atom_type_partial_charge
H0 H 0.03929 0.34642 0.25316 0.0
H1 H 0.04504 0.27911 0.3118 0.0
H2 H 0.0363 0.26365 0.22252 0.0
H3 H 0.01158 0.21406 0.26035 0.0
C4 C 0.01767 0.2262 0.27932 0.0
O5 O 0.04263 0.24104 0.27329 0.0
H6 H -0.00125 0.24005 0.28395 0.0
C7 C 0.03976 0.32457 0.25738 0.0
C8 C 0.03699 0.30642 0.23465 0.0
C9 C 0.04189 0.3152 0.28536 0.0
C10 C 0.04365 0.28689 0.29037 0.0
C11 C 0.04195 0.26829 0.26778 0.0
C12 C 0.03855 0.27804 0.23982 0.0
H13 H 0.76245 0.04293 0.30345 0.0
H14 H 0.71136 0.03015 0.22858 0.0
H15 H 0.80541 0.03572 0.22292 0.0
H16 H 0.76315 0.05041 0.1571 0.0
C17 C 0.74853 0.05095 0.17586 0.0
O18 O 0.75673 0.0301 0.19403 0.0
H19 H 0.75117 0.07139 0.18607 0.0
C20 C 0.76114 0.04084 0.2806 0.0
C21 C 0.78685 0.04009 0.26468 0.0
C22 C 0.73396 0.03728 0.26785 0.0
C23 C 0.73241 0.0331 0.23861 0.0
C24 C 0.75817 0.03345 0.22229 0.0
C25 C 0.78551 0.03658 0.23538 0.0
H26 H 0.03691 0.76228 0.33303 0.0
H27 H 0.03211 0.71139 0.25932 0.0
H28 H 0.02662 0.79897 0.25048 0.0
H29 H 0.99254 0.76425 0.19892 0.0
C30 C 0.00033 0.74562 0.21024 0.0
O31 O 0.02677 0.75143 0.22321 0.0
H32 H 0.98317 0.74046 0.22611 0.0
C33 C 0.03586 0.76054 0.31017 0.0
C34 C 0.0327 0.78416 0.29341 0.0
C35 C 0.03555 0.73445 0.29804 0.0
C36 C 0.03271 0.73161 0.26874 0.0
C37 C 0.02956 0.75478 0.25155 0.0
C38 C 0.02929 0.78111 0.26386 0.0
H39 H 0.33692 0.99431 0.24701 0.0
H40 H 0.25069 0.98636 0.2823 0.0
H41 H 0.26126 0.9984 0.19282 0.0
H42 H 0.19476 0.02202 0.21803 0.0
C43 C 0.20762 0.01815 0.23759 0.0
O44 O 0.22319 0.99396 0.23436 0.0
H45 H 0.22245 0.03604 0.24023 0.0
C46 C 0.31337 0.99333 0.24423 0.0
C47 C 0.30137 0.99609 0.2171 0.0
C48 C 0.29526 0.99009 0.26787 0.0
C49 C 0.26485 0.98921 0.26419 0.0
C50 C 0.2526 0.99263 0.23727 0.0
C51 C 0.27085 0.99566 0.21361 0.0
H52 H 0.00303 0.68465 0.75946 0.0
H53 H 0.99018 0.75305 0.70337 0.0
H54 H 0.00652 0.76728 0.79154 0.0
H55 H 0.96476 0.81605 0.75221 0.0
C56 C 0.97376 0.80552 0.73326 0.0
O57 O -0.00171 0.79043 0.74105 0.0
H58 H 0.95633 0.79191 0.72479 0.0
C59 C 0.00125 0.70657 0.75605 0.0
C60 C 0.00568 0.72455 0.77886 0.0
C61 C -0.00462 0.71654 0.72883 0.0
C62 C -0.00577 0.7449 0.72435 0.0
C63 C -0.00222 0.7632 0.74676 0.0
C64 C 0.00307 0.75308 0.77427 0.0
H65 H 0.34444 0.0092 0.78147 0.0
H66 H 0.27517 0.01162 0.71982 0.0
H67 H 0.25531 0.99736 0.80755 0.0
H68 H 0.20496 0.97129 0.76158 0.0
C69 C 0.22096 0.97934 0.746 0.0
O70 O 0.23345 0.00278 0.7567 0.0
H71 H 0.23758 0.96289 0.74221 0.0
C72 C 0.32133 0.00835 0.77617 0.0
C73 C 0.30091 0.00335 0.79754 0.0
C74 C 0.31243 0.01119 0.74807 0.0
C75 C 0.28255 0.00947 0.7415 0.0
C76 C 0.26208 0.00447 0.76301 0.0
C77 C 0.27122 1.00124 0.79104 0.0
H78 H 0.00891 0.26989 0.68021 0.0
H79 H 0.02931 0.32159 0.75106 0.0
H80 H 0.01681 0.23541 0.76371 0.0
H81 H 0.00406 0.26862 0.82117 0.0
C82 C 0.00671 0.28723 0.80789 0.0
O83 O 0.0288 0.28238 0.78846 0.0
H84 H 0.9853 0.29099 0.7972 0.0
C85 C 0.01232 0.27259 0.70273 0.0
C86 C 0.01136 0.24965 0.72063 0.0
C87 C 0.01863 0.29871 0.71331 0.0
C88 C 0.02442 0.30166 0.74236 0.0
C89 C 0.02359 0.27898 0.76049 0.0
C90 C 0.01738 0.25289 0.74959 0.0
H91 H 0.78588 0.02484 0.71499 0.0
H92 H 0.72668 0.05108 0.78046 0.0
H93 H 0.81993 0.05593 0.79322 0.0
H94 H 0.78262 0.05912 0.85687 0.0
C95 C 0.76945 0.04821 0.84073 0.0
O96 O 0.76846 0.06397 0.81648 0.0
H97 H 0.78072 0.02824 0.83664 0.0
C98 C 0.78215 0.03207 0.73645 0.0
C99 C 0.80604 0.03911 0.75325 0.0
C100 C 0.75359 0.03654 0.74586 0.0
C101 C 0.74877 0.04711 0.77307 0.0
C102 C 0.7728 0.05339 0.79044 0.0
C103 C 0.80147 0.04992 0.78027 0.0
H104 H 0.24619 0.33891 0.01628 0.0
H105 H 0.29313 0.263 0.00572 0.0
H106 H 0.19987 0.26225 0.01831 0.0
H107 H 0.23753 0.19868 0.03429 0.0
C108 C 0.25437 0.21487 0.03226 0.0
O109 O 0.2468 0.23191 0.01006 0.0
H110 H 0.25467 0.22625 0.05272 0.0
C111 C 0.2462 0.31669 0.01534 0.0
C112 C 0.2198 0.30236 0.01817 0.0
C113 C 0.2726 0.30265 0.0108 0.0
C114 C 0.27277 0.27402 0.0092 0.0
C115 C 0.24657 0.2595 0.01213 0.0
C116 C 0.22008 0.27363 0.01643 0.0
H117 H 0.22339 0.70517 0.02522 0.0
H118 H 0.28169 0.77352 0.01688 0.0
H119 H 0.18917 0.78745 0.02754 0.0
H120 H 0.21968 0.83685 0.99372 0.0
C121 C 0.2406 0.8253 0.99594 0.0
O122 O 0.24027 0.81082 0.02099 0.0
H123 H 0.24251 0.81141 0.97728 0.0
C124 C 0.22694 0.72713 0.02445 0.0
C125 C 0.20314 0.74509 0.0275 0.0
C126 C 0.25523 0.7371 0.02036 0.0
C127 C 0.25983 0.76548 0.01974 0.0
C128 C 0.23592 0.78356 0.02208 0.0
C129 C 0.20754 0.77339 0.02577 0.0
H130 H 0.80587 0.34102 0.00234 0.0
H131 H 0.7485 0.27178 0.00909 0.0
H132 H 0.84042 0.25927 0.99343 0.0
H133 H 0.80342 0.21278 0.96642 0.0
C134 C 0.78308 0.22213 0.97514 0.0
O135 O 0.78954 0.23515 0.00028 0.0
H136 H 0.77468 0.23691 0.95901 0.0
C137 C 0.80261 0.31901 0.00267 0.0
C138 C 0.82637 0.30147 0.99745 0.0
C139 C 0.7745 0.30861 0.00694 0.0
C140 C 0.77024 0.28017 0.0064 0.0
C141 C 0.79403 0.26242 0.00174 0.0
C142 C 0.8222 0.27304 0.99754 0.0
H143 H 0.78057 0.69827 0.99037 0.0
H144 H 0.73339 0.77481 0.9871 0.0
H145 H 0.82761 0.7741 0.98608 0.0
H146 H 0.79643 0.83526 0.01125 0.0
C147 C 0.77824 0.8203 0.01044 0.0
O148 O 0.78067 0.80512 0.98587 0.0
H149 H 0.78021 0.80706 0.0296 0.0
C150 C 0.78042 0.72045 0.98853 0.0
C151 C 0.80702 0.73444 0.98734 0.0
C152 C 0.75375 0.73473 0.98867 0.0
C153 C 0.75381 0.76339 0.98655 0.0
C154 C 0.78051 0.77751 0.98571 0.0
C155 C 0.8071 0.76305 0.98598 0.0
H156 H 0.53267 0.84095 0.74375 0.0
H157 H 0.53428 0.77205 0.80085 0.0
H158 H 0.53702 0.75898 0.7109 0.0
H159 H 0.50943 0.70825 0.74305 0.0
C160 C 0.5135 0.71842 0.76371 0.0
O161 O 0.53777 0.73506 0.76095 0.0
H162 H 0.49367 0.7307 0.76926 0.0
C163 C 0.53299 0.81902 0.74751 0.0
C164 C 0.53425 0.80128 0.72426 0.0
C165 C 0.53282 0.80891 0.77534 0.0
C166 C 0.53447 0.78041 0.77962 0.0
C167 C 0.53575 0.76241 0.75645 0.0
C168 C 0.53564 0.77287 0.72874 0.0
H169 H 0.29178 0.53711 0.81428 0.0
H170 H 0.25299 0.52868 0.73191 0.0
H171 H 0.34668 0.53232 0.74051 0.0
H172 H 0.31978 0.54371 0.66978 0.0
C173 C 0.30071 0.54571 0.68421 0.0
O174 O 0.30305 0.52595 0.705 0.0
H175 H 0.30135 0.56668 0.69356 0.0
C176 C 0.29406 0.53603 0.79145 0.0
C177 C 0.32209 0.53566 0.77942 0.0
C178 C 0.26903 0.53366 0.77457 0.0
C179 C 0.27211 0.53147 0.74516 0.0
C180 C 0.3001 0.53123 0.73289 0.0
C181 C 0.32511 0.53365 0.74998 0.0
H182 H 0.47933 0.27052 0.8248 0.0
H183 H 0.48617 0.21465 0.75483 0.0
H184 H 0.49098 0.3016 0.7405 0.0
H185 H 0.46421 0.26781 0.68516 0.0
C186 C 0.46763 0.24878 0.69768 0.0
O187 O 0.49051 0.25276 0.71632 0.0
H188 H 0.44678 0.24464 0.70914 0.0
C189 C 0.48122 0.26689 0.80222 0.0
C190 C 0.48538 0.28923 0.78412 0.0
C191 C 0.48254 0.23992 0.79223 0.0
C192 C 0.48461 0.23535 0.763 0.0
C193 C 0.4866 0.25762 0.74425 0.0
C194 C 0.48735 0.28463 0.75482 0.0
H195 H 0.80942 0.50473 0.76215 0.0
H196 H 0.73165 0.4873 0.80973 0.0
H197 H 0.7274 0.49383 0.71892 0.0
H198 H 0.66532 0.51022 0.74697 0.0
C199 C 0.67787 0.50906 0.76708 0.0
O200 O 0.69677 0.48685 0.76554 0.0
H201 H 0.69009 0.52866 0.76935 0.0
C202 C 0.78612 0.50046 0.76277 0.0
C203 C 0.77009 0.49967 0.7376 0.0
C204 C 0.77251 0.49571 0.78871 0.0
C205 C 0.74246 0.4903 0.78958 0.0
C206 C 0.72611 0.48995 0.76444 0.0
C207 C 0.74003 0.49416 0.73832 0.0
H208 H 0.50068 0.19507 0.26715 0.0
H209 H 0.49581 0.26667 0.21443 0.0
H210 H 0.50465 0.2755 0.30449 0.0
H211 H 0.47339 0.33129 0.27052 0.0
C212 C 0.47731 0.31892 0.25116 0.0
O213 O 0.50103 0.30169 0.25573 0.0
H214 H 0.45713 0.30688 0.24685 0.0
C215 C 0.49969 0.2172 0.26506 0.0
C216 C 0.50311 0.23373 0.28909 0.0
C217 C 0.49687 0.22884 0.23817 0.0
C218 C 0.49692 0.25742 0.23526 0.0
C219 C 0.49895 0.27425 0.25917 0.0
C220 C 0.5018 0.26243 0.28619 0.0
H221 H 0.81418 0.50823 0.2775 0.0
H222 H 0.74576 0.51569 0.21592 0.0
H223 H 0.72428 0.51148 0.30463 0.0
H224 H 0.66898 0.4928 0.26849 0.0
C225 C 0.68475 0.49274 0.25059 0.0
O226 O 0.70254 0.51547 0.25326 0.0
H227 H 0.6977 0.47336 0.25182 0.0
C228 C 0.79102 0.5097 0.27247 0.0
C229 C 0.77031 0.50912 0.29424 0.0
C230 C 0.78225 0.51226 0.24432 0.0
C231 C 0.75239 0.51379 0.23776 0.0
C232 C 0.73139 0.51357 0.25952 0.0
C233 C 0.74044 0.51161 0.28784 0.0
H234 H 0.55706 0.76344 0.18648 0.0
H235 H 0.55567 0.81882 0.25745 0.0
H236 H 0.55434 0.73182 0.27132 0.0
H237 H 0.52663 0.76366 0.32282 0.0
C238 C 0.53029 0.78312 0.31118 0.0
O239 O 0.55599 0.78061 0.29582 0.0
H240 H 0.51122 0.78641 0.29681 0.0
C241 C 0.55694 0.767 0.20913 0.0
C242 C 0.55592 0.74445 0.22744 0.0
C243 C 0.5561 0.79397 0.21949 0.0
C244 C 0.55648 0.79824 0.24888 0.0
C245 C 0.55626 0.77593 0.26755 0.0
C246 C 0.55546 0.74899 0.25685 0.0
H247 H 0.29375 0.53886 0.19524 0.0
H248 H 0.24421 0.54897 0.27163 0.0
H249 H 0.33856 0.54443 0.275 0.0
H250 H 0.2969 0.53252 0.34356 0.0
C251 C 0.2851 0.52866 0.32343 0.0
O252 O 0.29055 0.55005 0.30507 0.0
H253 H 0.29369 0.509 0.31464 0.0
C254 C 0.2931 0.54108 0.2181 0.0
C255 C 0.3192 0.54117 0.23346 0.0
C256 C 0.26616 0.54385 0.23163 0.0
C257 C 0.26512 0.54675 0.26105 0.0
C258 C 0.29133 0.54685 0.27672 0.0
C259 C 0.31841 0.5442 0.2629 0.0
H260 H 0.76314 0.84686 0.49736 0.0
H261 H 0.8183 0.77549 0.48944 0.0
H262 H 0.72474 0.76666 0.49481 0.0
H263 H 0.75871 0.71376 0.5179 0.0
C264 C 0.78008 0.72274 0.51166 0.0
O265 O 0.77537 0.74042 0.48924 0.0
H266 H 0.78889 0.73387 0.53036 0.0
C267 C 0.76572 0.82477 0.49618 0.0
C268 C 0.74073 0.80825 0.49682 0.0
C269 C 0.79383 0.81328 0.49351 0.0
C270 C 0.79682 0.78469 0.49196 0.0
C271 C 0.77204 0.76784 0.49258 0.0
C272 C 0.74391 0.77963 0.49507 0.0
H273 H 0.76204 0.19587 0.4954 0.0
H274 H 0.81712 0.267 0.49851 0.0
H275 H 0.72329 0.27609 0.50132 0.0
H276 H 0.76205 0.33393 0.47624 0.0
C277 C 0.78 0.31868 0.4788 0.0
O278 O 0.77353 0.30203 0.50159 0.0
H279 H 0.78149 0.30662 0.4588 0.0
C280 C 0.76454 0.21793 0.49667 0.0
C281 C 0.7395 0.23451 0.49846 0.0
C282 C 0.79264 0.22928 0.49683 0.0
C283 C 0.79557 0.25781 0.49817 0.0
C284 C 0.77053 0.27464 0.49951 0.0
C285 C 0.74249 0.26302 0.49987 0.0
H286 H 0.26364 0.8464 0.51792 0.0
H287 H 0.21176 0.77391 0.52493 0.0
H288 H 0.30559 0.76706 0.51974 0.0
H289 H 0.27139 0.7109 0.49824 0.0
C290 C 0.25056 0.72161 0.50356 0.0
O291 O 0.25589 0.73961 0.52555 0.0
H292 H 0.24322 0.73274 0.4842 0.0
C293 C 0.26222 0.82425 0.51907 0.0
C294 C 0.28798 0.80839 0.51855 0.0
C295 C 0.2347 0.81193 0.52102 0.0
C296 C 0.23291 0.78337 0.52256 0.0
C297 C 0.25827 0.76709 0.52199 0.0
C298 C 0.28593 0.77959 0.5196 0.0
H299 H 0.26349 0.18758 0.51996 0.0
H300 H 0.20362 0.25593 0.51267 0.0
H301 H 0.2965 0.26886 0.508 0.0
H302 H 0.26194 0.31935 0.53724 0.0
C303 C 0.24087 0.3089 0.53281 0.0
O304 O 0.24448 0.29271 0.50902 0.0
H305 H 0.23513 0.29632 0.55167 0.0
C306 C 0.2592 0.20922 0.51665 0.0
C307 C 0.28305 0.22675 0.51301 0.0
C308 C 0.23026 0.21918 0.51622 0.0
C309 C 0.22562 0.24753 0.51317 0.0
C310 C 0.24943 0.26542 0.51071 0.0
C311 C 0.27818 0.25501 0.51019 0.0
Zn312 Zn 0.95693 0.98681 0.44727 0.0
Zn313 Zn 0.95714 0.05333 0.45207 0.0
O314 O 0.98332 0.01988 0.45039 0.0
H315 H 0.00303 0.01873 0.44309 0.0
C316 C 0.9411 0.96098 0.51023 0.0
O317 O 0.93115 0.9855 0.50368 0.0
Zn318 Zn 0.05213 0.0588 0.55661 0.0
Zn319 Zn 0.0488 0.99335 0.55796 0.0
O320 O 0.02469 0.02804 0.56323 0.0
H321 H 0.00882 0.02912 0.57673 0.0
Zn322 Zn 0.97641 0.99404 0.54859 0.0
O323 O 0.98373 0.03004 0.52662 0.0
Zn324 Zn 0.96665 0.05937 0.55198 0.0
H325 H -0.00381 0.03258 0.51034 0.0
Zn326 Zn 0.04909 0.98604 0.45801 0.0
O327 O 0.04549 0.02085 0.48098 0.0
H328 H 0.04661 0.02053 0.50137 0.0
Zn329 Zn 0.05279 0.05235 0.45423 0.0
C330 C 0.07921 0.95217 0.50033 0.0
O331 O 0.08447 0.97628 0.51152 0.0
O332 O 0.915 0.99841 0.43734 0.0
O333 O 0.91753 0.04389 0.43802 0.0
O334 O 0.09061 1.00171 0.57209 0.0
O335 O 0.09039 0.04739 0.57241 0.0
O336 O 0.95313 0.99933 0.58594 0.0
O337 O 0.93904 0.04241 0.57867 0.0
C338 C 0.00021 0.08566 0.42812 0.0
O339 O 0.07092 0.99289 0.42074 0.0
O340 O 0.07509 0.03852 0.41981 0.0
O341 O 0.03056 0.95831 0.5763 0.0
C342 C 0.90347 0.02191 0.43327 0.0
O343 O 0.97197 0.95645 0.41997 0.0
C344 C 0.01397 0.09427 0.58892 0.0
O345 O 0.9622 0.95895 0.52764 0.0
C346 C 0.10277 0.02454 0.5776 0.0
O347 O 0.06334 0.9508 0.47831 0.0
C348 C 0.9417 0.08484 0.50417 0.0
O349 O 0.97256 0.08437 0.42855 0.0
O350 O 0.01425 0.06766 0.44207 0.0
C351 C 0.93717 0.01997 0.59211 0.0
O352 O 0.04017 0.0894 0.58164 0.0
O353 O 0.99278 0.08235 0.57679 0.0
C354 C 0.0729 0.08371 0.50156 0.0
O355 O 0.94342 0.08651 0.53073 0.0
O356 O 0.95536 0.06564 0.49178 0.0
C357 C 0.0799 0.01485 0.40919 0.0
O358 O 0.07487 0.08152 0.47482 0.0
O359 O 0.05578 0.06789 0.51499 0.0
C360 C 0.02661 0.96095 0.60279 0.0
O361 O 0.03315 0.98451 0.61461 0.0
C362 C 0.99234 0.93946 0.42557 0.0
O363 O 0.00497 0.94023 0.45053 0.0
Zn364 Zn 0.47654 0.06613 0.03016 0.0
Zn365 Zn 0.47394 0.06942 0.96338 0.0
O366 O 0.48315 0.04387 0.99527 0.0
H367 H 0.49715 0.02899 0.9944 0.0
C368 C 0.5264 0.09933 0.0779 0.0
O369 O 0.50663 0.09733 0.05797 0.0
Zn370 Zn 0.55219 0.96563 0.96818 0.0
Zn371 Zn 0.54888 0.96465 0.03454 0.0
O372 O 0.54397 0.99065 0.0008 0.0
H373 H 0.54596 0.01032 0.00134 0.0
Zn374 Zn 0.56795 0.07293 0.0363 0.0
O375 O 0.54289 0.07122 0.0014 0.0
Zn376 Zn 0.57078 0.06648 0.9684 0.0
H377 H 0.52454 0.08115 0.00105 0.0
Zn378 Zn 0.47067 0.96488 0.03668 0.0
O379 O 0.49191 0.97108 -0.00035 0.0
H380 H 0.48372 0.96823 0.01823 0.0
Zn381 Zn 0.46306 0.9724 0.96858 0.0
C382 C 0.50558 0.94809 0.0887 0.0
O383 O 0.50469 0.9738 0.09689 0.0
O384 O 0.45081 0.10002 0.02323 0.0
O385 O 0.44786 0.10111 0.9763 0.0
O386 O 0.57717 0.9327 0.02551 0.0
O387 O 0.58402 0.93988 0.97964 0.0
O388 O 0.60845 0.08648 0.02586 0.0
O389 O 0.61213 0.07833 0.97958 0.0
C390 C 0.44842 0.02356 0.93691 0.0
O391 O 0.42918 0.95016 0.02897 0.0
O392 O 0.42626 0.95383 0.98193 0.0
O393 O 0.56337 0.98213 0.07169 0.0
C394 C 0.44077 0.11055 0.00058 0.0
O395 O 0.46443 0.04566 0.06607 0.0
C396 C 0.57799 0.01086 0.93653 0.0
O397 O 0.5522 0.09055 0.07339 0.0
C398 C 0.59067 0.92765 0.00252 0.0
O399 O 0.49342 0.94116 0.06563 0.0
C400 C 0.52978 0.09525 0.93475 0.0
O401 O 0.45232 0.04907 0.93363 0.0
O402 O 0.45908 0.01186 0.95852 0.0
C403 C 0.62287 0.08701 0.00286 0.0
O404 O 0.56977 0.98601 0.93589 0.0
O405 O 0.56689 0.02695 0.95491 0.0
C406 C 0.50384 0.94252 0.93433 0.0
O407 O 0.55723 0.09276 0.93805 0.0
O408 O 0.51343 0.08021 0.94969 0.0
C409 C 0.41559 0.94677 0.00574 0.0
O410 O 0.47836 0.95304 0.93414 0.0
O411 O 0.51766 0.9419 0.95763 0.0
C412 C 0.56549 0.00783 0.07496 0.0
O413 O 0.5549 0.02425 0.05544 0.0
C414 C 0.44705 0.02565 0.06342 0.0
O415 O 0.44063 0.01687 0.0379 0.0
Zn416 Zn 0.97757 0.49092 0.96196 0.0
Zn417 Zn 0.9668 0.55636 0.96358 0.0
O418 O -0.00181 0.52749 0.96538 0.0
H419 H 0.01394 0.52948 0.97877 0.0
C420 C 0.95875 0.44936 0.0184 0.0
O421 O 0.94742 0.47222 0.00845 0.0
Zn422 Zn 0.07484 0.55701 0.04658 0.0
Zn423 Zn 0.07045 0.49026 0.0568 0.0
O424 O 0.04731 0.52447 0.04486 0.0
H425 H 0.03244 0.5236 0.0304 0.0
Zn426 Zn 0.98091 0.48775 0.06027 0.0
O427 O 0.97849 0.52153 0.03586 0.0
Zn428 Zn 0.97586 0.55282 0.06331 0.0
H429 H 0.97278 0.52082 0.01623 0.0
Zn430 Zn 0.0648 0.4939 0.94558 0.0
O431 O 0.0665 0.52658 0.97144 0.0
H432 H 0.07307 0.52489 0.99074 0.0
Zn433 Zn 0.06563 0.55947 0.94567 0.0
C434 C 0.08357 0.45299 0.98825 0.0
O435 O 0.08732 0.47512 0.00357 0.0
O436 O 0.93639 0.49533 0.94532 0.0
O437 O 0.92994 0.54057 0.94643 0.0
O438 O 0.10942 0.50079 0.07463 0.0
O439 O 0.11307 0.54535 0.06498 0.0
O440 O 0.95709 0.49408 0.09657 0.0
O441 O 0.95651 0.53969 0.09927 0.0
C442 C 0.00616 0.59015 0.93236 0.0
O443 O 0.08655 0.50379 0.90889 0.0
O444 O 0.08675 0.54957 0.90911 0.0
O445 O 0.05282 0.45316 0.07199 0.0
C446 C 0.92098 0.51658 0.94018 0.0
O447 O -0.00035 0.45638 0.9471 0.0
C448 C 0.03183 0.58703 0.07787 0.0
O449 O 0.97475 0.45034 0.04037 0.0
C450 C 0.12326 0.52332 0.07591 0.0
O451 O 0.07374 0.45541 0.96317 0.0
C452 C 0.94785 0.58469 0.02008 0.0
O453 O 0.97942 0.58804 0.93925 0.0
O454 O 0.02356 0.57135 0.94083 0.0
C455 C 0.94951 0.51619 0.109 0.0
O456 O 0.05869 0.58742 0.07117 0.0
O457 O 0.01645 0.56755 0.06818 0.0
C458 C 0.0852 0.59226 0.99219 0.0
O459 O 0.95074 0.5823 0.04669 0.0
O460 O 0.96153 0.56804 0.00416 0.0
C461 C 0.0937 0.52662 0.89776 0.0
O462 O 0.08381 0.5913 0.96533 0.0
O463 O 0.07953 0.5707 0.00624 0.0
C464 C 0.0343 0.452 0.09208 0.0
O465 O 0.02349 0.47497 0.10229 0.0
C466 C 0.01189 0.45771 0.923 0.0
O467 O 0.01264 0.48147 0.90993 0.0
Zn468 Zn 0.47737 0.47637 0.98006 0.0
Zn469 Zn 0.47349 0.47329 0.04802 0.0
O470 O 0.48883 0.49599 0.01605 0.0
H471 H 0.48833 0.51571 0.01536 0.0
C472 C 0.51691 0.43945 0.92228 0.0
O473 O 0.51297 0.46582 0.91803 0.0
Zn474 Zn 0.55406 0.56689 0.04967 0.0
Zn475 Zn 0.54141 0.5691 0.98301 0.0
O476 O 0.53587 0.54589 0.01792 0.0
H477 H 0.53594 0.52627 0.01591 0.0
Zn478 Zn 0.55113 0.45452 0.97561 0.0
O479 O 0.53017 0.45663 0.01349 0.0
Zn480 Zn 0.56096 0.46364 0.04284 0.0
H481 H 0.51256 0.44626 0.01687 0.0
Zn482 Zn 0.46792 0.57865 0.98195 0.0
O483 O 0.49381 0.58527 0.01672 0.0
H484 H 0.51006 0.59784 0.01742 0.0
Zn485 Zn 0.46627 0.57755 0.0487 0.0
C486 C 0.50414 0.60536 0.93828 0.0
O487 O 0.51608 0.61613 0.96093 0.0
O488 O 0.44858 0.44429 0.98644 0.0
O489 O 0.44593 0.44436 0.03343 0.0
O490 O 0.57048 0.60069 0.98903 0.0
O491 O 0.58179 0.5954 0.0345 0.0
O492 O 0.59465 0.44433 0.98208 0.0
O493 O 0.59987 0.4497 0.02863 0.0
C494 C 0.45064 0.52358 0.07414 0.0
O495 O 0.4257 0.59173 0.99036 0.0
O496 O 0.42657 0.5918 0.03747 0.0
O497 O 0.54709 0.54883 0.94502 0.0
C498 C 0.43825 0.43478 0.00946 0.0
O499 O 0.46761 0.50095 0.94558 0.0
C500 C 0.57626 0.51522 0.0727 0.0
O501 O 0.53103 0.43133 0.94398 0.0
C502 C 0.58524 0.60742 0.01077 0.0
O503 O 0.48356 0.58818 0.94136 0.0
C504 C 0.52432 0.44196 0.08601 0.0
O505 O 0.45116 0.49755 0.07417 0.0
O506 O 0.46527 0.53684 0.05592 0.0
C507 C 0.61017 0.44295 0.0045 0.0
O508 O 0.57576 0.54114 0.0751 0.0
O509 O 0.56328 0.50379 0.05212 0.0
C510 C 0.50586 0.59907 0.08964 0.0
O511 O 0.55082 0.44315 0.07802 0.0
O512 O 0.50476 0.45405 0.07134 0.0
C513 C 0.41344 0.59649 0.01412 0.0
O514 O 0.47883 0.598 0.08358 0.0
O515 O 0.52395 0.58642 0.0738 0.0
C516 C 0.56151 0.52651 0.94377 0.0
O517 O 0.57075 0.51511 0.96735 0.0
C518 C 0.44524 0.51636 0.94787 0.0
O519 O 0.43131 0.51725 0.9722 0.0
Zn520 Zn 0.972 0.48637 0.46766 0.0
Zn521 Zn 0.95975 0.55161 0.46763 0.0
O522 O 0.9913 0.52334 0.47172 0.0
H523 H 0.00951 0.5261 0.48155 0.0
C524 C 0.93916 0.44966 0.52013 0.0
O525 O 0.93326 0.47363 0.50888 0.0
Zn526 Zn 0.06513 0.55913 0.54606 0.0
Zn527 Zn 0.06478 0.49277 0.5467 0.0
O528 O 0.03965 0.52635 0.5402 0.0
H529 H 0.02158 0.52627 0.52964 0.0
Zn530 Zn 0.9684 0.48534 0.56012 0.0
O531 O 0.96429 0.51919 0.5356 0.0
Zn532 Zn 0.96273 0.55121 0.56226 0.0
H533 H 0.95858 0.5185 0.51599 0.0
Zn534 Zn 0.06175 0.49297 0.45683 0.0
O535 O 0.06464 0.52791 0.4796 0.0
H536 H 0.07587 0.52762 0.49688 0.0
Zn537 Zn 0.06203 0.55921 0.45181 0.0
C538 C 0.09647 0.45936 0.4955 0.0
O539 O 0.1049 0.48387 0.50336 0.0
O540 O 0.93076 0.49002 0.45002 0.0
O541 O 0.92327 0.53513 0.45098 0.0
O542 O 0.10458 0.50228 0.56525 0.0
O543 O 0.10357 0.54792 0.56362 0.0
O544 O 0.94675 0.49313 0.59712 0.0
O545 O 0.94375 0.53868 0.59838 0.0
C546 C 0.00049 0.58509 0.43735 0.0
O547 O 0.08105 0.50013 0.41842 0.0
O548 O 0.08118 0.54577 0.41559 0.0
O549 O 0.04439 0.45841 0.5628 0.0
C550 C 0.91474 0.51095 0.44509 0.0
O551 O -0.0026 0.45475 0.45151 0.0
C552 C 0.01758 0.58348 0.57599 0.0
O553 O 0.95507 0.44855 0.54216 0.0
C554 C 0.11631 0.52544 0.57015 0.0
O555 O 0.07713 0.45725 0.47628 0.0
C556 C 0.93545 0.5827 0.51987 0.0
O557 O 0.97354 0.58161 0.4428 0.0
O558 O 0.01895 0.56854 0.44824 0.0
C559 C 0.93795 0.51521 0.6088 0.0
O560 O 0.0447 0.58633 0.57096 0.0
O561 O 0.00436 0.56322 0.56537 0.0
C562 C 0.08711 0.59201 0.49405 0.0
O563 O 0.93697 0.5816 0.54659 0.0
O564 O 0.9516 0.56632 0.50603 0.0
C565 C 0.08784 0.52217 0.40559 0.0
O566 O 0.08556 0.59119 0.46727 0.0
O567 O 0.0716 0.57518 0.50778 0.0
C568 C 0.03265 0.46244 0.58677 0.0
O569 O 0.03246 0.48737 0.59727 0.0
C570 C 0.01076 0.46112 0.42893 0.0
O571 O 0.00886 0.48651 0.41981 0.0
Zn572 Zn 0.47268 0.99187 0.46272 0.0
Zn573 Zn 0.45843 0.05818 0.46065 0.0
O574 O 0.49154 0.02947 0.45964 0.0
H575 H 0.50933 0.03057 0.44865 0.0
C576 C 0.45413 0.94115 0.51134 0.0
O577 O 0.48096 0.93386 0.50457 0.0
Zn578 Zn 0.57936 0.05897 0.55632 0.0
Zn579 Zn 0.57862 0.99208 0.55446 0.0
O580 O 0.55267 0.02568 0.55881 0.0
H581 H 0.53394 0.02436 0.56821 0.0
Zn582 Zn 0.47937 0.99218 0.54016 0.0
O583 O 0.485 0.03025 0.5227 0.0
Zn584 Zn 0.48268 0.05822 0.55411 0.0
H585 H 0.48267 0.01148 0.52868 0.0
Zn586 Zn 0.56293 1.00012 0.47555 0.0
O587 O 0.54654 0.03584 0.49185 0.0
H588 H 0.53649 0.03831 0.50958 0.0
Zn589 Zn 0.55253 0.06535 0.46239 0.0
C590 C 0.60432 0.96439 0.49936 0.0
O591 O 0.61885 0.98631 0.49163 0.0
O592 O 0.43149 0.99602 0.44663 0.0
O593 O 0.42194 0.04083 0.44401 0.0
O594 O 0.61966 0.00226 0.56858 0.0
O595 O 0.61924 0.04794 0.5705 0.0
O596 O 0.46887 0.99549 0.58238 0.0
O597 O 0.46703 0.04063 0.58884 0.0
C598 C 0.49619 0.09685 0.43749 0.0
O599 O 0.58674 0.00649 0.4391 0.0
O600 O 0.57627 0.0504 0.4306 0.0
O601 O 0.56554 0.9554 0.57349 0.0
C602 C 0.41489 0.0159 0.43946 0.0
O603 O 0.49145 0.95606 0.44509 0.0
C604 C 0.53545 0.09184 0.57737 0.0
O605 O 0.44959 0.96412 0.52339 0.0
C606 C 0.63193 0.02488 0.57474 0.0
O607 O 0.57653 0.96527 0.49827 0.0
C608 C 0.44423 0.08965 0.51932 0.0
O609 O 0.46916 0.09112 0.4377 0.0
O610 O 0.51365 0.08011 0.44938 0.0
C611 C 0.46335 0.01631 0.59775 0.0
O612 O 0.56311 0.0902 0.57902 0.0
O613 O 0.52228 0.073 0.56395 0.0
C614 C 0.58748 0.09336 0.50148 0.0
O615 O 0.45451 0.08754 0.54415 0.0
O616 O 0.45427 0.07346 0.50043 0.0
C617 C 0.58924 0.02808 0.42424 0.0
O618 O 0.57768 0.09509 0.47654 0.0
O619 O 0.57811 0.07411 0.51708 0.0
C620 C 0.54207 0.94144 0.57327 0.0
O621 O 0.51958 0.94981 0.55819 0.0
C622 C 0.51722 0.94902 0.43759 0.0
O623 O 0.53899 0.96603 0.44135 0.0
H624 H 0.17616 0.22674 0.54195 0.0
H625 H 0.12898 0.07194 0.51392 0.0
H626 H 0.22712 0.16689 0.49544 0.0
H627 H 0.06439 0.13644 0.51876 0.0
H628 H 0.16745 0.10554 0.5228 0.0
H629 H 0.13646 0.19316 0.54578 0.0
C630 C 0.17913 0.20669 0.53257 0.0
C631 C 0.20538 0.19967 0.51861 0.0
C632 C 0.1448 0.11227 0.52263 0.0
C633 C 0.16055 0.16109 0.52396 0.0
C634 C 0.12292 0.09308 0.51796 0.0
C635 C 0.09371 0.10158 0.51595 0.0
C636 C 0.13736 0.14014 0.52503 0.0
C637 C 0.0868 0.12924 0.52059 0.0
C638 C 0.15656 0.18752 0.53504 0.0
C639 C 0.20788 0.17317 0.50718 0.0
N640 N 0.10859 0.14776 0.52463 0.0
N641 N 0.18592 0.15491 0.51028 0.0
H642 H 0.84181 0.23159 0.46292 0.0
H643 H 0.88392 0.07845 0.50322 0.0
H644 H 0.80155 0.18435 0.5294 0.0
H645 H 0.95226 0.13343 0.47733 0.0
H646 H 0.84847 0.1158 0.49945 0.0
H647 H 0.8797 0.19548 0.45808 0.0
C648 C 0.84121 0.21387 0.47671 0.0
C649 C 0.81831 0.21061 0.49625 0.0
C650 C 0.87106 0.11958 0.49375 0.0
C651 C 0.86052 0.16944 0.49024 0.0
C652 C 0.89112 0.09814 0.49531 0.0
C653 C 0.92075 0.1029 0.49004 0.0
C654 C 0.88072 0.14597 0.48681 0.0
C655 C 0.92936 0.12902 0.48097 0.0
C656 C 0.86259 0.1933 0.47378 0.0
C657 C 0.81842 0.18733 0.5136 0.0
N658 N 0.90937 0.14987 0.47986 0.0
N659 N 0.83892 0.16753 0.50994 0.0
H660 H 0.84662 0.80893 0.52119 0.0
H661 H 0.89718 0.95763 0.47112 0.0
H662 H 0.79976 0.85905 0.46093 0.0
H663 H 0.94673 0.90823 0.53006 0.0
H664 H 0.86501 0.91891 0.46252 0.0
H665 H 0.8868 0.84215 0.52057 0.0
C666 C 0.84498 0.82674 0.50757 0.0
C667 C 0.81965 0.8315 0.49144 0.0
C668 C 0.8831 0.91637 0.47712 0.0
C669 C 0.86532 0.86953 0.49066 0.0
C670 C 0.90159 0.93851 0.48195 0.0
C671 C 0.92456 0.93633 0.50154 0.0
C672 C 0.88728 0.89186 0.49224 0.0
C673 C 0.9292 0.91092 0.51488 0.0
C674 C 0.86784 0.84572 0.50728 0.0
C675 C 0.81861 0.85489 0.47419 0.0
N676 N 0.91046 0.88979 0.5103 0.0
N677 N 0.84096 0.87309 0.47442 0.0
H678 H 0.18496 0.80668 0.48936 0.0
H679 H 0.11667 0.94774 0.54542 0.0
H680 H 0.22374 0.85607 0.55487 0.0
H681 H 0.08062 0.90123 0.47609 0.0
H682 H 0.15112 0.9103 0.55466 0.0
H683 H 0.14234 0.83744 0.48899 0.0
C684 C 0.18426 0.82383 0.50391 0.0
C685 C 0.20791 0.8291 0.52197 0.0
C686 C 0.13546 0.90816 0.53762 0.0
C687 C 0.15941 0.86427 0.52176 0.0
C688 C 0.11571 0.92951 0.53238 0.0
C689 C 0.09613 0.92786 0.50958 0.0
C690 C 0.13572 0.88509 0.51982 0.0
C691 C 0.0956 0.90357 0.49366 0.0
C692 C 0.16001 0.84139 0.50368 0.0
C693 C 0.2061 0.85162 0.54031 0.0
N694 N 0.11542 0.88331 0.49882 0.0
N695 N 0.18233 0.86846 0.53964 0.0
H696 H 0.53652 0.23008 0.19571 0.0
H697 H 0.47298 0.1107 0.10204 0.0
H698 H 0.46062 0.18619 0.22487 0.0
H699 H 0.56569 0.1246 0.11206 0.0
H700 H 0.46356 0.14202 0.14194 0.0
H701 H 0.54267 0.19648 0.15773 0.0
C702 C 0.52084 0.21363 0.19369 0.0
C703 C 0.49798 0.21085 0.21316 0.0
C704 C 0.4859 0.13794 0.13539 0.0
C705 C 0.50495 0.17241 0.17016 0.0
C706 C 0.49129 0.1202 0.11272 0.0
C707 C 0.52014 0.11535 0.10362 0.0
C708 C 0.5095 0.15132 0.14829 0.0
C709 C 0.54313 0.12786 0.1183 0.0
C710 C 0.52453 0.19434 0.17232 0.0
C711 C 0.47847 0.18892 0.21007 0.0
N712 N 0.53727 0.14562 0.13962 0.0
N713 N 0.4823 0.17046 0.18879 0.0
H714 H 0.79452 0.47477 0.20316 0.0
H715 H 0.93266 0.55733 0.14492 0.0
H716 H 0.82192 0.55252 0.23682 0.0
H717 H 0.91687 0.4722 0.1255 0.0
H718 H 0.89107 0.55678 0.17735 0.0
H719 H 0.8372 0.47483 0.17144 0.0
C720 C 0.80931 0.49204 0.2034 0.0
C721 C 0.8049 0.51374 0.22229 0.0
C722 C 0.89688 0.53815 0.16618 0.0
C723 C 0.8536 0.51386 0.1868 0.0
C724 C 0.92072 0.53842 0.14778 0.0
C725 C 0.92818 0.51483 0.13238 0.0
C726 C 0.88019 0.51423 0.16895 0.0
C727 C 0.91194 0.49087 0.13696 0.0
C728 C 0.83375 0.49196 0.18563 0.0
C729 C 0.82473 0.5355 0.22235 0.0
N730 N 0.88848 0.49128 0.1546 0.0
N731 N 0.84826 0.53503 0.20485 0.0
H732 H 0.52163 0.79509 0.17247 0.0
H733 H 0.53535 0.95363 0.13927 0.0
H734 H 0.57994 0.84606 0.22118 0.0
H735 H 0.50491 0.89313 0.07962 0.0
H736 H 0.55147 0.91628 0.17077 0.0
H737 H 0.51395 0.8325 0.13972 0.0
C738 C 0.53328 0.81403 0.17608 0.0
C739 C 0.5519 0.81717 0.19946 0.0
C740 C 0.54148 0.91135 0.15064 0.0
C741 C 0.54236 0.86077 0.1621 0.0
C742 C 0.53222 0.93259 0.13272 0.0
C743 C 0.51829 0.92651 0.10699 0.0
C744 C 0.53637 0.88403 0.14279 0.0
C745 C 0.51517 0.8989 0.09936 0.0
C746 C 0.5287 0.83554 0.15737 0.0
C747 C 0.56534 0.84274 0.20349 0.0
N748 N 0.5238 0.87879 0.11729 0.0
N749 N 0.56022 0.86368 0.18501 0.0
H750 H 0.22779 0.50196 0.22571 0.0
H751 H 0.15933 0.5671 0.08488 0.0
H752 H 0.24756 0.58298 0.19539 0.0
H753 H 0.14396 0.48384 0.11195 0.0
H754 H 0.19241 0.57308 0.12487 0.0
H755 H 0.1944 0.49574 0.18557 0.0
C756 C 0.22418 0.51876 0.2111 0.0
C757 C 0.23985 0.54315 0.21387 0.0
C758 C 0.18194 0.55344 0.12195 0.0
C759 C 0.2031 0.53592 0.16752 0.0
C760 C 0.16327 0.54994 0.09895 0.0
C761 C 0.14846 0.52511 0.09532 0.0
C762 C 0.18564 0.53203 0.14152 0.0
C763 C 0.15465 0.50347 0.11406 0.0
C764 C 0.20565 0.51507 0.18795 0.0
C765 C 0.23535 0.56408 0.19405 0.0
N766 N 0.17248 0.50756 0.1366 0.0
N767 N 0.21753 0.55992 0.17154 0.0
H768 H 0.56156 0.80747 0.82686 0.0
H769 H 0.48497 0.94648 0.88007 0.0
H770 H 0.49882 0.85501 0.77894 0.0
H771 H 0.54281 0.89893 0.93333 0.0
H772 H 0.49416 0.91468 0.84142 0.0
H773 H 0.55796 0.84124 0.8653 0.0
C774 C 0.54696 0.82488 0.82444 0.0
C775 C 0.53058 0.82843 0.7995 0.0
C776 C 0.50501 0.91115 0.86146 0.0
C777 C 0.52671 0.86727 0.84316 0.0
C778 C 0.49983 0.9294 0.88355 0.0
C779 C 0.5129 0.92524 0.91005 0.0
C780 C 0.52324 0.88823 0.8658 0.0
C781 C 0.53222 0.90289 0.91323 0.0
C782 C 0.5451 0.84425 0.84629 0.0
C783 C 0.51229 0.85158 0.79747 0.0
N784 N 0.53658 0.88501 0.89143 0.0
N785 N 0.5109 0.87 0.8189 0.0
H786 H 0.25429 0.49652 0.81452 0.0
H787 H 0.10781 0.56881 0.86171 0.0
H788 H 0.21886 0.56395 0.76622 0.0
H789 H 0.12689 0.48368 0.8792 0.0
H790 H 0.14808 0.5691 0.82728 0.0
H791 H 0.20812 0.49322 0.84022 0.0
C792 C 0.23659 0.51051 0.80924 0.0
C793 C 0.24024 0.53057 0.78836 0.0
C794 C 0.14304 0.5503 0.83837 0.0
C795 C 0.18744 0.52707 0.81773 0.0
C796 C 0.12013 0.55011 0.858 0.0
C797 C 0.11414 0.52626 0.87352 0.0
C798 C 0.16032 0.52666 0.83479 0.0
C799 C 0.1307 0.50256 0.8678 0.0
C800 C 0.21023 0.50854 0.82378 0.0
C801 C 0.2167 0.54817 0.78217 0.0
N802 N 0.15333 0.50351 0.84927 0.0
N803 N 0.19129 0.54627 0.79711 0.0
H804 H 0.45644 0.1887 0.79426 0.0
H805 H 0.55047 0.14637 0.93044 0.0
H806 H 0.51877 0.24002 0.83741 0.0
H807 H 0.48354 0.09345 0.89722 0.0
H808 H 0.53629 0.18145 0.89674 0.0
H809 H 0.46424 0.15321 0.83087 0.0
C810 C 0.47163 0.19249 0.81139 0.0
C811 C 0.48662 0.21749 0.81307 0.0
C812 C 0.52447 0.16228 0.89666 0.0
C813 C 0.4955 0.17745 0.85467 0.0
C814 C 0.5326 0.14226 0.91598 0.0
C815 C 0.51828 0.11705 0.91634 0.0
C816 C 0.50217 0.15695 0.87696 0.0
C817 C 0.49503 0.11278 0.89746 0.0
C818 C 0.47591 0.1724 0.8323 0.0
C819 C 0.50616 0.22139 0.83557 0.0
N820 N 0.48788 0.13249 0.87812 0.0
N821 N 0.50994 0.2017 0.85535 0.0
H822 H 0.78901 0.45515 0.82527 0.0
H823 H 0.88688 0.55725 0.91749 0.0
H824 H 0.79648 0.5418 0.80968 0.0
H825 H 0.89437 0.46911 0.92319 0.0
H826 H 0.84765 0.55193 0.88309 0.0
H827 H 0.82247 0.45979 0.8658 0.0
C828 C 0.79731 0.47518 0.83085 0.0
C829 C 0.78989 0.49823 0.81468 0.0
C830 C 0.85768 0.53374 0.89207 0.0
C831 C 0.82785 0.50374 0.86041 0.0
C832 C 0.87997 0.53676 0.91189 0.0
C833 C 0.89411 0.5136 0.92312 0.0
C834 C 0.84934 0.50739 0.88347 0.0
C835 C 0.8842 0.48756 0.91496 0.0
C836 C 0.81645 0.47782 0.85373 0.0
C837 C 0.80158 0.52368 0.82202 0.0
N838 N 0.86254 0.48515 0.89544 0.0
N839 N 0.81999 0.52577 0.84439 0.0
H840 H 0.74315 0.69913 0.03126 0.0
H841 H 0.59477 0.64232 0.96616 0.0
H842 H 0.7029 0.73524 0.95752 0.0
H843 H 0.6268 0.62157 0.04951 0.0
H844 H 0.63385 0.67618 0.96177 0.0
H845 H 0.70038 0.67024 0.03762 0.0
C846 C 0.7251 0.70103 0.01649 0.0
C847 C 0.72651 0.71937 0.99373 0.0
C848 C 0.63212 0.66434 0.98108 0.0
C849 C 0.67746 0.68631 0.00076 0.0
C850 C 0.60991 0.64496 0.98358 0.0
C851 C 0.6076 0.62899 0.00821 0.0
C852 C 0.65227 0.66754 0.00323 0.0
C853 C 0.62771 0.63337 0.03014 0.0
C854 C 0.70066 0.68461 0.02016 0.0
C855 C 0.70251 0.72132 0.97534 0.0
N856 N 0.6493 0.65207 0.02703 0.0
N857 N 0.67897 0.7047 0.97907 0.0
H858 H 0.30391 0.73237 0.05323 0.0
H859 H 0.37658 0.6089 0.96984 0.0
H860 H 0.26064 0.69647 0.98128 0.0
H861 H 0.38776 0.62087 0.05978 0.0
H862 H 0.33711 0.64321 0.97031 0.0
H863 H 0.34032 0.69519 0.05185 0.0
C864 C 0.30246 0.71688 0.03688 0.0
C865 C 0.27951 0.71734 0.01731 0.0
C866 C 0.34805 0.63798 0.98993 0.0
C867 C 0.32049 0.6749 0.01575 0.0
C868 C 0.37045 0.61836 0.98973 0.0
C869 C 0.38576 0.61226 0.01474 0.0
C870 C 0.34146 0.65183 0.01517 0.0
C871 C 0.37677 0.62505 0.03993 0.0
C872 C 0.3229 0.69556 0.0363 0.0
C873 C 0.27818 0.69667 0.9967 0.0
N874 N 0.35556 0.64458 0.0394 0.0
N875 N 0.2985 0.67623 0.99637 0.0
H876 H 0.29198 0.33133 0.96521 0.0
H877 H 0.41802 0.40431 0.0537 0.0
H878 H 0.31405 0.30999 0.05104 0.0
H879 H 0.4082 0.41494 0.96347 0.0
H880 H 0.38006 0.36954 0.05273 0.0
H881 H 0.33483 0.36151 0.96338 0.0
C882 C 0.30619 0.33283 0.9835 0.0
C883 C 0.29989 0.31826 0.00826 0.0
C884 C 0.38632 0.3793 0.03308 0.0
C885 C 0.34819 0.35289 0.00667 0.0
C886 C 0.40797 0.39925 0.03362 0.0
C887 C 0.41628 0.41265 0.00863 0.0
C888 C 0.37258 0.37277 0.00742 0.0
C889 C 0.40251 0.40512 0.98325 0.0
C890 C 0.33052 0.35001 0.98251 0.0
C891 C 0.31853 0.32085 0.03155 0.0
N892 N 0.38116 0.38581 0.98332 0.0
N893 N 0.34174 0.33805 0.03028 0.0
H894 H 0.7254 0.30918 0.9746 0.0
H895 H 0.65208 0.4396 0.046 0.0
H896 H 0.76805 0.35254 0.0424 0.0
H897 H 0.63316 0.41335 0.96068 0.0
H898 H 0.69344 0.40744 0.04726 0.0
H899 H 0.68801 0.34522 0.97266 0.0
C900 C 0.72651 0.32608 0.98942 0.0
C901 C 0.74962 0.32795 0.00875 0.0
C902 C 0.68042 0.40905 0.02817 0.0
C903 C 0.70743 0.3694 0.00635 0.0
C904 C 0.65691 0.42744 0.02737 0.0
C905 C 0.63881 0.42881 0.00336 0.0
C906 C 0.68549 0.3917 0.00499 0.0
C907 C 0.64628 0.41281 0.97975 0.0
C908 C 0.70549 0.34682 0.98804 0.0
C909 C 0.75046 0.35048 0.0272 0.0
N910 N 0.66874 0.39456 0.98135 0.0
N911 N 0.72957 0.37038 0.02562 0.0
H912 H 0.96573 0.66756 0.72714 0.0
H913 H 0.0193 0.63811 0.56941 0.0
H914 H 0.01782 0.72181 0.67572 0.0
H915 H 0.98375 0.57493 0.62278 0.0
H916 H 0.00646 0.67219 0.605 0.0
H917 H 0.96252 0.63581 0.68697 0.0
C918 C 0.97636 0.67284 0.70742 0.0
C919 C 0.99203 0.69742 0.70474 0.0
C920 C 0.00096 0.65096 0.60886 0.0
C921 C 0.98793 0.66164 0.65884 0.0
C922 C 0.00807 0.63161 0.58845 0.0
C923 C 0.00264 0.6039 0.59345 0.0
C924 C 0.98907 0.64239 0.63476 0.0
C925 C 0.98807 0.59628 0.61829 0.0
C926 C 0.97431 0.65485 0.68451 0.0
C927 C 0.00508 0.70341 0.67865 0.0
N928 N 0.98228 0.61545 0.63848 0.0
N929 N 0.00279 0.68562 0.65683 0.0
H930 H 0.35928 0.04573 0.74716 0.0
H931 H 0.43131 0.97204 0.61357 0.0
H932 H 0.31737 0.98156 0.69953 0.0
H933 H 0.45717 0.05268 0.64131 0.0
H934 H 0.39525 0.97068 0.65156 0.0
H935 H 0.40002 0.04504 0.71345 0.0
C936 C 0.35857 0.03172 0.7294 0.0
C937 C 0.33495 0.01377 0.7259 0.0
C938 C 0.40911 0.98851 0.64953 0.0
C939 C 0.38145 0.01253 0.68785 0.0
C940 C 0.42996 0.98915 0.62812 0.0
C941 C 0.44707 0.0126 0.62423 0.0
C942 C 0.4056 0.01133 0.66727 0.0
C943 C 0.4442 0.0343 0.64351 0.0
C944 C 0.38179 0.03128 0.71031 0.0
C945 C 0.335 0.99597 0.70268 0.0
N946 N 0.42361 0.03324 0.66416 0.0
N947 N 0.35805 0.99567 0.68459 0.0
H948 H 0.98277 0.30978 0.66779 0.0
H949 H 0.0492 0.45765 0.64112 0.0
H950 H 0.05623 0.34232 0.71426 0.0
H951 H 0.00476 0.414 0.57463 0.0
H952 H 0.04531 0.41746 0.67145 0.0
H953 H 0.98484 0.34932 0.63599 0.0
C954 C -0.00056 0.3251 0.67127 0.0
C955 C 0.01933 0.32269 0.69391 0.0
C956 C 0.03616 0.41667 0.65033 0.0
C957 C 0.02122 0.36819 0.65797 0.0
C958 C 0.03811 0.43968 0.63314 0.0
C959 C 0.02716 0.43904 0.60551 0.0
C960 C 0.0226 0.39298 0.64005 0.0
C961 C 0.0135 0.41511 0.59589 0.0
C962 C 0.00047 0.34768 0.65315 0.0
C963 C 0.04006 0.34348 0.69756 0.0
N964 N 0.01141 0.39293 0.61328 0.0
N965 N 0.04035 0.36537 0.67988 0.0
H966 H 0.7245 0.07756 0.71961 0.0
H967 H 0.65476 0.98046 0.60267 0.0
H968 H 0.73298 0.98965 0.72236 0.0
H969 H 0.66576 0.06774 0.59218 0.0
H970 H 0.68329 0.98252 0.64614 0.0
H971 H 0.69892 0.07383 0.67431 0.0
C972 C 0.71986 0.05742 0.71113 0.0
C973 C 0.73017 0.03383 0.7248 0.0
C974 C 0.6799 1.00113 0.63405 0.0
C975 C 0.70233 0.02937 0.67262 0.0
C976 C 0.66392 0.99995 0.60898 0.0
C977 C 0.65722 0.02415 0.59411 0.0
C978 C 0.68922 0.02663 0.6442 0.0
C979 C 0.66985 0.0487 0.6033 0.0
C980 C 0.70592 0.05529 0.68502 0.0
C981 C 0.72474 0.00822 0.71256 0.0
N982 N 0.6848 0.04941 0.62808 0.0
N983 N 0.71124 0.00663 0.68702 0.0
H984 H 0.00595 0.35969 0.28782 0.0
H985 H 0.02771 0.40841 0.44269 0.0
H986 H 0.07123 0.31631 0.3369 0.0
H987 H 0.0206 0.46471 0.37251 0.0
H988 H 0.03929 0.3713 0.40895 0.0
H989 H 0.004 0.39496 0.3238 0.0
C990 C 0.02019 0.35768 0.30604 0.0
C991 C 0.0395 0.33536 0.30883 0.0
C992 C 0.03565 0.39193 0.40121 0.0
C993 C 0.03649 0.37553 0.35076 0.0
C994 C 0.02899 0.41302 0.42031 0.0
C995 C 0.02277 0.43956 0.41029 0.0
C996 C 0.03524 0.39752 0.3721 0.0
C997 C 0.02503 0.44457 0.38119 0.0
C998 C 0.01892 0.37782 0.32663 0.0
C999 C 0.05622 0.3333 0.33377 0.0
N1000 N 0.03047 0.42364 0.36311 0.0
N1001 N 0.05434 0.35324 0.35396 0.0
H1002 H 0.69462 0.99595 0.27525 0.0
H1003 H 0.62451 0.06997 0.41034 0.0
H1004 H 0.71642 0.07725 0.30359 0.0
H1005 H 0.60265 0.9873 0.38638 0.0
H1006 H 0.65854 0.07235 0.37095 0.0
H1007 H 0.65902 0.99243 0.31412 0.0
C1008 C 0.69122 0.01329 0.2892 0.0
C1009 C 0.70804 0.03701 0.28625 0.0
C1010 C 0.64618 0.05372 0.37401 0.0
C1011 C 0.6685 0.03292 0.33083 0.0
C1012 C 0.62669 0.05241 0.39644 0.0
C1013 C 0.61028 0.02867 0.40093 0.0
C1014 C 0.64901 0.03125 0.35566 0.0
C1015 C 0.61468 0.00609 0.38314 0.0
C1016 C 0.67134 0.01115 0.31155 0.0
C1017 C 0.70358 0.05872 0.30515 0.0
N1018 N 0.6335 0.00802 0.36094 0.0
N1019 N 0.68437 0.05608 0.32674 0.0
H1020 H 0.079 0.71127 0.33027 0.0
H1021 H 0.96417 0.62412 0.41683 0.0
H1022 H 0.98766 0.70451 0.30878 0.0
H1023 H 0.05489 0.59841 0.41476 0.0
H1024 H 0.97481 0.65947 0.38274 0.0
H1025 H 0.07295 0.67419 0.36538 0.0
C1026 C 0.05786 0.70162 0.33275 0.0
C1027 C 0.03381 0.71041 0.31661 0.0
C1028 C 0.99246 0.64611 0.38962 0.0
C1029 C 0.02659 0.66928 0.35677 0.0
C1030 C 0.98647 0.62588 0.40925 0.0
C1031 C 0.00862 0.60788 0.41842 0.0
C1032 C 0.02088 0.64874 0.37898 0.0
C1033 C 0.03715 0.61169 0.40808 0.0
C1034 C 0.05442 0.68067 0.35268 0.0
C1035 C 0.00673 0.69787 0.32063 0.0
N1036 N 0.04253 0.63179 0.38872 0.0
N1037 N 0.00378 0.67811 0.34051 0.0
H1038 H 0.3411 0.95904 0.28689 0.0
H1039 H 0.37206 0.05088 0.41973 0.0
H1040 H 0.27964 0.02157 0.31304 0.0
H1041 H 0.40281 0.96711 0.41406 0.0
H1042 H 0.33886 0.04207 0.38006 0.0
H1043 H 0.36608 0.96323 0.3325 0.0
C1044 C 0.33268 0.97336 0.30245 0.0
C1045 C 0.30829 0.98991 0.29641 0.0
C1046 C 0.35252 0.02555 0.38798 0.0
C1047 C 0.33677 0.99506 0.3482 0.0
C1048 C 0.37137 0.03053 0.41063 0.0
C1049 C 0.39031 0.00978 0.42023 0.0
C1050 C 0.35311 0.99986 0.37461 0.0
C1051 C 0.38863 0.98379 0.40747 0.0
C1052 C 0.34683 0.9757 0.32843 0.0
C1053 C 0.29822 0.00825 0.31713 0.0
N1054 N 0.37077 0.97973 0.38499 0.0
N1055 N 0.31277 0.01063 0.34205 0.0
H1056 H 0.04801 0.17738 0.28019 0.0
H1057 H -0.00382 0.14007 0.43735 0.0
H1058 H -0.00079 0.23182 0.33454 0.0
H1059 H 0.0335 0.08071 0.38019 0.0
H1060 H 0.00712 0.17642 0.40337 0.0
H1061 H 0.05185 0.14432 0.31933 0.0
C1062 C 0.03835 0.18241 0.30047 0.0
C1063 C 0.02285 0.20708 0.30404 0.0
C1064 C 0.01345 0.15556 0.39836 0.0
C1065 C 0.02717 0.16955 0.34888 0.0
C1066 C 0.00749 0.13488 0.41789 0.0
C1067 C 0.01425 0.10753 0.41159 0.0
C1068 C 0.02568 0.14876 0.37197 0.0
C1069 C 0.0284 0.10168 0.38595 0.0
C1070 C 0.04051 0.16358 0.32277 0.0
C1071 C 0.01104 0.21286 0.33081 0.0
N1072 N 0.03327 0.1221 0.36683 0.0
N1073 N 0.01319 0.19415 0.35207 0.0
H1074 H 0.81319 0.08305 0.28991 0.0
H1075 H 0.87518 0.98008 0.40637 0.0
H1076 H 0.81902 0.99567 0.27843 0.0
H1077 H 0.87419 0.06811 0.41625 0.0
H1078 H 0.85092 0.98532 0.36089 0.0
H1079 H 0.83834 0.07842 0.33525 0.0
C1080 C 0.82128 0.06307 0.29632 0.0
C1081 C 0.8142 0.03969 0.28065 0.0
C1082 C 0.85575 0.00348 0.37315 0.0
C1083 C 0.84105 0.03395 0.33292 0.0
C1084 C 0.86908 1.00049 0.39942 0.0
C1085 C 0.8779 0.02379 0.41451 0.0
C1086 C 0.85097 0.02988 0.36226 0.0
C1087 C 0.86868 0.04962 0.40481 0.0
C1088 C 0.83482 0.06029 0.32252 0.0
C1089 C 0.82439 0.01414 0.28997 0.0
N1090 N 0.85633 0.05204 0.37888 0.0
N1091 N 0.83675 0.01181 0.31593 0.0
H1092 H -0.00577 0.82697 0.28393 0.0
H1093 H 0.03442 0.89937 0.43035 0.0
H1094 H 0.06736 0.80294 0.33632 0.0
H1095 H 0.97089 0.93268 0.37187 0.0
H1096 H 0.04761 0.86468 0.39525 0.0
H1097 H 0.98687 0.86736 0.31408 0.0
C1098 C 0.0091 0.83046 0.30139 0.0
C1099 C 0.0312 0.81131 0.3078 0.0
C1100 C 0.03093 0.87969 0.38998 0.0
C1101 C 0.02251 0.8571 0.34277 0.0
C1102 C 0.02332 0.89948 0.41009 0.0
C1103 C 0.00135 0.91886 0.40417 0.0
C1104 C 0.01639 0.87915 0.36375 0.0
C1105 C 0.98781 0.91802 0.37747 0.0
C1106 C 0.00474 0.8534 0.31876 0.0
C1107 C 0.04967 0.81684 0.33089 0.0
N1108 N -0.00459 0.8984 0.35834 0.0
N1109 N 0.04469 0.83896 0.34768 0.0
H1110 H 0.14876 0.00686 0.23876 0.0
H1111 H 0.13627 0.998 0.40651 0.0
H1112 H 0.22156 0.02467 0.29367 0.0
H1113 H 0.06439 0.02623 0.35494 0.0
H1114 H 0.16759 0.99644 0.36419 0.0
H1115 H 0.11687 0.00341 0.2805 0.0
C1116 C 0.158 0.0099 0.25962 0.0
C1117 C 0.18775 0.01608 0.26289 0.0
C1118 C 0.14494 0.00287 0.36217 0.0
C1119 C 0.15184 0.01145 0.3104 0.0
C1120 C 0.12718 0.00371 0.38615 0.0
C1121 C 0.09809 0.0126 0.38388 0.0
C1122 C 0.13318 0.01047 0.33585 0.0
C1123 C 0.08693 0.01959 0.35728 0.0
C1124 C 0.13988 0.00789 0.28332 0.0
C1125 C 0.1988 0.0196 0.29032 0.0
N1126 N 0.10454 0.01832 0.33413 0.0
N1127 N 0.18086 0.0171 0.31309 0.0
H1128 H 0.94939 0.81513 0.68025 0.0
H1129 H 0.03045 0.95709 0.65994 0.0
H1130 H 0.01623 0.84458 0.73677 0.0
H1131 H 0.00165 0.91172 0.58678 0.0
H1132 H 0.01766 0.91843 0.68987 0.0
H1133 H 0.96154 0.8522 0.64683 0.0
C1134 C 0.9668 0.82922 0.68548 0.0
C1135 C 0.98195 0.82679 0.71132 0.0
C1136 C 0.01414 0.91686 0.66727 0.0
C1137 C -0.00447 0.86922 0.67353 0.0
C1138 C 0.02129 0.93902 0.65012 0.0
C1139 C 0.01734 0.93762 0.62074 0.0
C1140 C 0.00246 0.89307 0.65519 0.0
C1141 C 0.00529 0.91356 0.60934 0.0
C1142 C 0.9737 0.85028 0.66642 0.0
C1143 C 0.00407 0.84572 0.71714 0.0
N1144 N -0.00188 0.89219 0.62663 0.0
N1145 N 0.01005 0.86616 0.69853 0.0
H1146 H 0.23657 0.96677 0.69118 0.0
H1147 H 0.10413 0.0534 0.62575 0.0
H1148 H 0.1719 0.01044 0.74033 0.0
H1149 H 0.15336 0.9941 0.57726 0.0
H1150 H 0.13571 0.04473 0.66624 0.0
H1151 H 0.21216 0.98231 0.64768 0.0
C1152 C 0.21703 0.97938 0.69271 0.0
C1153 C 0.20559 0.98683 0.71915 0.0
C1154 C 0.14016 0.03409 0.64658 0.0
C1155 C 0.17843 0.00531 0.66997 0.0
C1156 C 0.12242 0.0393 0.62335 0.0
C1157 C 0.12648 0.02447 0.59825 0.0
C1158 C 0.16229 0.01413 0.64453 0.0
C1159 C 0.14976 0.00585 0.59639 0.0
C1160 C 0.20332 0.9884 0.668 0.0
C1161 C 0.18084 0.00383 0.72022 0.0
N1162 N 0.16686 1.00107 0.6194 0.0
N1163 N 0.16802 0.01249 0.69594 0.0
H1164 H 0.96714 0.2371 0.6844 0.0
H1165 H 0.03609 0.09193 0.64217 0.0
H1166 H 0.04076 0.20082 0.72796 0.0
H1167 H 0.97863 0.13941 0.58872 0.0
H1168 H 0.02948 0.12592 0.68004 0.0
H1169 H 0.96252 0.1956 0.65603 0.0
C1170 C 0.98206 0.22016 0.68827 0.0
C1171 C 0.00474 0.22255 0.70812 0.0
C1172 C 0.01829 0.12887 0.66006 0.0
C1173 C -0.00033 0.17505 0.67563 0.0
C1174 C 0.02212 0.1096 0.63851 0.0
C1175 C 0.00827 0.11336 0.61231 0.0
C1176 C 0.00081 0.15214 0.6551 0.0
C1177 C 0.98976 0.13601 0.60865 0.0
C1178 C 0.97944 0.19652 0.67204 0.0
C1179 C 0.02309 0.19983 0.71273 0.0
N1180 N 0.98688 0.1548 0.6297 0.0
N1181 N 0.02045 0.1771 0.69625 0.0
H1182 H 0.84261 0.99528 0.7485 0.0
H1183 H 0.89088 0.05339 0.6019 0.0
H1184 H 0.83196 0.07998 0.72485 0.0
H1185 H 0.94021 0.98669 0.63906 0.0
H1186 H 0.86496 0.05954 0.64627 0.0
H1187 H 0.87805 0.98932 0.70982 0.0
C1188 C 0.84892 0.01289 0.73599 0.0
C1189 C 0.8349 0.03821 0.73986 0.0
C1190 C 0.88155 0.04364 0.64482 0.0
C1191 C 0.87352 0.03124 0.6951 0.0
C1192 C 0.89614 0.0399 0.61942 0.0
C1193 C 0.91806 0.0198 0.61705 0.0
C1194 C 0.88865 0.02697 0.66798 0.0
C1195 C 0.9235 0.00249 0.64017 0.0
C1196 C 0.8687 0.00941 0.71376 0.0
C1197 C 0.84283 0.06029 0.72269 0.0
N1198 N 0.90887 0.00653 0.66491 0.0
N1199 N 0.86118 0.05615 0.70057 0.0
H1200 H 0.30607 0.96554 0.16881 0.0
H1201 H 0.44856 0.04604 0.11719 0.0
H1202 H 0.34232 0.03569 0.21137 0.0
H1203 H 0.40437 0.98644 0.06517 0.0
H1204 H 0.41295 0.03807 0.15455 0.0
H1205 H 0.34391 0.96981 0.13208 0.0
C1206 C 0.32174 0.98207 0.17008 0.0
C1207 C 0.32127 1.00029 0.19297 0.0
C1208 C 0.41117 0.02653 0.13507 0.0
C1209 C 0.36457 0.00505 0.15169 0.0
C1210 C 0.43167 0.03091 0.11378 0.0
C1211 C 0.42925 0.01709 0.08787 0.0
C1212 C 0.38816 0.0081 0.13051 0.0
C1213 C 0.40695 0.99765 0.08474 0.0
C1214 C 0.34342 0.98437 0.14935 0.0
C1215 C 0.34219 0.02115 0.19406 0.0
N1216 N 0.38708 0.99388 0.10576 0.0
N1217 N 0.36304 0.02293 0.17375 0.0
H1218 H 0.07016 0.30488 0.1859 0.0
H1219 H 0.99253 0.44128 0.13208 0.0
H1220 H 0.9897 0.33705 0.22039 0.0
H1221 H 0.06313 0.40257 0.08603 0.0
H1222 H 0.98814 0.40024 0.1612 0.0
H1223 H 0.06492 0.33638 0.14543 0.0
C1224 C 0.05092 0.31791 0.18443 0.0
C1225 C 0.03037 0.31848 0.20648 0.0
C1226 C 0.00437 0.40048 0.14449 0.0
C1227 C 0.02468 0.35509 0.16099 0.0
C1228 C 0.0069 0.42401 0.12783 0.0
C1229 C 0.02851 0.42561 0.10679 0.0
C1230 C 0.02385 0.37837 0.14047 0.0
C1231 C 0.0463 0.40238 0.10217 0.0
C1232 C 0.04805 0.33608 0.16152 0.0
C1233 C 0.00605 0.33604 0.20381 0.0
N1234 N 0.04391 0.37992 0.11916 0.0
N1235 N 0.00415 0.3539 0.18184 0.0
H1236 H 0.71351 0.0884 0.14924 0.0
H1237 H 0.58373 0.98208 0.12321 0.0
H1238 H 0.713 0.00493 0.17953 0.0
H1239 H 0.59467 0.05649 0.07529 0.0
H1240 H 0.62481 0.99546 0.15324 0.0
H1241 H 0.66402 0.08172 0.13024 0.0
C1242 C 0.7028 0.06887 0.15226 0.0
C1243 C 0.7173 0.04737 0.16621 0.0
C1244 C 0.61777 0.00914 0.1365 0.0
C1245 C 0.66097 0.03956 0.14472 0.0
C1246 C 0.59427 1.00157 0.11944 0.0
C1247 C 0.58569 0.01828 0.09672 0.0
C1248 C 0.63284 0.03351 0.13068 0.0
C1249 C 0.60009 0.0433 0.09281 0.0
C1250 C 0.67465 0.06507 0.14148 0.0
C1251 C 0.70268 0.02227 0.16923 0.0
N1252 N 0.62321 0.05002 0.10939 0.0
N1253 N 0.67535 0.0191 0.15859 0.0
H1254 H 0.01097 0.74741 0.15298 0.0
H1255 H 0.00449 0.58427 0.12942 0.0
H1256 H -0.00209 0.69021 0.22117 0.0
H1257 H 0.03484 0.64127 0.0665 0.0
H1258 H -0.00419 0.6229 0.16201 0.0
H1259 H 0.01473 0.70893 0.11982 0.0
C1260 C 0.00894 0.72669 0.16093 0.0
C1261 C 0.00383 0.72196 0.18977 0.0
C1262 C 0.00384 0.62699 0.14089 0.0
C1263 C 0.00809 0.67769 0.15198 0.0
C1264 C 0.00838 0.60501 0.1222 0.0
C1265 C 0.0199 0.60974 0.09514 0.0
C1266 C 0.01063 0.65385 0.13227 0.0
C1267 C 0.02557 0.63686 0.08709 0.0
C1268 C 0.01104 0.70471 0.14202 0.0
C1269 C 0.00162 0.69469 0.19903 0.0
N1270 N 0.02087 0.65784 0.10551 0.0
N1271 N 0.00364 0.67359 0.1802 0.0
H1272 H 0.31385 0.95624 0.82546 0.0
H1273 H 0.44805 0.029 0.88007 0.0
H1274 H 0.31606 0.04422 0.83236 0.0
H1275 H 0.40491 0.98796 0.94903 0.0
H1276 H 0.40662 0.01772 0.84943 0.0
H1277 H 0.35176 0.95299 0.86253 0.0
C1278 C 0.32124 0.97471 0.83589 0.0
C1279 C 0.31198 1.00053 0.82632 0.0
C1280 C 0.40693 0.01029 0.87104 0.0
C1281 C 0.35541 0.99699 0.86682 0.0
C1282 C 0.43046 0.01653 0.88837 0.0
C1283 C 0.42979 0.00906 0.91691 0.0
C1284 C 0.38278 0.99667 0.88252 0.0
C1285 C 0.40647 0.99321 0.92691 0.0
C1286 C 0.34298 0.97284 0.85657 0.0
C1287 C 0.3226 0.02403 0.83959 0.0
N1288 N 0.38331 0.98792 0.90979 0.0
N1289 N 0.34446 0.02174 0.85874 0.0
H1290 H 0.01899 0.28924 0.86501 0.0
H1291 H 0.03132 0.45279 0.86848 0.0
H1292 H 0.00974 0.34108 0.7917 0.0
H1293 H 0.01054 0.40458 0.94234 0.0
H1294 H 0.03579 0.41064 0.84094 0.0
H1295 H 0.02688 0.33018 0.89422 0.0
C1296 C 0.01903 0.30922 0.85502 0.0
C1297 C 0.01385 0.31184 0.82587 0.0
C1298 C 0.03054 0.40929 0.86324 0.0
C1299 C 0.02308 0.35855 0.85898 0.0
C1300 C 0.02811 0.43334 0.87904 0.0
C1301 C 0.01996 0.43228 0.90766 0.0
C1302 C 0.02497 0.38394 0.87613 0.0
C1303 C 0.01645 0.4064 0.92023 0.0
C1304 C 0.02351 0.33252 0.87167 0.0
C1305 C 0.01405 0.33815 0.81397 0.0
N1306 N 0.01868 0.38325 0.90432 0.0
N1307 N 0.01853 0.36048 0.83056 0.0
H1308 H 0.72118 0.08289 0.83976 0.0
H1309 H 0.61882 0.9755 0.9177 0.0
H1310 H 0.7499 0.0037 0.86978 0.0
H1311 H 0.59743 0.0618 0.91759 0.0
H1312 H 0.66397 0.98516 0.89336 0.0
H1313 H 0.67313 0.07514 0.86174 0.0
C1314 C 0.71725 0.06378 0.85074 0.0
C1315 C 0.73923 0.04355 0.8524 0.0
C1316 C 0.64942 1.00208 0.89842 0.0
C1317 C 0.68489 0.03495 0.87794 0.0
C1318 C 0.62336 0.9966 0.91216 0.0
C1319 C 0.60407 0.01793 0.91963 0.0
C1320 C 0.65647 0.02913 0.89161 0.0
C1321 C 0.61166 0.04482 0.9123 0.0
C1322 C 0.68999 0.05951 0.86341 0.0
C1323 C 0.73333 0.01951 0.86745 0.0
N1324 N 0.63737 0.04972 0.8985 0.0
N1325 N 0.70671 0.01584 0.87951 0.0
H1326 H 0.97831 0.73171 0.83019 0.0
H1327 H 0.05087 0.59527 0.89315 0.0
H1328 H 0.05039 0.68911 0.79066 0.0
H1329 H 0.98151 0.64083 0.93385 0.0
H1330 H 0.05713 0.63345 0.8597 0.0
H1331 H 0.98508 0.70325 0.87257 0.0
C1332 C -0.00396 0.71687 0.83075 0.0
C1333 C 0.01355 0.7125 0.8068 0.0
C1334 C 0.04092 0.63529 0.87632 0.0
C1335 C 0.02117 0.67942 0.8549 0.0
C1336 C 0.03752 0.61354 0.89553 0.0
C1337 C 0.01539 0.61468 0.91608 0.0
C1338 C 0.02206 0.65827 0.87777 0.0
C1339 C -0.00145 0.63885 0.91805 0.0
C1340 C -0.00019 0.70043 0.85484 0.0
C1341 C 0.03612 0.69282 0.80858 0.0
N1342 N 0.00198 0.65944 0.89901 0.0
N1343 N 0.03901 0.67677 0.83196 0.0
H1344 H 0.20669 0.34123 0.05762 0.0
H1345 H 0.07977 0.40287 0.96229 0.0
H1346 H 0.17073 0.29959 0.98528 0.0
H1347 H 0.11274 0.44197 0.03766 0.0
H1348 H 0.10576 0.3609 0.9756 0.0
H1349 H 0.16573 0.37373 0.05625 0.0
C1350 C 0.18978 0.33869 0.04178 0.0
C1351 C 0.19217 0.31803 0.0213 0.0
C1352 C 0.10699 0.37853 0.98945 0.0
C1353 C 0.14565 0.35541 0.0191 0.0
C1354 C 0.09217 0.40254 0.98183 0.0
C1355 C 0.09473 0.42621 -0.00152 0.0
C1356 C 0.12472 0.37826 0.01374 0.0
C1357 C 0.11062 0.42439 0.02385 0.0
C1358 C 0.16643 0.35723 0.04095 0.0
C1359 C 0.16964 0.31535 0.00137 0.0
N1360 N 0.12543 0.40101 0.03044 0.0
N1361 N 0.14759 0.33419 0.00041 0.0
H1362 H 0.15791 0.74693 0.99033 0.0
H1363 H 0.11202 0.6021 0.0434 0.0
H1364 H 0.18358 0.71468 0.0715 0.0
H1365 H 0.07306 0.64252 0.97134 0.0
H1366 H 0.13016 0.64657 0.05981 0.0
H1367 H 0.11811 0.71374 0.98851 0.0
C1368 C 0.15425 0.73361 0.00832 0.0
C1369 C 0.17393 0.73317 0.03097 0.0
C1370 C 0.11707 0.64578 0.04073 0.0
C1371 C 0.12949 0.69457 0.02873 0.0
C1372 C 0.10676 0.6204 0.03143 0.0
C1373 C 0.09185 0.61866 0.00564 0.0
C1374 C 0.11249 0.66928 0.02392 0.0
C1375 C 0.08536 0.64294 0.99093 0.0
C1376 C 0.13175 0.71445 0.00723 0.0
C1377 C 0.16878 0.71531 0.05361 0.0
N1378 N 0.09614 0.66716 1e-05 0.0
N1379 N 0.14743 0.69621 0.05165 0.0
H1380 H 0.27008 0.18402 0.98645 0.0
H1381 H 0.42789 0.14315 0.04599 0.0
H1382 H 0.30468 0.2157 0.06461 0.0
H1383 H 0.39905 0.12415 0.96131 0.0
H1384 H 0.38373 0.17088 0.05286 0.0
H1385 H 0.31746 0.16213 0.97677 0.0
C1386 C 0.28778 0.18638 0.00149 0.0
C1387 C 0.28361 0.20165 0.02628 0.0
C1388 C 0.38723 0.16095 0.03264 0.0
C1389 C 0.33775 0.17667 0.01554 0.0
C1390 C 0.41249 0.14518 0.02866 0.0
C1391 C 0.41716 0.13128 0.00303 0.0
C1392 C 0.36625 0.16254 0.01098 0.0
C1393 C 0.39646 0.13464 0.98134 0.0
C1394 C 0.3148 0.174 0.99596 0.0
C1395 C 0.30708 0.20408 0.04523 0.0
N1396 N 0.37173 0.14964 0.98594 0.0
N1397 N 0.33314 0.1916 0.03953 0.0
H1398 H 0.83965 0.33398 0.95299 0.0
H1399 H 0.97254 0.39794 0.03785 0.0
H1400 H 0.87687 0.29828 0.02828 0.0
H1401 H 0.92275 0.4399 0.97317 0.0
H1402 H 0.94852 0.35513 0.02484 0.0
H1403 H 0.88091 0.36553 0.95027 0.0
C1404 C 0.85712 0.33228 0.96842 0.0
C1405 C 0.85492 0.31387 0.99106 0.0
C1406 C 0.94325 0.37363 0.01319 0.0
C1407 C 0.9016 0.35023 0.98862 0.0
C1408 C 0.95695 0.39809 0.02059 0.0
C1409 C 0.94903 0.42268 0.00711 0.0
C1410 C 0.92151 0.37381 0.9922 0.0
C1411 C 0.92907 0.42154 0.98457 0.0
C1412 C 0.88053 0.35036 0.96699 0.0
C1413 C 0.87791 0.31231 0.01057 0.0
N1414 N 0.91564 0.39759 0.97814 0.0
N1415 N 0.9001 0.33073 0.00926 0.0
H1416 H 0.73533 0.8221 0.05163 0.0
H1417 H 0.63022 0.91938 0.96008 0.0
H1418 H 0.75657 0.85316 0.96878 0.0
H1419 H 0.61038 0.89493 0.04581 0.0
H1420 H 0.67528 0.89273 0.96224 0.0
H1421 H 0.68843 0.84689 0.04966 0.0
C1422 C 0.73003 0.83412 0.03304 0.0
C1423 C 0.74958 0.83553 0.01021 0.0
C1424 C 0.66102 0.89301 0.98054 0.0
C1425 C 0.69627 0.86364 0.00771 0.0
C1426 C 0.63514 0.90811 0.97927 0.0
C1427 C 0.61645 0.90935 0.00282 0.0
C1428 C 0.66831 0.87892 0.00548 0.0
C1429 C 0.62417 0.89453 0.02718 0.0
C1430 C 0.70333 0.8482 0.03189 0.0
C1431 C 0.74192 0.85149 0.9867 0.0
N1432 N 0.6496 0.87994 0.02791 0.0
N1433 N 0.71581 0.86483 0.986 0.0
H1434 H 0.82603 0.71291 0.03613 0.0
H1435 H 0.95609 0.62144 0.97662 0.0
H1436 H 0.8476 0.71888 0.94761 0.0
H1437 H 0.89473 0.59646 0.04078 0.0
H1438 H 0.92503 0.66207 0.96688 0.0
H1439 H 0.86288 0.67689 0.04153 0.0
C1440 C 0.83925 0.70705 0.01803 0.0
C1441 C 0.83405 0.71861 0.99146 0.0
C1442 C 0.9183 0.64734 0.9827 0.0
C1443 C 0.87538 0.67705 0.99714 0.0
C1444 C 0.93568 0.62409 0.98792 0.0
C1445 C 0.92767 0.60568 0.00932 0.0
C1446 C 0.89334 0.652 -0.00056 0.0
C1447 C 0.90165 0.61031 0.02419 0.0
C1448 C 0.85994 0.68635 0.02098 0.0
C1449 C 0.85133 0.7103 0.96844 0.0
N1450 N 0.88558 0.63312 0.01916 0.0
N1451 N 0.87124 0.68963 0.97169 0.0
H1452 H 0.24254 0.87689 0.01839 0.0
H1453 H 0.41472 0.89319 0.99397 0.0
H1454 H 0.2964 0.81636 0.9767 0.0
H1455 H 0.35884 0.96088 0.01747 0.0
H1456 H 0.37197 0.86331 0.99216 0.0
H1457 H 0.28525 0.90692 0.02228 0.0
C1458 C 0.26333 0.8702 0.0097 0.0
C1459 C 0.26598 0.84458 0.99655 0.0
C1460 C 0.36893 0.88469 0.99761 0.0
C1461 C 0.31479 0.87827 0.00143 0.0
C1462 C 0.39325 0.90164 -0.00132 0.0
C1463 C 0.38987 0.92929 0.00567 0.0
C1464 C 0.34108 0.89564 0.00348 0.0
C1465 C 0.36198 0.93954 0.01194 0.0
C1466 C 0.28764 0.88721 0.01201 0.0
C1467 C 0.29346 0.83628 0.98642 0.0
N1468 N 0.33845 0.92264 0.01061 0.0
N1469 N 0.31683 0.85313 0.98901 0.0
H1470 H 0.79191 0.16915 0.99257 0.0
H1471 H 0.63029 0.13496 0.02977 0.0
H1472 H 0.72333 0.22654 0.97095 0.0
H1473 H 0.67454 0.07845 0.97376 0.0
H1474 H 0.67056 0.16723 0.02403 0.0
H1475 H 0.75447 0.13386 0.00115 0.0
C1476 C 0.769 0.17415 0.9894 0.0
C1477 C 0.76057 0.20042 0.98038 0.0
C1478 C 0.6716 0.14756 0.01344 0.0
C1479 C 0.71824 0.16084 0.99071 0.0
C1480 C 0.64888 0.12907 0.01682 0.0
C1481 C 0.64928 0.10402 0.00224 0.0
C1482 C 0.69527 0.14062 0.99607 0.0
C1483 C 0.67357 0.0976 0.9853 0.0
C1484 C 0.74786 0.15413 0.99423 0.0
C1485 C 0.73064 0.20634 0.97742 0.0
N1486 N 0.69589 0.11583 0.98277 0.0
N1487 N 0.71045 0.18667 0.98267 0.0
H1488 H 0.48763 0.66826 0.76823 0.0
H1489 H 0.54859 0.64016 0.9244 0.0
H1490 H 0.54804 0.72092 0.812 0.0
H1491 H 0.47723 0.59508 0.88728 0.0
H1492 H 0.55588 0.66366 0.87936 0.0
H1493 H 0.49013 0.63588 0.80789 0.0
C1494 C 0.50185 0.67272 0.78596 0.0
C1495 C 0.51797 0.69711 0.78658 0.0
C1496 C 0.53876 0.64848 0.88098 0.0
C1497 C 0.52062 0.66043 0.83224 0.0
C1498 C 0.5346 0.635 0.9067 0.0
C1499 C 0.51177 0.61611 0.90987 0.0
C1500 C 0.51989 0.64317 0.85819 0.0
C1501 C 0.49478 0.60984 0.88597 0.0
C1502 C 0.5032 0.65431 0.80861 0.0
C1503 C 0.53556 0.70222 0.81036 0.0
N1504 N 0.49892 0.62362 0.86124 0.0
N1505 N 0.53636 0.68408 0.8322 0.0
H1506 H 0.33456 0.49329 0.81364 0.0
H1507 H 0.47089 0.5319 0.89776 0.0
H1508 H 0.36571 0.57319 0.78961 0.0
H1509 H 0.3871 0.52396 0.93915 0.0
H1510 H 0.44516 0.53965 0.85244 0.0
H1511 H 0.36861 0.49319 0.85361 0.0
C1512 C 0.3492 0.51048 0.81644 0.0
C1513 C 0.34739 0.53333 0.79861 0.0
C1514 C 0.43265 0.53675 0.87167 0.0
C1515 C 0.38594 0.53337 0.84409 0.0
C1516 C 0.44716 0.53231 0.89738 0.0
C1517 C 0.43102 0.52697 0.92208 0.0
C1518 C 0.40205 0.535 0.87088 0.0
C1519 C 0.40038 0.52792 0.92064 0.0
C1520 C 0.36837 0.51047 0.83921 0.0
C1521 C 0.36669 0.55521 0.80302 0.0
N1522 N 0.3869 0.5311 0.8953 0.0
N1523 N 0.38516 0.55489 0.82571 0.0
H1524 H 0.4572 0.33954 0.77813 0.0
H1525 H 0.51621 0.38392 0.92752 0.0
H1526 H 0.52839 0.29907 0.82152 0.0
H1527 H 0.49715 0.44853 0.86773 0.0
H1528 H 0.50828 0.35027 0.89034 0.0
H1529 H 0.46266 0.37911 0.81059 0.0
C1530 C 0.47434 0.33928 0.79397 0.0
C1531 C 0.4921 0.31594 0.79752 0.0
C1532 C 0.50581 0.37184 0.88536 0.0
C1533 C 0.49761 0.36004 0.83483 0.0
C1534 C 0.51023 0.39108 0.9066 0.0
C1535 C 0.50802 0.41915 0.90061 0.0
C1536 C 0.49895 0.38054 0.85784 0.0
C1537 C 0.49944 0.42707 0.87316 0.0
C1538 C 0.47726 0.36165 0.81254 0.0
C1539 C 0.51396 0.31652 0.81836 0.0
N1540 N 0.49539 0.40782 0.85259 0.0
N1541 N 0.51568 0.33786 0.83653 0.0
H1542 H 0.62848 0.53881 0.77577 0.0
H1543 H 0.60196 0.48588 0.93333 0.0
H1544 H 0.6804 0.47505 0.81478 0.0
H1545 H 0.54722 0.54575 0.89124 0.0
H1546 H 0.62745 0.47745 0.88861 0.0
H1547 H 0.59579 0.53846 0.81669 0.0
C1548 C 0.63272 0.52447 0.79282 0.0
C1549 C 0.65695 0.50677 0.79166 0.0
C1550 C 0.60961 0.49217 0.8891 0.0
C1551 C 0.61993 0.50643 0.83885 0.0
C1552 C 0.59495 0.49691 0.9146 0.0
C1553 C 0.57286 0.517 0.91615 0.0
C1554 C 0.6021 0.50766 0.86507 0.0
C1555 C 0.56449 0.53044 0.89115 0.0
C1556 C 0.6141 0.52427 0.81618 0.0
C1557 C 0.66189 0.48897 0.81459 0.0
N1558 N 0.57939 0.5258 0.86676 0.0
N1559 N 0.64358 0.48933 0.83729 0.0
H1560 H 0.43889 0.33884 0.21111 0.0
H1561 H 0.56133 0.42314 0.12701 0.0
H1562 H 0.52935 0.34361 0.23659 0.0
H1563 H 0.47002 0.42434 0.10346 0.0
H1564 H 0.54943 0.39457 0.16764 0.0
H1565 H 0.44916 0.37046 0.17196 0.0
C1566 C 0.46096 0.34638 0.20829 0.0
C1567 C 0.48347 0.33801 0.22666 0.0
C1568 C 0.53192 0.40109 0.15369 0.0
C1569 C 0.49534 0.37444 0.18222 0.0
C1570 C 0.53872 0.41741 0.1304 0.0
C1571 C 0.51667 0.426 0.11164 0.0
C1572 C 0.50283 0.39301 0.1583 0.0
C1573 C 0.48771 0.41816 0.11736 0.0
C1574 C 0.46679 0.36449 0.18604 0.0
C1575 C 0.51149 0.34899 0.22255 0.0
N1576 N 0.48165 0.40194 0.14007 0.0
N1577 N 0.51665 0.36642 0.2007 0.0
H1578 H 0.70046 0.51653 0.19948 0.0
H1579 H 0.55313 0.49048 0.11893 0.0
H1580 H 0.63217 0.46884 0.23828 0.0
H1581 H 0.63455 0.50767 0.07675 0.0
H1582 H 0.58036 0.48003 0.16248 0.0
H1583 H 0.67534 0.51352 0.15453 0.0
C1584 C 0.68026 0.50529 0.19862 0.0
C1585 C 0.6684 0.49303 0.22284 0.0
C1586 C 0.59233 0.48523 0.14346 0.0
C1587 C 0.63922 0.48945 0.17098 0.0
C1588 C 0.57686 0.49083 0.11859 0.0
C1589 C 0.59184 0.49954 0.09436 0.0
C1590 C 0.62278 0.48915 0.144 0.0
C1591 C 0.62239 0.50068 0.09503 0.0
C1592 C 0.66588 0.50347 0.17277 0.0
C1593 C 0.64184 0.4789 0.22015 0.0
N1594 N 0.63687 0.496 0.11963 0.0
N1595 N 0.62791 0.47771 0.19471 0.0
H1596 H 0.51062 0.70863 0.23396 0.0
H1597 H 0.56156 0.61652 0.10181 0.0
H1598 H 0.59277 0.71864 0.19049 0.0
H1599 H 0.47289 0.61958 0.13328 0.0
H1600 H 0.57644 0.64732 0.1401 0.0
H1601 H 0.49993 0.66896 0.20372 0.0
C1602 C 0.5268 0.7019 0.21866 0.0
C1603 C 0.55265 0.71679 0.21475 0.0
C1604 C 0.55378 0.64105 0.13877 0.0
C1605 C 0.54041 0.67191 0.17972 0.0
C1606 C 0.54528 0.62341 0.11694 0.0
C1607 C 0.51587 0.61567 0.11412 0.0
C1608 C 0.53279 0.65087 0.15812 0.0
C1609 C 0.49575 0.62526 0.13441 0.0
C1610 C 0.52056 0.6795 0.20117 0.0
C1611 C 0.57263 0.70761 0.19419 0.0
N1612 N 0.50454 0.64241 0.15543 0.0
N1613 N 0.56601 0.68593 0.17733 0.0
H1614 H 0.33616 0.49754 0.20274 0.0
H1615 H 0.46804 0.55525 0.11856 0.0
H1616 H 0.36216 0.57925 0.22594 0.0
H1617 H 0.3925 0.51925 0.07899 0.0
H1618 H 0.43919 0.56199 0.16216 0.0
H1619 H 0.37008 0.49895 0.16284 0.0
C1620 C 0.34997 0.51533 0.20001 0.0
C1621 C 0.34655 0.53832 0.21741 0.0
C1622 C 0.42883 0.55346 0.14356 0.0
C1623 C 0.38452 0.54036 0.1717 0.0
C1624 C 0.44501 0.55009 0.11864 0.0
C1625 C 0.43228 0.53709 0.09525 0.0
C1626 C 0.40039 0.54291 0.14486 0.0
C1627 C 0.40285 0.52954 0.09662 0.0
C1628 C 0.36884 0.51633 0.17707 0.0
C1629 C 0.36453 0.56112 0.21293 0.0
N1630 N 0.38803 0.53203 0.12126 0.0
N1631 N 0.38272 0.56178 0.1901 0.0
H1632 H 0.79063 0.54791 0.71789 0.0
H1633 H 0.91283 0.46881 0.62978 0.0
H1634 H 0.78785 0.46154 0.69961 0.0
H1635 H 0.90909 0.55714 0.6359 0.0
H1636 H 0.86704 0.46617 0.65576 0.0
H1637 H 0.83175 0.55271 0.68508 0.0
C1638 C 0.79804 0.53019 0.70601 0.0
C1639 C 0.78602 0.50434 0.71115 0.0
C1640 C 0.87628 0.48613 0.65153 0.0
C1641 C 0.83367 0.50925 0.67498 0.0
C1642 C 0.90272 0.48768 0.63706 0.0
C1643 C 0.91481 0.51328 0.63046 0.0
C1644 C 0.8619 0.51032 0.65978 0.0
C1645 C 0.90057 0.53696 0.64044 0.0
C1646 C 0.82173 0.53281 0.68767 0.0
C1647 C 0.79654 0.48181 0.69588 0.0
N1648 N 0.87474 0.53491 0.6545 0.0
N1649 N 0.82019 0.48469 0.67878 0.0
H1650 H 0.58291 0.81805 0.69703 0.0
H1651 H 0.49499 0.90688 0.5818 0.0
H1652 H 0.48918 0.81413 0.68839 0.0
H1653 H 0.58523 0.91904 0.60577 0.0
H1654 H 0.49303 0.8673 0.61406 0.0
H1655 H 0.58494 0.84851 0.65603 0.0
C1656 C 0.56285 0.82301 0.68584 0.0
C1657 C 0.53592 0.81346 0.69573 0.0
C1658 C 0.51325 0.87861 0.61204 0.0
C1659 C 0.53777 0.84907 0.64943 0.0
C1660 C 0.5144 0.90119 0.59366 0.0
C1661 C 0.54027 0.91649 0.59119 0.0
C1662 C 0.53819 0.87128 0.62786 0.0
C1663 C 0.56475 0.90805 0.60698 0.0
C1664 C 0.56391 0.84063 0.66265 0.0
C1665 C 0.51039 0.82094 0.68104 0.0
N1666 N 0.56304 0.8862 0.62462 0.0
N1667 N 0.51186 0.83857 0.6587 0.0
H1668 H 0.27295 0.58376 0.65159 0.0
H1669 H 0.14357 0.48497 0.60098 0.0
H1670 H 0.26645 0.49913 0.67706 0.0
H1671 H 0.15356 0.56875 0.57337 0.0
H1672 H 0.18879 0.48912 0.62849 0.0
H1673 H 0.22915 0.57821 0.62247 0.0
C1674 C 0.26209 0.5641 0.65124 0.0
C1675 C 0.27296 0.54215 0.66726 0.0
C1676 C 0.18115 0.50651 0.61626 0.0
C1677 C 0.22305 0.53538 0.63371 0.0
C1678 C 0.15542 0.50413 0.60047 0.0
C1679 C 0.14471 0.52662 0.58501 0.0
C1680 C 0.19629 0.53151 0.61643 0.0
C1681 C 0.16084 0.55098 0.58522 0.0
C1682 C 0.23717 0.56087 0.63455 0.0
C1683 C 0.25851 0.51683 0.66552 0.0
N1684 N 0.18575 0.55278 0.60073 0.0
N1685 N 0.23419 0.51419 0.64918 0.0
H1686 H 0.4525 0.19456 0.70325 0.0
H1687 H 0.54727 0.14534 0.5704 0.0
H1688 H 0.49996 0.2494 0.64879 0.0
H1689 H 0.49018 0.09096 0.61584 0.0
H1690 H 0.52841 0.18384 0.59788 0.0
H1691 H 0.46516 0.15632 0.67161 0.0
C1692 C 0.46538 0.19851 0.68446 0.0
C1693 C 0.47479 0.22516 0.67826 0.0
C1694 C 0.51971 0.1636 0.60179 0.0
C1695 C 0.48964 0.18165 0.64223 0.0
C1696 C 0.53044 0.14163 0.58603 0.0
C1697 C 0.52022 0.11506 0.59092 0.0
C1698 C 0.499 0.15892 0.62318 0.0
C1699 C 0.49837 0.11126 0.61134 0.0
C1700 C 0.47256 0.17675 0.66642 0.0
C1701 C 0.49194 0.22919 0.65404 0.0
N1702 N 0.48873 0.13295 0.62706 0.0
N1703 N 0.49882 0.2077 0.63694 0.0
H1704 H 0.77075 0.54762 0.33582 0.0
H1705 H 0.89379 0.46458 0.41969 0.0
H1706 H 0.79605 0.46438 0.31729 0.0
H1707 H 0.8721 0.54949 0.43554 0.0
H1708 H 0.85129 0.46133 0.38867 0.0
H1709 H 0.80049 0.54582 0.37902 0.0
C1710 C 0.78177 0.52868 0.3415 0.0
C1711 C 0.78098 0.50605 0.32337 0.0
C1712 C 0.85557 0.48057 0.39926 0.0
C1713 C 0.81546 0.50395 0.37192 0.0
C1714 C 0.87983 0.48243 0.41703 0.0
C1715 C 0.88679 0.50749 0.42986 0.0
C1716 C 0.83816 0.50392 0.39428 0.0
C1717 C 0.86783 0.52988 0.42571 0.0
C1718 C 0.79895 0.52769 0.36592 0.0
C1719 C 0.79611 0.48214 0.33103 0.0
N1720 N 0.84457 0.52766 0.408 0.0
N1721 N 0.81303 0.48179 0.3546 0.0
H1722 H 0.48749 0.79771 0.34765 0.0
H1723 H 0.56857 0.92734 0.41581 0.0
H1724 H 0.57434 0.82193 0.32249 0.0
H1725 H 0.47621 0.9107 0.42405 0.0
H1726 H 0.57391 0.88569 0.38693 0.0
H1727 H 0.48584 0.83599 0.38088 0.0
C1728 C 0.50627 0.81108 0.34924 0.0
C1729 C 0.53094 0.8066 0.33218 0.0
C1730 C 0.55253 0.89121 0.39513 0.0
C1731 C 0.52932 0.85073 0.37029 0.0
C1732 C 0.54945 0.91493 0.41169 0.0
C1733 C 0.52179 0.92278 0.42216 0.0
C1734 C 0.52781 0.87519 0.38914 0.0
C1735 C 0.49791 0.90569 0.41634 0.0
C1736 C 0.50534 0.83297 0.36819 0.0
C1737 C 0.55478 0.82456 0.33514 0.0
N1738 N 0.50147 0.8829 0.40019 0.0
N1739 N 0.55334 0.84588 0.35379 0.0
H1740 H 0.245 0.57067 0.32838 0.0
H1741 H 0.11793 0.47678 0.38723 0.0
H1742 H 0.25231 0.48268 0.33373 0.0
H1743 H 0.10881 0.56378 0.3725 0.0
H1744 H 0.16403 0.4771 0.36132 0.0
H1745 H 0.19307 0.5675 0.33954 0.0
C1746 C 0.23554 0.55063 0.33164 0.0
C1747 C 0.25279 0.52683 0.32956 0.0
C1748 C 0.15163 0.49601 0.3632 0.0
C1749 C 0.19342 0.52306 0.34318 0.0
C1750 C 0.12511 0.49584 0.37783 0.0
C1751 C 0.10977 0.52047 0.38265 0.0
C1752 C 0.16282 0.52096 0.35334 0.0
C1753 C 0.12016 0.54441 0.36979 0.0
C1754 C 0.20585 0.5488 0.33796 0.0
C1755 C 0.23958 0.50145 0.33468 0.0
N1756 N 0.14632 0.54415 0.35617 0.0
N1757 N 0.21067 0.50021 0.34144 0.0
H1758 H 0.54651 0.19684 0.29975 0.0
H1759 H 0.47055 0.14668 0.44103 0.0
H1760 H 0.47511 0.23966 0.34022 0.0
H1761 H 0.54293 0.10428 0.40174 0.0
H1762 H 0.47902 0.18599 0.41022 0.0
H1763 H 0.55223 0.16815 0.34175 0.0
C1764 C 0.53233 0.20045 0.31776 0.0
C1765 C 0.50997 0.2203 0.31643 0.0
C1766 C 0.49339 0.16833 0.40853 0.0
C1767 C 0.5162 0.18737 0.36451 0.0
C1768 C 0.48859 0.14592 0.42614 0.0
C1769 C 0.50581 0.12217 0.4235 0.0
C1770 C 0.51515 0.16673 0.38762 0.0
C1771 C 0.52913 0.12224 0.40427 0.0
C1772 C 0.53562 0.18409 0.34174 0.0
C1773 C 0.49249 0.22447 0.3404 0.0
N1774 N 0.53274 0.144 0.38657 0.0
N1775 N 0.49564 0.20779 0.36331 0.0
H1776 H 0.71486 0.83177 0.45174 0.0
H1777 H 0.59042 0.91757 0.53017 0.0
H1778 H 0.70279 0.81815 0.54099 0.0
H1779 H 0.65385 0.95059 0.4719 0.0
H1780 H 0.61785 0.87349 0.52975 0.0
H1781 H 0.676 0.86648 0.45289 0.0
C1782 C 0.70318 0.8354 0.47136 0.0
C1783 C 0.71183 0.82211 0.49626 0.0
C1784 C 0.62551 0.89054 0.51715 0.0
C1785 C 0.66793 0.86219 0.49791 0.0
C1786 C 0.61002 0.91558 0.5174 0.0
C1787 C 0.62012 0.93786 0.50129 0.0
C1788 C 0.65039 0.88776 0.49982 0.0
C1789 C 0.64547 0.93419 0.48497 0.0
C1790 C 0.68125 0.85534 0.47208 0.0
C1791 C 0.69645 0.82791 0.52134 0.0
N1792 N 0.65946 0.90966 0.48445 0.0
N1793 N 0.67537 0.84789 0.52168 0.0
H1794 H 0.70058 0.23152 0.54249 0.0
H1795 H 0.63989 0.09432 0.47752 0.0
H1796 H 0.715 0.20489 0.4567 0.0
H1797 H 0.58755 0.13594 0.54012 0.0
H1798 H 0.67359 0.13264 0.47699 0.0
H1799 H 0.66172 0.19682 0.5473 0.0
C1800 C 0.69478 0.21903 0.52441 0.0
C1801 C 0.71082 0.22088 0.49915 0.0
C1802 C 0.65502 0.13335 0.49125 0.0
C1803 C 0.66786 0.18091 0.50484 0.0
C1804 C 0.63614 0.11125 0.49197 0.0
C1805 C 0.61128 0.1119 0.50923 0.0
C1806 C 0.64913 0.15646 0.50795 0.0
C1807 C 0.60688 0.13459 0.52699 0.0
C1808 C 0.67294 0.19913 0.52727 0.0
C1809 C 0.70305 0.20402 0.47648 0.0
N1810 N 0.62567 0.15625 0.52587 0.0
N1811 N 0.68247 0.18447 0.48001 0.0
H1812 H 0.83495 0.72813 0.48798 0.0
H1813 H 0.87782 0.57139 0.51621 0.0
H1814 H 0.77506 0.66702 0.51858 0.0
H1815 H 0.94106 0.6334 0.49589 0.0
H1816 H 0.83829 0.60419 0.50653 0.0
H1817 H 0.87218 0.69227 0.48108 0.0
C1818 C 0.82949 0.7071 0.49278 0.0
C1819 C 0.80183 0.70053 0.50373 0.0
C1820 C 0.86075 0.61057 0.5036 0.0
C1821 C 0.84443 0.65942 0.49637 0.0
C1822 C 0.88327 0.59176 0.50886 0.0
C1823 C 0.91257 0.59977 0.50664 0.0
C1824 C 0.86761 0.63778 0.49656 0.0
C1825 C 0.91864 0.62647 0.49756 0.0
C1826 C 0.85076 0.68664 0.48892 0.0
C1827 C 0.79603 0.67297 0.50993 0.0
N1828 N 0.89633 0.64469 0.49319 0.0
N1829 N 0.81717 0.65351 0.50635 0.0
H1830 H 0.33369 0.80509 0.48028 0.0
H1831 H 0.40336 0.94251 0.54128 0.0
H1832 H 0.30619 0.8456 0.55688 0.0
H1833 H 0.45026 0.89327 0.4802 0.0
H1834 H 0.3658 0.90773 0.5438 0.0
H1835 H 0.3759 0.83645 0.47749 0.0
C1836 C 0.33693 0.82016 0.49679 0.0
C1837 C 0.31644 0.82293 0.51878 0.0
C1838 C 0.3842 0.90442 0.52973 0.0
C1839 C 0.36388 0.85897 0.51545 0.0
C1840 C 0.40561 0.92449 0.52806 0.0
C1841 C 0.43006 0.92089 0.51045 0.0
C1842 C 0.38677 0.88048 0.51341 0.0
C1843 C 0.43179 0.89683 0.49411 0.0
C1844 C 0.36081 0.83813 0.49509 0.0
C1845 C 0.32136 0.84294 0.53947 0.0
N1846 N 0.41034 0.87752 0.49588 0.0
N1847 N 0.34432 0.86026 0.53715 0.0
H1848 H 0.19124 0.30582 0.49894 0.0
H1849 H 0.13493 0.45634 0.53967 0.0
H1850 H 0.23474 0.35863 0.55856 0.0
H1851 H 0.09516 0.40688 0.47463 0.0
H1852 H 0.16734 0.4181 0.55151 0.0
H1853 H 0.1525 0.34028 0.49356 0.0
C1854 C 0.19277 0.32477 0.51074 0.0
C1855 C 0.2168 0.32983 0.52851 0.0
C1856 C 0.1514 0.41551 0.53478 0.0
C1857 C 0.17205 0.369 0.52309 0.0
C1858 C 0.1328 0.43733 0.52805 0.0
C1859 C 0.11265 0.43497 0.50578 0.0
C1860 C 0.15 0.39115 0.51901 0.0
C1861 C 0.11057 0.40969 0.49177 0.0
C1862 C 0.17053 0.34436 0.5078 0.0
C1863 C 0.21703 0.35431 0.54403 0.0
N1864 N 0.1293 0.38887 0.49838 0.0
N1865 N 0.19515 0.37305 0.54083 0.0
H1866 H 0.31318 0.20898 0.55851 0.0
H1867 H 0.42976 0.11929 0.47035 0.0
H1868 H 0.31832 0.21471 0.46776 0.0
H1869 H 0.40661 0.10855 0.55816 0.0
H1870 H 0.39414 0.15777 0.46769 0.0
H1871 H 0.35482 0.17754 0.55829 0.0
C1872 C 0.3238 0.20418 0.5386 0.0
C1873 C 0.31267 0.21451 0.51319 0.0
C1874 C 0.39701 0.14682 0.48744 0.0
C1875 C 0.35956 0.17747 0.51239 0.0
C1876 C 0.41708 0.12477 0.48886 0.0
C1877 C 0.42129 0.11078 0.51454 0.0
C1878 C 0.38133 0.15465 0.51188 0.0
C1879 C 0.40446 0.11888 0.53798 0.0
C1880 C 0.34731 0.18592 0.53833 0.0
C1881 C 0.32668 0.20726 0.48779 0.0
N1882 N 0.38548 0.14014 0.53607 0.0
N1883 N 0.34929 0.18884 0.48793 0.0
H1884 H 0.81423 0.32207 0.52765 0.0
H1885 H 0.91299 0.44193 0.46889 0.0
H1886 H 0.81015 0.34979 0.44097 0.0
H1887 H 0.92798 0.40242 0.5493 0.0
H1888 H 0.87848 0.40594 0.45644 0.0
H1889 H 0.85806 0.34917 0.53463 0.0
C1890 C 0.82268 0.3336 0.50991 0.0
C1891 C 0.80845 0.3336 0.48353 0.0
C1892 C 0.88962 0.40489 0.47664 0.0
C1893 C 0.85872 0.3651 0.49167 0.0
C1894 C 0.90933 0.42545 0.48376 0.0
C1895 C 0.92299 0.42539 0.51034 0.0
C1896 C 0.88318 0.38436 0.49646 0.0
C1897 C 0.91777 0.40335 0.52864 0.0
C1898 C 0.84787 0.34907 0.51394 0.0
C1899 C 0.8205 0.34923 0.46157 0.0
N1900 N 0.89786 0.38395 0.52156 0.0
N1901 N 0.8448 0.36455 0.46618 0.0
H1902 H 0.19446 0.73168 0.52296 0.0
H1903 H 0.14292 0.5765 0.50522 0.0
H1904 H 0.25263 0.66516 0.50107 0.0
H1905 H 0.08373 0.64526 0.51117 0.0
H1906 H 0.18407 0.60706 0.51548 0.0
H1907 H 0.15497 0.69898 0.52997 0.0
C1908 C 0.19913 0.71019 0.52012 0.0
C1909 C 0.22702 0.70125 0.51154 0.0
C1910 C 0.16204 0.61541 0.51515 0.0
C1911 C 0.18153 0.66349 0.51892 0.0
C1912 C 0.13859 0.59795 0.50956 0.0
C1913 C 0.11008 0.60852 0.50746 0.0
C1914 C 0.15687 0.64366 0.51843 0.0
C1915 C 0.10548 0.63643 0.51276 0.0
C1916 C 0.17647 0.69146 0.52401 0.0
C1917 C 0.23151 0.67298 0.5078 0.0
N1918 N 0.12869 0.65313 0.51774 0.0
N1919 N 0.20898 0.65515 0.51129 0.0
loop_
_geom_bond_atom_site_label_1
_geom_bond_atom_site_label_2
_geom_bond_distance
_geom_bond_site_symmetry_2
_ccdc_geom_bond_type
H0 C7 0.929 . S
H1 C10 0.930 . S
H2 C12 0.929 . S
H3 C4 0.969 . S
C4 H3 0.969 . S
C4 O5 1.550 . S
C4 H6 0.973 . S
O5 C4 1.550 . S
O5 C11 1.412 . S
H6 C4 0.973 . S
C7 H0 0.929 . S
C7 C8 1.400 . S
C7 C9 1.364 . S
C8 C7 1.400 . S
C8 C12 1.377 . S
C9 C7 1.364 . S
C9 C10 1.374 . S
C10 H1 0.930 . S
C10 C9 1.374 . S
C10 C11 1.383 . S
C11 O5 1.412 . S
C11 C10 1.383 . S
C11 C12 1.394 . S
C12 H2 0.929 . S
C12 C8 1.377 . S
C12 C11 1.394 . S
H13 C20 0.929 . S
H14 C23 0.930 . S
H15 C25 0.929 . S
H16 C17 0.969 . S
C17 H16 0.969 . S
C17 O18 1.550 . S
C17 H19 0.973 . S
O18 C17 1.550 . S
O18 C24 1.412 . S
H19 C17 0.973 . S
C20 H13 0.929 . S
C20 C21 1.400 . S
C20 C22 1.364 . S
C21 C20 1.400 . S
C21 C25 1.377 . S
C22 C20 1.364 . S
C22 C23 1.374 . S
C23 H14 0.930 . S
C23 C22 1.374 . S
C23 C24 1.383 . S
C24 O18 1.412 . S
C24 C23 1.383 . S
C24 C25 1.394 . S
C25 H15 0.929 . S
C25 C21 1.377 . S
C25 C24 1.394 . S
H26 C33 0.929 . S
H27 C36 0.930 . S
H28 C38 0.929 . S
H29 C30 0.966 1_655 S
C30 H29 0.966 1_455 S
C30 O31 1.550 . S
C30 H32 0.973 . S
O31 C30 1.550 . S
O31 C37 1.412 . S
H32 C30 0.973 . S
C33 H26 0.929 . S
C33 C34 1.400 . S
C33 C35 1.364 . S
C34 C33 1.400 . S
C34 C38 1.377 . S
C35 C33 1.364 . S
C35 C36 1.374 . S
C36 H27 0.930 . S
C36 C35 1.374 . S
C36 C37 1.383 . S
C37 O31 1.412 . S
C37 C36 1.383 . S
C37 C38 1.394 . S
C38 H28 0.929 . S
C38 C34 1.377 . S
C38 C37 1.394 . S
H39 C46 0.929 . S
H40 C49 0.930 . S
H41 C51 0.929 . S
H42 C43 0.969 . S
C43 H42 0.969 . S
C43 O44 1.550 1_545 S
C43 H45 0.973 1_545 S
O44 C43 1.550 1_565 S
O44 C50 1.412 1_565 S
H45 C43 0.973 1_565 S
C46 H39 0.929 . S
C46 C47 1.400 . S
C46 C48 1.364 . S
C47 C46 1.400 . S
C47 C51 1.377 . S
C48 C46 1.364 . S
C48 C49 1.374 . S
C49 H40 0.930 . S
C49 C48 1.374 . S
C49 C50 1.383 . S
C50 O44 1.412 1_545 S
C50 C49 1.383 . S
C50 C51 1.394 . S
C51 H41 0.929 . S
C51 C47 1.377 . S
C51 C50 1.394 . S
H52 C59 0.930 . S
H53 C62 0.930 . S
H54 C64 0.928 . S
H55 C56 0.969 . S
C56 H55 0.969 . S
C56 O57 1.550 1_655 S
C56 H58 0.973 1_655 S
O57 C56 1.550 1_455 S
O57 C63 1.402 1_455 S
H58 C56 0.973 1_455 S
C59 H52 0.930 . S
C59 C60 1.400 . S
C59 C61 1.364 . S
C60 C59 1.400 . S
C60 C64 1.377 . S
C61 C59 1.364 . S
C61 C62 1.374 . S
C62 H53 0.930 . S
C62 C61 1.374 . S
C62 C63 1.382 1_455 S
C63 O57 1.402 1_655 S
C63 C62 1.382 1_655 S
C63 C64 1.393 1_655 S
C64 H54 0.928 . S
C64 C60 1.377 . S
C64 C63 1.393 1_455 S
H65 C72 0.929 . S
H66 C75 0.930 . S
H67 C77 0.929 . S
H68 C69 0.966 1_565 S
C69 H68 0.966 1_545 S
C69 O70 1.551 . S
C69 H71 0.974 . S
O70 C69 1.551 . S
O70 C76 1.412 . S
H71 C69 0.974 . S
C72 H65 0.929 . S
C72 C73 1.400 . S
C72 C74 1.364 . S
C73 C72 1.400 . S
C73 C77 1.377 . S
C74 C72 1.364 . S
C74 C75 1.374 . S
C75 H66 0.930 . S
C75 C74 1.374 . S
C75 C76 1.383 . S
C76 O70 1.412 . S
C76 C75 1.383 . S
C76 C77 1.394 . S
C77 H67 0.929 . S
C77 C73 1.377 . S
C77 C76 1.394 . S
H78 C85 0.929 . S
H79 C88 0.930 . S
H80 C90 0.929 . S
H81 C82 0.933 1_655 S
C82 H81 0.933 1_455 S
C82 O83 1.550 . S
C82 H84 0.973 . S
O83 C82 1.550 . S
O83 C89 1.412 . S
H84 C82 0.973 . S
C85 H78 0.929 . S
C85 C86 1.400 . S
C85 C87 1.364 . S
C86 C85 1.400 . S
C86 C90 1.377 . S
C87 C85 1.364 . S
C87 C88 1.374 . S
C88 H79 0.930 . S
C88 C87 1.374 . S
C88 C89 1.383 . S
C89 O83 1.412 . S
C89 C88 1.383 . S
C89 C90 1.394 . S
C90 H80 0.929 . S
C90 C86 1.377 . S
C90 C89 1.394 . S
H91 C98 0.929 . S
H92 C101 0.930 . S
H93 C103 0.929 . S
H94 C95 0.969 . S
C95 H94 0.969 . S
C95 O96 1.550 . S
C95 H97 0.973 . S
O96 C95 1.550 . S
O96 C102 1.412 . S
H97 C95 0.973 . S
C98 H91 0.929 . S
C98 C99 1.400 . S
C98 C100 1.364 . S
C99 C98 1.400 . S
C99 C103 1.377 . S
C100 C98 1.364 . S
C100 C101 1.374 . S
C101 H92 0.930 . S
C101 C100 1.374 . S
C101 C102 1.383 . S
C102 O96 1.412 . S
C102 C101 1.383 . S
C102 C103 1.394 . S
C103 H93 0.929 . S
C103 C99 1.377 . S
C103 C102 1.394 . S
H104 C111 0.929 . S
H105 C114 0.930 . S
H106 C116 0.929 . S
H107 C108 0.969 . S
C108 H107 0.969 . S
C108 O109 1.550 . S
C108 H110 0.973 . S
O109 C108 1.550 . S
O109 C115 1.412 . S
H110 C108 0.973 . S
C111 H104 0.929 . S
C111 C112 1.400 . S
C111 C113 1.364 . S
C112 C111 1.400 . S
C112 C116 1.377 . S
C113 C111 1.364 . S
C113 C114 1.374 . S
C114 H105 0.930 . S
C114 C113 1.374 . S
C114 C115 1.383 . S
C115 O109 1.412 . S
C115 C114 1.383 . S
C115 C116 1.394 . S
C116 H106 0.929 . S
C116 C112 1.377 . S
C116 C115 1.394 . S
H117 C124 0.929 . S
H118 C127 0.930 . S
H119 C129 0.929 . S
H120 C121 0.969 1_556 S
C121 H120 0.969 1_554 S
C121 O122 1.550 . S
C121 H123 0.973 . S
O122 C121 1.550 . S
O122 C128 1.412 . S
H123 C121 0.973 . S
C124 H117 0.929 . S
C124 C125 1.400 . S
C124 C126 1.364 . S
C125 C124 1.400 . S
C125 C129 1.377 . S
C126 C124 1.364 . S
C126 C127 1.374 . S
C127 H118 0.930 . S
C127 C126 1.374 . S
C127 C128 1.383 . S
C128 O122 1.412 . S
C128 C127 1.383 . S
C128 C129 1.394 . S
C129 H119 0.929 . S
C129 C125 1.377 . S
C129 C128 1.394 . S
H130 C137 0.928 . S
H131 C140 0.933 . S
H132 C142 0.928 . S
H133 C134 0.969 . S
C134 H133 0.969 . S
C134 O135 1.550 1_556 S
C134 H136 0.973 1_556 S
O135 C134 1.550 1_554 S
O135 C141 1.410 1_554 S
H136 C134 0.973 1_554 S
C137 H130 0.928 . S
C137 C138 1.399 . S
C137 C139 1.364 . S
C138 C137 1.399 . S
C138 C142 1.377 . S
C139 C137 1.364 . S
C139 C140 1.374 . S
C140 H131 0.933 . S
C140 C139 1.374 . S
C140 C141 1.382 1_554 S
C141 O135 1.410 1_556 S
C141 C140 1.382 1_556 S
C141 C142 1.394 1_556 S
C142 H132 0.928 . S
C142 C138 1.377 . S
C142 C141 1.394 1_554 S
H143 C150 0.929 . S
H144 C153 0.930 . S
H145 C155 0.929 . S
H146 C147 0.969 . S
C147 H146 0.969 . S
C147 O148 1.550 1_554 S
C147 H149 0.973 1_554 S
O148 C147 1.550 1_556 S
O148 C154 1.412 1_556 S
H149 C147 0.973 1_556 S
C150 H143 0.929 . S
C150 C151 1.400 . S
C150 C152 1.364 . S
C151 C150 1.400 . S
C151 C155 1.377 . S
C152 C150 1.364 . S
C152 C153 1.374 . S
C153 H144 0.930 . S
C153 C152 1.374 . S
C153 C154 1.383 . S
C154 O148 1.412 1_554 S
C154 C153 1.383 . S
C154 C155 1.394 . S
C155 H145 0.929 . S
C155 C151 1.377 . S
C155 C154 1.394 . S
H156 C163 0.929 . S
H157 C166 0.930 . S
H158 C168 0.929 . S
H159 C160 0.969 . S
C160 H159 0.969 . S
C160 O161 1.550 . S
C160 H162 0.973 . S
O161 C160 1.550 . S
O161 C167 1.412 . S
H162 C160 0.973 . S
C163 H156 0.929 . S
C163 C164 1.400 . S
C163 C165 1.364 . S
C164 C163 1.400 . S
C164 C168 1.377 . S
C165 C163 1.364 . S
C165 C166 1.374 . S
C166 H157 0.930 . S
C166 C165 1.374 . S
C166 C167 1.383 . S
C167 O161 1.412 . S
C167 C166 1.383 . S
C167 C168 1.394 . S
C168 H158 0.929 . S
C168 C164 1.377 . S
C168 C167 1.394 . S
H169 C176 0.929 . S
H170 C179 0.930 . S
H171 C181 0.929 . S
H172 C173 0.969 . S
C173 H172 0.969 . S
C173 O174 1.550 . S
C173 H175 0.973 . S
O174 C173 1.550 . S
O174 C180 1.412 . S
H175 C173 0.973 . S
C176 H169 0.929 . S
C176 C177 1.400 . S
C176 C178 1.364 . S
C177 C176 1.400 . S
C177 C181 1.377 . S
C178 C176 1.364 . S
C178 C179 1.374 . S
C179 H170 0.930 . S
C179 C178 1.374 . S
C179 C180 1.383 . S
C180 O174 1.412 . S
C180 C179 1.383 . S
C180 C181 1.394 . S
C181 H171 0.929 . S
C181 C177 1.377 . S
C181 C180 1.394 . S
H182 C189 0.929 . S
H183 C192 0.930 . S
H184 C194 0.929 . S
H185 C186 0.969 . S
C186 H185 0.969 . S
C186 O187 1.550 . S
C186 H188 0.973 . S
O187 C186 1.550 . S
O187 C193 1.412 . S
H188 C186 0.973 . S
C189 H182 0.929 . S
C189 C190 1.400 . S
C189 C191 1.364 . S
C190 C189 1.400 . S
C190 C194 1.377 . S
C191 C189 1.364 . S
C191 C192 1.374 . S
C192 H183 0.930 . S
C192 C191 1.374 . S
C192 C193 1.383 . S
C193 O187 1.412 . S
C193 C192 1.383 . S
C193 C194 1.394 . S
C194 H184 0.929 . S
C194 C190 1.377 . S
C194 C193 1.394 . S
H195 C202 0.929 . S
H196 C205 0.930 . S
H197 C207 0.929 . S
H198 C199 0.969 . S
C199 H198 0.969 . S
C199 O200 1.550 . S
C199 H201 0.973 . S
O200 C199 1.550 . S
O200 C206 1.412 . S
H201 C199 0.973 . S
C202 H195 0.929 . S
C202 C203 1.400 . S
C202 C204 1.364 . S
C203 C202 1.400 . S
C203 C207 1.377 . S
C204 C202 1.364 . S
C204 C205 1.374 . S
C205 H196 0.930 . S
C205 C204 1.374 . S
C205 C206 1.383 . S
C206 O200 1.412 . S
C206 C205 1.383 . S
C206 C207 1.394 . S
C207 H197 0.929 . S
C207 C203 1.377 . S
C207 C206 1.394 . S
H208 C215 0.929 . S
H209 C218 0.930 . S
H210 C220 0.929 . S
H211 C212 0.969 . S
C212 H211 0.969 . S
C212 O213 1.550 . S
C212 H214 0.973 . S
O213 C212 1.550 . S
O213 C219 1.412 . S
H214 C212 0.973 . S
C215 H208 0.929 . S
C215 C216 1.400 . S
C215 C217 1.364 . S
C216 C215 1.400 . S
C216 C220 1.377 . S
C217 C215 1.364 . S
C217 C218 1.374 . S
C218 H209 0.930 . S
C218 C217 1.374 . S
C218 C219 1.383 . S
C219 O213 1.412 . S
C219 C218 1.383 . S
C219 C220 1.394 . S
C220 H210 0.929 . S
C220 C216 1.377 . S
C220 C219 1.394 . S
H221 C228 0.929 . S
H222 C231 0.930 . S
H223 C233 0.929 . S
H224 C225 0.969 . S
C225 H224 0.969 . S
C225 O226 1.550 . S
C225 H227 0.973 . S
O226 C225 1.550 . S
O226 C232 1.412 . S
H227 C225 0.973 . S
C228 H221 0.929 . S
C228 C229 1.400 . S
C228 C230 1.364 . S
C229 C228 1.400 . S
C229 C233 1.377 . S
C230 C228 1.364 . S
C230 C231 1.374 . S
C231 H222 0.930 . S
C231 C230 1.374 . S
C231 C232 1.383 . S
C232 O226 1.412 . S
C232 C231 1.383 . S
C232 C233 1.394 . S
C233 H223 0.929 . S
C233 C229 1.377 . S
C233 C232 1.394 . S
H234 C241 0.929 . S
H235 C244 0.930 . S
H236 C246 0.929 . S
H237 C238 0.969 . S
C238 H237 0.969 . S
C238 O239 1.550 . S
C238 H240 0.973 . S
O239 C238 1.550 . S
O239 C245 1.412 . S
H240 C238 0.973 . S
C241 H234 0.929 . S
C241 C242 1.400 . S
C241 C243 1.364 . S
C242 C241 1.400 . S
C242 C246 1.377 . S
C243 C241 1.364 . S
C243 C244 1.374 . S
C244 H235 0.930 . S
C244 C243 1.374 . S
C244 C245 1.383 . S
C245 O239 1.412 . S
C245 C244 1.383 . S
C245 C246 1.394 . S
C246 H236 0.929 . S
C246 C242 1.377 . S
C246 C245 1.394 . S
H247 C254 0.929 . S
H248 C257 0.930 . S
H249 C259 0.929 . S
H250 C251 0.969 . S
C251 H250 0.969 . S
C251 O252 1.550 . S
C251 H253 0.973 . S
O252 C251 1.550 . S
O252 C258 1.412 . S
H253 C251 0.973 . S
C254 H247 0.929 . S
C254 C255 1.400 . S
C254 C256 1.364 . S
C255 C254 1.400 . S
C255 C259 1.377 . S
C256 C254 1.364 . S
C256 C257 1.374 . S
C257 H248 0.930 . S
C257 C256 1.374 . S
C257 C258 1.383 . S
C258 O252 1.412 . S
C258 C257 1.383 . S
C258 C259 1.394 . S
C259 H249 0.929 . S
C259 C255 1.377 . S
C259 C258 1.394 . S
H260 C267 0.929 . S
H261 C270 0.930 . S
H262 C272 0.929 . S
H263 C264 0.969 . S
C264 H263 0.969 . S
C264 O265 1.550 . S
C264 H266 0.973 . S
O265 C264 1.550 . S
O265 C271 1.412 . S
H266 C264 0.973 . S
C267 H260 0.929 . S
C267 C268 1.400 . S
C267 C269 1.364 . S
C268 C267 1.400 . S
C268 C272 1.377 . S
C269 C267 1.364 . S
C269 C270 1.374 . S
C270 H261 0.930 . S
C270 C269 1.374 . S
C270 C271 1.383 . S
C271 O265 1.412 . S
C271 C270 1.383 . S
C271 C272 1.394 . S
C272 H262 0.929 . S
C272 C268 1.377 . S
C272 C271 1.394 . S
H273 C280 0.929 . S
H274 C283 0.930 . S
H275 C285 0.929 . S
H276 C277 0.969 . S
C277 H276 0.969 . S
C277 O278 1.550 . S
C277 H279 0.973 . S
O278 C277 1.550 . S
O278 C284 1.412 . S
H279 C277 0.973 . S
C280 H273 0.929 . S
C280 C281 1.400 . S
C280 C282 1.364 . S
C281 C280 1.400 . S
C281 C285 1.377 . S
C282 C280 1.364 . S
C282 C283 1.374 . S
C283 H274 0.930 . S
C283 C282 1.374 . S
C283 C284 1.383 . S
C284 O278 1.412 . S
C284 C283 1.383 . S
C284 C285 1.394 . S
C285 H275 0.929 . S
C285 C281 1.377 . S
C285 C284 1.394 . S
H286 C293 0.929 . S
H287 C296 0.930 . S
H288 C298 0.929 . S
H289 C290 0.969 . S
C290 H289 0.969 . S
C290 O291 1.550 . S
C290 H292 0.973 . S
O291 C290 1.550 . S
O291 C297 1.412 . S
H292 C290 0.973 . S
C293 H286 0.929 . S
C293 C294 1.400 . S
C293 C295 1.364 . S
C294 C293 1.400 . S
C294 C298 1.377 . S
C295 C293 1.364 . S
C295 C296 1.374 . S
C296 H287 0.930 . S
C296 C295 1.374 . S
C296 C297 1.383 . S
C297 O291 1.412 . S
C297 C296 1.383 . S
C297 C298 1.394 . S
C298 H288 0.929 . S
C298 C294 1.377 . S
C298 C297 1.394 . S
H299 C306 0.929 . S
H300 C309 0.930 . S
H301 C311 0.929 . S
H302 C303 0.969 . S
C303 H302 0.969 . S
C303 O304 1.550 . S
C303 H305 0.973 . S
O304 C303 1.550 . S
O304 C310 1.412 . S
H305 C303 0.973 . S
C306 H299 0.929 . S
C306 C307 1.400 . S
C306 C308 1.364 . S
C307 C306 1.400 . S
C307 C311 1.377 . S
C308 C306 1.364 . S
C308 C309 1.374 . S
C309 H300 0.930 . S
C309 C308 1.374 . S
C309 C310 1.383 . S
C310 O304 1.412 . S
C310 C309 1.383 . S
C310 C311 1.394 . S
C311 H301 0.929 . S
C311 C307 1.377 . S
C311 C310 1.394 . S
Zn312 O314 1.933 1_565 S
Zn312 O332 1.985 . S
Zn312 O343 1.955 . S
Zn313 O314 1.911 . S
Zn313 O333 1.970 . S
Zn313 O349 1.945 . S
Zn313 O356 1.981 . S
O314 Zn312 1.933 1_545 S
O314 Zn313 1.911 . S
O314 H315 0.841 1_655 S
H315 O314 0.841 1_455 S
C316 O317 1.246 . S
C316 O345 1.276 . S
O317 C316 1.246 . S
Zn318 O320 1.911 . S
Zn318 O335 1.970 . S
Zn318 O352 1.945 . S
Zn318 O359 1.981 . S
Zn319 O320 1.933 1_565 S
Zn319 O334 1.985 . S
Zn319 O341 1.955 . S
O320 Zn318 1.911 . S
O320 Zn319 1.933 1_545 S
O320 H321 0.841 . S
H321 O320 0.841 . S
Zn322 O323 1.933 1_565 S
Zn322 O336 1.985 . S
Zn322 O345 1.955 . S
O323 Zn322 1.933 1_545 S
O323 Zn324 1.911 . S
O323 H325 0.841 . S
Zn324 O323 1.911 . S
Zn324 O337 1.970 . S
Zn324 O353 1.981 . S
Zn324 O355 1.945 . S
H325 O323 0.841 . S
Zn326 O327 1.933 1_565 S
Zn326 O339 1.985 . S
Zn326 O347 1.955 . S
O327 Zn326 1.933 1_545 S
O327 H328 0.841 . S
O327 Zn329 1.911 . S
H328 O327 0.841 . S
Zn329 O327 1.911 . S
Zn329 O340 1.970 . S
Zn329 O350 1.981 . S
Zn329 O358 1.945 . S
C330 O331 1.246 . S
C330 O347 1.276 . S
O331 C330 1.246 . S
O332 Zn312 1.985 . S
O332 C342 1.245 1_565 S
O333 Zn313 1.970 . S
O333 C342 1.263 . S
O334 Zn319 1.985 . S
O334 C346 1.245 1_565 S
O335 Zn318 1.970 . S
O335 C346 1.263 . S
O336 Zn322 1.985 . S
O336 C351 1.245 1_565 S
O337 Zn324 1.970 . S
O337 C351 1.263 . S
C338 O349 1.262 1_455 S
C338 O350 1.245 . S
O339 Zn326 1.985 . S
O339 C357 1.245 1_565 S
O340 Zn329 1.970 . S
O340 C357 1.263 . S
O341 Zn319 1.955 . S
O341 C360 1.276 . S
C342 O332 1.245 1_545 S
C342 O333 1.263 . S
O343 Zn312 1.955 . S
O343 C362 1.276 1_655 S
C344 O352 1.262 . S
C344 O353 1.245 1_455 S
O345 C316 1.276 . S
O345 Zn322 1.955 . S
C346 O334 1.245 1_545 S
C346 O335 1.263 . S
O347 Zn326 1.955 . S
O347 C330 1.276 . S
C348 O355 1.262 . S
C348 O356 1.245 . S
O349 Zn313 1.945 . S
O349 C338 1.262 1_655 S
O350 Zn329 1.981 . S
O350 C338 1.245 . S
C351 O336 1.245 1_545 S
C351 O337 1.263 . S
O352 Zn318 1.945 . S
O352 C344 1.262 . S
O353 Zn324 1.981 . S
O353 C344 1.245 1_655 S
C354 O358 1.262 . S
C354 O359 1.245 . S
O355 Zn324 1.945 . S
O355 C348 1.262 . S
O356 Zn313 1.981 . S
O356 C348 1.245 . S
C357 O339 1.245 1_545 S
C357 O340 1.263 . S
O358 Zn329 1.945 . S
O358 C354 1.262 . S
O359 Zn318 1.981 . S
O359 C354 1.245 . S
C360 O341 1.276 . S
C360 O361 1.246 1_455 S
O361 C360 1.246 1_655 S
C362 O343 1.276 1_455 S
C362 O363 1.246 . S
O363 C362 1.246 . S
Zn364 O366 1.933 . S
Zn364 O384 1.985 . S
Zn364 O395 1.955 . S
Zn365 O366 1.911 1_556 S
Zn365 O385 1.970 . S
Zn365 O401 1.945 . S
Zn365 O408 1.981 . S
O366 Zn364 1.933 . S
O366 Zn365 1.911 1_554 S
O366 H367 0.841 . S
H367 O366 0.841 . S
C368 O369 1.246 . S
C368 O397 1.276 . S
O369 C368 1.246 . S
Zn370 O372 1.911 1_556 S
Zn370 O387 1.970 . S
Zn370 O404 1.945 . S
Zn370 O411 1.981 . S
Zn371 O372 1.933 . S
Zn371 O386 1.985 . S
Zn371 O393 1.955 . S
O372 Zn370 1.911 1_554 S
O372 Zn371 1.933 . S
O372 H373 0.841 1_565 S
H373 O372 0.841 1_545 S
Zn374 O375 1.933 . S
Zn374 O388 1.985 . S
Zn374 O397 1.955 . S
O375 Zn374 1.933 . S
O375 Zn376 1.911 1_554 S
O375 H377 0.841 . S
Zn376 O375 1.911 1_556 S
Zn376 O389 1.970 . S
Zn376 O405 1.981 . S
Zn376 O407 1.945 . S
H377 O375 0.841 . S
Zn378 O379 1.933 . S
Zn378 O391 1.985 . S
Zn378 O399 1.955 . S
O379 Zn378 1.933 . S
O379 H380 0.841 . S
O379 Zn381 1.911 1_554 S
H380 O379 0.841 . S
Zn381 O379 1.911 1_556 S
Zn381 O392 1.970 . S
Zn381 O402 1.981 1_565 S
Zn381 O410 1.945 . S
C382 O383 1.246 . S
C382 O399 1.276 . S
O383 C382 1.246 . S
O384 Zn364 1.985 . S
O384 C394 1.245 . S
O385 Zn365 1.970 . S
O385 C394 1.263 1_556 S
O386 Zn371 1.985 . S
O386 C398 1.245 . S
O387 Zn370 1.970 . S
O387 C398 1.263 1_556 S
O388 Zn374 1.985 . S
O388 C403 1.245 . S
O389 Zn376 1.970 . S
O389 C403 1.263 1_556 S
C390 O401 1.262 . S
C390 O402 1.245 . S
O391 Zn378 1.985 . S
O391 C409 1.245 . S
O392 Zn381 1.970 . S
O392 C409 1.263 1_556 S
O393 Zn371 1.955 . S
O393 C412 1.276 1_565 S
C394 O384 1.245 . S
C394 O385 1.263 1_554 S
O395 Zn364 1.955 . S
O395 C414 1.276 . S
C396 O404 1.262 1_545 S
C396 O405 1.245 . S
O397 C368 1.276 . S
O397 Zn374 1.955 . S
C398 O386 1.245 . S
C398 O387 1.263 1_554 S
O399 Zn378 1.955 . S
O399 C382 1.276 . S
C400 O407 1.262 . S
C400 O408 1.245 . S
O401 Zn365 1.945 . S
O401 C390 1.262 . S
O402 Zn381 1.981 1_545 S
O402 C390 1.245 . S
C403 O388 1.245 . S
C403 O389 1.263 1_554 S
O404 Zn370 1.945 . S
O404 C396 1.262 1_565 S
O405 Zn376 1.981 . S
O405 C396 1.245 . S
C406 O410 1.262 . S
C406 O411 1.245 . S
O407 Zn376 1.945 . S
O407 C400 1.262 . S
O408 Zn365 1.981 . S
O408 C400 1.245 . S
C409 O391 1.245 . S
C409 O392 1.263 1_554 S
O410 Zn381 1.945 . S
O410 C406 1.262 . S
O411 Zn370 1.981 . S
O411 C406 1.245 . S
C412 O393 1.276 1_545 S
C412 O413 1.246 . S
O413 C412 1.246 . S
C414 O395 1.276 . S
C414 O415 1.252 . S
O415 C414 1.252 . S
Zn416 O418 1.933 1_655 S
Zn416 O436 1.985 . S
Zn416 O447 1.955 1_655 S
Zn417 O418 1.911 1_655 S
Zn417 O437 1.970 . S
Zn417 O453 1.945 . S
Zn417 O460 1.981 . S
O418 Zn416 1.933 1_455 S
O418 Zn417 1.911 1_455 S
O418 H419 0.841 . S
H419 O418 0.841 . S
C420 O421 1.246 1_554 S
C420 O449 1.276 . S
O421 C420 1.246 1_556 S
Zn422 O424 1.911 . S
Zn422 O439 1.970 . S
Zn422 O456 1.945 . S
Zn422 O463 1.981 . S
Zn423 O424 1.933 . S
Zn423 O438 1.985 . S
Zn423 O445 1.955 . S
O424 Zn422 1.911 . S
O424 Zn423 1.933 . S
O424 H425 0.841 . S
H425 O424 0.841 . S
Zn426 O427 1.933 . S
Zn426 O440 1.985 . S
Zn426 O449 1.955 . S
O427 Zn426 1.933 . S
O427 Zn428 1.911 . S
O427 H429 0.841 . S
Zn428 O427 1.911 . S
Zn428 O441 1.970 . S
Zn428 O457 1.981 1_655 S
Zn428 O459 1.945 . S
H429 O427 0.841 . S
Zn430 O431 1.933 . S
Zn430 O443 1.985 . S
Zn430 O451 1.955 . S
O431 Zn430 1.933 . S
O431 H432 0.841 1_556 S
O431 Zn433 1.911 . S
H432 O431 0.841 1_554 S
Zn433 O431 1.911 . S
Zn433 O444 1.970 . S
Zn433 O454 1.981 . S
Zn433 O462 1.945 . S
C434 O435 1.246 . S
C434 O451 1.276 1_554 S
O435 C434 1.246 . S
O436 Zn416 1.985 . S
O436 C446 1.245 . S
O437 Zn417 1.970 . S
O437 C446 1.263 . S
O438 Zn423 1.985 . S
O438 C450 1.245 . S
O439 Zn422 1.970 . S
O439 C450 1.263 . S
O440 Zn426 1.985 . S
O440 C455 1.245 . S
O441 Zn428 1.970 . S
O441 C455 1.263 . S
C442 O453 1.262 1_455 S
C442 O454 1.245 . S
O443 Zn430 1.985 . S
O443 C461 1.245 . S
O444 Zn433 1.970 . S
O444 C461 1.263 . S
O445 Zn423 1.955 . S
O445 C464 1.276 . S
C446 O436 1.245 . S
C446 O437 1.263 . S
O447 Zn416 1.955 1_455 S
O447 C466 1.276 . S
C448 O456 1.262 . S
C448 O457 1.245 . S
O449 C420 1.276 . S
O449 Zn426 1.955 . S
C450 O438 1.245 . S
C450 O439 1.263 . S
O451 Zn430 1.955 . S
O451 C434 1.276 1_556 S
C452 O459 1.262 . S
C452 O460 1.245 1_554 S
O453 Zn417 1.945 . S
O453 C442 1.262 1_655 S
O454 Zn433 1.981 . S
O454 C442 1.245 . S
C455 O440 1.245 . S
C455 O441 1.263 . S
O456 Zn422 1.945 . S
O456 C448 1.262 . S
O457 Zn428 1.981 1_455 S
O457 C448 1.245 . S
C458 O462 1.262 1_554 S
C458 O463 1.245 . S
O459 Zn428 1.945 . S
O459 C452 1.262 . S
O460 Zn417 1.981 . S
O460 C452 1.245 1_556 S
C461 O443 1.245 . S
C461 O444 1.263 . S
O462 Zn433 1.945 . S
O462 C458 1.262 1_556 S
O463 Zn422 1.981 . S
O463 C458 1.245 . S
C464 O445 1.276 . S
C464 O465 1.246 . S
O465 C464 1.246 . S
C466 O447 1.276 . S
C466 O467 1.246 . S
O467 C466 1.246 . S
Zn468 O470 1.933 1_556 S
Zn468 O488 1.985 . S
Zn468 O499 1.955 . S
Zn469 O470 1.911 . S
Zn469 O489 1.970 . S
Zn469 O505 1.945 . S
Zn469 O512 1.981 . S
O470 Zn468 1.933 1_554 S
O470 Zn469 1.911 . S
O470 H471 0.841 . S
H471 O470 0.841 . S
C472 O473 1.246 . S
C472 O501 1.276 . S
O473 C472 1.246 . S
Zn474 O476 1.911 . S
Zn474 O491 1.970 . S
Zn474 O508 1.945 . S
Zn474 O515 1.981 . S
Zn475 O476 1.933 1_556 S
Zn475 O490 1.985 . S
Zn475 O497 1.955 . S
O476 Zn474 1.911 . S
O476 Zn475 1.933 1_554 S
O476 H477 0.841 . S
H477 O476 0.841 . S
Zn478 O479 1.933 1_556 S
Zn478 O492 1.985 . S
Zn478 O501 1.955 . S
O479 Zn478 1.933 1_554 S
O479 Zn480 1.911 . S
O479 H481 0.841 . S
Zn480 O479 1.911 . S
Zn480 O493 1.970 . S
Zn480 O509 1.981 . S
Zn480 O511 1.945 . S
H481 O479 0.841 . S
Zn482 O483 1.933 1_556 S
Zn482 O495 1.985 . S
Zn482 O503 1.955 . S
O483 Zn482 1.933 1_554 S
O483 H484 0.841 . S
O483 Zn485 1.911 . S
H484 O483 0.841 . S
Zn485 O483 1.911 . S
Zn485 O496 1.970 . S
Zn485 O506 1.981 . S
Zn485 O514 1.945 . S
C486 O487 1.246 . S
C486 O503 1.276 . S
O487 C486 1.246 . S
O488 Zn468 1.985 . S
O488 C498 1.245 1_556 S
O489 Zn469 1.970 . S
O489 C498 1.263 . S
O490 Zn475 1.985 . S
O490 C502 1.245 1_556 S
O491 Zn474 1.970 . S
O491 C502 1.263 . S
O492 Zn478 1.985 . S
O492 C507 1.245 1_556 S
O493 Zn480 1.970 . S
O493 C507 1.263 . S
C494 O505 1.262 . S
C494 O506 1.245 . S
O495 Zn482 1.985 . S
O495 C513 1.245 1_556 S
O496 Zn485 1.970 . S
O496 C513 1.263 . S
O497 Zn475 1.955 . S
O497 C516 1.276 . S
C498 O488 1.245 1_554 S
C498 O489 1.263 . S
O499 Zn468 1.955 . S
O499 C518 1.276 . S
C500 O508 1.262 . S
C500 O509 1.245 . S
O501 C472 1.276 . S
O501 Zn478 1.955 . S
C502 O490 1.245 1_554 S
C502 O491 1.263 . S
O503 Zn482 1.955 . S
O503 C486 1.276 . S
C504 O511 1.262 . S
C504 O512 1.245 . S
O505 Zn469 1.945 . S
O505 C494 1.262 . S
O506 Zn485 1.981 . S
O506 C494 1.245 . S
C507 O492 1.245 1_554 S
C507 O493 1.263 . S
O508 Zn474 1.945 . S
O508 C500 1.262 . S
O509 Zn480 1.981 . S
O509 C500 1.245 . S
C510 O514 1.262 . S
C510 O515 1.245 . S
O511 Zn480 1.945 . S
O511 C504 1.262 . S
O512 Zn469 1.981 . S
O512 C504 1.245 . S
C513 O495 1.245 1_554 S
C513 O496 1.263 . S
O514 Zn485 1.945 . S
O514 C510 1.262 . S
O515 Zn474 1.981 . S
O515 C510 1.245 . S
C516 O497 1.276 . S
C516 O517 1.246 . S
O517 C516 1.246 . S
C518 O499 1.276 . S
C518 O519 1.246 . S
O519 C518 1.246 . S
Zn520 O522 1.933 . S
Zn520 O540 1.985 . S
Zn520 O551 1.957 . S
Zn521 O522 1.911 . S
Zn521 O541 1.970 . S
Zn521 O557 1.945 . S
Zn521 O564 1.981 . S
O522 Zn520 1.933 . S
O522 Zn521 1.911 . S
O522 H523 0.841 1_655 S
H523 O522 0.841 1_455 S
C524 O525 1.246 . S
C524 O553 1.276 . S
O525 C524 1.246 . S
Zn526 O528 1.911 . S
Zn526 O543 1.970 . S
Zn526 O560 1.945 . S
Zn526 O567 1.981 . S
Zn527 O528 1.933 . S
Zn527 O542 1.985 . S
Zn527 O549 1.955 . S
O528 Zn526 1.911 . S
O528 Zn527 1.933 . S
O528 H529 0.841 . S
H529 O528 0.841 . S
Zn530 O531 1.933 . S
Zn530 O544 1.985 . S
Zn530 O553 1.955 . S
O531 Zn530 1.933 . S
O531 Zn532 1.911 . S
O531 H533 0.841 . S
Zn532 O531 1.911 . S
Zn532 O545 1.970 . S
Zn532 O561 1.981 1_655 S
Zn532 O563 1.945 . S
H533 O531 0.841 . S
Zn534 O535 1.933 . S
Zn534 O547 1.985 . S
Zn534 O555 1.955 . S
O535 Zn534 1.933 . S
O535 H536 0.841 . S
O535 Zn537 1.911 . S
H536 O535 0.841 . S
Zn537 O535 1.911 . S
Zn537 O548 1.970 . S
Zn537 O558 1.981 . S
Zn537 O566 1.945 . S
C538 O539 1.246 . S
C538 O555 1.276 . S
O539 C538 1.246 . S
O540 Zn520 1.985 . S
O540 C550 1.245 . S
O541 Zn521 1.970 . S
O541 C550 1.263 . S
O542 Zn527 1.985 . S
O542 C554 1.245 . S
O543 Zn526 1.970 . S
O543 C554 1.263 . S
O544 Zn530 1.985 . S
O544 C559 1.245 . S
O545 Zn532 1.970 . S
O545 C559 1.263 . S
C546 O557 1.262 1_455 S
C546 O558 1.245 . S
O547 Zn534 1.985 . S
O547 C565 1.245 . S
O548 Zn537 1.970 . S
O548 C565 1.263 . S
O549 Zn527 1.955 . S
O549 C568 1.276 . S
C550 O540 1.245 . S
C550 O541 1.263 . S
O551 Zn520 1.957 . S
O551 C570 1.268 1_655 S
C552 O560 1.262 . S
C552 O561 1.245 . S
O553 C524 1.276 . S
O553 Zn530 1.955 . S
C554 O542 1.245 . S
C554 O543 1.263 . S
O555 Zn534 1.955 . S
O555 C538 1.276 . S
C556 O563 1.262 . S
C556 O564 1.245 . S
O557 Zn521 1.945 . S
O557 C546 1.262 1_655 S
O558 Zn537 1.981 . S
O558 C546 1.245 . S
C559 O544 1.245 . S
C559 O545 1.263 . S
O560 Zn526 1.945 . S
O560 C552 1.262 . S
O561 Zn532 1.981 1_455 S
O561 C552 1.245 . S
C562 O566 1.262 . S
C562 O567 1.245 . S
O563 Zn532 1.945 . S
O563 C556 1.262 . S
O564 Zn521 1.981 . S
O564 C556 1.245 . S
C565 O547 1.245 . S
C565 O548 1.263 . S
O566 Zn537 1.945 . S
O566 C562 1.262 . S
O567 Zn526 1.981 . S
O567 C562 1.245 . S
C568 O549 1.276 . S
C568 O569 1.246 . S
O569 C568 1.246 . S
C570 O551 1.268 1_455 S
C570 O571 1.246 . S
O571 C570 1.246 . S
Zn572 O574 1.933 1_565 S
Zn572 O592 1.985 . S
Zn572 O603 1.955 . S
Zn573 O574 1.911 . S
Zn573 O593 1.970 . S
Zn573 O609 1.945 . S
Zn573 O616 1.981 . S
O574 Zn572 1.933 1_545 S
O574 Zn573 1.911 . S
O574 H575 0.841 . S
H575 O574 0.841 . S
C576 O577 1.246 . S
C576 O605 1.276 . S
O577 C576 1.246 . S
Zn578 O580 1.911 . S
Zn578 O595 1.970 . S
Zn578 O612 1.945 . S
Zn578 O619 1.981 . S
Zn579 O580 1.933 1_565 S
Zn579 O594 1.985 . S
Zn579 O601 1.955 . S
O580 Zn578 1.911 . S
O580 Zn579 1.933 1_545 S
O580 H581 0.841 . S
H581 O580 0.841 . S
Zn582 O583 1.933 1_565 S
Zn582 O596 1.985 . S
Zn582 O605 1.955 . S
O583 Zn582 1.933 1_545 S
O583 Zn584 1.911 . S
O583 H585 0.841 . S
Zn584 O583 1.911 . S
Zn584 O597 1.970 . S
Zn584 O613 1.981 . S
Zn584 O615 1.945 . S
H585 O583 0.841 . S
Zn586 O587 1.933 1_565 S
Zn586 O599 1.985 . S
Zn586 O607 1.955 . S
O587 Zn586 1.933 1_545 S
O587 H588 0.841 . S
O587 Zn589 1.911 . S
H588 O587 0.841 . S
Zn589 O587 1.911 . S
Zn589 O600 1.970 . S
Zn589 O610 1.981 . S
Zn589 O618 1.945 . S
C590 O591 1.246 . S
C590 O607 1.276 . S
O591 C590 1.246 . S
O592 Zn572 1.985 . S
O592 C602 1.245 1_565 S
O593 Zn573 1.970 . S
O593 C602 1.263 . S
O594 Zn579 1.985 . S
O594 C606 1.245 1_565 S
O595 Zn578 1.970 . S
O595 C606 1.263 . S
O596 Zn582 1.985 . S
O596 C611 1.245 1_565 S
O597 Zn584 1.970 . S
O597 C611 1.263 . S
C598 O609 1.262 . S
C598 O610 1.245 . S
O599 Zn586 1.985 . S
O599 C617 1.245 1_565 S
O600 Zn589 1.970 . S
O600 C617 1.263 . S
O601 Zn579 1.955 . S
O601 C620 1.276 . S
C602 O592 1.245 1_545 S
C602 O593 1.263 . S
O603 Zn572 1.955 . S
O603 C622 1.276 . S
C604 O612 1.262 . S
C604 O613 1.245 . S
O605 C576 1.276 . S
O605 Zn582 1.955 . S
C606 O594 1.245 1_545 S
C606 O595 1.263 . S
O607 Zn586 1.955 . S
O607 C590 1.276 . S
C608 O615 1.262 . S
C608 O616 1.245 . S
O609 Zn573 1.945 . S
O609 C598 1.262 . S
O610 Zn589 1.981 . S
O610 C598 1.245 . S
C611 O596 1.245 1_545 S
C611 O597 1.263 . S
O612 Zn578 1.945 . S
O612 C604 1.262 . S
O613 Zn584 1.981 . S
O613 C604 1.245 . S
C614 O618 1.262 . S
C614 O619 1.245 . S
O615 Zn584 1.945 . S
O615 C608 1.262 . S
O616 Zn573 1.981 . S
O616 C608 1.245 . S
C617 O599 1.245 1_545 S
C617 O600 1.263 . S
O618 Zn589 1.945 . S
O618 C614 1.262 . S
O619 Zn578 1.981 . S
O619 C614 1.245 . S
C620 O601 1.276 . S
C620 O621 1.246 . S
O621 C620 1.246 . S
C622 O603 1.276 . S
C622 O623 1.246 . S
O623 C622 1.246 . S
H624 C630 0.930 . S
H625 C634 0.930 . S
H626 C639 0.929 . S
H627 C637 0.929 . S
H628 C632 0.929 . S
H629 C638 0.929 . S
C630 H624 0.930 . S
C630 C631 1.367 . S
C630 C638 1.378 . S
C631 C630 1.367 . S
C631 C639 1.433 . S
C632 H628 0.929 . S
C632 C634 1.378 . S
C632 C636 1.350 . S
C633 C636 1.463 . S
C633 C638 1.350 . S
C633 N641 1.427 . S
C634 H625 0.930 . S
C634 C632 1.378 . S
C634 C635 1.367 . S
C635 C634 1.367 . S
C635 C637 1.433 . S
C636 C632 1.350 . S
C636 C633 1.463 . S
C636 N640 1.427 . S
C637 H627 0.929 . S
C637 C635 1.433 . S
C637 N640 1.384 . S
C638 H629 0.929 . S
C638 C630 1.378 . S
C638 C633 1.350 . S
C639 H626 0.929 . S
C639 C631 1.433 . S
C639 N641 1.384 . S
N640 C636 1.427 . S
N640 C637 1.384 . S
N641 C633 1.427 . S
N641 C639 1.384 . S
H642 C648 0.930 . S
H643 C652 0.930 . S
H644 C657 0.929 . S
H645 C655 0.929 . S
H646 C650 0.929 . S
H647 C656 0.929 . S
C648 H642 0.930 . S
C648 C649 1.367 . S
C648 C656 1.378 . S
C649 C648 1.367 . S
C649 C657 1.433 . S
C650 H646 0.929 . S
C650 C652 1.378 . S
C650 C654 1.350 . S
C651 C654 1.463 . S
C651 C656 1.350 . S
C651 N659 1.427 . S
C652 H643 0.930 . S
C652 C650 1.378 . S
C652 C653 1.367 . S
C653 C652 1.367 . S
C653 C655 1.433 . S
C654 C650 1.350 . S
C654 C651 1.463 . S
C654 N658 1.427 . S
C655 H645 0.929 . S
C655 C653 1.433 . S
C655 N658 1.384 . S
C656 H647 0.929 . S
C656 C648 1.378 . S
C656 C651 1.350 . S
C657 H644 0.929 . S
C657 C649 1.433 . S
C657 N659 1.384 . S
N658 C654 1.427 . S
N658 C655 1.384 . S
N659 C651 1.427 . S
N659 C657 1.384 . S
H660 C666 0.930 . S
H661 C670 0.930 . S
H662 C675 0.929 . S
H663 C673 0.929 . S
H664 C668 0.929 . S
H665 C674 0.929 . S
C666 H660 0.930 . S
C666 C667 1.367 . S
C666 C674 1.378 . S
C667 C666 1.367 . S
C667 C675 1.433 . S
C668 H664 0.929 . S
C668 C670 1.378 . S
C668 C672 1.350 . S
C669 C672 1.463 . S
C669 C674 1.350 . S
C669 N677 1.427 . S
C670 H661 0.930 . S
C670 C668 1.378 . S
C670 C671 1.367 . S
C671 C670 1.367 . S
C671 C673 1.433 . S
C672 C668 1.350 . S
C672 C669 1.463 . S
C672 N676 1.427 . S
C673 H663 0.929 . S
C673 C671 1.433 . S
C673 N676 1.384 . S
C674 H665 0.929 . S
C674 C666 1.378 . S
C674 C669 1.350 . S
C675 H662 0.929 . S
C675 C667 1.433 . S
C675 N677 1.384 . S
N676 C672 1.427 . S
N676 C673 1.384 . S
N677 C669 1.427 . S
N677 C675 1.384 . S
H678 C684 0.930 . S
H679 C688 0.930 . S
H680 C693 0.929 . S
H681 C691 0.929 . S
H682 C686 0.929 . S
H683 C692 0.929 . S
C684 H678 0.930 . S
C684 C685 1.367 . S
C684 C692 1.378 . S
C685 C684 1.367 . S
C685 C693 1.433 . S
C686 H682 0.929 . S
C686 C688 1.378 . S
C686 C690 1.350 . S
C687 C690 1.463 . S
C687 C692 1.350 . S
C687 N695 1.427 . S
C688 H679 0.930 . S
C688 C686 1.378 . S
C688 C689 1.367 . S
C689 C688 1.367 . S
C689 C691 1.433 . S
C690 C686 1.350 . S
C690 C687 1.463 . S
C690 N694 1.427 . S
C691 H681 0.929 . S
C691 C689 1.433 . S
C691 N694 1.384 . S
C692 H683 0.929 . S
C692 C684 1.378 . S
C692 C687 1.350 . S
C693 H680 0.929 . S
C693 C685 1.433 . S
C693 N695 1.384 . S
N694 C690 1.427 . S
N694 C691 1.384 . S
N695 C687 1.427 . S
N695 C693 1.384 . S
H696 C702 0.930 . S
H697 C706 0.930 . S
H698 C711 0.929 . S
H699 C709 0.929 . S
H700 C704 0.929 . S
H701 C710 0.929 . S
C702 H696 0.930 . S
C702 C703 1.367 . S
C702 C710 1.378 . S
C703 C702 1.367 . S
C703 C711 1.433 . S
C704 H700 0.929 . S
C704 C706 1.378 . S
C704 C708 1.350 . S
C705 C708 1.463 . S
C705 C710 1.350 . S
C705 N713 1.427 . S
C706 H697 0.930 . S
C706 C704 1.378 . S
C706 C707 1.367 . S
C707 C706 1.367 . S
C707 C709 1.433 . S
C708 C704 1.350 . S
C708 C705 1.463 . S
C708 N712 1.427 . S
C709 H699 0.929 . S
C709 C707 1.433 . S
C709 N712 1.384 . S
C710 H701 0.929 . S
C710 C702 1.378 . S
C710 C705 1.350 . S
C711 H698 0.929 . S
C711 C703 1.433 . S
C711 N713 1.384 . S
N712 C708 1.427 . S
N712 C709 1.384 . S
N713 C705 1.427 . S
N713 C711 1.384 . S
H714 C720 0.930 . S
H715 C724 0.930 . S
H716 C729 0.929 . S
H717 C727 0.929 . S
H718 C722 0.929 . S
H719 C728 0.929 . S
C720 H714 0.930 . S
C720 C721 1.367 . S
C720 C728 1.378 . S
C721 C720 1.367 . S
C721 C729 1.433 . S
C722 H718 0.929 . S
C722 C724 1.378 . S
C722 C726 1.350 . S
C723 C726 1.463 . S
C723 C728 1.350 . S
C723 N731 1.427 . S
C724 H715 0.930 . S
C724 C722 1.378 . S
C724 C725 1.367 . S
C725 C724 1.367 . S
C725 C727 1.433 . S
C726 C722 1.350 . S
C726 C723 1.463 . S
C726 N730 1.427 . S
C727 H717 0.929 . S
C727 C725 1.433 . S
C727 N730 1.384 . S
C728 H719 0.929 . S
C728 C720 1.378 . S
C728 C723 1.350 . S
C729 H716 0.929 . S
C729 C721 1.433 . S
C729 N731 1.384 . S
N730 C726 1.427 . S
N730 C727 1.384 . S
N731 C723 1.427 . S
N731 C729 1.384 . S
H732 C738 0.930 . S
H733 C742 0.930 . S
H734 C747 0.929 . S
H735 C745 0.929 . S
H736 C740 0.929 . S
H737 C746 0.929 . S
C738 H732 0.930 . S
C738 C739 1.367 . S
C738 C746 1.378 . S
C739 C738 1.367 . S
C739 C747 1.433 . S
C740 H736 0.929 . S
C740 C742 1.378 . S
C740 C744 1.350 . S
C741 C744 1.463 . S
C741 C746 1.350 . S
C741 N749 1.427 . S
C742 H733 0.930 . S
C742 C740 1.378 . S
C742 C743 1.367 . S
C743 C742 1.367 . S
C743 C745 1.433 . S
C744 C740 1.350 . S
C744 C741 1.463 . S
C744 N748 1.427 . S
C745 H735 0.929 . S
C745 C743 1.433 . S
C745 N748 1.384 . S
C746 H737 0.929 . S
C746 C738 1.378 . S
C746 C741 1.350 . S
C747 H734 0.929 . S
C747 C739 1.433 . S
C747 N749 1.384 . S
N748 C744 1.427 . S
N748 C745 1.384 . S
N749 C741 1.427 . S
N749 C747 1.384 . S
H750 C756 0.930 . S
H751 C760 0.930 . S
H752 C765 0.929 . S
H753 C763 0.929 . S
H754 C758 0.929 . S
H755 C764 0.929 . S
C756 H750 0.930 . S
C756 C757 1.367 . S
C756 C764 1.378 . S
C757 C756 1.367 . S
C757 C765 1.433 . S
C758 H754 0.929 . S
C758 C760 1.378 . S
C758 C762 1.350 . S
C759 C762 1.463 . S
C759 C764 1.350 . S
C759 N767 1.427 . S
C760 H751 0.930 . S
C760 C758 1.378 . S
C760 C761 1.367 . S
C761 C760 1.367 . S
C761 C763 1.433 . S
C762 C758 1.350 . S
C762 C759 1.463 . S
C762 N766 1.427 . S
C763 H753 0.929 . S
C763 C761 1.433 . S
C763 N766 1.384 . S
C764 H755 0.929 . S
C764 C756 1.378 . S
C764 C759 1.350 . S
C765 H752 0.929 . S
C765 C757 1.433 . S
C765 N767 1.384 . S
N766 C762 1.427 . S
N766 C763 1.384 . S
N767 C759 1.427 . S
N767 C765 1.384 . S
H768 C774 0.930 . S
H769 C778 0.930 . S
H770 C783 0.929 . S
H771 C781 0.929 . S
H772 C776 0.929 . S
H773 C782 0.929 . S
C774 H768 0.930 . S
C774 C775 1.367 . S
C774 C782 1.378 . S
C775 C774 1.367 . S
C775 C783 1.433 . S
C776 H772 0.929 . S
C776 C778 1.378 . S
C776 C780 1.350 . S
C777 C780 1.463 . S
C777 C782 1.350 . S
C777 N785 1.427 . S
C778 H769 0.930 . S
C778 C776 1.378 . S
C778 C779 1.367 . S
C779 C778 1.367 . S
C779 C781 1.433 . S
C780 C776 1.350 . S
C780 C777 1.463 . S
C780 N784 1.427 . S
C781 H771 0.929 . S
C781 C779 1.433 . S
C781 N784 1.384 . S
C782 H773 0.929 . S
C782 C774 1.378 . S
C782 C777 1.350 . S
C783 H770 0.929 . S
C783 C775 1.433 . S
C783 N785 1.384 . S
N784 C780 1.427 . S
N784 C781 1.384 . S
N785 C777 1.427 . S
N785 C783 1.384 . S
H786 C792 0.930 . S
H787 C796 0.930 . S
H788 C801 0.929 . S
H789 C799 0.929 . S
H790 C794 0.929 . S
H791 C800 0.929 . S
C792 H786 0.930 . S
C792 C793 1.367 . S
C792 C800 1.378 . S
C793 C792 1.367 . S
C793 C801 1.433 . S
C794 H790 0.929 . S
C794 C796 1.378 . S
C794 C798 1.350 . S
C795 C798 1.463 . S
C795 C800 1.350 . S
C795 N803 1.427 . S
C796 H787 0.930 . S
C796 C794 1.378 . S
C796 C797 1.367 . S
C797 C796 1.367 . S
C797 C799 1.433 . S
C798 C794 1.350 . S
C798 C795 1.463 . S
C798 N802 1.427 . S
C799 H789 0.929 . S
C799 C797 1.433 . S
C799 N802 1.384 . S
C800 H791 0.929 . S
C800 C792 1.378 . S
C800 C795 1.350 . S
C801 H788 0.929 . S
C801 C793 1.433 . S
C801 N803 1.384 . S
N802 C798 1.427 . S
N802 C799 1.384 . S
N803 C795 1.427 . S
N803 C801 1.384 . S
H804 C810 0.930 . S
H805 C814 0.930 . S
H806 C819 0.929 . S
H807 C817 0.929 . S
H808 C812 0.929 . S
H809 C818 0.929 . S
C810 H804 0.930 . S
C810 C811 1.367 . S
C810 C818 1.378 . S
C811 C810 1.367 . S
C811 C819 1.433 . S
C812 H808 0.929 . S
C812 C814 1.378 . S
C812 C816 1.350 . S
C813 C816 1.463 . S
C813 C818 1.350 . S
C813 N821 1.427 . S
C814 H805 0.930 . S
C814 C812 1.378 . S
C814 C815 1.367 . S
C815 C814 1.367 . S
C815 C817 1.433 . S
C816 C812 1.350 . S
C816 C813 1.463 . S
C816 N820 1.427 . S
C817 H807 0.929 . S
C817 C815 1.433 . S
C817 N820 1.384 . S
C818 H809 0.929 . S
C818 C810 1.378 . S
C818 C813 1.350 . S
C819 H806 0.929 . S
C819 C811 1.433 . S
C819 N821 1.384 . S
N820 C816 1.427 . S
N820 C817 1.384 . S
N821 C813 1.427 . S
N821 C819 1.384 . S
H822 C828 0.930 . S
H823 C832 0.930 . S
H824 C837 0.929 . S
H825 C835 0.929 . S
H826 C830 0.929 . S
H827 C836 0.929 . S
C828 H822 0.930 . S
C828 C829 1.367 . S
C828 C836 1.378 . S
C829 C828 1.367 . S
C829 C837 1.433 . S
C830 H826 0.929 . S
C830 C832 1.378 . S
C830 C834 1.350 . S
C831 C834 1.463 . S
C831 C836 1.350 . S
C831 N839 1.427 . S
C832 H823 0.930 . S
C832 C830 1.378 . S
C832 C833 1.367 . S
C833 C832 1.367 . S
C833 C835 1.433 . S
C834 C830 1.350 . S
C834 C831 1.463 . S
C834 N838 1.427 . S
C835 H825 0.929 . S
C835 C833 1.433 . S
C835 N838 1.384 . S
C836 H827 0.929 . S
C836 C828 1.378 . S
C836 C831 1.350 . S
C837 H824 0.929 . S
C837 C829 1.433 . S
C837 N839 1.384 . S
N838 C834 1.427 . S
N838 C835 1.384 . S
N839 C831 1.427 . S
N839 C837 1.384 . S
H840 C846 0.930 . S
H841 C850 0.930 . S
H842 C855 0.929 . S
H843 C853 0.929 . S
H844 C848 0.929 . S
H845 C854 0.929 . S
C846 H840 0.930 . S
C846 C847 1.367 . S
C846 C854 1.378 . S
C847 C846 1.367 . S
C847 C855 1.433 1_554 S
C848 H844 0.929 . S
C848 C850 1.378 . S
C848 C852 1.350 1_556 S
C849 C852 1.463 . S
C849 C854 1.350 . S
C849 N857 1.427 1_554 S
C850 H841 0.930 . S
C850 C848 1.378 . S
C850 C851 1.367 1_556 S
C851 C850 1.367 1_554 S
C851 C853 1.433 . S
C852 C848 1.350 1_554 S
C852 C849 1.463 . S
C852 N856 1.427 . S
C853 H843 0.929 . S
C853 C851 1.433 . S
C853 N856 1.384 . S
C854 H845 0.929 . S
C854 C846 1.378 . S
C854 C849 1.350 . S
C855 H842 0.929 . S
C855 C847 1.433 1_556 S
C855 N857 1.384 . S
N856 C852 1.427 . S
N856 C853 1.384 . S
N857 C849 1.427 1_556 S
N857 C855 1.384 . S
H858 C864 0.930 . S
H859 C868 0.930 . S
H860 C873 0.929 . S
H861 C871 0.929 . S
H862 C866 0.929 . S
H863 C872 0.929 . S
C864 H858 0.930 . S
C864 C865 1.367 . S
C864 C872 1.378 . S
C865 C864 1.367 . S
C865 C873 1.433 1_554 S
C866 H862 0.929 . S
C866 C868 1.378 . S
C866 C870 1.350 1_556 S
C867 C870 1.463 . S
C867 C872 1.350 . S
C867 N875 1.427 1_554 S
C868 H859 0.930 . S
C868 C866 1.378 . S
C868 C869 1.367 1_556 S
C869 C868 1.367 1_554 S
C869 C871 1.433 . S
C870 C866 1.350 1_554 S
C870 C867 1.463 . S
C870 N874 1.427 . S
C871 H861 0.929 . S
C871 C869 1.433 . S
C871 N874 1.384 . S
C872 H863 0.929 . S
C872 C864 1.378 . S
C872 C867 1.350 . S
C873 H860 0.929 . S
C873 C865 1.433 1_556 S
C873 N875 1.384 . S
N874 C870 1.427 . S
N874 C871 1.384 . S
N875 C867 1.427 1_556 S
N875 C873 1.384 . S
H876 C882 0.930 . S
H877 C886 0.930 . S
H878 C891 0.929 . S
H879 C889 0.929 . S
H880 C884 0.929 . S
H881 C890 0.929 . S
C882 H876 0.930 . S
C882 C883 1.367 1_556 S
C882 C890 1.378 . S
C883 C882 1.367 1_554 S
C883 C891 1.433 . S
C884 H880 0.929 . S
C884 C886 1.378 . S
C884 C888 1.350 . S
C885 C888 1.463 . S
C885 C890 1.350 1_554 S
C885 N893 1.427 . S
C886 H877 0.930 . S
C886 C884 1.378 . S
C886 C887 1.367 . S
C887 C886 1.367 . S
C887 C889 1.433 1_554 S
C888 C884 1.350 . S
C888 C885 1.463 . S
C888 N892 1.427 1_554 S
C889 H879 0.929 . S
C889 C887 1.433 1_556 S
C889 N892 1.384 . S
C890 H881 0.929 . S
C890 C882 1.378 . S
C890 C885 1.350 1_556 S
C891 H878 0.929 . S
C891 C883 1.433 . S
C891 N893 1.384 . S
N892 C888 1.427 1_556 S
N892 C889 1.384 . S
N893 C885 1.427 . S
N893 C891 1.384 . S
H894 C900 0.930 . S
H895 C904 0.930 . S
H896 C909 0.929 . S
H897 C907 0.929 . S
H898 C902 0.929 . S
H899 C908 0.929 . S
C900 H894 0.930 . S
C900 C901 1.367 1_556 S
C900 C908 1.378 . S
C901 C900 1.367 1_554 S
C901 C909 1.433 . S
C902 H898 0.929 . S
C902 C904 1.378 . S
C902 C906 1.350 . S
C903 C906 1.463 . S
C903 C908 1.350 1_554 S
C903 N911 1.427 . S
C904 H895 0.930 . S
C904 C902 1.378 . S
C904 C905 1.367 . S
C905 C904 1.367 . S
C905 C907 1.433 1_554 S
C906 C902 1.350 . S
C906 C903 1.463 . S
C906 N910 1.427 1_554 S
C907 H897 0.929 . S
C907 C905 1.433 1_556 S
C907 N910 1.384 . S
C908 H899 0.929 . S
C908 C900 1.378 . S
C908 C903 1.350 1_556 S
C909 H896 0.929 . S
C909 C901 1.433 . S
C909 N911 1.384 . S
N910 C906 1.427 1_556 S
N910 C907 1.384 . S
N911 C903 1.427 . S
N911 C909 1.384 . S
H912 C918 0.930 . S
H913 C922 0.930 . S
H914 C927 0.929 . S
H915 C925 0.929 1_655 S
H916 C920 0.929 . S
H917 C926 0.929 . S
C918 H912 0.930 . S
C918 C919 1.367 1_655 S
C918 C926 1.378 . S
C919 C918 1.367 1_455 S
C919 C927 1.433 . S
C920 H916 0.929 . S
C920 C922 1.378 . S
C920 C924 1.350 . S
C921 C924 1.463 . S
C921 C926 1.350 1_455 S
C921 N929 1.427 . S
C922 H913 0.930 . S
C922 C920 1.378 . S
C922 C923 1.367 . S
C923 C922 1.367 . S
C923 C925 1.433 . S
C924 C920 1.350 . S
C924 C921 1.463 . S
C924 N928 1.427 . S
C925 H915 0.929 1_455 S
C925 C923 1.433 . S
C925 N928 1.384 . S
C926 H917 0.929 . S
C926 C918 1.378 . S
C926 C921 1.350 1_655 S
C927 H914 0.929 . S
C927 C919 1.433 . S
C927 N929 1.384 . S
N928 C924 1.427 . S
N928 C925 1.384 . S
N929 C921 1.427 . S
N929 C927 1.384 . S
H930 C936 0.930 . S
H931 C940 0.930 . S
H932 C945 0.929 . S
H933 C943 0.929 . S
H934 C938 0.929 . S
H935 C944 0.929 . S
C936 H930 0.930 . S
C936 C937 1.367 . S
C936 C944 1.378 . S
C937 C936 1.367 . S
C937 C945 1.433 1_545 S
C938 H934 0.929 . S
C938 C940 1.378 . S
C938 C942 1.350 1_565 S
C939 C942 1.463 . S
C939 C944 1.350 . S
C939 N947 1.427 1_545 S
C940 H931 0.930 . S
C940 C938 1.378 . S
C940 C941 1.367 1_565 S
C941 C940 1.367 1_545 S
C941 C943 1.433 . S
C942 C938 1.350 1_545 S
C942 C939 1.463 . S
C942 N946 1.427 . S
C943 H933 0.929 . S
C943 C941 1.433 . S
C943 N946 1.384 . S
C944 H935 0.929 . S
C944 C936 1.378 . S
C944 C939 1.350 . S
C945 H932 0.929 . S
C945 C937 1.433 1_565 S
C945 N947 1.384 . S
N946 C942 1.427 . S
N946 C943 1.384 . S
N947 C939 1.427 1_565 S
N947 C945 1.384 . S
H948 C954 0.930 1_655 S
H949 C958 0.930 . S
H950 C963 0.929 . S
H951 C961 0.929 . S
H952 C956 0.929 . S
H953 C962 0.922 1_655 S
C954 H948 0.930 1_455 S
C954 C955 1.367 . S
C954 C962 1.378 . S
C955 C954 1.367 . S
C955 C963 1.433 . S
C956 H952 0.929 . S
C956 C958 1.378 . S
C956 C960 1.350 . S
C957 C960 1.463 . S
C957 C962 1.357 . S
C957 N965 1.427 . S
C958 H949 0.930 . S
C958 C956 1.378 . S
C958 C959 1.367 . S
C959 C958 1.367 . S
C959 C961 1.433 1_455 S
C960 C956 1.350 . S
C960 C957 1.463 . S
C960 N964 1.427 1_455 S
C961 H951 0.929 . S
C961 C959 1.433 1_655 S
C961 N964 1.384 . S
C962 H953 0.922 1_455 S
C962 C954 1.378 . S
C962 C957 1.357 . S
C963 H950 0.929 . S
C963 C955 1.433 . S
C963 N965 1.384 . S
N964 C960 1.427 1_655 S
N964 C961 1.384 . S
N965 C957 1.427 . S
N965 C963 1.384 . S
H966 C972 0.930 . S
H967 C976 0.930 . S
H968 C981 0.929 1_565 S
H969 C979 0.929 . S
H970 C974 0.915 1_565 S
H971 C980 0.929 . S
C972 H966 0.930 . S
C972 C973 1.367 . S
C972 C980 1.378 . S
C973 C972 1.367 . S
C973 C981 1.433 . S
C974 H970 0.915 1_545 S
C974 C976 1.377 1_545 S
C974 C978 1.365 . S
C975 C978 1.463 . S
C975 C980 1.350 . S
C975 N983 1.427 . S
C976 H967 0.930 . S
C976 C974 1.377 1_565 S
C976 C977 1.367 1_565 S
C977 C976 1.367 1_545 S
C977 C979 1.433 . S
C978 C974 1.365 . S
C978 C975 1.463 . S
C978 N982 1.427 . S
C979 H969 0.929 . S
C979 C977 1.433 . S
C979 N982 1.384 . S
C980 H971 0.929 . S
C980 C972 1.378 . S
C980 C975 1.350 . S
C981 H968 0.929 1_545 S
C981 C973 1.433 . S
C981 N983 1.384 . S
N982 C978 1.427 . S
N982 C979 1.384 . S
N983 C975 1.427 . S
N983 C981 1.384 . S
H984 C990 0.930 . S
H985 C994 0.930 . S
H986 C999 0.929 . S
H987 C997 0.929 . S
H988 C992 0.929 . S
H989 C998 0.929 . S
C990 H984 0.930 . S
C990 C991 1.367 . S
C990 C998 1.378 . S
C991 C990 1.367 . S
C991 C999 1.433 . S
C992 H988 0.929 . S
C992 C994 1.378 . S
C992 C996 1.350 . S
C993 C996 1.463 . S
C993 C998 1.350 . S
C993 N1001 1.427 . S
C994 H985 0.930 . S
C994 C992 1.378 . S
C994 C995 1.367 . S
C995 C994 1.367 . S
C995 C997 1.433 . S
C996 C992 1.350 . S
C996 C993 1.463 . S
C996 N1000 1.427 . S
C997 H987 0.929 . S
C997 C995 1.433 . S
C997 N1000 1.384 . S
C998 H989 0.929 . S
C998 C990 1.378 . S
C998 C993 1.350 . S
C999 H986 0.929 . S
C999 C991 1.433 . S
C999 N1001 1.384 . S
N1000 C996 1.427 . S
N1000 C997 1.384 . S
N1001 C993 1.427 . S
N1001 C999 1.384 . S
H1002 C1008 0.930 . S
H1003 C1012 0.930 . S
H1004 C1017 0.929 . S
H1005 C1015 0.929 1_565 S
H1006 C1010 0.929 . S
H1007 C1016 0.937 . S
C1008 H1002 0.930 . S
C1008 C1009 1.367 . S
C1008 C1016 1.378 . S
C1009 C1008 1.367 . S
C1009 C1017 1.433 . S
C1010 H1006 0.929 . S
C1010 C1012 1.378 . S
C1010 C1014 1.350 . S
C1011 C1014 1.463 . S
C1011 C1016 1.350 . S
C1011 N1019 1.427 . S
C1012 H1003 0.930 . S
C1012 C1010 1.378 . S
C1012 C1013 1.367 . S
C1013 C1012 1.367 . S
C1013 C1015 1.433 . S
C1014 C1010 1.350 . S
C1014 C1011 1.463 . S
C1014 N1018 1.427 . S
C1015 H1005 0.929 1_545 S
C1015 C1013 1.433 . S
C1015 N1018 1.384 . S
C1016 H1007 0.937 . S
C1016 C1008 1.378 . S
C1016 C1011 1.350 . S
C1017 H1004 0.929 . S
C1017 C1009 1.433 . S
C1017 N1019 1.384 . S
N1018 C1014 1.427 . S
N1018 C1015 1.384 . S
N1019 C1011 1.427 . S
N1019 C1017 1.384 . S
H1020 C1026 0.930 . S
H1021 C1030 0.914 1_655 S
H1022 C1035 0.929 . S
H1023 C1033 0.929 . S
H1024 C1028 0.929 . S
H1025 C1034 0.929 . S
C1026 H1020 0.930 . S
C1026 C1027 1.367 . S
C1026 C1034 1.378 . S
C1027 C1026 1.367 . S
C1027 C1035 1.433 1_455 S
C1028 H1024 0.929 . S
C1028 C1030 1.378 1_655 S
C1028 C1032 1.349 1_655 S
C1029 C1032 1.463 . S
C1029 C1034 1.350 . S
C1029 N1037 1.427 1_455 S
C1030 H1021 0.914 1_455 S
C1030 C1028 1.378 1_455 S
C1030 C1031 1.383 . S
C1031 C1030 1.383 . S
C1031 C1033 1.433 . S
C1032 C1028 1.349 1_455 S
C1032 C1029 1.463 . S
C1032 N1036 1.427 . S
C1033 H1023 0.929 . S
C1033 C1031 1.433 . S
C1033 N1036 1.384 . S
C1034 H1025 0.929 . S
C1034 C1026 1.378 . S
C1034 C1029 1.350 . S
C1035 H1022 0.929 . S
C1035 C1027 1.433 1_655 S
C1035 N1037 1.384 . S
N1036 C1032 1.427 . S
N1036 C1033 1.384 . S
N1037 C1029 1.427 1_655 S
N1037 C1035 1.384 . S
H1038 C1044 0.930 . S
H1039 C1048 0.930 . S
H1040 C1053 0.929 . S
H1041 C1051 0.929 . S
H1042 C1046 0.929 . S
H1043 C1052 0.929 . S
C1044 H1038 0.930 . S
C1044 C1045 1.367 1_565 S
C1044 C1052 1.378 . S
C1045 C1044 1.367 1_545 S
C1045 C1053 1.433 . S
C1046 H1042 0.929 . S
C1046 C1048 1.378 . S
C1046 C1050 1.350 . S
C1047 C1050 1.463 . S
C1047 C1052 1.350 1_545 S
C1047 N1055 1.427 . S
C1048 H1039 0.930 . S
C1048 C1046 1.378 . S
C1048 C1049 1.367 . S
C1049 C1048 1.367 . S
C1049 C1051 1.433 1_545 S
C1050 C1046 1.350 . S
C1050 C1047 1.463 . S
C1050 N1054 1.427 1_545 S
C1051 H1041 0.929 . S
C1051 C1049 1.433 1_565 S
C1051 N1054 1.384 . S
C1052 H1043 0.929 . S
C1052 C1044 1.378 . S
C1052 C1047 1.350 1_565 S
C1053 H1040 0.929 . S
C1053 C1045 1.433 . S
C1053 N1055 1.384 . S
N1054 C1050 1.427 1_565 S
N1054 C1051 1.384 . S
N1055 C1047 1.427 . S
N1055 C1053 1.384 . S
H1056 C1062 0.930 . S
H1057 C1066 0.930 . S
H1058 C1071 0.929 . S
H1059 C1069 0.929 . S
H1060 C1064 0.929 . S
H1061 C1070 0.929 . S
C1062 H1056 0.930 . S
C1062 C1063 1.367 . S
C1062 C1070 1.378 . S
C1063 C1062 1.367 . S
C1063 C1071 1.433 . S
C1064 H1060 0.929 . S
C1064 C1066 1.378 . S
C1064 C1068 1.350 . S
C1065 C1068 1.463 . S
C1065 C1070 1.350 . S
C1065 N1073 1.427 . S
C1066 H1057 0.930 . S
C1066 C1064 1.378 . S
C1066 C1067 1.367 . S
C1067 C1066 1.367 . S
C1067 C1069 1.433 . S
C1068 C1064 1.350 . S
C1068 C1065 1.463 . S
C1068 N1072 1.427 . S
C1069 H1059 0.929 . S
C1069 C1067 1.433 . S
C1069 N1072 1.384 . S
C1070 H1061 0.929 . S
C1070 C1062 1.378 . S
C1070 C1065 1.350 . S
C1071 H1058 0.929 . S
C1071 C1063 1.433 . S
C1071 N1073 1.384 . S
N1072 C1068 1.427 . S
N1072 C1069 1.384 . S
N1073 C1065 1.427 . S
N1073 C1071 1.384 . S
H1074 C1080 0.930 . S
H1075 C1084 0.930 . S
H1076 C1089 0.929 1_565 S
H1077 C1087 0.929 . S
H1078 C1082 0.904 1_565 S
H1079 C1088 0.929 . S
C1080 H1074 0.930 . S
C1080 C1081 1.367 . S
C1080 C1088 1.378 . S
C1081 C1080 1.367 . S
C1081 C1089 1.433 . S
C1082 H1078 0.904 1_545 S
C1082 C1084 1.375 1_545 S
C1082 C1086 1.378 . S
C1083 C1086 1.463 . S
C1083 C1088 1.350 . S
C1083 N1091 1.427 . S
C1084 H1075 0.930 . S
C1084 C1082 1.375 1_565 S
C1084 C1085 1.367 1_565 S
C1085 C1084 1.367 1_545 S
C1085 C1087 1.433 . S
C1086 C1082 1.378 . S
C1086 C1083 1.463 . S
C1086 N1090 1.427 . S
C1087 H1077 0.929 . S
C1087 C1085 1.433 . S
C1087 N1090 1.384 . S
C1088 H1079 0.929 . S
C1088 C1080 1.378 . S
C1088 C1083 1.350 . S
C1089 H1076 0.929 1_545 S
C1089 C1081 1.433 . S
C1089 N1091 1.384 . S
N1090 C1086 1.427 . S
N1090 C1087 1.384 . S
N1091 C1083 1.427 . S
N1091 C1089 1.384 . S
H1092 C1098 0.930 . S
H1093 C1102 0.930 . S
H1094 C1107 0.929 . S
H1095 C1105 0.929 . S
H1096 C1100 0.929 . S
H1097 C1106 0.929 . S
C1098 H1092 0.930 . S
C1098 C1099 1.367 . S
C1098 C1106 1.378 . S
C1099 C1098 1.367 . S
C1099 C1107 1.433 . S
C1100 H1096 0.929 . S
C1100 C1102 1.378 . S
C1100 C1104 1.350 . S
C1101 C1104 1.463 . S
C1101 C1106 1.350 . S
C1101 N1109 1.427 . S
C1102 H1093 0.930 . S
C1102 C1100 1.378 . S
C1102 C1103 1.367 . S
C1103 C1102 1.367 . S
C1103 C1105 1.433 . S
C1104 C1100 1.350 . S
C1104 C1101 1.463 . S
C1104 N1108 1.427 . S
C1105 H1095 0.929 . S
C1105 C1103 1.433 . S
C1105 N1108 1.384 . S
C1106 H1097 0.929 . S
C1106 C1098 1.378 . S
C1106 C1101 1.350 . S
C1107 H1094 0.929 . S
C1107 C1099 1.433 . S
C1107 N1109 1.384 . S
N1108 C1104 1.427 . S
N1108 C1105 1.384 . S
N1109 C1101 1.427 . S
N1109 C1107 1.384 . S
H1110 C1116 0.930 . S
H1111 C1120 0.930 . S
H1112 C1125 0.929 . S
H1113 C1123 0.929 . S
H1114 C1118 0.929 . S
H1115 C1124 0.929 . S
C1116 H1110 0.930 . S
C1116 C1117 1.367 . S
C1116 C1124 1.378 . S
C1117 C1116 1.367 . S
C1117 C1125 1.433 1_545 S
C1118 H1114 0.929 . S
C1118 C1120 1.378 . S
C1118 C1122 1.350 . S
C1119 C1122 1.463 . S
C1119 C1124 1.350 . S
C1119 N1127 1.433 . S
C1120 H1111 0.930 . S
C1120 C1118 1.378 . S
C1120 C1121 1.367 . S
C1121 C1120 1.367 . S
C1121 C1123 1.433 . S
C1122 C1118 1.350 . S
C1122 C1119 1.463 . S
C1122 N1126 1.427 . S
C1123 H1113 0.929 . S
C1123 C1121 1.433 . S
C1123 N1126 1.384 . S
C1124 H1115 0.929 . S
C1124 C1116 1.378 . S
C1124 C1119 1.350 . S
C1125 H1112 0.929 . S
C1125 C1117 1.433 1_565 S
C1125 N1127 1.382 1_565 S
N1126 C1122 1.427 . S
N1126 C1123 1.384 . S
N1127 C1119 1.433 . S
N1127 C1125 1.382 1_545 S
H1128 C1134 0.930 . S
H1129 C1138 0.930 . S
H1130 C1143 0.929 . S
H1131 C1141 0.929 . S
H1132 C1136 0.929 . S
H1133 C1142 0.929 . S
C1134 H1128 0.930 . S
C1134 C1135 1.367 . S
C1134 C1142 1.378 . S
C1135 C1134 1.367 . S
C1135 C1143 1.433 1_655 S
C1136 H1132 0.929 . S
C1136 C1138 1.378 . S
C1136 C1140 1.349 . S
C1137 C1140 1.462 1_655 S
C1137 C1142 1.360 . S
C1137 N1145 1.418 1_655 S
C1138 H1129 0.930 . S
C1138 C1136 1.378 . S
C1138 C1139 1.373 . S
C1139 C1138 1.373 . S
C1139 C1141 1.427 1_455 S
C1140 C1136 1.349 . S
C1140 C1137 1.462 1_455 S
C1140 N1144 1.428 1_455 S
C1141 H1131 0.929 . S
C1141 C1139 1.427 1_655 S
C1141 N1144 1.384 . S
C1142 H1133 0.929 . S
C1142 C1134 1.378 . S
C1142 C1137 1.360 . S
C1143 H1130 0.929 . S
C1143 C1135 1.433 1_455 S
C1143 N1145 1.384 . S
N1144 C1140 1.428 1_655 S
N1144 C1141 1.384 . S
N1145 C1137 1.418 1_455 S
N1145 C1143 1.384 . S
H1146 C1152 0.930 . S
H1147 C1156 0.930 . S
H1148 C1161 0.929 . S
H1149 C1159 0.929 . S
H1150 C1154 0.929 . S
H1151 C1160 0.929 . S
C1152 H1146 0.930 . S
C1152 C1153 1.367 . S
C1152 C1160 1.378 . S
C1153 C1152 1.367 . S
C1153 C1161 1.433 . S
C1154 H1150 0.929 . S
C1154 C1156 1.378 . S
C1154 C1158 1.350 . S
C1155 C1158 1.463 . S
C1155 C1160 1.350 . S
C1155 N1163 1.427 . S
C1156 H1147 0.930 . S
C1156 C1154 1.378 . S
C1156 C1157 1.367 . S
C1157 C1156 1.367 . S
C1157 C1159 1.433 . S
C1158 C1154 1.350 . S
C1158 C1155 1.463 . S
C1158 N1162 1.427 . S
C1159 H1149 0.929 . S
C1159 C1157 1.433 . S
C1159 N1162 1.384 . S
C1160 H1151 0.929 . S
C1160 C1152 1.378 . S
C1160 C1155 1.350 . S
C1161 H1148 0.929 . S
C1161 C1153 1.433 . S
C1161 N1163 1.384 . S
N1162 C1158 1.427 . S
N1162 C1159 1.384 . S
N1163 C1155 1.427 . S
N1163 C1161 1.384 . S
H1164 C1170 0.930 . S
H1165 C1174 0.930 . S
H1166 C1179 0.929 . S
H1167 C1177 0.928 1_655 S
H1168 C1172 0.929 . S
H1169 C1178 0.920 1_655 S
C1170 H1164 0.930 . S
C1170 C1171 1.367 . S
C1170 C1178 1.378 . S
C1171 C1170 1.367 . S
C1171 C1179 1.433 . S
C1172 H1168 0.929 . S
C1172 C1174 1.378 . S
C1172 C1176 1.350 . S
C1173 C1176 1.463 . S
C1173 C1178 1.350 . S
C1173 N1181 1.427 . S
C1174 H1165 0.930 . S
C1174 C1172 1.378 . S
C1174 C1175 1.367 . S
C1175 C1174 1.367 . S
C1175 C1177 1.434 . S
C1176 C1172 1.350 . S
C1176 C1173 1.463 . S
C1176 N1180 1.427 . S
C1177 H1167 0.928 1_455 S
C1177 C1175 1.434 . S
C1177 N1180 1.384 . S
C1178 H1169 0.920 1_455 S
C1178 C1170 1.378 . S
C1178 C1173 1.350 . S
C1179 H1166 0.929 . S
C1179 C1171 1.433 . S
C1179 N1181 1.384 . S
N1180 C1176 1.427 . S
N1180 C1177 1.384 . S
N1181 C1173 1.427 . S
N1181 C1179 1.384 . S
H1182 C1188 0.930 . S
H1183 C1192 0.930 . S
H1184 C1197 0.929 . S
H1185 C1195 0.929 1_565 S
H1186 C1190 0.929 . S
H1187 C1196 0.929 . S
C1188 H1182 0.930 . S
C1188 C1189 1.367 . S
C1188 C1196 1.378 . S
C1189 C1188 1.367 . S
C1189 C1197 1.433 . S
C1190 H1186 0.929 . S
C1190 C1192 1.378 . S
C1190 C1194 1.350 . S
C1191 C1194 1.463 . S
C1191 C1196 1.350 . S
C1191 N1199 1.427 . S
C1192 H1183 0.930 . S
C1192 C1190 1.378 . S
C1192 C1193 1.367 . S
C1193 C1192 1.367 . S
C1193 C1195 1.433 . S
C1194 C1190 1.350 . S
C1194 C1191 1.463 . S
C1194 N1198 1.427 . S
C1195 H1185 0.929 1_545 S
C1195 C1193 1.433 . S
C1195 N1198 1.384 . S
C1196 H1187 0.929 . S
C1196 C1188 1.378 . S
C1196 C1191 1.350 . S
C1197 H1184 0.929 . S
C1197 C1189 1.433 . S
C1197 N1199 1.384 . S
N1198 C1194 1.427 . S
N1198 C1195 1.384 . S
N1199 C1191 1.427 . S
N1199 C1197 1.384 . S
H1200 C1206 0.930 . S
H1201 C1210 0.930 . S
H1202 C1215 0.929 . S
H1203 C1213 0.929 . S
H1204 C1208 0.929 . S
H1205 C1214 0.929 . S
C1206 H1200 0.930 . S
C1206 C1207 1.367 1_565 S
C1206 C1214 1.378 . S
C1207 C1206 1.367 1_545 S
C1207 C1215 1.433 . S
C1208 H1204 0.929 . S
C1208 C1210 1.378 . S
C1208 C1212 1.350 . S
C1209 C1212 1.463 . S
C1209 C1214 1.350 1_545 S
C1209 N1217 1.427 . S
C1210 H1201 0.930 . S
C1210 C1208 1.378 . S
C1210 C1211 1.367 . S
C1211 C1210 1.367 . S
C1211 C1213 1.433 1_545 S
C1212 C1208 1.350 . S
C1212 C1209 1.463 . S
C1212 N1216 1.427 1_545 S
C1213 H1203 0.929 . S
C1213 C1211 1.433 1_565 S
C1213 N1216 1.384 . S
C1214 H1205 0.929 . S
C1214 C1206 1.378 . S
C1214 C1209 1.350 1_565 S
C1215 H1202 0.929 . S
C1215 C1207 1.433 . S
C1215 N1217 1.384 . S
N1216 C1212 1.427 1_565 S
N1216 C1213 1.384 . S
N1217 C1209 1.427 . S
N1217 C1215 1.384 . S
H1218 C1224 0.930 . S
H1219 C1228 0.930 . S
H1220 C1233 0.929 . S
H1221 C1231 0.929 . S
H1222 C1226 0.929 . S
H1223 C1232 0.929 . S
C1224 H1218 0.930 . S
C1224 C1225 1.367 . S
C1224 C1232 1.378 . S
C1225 C1224 1.367 . S
C1225 C1233 1.433 . S
C1226 H1222 0.929 . S
C1226 C1228 1.378 . S
C1226 C1230 1.350 . S
C1227 C1230 1.463 . S
C1227 C1232 1.350 . S
C1227 N1235 1.427 . S
C1228 H1219 0.930 . S
C1228 C1226 1.378 . S
C1228 C1229 1.367 . S
C1229 C1228 1.367 . S
C1229 C1231 1.433 . S
C1230 C1226 1.350 . S
C1230 C1227 1.463 . S
C1230 N1234 1.427 . S
C1231 H1221 0.929 . S
C1231 C1229 1.433 . S
C1231 N1234 1.384 . S
C1232 H1223 0.929 . S
C1232 C1224 1.378 . S
C1232 C1227 1.350 . S
C1233 H1220 0.929 . S
C1233 C1225 1.433 . S
C1233 N1235 1.384 . S
N1234 C1230 1.427 . S
N1234 C1231 1.384 . S
N1235 C1227 1.427 . S
N1235 C1233 1.384 . S
H1236 C1242 0.930 . S
H1237 C1246 0.930 1_565 S
H1238 C1251 0.929 1_565 S
H1239 C1249 0.929 . S
H1240 C1244 0.929 1_565 S
H1241 C1250 0.929 . S
C1242 H1236 0.930 . S
C1242 C1243 1.367 . S
C1242 C1250 1.378 . S
C1243 C1242 1.367 . S
C1243 C1251 1.433 . S
C1244 H1240 0.929 1_545 S
C1244 C1246 1.378 . S
C1244 C1248 1.350 . S
C1245 C1248 1.463 . S
C1245 C1250 1.350 . S
C1245 N1253 1.427 . S
C1246 H1237 0.930 1_545 S
C1246 C1244 1.378 . S
C1246 C1247 1.367 . S
C1247 C1246 1.367 . S
C1247 C1249 1.433 . S
C1248 C1244 1.350 . S
C1248 C1245 1.463 . S
C1248 N1252 1.427 . S
C1249 H1239 0.929 . S
C1249 C1247 1.433 . S
C1249 N1252 1.384 . S
C1250 H1241 0.929 . S
C1250 C1242 1.378 . S
C1250 C1245 1.350 . S
C1251 H1238 0.929 1_545 S
C1251 C1243 1.433 . S
C1251 N1253 1.384 . S
N1252 C1248 1.427 . S
N1252 C1249 1.384 . S
N1253 C1245 1.427 . S
N1253 C1251 1.384 . S
H1254 C1260 0.930 . S
H1255 C1264 0.930 . S
H1256 C1269 0.929 . S
H1257 C1267 0.929 . S
H1258 C1262 0.929 . S
H1259 C1268 0.929 . S
C1260 H1254 0.930 . S
C1260 C1261 1.367 . S
C1260 C1268 1.378 . S
C1261 C1260 1.367 . S
C1261 C1269 1.433 . S
C1262 H1258 0.929 . S
C1262 C1264 1.378 . S
C1262 C1266 1.350 . S
C1263 C1266 1.463 . S
C1263 C1268 1.350 . S
C1263 N1271 1.427 . S
C1264 H1255 0.930 . S
C1264 C1262 1.378 . S
C1264 C1265 1.367 . S
C1265 C1264 1.367 . S
C1265 C1267 1.433 . S
C1266 C1262 1.350 . S
C1266 C1263 1.463 . S
C1266 N1270 1.427 . S
C1267 H1257 0.929 . S
C1267 C1265 1.433 . S
C1267 N1270 1.384 . S
C1268 H1259 0.929 . S
C1268 C1260 1.378 . S
C1268 C1263 1.350 . S
C1269 H1256 0.929 . S
C1269 C1261 1.433 . S
C1269 N1271 1.384 . S
N1270 C1266 1.427 . S
N1270 C1267 1.384 . S
N1271 C1263 1.427 . S
N1271 C1269 1.384 . S
H1272 C1278 0.930 . S
H1273 C1282 0.930 . S
H1274 C1287 0.929 . S
H1275 C1285 0.929 . S
H1276 C1280 0.929 . S
H1277 C1286 0.929 . S
C1278 H1272 0.930 . S
C1278 C1279 1.367 1_565 S
C1278 C1286 1.378 . S
C1279 C1278 1.367 1_545 S
C1279 C1287 1.433 . S
C1280 H1276 0.929 . S
C1280 C1282 1.378 . S
C1280 C1284 1.350 . S
C1281 C1284 1.463 . S
C1281 C1286 1.350 1_545 S
C1281 N1289 1.427 . S
C1282 H1273 0.930 . S
C1282 C1280 1.378 . S
C1282 C1283 1.367 . S
C1283 C1282 1.367 . S
C1283 C1285 1.433 1_545 S
C1284 C1280 1.350 . S
C1284 C1281 1.463 . S
C1284 N1288 1.427 1_545 S
C1285 H1275 0.929 . S
C1285 C1283 1.433 1_565 S
C1285 N1288 1.384 . S
C1286 H1277 0.929 . S
C1286 C1278 1.378 . S
C1286 C1281 1.350 1_565 S
C1287 H1274 0.929 . S
C1287 C1279 1.433 . S
C1287 N1289 1.384 . S
N1288 C1284 1.427 1_565 S
N1288 C1285 1.384 . S
N1289 C1281 1.427 . S
N1289 C1287 1.384 . S
H1290 C1296 0.930 . S
H1291 C1300 0.930 . S
H1292 C1305 0.929 . S
H1293 C1303 0.929 . S
H1294 C1298 0.929 . S
H1295 C1304 0.929 . S
C1296 H1290 0.930 . S
C1296 C1297 1.367 . S
C1296 C1304 1.378 . S
C1297 C1296 1.367 . S
C1297 C1305 1.433 . S
C1298 H1294 0.929 . S
C1298 C1300 1.378 . S
C1298 C1302 1.350 . S
C1299 C1302 1.463 . S
C1299 C1304 1.350 . S
C1299 N1307 1.427 . S
C1300 H1291 0.930 . S
C1300 C1298 1.378 . S
C1300 C1301 1.367 . S
C1301 C1300 1.367 . S
C1301 C1303 1.433 . S
C1302 C1298 1.350 . S
C1302 C1299 1.463 . S
C1302 N1306 1.427 . S
C1303 H1293 0.929 . S
C1303 C1301 1.433 . S
C1303 N1306 1.384 . S
C1304 H1295 0.929 . S
C1304 C1296 1.378 . S
C1304 C1299 1.350 . S
C1305 H1292 0.929 . S
C1305 C1297 1.433 . S
C1305 N1307 1.384 . S
N1306 C1302 1.427 . S
N1306 C1303 1.384 . S
N1307 C1299 1.427 . S
N1307 C1305 1.384 . S
H1308 C1314 0.930 . S
H1309 C1318 0.930 1_565 S
H1310 C1323 0.929 1_565 S
H1311 C1321 0.929 . S
H1312 C1316 0.929 1_565 S
H1313 C1322 0.929 . S
C1314 H1308 0.930 . S
C1314 C1315 1.367 . S
C1314 C1322 1.378 . S
C1315 C1314 1.367 . S
C1315 C1323 1.433 . S
C1316 H1312 0.929 1_545 S
C1316 C1318 1.378 . S
C1316 C1320 1.350 . S
C1317 C1320 1.463 . S
C1317 C1322 1.350 . S
C1317 N1325 1.427 . S
C1318 H1309 0.930 1_545 S
C1318 C1316 1.378 . S
C1318 C1319 1.367 . S
C1319 C1318 1.367 . S
C1319 C1321 1.433 . S
C1320 C1316 1.350 . S
C1320 C1317 1.463 . S
C1320 N1324 1.427 . S
C1321 H1311 0.929 . S
C1321 C1319 1.433 . S
C1321 N1324 1.384 . S
C1322 H1313 0.929 . S
C1322 C1314 1.378 . S
C1322 C1317 1.350 . S
C1323 H1310 0.929 1_545 S
C1323 C1315 1.433 . S
C1323 N1325 1.384 . S
N1324 C1320 1.427 . S
N1324 C1321 1.384 . S
N1325 C1317 1.427 . S
N1325 C1323 1.384 . S
H1326 C1332 0.930 . S
H1327 C1336 0.930 . S
H1328 C1341 0.929 . S
H1329 C1339 0.929 . S
H1330 C1334 0.929 . S
H1331 C1340 0.929 1_655 S
C1332 H1326 0.930 . S
C1332 C1333 1.367 1_655 S
C1332 C1340 1.378 1_655 S
C1333 C1332 1.367 1_455 S
C1333 C1341 1.433 . S
C1334 H1330 0.929 . S
C1334 C1336 1.378 . S
C1334 C1338 1.350 . S
C1335 C1338 1.463 . S
C1335 C1340 1.350 . S
C1335 N1343 1.427 . S
C1336 H1327 0.930 . S
C1336 C1334 1.378 . S
C1336 C1337 1.367 . S
C1337 C1336 1.367 . S
C1337 C1339 1.433 . S
C1338 C1334 1.350 . S
C1338 C1335 1.463 . S
C1338 N1342 1.427 . S
C1339 H1329 0.929 . S
C1339 C1337 1.433 . S
C1339 N1342 1.384 . S
C1340 H1331 0.929 1_455 S
C1340 C1332 1.378 1_455 S
C1340 C1335 1.350 . S
C1341 H1328 0.929 . S
C1341 C1333 1.433 . S
C1341 N1343 1.384 . S
N1342 C1338 1.427 . S
N1342 C1339 1.384 . S
N1343 C1335 1.427 . S
N1343 C1341 1.384 . S
H1344 C1350 0.930 . S
H1345 C1354 0.930 . S
H1346 C1359 0.929 . S
H1347 C1357 0.929 . S
H1348 C1352 0.929 . S
H1349 C1358 0.929 . S
C1350 H1344 0.930 . S
C1350 C1351 1.367 . S
C1350 C1358 1.378 . S
C1351 C1350 1.367 . S
C1351 C1359 1.433 1_554 S
C1352 H1348 0.929 . S
C1352 C1354 1.378 . S
C1352 C1356 1.350 1_556 S
C1353 C1356 1.463 . S
C1353 C1358 1.350 . S
C1353 N1361 1.427 1_554 S
C1354 H1345 0.930 . S
C1354 C1352 1.378 . S
C1354 C1355 1.367 1_556 S
C1355 C1354 1.367 1_554 S
C1355 C1357 1.433 . S
C1356 C1352 1.350 1_554 S
C1356 C1353 1.463 . S
C1356 N1360 1.427 . S
C1357 H1347 0.929 . S
C1357 C1355 1.433 . S
C1357 N1360 1.384 . S
C1358 H1349 0.929 . S
C1358 C1350 1.378 . S
C1358 C1353 1.350 . S
C1359 H1346 0.929 . S
C1359 C1351 1.433 1_556 S
C1359 N1361 1.384 . S
N1360 C1356 1.427 . S
N1360 C1357 1.384 . S
N1361 C1353 1.427 1_556 S
N1361 C1359 1.384 . S
H1362 C1368 0.930 . S
H1363 C1372 0.930 . S
H1364 C1377 0.929 . S
H1365 C1375 0.929 . S
H1366 C1370 0.929 . S
H1367 C1376 0.929 . S
C1368 H1362 0.930 . S
C1368 C1369 1.367 1_556 S
C1368 C1376 1.378 . S
C1369 C1368 1.367 1_554 S
C1369 C1377 1.433 . S
C1370 H1366 0.929 . S
C1370 C1372 1.378 . S
C1370 C1374 1.350 . S
C1371 C1374 1.463 . S
C1371 C1376 1.350 1_554 S
C1371 N1379 1.427 . S
C1372 H1363 0.930 . S
C1372 C1370 1.378 . S
C1372 C1373 1.367 . S
C1373 C1372 1.367 . S
C1373 C1375 1.433 1_554 S
C1374 C1370 1.350 . S
C1374 C1371 1.463 . S
C1374 N1378 1.427 1_554 S
C1375 H1365 0.929 . S
C1375 C1373 1.433 1_556 S
C1375 N1378 1.384 . S
C1376 H1367 0.929 . S
C1376 C1368 1.378 . S
C1376 C1371 1.350 1_556 S
C1377 H1364 0.929 . S
C1377 C1369 1.433 . S
C1377 N1379 1.384 . S
N1378 C1374 1.427 1_556 S
N1378 C1375 1.384 . S
N1379 C1371 1.427 . S
N1379 C1377 1.384 . S
H1380 C1386 0.930 . S
H1381 C1390 0.930 . S
H1382 C1395 0.929 . S
H1383 C1393 0.929 . S
H1384 C1388 0.929 . S
H1385 C1394 0.929 . S
C1386 H1380 0.930 . S
C1386 C1387 1.367 1_556 S
C1386 C1394 1.378 . S
C1387 C1386 1.367 1_554 S
C1387 C1395 1.433 . S
C1388 H1384 0.929 . S
C1388 C1390 1.378 . S
C1388 C1392 1.350 . S
C1389 C1392 1.463 . S
C1389 C1394 1.350 1_554 S
C1389 N1397 1.427 . S
C1390 H1381 0.930 . S
C1390 C1388 1.378 . S
C1390 C1391 1.367 . S
C1391 C1390 1.367 . S
C1391 C1393 1.433 1_554 S
C1392 C1388 1.350 . S
C1392 C1389 1.463 . S
C1392 N1396 1.427 1_554 S
C1393 H1383 0.929 . S
C1393 C1391 1.433 1_556 S
C1393 N1396 1.384 . S
C1394 H1385 0.929 . S
C1394 C1386 1.378 . S
C1394 C1389 1.350 1_556 S
C1395 H1382 0.929 . S
C1395 C1387 1.433 . S
C1395 N1397 1.384 . S
N1396 C1392 1.427 1_556 S
N1396 C1393 1.384 . S
N1397 C1389 1.427 . S
N1397 C1395 1.384 . S
H1398 C1404 0.930 . S
H1399 C1408 0.930 . S
H1400 C1413 0.929 . S
H1401 C1411 0.929 . S
H1402 C1406 0.929 . S
H1403 C1412 0.929 . S
C1404 H1398 0.930 . S
C1404 C1405 1.366 1_556 S
C1404 C1412 1.378 . S
C1405 C1404 1.366 1_554 S
C1405 C1413 1.434 . S
C1406 H1402 0.929 . S
C1406 C1408 1.378 . S
C1406 C1410 1.350 . S
C1407 C1410 1.462 1_556 S
C1407 C1412 1.354 . S
C1407 N1415 1.423 1_556 S
C1408 H1399 0.930 . S
C1408 C1406 1.378 . S
C1408 C1409 1.362 1_554 S
C1409 C1408 1.362 1_556 S
C1409 C1411 1.438 . S
C1410 C1406 1.350 . S
C1410 C1407 1.462 1_554 S
C1410 N1414 1.427 1_554 S
C1411 H1401 0.929 . S
C1411 C1409 1.438 . S
C1411 N1414 1.384 . S
C1412 H1403 0.929 . S
C1412 C1404 1.378 . S
C1412 C1407 1.354 . S
C1413 H1400 0.929 . S
C1413 C1405 1.434 . S
C1413 N1415 1.384 . S
N1414 C1410 1.427 1_556 S
N1414 C1411 1.384 . S
N1415 C1407 1.423 1_554 S
N1415 C1413 1.384 . S
H1416 C1422 0.930 . S
H1417 C1426 0.930 . S
H1418 C1431 0.929 . S
H1419 C1429 0.929 . S
H1420 C1424 0.929 . S
H1421 C1430 0.929 . S
C1422 H1416 0.930 . S
C1422 C1423 1.367 . S
C1422 C1430 1.378 . S
C1423 C1422 1.367 . S
C1423 C1431 1.433 1_554 S
C1424 H1420 0.929 . S
C1424 C1426 1.378 . S
C1424 C1428 1.350 1_556 S
C1425 C1428 1.463 . S
C1425 C1430 1.350 . S
C1425 N1433 1.427 1_554 S
C1426 H1417 0.930 . S
C1426 C1424 1.378 . S
C1426 C1427 1.367 1_556 S
C1427 C1426 1.367 1_554 S
C1427 C1429 1.433 . S
C1428 C1424 1.350 1_554 S
C1428 C1425 1.463 . S
C1428 N1432 1.427 . S
C1429 H1419 0.929 . S
C1429 C1427 1.433 . S
C1429 N1432 1.384 . S
C1430 H1421 0.929 . S
C1430 C1422 1.378 . S
C1430 C1425 1.350 . S
C1431 H1418 0.929 . S
C1431 C1423 1.433 1_556 S
C1431 N1433 1.384 . S
N1432 C1428 1.427 . S
N1432 C1429 1.384 . S
N1433 C1425 1.427 1_556 S
N1433 C1431 1.384 . S
H1434 C1440 0.930 . S
H1435 C1444 0.930 . S
H1436 C1449 0.929 . S
H1437 C1447 0.929 . S
H1438 C1442 0.929 . S
H1439 C1448 0.929 . S
C1440 H1434 0.930 . S
C1440 C1441 1.367 . S
C1440 C1448 1.378 . S
C1441 C1440 1.367 . S
C1441 C1449 1.433 1_554 S
C1442 H1438 0.929 . S
C1442 C1444 1.378 . S
C1442 C1446 1.350 1_556 S
C1443 C1446 1.463 . S
C1443 C1448 1.350 . S
C1443 N1451 1.427 1_554 S
C1444 H1435 0.930 . S
C1444 C1442 1.378 . S
C1444 C1445 1.367 1_556 S
C1445 C1444 1.367 1_554 S
C1445 C1447 1.433 . S
C1446 C1442 1.350 1_554 S
C1446 C1443 1.463 . S
C1446 N1450 1.427 . S
C1447 H1437 0.929 . S
C1447 C1445 1.433 . S
C1447 N1450 1.384 . S
C1448 H1439 0.929 . S
C1448 C1440 1.378 . S
C1448 C1443 1.350 . S
C1449 H1436 0.929 . S
C1449 C1441 1.433 1_556 S
C1449 N1451 1.384 . S
N1450 C1446 1.427 . S
N1450 C1447 1.384 . S
N1451 C1443 1.427 1_556 S
N1451 C1449 1.384 . S
H1452 C1458 0.930 . S
H1453 C1462 0.930 . S
H1454 C1467 0.929 . S
H1455 C1465 0.929 . S
H1456 C1460 0.929 . S
H1457 C1466 0.929 . S
C1458 H1452 0.930 . S
C1458 C1459 1.367 . S
C1458 C1466 1.378 . S
C1459 C1458 1.367 . S
C1459 C1467 1.433 . S
C1460 H1456 0.929 . S
C1460 C1462 1.378 . S
C1460 C1464 1.350 . S
C1461 C1464 1.463 . S
C1461 C1466 1.350 . S
C1461 N1469 1.427 . S
C1462 H1453 0.930 . S
C1462 C1460 1.378 . S
C1462 C1463 1.367 . S
C1463 C1462 1.367 . S
C1463 C1465 1.433 . S
C1464 C1460 1.350 . S
C1464 C1461 1.463 . S
C1464 N1468 1.427 . S
C1465 H1455 0.929 . S
C1465 C1463 1.433 . S
C1465 N1468 1.384 . S
C1466 H1457 0.929 . S
C1466 C1458 1.378 . S
C1466 C1461 1.350 . S
C1467 H1454 0.929 . S
C1467 C1459 1.433 . S
C1467 N1469 1.384 . S
N1468 C1464 1.427 . S
N1468 C1465 1.384 . S
N1469 C1461 1.427 . S
N1469 C1467 1.384 . S
H1470 C1476 0.932 . S
H1471 C1480 0.930 . S
H1472 C1485 0.929 . S
H1473 C1483 0.929 . S
H1474 C1478 0.929 . S
H1475 C1484 0.929 . S
C1476 H1470 0.932 . S
C1476 C1477 1.367 . S
C1476 C1484 1.378 . S
C1477 C1476 1.367 . S
C1477 C1485 1.433 . S
C1478 H1474 0.929 . S
C1478 C1480 1.378 . S
C1478 C1482 1.350 . S
C1479 C1482 1.463 . S
C1479 C1484 1.350 . S
C1479 N1487 1.427 . S
C1480 H1471 0.930 . S
C1480 C1478 1.378 . S
C1480 C1481 1.367 . S
C1481 C1480 1.367 . S
C1481 C1483 1.433 . S
C1482 C1478 1.350 . S
C1482 C1479 1.463 . S
C1482 N1486 1.427 . S
C1483 H1473 0.929 . S
C1483 C1481 1.433 . S
C1483 N1486 1.384 . S
C1484 H1475 0.929 . S
C1484 C1476 1.378 . S
C1484 C1479 1.350 . S
C1485 H1472 0.929 . S
C1485 C1477 1.433 . S
C1485 N1487 1.384 . S
N1486 C1482 1.427 . S
N1486 C1483 1.384 . S
N1487 C1479 1.427 . S
N1487 C1485 1.384 . S
H1488 C1494 0.930 . S
H1489 C1498 0.930 . S
H1490 C1503 0.929 . S
H1491 C1501 0.929 . S
H1492 C1496 0.929 . S
H1493 C1502 0.929 . S
C1494 H1488 0.930 . S
C1494 C1495 1.367 . S
C1494 C1502 1.378 . S
C1495 C1494 1.367 . S
C1495 C1503 1.433 . S
C1496 H1492 0.929 . S
C1496 C1498 1.378 . S
C1496 C1500 1.350 . S
C1497 C1500 1.463 . S
C1497 C1502 1.350 . S
C1497 N1505 1.427 . S
C1498 H1489 0.930 . S
C1498 C1496 1.378 . S
C1498 C1499 1.367 . S
C1499 C1498 1.367 . S
C1499 C1501 1.433 . S
C1500 C1496 1.350 . S
C1500 C1497 1.463 . S
C1500 N1504 1.427 . S
C1501 H1491 0.929 . S
C1501 C1499 1.433 . S
C1501 N1504 1.384 . S
C1502 H1493 0.929 . S
C1502 C1494 1.378 . S
C1502 C1497 1.350 . S
C1503 H1490 0.929 . S
C1503 C1495 1.433 . S
C1503 N1505 1.384 . S
N1504 C1500 1.427 . S
N1504 C1501 1.384 . S
N1505 C1497 1.427 . S
N1505 C1503 1.384 . S
H1506 C1512 0.930 . S
H1507 C1516 0.930 . S
H1508 C1521 0.929 . S
H1509 C1519 0.929 . S
H1510 C1514 0.929 . S
H1511 C1520 0.929 . S
C1512 H1506 0.930 . S
C1512 C1513 1.367 . S
C1512 C1520 1.378 . S
C1513 C1512 1.367 . S
C1513 C1521 1.433 . S
C1514 H1510 0.929 . S
C1514 C1516 1.378 . S
C1514 C1518 1.350 . S
C1515 C1518 1.463 . S
C1515 C1520 1.350 . S
C1515 N1523 1.427 . S
C1516 H1507 0.930 . S
C1516 C1514 1.378 . S
C1516 C1517 1.367 . S
C1517 C1516 1.367 . S
C1517 C1519 1.433 . S
C1518 C1514 1.350 . S
C1518 C1515 1.463 . S
C1518 N1522 1.427 . S
C1519 H1509 0.929 . S
C1519 C1517 1.433 . S
C1519 N1522 1.384 . S
C1520 H1511 0.929 . S
C1520 C1512 1.378 . S
C1520 C1515 1.350 . S
C1521 H1508 0.929 . S
C1521 C1513 1.433 . S
C1521 N1523 1.384 . S
N1522 C1518 1.427 . S
N1522 C1519 1.384 . S
N1523 C1515 1.427 . S
N1523 C1521 1.384 . S
H1524 C1530 0.930 . S
H1525 C1534 0.930 . S
H1526 C1539 0.929 . S
H1527 C1537 0.929 . S
H1528 C1532 0.929 . S
H1529 C1538 0.929 . S
C1530 H1524 0.930 . S
C1530 C1531 1.367 . S
C1530 C1538 1.378 . S
C1531 C1530 1.367 . S
C1531 C1539 1.433 . S
C1532 H1528 0.929 . S
C1532 C1534 1.378 . S
C1532 C1536 1.350 . S
C1533 C1536 1.463 . S
C1533 C1538 1.350 . S
C1533 N1541 1.427 . S
C1534 H1525 0.930 . S
C1534 C1532 1.378 . S
C1534 C1535 1.367 . S
C1535 C1534 1.367 . S
C1535 C1537 1.433 . S
C1536 C1532 1.350 . S
C1536 C1533 1.463 . S
C1536 N1540 1.427 . S
C1537 H1527 0.929 . S
C1537 C1535 1.433 . S
C1537 N1540 1.384 . S
C1538 H1529 0.929 . S
C1538 C1530 1.378 . S
C1538 C1533 1.350 . S
C1539 H1526 0.929 . S
C1539 C1531 1.433 . S
C1539 N1541 1.384 . S
N1540 C1536 1.427 . S
N1540 C1537 1.384 . S
N1541 C1533 1.427 . S
N1541 C1539 1.384 . S
H1542 C1548 0.930 . S
H1543 C1552 0.930 . S
H1544 C1557 0.929 . S
H1545 C1555 0.929 . S
H1546 C1550 0.929 . S
H1547 C1556 0.929 . S
C1548 H1542 0.930 . S
C1548 C1549 1.367 . S
C1548 C1556 1.378 . S
C1549 C1548 1.367 . S
C1549 C1557 1.433 . S
C1550 H1546 0.929 . S
C1550 C1552 1.378 . S
C1550 C1554 1.350 . S
C1551 C1554 1.463 . S
C1551 C1556 1.350 . S
C1551 N1559 1.427 . S
C1552 H1543 0.930 . S
C1552 C1550 1.378 . S
C1552 C1553 1.367 . S
C1553 C1552 1.367 . S
C1553 C1555 1.433 . S
C1554 C1550 1.350 . S
C1554 C1551 1.463 . S
C1554 N1558 1.427 . S
C1555 H1545 0.929 . S
C1555 C1553 1.433 . S
C1555 N1558 1.384 . S
C1556 H1547 0.929 . S
C1556 C1548 1.378 . S
C1556 C1551 1.350 . S
C1557 H1544 0.929 . S
C1557 C1549 1.433 . S
C1557 N1559 1.384 . S
N1558 C1554 1.427 . S
N1558 C1555 1.384 . S
N1559 C1551 1.427 . S
N1559 C1557 1.384 . S
H1560 C1566 0.930 . S
H1561 C1570 0.930 . S
H1562 C1575 0.929 . S
H1563 C1573 0.929 . S
H1564 C1568 0.929 . S
H1565 C1574 0.929 . S
C1566 H1560 0.930 . S
C1566 C1567 1.367 . S
C1566 C1574 1.378 . S
C1567 C1566 1.367 . S
C1567 C1575 1.433 . S
C1568 H1564 0.929 . S
C1568 C1570 1.378 . S
C1568 C1572 1.350 . S
C1569 C1572 1.463 . S
C1569 C1574 1.350 . S
C1569 N1577 1.427 . S
C1570 H1561 0.930 . S
C1570 C1568 1.378 . S
C1570 C1571 1.367 . S
C1571 C1570 1.367 . S
C1571 C1573 1.433 . S
C1572 C1568 1.350 . S
C1572 C1569 1.463 . S
C1572 N1576 1.427 . S
C1573 H1563 0.929 . S
C1573 C1571 1.433 . S
C1573 N1576 1.384 . S
C1574 H1565 0.929 . S
C1574 C1566 1.378 . S
C1574 C1569 1.350 . S
C1575 H1562 0.929 . S
C1575 C1567 1.433 . S
C1575 N1577 1.384 . S
N1576 C1572 1.427 . S
N1576 C1573 1.384 . S
N1577 C1569 1.427 . S
N1577 C1575 1.384 . S
H1578 C1584 0.930 . S
H1579 C1588 0.930 . S
H1580 C1593 0.929 . S
H1581 C1591 0.929 . S
H1582 C1586 0.929 . S
H1583 C1592 0.929 . S
C1584 H1578 0.930 . S
C1584 C1585 1.367 . S
C1584 C1592 1.378 . S
C1585 C1584 1.367 . S
C1585 C1593 1.433 . S
C1586 H1582 0.929 . S
C1586 C1588 1.378 . S
C1586 C1590 1.350 . S
C1587 C1590 1.463 . S
C1587 C1592 1.350 . S
C1587 N1595 1.427 . S
C1588 H1579 0.930 . S
C1588 C1586 1.378 . S
C1588 C1589 1.367 . S
C1589 C1588 1.367 . S
C1589 C1591 1.433 . S
C1590 C1586 1.350 . S
C1590 C1587 1.463 . S
C1590 N1594 1.427 . S
C1591 H1581 0.929 . S
C1591 C1589 1.433 . S
C1591 N1594 1.384 . S
C1592 H1583 0.929 . S
C1592 C1584 1.378 . S
C1592 C1587 1.350 . S
C1593 H1580 0.929 . S
C1593 C1585 1.433 . S
C1593 N1595 1.384 . S
N1594 C1590 1.427 . S
N1594 C1591 1.384 . S
N1595 C1587 1.427 . S
N1595 C1593 1.384 . S
H1596 C1602 0.930 . S
H1597 C1606 0.930 . S
H1598 C1611 0.929 . S
H1599 C1609 0.929 . S
H1600 C1604 0.929 . S
H1601 C1610 0.929 . S
C1602 H1596 0.930 . S
C1602 C1603 1.367 . S
C1602 C1610 1.378 . S
C1603 C1602 1.367 . S
C1603 C1611 1.433 . S
C1604 H1600 0.929 . S
C1604 C1606 1.378 . S
C1604 C1608 1.350 . S
C1605 C1608 1.463 . S
C1605 C1610 1.350 . S
C1605 N1613 1.427 . S
C1606 H1597 0.930 . S
C1606 C1604 1.378 . S
C1606 C1607 1.367 . S
C1607 C1606 1.367 . S
C1607 C1609 1.433 . S
C1608 C1604 1.350 . S
C1608 C1605 1.463 . S
C1608 N1612 1.427 . S
C1609 H1599 0.929 . S
C1609 C1607 1.433 . S
C1609 N1612 1.384 . S
C1610 H1601 0.929 . S
C1610 C1602 1.378 . S
C1610 C1605 1.350 . S
C1611 H1598 0.929 . S
C1611 C1603 1.433 . S
C1611 N1613 1.384 . S
N1612 C1608 1.427 . S
N1612 C1609 1.384 . S
N1613 C1605 1.427 . S
N1613 C1611 1.384 . S
H1614 C1620 0.930 . S
H1615 C1624 0.930 . S
H1616 C1629 0.929 . S
H1617 C1627 0.929 . S
H1618 C1622 0.929 . S
H1619 C1628 0.929 . S
C1620 H1614 0.930 . S
C1620 C1621 1.367 . S
C1620 C1628 1.378 . S
C1621 C1620 1.367 . S
C1621 C1629 1.433 . S
C1622 H1618 0.929 . S
C1622 C1624 1.378 . S
C1622 C1626 1.350 . S
C1623 C1626 1.463 . S
C1623 C1628 1.350 . S
C1623 N1631 1.427 . S
C1624 H1615 0.930 . S
C1624 C1622 1.378 . S
C1624 C1625 1.367 . S
C1625 C1624 1.367 . S
C1625 C1627 1.433 . S
C1626 C1622 1.350 . S
C1626 C1623 1.463 . S
C1626 N1630 1.427 . S
C1627 H1617 0.929 . S
C1627 C1625 1.433 . S
C1627 N1630 1.384 . S
C1628 H1619 0.929 . S
C1628 C1620 1.378 . S
C1628 C1623 1.350 . S
C1629 H1616 0.929 . S
C1629 C1621 1.433 . S
C1629 N1631 1.384 . S
N1630 C1626 1.427 . S
N1630 C1627 1.384 . S
N1631 C1623 1.427 . S
N1631 C1629 1.384 . S
H1632 C1638 0.930 . S
H1633 C1642 0.930 . S
H1634 C1647 0.929 . S
H1635 C1645 0.929 . S
H1636 C1640 0.929 . S
H1637 C1646 0.929 . S
C1638 H1632 0.930 . S
C1638 C1639 1.367 . S
C1638 C1646 1.378 . S
C1639 C1638 1.367 . S
C1639 C1647 1.433 . S
C1640 H1636 0.929 . S
C1640 C1642 1.378 . S
C1640 C1644 1.350 . S
C1641 C1644 1.463 . S
C1641 C1646 1.350 . S
C1641 N1649 1.427 . S
C1642 H1633 0.930 . S
C1642 C1640 1.378 . S
C1642 C1643 1.367 . S
C1643 C1642 1.367 . S
C1643 C1645 1.433 . S
C1644 C1640 1.350 . S
C1644 C1641 1.463 . S
C1644 N1648 1.427 . S
C1645 H1635 0.929 . S
C1645 C1643 1.433 . S
C1645 N1648 1.384 . S
C1646 H1637 0.929 . S
C1646 C1638 1.378 . S
C1646 C1641 1.350 . S
C1647 H1634 0.929 . S
C1647 C1639 1.433 . S
C1647 N1649 1.384 . S
N1648 C1644 1.427 . S
N1648 C1645 1.384 . S
N1649 C1641 1.427 . S
N1649 C1647 1.384 . S
H1650 C1656 0.930 . S
H1651 C1660 0.930 . S
H1652 C1665 0.929 . S
H1653 C1663 0.929 . S
H1654 C1658 0.929 . S
H1655 C1664 0.929 . S
C1656 H1650 0.930 . S
C1656 C1657 1.367 . S
C1656 C1664 1.378 . S
C1657 C1656 1.367 . S
C1657 C1665 1.433 . S
C1658 H1654 0.929 . S
C1658 C1660 1.378 . S
C1658 C1662 1.350 . S
C1659 C1662 1.463 . S
C1659 C1664 1.350 . S
C1659 N1667 1.427 . S
C1660 H1651 0.930 . S
C1660 C1658 1.378 . S
C1660 C1661 1.367 . S
C1661 C1660 1.367 . S
C1661 C1663 1.433 . S
C1662 C1658 1.350 . S
C1662 C1659 1.463 . S
C1662 N1666 1.427 . S
C1663 H1653 0.929 . S
C1663 C1661 1.433 . S
C1663 N1666 1.384 . S
C1664 H1655 0.929 . S
C1664 C1656 1.378 . S
C1664 C1659 1.350 . S
C1665 H1652 0.929 . S
C1665 C1657 1.433 . S
C1665 N1667 1.384 . S
N1666 C1662 1.427 . S
N1666 C1663 1.384 . S
N1667 C1659 1.427 . S
N1667 C1665 1.384 . S
H1668 C1674 0.930 . S
H1669 C1678 0.930 . S
H1670 C1683 0.929 . S
H1671 C1681 0.929 . S
H1672 C1676 0.929 . S
H1673 C1682 0.929 . S
C1674 H1668 0.930 . S
C1674 C1675 1.367 . S
C1674 C1682 1.378 . S
C1675 C1674 1.367 . S
C1675 C1683 1.433 . S
C1676 H1672 0.929 . S
C1676 C1678 1.378 . S
C1676 C1680 1.350 . S
C1677 C1680 1.463 . S
C1677 C1682 1.350 . S
C1677 N1685 1.427 . S
C1678 H1669 0.930 . S
C1678 C1676 1.378 . S
C1678 C1679 1.367 . S
C1679 C1678 1.367 . S
C1679 C1681 1.433 . S
C1680 C1676 1.350 . S
C1680 C1677 1.463 . S
C1680 N1684 1.427 . S
C1681 H1671 0.929 . S
C1681 C1679 1.433 . S
C1681 N1684 1.384 . S
C1682 H1673 0.929 . S
C1682 C1674 1.378 . S
C1682 C1677 1.350 . S
C1683 H1670 0.929 . S
C1683 C1675 1.433 . S
C1683 N1685 1.384 . S
N1684 C1680 1.427 . S
N1684 C1681 1.384 . S
N1685 C1677 1.427 . S
N1685 C1683 1.384 . S
H1686 C1692 0.930 . S
H1687 C1696 0.930 . S
H1688 C1701 0.929 . S
H1689 C1699 0.929 . S
H1690 C1694 0.929 . S
H1691 C1700 0.929 . S
C1692 H1686 0.930 . S
C1692 C1693 1.367 . S
C1692 C1700 1.378 . S
C1693 C1692 1.367 . S
C1693 C1701 1.433 . S
C1694 H1690 0.929 . S
C1694 C1696 1.378 . S
C1694 C1698 1.350 . S
C1695 C1698 1.463 . S
C1695 C1700 1.350 . S
C1695 N1703 1.427 . S
C1696 H1687 0.930 . S
C1696 C1694 1.378 . S
C1696 C1697 1.367 . S
C1697 C1696 1.367 . S
C1697 C1699 1.433 . S
C1698 C1694 1.350 . S
C1698 C1695 1.463 . S
C1698 N1702 1.427 . S
C1699 H1689 0.929 . S
C1699 C1697 1.433 . S
C1699 N1702 1.384 . S
C1700 H1691 0.929 . S
C1700 C1692 1.378 . S
C1700 C1695 1.350 . S
C1701 H1688 0.929 . S
C1701 C1693 1.433 . S
C1701 N1703 1.384 . S
N1702 C1698 1.427 . S
N1702 C1699 1.384 . S
N1703 C1695 1.427 . S
N1703 C1701 1.384 . S
H1704 C1710 0.930 . S
H1705 C1714 0.930 . S
H1706 C1719 0.929 . S
H1707 C1717 0.929 . S
H1708 C1712 0.929 . S
H1709 C1718 0.929 . S
C1710 H1704 0.930 . S
C1710 C1711 1.367 . S
C1710 C1718 1.378 . S
C1711 C1710 1.367 . S
C1711 C1719 1.433 . S
C1712 H1708 0.929 . S
C1712 C1714 1.378 . S
C1712 C1716 1.350 . S
C1713 C1716 1.463 . S
C1713 C1718 1.350 . S
C1713 N1721 1.427 . S
C1714 H1705 0.930 . S
C1714 C1712 1.378 . S
C1714 C1715 1.367 . S
C1715 C1714 1.367 . S
C1715 C1717 1.433 . S
C1716 C1712 1.350 . S
C1716 C1713 1.463 . S
C1716 N1720 1.427 . S
C1717 H1707 0.929 . S
C1717 C1715 1.433 . S
C1717 N1720 1.384 . S
C1718 H1709 0.929 . S
C1718 C1710 1.378 . S
C1718 C1713 1.350 . S
C1719 H1706 0.929 . S
C1719 C1711 1.433 . S
C1719 N1721 1.384 . S
N1720 C1716 1.427 . S
N1720 C1717 1.384 . S
N1721 C1713 1.427 . S
N1721 C1719 1.384 . S
H1722 C1728 0.930 . S
H1723 C1732 0.930 . S
H1724 C1737 0.929 . S
H1725 C1735 0.929 . S
H1726 C1730 0.929 . S
H1727 C1736 0.929 . S
C1728 H1722 0.930 . S
C1728 C1729 1.367 . S
C1728 C1736 1.378 . S
C1729 C1728 1.367 . S
C1729 C1737 1.433 . S
C1730 H1726 0.929 . S
C1730 C1732 1.378 . S
C1730 C1734 1.350 . S
C1731 C1734 1.463 . S
C1731 C1736 1.350 . S
C1731 N1739 1.427 . S
C1732 H1723 0.930 . S
C1732 C1730 1.378 . S
C1732 C1733 1.367 . S
C1733 C1732 1.367 . S
C1733 C1735 1.433 . S
C1734 C1730 1.350 . S
C1734 C1731 1.463 . S
C1734 N1738 1.427 . S
C1735 H1725 0.929 . S
C1735 C1733 1.433 . S
C1735 N1738 1.384 . S
C1736 H1727 0.929 . S
C1736 C1728 1.378 . S
C1736 C1731 1.350 . S
C1737 H1724 0.929 . S
C1737 C1729 1.433 . S
C1737 N1739 1.384 . S
N1738 C1734 1.427 . S
N1738 C1735 1.384 . S
N1739 C1731 1.427 . S
N1739 C1737 1.384 . S
H1740 C1746 0.930 . S
H1741 C1750 0.930 . S
H1742 C1755 0.929 . S
H1743 C1753 0.929 . S
H1744 C1748 0.929 . S
H1745 C1754 0.929 . S
C1746 H1740 0.930 . S
C1746 C1747 1.367 . S
C1746 C1754 1.378 . S
C1747 C1746 1.367 . S
C1747 C1755 1.433 . S
C1748 H1744 0.929 . S
C1748 C1750 1.378 . S
C1748 C1752 1.350 . S
C1749 C1752 1.463 . S
C1749 C1754 1.350 . S
C1749 N1757 1.427 . S
C1750 H1741 0.930 . S
C1750 C1748 1.378 . S
C1750 C1751 1.367 . S
C1751 C1750 1.367 . S
C1751 C1753 1.433 . S
C1752 C1748 1.350 . S
C1752 C1749 1.463 . S
C1752 N1756 1.427 . S
C1753 H1743 0.929 . S
C1753 C1751 1.433 . S
C1753 N1756 1.384 . S
C1754 H1745 0.929 . S
C1754 C1746 1.378 . S
C1754 C1749 1.350 . S
C1755 H1742 0.929 . S
C1755 C1747 1.433 . S
C1755 N1757 1.384 . S
N1756 C1752 1.427 . S
N1756 C1753 1.384 . S
N1757 C1749 1.427 . S
N1757 C1755 1.384 . S
H1758 C1764 0.930 . S
H1759 C1768 0.930 . S
H1760 C1773 0.929 . S
H1761 C1771 0.929 . S
H1762 C1766 0.929 . S
H1763 C1772 0.929 . S
C1764 H1758 0.930 . S
C1764 C1765 1.367 . S
C1764 C1772 1.378 . S
C1765 C1764 1.367 . S
C1765 C1773 1.433 . S
C1766 H1762 0.929 . S
C1766 C1768 1.378 . S
C1766 C1770 1.350 . S
C1767 C1770 1.463 . S
C1767 C1772 1.350 . S
C1767 N1775 1.427 . S
C1768 H1759 0.930 . S
C1768 C1766 1.378 . S
C1768 C1769 1.367 . S
C1769 C1768 1.367 . S
C1769 C1771 1.433 . S
C1770 C1766 1.350 . S
C1770 C1767 1.463 . S
C1770 N1774 1.427 . S
C1771 H1761 0.929 . S
C1771 C1769 1.433 . S
C1771 N1774 1.384 . S
C1772 H1763 0.929 . S
C1772 C1764 1.378 . S
C1772 C1767 1.350 . S
C1773 H1760 0.929 . S
C1773 C1765 1.433 . S
C1773 N1775 1.384 . S
N1774 C1770 1.427 . S
N1774 C1771 1.384 . S
N1775 C1767 1.427 . S
N1775 C1773 1.384 . S
H1776 C1782 0.930 . S
H1777 C1786 0.930 . S
H1778 C1791 0.929 . S
H1779 C1789 0.929 . S
H1780 C1784 0.929 . S
H1781 C1790 0.929 . S
C1782 H1776 0.930 . S
C1782 C1783 1.367 . S
C1782 C1790 1.378 . S
C1783 C1782 1.367 . S
C1783 C1791 1.433 . S
C1784 H1780 0.929 . S
C1784 C1786 1.378 . S
C1784 C1788 1.350 . S
C1785 C1788 1.463 . S
C1785 C1790 1.350 . S
C1785 N1793 1.427 . S
C1786 H1777 0.930 . S
C1786 C1784 1.378 . S
C1786 C1787 1.367 . S
C1787 C1786 1.367 . S
C1787 C1789 1.433 . S
C1788 C1784 1.350 . S
C1788 C1785 1.463 . S
C1788 N1792 1.427 . S
C1789 H1779 0.929 . S
C1789 C1787 1.433 . S
C1789 N1792 1.384 . S
C1790 H1781 0.929 . S
C1790 C1782 1.378 . S
C1790 C1785 1.350 . S
C1791 H1778 0.929 . S
C1791 C1783 1.433 . S
C1791 N1793 1.384 . S
N1792 C1788 1.427 . S
N1792 C1789 1.384 . S
N1793 C1785 1.427 . S
N1793 C1791 1.384 . S
H1794 C1800 0.930 . S
H1795 C1804 0.930 . S
H1796 C1809 0.929 . S
H1797 C1807 0.929 . S
H1798 C1802 0.929 . S
H1799 C1808 0.929 . S
C1800 H1794 0.930 . S
C1800 C1801 1.367 . S
C1800 C1808 1.378 . S
C1801 C1800 1.367 . S
C1801 C1809 1.433 . S
C1802 H1798 0.929 . S
C1802 C1804 1.378 . S
C1802 C1806 1.350 . S
C1803 C1806 1.463 . S
C1803 C1808 1.350 . S
C1803 N1811 1.427 . S
C1804 H1795 0.930 . S
C1804 C1802 1.378 . S
C1804 C1805 1.367 . S
C1805 C1804 1.367 . S
C1805 C1807 1.433 . S
C1806 C1802 1.350 . S
C1806 C1803 1.463 . S
C1806 N1810 1.427 . S
C1807 H1797 0.929 . S
C1807 C1805 1.433 . S
C1807 N1810 1.384 . S
C1808 H1799 0.929 . S
C1808 C1800 1.378 . S
C1808 C1803 1.350 . S
C1809 H1796 0.929 . S
C1809 C1801 1.433 . S
C1809 N1811 1.384 . S
N1810 C1806 1.427 . S
N1810 C1807 1.384 . S
N1811 C1803 1.427 . S
N1811 C1809 1.384 . S
H1812 C1818 0.930 . S
H1813 C1822 0.930 . S
H1814 C1827 0.929 . S
H1815 C1825 0.929 . S
H1816 C1820 0.929 . S
H1817 C1826 0.929 . S
C1818 H1812 0.930 . S
C1818 C1819 1.367 . S
C1818 C1826 1.378 . S
C1819 C1818 1.367 . S
C1819 C1827 1.433 . S
C1820 H1816 0.929 . S
C1820 C1822 1.378 . S
C1820 C1824 1.350 . S
C1821 C1824 1.463 . S
C1821 C1826 1.350 . S
C1821 N1829 1.427 . S
C1822 H1813 0.930 . S
C1822 C1820 1.378 . S
C1822 C1823 1.367 . S
C1823 C1822 1.367 . S
C1823 C1825 1.433 . S
C1824 C1820 1.350 . S
C1824 C1821 1.463 . S
C1824 N1828 1.427 . S
C1825 H1815 0.929 . S
C1825 C1823 1.433 . S
C1825 N1828 1.384 . S
C1826 H1817 0.929 . S
C1826 C1818 1.378 . S
C1826 C1821 1.350 . S
C1827 H1814 0.929 . S
C1827 C1819 1.433 . S
C1827 N1829 1.384 . S
N1828 C1824 1.427 . S
N1828 C1825 1.384 . S
N1829 C1821 1.427 . S
N1829 C1827 1.384 . S
H1830 C1836 0.930 . S
H1831 C1840 0.930 . S
H1832 C1845 0.929 . S
H1833 C1843 0.929 . S
H1834 C1838 0.929 . S
H1835 C1844 0.929 . S
C1836 H1830 0.930 . S
C1836 C1837 1.367 . S
C1836 C1844 1.378 . S
C1837 C1836 1.367 . S
C1837 C1845 1.433 . S
C1838 H1834 0.929 . S
C1838 C1840 1.378 . S
C1838 C1842 1.350 . S
C1839 C1842 1.463 . S
C1839 C1844 1.350 . S
C1839 N1847 1.427 . S
C1840 H1831 0.930 . S
C1840 C1838 1.378 . S
C1840 C1841 1.367 . S
C1841 C1840 1.367 . S
C1841 C1843 1.433 . S
C1842 C1838 1.350 . S
C1842 C1839 1.463 . S
C1842 N1846 1.427 . S
C1843 H1833 0.929 . S
C1843 C1841 1.433 . S
C1843 N1846 1.384 . S
C1844 H1835 0.929 . S
C1844 C1836 1.378 . S
C1844 C1839 1.350 . S
C1845 H1832 0.929 . S
C1845 C1837 1.433 . S
C1845 N1847 1.384 . S
N1846 C1842 1.427 . S
N1846 C1843 1.384 . S
N1847 C1839 1.427 . S
N1847 C1845 1.384 . S
H1848 C1854 0.930 . S
H1849 C1858 0.930 . S
H1850 C1863 0.929 . S
H1851 C1861 0.929 . S
H1852 C1856 0.929 . S
H1853 C1862 0.929 . S
C1854 H1848 0.930 . S
C1854 C1855 1.367 . S
C1854 C1862 1.378 . S
C1855 C1854 1.367 . S
C1855 C1863 1.433 . S
C1856 H1852 0.929 . S
C1856 C1858 1.378 . S
C1856 C1860 1.350 . S
C1857 C1860 1.463 . S
C1857 C1862 1.350 . S
C1857 N1865 1.427 . S
C1858 H1849 0.930 . S
C1858 C1856 1.378 . S
C1858 C1859 1.367 . S
C1859 C1858 1.367 . S
C1859 C1861 1.433 . S
C1860 C1856 1.350 . S
C1860 C1857 1.463 . S
C1860 N1864 1.427 . S
C1861 H1851 0.929 . S
C1861 C1859 1.433 . S
C1861 N1864 1.384 . S
C1862 H1853 0.929 . S
C1862 C1854 1.378 . S
C1862 C1857 1.350 . S
C1863 H1850 0.929 . S
C1863 C1855 1.433 . S
C1863 N1865 1.384 . S
N1864 C1860 1.427 . S
N1864 C1861 1.384 . S
N1865 C1857 1.427 . S
N1865 C1863 1.384 . S
H1866 C1872 0.930 . S
H1867 C1876 0.930 . S
H1868 C1881 0.929 . S
H1869 C1879 0.929 . S
H1870 C1874 0.929 . S
H1871 C1880 0.929 . S
C1872 H1866 0.930 . S
C1872 C1873 1.367 . S
C1872 C1880 1.378 . S
C1873 C1872 1.367 . S
C1873 C1881 1.433 . S
C1874 H1870 0.929 . S
C1874 C1876 1.378 . S
C1874 C1878 1.350 . S
C1875 C1878 1.463 . S
C1875 C1880 1.350 . S
C1875 N1883 1.427 . S
C1876 H1867 0.930 . S
C1876 C1874 1.378 . S
C1876 C1877 1.367 . S
C1877 C1876 1.367 . S
C1877 C1879 1.433 . S
C1878 C1874 1.350 . S
C1878 C1875 1.463 . S
C1878 N1882 1.427 . S
C1879 H1869 0.929 . S
C1879 C1877 1.433 . S
C1879 N1882 1.384 . S
C1880 H1871 0.929 . S
C1880 C1872 1.378 . S
C1880 C1875 1.350 . S
C1881 H1868 0.929 . S
C1881 C1873 1.433 . S
C1881 N1883 1.384 . S
N1882 C1878 1.427 . S
N1882 C1879 1.384 . S
N1883 C1875 1.427 . S
N1883 C1881 1.384 . S
H1884 C1890 0.930 . S
H1885 C1894 0.930 . S
H1886 C1899 0.929 . S
H1887 C1897 0.929 . S
H1888 C1892 0.929 . S
H1889 C1898 0.929 . S
C1890 H1884 0.930 . S
C1890 C1891 1.367 . S
C1890 C1898 1.378 . S
C1891 C1890 1.367 . S
C1891 C1899 1.433 . S
C1892 H1888 0.929 . S
C1892 C1894 1.378 . S
C1892 C1896 1.350 . S
C1893 C1896 1.463 . S
C1893 C1898 1.350 . S
C1893 N1901 1.427 . S
C1894 H1885 0.930 . S
C1894 C1892 1.378 . S
C1894 C1895 1.367 . S
C1895 C1894 1.367 . S
C1895 C1897 1.433 . S
C1896 C1892 1.350 . S
C1896 C1893 1.463 . S
C1896 N1900 1.427 . S
C1897 H1887 0.929 . S
C1897 C1895 1.433 . S
C1897 N1900 1.384 . S
C1898 H1889 0.929 . S
C1898 C1890 1.378 . S
C1898 C1893 1.350 . S
C1899 H1886 0.929 . S
C1899 C1891 1.433 . S
C1899 N1901 1.384 . S
N1900 C1896 1.427 . S
N1900 C1897 1.384 . S
N1901 C1893 1.427 . S
N1901 C1899 1.384 . S
H1902 C1908 0.930 . S
H1903 C1912 0.930 . S
H1904 C1917 0.929 . S
H1905 C1915 0.929 . S
H1906 C1910 0.929 . S
H1907 C1916 0.929 . S
C1908 H1902 0.930 . S
C1908 C1909 1.367 . S
C1908 C1916 1.378 . S
C1909 C1908 1.367 . S
C1909 C1917 1.433 . S
C1910 H1906 0.929 . S
C1910 C1912 1.378 . S
C1910 C1914 1.350 . S
C1911 C1914 1.463 . S
C1911 C1916 1.350 . S
C1911 N1919 1.427 . S
C1912 H1903 0.930 . S
C1912 C1910 1.378 . S
C1912 C1913 1.367 . S
C1913 C1912 1.367 . S
C1913 C1915 1.433 . S
C1914 C1910 1.350 . S
C1914 C1911 1.463 . S
C1914 N1918 1.427 . S
C1915 H1905 0.929 . S
C1915 C1913 1.433 . S
C1915 N1918 1.384 . S
C1916 H1907 0.929 . S
C1916 C1908 1.378 . S
C1916 C1911 1.350 . S
C1917 H1904 0.929 . S
C1917 C1909 1.433 . S
C1917 N1919 1.384 . S
N1918 C1914 1.427 . S
N1918 C1915 1.384 . S
N1919 C1911 1.427 . S
N1919 C1917 1.384 . S
C635 C354 1.467 . S
C631 C308 1.550 . S
C649 C282 1.359 . S
C653 C348 1.285 . S
C671 C316 1.416 . S
C667 C269 1.497 . S
C685 C295 1.736 . S
C689 C330 1.616 . S
C707 C368 1.947 . S
C703 C217 2.042 . S
C725 C455 1.537 . S
C721 C230 1.569 . S
C739 C243 2.109 . S
C743 C382 2.000 . S
C761 C450 1.016 . S
C757 C256 1.029 . S
C775 C165 2.091 . S
C779 C406 2.003 . S
C797 C461 1.394 . S
C793 C178 1.431 . S
C811 C191 2.057 . S
C815 C400 1.946 . S
C829 C204 1.300 . S
C833 C446 1.267 . S
C851 C502 1.298 . S
C847 C152 1.327 . S
C865 C126 1.484 . S
C869 C513 1.461 . S
C883 C113 1.179 . S
C887 C498 1.160 . S
C905 C507 1.703 . S
C901 C139 1.723 . S
C919 C61 1.613 . S
C923 C552 1.536 . S
C937 C74 0.859 . S
C941 C611 0.847 . S
C955 C87 1.766 . S
C959 C568 1.662 . S
C973 C100 1.030 . S
C977 C606 1.006 . S
C995 C570 1.678 . S
C991 C9 1.782 . S
C1013 C617 0.613 . S
C1009 C22 0.612 . S
C1027 C35 1.618 . S
C1031 C546 1.541 . S
C1049 C602 1.175 . S
C1045 C48 1.212 . S
C1067 C338 1.513 . S
C1063 C4 1.375 . S
C1081 C21 1.237 . S
C1085 C342 1.246 . S
C1099 C34 1.823 . S
C1103 C362 1.768 . S
C1117 C43 0.848 . S
C1121 C357 0.884 . S
C1135 C56 1.396 . S
C1139 C360 1.518 . S
C1157 C346 1.092 . S
C1153 C69 0.971 . S
C1171 C86 1.771 . S
C1175 C344 1.711 . S
C1193 C351 0.954 . S
C1189 C99 0.954 . S
C1211 C414 1.597 . S
C1207 C47 1.657 . S
C1225 C8 2.004 . S
C1229 C464 1.911 . S
C1247 C412 1.001 . S
C1243 C17 0.947 . S
C1265 C448 1.609 . S
C1261 C30 1.477 . S
C1279 C73 1.359 . S
C1283 C390 1.320 . S
C1301 C466 1.665 . S
C1297 C82 1.568 . S
C1319 C396 1.221 . S
C1315 C95 1.109 . S
C1337 C442 1.851 . S
C1333 C60 1.947 . S
C1355 C434 1.426 . S
C1351 C112 1.436 . S
C1369 C125 1.269 . S
C1373 C458 1.286 . S
C1391 C394 1.130 . S
C1387 C108 1.018 . S
C1409 C420 1.490 1_556 S
C1405 C138 1.517 . S
C1423 C147 0.961 . S
C1427 C398 1.092 . S
C1441 C151 1.601 . S
C1445 C452 1.585 . S
C1463 C409 1.360 . S
C1459 C121 1.190 . S
C1481 C403 1.402 . S
C1477 C134 1.232 1_554 S
C1499 C486 1.822 . S
C1495 C160 1.648 . S
C1517 C518 1.414 . S
C1513 C177 1.397 . S
C1531 C190 2.084 . S
C1535 C472 2.004 . S
C1553 C516 1.066 . S
C1549 C199 0.968 . S
C1571 C504 1.765 . S
C1567 C212 1.604 . S
C1585 C225 1.094 . S
C1589 C500 1.283 . S
C1603 C242 2.107 . S
C1607 C510 2.074 . S
C1625 C494 1.098 . S
C1621 C255 1.090 . S
C1643 C559 1.483 . S
C1639 C203 1.469 . S
C1657 C164 1.732 . S
C1661 C620 1.703 . S
C1679 C554 0.939 . S
C1675 C173 0.852 . S
C1697 C604 1.513 . S
C1693 C186 1.298 . S
C1715 C550 1.207 . S
C1711 C229 1.201 . S
C1729 C238 1.261 . S
C1733 C622 1.460 . S
C1751 C565 1.119 . S
C1747 C251 0.982 . S
C1769 C598 1.594 . S
C1765 C216 1.635 . S
C1787 C590 1.567 . S
C1783 C268 1.593 . S
C1801 C281 1.678 . S
C1805 C614 1.606 . S
C1823 C556 1.331 . S
C1819 C264 1.220 . S
C1837 C294 1.993 . S
C1841 C576 1.873 . S
C1859 C538 1.395 . S
C1855 C303 1.282 . S
C1877 C608 1.703 . S
C1873 C307 1.756 . S
C1895 C524 1.358 . S
C1891 C277 1.255 . S
C1909 C290 1.214 . S
C1913 C562 1.327 . S
