# Generated by pormake.
# Topology ptr, (4,4)-cn, num edge types: 1
# Building blocks:
#     Node 0, Type 0, BuildingBlock: KUFVIS_clean_sbu_0, # of connection points: 4
#     Node 1, Type 0, BuildingBlock: KUFVIS_clean_sbu_0, # of connection points: 4
#     Node 2, Type 0, BuildingBlock: KUFVIS_clean_sbu_0, # of connection points: 4
#     Node 3, Type 0, BuildingBlock: KUFVIS_clean_sbu_0, # of connection points: 4
#     Node 4, Type 0, BuildingBlock: KUFVIS_clean_sbu_0, # of connection points: 4
#     Node 5, Type 0, BuildingBlock: KUFVIS_clean_sbu_0, # of connection points: 4
#     Node 6, Type 0, BuildingBlock: KUFVIS_clean_sbu_0, # of connection points: 4
#     Node 7, Type 0, BuildingBlock: KUFVIS_clean_sbu_0, # of connection points: 4
#     Node 8, Type 0, BuildingBlock: KUFVIS_clean_sbu_0, # of connection points: 4
#     Node 9, Type 0, BuildingBlock: KUFVIS_clean_sbu_0, # of connection points: 4
#     Node 10, Type 0, BuildingBlock: KUFVIS_clean_sbu_0, # of connection points: 4
#     Node 11, Type 0, BuildingBlock: KUFVIS_clean_sbu_0, # of connection points: 4
#     Node 12, Type 0, BuildingBlock: KUFVIS_clean_sbu_0, # of connection points: 4
#     Node 13, Type 0, BuildingBlock: KUFVIS_clean_sbu_0, # of connection points: 4
#     Node 14, Type 0, BuildingBlock: KUFVIS_clean_sbu_0, # of connection points: 4
#     Node 15, Type 0, BuildingBlock: KUFVIS_clean_sbu_0, # of connection points: 4
#     Node 16, Type 0, BuildingBlock: KUFVIS_clean_sbu_0, # of connection points: 4
#     Node 17, Type 0, BuildingBlock: KUFVIS_clean_sbu_0, # of connection points: 4
#     Node 18, Type 1, BuildingBlock: NAWXER_clean_linker_0, # of connection points: 4
#     Node 19, Type 1, BuildingBlock: NAWXER_clean_linker_0, # of connection points: 4
#     Node 20, Type 1, BuildingBlock: NAWXER_clean_linker_0, # of connection points: 4
#     Node 21, Type 1, BuildingBlock: NAWXER_clean_linker_0, # of connection points: 4
#     Node 22, Type 1, BuildingBlock: NAWXER_clean_linker_0, # of connection points: 4
#     Node 23, Type 1, BuildingBlock: NAWXER_clean_linker_0, # of connection points: 4
#     Node 24, Type 1, BuildingBlock: NAWXER_clean_linker_0, # of connection points: 4
#     Node 25, Type 1, BuildingBlock: NAWXER_clean_linker_0, # of connection points: 4
#     Node 26, Type 1, BuildingBlock: NAWXER_clean_linker_0, # of connection points: 4
#     Node 27, Type 1, BuildingBlock: NAWXER_clean_linker_0, # of connection points: 4
#     Node 28, Type 1, BuildingBlock: NAWXER_clean_linker_0, # of connection points: 4
#     Node 29, Type 1, BuildingBlock: NAWXER_clean_linker_0, # of connection points: 4
#     Node 30, Type 1, BuildingBlock: NAWXER_clean_linker_0, # of connection points: 4
#     Node 31, Type 1, BuildingBlock: NAWXER_clean_linker_0, # of connection points: 4
#     Node 32, Type 1, BuildingBlock: NAWXER_clean_linker_0, # of connection points: 4
#     Node 33, Type 1, BuildingBlock: NAWXER_clean_linker_0, # of connection points: 4
#     Node 34, Type 1, BuildingBlock: NAWXER_clean_linker_0, # of connection points: 4
#     Node 35, Type 1, BuildingBlock: NAWXER_clean_linker_0, # of connection points: 4
#     Edge 36, Type (0, 1), BuildingBlock: OJICUG_clean_linker_0, # of connection points: 2
#     Edge 37, Type (0, 1), BuildingBlock: OJICUG_clean_linker_0, # of connection points: 2
#     Edge 38, Type (0, 1), BuildingBlock: OJICUG_clean_linker_0, # of connection points: 2
#     Edge 39, Type (0, 1), BuildingBlock: OJICUG_clean_linker_0, # of connection points: 2
#     Edge 40, Type (0, 1), BuildingBlock: OJICUG_clean_linker_0, # of connection points: 2
#     Edge 41, Type (0, 1), BuildingBlock: OJICUG_clean_linker_0, # of connection points: 2
#     Edge 42, Type (0, 1), BuildingBlock: OJICUG_clean_linker_0, # of connection points: 2
#     Edge 43, Type (0, 1), BuildingBlock: OJICUG_clean_linker_0, # of connection points: 2
#     Edge 44, Type (0, 1), BuildingBlock: OJICUG_clean_linker_0, # of connection points: 2
#     Edge 45, Type (0, 1), BuildingBlock: OJICUG_clean_linker_0, # of connection points: 2
#     Edge 46, Type (0, 1), BuildingBlock: OJICUG_clean_linker_0, # of connection points: 2
#     Edge 47, Type (0, 1), BuildingBlock: OJICUG_clean_linker_0, # of connection points: 2
#     Edge 48, Type (0, 1), BuildingBlock: OJICUG_clean_linker_0, # of connection points: 2
#     Edge 49, Type (0, 1), BuildingBlock: OJICUG_clean_linker_0, # of connection points: 2
#     Edge 50, Type (0, 1), BuildingBlock: OJICUG_clean_linker_0, # of connection points: 2
#     Edge 51, Type (0, 1), BuildingBlock: OJICUG_clean_linker_0, # of connection points: 2
#     Edge 52, Type (0, 1), BuildingBlock: OJICUG_clean_linker_0, # of connection points: 2
#     Edge 53, Type (0, 1), BuildingBlock: OJICUG_clean_linker_0, # of connection points: 2
#     Edge 54, Type (0, 1), BuildingBlock: OJICUG_clean_linker_0, # of connection points: 2
#     Edge 55, Type (0, 1), BuildingBlock: OJICUG_clean_linker_0, # of connection points: 2
#     Edge 56, Type (0, 1), BuildingBlock: OJICUG_clean_linker_0, # of connection points: 2
#     Edge 57, Type (0, 1), BuildingBlock: OJICUG_clean_linker_0, # of connection points: 2
#     Edge 58, Type (0, 1), BuildingBlock: OJICUG_clean_linker_0, # of connection points: 2
#     Edge 59, Type (0, 1), BuildingBlock: OJICUG_clean_linker_0, # of connection points: 2
#     Edge 60, Type (0, 1), BuildingBlock: OJICUG_clean_linker_0, # of connection points: 2
#     Edge 61, Type (0, 1), BuildingBlock: OJICUG_clean_linker_0, # of connection points: 2
#     Edge 62, Type (0, 1), BuildingBlock: OJICUG_clean_linker_0, # of connection points: 2
#     Edge 63, Type (0, 1), BuildingBlock: OJICUG_clean_linker_0, # of connection points: 2
#     Edge 64, Type (0, 1), BuildingBlock: OJICUG_clean_linker_0, # of connection points: 2
#     Edge 65, Type (0, 1), BuildingBlock: OJICUG_clean_linker_0, # of connection points: 2
#     Edge 66, Type (0, 1), BuildingBlock: OJICUG_clean_linker_0, # of connection points: 2
#     Edge 67, Type (0, 1), BuildingBlock: OJICUG_clean_linker_0, # of connection points: 2
#     Edge 68, Type (0, 1), BuildingBlock: OJICUG_clean_linker_0, # of connection points: 2
#     Edge 69, Type (0, 1), BuildingBlock: OJICUG_clean_linker_0, # of connection points: 2
#     Edge 70, Type (0, 1), BuildingBlock: OJICUG_clean_linker_0, # of connection points: 2
#     Edge 71, Type (0, 1), BuildingBlock: OJICUG_clean_linker_0, # of connection points: 2
#     Edge 72, Type (0, 1), BuildingBlock: OJICUG_clean_linker_0, # of connection points: 2
#     Edge 73, Type (0, 1), BuildingBlock: OJICUG_clean_linker_0, # of connection points: 2
#     Edge 74, Type (0, 1), BuildingBlock: OJICUG_clean_linker_0, # of connection points: 2
#     Edge 75, Type (0, 1), BuildingBlock: OJICUG_clean_linker_0, # of connection points: 2
#     Edge 76, Type (0, 1), BuildingBlock: OJICUG_clean_linker_0, # of connection points: 2
#     Edge 77, Type (0, 1), BuildingBlock: OJICUG_clean_linker_0, # of connection points: 2
#     Edge 78, Type (0, 1), BuildingBlock: OJICUG_clean_linker_0, # of connection points: 2
#     Edge 79, Type (0, 1), BuildingBlock: OJICUG_clean_linker_0, # of connection points: 2
#     Edge 80, Type (0, 1), BuildingBlock: OJICUG_clean_linker_0, # of connection points: 2
#     Edge 81, Type (0, 1), BuildingBlock: OJICUG_clean_linker_0, # of connection points: 2
#     Edge 82, Type (0, 1), BuildingBlock: OJICUG_clean_linker_0, # of connection points: 2
#     Edge 83, Type (0, 1), BuildingBlock: OJICUG_clean_linker_0, # of connection points: 2
#     Edge 84, Type (0, 1), BuildingBlock: OJICUG_clean_linker_0, # of connection points: 2
#     Edge 85, Type (0, 1), BuildingBlock: OJICUG_clean_linker_0, # of connection points: 2
#     Edge 86, Type (0, 1), BuildingBlock: OJICUG_clean_linker_0, # of connection points: 2
#     Edge 87, Type (0, 1), BuildingBlock: OJICUG_clean_linker_0, # of connection points: 2
#     Edge 88, Type (0, 1), BuildingBlock: OJICUG_clean_linker_0, # of connection points: 2
#     Edge 89, Type (0, 1), BuildingBlock: OJICUG_clean_linker_0, # of connection points: 2
#     Edge 90, Type (0, 1), BuildingBlock: OJICUG_clean_linker_0, # of connection points: 2
#     Edge 91, Type (0, 1), BuildingBlock: OJICUG_clean_linker_0, # of connection points: 2
#     Edge 92, Type (0, 1), BuildingBlock: OJICUG_clean_linker_0, # of connection points: 2
#     Edge 93, Type (0, 1), BuildingBlock: OJICUG_clean_linker_0, # of connection points: 2
#     Edge 94, Type (0, 1), BuildingBlock: OJICUG_clean_linker_0, # of connection points: 2
#     Edge 95, Type (0, 1), BuildingBlock: OJICUG_clean_linker_0, # of connection points: 2
#     Edge 96, Type (0, 1), BuildingBlock: OJICUG_clean_linker_0, # of connection points: 2
#     Edge 97, Type (0, 1), BuildingBlock: OJICUG_clean_linker_0, # of connection points: 2
#     Edge 98, Type (0, 1), BuildingBlock: OJICUG_clean_linker_0, # of connection points: 2
#     Edge 99, Type (0, 1), BuildingBlock: OJICUG_clean_linker_0, # of connection points: 2
#     Edge 100, Type (0, 1), BuildingBlock: OJICUG_clean_linker_0, # of connection points: 2
#     Edge 101, Type (0, 1), BuildingBlock: OJICUG_clean_linker_0, # of connection points: 2
#     Edge 102, Type (0, 1), BuildingBlock: OJICUG_clean_linker_0, # of connection points: 2
#     Edge 103, Type (0, 1), BuildingBlock: OJICUG_clean_linker_0, # of connection points: 2
#     Edge 104, Type (0, 1), BuildingBlock: OJICUG_clean_linker_0, # of connection points: 2
#     Edge 105, Type (0, 1), BuildingBlock: OJICUG_clean_linker_0, # of connection points: 2
#     Edge 106, Type (0, 1), BuildingBlock: OJICUG_clean_linker_0, # of connection points: 2
#     Edge 107, Type (0, 1), BuildingBlock: OJICUG_clean_linker_0, # of connection points: 2
# Relax obj value: 0.038
# Max RMSD: 0.168
# Mean RMSD: 0.065
data_MOF--net-ptr--node1-KUFVIS_clean_sbu_0--node2-NAWXER_clean_linker_0--edge1-OJICUG_clean_linker_0
_symmetry_space_group_name_H-M    P1
_symmetry_Int_Tables_number       1
_symmetry_cell_setting            triclinic
loop_
_symmetry_equiv_pos_as_xyz
'x, y, z'
_cell_length_a     67.384237
_cell_length_b     67.066482
_cell_length_c     49.647372
_cell_angle_alpha  89.770081
_cell_angle_beta   90.557713
_cell_angle_gamma 119.42812
loop_
_atom_site_label
_atom_site_type_symbol
_atom_site_fract_x
_atom_site_fract_y
_atom_site_fract_z
_atom_type_partial_charge
Mn0 Mn 0.00027 0.34991 0.99916 0.0
Mn1 Mn 0.04924 0.40044 0.99926 0.0
C2 C 0.0046 0.37838 0.96974 0.0
C3 C 0.97899 0.31265 0.98301 0.0
C4 C 0.0125 0.38729 0.04146 0.0
O5 O 0.02202 0.34271 0.0202 0.0
O6 O 0.05434 0.37652 0.01632 0.0
C7 C 0.07514 0.38817 0.96133 0.0
N8 N 0.06655 0.40204 0.96827 0.0
C9 C 0.08228 0.42522 0.92873 0.0
C10 C 0.09142 0.41127 0.92123 0.0
C11 C 0.08777 0.39263 0.93756 0.0
C12 C 0.0698 0.4199 0.9526 0.0
H13 H 0.07234 0.37381 0.97381 0.0
C14 C 0.04334 0.35567 0.02425 0.0
O15 O 0.97409 0.31866 0.00576 0.0
O16 O 0.99678 0.32796 0.97048 0.0
N17 N 0.04701 0.42531 0.98333 0.0
C18 C 0.03672 0.43686 0.9932 0.0
C19 C 0.03856 0.45589 0.97911 0.0
C20 C 0.05118 0.46302 0.95523 0.0
C21 C 0.06201 0.45116 0.94577 0.0
C22 C 0.05967 0.43239 0.96074 0.0
H23 H 0.02709 0.43153 0.01162 0.0
O24 O 0.98443 0.36196 0.97561 0.0
O25 O 0.02165 0.37749 0.98092 0.0
O26 O 0.9982 0.36789 0.03144 0.0
O27 O 0.03208 0.40035 0.03131 0.0
C28 C 0.07487 0.45709 0.92196 0.0
C29 C 0.08487 0.44405 0.91335 0.0
H30 H 0.10115 0.41464 0.9029 0.0
H31 H 0.09469 0.38173 0.93184 0.0
H32 H 0.03022 0.46501 0.9866 0.0
H33 H 0.05241 0.47759 0.9443 0.0
H34 H 0.07697 0.47152 0.90996 0.0
H35 H 0.09446 0.4486 0.89481 0.0
Mn36 Mn 0.65077 0.65142 0.02006 0.0
Mn37 Mn 0.64817 0.5998 0.0231 0.0
C38 C 0.62789 0.62503 0.0518 0.0
C39 C 0.66709 0.68974 0.03287 0.0
C40 C 0.62309 0.61191 0.98079 0.0
O41 O 0.67843 0.65664 0.9984 0.0
O42 O 0.67593 0.62209 0.00343 0.0
C43 C 0.68825 0.61241 0.05841 0.0
N44 N 0.66563 0.59879 0.05306 0.0
C45 C 0.66096 0.5759 0.09244 0.0
C46 C 0.68424 0.58959 0.09829 0.0
C47 C 0.69793 0.60797 0.08124 0.0
C48 C 0.6523 0.5811 0.06935 0.0
H49 H 0.6988 0.62652 0.04531 0.0
C50 C 0.68581 0.64264 0.99438 0.0
O51 O 0.65529 0.6823 0.01074 0.0
O52 O 0.67041 0.6752 0.04677 0.0
N53 N 0.62236 0.5763 0.04139 0.0
C54 C 0.59995 0.56586 0.03399 0.0
C55 C 0.58381 0.54766 0.04953 0.0
C56 C 0.59089 0.54016 0.07224 0.0
C57 C 0.61408 0.55098 0.07926 0.0
C58 C 0.6294 0.56901 0.06299 0.0
H59 H 0.59443 0.57149 0.01648 0.0
O60 O 0.62439 0.6416 0.04436 0.0
O61 O 0.64505 0.6244 0.04067 0.0
O62 O 0.62939 0.63216 0.98915 0.0
O63 O 0.62937 0.59872 0.99196 0.0
C64 C 0.62251 0.54509 0.10225 0.0
C65 C 0.64592 0.55757 0.10886 0.0
H66 H 0.69176 0.58628 0.11594 0.0
H67 H 0.71589 0.61867 0.08569 0.0
H68 H 0.56593 0.53944 0.04403 0.0
H69 H 0.57835 0.52627 0.08433 0.0
H70 H 0.61106 0.53128 0.11527 0.0
H71 H 0.65213 0.55312 0.12683 0.0
Mn72 Mn 0.34611 0.99744 0.02474 0.0
Mn73 Mn 0.3942 0.04868 0.02178 0.0
C74 C 0.37678 0.00463 0.0526 0.0
C75 C 0.30996 0.97475 0.04311 0.0
C76 C 0.38125 0.01097 0.98008 0.0
O77 O 0.33604 0.0172 0.0036 0.0
O78 O 0.36812 0.05137 0.00702 0.0
C79 C 0.38212 0.07393 0.06112 0.0
N80 N 0.39673 0.06677 0.05257 0.0
C81 C 0.42335 0.08728 0.08827 0.0
C82 C 0.40872 0.0951 0.0973 0.0
C83 C 0.38796 0.08829 0.08375 0.0
C84 C 0.41659 0.07296 0.06565 0.0
H85 H 0.36616 0.0687 0.05076 0.0
C86 C 0.34731 0.03878 0.9997 0.0
O87 O 0.31537 0.96964 0.02009 0.0
O88 O 0.32515 0.99339 0.05467 0.0
N89 N 0.42102 0.04902 0.03543 0.0
C90 C 0.43237 0.03863 0.02532 0.0
C91 C 0.453 0.04279 0.03737 0.0
C92 C 0.46194 0.05789 0.05934 0.0
C93 C 0.4501 0.06861 0.06915 0.0
C94 C 0.42956 0.0637 0.05644 0.0
H95 H 0.42568 0.0272 0.00827 0.0
O96 O 0.36091 0.98383 0.0477 0.0
O97 O 0.37398 0.02073 0.04157 0.0
O98 O 0.36317 0.99568 0.99144 0.0
O99 O 0.3934 0.0312 0.98951 0.0
C100 C 0.45768 0.08371 0.09131 0.0
C101 C 0.44422 0.09289 0.101 0.0
H102 H 0.41316 0.10618 0.11475 0.0
H103 H 0.3765 0.09412 0.09071 0.0
H104 H 0.46204 0.03445 0.02969 0.0
H105 H 0.47783 0.061 0.06862 0.0
H106 H 0.47369 0.08817 0.10128 0.0
H107 H 0.45002 0.1041 0.11839 0.0
Mn108 Mn 0.00217 0.6537 1.00205 0.0
Mn109 Mn 0.04915 0.64776 0.00312 0.0
C110 C 0.00509 0.62911 0.97202 0.0
C111 C 0.9824 0.67186 0.98633 0.0
C112 C 0.01141 0.62578 0.04432 0.0
O113 O 0.02489 0.68148 0.02357 0.0
O114 O 0.05582 0.67697 0.0209 0.0
C115 C 0.07851 0.68602 0.967 0.0
N116 N 0.06826 0.66336 0.97329 0.0
C117 C 0.08547 0.65552 0.9355 0.0
C118 C 0.09633 0.67881 0.9287 0.0
C119 C 0.09278 0.69411 0.94448 0.0
C120 C 0.07155 0.64849 0.95826 0.0
H121 H 0.07581 0.69782 0.9791 0.0
C122 C 0.04586 0.68809 0.02844 0.0
O123 O 0.97713 0.66067 0.00893 0.0
O124 O 0.99985 0.67344 0.97365 0.0
N125 N 0.04534 0.62036 0.98661 0.0
C126 C 0.03217 0.59823 0.99463 0.0
C127 C 0.03292 0.58062 0.98025 0.0
C128 C 0.04738 0.58596 0.958 0.0
C129 C 0.06095 0.60888 0.9503 0.0
C130 C 0.05953 0.62571 0.96543 0.0
H131 H 0.02106 0.59404 0.01175 0.0
O132 O 0.98536 0.62672 0.97806 0.0
O133 O 0.02273 0.64596 0.9837 0.0
O134 O 0.99835 0.63267 0.03418 0.0
O135 O 0.0307 0.63075 0.03438 0.0
C136 C 0.07529 0.61564 0.92768 0.0
C137 C 0.08752 0.63894 0.92028 0.0
H138 H 0.10725 0.6851 0.91126 0.0
H139 H 0.10102 0.71209 0.93928 0.0
H140 H 0.02234 0.56297 0.98627 0.0
H141 H 0.04772 0.57231 0.94678 0.0
H142 H 0.07668 0.60301 0.91553 0.0
H143 H 0.09817 0.64387 0.90258 0.0
Mn144 Mn 0.34579 0.35089 0.01936 0.0
Mn145 Mn 0.39458 0.34834 0.0197 0.0
C146 C 0.37519 0.37409 0.04827 0.0
C147 C 0.30911 0.33711 0.03645 0.0
C148 C 0.38259 0.37316 0.97649 0.0
O149 O 0.3371 0.3215 0.99857 0.0
O150 O 0.36938 0.31959 0.00432 0.0
C151 C 0.38151 0.31145 0.06005 0.0
N152 N 0.39609 0.33314 0.05165 0.0
C153 C 0.41991 0.34044 0.09092 0.0
C154 C 0.40529 0.31807 0.09982 0.0
C155 C 0.38596 0.30355 0.08436 0.0
C156 C 0.4146 0.34734 0.06652 0.0
H157 H 0.36653 0.30033 0.04834 0.0
C158 C 0.34879 0.31137 0.99588 0.0
O159 O 0.31479 0.34761 0.01338 0.0
O160 O 0.32427 0.3337 0.04859 0.0
N161 N 0.42052 0.37487 0.03415 0.0
C162 C 0.4326 0.39612 0.02307 0.0
C163 C 0.45227 0.41284 0.03627 0.0
C164 C 0.45949 0.40747 0.06052 0.0
C165 C 0.44706 0.38536 0.07124 0.0
C166 C 0.42768 0.36936 0.05709 0.0
H167 H 0.42721 0.40034 0.00438 0.0
O168 O 0.35925 0.37893 0.04243 0.0
O169 O 0.37319 0.35557 0.0375 0.0
O170 O 0.36387 0.36996 0.9867 0.0
O171 O 0.39458 0.36495 0.98668 0.0
C172 C 0.45299 0.37865 0.09557 0.0
C173 C 0.43936 0.35624 0.10548 0.0
H174 H 0.40864 0.31194 0.11861 0.0
H175 H 0.3745 0.28633 0.09121 0.0
H176 H 0.46182 0.42984 0.0278 0.0
H177 H 0.47456 0.42047 0.07077 0.0
H178 H 0.46786 0.39067 0.10698 0.0
H179 H 0.44391 0.35139 0.12441 0.0
Mn180 Mn 0.65509 0.00614 1.0001 0.0
Mn181 Mn 0.60376 0.95805 0.99863 0.0
C182 C 0.62762 0.00334 0.96996 0.0
C183 C 0.69237 0.02684 0.98468 0.0
C184 C 0.61791 0.99461 0.04189 0.0
O185 O 0.66111 0.98326 0.02043 0.0
O186 O 0.62686 0.95157 0.01553 0.0
C187 C 0.61381 0.93044 0.9605 0.0
N188 N 0.60088 0.94 0.96766 0.0
C189 C 0.57597 0.92321 0.92939 0.0
C190 C 0.58895 0.91307 0.92168 0.0
C191 C 0.60798 0.91675 0.93727 0.0
C192 C 0.58252 0.93656 0.95282 0.0
H193 H 0.62843 0.93323 0.97246 0.0
C194 C 0.64766 0.96187 0.02369 0.0
O195 O 0.68657 0.03171 0.00759 0.0
O196 O 0.67685 0.00931 0.97168 0.0
N197 N 0.57974 0.96168 0.98272 0.0
C198 C 0.57029 0.97431 0.99161 0.0
C199 C 0.5517 0.97344 0.97752 0.0
C200 C 0.54287 0.95941 0.95466 0.0
C201 C 0.55275 0.94641 0.94604 0.0
C202 C 0.57122 0.94794 0.96091 0.0
H203 H 0.57698 0.98508 0.00921 0.0
O204 O 0.64427 0.02318 0.97699 0.0
O205 O 0.62747 0.98553 0.98076 0.0
O206 O 0.63748 0.00864 0.03245 0.0
O207 O 0.60454 0.97533 0.03096 0.0
C208 C 0.5455 0.93259 0.92276 0.0
C209 C 0.55711 0.92101 0.91443 0.0
H210 H 0.58459 0.90261 0.90369 0.0
H211 H 0.61814 0.90906 0.93137 0.0
H212 H 0.54423 0.9836 0.98424 0.0
H213 H 0.52869 0.95898 0.94368 0.0
H214 H 0.53132 0.93114 0.9108 0.0
H215 H 0.55164 0.91079 0.89623 0.0
Mn216 Mn 0.65468 0.68043 0.33618 0.0
Mn217 Mn 0.70151 0.73277 0.33306 0.0
C218 C 0.6573 0.70563 0.30288 0.0
C219 C 0.63512 0.64195 0.32419 0.0
C220 C 0.66423 0.71986 0.37439 0.0
O221 O 0.67763 0.67672 0.35942 0.0
O222 O 0.70854 0.71145 0.35352 0.0
C223 C 0.7308 0.7218 0.29927 0.0
N224 N 0.72047 0.73453 0.30379 0.0
C225 C 0.73775 0.75765 0.2646 0.0
C226 C 0.74869 0.74486 0.25959 0.0
C227 C 0.74514 0.72682 0.27695 0.0
C228 C 0.72374 0.75191 0.28722 0.0
H229 H 0.72814 0.70796 0.31262 0.0
C230 C 0.69866 0.69113 0.36328 0.0
O231 O 0.62968 0.6493 0.34552 0.0
O232 O 0.65256 0.65674 0.31066 0.0
N233 N 0.6973 0.75523 0.31386 0.0
C234 C 0.68394 0.76451 0.32023 0.0
C235 C 0.68464 0.78212 0.30414 0.0
C236 C 0.69926 0.79018 0.28192 0.0
C237 C 0.71299 0.78049 0.2759 0.0
C238 C 0.71159 0.763 0.29267 0.0
H239 H 0.67275 0.75844 0.33737 0.0
O240 O 0.63763 0.689 0.31003 0.0
O241 O 0.67504 0.70715 0.31547 0.0
O242 O 0.65094 0.69959 0.3659 0.0
O243 O 0.68337 0.73324 0.36361 0.0
C244 C 0.72746 0.78696 0.25342 0.0
C245 C 0.73981 0.77552 0.24776 0.0
H246 H 0.75968 0.74861 0.24232 0.0
H247 H 0.75345 0.71682 0.27314 0.0
H248 H 0.67392 0.78945 0.30885 0.0
H249 H 0.69958 0.8036 0.2694 0.0
H250 H 0.72882 0.80035 0.24002 0.0
H251 H 0.75053 0.78036 0.23013 0.0
Mn252 Mn 0.32323 0.98637 0.3557 0.0
Mn253 Mn 0.32098 0.93487 0.35624 0.0
C254 C 0.29964 0.95871 0.38598 0.0
C255 C 0.33957 0.02422 0.3702 0.0
C256 C 0.29711 0.94871 0.31412 0.0
O257 O 0.35117 0.99229 0.33404 0.0
O258 O 0.34941 0.95805 0.33856 0.0
C259 C 0.35958 0.94588 0.39343 0.0
N260 N 0.33722 0.93247 0.38665 0.0
C261 C 0.33103 0.90768 0.42456 0.0
C262 C 0.35404 0.92114 0.43188 0.0
C263 C 0.36835 0.94036 0.41629 0.0
C264 C 0.32328 0.91398 0.40153 0.0
H265 H 0.37061 0.96063 0.38144 0.0
C266 C 0.35902 0.97871 0.32991 0.0
O267 O 0.32801 0.01754 0.34782 0.0
O268 O 0.34256 0.00918 0.38346 0.0
N269 N 0.29447 0.91048 0.37243 0.0
C270 C 0.2724 0.90034 0.36373 0.0
C271 C 0.25568 0.88133 0.37771 0.0
C272 C 0.26187 0.87275 0.4002 0.0
C273 C 0.28475 0.88329 0.40855 0.0
C274 C 0.30067 0.90216 0.3938 0.0
H275 H 0.26758 0.90679 0.34637 0.0
O276 O 0.29645 0.9757 0.37961 0.0
O277 O 0.31705 0.95856 0.37488 0.0
O278 O 0.30233 0.96826 0.32396 0.0
O279 O 0.30354 0.93535 0.32447 0.0
C280 C 0.29227 0.87631 0.43144 0.0
C281 C 0.31538 0.88853 0.43947 0.0
H282 H 0.36085 0.917 0.44955 0.0
H283 H 0.3861 0.95088 0.42188 0.0
H284 H 0.23806 0.87332 0.37118 0.0
H285 H 0.24889 0.85824 0.41109 0.0
H286 H 0.28034 0.86184 0.44331 0.0
H287 H 0.32088 0.88322 0.45736 0.0
Mn288 Mn 0.01091 0.3305 0.35087 0.0
Mn289 Mn 0.06114 0.37985 0.35043 0.0
C290 C 0.04027 0.33477 0.37912 0.0
C291 C 0.97424 0.30909 0.36843 0.0
C292 C 0.04707 0.34314 0.30737 0.0
O293 O 0.00314 0.3524 0.33061 0.0
O294 O 0.03687 0.38483 0.33429 0.0
C295 C 0.04941 0.40536 0.38978 0.0
N296 N 0.06324 0.39701 0.38199 0.0
C297 C 0.08707 0.4127 0.42129 0.0
C298 C 0.07317 0.4216 0.42968 0.0
C299 C 0.05422 0.41785 0.41389 0.0
C300 C 0.08139 0.40033 0.39714 0.0
H301 H 0.03481 0.40246 0.37771 0.0
C302 C 0.01603 0.3738 0.32646 0.0
O303 O 0.97937 0.3041 0.34516 0.0
O304 O 0.99 0.32704 0.38056 0.0
N305 N 0.08646 0.37793 0.36525 0.0
C306 C 0.09814 0.36819 0.35431 0.0
C307 C 0.1176 0.37037 0.36761 0.0
C308 C 0.12503 0.38279 0.3918 0.0
C309 C 0.11306 0.39313 0.40232 0.0
C310 C 0.09388 0.3905 0.38808 0.0
H311 H 0.0926 0.35875 0.33562 0.0
O312 O 0.02364 0.31457 0.37336 0.0
O313 O 0.03901 0.35192 0.36866 0.0
O314 O 0.028 0.32856 0.31761 0.0
O315 O 0.0603 0.36274 0.31784 0.0
C316 C 0.11932 0.40582 0.42647 0.0
C317 C 0.10625 0.41547 0.43604 0.0
H318 H 0.07682 0.43125 0.44826 0.0
H319 H 0.04335 0.42459 0.42028 0.0
H320 H 0.12682 0.36245 0.35927 0.0
H321 H 0.13993 0.38426 0.40212 0.0
H322 H 0.13403 0.40809 0.43795 0.0
H323 H 0.11109 0.42498 0.45478 0.0
Mn324 Mn 0.67052 0.98535 0.33626 0.0
Mn325 Mn 0.71937 0.98282 0.33714 0.0
C326 C 0.67536 0.96202 0.30611 0.0
C327 C 0.64896 0.0017 0.32124 0.0
C328 C 0.68153 0.95797 0.37762 0.0
O329 O 0.69186 0.01336 0.35856 0.0
O330 O 0.72396 0.01096 0.35583 0.0
C331 C 0.7463 0.02255 0.3017 0.0
N332 N 0.73753 -0.00012 0.30726 0.0
C333 C 0.75401 0.99419 0.26725 0.0
C334 C 0.76334 0.01751 0.26118 0.0
C335 C 0.75942 0.03174 0.27846 0.0
C336 C 0.74106 0.98601 0.29068 0.0
H337 H 0.74326 0.03352 0.31488 0.0
C338 C 0.71299 0.02098 0.36363 0.0
O339 O 0.644 0.98984 0.34333 0.0
O340 O 0.66703 0.00496 0.30852 0.0
N341 N 0.71775 0.95662 0.31976 0.0
C342 C 0.70753 0.93452 0.3285 0.0
C343 C 0.70977 0.91805 0.31345 0.0
C344 C 0.72273 0.92453 0.28979 0.0
C345 C 0.73355 0.94748 0.28157 0.0
C346 C 0.73084 0.96316 0.2975 0.0
H347 H 0.69762 0.92944 0.34672 0.0
O348 O 0.65514 0.9585 0.31166 0.0
O349 O 0.69231 0.97942 0.31794 0.0
O350 O 0.6679 0.96423 0.36768 0.0
O351 O 0.7013 0.96428 0.36805 0.0
C352 C 0.74674 0.95539 0.25807 0.0
C353 C 0.75688 0.9787 0.25085 0.0
H354 H 0.77345 0.02466 0.24325 0.0
H355 H 0.76649 0.04974 0.27385 0.0
H356 H 0.70147 0.9004 0.32001 0.0
H357 H 0.72423 0.91175 0.2781 0.0
H358 H 0.74906 0.94364 0.2453 0.0
H359 H 0.7668 0.98453 0.23259 0.0
Mn360 Mn 0.00778 0.67993 0.35177 0.0
Mn361 Mn 0.05546 0.67545 0.35373 0.0
C362 C 0.03715 0.70303 0.3807 0.0
C363 C 0.97096 0.66681 0.36786 0.0
C364 C 0.04475 0.70017 0.30909 0.0
O365 O 0.99863 0.65027 0.33146 0.0
O366 O 0.0297 0.64659 0.33929 0.0
C367 C 0.04151 0.63972 0.39574 0.0
N368 N 0.05649 0.66104 0.38659 0.0
C369 C 0.08002 0.66905 0.42625 0.0
C370 C 0.06497 0.64709 0.43597 0.0
C371 C 0.0456 0.6324 0.42068 0.0
C372 C 0.07507 0.67539 0.40124 0.0
H373 H 0.02652 0.62846 0.38414 0.0
C374 C 0.00946 0.63917 0.33003 0.0
O375 O 0.97724 0.67735 0.34485 0.0
O376 O 0.98573 0.66322 0.38068 0.0
N377 N 0.08186 0.702 0.36735 0.0
C378 C 0.09449 0.72276 0.35531 0.0
C379 C 0.11435 0.73955 0.36814 0.0
C380 C 0.12117 0.73474 0.39303 0.0
C381 C 0.10818 0.7131 0.40474 0.0
C382 C 0.08866 0.69699 0.3909 0.0
H383 H 0.08941 0.72655 0.33614 0.0
O384 O 0.0215 0.70818 0.37441 0.0
O385 O 0.03474 0.68413 0.37052 0.0
O386 O 0.02655 0.69841 0.31921 0.0
O387 O 0.05591 0.6912 0.31975 0.0
C388 C 0.1137 0.70697 0.42973 0.0
C389 C 0.09957 0.685 0.44054 0.0
H390 H 0.06803 0.6414 0.45524 0.0
H391 H 0.03382 0.61548 0.42814 0.0
H392 H 0.12434 0.75617 0.35891 0.0
H393 H 0.13638 0.74781 0.40299 0.0
H394 H 0.12864 0.71911 0.44094 0.0
H395 H 0.10384 0.68059 0.45994 0.0
Mn396 Mn 0.32169 0.3338 0.33582 0.0
Mn397 Mn 0.27028 0.28582 0.33648 0.0
C398 C 0.29356 0.33051 0.30637 0.0
C399 C 0.35877 0.3536 0.31945 0.0
C400 C 0.2861 0.32301 0.37921 0.0
O401 O 0.32774 0.31113 0.35659 0.0
O402 O 0.29368 0.27911 0.35192 0.0
C403 C 0.27832 0.25745 0.29733 0.0
N404 N 0.26596 0.2674 0.30541 0.0
C405 C 0.23957 0.25054 0.26842 0.0
C406 C 0.25194 0.24001 0.25976 0.0
C407 C 0.27143 0.24353 0.27424 0.0
C408 C 0.24717 0.26411 0.29165 0.0
H409 H 0.29328 0.26012 0.30845 0.0
C410 C 0.31451 0.2897 0.35993 0.0
O411 O 0.3535 0.35914 0.34228 0.0
O412 O 0.34279 0.33605 0.30695 0.0
N413 N 0.24601 0.28979 0.32209 0.0
C414 C 0.23727 0.30285 0.3317 0.0
C415 C 0.21838 0.30224 0.31868 0.0
C416 C 0.20853 0.28805 0.29613 0.0
C417 C 0.2177 0.27461 0.28675 0.0
C418 C 0.23652 0.2759 0.30057 0.0
H419 H 0.24476 0.31376 0.34905 0.0
O420 O 0.31054 0.35047 0.31242 0.0
O421 O 0.29357 0.31295 0.31765 0.0
O422 O 0.30498 0.33728 0.36846 0.0
O423 O 0.27257 0.3034 0.36915 0.0
C424 C 0.20939 0.26058 0.26372 0.0
C425 C 0.22032 0.24856 0.25455 0.0
H426 H 0.24677 0.22937 0.24188 0.0
H427 H 0.28112 0.23554 0.26762 0.0
H428 H 0.21146 0.31273 0.32597 0.0
H429 H 0.19412 0.28781 0.28597 0.0
H430 H 0.19492 0.2593 0.25256 0.0
H431 H 0.21404 0.23818 0.23652 0.0
Mn432 Mn 0.32318 0.0099 0.6705 0.0
Mn433 Mn 0.36859 0.06331 0.67371 0.0
C434 C 0.3269 0.03721 0.63949 0.0
C435 C 0.30486 0.97256 0.65408 0.0
C436 C 0.32833 0.04646 0.7111 0.0
O437 O 0.34543 0.00516 0.69383 0.0
O438 O 0.37472 0.04136 0.69427 0.0
C439 C 0.40135 0.05503 0.64308 0.0
N440 N 0.39013 0.06704 0.64664 0.0
C441 C 0.40983 0.09197 0.60954 0.0
C442 C 0.4217 0.07995 0.60557 0.0
C443 C 0.41739 0.06136 0.62237 0.0
C444 C 0.39412 0.08494 0.63057 0.0
H445 H 0.39811 0.04075 0.65596 0.0
C446 C 0.36556 0.02018 0.70093 0.0
O447 O 0.29836 0.97782 0.6762 0.0
O448 O 0.32283 0.98865 0.64257 0.0
N449 N 0.36533 0.08637 0.6545 0.0
C450 C 0.35122 0.09502 0.65967 0.0
C451 C 0.35269 0.11315 0.64396 0.0
C452 C 0.36885 0.1224 0.62333 0.0
C453 C 0.38335 0.11336 0.61853 0.0
C454 C 0.38111 0.09531 0.63488 0.0
H455 H 0.33884 0.08805 0.67555 0.0
O456 O 0.30703 0.01995 0.64471 0.0
O457 O 0.3441 0.03833 0.6529 0.0
O458 O 0.31716 0.02616 0.70179 0.0
O459 O 0.34748 0.06167 0.70196 0.0
C460 C 0.39944 0.12108 0.59765 0.0
C461 C 0.41265 0.11037 0.59313 0.0
H462 H 0.43401 0.08471 0.58954 0.0
H463 H 0.42641 0.05194 0.61936 0.0
H464 H 0.34139 0.11998 0.64772 0.0
H465 H 0.3698 0.13624 0.61109 0.0
H466 H 0.40146 0.13493 0.58459 0.0
H467 H 0.42468 0.1162 0.57671 0.0
Mn468 Mn 0.98936 0.31954 0.68559 0.0
Mn469 Mn 0.9891 0.26908 0.6845 0.0
C470 C 0.96523 0.29015 0.71393 0.0
C471 C 0.00432 0.35676 0.70212 0.0
C472 C 0.96588 0.28325 0.64181 0.0
O473 O 0.01855 0.3273 0.6654 0.0
O474 O 0.01785 0.29349 0.66886 0.0
C475 C 0.02646 0.28016 0.7237 0.0
N476 N 0.00447 0.26644 0.71568 0.0
C477 C 0.99745 0.24097 0.75307 0.0
C478 C 0.02007 0.25475 0.76169 0.0
C479 C 0.03461 0.27448 0.74699 0.0
C480 C 0.99028 0.24754 0.72978 0.0
H481 H 0.03769 0.29529 0.71239 0.0
C482 C 0.02731 0.31446 0.6614 0.0
O483 O 0.99378 0.35087 0.67903 0.0
O484 O 0.00687 0.3413 0.71501 0.0
N485 N 0.9624 0.24366 0.69891 0.0
C486 C 0.94082 0.23282 0.68855 0.0
C487 C 0.92404 0.21295 0.70112 0.0
C488 C 0.92968 0.20426 0.72396 0.0
C489 C 0.95204 0.21563 0.73414 0.0
C490 C 0.96806 0.23532 0.72071 0.0
H491 H 0.93646 0.23928 0.67082 0.0
O492 O 0.96135 0.3068 0.70811 0.0
O493 O 0.98344 0.2914 0.70343 0.0
O494 O 0.97017 0.30228 0.65243 0.0
O495 O 0.97258 0.27 0.65194 0.0
C496 C 0.95904 0.20835 0.75724 0.0
C497 C 0.98168 0.22109 0.7668 0.0
H498 H 0.02642 0.25042 0.77963 0.0
H499 H 0.05207 0.28525 0.75356 0.0
H500 H 0.90682 0.20428 0.69316 0.0
H501 H 0.91668 0.18888 0.73351 0.0
H502 H 0.9471 0.1931 0.76798 0.0
H503 H 0.98675 0.21551 0.78481 0.0
Mn504 Mn 0.6799 0.66559 0.68952 0.0
Mn505 Mn 0.72761 0.71725 0.68941 0.0
C506 C 0.70918 0.67269 0.71955 0.0
C507 C 0.64288 0.64217 0.70474 0.0
C508 C 0.71738 0.68027 0.64756 0.0
O509 O 0.67053 0.68527 0.66717 0.0
O510 O 0.70189 0.71972 0.67288 0.0
C511 C 0.71306 0.74119 0.7277 0.0
N512 N 0.72837 0.73462 0.72017 0.0
C513 C 0.753 0.75451 0.75767 0.0
C514 C 0.73765 0.76177 0.76564 0.0
C515 C 0.71753 0.75496 0.75067 0.0
C516 C 0.74761 0.74079 0.73463 0.0
H517 H 0.69754 0.73589 0.7163 0.0
C518 C 0.68154 0.70695 0.66411 0.0
O519 O 0.65002 0.63747 0.68271 0.0
O520 O 0.65693 0.66076 0.71736 0.0
N521 N 0.75401 0.71785 0.70489 0.0
C522 C 0.76621 0.70808 0.69559 0.0
C523 C 0.78637 0.71235 0.709 0.0
C524 C 0.79399 0.72693 0.73152 0.0
C525 C 0.7813 0.73702 0.74051 0.0
C526 C 0.76132 0.73208 0.72639 0.0
H527 H 0.76055 0.69703 0.67814 0.0
O528 O 0.69367 0.65192 0.7139 0.0
O529 O 0.70673 0.68888 0.70812 0.0
O530 O 0.69892 0.66469 0.65791 0.0
O531 O 0.7287 0.70049 0.65731 0.0
C532 C 0.78749 0.75149 0.7632 0.0
C533 C 0.77327 0.76009 0.77189 0.0
H534 H 0.74103 0.77237 0.78336 0.0
H535 H 0.7055 0.76032 0.75682 0.0
H536 H 0.79606 0.70449 0.70195 0.0
H537 H 0.80951 0.73012 0.74185 0.0
H538 H 0.803 0.75589 0.77434 0.0
H539 H 0.77799 0.77083 0.78967 0.0
Mn540 Mn 0.3313 0.3173 0.66845 0.0
Mn541 Mn 0.37983 0.31407 0.66999 0.0
C542 C 0.33652 0.29482 0.63727 0.0
C543 C 0.31054 0.33463 0.65322 0.0
C544 C 0.34106 0.28863 0.7092 0.0
O545 O 0.35239 0.34459 0.69189 0.0
O546 O 0.38433 0.34186 0.68939 0.0
C547 C 0.40864 0.35451 0.6364 0.0
N548 N 0.39947 0.33171 0.64144 0.0
C549 C 0.41933 0.32704 0.6041 0.0
C550 C 0.4291 0.35051 0.59859 0.0
C551 C 0.42366 0.36428 0.61476 0.0
C552 C 0.40452 0.31829 0.62597 0.0
H553 H 0.40451 0.36513 0.64883 0.0
C554 C 0.37337 0.35182 0.69744 0.0
O555 O 0.30492 0.32231 0.67499 0.0
O556 O 0.32882 0.33776 0.64112 0.0
N557 N 0.37833 0.28812 0.65215 0.0
C558 C 0.36621 0.26558 0.65901 0.0
C559 C 0.36904 0.24935 0.64423 0.0
C560 C 0.38454 0.2565 0.62284 0.0
C561 C 0.39703 0.27983 0.61637 0.0
C562 C 0.39351 0.29522 0.63185 0.0
H563 H 0.35438 0.26001 0.67554 0.0
O564 O 0.31627 0.29128 0.64273 0.0
O565 O 0.35337 0.31163 0.65006 0.0
O566 O 0.32755 0.29513 0.69941 0.0
O567 O 0.36085 0.29505 0.69978 0.0
C568 C 0.4123 0.28834 0.59466 0.0
C569 C 0.42339 0.31192 0.58849 0.0
H570 H 0.44064 0.3581 0.58186 0.0
H571 H 0.43106 0.38238 0.61056 0.0
H572 H 0.3593 0.23137 0.64929 0.0
H573 H 0.38651 0.24391 0.61131 0.0
H574 H 0.41527 0.27684 0.58225 0.0
H575 H 0.43479 0.3182 0.57147 0.0
Mn576 Mn 0.6771 0.01828 0.68799 0.0
Mn577 Mn 0.72615 0.01598 0.68893 0.0
C578 C 0.7059 0.04063 0.71835 0.0
C579 C 0.63977 0.00464 0.70291 0.0
C580 C 0.71544 0.04238 0.64693 0.0
O581 O 0.66854 0.98925 0.6662 0.0
O582 O 0.70167 0.98895 0.67028 0.0
C583 C 0.71115 0.97588 0.72483 0.0
N584 N 0.72624 0.99809 0.71889 0.0
C585 C 0.75003 0.00109 0.75681 0.0
C586 C 0.7348 0.9782 0.76331 0.0
C587 C 0.71522 0.96558 0.74732 0.0
C588 C 0.74497 0.01046 0.73429 0.0
H589 H 0.69617 0.96612 0.71245 0.0
C590 C 0.68114 0.98033 0.66165 0.0
O591 O 0.64685 0.01608 0.68059 0.0
O592 O 0.65403 0.00034 0.71588 0.0
N593 N 0.75177 0.04094 0.70611 0.0
C594 C 0.7642 0.06305 0.69771 0.0
C595 C 0.78414 0.07814 0.71182 0.0
C596 C 0.79135 0.07021 0.73404 0.0
C597 C 0.77844 0.04729 0.74209 0.0
C598 C 0.75868 0.03309 0.7273 0.0
H599 H 0.75891 0.06912 0.68038 0.0
O600 O 0.69017 0.04565 0.71205 0.0
O601 O 0.70412 0.02226 0.70724 0.0
O602 O 0.6961 0.03819 0.65611 0.0
O603 O 0.72774 0.03487 0.65778 0.0
C604 C 0.78424 0.03802 0.76436 0.0
C605 C 0.76994 0.015 0.77186 0.0
H606 H 0.73793 0.97018 0.78058 0.0
H607 H 0.70336 0.94794 0.75224 0.0
H608 H 0.79403 0.0958 0.70548 0.0
H609 H 0.80677 0.0819 0.74482 0.0
H610 H 0.79953 0.0485 0.77605 0.0
H611 H 0.77441 0.00818 0.78927 0.0
Mn612 Mn 0.98067 0.66888 0.66627 0.0
Mn613 Mn 0.93051 0.61949 0.66885 0.0
C614 C 0.95086 0.66339 0.63796 0.0
C615 C 0.01725 0.69037 0.64859 0.0
C616 C 0.94495 0.65757 0.7101 0.0
O617 O 0.98908 0.64763 0.68691 0.0
O618 O 0.95513 0.61532 0.6851 0.0
C619 C 0.94153 0.59217 0.63139 0.0
N620 N 0.92774 0.60071 0.63866 0.0
C621 C 0.90172 0.58107 0.60215 0.0
C622 C 0.91558 0.57195 0.59432 0.0
C623 C 0.93563 0.57762 0.60893 0.0
C624 C 0.90857 0.5956 0.62458 0.0
H625 H 0.95689 0.5964 0.64267 0.0
C626 C 0.97624 0.62634 0.69172 0.0
O627 O 0.01197 0.69559 0.67161 0.0
O628 O 0.00162 0.67224 0.63656 0.0
N629 N 0.9049 0.62066 0.65373 0.0
C630 C 0.89405 0.63179 0.66315 0.0
C631 C 0.87389 0.62833 0.65046 0.0
C632 C 0.8649 0.6132 0.62854 0.0
C633 C 0.87629 0.60181 0.61932 0.0
C634 C 0.89632 0.60596 0.63274 0.0
H635 H 0.90071 0.64318 0.68024 0.0
O636 O 0.96726 0.68386 0.64323 0.0
O637 O 0.95246 0.64667 0.64913 0.0
O638 O 0.96402 0.67157 0.69948 0.0
O639 O 0.93155 0.63775 0.70038 0.0
C640 C 0.86866 0.58662 0.59723 0.0
C641 C 0.88148 0.57644 0.5885 0.0
H642 H 0.91105 0.56067 0.57705 0.0
H643 H 0.94645 0.57071 0.60296 0.0
H644 H 0.8652 0.63718 0.65767 0.0
H645 H 0.84929 0.61051 0.61891 0.0
H646 H 0.85307 0.58281 0.58664 0.0
H647 H 0.87563 0.56511 0.57121 0.0
C648 C 0.23195 0.33619 0.11572 0.0
C649 C 0.22852 0.32161 0.09382 0.0
C650 C 0.2136 0.33318 0.13145 0.0
C651 C 0.19158 0.31493 0.12628 0.0
C652 C 0.20635 0.30417 0.08766 0.0
C653 C 0.18803 0.30084 0.1038 0.0
C654 C 0.17201 0.31141 0.14304 0.0
C655 C 0.22377 0.30856 0.20028 0.0
C656 C 0.2275 0.32061 0.22478 0.0
C657 C 0.20554 0.30473 0.18315 0.0
C658 C 0.19145 0.31407 0.18924 0.0
C659 C 0.21222 0.32839 0.2315 0.0
C660 C 0.19497 0.32567 0.21384 0.0
C661 C 0.17224 0.31144 0.17165 0.0
C662 C 0.08221 0.30504 0.20264 0.0
C663 C 0.0915 0.32233 0.2224 0.0
C664 C 0.09659 0.30125 0.18562 0.0
C665 C 0.1204 0.31457 0.18839 0.0
C666 C 0.11529 0.33542 0.22507 0.0
C667 C 0.1295 0.33153 0.20838 0.0
C668 C 0.13648 0.31101 0.17159 0.0
C669 C 0.10495 0.3397 0.11443 0.0
C670 C 0.09268 0.32508 0.09299 0.0
C671 C 0.11842 0.33453 0.1313 0.0
C672 C 0.11975 0.31453 0.12724 0.0
C673 C 0.09358 0.30478 0.08924 0.0
C674 C 0.10725 0.29967 0.10611 0.0
C675 C 0.13607 0.31063 0.14323 0.0
H676 H 0.24887 0.34999 0.12059 0.0
H677 H 0.21667 0.34498 0.14784 0.0
H678 H 0.20331 0.29278 0.0708 0.0
H679 H 0.17111 0.28703 0.09897 0.0
H680 H 0.23483 0.30205 0.19404 0.0
H681 H 0.20265 0.29453 0.1652 0.0
H682 H 0.21317 0.33649 0.2506 0.0
H683 H 0.18423 0.33272 0.21974 0.0
H684 H 0.06392 0.29466 0.20022 0.0
H685 H 0.08916 0.28783 0.1706 0.0
H686 H 0.12299 0.34855 0.24041 0.0
H687 H 0.14778 0.342 0.21104 0.0
H688 H 0.10446 0.3554 0.11782 0.0
H689 H 0.12841 0.34659 0.147 0.0
H690 H 0.08441 0.29335 0.0727 0.0
H691 H 0.10837 0.28435 0.10243 0.0
N692 N 0.15373 0.31066 0.13008 0.0
N693 N 0.15436 0.31113 0.1844 0.0
C694 C 0.66163 0.89562 0.10856 0.0
C695 C 0.67667 0.90872 0.08809 0.0
C696 C 0.66641 0.88154 0.12482 0.0
C697 C 0.68646 0.88041 0.12124 0.0
C698 C 0.69699 0.90797 0.08471 0.0
C699 C 0.70173 0.89367 0.10102 0.0
C700 C 0.68983 0.86347 0.13676 0.0
C701 C 0.70176 0.91534 0.20469 0.0
C702 C 0.68187 0.90769 0.22017 0.0
C703 C 0.70341 0.90094 0.18553 0.0
C704 C 0.68535 0.8786 0.18185 0.0
C705 C 0.66344 0.88566 0.21517 0.0
C706 C 0.66533 0.87118 0.1966 0.0
C707 C 0.68776 0.8619 0.16496 0.0
C708 C 0.68141 0.77002 0.19202 0.0
C709 C 0.66779 0.76632 0.21496 0.0
C710 C 0.68742 0.78899 0.17523 0.0
C711 C 0.67899 0.8041 0.18015 0.0
C712 C 0.66001 0.78193 0.22001 0.0
C713 C 0.66506 0.80006 0.20268 0.0
C714 C 0.68514 0.82508 0.16392 0.0
C715 C 0.6636 0.77108 0.09797 0.0
C716 C 0.68313 0.77239 0.0863 0.0
C717 C 0.66535 0.78888 0.11415 0.0
C718 C 0.68659 0.80838 0.11861 0.0
C719 C 0.70439 0.792 0.0907 0.0
C720 C 0.70605 0.81005 0.10642 0.0
C721 C 0.68839 0.82713 0.13567 0.0
H722 H 0.64591 0.89596 0.1117 0.0
H723 H 0.65394 0.87089 0.1396 0.0
H724 H 0.70877 0.91779 0.06892 0.0
H725 H 0.71709 0.89271 0.09764 0.0
H726 H 0.71638 0.93209 0.20802 0.0
H727 H 0.7191 0.90685 0.17448 0.0
H728 H 0.64757 0.87934 0.2259 0.0
H729 H 0.65117 0.854 0.19392 0.0
H730 H 0.68784 0.75858 0.187 0.0
H731 H 0.69911 0.79194 0.15903 0.0
H732 H 0.65046 0.78087 0.23784 0.0
H733 H 0.6583 0.81131 0.20746 0.0
H734 H 0.64706 0.75606 0.095 0.0
H735 H 0.65015 0.78743 0.12326 0.0
H736 H 0.71964 0.79337 0.08184 0.0
H737 H 0.72255 0.82508 0.10954 0.0
N738 N 0.69046 0.84619 0.12316 0.0
N739 N 0.68541 0.84285 0.17722 0.0
C740 C 0.11022 0.76424 0.11834 0.0
C741 C 0.09787 0.76691 0.09701 0.0
C742 C 0.12362 0.78252 0.13541 0.0
C743 C 0.1248 0.80384 0.13173 0.0
C744 C 0.09884 0.78819 0.09347 0.0
C745 C 0.11241 0.80659 0.11055 0.0
C746 C 0.1406 0.8236 0.14847 0.0
C747 C 0.08598 0.77456 0.2059 0.0
C748 C 0.09457 0.76592 0.22603 0.0
C749 C 0.1009 0.79276 0.18943 0.0
C750 C 0.12462 0.80267 0.19297 0.0
C751 C 0.11829 0.77596 0.22942 0.0
C752 C 0.13308 0.79412 0.2132 0.0
C753 C 0.14106 0.82255 0.17686 0.0
C754 C 0.22182 0.91289 0.21108 0.0
C755 C 0.23099 0.90369 0.22975 0.0
C756 C 0.20387 0.89838 0.19383 0.0
C757 C 0.19489 0.87452 0.19517 0.0
C758 C 0.22163 0.87982 0.23119 0.0
C759 C 0.20381 0.86547 0.21419 0.0
C760 C 0.17576 0.85831 0.17787 0.0
C761 C 0.23496 0.89929 0.12359 0.0
C762 C 0.2305 0.90975 0.1016 0.0
C763 C 0.21713 0.88287 0.13895 0.0
C764 C 0.19445 0.87719 0.13335 0.0
C765 C 0.20782 0.90339 0.09513 0.0
C766 C 0.18995 0.88729 0.11094 0.0
C767 C 0.17534 0.8595 0.14939 0.0
H768 H 0.10969 0.74801 0.1217 0.0
H769 H 0.13354 0.78012 0.15111 0.0
H770 H 0.08966 0.79078 0.07704 0.0
H771 H 0.1134 0.82301 0.10711 0.0
H772 H 0.06778 0.7672 0.20286 0.0
H773 H 0.09393 0.7993 0.17427 0.0
H774 H 0.12549 0.77006 0.24506 0.0
H775 H 0.15127 0.80152 0.21648 0.0
H776 H 0.22866 0.93123 0.20965 0.0
H777 H 0.19697 0.90572 0.1796 0.0
H778 H 0.22793 0.87215 0.24574 0.0
H779 H 0.19707 0.84714 0.2158 0.0
H780 H 0.25229 0.90355 0.1286 0.0
H781 H 0.22116 0.87445 0.15501 0.0
H782 H 0.20397 0.91115 0.07815 0.0
H783 H 0.17259 0.88281 0.10575 0.0
N784 N 0.15761 0.84213 0.13586 0.0
N785 N 0.15863 0.83992 0.19026 0.0
C786 C 0.32053 0.09546 0.81928 0.0
C787 C 0.30399 0.08571 0.79874 0.0
C788 C 0.31948 0.11034 0.83813 0.0
C789 C 0.30163 0.1155 0.83715 0.0
C790 C 0.28575 0.09032 0.7983 0.0
C791 C 0.28465 0.10512 0.81724 0.0
C792 C 0.30237 0.1341 0.85395 0.0
C793 C 0.29908 0.08232 0.91668 0.0
C794 C 0.31916 0.0909 0.93241 0.0
C795 C 0.29535 0.09687 0.89951 0.0
C796 C 0.31159 0.12022 0.89789 0.0
C797 C 0.33557 0.11419 0.92993 0.0
C798 C 0.33169 0.12867 0.91318 0.0
C799 C 0.30761 0.13657 0.88179 0.0
C800 C 0.30141 0.21967 0.91483 0.0
C801 C 0.32116 0.23039 0.93115 0.0
C802 C 0.29742 0.2012 0.89817 0.0
C803 C 0.31299 0.193 0.89775 0.0
C804 C 0.33687 0.2223 0.93003 0.0
C805 C 0.33266 0.20367 0.91386 0.0
C806 C 0.3087 0.17273 0.88166 0.0
C807 C 0.32935 0.22873 0.82019 0.0
C808 C 0.31446 0.22429 0.79818 0.0
C809 C 0.32538 0.21166 0.83897 0.0
C810 C 0.30611 0.1898 0.83662 0.0
C811 C 0.29473 0.20271 0.79631 0.0
C812 C 0.29069 0.18559 0.81526 0.0
C813 C 0.30399 0.17061 0.8537 0.0
H814 H 0.33506 0.09268 0.81986 0.0
H815 H 0.33336 0.11877 0.85246 0.0
H816 H 0.27266 0.08297 0.78284 0.0
H817 H 0.27086 0.10903 0.81584 0.0
H818 H 0.28601 0.06453 0.91812 0.0
H819 H 0.27958 0.09004 0.88808 0.0
H820 H 0.35156 0.12137 0.94093 0.0
H821 H 0.34454 0.14659 0.91211 0.0
H822 H 0.28879 0.22521 0.91528 0.0
H823 H 0.28196 0.19301 0.88611 0.0
H824 H 0.35262 0.23044 0.94153 0.0
H825 H 0.34499 0.19772 0.91371 0.0
H826 H 0.34462 0.24521 0.82234 0.0
H827 H 0.33813 0.21529 0.85444 0.0
H828 H 0.28306 0.19865 0.77944 0.0
H829 H 0.27592 0.16878 0.8127 0.0
N830 N 0.30074 0.15123 0.84108 0.0
N831 N 0.3105 0.15574 0.89444 0.0
C832 C 0.91949 0.21992 0.90697 0.0
C833 C 0.91364 0.23157 0.92609 0.0
C834 C 0.90267 0.20254 0.89111 0.0
C835 C 0.87969 0.19648 0.89404 0.0
C836 C 0.89053 0.2252 0.92914 0.0
C837 C 0.87375 0.20773 0.91343 0.0
C838 C 0.86157 0.17763 0.87816 0.0
C839 C 0.89919 0.23265 0.8153 0.0
C840 C 0.91028 0.22641 0.79607 0.0
C841 C 0.88428 0.21646 0.83369 0.0
C842 C 0.88011 0.19377 0.83289 0.0
C843 C 0.90655 0.20393 0.7957 0.0
C844 C 0.8914 0.18767 0.81378 0.0
C845 C 0.8623 0.17586 0.84987 0.0
C846 C 0.77014 0.11152 0.81434 0.0
C847 C 0.77185 0.09438 0.80013 0.0
C848 C 0.78762 0.12608 0.83186 0.0
C849 C 0.80724 0.12399 0.83495 0.0
C850 C 0.79109 0.09174 0.80413 0.0
C851 C 0.80887 0.10672 0.82106 0.0
C852 C 0.82673 0.14117 0.85077 0.0
C853 C 0.7843 0.08555 0.90917 0.0
C854 C 0.77295 0.09189 0.92806 0.0
C855 C 0.80141 0.10203 0.89305 0.0
C856 C 0.8076 0.12521 0.89549 0.0
C857 C 0.77952 0.11523 0.93076 0.0
C858 C 0.79681 0.13172 0.91479 0.0
C859 C 0.8261 0.1428 0.87899 0.0
H860 H 0.93705 0.22408 0.9044 0.0
H861 H 0.90761 0.19362 0.87684 0.0
H862 H 0.8854 0.23402 0.94329 0.0
H863 H 0.85609 0.20321 0.91615 0.0
H864 H 0.90174 0.2499 0.81572 0.0
H865 H 0.87538 0.22144 0.84787 0.0
H866 H 0.91478 0.19877 0.7809 0.0
H867 H 0.88823 0.17022 0.81261 0.0
H868 H 0.75544 0.11384 0.81158 0.0
H869 H 0.78621 0.13949 0.84228 0.0
H870 H 0.79277 0.0787 0.79337 0.0
H871 H 0.82398 0.105 0.8231 0.0
H872 H 0.78006 0.06784 0.90693 0.0
H873 H 0.81006 0.09668 0.87897 0.0
H874 H 0.77099 0.12074 0.9448 0.0
H875 H 0.80149 0.14956 0.91717 0.0
N876 N 0.84347 0.16104 0.89162 0.0
N877 N 0.8448 0.15769 0.83725 0.0
C878 C 0.7745 0.68784 0.9111 0.0
C879 C 0.76717 0.67043 0.93065 0.0
C880 C 0.79391 0.69361 0.89571 0.0
C881 C 0.8062 0.68182 0.89925 0.0
C882 C 0.77999 0.65927 0.93471 0.0
C883 C 0.79919 0.66487 0.91922 0.0
C884 C 0.82675 0.6872 0.88321 0.0
C885 C 0.77228 0.66507 0.81677 0.0
C886 C 0.7748 0.684 0.80187 0.0
C887 C 0.78922 0.66743 0.83507 0.0
C888 C 0.80905 0.68869 0.83835 0.0
C889 C 0.79433 0.70538 0.80579 0.0
C890 C 0.8115 0.70763 0.82361 0.0
C891 C 0.82812 0.69063 0.85505 0.0
C892 C 0.9006 0.67021 0.82365 0.0
C893 C 0.90864 0.68375 0.80033 0.0
C894 C 0.88732 0.67397 0.84219 0.0
C895 C 0.88205 0.69161 0.83811 0.0
C896 C 0.90414 0.70198 0.79679 0.0
C897 C 0.89085 0.70576 0.81541 0.0
C898 C 0.8647 0.69303 0.85499 0.0
C899 C 0.92252 0.70691 0.9114 0.0
C900 C 0.91716 0.69004 0.9313 0.0
C901 C 0.9053 0.70732 0.89584 0.0
C902 C 0.88238 0.69082 0.89979 0.0
C903 C 0.89412 0.6739 0.93558 0.0
C904 C 0.87694 0.6744 0.92013 0.0
C905 C 0.86385 0.6907 0.88334 0.0
H906 H 0.76508 0.69683 0.9074 0.0
H907 H 0.79935 0.70739 0.88126 0.0
H908 H 0.77528 0.6462 0.95002 0.0
H909 H 0.80848 0.65571 0.92271 0.0
H910 H 0.75736 0.64841 0.81397 0.0
H911 H 0.78721 0.65255 0.84602 0.0
H912 H 0.79669 0.72011 0.79433 0.0
H913 H 0.82682 0.72409 0.82568 0.0
H914 H 0.90388 0.65613 0.82708 0.0
H915 H 0.8802 0.66225 0.85895 0.0
H916 H 0.90983 0.71254 0.7789 0.0
H917 H 0.88675 0.71924 0.81157 0.0
H918 H 0.94004 0.71983 0.90787 0.0
H919 H 0.9099 0.72057 0.88078 0.0
H920 H 0.88932 0.66044 0.95037 0.0
H921 H 0.85938 0.66154 0.92364 0.0
N922 N 0.8448 0.68758 0.8962 0.0
N923 N 0.84694 0.69328 0.84207 0.0
C924 C 0.74698 0.64855 0.44595 0.0
C925 C 0.75561 0.66599 0.42642 0.0
C926 C 0.76176 0.64366 0.46096 0.0
C927 C 0.78541 0.65639 0.45697 0.0
C928 C 0.77919 0.67799 0.42179 0.0
C929 C 0.79389 0.67326 0.4369 0.0
C930 C 0.80168 0.65216 0.47283 0.0
C931 C 0.76844 0.67466 0.53591 0.0
C932 C 0.75804 0.65916 0.55723 0.0
C933 C 0.7815 0.67096 0.51693 0.0
C934 C 0.78415 0.65148 0.51858 0.0
C935 C 0.76024 0.63937 0.55842 0.0
C936 C 0.77327 0.63567 0.53939 0.0
C937 C 0.80055 0.64904 0.50109 0.0
C938 C 0.89225 0.66745 0.53322 0.0
C939 C 0.8868 0.65111 0.55363 0.0
C940 C 0.87558 0.6653 0.51466 0.0
C941 C 0.85324 0.64683 0.51642 0.0
C942 C 0.86473 0.63236 0.5549 0.0
C943 C 0.848 0.63031 0.53657 0.0
C944 C 0.83469 0.64653 0.50009 0.0
C945 C 0.87808 0.63406 0.44197 0.0
C946 C 0.88951 0.65186 0.42324 0.0
C947 C 0.86063 0.63319 0.45782 0.0
C948 C 0.85416 0.65007 0.45524 0.0
C949 C 0.88257 0.66843 0.42033 0.0
C950 C 0.86498 0.66742 0.43601 0.0
C951 C 0.83575 0.64947 0.4719 0.0
H952 H 0.7289 0.63897 0.44997 0.0
H953 H 0.75469 0.63002 0.47569 0.0
H954 H 0.78637 0.6911 0.40642 0.0
H955 H 0.81202 0.68309 0.43312 0.0
H956 H 0.76697 0.68998 0.53426 0.0
H957 H 0.79023 0.68381 0.50161 0.0
H958 H 0.75276 0.62725 0.57475 0.0
H959 H 0.77537 0.62071 0.54135 0.0
H960 H 0.90919 0.68216 0.53214 0.0
H961 H 0.87986 0.67863 0.49978 0.0
H962 H 0.86018 0.61981 0.5707 0.0
H963 H 0.8308 0.61617 0.53856 0.0
H964 H 0.88258 0.62071 0.44438 0.0
H965 H 0.85209 0.61924 0.47196 0.0
H966 H 0.89112 0.68257 0.40644 0.0
H967 H 0.86019 0.68056 0.43355 0.0
N968 N 0.81925 0.65226 0.45943 0.0
N969 N 0.81707 0.64624 0.51349 0.0
C970 C 0.33044 0.22493 0.44599 0.0
C971 C 0.34509 0.23843 0.42538 0.0
C972 C 0.33638 0.21188 0.46262 0.0
C973 C 0.35719 0.21226 0.45916 0.0
C974 C 0.36602 0.23892 0.42203 0.0
C975 C 0.37191 0.2257 0.43865 0.0
C976 C 0.36239 0.19693 0.47535 0.0
C977 C 0.36198 0.24984 0.53165 0.0
C978 C 0.35058 0.24144 0.5563 0.0
C979 C 0.36661 0.23588 0.5148 0.0
C980 C 0.35892 0.21281 0.52148 0.0
C981 C 0.34452 0.21891 0.56369 0.0
C982 C 0.34817 0.2048 0.54644 0.0
C983 C 0.36198 0.19648 0.50384 0.0
C984 C 0.35662 0.10483 0.53103 0.0
C985 C 0.34262 0.10105 0.5536 0.0
C986 C 0.36328 0.12412 0.5146 0.0
C987 C 0.35527 0.13955 0.51965 0.0
C988 C 0.33542 0.11705 0.55897 0.0
C989 C 0.34123 0.13559 0.54207 0.0
C990 C 0.36128 0.16035 0.50314 0.0
C991 C 0.33762 0.10575 0.43682 0.0
C992 C 0.35706 0.10655 0.42558 0.0
C993 C 0.33965 0.12362 0.45307 0.0
C994 C 0.36111 0.14267 0.45803 0.0
C995 C 0.37855 0.12568 0.43054 0.0
C996 C 0.38052 0.14381 0.44634 0.0
C997 C 0.3631 0.16161 0.4748 0.0
H998 H 0.31429 0.22437 0.44915 0.0
H999 H 0.32455 0.2012 0.47795 0.0
H1000 H 0.3775 0.24901 0.40613 0.0
H1001 H 0.38786 0.22585 0.43541 0.0
H1002 H 0.36726 0.26711 0.5251 0.0
H1003 H 0.3762 0.24331 0.49667 0.0
H1004 H 0.33698 0.2119 0.583 0.0
H1005 H 0.34238 0.18738 0.55292 0.0
H1006 H 0.36266 0.09307 0.52599 0.0
H1007 H 0.375 0.12699 0.49846 0.0
H1008 H 0.32561 0.11578 0.57664 0.0
H1009 H 0.33471 0.14701 0.54691 0.0
H1010 H 0.3209 0.09109 0.4334 0.0
H1011 H 0.3245 0.12261 0.46178 0.0
H1012 H 0.39374 0.12666 0.422 0.0
H1013 H 0.39718 0.15853 0.44984 0.0
N1014 N 0.36345 0.17977 0.46204 0.0
N1015 N 0.36157 0.17822 0.51617 0.0
C1016 C 0.77494 0.09917 0.45331 0.0
C1017 C 0.76261 0.10104 0.4314 0.0
C1018 C 0.78854 0.11812 0.4694 0.0
C1019 C 0.78995 0.13937 0.46419 0.0
C1020 C 0.76364 0.1222 0.42642 0.0
C1021 C 0.77742 0.14128 0.44254 0.0
C1022 C 0.80634 0.15985 0.47959 0.0
C1023 C 0.75333 0.11425 0.54093 0.0
C1024 C 0.76244 0.10641 0.56134 0.0
C1025 C 0.76783 0.13146 0.52306 0.0
C1026 C 0.79162 0.14114 0.52554 0.0
C1027 C 0.78622 0.11629 0.56373 0.0
C1028 C 0.80058 0.13344 0.54615 0.0
C1029 C 0.80774 0.16003 0.508 0.0
C1030 C 0.89127 0.24917 0.53806 0.0
C1031 C 0.90058 0.23965 0.55614 0.0
C1032 C 0.87278 0.23494 0.52128 0.0
C1033 C 0.86335 0.21104 0.52253 0.0
C1034 C 0.89098 0.21574 0.55718 0.0
C1035 C 0.87262 0.20167 0.54067 0.0
C1036 C 0.84316 0.19504 0.50647 0.0
C1037 C 0.90029 0.23382 0.44901 0.0
C1038 C 0.89525 0.24433 0.42755 0.0
C1039 C 0.88292 0.21766 0.46511 0.0
C1040 C 0.86017 0.21229 0.46078 0.0
C1041 C 0.87244 0.23816 0.42222 0.0
C1042 C 0.85504 0.2223 0.43877 0.0
C1043 C 0.84159 0.19528 0.47802 0.0
H1044 H 0.77439 0.08307 0.45775 0.0
H1045 H 0.79857 0.1163 0.48541 0.0
H1046 H 0.75449 0.12418 0.40951 0.0
H1047 H 0.77856 0.15761 0.43788 0.0
H1048 H 0.73507 0.10695 0.53867 0.0
H1049 H 0.76051 0.1374 0.50763 0.0
H1050 H 0.79381 0.11096 0.57952 0.0
H1051 H 0.81883 0.14068 0.54864 0.0
H1052 H 0.8983 0.26755 0.53689 0.0
H1053 H 0.86568 0.24252 0.50768 0.0
H1054 H 0.89735 0.20778 0.57125 0.0
H1055 H 0.86556 0.18329 0.54215 0.0
H1056 H 0.91772 0.23796 0.45315 0.0
H1057 H 0.88736 0.20928 0.48082 0.0
H1058 H 0.86817 0.24596 0.40566 0.0
H1059 H 0.83759 0.21804 0.43457 0.0
N1060 N 0.82313 0.17767 0.46573 0.0
N1061 N 0.82612 0.17754 0.5201 0.0
C1062 C 0.96323 0.54035 0.12945 0.0
C1063 C 0.98247 0.56197 0.13365 0.0
C1064 C 0.95854 0.52223 0.14701 0.0
C1065 C 0.97275 0.52541 0.16933 0.0
C1066 C 0.99602 0.56542 0.15679 0.0
C1067 C 0.99129 0.5473 0.17437 0.0
C1068 C 0.97062 0.50515 0.18393 0.0
C1069 C 0.99534 0.54875 0.26612 0.0
C1070 C 0.98038 0.55778 0.26585 0.0
C1071 C 0.99179 0.53087 0.249 0.0
C1072 C 0.97355 0.52188 0.23061 0.0
C1073 C 0.96182 0.54844 0.2476 0.0
C1074 C 0.95851 0.53072 0.23002 0.0
C1075 C 0.97093 0.50341 0.21226 0.0
C1076 C 0.00117 0.4363 0.23495 0.0
C1077 C 0.9864 0.42331 0.25578 0.0
C1078 C 0.99612 0.45025 0.2186 0.0
C1079 C 0.97612 0.4514 0.22264 0.0
C1080 C 0.96603 0.42391 0.25926 0.0
C1081 C 0.96107 0.43804 0.243 0.0
C1082 C 0.97239 0.46862 0.20819 0.0
C1083 C 0.97069 0.41903 0.14513 0.0
C1084 C 0.98751 0.42996 0.12539 0.0
C1085 C 0.96549 0.43196 0.16299 0.0
C1086 C 0.97704 0.456 0.16129 0.0
C1087 C 0.99858 0.45394 0.12349 0.0
C1088 C 0.99338 0.46675 0.14115 0.0
C1089 C 0.97255 0.47059 0.17984 0.0
H1090 H 0.95261 0.53703 0.11168 0.0
H1091 H 0.94437 0.50542 0.14246 0.0
H1092 H 0.01088 0.58191 0.16068 0.0
H1093 H 0.00298 0.55013 0.1909 0.0
H1094 H 0.01022 0.55578 0.27916 0.0
H1095 H 0.00373 0.52445 0.24962 0.0
H1096 H 0.94976 0.55469 0.24695 0.0
H1097 H 0.94418 0.52385 0.21612 0.0
H1098 H 0.01693 0.43608 0.23171 0.0
H1099 H 0.00829 0.46082 0.2035 0.0
H1100 H 0.95445 0.41426 0.27529 0.0
H1101 H 0.94572 0.43896 0.24672 0.0
H1102 H 0.96182 0.40056 0.147 0.0
H1103 H 0.95247 0.42321 0.17799 0.0
H1104 H 0.01123 0.46289 0.10815 0.0
H1105 H 0.00246 0.48523 0.13925 0.0
N1106 N 0.97144 0.48866 0.16896 0.0
N1107 N 0.97164 0.48514 0.22322 0.0
C1108 C 0.45059 0.41849 0.14811 0.0
C1109 C 0.43913 0.42723 0.13222 0.0
C1110 C 0.46718 0.43246 0.16699 0.0
C1111 C 0.47263 0.45537 0.17009 0.0
C1112 C 0.44407 0.44994 0.13647 0.0
C1113 C 0.46084 0.4639 0.15487 0.0
C1114 C 0.49179 0.47143 0.18723 0.0
C1115 C 0.43408 0.42785 0.24158 0.0
C1116 C 0.43924 0.4172 0.26275 0.0
C1117 C 0.45144 0.44491 0.22638 0.0
C1118 C 0.47434 0.45111 0.23133 0.0
C1119 C 0.4621 0.42397 0.26861 0.0
C1120 C 0.47953 0.44076 0.25293 0.0
C1121 C 0.49291 0.4695 0.21544 0.0
C1122 C 0.55786 0.56204 0.25281 0.0
C1123 C 0.57412 0.55953 0.26811 0.0
C1124 C 0.54297 0.54457 0.23558 0.0
C1125 C 0.54396 0.52423 0.23368 0.0
C1126 C 0.57518 0.5392 0.26613 0.0
C1127 C 0.5599 0.52147 0.24934 0.0
C1128 C 0.52754 0.50547 0.21644 0.0
C1129 C 0.58002 0.55907 0.16011 0.0
C1130 C 0.57171 0.56271 0.1354 0.0
C1131 C 0.56575 0.54126 0.17746 0.0
C1132 C 0.54245 0.52732 0.17132 0.0
C1133 C 0.54856 0.54811 0.12907 0.0
C1134 C 0.5342 0.53124 0.14689 0.0
C1135 C 0.52638 0.50738 0.1881 0.0
H1136 H 0.44732 0.40113 0.14537 0.0
H1137 H 0.47629 0.42567 0.17844 0.0
H1138 H 0.43516 0.45711 0.12535 0.0
H1139 H 0.46475 0.48154 0.15712 0.0
H1140 H 0.41657 0.42327 0.23716 0.0
H1141 H 0.44685 0.45353 0.21114 0.0
H1142 H 0.46642 0.41608 0.28504 0.0
H1143 H 0.49707 0.44561 0.25759 0.0
H1144 H 0.55689 0.57767 0.25395 0.0
H1145 H 0.53055 0.54683 0.22389 0.0
H1146 H 0.58763 0.53698 0.2778 0.0
H1147 H 0.56069 0.50574 0.24827 0.0
H1148 H 0.59759 0.56971 0.16621 0.0
H1149 H 0.57334 0.53826 0.19515 0.0
H1150 H 0.54122 0.54906 0.11 0.0
H1151 H 0.51648 0.52082 0.141 0.0
N1152 N 0.5085 0.4901 0.17494 0.0
N1153 N 0.51091 0.48657 0.22891 0.0
C1154 C 0.44538 0.02387 0.24315 0.0
C1155 C 0.43918 0.00735 0.26367 0.0
C1156 C 0.46442 0.02952 0.22702 0.0
C1157 C 0.47743 0.01852 0.23088 0.0
C1158 C 0.45272 0.997 0.26796 0.0
C1159 C 0.47149 0.00246 0.25177 0.0
C1160 C 0.49777 0.02381 0.21443 0.0
C1161 C 0.44267 0.99894 0.14797 0.0
C1162 C 0.44436 0.01765 0.13326 0.0
C1163 C 0.4599 0.00191 0.16618 0.0
C1164 C 0.4792 0.02355 0.16958 0.0
C1165 C 0.46339 0.03938 0.13731 0.0
C1166 C 0.48086 0.04225 0.15502 0.0
C1167 C 0.4986 0.02615 0.18616 0.0
C1168 C 0.56915 0.0035 0.1538 0.0
C1169 C 0.57865 0.01805 0.13149 0.0
C1170 C 0.55566 0.00719 0.17213 0.0
C1171 C 0.55171 0.02576 0.16885 0.0
C1172 C 0.57516 0.03698 0.12863 0.0
C1173 C 0.56168 0.04068 0.14703 0.0
C1174 C 0.53496 0.02792 0.18594 0.0
C1175 C 0.59189 0.03483 0.24045 0.0
C1176 C 0.58538 0.02193 0.26447 0.0
C1177 C 0.57588 0.03726 0.22461 0.0
C1178 C 0.55268 0.02581 0.23151 0.0
C1179 C 0.56246 0.01215 0.27237 0.0
C1180 C 0.54638 0.01373 0.25598 0.0
C1181 C 0.53466 0.02657 0.21447 0.0
H1182 H 0.43537 0.03221 0.23929 0.0
H1183 H 0.46902 0.04263 0.21182 0.0
H1184 H 0.4489 0.98466 0.28397 0.0
H1185 H 0.4813 0.99388 0.25554 0.0
H1186 H 0.42813 0.98202 0.14517 0.0
H1187 H 0.4585 0.98722 0.177 0.0
H1188 H 0.46512 0.05397 0.12608 0.0
H1189 H 0.49579 0.05901 0.15717 0.0
H1190 H 0.57162 0.98885 0.15671 0.0
H1191 H 0.5477 0.99506 0.18837 0.0
H1192 H 0.58192 0.04831 0.11148 0.0
H1193 H 0.55854 0.05489 0.14382 0.0
H1194 H 0.60924 0.04277 0.23338 0.0
H1195 H 0.5818 0.04798 0.2069 0.0
H1196 H 0.55666 0.00303 0.29121 0.0
H1197 H 0.52881 0.00517 0.26251 0.0
N1198 N 0.51596 0.02443 0.22728 0.0
N1199 N 0.51709 0.02806 0.17309 0.0
C1200 C 0.55955 0.00751 0.77188 0.0
C1201 C 0.55813 0.98861 0.75802 0.0
C1202 C 0.5417 0.00496 0.78832 0.0
C1203 C 0.522 0.98355 0.79085 0.0
C1204 C 0.53829 0.96722 0.76041 0.0
C1205 C 0.5202 0.96479 0.77637 0.0
C1206 C 0.50332 0.98086 0.80848 0.0
C1207 C 0.5595 0.98307 0.86269 0.0
C1208 C 0.56323 0.99502 0.88724 0.0
C1209 C 0.54069 0.9784 0.84618 0.0
C1210 C 0.52579 0.98661 0.85308 0.0
C1211 C 0.54767 0.00231 0.8944 0.0
C1212 C 0.52974 0.99868 0.87742 0.0
C1213 C 0.5052 0.98217 0.83695 0.0
C1214 C 0.41555 0.97375 0.87371 0.0
C1215 C 0.42522 0.99107 0.8934 0.0
C1216 C 0.42956 0.97031 0.8557 0.0
C1217 C 0.4534 0.98402 0.85737 0.0
C1218 C 0.44904 0.00452 0.89501 0.0
C1219 C 0.4629 0.00099 0.87733 0.0
C1220 C 0.46912 0.9809 0.83933 0.0
C1221 C 0.43388 0.00835 0.78704 0.0
C1222 C 0.42089 0.99393 0.76578 0.0
C1223 C 0.4487 0.00364 0.80193 0.0
C1224 C 0.45057 0.98414 0.79629 0.0
C1225 C 0.42264 0.9743 0.7602 0.0
C1226 C 0.43753 0.96955 0.77522 0.0
C1227 C 0.46754 0.98027 0.81098 0.0
H1228 H 0.57472 0.02414 0.77049 0.0
H1229 H 0.54331 0.01967 0.79919 0.0
H1230 H 0.53679 0.95242 0.74985 0.0
H1231 H 0.50505 0.94818 0.77796 0.0
H1232 H 0.57087 0.97704 0.8561 0.0
H1233 H 0.53775 0.96794 0.82854 0.0
H1234 H 0.54876 0.01047 0.9135 0.0
H1235 H 0.51864 0.00516 0.88384 0.0
H1236 H 0.39723 0.9631 0.87207 0.0
H1237 H 0.42183 0.95687 0.84072 0.0
H1238 H 0.45705 0.0177 0.91026 0.0
H1239 H 0.48121 0.01176 0.87916 0.0
H1240 H 0.4328 0.02351 0.79197 0.0
H1241 H 0.4591 0.01557 0.81751 0.0
H1242 H 0.41305 0.96303 0.74372 0.0
H1243 H 0.43904 0.95463 0.77026 0.0
N1244 N 0.48454 0.97994 0.79663 0.0
N1245 N 0.48777 0.98174 0.85089 0.0
C1246 C 0.99178 0.56046 0.77557 0.0
C1247 C 0.0071 0.57461 0.75585 0.0
C1248 C 0.99682 0.54629 0.79138 0.0
C1249 C 0.01735 0.54611 0.78793 0.0
C1250 C 0.02784 0.57471 0.75264 0.0
C1251 C 0.03281 0.56032 0.7684 0.0
C1252 C 0.02173 0.52991 0.80353 0.0
C1253 C 0.02367 0.58248 0.86284 0.0
C1254 C 0.01238 0.57383 0.88752 0.0
C1255 C 0.02693 0.56832 0.84478 0.0
C1256 C 0.01792 0.54485 0.85022 0.0
C1257 C 0.00447 0.55059 0.89332 0.0
C1258 C 0.00675 0.53634 0.87485 0.0
C1259 C 0.0208 0.52874 0.83205 0.0
C1260 C 0.03312 0.45152 0.8686 0.0
C1261 C 0.01279 0.43955 0.88333 0.0
C1262 C 0.03578 0.46843 0.85004 0.0
C1263 C 0.0182 0.47361 0.84617 0.0
C1264 C 0.99482 0.44401 0.87795 0.0
C1265 C 0.99766 0.46112 0.85994 0.0
C1266 C 0.02151 0.49354 0.83032 0.0
C1267 C 0.00312 0.4351 0.77504 0.0
C1268 C 0.01923 0.43928 0.75502 0.0
C1269 C 0.0039 0.45316 0.78968 0.0
C1270 C 0.02132 0.47576 0.78533 0.0
C1271 C 0.0359 0.46195 0.74944 0.0
C1272 C 0.03697 0.48008 0.76458 0.0
C1273 C 0.02278 0.49475 0.80201 0.0
H1274 H 0.97572 0.56014 0.77853 0.0
H1275 H 0.98448 0.53516 0.80602 0.0
H1276 H 0.03981 0.58532 0.73739 0.0
H1277 H 0.04863 0.56017 0.76527 0.0
H1278 H 0.03011 0.60018 0.85726 0.0
H1279 H 0.03674 0.57597 0.82684 0.0
H1280 H 0.99674 0.54313 0.9124 0.0
H1281 H 0.99985 0.51849 0.88021 0.0
H1282 H 0.04733 0.44857 0.87215 0.0
H1283 H 0.05182 0.4781 0.83967 0.0
H1284 H 0.97864 0.43465 0.8881 0.0
H1285 H 0.98388 0.46489 0.85702 0.0
H1286 H 0.98978 0.4178 0.77922 0.0
H1287 H 0.99077 0.44937 0.80438 0.0
H1288 H 0.04837 0.46553 0.73388 0.0
H1289 H 0.05026 0.49741 0.76045 0.0
N1290 N 0.023 0.51303 0.78964 0.0
N1291 N 0.02078 0.51054 0.84399 0.0
C1292 C 0.5542 0.58568 0.78437 0.0
C1293 C 0.56036 0.57872 0.76055 0.0
C1294 C 0.53581 0.57003 0.79986 0.0
C1295 C 0.52375 0.54672 0.79277 0.0
C1296 C 0.54718 0.55567 0.7526 0.0
C1297 C 0.52942 0.53993 0.7686 0.0
C1298 C 0.50482 0.52914 0.8094 0.0
C1299 C 0.56244 0.56131 0.87066 0.0
C1300 C 0.5582 0.57172 0.89274 0.0
C1301 C 0.54511 0.54826 0.85219 0.0
C1302 C 0.52323 0.54558 0.8552 0.0
C1303 C 0.53644 0.56951 0.89533 0.0
C1304 C 0.51908 0.55639 0.87685 0.0
C1305 C 0.5041 0.52933 0.83792 0.0
C1306 C 0.43621 0.43439 0.86805 0.0
C1307 C 0.42524 0.43836 0.88967 0.0
C1308 C 0.44991 0.45209 0.85045 0.0
C1309 C 0.4526 0.47409 0.85372 0.0
C1310 C 0.42766 0.46031 0.89262 0.0
C1311 C 0.44131 0.478 0.87493 0.0
C1312 C 0.46918 0.49358 0.83724 0.0
C1313 C 0.4164 0.44215 0.78036 0.0
C1314 C 0.42577 0.43439 0.76049 0.0
C1315 C 0.43049 0.46158 0.79584 0.0
C1316 C 0.4542 0.47336 0.79192 0.0
C1317 C 0.44932 0.44701 0.75573 0.0
C1318 C 0.46331 0.46617 0.77125 0.0
C1319 C 0.47007 0.49314 0.80882 0.0
H1320 H 0.56374 0.60313 0.79152 0.0
H1321 H 0.53122 0.5763 0.81743 0.0
H1322 H 0.55048 0.54955 0.73398 0.0
H1323 H 0.52021 0.52224 0.76204 0.0
H1324 H 0.57905 0.5628 0.86802 0.0
H1325 H 0.54861 0.53963 0.83606 0.0
H1326 H 0.53253 0.57703 0.91231 0.0
H1327 H 0.50222 0.55424 0.87981 0.0
H1328 H 0.43462 0.41768 0.86504 0.0
H1329 H 0.45896 0.44872 0.8348 0.0
H1330 H 0.41979 0.46412 0.90928 0.0
H1331 H 0.44346 0.49492 0.87816 0.0
H1332 H 0.39831 0.43287 0.78444 0.0
H1333 H 0.42288 0.46717 0.81105 0.0
H1334 H 0.45704 0.44193 0.7401 0.0
H1335 H 0.48147 0.47508 0.76746 0.0
N1336 N 0.48774 0.51098 0.79625 0.0
N1337 N 0.48616 0.51173 0.85054 0.0
C1338 C 0.65584 0.76669 0.4878 0.0
C1339 C 0.64048 0.75692 0.46611 0.0
C1340 C 0.6526 0.77994 0.507 0.0
C1341 C 0.63371 0.78342 0.50521 0.0
C1342 C 0.62101 0.75949 0.46501 0.0
C1343 C 0.61776 0.77278 0.48429 0.0
C1344 C 0.63268 0.8011 0.52197 0.0
C1345 C 0.63034 0.74888 0.5833 0.0
C1346 C 0.65032 0.75811 0.5993 0.0
C1347 C 0.62562 0.76313 0.5668 0.0
C1348 C 0.6407 0.78683 0.56624 0.0
C1349 C 0.66553 0.78181 0.59795 0.0
C1350 C 0.66062 0.79596 0.58196 0.0
C1351 C 0.63611 0.80276 0.55014 0.0
C1352 C 0.63436 0.89079 0.57706 0.0
C1353 C 0.65064 0.89787 0.59799 0.0
C1354 C 0.62949 0.87145 0.56148 0.0
C1355 C 0.64103 0.85907 0.56643 0.0
C1356 C 0.66121 0.88472 0.60366 0.0
C1357 C 0.65653 0.86568 0.58808 0.0
C1358 C 0.63712 0.83895 0.54998 0.0
C1359 C 0.66538 0.89603 0.48859 0.0
C1360 C 0.65143 0.89291 0.46597 0.0
C1361 C 0.65932 0.87854 0.50751 0.0
C1362 C 0.63902 0.85761 0.50443 0.0
C1363 C 0.63077 0.87222 0.46334 0.0
C1364 C 0.62474 0.85469 0.48227 0.0
C1365 C 0.63464 0.83775 0.5216 0.0
H1366 H 0.67095 0.76491 0.48927 0.0
H1367 H 0.66565 0.78857 0.52225 0.0
H1368 H 0.60901 0.7524 0.44839 0.0
H1369 H 0.60328 0.77555 0.48221 0.0
H1370 H 0.61815 0.73076 0.58388 0.0
H1371 H 0.61004 0.75576 0.55493 0.0
H1372 H 0.68145 0.78957 0.60912 0.0
H1373 H 0.67264 0.81416 0.58161 0.0
H1374 H 0.62585 0.9005 0.57227 0.0
H1375 H 0.61685 0.86633 0.54553 0.0
H1376 H 0.67341 0.88932 0.62006 0.0
H1377 H 0.66548 0.85636 0.59271 0.0
H1378 H 0.68133 0.9118 0.4913 0.0
H1379 H 0.67106 0.88104 0.52388 0.0
H1380 H 0.61978 0.86915 0.44597 0.0
H1381 H 0.60924 0.83854 0.47915 0.0
N1382 N 0.63209 0.81867 0.50889 0.0
N1383 N 0.63793 0.82146 0.56291 0.0
C1384 C 0.11299 0.75072 0.47973 0.0
C1385 C 0.1021 0.7591 0.46232 0.0
C1386 C 0.12947 0.76528 0.49837 0.0
C1387 C 0.13542 0.78844 0.49967 0.0
C1388 C 0.10762 0.78216 0.46466 0.0
C1389 C 0.12433 0.79671 0.4828 0.0
C1390 C 0.1544 0.80485 0.51676 0.0
C1391 C 0.09443 0.76483 0.56972 0.0
C1392 C 0.0984 0.75436 0.59208 0.0
C1393 C 0.1126 0.7812 0.55475 0.0
C1394 C 0.13515 0.78691 0.56117 0.0
C1395 C 0.12094 0.76076 0.59939 0.0
C1396 C 0.13917 0.77686 0.584 0.0
C1397 C 0.15457 0.80421 0.54515 0.0
C1398 C 0.23031 0.89814 0.57349 0.0
C1399 C 0.2409 0.89303 0.59482 0.0
C1400 C 0.21355 0.88062 0.55781 0.0
C1401 C 0.20776 0.85773 0.5625 0.0
C1402 C 0.23428 0.8701 0.60047 0.0
C1403 C 0.21786 0.85257 0.58436 0.0
C1404 C 0.19045 0.83905 0.54559 0.0
C1405 C 0.24659 0.88737 0.48891 0.0
C1406 C 0.23929 0.8923 0.4642 0.0
C1407 C 0.23118 0.86994 0.5059 0.0
C1408 C 0.20776 0.85791 0.49958 0.0
C1409 C 0.21606 0.87887 0.45723 0.0
C1410 C 0.20062 0.8625 0.4748 0.0
C1411 C 0.19028 0.8395 0.51698 0.0
H1412 H 0.10935 0.73313 0.47843 0.0
H1413 H 0.13807 0.75868 0.51109 0.0
H1414 H 0.09917 0.78915 0.45232 0.0
H1415 H 0.12867 0.81455 0.48362 0.0
H1416 H 0.07723 0.7606 0.56409 0.0
H1417 H 0.10889 0.78961 0.5384 0.0
H1418 H 0.12441 0.75302 0.61669 0.0
H1419 H 0.1564 0.78131 0.58977 0.0
H1420 H 0.23485 0.91572 0.56915 0.0
H1421 H 0.20531 0.88498 0.54182 0.0
H1422 H 0.24213 0.8658 0.61698 0.0
H1423 H 0.21327 0.83499 0.58873 0.0
H1424 H 0.26415 0.89684 0.49549 0.0
H1425 H 0.23775 0.866 0.52389 0.0
H1426 H 0.20938 0.88054 0.43801 0.0
H1427 H 0.18286 0.85324 0.46865 0.0
N1428 N 0.17214 0.8223 0.50404 0.0
N1429 N 0.17274 0.82127 0.55843 0.0
C1430 C 0.25097 0.36205 0.48249 0.0
C1431 C 0.24235 0.34229 0.4663 0.0
C1432 C 0.23641 0.36567 0.49934 0.0
C1433 C 0.21305 0.3496 0.50017 0.0
C1434 C 0.21899 0.32619 0.4676 0.0
C1435 C 0.20456 0.32985 0.48424 0.0
C1436 C 0.19666 0.35389 0.51524 0.0
C1437 C 0.22721 0.33361 0.58659 0.0
C1438 C 0.24746 0.35333 0.59425 0.0
C1439 C 0.21142 0.33526 0.56966 0.0
C1440 C 0.2155 0.35665 0.56023 0.0
C1441 C 0.25156 0.37478 0.58465 0.0
C1442 C 0.23553 0.37645 0.56798 0.0
C1443 C 0.19815 0.35796 0.54322 0.0
C1444 C 0.10301 0.32844 0.57191 0.0
C1445 C 0.10548 0.34401 0.59226 0.0
C1446 C 0.12107 0.33294 0.5549 0.0
C1447 C 0.14202 0.3532 0.55769 0.0
C1448 C 0.12622 0.36461 0.59466 0.0
C1449 C 0.14446 0.36904 0.57768 0.0
C1450 C 0.16189 0.35629 0.54192 0.0
C1451 C 0.11703 0.36295 0.47694 0.0
C1452 C 0.10597 0.34319 0.46063 0.0
C1453 C 0.1343 0.36579 0.49506 0.0
C1454 C 0.14107 0.34913 0.49693 0.0
C1455 C 0.11231 0.32617 0.46359 0.0
C1456 C 0.12989 0.32929 0.48117 0.0
C1457 C 0.16075 0.35279 0.51381 0.0
H1458 H 0.26886 0.37479 0.48192 0.0
H1459 H 0.24326 0.38135 0.51091 0.0
H1460 H 0.21163 0.31103 0.45503 0.0
H1461 H 0.18657 0.31734 0.4843 0.0
H1462 H 0.22374 0.31683 0.59338 0.0
H1463 H 0.19595 0.31983 0.56396 0.0
H1464 H 0.267 0.39024 0.5903 0.0
H1465 H 0.23878 0.39311 0.56105 0.0
H1466 H 0.08719 0.31247 0.56953 0.0
H1467 H 0.11891 0.32006 0.54029 0.0
H1468 H 0.1286 0.3768 0.61033 0.0
H1469 H 0.16058 0.38461 0.58047 0.0
H1470 H 0.11293 0.37659 0.47522 0.0
H1471 H 0.14289 0.38134 0.5069 0.0
H1472 H 0.10384 0.31038 0.45221 0.0
H1473 H 0.13478 0.31615 0.4825 0.0
N1474 N 0.17804 0.35152 0.50166 0.0
N1475 N 0.18062 0.3588 0.55559 0.0
C1476 C 0.02274 0.41489 0.07963 0.0
C1477 C 0.00596 0.39602 0.06526 0.0
H1478 H 0.0301 0.43989 0.11028 0.0
C1479 C 0.98302 0.38685 0.07276 0.0
H1480 H 0.04061 0.42221 0.07474 0.0
C1481 C 0.97695 0.3972 0.09317 0.0
C1482 C 0.99373 0.41685 0.10644 0.0
H1483 H 0.96966 0.3723 0.06211 0.0
H1484 H 0.95909 0.39047 0.09766 0.0
C1485 C 0.01672 0.4251 0.09999 0.0
C1486 C 0.62424 0.60453 0.09535 0.0
C1487 C 0.61415 0.60988 0.07378 0.0
H1488 H 0.61914 0.58469 0.13079 0.0
C1489 C 0.59082 0.60255 0.07458 0.0
H1490 H 0.64252 0.61144 0.09614 0.0
C1491 C 0.57744 0.58847 0.09536 0.0
C1492 C 0.58688 0.58069 0.1156 0.0
H1493 H 0.58283 0.60754 0.05892 0.0
H1494 H 0.55963 0.58372 0.09516 0.0
C1495 C 0.61074 0.58964 0.11571 0.0
C1496 C 0.40589 0.99587 0.0718 0.0
C1497 C 0.39465 0.00877 0.07268 0.0
H1498 H 0.43064 0.98876 0.09034 0.0
C1499 C 0.39895 0.02377 0.09435 0.0
H1500 H 0.40238 0.98375 0.05564 0.0
C1501 C 0.4153 0.02689 0.11397 0.0
C1502 C 0.42689 0.01432 0.11277 0.0
H1503 H 0.38961 0.033 0.09614 0.0
H1504 H 0.41868 0.03887 0.13026 0.0
C1505 C 0.42191 0.99865 0.09166 0.0
C1506 C 0.38291 0.98235 0.94856 0.0
C1507 C 0.38963 0.00517 0.95541 0.0
H1508 H 0.38898 0.9599 0.9234 0.0
C1509 C 0.40607 0.02288 0.93952 0.0
H1510 H 0.37027 0.96831 0.96036 0.0
C1511 C 0.41656 0.01807 0.91843 0.0
C1512 C 0.41103 0.99543 0.91269 0.0
H1513 H 0.41139 0.04063 0.94385 0.0
H1514 H 0.42962 0.03221 0.90713 0.0
C1515 C 0.39356 0.97752 0.92736 0.0
C1516 C 0.01931 0.39526 0.92475 0.0
C1517 C 0.00727 0.3943 0.94804 0.0
H1518 H 0.03026 0.41004 0.88571 0.0
C1519 C 0.99622 0.40725 0.94957 0.0
H1520 H 0.02733 0.38473 0.92296 0.0
C1521 C 0.99824 0.42205 0.92868 0.0
C1522 C 0.01059 0.42347 0.90531 0.0
H1523 H 0.98655 0.40638 0.96727 0.0
H1524 H 0.99043 0.43267 0.93119 0.0
C1525 C 0.02097 0.40974 0.90352 0.0
C1526 C 0.59537 0.61347 0.94742 0.0
C1527 C 0.60737 0.60269 0.95727 0.0
H1528 H 0.57041 0.61219 0.9192 0.0
C1529 C 0.60367 0.58227 0.94495 0.0
H1530 H 0.59779 0.62919 0.95645 0.0
C1531 C 0.58814 0.57265 0.9237 0.0
C1532 C 0.57577 0.58309 0.9142 0.0
H1533 H 0.6126 0.57346 0.95189 0.0
H1534 H 0.58535 0.55661 0.91523 0.0
C1535 C 0.57962 0.60368 0.92619 0.0
C1536 C 0.9908 0.59214 0.94805 0.0
C1537 C 0.00668 0.61545 0.94992 0.0
H1538 H 0.97908 0.56111 0.92636 0.0
C1539 C 0.02253 0.62583 0.92927 0.0
H1540 H 0.97761 0.58399 0.96303 0.0
C1541 C 0.02426 0.61257 0.9087 0.0
C1542 C 0.00938 0.58872 0.9077 0.0
H1543 H 0.03395 0.64415 0.92937 0.0
H1544 H 0.03782 0.6211 0.89432 0.0
C1545 C 0.99194 0.57899 0.92707 0.0
C1546 C 0.41174 0.39082 0.94013 0.0
C1547 C 0.39193 0.38827 0.95255 0.0
H1548 H 0.43775 0.40858 0.91107 0.0
C1549 C 0.38232 0.40145 0.94295 0.0
H1550 H 0.41971 0.38103 0.94689 0.0
C1551 C 0.39273 0.41732 0.9221 0.0
C1552 C 0.41291 0.42028 0.91028 0.0
H1553 H 0.36709 0.39997 0.952 0.0
H1554 H 0.38509 0.42743 0.91541 0.0
C1555 C 0.42207 0.40658 0.91935 0.0
C1556 C 0.60737 0.98644 0.92661 0.0
C1557 C 0.61243 0.00195 0.94782 0.0
H1558 H 0.58716 0.97105 0.89163 0.0
C1559 C 0.60452 0.01768 0.94657 0.0
H1560 H 0.61477 0.97532 0.92618 0.0
C1561 C 0.5899 0.01644 0.92583 0.0
C1562 C 0.58223 0.99893 0.90623 0.0
H1563 H 0.60934 0.03073 0.96194 0.0
H1564 H 0.58442 0.02913 0.92564 0.0
C1565 C 0.59199 0.98453 0.90633 0.0
C1566 C 0.59023 0.98384 0.07965 0.0
C1567 C 0.60945 0.00082 0.06622 0.0
H1568 H 0.56554 0.97597 0.11037 0.0
C1569 C 0.61938 0.02355 0.07545 0.0
H1570 H 0.58212 0.96612 0.07323 0.0
C1571 C 0.60976 0.02921 0.09703 0.0
C1572 C 0.5902 0.01222 0.10997 0.0
H1573 H 0.63416 0.03704 0.06555 0.0
H1574 H 0.61751 0.0469 0.10344 0.0
C1575 C 0.58078 0.98945 0.1012 0.0
C1576 C 0.98107 0.59958 0.07677 0.0
C1577 C 0.00394 0.6108 0.06848 0.0
H1578 H 0.95629 0.57541 0.10401 0.0
C1579 C 0.01974 0.60686 0.08295 0.0
H1580 H 0.96846 0.60222 0.06609 0.0
C1581 C 0.01282 0.59168 0.10462 0.0
C1582 C 0.98987 0.57989 0.11241 0.0
H1583 H 0.03751 0.61524 0.07728 0.0
H1584 H 0.02537 0.58855 0.11464 0.0
C1585 C 0.97408 0.58417 0.09841 0.0
C1586 C 0.3931 0.37663 0.09312 0.0
C1587 C 0.39206 0.38725 0.06917 0.0
H1588 H 0.40859 0.3809 0.13207 0.0
C1589 C 0.40583 0.41091 0.06628 0.0
H1590 H 0.38199 0.35842 0.09599 0.0
C1591 C 0.42133 0.42372 0.08652 0.0
C1592 C 0.42272 0.41324 0.11061 0.0
H1593 H 0.40494 0.4194 0.04806 0.0
H1594 H 0.43241 0.44182 0.08305 0.0
C1595 C 0.40832 0.38951 0.11369 0.0
C1596 C 0.63549 0.71719 0.40861 0.0
C1597 C 0.6577 0.72864 0.39817 0.0
H1598 H 0.61252 0.71714 0.43841 0.0
C1599 C 0.67406 0.74899 0.41069 0.0
H1600 H 0.62248 0.7015 0.39945 0.0
C1601 C 0.66842 0.75775 0.43291 0.0
C1602 C 0.64624 0.74652 0.44325 0.0
H1603 H 0.69135 0.75831 0.40334 0.0
H1604 H 0.68139 0.7737 0.44164 0.0
C1605 C 0.62977 0.72616 0.43085 0.0
C1606 C 0.26146 0.93468 0.40563 0.0
C1607 C 0.28483 0.94218 0.40635 0.0
H1608 H 0.2293 0.91487 0.42368 0.0
C1609 C 0.29382 0.93565 0.42802 0.0
H1610 H 0.25425 0.94049 0.38991 0.0
C1611 C 0.2793 0.91967 0.44694 0.0
C1612 C 0.25545 0.91074 0.44537 0.0
H1613 H 0.31204 0.94255 0.43004 0.0
H1614 H 0.28701 0.91406 0.46217 0.0
C1615 C 0.24705 0.9195 0.425 0.0
C1616 C 0.05901 0.34885 0.42382 0.0
C1617 C 0.05719 0.33732 0.39965 0.0
H1618 H 0.07527 0.35928 0.46235 0.0
C1619 C 0.07032 0.32663 0.39613 0.0
H1620 H 0.04838 0.35655 0.42724 0.0
C1621 C 0.0862 0.32868 0.41577 0.0
C1622 C 0.08858 0.34065 0.43997 0.0
H1623 H 0.06881 0.31729 0.37776 0.0
H1624 H 0.09692 0.32127 0.41154 0.0
C1625 C 0.07448 0.35044 0.44384 0.0
C1626 C 0.04823 0.31424 0.27595 0.0
C1627 C 0.05529 0.33713 0.28276 0.0
H1628 H 0.05427 0.29149 0.2513 0.0
C1629 C 0.07211 0.35471 0.2671 0.0
H1630 H 0.03529 0.30032 0.28762 0.0
C1631 C 0.08273 0.34968 0.24637 0.0
C1632 C 0.07697 0.32694 0.24082 0.0
H1633 H 0.07767 0.37251 0.27145 0.0
H1634 H 0.09615 0.36371 0.23532 0.0
C1635 C 0.05904 0.30918 0.25513 0.0
C1636 C 0.67502 0.72363 0.25911 0.0
C1637 C 0.65881 0.71926 0.279 0.0
H1638 H 0.69148 0.74253 0.22399 0.0
C1639 C 0.64282 0.72655 0.27498 0.0
H1640 H 0.68641 0.7166 0.26084 0.0
C1641 C 0.64462 0.74023 0.25292 0.0
C1642 C 0.66293 0.74757 0.23479 0.0
H1643 H 0.62924 0.72215 0.28929 0.0
H1644 H 0.63183 0.74541 0.25069 0.0
C1645 C 0.67744 0.73805 0.2375 0.0
C1646 C 0.26587 0.94685 0.28409 0.0
C1647 C 0.28234 0.9403 0.28989 0.0
H1648 H 0.2364 0.94021 0.26034 0.0
C1649 C 0.28347 0.92391 0.27343 0.0
H1650 H 0.26464 0.95947 0.29643 0.0
C1651 C 0.26764 0.9132 0.25278 0.0
C1652 C 0.25007 0.91838 0.24822 0.0
H1653 H 0.29624 0.91882 0.27702 0.0
H1654 H 0.26863 0.90016 0.24099 0.0
C1655 C 0.24977 0.93589 0.26341 0.0
C1656 C 0.69029 0.95918 0.26137 0.0
C1657 C 0.6781 0.94853 0.28474 0.0
H1658 H 0.70082 0.95472 0.22238 0.0
C1659 C 0.66657 0.92465 0.2865 0.0
H1660 H 0.69867 0.97763 0.25934 0.0
C1661 C 0.66815 0.91153 0.26578 0.0
C1662 C 0.68051 0.92199 0.24225 0.0
H1663 H 0.65676 0.91614 0.30423 0.0
H1664 H 0.65987 0.89317 0.26849 0.0
C1665 C 0.6915 0.94603 0.24028 0.0
C1666 C 0.04849 0.73103 0.27691 0.0
C1667 C 0.05477 0.71472 0.28492 0.0
H1668 H 0.05622 0.76015 0.25196 0.0
C1669 C 0.07246 0.71386 0.27111 0.0
H1670 H 0.03495 0.73218 0.28711 0.0
C1671 C 0.08449 0.72973 0.25101 0.0
C1672 C 0.07925 0.74698 0.2442 0.0
H1673 H 0.07758 0.70135 0.27641 0.0
H1674 H 0.09842 0.72893 0.24133 0.0
C1675 C 0.06063 0.74703 0.25672 0.0
C1676 C 0.2723 0.31272 0.26382 0.0
C1677 C 0.27773 0.32857 0.28472 0.0
H1678 H 0.25149 0.29668 0.22944 0.0
C1679 C 0.26948 0.34403 0.28359 0.0
H1680 H 0.27985 0.30172 0.2633 0.0
C1681 C 0.25432 0.34227 0.26325 0.0
C1682 C 0.24648 0.32456 0.24388 0.0
H1683 H 0.27451 0.35729 0.29872 0.0
H1684 H 0.24869 0.35484 0.26311 0.0
C1685 C 0.25643 0.31032 0.24394 0.0
C1686 C 0.26421 0.31177 0.42188 0.0
C1687 C 0.27851 0.3292 0.40414 0.0
H1688 H 0.24235 0.30241 0.45596 0.0
C1689 C 0.2833 0.35175 0.40915 0.0
H1690 H 0.2605 0.29428 0.41881 0.0
C1691 C 0.27254 0.35639 0.43037 0.0
C1692 C 0.257 0.33857 0.44699 0.0
H1693 H 0.29424 0.36551 0.39576 0.0
H1694 H 0.27538 0.37365 0.43276 0.0
C1695 C 0.25373 0.31641 0.44313 0.0
C1696 C 0.65132 0.93196 0.41019 0.0
C1697 C 0.67392 0.9421 0.40102 0.0
H1698 H 0.6265 0.9086 0.43795 0.0
C1699 C 0.68913 0.93643 0.41402 0.0
H1700 H 0.63911 0.93589 0.40069 0.0
C1701 C 0.68188 0.92085 0.43535 0.0
C1702 C 0.65922 0.91043 0.44423 0.0
H1703 H 0.70665 0.94383 0.40756 0.0
H1704 H 0.69395 0.91651 0.44445 0.0
C1705 C 0.64403 0.91623 0.43147 0.0
C1706 C 0.06873 0.74016 0.39652 0.0
C1707 C 0.05447 0.71676 0.40092 0.0
H1708 H 0.09586 0.77153 0.41159 0.0
C1709 C 0.05532 0.70717 0.42575 0.0
H1710 H 0.06799 0.74789 0.37759 0.0
C1711 C 0.07077 0.72081 0.44577 0.0
C1712 C 0.0856 0.74428 0.44122 0.0
H1713 H 0.04386 0.68921 0.42977 0.0
H1714 H 0.07082 0.713 0.46487 0.0
C1715 C 0.08445 0.75369 0.4162 0.0
C1716 C 0.3099 0.06802 0.72819 0.0
C1717 C 0.31871 0.0533 0.7333 0.0
H1718 H 0.29822 0.08971 0.74489 0.0
C1719 C 0.32086 0.04761 0.75996 0.0
H1720 H 0.30819 0.07266 0.70773 0.0
C1721 C 0.31517 0.05736 0.78136 0.0
C1722 C 0.30715 0.07287 0.77635 0.0
H1723 H 0.32784 0.03642 0.76425 0.0
H1724 H 0.31759 0.05323 0.80181 0.0
C1725 C 0.30406 0.07763 0.74949 0.0
C1726 C 0.92748 0.26258 0.73305 0.0
C1727 C 0.95133 0.27325 0.7345 0.0
H1728 H 0.89576 0.23907 0.75154 0.0
C1729 C 0.96169 0.2693 0.75703 0.0
H1730 H 0.91916 0.26584 0.71617 0.0
C1731 C 0.94836 0.25393 0.7771 0.0
C1732 C 0.92451 0.24287 0.77525 0.0
H1733 H 0.98008 0.27814 0.75912 0.0
H1734 H 0.95663 0.25076 0.7941 0.0
C1735 C 0.91416 0.2474 0.75321 0.0
C1736 C 0.73801 0.66382 0.73913 0.0
C1737 C 0.72661 0.67656 0.74009 0.0
H1738 H 0.76238 0.65639 0.75803 0.0
C1739 C 0.73022 0.69093 0.76224 0.0
H1740 H 0.735 0.65217 0.72257 0.0
C1741 C 0.74608 0.69359 0.78232 0.0
C1742 C 0.75782 0.68118 0.78101 0.0
H1743 H 0.72073 0.70001 0.76404 0.0
H1744 H 0.74899 0.7051 0.79899 0.0
C1745 C 0.75352 0.66614 0.75939 0.0
C1746 C 0.74666 0.69197 0.61131 0.0
C1747 C 0.7268 0.67479 0.6235 0.0
H1748 H 0.77205 0.7005 0.58127 0.0
C1749 C 0.71669 0.65244 0.61296 0.0
H1750 H 0.75502 0.70939 0.61881 0.0
C1751 C 0.72651 0.64736 0.59114 0.0
C1752 C 0.74658 0.66454 0.57928 0.0
H1753 H 0.70138 0.63877 0.62179 0.0
H1754 H 0.71842 0.62997 0.58358 0.0
C1755 C 0.7564 0.68692 0.58954 0.0
C1756 C 0.34726 0.05694 0.59765 0.0
C1757 C 0.32967 0.05163 0.61596 0.0
H1758 H 0.36592 0.07732 0.56427 0.0
C1759 C 0.31389 0.059 0.61073 0.0
H1760 H 0.3587 0.05006 0.60034 0.0
C1761 C 0.31713 0.07361 0.58914 0.0
C1762 C 0.33657 0.08163 0.57271 0.0
H1763 H 0.29943 0.05402 0.62382 0.0
H1764 H 0.30461 0.07906 0.58595 0.0
C1765 C 0.35099 0.07216 0.57649 0.0
C1766 C 0.95253 0.25874 0.6007 0.0
C1767 C 0.9515 0.27518 0.61718 0.0
H1768 H 0.93781 0.23532 0.56791 0.0
C1769 C 0.93539 0.28214 0.61106 0.0
H1770 H 0.965 0.2533 0.60454 0.0
C1771 C 0.91953 0.27158 0.59008 0.0
C1772 C 0.91967 0.25401 0.57483 0.0
H1773 H 0.93421 0.2948 0.62339 0.0
H1774 H 0.90641 0.27623 0.58684 0.0
C1775 C 0.93692 0.2484 0.57971 0.0
C1776 C 0.3246 0.25818 0.61356 0.0
C1777 C 0.33944 0.28176 0.61546 0.0
H1778 H 0.31549 0.22725 0.59272 0.0
C1779 C 0.35569 0.29274 0.59534 0.0
H1780 H 0.31111 0.24951 0.62807 0.0
C1781 C 0.35901 0.2799 0.5755 0.0
C1782 C 0.34547 0.25585 0.57489 0.0
H1783 H 0.36631 0.31119 0.59545 0.0
H1784 H 0.37286 0.28889 0.56158 0.0
C1785 C 0.32741 0.24542 0.59339 0.0
C1786 C 0.71839 0.0732 0.61505 0.0
C1787 C 0.72484 0.05696 0.62271 0.0
H1788 H 0.72535 0.10183 0.58946 0.0
C1789 C 0.74181 0.05558 0.60791 0.0
H1790 H 0.70532 0.07463 0.62602 0.0
C1791 C 0.75301 0.07086 0.58706 0.0
C1792 C 0.74771 0.08809 0.58049 0.0
H1793 H 0.74691 0.04299 0.61285 0.0
H1794 H 0.76638 0.06962 0.57656 0.0
C1795 C 0.72978 0.0887 0.59409 0.0
C1796 C 0.93056 0.64483 0.59527 0.0
C1797 C 0.93417 0.65991 0.61666 0.0
H1798 H 0.91207 0.62978 0.55861 0.0
C1799 C 0.92312 0.67298 0.61639 0.0
H1800 H 0.93969 0.63531 0.59456 0.0
C1801 C 0.9078 0.6702 0.59566 0.0
C1802 C 0.90356 0.6545 0.57483 0.0
H1803 H 0.92611 0.6851 0.63241 0.0
H1804 H 0.89907 0.68013 0.59599 0.0
C1805 C 0.91506 0.64186 0.57466 0.0
C1806 C 0.94708 0.68762 0.74233 0.0
C1807 C 0.93722 0.66454 0.73446 0.0
H1808 H 0.94583 0.71189 0.76941 0.0
C1809 C 0.91883 0.64793 0.74937 0.0
H1810 H 0.96123 0.70085 0.73127 0.0
C1811 C 0.91012 0.65422 0.77109 0.0
C1812 C 0.91947 0.67732 0.77854 0.0
H1813 H 0.91081 0.62998 0.744 0.0
H1814 H 0.89549 0.64097 0.78148 0.0
C1815 C 0.93819 0.69396 0.76406 0.0
C1816 C 0.3498 0.26804 0.74544 0.0
C1817 C 0.33382 0.27266 0.73252 0.0
H1818 H 0.3562 0.24924 0.77574 0.0
C1819 C 0.31121 0.26149 0.74177 0.0
H1820 H 0.36737 0.27622 0.73897 0.0
C1821 C 0.30477 0.24585 0.76321 0.0
C1822 C 0.32088 0.2413 0.77598 0.0
H1823 H 0.29845 0.26458 0.73226 0.0
H1824 H 0.28725 0.2374 0.76987 0.0
C1825 C 0.34344 0.25264 0.76679 0.0
C1826 C 0.72689 0.04332 0.76123 0.0
C1827 C 0.7229 0.0541 0.7392 0.0
H1828 H 0.74616 0.04773 0.79763 0.0
C1829 C 0.73389 0.07809 0.73831 0.0
H1830 H 0.71776 0.02484 0.76295 0.0
C1831 C 0.74955 0.09112 0.75838 0.0
C1832 C 0.7544 0.08037 0.77976 0.0
H1833 H 0.73061 0.08674 0.72183 0.0
H1834 H 0.75823 0.10962 0.75694 0.0
C1835 C 0.74287 0.05636 0.78114 0.0
C1836 C 0.04548 0.32422 0.04984 0.0
C1837 C 0.05614 0.34684 0.04007 0.0
H1838 H 0.04879 0.29949 0.07431 0.0
C1839 C 0.07918 0.36158 0.04666 0.0
H1840 H 0.02779 0.31239 0.04508 0.0
C1841 C 0.091 0.35424 0.06339 0.0
C1842 C 0.08019 0.33194 0.07384 0.0
H1843 H 0.08808 0.37905 0.03939 0.0
H1844 H 0.10865 0.36612 0.06835 0.0
C1845 C 0.05747 0.3168 0.0665 0.0
C1846 C 0.68995 0.72206 0.06473 0.0
C1847 C 0.67381 0.71271 0.04372 0.0
H1848 H 0.70582 0.74864 0.0944 0.0
C1849 C 0.66219 0.72428 0.03534 0.0
H1850 H 0.69912 0.71348 0.07163 0.0
C1851 C 0.66568 0.74407 0.04873 0.0
C1852 C 0.68122 0.75293 0.07033 0.0
H1853 H 0.64954 0.71741 0.01935 0.0
H1854 H 0.65588 0.75219 0.04261 0.0
C1855 C 0.6938 0.74214 0.07773 0.0
C1856 C 0.28645 0.96213 0.08471 0.0
C1857 C 0.28847 0.95915 0.05704 0.0
H1858 H 0.26658 0.94868 0.1204 0.0
C1859 C 0.27051 0.94045 0.04367 0.0
H1860 H 0.29997 0.9763 0.09567 0.0
C1861 C 0.25115 0.92478 0.05789 0.0
C1862 C 0.24969 0.92734 0.08577 0.0
H1863 H 0.27159 0.93772 0.02237 0.0
H1864 H 0.23771 0.91023 0.04734 0.0
C1865 C 0.26738 0.94629 0.09895 0.0
C1866 C 0.34214 0.07261 0.99195 0.0
C1867 C 0.33663 0.05025 0.98483 0.0
H1868 H 0.34001 0.10243 0.9819 0.0
C1869 C 0.32321 0.04029 0.9617 0.0
H1870 H 0.35226 0.08063 0.00982 0.0
C1871 C 0.31676 0.05312 0.94501 0.0
C1872 C 0.32335 0.07601 0.95142 0.0
H1873 H 0.31888 0.02311 0.95567 0.0
H1874 H 0.30759 0.04546 0.92649 0.0
C1875 C 0.33532 0.0852 0.9757 0.0
C1876 C 0.94362 0.27421 0.9828 0.0
C1877 C 0.96371 0.29036 0.97015 0.0
H1878 H 0.91225 0.24264 0.97906 0.0
C1879 C 0.96805 0.28607 0.94378 0.0
H1880 H 0.93984 0.27699 0.00314 0.0
C1881 C 0.95213 0.26664 0.92984 0.0
C1882 C 0.93153 0.25093 0.94199 0.0
H1883 H 0.98336 0.29821 0.93342 0.0
H1884 H 0.95559 0.26452 0.9091 0.0
C1885 C 0.92772 0.25464 0.96889 0.0
C1886 C 0.7208 0.67325 0.97122 0.0
C1887 C 0.70661 0.6501 0.97798 0.0
H1888 H 0.75121 0.69793 0.95145 0.0
C1889 C 0.71234 0.63382 0.96865 0.0
H1890 H 0.71693 0.68625 0.9781 0.0
C1891 C 0.73172 0.64045 0.9531 0.0
C1892 C 0.74615 0.66359 0.94663 0.0
H1893 H 0.70172 0.6158 0.97312 0.0
H1894 H 0.73526 0.62729 0.94592 0.0
C1895 C 0.74039 0.67993 0.95579 0.0
C1896 C 0.94825 0.6774 0.9873 0.0
C1897 C 0.96759 0.67992 0.97384 0.0
H1898 H 0.91744 0.67919 0.98469 0.0
C1899 C 0.97132 0.68794 0.94716 0.0
H1900 H 0.94497 0.67138 0.00792 0.0
C1901 C 0.95539 0.69208 0.93369 0.0
C1902 C 0.93541 0.68843 0.94666 0.0
H1903 H 0.98603 0.69002 0.93618 0.0
H1904 H 0.95824 0.69706 0.9127 0.0
C1905 C 0.93238 0.68168 0.97389 0.0
C1906 C 0.32573 0.28583 0.95774 0.0
C1907 C 0.3388 0.28937 0.98126 0.0
H1908 H 0.31049 0.26486 0.92293 0.0
C1909 C 0.34424 0.27257 0.98935 0.0
H1910 H 0.32147 0.29866 0.95097 0.0
C1911 C 0.33749 0.25297 0.97379 0.0
C1912 C 0.32571 0.24997 0.94923 0.0
H1913 H 0.35409 0.27475 0.00756 0.0
H1914 H 0.34195 0.24038 0.98087 0.0
C1915 C 0.31942 0.26642 0.94172 0.0
C1916 C 0.73063 0.06247 0.98463 0.0
C1917 C 0.71457 0.04207 0.97204 0.0
H1918 H 0.76195 0.09407 0.98085 0.0
C1919 C 0.71879 0.03742 0.94579 0.0
H1920 H 0.72788 0.06652 0.00487 0.0
C1921 C 0.73802 0.0533 0.93189 0.0
C1922 C 0.75367 0.07419 0.94396 0.0
H1923 H 0.70673 0.02188 0.93545 0.0
H1924 H 0.74005 0.04956 0.91123 0.0
C1925 C 0.75002 0.07835 0.97074 0.0
C1926 C 0.67846 0.95817 0.04866 0.0
C1927 C 0.65603 0.94813 0.03842 0.0
H1928 H 0.70269 0.95348 0.07241 0.0
C1929 C 0.64116 0.92475 0.04323 0.0
H1930 H 0.6904 0.9761 0.04523 0.0
C1931 C 0.64819 0.91196 0.05873 0.0
C1932 C 0.67029 0.92215 0.06974 0.0
H1933 H 0.62385 0.91631 0.03549 0.0
H1934 H 0.6362 0.89407 0.06237 0.0
C1935 C 0.68555 0.94524 0.06412 0.0
C1936 C 0.0821 0.71599 0.05168 0.0
C1937 C 0.05941 0.70923 0.04452 0.0
H1938 H 0.11194 0.73951 0.07357 0.0
C1939 C 0.04977 0.72239 0.05375 0.0
H1940 H 0.09022 0.70645 0.04485 0.0
C1941 C 0.06237 0.74148 0.07031 0.0
C1942 C 0.08477 0.74766 0.07811 0.0
H1943 H 0.03237 0.71775 0.04857 0.0
H1944 H 0.05439 0.75101 0.07763 0.0
C1945 C 0.09457 0.7349 0.06829 0.0
C1946 C 0.28549 0.32669 0.07787 0.0
C1947 C 0.28748 0.33135 0.05007 0.0
H1948 H 0.26542 0.32028 0.11336 0.0
C1949 C 0.26935 0.33183 0.03637 0.0
H1950 H 0.29915 0.32629 0.08911 0.0
C1951 C 0.24977 0.32799 0.05036 0.0
C1952 C 0.2483 0.32416 0.07831 0.0
H1953 H 0.27042 0.33541 0.01498 0.0
H1954 H 0.23609 0.32869 0.03953 0.0
C1955 C 0.26625 0.32336 0.09185 0.0
C1956 C 0.70515 0.66128 0.38622 0.0
C1957 C 0.71262 0.68437 0.38009 0.0
H1958 H 0.71302 0.63725 0.40532 0.0
C1959 C 0.73386 0.70124 0.39008 0.0
H1960 H 0.68887 0.64787 0.3788 0.0
C1961 C 0.74746 0.69521 0.4055 0.0
C1962 C 0.74034 0.67213 0.41109 0.0
H1963 H 0.74003 0.71923 0.38611 0.0
H1964 H 0.7636 0.70873 0.41311 0.0
C1965 C 0.71892 0.6552 0.40152 0.0
C1966 C 0.3624 0.05555 0.40322 0.0
C1967 C 0.34659 0.04702 0.38181 0.0
H1968 H 0.37838 0.08146 0.43363 0.0
C1969 C 0.33569 0.0593 0.37351 0.0
H1970 H 0.37103 0.04641 0.41005 0.0
C1971 C 0.33956 0.07903 0.38732 0.0
C1972 C 0.35477 0.0871 0.40928 0.0
H1973 H 0.32333 0.05309 0.35717 0.0
H1974 H 0.33032 0.08775 0.3812 0.0
C1975 C 0.36663 0.07557 0.41667 0.0
C1976 C 0.93461 0.27496 0.36909 0.0
C1977 C 0.95258 0.29381 0.38228 0.0
H1978 H 0.90197 0.24456 0.37315 0.0
C1979 C 0.95058 0.297 0.40991 0.0
H1980 H 0.93567 0.27204 0.34785 0.0
C1981 C 0.93165 0.28118 0.42431 0.0
C1982 C 0.91405 0.26202 0.41137 0.0
H1983 H 0.96409 0.31128 0.42074 0.0
H1984 H 0.93094 0.28369 0.44575 0.0
C1985 C 0.91536 0.25929 0.38351 0.0
C1986 C 0.98497 0.37594 0.29973 0.0
C1987 C 0.00738 0.3866 0.3101 0.0
H1988 H 0.9607 0.3792 0.27432 0.0
C1989 C 0.02228 0.40959 0.30324 0.0
H1990 H 0.97304 0.35828 0.30456 0.0
C1991 C 0.0153 0.42135 0.28582 0.0
C1992 C 0.99317 0.41059 0.2749 0.0
H1993 H 0.03962 0.41852 0.31085 0.0
H1994 H 0.0273 0.43898 0.28087 0.0
C1995 C 0.9779 0.38789 0.2824 0.0
C1996 C 0.62861 0.60956 0.29396 0.0
C1997 C 0.62034 0.61871 0.31346 0.0
H1998 H 0.62027 0.58313 0.26459 0.0
C1999 C 0.59709 0.60685 0.3199 0.0
H2000 H 0.64646 0.61839 0.28861 0.0
C2001 C 0.58211 0.58704 0.30577 0.0
C2002 C 0.59025 0.5785 0.28547 0.0
H2003 H 0.59022 0.6136 0.3347 0.0
H2004 H 0.56406 0.57876 0.31009 0.0
C2005 C 0.61369 0.58944 0.28026 0.0
C2006 C 0.3931 0.00961 0.30553 0.0
C2007 C 0.37977 0.98656 0.31328 0.0
H2008 H 0.42248 0.03438 0.2841 0.0
C2009 C 0.38599 0.97058 0.30419 0.0
H2010 H 0.38879 0.02237 0.31211 0.0
C2011 C 0.40496 0.97736 0.28788 0.0
C2012 C 0.41853 0.0004 0.28037 0.0
H2013 H 0.37602 0.95262 0.30935 0.0
H2014 H 0.40883 0.96438 0.28092 0.0
C2015 C 0.41232 0.01646 0.2893 0.0
C2016 C 0.60958 0.99352 0.3109 0.0
C2017 C 0.63307 0.00842 0.30913 0.0
H2018 H 0.57646 0.9851 0.29719 0.0
C2019 C 0.64102 0.02837 0.29363 0.0
H2020 H 0.60305 0.97775 0.3223 0.0
C2021 C 0.62563 0.0333 0.28 0.0
C2022 C 0.60197 0.01789 0.28072 0.0
H2023 H 0.65914 0.04013 0.29199 0.0
H2024 H 0.63245 0.04913 0.26878 0.0
C2025 C 0.59428 0.99793 0.29652 0.0
C2026 C 0.00262 0.59937 0.3247 0.0
C2027 C 0.99888 0.61707 0.31562 0.0
H2028 H 0.99854 0.5663 0.31709 0.0
C2029 C 0.98696 0.61429 0.29131 0.0
H2030 H 0.01154 0.60099 0.34354 0.0
C2031 C 0.98022 0.59471 0.27549 0.0
C2032 C 0.98487 0.57732 0.28396 0.0
H2033 H 0.98403 0.62781 0.28379 0.0
H2034 H 0.97237 0.59379 0.25607 0.0
C2035 C 0.99536 0.57958 0.30931 0.0
C2036 C 0.39879 0.38678 0.32004 0.0
C2037 C 0.38102 0.36806 0.30647 0.0
H2038 H 0.43162 0.41698 0.31673 0.0
C2039 C 0.38377 0.36448 0.27919 0.0
H2040 H 0.39716 0.38995 0.34106 0.0
C2041 C 0.40319 0.38003 0.26533 0.0
C2042 C 0.42047 0.39924 0.27856 0.0
H2043 H 0.37042 0.35024 0.26812 0.0
H2044 H 0.40444 0.37743 0.24402 0.0
C2045 C 0.41849 0.40218 0.30621 0.0
C2046 C 0.30848 0.25305 0.38047 0.0
C2047 C 0.32316 0.27635 0.37493 0.0
H2048 H 0.30403 0.22288 0.40051 0.0
C2049 C 0.34566 0.2868 0.38495 0.0
H2050 H 0.2911 0.24432 0.37296 0.0
C2051 C 0.35305 0.27437 0.40082 0.0
C2052 C 0.33804 0.25134 0.40708 0.0
H2053 H 0.35745 0.30469 0.38101 0.0
H2054 H 0.37027 0.28296 0.40886 0.0
C2055 C 0.31583 0.24073 0.3964 0.0
C2056 C 0.7483 0.04941 0.38798 0.0
C2057 C 0.72567 0.04215 0.37999 0.0
H2058 H 0.77756 0.07364 0.41014 0.0
C2059 C 0.71543 0.05501 0.38831 0.0
H2060 H 0.75687 0.04011 0.38191 0.0
C2061 C 0.72749 0.07445 0.4046 0.0
C2062 C 0.74988 0.08121 0.41309 0.0
H2063 H 0.69807 0.04998 0.38246 0.0
H2064 H 0.71913 0.08385 0.41109 0.0
C2065 C 0.76019 0.06862 0.40434 0.0
C2066 C 0.94433 0.65177 0.40667 0.0
C2067 C 0.9489 0.66086 0.38046 0.0
H2068 H 0.92252 0.6423 0.44077 0.0
C2069 C 0.93306 0.66568 0.36765 0.0
H2070 H 0.9562 0.64793 0.41721 0.0
C2071 C 0.91341 0.66213 0.38115 0.0
C2072 C 0.90927 0.65382 0.4078 0.0
H2073 H 0.93607 0.67264 0.34744 0.0
H2074 H 0.90159 0.66614 0.37078 0.0
C2075 C 0.92486 0.64839 0.42018 0.0
C2076 C 0.37094 0.99011 0.72535 0.0
C2077 C 0.37946 0.01304 0.71741 0.0
H2078 H 0.37734 0.96604 0.747 0.0
C2079 C 0.40176 0.02934 0.72516 0.0
H2080 H 0.35387 0.97709 0.71968 0.0
C2081 C 0.4151 0.02299 0.74062 0.0
C2082 C 0.40655 0.00018 0.74881 0.0
H2083 H 0.40904 0.04712 0.71927 0.0
H2084 H 0.43226 0.03599 0.74598 0.0
C2085 C 0.38439 0.98374 0.74086 0.0
C2086 C 0.01625 0.38247 0.74227 0.0
C2087 C 0.0111 0.37925 0.71459 0.0
H2088 H 0.02274 0.40406 0.77669 0.0
C2089 C 0.01067 0.39695 0.69975 0.0
H2090 H 0.01668 0.36917 0.7543 0.0
C2091 C 0.01452 0.41714 0.7126 0.0
C2092 C 0.01845 0.4197 0.74051 0.0
H2093 H 0.00676 0.39495 0.67838 0.0
H2094 H 0.0134 0.43027 0.70099 0.0
C2095 C 0.01968 0.40239 0.75513 0.0
C2096 C 0.61241 0.60245 0.71494 0.0
C2097 C 0.62064 0.62607 0.71651 0.0
H2098 H 0.58811 0.56925 0.72855 0.0
C2099 C 0.60853 0.63417 0.73152 0.0
H2100 H 0.62169 0.5958 0.70386 0.0
C2101 C 0.58856 0.61887 0.74491 0.0
C2102 C 0.58068 0.59511 0.74447 0.0
H2103 H 0.61454 0.65238 0.73295 0.0
H2104 H 0.5795 0.62585 0.75573 0.0
C2105 C 0.59294 0.58719 0.72908 0.0
C2106 C 0.65766 0.70858 0.62587 0.0
C2107 C 0.67079 0.71835 0.64924 0.0
H2108 H 0.64138 0.71363 0.59124 0.0
C2109 C 0.67526 0.7402 0.65725 0.0
H2110 H 0.65407 0.69176 0.6192 0.0
C2111 C 0.66752 0.75244 0.64178 0.0
C2112 C 0.6557 0.74348 0.61735 0.0
H2113 H 0.68507 0.74804 0.67536 0.0
H2114 H 0.67127 0.7692 0.64881 0.0
C2115 C 0.65035 0.72111 0.60992 0.0
C2116 C 0.27194 0.93244 0.65337 0.0
C2117 C 0.29054 0.95049 0.64028 0.0
H2118 H 0.24166 0.89972 0.64909 0.0
C2119 C 0.29373 0.9484 0.61271 0.0
H2120 H 0.26904 0.9336 0.67458 0.0
C2121 C 0.27789 0.92935 0.59815 0.0
C2122 C 0.25882 0.9118 0.61097 0.0
H2123 H 0.30783 0.96203 0.602 0.0
H2124 H 0.28022 0.92857 0.57669 0.0
C2125 C 0.25629 0.91311 0.63884 0.0
C2126 C 0.05797 0.30897 0.64068 0.0
C2127 C 0.04878 0.3234 0.64589 0.0
H2128 H 0.08299 0.30427 0.61989 0.0
C2129 C 0.05953 0.34556 0.63472 0.0
H2130 H 0.05041 0.29188 0.64907 0.0
C2131 C 0.07849 0.35271 0.61792 0.0
C2132 C 0.08682 0.33774 0.61182 0.0
H2133 H 0.05298 0.35716 0.63835 0.0
H2134 H 0.0861 0.36959 0.60895 0.0
C2135 C 0.07664 0.31601 0.62383 0.0
C2136 C 0.30272 0.35712 0.61845 0.0
C2137 C 0.29541 0.34235 0.6408 0.0
H2138 H 0.29325 0.37234 0.58631 0.0
C2139 C 0.27273 0.33302 0.64923 0.0
H2140 H 0.32011 0.36459 0.61147 0.0
C2141 C 0.25734 0.33726 0.63464 0.0
C2142 C 0.26438 0.35117 0.61156 0.0
H2143 H 0.26657 0.32155 0.66635 0.0
H2144 H 0.23975 0.3292 0.64103 0.0
C2145 C 0.28738 0.36161 0.60407 0.0
C2146 C 0.68824 0.9533 0.63462 0.0
C2147 C 0.67256 0.95947 0.6447 0.0
H2148 H 0.69372 0.92977 0.61158 0.0
C2149 C 0.64932 0.94566 0.63817 0.0
H2150 H 0.70634 0.96367 0.63866 0.0
C2151 C 0.64199 0.92576 0.62256 0.0
C2152 C 0.6578 0.91944 0.61322 0.0
H2153 H 0.63682 0.95 0.64547 0.0
H2154 H 0.62397 0.91508 0.61836 0.0
C2155 C 0.681 0.93372 0.61906 0.0
C2156 C 0.05721 0.72377 0.64902 0.0
C2157 C 0.0392 0.70545 0.63521 0.0
H2158 H 0.09041 0.75353 0.64617 0.0
C2159 C 0.04161 0.70254 0.60763 0.0
H2160 H 0.05584 0.72644 0.67027 0.0
C2161 C 0.06111 0.71816 0.59388 0.0
C2162 C 0.07883 0.73681 0.60747 0.0
H2163 H 0.02806 0.68865 0.59636 0.0
H2164 H 0.06221 0.71587 0.57246 0.0
C2165 C 0.07698 0.73922 0.63529 0.0
C2166 C 0.97152 0.58957 0.70997 0.0
C2167 C 0.98548 0.61331 0.70637 0.0
H2168 H 0.96756 0.55894 0.72815 0.0
C2169 C 0.00751 0.62412 0.71782 0.0
H2170 H 0.95458 0.58049 0.70118 0.0
C2171 C 0.015 0.61151 0.73334 0.0
C2172 C 0.00049 0.588 0.73776 0.0
H2173 H 0.01873 0.64234 0.71535 0.0
H2174 H 0.03177 0.62023 0.74259 0.0
C2175 C 0.9789 0.57713 0.72549 0.0
C2176 C 0.40768 0.37829 0.72458 0.0
C2177 C 0.38604 0.37266 0.71426 0.0
H2178 H 0.43666 0.40156 0.74771 0.0
C2179 C 0.37703 0.38714 0.72013 0.0
H2180 H 0.41508 0.36743 0.72088 0.0
C2181 C 0.38969 0.40708 0.73547 0.0
C2182 C 0.41153 0.41285 0.74524 0.0
H2183 H 0.36041 0.3833 0.71254 0.0
H2184 H 0.38259 0.41821 0.73913 0.0
C2185 C 0.42016 0.39799 0.73993 0.0
C2186 C 0.60665 0.01151 0.708 0.0
C2187 C 0.61739 0.99868 0.71459 0.0
H2188 H 0.57958 0.01858 0.71697 0.0
C2189 C 0.60762 0.98153 0.73434 0.0
H2190 H 0.61387 0.02496 0.69303 0.0
C2191 C 0.5878 0.97763 0.74765 0.0
C2192 C 0.57769 0.99117 0.74193 0.0
H2193 H 0.61554 0.9714 0.73986 0.0
H2194 H 0.58089 0.96464 0.76319 0.0
C2195 C 0.58714 0.00798 0.72178 0.0
loop_
_geom_bond_atom_site_label_1
_geom_bond_atom_site_label_2
_geom_bond_distance
_geom_bond_site_symmetry_2
_ccdc_geom_bond_type
Mn0 O5 2.095 1_655 S
Mn0 O15 2.162 . S
Mn0 O16 2.297 1_554 S
Mn0 O24 2.385 1_554 S
Mn0 O25 2.209 1_654 S
Mn0 O26 2.094 . S
Mn1 O6 2.121 . S
Mn1 N8 2.257 1_554 S
Mn1 N17 2.282 . S
Mn1 O25 2.215 1_554 S
Mn1 O27 2.117 . S
C2 O24 1.234 1_455 S
C2 O25 1.283 . S
C3 O15 1.281 1_556 S
C3 O16 1.236 . S
C4 O26 1.240 . S
C4 O27 1.264 1_655 S
O5 Mn0 2.095 1_455 S
O5 C14 1.250 . S
O6 Mn1 2.121 . S
O6 C14 1.258 . S
C7 N8 1.326 . S
C7 C11 1.460 . S
C7 H13 0.929 . S
N8 Mn1 2.257 1_556 S
N8 C7 1.326 . S
N8 C12 1.362 . S
C9 C10 1.258 . S
C9 C12 1.431 . S
C9 C29 1.449 . S
C10 C9 1.258 . S
C10 C11 1.477 . S
C10 H30 0.931 . S
C11 C7 1.460 . S
C11 C10 1.477 . S
C11 H31 0.930 . S
C12 N8 1.362 . S
C12 C9 1.431 . S
C12 C22 1.476 . S
H13 C7 0.929 . S
C14 O5 1.250 . S
C14 O6 1.258 . S
O15 Mn0 2.162 . S
O15 C3 1.281 1_554 S
O16 Mn0 2.297 1_556 S
O16 C3 1.236 . S
N17 Mn1 2.282 . S
N17 C18 1.328 . S
N17 C22 1.318 1_554 S
C18 N17 1.328 . S
C18 C19 1.457 1_554 S
C18 H23 0.929 . S
C19 C18 1.457 1_556 S
C19 C20 1.291 . S
C19 H32 0.931 . S
C20 C19 1.291 . S
C20 C21 1.373 . S
C20 H33 0.929 . S
C21 C20 1.373 . S
C21 C22 1.396 . S
C21 C28 1.403 . S
C22 C12 1.476 . S
C22 N17 1.318 1_556 S
C22 C21 1.396 . S
H23 C18 0.929 . S
O24 Mn0 2.385 1_556 S
O24 C2 1.234 1_655 S
O25 Mn0 2.209 1_456 S
O25 Mn1 2.215 1_556 S
O25 C2 1.283 . S
O26 Mn0 2.094 . S
O26 C4 1.240 . S
O27 Mn1 2.117 . S
O27 C4 1.264 1_455 S
C28 C21 1.403 . S
C28 C29 1.399 . S
C28 H34 0.929 . S
C29 C9 1.449 . S
C29 C28 1.399 . S
C29 H35 0.930 . S
H30 C10 0.931 . S
H31 C11 0.930 . S
H32 C19 0.931 . S
H33 C20 0.929 . S
H34 C28 0.929 . S
H35 C29 0.930 . S
Mn36 O41 2.095 1_554 S
Mn36 O51 2.162 . S
Mn36 O52 2.297 . S
Mn36 O60 2.385 . S
Mn36 O61 2.209 . S
Mn36 O62 2.094 1_554 S
Mn37 O42 2.121 . S
Mn37 N44 2.257 1_556 S
Mn37 N53 2.282 1_556 S
Mn37 O61 2.215 1_556 S
Mn37 O63 2.117 . S
C38 O60 1.234 . S
C38 O61 1.283 . S
C39 O51 1.281 . S
C39 O52 1.236 . S
C40 O62 1.240 . S
C40 O63 1.264 . S
O41 Mn36 2.095 1_556 S
O41 C50 1.250 . S
O42 Mn37 2.121 . S
O42 C50 1.258 . S
C43 N44 1.326 . S
C43 C47 1.460 . S
C43 H49 0.929 . S
N44 Mn37 2.257 1_554 S
N44 C43 1.326 . S
N44 C48 1.362 . S
C45 C46 1.258 . S
C45 C48 1.431 . S
C45 C65 1.449 . S
C46 C45 1.258 . S
C46 C47 1.477 . S
C46 H66 0.931 . S
C47 C43 1.460 . S
C47 C46 1.477 . S
C47 H67 0.930 . S
C48 N44 1.362 . S
C48 C45 1.431 . S
C48 C58 1.476 . S
H49 C43 0.929 . S
C50 O41 1.250 . S
C50 O42 1.258 . S
O51 Mn36 2.162 . S
O51 C39 1.281 . S
O52 Mn36 2.297 . S
O52 C39 1.236 . S
N53 Mn37 2.282 1_554 S
N53 C54 1.328 . S
N53 C58 1.318 . S
C54 N53 1.328 . S
C54 C55 1.457 . S
C54 H59 0.929 1_554 S
C55 C54 1.457 . S
C55 C56 1.291 . S
C55 H68 0.931 . S
C56 C55 1.291 . S
C56 C57 1.373 . S
C56 H69 0.929 . S
C57 C56 1.373 . S
C57 C58 1.396 . S
C57 C64 1.403 . S
C58 C48 1.476 . S
C58 N53 1.318 . S
C58 C57 1.396 . S
H59 C54 0.929 1_556 S
O60 Mn36 2.385 . S
O60 C38 1.234 . S
O61 Mn36 2.209 . S
O61 Mn37 2.215 1_554 S
O61 C38 1.283 . S
O62 Mn36 2.094 1_556 S
O62 C40 1.240 . S
O63 Mn37 2.117 . S
O63 C40 1.264 . S
C64 C57 1.403 . S
C64 C65 1.399 . S
C64 H70 0.929 . S
C65 C45 1.449 . S
C65 C64 1.399 . S
C65 H71 0.930 . S
H66 C46 0.931 . S
H67 C47 0.930 . S
H68 C55 0.931 . S
H69 C56 0.929 . S
H70 C64 0.929 . S
H71 C65 0.930 . S
Mn72 O77 2.095 1_564 S
Mn72 O87 2.162 . S
Mn72 O88 2.297 . S
Mn72 O96 2.385 . S
Mn72 O97 2.209 1_565 S
Mn72 O98 2.094 1_554 S
Mn73 O78 2.116 1_554 S
Mn73 N80 2.278 . S
Mn73 N89 2.294 . S
Mn73 O97 2.237 . S
Mn73 O99 2.097 1_554 S
C74 O96 1.234 1_545 S
C74 O97 1.283 . S
C75 O87 1.281 . S
C75 O88 1.236 . S
C76 O98 1.240 . S
C76 O99 1.264 1_565 S
O77 Mn72 2.095 1_546 S
O77 C86 1.250 . S
O78 Mn73 2.116 1_556 S
O78 C86 1.258 . S
C79 N80 1.326 . S
C79 C83 1.460 . S
C79 H85 0.929 . S
N80 Mn73 2.278 . S
N80 C79 1.326 . S
N80 C84 1.362 . S
C81 C82 1.258 . S
C81 C84 1.431 . S
C81 C101 1.449 . S
C82 C81 1.258 . S
C82 C83 1.477 . S
C82 H102 0.931 . S
C83 C79 1.460 . S
C83 C82 1.477 . S
C83 H103 0.930 . S
C84 N80 1.362 . S
C84 C81 1.431 . S
C84 C94 1.476 . S
H85 C79 0.929 . S
C86 O77 1.250 . S
C86 O78 1.258 . S
O87 Mn72 2.162 . S
O87 C75 1.281 . S
O88 Mn72 2.297 . S
O88 C75 1.236 . S
N89 Mn73 2.294 . S
N89 C90 1.328 . S
N89 C94 1.318 . S
C90 N89 1.328 . S
C90 C91 1.457 . S
C90 H95 0.950 . S
C91 C90 1.457 . S
C91 C92 1.291 . S
C91 H104 0.931 . S
C92 C91 1.291 . S
C92 C93 1.373 . S
C92 H105 0.929 . S
C93 C92 1.373 . S
C93 C94 1.396 . S
C93 C100 1.403 . S
C94 C84 1.476 . S
C94 N89 1.318 . S
C94 C93 1.396 . S
H95 C90 0.950 . S
O96 Mn72 2.385 . S
O96 C74 1.234 1_565 S
O97 Mn72 2.209 1_545 S
O97 Mn73 2.237 . S
O97 C74 1.283 . S
O98 Mn72 2.094 1_556 S
O98 C76 1.240 . S
O99 Mn73 2.097 1_556 S
O99 C76 1.264 1_545 S
C100 C93 1.403 . S
C100 C101 1.399 . S
C100 H106 0.929 . S
C101 C81 1.449 . S
C101 C100 1.399 . S
C101 H107 0.930 . S
H102 C82 0.931 . S
H103 C83 0.930 . S
H104 C91 0.931 . S
H105 C92 0.929 . S
H106 C100 0.929 . S
H107 C101 0.930 . S
Mn108 O113 2.095 1_655 S
Mn108 O123 2.162 . S
Mn108 O124 2.297 1_554 S
Mn108 O132 2.385 1_554 S
Mn108 O133 2.209 1_654 S
Mn108 O134 2.094 . S
Mn109 O114 2.121 . S
Mn109 N116 2.257 1_554 S
Mn109 N125 2.282 . S
Mn109 O133 2.215 1_554 S
Mn109 O135 2.117 . S
C110 O132 1.234 1_455 S
C110 O133 1.283 . S
C111 O123 1.281 1_556 S
C111 O124 1.236 . S
C112 O134 1.240 . S
C112 O135 1.264 1_655 S
O113 Mn108 2.095 1_455 S
O113 C122 1.250 . S
O114 Mn109 2.121 . S
O114 C122 1.258 . S
C115 N116 1.326 . S
C115 C119 1.460 . S
C115 H121 0.929 . S
N116 Mn109 2.257 1_556 S
N116 C115 1.326 . S
N116 C120 1.362 . S
C117 C118 1.258 . S
C117 C120 1.431 . S
C117 C137 1.449 . S
C118 C117 1.258 . S
C118 C119 1.477 . S
C118 H138 0.931 . S
C119 C115 1.460 . S
C119 C118 1.477 . S
C119 H139 0.930 . S
C120 N116 1.362 . S
C120 C117 1.431 . S
C120 C130 1.476 . S
H121 C115 0.929 . S
C122 O113 1.250 . S
C122 O114 1.258 . S
O123 Mn108 2.162 . S
O123 C111 1.281 1_554 S
O124 Mn108 2.297 1_556 S
O124 C111 1.236 . S
N125 Mn109 2.282 . S
N125 C126 1.328 . S
N125 C130 1.318 1_554 S
C126 N125 1.328 . S
C126 C127 1.457 1_554 S
C126 H131 0.929 . S
C127 C126 1.457 1_556 S
C127 C128 1.291 . S
C127 H140 0.931 . S
C128 C127 1.291 . S
C128 C129 1.373 . S
C128 H141 0.929 . S
C129 C128 1.373 . S
C129 C130 1.396 . S
C129 C136 1.403 . S
C130 C120 1.476 . S
C130 N125 1.318 1_556 S
C130 C129 1.396 . S
H131 C126 0.929 . S
O132 Mn108 2.385 1_556 S
O132 C110 1.234 1_655 S
O133 Mn108 2.209 1_456 S
O133 Mn109 2.215 1_556 S
O133 C110 1.283 . S
O134 Mn108 2.094 . S
O134 C112 1.240 . S
O135 Mn109 2.117 . S
O135 C112 1.264 1_455 S
C136 C129 1.403 . S
C136 C137 1.399 . S
C136 H142 0.929 . S
C137 C117 1.449 . S
C137 C136 1.399 . S
C137 H143 0.930 . S
H138 C118 0.931 . S
H139 C119 0.930 . S
H140 C127 0.931 . S
H141 C128 0.929 . S
H142 C136 0.929 . S
H143 C137 0.930 . S
Mn144 O149 2.095 1_554 S
Mn144 O159 2.162 . S
Mn144 O160 2.297 . S
Mn144 O168 2.385 . S
Mn144 O169 2.209 . S
Mn144 O170 2.094 1_554 S
Mn145 O150 2.121 . S
Mn145 N152 2.257 1_556 S
Mn145 N161 2.282 1_556 S
Mn145 O169 2.215 1_556 S
Mn145 O171 2.117 . S
C146 O168 1.234 . S
C146 O169 1.283 . S
C147 O159 1.281 . S
C147 O160 1.236 . S
C148 O170 1.240 . S
C148 O171 1.264 . S
O149 Mn144 2.095 1_556 S
O149 C158 1.250 . S
O150 Mn145 2.121 . S
O150 C158 1.258 . S
C151 N152 1.326 . S
C151 C155 1.460 . S
C151 H157 0.929 . S
N152 Mn145 2.257 1_554 S
N152 C151 1.326 . S
N152 C156 1.362 . S
C153 C154 1.258 . S
C153 C156 1.431 . S
C153 C173 1.449 . S
C154 C153 1.258 . S
C154 C155 1.477 . S
C154 H174 0.931 . S
C155 C151 1.460 . S
C155 C154 1.477 . S
C155 H175 0.930 . S
C156 N152 1.362 . S
C156 C153 1.431 . S
C156 C166 1.476 . S
H157 C151 0.929 . S
C158 O149 1.250 . S
C158 O150 1.258 . S
O159 Mn144 2.162 . S
O159 C147 1.281 . S
O160 Mn144 2.297 . S
O160 C147 1.236 . S
N161 Mn145 2.282 1_554 S
N161 C162 1.328 . S
N161 C166 1.318 . S
C162 N161 1.328 . S
C162 C163 1.457 . S
C162 H167 0.929 1_554 S
C163 C162 1.457 . S
C163 C164 1.291 . S
C163 H176 0.931 . S
C164 C163 1.291 . S
C164 C165 1.373 . S
C164 H177 0.929 . S
C165 C164 1.373 . S
C165 C166 1.396 . S
C165 C172 1.403 . S
C166 C156 1.476 . S
C166 N161 1.318 . S
C166 C165 1.396 . S
H167 C162 0.929 1_556 S
O168 Mn144 2.385 . S
O168 C146 1.234 . S
O169 Mn144 2.209 . S
O169 Mn145 2.215 1_554 S
O169 C146 1.283 . S
O170 Mn144 2.094 1_556 S
O170 C148 1.240 . S
O171 Mn145 2.117 . S
O171 C148 1.264 . S
C172 C165 1.403 . S
C172 C173 1.399 . S
C172 H178 0.929 . S
C173 C153 1.449 . S
C173 C172 1.399 . S
C173 H179 0.930 . S
H174 C154 0.931 . S
H175 C155 0.930 . S
H176 C163 0.931 . S
H177 C164 0.929 . S
H178 C172 0.929 . S
H179 C173 0.930 . S
Mn180 O185 2.095 1_545 S
Mn180 O195 2.162 . S
Mn180 O196 2.297 1_554 S
Mn180 O204 2.385 1_554 S
Mn180 O205 2.209 1_544 S
Mn180 O206 2.094 . S
Mn181 O186 2.121 . S
Mn181 N188 2.257 1_554 S
Mn181 N197 2.282 . S
Mn181 O205 2.215 1_554 S
Mn181 O207 2.117 . S
C182 O204 1.234 1_565 S
C182 O205 1.283 . S
C183 O195 1.281 1_556 S
C183 O196 1.236 . S
C184 O206 1.240 . S
C184 O207 1.264 1_545 S
O185 Mn180 2.095 1_565 S
O185 C194 1.250 . S
O186 Mn181 2.121 . S
O186 C194 1.258 . S
C187 N188 1.326 . S
C187 C191 1.460 . S
C187 H193 0.929 . S
N188 Mn181 2.257 1_556 S
N188 C187 1.326 . S
N188 C192 1.362 . S
C189 C190 1.258 . S
C189 C192 1.431 . S
C189 C209 1.449 . S
C190 C189 1.258 . S
C190 C191 1.477 . S
C190 H210 0.931 . S
C191 C187 1.460 . S
C191 C190 1.477 . S
C191 H211 0.930 . S
C192 N188 1.362 . S
C192 C189 1.431 . S
C192 C202 1.476 . S
H193 C187 0.929 . S
C194 O185 1.250 . S
C194 O186 1.258 . S
O195 Mn180 2.162 . S
O195 C183 1.281 1_554 S
O196 Mn180 2.297 1_556 S
O196 C183 1.236 . S
N197 Mn181 2.282 . S
N197 C198 1.328 . S
N197 C202 1.318 1_554 S
C198 N197 1.328 . S
C198 C199 1.457 1_554 S
C198 H203 0.929 . S
C199 C198 1.457 1_556 S
C199 C200 1.291 . S
C199 H212 0.931 . S
C200 C199 1.291 . S
C200 C201 1.373 . S
C200 H213 0.929 . S
C201 C200 1.373 . S
C201 C202 1.396 . S
C201 C208 1.403 . S
C202 C192 1.476 . S
C202 N197 1.318 1_556 S
C202 C201 1.396 . S
H203 C198 0.929 . S
O204 Mn180 2.385 1_556 S
O204 C182 1.234 1_545 S
O205 Mn180 2.209 1_566 S
O205 Mn181 2.215 1_556 S
O205 C182 1.283 . S
O206 Mn180 2.094 . S
O206 C184 1.240 . S
O207 Mn181 2.117 . S
O207 C184 1.264 1_565 S
C208 C201 1.403 . S
C208 C209 1.399 . S
C208 H214 0.929 . S
C209 C189 1.449 . S
C209 C208 1.399 . S
C209 H215 0.930 . S
H210 C190 0.931 . S
H211 C191 0.930 . S
H212 C199 0.931 . S
H213 C200 0.929 . S
H214 C208 0.929 . S
H215 C209 0.930 . S
Mn216 O221 2.095 . S
Mn216 O231 2.162 . S
Mn216 O232 2.297 . S
Mn216 O240 2.385 . S
Mn216 O241 2.209 . S
Mn216 O242 2.094 . S
Mn217 O222 2.121 . S
Mn217 N224 2.257 . S
Mn217 N233 2.282 . S
Mn217 O241 2.215 . S
Mn217 O243 2.117 . S
C218 O240 1.234 . S
C218 O241 1.283 . S
C219 O231 1.281 . S
C219 O232 1.236 . S
C220 O242 1.240 . S
C220 O243 1.264 . S
O221 Mn216 2.095 . S
O221 C230 1.250 . S
O222 Mn217 2.121 . S
O222 C230 1.258 . S
C223 N224 1.326 . S
C223 C227 1.460 . S
C223 H229 0.929 . S
N224 Mn217 2.257 . S
N224 C223 1.326 . S
N224 C228 1.362 . S
C225 C226 1.258 . S
C225 C228 1.431 . S
C225 C245 1.449 . S
C226 C225 1.258 . S
C226 C227 1.477 . S
C226 H246 0.931 . S
C227 C223 1.460 . S
C227 C226 1.477 . S
C227 H247 0.930 . S
C228 N224 1.362 . S
C228 C225 1.431 . S
C228 C238 1.476 . S
H229 C223 0.929 . S
C230 O221 1.250 . S
C230 O222 1.258 . S
O231 Mn216 2.162 . S
O231 C219 1.281 . S
O232 Mn216 2.297 . S
O232 C219 1.236 . S
N233 Mn217 2.282 . S
N233 C234 1.328 . S
N233 C238 1.318 . S
C234 N233 1.328 . S
C234 C235 1.457 . S
C234 H239 0.929 . S
C235 C234 1.457 . S
C235 C236 1.291 . S
C235 H248 0.931 . S
C236 C235 1.291 . S
C236 C237 1.373 . S
C236 H249 0.929 . S
C237 C236 1.373 . S
C237 C238 1.396 . S
C237 C244 1.403 . S
C238 C228 1.476 . S
C238 N233 1.318 . S
C238 C237 1.396 . S
H239 C234 0.929 . S
O240 Mn216 2.385 . S
O240 C218 1.234 . S
O241 Mn216 2.209 . S
O241 Mn217 2.215 . S
O241 C218 1.283 . S
O242 Mn216 2.094 . S
O242 C220 1.240 . S
O243 Mn217 2.117 . S
O243 C220 1.264 . S
C244 C237 1.403 . S
C244 C245 1.399 . S
C244 H250 0.929 . S
C245 C225 1.449 . S
C245 C244 1.399 . S
C245 H251 0.930 . S
H246 C226 0.931 . S
H247 C227 0.930 . S
H248 C235 0.931 . S
H249 C236 0.929 . S
H250 C244 0.929 . S
H251 C245 0.930 . S
Mn252 O257 2.095 . S
Mn252 O267 2.162 1_565 S
Mn252 O268 2.297 1_565 S
Mn252 O276 2.385 . S
Mn252 O277 2.209 . S
Mn252 O278 2.094 . S
Mn253 O258 2.121 . S
Mn253 N260 2.257 . S
Mn253 N269 2.282 . S
Mn253 O277 2.215 . S
Mn253 O279 2.117 . S
C254 O276 1.234 . S
C254 O277 1.283 . S
C255 O267 1.281 . S
C255 O268 1.236 . S
C256 O278 1.240 . S
C256 O279 1.264 . S
O257 Mn252 2.095 . S
O257 C266 1.250 . S
O258 Mn253 2.121 . S
O258 C266 1.258 . S
C259 N260 1.326 . S
C259 C263 1.460 . S
C259 H265 0.929 . S
N260 Mn253 2.257 . S
N260 C259 1.326 . S
N260 C264 1.362 . S
C261 C262 1.258 . S
C261 C264 1.431 . S
C261 C281 1.449 . S
C262 C261 1.258 . S
C262 C263 1.477 . S
C262 H282 0.931 . S
C263 C259 1.460 . S
C263 C262 1.477 . S
C263 H283 0.930 . S
C264 N260 1.362 . S
C264 C261 1.431 . S
C264 C274 1.476 . S
H265 C259 0.929 . S
C266 O257 1.250 . S
C266 O258 1.258 . S
O267 Mn252 2.162 1_545 S
O267 C255 1.281 . S
O268 Mn252 2.297 1_545 S
O268 C255 1.236 . S
N269 Mn253 2.282 . S
N269 C270 1.328 . S
N269 C274 1.318 . S
C270 N269 1.328 . S
C270 C271 1.457 . S
C270 H275 0.929 . S
C271 C270 1.457 . S
C271 C272 1.291 . S
C271 H284 0.931 . S
C272 C271 1.291 . S
C272 C273 1.373 . S
C272 H285 0.929 . S
C273 C272 1.373 . S
C273 C274 1.396 . S
C273 C280 1.403 . S
C274 C264 1.476 . S
C274 N269 1.318 . S
C274 C273 1.396 . S
H275 C270 0.929 . S
O276 Mn252 2.385 . S
O276 C254 1.234 . S
O277 Mn252 2.209 . S
O277 Mn253 2.215 . S
O277 C254 1.283 . S
O278 Mn252 2.094 . S
O278 C256 1.240 . S
O279 Mn253 2.117 . S
O279 C256 1.264 . S
C280 C273 1.403 . S
C280 C281 1.399 . S
C280 H286 0.929 . S
C281 C261 1.449 . S
C281 C280 1.399 . S
C281 H287 0.930 . S
H282 C262 0.931 . S
H283 C263 0.930 . S
H284 C271 0.931 . S
H285 C272 0.929 . S
H286 C280 0.929 . S
H287 C281 0.930 . S
Mn288 O293 2.095 . S
Mn288 O303 2.162 1_455 S
Mn288 O304 2.297 1_455 S
Mn288 O312 2.385 . S
Mn288 O313 2.209 . S
Mn288 O314 2.094 . S
Mn289 O294 2.121 . S
Mn289 N296 2.257 . S
Mn289 N305 2.282 . S
Mn289 O313 2.215 . S
Mn289 O315 2.117 . S
C290 O312 1.234 . S
C290 O313 1.283 . S
C291 O303 1.281 . S
C291 O304 1.236 . S
C292 O314 1.240 . S
C292 O315 1.264 . S
O293 Mn288 2.095 . S
O293 C302 1.250 . S
O294 Mn289 2.121 . S
O294 C302 1.258 . S
C295 N296 1.326 . S
C295 C299 1.460 . S
C295 H301 0.929 . S
N296 Mn289 2.257 . S
N296 C295 1.326 . S
N296 C300 1.362 . S
C297 C298 1.258 . S
C297 C300 1.431 . S
C297 C317 1.449 . S
C298 C297 1.258 . S
C298 C299 1.477 . S
C298 H318 0.931 . S
C299 C295 1.460 . S
C299 C298 1.477 . S
C299 H319 0.930 . S
C300 N296 1.362 . S
C300 C297 1.431 . S
C300 C310 1.476 . S
H301 C295 0.929 . S
C302 O293 1.250 . S
C302 O294 1.258 . S
O303 Mn288 2.162 1_655 S
O303 C291 1.281 . S
O304 Mn288 2.297 1_655 S
O304 C291 1.236 . S
N305 Mn289 2.282 . S
N305 C306 1.328 . S
N305 C310 1.318 . S
C306 N305 1.328 . S
C306 C307 1.457 . S
C306 H311 0.929 . S
C307 C306 1.457 . S
C307 C308 1.291 . S
C307 H320 0.931 . S
C308 C307 1.291 . S
C308 C309 1.373 . S
C308 H321 0.929 . S
C309 C308 1.373 . S
C309 C310 1.396 . S
C309 C316 1.403 . S
C310 C300 1.476 . S
C310 N305 1.318 . S
C310 C309 1.396 . S
H311 C306 0.929 . S
O312 Mn288 2.385 . S
O312 C290 1.234 . S
O313 Mn288 2.209 . S
O313 Mn289 2.215 . S
O313 C290 1.283 . S
O314 Mn288 2.094 . S
O314 C292 1.240 . S
O315 Mn289 2.117 . S
O315 C292 1.264 . S
C316 C309 1.403 . S
C316 C317 1.399 . S
C316 H322 0.929 . S
C317 C297 1.449 . S
C317 C316 1.399 . S
C317 H323 0.930 . S
H318 C298 0.931 . S
H319 C299 0.930 . S
H320 C307 0.931 . S
H321 C308 0.929 . S
H322 C316 0.929 . S
H323 C317 0.930 . S
Mn324 O329 2.095 1_565 S
Mn324 O339 2.162 . S
Mn324 O340 2.297 . S
Mn324 O348 2.385 . S
Mn324 O349 2.209 . S
Mn324 O350 2.094 . S
Mn325 O330 2.121 1_565 S
Mn325 N332 2.257 . S
Mn325 N341 2.282 . S
Mn325 O349 2.215 . S
Mn325 O351 2.117 . S
C326 O348 1.234 . S
C326 O349 1.283 . S
C327 O339 1.281 . S
C327 O340 1.236 . S
C328 O350 1.240 . S
C328 O351 1.264 . S
O329 Mn324 2.095 1_545 S
O329 C338 1.250 . S
O330 Mn325 2.121 1_545 S
O330 C338 1.258 . S
C331 N332 1.326 1_545 S
C331 C335 1.460 . S
C331 H337 0.929 . S
N332 Mn325 2.257 . S
N332 C331 1.326 1_565 S
N332 C336 1.362 . S
C333 C334 1.258 1_565 S
C333 C336 1.431 . S
C333 C353 1.449 . S
C334 C333 1.258 1_545 S
C334 C335 1.477 . S
C334 H354 0.931 . S
C335 C331 1.460 . S
C335 C334 1.477 . S
C335 H355 0.930 . S
C336 N332 1.362 . S
C336 C333 1.431 . S
C336 C346 1.476 . S
H337 C331 0.929 . S
C338 O329 1.250 . S
C338 O330 1.258 . S
O339 Mn324 2.162 . S
O339 C327 1.281 . S
O340 Mn324 2.297 . S
O340 C327 1.236 . S
N341 Mn325 2.282 . S
N341 C342 1.328 . S
N341 C346 1.318 . S
C342 N341 1.328 . S
C342 C343 1.457 . S
C342 H347 0.929 . S
C343 C342 1.457 . S
C343 C344 1.291 . S
C343 H356 0.931 . S
C344 C343 1.291 . S
C344 C345 1.373 . S
C344 H357 0.929 . S
C345 C344 1.373 . S
C345 C346 1.396 . S
C345 C352 1.403 . S
C346 C336 1.476 . S
C346 N341 1.318 . S
C346 C345 1.396 . S
H347 C342 0.929 . S
O348 Mn324 2.385 . S
O348 C326 1.234 . S
O349 Mn324 2.209 . S
O349 Mn325 2.215 . S
O349 C326 1.283 . S
O350 Mn324 2.094 . S
O350 C328 1.240 . S
O351 Mn325 2.117 . S
O351 C328 1.264 . S
C352 C345 1.403 . S
C352 C353 1.399 . S
C352 H358 0.929 . S
C353 C333 1.449 . S
C353 C352 1.399 . S
C353 H359 0.930 . S
H354 C334 0.931 . S
H355 C335 0.930 . S
H356 C343 0.931 . S
H357 C344 0.929 . S
H358 C352 0.929 . S
H359 C353 0.930 . S
Mn360 O365 2.095 . S
Mn360 O375 2.162 1_455 S
Mn360 O376 2.297 1_455 S
Mn360 O384 2.385 . S
Mn360 O385 2.209 . S
Mn360 O386 2.094 . S
Mn361 O366 2.121 . S
Mn361 N368 2.257 . S
Mn361 N377 2.282 . S
Mn361 O385 2.215 . S
Mn361 O387 2.117 . S
C362 O384 1.234 . S
C362 O385 1.283 . S
C363 O375 1.281 . S
C363 O376 1.236 . S
C364 O386 1.240 . S
C364 O387 1.264 . S
O365 Mn360 2.095 . S
O365 C374 1.250 . S
O366 Mn361 2.121 . S
O366 C374 1.258 . S
C367 N368 1.326 . S
C367 C371 1.460 . S
C367 H373 0.929 . S
N368 Mn361 2.257 . S
N368 C367 1.326 . S
N368 C372 1.362 . S
C369 C370 1.258 . S
C369 C372 1.431 . S
C369 C389 1.449 . S
C370 C369 1.258 . S
C370 C371 1.477 . S
C370 H390 0.931 . S
C371 C367 1.460 . S
C371 C370 1.477 . S
C371 H391 0.930 . S
C372 N368 1.362 . S
C372 C369 1.431 . S
C372 C382 1.476 . S
H373 C367 0.929 . S
C374 O365 1.250 . S
C374 O366 1.258 . S
O375 Mn360 2.162 1_655 S
O375 C363 1.281 . S
O376 Mn360 2.297 1_655 S
O376 C363 1.236 . S
N377 Mn361 2.282 . S
N377 C378 1.328 . S
N377 C382 1.318 . S
C378 N377 1.328 . S
C378 C379 1.457 . S
C378 H383 0.929 . S
C379 C378 1.457 . S
C379 C380 1.291 . S
C379 H392 0.931 . S
C380 C379 1.291 . S
C380 C381 1.373 . S
C380 H393 0.929 . S
C381 C380 1.373 . S
C381 C382 1.396 . S
C381 C388 1.403 . S
C382 C372 1.476 . S
C382 N377 1.318 . S
C382 C381 1.396 . S
H383 C378 0.929 . S
O384 Mn360 2.385 . S
O384 C362 1.234 . S
O385 Mn360 2.209 . S
O385 Mn361 2.215 . S
O385 C362 1.283 . S
O386 Mn360 2.094 . S
O386 C364 1.240 . S
O387 Mn361 2.117 . S
O387 C364 1.264 . S
C388 C381 1.403 . S
C388 C389 1.399 . S
C388 H394 0.929 . S
C389 C369 1.449 . S
C389 C388 1.399 . S
C389 H395 0.930 . S
H390 C370 0.931 . S
H391 C371 0.930 . S
H392 C379 0.931 . S
H393 C380 0.929 . S
H394 C388 0.929 . S
H395 C389 0.930 . S
Mn396 O401 2.095 . S
Mn396 O411 2.162 . S
Mn396 O412 2.297 . S
Mn396 O420 2.385 . S
Mn396 O421 2.209 . S
Mn396 O422 2.094 . S
Mn397 O402 2.121 . S
Mn397 N404 2.257 . S
Mn397 N413 2.282 . S
Mn397 O421 2.215 . S
Mn397 O423 2.117 . S
C398 O420 1.234 . S
C398 O421 1.283 . S
C399 O411 1.281 . S
C399 O412 1.236 . S
C400 O422 1.240 . S
C400 O423 1.264 . S
O401 Mn396 2.095 . S
O401 C410 1.250 . S
O402 Mn397 2.121 . S
O402 C410 1.258 . S
C403 N404 1.326 . S
C403 C407 1.460 . S
C403 H409 0.929 . S
N404 Mn397 2.257 . S
N404 C403 1.326 . S
N404 C408 1.362 . S
C405 C406 1.258 . S
C405 C408 1.431 . S
C405 C425 1.449 . S
C406 C405 1.258 . S
C406 C407 1.477 . S
C406 H426 0.931 . S
C407 C403 1.460 . S
C407 C406 1.477 . S
C407 H427 0.930 . S
C408 N404 1.362 . S
C408 C405 1.431 . S
C408 C418 1.476 . S
H409 C403 0.929 . S
C410 O401 1.250 . S
C410 O402 1.258 . S
O411 Mn396 2.162 . S
O411 C399 1.281 . S
O412 Mn396 2.297 . S
O412 C399 1.236 . S
N413 Mn397 2.282 . S
N413 C414 1.328 . S
N413 C418 1.318 . S
C414 N413 1.328 . S
C414 C415 1.457 . S
C414 H419 0.929 . S
C415 C414 1.457 . S
C415 C416 1.291 . S
C415 H428 0.931 . S
C416 C415 1.291 . S
C416 C417 1.373 . S
C416 H429 0.929 . S
C417 C416 1.373 . S
C417 C418 1.396 . S
C417 C424 1.403 . S
C418 C408 1.476 . S
C418 N413 1.318 . S
C418 C417 1.396 . S
H419 C414 0.929 . S
O420 Mn396 2.385 . S
O420 C398 1.234 . S
O421 Mn396 2.209 . S
O421 Mn397 2.215 . S
O421 C398 1.283 . S
O422 Mn396 2.094 . S
O422 C400 1.240 . S
O423 Mn397 2.117 . S
O423 C400 1.264 . S
C424 C417 1.403 . S
C424 C425 1.399 . S
C424 H430 0.929 . S
C425 C405 1.449 . S
C425 C424 1.399 . S
C425 H431 0.930 . S
H426 C406 0.931 . S
H427 C407 0.930 . S
H428 C415 0.931 . S
H429 C416 0.929 . S
H430 C424 0.929 . S
H431 C425 0.930 . S
Mn432 O437 2.095 . S
Mn432 O447 2.162 1_545 S
Mn432 O448 2.297 1_545 S
Mn432 O456 2.385 . S
Mn432 O457 2.209 . S
Mn432 O458 2.094 . S
Mn433 O438 2.121 . S
Mn433 N440 2.257 . S
Mn433 N449 2.282 . S
Mn433 O457 2.215 . S
Mn433 O459 2.117 . S
C434 O456 1.234 . S
C434 O457 1.283 . S
C435 O447 1.281 . S
C435 O448 1.236 . S
C436 O458 1.240 . S
C436 O459 1.264 . S
O437 Mn432 2.095 . S
O437 C446 1.250 . S
O438 Mn433 2.121 . S
O438 C446 1.258 . S
C439 N440 1.326 . S
C439 C443 1.460 . S
C439 H445 0.929 . S
N440 Mn433 2.257 . S
N440 C439 1.326 . S
N440 C444 1.362 . S
C441 C442 1.258 . S
C441 C444 1.431 . S
C441 C461 1.449 . S
C442 C441 1.258 . S
C442 C443 1.477 . S
C442 H462 0.931 . S
C443 C439 1.460 . S
C443 C442 1.477 . S
C443 H463 0.930 . S
C444 N440 1.362 . S
C444 C441 1.431 . S
C444 C454 1.476 . S
H445 C439 0.929 . S
C446 O437 1.250 . S
C446 O438 1.258 . S
O447 Mn432 2.162 1_565 S
O447 C435 1.281 . S
O448 Mn432 2.297 1_565 S
O448 C435 1.236 . S
N449 Mn433 2.282 . S
N449 C450 1.328 . S
N449 C454 1.318 . S
C450 N449 1.328 . S
C450 C451 1.457 . S
C450 H455 0.929 . S
C451 C450 1.457 . S
C451 C452 1.291 . S
C451 H464 0.931 . S
C452 C451 1.291 . S
C452 C453 1.373 . S
C452 H465 0.929 . S
C453 C452 1.373 . S
C453 C454 1.396 . S
C453 C460 1.403 . S
C454 C444 1.476 . S
C454 N449 1.318 . S
C454 C453 1.396 . S
H455 C450 0.929 . S
O456 Mn432 2.385 . S
O456 C434 1.234 . S
O457 Mn432 2.209 . S
O457 Mn433 2.215 . S
O457 C434 1.283 . S
O458 Mn432 2.094 . S
O458 C436 1.240 . S
O459 Mn433 2.117 . S
O459 C436 1.264 . S
C460 C453 1.403 . S
C460 C461 1.399 . S
C460 H466 0.929 . S
C461 C441 1.449 . S
C461 C460 1.399 . S
C461 H467 0.930 . S
H462 C442 0.931 . S
H463 C443 0.930 . S
H464 C451 0.931 . S
H465 C452 0.929 . S
H466 C460 0.929 . S
H467 C461 0.930 . S
Mn468 O473 2.095 1_655 S
Mn468 O483 2.162 . S
Mn468 O484 2.297 . S
Mn468 O492 2.385 . S
Mn468 O493 2.209 . S
Mn468 O494 2.094 . S
Mn469 O474 2.121 1_655 S
Mn469 N476 2.257 . S
Mn469 N485 2.282 . S
Mn469 O493 2.215 . S
Mn469 O495 2.117 . S
C470 O492 1.234 . S
C470 O493 1.283 . S
C471 O483 1.281 . S
C471 O484 1.236 . S
C472 O494 1.240 . S
C472 O495 1.264 . S
O473 Mn468 2.095 1_455 S
O473 C482 1.250 . S
O474 Mn469 2.121 1_455 S
O474 C482 1.258 . S
C475 N476 1.326 1_455 S
C475 C479 1.460 . S
C475 H481 0.929 . S
N476 Mn469 2.257 . S
N476 C475 1.326 1_655 S
N476 C480 1.362 . S
C477 C478 1.258 1_655 S
C477 C480 1.431 . S
C477 C497 1.449 . S
C478 C477 1.258 1_455 S
C478 C479 1.477 . S
C478 H498 0.931 . S
C479 C475 1.460 . S
C479 C478 1.477 . S
C479 H499 0.930 . S
C480 N476 1.362 . S
C480 C477 1.431 . S
C480 C490 1.476 . S
H481 C475 0.929 . S
C482 O473 1.250 . S
C482 O474 1.258 . S
O483 Mn468 2.162 . S
O483 C471 1.281 . S
O484 Mn468 2.297 . S
O484 C471 1.236 . S
N485 Mn469 2.282 . S
N485 C486 1.328 . S
N485 C490 1.318 . S
C486 N485 1.328 . S
C486 C487 1.457 . S
C486 H491 0.929 . S
C487 C486 1.457 . S
C487 C488 1.291 . S
C487 H500 0.931 . S
C488 C487 1.291 . S
C488 C489 1.373 . S
C488 H501 0.929 . S
C489 C488 1.373 . S
C489 C490 1.396 . S
C489 C496 1.403 . S
C490 C480 1.476 . S
C490 N485 1.318 . S
C490 C489 1.396 . S
H491 C486 0.929 . S
O492 Mn468 2.385 . S
O492 C470 1.234 . S
O493 Mn468 2.209 . S
O493 Mn469 2.215 . S
O493 C470 1.283 . S
O494 Mn468 2.094 . S
O494 C472 1.240 . S
O495 Mn469 2.117 . S
O495 C472 1.264 . S
C496 C489 1.403 . S
C496 C497 1.399 . S
C496 H502 0.929 . S
C497 C477 1.449 . S
C497 C496 1.399 . S
C497 H503 0.930 . S
H498 C478 0.931 . S
H499 C479 0.930 . S
H500 C487 0.931 . S
H501 C488 0.929 . S
H502 C496 0.929 . S
H503 C497 0.930 . S
Mn504 O509 2.095 . S
Mn504 O519 2.162 . S
Mn504 O520 2.297 . S
Mn504 O528 2.385 . S
Mn504 O529 2.209 . S
Mn504 O530 2.094 . S
Mn505 O510 2.121 . S
Mn505 N512 2.257 . S
Mn505 N521 2.282 . S
Mn505 O529 2.215 . S
Mn505 O531 2.117 . S
C506 O528 1.234 . S
C506 O529 1.283 . S
C507 O519 1.281 . S
C507 O520 1.236 . S
C508 O530 1.240 . S
C508 O531 1.264 . S
O509 Mn504 2.095 . S
O509 C518 1.250 . S
O510 Mn505 2.121 . S
O510 C518 1.258 . S
C511 N512 1.326 . S
C511 C515 1.460 . S
C511 H517 0.929 . S
N512 Mn505 2.257 . S
N512 C511 1.326 . S
N512 C516 1.362 . S
C513 C514 1.258 . S
C513 C516 1.431 . S
C513 C533 1.449 . S
C514 C513 1.258 . S
C514 C515 1.477 . S
C514 H534 0.931 . S
C515 C511 1.460 . S
C515 C514 1.477 . S
C515 H535 0.930 . S
C516 N512 1.362 . S
C516 C513 1.431 . S
C516 C526 1.476 . S
H517 C511 0.929 . S
C518 O509 1.250 . S
C518 O510 1.258 . S
O519 Mn504 2.162 . S
O519 C507 1.281 . S
O520 Mn504 2.297 . S
O520 C507 1.236 . S
N521 Mn505 2.282 . S
N521 C522 1.328 . S
N521 C526 1.318 . S
C522 N521 1.328 . S
C522 C523 1.457 . S
C522 H527 0.929 . S
C523 C522 1.457 . S
C523 C524 1.291 . S
C523 H536 0.931 . S
C524 C523 1.291 . S
C524 C525 1.373 . S
C524 H537 0.929 . S
C525 C524 1.373 . S
C525 C526 1.396 . S
C525 C532 1.403 . S
C526 C516 1.476 . S
C526 N521 1.318 . S
C526 C525 1.396 . S
H527 C522 0.929 . S
O528 Mn504 2.385 . S
O528 C506 1.234 . S
O529 Mn504 2.209 . S
O529 Mn505 2.215 . S
O529 C506 1.283 . S
O530 Mn504 2.094 . S
O530 C508 1.240 . S
O531 Mn505 2.117 . S
O531 C508 1.264 . S
C532 C525 1.403 . S
C532 C533 1.399 . S
C532 H538 0.929 . S
C533 C513 1.449 . S
C533 C532 1.399 . S
C533 H539 0.930 . S
H534 C514 0.931 . S
H535 C515 0.930 . S
H536 C523 0.931 . S
H537 C524 0.929 . S
H538 C532 0.929 . S
H539 C533 0.930 . S
Mn540 O545 2.095 . S
Mn540 O555 2.162 . S
Mn540 O556 2.297 . S
Mn540 O564 2.385 . S
Mn540 O565 2.209 . S
Mn540 O566 2.094 . S
Mn541 O546 2.121 . S
Mn541 N548 2.257 . S
Mn541 N557 2.282 . S
Mn541 O565 2.215 . S
Mn541 O567 2.117 . S
C542 O564 1.234 . S
C542 O565 1.283 . S
C543 O555 1.281 . S
C543 O556 1.236 . S
C544 O566 1.240 . S
C544 O567 1.264 . S
O545 Mn540 2.095 . S
O545 C554 1.250 . S
O546 Mn541 2.121 . S
O546 C554 1.258 . S
C547 N548 1.326 . S
C547 C551 1.460 . S
C547 H553 0.929 . S
N548 Mn541 2.257 . S
N548 C547 1.326 . S
N548 C552 1.362 . S
C549 C550 1.258 . S
C549 C552 1.431 . S
C549 C569 1.449 . S
C550 C549 1.258 . S
C550 C551 1.477 . S
C550 H570 0.931 . S
C551 C547 1.460 . S
C551 C550 1.477 . S
C551 H571 0.930 . S
C552 N548 1.362 . S
C552 C549 1.431 . S
C552 C562 1.476 . S
H553 C547 0.929 . S
C554 O545 1.250 . S
C554 O546 1.258 . S
O555 Mn540 2.162 . S
O555 C543 1.281 . S
O556 Mn540 2.297 . S
O556 C543 1.236 . S
N557 Mn541 2.282 . S
N557 C558 1.328 . S
N557 C562 1.318 . S
C558 N557 1.328 . S
C558 C559 1.457 . S
C558 H563 0.929 . S
C559 C558 1.457 . S
C559 C560 1.291 . S
C559 H572 0.931 . S
C560 C559 1.291 . S
C560 C561 1.373 . S
C560 H573 0.929 . S
C561 C560 1.373 . S
C561 C562 1.396 . S
C561 C568 1.403 . S
C562 C552 1.476 . S
C562 N557 1.318 . S
C562 C561 1.396 . S
H563 C558 0.929 . S
O564 Mn540 2.385 . S
O564 C542 1.234 . S
O565 Mn540 2.209 . S
O565 Mn541 2.215 . S
O565 C542 1.283 . S
O566 Mn540 2.094 . S
O566 C544 1.240 . S
O567 Mn541 2.117 . S
O567 C544 1.264 . S
C568 C561 1.403 . S
C568 C569 1.399 . S
C568 H574 0.929 . S
C569 C549 1.449 . S
C569 C568 1.399 . S
C569 H575 0.930 . S
H570 C550 0.931 . S
H571 C551 0.930 . S
H572 C559 0.931 . S
H573 C560 0.929 . S
H574 C568 0.929 . S
H575 C569 0.930 . S
Mn576 O581 2.095 1_545 S
Mn576 O591 2.162 . S
Mn576 O592 2.296 . S
Mn576 O600 2.385 . S
Mn576 O601 2.209 . S
Mn576 O602 2.094 . S
Mn577 O582 2.121 1_545 S
Mn577 N584 2.257 . S
Mn577 N593 2.282 . S
Mn577 O601 2.215 . S
Mn577 O603 2.117 . S
C578 O600 1.234 . S
C578 O601 1.283 . S
C579 O591 1.281 . S
C579 O592 1.232 . S
C580 O602 1.240 . S
C580 O603 1.264 . S
O581 Mn576 2.095 1_565 S
O581 C590 1.250 . S
O582 Mn577 2.121 1_565 S
O582 C590 1.258 . S
C583 N584 1.326 1_565 S
C583 C587 1.460 . S
C583 H589 0.929 . S
N584 Mn577 2.257 . S
N584 C583 1.326 1_545 S
N584 C588 1.362 . S
C585 C586 1.258 1_545 S
C585 C588 1.431 . S
C585 C605 1.449 . S
C586 C585 1.258 1_565 S
C586 C587 1.477 . S
C586 H606 0.931 . S
C587 C583 1.460 . S
C587 C586 1.477 . S
C587 H607 0.930 . S
C588 N584 1.362 . S
C588 C585 1.431 . S
C588 C598 1.476 . S
H589 C583 0.929 . S
C590 O581 1.250 . S
C590 O582 1.258 . S
O591 Mn576 2.162 . S
O591 C579 1.281 . S
O592 Mn576 2.296 . S
O592 C579 1.232 . S
N593 Mn577 2.282 . S
N593 C594 1.328 . S
N593 C598 1.318 . S
C594 N593 1.328 . S
C594 C595 1.457 . S
C594 H599 0.929 . S
C595 C594 1.457 . S
C595 C596 1.291 . S
C595 H608 0.931 . S
C596 C595 1.291 . S
C596 C597 1.373 . S
C596 H609 0.929 . S
C597 C596 1.373 . S
C597 C598 1.396 . S
C597 C604 1.403 . S
C598 C588 1.476 . S
C598 N593 1.318 . S
C598 C597 1.396 . S
H599 C594 0.929 . S
O600 Mn576 2.385 . S
O600 C578 1.234 . S
O601 Mn576 2.209 . S
O601 Mn577 2.215 . S
O601 C578 1.283 . S
O602 Mn576 2.094 . S
O602 C580 1.240 . S
O603 Mn577 2.117 . S
O603 C580 1.264 . S
C604 C597 1.403 . S
C604 C605 1.399 . S
C604 H610 0.929 . S
C605 C585 1.449 . S
C605 C604 1.399 . S
C605 H611 0.930 . S
H606 C586 0.931 . S
H607 C587 0.930 . S
H608 C595 0.931 . S
H609 C596 0.929 . S
H610 C604 0.929 . S
H611 C605 0.930 . S
Mn612 O617 2.095 . S
Mn612 O627 2.162 1_655 S
Mn612 O628 2.297 1_655 S
Mn612 O636 2.385 . S
Mn612 O637 2.209 . S
Mn612 O638 2.094 . S
Mn613 O618 2.121 . S
Mn613 N620 2.257 . S
Mn613 N629 2.282 . S
Mn613 O637 2.215 . S
Mn613 O639 2.117 . S
C614 O636 1.234 . S
C614 O637 1.283 . S
C615 O627 1.281 . S
C615 O628 1.236 . S
C616 O638 1.240 . S
C616 O639 1.264 . S
O617 Mn612 2.095 . S
O617 C626 1.250 . S
O618 Mn613 2.121 . S
O618 C626 1.258 . S
C619 N620 1.326 . S
C619 C623 1.460 . S
C619 H625 0.929 . S
N620 Mn613 2.257 . S
N620 C619 1.326 . S
N620 C624 1.362 . S
C621 C622 1.258 . S
C621 C624 1.431 . S
C621 C641 1.449 . S
C622 C621 1.258 . S
C622 C623 1.477 . S
C622 H642 0.931 . S
C623 C619 1.460 . S
C623 C622 1.477 . S
C623 H643 0.930 . S
C624 N620 1.362 . S
C624 C621 1.431 . S
C624 C634 1.476 . S
H625 C619 0.929 . S
C626 O617 1.250 . S
C626 O618 1.258 . S
O627 Mn612 2.162 1_455 S
O627 C615 1.281 . S
O628 Mn612 2.297 1_455 S
O628 C615 1.236 . S
N629 Mn613 2.282 . S
N629 C630 1.328 . S
N629 C634 1.318 . S
C630 N629 1.328 . S
C630 C631 1.457 . S
C630 H635 0.929 . S
C631 C630 1.457 . S
C631 C632 1.291 . S
C631 H644 0.931 . S
C632 C631 1.291 . S
C632 C633 1.373 . S
C632 H645 0.929 . S
C633 C632 1.373 . S
C633 C634 1.396 . S
C633 C640 1.403 . S
C634 C624 1.476 . S
C634 N629 1.318 . S
C634 C633 1.396 . S
H635 C630 0.929 . S
O636 Mn612 2.385 . S
O636 C614 1.234 . S
O637 Mn612 2.209 . S
O637 Mn613 2.215 . S
O637 C614 1.283 . S
O638 Mn612 2.094 . S
O638 C616 1.240 . S
O639 Mn613 2.117 . S
O639 C616 1.264 . S
C640 C633 1.403 . S
C640 C641 1.399 . S
C640 H646 0.929 . S
C641 C621 1.449 . S
C641 C640 1.399 . S
C641 H647 0.930 . S
H642 C622 0.931 . S
H643 C623 0.930 . S
H644 C631 0.931 . S
H645 C632 0.929 . S
H646 C640 0.929 . S
H647 C641 0.930 . S
C648 C649 1.384 . S
C648 C650 1.384 . S
C648 H676 0.931 . S
C649 C648 1.384 . S
C649 C652 1.382 . S
C650 C648 1.384 . S
C650 C651 1.381 . S
C650 H677 0.930 . S
C651 C650 1.381 . S
C651 C653 1.381 . S
C651 C654 1.487 . S
C652 C649 1.382 . S
C652 C653 1.387 . S
C652 H678 0.930 . S
C653 C651 1.381 . S
C653 C652 1.387 . S
C653 H679 0.931 . S
C654 C651 1.487 . S
C654 C661 1.399 . S
C654 N692 1.343 . S
C655 C656 1.384 . S
C655 C657 1.384 . S
C655 H680 0.931 . S
C656 C655 1.384 . S
C656 C659 1.382 . S
C657 C655 1.384 . S
C657 C658 1.381 . S
C657 H681 0.930 . S
C658 C657 1.381 . S
C658 C660 1.381 . S
C658 C661 1.487 . S
C659 C656 1.382 . S
C659 C660 1.387 . S
C659 H682 0.930 . S
C660 C658 1.381 . S
C660 C659 1.387 . S
C660 H683 0.931 . S
C661 C654 1.399 . S
C661 C658 1.487 . S
C661 N693 1.343 . S
C662 C663 1.384 . S
C662 C664 1.384 . S
C662 H684 0.931 . S
C663 C662 1.384 . S
C663 C666 1.382 . S
C664 C662 1.384 . S
C664 C665 1.381 . S
C664 H685 0.930 . S
C665 C664 1.381 . S
C665 C667 1.381 . S
C665 C668 1.487 . S
C666 C663 1.382 . S
C666 C667 1.387 . S
C666 H686 0.930 . S
C667 C665 1.381 . S
C667 C666 1.387 . S
C667 H687 0.931 . S
C668 C665 1.487 . S
C668 C675 1.399 . S
C668 N693 1.343 . S
C669 C670 1.384 . S
C669 C671 1.384 . S
C669 H688 0.931 . S
C670 C669 1.384 . S
C670 C673 1.382 . S
C671 C669 1.384 . S
C671 C672 1.381 . S
C671 H689 0.930 . S
C672 C671 1.381 . S
C672 C674 1.381 . S
C672 C675 1.487 . S
C673 C670 1.382 . S
C673 C674 1.387 . S
C673 H690 0.930 . S
C674 C672 1.381 . S
C674 C673 1.387 . S
C674 H691 0.931 . S
C675 C668 1.399 . S
C675 C672 1.487 . S
C675 N692 1.343 . S
H676 C648 0.931 . S
H677 C650 0.930 . S
H678 C652 0.930 . S
H679 C653 0.931 . S
H680 C655 0.931 . S
H681 C657 0.930 . S
H682 C659 0.930 . S
H683 C660 0.931 . S
H684 C662 0.931 . S
H685 C664 0.930 . S
H686 C666 0.930 . S
H687 C667 0.931 . S
H688 C669 0.931 . S
H689 C671 0.930 . S
H690 C673 0.930 . S
H691 C674 0.931 . S
N692 C654 1.343 . S
N692 C675 1.343 . S
N693 C661 1.343 . S
N693 C668 1.343 . S
C694 C695 1.384 . S
C694 C696 1.384 . S
C694 H722 0.931 . S
C695 C694 1.384 . S
C695 C698 1.382 . S
C696 C694 1.384 . S
C696 C697 1.381 . S
C696 H723 0.930 . S
C697 C696 1.381 . S
C697 C699 1.381 . S
C697 C700 1.487 . S
C698 C695 1.382 . S
C698 C699 1.387 . S
C698 H724 0.930 . S
C699 C697 1.381 . S
C699 C698 1.387 . S
C699 H725 0.931 . S
C700 C697 1.487 . S
C700 C707 1.399 . S
C700 N738 1.343 . S
C701 C702 1.384 . S
C701 C703 1.384 . S
C701 H726 0.931 . S
C702 C701 1.384 . S
C702 C705 1.382 . S
C703 C701 1.384 . S
C703 C704 1.381 . S
C703 H727 0.930 . S
C704 C703 1.381 . S
C704 C706 1.381 . S
C704 C707 1.487 . S
C705 C702 1.382 . S
C705 C706 1.387 . S
C705 H728 0.930 . S
C706 C704 1.381 . S
C706 C705 1.387 . S
C706 H729 0.931 . S
C707 C700 1.399 . S
C707 C704 1.487 . S
C707 N739 1.343 . S
C708 C709 1.384 . S
C708 C710 1.384 . S
C708 H730 0.931 . S
C709 C708 1.384 . S
C709 C712 1.382 . S
C710 C708 1.384 . S
C710 C711 1.381 . S
C710 H731 0.930 . S
C711 C710 1.381 . S
C711 C713 1.381 . S
C711 C714 1.487 . S
C712 C709 1.382 . S
C712 C713 1.387 . S
C712 H732 0.930 . S
C713 C711 1.381 . S
C713 C712 1.387 . S
C713 H733 0.931 . S
C714 C711 1.487 . S
C714 C721 1.399 . S
C714 N739 1.343 . S
C715 C716 1.384 . S
C715 C717 1.384 . S
C715 H734 0.931 . S
C716 C715 1.384 . S
C716 C719 1.382 . S
C717 C715 1.384 . S
C717 C718 1.381 . S
C717 H735 0.930 . S
C718 C717 1.381 . S
C718 C720 1.381 . S
C718 C721 1.487 . S
C719 C716 1.382 . S
C719 C720 1.387 . S
C719 H736 0.930 . S
C720 C718 1.381 . S
C720 C719 1.387 . S
C720 H737 0.931 . S
C721 C714 1.399 . S
C721 C718 1.487 . S
C721 N738 1.343 . S
H722 C694 0.931 . S
H723 C696 0.930 . S
H724 C698 0.930 . S
H725 C699 0.931 . S
H726 C701 0.931 . S
H727 C703 0.930 . S
H728 C705 0.930 . S
H729 C706 0.931 . S
H730 C708 0.931 . S
H731 C710 0.930 . S
H732 C712 0.930 . S
H733 C713 0.931 . S
H734 C715 0.931 . S
H735 C717 0.930 . S
H736 C719 0.930 . S
H737 C720 0.931 . S
N738 C700 1.343 . S
N738 C721 1.343 . S
N739 C707 1.343 . S
N739 C714 1.343 . S
C740 C741 1.384 . S
C740 C742 1.384 . S
C740 H768 0.931 . S
C741 C740 1.384 . S
C741 C744 1.382 . S
C742 C740 1.384 . S
C742 C743 1.381 . S
C742 H769 0.930 . S
C743 C742 1.381 . S
C743 C745 1.381 . S
C743 C746 1.487 . S
C744 C741 1.382 . S
C744 C745 1.387 . S
C744 H770 0.930 . S
C745 C743 1.381 . S
C745 C744 1.387 . S
C745 H771 0.931 . S
C746 C743 1.487 . S
C746 C753 1.399 . S
C746 N784 1.343 . S
C747 C748 1.384 . S
C747 C749 1.384 . S
C747 H772 0.931 . S
C748 C747 1.384 . S
C748 C751 1.382 . S
C749 C747 1.384 . S
C749 C750 1.381 . S
C749 H773 0.930 . S
C750 C749 1.381 . S
C750 C752 1.381 . S
C750 C753 1.487 . S
C751 C748 1.382 . S
C751 C752 1.387 . S
C751 H774 0.930 . S
C752 C750 1.381 . S
C752 C751 1.387 . S
C752 H775 0.931 . S
C753 C746 1.399 . S
C753 C750 1.487 . S
C753 N785 1.343 . S
C754 C755 1.384 . S
C754 C756 1.384 . S
C754 H776 0.931 . S
C755 C754 1.384 . S
C755 C758 1.382 . S
C756 C754 1.384 . S
C756 C757 1.381 . S
C756 H777 0.930 . S
C757 C756 1.381 . S
C757 C759 1.381 . S
C757 C760 1.487 . S
C758 C755 1.382 . S
C758 C759 1.387 . S
C758 H778 0.930 . S
C759 C757 1.381 . S
C759 C758 1.387 . S
C759 H779 0.931 . S
C760 C757 1.487 . S
C760 C767 1.399 . S
C760 N785 1.343 . S
C761 C762 1.384 . S
C761 C763 1.384 . S
C761 H780 0.931 . S
C762 C761 1.384 . S
C762 C765 1.382 . S
C763 C761 1.384 . S
C763 C764 1.381 . S
C763 H781 0.930 . S
C764 C763 1.381 . S
C764 C766 1.381 . S
C764 C767 1.487 . S
C765 C762 1.382 . S
C765 C766 1.387 . S
C765 H782 0.930 . S
C766 C764 1.381 . S
C766 C765 1.387 . S
C766 H783 0.931 . S
C767 C760 1.399 . S
C767 C764 1.487 . S
C767 N784 1.343 . S
H768 C740 0.931 . S
H769 C742 0.930 . S
H770 C744 0.930 . S
H771 C745 0.931 . S
H772 C747 0.931 . S
H773 C749 0.930 . S
H774 C751 0.930 . S
H775 C752 0.931 . S
H776 C754 0.931 . S
H777 C756 0.930 . S
H778 C758 0.930 . S
H779 C759 0.931 . S
H780 C761 0.931 . S
H781 C763 0.930 . S
H782 C765 0.930 . S
H783 C766 0.931 . S
N784 C746 1.343 . S
N784 C767 1.343 . S
N785 C753 1.343 . S
N785 C760 1.343 . S
C786 C787 1.384 . S
C786 C788 1.384 . S
C786 H814 0.931 . S
C787 C786 1.384 . S
C787 C790 1.382 . S
C788 C786 1.384 . S
C788 C789 1.381 . S
C788 H815 0.930 . S
C789 C788 1.381 . S
C789 C791 1.381 . S
C789 C792 1.487 . S
C790 C787 1.382 . S
C790 C791 1.387 . S
C790 H816 0.930 . S
C791 C789 1.381 . S
C791 C790 1.387 . S
C791 H817 0.931 . S
C792 C789 1.487 . S
C792 C799 1.399 . S
C792 N830 1.343 . S
C793 C794 1.384 . S
C793 C795 1.384 . S
C793 H818 0.931 . S
C794 C793 1.384 . S
C794 C797 1.382 . S
C795 C793 1.384 . S
C795 C796 1.381 . S
C795 H819 0.930 . S
C796 C795 1.381 . S
C796 C798 1.381 . S
C796 C799 1.487 . S
C797 C794 1.382 . S
C797 C798 1.387 . S
C797 H820 0.930 . S
C798 C796 1.381 . S
C798 C797 1.387 . S
C798 H821 0.931 . S
C799 C792 1.399 . S
C799 C796 1.487 . S
C799 N831 1.343 . S
C800 C801 1.384 . S
C800 C802 1.384 . S
C800 H822 0.931 . S
C801 C800 1.384 . S
C801 C804 1.382 . S
C802 C800 1.384 . S
C802 C803 1.381 . S
C802 H823 0.930 . S
C803 C802 1.381 . S
C803 C805 1.381 . S
C803 C806 1.487 . S
C804 C801 1.382 . S
C804 C805 1.387 . S
C804 H824 0.930 . S
C805 C803 1.381 . S
C805 C804 1.387 . S
C805 H825 0.931 . S
C806 C803 1.487 . S
C806 C813 1.399 . S
C806 N831 1.343 . S
C807 C808 1.384 . S
C807 C809 1.384 . S
C807 H826 0.931 . S
C808 C807 1.384 . S
C808 C811 1.382 . S
C809 C807 1.384 . S
C809 C810 1.381 . S
C809 H827 0.930 . S
C810 C809 1.381 . S
C810 C812 1.381 . S
C810 C813 1.487 . S
C811 C808 1.382 . S
C811 C812 1.387 . S
C811 H828 0.930 . S
C812 C810 1.381 . S
C812 C811 1.387 . S
C812 H829 0.931 . S
C813 C806 1.399 . S
C813 C810 1.487 . S
C813 N830 1.343 . S
H814 C786 0.931 . S
H815 C788 0.930 . S
H816 C790 0.930 . S
H817 C791 0.931 . S
H818 C793 0.931 . S
H819 C795 0.930 . S
H820 C797 0.930 . S
H821 C798 0.931 . S
H822 C800 0.931 . S
H823 C802 0.930 . S
H824 C804 0.930 . S
H825 C805 0.931 . S
H826 C807 0.931 . S
H827 C809 0.930 . S
H828 C811 0.930 . S
H829 C812 0.931 . S
N830 C792 1.343 . S
N830 C813 1.343 . S
N831 C799 1.343 . S
N831 C806 1.343 . S
C832 C833 1.384 . S
C832 C834 1.384 . S
C832 H860 0.931 . S
C833 C832 1.384 . S
C833 C836 1.382 . S
C834 C832 1.384 . S
C834 C835 1.381 . S
C834 H861 0.930 . S
C835 C834 1.381 . S
C835 C837 1.381 . S
C835 C838 1.487 . S
C836 C833 1.382 . S
C836 C837 1.387 . S
C836 H862 0.930 . S
C837 C835 1.381 . S
C837 C836 1.387 . S
C837 H863 0.931 . S
C838 C835 1.487 . S
C838 C845 1.399 . S
C838 N876 1.343 . S
C839 C840 1.384 . S
C839 C841 1.384 . S
C839 H864 0.931 . S
C840 C839 1.384 . S
C840 C843 1.382 . S
C841 C839 1.384 . S
C841 C842 1.381 . S
C841 H865 0.930 . S
C842 C841 1.381 . S
C842 C844 1.381 . S
C842 C845 1.487 . S
C843 C840 1.382 . S
C843 C844 1.387 . S
C843 H866 0.930 . S
C844 C842 1.381 . S
C844 C843 1.387 . S
C844 H867 0.931 . S
C845 C838 1.399 . S
C845 C842 1.487 . S
C845 N877 1.343 . S
C846 C847 1.384 . S
C846 C848 1.384 . S
C846 H868 0.931 . S
C847 C846 1.384 . S
C847 C850 1.382 . S
C848 C846 1.384 . S
C848 C849 1.381 . S
C848 H869 0.930 . S
C849 C848 1.381 . S
C849 C851 1.381 . S
C849 C852 1.487 . S
C850 C847 1.382 . S
C850 C851 1.387 . S
C850 H870 0.930 . S
C851 C849 1.381 . S
C851 C850 1.387 . S
C851 H871 0.931 . S
C852 C849 1.487 . S
C852 C859 1.399 . S
C852 N877 1.343 . S
C853 C854 1.384 . S
C853 C855 1.384 . S
C853 H872 0.931 . S
C854 C853 1.384 . S
C854 C857 1.382 . S
C855 C853 1.384 . S
C855 C856 1.381 . S
C855 H873 0.930 . S
C856 C855 1.381 . S
C856 C858 1.381 . S
C856 C859 1.487 . S
C857 C854 1.382 . S
C857 C858 1.387 . S
C857 H874 0.930 . S
C858 C856 1.381 . S
C858 C857 1.387 . S
C858 H875 0.931 . S
C859 C852 1.399 . S
C859 C856 1.487 . S
C859 N876 1.343 . S
H860 C832 0.931 . S
H861 C834 0.930 . S
H862 C836 0.930 . S
H863 C837 0.931 . S
H864 C839 0.931 . S
H865 C841 0.930 . S
H866 C843 0.930 . S
H867 C844 0.931 . S
H868 C846 0.931 . S
H869 C848 0.930 . S
H870 C850 0.930 . S
H871 C851 0.931 . S
H872 C853 0.931 . S
H873 C855 0.930 . S
H874 C857 0.930 . S
H875 C858 0.931 . S
N876 C838 1.343 . S
N876 C859 1.343 . S
N877 C845 1.343 . S
N877 C852 1.343 . S
C878 C879 1.384 . S
C878 C880 1.384 . S
C878 H906 0.931 . S
C879 C878 1.384 . S
C879 C882 1.382 . S
C880 C878 1.384 . S
C880 C881 1.381 . S
C880 H907 0.930 . S
C881 C880 1.381 . S
C881 C883 1.381 . S
C881 C884 1.487 . S
C882 C879 1.382 . S
C882 C883 1.387 . S
C882 H908 0.930 . S
C883 C881 1.381 . S
C883 C882 1.387 . S
C883 H909 0.931 . S
C884 C881 1.487 . S
C884 C891 1.399 . S
C884 N922 1.343 . S
C885 C886 1.384 . S
C885 C887 1.384 . S
C885 H910 0.931 . S
C886 C885 1.384 . S
C886 C889 1.382 . S
C887 C885 1.384 . S
C887 C888 1.381 . S
C887 H911 0.930 . S
C888 C887 1.381 . S
C888 C890 1.381 . S
C888 C891 1.487 . S
C889 C886 1.382 . S
C889 C890 1.387 . S
C889 H912 0.930 . S
C890 C888 1.381 . S
C890 C889 1.387 . S
C890 H913 0.931 . S
C891 C884 1.399 . S
C891 C888 1.487 . S
C891 N923 1.343 . S
C892 C893 1.384 . S
C892 C894 1.384 . S
C892 H914 0.931 . S
C893 C892 1.384 . S
C893 C896 1.382 . S
C894 C892 1.384 . S
C894 C895 1.381 . S
C894 H915 0.930 . S
C895 C894 1.381 . S
C895 C897 1.381 . S
C895 C898 1.487 . S
C896 C893 1.382 . S
C896 C897 1.387 . S
C896 H916 0.930 . S
C897 C895 1.381 . S
C897 C896 1.387 . S
C897 H917 0.931 . S
C898 C895 1.487 . S
C898 C905 1.399 . S
C898 N923 1.343 . S
C899 C900 1.384 . S
C899 C901 1.384 . S
C899 H918 0.931 . S
C900 C899 1.384 . S
C900 C903 1.382 . S
C901 C899 1.384 . S
C901 C902 1.381 . S
C901 H919 0.930 . S
C902 C901 1.381 . S
C902 C904 1.381 . S
C902 C905 1.487 . S
C903 C900 1.382 . S
C903 C904 1.387 . S
C903 H920 0.930 . S
C904 C902 1.381 . S
C904 C903 1.387 . S
C904 H921 0.931 . S
C905 C898 1.399 . S
C905 C902 1.487 . S
C905 N922 1.343 . S
H906 C878 0.931 . S
H907 C880 0.930 . S
H908 C882 0.930 . S
H909 C883 0.931 . S
H910 C885 0.931 . S
H911 C887 0.930 . S
H912 C889 0.930 . S
H913 C890 0.931 . S
H914 C892 0.931 . S
H915 C894 0.930 . S
H916 C896 0.930 . S
H917 C897 0.931 . S
H918 C899 0.931 . S
H919 C901 0.930 . S
H920 C903 0.930 . S
H921 C904 0.931 . S
N922 C884 1.343 . S
N922 C905 1.343 . S
N923 C891 1.343 . S
N923 C898 1.343 . S
C924 C925 1.384 . S
C924 C926 1.384 . S
C924 H952 0.931 . S
C925 C924 1.384 . S
C925 C928 1.382 . S
C926 C924 1.384 . S
C926 C927 1.381 . S
C926 H953 0.930 . S
C927 C926 1.381 . S
C927 C929 1.381 . S
C927 C930 1.487 . S
C928 C925 1.382 . S
C928 C929 1.387 . S
C928 H954 0.930 . S
C929 C927 1.381 . S
C929 C928 1.387 . S
C929 H955 0.931 . S
C930 C927 1.487 . S
C930 C937 1.399 . S
C930 N968 1.343 . S
C931 C932 1.384 . S
C931 C933 1.384 . S
C931 H956 0.931 . S
C932 C931 1.384 . S
C932 C935 1.382 . S
C933 C931 1.384 . S
C933 C934 1.381 . S
C933 H957 0.930 . S
C934 C933 1.381 . S
C934 C936 1.381 . S
C934 C937 1.487 . S
C935 C932 1.382 . S
C935 C936 1.387 . S
C935 H958 0.930 . S
C936 C934 1.381 . S
C936 C935 1.387 . S
C936 H959 0.931 . S
C937 C930 1.399 . S
C937 C934 1.487 . S
C937 N969 1.343 . S
C938 C939 1.384 . S
C938 C940 1.384 . S
C938 H960 0.931 . S
C939 C938 1.384 . S
C939 C942 1.382 . S
C940 C938 1.384 . S
C940 C941 1.381 . S
C940 H961 0.930 . S
C941 C940 1.381 . S
C941 C943 1.381 . S
C941 C944 1.487 . S
C942 C939 1.382 . S
C942 C943 1.387 . S
C942 H962 0.930 . S
C943 C941 1.381 . S
C943 C942 1.387 . S
C943 H963 0.931 . S
C944 C941 1.487 . S
C944 C951 1.399 . S
C944 N969 1.343 . S
C945 C946 1.384 . S
C945 C947 1.384 . S
C945 H964 0.931 . S
C946 C945 1.384 . S
C946 C949 1.382 . S
C947 C945 1.384 . S
C947 C948 1.381 . S
C947 H965 0.930 . S
C948 C947 1.381 . S
C948 C950 1.381 . S
C948 C951 1.487 . S
C949 C946 1.382 . S
C949 C950 1.387 . S
C949 H966 0.930 . S
C950 C948 1.381 . S
C950 C949 1.387 . S
C950 H967 0.931 . S
C951 C944 1.399 . S
C951 C948 1.487 . S
C951 N968 1.343 . S
H952 C924 0.931 . S
H953 C926 0.930 . S
H954 C928 0.930 . S
H955 C929 0.931 . S
H956 C931 0.931 . S
H957 C933 0.930 . S
H958 C935 0.930 . S
H959 C936 0.931 . S
H960 C938 0.931 . S
H961 C940 0.930 . S
H962 C942 0.930 . S
H963 C943 0.931 . S
H964 C945 0.931 . S
H965 C947 0.930 . S
H966 C949 0.930 . S
H967 C950 0.931 . S
N968 C930 1.343 . S
N968 C951 1.343 . S
N969 C937 1.343 . S
N969 C944 1.343 . S
C970 C971 1.384 . S
C970 C972 1.384 . S
C970 H998 0.931 . S
C971 C970 1.384 . S
C971 C974 1.382 . S
C972 C970 1.384 . S
C972 C973 1.381 . S
C972 H999 0.930 . S
C973 C972 1.381 . S
C973 C975 1.381 . S
C973 C976 1.487 . S
C974 C971 1.382 . S
C974 C975 1.387 . S
C974 H1000 0.930 . S
C975 C973 1.381 . S
C975 C974 1.387 . S
C975 H1001 0.931 . S
C976 C973 1.487 . S
C976 C983 1.399 . S
C976 N1014 1.343 . S
C977 C978 1.384 . S
C977 C979 1.384 . S
C977 H1002 0.931 . S
C978 C977 1.384 . S
C978 C981 1.382 . S
C979 C977 1.384 . S
C979 C980 1.381 . S
C979 H1003 0.930 . S
C980 C979 1.381 . S
C980 C982 1.381 . S
C980 C983 1.487 . S
C981 C978 1.382 . S
C981 C982 1.387 . S
C981 H1004 0.930 . S
C982 C980 1.381 . S
C982 C981 1.387 . S
C982 H1005 0.931 . S
C983 C976 1.399 . S
C983 C980 1.487 . S
C983 N1015 1.343 . S
C984 C985 1.384 . S
C984 C986 1.384 . S
C984 H1006 0.931 . S
C985 C984 1.384 . S
C985 C988 1.382 . S
C986 C984 1.384 . S
C986 C987 1.381 . S
C986 H1007 0.930 . S
C987 C986 1.381 . S
C987 C989 1.381 . S
C987 C990 1.487 . S
C988 C985 1.382 . S
C988 C989 1.387 . S
C988 H1008 0.930 . S
C989 C987 1.381 . S
C989 C988 1.387 . S
C989 H1009 0.931 . S
C990 C987 1.487 . S
C990 C997 1.399 . S
C990 N1015 1.343 . S
C991 C992 1.384 . S
C991 C993 1.384 . S
C991 H1010 0.931 . S
C992 C991 1.384 . S
C992 C995 1.382 . S
C993 C991 1.384 . S
C993 C994 1.381 . S
C993 H1011 0.930 . S
C994 C993 1.381 . S
C994 C996 1.381 . S
C994 C997 1.487 . S
C995 C992 1.382 . S
C995 C996 1.387 . S
C995 H1012 0.930 . S
C996 C994 1.381 . S
C996 C995 1.387 . S
C996 H1013 0.931 . S
C997 C990 1.399 . S
C997 C994 1.487 . S
C997 N1014 1.343 . S
H998 C970 0.931 . S
H999 C972 0.930 . S
H1000 C974 0.930 . S
H1001 C975 0.931 . S
H1002 C977 0.931 . S
H1003 C979 0.930 . S
H1004 C981 0.930 . S
H1005 C982 0.931 . S
H1006 C984 0.931 . S
H1007 C986 0.930 . S
H1008 C988 0.930 . S
H1009 C989 0.931 . S
H1010 C991 0.931 . S
H1011 C993 0.930 . S
H1012 C995 0.930 . S
H1013 C996 0.931 . S
N1014 C976 1.343 . S
N1014 C997 1.343 . S
N1015 C983 1.343 . S
N1015 C990 1.343 . S
C1016 C1017 1.384 . S
C1016 C1018 1.384 . S
C1016 H1044 0.931 . S
C1017 C1016 1.384 . S
C1017 C1020 1.382 . S
C1018 C1016 1.384 . S
C1018 C1019 1.381 . S
C1018 H1045 0.930 . S
C1019 C1018 1.381 . S
C1019 C1021 1.381 . S
C1019 C1022 1.487 . S
C1020 C1017 1.382 . S
C1020 C1021 1.387 . S
C1020 H1046 0.930 . S
C1021 C1019 1.381 . S
C1021 C1020 1.387 . S
C1021 H1047 0.931 . S
C1022 C1019 1.487 . S
C1022 C1029 1.399 . S
C1022 N1060 1.343 . S
C1023 C1024 1.384 . S
C1023 C1025 1.384 . S
C1023 H1048 0.931 . S
C1024 C1023 1.384 . S
C1024 C1027 1.382 . S
C1025 C1023 1.384 . S
C1025 C1026 1.381 . S
C1025 H1049 0.930 . S
C1026 C1025 1.381 . S
C1026 C1028 1.381 . S
C1026 C1029 1.487 . S
C1027 C1024 1.382 . S
C1027 C1028 1.387 . S
C1027 H1050 0.930 . S
C1028 C1026 1.381 . S
C1028 C1027 1.387 . S
C1028 H1051 0.931 . S
C1029 C1022 1.399 . S
C1029 C1026 1.487 . S
C1029 N1061 1.343 . S
C1030 C1031 1.384 . S
C1030 C1032 1.384 . S
C1030 H1052 0.931 . S
C1031 C1030 1.384 . S
C1031 C1034 1.382 . S
C1032 C1030 1.384 . S
C1032 C1033 1.381 . S
C1032 H1053 0.930 . S
C1033 C1032 1.381 . S
C1033 C1035 1.381 . S
C1033 C1036 1.487 . S
C1034 C1031 1.382 . S
C1034 C1035 1.387 . S
C1034 H1054 0.930 . S
C1035 C1033 1.381 . S
C1035 C1034 1.387 . S
C1035 H1055 0.931 . S
C1036 C1033 1.487 . S
C1036 C1043 1.399 . S
C1036 N1061 1.343 . S
C1037 C1038 1.384 . S
C1037 C1039 1.384 . S
C1037 H1056 0.931 . S
C1038 C1037 1.384 . S
C1038 C1041 1.382 . S
C1039 C1037 1.384 . S
C1039 C1040 1.381 . S
C1039 H1057 0.930 . S
C1040 C1039 1.381 . S
C1040 C1042 1.381 . S
C1040 C1043 1.487 . S
C1041 C1038 1.382 . S
C1041 C1042 1.387 . S
C1041 H1058 0.930 . S
C1042 C1040 1.381 . S
C1042 C1041 1.387 . S
C1042 H1059 0.931 . S
C1043 C1036 1.399 . S
C1043 C1040 1.487 . S
C1043 N1060 1.343 . S
H1044 C1016 0.931 . S
H1045 C1018 0.930 . S
H1046 C1020 0.930 . S
H1047 C1021 0.931 . S
H1048 C1023 0.931 . S
H1049 C1025 0.930 . S
H1050 C1027 0.930 . S
H1051 C1028 0.931 . S
H1052 C1030 0.931 . S
H1053 C1032 0.930 . S
H1054 C1034 0.930 . S
H1055 C1035 0.931 . S
H1056 C1037 0.931 . S
H1057 C1039 0.930 . S
H1058 C1041 0.930 . S
H1059 C1042 0.931 . S
N1060 C1022 1.343 . S
N1060 C1043 1.343 . S
N1061 C1029 1.343 . S
N1061 C1036 1.343 . S
C1062 C1063 1.384 . S
C1062 C1064 1.384 . S
C1062 H1090 0.931 . S
C1063 C1062 1.384 . S
C1063 C1066 1.382 1_655 S
C1064 C1062 1.384 . S
C1064 C1065 1.386 1_655 S
C1064 H1091 0.930 . S
C1065 C1064 1.386 1_455 S
C1065 C1067 1.379 . S
C1065 C1068 1.475 . S
C1066 C1063 1.382 1_455 S
C1066 C1067 1.387 . S
C1066 H1092 0.930 . S
C1067 C1065 1.379 . S
C1067 C1066 1.387 . S
C1067 H1093 0.931 . S
C1068 C1065 1.475 . S
C1068 C1075 1.398 1_455 S
C1068 N1106 1.355 . S
C1069 C1070 1.384 . S
C1069 C1071 1.384 . S
C1069 H1094 0.931 . S
C1070 C1069 1.384 . S
C1070 C1073 1.382 1_455 S
C1071 C1069 1.384 . S
C1071 C1072 1.383 . S
C1071 H1095 0.930 . S
C1072 C1071 1.383 . S
C1072 C1074 1.376 1_455 S
C1072 C1075 1.494 1_455 S
C1073 C1070 1.382 1_655 S
C1073 C1074 1.387 . S
C1073 H1096 0.930 . S
C1074 C1072 1.376 1_655 S
C1074 C1073 1.387 . S
C1074 H1097 0.931 . S
C1075 C1068 1.398 1_655 S
C1075 C1072 1.494 1_655 S
C1075 N1107 1.339 . S
C1076 C1077 1.384 . S
C1076 C1078 1.384 . S
C1076 H1098 0.931 . S
C1077 C1076 1.384 . S
C1077 C1080 1.382 1_455 S
C1078 C1076 1.384 . S
C1078 C1079 1.386 . S
C1078 H1099 0.930 . S
C1079 C1078 1.386 . S
C1079 C1081 1.379 1_455 S
C1079 C1082 1.480 1_455 S
C1080 C1077 1.382 1_655 S
C1080 C1081 1.387 . S
C1080 H1100 0.930 . S
C1081 C1079 1.379 1_655 S
C1081 C1080 1.387 . S
C1081 H1101 0.931 . S
C1082 C1079 1.480 1_655 S
C1082 C1089 1.398 1_655 S
C1082 N1107 1.348 . S
C1083 C1084 1.384 . S
C1083 C1085 1.384 . S
C1083 H1102 0.931 . S
C1084 C1083 1.384 . S
C1084 C1087 1.382 1_655 S
C1085 C1083 1.384 . S
C1085 C1086 1.380 . S
C1085 H1103 0.930 . S
C1086 C1085 1.380 . S
C1086 C1088 1.383 1_655 S
C1086 C1089 1.494 1_655 S
C1087 C1084 1.382 1_455 S
C1087 C1088 1.387 . S
C1087 H1104 0.930 . S
C1088 C1086 1.383 1_455 S
C1088 C1087 1.387 . S
C1088 H1105 0.931 . S
C1089 C1082 1.398 1_455 S
C1089 C1086 1.494 1_455 S
C1089 N1106 1.334 . S
H1090 C1062 0.931 . S
H1091 C1064 0.930 . S
H1092 C1066 0.930 . S
H1093 C1067 0.931 . S
H1094 C1069 0.931 . S
H1095 C1071 0.930 . S
H1096 C1073 0.930 . S
H1097 C1074 0.931 . S
H1098 C1076 0.931 . S
H1099 C1078 0.930 . S
H1100 C1080 0.930 . S
H1101 C1081 0.931 . S
H1102 C1083 0.931 . S
H1103 C1085 0.930 . S
H1104 C1087 0.930 . S
H1105 C1088 0.931 . S
N1106 C1068 1.355 . S
N1106 C1089 1.334 . S
N1107 C1075 1.339 . S
N1107 C1082 1.348 . S
C1108 C1109 1.384 . S
C1108 C1110 1.384 . S
C1108 H1136 0.931 . S
C1109 C1108 1.384 . S
C1109 C1112 1.382 . S
C1110 C1108 1.384 . S
C1110 C1111 1.381 . S
C1110 H1137 0.930 . S
C1111 C1110 1.381 . S
C1111 C1113 1.381 . S
C1111 C1114 1.487 . S
C1112 C1109 1.382 . S
C1112 C1113 1.387 . S
C1112 H1138 0.930 . S
C1113 C1111 1.381 . S
C1113 C1112 1.387 . S
C1113 H1139 0.931 . S
C1114 C1111 1.487 . S
C1114 C1121 1.399 . S
C1114 N1152 1.343 . S
C1115 C1116 1.384 . S
C1115 C1117 1.384 . S
C1115 H1140 0.931 . S
C1116 C1115 1.384 . S
C1116 C1119 1.382 . S
C1117 C1115 1.384 . S
C1117 C1118 1.381 . S
C1117 H1141 0.930 . S
C1118 C1117 1.381 . S
C1118 C1120 1.381 . S
C1118 C1121 1.487 . S
C1119 C1116 1.382 . S
C1119 C1120 1.387 . S
C1119 H1142 0.930 . S
C1120 C1118 1.381 . S
C1120 C1119 1.387 . S
C1120 H1143 0.931 . S
C1121 C1114 1.399 . S
C1121 C1118 1.487 . S
C1121 N1153 1.343 . S
C1122 C1123 1.384 . S
C1122 C1124 1.384 . S
C1122 H1144 0.931 . S
C1123 C1122 1.384 . S
C1123 C1126 1.382 . S
C1124 C1122 1.384 . S
C1124 C1125 1.381 . S
C1124 H1145 0.930 . S
C1125 C1124 1.381 . S
C1125 C1127 1.381 . S
C1125 C1128 1.487 . S
C1126 C1123 1.382 . S
C1126 C1127 1.387 . S
C1126 H1146 0.930 . S
C1127 C1125 1.381 . S
C1127 C1126 1.387 . S
C1127 H1147 0.931 . S
C1128 C1125 1.487 . S
C1128 C1135 1.399 . S
C1128 N1153 1.343 . S
C1129 C1130 1.384 . S
C1129 C1131 1.384 . S
C1129 H1148 0.931 . S
C1130 C1129 1.384 . S
C1130 C1133 1.382 . S
C1131 C1129 1.384 . S
C1131 C1132 1.381 . S
C1131 H1149 0.930 . S
C1132 C1131 1.381 . S
C1132 C1134 1.381 . S
C1132 C1135 1.487 . S
C1133 C1130 1.382 . S
C1133 C1134 1.387 . S
C1133 H1150 0.930 . S
C1134 C1132 1.381 . S
C1134 C1133 1.387 . S
C1134 H1151 0.931 . S
C1135 C1128 1.399 . S
C1135 C1132 1.487 . S
C1135 N1152 1.343 . S
H1136 C1108 0.931 . S
H1137 C1110 0.930 . S
H1138 C1112 0.930 . S
H1139 C1113 0.931 . S
H1140 C1115 0.931 . S
H1141 C1117 0.930 . S
H1142 C1119 0.930 . S
H1143 C1120 0.931 . S
H1144 C1122 0.931 . S
H1145 C1124 0.930 . S
H1146 C1126 0.930 . S
H1147 C1127 0.931 . S
H1148 C1129 0.931 . S
H1149 C1131 0.930 . S
H1150 C1133 0.930 . S
H1151 C1134 0.931 . S
N1152 C1114 1.343 . S
N1152 C1135 1.343 . S
N1153 C1121 1.343 . S
N1153 C1128 1.343 . S
C1154 C1155 1.384 1_545 S
C1154 C1156 1.384 . S
C1154 H1182 0.931 . S
C1155 C1154 1.384 1_565 S
C1155 C1158 1.382 . S
C1156 C1154 1.384 . S
C1156 C1157 1.381 1_545 S
C1156 H1183 0.930 . S
C1157 C1156 1.381 1_565 S
C1157 C1159 1.381 . S
C1157 C1160 1.487 . S
C1158 C1155 1.382 . S
C1158 C1159 1.387 . S
C1158 H1184 0.930 . S
C1159 C1157 1.381 . S
C1159 C1158 1.387 . S
C1159 H1185 0.931 . S
C1160 C1157 1.487 . S
C1160 C1167 1.399 1_565 S
C1160 N1198 1.343 . S
C1161 C1162 1.384 1_565 S
C1161 C1163 1.384 . S
C1161 H1186 0.931 . S
C1162 C1161 1.384 1_545 S
C1162 C1165 1.382 . S
C1163 C1161 1.384 . S
C1163 C1164 1.381 1_565 S
C1163 H1187 0.930 . S
C1164 C1163 1.381 1_545 S
C1164 C1166 1.381 . S
C1164 C1167 1.487 . S
C1165 C1162 1.382 . S
C1165 C1166 1.387 . S
C1165 H1188 0.930 . S
C1166 C1164 1.381 . S
C1166 C1165 1.387 . S
C1166 H1189 0.931 . S
C1167 C1160 1.399 1_545 S
C1167 C1164 1.487 . S
C1167 N1199 1.343 . S
C1168 C1169 1.384 1_565 S
C1168 C1170 1.384 . S
C1168 H1190 0.931 . S
C1169 C1168 1.384 1_545 S
C1169 C1172 1.382 . S
C1170 C1168 1.384 . S
C1170 C1171 1.381 1_565 S
C1170 H1191 0.930 . S
C1171 C1170 1.381 1_545 S
C1171 C1173 1.381 . S
C1171 C1174 1.487 . S
C1172 C1169 1.382 . S
C1172 C1173 1.387 . S
C1172 H1192 0.930 . S
C1173 C1171 1.381 . S
C1173 C1172 1.387 . S
C1173 H1193 0.931 . S
C1174 C1171 1.487 . S
C1174 C1181 1.399 1_545 S
C1174 N1199 1.343 . S
C1175 C1176 1.384 1_545 S
C1175 C1177 1.384 . S
C1175 H1194 0.931 . S
C1176 C1175 1.384 1_565 S
C1176 C1179 1.382 . S
C1177 C1175 1.384 . S
C1177 C1178 1.381 1_545 S
C1177 H1195 0.930 . S
C1178 C1177 1.381 1_565 S
C1178 C1180 1.381 . S
C1178 C1181 1.487 . S
C1179 C1176 1.382 . S
C1179 C1180 1.387 . S
C1179 H1196 0.930 . S
C1180 C1178 1.381 . S
C1180 C1179 1.387 . S
C1180 H1197 0.931 . S
C1181 C1174 1.399 1_565 S
C1181 C1178 1.487 . S
C1181 N1198 1.343 . S
H1182 C1154 0.931 . S
H1183 C1156 0.930 . S
H1184 C1158 0.930 . S
H1185 C1159 0.931 . S
H1186 C1161 0.931 . S
H1187 C1163 0.930 . S
H1188 C1165 0.930 . S
H1189 C1166 0.931 . S
H1190 C1168 0.931 . S
H1191 C1170 0.930 . S
H1192 C1172 0.930 . S
H1193 C1173 0.931 . S
H1194 C1175 0.931 . S
H1195 C1177 0.930 . S
H1196 C1179 0.930 . S
H1197 C1180 0.931 . S
N1198 C1160 1.343 . S
N1198 C1181 1.343 . S
N1199 C1167 1.343 . S
N1199 C1174 1.343 . S
C1200 C1201 1.384 . S
C1200 C1202 1.384 . S
C1200 H1228 0.931 . S
C1201 C1200 1.384 . S
C1201 C1204 1.382 1_545 S
C1202 C1200 1.384 . S
C1202 C1203 1.385 . S
C1202 H1229 0.930 . S
C1203 C1202 1.385 . S
C1203 C1205 1.372 1_545 S
C1203 C1206 1.496 1_545 S
C1204 C1201 1.382 1_565 S
C1204 C1205 1.387 . S
C1204 H1230 0.930 . S
C1205 C1203 1.372 1_565 S
C1205 C1204 1.387 . S
C1205 H1231 0.931 . S
C1206 C1203 1.496 1_565 S
C1206 C1213 1.399 1_565 S
C1206 N1244 1.364 . S
C1207 C1208 1.384 . S
C1207 C1209 1.384 . S
C1207 H1232 0.931 . S
C1208 C1207 1.384 . S
C1208 C1211 1.382 1_565 S
C1209 C1207 1.384 . S
C1209 C1210 1.389 . S
C1209 H1233 0.930 . S
C1210 C1209 1.389 . S
C1210 C1212 1.377 1_565 S
C1210 C1213 1.476 1_565 S
C1211 C1208 1.382 1_545 S
C1211 C1212 1.387 . S
C1211 H1234 0.930 . S
C1212 C1210 1.377 1_545 S
C1212 C1211 1.387 . S
C1212 H1235 0.931 . S
C1213 C1206 1.399 1_545 S
C1213 C1210 1.476 1_545 S
C1213 N1245 1.351 . S
C1214 C1215 1.384 . S
C1214 C1216 1.384 . S
C1214 H1236 0.931 . S
C1215 C1214 1.384 . S
C1215 C1218 1.382 1_565 S
C1216 C1214 1.384 . S
C1216 C1217 1.382 . S
C1216 H1237 0.930 . S
C1217 C1216 1.382 . S
C1217 C1219 1.379 1_565 S
C1217 C1220 1.496 1_565 S
C1218 C1215 1.382 1_545 S
C1218 C1219 1.387 . S
C1218 H1238 0.930 . S
C1219 C1217 1.379 1_545 S
C1219 C1218 1.387 . S
C1219 H1239 0.931 . S
C1220 C1217 1.496 1_545 S
C1220 C1227 1.399 1_545 S
C1220 N1245 1.335 . S
C1221 C1222 1.384 . S
C1221 C1223 1.384 . S
C1221 H1240 0.931 . S
C1222 C1221 1.384 . S
C1222 C1225 1.382 1_545 S
C1223 C1221 1.384 . S
C1223 C1224 1.402 . S
C1223 H1241 0.930 . S
C1224 C1223 1.402 . S
C1224 C1226 1.371 1_545 S
C1224 C1227 1.476 1_545 S
C1225 C1222 1.382 1_565 S
C1225 C1226 1.387 . S
C1225 H1242 0.930 . S
C1226 C1224 1.371 1_565 S
C1226 C1225 1.387 . S
C1226 H1243 0.931 . S
C1227 C1220 1.399 1_565 S
C1227 C1224 1.476 1_565 S
C1227 N1244 1.319 . S
H1228 C1200 0.931 . S
H1229 C1202 0.930 . S
H1230 C1204 0.930 . S
H1231 C1205 0.931 . S
H1232 C1207 0.931 . S
H1233 C1209 0.930 . S
H1234 C1211 0.930 . S
H1235 C1212 0.931 . S
H1236 C1214 0.931 . S
H1237 C1216 0.930 . S
H1238 C1218 0.930 . S
H1239 C1219 0.931 . S
H1240 C1221 0.931 . S
H1241 C1223 0.930 . S
H1242 C1225 0.930 . S
H1243 C1226 0.931 . S
N1244 C1206 1.364 . S
N1244 C1227 1.319 . S
N1245 C1213 1.351 . S
N1245 C1220 1.335 . S
C1246 C1247 1.384 . S
C1246 C1248 1.384 . S
C1246 H1274 0.931 . S
C1247 C1246 1.384 . S
C1247 C1250 1.382 1_655 S
C1248 C1246 1.384 . S
C1248 C1249 1.416 . S
C1248 H1275 0.930 . S
C1249 C1248 1.416 . S
C1249 C1251 1.363 1_655 S
C1249 C1252 1.473 1_655 S
C1250 C1247 1.382 1_455 S
C1250 C1251 1.387 . S
C1250 H1276 0.930 . S
C1251 C1249 1.363 1_455 S
C1251 C1250 1.387 . S
C1251 H1277 0.931 . S
C1252 C1249 1.473 1_455 S
C1252 C1259 1.399 1_455 S
C1252 N1290 1.324 . S
C1253 C1254 1.384 . S
C1253 C1255 1.384 . S
C1253 H1278 0.931 . S
C1254 C1253 1.384 . S
C1254 C1257 1.382 1_455 S
C1255 C1253 1.384 . S
C1255 C1256 1.387 . S
C1255 H1279 0.930 . S
C1256 C1255 1.387 . S
C1256 C1258 1.367 1_455 S
C1256 C1259 1.501 1_455 S
C1257 C1254 1.382 1_655 S
C1257 C1258 1.387 . S
C1257 H1280 0.930 . S
C1258 C1256 1.367 1_655 S
C1258 C1257 1.387 . S
C1258 H1281 0.931 . S
C1259 C1252 1.399 1_655 S
C1259 C1256 1.501 1_655 S
C1259 N1291 1.361 . S
C1260 C1261 1.384 . S
C1260 C1262 1.384 . S
C1260 H1282 0.931 . S
C1261 C1260 1.384 . S
C1261 C1264 1.382 1_455 S
C1262 C1260 1.384 . S
C1262 C1263 1.403 . S
C1262 H1283 0.930 . S
C1263 C1262 1.403 . S
C1263 C1265 1.370 1_455 S
C1263 C1266 1.473 1_455 S
C1264 C1261 1.382 1_655 S
C1264 C1265 1.387 . S
C1264 H1284 0.930 . S
C1265 C1263 1.370 1_655 S
C1265 C1264 1.387 . S
C1265 H1285 0.931 . S
C1266 C1263 1.473 1_655 S
C1266 C1273 1.399 1_655 S
C1266 N1291 1.324 . S
C1267 C1268 1.384 . S
C1267 C1269 1.384 . S
C1267 H1286 0.931 . S
C1268 C1267 1.384 . S
C1268 C1271 1.382 1_655 S
C1269 C1267 1.384 . S
C1269 C1270 1.390 . S
C1269 H1287 0.930 . S
C1270 C1269 1.390 . S
C1270 C1272 1.359 1_655 S
C1270 C1273 1.501 1_655 S
C1271 C1268 1.382 1_455 S
C1271 C1272 1.387 . S
C1271 H1288 0.930 . S
C1272 C1270 1.359 1_455 S
C1272 C1271 1.387 . S
C1272 H1289 0.931 . S
C1273 C1266 1.399 1_455 S
C1273 C1270 1.501 1_455 S
C1273 N1290 1.361 . S
H1274 C1246 0.931 . S
H1275 C1248 0.930 . S
H1276 C1250 0.930 . S
H1277 C1251 0.931 . S
H1278 C1253 0.931 . S
H1279 C1255 0.930 . S
H1280 C1257 0.930 . S
H1281 C1258 0.931 . S
H1282 C1260 0.931 . S
H1283 C1262 0.930 . S
H1284 C1264 0.930 . S
H1285 C1265 0.931 . S
H1286 C1267 0.931 . S
H1287 C1269 0.930 . S
H1288 C1271 0.930 . S
H1289 C1272 0.931 . S
N1290 C1252 1.324 . S
N1290 C1273 1.361 . S
N1291 C1259 1.361 . S
N1291 C1266 1.324 . S
C1292 C1293 1.384 . S
C1292 C1294 1.384 . S
C1292 H1320 0.931 . S
C1293 C1292 1.384 . S
C1293 C1296 1.382 . S
C1294 C1292 1.384 . S
C1294 C1295 1.381 . S
C1294 H1321 0.930 . S
C1295 C1294 1.381 . S
C1295 C1297 1.381 . S
C1295 C1298 1.487 . S
C1296 C1293 1.382 . S
C1296 C1297 1.387 . S
C1296 H1322 0.930 . S
C1297 C1295 1.381 . S
C1297 C1296 1.387 . S
C1297 H1323 0.931 . S
C1298 C1295 1.487 . S
C1298 C1305 1.399 . S
C1298 N1336 1.343 . S
C1299 C1300 1.384 . S
C1299 C1301 1.384 . S
C1299 H1324 0.931 . S
C1300 C1299 1.384 . S
C1300 C1303 1.382 . S
C1301 C1299 1.384 . S
C1301 C1302 1.381 . S
C1301 H1325 0.930 . S
C1302 C1301 1.381 . S
C1302 C1304 1.381 . S
C1302 C1305 1.487 . S
C1303 C1300 1.382 . S
C1303 C1304 1.387 . S
C1303 H1326 0.930 . S
C1304 C1302 1.381 . S
C1304 C1303 1.387 . S
C1304 H1327 0.931 . S
C1305 C1298 1.399 . S
C1305 C1302 1.487 . S
C1305 N1337 1.343 . S
C1306 C1307 1.384 . S
C1306 C1308 1.384 . S
C1306 H1328 0.931 . S
C1307 C1306 1.384 . S
C1307 C1310 1.382 . S
C1308 C1306 1.384 . S
C1308 C1309 1.381 . S
C1308 H1329 0.930 . S
C1309 C1308 1.381 . S
C1309 C1311 1.381 . S
C1309 C1312 1.487 . S
C1310 C1307 1.382 . S
C1310 C1311 1.387 . S
C1310 H1330 0.930 . S
C1311 C1309 1.381 . S
C1311 C1310 1.387 . S
C1311 H1331 0.931 . S
C1312 C1309 1.487 . S
C1312 C1319 1.399 . S
C1312 N1337 1.343 . S
C1313 C1314 1.384 . S
C1313 C1315 1.384 . S
C1313 H1332 0.931 . S
C1314 C1313 1.384 . S
C1314 C1317 1.382 . S
C1315 C1313 1.384 . S
C1315 C1316 1.381 . S
C1315 H1333 0.930 . S
C1316 C1315 1.381 . S
C1316 C1318 1.381 . S
C1316 C1319 1.487 . S
C1317 C1314 1.382 . S
C1317 C1318 1.387 . S
C1317 H1334 0.930 . S
C1318 C1316 1.381 . S
C1318 C1317 1.387 . S
C1318 H1335 0.931 . S
C1319 C1312 1.399 . S
C1319 C1316 1.487 . S
C1319 N1336 1.343 . S
H1320 C1292 0.931 . S
H1321 C1294 0.930 . S
H1322 C1296 0.930 . S
H1323 C1297 0.931 . S
H1324 C1299 0.931 . S
H1325 C1301 0.930 . S
H1326 C1303 0.930 . S
H1327 C1304 0.931 . S
H1328 C1306 0.931 . S
H1329 C1308 0.930 . S
H1330 C1310 0.930 . S
H1331 C1311 0.931 . S
H1332 C1313 0.931 . S
H1333 C1315 0.930 . S
H1334 C1317 0.930 . S
H1335 C1318 0.931 . S
N1336 C1298 1.343 . S
N1336 C1319 1.343 . S
N1337 C1305 1.343 . S
N1337 C1312 1.343 . S
C1338 C1339 1.384 . S
C1338 C1340 1.384 . S
C1338 H1366 0.931 . S
C1339 C1338 1.384 . S
C1339 C1342 1.382 . S
C1340 C1338 1.384 . S
C1340 C1341 1.381 . S
C1340 H1367 0.930 . S
C1341 C1340 1.381 . S
C1341 C1343 1.381 . S
C1341 C1344 1.487 . S
C1342 C1339 1.382 . S
C1342 C1343 1.387 . S
C1342 H1368 0.930 . S
C1343 C1341 1.381 . S
C1343 C1342 1.387 . S
C1343 H1369 0.931 . S
C1344 C1341 1.487 . S
C1344 C1351 1.399 . S
C1344 N1382 1.343 . S
C1345 C1346 1.384 . S
C1345 C1347 1.384 . S
C1345 H1370 0.931 . S
C1346 C1345 1.384 . S
C1346 C1349 1.382 . S
C1347 C1345 1.384 . S
C1347 C1348 1.381 . S
C1347 H1371 0.930 . S
C1348 C1347 1.381 . S
C1348 C1350 1.381 . S
C1348 C1351 1.487 . S
C1349 C1346 1.382 . S
C1349 C1350 1.387 . S
C1349 H1372 0.930 . S
C1350 C1348 1.381 . S
C1350 C1349 1.387 . S
C1350 H1373 0.931 . S
C1351 C1344 1.399 . S
C1351 C1348 1.487 . S
C1351 N1383 1.343 . S
C1352 C1353 1.384 . S
C1352 C1354 1.384 . S
C1352 H1374 0.931 . S
C1353 C1352 1.384 . S
C1353 C1356 1.382 . S
C1354 C1352 1.384 . S
C1354 C1355 1.381 . S
C1354 H1375 0.930 . S
C1355 C1354 1.381 . S
C1355 C1357 1.381 . S
C1355 C1358 1.487 . S
C1356 C1353 1.382 . S
C1356 C1357 1.387 . S
C1356 H1376 0.930 . S
C1357 C1355 1.381 . S
C1357 C1356 1.387 . S
C1357 H1377 0.931 . S
C1358 C1355 1.487 . S
C1358 C1365 1.399 . S
C1358 N1383 1.343 . S
C1359 C1360 1.384 . S
C1359 C1361 1.384 . S
C1359 H1378 0.931 . S
C1360 C1359 1.384 . S
C1360 C1363 1.382 . S
C1361 C1359 1.384 . S
C1361 C1362 1.381 . S
C1361 H1379 0.930 . S
C1362 C1361 1.381 . S
C1362 C1364 1.381 . S
C1362 C1365 1.487 . S
C1363 C1360 1.382 . S
C1363 C1364 1.387 . S
C1363 H1380 0.930 . S
C1364 C1362 1.381 . S
C1364 C1363 1.387 . S
C1364 H1381 0.931 . S
C1365 C1358 1.399 . S
C1365 C1362 1.487 . S
C1365 N1382 1.343 . S
H1366 C1338 0.931 . S
H1367 C1340 0.930 . S
H1368 C1342 0.930 . S
H1369 C1343 0.931 . S
H1370 C1345 0.931 . S
H1371 C1347 0.930 . S
H1372 C1349 0.930 . S
H1373 C1350 0.931 . S
H1374 C1352 0.931 . S
H1375 C1354 0.930 . S
H1376 C1356 0.930 . S
H1377 C1357 0.931 . S
H1378 C1359 0.931 . S
H1379 C1361 0.930 . S
H1380 C1363 0.930 . S
H1381 C1364 0.931 . S
N1382 C1344 1.343 . S
N1382 C1365 1.343 . S
N1383 C1351 1.343 . S
N1383 C1358 1.343 . S
C1384 C1385 1.384 . S
C1384 C1386 1.384 . S
C1384 H1412 0.931 . S
C1385 C1384 1.384 . S
C1385 C1388 1.382 . S
C1386 C1384 1.384 . S
C1386 C1387 1.381 . S
C1386 H1413 0.930 . S
C1387 C1386 1.381 . S
C1387 C1389 1.381 . S
C1387 C1390 1.487 . S
C1388 C1385 1.382 . S
C1388 C1389 1.387 . S
C1388 H1414 0.930 . S
C1389 C1387 1.381 . S
C1389 C1388 1.387 . S
C1389 H1415 0.931 . S
C1390 C1387 1.487 . S
C1390 C1397 1.399 . S
C1390 N1428 1.343 . S
C1391 C1392 1.384 . S
C1391 C1393 1.384 . S
C1391 H1416 0.931 . S
C1392 C1391 1.384 . S
C1392 C1395 1.382 . S
C1393 C1391 1.384 . S
C1393 C1394 1.381 . S
C1393 H1417 0.930 . S
C1394 C1393 1.381 . S
C1394 C1396 1.381 . S
C1394 C1397 1.487 . S
C1395 C1392 1.382 . S
C1395 C1396 1.387 . S
C1395 H1418 0.930 . S
C1396 C1394 1.381 . S
C1396 C1395 1.387 . S
C1396 H1419 0.931 . S
C1397 C1390 1.399 . S
C1397 C1394 1.487 . S
C1397 N1429 1.343 . S
C1398 C1399 1.384 . S
C1398 C1400 1.384 . S
C1398 H1420 0.931 . S
C1399 C1398 1.384 . S
C1399 C1402 1.382 . S
C1400 C1398 1.384 . S
C1400 C1401 1.381 . S
C1400 H1421 0.930 . S
C1401 C1400 1.381 . S
C1401 C1403 1.381 . S
C1401 C1404 1.487 . S
C1402 C1399 1.382 . S
C1402 C1403 1.387 . S
C1402 H1422 0.930 . S
C1403 C1401 1.381 . S
C1403 C1402 1.387 . S
C1403 H1423 0.931 . S
C1404 C1401 1.487 . S
C1404 C1411 1.399 . S
C1404 N1429 1.343 . S
C1405 C1406 1.384 . S
C1405 C1407 1.384 . S
C1405 H1424 0.931 . S
C1406 C1405 1.384 . S
C1406 C1409 1.382 . S
C1407 C1405 1.384 . S
C1407 C1408 1.381 . S
C1407 H1425 0.930 . S
C1408 C1407 1.381 . S
C1408 C1410 1.381 . S
C1408 C1411 1.487 . S
C1409 C1406 1.382 . S
C1409 C1410 1.387 . S
C1409 H1426 0.930 . S
C1410 C1408 1.381 . S
C1410 C1409 1.387 . S
C1410 H1427 0.931 . S
C1411 C1404 1.399 . S
C1411 C1408 1.487 . S
C1411 N1428 1.343 . S
H1412 C1384 0.931 . S
H1413 C1386 0.930 . S
H1414 C1388 0.930 . S
H1415 C1389 0.931 . S
H1416 C1391 0.931 . S
H1417 C1393 0.930 . S
H1418 C1395 0.930 . S
H1419 C1396 0.931 . S
H1420 C1398 0.931 . S
H1421 C1400 0.930 . S
H1422 C1402 0.930 . S
H1423 C1403 0.931 . S
H1424 C1405 0.931 . S
H1425 C1407 0.930 . S
H1426 C1409 0.930 . S
H1427 C1410 0.931 . S
N1428 C1390 1.343 . S
N1428 C1411 1.343 . S
N1429 C1397 1.343 . S
N1429 C1404 1.343 . S
C1430 C1431 1.384 . S
C1430 C1432 1.384 . S
C1430 H1458 0.931 . S
C1431 C1430 1.384 . S
C1431 C1434 1.382 . S
C1432 C1430 1.384 . S
C1432 C1433 1.381 . S
C1432 H1459 0.930 . S
C1433 C1432 1.381 . S
C1433 C1435 1.381 . S
C1433 C1436 1.487 . S
C1434 C1431 1.382 . S
C1434 C1435 1.387 . S
C1434 H1460 0.930 . S
C1435 C1433 1.381 . S
C1435 C1434 1.387 . S
C1435 H1461 0.931 . S
C1436 C1433 1.487 . S
C1436 C1443 1.399 . S
C1436 N1474 1.343 . S
C1437 C1438 1.384 . S
C1437 C1439 1.384 . S
C1437 H1462 0.931 . S
C1438 C1437 1.384 . S
C1438 C1441 1.382 . S
C1439 C1437 1.384 . S
C1439 C1440 1.381 . S
C1439 H1463 0.930 . S
C1440 C1439 1.381 . S
C1440 C1442 1.381 . S
C1440 C1443 1.487 . S
C1441 C1438 1.382 . S
C1441 C1442 1.387 . S
C1441 H1464 0.930 . S
C1442 C1440 1.381 . S
C1442 C1441 1.387 . S
C1442 H1465 0.931 . S
C1443 C1436 1.399 . S
C1443 C1440 1.487 . S
C1443 N1475 1.343 . S
C1444 C1445 1.384 . S
C1444 C1446 1.384 . S
C1444 H1466 0.931 . S
C1445 C1444 1.384 . S
C1445 C1448 1.382 . S
C1446 C1444 1.384 . S
C1446 C1447 1.381 . S
C1446 H1467 0.930 . S
C1447 C1446 1.381 . S
C1447 C1449 1.381 . S
C1447 C1450 1.487 . S
C1448 C1445 1.382 . S
C1448 C1449 1.387 . S
C1448 H1468 0.930 . S
C1449 C1447 1.381 . S
C1449 C1448 1.387 . S
C1449 H1469 0.931 . S
C1450 C1447 1.487 . S
C1450 C1457 1.399 . S
C1450 N1475 1.343 . S
C1451 C1452 1.384 . S
C1451 C1453 1.384 . S
C1451 H1470 0.931 . S
C1452 C1451 1.384 . S
C1452 C1455 1.382 . S
C1453 C1451 1.384 . S
C1453 C1454 1.381 . S
C1453 H1471 0.930 . S
C1454 C1453 1.381 . S
C1454 C1456 1.381 . S
C1454 C1457 1.487 . S
C1455 C1452 1.382 . S
C1455 C1456 1.387 . S
C1455 H1472 0.930 . S
C1456 C1454 1.381 . S
C1456 C1455 1.387 . S
C1456 H1473 0.931 . S
C1457 C1450 1.399 . S
C1457 C1454 1.487 . S
C1457 N1474 1.343 . S
H1458 C1430 0.931 . S
H1459 C1432 0.930 . S
H1460 C1434 0.930 . S
H1461 C1435 0.931 . S
H1462 C1437 0.931 . S
H1463 C1439 0.930 . S
H1464 C1441 0.930 . S
H1465 C1442 0.931 . S
H1466 C1444 0.931 . S
H1467 C1446 0.930 . S
H1468 C1448 0.930 . S
H1469 C1449 0.931 . S
H1470 C1451 0.931 . S
H1471 C1453 0.930 . S
H1472 C1455 0.930 . S
H1473 C1456 0.931 . S
N1474 C1436 1.343 . S
N1474 C1457 1.343 . S
N1475 C1443 1.343 . S
N1475 C1450 1.343 . S
C1476 C1477 1.387 1_455 S
C1476 H1480 0.950 . S
C1476 C1485 1.390 . S
C1477 C1476 1.387 1_655 S
C1477 C1479 1.387 . S
H1478 C1485 0.950 . S
C1479 C1477 1.387 . S
C1479 C1481 1.390 . S
C1479 H1483 0.950 . S
H1480 C1476 0.950 . S
C1481 C1479 1.390 . S
C1481 C1482 1.387 . S
C1481 H1484 0.950 . S
C1482 C1481 1.387 . S
C1482 C1485 1.387 1_655 S
H1483 C1479 0.950 . S
H1484 C1481 0.950 . S
C1485 C1476 1.390 . S
C1485 H1478 0.950 . S
C1485 C1482 1.387 1_455 S
C1486 C1487 1.387 . S
C1486 H1490 0.950 . S
C1486 C1495 1.390 . S
C1487 C1486 1.387 . S
C1487 C1489 1.387 . S
H1488 C1495 0.950 . S
C1489 C1487 1.387 . S
C1489 C1491 1.390 . S
C1489 H1493 0.950 . S
H1490 C1486 0.950 . S
C1491 C1489 1.390 . S
C1491 C1492 1.387 . S
C1491 H1494 0.950 . S
C1492 C1491 1.387 . S
C1492 C1495 1.387 . S
H1493 C1489 0.950 . S
H1494 C1491 0.950 . S
C1495 C1486 1.390 . S
C1495 H1488 0.950 . S
C1495 C1492 1.387 . S
C1496 C1497 1.387 1_565 S
C1496 H1500 0.950 . S
C1496 C1505 1.390 . S
C1497 C1496 1.387 1_545 S
C1497 C1499 1.387 . S
H1498 C1505 0.950 . S
C1499 C1497 1.387 . S
C1499 C1501 1.390 . S
C1499 H1503 0.950 . S
H1500 C1496 0.950 . S
C1501 C1499 1.390 . S
C1501 C1502 1.387 . S
C1501 H1504 0.950 . S
C1502 C1501 1.387 . S
C1502 C1505 1.387 1_545 S
H1503 C1499 0.950 . S
H1504 C1501 0.950 . S
C1505 C1496 1.390 . S
C1505 H1498 0.950 . S
C1505 C1502 1.387 1_565 S
C1506 C1507 1.387 . S
C1506 H1510 0.950 . S
C1506 C1515 1.390 . S
C1507 C1506 1.387 . S
C1507 C1509 1.387 1_565 S
H1508 C1515 0.950 . S
C1509 C1507 1.387 1_545 S
C1509 C1511 1.390 . S
C1509 H1513 0.950 . S
H1510 C1506 0.950 . S
C1511 C1509 1.390 . S
C1511 C1512 1.387 1_545 S
C1511 H1514 0.950 . S
C1512 C1511 1.387 1_565 S
C1512 C1515 1.387 . S
H1513 C1509 0.950 . S
H1514 C1511 0.950 . S
C1515 C1506 1.390 . S
C1515 H1508 0.950 . S
C1515 C1512 1.387 . S
C1516 C1517 1.387 1_655 S
C1516 H1520 0.950 . S
C1516 C1525 1.390 . S
C1517 C1516 1.387 1_455 S
C1517 C1519 1.387 . S
H1518 C1525 0.950 . S
C1519 C1517 1.387 . S
C1519 C1521 1.390 . S
C1519 H1523 0.950 . S
H1520 C1516 0.950 . S
C1521 C1519 1.390 . S
C1521 C1522 1.387 . S
C1521 H1524 0.950 . S
C1522 C1521 1.387 . S
C1522 C1525 1.387 1_455 S
H1523 C1519 0.950 . S
H1524 C1521 0.950 . S
C1525 C1516 1.390 . S
C1525 H1518 0.950 . S
C1525 C1522 1.387 1_655 S
C1526 C1527 1.387 . S
C1526 H1530 0.950 . S
C1526 C1535 1.390 . S
C1527 C1526 1.387 . S
C1527 C1529 1.387 . S
H1528 C1535 0.950 . S
C1529 C1527 1.387 . S
C1529 C1531 1.390 . S
C1529 H1533 0.950 . S
H1530 C1526 0.950 . S
C1531 C1529 1.390 . S
C1531 C1532 1.387 . S
C1531 H1534 0.950 . S
C1532 C1531 1.387 . S
C1532 C1535 1.387 . S
H1533 C1529 0.950 . S
H1534 C1531 0.950 . S
C1535 C1526 1.390 . S
C1535 H1528 0.950 . S
C1535 C1532 1.387 . S
C1536 C1537 1.387 1_655 S
C1536 H1540 0.950 . S
C1536 C1545 1.390 . S
C1537 C1536 1.387 1_455 S
C1537 C1539 1.387 . S
H1538 C1545 0.950 . S
C1539 C1537 1.387 . S
C1539 C1541 1.390 . S
C1539 H1543 0.950 . S
H1540 C1536 0.950 . S
C1541 C1539 1.390 . S
C1541 C1542 1.387 . S
C1541 H1544 0.950 . S
C1542 C1541 1.387 . S
C1542 C1545 1.387 1_455 S
H1543 C1539 0.950 . S
H1544 C1541 0.950 . S
C1545 C1536 1.390 . S
C1545 H1538 0.950 . S
C1545 C1542 1.387 1_655 S
C1546 C1547 1.387 . S
C1546 H1550 0.950 . S
C1546 C1555 1.390 . S
C1547 C1546 1.387 . S
C1547 C1549 1.387 . S
H1548 C1555 0.950 . S
C1549 C1547 1.387 . S
C1549 C1551 1.390 . S
C1549 H1553 0.950 . S
H1550 C1546 0.950 . S
C1551 C1549 1.390 . S
C1551 C1552 1.387 . S
C1551 H1554 0.950 . S
C1552 C1551 1.387 . S
C1552 C1555 1.387 . S
H1553 C1549 0.950 . S
H1554 C1551 0.950 . S
C1555 C1546 1.390 . S
C1555 H1548 0.950 . S
C1555 C1552 1.387 . S
C1556 C1557 1.387 . S
C1556 H1560 0.950 . S
C1556 C1565 1.390 . S
C1557 C1556 1.387 . S
C1557 C1559 1.387 1_565 S
H1558 C1565 0.950 . S
C1559 C1557 1.387 1_545 S
C1559 C1561 1.390 . S
C1559 H1563 0.950 . S
H1560 C1556 0.950 . S
C1561 C1559 1.390 . S
C1561 C1562 1.387 1_545 S
C1561 H1564 0.950 . S
C1562 C1561 1.387 1_565 S
C1562 C1565 1.387 . S
H1563 C1559 0.950 . S
H1564 C1561 0.950 . S
C1565 C1556 1.390 . S
C1565 H1558 0.950 . S
C1565 C1562 1.387 . S
C1566 C1567 1.387 1_565 S
C1566 H1570 0.950 . S
C1566 C1575 1.390 . S
C1567 C1566 1.387 1_545 S
C1567 C1569 1.387 . S
H1568 C1575 0.950 . S
C1569 C1567 1.387 . S
C1569 C1571 1.390 . S
C1569 H1573 0.950 . S
H1570 C1566 0.950 . S
C1571 C1569 1.390 . S
C1571 C1572 1.387 . S
C1571 H1574 0.950 . S
C1572 C1571 1.387 . S
C1572 C1575 1.387 1_545 S
H1573 C1569 0.950 . S
H1574 C1571 0.950 . S
C1575 C1566 1.390 . S
C1575 H1568 0.950 . S
C1575 C1572 1.387 1_565 S
C1576 C1577 1.387 . S
C1576 H1580 0.950 . S
C1576 C1585 1.390 . S
C1577 C1576 1.387 . S
C1577 C1579 1.387 1_655 S
H1578 C1585 0.950 . S
C1579 C1577 1.387 1_455 S
C1579 C1581 1.390 . S
C1579 H1583 0.950 . S
H1580 C1576 0.950 . S
C1581 C1579 1.390 . S
C1581 C1582 1.387 1_455 S
C1581 H1584 0.950 . S
C1582 C1581 1.387 1_655 S
C1582 C1585 1.387 . S
H1583 C1579 0.950 . S
H1584 C1581 0.950 . S
C1585 C1576 1.390 . S
C1585 H1578 0.950 . S
C1585 C1582 1.387 . S
C1586 C1587 1.387 . S
C1586 H1590 0.950 . S
C1586 C1595 1.390 . S
C1587 C1586 1.387 . S
C1587 C1589 1.387 . S
H1588 C1595 0.950 . S
C1589 C1587 1.387 . S
C1589 C1591 1.390 . S
C1589 H1593 0.950 . S
H1590 C1586 0.950 . S
C1591 C1589 1.390 . S
C1591 C1592 1.387 . S
C1591 H1594 0.950 . S
C1592 C1591 1.387 . S
C1592 C1595 1.387 . S
H1593 C1589 0.950 . S
H1594 C1591 0.950 . S
C1595 C1586 1.390 . S
C1595 H1588 0.950 . S
C1595 C1592 1.387 . S
C1596 C1597 1.387 . S
C1596 H1600 0.950 . S
C1596 C1605 1.390 . S
C1597 C1596 1.387 . S
C1597 C1599 1.387 . S
H1598 C1605 0.950 . S
C1599 C1597 1.387 . S
C1599 C1601 1.390 . S
C1599 H1603 0.950 . S
H1600 C1596 0.950 . S
C1601 C1599 1.390 . S
C1601 C1602 1.387 . S
C1601 H1604 0.950 . S
C1602 C1601 1.387 . S
C1602 C1605 1.387 . S
H1603 C1599 0.950 . S
H1604 C1601 0.950 . S
C1605 C1596 1.390 . S
C1605 H1598 0.950 . S
C1605 C1602 1.387 . S
C1606 C1607 1.387 . S
C1606 H1610 0.950 . S
C1606 C1615 1.390 . S
C1607 C1606 1.387 . S
C1607 C1609 1.387 . S
H1608 C1615 0.950 . S
C1609 C1607 1.387 . S
C1609 C1611 1.390 . S
C1609 H1613 0.950 . S
H1610 C1606 0.950 . S
C1611 C1609 1.390 . S
C1611 C1612 1.387 . S
C1611 H1614 0.950 . S
C1612 C1611 1.387 . S
C1612 C1615 1.387 . S
H1613 C1609 0.950 . S
H1614 C1611 0.950 . S
C1615 C1606 1.390 . S
C1615 H1608 0.950 . S
C1615 C1612 1.387 . S
C1616 C1617 1.387 . S
C1616 H1620 0.950 . S
C1616 C1625 1.390 . S
C1617 C1616 1.387 . S
C1617 C1619 1.387 . S
H1618 C1625 0.950 . S
C1619 C1617 1.387 . S
C1619 C1621 1.390 . S
C1619 H1623 0.950 . S
H1620 C1616 0.950 . S
C1621 C1619 1.390 . S
C1621 C1622 1.387 . S
C1621 H1624 0.950 . S
C1622 C1621 1.387 . S
C1622 C1625 1.387 . S
H1623 C1619 0.950 . S
H1624 C1621 0.950 . S
C1625 C1616 1.390 . S
C1625 H1618 0.950 . S
C1625 C1622 1.387 . S
C1626 C1627 1.387 . S
C1626 H1630 0.950 . S
C1626 C1635 1.390 . S
C1627 C1626 1.387 . S
C1627 C1629 1.387 . S
H1628 C1635 0.950 . S
C1629 C1627 1.387 . S
C1629 C1631 1.390 . S
C1629 H1633 0.950 . S
H1630 C1626 0.950 . S
C1631 C1629 1.390 . S
C1631 C1632 1.387 . S
C1631 H1634 0.950 . S
C1632 C1631 1.387 . S
C1632 C1635 1.387 . S
H1633 C1629 0.950 . S
H1634 C1631 0.950 . S
C1635 C1626 1.390 . S
C1635 H1628 0.950 . S
C1635 C1632 1.387 . S
C1636 C1637 1.387 . S
C1636 H1640 0.950 . S
C1636 C1645 1.390 . S
C1637 C1636 1.387 . S
C1637 C1639 1.387 . S
H1638 C1645 0.950 . S
C1639 C1637 1.387 . S
C1639 C1641 1.390 . S
C1639 H1643 0.950 . S
H1640 C1636 0.950 . S
C1641 C1639 1.390 . S
C1641 C1642 1.387 . S
C1641 H1644 0.950 . S
C1642 C1641 1.387 . S
C1642 C1645 1.387 . S
H1643 C1639 0.950 . S
H1644 C1641 0.950 . S
C1645 C1636 1.390 . S
C1645 H1638 0.950 . S
C1645 C1642 1.387 . S
C1646 C1647 1.387 . S
C1646 H1650 0.950 . S
C1646 C1655 1.390 . S
C1647 C1646 1.387 . S
C1647 C1649 1.387 . S
H1648 C1655 0.950 . S
C1649 C1647 1.387 . S
C1649 C1651 1.390 . S
C1649 H1653 0.950 . S
H1650 C1646 0.950 . S
C1651 C1649 1.390 . S
C1651 C1652 1.387 . S
C1651 H1654 0.950 . S
C1652 C1651 1.387 . S
C1652 C1655 1.387 . S
H1653 C1649 0.950 . S
H1654 C1651 0.950 . S
C1655 C1646 1.390 . S
C1655 H1648 0.950 . S
C1655 C1652 1.387 . S
C1656 C1657 1.387 . S
C1656 H1660 0.950 . S
C1656 C1665 1.390 . S
C1657 C1656 1.387 . S
C1657 C1659 1.387 . S
H1658 C1665 0.950 . S
C1659 C1657 1.387 . S
C1659 C1661 1.390 . S
C1659 H1663 0.950 . S
H1660 C1656 0.950 . S
C1661 C1659 1.390 . S
C1661 C1662 1.387 . S
C1661 H1664 0.950 . S
C1662 C1661 1.387 . S
C1662 C1665 1.387 . S
H1663 C1659 0.950 . S
H1664 C1661 0.950 . S
C1665 C1656 1.390 . S
C1665 H1658 0.950 . S
C1665 C1662 1.387 . S
C1666 C1667 1.387 . S
C1666 H1670 0.950 . S
C1666 C1675 1.390 . S
C1667 C1666 1.387 . S
C1667 C1669 1.387 . S
H1668 C1675 0.950 . S
C1669 C1667 1.387 . S
C1669 C1671 1.390 . S
C1669 H1673 0.950 . S
H1670 C1666 0.950 . S
C1671 C1669 1.390 . S
C1671 C1672 1.387 . S
C1671 H1674 0.950 . S
C1672 C1671 1.387 . S
C1672 C1675 1.387 . S
H1673 C1669 0.950 . S
H1674 C1671 0.950 . S
C1675 C1666 1.390 . S
C1675 H1668 0.950 . S
C1675 C1672 1.387 . S
C1676 C1677 1.387 . S
C1676 H1680 0.950 . S
C1676 C1685 1.390 . S
C1677 C1676 1.387 . S
C1677 C1679 1.387 . S
H1678 C1685 0.950 . S
C1679 C1677 1.387 . S
C1679 C1681 1.390 . S
C1679 H1683 0.950 . S
H1680 C1676 0.950 . S
C1681 C1679 1.390 . S
C1681 C1682 1.387 . S
C1681 H1684 0.950 . S
C1682 C1681 1.387 . S
C1682 C1685 1.387 . S
H1683 C1679 0.950 . S
H1684 C1681 0.950 . S
C1685 C1676 1.390 . S
C1685 H1678 0.950 . S
C1685 C1682 1.387 . S
C1686 C1687 1.387 . S
C1686 H1690 0.950 . S
C1686 C1695 1.390 . S
C1687 C1686 1.387 . S
C1687 C1689 1.387 . S
H1688 C1695 0.950 . S
C1689 C1687 1.387 . S
C1689 C1691 1.390 . S
C1689 H1693 0.950 . S
H1690 C1686 0.950 . S
C1691 C1689 1.390 . S
C1691 C1692 1.387 . S
C1691 H1694 0.950 . S
C1692 C1691 1.387 . S
C1692 C1695 1.387 . S
H1693 C1689 0.950 . S
H1694 C1691 0.950 . S
C1695 C1686 1.390 . S
C1695 H1688 0.950 . S
C1695 C1692 1.387 . S
C1696 C1697 1.387 . S
C1696 H1700 0.950 . S
C1696 C1705 1.390 . S
C1697 C1696 1.387 . S
C1697 C1699 1.387 . S
H1698 C1705 0.950 . S
C1699 C1697 1.387 . S
C1699 C1701 1.390 . S
C1699 H1703 0.950 . S
H1700 C1696 0.950 . S
C1701 C1699 1.390 . S
C1701 C1702 1.387 . S
C1701 H1704 0.950 . S
C1702 C1701 1.387 . S
C1702 C1705 1.387 . S
H1703 C1699 0.950 . S
H1704 C1701 0.950 . S
C1705 C1696 1.390 . S
C1705 H1698 0.950 . S
C1705 C1702 1.387 . S
C1706 C1707 1.387 . S
C1706 H1710 0.950 . S
C1706 C1715 1.390 . S
C1707 C1706 1.387 . S
C1707 C1709 1.387 . S
H1708 C1715 0.950 . S
C1709 C1707 1.387 . S
C1709 C1711 1.390 . S
C1709 H1713 0.950 . S
H1710 C1706 0.950 . S
C1711 C1709 1.390 . S
C1711 C1712 1.387 . S
C1711 H1714 0.950 . S
C1712 C1711 1.387 . S
C1712 C1715 1.387 . S
H1713 C1709 0.950 . S
H1714 C1711 0.950 . S
C1715 C1706 1.390 . S
C1715 H1708 0.950 . S
C1715 C1712 1.387 . S
C1716 C1717 1.387 . S
C1716 H1720 0.950 . S
C1716 C1725 1.390 . S
C1717 C1716 1.387 . S
C1717 C1719 1.387 . S
H1718 C1725 0.950 . S
C1719 C1717 1.387 . S
C1719 C1721 1.390 . S
C1719 H1723 0.950 . S
H1720 C1716 0.950 . S
C1721 C1719 1.390 . S
C1721 C1722 1.387 . S
C1721 H1724 0.950 . S
C1722 C1721 1.387 . S
C1722 C1725 1.387 . S
H1723 C1719 0.950 . S
H1724 C1721 0.950 . S
C1725 C1716 1.390 . S
C1725 H1718 0.950 . S
C1725 C1722 1.387 . S
C1726 C1727 1.387 . S
C1726 H1730 0.950 . S
C1726 C1735 1.390 . S
C1727 C1726 1.387 . S
C1727 C1729 1.387 . S
H1728 C1735 0.950 . S
C1729 C1727 1.387 . S
C1729 C1731 1.390 . S
C1729 H1733 0.950 . S
H1730 C1726 0.950 . S
C1731 C1729 1.390 . S
C1731 C1732 1.387 . S
C1731 H1734 0.950 . S
C1732 C1731 1.387 . S
C1732 C1735 1.387 . S
H1733 C1729 0.950 . S
H1734 C1731 0.950 . S
C1735 C1726 1.390 . S
C1735 H1728 0.950 . S
C1735 C1732 1.387 . S
C1736 C1737 1.387 . S
C1736 H1740 0.950 . S
C1736 C1745 1.390 . S
C1737 C1736 1.387 . S
C1737 C1739 1.387 . S
H1738 C1745 0.950 . S
C1739 C1737 1.387 . S
C1739 C1741 1.390 . S
C1739 H1743 0.950 . S
H1740 C1736 0.950 . S
C1741 C1739 1.390 . S
C1741 C1742 1.387 . S
C1741 H1744 0.950 . S
C1742 C1741 1.387 . S
C1742 C1745 1.387 . S
H1743 C1739 0.950 . S
H1744 C1741 0.950 . S
C1745 C1736 1.390 . S
C1745 H1738 0.950 . S
C1745 C1742 1.387 . S
C1746 C1747 1.387 . S
C1746 H1750 0.950 . S
C1746 C1755 1.390 . S
C1747 C1746 1.387 . S
C1747 C1749 1.387 . S
H1748 C1755 0.950 . S
C1749 C1747 1.387 . S
C1749 C1751 1.390 . S
C1749 H1753 0.950 . S
H1750 C1746 0.950 . S
C1751 C1749 1.390 . S
C1751 C1752 1.387 . S
C1751 H1754 0.950 . S
C1752 C1751 1.387 . S
C1752 C1755 1.387 . S
H1753 C1749 0.950 . S
H1754 C1751 0.950 . S
C1755 C1746 1.390 . S
C1755 H1748 0.950 . S
C1755 C1752 1.387 . S
C1756 C1757 1.387 . S
C1756 H1760 0.950 . S
C1756 C1765 1.390 . S
C1757 C1756 1.387 . S
C1757 C1759 1.387 . S
H1758 C1765 0.950 . S
C1759 C1757 1.387 . S
C1759 C1761 1.390 . S
C1759 H1763 0.950 . S
H1760 C1756 0.950 . S
C1761 C1759 1.390 . S
C1761 C1762 1.387 . S
C1761 H1764 0.950 . S
C1762 C1761 1.387 . S
C1762 C1765 1.387 . S
H1763 C1759 0.950 . S
H1764 C1761 0.950 . S
C1765 C1756 1.390 . S
C1765 H1758 0.950 . S
C1765 C1762 1.387 . S
C1766 C1767 1.387 . S
C1766 H1770 0.950 . S
C1766 C1775 1.390 . S
C1767 C1766 1.387 . S
C1767 C1769 1.387 . S
H1768 C1775 0.950 . S
C1769 C1767 1.387 . S
C1769 C1771 1.390 . S
C1769 H1773 0.950 . S
H1770 C1766 0.950 . S
C1771 C1769 1.390 . S
C1771 C1772 1.387 . S
C1771 H1774 0.950 . S
C1772 C1771 1.387 . S
C1772 C1775 1.387 . S
H1773 C1769 0.950 . S
H1774 C1771 0.950 . S
C1775 C1766 1.390 . S
C1775 H1768 0.950 . S
C1775 C1772 1.387 . S
C1776 C1777 1.387 . S
C1776 H1780 0.950 . S
C1776 C1785 1.390 . S
C1777 C1776 1.387 . S
C1777 C1779 1.387 . S
H1778 C1785 0.950 . S
C1779 C1777 1.387 . S
C1779 C1781 1.390 . S
C1779 H1783 0.950 . S
H1780 C1776 0.950 . S
C1781 C1779 1.390 . S
C1781 C1782 1.387 . S
C1781 H1784 0.950 . S
C1782 C1781 1.387 . S
C1782 C1785 1.387 . S
H1783 C1779 0.950 . S
H1784 C1781 0.950 . S
C1785 C1776 1.390 . S
C1785 H1778 0.950 . S
C1785 C1782 1.387 . S
C1786 C1787 1.387 . S
C1786 H1790 0.950 . S
C1786 C1795 1.390 . S
C1787 C1786 1.387 . S
C1787 C1789 1.387 . S
H1788 C1795 0.950 . S
C1789 C1787 1.387 . S
C1789 C1791 1.390 . S
C1789 H1793 0.950 . S
H1790 C1786 0.950 . S
C1791 C1789 1.390 . S
C1791 C1792 1.387 . S
C1791 H1794 0.950 . S
C1792 C1791 1.387 . S
C1792 C1795 1.387 . S
H1793 C1789 0.950 . S
H1794 C1791 0.950 . S
C1795 C1786 1.390 . S
C1795 H1788 0.950 . S
C1795 C1792 1.387 . S
C1796 C1797 1.387 . S
C1796 H1800 0.950 . S
C1796 C1805 1.390 . S
C1797 C1796 1.387 . S
C1797 C1799 1.387 . S
H1798 C1805 0.950 . S
C1799 C1797 1.387 . S
C1799 C1801 1.390 . S
C1799 H1803 0.950 . S
H1800 C1796 0.950 . S
C1801 C1799 1.390 . S
C1801 C1802 1.387 . S
C1801 H1804 0.950 . S
C1802 C1801 1.387 . S
C1802 C1805 1.387 . S
H1803 C1799 0.950 . S
H1804 C1801 0.950 . S
C1805 C1796 1.390 . S
C1805 H1798 0.950 . S
C1805 C1802 1.387 . S
C1806 C1807 1.387 . S
C1806 H1810 0.950 . S
C1806 C1815 1.390 . S
C1807 C1806 1.387 . S
C1807 C1809 1.387 . S
H1808 C1815 0.950 . S
C1809 C1807 1.387 . S
C1809 C1811 1.390 . S
C1809 H1813 0.950 . S
H1810 C1806 0.950 . S
C1811 C1809 1.390 . S
C1811 C1812 1.387 . S
C1811 H1814 0.950 . S
C1812 C1811 1.387 . S
C1812 C1815 1.387 . S
H1813 C1809 0.950 . S
H1814 C1811 0.950 . S
C1815 C1806 1.390 . S
C1815 H1808 0.950 . S
C1815 C1812 1.387 . S
C1816 C1817 1.387 . S
C1816 H1820 0.950 . S
C1816 C1825 1.390 . S
C1817 C1816 1.387 . S
C1817 C1819 1.387 . S
H1818 C1825 0.950 . S
C1819 C1817 1.387 . S
C1819 C1821 1.390 . S
C1819 H1823 0.950 . S
H1820 C1816 0.950 . S
C1821 C1819 1.390 . S
C1821 C1822 1.387 . S
C1821 H1824 0.950 . S
C1822 C1821 1.387 . S
C1822 C1825 1.387 . S
H1823 C1819 0.950 . S
H1824 C1821 0.950 . S
C1825 C1816 1.390 . S
C1825 H1818 0.950 . S
C1825 C1822 1.387 . S
C1826 C1827 1.387 . S
C1826 H1830 0.950 . S
C1826 C1835 1.390 . S
C1827 C1826 1.387 . S
C1827 C1829 1.387 . S
H1828 C1835 0.950 . S
C1829 C1827 1.387 . S
C1829 C1831 1.390 . S
C1829 H1833 0.950 . S
H1830 C1826 0.950 . S
C1831 C1829 1.390 . S
C1831 C1832 1.387 . S
C1831 H1834 0.950 . S
C1832 C1831 1.387 . S
C1832 C1835 1.387 . S
H1833 C1829 0.950 . S
H1834 C1831 0.950 . S
C1835 C1826 1.390 . S
C1835 H1828 0.950 . S
C1835 C1832 1.387 . S
C1836 C1837 1.387 . S
C1836 H1840 0.950 . S
C1836 C1845 1.390 . S
C1837 C1836 1.387 . S
C1837 C1839 1.387 . S
H1838 C1845 0.950 . S
C1839 C1837 1.387 . S
C1839 C1841 1.390 . S
C1839 H1843 0.950 . S
H1840 C1836 0.950 . S
C1841 C1839 1.390 . S
C1841 C1842 1.387 . S
C1841 H1844 0.950 . S
C1842 C1841 1.387 . S
C1842 C1845 1.387 . S
H1843 C1839 0.950 . S
H1844 C1841 0.950 . S
C1845 C1836 1.390 . S
C1845 H1838 0.950 . S
C1845 C1842 1.387 . S
C1846 C1847 1.387 . S
C1846 H1850 0.950 . S
C1846 C1855 1.390 . S
C1847 C1846 1.387 . S
C1847 C1849 1.387 . S
H1848 C1855 0.950 . S
C1849 C1847 1.387 . S
C1849 C1851 1.390 . S
C1849 H1853 0.950 . S
H1850 C1846 0.950 . S
C1851 C1849 1.390 . S
C1851 C1852 1.387 . S
C1851 H1854 0.950 . S
C1852 C1851 1.387 . S
C1852 C1855 1.387 . S
H1853 C1849 0.950 . S
H1854 C1851 0.950 . S
C1855 C1846 1.390 . S
C1855 H1848 0.950 . S
C1855 C1852 1.387 . S
C1856 C1857 1.387 . S
C1856 H1860 0.950 . S
C1856 C1865 1.390 . S
C1857 C1856 1.387 . S
C1857 C1859 1.387 . S
H1858 C1865 0.950 . S
C1859 C1857 1.387 . S
C1859 C1861 1.390 . S
C1859 H1863 0.950 . S
H1860 C1856 0.950 . S
C1861 C1859 1.390 . S
C1861 C1862 1.387 . S
C1861 H1864 0.950 . S
C1862 C1861 1.387 . S
C1862 C1865 1.387 . S
H1863 C1859 0.950 . S
H1864 C1861 0.950 . S
C1865 C1856 1.390 . S
C1865 H1858 0.950 . S
C1865 C1862 1.387 . S
C1866 C1867 1.387 . S
C1866 H1870 0.950 . S
C1866 C1875 1.390 . S
C1867 C1866 1.387 . S
C1867 C1869 1.387 . S
H1868 C1875 0.950 . S
C1869 C1867 1.387 . S
C1869 C1871 1.390 . S
C1869 H1873 0.950 . S
H1870 C1866 0.950 . S
C1871 C1869 1.390 . S
C1871 C1872 1.387 . S
C1871 H1874 0.950 . S
C1872 C1871 1.387 . S
C1872 C1875 1.387 . S
H1873 C1869 0.950 . S
H1874 C1871 0.950 . S
C1875 C1866 1.390 . S
C1875 H1868 0.950 . S
C1875 C1872 1.387 . S
C1876 C1877 1.387 . S
C1876 H1880 0.946 1_556 S
C1876 C1885 1.390 . S
C1877 C1876 1.387 . S
C1877 C1879 1.387 . S
H1878 C1885 0.950 . S
C1879 C1877 1.387 . S
C1879 C1881 1.390 . S
C1879 H1883 0.950 . S
H1880 C1876 0.946 1_554 S
C1881 C1879 1.390 . S
C1881 C1882 1.387 . S
C1881 H1884 0.950 . S
C1882 C1881 1.387 . S
C1882 C1885 1.387 . S
H1883 C1879 0.950 . S
H1884 C1881 0.950 . S
C1885 C1876 1.390 . S
C1885 H1878 0.950 . S
C1885 C1882 1.387 . S
C1886 C1887 1.387 . S
C1886 H1890 0.950 1_556 S
C1886 C1895 1.390 . S
C1887 C1886 1.387 . S
C1887 C1889 1.387 . S
H1888 C1895 0.950 . S
C1889 C1887 1.387 . S
C1889 C1891 1.390 . S
C1889 H1893 0.950 . S
H1890 C1886 0.950 1_554 S
C1891 C1889 1.390 . S
C1891 C1892 1.387 . S
C1891 H1894 0.950 . S
C1892 C1891 1.387 . S
C1892 C1895 1.387 . S
H1893 C1889 0.950 . S
H1894 C1891 0.950 . S
C1895 C1886 1.390 . S
C1895 H1888 0.950 . S
C1895 C1892 1.387 . S
C1896 C1897 1.387 . S
C1896 H1900 0.950 . S
C1896 C1905 1.390 . S
C1897 C1896 1.387 . S
C1897 C1899 1.387 . S
H1898 C1905 0.950 . S
C1899 C1897 1.387 . S
C1899 C1901 1.390 . S
C1899 H1903 0.950 . S
H1900 C1896 0.950 . S
C1901 C1899 1.390 . S
C1901 C1902 1.387 . S
C1901 H1904 0.950 . S
C1902 C1901 1.387 . S
C1902 C1905 1.387 . S
H1903 C1899 0.950 . S
H1904 C1901 0.950 . S
C1905 C1896 1.390 . S
C1905 H1898 0.950 . S
C1905 C1902 1.387 . S
C1906 C1907 1.387 . S
C1906 H1910 0.950 . S
C1906 C1915 1.390 . S
C1907 C1906 1.387 . S
C1907 C1909 1.387 . S
H1908 C1915 0.950 . S
C1909 C1907 1.387 . S
C1909 C1911 1.390 . S
C1909 H1913 0.950 1_556 S
H1910 C1906 0.950 . S
C1911 C1909 1.390 . S
C1911 C1912 1.387 . S
C1911 H1914 0.950 . S
C1912 C1911 1.387 . S
C1912 C1915 1.387 . S
H1913 C1909 0.950 1_554 S
H1914 C1911 0.950 . S
C1915 C1906 1.390 . S
C1915 H1908 0.950 . S
C1915 C1912 1.387 . S
C1916 C1917 1.387 . S
C1916 H1920 0.950 . S
C1916 C1925 1.390 . S
C1917 C1916 1.387 . S
C1917 C1919 1.387 . S
H1918 C1925 0.950 . S
C1919 C1917 1.387 . S
C1919 C1921 1.390 . S
C1919 H1923 0.950 . S
H1920 C1916 0.950 . S
C1921 C1919 1.390 . S
C1921 C1922 1.387 . S
C1921 H1924 0.950 . S
C1922 C1921 1.387 . S
C1922 C1925 1.387 . S
H1923 C1919 0.950 . S
H1924 C1921 0.950 . S
C1925 C1916 1.390 . S
C1925 H1918 0.950 . S
C1925 C1922 1.387 . S
C1926 C1927 1.387 . S
C1926 H1930 0.950 . S
C1926 C1935 1.390 . S
C1927 C1926 1.387 . S
C1927 C1929 1.387 . S
H1928 C1935 0.950 . S
C1929 C1927 1.387 . S
C1929 C1931 1.390 . S
C1929 H1933 0.950 . S
H1930 C1926 0.950 . S
C1931 C1929 1.390 . S
C1931 C1932 1.387 . S
C1931 H1934 0.950 . S
C1932 C1931 1.387 . S
C1932 C1935 1.387 . S
H1933 C1929 0.950 . S
H1934 C1931 0.950 . S
C1935 C1926 1.390 . S
C1935 H1928 0.950 . S
C1935 C1932 1.387 . S
C1936 C1937 1.387 . S
C1936 H1940 0.950 . S
C1936 C1945 1.390 . S
C1937 C1936 1.387 . S
C1937 C1939 1.387 . S
H1938 C1945 0.950 . S
C1939 C1937 1.387 . S
C1939 C1941 1.390 . S
C1939 H1943 0.950 . S
H1940 C1936 0.950 . S
C1941 C1939 1.390 . S
C1941 C1942 1.387 . S
C1941 H1944 0.950 . S
C1942 C1941 1.387 . S
C1942 C1945 1.387 . S
H1943 C1939 0.950 . S
H1944 C1941 0.950 . S
C1945 C1936 1.390 . S
C1945 H1938 0.950 . S
C1945 C1942 1.387 . S
C1946 C1947 1.387 . S
C1946 H1950 0.950 . S
C1946 C1955 1.390 . S
C1947 C1946 1.387 . S
C1947 C1949 1.387 . S
H1948 C1955 0.950 . S
C1949 C1947 1.387 . S
C1949 C1951 1.390 . S
C1949 H1953 0.950 . S
H1950 C1946 0.950 . S
C1951 C1949 1.390 . S
C1951 C1952 1.387 . S
C1951 H1954 0.950 . S
C1952 C1951 1.387 . S
C1952 C1955 1.387 . S
H1953 C1949 0.950 . S
H1954 C1951 0.950 . S
C1955 C1946 1.390 . S
C1955 H1948 0.950 . S
C1955 C1952 1.387 . S
C1956 C1957 1.387 . S
C1956 H1960 0.950 . S
C1956 C1965 1.390 . S
C1957 C1956 1.387 . S
C1957 C1959 1.387 . S
H1958 C1965 0.950 . S
C1959 C1957 1.387 . S
C1959 C1961 1.390 . S
C1959 H1963 0.950 . S
H1960 C1956 0.950 . S
C1961 C1959 1.390 . S
C1961 C1962 1.387 . S
C1961 H1964 0.950 . S
C1962 C1961 1.387 . S
C1962 C1965 1.387 . S
H1963 C1959 0.950 . S
H1964 C1961 0.950 . S
C1965 C1956 1.390 . S
C1965 H1958 0.950 . S
C1965 C1962 1.387 . S
C1966 C1967 1.387 . S
C1966 H1970 0.950 . S
C1966 C1975 1.390 . S
C1967 C1966 1.387 . S
C1967 C1969 1.387 . S
H1968 C1975 0.950 . S
C1969 C1967 1.387 . S
C1969 C1971 1.390 . S
C1969 H1973 0.950 . S
H1970 C1966 0.950 . S
C1971 C1969 1.390 . S
C1971 C1972 1.387 . S
C1971 H1974 0.950 . S
C1972 C1971 1.387 . S
C1972 C1975 1.387 . S
H1973 C1969 0.950 . S
H1974 C1971 0.950 . S
C1975 C1966 1.390 . S
C1975 H1968 0.950 . S
C1975 C1972 1.387 . S
C1976 C1977 1.387 . S
C1976 H1980 0.950 . S
C1976 C1985 1.390 . S
C1977 C1976 1.387 . S
C1977 C1979 1.387 . S
H1978 C1985 0.950 . S
C1979 C1977 1.387 . S
C1979 C1981 1.390 . S
C1979 H1983 0.950 . S
H1980 C1976 0.950 . S
C1981 C1979 1.390 . S
C1981 C1982 1.387 . S
C1981 H1984 0.950 . S
C1982 C1981 1.387 . S
C1982 C1985 1.387 . S
H1983 C1979 0.950 . S
H1984 C1981 0.950 . S
C1985 C1976 1.390 . S
C1985 H1978 0.950 . S
C1985 C1982 1.387 . S
C1986 C1987 1.387 . S
C1986 H1990 0.950 . S
C1986 C1995 1.390 . S
C1987 C1986 1.387 . S
C1987 C1989 1.387 . S
H1988 C1995 0.946 1_655 S
C1989 C1987 1.387 . S
C1989 C1991 1.390 . S
C1989 H1993 0.950 . S
H1990 C1986 0.950 . S
C1991 C1989 1.390 . S
C1991 C1992 1.387 . S
C1991 H1994 0.950 . S
C1992 C1991 1.387 . S
C1992 C1995 1.387 . S
H1993 C1989 0.950 . S
H1994 C1991 0.950 . S
C1995 C1986 1.390 . S
C1995 H1988 0.946 1_455 S
C1995 C1992 1.387 . S
C1996 C1997 1.387 . S
C1996 H2000 0.950 . S
C1996 C2005 1.390 . S
C1997 C1996 1.387 . S
C1997 C1999 1.387 . S
H1998 C2005 0.950 . S
C1999 C1997 1.387 . S
C1999 C2001 1.390 . S
C1999 H2003 0.950 . S
H2000 C1996 0.950 . S
C2001 C1999 1.390 . S
C2001 C2002 1.387 . S
C2001 H2004 0.950 . S
C2002 C2001 1.387 . S
C2002 C2005 1.387 . S
H2003 C1999 0.950 . S
H2004 C2001 0.950 . S
C2005 C1996 1.390 . S
C2005 H1998 0.950 . S
C2005 C2002 1.387 . S
C2006 C2007 1.387 1_545 S
C2006 H2010 0.950 . S
C2006 C2015 1.390 . S
C2007 C2006 1.387 1_565 S
C2007 C2009 1.387 . S
H2008 C2015 0.950 . S
C2009 C2007 1.387 . S
C2009 C2011 1.390 . S
C2009 H2013 0.950 . S
H2010 C2006 0.950 . S
C2011 C2009 1.390 . S
C2011 C2012 1.387 . S
C2011 H2014 0.950 . S
C2012 C2011 1.387 . S
C2012 C2015 1.387 1_565 S
H2013 C2009 0.950 . S
H2014 C2011 0.950 . S
C2015 C2006 1.390 . S
C2015 H2008 0.950 . S
C2015 C2012 1.387 1_545 S
C2016 C2017 1.387 . S
C2016 H2020 0.950 . S
C2016 C2025 1.390 . S
C2017 C2016 1.387 . S
C2017 C2019 1.387 1_565 S
H2018 C2025 0.950 . S
C2019 C2017 1.387 1_545 S
C2019 C2021 1.390 . S
C2019 H2023 0.950 . S
H2020 C2016 0.950 . S
C2021 C2019 1.390 . S
C2021 C2022 1.387 1_545 S
C2021 H2024 0.950 . S
C2022 C2021 1.387 1_565 S
C2022 C2025 1.387 . S
H2023 C2019 0.950 . S
H2024 C2021 0.950 . S
C2025 C2016 1.390 . S
C2025 H2018 0.950 . S
C2025 C2022 1.387 . S
C2026 C2027 1.387 . S
C2026 H2030 0.950 . S
C2026 C2035 1.390 . S
C2027 C2026 1.387 . S
C2027 C2029 1.387 1_455 S
H2028 C2035 0.950 . S
C2029 C2027 1.387 1_655 S
C2029 C2031 1.390 . S
C2029 H2033 0.950 . S
H2030 C2026 0.950 . S
C2031 C2029 1.390 . S
C2031 C2032 1.387 1_655 S
C2031 H2034 0.950 . S
C2032 C2031 1.387 1_455 S
C2032 C2035 1.387 . S
H2033 C2029 0.950 . S
H2034 C2031 0.950 . S
C2035 C2026 1.390 . S
C2035 H2028 0.950 . S
C2035 C2032 1.387 . S
C2036 C2037 1.387 . S
C2036 H2040 0.950 . S
C2036 C2045 1.390 . S
C2037 C2036 1.387 . S
C2037 C2039 1.387 . S
H2038 C2045 0.950 . S
C2039 C2037 1.387 . S
C2039 C2041 1.390 . S
C2039 H2043 0.950 . S
H2040 C2036 0.950 . S
C2041 C2039 1.390 . S
C2041 C2042 1.387 . S
C2041 H2044 0.950 . S
C2042 C2041 1.387 . S
C2042 C2045 1.387 . S
H2043 C2039 0.950 . S
H2044 C2041 0.950 . S
C2045 C2036 1.390 . S
C2045 H2038 0.950 . S
C2045 C2042 1.387 . S
C2046 C2047 1.387 . S
C2046 H2050 0.950 . S
C2046 C2055 1.390 . S
C2047 C2046 1.387 . S
C2047 C2049 1.387 . S
H2048 C2055 0.950 . S
C2049 C2047 1.387 . S
C2049 C2051 1.390 . S
C2049 H2053 0.950 . S
H2050 C2046 0.950 . S
C2051 C2049 1.390 . S
C2051 C2052 1.387 . S
C2051 H2054 0.950 . S
C2052 C2051 1.387 . S
C2052 C2055 1.387 . S
H2053 C2049 0.950 . S
H2054 C2051 0.950 . S
C2055 C2046 1.390 . S
C2055 H2048 0.950 . S
C2055 C2052 1.387 . S
C2056 C2057 1.387 . S
C2056 H2060 0.950 . S
C2056 C2065 1.390 . S
C2057 C2056 1.387 . S
C2057 C2059 1.387 . S
H2058 C2065 0.950 . S
C2059 C2057 1.387 . S
C2059 C2061 1.390 . S
C2059 H2063 0.950 . S
H2060 C2056 0.950 . S
C2061 C2059 1.390 . S
C2061 C2062 1.387 . S
C2061 H2064 0.950 . S
C2062 C2061 1.387 . S
C2062 C2065 1.387 . S
H2063 C2059 0.950 . S
H2064 C2061 0.950 . S
C2065 C2056 1.390 . S
C2065 H2058 0.950 . S
C2065 C2062 1.387 . S
C2066 C2067 1.387 . S
C2066 H2070 0.950 . S
C2066 C2075 1.390 . S
C2067 C2066 1.387 . S
C2067 C2069 1.387 . S
H2068 C2075 0.950 . S
C2069 C2067 1.387 . S
C2069 C2071 1.390 . S
C2069 H2073 0.950 . S
H2070 C2066 0.950 . S
C2071 C2069 1.390 . S
C2071 C2072 1.387 . S
C2071 H2074 0.950 . S
C2072 C2071 1.387 . S
C2072 C2075 1.387 . S
H2073 C2069 0.950 . S
H2074 C2071 0.950 . S
C2075 C2066 1.390 . S
C2075 H2068 0.950 . S
C2075 C2072 1.387 . S
C2076 C2077 1.387 1_565 S
C2076 H2080 0.950 . S
C2076 C2085 1.390 . S
C2077 C2076 1.387 1_545 S
C2077 C2079 1.387 . S
H2078 C2085 0.950 . S
C2079 C2077 1.387 . S
C2079 C2081 1.390 . S
C2079 H2083 0.950 . S
H2080 C2076 0.950 . S
C2081 C2079 1.390 . S
C2081 C2082 1.387 . S
C2081 H2084 0.950 . S
C2082 C2081 1.387 . S
C2082 C2085 1.387 1_545 S
H2083 C2079 0.950 . S
H2084 C2081 0.950 . S
C2085 C2076 1.390 . S
C2085 H2078 0.950 . S
C2085 C2082 1.387 1_565 S
C2086 C2087 1.387 . S
C2086 H2090 0.950 . S
C2086 C2095 1.390 . S
C2087 C2086 1.387 . S
C2087 C2089 1.387 1_655 S
H2088 C2095 0.950 . S
C2089 C2087 1.387 1_455 S
C2089 C2091 1.390 . S
C2089 H2093 0.950 . S
H2090 C2086 0.950 . S
C2091 C2089 1.390 . S
C2091 C2092 1.387 1_455 S
C2091 H2094 0.950 . S
C2092 C2091 1.387 1_655 S
C2092 C2095 1.387 . S
H2093 C2089 0.950 . S
H2094 C2091 0.950 . S
C2095 C2086 1.390 . S
C2095 H2088 0.950 . S
C2095 C2092 1.387 . S
C2096 C2097 1.387 . S
C2096 H2100 0.950 . S
C2096 C2105 1.390 . S
C2097 C2096 1.387 . S
C2097 C2099 1.387 . S
H2098 C2105 0.950 . S
C2099 C2097 1.387 . S
C2099 C2101 1.390 . S
C2099 H2103 0.950 . S
H2100 C2096 0.950 . S
C2101 C2099 1.390 . S
C2101 C2102 1.387 . S
C2101 H2104 0.950 . S
C2102 C2101 1.387 . S
C2102 C2105 1.387 . S
H2103 C2099 0.950 . S
H2104 C2101 0.950 . S
C2105 C2096 1.390 . S
C2105 H2098 0.950 . S
C2105 C2102 1.387 . S
C2106 C2107 1.387 . S
C2106 H2110 0.950 . S
C2106 C2115 1.390 . S
C2107 C2106 1.387 . S
C2107 C2109 1.387 . S
H2108 C2115 0.950 . S
C2109 C2107 1.387 . S
C2109 C2111 1.390 . S
C2109 H2113 0.950 . S
H2110 C2106 0.950 . S
C2111 C2109 1.390 . S
C2111 C2112 1.387 . S
C2111 H2114 0.950 . S
C2112 C2111 1.387 . S
C2112 C2115 1.387 . S
H2113 C2109 0.950 . S
H2114 C2111 0.950 . S
C2115 C2106 1.390 . S
C2115 H2108 0.950 . S
C2115 C2112 1.387 . S
C2116 C2117 1.387 . S
C2116 H2120 0.950 . S
C2116 C2125 1.390 . S
C2117 C2116 1.387 . S
C2117 C2119 1.387 . S
H2118 C2125 0.950 . S
C2119 C2117 1.387 . S
C2119 C2121 1.390 . S
C2119 H2123 0.950 . S
H2120 C2116 0.950 . S
C2121 C2119 1.390 . S
C2121 C2122 1.387 . S
C2121 H2124 0.950 . S
C2122 C2121 1.387 . S
C2122 C2125 1.387 . S
H2123 C2119 0.950 . S
H2124 C2121 0.950 . S
C2125 C2116 1.390 . S
C2125 H2118 0.950 . S
C2125 C2122 1.387 . S
C2126 C2127 1.387 . S
C2126 H2130 0.950 . S
C2126 C2135 1.390 . S
C2127 C2126 1.387 . S
C2127 C2129 1.387 . S
H2128 C2135 0.950 . S
C2129 C2127 1.387 . S
C2129 C2131 1.390 . S
C2129 H2133 0.950 . S
H2130 C2126 0.950 . S
C2131 C2129 1.390 . S
C2131 C2132 1.387 . S
C2131 H2134 0.950 . S
C2132 C2131 1.387 . S
C2132 C2135 1.387 . S
H2133 C2129 0.950 . S
H2134 C2131 0.950 . S
C2135 C2126 1.390 . S
C2135 H2128 0.950 . S
C2135 C2132 1.387 . S
C2136 C2137 1.387 . S
C2136 H2140 0.950 . S
C2136 C2145 1.390 . S
C2137 C2136 1.387 . S
C2137 C2139 1.387 . S
H2138 C2145 0.950 . S
C2139 C2137 1.387 . S
C2139 C2141 1.390 . S
C2139 H2143 0.950 . S
H2140 C2136 0.950 . S
C2141 C2139 1.390 . S
C2141 C2142 1.387 . S
C2141 H2144 0.950 . S
C2142 C2141 1.387 . S
C2142 C2145 1.387 . S
H2143 C2139 0.950 . S
H2144 C2141 0.950 . S
C2145 C2136 1.390 . S
C2145 H2138 0.950 . S
C2145 C2142 1.387 . S
C2146 C2147 1.387 . S
C2146 H2150 0.950 . S
C2146 C2155 1.390 . S
C2147 C2146 1.387 . S
C2147 C2149 1.387 . S
H2148 C2155 0.950 . S
C2149 C2147 1.387 . S
C2149 C2151 1.390 . S
C2149 H2153 0.950 . S
H2150 C2146 0.950 . S
C2151 C2149 1.390 . S
C2151 C2152 1.387 . S
C2151 H2154 0.950 . S
C2152 C2151 1.387 . S
C2152 C2155 1.387 . S
H2153 C2149 0.950 . S
H2154 C2151 0.950 . S
C2155 C2146 1.390 . S
C2155 H2148 0.950 . S
C2155 C2152 1.387 . S
C2156 C2157 1.387 . S
C2156 H2160 0.950 . S
C2156 C2165 1.390 . S
C2157 C2156 1.387 . S
C2157 C2159 1.387 . S
H2158 C2165 0.950 . S
C2159 C2157 1.387 . S
C2159 C2161 1.390 . S
C2159 H2163 0.950 . S
H2160 C2156 0.950 . S
C2161 C2159 1.390 . S
C2161 C2162 1.387 . S
C2161 H2164 0.950 . S
C2162 C2161 1.387 . S
C2162 C2165 1.387 . S
H2163 C2159 0.950 . S
H2164 C2161 0.950 . S
C2165 C2156 1.390 . S
C2165 H2158 0.950 . S
C2165 C2162 1.387 . S
C2166 C2167 1.387 1_455 S
C2166 H2170 0.950 . S
C2166 C2175 1.390 . S
C2167 C2166 1.387 1_655 S
C2167 C2169 1.387 . S
H2168 C2175 0.950 . S
C2169 C2167 1.387 . S
C2169 C2171 1.390 . S
C2169 H2173 0.950 . S
H2170 C2166 0.950 . S
C2171 C2169 1.390 . S
C2171 C2172 1.387 . S
C2171 H2174 0.950 . S
C2172 C2171 1.387 . S
C2172 C2175 1.387 1_655 S
H2173 C2169 0.950 . S
H2174 C2171 0.950 . S
C2175 C2166 1.390 . S
C2175 H2168 0.950 . S
C2175 C2172 1.387 1_455 S
C2176 C2177 1.387 . S
C2176 H2180 0.950 . S
C2176 C2185 1.390 . S
C2177 C2176 1.387 . S
C2177 C2179 1.387 . S
H2178 C2185 0.950 . S
C2179 C2177 1.387 . S
C2179 C2181 1.390 . S
C2179 H2183 0.950 . S
H2180 C2176 0.950 . S
C2181 C2179 1.390 . S
C2181 C2182 1.387 . S
C2181 H2184 0.950 . S
C2182 C2181 1.387 . S
C2182 C2185 1.387 . S
H2183 C2179 0.950 . S
H2184 C2181 0.950 . S
C2185 C2176 1.390 . S
C2185 H2178 0.950 . S
C2185 C2182 1.387 . S
C2186 C2187 1.387 . S
C2186 H2190 0.950 . S
C2186 C2195 1.390 . S
C2187 C2186 1.387 . S
C2187 C2189 1.387 1_545 S
H2188 C2195 0.950 . S
C2189 C2187 1.387 1_565 S
C2189 C2191 1.390 . S
C2189 H2193 0.950 . S
H2190 C2186 0.950 . S
C2191 C2189 1.390 . S
C2191 C2192 1.387 1_565 S
C2191 H2194 0.950 . S
C2192 C2191 1.387 1_545 S
C2192 C2195 1.387 . S
H2193 C2189 0.950 . S
H2194 C2191 0.950 . S
C2195 C2186 1.390 . S
C2195 H2188 0.950 . S
C2195 C2192 1.387 . S
C1477 C4 1.432 . S
C1482 C1084 1.453 . S
C1487 C38 1.730 . S
C1492 C1130 1.691 . S
C1502 C1162 1.475 . S
C1497 C74 1.442 . S
C1507 C76 1.412 . S
C1512 C1215 1.445 . S
C1517 C2 1.521 . S
C1522 C1261 1.574 . S
C1527 C40 1.574 . S
C1532 C1300 1.552 . S
C1537 C110 1.490 . S
C1542 C1254 1.533 . S
C1552 C1307 1.562 . S
C1547 C148 1.590 . S
C1562 C1208 1.532 . S
C1557 C182 1.492 . S
C1567 C184 1.458 . S
C1572 C1169 1.496 . S
C1582 C1063 1.440 . S
C1577 C112 1.419 . S
C1587 C146 1.670 . S
C1592 C1109 1.637 . S
C1597 C220 1.673 . S
C1602 C1339 1.646 . S
C1607 C254 1.811 . S
C1612 C1406 1.754 . S
C1622 C1452 1.636 . S
C1617 C290 1.692 . S
C1627 C292 1.578 . S
C1632 C663 1.542 . S
C1637 C218 1.718 . S
C1642 C709 1.687 . S
C1647 C256 1.616 . S
C1652 C755 1.567 . S
C1657 C326 1.709 . S
C1662 C702 1.666 . S
C1667 C364 1.652 . S
C1672 C748 1.594 . S
C1682 C656 1.680 . S
C1677 C398 1.726 . S
C1692 C1431 1.654 . S
C1687 C400 1.687 . S
C1702 C1360 1.545 . S
C1697 C328 1.572 . S
C1712 C1385 1.700 . S
C1707 C362 1.752 . S
C1717 C436 1.602 . S
C1722 C787 1.575 . S
C1727 C470 1.784 . S
C1732 C840 1.750 . S
C1737 C506 1.687 . S
C1742 C886 1.657 . S
C1747 C508 1.652 . S
C1752 C932 1.628 . S
C1762 C985 1.677 . S
C1757 C434 1.716 . S
C1772 C1031 1.589 . S
C1767 C472 1.641 . S
C1782 C978 1.741 . S
C1777 C542 1.786 . S
C1792 C1024 1.613 . S
C1787 C580 1.673 . S
C1797 C614 1.718 . S
C1802 C939 1.684 . S
C1812 C893 1.591 . S
C1807 C616 1.609 . S
C1817 C544 1.578 . S
C1822 C808 1.555 . S
C1832 C847 1.686 . S
C1827 C578 1.714 . S
C1842 C670 1.678 . S
C1837 C14 1.706 . S
C1847 C39 1.609 . S
C1852 C716 1.582 . S
C1862 C762 1.598 . S
C1857 C75 1.627 . S
C1872 C794 1.521 . S
C1867 C86 1.559 . S
C1882 C833 1.615 . S
C1877 C3 1.658 . S
C1892 C879 1.577 . S
C1887 C50 1.627 . S
C1897 C111 1.634 . S
C1902 C900 1.595 . S
C1907 C158 1.591 . S
C1912 C801 1.528 . S
C1917 C183 1.736 . S
C1922 C854 1.691 . S
C1927 C194 1.681 . S
C1932 C695 1.664 . S
C1942 C741 1.596 . S
C1937 C122 1.632 . S
C1947 C147 1.532 . S
C1952 C649 1.509 . S
C1962 C925 1.608 . S
C1957 C230 1.663 . S
C1967 C255 1.695 . S
C1972 C992 1.666 . S
C1977 C291 1.640 . S
C1982 C1038 1.604 . S
C1992 C1077 1.357 . S
C1987 C302 1.301 . S
C1997 C219 1.615 . S
C2002 C1123 1.594 . S
C2007 C266 1.381 . S
C2012 C1155 1.448 . S
C2017 C327 1.373 . S
C2022 C1176 1.364 . S
C2027 C374 1.353 . S
C2032 C1070 1.402 . S
C2042 C1116 1.660 . S
C2037 C399 1.684 . S
C2047 C410 1.638 . S
C2052 C971 1.618 . S
C2057 C338 1.643 . S
C2062 C1017 1.619 . S
C2072 C946 1.579 . S
C2067 C363 1.622 . S
C2082 C1222 1.441 . S
C2077 C446 1.383 . S
C2087 C471 1.425 . S
C2092 C1268 1.424 . S
C2097 C507 1.578 . S
C2102 C1293 1.532 . S
C2112 C1346 1.490 . S
C2107 C518 1.532 . S
C2122 C1399 1.656 . S
C2117 C435 1.684 . S
C2127 C482 1.689 . S
C2132 C1445 1.676 . S
C2137 C543 1.583 . S
C2142 C1438 1.554 . S
C2147 C590 1.655 . S
C2152 C1353 1.614 . S
C2162 C1392 1.710 . S
C2157 C615 1.741 . S
C2172 C1247 1.447 . S
C2167 C626 1.378 . S
C2182 C1314 1.556 . S
C2177 C554 1.598 . S
C2187 C579 1.376 . S
C2192 C1201 1.377 . S
