# Generated by pormake.
# Topology pth, (4,4)-cn, num edge types: 1
# Building blocks:
#     Node 0, Type 0, BuildingBlock: GALJAG_clean_sbu_0, # of connection points: 4
#     Node 1, Type 0, BuildingBlock: GALJAG_clean_sbu_0, # of connection points: 4
#     Node 2, Type 0, BuildingBlock: GALJAG_clean_sbu_0, # of connection points: 4
#     Node 3, Type 1, BuildingBlock: MIFKUJ_clean_linker_1, # of connection points: 4
#     Node 4, Type 1, BuildingBlock: MIFKUJ_clean_linker_1, # of connection points: 4
#     Node 5, Type 1, BuildingBlock: MIFKUJ_clean_linker_1, # of connection points: 4
#     Edge 6, Type (0, 1), BuildingBlock: OJICUG_clean_linker_0, # of connection points: 2
#     Edge 7, Type (0, 1), BuildingBlock: OJICUG_clean_linker_0, # of connection points: 2
#     Edge 8, Type (0, 1), BuildingBlock: OJICUG_clean_linker_0, # of connection points: 2
#     Edge 9, Type (0, 1), BuildingBlock: OJICUG_clean_linker_0, # of connection points: 2
#     Edge 10, Type (0, 1), BuildingBlock: OJICUG_clean_linker_0, # of connection points: 2
#     Edge 11, Type (0, 1), BuildingBlock: OJICUG_clean_linker_0, # of connection points: 2
#     Edge 12, Type (0, 1), BuildingBlock: OJICUG_clean_linker_0, # of connection points: 2
#     Edge 13, Type (0, 1), BuildingBlock: OJICUG_clean_linker_0, # of connection points: 2
#     Edge 14, Type (0, 1), BuildingBlock: OJICUG_clean_linker_0, # of connection points: 2
#     Edge 15, Type (0, 1), BuildingBlock: OJICUG_clean_linker_0, # of connection points: 2
#     Edge 16, Type (0, 1), BuildingBlock: OJICUG_clean_linker_0, # of connection points: 2
#     Edge 17, Type (0, 1), BuildingBlock: OJICUG_clean_linker_0, # of connection points: 2
# Relax obj value: 0.002
# Max RMSD: 0.043
# Mean RMSD: 0.028
data_MOF--net-pth--node1-GALJAG_clean_sbu_0--node2-MIFKUJ_clean_linker_1--edge1-OJICUG_clean_linker_0
_symmetry_space_group_name_H-M    P1
_symmetry_Int_Tables_number       1
_symmetry_cell_setting            triclinic
loop_
_symmetry_equiv_pos_as_xyz
'x, y, z'
_cell_length_a     23.365875
_cell_length_b     23.375343
_cell_length_c     48.079336
_cell_angle_alpha  90.144314
_cell_angle_beta   90.172594
_cell_angle_gamma 120.01982
loop_
_atom_site_label
_atom_site_type_symbol
_atom_site_fract_x
_atom_site_fract_y
_atom_site_fract_z
_atom_type_partial_charge
In0 In 0.00168 0.00251 0.04045 0.0
O1 O 0.96547 0.0766 0.04685 0.0
O2 O 0.01029 0.05609 0.08096 0.0
C3 C 0.90386 0.91387 0.00749 0.0
C4 C 0.10326 0.08937 0.00883 0.0
C5 C 0.01458 0.91683 0.07357 0.0
O6 O 0.893 0.94426 0.02668 0.0
O7 O 0.96328 0.92819 0.00521 0.0
O8 O 0.05504 0.9473 0.05425 0.0
O9 O 0.96843 0.9296 0.07591 0.0
C10 C 0.9841 0.08815 0.07194 0.0
O11 O 0.11122 0.07913 0.03394 0.0
O12 O 0.04499 0.05545 0.99985 0.0
In13 In -0.00107 0.00163 0.37268 0.0
O14 O 0.05387 0.10164 0.35083 0.0
O15 O 0.95157 0.03918 0.34187 0.0
C16 C 0.09584 0.00789 0.40564 0.0
C17 C 0.90935 0.99695 0.40938 0.0
C18 C 0.98635 0.90718 0.33675 0.0
O19 O 0.10129 0.05812 0.3934 0.0
O20 O 0.04182 0.95545 0.4014 0.0
O21 O 0.94772 0.89493 0.35703 0.0
O22 O 0.03035 0.96709 0.33434 0.0
C23 C 0.00353 0.09363 0.33758 0.0
O24 O 0.89585 0.95096 0.39217 0.0
O25 O 0.96797 0.04437 0.40831 0.0
In26 In -0.00034 0.99376 0.70767 0.0
O27 O 0.94786 0.88648 0.72273 0.0
O28 O 0.93843 0.95707 0.74716 0.0
C29 C 0.08302 0.9905 0.66999 0.0
C30 C 0.91021 0.00247 0.67469 0.0
C31 C 0.09056 0.08642 0.74184 0.0
O32 O 0.04828 0.94223 0.68578 0.0
O33 O 0.07462 0.0395 0.6729 0.0
O34 O 0.03773 0.08577 0.7354 0.0
O35 O 0.09674 0.04022 0.73146 0.0
C36 C 0.92329 0.89759 0.744 0.0
O37 O 0.9538 0.05152 0.68815 0.0
O38 O 0.91216 0.95005 0.67791 0.0
H39 H 0.08572 0.4594 0.14844 0.0
H40 H 0.07444 0.36903 0.11875 0.0
H41 H 0.90453 0.23049 0.16588 0.0
H42 H 0.91335 0.32107 0.19463 0.0
H43 H 0.01541 0.51081 0.1547 0.0
H44 H 0.09221 0.4104 0.21923 0.0
H45 H 0.09365 0.32272 0.24642 0.0
H46 H 0.91211 0.28291 0.28645 0.0
H47 H 0.91019 0.36955 0.2588 0.0
H48 H 0.89452 0.54272 0.24876 0.0
H49 H 0.8867 0.62815 0.27504 0.0
H50 H 0.09126 0.767 0.25608 0.0
H51 H 0.09725 0.68189 0.2288 0.0
H52 H 0.99158 0.4978 0.25734 0.0
H53 H 0.91205 0.58842 0.18372 0.0
H54 H 0.91622 0.67705 0.15554 0.0
H55 H 0.12109 0.74451 0.13635 0.0
H56 H 0.11507 0.65344 0.16362 0.0
C57 C 0.00106 0.39718 0.17414 0.0
C58 C 0.04576 0.4097 0.15235 0.0
C59 C 0.0393 0.3582 0.13537 0.0
C60 C 0.98864 0.29314 0.14013 0.0
C61 C 0.94425 0.28033 0.16199 0.0
C62 C 0.94979 0.33201 0.17859 0.0
C63 C 0.00561 0.45264 0.19109 0.0
C64 C 0.01159 0.50817 0.17719 0.0
C65 C 6e-05 0.44964 0.22048 0.0
C66 C 0.00078 0.39618 0.23681 0.0
C67 C 0.05244 0.38239 0.2337 0.0
C68 C 0.05352 0.33268 0.24941 0.0
C69 C 0.00292 0.2958 0.26854 0.0
C70 C 0.95135 0.30985 0.27163 0.0
C71 C 0.95045 0.3597 0.25601 0.0
C72 C 0.99637 0.60619 0.23687 0.0
C73 C 0.9375 0.59171 0.25028 0.0
C74 C 0.93331 0.6406 0.26541 0.0
C75 C 0.98837 0.70473 0.2678 0.0
C76 C 0.04742 0.71874 0.25432 0.0
C77 C 0.05122 0.67002 0.23888 0.0
C78 C 0.00041 0.55437 0.22076 0.0
C79 C 0.99623 0.50001 0.23487 0.0
C80 C 0.00947 0.55905 0.19171 0.0
C81 C 0.01329 0.61476 0.17575 0.0
C82 C 0.95784 0.62259 0.1735 0.0
C83 C 0.96058 0.67364 0.1575 0.0
C84 C 0.01916 0.71838 0.14367 0.0
C85 C 0.07488 0.71055 0.1463 0.0
C86 C 0.07176 0.65886 0.16202 0.0
H87 H 0.64666 0.10372 0.4904 0.0
H88 H 0.73291 0.09916 0.46331 0.0
H89 H 0.67818 0.90973 0.49952 0.0
H90 H 0.59174 0.91443 0.52649 0.0
H91 H 0.51168 0.01614 0.48876 0.0
H92 H 0.68826 0.1 0.55608 0.0
H93 H 0.77544 0.09982 0.58441 0.0
H94 H 0.63036 0.91731 0.62262 0.0
H95 H 0.54384 0.91698 0.59381 0.0
H96 H 0.37709 0.91849 0.59412 0.0
H97 H 0.28746 0.91456 0.6212 0.0
H98 H 0.30723 0.08341 0.57605 0.0
H99 H 0.4007 0.0904 0.55081 0.0
H100 H 0.50034 0.00336 0.5917 0.0
H101 H 0.32231 0.92134 0.52527 0.0
H102 H 0.23538 0.92284 0.49772 0.0
H103 H 0.38224 0.09871 0.45576 0.0
H104 H 0.4683 0.09938 0.48482 0.0
C105 C 0.6132 0.00967 0.51056 0.0
C106 C 0.65345 0.06136 0.49256 0.0
C107 C 0.70287 0.05885 0.47724 0.0
C108 C 0.7123 0.00413 0.47937 0.0
C109 C 0.67175 0.95229 0.49736 0.0
C110 C 0.62274 0.95515 0.51289 0.0
C111 C 0.55979 0.01176 0.52625 0.0
C112 C 0.50947 0.0143 0.5113 0.0
C113 C 0.55654 0.00799 0.55558 0.0
C114 C 0.60965 0.00811 0.57262 0.0
C115 C 0.67539 0.05967 0.57039 0.0
C116 C 0.72504 0.05987 0.58678 0.0
C117 C 0.70982 0.00847 0.60571 0.0
C118 C 0.64384 0.95715 0.60798 0.0
C119 C 0.59427 0.95711 0.59167 0.0
C120 C 0.39542 0.0043 0.57016 0.0
C121 C 0.3625 0.95505 0.59022 0.0
C122 C 0.31039 0.95229 0.60545 0.0
C123 C 0.28926 0.99829 0.60077 0.0
C124 C 0.32235 0.04756 0.58058 0.0
C125 C 0.3754 0.05109 0.56576 0.0
C126 C 0.45115 0.00683 0.55426 0.0
C127 C 0.5022 0.00531 0.56916 0.0
C128 C 0.45486 0.01138 0.52483 0.0
C129 C 0.40182 0.01088 0.50749 0.0
C130 C 0.33568 0.9608 0.51043 0.0
C131 C 0.28602 0.96127 0.49434 0.0
C132 C 0.30154 0.01097 0.47443 0.0
C133 C 0.36808 0.06039 0.47121 0.0
C134 C 0.41758 0.0604 0.4876 0.0
H135 H 0.45436 0.33688 0.83352 0.0
H136 H 0.36467 0.24913 0.80669 0.0
H137 H 0.24637 0.34198 0.82022 0.0
H138 H 0.33456 0.42579 0.84911 0.0
H139 H 0.51354 0.48515 0.82326 0.0
H140 H 0.41023 0.31322 0.88785 0.0
H141 H 0.32565 0.22566 0.91645 0.0
H142 H 0.29203 0.36911 0.95875 0.0
H143 H 0.37391 0.45649 0.92891 0.0
H144 H 0.54191 0.64459 0.91661 0.0
H145 H 0.62614 0.73658 0.94411 0.0
H146 H 0.76535 0.67087 0.9257 0.0
H147 H 0.68168 0.58123 0.89728 0.0
H148 H 0.49757 0.50479 0.92537 0.0
H149 H 0.59251 0.67204 0.8526 0.0
H150 H 0.68366 0.75678 0.82562 0.0
H151 H 0.74632 0.61639 0.80471 0.0
H152 H 0.65312 0.53126 0.83094 0.0
C153 C 0.4007 0.38728 0.84338 0.0
C154 C 0.40872 0.3377 0.8308 0.0
C155 C 0.35736 0.28789 0.81518 0.0
C156 C 0.29765 0.28804 0.81086 0.0
C157 C 0.29052 0.33874 0.82339 0.0
C158 C 0.34122 0.38732 0.83974 0.0
C159 C 0.45504 0.44021 0.8598 0.0
C160 C 0.51033 0.489 0.84563 0.0
C161 C 0.45064 0.44509 0.88898 0.0
C162 C 0.39736 0.39143 0.90559 0.0
C163 C 0.38326 0.32579 0.90256 0.0
C164 C 0.33563 0.27587 0.91917 0.0
C165 C 0.30275 0.29098 0.93972 0.0
C166 C 0.3172 0.35654 0.94308 0.0
C167 C 0.36377 0.40628 0.92602 0.0
C168 C 0.60592 0.60664 0.90483 0.0
C169 C 0.59084 0.65055 0.91843 0.0
C170 C 0.63894 0.70278 0.9343 0.0
C171 C 0.70275 0.71138 0.93721 0.0
C172 C 0.71733 0.66684 0.92352 0.0
C173 C 0.66948 0.61523 0.90737 0.0
C174 C 0.55446 0.55036 0.88871 0.0
C175 C 0.50013 0.5008 0.90298 0.0
C176 C 0.56019 0.54404 0.85979 0.0
C177 C 0.61628 0.59555 0.84379 0.0
C178 C 0.62608 0.65972 0.84224 0.0
C179 C 0.67862 0.70823 0.82695 0.0
C180 C 0.72286 0.69374 0.81302 0.0
C181 C 0.71287 0.62924 0.81479 0.0
C182 C 0.65981 0.58053 0.82987 0.0
C183 C 0.98265 0.13498 0.11834 0.0
C184 C 0.9795 0.1378 0.08923 0.0
H185 H 0.987 0.18186 0.15729 0.0
C186 C 0.97642 0.19062 0.07694 0.0
H187 H 0.98504 0.09471 0.12832 0.0
C188 C 0.97893 0.2411 0.09351 0.0
C189 C 0.98298 0.23859 0.1226 0.0
H190 H 0.97436 0.19405 0.05453 0.0
H191 H 0.97804 0.28226 0.08364 0.0
C192 C 0.98365 0.1846 0.1349 0.0
C193 C 0.79645 0.94147 0.43061 0.0
C194 C 0.85985 0.99718 0.42837 0.0
H195 H 0.70001 0.89998 0.44862 0.0
C196 C 0.87505 0.05431 0.44374 0.0
H197 H 0.78336 0.89677 0.41899 0.0
C198 C 0.82735 0.05627 0.46051 0.0
C199 C 0.76365 0.00092 0.46249 0.0
H200 H 0.92352 0.09803 0.44245 0.0
H201 H 0.8403 0.10116 0.47195 0.0
C202 C 0.74888 0.94321 0.44764 0.0
C203 C 0.84592 0.77828 0.75445 0.0
C204 C 0.87661 0.84485 0.76267 0.0
H205 H 0.77226 0.67864 0.76342 0.0
C206 C 0.85921 0.86109 0.7882 0.0
H207 H 0.8581 0.76439 0.73478 0.0
C208 C 0.81088 0.81192 0.80489 0.0
C209 C 0.77804 0.74538 0.79625 0.0
H210 H 0.88246 0.912 0.79517 0.0
H211 H 0.79896 0.82627 0.8245 0.0
C212 C 0.79687 0.7291 0.77097 0.0
C213 C 0.05701 0.83987 0.08443 0.0
C214 C 0.01947 0.86909 0.09198 0.0
H215 H 0.08495 0.76801 0.09435 0.0
C216 C 0.98433 0.85075 0.11708 0.0
H217 H 0.08433 0.853 0.06511 0.0
C218 C 0.98577 0.80331 0.13414 0.0
C219 C 0.02142 0.7721 0.12627 0.0
H220 H 0.95556 0.8731 0.12357 0.0
H221 H 0.9587 0.79108 0.1535 0.0
C222 C 0.05759 0.79146 0.1013 0.0
C223 C 0.14503 0.95 0.43122 0.0
C224 C 0.1485 0.00939 0.42324 0.0
H225 H 0.19109 0.90383 0.45275 0.0
C226 C 0.20248 0.06952 0.43214 0.0
H227 H 0.10423 0.90285 0.42447 0.0
C228 C 0.25185 0.07015 0.44892 0.0
C229 C 0.24871 0.01065 0.45683 0.0
H230 H 0.2062 0.11604 0.4264 0.0
H231 H 0.29204 0.11734 0.45594 0.0
C232 C 0.1947 0.9506 0.44764 0.0
C233 C 0.12682 0.16831 0.78093 0.0
C234 C 0.14258 0.13817 0.75938 0.0
H235 H 0.16239 0.23635 0.81499 0.0
C236 C 0.20896 0.15747 0.75463 0.0
H237 H 0.07578 0.15376 0.78509 0.0
C238 C 0.259 0.20663 0.77094 0.0
C239 C 0.2438 0.2363 0.79309 0.0
H240 H 0.22237 0.13543 0.73786 0.0
H241 H 0.30964 0.2217 0.7658 0.0
C242 C 0.17676 0.21611 0.7979 0.0
C243 C 0.81167 0.94747 0.6434 0.0
C244 C 0.86014 0.00514 0.65673 0.0
H245 H 0.72693 0.90355 0.61665 0.0
C246 C 0.8597 0.06445 0.65284 0.0
H247 H 0.81084 0.90101 0.64589 0.0
C248 C 0.81135 0.06586 0.63604 0.0
C249 C 0.76237 0.0079 0.62297 0.0
H250 H 0.89646 0.10966 0.66286 0.0
H251 H 0.81156 0.11204 0.63371 0.0
C252 C 0.76334 0.94882 0.62675 0.0
C253 C 0.78483 0.83476 0.99646 0.0
C254 C 0.85172 0.86474 0.98909 0.0
H255 H 0.68541 0.76149 0.98634 0.0
C256 C 0.86912 0.84604 0.96417 0.0
H257 H 0.77017 0.84814 0.01564 0.0
C258 C 0.82071 0.79762 0.94707 0.0
C259 C 0.75373 0.7658 0.95472 0.0
H260 H 0.92034 0.86893 0.95783 0.0
H261 H 0.83598 0.78518 0.92783 0.0
C262 C 0.73631 0.78539 0.97955 0.0
C263 C 0.94662 0.78842 0.32591 0.0
C264 C 0.98313 0.85513 0.31824 0.0
H265 H 0.92112 0.689 0.31659 0.0
C266 C 0.01924 0.872 0.29339 0.0
H267 H 0.9187 0.77405 0.34508 0.0
C268 C 0.01967 0.82317 0.27671 0.0
C269 C 0.98479 0.75638 0.28473 0.0
H270 H 0.04751 0.92307 0.28688 0.0
H271 H 0.04752 0.83793 0.25755 0.0
C272 C 0.94779 0.73963 0.30945 0.0
C273 C 0.18473 0.05228 0.64139 0.0
C274 C 0.13313 0.99174 0.65101 0.0
H275 H 0.27534 0.10221 0.619 0.0
C276 C 0.13163 0.93309 0.64331 0.0
H277 H 0.18744 0.09836 0.64725 0.0
C278 C 0.18121 0.93501 0.62643 0.0
C279 C 0.2342 0.99579 0.61738 0.0
H280 H 0.0921 0.88569 0.65031 0.0
H281 H 0.17786 0.88871 0.62053 0.0
C282 C 0.23499 0.05437 0.62501 0.0
C283 C 0.15047 0.13434 0.96226 0.0
C284 C 0.15662 0.13903 0.99137 0.0
H285 H 0.19281 0.17874 0.92308 0.0
C286 C 0.21209 0.19324 0.00345 0.0
H287 H 0.10813 0.09298 0.95244 0.0
C288 C 0.25969 0.24295 0.98665 0.0
C289 C 0.2532 0.23827 0.95755 0.0
H290 H 0.21769 0.19813 0.02585 0.0
H291 H 0.30163 0.28498 0.99633 0.0
C292 C 0.19875 0.18318 0.94548 0.0
C293 C 0.06304 0.20461 0.31469 0.0
C294 C 0.0044 0.1445 0.31909 0.0
H295 H 0.10852 0.29978 0.29535 0.0
C296 C 0.94581 0.13381 0.30618 0.0
H297 H 0.10893 0.21426 0.3244 0.0
C298 C 0.94557 0.18262 0.28956 0.0
C299 C 0.00395 0.24316 0.28542 0.0
H300 H 0.89985 0.08789 0.3091 0.0
H301 H 0.8996 0.17285 0.27988 0.0
C302 C 0.06285 0.25342 0.29795 0.0
loop_
_geom_bond_atom_site_label_1
_geom_bond_atom_site_label_2
_geom_bond_distance
_geom_bond_site_symmetry_2
_ccdc_geom_bond_type
In0 O1 2.294 1_455 S
In0 O2 2.326 . S
In0 O6 2.266 1_445 S
In0 O7 2.326 1_445 S
In0 O8 2.266 1_545 S
In0 O9 2.326 1_445 S
In0 O11 2.294 . S
In0 O12 2.326 . S
O1 In0 2.294 1_655 S
O1 C10 1.240 1_655 S
O2 In0 2.326 . S
O2 C10 1.252 . S
C3 O6 1.252 . S
C3 O7 1.260 . S
C4 O11 1.240 . S
C4 O12 1.252 . S
C5 O8 1.252 1_655 S
C5 O9 1.260 . S
O6 In0 2.266 1_665 S
O6 C3 1.252 . S
O7 In0 2.326 1_665 S
O7 C3 1.260 . S
O8 In0 2.266 1_565 S
O8 C5 1.252 1_455 S
O9 In0 2.326 1_665 S
O9 C5 1.260 . S
C10 O1 1.240 1_455 S
C10 O2 1.252 . S
O11 In0 2.294 . S
O11 C4 1.240 . S
O12 In0 2.326 . S
O12 C4 1.252 . S
In13 O14 2.294 . S
In13 O15 2.326 1_455 S
In13 O19 2.266 . S
In13 O20 2.326 1_545 S
In13 O21 2.266 1_445 S
In13 O22 2.326 1_545 S
In13 O24 2.294 1_445 S
In13 O25 2.326 1_455 S
O14 In13 2.294 . S
O14 C23 1.240 1_455 S
O15 In13 2.326 1_655 S
O15 C23 1.252 . S
C16 O19 1.252 1_565 S
C16 O20 1.260 . S
C17 O24 1.240 1_545 S
C17 O25 1.252 . S
C18 O21 1.252 1_455 S
C18 O22 1.260 . S
O19 In13 2.266 . S
O19 C16 1.252 1_545 S
O20 In13 2.326 1_565 S
O20 C16 1.260 . S
O21 In13 2.266 1_665 S
O21 C18 1.252 1_655 S
O22 In13 2.326 1_565 S
O22 C18 1.260 . S
C23 O14 1.240 1_655 S
C23 O15 1.252 . S
O24 In13 2.294 1_665 S
O24 C17 1.240 1_565 S
O25 In13 2.326 1_655 S
O25 C17 1.252 . S
In26 O27 2.288 1_445 S
In26 O28 2.327 1_445 S
In26 O32 2.260 1_545 S
In26 O33 2.327 . S
In26 O34 2.272 . S
In26 O35 2.325 . S
In26 O37 2.300 1_455 S
In26 O38 2.325 1_445 S
O27 In26 2.288 1_665 S
O27 C36 1.240 . S
O28 In26 2.327 1_665 S
O28 C36 1.252 . S
C29 O32 1.252 1_545 S
C29 O33 1.260 . S
C30 O37 1.240 1_565 S
C30 O38 1.252 . S
C31 O34 1.252 . S
C31 O35 1.260 . S
O32 In26 2.260 1_565 S
O32 C29 1.252 1_565 S
O33 In26 2.327 . S
O33 C29 1.260 . S
O34 In26 2.272 . S
O34 C31 1.252 . S
O35 In26 2.325 . S
O35 C31 1.260 . S
C36 O27 1.240 . S
C36 O28 1.252 . S
O37 In26 2.300 1_655 S
O37 C30 1.240 1_545 S
O38 In26 2.325 1_665 S
O38 C30 1.252 . S
H39 C58 0.949 . S
H40 C59 0.950 . S
H41 C61 0.950 . S
H42 C62 0.950 . S
H43 C64 0.950 . S
H44 C67 0.950 . S
H45 C68 0.950 . S
H46 C70 0.951 . S
H47 C71 0.949 . S
H48 C73 0.949 . S
H49 C74 0.950 . S
H50 C76 0.950 . S
H51 C77 0.950 . S
H52 C79 0.950 . S
H53 C82 0.950 . S
H54 C83 0.950 . S
H55 C85 0.951 . S
H56 C86 0.949 . S
C57 C58 1.376 . S
C57 C62 1.386 1_455 S
C57 C63 1.483 . S
C58 H39 0.949 . S
C58 C57 1.376 . S
C58 C59 1.397 . S
C59 H40 0.950 . S
C59 C58 1.397 . S
C59 C60 1.391 . S
C60 C59 1.391 . S
C60 C61 1.405 1_455 S
C61 H41 0.950 . S
C61 C60 1.405 1_655 S
C61 C62 1.367 . S
C62 H42 0.950 . S
C62 C57 1.386 1_655 S
C62 C61 1.367 . S
C63 C57 1.483 . S
C63 C64 1.382 . S
C63 C65 1.403 1_455 S
C64 H43 0.950 . S
C64 C63 1.382 . S
C64 C80 1.411 . S
C65 C63 1.403 1_655 S
C65 C66 1.489 . S
C65 C79 1.411 . S
C66 C65 1.489 . S
C66 C67 1.383 1_655 S
C66 C71 1.382 . S
C67 H44 0.950 . S
C67 C66 1.383 1_455 S
C67 C68 1.395 . S
C68 H45 0.950 . S
C68 C67 1.395 . S
C68 C69 1.288 1_455 S
C69 C68 1.288 1_655 S
C69 C70 1.392 . S
C70 H46 0.951 . S
C70 C69 1.392 . S
C70 C71 1.392 . S
C71 H47 0.949 . S
C71 C66 1.382 . S
C71 C70 1.392 . S
C72 C73 1.376 . S
C72 C77 1.386 1_655 S
C72 C78 1.483 . S
C73 H48 0.949 . S
C73 C72 1.376 . S
C73 C74 1.397 . S
C74 H49 0.950 . S
C74 C73 1.397 . S
C74 C75 1.391 1_655 S
C75 C74 1.391 1_455 S
C75 C76 1.405 . S
C76 H50 0.950 . S
C76 C75 1.405 . S
C76 C77 1.367 . S
C77 H51 0.950 . S
C77 C72 1.386 1_455 S
C77 C76 1.367 . S
C78 C72 1.483 . S
C78 C79 1.382 . S
C78 C80 1.403 1_655 S
C79 H52 0.950 . S
C79 C65 1.411 . S
C79 C78 1.382 . S
C80 C64 1.411 . S
C80 C78 1.403 1_455 S
C80 C81 1.489 . S
C81 C80 1.489 . S
C81 C82 1.383 1_455 S
C81 C86 1.382 . S
C82 H53 0.950 . S
C82 C81 1.383 1_655 S
C82 C83 1.395 . S
C83 H54 0.950 . S
C83 C82 1.395 . S
C83 C84 1.288 1_655 S
C84 C83 1.288 1_455 S
C84 C85 1.392 . S
C85 H55 0.951 . S
C85 C84 1.392 . S
C85 C86 1.392 . S
C86 H56 0.949 . S
C86 C81 1.382 . S
C86 C85 1.392 . S
H87 C106 0.949 . S
H88 C107 0.950 . S
H89 C109 0.950 . S
H90 C110 0.950 . S
H91 C112 0.950 . S
H92 C115 0.950 . S
H93 C116 0.950 . S
H94 C118 0.951 . S
H95 C119 0.949 . S
H96 C121 0.949 . S
H97 C122 0.950 . S
H98 C124 0.950 . S
H99 C125 0.950 . S
H100 C127 0.950 . S
H101 C130 0.950 . S
H102 C131 0.950 . S
H103 C133 0.951 . S
H104 C134 0.949 . S
C105 C106 1.376 . S
C105 C110 1.386 1_545 S
C105 C111 1.483 . S
C106 H87 0.949 . S
C106 C105 1.376 . S
C106 C107 1.397 . S
C107 H88 0.950 . S
C107 C106 1.397 . S
C107 C108 1.391 . S
C108 C107 1.391 . S
C108 C109 1.405 1_545 S
C109 H89 0.950 . S
C109 C108 1.405 1_565 S
C109 C110 1.367 . S
C110 H90 0.950 . S
C110 C105 1.386 1_565 S
C110 C109 1.367 . S
C111 C105 1.483 . S
C111 C112 1.382 . S
C111 C113 1.403 1_545 S
C112 H91 0.950 . S
C112 C111 1.382 . S
C112 C128 1.411 . S
C113 C111 1.403 1_565 S
C113 C114 1.489 . S
C113 C127 1.411 . S
C114 C113 1.489 . S
C114 C115 1.383 1_565 S
C114 C119 1.382 . S
C115 H92 0.950 . S
C115 C114 1.383 1_545 S
C115 C116 1.395 . S
C116 H93 0.950 . S
C116 C115 1.395 . S
C116 C117 1.288 1_545 S
C117 C116 1.288 1_565 S
C117 C118 1.392 . S
C118 H94 0.951 . S
C118 C117 1.392 . S
C118 C119 1.392 . S
C119 H95 0.949 . S
C119 C114 1.382 . S
C119 C118 1.392 . S
C120 C121 1.376 . S
C120 C125 1.386 1_565 S
C120 C126 1.483 . S
C121 H96 0.949 . S
C121 C120 1.376 . S
C121 C122 1.397 . S
C122 H97 0.950 . S
C122 C121 1.397 . S
C122 C123 1.407 . S
C123 C122 1.407 . S
C123 C124 1.396 1_565 S
C124 H98 0.950 . S
C124 C123 1.396 1_545 S
C124 C125 1.367 . S
C125 H99 0.950 . S
C125 C120 1.386 1_545 S
C125 C124 1.367 . S
C126 C120 1.483 . S
C126 C127 1.382 . S
C126 C128 1.403 1_565 S
C127 H100 0.950 . S
C127 C113 1.411 . S
C127 C126 1.382 . S
C128 C112 1.411 . S
C128 C126 1.403 1_545 S
C128 C129 1.489 . S
C129 C128 1.489 . S
C129 C130 1.383 1_545 S
C129 C134 1.382 . S
C130 H101 0.950 . S
C130 C129 1.383 1_565 S
C130 C131 1.395 . S
C131 H102 0.950 . S
C131 C130 1.395 . S
C131 C132 1.288 1_565 S
C132 C131 1.288 1_545 S
C132 C133 1.392 . S
C133 H103 0.951 . S
C133 C132 1.392 . S
C133 C134 1.392 . S
C134 H104 0.949 . S
C134 C129 1.382 . S
C134 C133 1.392 . S
H135 C154 0.949 . S
H136 C155 0.950 . S
H137 C157 0.950 . S
H138 C158 0.950 . S
H139 C160 0.950 . S
H140 C163 0.950 . S
H141 C164 0.950 . S
H142 C166 0.951 . S
H143 C167 0.949 . S
H144 C169 0.949 . S
H145 C170 0.950 . S
H146 C172 0.950 . S
H147 C173 0.950 . S
H148 C175 0.950 . S
H149 C178 0.950 . S
H150 C179 0.950 . S
H151 C181 0.951 . S
H152 C182 0.949 . S
C153 C154 1.376 . S
C153 C158 1.386 . S
C153 C159 1.483 . S
C154 H135 0.949 . S
C154 C153 1.376 . S
C154 C155 1.397 . S
C155 H136 0.950 . S
C155 C154 1.397 . S
C155 C156 1.391 . S
C156 C155 1.391 . S
C156 C157 1.405 . S
C157 H137 0.950 . S
C157 C156 1.405 . S
C157 C158 1.367 . S
C158 H138 0.950 . S
C158 C153 1.386 . S
C158 C157 1.367 . S
C159 C153 1.483 . S
C159 C160 1.382 . S
C159 C161 1.403 . S
C160 H139 0.950 . S
C160 C159 1.382 . S
C160 C176 1.411 . S
C161 C159 1.403 . S
C161 C162 1.489 . S
C161 C175 1.411 . S
C162 C161 1.489 . S
C162 C163 1.383 . S
C162 C167 1.382 . S
C163 H140 0.950 . S
C163 C162 1.383 . S
C163 C164 1.395 . S
C164 H141 0.950 . S
C164 C163 1.395 . S
C164 C165 1.288 . S
C165 C164 1.288 . S
C165 C166 1.392 . S
C166 H142 0.951 . S
C166 C165 1.392 . S
C166 C167 1.392 . S
C167 H143 0.949 . S
C167 C162 1.382 . S
C167 C166 1.392 . S
C168 C169 1.376 . S
C168 C173 1.386 . S
C168 C174 1.483 . S
C169 H144 0.949 . S
C169 C168 1.376 . S
C169 C170 1.397 . S
C170 H145 0.950 . S
C170 C169 1.397 . S
C170 C171 1.391 . S
C171 C170 1.391 . S
C171 C172 1.405 . S
C172 H146 0.950 . S
C172 C171 1.405 . S
C172 C173 1.367 . S
C173 H147 0.950 . S
C173 C168 1.386 . S
C173 C172 1.367 . S
C174 C168 1.483 . S
C174 C175 1.382 . S
C174 C176 1.403 . S
C175 H148 0.950 . S
C175 C161 1.411 . S
C175 C174 1.382 . S
C176 C160 1.411 . S
C176 C174 1.403 . S
C176 C177 1.489 . S
C177 C176 1.489 . S
C177 C178 1.383 . S
C177 C182 1.382 . S
C178 H149 0.950 . S
C178 C177 1.383 . S
C178 C179 1.395 . S
C179 H150 0.950 . S
C179 C178 1.395 . S
C179 C180 1.288 . S
C180 C179 1.288 . S
C180 C181 1.392 . S
C181 H151 0.951 . S
C181 C180 1.392 . S
C181 C182 1.392 . S
C182 H152 0.949 . S
C182 C177 1.382 . S
C182 C181 1.392 . S
C183 C184 1.387 . S
C183 H187 0.950 . S
C183 C192 1.390 . S
C184 C183 1.387 . S
C184 C186 1.387 . S
H185 C192 0.950 . S
C186 C184 1.387 . S
C186 C188 1.391 1_455 S
C186 H190 0.950 1_455 S
H187 C183 0.950 . S
C188 C186 1.391 1_655 S
C188 C189 1.388 1_655 S
C188 H191 0.949 . S
C189 C188 1.388 1_455 S
C189 C192 1.387 . S
H190 C186 0.950 1_655 S
H191 C188 0.949 . S
C192 C183 1.390 . S
C192 H185 0.950 . S
C192 C189 1.387 . S
C193 C194 1.387 1_565 S
C193 H197 0.950 . S
C193 C202 1.390 . S
C194 C193 1.387 1_545 S
C194 C196 1.387 . S
H195 C202 0.950 . S
C196 C194 1.387 . S
C196 C198 1.390 . S
C196 H200 0.950 . S
H197 C193 0.950 . S
C198 C196 1.390 . S
C198 C199 1.387 . S
C198 H201 0.950 . S
C199 C198 1.387 . S
C199 C202 1.387 1_545 S
H200 C196 0.950 . S
H201 C198 0.950 . S
C202 C193 1.390 . S
C202 H195 0.950 . S
C202 C199 1.387 1_565 S
C203 C204 1.387 . S
C203 H207 0.950 . S
C203 C212 1.390 . S
C204 C203 1.387 . S
C204 C206 1.387 . S
H205 C212 0.950 . S
C206 C204 1.387 . S
C206 C208 1.390 . S
C206 H210 0.950 . S
H207 C203 0.950 . S
C208 C206 1.390 . S
C208 C209 1.387 . S
C208 H211 0.950 . S
C209 C208 1.387 . S
C209 C212 1.387 . S
H210 C206 0.950 . S
H211 C208 0.950 . S
C212 C203 1.390 . S
C212 H205 0.950 . S
C212 C209 1.387 . S
C213 C214 1.382 1_455 S
C213 H217 0.950 . S
C213 C222 1.390 . S
C214 C213 1.382 1_655 S
C214 C216 1.390 . S
H215 C222 0.950 . S
C216 C214 1.390 . S
C216 C218 1.390 . S
C216 H220 0.950 . S
H217 C213 0.950 . S
C218 C216 1.390 . S
C218 C219 1.387 1_655 S
C218 H221 0.950 . S
C219 C218 1.387 1_455 S
C219 C222 1.387 . S
H220 C216 0.950 . S
H221 C218 0.950 . S
C222 C213 1.390 . S
C222 H215 0.950 . S
C222 C219 1.387 . S
C223 C224 1.387 . S
C223 H227 0.950 . S
C223 C232 1.390 . S
C224 C223 1.387 . S
C224 C226 1.387 1_565 S
H225 C232 0.950 . S
C226 C224 1.387 1_545 S
C226 C228 1.390 . S
C226 H230 0.950 . S
H227 C223 0.950 . S
C228 C226 1.390 . S
C228 C229 1.387 . S
C228 H231 0.950 . S
C229 C228 1.387 . S
C229 C232 1.387 1_545 S
H230 C226 0.950 . S
H231 C228 0.950 . S
C232 C223 1.390 . S
C232 H225 0.950 . S
C232 C229 1.387 1_565 S
C233 C234 1.387 . S
C233 H237 0.950 . S
C233 C242 1.390 . S
C234 C233 1.387 . S
C234 C236 1.387 . S
H235 C242 0.950 . S
C236 C234 1.387 . S
C236 C238 1.390 . S
C236 H240 0.950 . S
H237 C233 0.950 . S
C238 C236 1.390 . S
C238 C239 1.387 . S
C238 H241 0.950 . S
C239 C238 1.387 . S
C239 C242 1.387 . S
H240 C236 0.950 . S
H241 C238 0.950 . S
C242 C233 1.390 . S
C242 H235 0.950 . S
C242 C239 1.387 . S
C243 C244 1.387 . S
C243 H247 0.950 . S
C243 C252 1.390 . S
C244 C243 1.387 . S
C244 C246 1.387 1_565 S
H245 C252 0.950 . S
C246 C244 1.387 1_545 S
C246 C248 1.390 . S
C246 H250 0.950 . S
H247 C243 0.950 . S
C248 C246 1.390 . S
C248 C249 1.387 . S
C248 H251 0.950 . S
C249 C248 1.387 . S
C249 C252 1.388 1_545 S
H250 C246 0.950 . S
H251 C248 0.950 . S
C252 C243 1.390 . S
C252 H245 0.950 . S
C252 C249 1.388 1_565 S
C253 C254 1.387 . S
C253 H257 0.950 1_556 S
C253 C262 1.390 . S
C254 C253 1.387 . S
C254 C256 1.387 . S
H255 C262 0.950 . S
C256 C254 1.387 . S
C256 C258 1.390 . S
C256 H260 0.950 . S
H257 C253 0.950 1_554 S
C258 C256 1.390 . S
C258 C259 1.387 . S
C258 H261 0.950 . S
C259 C258 1.387 . S
C259 C262 1.387 . S
H260 C256 0.950 . S
H261 C258 0.950 . S
C262 C253 1.390 . S
C262 H255 0.950 . S
C262 C259 1.387 . S
C263 C264 1.387 1_655 S
C263 H267 0.950 . S
C263 C272 1.390 . S
C264 C263 1.387 1_455 S
C264 C266 1.387 . S
H265 C272 0.950 . S
C266 C264 1.387 . S
C266 C268 1.390 . S
C266 H270 0.950 . S
H267 C263 0.950 . S
C268 C266 1.390 . S
C268 C269 1.387 . S
C268 H271 0.950 . S
C269 C268 1.387 . S
C269 C272 1.387 1_455 S
H270 C266 0.950 . S
H271 C268 0.950 . S
C272 C263 1.390 . S
C272 H265 0.950 . S
C272 C269 1.387 1_655 S
C273 C274 1.387 . S
C273 H277 0.950 . S
C273 C282 1.390 . S
C274 C273 1.387 . S
C274 C276 1.387 1_545 S
H275 C282 0.950 . S
C276 C274 1.387 1_565 S
C276 C278 1.390 . S
C276 H280 0.950 . S
H277 C273 0.950 . S
C278 C276 1.390 . S
C278 C279 1.387 1_565 S
C278 H281 0.950 . S
C279 C278 1.387 1_545 S
C279 C282 1.387 . S
H280 C276 0.950 . S
H281 C278 0.950 . S
C282 C273 1.390 . S
C282 H275 0.950 . S
C282 C279 1.387 . S
C283 C284 1.387 . S
C283 H287 0.950 . S
C283 C292 1.390 . S
C284 C283 1.387 . S
C284 C286 1.377 1_556 S
H285 C292 0.950 . S
C286 C284 1.377 1_554 S
C286 C288 1.376 1_554 S
C286 H290 0.975 . S
H287 C283 0.950 . S
C288 C286 1.376 1_556 S
C288 C289 1.387 . S
C288 H291 0.950 . S
C289 C288 1.387 . S
C289 C292 1.387 . S
H290 C286 0.975 . S
H291 C288 0.950 . S
C292 C283 1.390 . S
C292 H285 0.950 . S
C292 C289 1.387 . S
C293 C294 1.387 . S
C293 H297 0.950 . S
C293 C302 1.390 . S
C294 C293 1.387 . S
C294 C296 1.387 1_655 S
H295 C302 0.950 . S
C296 C294 1.387 1_455 S
C296 C298 1.390 . S
C296 H300 0.950 . S
H297 C293 0.950 . S
C298 C296 1.390 . S
C298 C299 1.387 . S
C298 H301 0.950 . S
C299 C298 1.387 . S
C299 C302 1.387 1_455 S
H300 C296 0.950 . S
H301 C298 0.950 . S
C302 C293 1.390 . S
C302 H295 0.950 . S
C302 C299 1.387 1_655 S
C189 C60 1.526 . S
C184 C10 1.527 . S
C194 C17 1.527 . S
C199 C108 1.526 . S
C204 C36 1.528 . S
C209 C180 1.526 . S
C214 C5 1.531 . S
C219 C84 1.525 . S
C229 C132 1.525 . S
C224 C16 1.529 . S
C234 C31 1.528 . S
C239 C156 1.526 . S
C249 C117 1.520 1_545 S
C244 C30 1.527 . S
C254 C3 1.528 1_556 S
C259 C171 1.527 . S
C269 C75 1.528 . S
C264 C18 1.529 . S
C279 C123 1.522 1_545 S
C274 C29 1.529 . S
C289 C165 1.520 . S
C284 C4 1.528 1_556 S
C294 C23 1.527 . S
C299 C69 1.521 1_455 S
