# Generated by pormake.
# Topology apo, (3,6)-cn, num edge types: 1
# Building blocks:
#     Node 0, Type 0, BuildingBlock: ESEHIV_clean_linker_0, # of connection points: 3
#     Node 1, Type 0, BuildingBlock: ESEHIV_clean_linker_0, # of connection points: 3
#     Node 2, Type 0, BuildingBlock: ESEHIV_clean_linker_0, # of connection points: 3
#     Node 3, Type 0, BuildingBlock: ESEHIV_clean_linker_0, # of connection points: 3
#     Node 4, Type 0, BuildingBlock: ESEHIV_clean_linker_0, # of connection points: 3
#     Node 5, Type 0, BuildingBlock: ESEHIV_clean_linker_0, # of connection points: 3
#     Node 6, Type 0, BuildingBlock: ESEHIV_clean_linker_0, # of connection points: 3
#     Node 7, Type 0, BuildingBlock: ESEHIV_clean_linker_0, # of connection points: 3
#     Node 8, Type 1, BuildingBlock: KUMBOL_clean_sbu_1, # of connection points: 6
#     Node 9, Type 1, BuildingBlock: KUMBOL_clean_sbu_1, # of connection points: 6
#     Node 10, Type 1, BuildingBlock: KUMBOL_clean_sbu_1, # of connection points: 6
#     Node 11, Type 1, BuildingBlock: KUMBOL_clean_sbu_1, # of connection points: 6
#     Edge 12, Type (0, 1), None
#     Edge 13, Type (0, 1), None
#     Edge 14, Type (0, 1), None
#     Edge 15, Type (0, 1), None
#     Edge 16, Type (0, 1), None
#     Edge 17, Type (0, 1), None
#     Edge 18, Type (0, 1), None
#     Edge 19, Type (0, 1), None
#     Edge 20, Type (0, 1), None
#     Edge 21, Type (0, 1), None
#     Edge 22, Type (0, 1), None
#     Edge 23, Type (0, 1), None
#     Edge 24, Type (0, 1), None
#     Edge 25, Type (0, 1), None
#     Edge 26, Type (0, 1), None
#     Edge 27, Type (0, 1), None
#     Edge 28, Type (0, 1), None
#     Edge 29, Type (0, 1), None
#     Edge 30, Type (0, 1), None
#     Edge 31, Type (0, 1), None
#     Edge 32, Type (0, 1), None
#     Edge 33, Type (0, 1), None
#     Edge 34, Type (0, 1), None
#     Edge 35, Type (0, 1), None
# Relax obj value: 0.004
# Max RMSD: 0.210
# Mean RMSD: 0.151
data_MOF--net-apo--node1-KUMBOL_clean_sbu_1--node2-ESEHIV_clean_linker_0--edge1-none
_symmetry_space_group_name_H-M    P1
_symmetry_Int_Tables_number       1
_symmetry_cell_setting            triclinic
loop_
_symmetry_equiv_pos_as_xyz
'x, y, z'
_cell_length_a     11.655466
_cell_length_b     16.105969
_cell_length_c     23.444003
_cell_angle_alpha  90.127771
_cell_angle_beta   90.03505
_cell_angle_gamma 85.843013
loop_
_atom_site_label
_atom_site_type_symbol
_atom_site_fract_x
_atom_site_fract_y
_atom_site_fract_z
_atom_type_partial_charge
H0 H 0.27933 0.52302 0.46731 0.0
H1 H 0.22149 0.37092 0.31979 0.0
H2 H 0.08925 0.30808 0.48575 0.0
C3 C 0.24756 0.46779 0.44811 0.0
C4 C 0.18712 0.41596 0.48299 0.0
C5 C 0.25984 0.45363 0.38897 0.0
C6 C 0.21238 0.38277 0.36513 0.0
C7 C 0.15295 0.3275 0.40004 0.0
C8 C 0.14002 0.34599 0.45889 0.0
H9 H 0.05804 0.96371 0.96713 0.0
H10 H 0.11608 0.11502 0.81974 0.0
H11 H 0.24948 0.17808 0.98569 0.0
C12 C 0.08997 0.01878 0.94797 0.0
C13 C 0.15092 0.07051 0.98287 0.0
C14 C 0.07756 0.03273 0.88886 0.0
C15 C 0.12527 0.10336 0.86507 0.0
C16 C 0.1851 0.15862 0.90002 0.0
C17 C 0.19829 0.14026 0.95883 0.0
H18 H 0.70539 0.04364 0.63651 0.0
H19 H 0.60603 0.06017 0.81321 0.0
H20 H 0.55337 0.27262 0.70594 0.0
C21 C 0.67244 0.07968 0.67249 0.0
C22 C 0.63117 0.16337 0.66417 0.0
C23 C 0.672 0.04298 0.72724 0.0
C24 C 0.61231 0.08712 0.7713 0.0
C25 C 0.55732 0.16598 0.76101 0.0
C26 C 0.58308 0.20773 0.71083 0.0
H27 H 0.63459 0.44203 0.13648 0.0
H28 H 0.73368 0.42561 0.31322 0.0
H29 H 0.78692 0.21318 0.20531 0.0
C30 C 0.6675 0.40603 0.17239 0.0
C31 C 0.70903 0.3224 0.16383 0.0
C32 C 0.66762 0.4427 0.22726 0.0
C33 C 0.72753 0.39866 0.27122 0.0
C34 C 0.78267 0.31979 0.26074 0.0
C35 C 0.7572 0.27808 0.21037 0.0
H36 H 0.55877 0.46249 0.67683 0.0
H37 H 0.74893 0.67739 0.6584 0.0
H38 H 0.61667 0.61457 0.82435 0.0
C39 C 0.59056 0.51771 0.69604 0.0
C40 C 0.57828 0.53188 0.75518 0.0
C41 C 0.65102 0.56953 0.66116 0.0
C42 C 0.69814 0.63949 0.68525 0.0
C43 C 0.6852 0.65799 0.7441 0.0
C44 C 0.62577 0.60273 0.77902 0.0
H45 H 0.78027 0.02172 0.17701 0.0
H46 H 0.72216 0.87044 0.3244 0.0
H47 H 0.58872 0.8074 0.15846 0.0
C48 C 0.74831 0.96665 0.19617 0.0
C49 C 0.68733 0.91494 0.16127 0.0
C50 C 0.76071 0.95271 0.25528 0.0
C51 C 0.71297 0.88209 0.27907 0.0
C52 C 0.65313 0.82684 0.24413 0.0
C53 C 0.63994 0.8452 0.18531 0.0
H54 H 0.13263 0.94172 0.50764 0.0
H55 H 0.28463 0.71276 0.43815 0.0
H56 H 0.232 0.92527 0.33093 0.0
C57 C 0.16558 0.90569 0.47165 0.0
C58 C 0.16604 0.94242 0.41691 0.0
C59 C 0.20683 0.82199 0.47994 0.0
C60 C 0.25491 0.77765 0.43328 0.0
C61 C 0.28068 0.81943 0.38311 0.0
C62 C 0.2257 0.8983 0.37284 0.0
H63 H 0.20377 0.54355 1.00766 0.0
H64 H 0.10467 0.5599 0.83092 0.0
H65 H 0.05148 0.77239 0.93878 0.0
C66 C 0.17086 0.57955 0.97175 0.0
C67 C 0.12935 0.66319 0.98029 0.0
C68 C 0.17072 0.54285 0.91689 0.0
C69 C 0.11084 0.58687 0.87292 0.0
C70 C 0.05571 0.66575 0.88338 0.0
C71 C 0.0812 0.70749 0.93374 0.0
C72 C 0.6196 0.10549 0.42373 0.0
C73 C 0.62845 0.00269 0.4992 0.0
C74 C 0.68328 0.04624 0.45637 0.0
C75 C 0.50885 0.01255 0.50514 0.0
C76 C 0.5006 0.12207 0.43453 0.0
C77 C 0.44501 0.07325 0.47381 0.0
N78 N 0.6748 0.15109 0.38489 0.0
C79 C 0.61494 0.21311 0.35554 0.0
C80 C 0.44093 0.18796 0.40605 0.0
C81 C 0.49807 0.23292 0.36576 0.0
Gd82 Gd 0.05341 0.11951 0.28198 0.0
Gd83 Gd 0.87675 0.13567 0.39285 0.0
N84 N 0.79951 0.03617 0.44978 0.0
C85 C 0.69608 0.95404 0.53718 0.0
C86 C 0.865 0.98475 0.48459 0.0
C87 C 0.81459 0.94371 0.52935 0.0
H88 H -0.04368 0.98202 0.48106 0.0
H89 H 0.8669 0.90678 0.55916 0.0
H90 H -0.03707 0.27601 0.1944 0.0
H91 H 0.65659 0.25047 0.3263 0.0
H92 H 0.02478 0.31726 0.09924 0.0
H93 H 0.65761 0.92621 0.57384 0.0
H94 H 0.46569 0.97377 0.53433 0.0
H95 H 0.29594 0.04813 0.36132 0.0
H96 H 0.35039 0.20341 0.41406 0.0
H97 H 0.45248 0.28346 0.34286 0.0
H98 H 0.42353 0.23115 0.0969 0.0
H99 H 0.35305 0.0827 0.48082 0.0
H100 H 0.58273 0.07541 0.25393 0.0
H101 H 0.49715 0.01249 0.33822 0.0
N102 N 0.2571 0.11479 0.28522 0.0
C103 C 0.30377 0.15031 0.23885 0.0
C104 C 0.32699 0.06943 0.32197 0.0
C105 C 0.49185 0.08677 0.26227 0.0
C106 C 0.44368 0.05154 0.30984 0.0
C107 C 0.42223 0.13727 0.22627 0.0
H108 H 0.55705 0.16167 0.16628 0.0
N109 N 0.12007 0.21367 0.21656 0.0
C110 C 0.23247 0.19832 0.20259 0.0
C111 C 0.19783 0.26421 0.11139 0.0
C112 C 0.27497 0.22594 0.1503 0.0
C113 C 0.04905 0.26173 0.18226 0.0
C114 C 0.08479 0.28478 0.12818 0.0
O115 O 0.81553 0.02277 0.34482 0.0
O116 O 0.8864 0.06405 0.25931 0.0
O117 O 0.00564 0.09096 0.19563 0.0
O118 O 0.12289 0.00374 0.24378 0.0
O119 O 0.03464 0.04812 0.37062 0.0
O120 O 0.03769 0.04801 0.3679 0.0
O121 O 0.10522 0.23896 0.32021 0.0
O122 O 0.04067 0.20502 0.40895 0.0
O123 O 0.89621 0.15783 0.48351 0.0
O124 O 0.81457 0.25454 0.42747 0.0
O125 O 0.88509 0.19879 0.30559 0.0
O126 O 0.88151 0.20062 0.30748 0.0
C127 C 0.82513 0.01394 0.28894 0.0
C128 C 0.11458 0.02938 0.40871 0.0
C129 C 0.15038 0.01442 0.1421 0.0
C130 C 0.18593 0.03887 1.04033 0.0
C131 C 0.31188 0.94128 0.09421 0.0
C132 C 0.24956 0.95974 0.1437 0.0
C133 C 0.28147 0.98149 1.04329 0.0
C134 C 0.11828 0.05402 0.08972 0.0
C135 C 0.07675 0.02418 0.19376 0.0
C136 C 0.39164 0.21188 0.13747 0.0
C137 C 0.46643 0.17128 0.17659 0.0
H138 H 0.22576 0.28068 1.06909 0.0
C139 C 0.09734 0.25404 0.37517 0.0
C140 C 0.86408 0.28115 0.30333 0.0
C141 C 0.72767 0.23562 0.51769 0.0
C142 C 0.6307 0.20423 0.60691 0.0
C143 C 0.53859 0.30166 0.53853 0.0
C144 C 0.63221 0.28917 0.50219 0.0
C145 C 0.53871 0.2611 0.59082 0.0
C146 C 0.72356 0.19032 0.56902 0.0
C147 C 0.83011 0.22742 0.48003 0.0
H148 H 0.385 0.89601 0.09557 0.0
H149 H 0.2768 0.92847 0.1828 0.0
H150 H 0.333 0.96831 1.00565 0.0
H151 H 0.04049 0.09481 0.08702 0.0
H152 H 0.46647 0.34412 0.52646 0.0
H153 H 0.62989 0.32242 0.4621 0.0
H154 H 0.46618 0.27496 0.61844 0.0
H155 H 0.79457 0.147 0.58069 0.0
C156 C 0.71816 0.38193 0.92437 0.0
C157 C 0.70802 0.48484 1.00007 0.0
C158 C 0.65381 0.44093 0.95704 0.0
C159 C 0.82763 0.4757 1.00614 0.0
C160 C 0.83723 0.366 0.9353 0.0
C161 C 0.89219 0.41529 0.97472 0.0
N162 N 0.66353 0.33582 0.88545 0.0
C163 C 0.72396 0.27374 0.85624 0.0
C164 C 0.89751 0.30007 0.90697 0.0
C165 C 0.84087 0.25446 0.86667 0.0
Gd166 Gd 0.28548 0.36559 0.78186 0.0
Gd167 Gd 0.46151 0.35033 0.89306 0.0
N168 N 0.53755 0.45032 0.95035 0.0
C169 C 0.63982 0.53313 1.03811 0.0
C170 C 0.47146 0.50139 0.98523 0.0
C171 C 0.52132 0.54277 1.03015 0.0
H172 H 0.38018 0.50351 0.98163 0.0
H173 H 0.46867 0.57946 1.06 0.0
H174 H 0.37761 0.20824 0.69464 0.0
H175 H 0.68264 0.23585 0.82705 0.0
H176 H 0.31746 0.16638 0.59918 0.0
H177 H 0.67785 0.56136 0.07486 0.0
H178 H 0.87018 0.51472 1.03558 0.0
H179 H 0.04188 0.43647 0.86044 0.0
H180 H -0.01191 0.28501 0.91515 0.0
H181 H 0.88689 0.20383 0.84392 0.0
H182 H -0.08091 0.25335 0.59474 0.0
H183 H -0.01584 0.40631 0.98186 0.0
H184 H 0.75653 0.40813 0.75193 0.0
H185 H 0.8406 0.47115 0.83683 0.0
N186 N 0.08186 0.36964 0.78435 0.0
C187 C 0.03605 0.33406 0.73765 0.0
C188 C 0.01131 0.41488 0.82097 0.0
C189 C 0.84734 0.39699 0.7606 0.0
C190 C 0.89466 0.4323 0.80851 0.0
C191 C -0.08223 0.34685 0.72461 0.0
H192 H 0.78414 0.32251 0.66382 0.0
N193 N 0.22023 0.27096 0.71603 0.0
C194 C 0.10808 0.28618 0.70155 0.0
C195 C 0.14437 0.21991 0.61041 0.0
C196 C 0.06656 0.25846 0.64897 0.0
C197 C 0.29181 0.22266 0.68205 0.0
C198 C 0.25703 0.19925 0.62779 0.0
O199 O 0.52312 0.46258 0.84473 0.0
O200 O 0.45274 0.42047 0.75915 0.0
O201 O 0.33282 0.39444 0.69564 0.0
O202 O 0.21586 0.48153 0.74426 0.0
O203 O 0.30334 0.43754 0.87064 0.0
O204 O 0.30023 0.43764 0.86787 0.0
O205 O 0.23328 0.24655 0.8202 0.0
O206 O 0.29761 0.28104 0.90904 0.0
O207 O 0.44282 0.32778 0.98362 0.0
O208 O 0.5242 0.23135 0.92707 0.0
O209 O 0.45377 0.28673 0.80585 0.0
O210 O 0.45727 0.2849 0.80769 0.0
C211 C 0.51393 0.47081 0.78881 0.0
C212 C 0.22275 0.456 0.90847 0.0
C213 C 0.18795 0.47123 0.64253 0.0
C214 C 0.15239 0.44748 0.54058 0.0
C215 C 0.02607 0.54437 0.59505 0.0
C216 C 0.08851 0.52566 0.64445 0.0
C217 C 0.05666 0.50467 0.54387 0.0
C218 C 0.22009 0.43206 0.58991 0.0
C219 C 0.26176 0.46126 0.69412 0.0
C220 C -0.04984 0.27257 0.63557 0.0
C221 C 0.87458 0.31299 0.67451 0.0
H222 H 0.11718 0.20312 0.56798 0.0
C223 C 0.24096 0.23185 0.87519 0.0
C224 C 0.47531 0.20441 0.80346 0.0
C225 C 0.61163 0.24994 1.0173 0.0
C226 C 0.70926 0.28148 0.10647 0.0
C227 C 0.80085 0.1839 1.03779 0.0
C228 C 0.7069 0.19627 1.0016 0.0
C229 C 0.80118 0.22464 0.09015 0.0
C230 C 0.61616 0.29531 1.06871 0.0
C231 C 0.50895 0.25823 0.97976 0.0
H232 H -0.04723 0.58947 0.59667 0.0
H233 H 0.06123 0.55658 0.68374 0.0
H234 H 0.00507 0.51802 0.50629 0.0
H235 H 0.29796 0.39136 0.58699 0.0
H236 H 0.87287 0.1414 1.02555 0.0
H237 H 0.70882 0.16284 0.96148 0.0
H238 H 0.87396 0.21094 0.11764 0.0
H239 H 0.54529 0.33864 0.08057 0.0
C240 C 0.53459 0.83505 0.9054 0.0
C241 C 0.56358 0.75948 0.99396 0.0
C242 C 0.60598 0.78708 0.94165 0.0
C243 C 0.44693 0.77352 1.00685 0.0
C244 C 0.41614 0.84806 0.91803 0.0
C245 C 0.37205 0.81407 0.96775 0.0
N246 N 0.58117 0.87056 0.85901 0.0
C247 C 0.51119 0.91591 0.82229 0.0
C248 C 0.34643 0.8985 0.88204 0.0
C249 C 0.39451 0.93374 0.83445 0.0
Gd250 Gd -0.03859 0.84981 0.75127 0.0
Gd251 Gd 0.78484 0.86593 0.86218 0.0
N252 N 0.71836 0.77174 0.92763 0.0
C253 C 0.64079 0.72122 1.03285 0.0
C254 C 0.78943 0.72369 0.96191 0.0
C255 C 0.75379 0.70064 1.01601 0.0
H256 H 0.87551 0.70937 0.94973 0.0
H257 H 0.81385 0.66814 1.04492 0.0
H258 H 0.88167 0.00328 0.66299 0.0
H259 H 0.54219 0.93724 0.78293 0.0
H260 H -0.02901 0.07858 0.58487 0.0
H261 H 0.61294 0.70474 0.07516 0.0
H262 H 0.41512 0.75425 1.04744 0.0
H263 H 0.18164 0.73495 0.81767 0.0
H264 H 0.25556 0.90984 0.89041 0.0
H265 H 0.34097 0.97276 0.80608 0.0
H266 H 0.37226 0.01194 0.60976 0.0
H267 H 0.28145 0.82367 0.97809 0.0
H268 H 0.48781 0.78229 0.72998 0.0
H269 H 0.38578 0.70209 0.80112 0.0
N270 N 0.16338 0.83445 0.75918 0.0
C271 C 0.21852 0.88011 0.72035 0.0
C272 C 0.22328 0.7724 0.78849 0.0
C273 C 0.39726 0.7977 0.738 0.0
C274 C 0.34016 0.75265 0.77826 0.0
C275 C 0.33753 0.86359 0.70955 0.0
H276 H 0.48503 0.90307 0.66327 0.0
N277 N 0.03855 0.94932 0.6943 0.0
C278 C 0.15478 0.93933 0.68772 0.0
C279 C 0.14186 0.03149 0.60689 0.0
C280 C 0.20954 0.98291 0.64488 0.0
C281 C -0.02702 0.00066 0.65947 0.0
C282 C 0.02333 0.04171 0.6147 0.0
O283 O 0.73301 0.7465 0.82394 0.0
O284 O 0.79749 0.78047 0.73519 0.0
O285 O -0.05809 0.82758 0.66063 0.0
O286 O 0.0236 0.73092 0.71669 0.0
O287 O -0.04683 0.7867 0.83853 0.0
O288 O -0.04327 0.78487 0.83665 0.0
O289 O 0.02267 0.96269 0.79932 0.0
O290 O -0.04814 0.9214 0.88483 0.0
O291 O 0.83262 0.89454 0.94851 0.0
O292 O 0.71531 0.98171 0.90036 0.0
O293 O 0.8035 0.93734 0.77353 0.0
O294 O 0.80044 0.93745 0.77625 0.0
C295 C 0.74085 0.73143 0.76898 0.0
C296 C -0.02577 0.70435 0.8408 0.0
C297 C 0.11043 0.74978 0.62645 0.0
C298 C 0.20733 0.78113 0.53721 0.0
C299 C 0.29948 0.68371 0.60558 0.0
C300 C 0.20591 0.69624 0.64195 0.0
C301 C 0.29931 0.72425 0.55327 0.0
C302 C 0.1145 0.79506 0.57511 0.0
C303 C 0.00803 0.758 0.66413 0.0
C304 C 0.32915 0.97313 0.63895 0.0
C305 C 0.39307 0.91247 0.67028 0.0
H306 H 0.18029 0.05935 0.57022 0.0
C307 C 0.01312 0.9715 0.85521 0.0
C308 C 0.72349 0.95604 0.73547 0.0
C309 C 0.68787 0.97107 1.00204 0.0
C310 C 0.65232 0.94659 0.10381 0.0
C311 C 0.52639 0.04423 1.04995 0.0
C312 C 0.5887 0.02577 1.00045 0.0
C313 C 0.5568 0.00399 0.10086 0.0
C314 C 0.71996 0.93145 1.05442 0.0
C315 C 0.76148 0.9613 0.95038 0.0
H316 H 0.3716 0.64124 0.61764 0.0
H317 H 0.20826 0.663 0.68204 0.0
H318 H 0.37181 0.71036 0.52564 0.0
H319 H 0.04349 0.83839 0.56345 0.0
H320 H 0.45328 0.0895 1.04859 0.0
H321 H 0.56148 0.05705 0.96136 0.0
H322 H 0.50527 0.01717 0.1385 0.0
H323 H 0.79774 0.89065 1.05711 0.0
C324 C 0.80198 0.65151 0.4066 0.0
C325 C 0.77129 0.72706 0.49529 0.0
C326 C 0.72987 0.69936 0.44268 0.0
C327 C 0.88767 0.71296 0.50874 0.0
C328 C -0.07976 0.63874 0.41969 0.0
C329 C -0.03667 0.67258 0.46982 0.0
N330 N 0.75625 0.61594 0.35988 0.0
C331 C 0.82688 0.57072 0.32328 0.0
C332 C -0.00924 0.58866 0.38371 0.0
C333 C -0.05647 0.55334 0.33578 0.0
Gd334 Gd 0.37671 0.63513 0.25107 0.0
Gd335 Gd 0.55265 0.61991 0.3623 0.0
N336 N 0.61774 0.71457 0.42815 0.0
C337 C 0.69342 0.76561 0.53382 0.0
C338 C 0.54611 0.76288 0.46211 0.0
C339 C 0.5808 0.78628 0.51639 0.0
H340 H 0.46035 0.77734 0.44948 0.0
H341 H 0.52033 0.81918 0.54497 0.0
H342 H 0.45821 0.48213 0.16242 0.0
H343 H 0.79637 0.5491 0.28381 0.0
H344 H 0.36982 0.40614 0.08403 0.0
H345 H 0.72053 0.78241 0.57627 0.0
H346 H -0.08134 0.73218 0.54958 0.0
H347 H 0.15552 0.74963 0.31695 0.0
H348 H 0.08156 0.57754 0.39241 0.0
H349 H -0.00234 0.51453 0.30746 0.0
H350 H -0.03175 0.47054 0.1085 0.0
H351 H 0.05375 0.66307 0.48055 0.0
H352 H 0.85011 0.70024 0.2289 0.0
H353 H -0.04877 0.78154 0.30008 0.0
N354 N 0.17467 0.64958 0.25863 0.0
C355 C 0.1201 0.60341 0.21971 0.0
C356 C 0.11421 0.71167 0.28781 0.0
C357 C -0.05931 0.68522 0.23708 0.0
C358 C -0.00271 0.7309 0.27736 0.0
C359 C 0.00102 0.61928 0.20878 0.0
H360 H 0.85415 0.57887 0.16222 0.0
N361 N 0.30077 0.53514 0.19373 0.0
C362 C 0.18451 0.54445 0.18705 0.0
C363 C 0.19862 0.45229 0.10596 0.0
C364 C 0.13036 0.50051 0.14401 0.0
C365 C 0.36693 0.48416 0.15883 0.0
C366 C 0.31714 0.44275 0.1139 0.0
O367 O 0.60488 0.73893 0.32395 0.0
O368 O 0.54061 0.70442 0.2351 0.0
O369 O 0.39544 0.65776 0.16052 0.0
O370 O 0.314 0.75413 0.2171 0.0
O371 O 0.38436 0.69873 0.33827 0.0
O372 O 0.38086 0.70056 0.33644 0.0
O373 O 0.31506 0.5229 0.29941 0.0
O374 O 0.38539 0.56503 0.385 0.0
O375 O 0.50531 0.59102 0.44851 0.0
O376 O 0.62231 0.50396 0.39989 0.0
O377 O 0.5349 0.54794 0.27352 0.0
O378 O 0.53802 0.54784 0.27629 0.0
C379 C 0.59724 0.75362 0.26896 0.0
C380 C 0.36277 0.78104 0.34067 0.0
C381 C 0.22665 0.7356 0.12684 0.0
C382 C 0.12911 0.70412 1.03765 0.0
C383 C 0.03748 0.80169 0.10631 0.0
C384 C 0.13137 0.78927 0.14253 0.0
C385 C 0.0372 0.76098 1.05395 0.0
C386 C 0.22216 0.69025 0.07542 0.0
C387 C 0.32929 0.7273 0.1644 0.0
C388 C 0.01074 0.50958 0.13795 0.0
C389 C -0.05388 0.56995 0.16937 0.0
H390 H 0.16063 0.42405 1.0692 0.0
C391 C 0.3242 0.51469 0.35534 0.0
C392 C 0.61556 0.52953 0.23571 0.0
C393 C 0.65019 0.51423 0.50162 0.0
C394 C 0.68575 0.53799 0.60356 0.0
C395 C 0.81203 0.44107 0.54911 0.0
C396 C 0.7496 0.45978 0.4997 0.0
C397 C 0.78145 0.48079 0.60029 0.0
C398 C 0.61805 0.55342 0.55424 0.0
C399 C 0.57639 0.5242 0.45003 0.0
H400 H -0.03455 0.8442 0.11854 0.0
H401 H 0.12942 0.82268 0.18266 0.0
H402 H -0.03554 0.77472 1.02644 0.0
H403 H 0.29303 0.64692 1.06358 0.0
H404 H 0.88533 0.39596 0.5475 0.0
H405 H 0.77687 0.42884 0.46041 0.0
H406 H 0.83304 0.46744 0.63787 0.0
H407 H 0.5402 0.59413 0.55714 0.0
loop_
_geom_bond_atom_site_label_1
_geom_bond_atom_site_label_2
_geom_bond_distance
_geom_bond_site_symmetry_2
_ccdc_geom_bond_type
H0 C3 0.931 . S
H1 C6 0.928 . S
H2 C8 0.930 . S
C3 H0 0.931 . S
C3 C4 1.413 . S
C3 C5 1.360 . S
C4 C3 1.413 . S
C4 C8 1.429 . S
C5 C3 1.360 . S
C5 C6 1.372 . S
C6 H1 0.928 . S
C6 C5 1.372 . S
C6 C7 1.404 . S
C7 C6 1.404 . S
C7 C8 1.391 . S
C8 H2 0.930 . S
C8 C4 1.429 . S
C8 C7 1.391 . S
H9 C12 0.931 . S
H10 C15 0.928 . S
H11 C17 0.930 . S
C12 H9 0.931 . S
C12 C13 1.413 . S
C12 C14 1.360 . S
C13 C12 1.413 . S
C13 C17 1.429 . S
C14 C12 1.360 . S
C14 C15 1.372 . S
C15 H10 0.928 . S
C15 C14 1.372 . S
C15 C16 1.404 . S
C16 C15 1.404 . S
C16 C17 1.391 . S
C17 H11 0.930 . S
C17 C13 1.429 . S
C17 C16 1.391 . S
H18 C21 0.931 . S
H19 C24 0.928 . S
H20 C26 0.930 . S
C21 H18 0.931 . S
C21 C22 1.413 . S
C21 C23 1.360 . S
C22 C21 1.413 . S
C22 C26 1.429 . S
C23 C21 1.360 . S
C23 C24 1.372 . S
C24 H19 0.928 . S
C24 C23 1.372 . S
C24 C25 1.404 . S
C25 C24 1.404 . S
C25 C26 1.391 . S
C26 H20 0.930 . S
C26 C22 1.429 . S
C26 C25 1.391 . S
H27 C30 0.931 . S
H28 C33 0.928 . S
H29 C35 0.930 . S
C30 H27 0.931 . S
C30 C31 1.413 . S
C30 C32 1.360 . S
C31 C30 1.413 . S
C31 C35 1.429 . S
C32 C30 1.360 . S
C32 C33 1.372 . S
C33 H28 0.928 . S
C33 C32 1.372 . S
C33 C34 1.404 . S
C34 C33 1.404 . S
C34 C35 1.391 . S
C35 H29 0.930 . S
C35 C31 1.429 . S
C35 C34 1.391 . S
H36 C39 0.931 . S
H37 C42 0.928 . S
H38 C44 0.930 . S
C39 H36 0.931 . S
C39 C40 1.413 . S
C39 C41 1.360 . S
C40 C39 1.413 . S
C40 C44 1.429 . S
C41 C39 1.360 . S
C41 C42 1.372 . S
C42 H37 0.928 . S
C42 C41 1.372 . S
C42 C43 1.404 . S
C43 C42 1.404 . S
C43 C44 1.391 . S
C44 H38 0.930 . S
C44 C40 1.429 . S
C44 C43 1.391 . S
H45 C48 0.931 . S
H46 C51 0.928 . S
H47 C53 0.930 . S
C48 H45 0.931 . S
C48 C49 1.413 . S
C48 C50 1.360 . S
C49 C48 1.413 . S
C49 C53 1.429 . S
C50 C48 1.360 . S
C50 C51 1.372 . S
C51 H46 0.928 . S
C51 C50 1.372 . S
C51 C52 1.404 . S
C52 C51 1.404 . S
C52 C53 1.391 . S
C53 H47 0.930 . S
C53 C49 1.429 . S
C53 C52 1.391 . S
H54 C57 0.931 . S
H55 C60 0.928 . S
H56 C62 0.930 . S
C57 H54 0.931 . S
C57 C58 1.413 . S
C57 C59 1.360 . S
C58 C57 1.413 . S
C58 C62 1.429 . S
C59 C57 1.360 . S
C59 C60 1.372 . S
C60 H55 0.928 . S
C60 C59 1.372 . S
C60 C61 1.404 . S
C61 C60 1.404 . S
C61 C62 1.391 . S
C62 H56 0.930 . S
C62 C58 1.429 . S
C62 C61 1.391 . S
H63 C66 0.931 . S
H64 C69 0.928 . S
H65 C71 0.930 . S
C66 H63 0.931 . S
C66 C67 1.413 . S
C66 C68 1.360 . S
C67 C66 1.413 . S
C67 C71 1.429 . S
C68 C66 1.360 . S
C68 C69 1.372 . S
C69 H64 0.928 . S
C69 C68 1.372 . S
C69 C70 1.404 . S
C70 C69 1.404 . S
C70 C71 1.391 . S
C71 H65 0.930 . S
C71 C67 1.429 . S
C71 C70 1.391 . S
C72 C74 1.422 . S
C72 C76 1.415 . S
C72 N78 1.369 . S
C73 C74 1.421 1_565 S
C73 C75 1.417 . S
C73 C85 1.422 . S
C74 C72 1.422 . S
C74 C73 1.421 1_545 S
C74 N84 1.359 . S
C75 C73 1.417 . S
C75 C77 1.329 . S
C75 H94 0.930 . S
C76 C72 1.415 . S
C76 C77 1.437 1_545 S
C76 C80 1.413 . S
C77 C75 1.329 . S
C77 C76 1.437 1_565 S
C77 H99 0.929 . S
N78 C72 1.369 . S
N78 C79 1.338 . S
N78 Gd83 2.622 . S
C79 N78 1.338 . S
C79 C81 1.378 . S
C79 H91 0.929 . S
C80 C76 1.413 . S
C80 C81 1.348 . S
C80 H96 0.931 . S
C81 C79 1.378 . S
C81 C80 1.348 . S
C81 H97 0.930 . S
Gd82 N102 2.622 . S
Gd82 N109 2.570 . S
Gd82 O116 2.353 1_455 S
Gd82 O117 2.468 . S
Gd82 O118 2.427 . S
Gd82 O120 2.388 . S
Gd82 O121 2.386 . S
Gd82 O125 2.307 1_455 S
Gd82 C135 2.805 . S
Gd83 N78 2.622 . S
Gd83 N84 2.570 . S
Gd83 O115 2.386 . S
Gd83 O119 2.307 1_655 S
Gd83 O122 2.353 1_655 S
Gd83 O123 2.468 . S
Gd83 O124 2.427 . S
Gd83 O126 2.388 . S
Gd83 C147 2.805 . S
N84 C74 1.359 . S
N84 Gd83 2.570 . S
N84 C86 1.343 1_545 S
C85 C73 1.422 . S
C85 C87 1.321 . S
C85 H93 0.931 . S
C86 N84 1.343 1_565 S
C86 C87 1.390 . S
C86 H88 0.931 . S
C87 C85 1.321 . S
C87 C86 1.390 . S
C87 H89 0.930 . S
H88 C86 0.931 . S
H89 C87 0.930 . S
H90 C113 0.931 . S
H91 C79 0.929 . S
H92 C114 0.930 . S
H93 C85 0.931 . S
H94 C75 0.930 . S
H95 C104 0.929 . S
H96 C80 0.931 . S
H97 C81 0.930 . S
H98 C136 0.930 . S
H99 C77 0.929 . S
H100 C105 0.931 . S
H101 C106 0.930 . S
N102 Gd82 2.622 . S
N102 C103 1.369 . S
N102 C104 1.338 . S
C103 N102 1.369 . S
C103 C107 1.415 . S
C103 C110 1.422 . S
C104 H95 0.929 . S
C104 N102 1.338 . S
C104 C106 1.378 . S
C105 H100 0.931 . S
C105 C106 1.348 . S
C105 C107 1.413 . S
C106 H101 0.930 . S
C106 C104 1.378 . S
C106 C105 1.348 . S
C107 C103 1.415 . S
C107 C105 1.413 . S
C107 C137 1.437 . S
H108 C137 0.929 . S
N109 Gd82 2.570 . S
N109 C110 1.359 . S
N109 C113 1.343 . S
C110 C103 1.422 . S
C110 N109 1.359 . S
C110 C112 1.421 . S
C111 C112 1.422 . S
C111 C114 1.321 . S
C111 H138 0.931 . S
C112 C110 1.421 . S
C112 C111 1.422 . S
C112 C136 1.417 . S
C113 H90 0.931 . S
C113 N109 1.343 . S
C113 C114 1.390 . S
C114 H92 0.930 . S
C114 C111 1.321 . S
C114 C113 1.390 . S
O115 Gd83 2.386 . S
O115 C127 1.265 . S
O116 Gd82 2.353 1_655 S
O116 C127 1.242 . S
O117 Gd82 2.468 . S
O117 C135 1.263 . S
O118 Gd82 2.427 . S
O118 C135 1.252 . S
O119 Gd83 2.307 1_455 S
O119 C128 1.261 . S
O120 Gd82 2.388 . S
O120 C128 1.252 . S
O121 Gd82 2.386 . S
O121 C139 1.265 . S
O122 Gd83 2.353 1_455 S
O122 C139 1.242 . S
O123 Gd83 2.468 . S
O123 C147 1.263 . S
O124 Gd83 2.427 . S
O124 C147 1.252 . S
O125 Gd82 2.307 1_655 S
O125 C140 1.261 . S
O126 Gd83 2.388 . S
O126 C140 1.252 . S
C127 O115 1.265 . S
C127 O116 1.242 . S
C128 O119 1.261 . S
C128 O120 1.252 . S
C129 C132 1.394 . S
C129 C134 1.370 . S
C129 C135 1.500 . S
C130 C133 1.383 . S
C130 C134 1.395 1_556 S
C131 C132 1.396 1_556 S
C131 C133 1.365 . S
C131 H148 0.929 1_545 S
C132 C129 1.394 . S
C132 C131 1.396 1_554 S
C132 H149 0.930 1_545 S
C133 C130 1.383 . S
C133 C131 1.365 . S
C133 H150 0.931 . S
C134 C129 1.370 . S
C134 C130 1.395 1_554 S
C134 H151 0.930 . S
C135 Gd82 2.805 . S
C135 O117 1.263 . S
C135 O118 1.252 . S
C135 C129 1.500 . S
C136 H98 0.930 . S
C136 C112 1.417 . S
C136 C137 1.329 . S
C137 C107 1.437 . S
C137 H108 0.929 . S
C137 C136 1.329 . S
H138 C111 0.931 . S
C139 O121 1.265 . S
C139 O122 1.242 . S
C140 O125 1.261 . S
C140 O126 1.252 . S
C141 C144 1.394 . S
C141 C146 1.370 . S
C141 C147 1.500 . S
C142 C145 1.383 . S
C142 C146 1.395 . S
C143 C144 1.396 . S
C143 C145 1.365 . S
C143 H152 0.929 . S
C144 C141 1.394 . S
C144 C143 1.396 . S
C144 H153 0.930 . S
C145 C142 1.383 . S
C145 C143 1.365 . S
C145 H154 0.931 . S
C146 C141 1.370 . S
C146 C142 1.395 . S
C146 H155 0.930 . S
C147 Gd83 2.805 . S
C147 O123 1.263 . S
C147 O124 1.252 . S
C147 C141 1.500 . S
H148 C131 0.929 1_565 S
H149 C132 0.930 1_565 S
H150 C133 0.931 . S
H151 C134 0.930 . S
H152 C143 0.929 . S
H153 C144 0.930 . S
H154 C145 0.931 . S
H155 C146 0.930 . S
C156 C158 1.422 1_455 S
C156 C160 1.415 . S
C156 N162 1.369 1_455 S
C157 C158 1.421 1_455 S
C157 C159 1.417 . S
C157 C169 1.422 1_455 S
C158 C156 1.422 1_655 S
C158 C157 1.421 1_655 S
C158 N168 1.359 . S
C159 C157 1.417 . S
C159 C161 1.329 . S
C159 H178 0.930 . S
C160 C156 1.415 . S
C160 C161 1.437 . S
C160 C164 1.413 . S
C161 C159 1.329 . S
C161 C160 1.437 . S
C161 H183 0.929 . S
N162 C156 1.369 1_655 S
N162 C163 1.338 1_655 S
N162 Gd167 2.622 . S
C163 N162 1.338 1_455 S
C163 C165 1.378 . S
C163 H175 0.929 1_455 S
C164 C160 1.413 . S
C164 C165 1.348 . S
C164 H180 0.931 . S
C165 C163 1.378 . S
C165 C164 1.348 . S
C165 H181 0.930 . S
Gd166 N186 2.622 . S
Gd166 N193 2.570 . S
Gd166 O200 2.353 . S
Gd166 O201 2.468 . S
Gd166 O202 2.427 . S
Gd166 O204 2.388 . S
Gd166 O205 2.386 . S
Gd166 O209 2.307 . S
Gd166 C219 2.805 . S
Gd167 N162 2.622 . S
Gd167 N168 2.570 . S
Gd167 O199 2.386 . S
Gd167 O203 2.307 . S
Gd167 O206 2.353 . S
Gd167 O207 2.468 . S
Gd167 O208 2.427 . S
Gd167 O210 2.388 . S
Gd167 C231 2.805 . S
N168 C158 1.359 . S
N168 Gd167 2.570 . S
N168 C170 1.343 . S
C169 C157 1.422 1_655 S
C169 C171 1.321 . S
C169 H177 0.931 1_655 S
C170 N168 1.343 . S
C170 C171 1.390 . S
C170 H172 0.931 . S
C171 C169 1.321 . S
C171 C170 1.390 . S
C171 H173 0.930 . S
H172 C170 0.931 . S
H173 C171 0.930 . S
H174 C197 0.931 . S
H175 C163 0.929 1_655 S
H176 C198 0.930 . S
H177 C169 0.931 1_455 S
H178 C159 0.930 . S
H179 C188 0.929 . S
H180 C164 0.931 . S
H181 C165 0.930 . S
H182 C220 0.930 . S
H183 C161 0.929 . S
H184 C189 0.931 . S
H185 C190 0.930 . S
N186 Gd166 2.622 . S
N186 C187 1.369 1_455 S
N186 C188 1.338 . S
C187 N186 1.369 1_655 S
C187 C191 1.415 . S
C187 C194 1.422 1_655 S
C188 H179 0.929 . S
C188 N186 1.338 . S
C188 C190 1.378 1_455 S
C189 H184 0.931 . S
C189 C190 1.348 . S
C189 C191 1.413 . S
C190 H185 0.930 . S
C190 C188 1.378 1_655 S
C190 C189 1.348 . S
C191 C187 1.415 . S
C191 C189 1.413 . S
C191 C221 1.437 . S
H192 C221 0.929 . S
N193 Gd166 2.570 . S
N193 C194 1.359 . S
N193 C197 1.343 . S
C194 C187 1.422 1_455 S
C194 N193 1.359 . S
C194 C196 1.421 1_455 S
C195 C196 1.422 1_455 S
C195 C198 1.321 . S
C195 H222 0.931 . S
C196 C194 1.421 1_655 S
C196 C195 1.422 1_655 S
C196 C220 1.417 . S
C197 H174 0.931 . S
C197 N193 1.343 . S
C197 C198 1.390 . S
C198 H176 0.930 . S
C198 C195 1.321 . S
C198 C197 1.390 . S
O199 Gd167 2.386 . S
O199 C211 1.265 . S
O200 Gd166 2.353 . S
O200 C211 1.242 . S
O201 Gd166 2.468 . S
O201 C219 1.263 . S
O202 Gd166 2.427 . S
O202 C219 1.252 . S
O203 Gd167 2.307 . S
O203 C212 1.261 . S
O204 Gd166 2.388 . S
O204 C212 1.252 . S
O205 Gd166 2.386 . S
O205 C223 1.265 . S
O206 Gd167 2.353 . S
O206 C223 1.242 . S
O207 Gd167 2.468 . S
O207 C231 1.263 . S
O208 Gd167 2.427 . S
O208 C231 1.252 . S
O209 Gd166 2.307 . S
O209 C224 1.261 . S
O210 Gd167 2.388 . S
O210 C224 1.252 . S
C211 O199 1.265 . S
C211 O200 1.242 . S
C212 O203 1.261 . S
C212 O204 1.252 . S
C213 C216 1.394 . S
C213 C218 1.370 . S
C213 C219 1.500 . S
C214 C217 1.383 . S
C214 C218 1.395 . S
C215 C216 1.396 . S
C215 C217 1.365 . S
C215 H232 0.929 . S
C216 C213 1.394 . S
C216 C215 1.396 . S
C216 H233 0.930 . S
C217 C214 1.383 . S
C217 C215 1.365 . S
C217 H234 0.931 . S
C218 C213 1.370 . S
C218 C214 1.395 . S
C218 H235 0.930 . S
C219 Gd166 2.805 . S
C219 O201 1.263 . S
C219 O202 1.252 . S
C219 C213 1.500 . S
C220 H182 0.930 . S
C220 C196 1.417 . S
C220 C221 1.329 . S
C221 C191 1.437 . S
C221 H192 0.929 . S
C221 C220 1.329 . S
H222 C195 0.931 . S
C223 O205 1.265 . S
C223 O206 1.242 . S
C224 O209 1.261 . S
C224 O210 1.252 . S
C225 C228 1.394 . S
C225 C230 1.370 . S
C225 C231 1.500 . S
C226 C229 1.383 . S
C226 C230 1.395 1_554 S
C227 C228 1.396 1_554 S
C227 C229 1.365 . S
C227 H236 0.929 . S
C228 C225 1.394 . S
C228 C227 1.396 1_556 S
C228 H237 0.930 . S
C229 C226 1.383 . S
C229 C227 1.365 . S
C229 H238 0.931 . S
C230 C225 1.370 . S
C230 C226 1.395 1_556 S
C230 H239 0.930 . S
C231 Gd167 2.805 . S
C231 O207 1.263 . S
C231 O208 1.252 . S
C231 C225 1.500 . S
H232 C215 0.929 . S
H233 C216 0.930 . S
H234 C217 0.931 . S
H235 C218 0.930 . S
H236 C227 0.929 . S
H237 C228 0.930 . S
H238 C229 0.931 . S
H239 C230 0.930 . S
C240 C242 1.422 . S
C240 C244 1.415 . S
C240 N246 1.369 . S
C241 C242 1.421 . S
C241 C243 1.417 . S
C241 C253 1.422 . S
C242 C240 1.422 . S
C242 C241 1.421 . S
C242 N252 1.359 . S
C243 C241 1.417 . S
C243 C245 1.329 . S
C243 H262 0.930 . S
C244 C240 1.415 . S
C244 C245 1.437 . S
C244 C248 1.413 . S
C245 C243 1.329 . S
C245 C244 1.437 . S
C245 H267 0.929 . S
N246 C240 1.369 . S
N246 C247 1.338 . S
N246 Gd251 2.622 . S
C247 N246 1.338 . S
C247 C249 1.378 . S
C247 H259 0.929 . S
C248 C244 1.413 . S
C248 C249 1.348 . S
C248 H264 0.931 . S
C249 C247 1.378 . S
C249 C248 1.348 . S
C249 H265 0.930 . S
Gd250 N270 2.622 . S
Gd250 N277 2.570 . S
Gd250 O284 2.353 1_455 S
Gd250 O285 2.468 . S
Gd250 O286 2.427 . S
Gd250 O288 2.388 . S
Gd250 O289 2.386 . S
Gd250 O293 2.307 1_455 S
Gd250 C303 2.805 . S
Gd251 N246 2.622 . S
Gd251 N252 2.570 . S
Gd251 O283 2.386 . S
Gd251 O287 2.307 1_655 S
Gd251 O290 2.353 1_655 S
Gd251 O291 2.468 . S
Gd251 O292 2.427 . S
Gd251 O294 2.388 . S
Gd251 C315 2.805 . S
N252 C242 1.359 . S
N252 Gd251 2.570 . S
N252 C254 1.343 . S
C253 C241 1.422 . S
C253 C255 1.321 . S
C253 H261 0.931 . S
C254 N252 1.343 . S
C254 C255 1.390 . S
C254 H256 0.931 . S
C255 C253 1.321 . S
C255 C254 1.390 . S
C255 H257 0.930 . S
H256 C254 0.931 . S
H257 C255 0.930 . S
H258 C281 0.931 . S
H259 C247 0.929 . S
H260 C282 0.930 . S
H261 C253 0.931 . S
H262 C243 0.930 . S
H263 C272 0.929 . S
H264 C248 0.931 . S
H265 C249 0.930 . S
H266 C304 0.930 . S
H267 C245 0.929 . S
H268 C273 0.931 . S
H269 C274 0.930 . S
N270 Gd250 2.622 . S
N270 C271 1.369 . S
N270 C272 1.338 . S
C271 N270 1.369 . S
C271 C275 1.415 . S
C271 C278 1.422 . S
C272 H263 0.929 . S
C272 N270 1.338 . S
C272 C274 1.378 . S
C273 H268 0.931 . S
C273 C274 1.348 . S
C273 C275 1.413 . S
C274 H269 0.930 . S
C274 C272 1.378 . S
C274 C273 1.348 . S
C275 C271 1.415 . S
C275 C273 1.413 . S
C275 C305 1.437 1_565 S
H276 C305 0.929 . S
N277 Gd250 2.570 . S
N277 C278 1.359 . S
N277 C281 1.343 1_565 S
C278 C271 1.422 . S
C278 N277 1.359 . S
C278 C280 1.421 1_565 S
C279 C280 1.422 . S
C279 C282 1.321 . S
C279 H306 0.931 . S
C280 C278 1.421 1_545 S
C280 C279 1.422 . S
C280 C304 1.417 . S
C281 H258 0.931 . S
C281 N277 1.343 1_545 S
C281 C282 1.390 . S
C282 H260 0.930 . S
C282 C279 1.321 . S
C282 C281 1.390 . S
O283 Gd251 2.386 . S
O283 C295 1.265 . S
O284 Gd250 2.353 1_655 S
O284 C295 1.242 . S
O285 Gd250 2.468 . S
O285 C303 1.263 . S
O286 Gd250 2.427 . S
O286 C303 1.252 . S
O287 Gd251 2.307 1_455 S
O287 C296 1.261 . S
O288 Gd250 2.388 . S
O288 C296 1.252 . S
O289 Gd250 2.386 . S
O289 C307 1.265 . S
O290 Gd251 2.353 1_455 S
O290 C307 1.242 . S
O291 Gd251 2.468 . S
O291 C315 1.263 . S
O292 Gd251 2.427 . S
O292 C315 1.252 . S
O293 Gd250 2.307 1_655 S
O293 C308 1.261 . S
O294 Gd251 2.388 . S
O294 C308 1.252 . S
C295 O283 1.265 . S
C295 O284 1.242 . S
C296 O287 1.261 . S
C296 O288 1.252 . S
C297 C300 1.394 . S
C297 C302 1.370 . S
C297 C303 1.500 . S
C298 C301 1.383 . S
C298 C302 1.395 . S
C299 C300 1.396 . S
C299 C301 1.365 . S
C299 H316 0.929 . S
C300 C297 1.394 . S
C300 C299 1.396 . S
C300 H317 0.930 . S
C301 C298 1.383 . S
C301 C299 1.365 . S
C301 H318 0.931 . S
C302 C297 1.370 . S
C302 C298 1.395 . S
C302 H319 0.930 . S
C303 Gd250 2.805 . S
C303 O285 1.263 . S
C303 O286 1.252 . S
C303 C297 1.500 . S
C304 H266 0.930 . S
C304 C280 1.417 . S
C304 C305 1.329 . S
C305 C275 1.437 1_545 S
C305 H276 0.929 . S
C305 C304 1.329 . S
H306 C279 0.931 . S
C307 O289 1.265 . S
C307 O290 1.242 . S
C308 O293 1.261 . S
C308 O294 1.252 . S
C309 C312 1.394 . S
C309 C314 1.370 . S
C309 C315 1.500 . S
C310 C313 1.383 . S
C310 C314 1.395 1_554 S
C311 C312 1.396 1_554 S
C311 C313 1.365 . S
C311 H320 0.929 1_565 S
C312 C309 1.394 . S
C312 C311 1.396 1_556 S
C312 H321 0.930 1_565 S
C313 C310 1.383 . S
C313 C311 1.365 . S
C313 H322 0.931 . S
C314 C309 1.370 . S
C314 C310 1.395 1_556 S
C314 H323 0.930 . S
C315 Gd251 2.805 . S
C315 O291 1.263 . S
C315 O292 1.252 . S
C315 C309 1.500 . S
H316 C299 0.929 . S
H317 C300 0.930 . S
H318 C301 0.931 . S
H319 C302 0.930 . S
H320 C311 0.929 1_545 S
H321 C312 0.930 1_545 S
H322 C313 0.931 . S
H323 C314 0.930 . S
C324 C326 1.422 1_455 S
C324 C328 1.415 . S
C324 N330 1.369 1_455 S
C325 C326 1.421 1_455 S
C325 C327 1.417 . S
C325 C337 1.422 1_455 S
C326 C324 1.422 1_655 S
C326 C325 1.421 1_655 S
C326 N336 1.359 . S
C327 C325 1.417 . S
C327 C329 1.329 . S
C327 H346 0.930 . S
C328 C324 1.415 . S
C328 C329 1.437 . S
C328 C332 1.413 . S
C329 C327 1.329 . S
C329 C328 1.437 . S
C329 H351 0.929 . S
N330 C324 1.369 1_655 S
N330 C331 1.338 1_655 S
N330 Gd335 2.622 . S
C331 N330 1.338 1_455 S
C331 C333 1.378 . S
C331 H343 0.929 1_455 S
C332 C328 1.413 . S
C332 C333 1.348 . S
C332 H348 0.931 . S
C333 C331 1.378 . S
C333 C332 1.348 . S
C333 H349 0.930 . S
Gd334 N354 2.622 . S
Gd334 N361 2.570 . S
Gd334 O368 2.353 . S
Gd334 O369 2.468 . S
Gd334 O370 2.427 . S
Gd334 O372 2.388 . S
Gd334 O373 2.386 . S
Gd334 O377 2.307 . S
Gd334 C387 2.805 . S
Gd335 N330 2.622 . S
Gd335 N336 2.570 . S
Gd335 O367 2.386 . S
Gd335 O371 2.307 . S
Gd335 O374 2.353 . S
Gd335 O375 2.468 . S
Gd335 O376 2.427 . S
Gd335 O378 2.388 . S
Gd335 C399 2.805 . S
N336 C326 1.359 . S
N336 Gd335 2.570 . S
N336 C338 1.343 . S
C337 C325 1.422 1_655 S
C337 C339 1.321 . S
C337 H345 0.931 1_655 S
C338 N336 1.343 . S
C338 C339 1.390 . S
C338 H340 0.931 . S
C339 C337 1.321 . S
C339 C338 1.390 . S
C339 H341 0.930 . S
H340 C338 0.931 . S
H341 C339 0.930 . S
H342 C365 0.931 . S
H343 C331 0.929 1_655 S
H344 C366 0.930 . S
H345 C337 0.931 1_455 S
H346 C327 0.930 . S
H347 C356 0.928 1_455 S
H348 C332 0.931 . S
H349 C333 0.930 . S
H350 C388 0.930 . S
H351 C329 0.929 . S
H352 C357 0.931 . S
H353 C358 0.930 . S
N354 Gd334 2.622 . S
N354 C355 1.369 1_455 S
N354 C356 1.337 1_455 S
C355 N354 1.369 1_655 S
C355 C359 1.415 . S
C355 C362 1.422 1_655 S
C356 H347 0.928 1_655 S
C356 N354 1.337 1_655 S
C356 C358 1.380 . S
C357 H352 0.931 . S
C357 C358 1.348 . S
C357 C359 1.413 . S
C358 H353 0.930 . S
C358 C356 1.380 . S
C358 C357 1.348 . S
C359 C355 1.415 . S
C359 C357 1.413 . S
C359 C389 1.437 . S
H360 C389 0.929 . S
N361 Gd334 2.570 . S
N361 C362 1.359 . S
N361 C365 1.343 . S
C362 C355 1.422 1_455 S
C362 N361 1.359 . S
C362 C364 1.421 1_455 S
C363 C364 1.422 1_455 S
C363 C366 1.321 . S
C363 H390 0.931 1_455 S
C364 C362 1.421 1_655 S
C364 C363 1.422 1_655 S
C364 C388 1.417 . S
C365 H342 0.931 . S
C365 N361 1.343 . S
C365 C366 1.390 . S
C366 H344 0.930 . S
C366 C363 1.321 . S
C366 C365 1.390 . S
O367 Gd335 2.386 . S
O367 C379 1.265 . S
O368 Gd334 2.353 . S
O368 C379 1.242 . S
O369 Gd334 2.468 . S
O369 C387 1.263 . S
O370 Gd334 2.427 . S
O370 C387 1.252 . S
O371 Gd335 2.307 . S
O371 C380 1.261 . S
O372 Gd334 2.388 . S
O372 C380 1.252 . S
O373 Gd334 2.386 . S
O373 C391 1.265 . S
O374 Gd335 2.353 . S
O374 C391 1.242 . S
O375 Gd335 2.468 . S
O375 C399 1.263 . S
O376 Gd335 2.427 . S
O376 C399 1.252 . S
O377 Gd334 2.307 . S
O377 C392 1.261 . S
O378 Gd335 2.388 . S
O378 C392 1.252 . S
C379 O367 1.265 . S
C379 O368 1.242 . S
C380 O371 1.261 . S
C380 O372 1.252 . S
C381 C384 1.394 . S
C381 C386 1.370 . S
C381 C387 1.500 . S
C382 C385 1.383 . S
C382 C386 1.395 1_556 S
C383 C384 1.396 1_556 S
C383 C385 1.365 . S
C383 H400 0.929 . S
C384 C381 1.394 . S
C384 C383 1.396 1_554 S
C384 H401 0.930 . S
C385 C382 1.383 . S
C385 C383 1.365 . S
C385 H402 0.931 . S
C386 C381 1.370 . S
C386 C382 1.395 1_554 S
C386 H403 0.930 . S
C387 Gd334 2.805 . S
C387 O369 1.263 . S
C387 O370 1.252 . S
C387 C381 1.500 . S
C388 H350 0.930 . S
C388 C364 1.417 . S
C388 C389 1.329 . S
C389 C359 1.437 . S
C389 H360 0.929 . S
C389 C388 1.329 . S
H390 C363 0.931 1_655 S
C391 O373 1.265 . S
C391 O374 1.242 . S
C392 O377 1.261 . S
C392 O378 1.252 . S
C393 C396 1.394 . S
C393 C398 1.370 . S
C393 C399 1.500 . S
C394 C397 1.383 . S
C394 C398 1.395 . S
C395 C396 1.396 . S
C395 C397 1.365 . S
C395 H404 0.929 . S
C396 C393 1.394 . S
C396 C395 1.396 . S
C396 H405 0.930 . S
C397 C394 1.383 . S
C397 C395 1.365 . S
C397 H406 0.931 . S
C398 C393 1.370 . S
C398 C394 1.395 . S
C398 H407 0.930 . S
C399 Gd335 2.805 . S
C399 O375 1.263 . S
C399 O376 1.252 . S
C399 C393 1.500 . S
H400 C383 0.929 . S
H401 C384 0.930 . S
H402 C385 0.931 . S
H403 C386 0.930 . S
H404 C395 0.929 . S
H405 C396 0.930 . S
H406 C397 0.931 . S
H407 C398 0.930 . S
C58 C128 1.439 1_565 S
C212 C68 1.440 . S
C211 C40 1.451 . S
C50 C127 1.452 1_565 S
C308 C23 1.442 1_565 S
C392 C32 1.441 . S
C5 C391 1.454 . S
C14 C307 1.453 1_545 S
C130 C13 1.262 . S
C214 C4 1.262 . S
C226 C31 1.546 . S
C142 C22 1.548 . S
C310 C49 1.269 . S
C41 C394 1.261 . S
C382 C67 1.547 . S
C59 C298 1.548 . S
C139 C7 1.519 . S
C223 C16 1.519 . S
C25 C224 1.493 . S
C140 C34 1.492 . S
C295 C43 1.521 . S
C52 C379 1.515 . S
C61 C380 1.502 . S
C70 C296 1.493 . S
