# Generated by pormake.
# Topology zzz, (3,6)-cn, num edge types: 1
# Building blocks:
#     Node 0, Type 0, BuildingBlock: VETTIZ_charged_linker_0, # of connection points: 3
#     Node 1, Type 0, BuildingBlock: VETTIZ_charged_linker_0, # of connection points: 3
#     Node 2, Type 0, BuildingBlock: VETTIZ_charged_linker_0, # of connection points: 3
#     Node 3, Type 0, BuildingBlock: VETTIZ_charged_linker_0, # of connection points: 3
#     Node 4, Type 0, BuildingBlock: VETTIZ_charged_linker_0, # of connection points: 3
#     Node 5, Type 0, BuildingBlock: VETTIZ_charged_linker_0, # of connection points: 3
#     Node 6, Type 0, BuildingBlock: VETTIZ_charged_linker_0, # of connection points: 3
#     Node 7, Type 0, BuildingBlock: VETTIZ_charged_linker_0, # of connection points: 3
#     Node 8, Type 1, BuildingBlock: BETFEN_clean_sbu_0, # of connection points: 6
#     Node 9, Type 1, BuildingBlock: BETFEN_clean_sbu_0, # of connection points: 6
#     Node 10, Type 1, BuildingBlock: BETFEN_clean_sbu_0, # of connection points: 6
#     Node 11, Type 1, BuildingBlock: BETFEN_clean_sbu_0, # of connection points: 6
#     Edge 12, Type (0, 1), BuildingBlock: EZIPEK_clean_linker_0, # of connection points: 2
#     Edge 13, Type (0, 1), BuildingBlock: EZIPEK_clean_linker_0, # of connection points: 2
#     Edge 14, Type (0, 1), BuildingBlock: EZIPEK_clean_linker_0, # of connection points: 2
#     Edge 15, Type (0, 1), BuildingBlock: EZIPEK_clean_linker_0, # of connection points: 2
#     Edge 16, Type (0, 1), BuildingBlock: EZIPEK_clean_linker_0, # of connection points: 2
#     Edge 17, Type (0, 1), BuildingBlock: EZIPEK_clean_linker_0, # of connection points: 2
#     Edge 18, Type (0, 1), BuildingBlock: EZIPEK_clean_linker_0, # of connection points: 2
#     Edge 19, Type (0, 1), BuildingBlock: EZIPEK_clean_linker_0, # of connection points: 2
#     Edge 20, Type (0, 1), BuildingBlock: EZIPEK_clean_linker_0, # of connection points: 2
#     Edge 21, Type (0, 1), BuildingBlock: EZIPEK_clean_linker_0, # of connection points: 2
#     Edge 22, Type (0, 1), BuildingBlock: EZIPEK_clean_linker_0, # of connection points: 2
#     Edge 23, Type (0, 1), BuildingBlock: EZIPEK_clean_linker_0, # of connection points: 2
#     Edge 24, Type (0, 1), BuildingBlock: EZIPEK_clean_linker_0, # of connection points: 2
#     Edge 25, Type (0, 1), BuildingBlock: EZIPEK_clean_linker_0, # of connection points: 2
#     Edge 26, Type (0, 1), BuildingBlock: EZIPEK_clean_linker_0, # of connection points: 2
#     Edge 27, Type (0, 1), BuildingBlock: EZIPEK_clean_linker_0, # of connection points: 2
#     Edge 28, Type (0, 1), BuildingBlock: EZIPEK_clean_linker_0, # of connection points: 2
#     Edge 29, Type (0, 1), BuildingBlock: EZIPEK_clean_linker_0, # of connection points: 2
#     Edge 30, Type (0, 1), BuildingBlock: EZIPEK_clean_linker_0, # of connection points: 2
#     Edge 31, Type (0, 1), BuildingBlock: EZIPEK_clean_linker_0, # of connection points: 2
#     Edge 32, Type (0, 1), BuildingBlock: EZIPEK_clean_linker_0, # of connection points: 2
#     Edge 33, Type (0, 1), BuildingBlock: EZIPEK_clean_linker_0, # of connection points: 2
#     Edge 34, Type (0, 1), BuildingBlock: EZIPEK_clean_linker_0, # of connection points: 2
#     Edge 35, Type (0, 1), BuildingBlock: EZIPEK_clean_linker_0, # of connection points: 2
# Relax obj value: 0.517
# Max RMSD: 0.267
# Mean RMSD: 0.257
data_MOF--net-zzz--node1-BETFEN_clean_sbu_0--node2-VETTIZ_charged_linker_0--edge1-EZIPEK_clean_linker_0
_symmetry_space_group_name_H-M    P1
_symmetry_Int_Tables_number       1
_symmetry_cell_setting            triclinic
loop_
_symmetry_equiv_pos_as_xyz
'x, y, z'
_cell_length_a     46.195001
_cell_length_b     46.312177
_cell_length_c     14.564355
_cell_angle_alpha  89.620165
_cell_angle_beta   89.82308
_cell_angle_gamma 89.90388
loop_
_atom_site_label
_atom_site_type_symbol
_atom_site_fract_x
_atom_site_fract_y
_atom_site_fract_z
_atom_type_partial_charge
C0 C 0.79651 0.51275 0.41224 0.0
C1 C 0.81435 0.49676 0.47504 0.0
C2 C 0.80517 0.46855 0.49924 0.0
C3 C 0.76894 0.46946 0.38121 0.0
C4 C 0.77327 0.49846 0.36677 0.0
C5 C 0.75173 0.5094 0.29466 0.0
H6 H 0.66125 0.46962 0.94056 0.0
C7 C 0.75045 0.45782 0.3088 0.0
C8 C 0.73637 0.48127 0.26549 0.0
H9 H 0.63378 0.5311 0.14387 0.0
H10 H 0.67756 0.52011 0.23608 0.0
H11 H 0.7534 0.45801 0.97372 0.0
H12 H 0.67777 0.41978 0.08493 0.0
H13 H 0.70765 0.40358 0.02724 0.0
H14 H 0.68141 0.42309 0.9622 0.0
H15 H 0.72656 0.48206 0.93312 0.0
H16 H 0.72555 0.44535 0.89707 0.0
C17 C 0.76809 0.52322 0.21332 0.0
C18 C 0.73075 0.53114 0.33837 0.0
C19 C 0.79682 0.36989 0.1654 0.0
C20 C 0.80552 0.36852 0.07287 0.0
C21 C 0.78818 0.38191 1.00574 0.0
C22 C 0.765 0.39954 0.03139 0.0
C23 C 0.76006 0.4051 0.12476 0.0
C24 C 0.77612 0.39069 0.19084 0.0
C25 C 0.77375 0.40515 0.28362 0.0
C26 C 0.75536 0.4318 0.259 0.0
C27 C 0.74572 0.42995 0.16796 0.0
C28 C 0.80446 0.41215 0.32097 0.0
C29 C 0.75701 0.38502 0.34926 0.0
C30 C 0.665 0.48152 1.00315 0.0
C31 C 0.64438 0.50167 0.03335 0.0
C32 C 0.64971 0.51611 0.11737 0.0
C33 C 0.67513 0.51037 0.16953 0.0
C34 C 0.69566 0.49044 0.13667 0.0
C35 C 0.68967 0.47562 0.05646 0.0
C36 C 0.71064 0.45128 0.04057 0.0
C37 C 0.72736 0.4515 0.1305 0.0
C38 C 0.72086 0.4761 0.18209 0.0
C39 C 0.73 0.45943 0.95685 0.0
C40 C 0.69356 0.42283 0.02788 0.0
H41 H 0.77447 0.43445 0.47766 0.0
H42 H 0.80131 0.5351 0.39641 0.0
H43 H 0.71621 0.52023 0.38862 0.0
H44 H 0.7175 0.54204 0.28515 0.0
H45 H 0.74294 0.54825 0.37482 0.0
H46 H 0.78373 0.50761 0.18328 0.0
H47 H 0.78023 0.54261 0.23579 0.0
H48 H 0.75271 0.52995 0.15867 0.0
H49 H 0.80961 0.35897 0.21722 0.0
H50 H 0.79413 0.38095 0.93381 0.0
H51 H 0.75335 0.41012 0.97757 0.0
H52 H 0.82097 0.39605 0.30183 0.0
H53 H 0.80554 0.4107 0.39645 0.0
H54 H 0.81217 0.43355 0.29617 0.0
H55 H 0.73614 0.37837 0.31809 0.0
H56 H 0.75201 0.39591 0.41494 0.0
H57 H 0.76986 0.36524 0.3644 0.0
H58 H 0.81684 0.456 0.5501 0.0
C59 C 0.78159 0.45558 0.45588 0.0
C60 C 0.1357 0.77667 0.03089 0.0
C61 C 0.14718 0.80476 0.03809 0.0
C62 C 0.14072 0.82053 0.11868 0.0
C63 C 0.10512 0.78498 0.16373 0.0
C64 C 0.11433 0.76748 0.09335 0.0
C65 C 0.09636 0.74048 0.08698 0.0
H66 H 0.96737 0.67655 0.12954 0.0
C67 C 0.07806 0.7728 0.20203 0.0
C68 C 0.07275 0.74662 0.15826 0.0
H69 H 0.04659 0.64438 1.00806 0.0
H70 H 0.07299 0.68337 0.07443 0.0
H71 H 1.00651 0.69792 0.3398 0.0
H72 H 0.97773 0.75059 0.10853 0.0
H73 H 0.96547 0.76137 0.21989 0.0
H74 H 0.95223 0.72848 0.17091 0.0
H75 H 0.96892 0.69835 0.30736 0.0
H76 H 0.98449 0.72833 0.36712 0.0
C77 C 0.11581 0.71447 0.11498 0.0
C78 C 0.08414 0.73873 0.98806 0.0
C79 C 0.02164 0.83809 0.41266 0.0
C80 C 0.99469 0.83748 0.45663 0.0
C81 C 0.97645 0.81342 0.43932 0.0
C82 C 0.98531 0.7907 0.37934 0.0
C83 C 0.01288 0.79169 0.33698 0.0
C84 C 0.03023 0.81539 0.35532 0.0
C85 C 0.05884 0.81401 0.30817 0.0
C86 C 0.05668 0.78538 0.25932 0.0
C87 C 0.02967 0.77173 0.27417 0.0
C88 C 0.08272 0.81317 0.38308 0.0
C89 C 0.06072 0.84016 0.24035 0.0
C90 C 0.99042 0.67823 0.11731 0.0
C91 C 1.00484 0.65764 0.06029 0.0
C92 C 0.03492 0.66 0.04923 0.0
C93 C 0.05025 0.68287 0.08724 0.0
C94 C 0.03563 0.70452 0.13581 0.0
C95 C 1.00659 0.70149 0.15597 0.0
C96 C 0.99684 0.72561 0.22119 0.0
C97 C 0.02426 0.7444 0.22913 0.0
C98 C 0.0464 0.73172 0.17546 0.0
C99 C 0.98862 0.71189 0.31419 0.0
C100 C 0.97159 0.7425 0.17794 0.0
H101 H 0.11496 0.82469 0.2374 0.0
H102 H 0.14136 0.76293 0.97418 0.0
H103 H 0.07443 0.75977 0.96728 0.0
H104 H 0.06699 0.72252 0.97995 0.0
H105 H 0.10151 0.7334 0.93807 0.0
H106 H 0.13675 0.72132 0.14545 0.0
H107 H 0.12118 0.70078 0.05489 0.0
H108 H 0.1054 0.70084 0.16869 0.0
H109 H 0.03626 0.85599 0.42397 0.0
H110 H 0.9555 0.81212 0.4726 0.0
H111 H 0.97063 0.7731 0.36809 0.0
H112 H 0.07536 0.80077 0.44458 0.0
H113 H 0.08841 0.83526 0.40606 0.0
H114 H 0.10261 0.80193 0.36032 0.0
H115 H 0.03906 0.8495 0.22477 0.0
H116 H 0.0694 0.83412 0.17223 0.0
H117 H 0.07409 0.85787 0.26877 0.0
H118 H 0.14941 0.84189 0.12988 0.0
C119 C 0.11999 0.81071 0.18132 0.0
C120 C 0.81999 1.00573 0.14187 0.0
C121 C 0.83906 0.01673 0.07271 0.0
C122 C 0.83226 0.04319 0.03071 0.0
C123 C 0.78791 0.04701 0.1197 0.0
C124 C 0.79436 0.02146 0.16473 0.0
C125 C 0.77089 0.01442 0.2362 0.0
H126 H 0.63776 0.05631 0.42051 0.0
C127 C 0.75984 0.05811 0.15386 0.0
C128 C 0.74929 0.03951 0.22375 0.0
H129 H 0.68701 0.98239 0.5101 0.0
H130 H 0.72503 0.99388 0.39633 0.0
H131 H 0.68971 0.0995 0.40879 0.0
H132 H 0.64517 0.04616 0.21723 0.0
H133 H 0.65529 0.07621 0.15145 0.0
H134 H 0.63165 0.08095 0.24915 0.0
H135 H 0.6544 0.10772 0.36483 0.0
H136 H 0.68685 0.12056 0.30864 0.0
C137 C 0.7846 0.01457 0.33235 0.0
C138 C 0.75704 0.98518 0.21296 0.0
C139 C 0.7135 0.14178 0.97979 0.0
C140 C 0.685 0.15251 0.98162 0.0
C141 C 0.66778 0.14651 0.05978 0.0
C142 C 0.67708 0.12732 0.12761 0.0
C143 C 0.7038 0.11332 0.11732 0.0
C144 C 0.722 0.12139 0.04644 0.0
C145 C 0.74905 0.1033 0.04472 0.0
C146 C 0.74333 0.08228 0.12389 0.0
C147 C 0.71687 0.08841 0.16594 0.0
C148 C 0.7751 0.12345 0.06449 0.0
C149 C 0.7502 0.08778 0.95047 0.0
C150 C 0.6567 0.04252 0.41637 0.0
C151 C 0.65917 0.01851 0.47443 0.0
C152 C 0.6844 1.00111 0.46596 0.0
C153 C 0.70645 1.00782 0.40021 0.0
C154 C 0.70341 0.03226 0.34236 0.0
C155 C 0.67858 0.0489 0.3524 0.0
C156 C 0.67756 0.07379 0.28727 0.0
C157 C 0.70601 0.07032 0.23688 0.0
C158 C 0.72173 0.04584 0.2673 0.0
C159 C 0.67687 0.10197 0.34465 0.0
C160 C 0.65105 0.06937 0.22312 0.0
H161 H 0.80364 0.07814 0.01782 0.0
H162 H 0.82485 0.98552 0.17632 0.0
H163 H 0.74939 0.98517 0.14064 0.0
H164 H 0.73816 0.98049 0.25723 0.0
H165 H 0.77297 0.96736 0.22145 0.0
H166 H 0.79658 0.03505 0.34349 0.0
H167 H 0.80009 0.99634 0.34024 0.0
H168 H 0.76814 0.01283 0.38719 0.0
H169 H 0.72837 0.14773 0.9255 0.0
H170 H 0.64617 0.1553 0.06619 0.0
H171 H 0.66224 0.12301 0.1826 0.0
H172 H 0.76838 0.14296 0.10336 0.0
H173 H 0.78553 0.131 0.99988 0.0
H174 H 0.79159 0.11296 0.10869 0.0
H175 H 0.72812 0.08138 0.92805 0.0
H176 H 0.76253 0.06737 0.95179 0.0
H177 H 0.75942 0.10209 0.89637 0.0
H178 H 0.84646 0.05217 0.97849 0.0
C179 C 0.80719 0.05829 0.05391 0.0
C180 C 0.50248 0.69769 0.40323 0.0
C181 C 0.50758 0.66735 0.39018 0.0
C182 C 0.51805 0.6583 0.30425 0.0
C183 C 0.51258 0.70645 0.24215 0.0
C184 C 0.50579 0.71722 0.32723 0.0
C185 C 0.50393 0.7506 0.3211 0.0
H186 H 0.53855 0.86701 0.0264 0.0
C187 C 0.51496 0.7301 0.17645 0.0
C188 C 0.51309 0.7568 0.22039 0.0
H189 H 0.48571 0.8752 0.26825 0.0
H190 H 0.49276 0.82304 0.3029 0.0
H191 H 0.58319 0.80978 0.08169 0.0
H192 H 0.51298 0.83618 0.93506 0.0
H193 H 0.50107 0.80005 0.93708 0.0
H194 H 0.53404 0.81077 0.87792 0.0
H195 H 0.57704 0.82988 0.97722 0.0
H196 H 0.58027 0.79116 0.97583 0.0
C197 C 0.52475 0.76459 0.38958 0.0
C198 C 0.47238 0.75968 0.33882 0.0
C199 C 0.49514 0.716 0.8412 0.0
C200 C 0.51096 0.7244 0.76212 0.0
C201 C 0.53297 0.74525 0.77111 0.0
C202 C 0.54033 0.75579 0.85793 0.0
C203 C 0.52479 0.74629 0.93514 0.0
C204 C 0.50411 0.72527 0.927 0.0
C205 C 0.49719 0.71141 0.01821 0.0
C206 C 0.51735 0.7284 0.08079 0.0
C207 C 0.52916 0.75168 0.03282 0.0
C208 C 0.50367 0.67879 0.01498 0.0
C209 C 0.46516 0.71683 0.04266 0.0
C210 C 0.52888 0.85784 0.08796 0.0
C211 C 0.51171 0.8751 0.14375 0.0
C212 C 0.49917 0.86228 0.22346 0.0
C213 C 0.5029 0.83219 0.24287 0.0
C214 C 0.51805 0.81469 0.17982 0.0
C215 C 0.52982 0.82801 0.10238 0.0
C216 C 0.53858 0.80724 0.02981 0.0
C217 C 0.53066 0.7789 0.07592 0.0
C218 C 0.52007 0.7825 0.16688 0.0
C219 C 0.57158 0.80965 0.01486 0.0
C220 C 0.52084 0.81361 0.94068 0.0
H221 H 0.53207 0.67069 0.16985 0.0
H222 H 0.49623 0.70577 0.46966 0.0
H223 H 0.45762 0.74893 0.2895 0.0
H224 H 0.46941 0.78322 0.33113 0.0
H225 H 0.46562 0.75345 0.40954 0.0
H226 H 0.5473 0.7572 0.37684 0.0
H227 H 0.51871 0.75871 0.46123 0.0
H228 H 0.52417 0.78847 0.38281 0.0
H229 H 0.47887 0.6993 0.83831 0.0
H230 H 0.54615 0.75129 0.71252 0.0
H231 H 0.55896 0.76952 0.86377 0.0
H232 H 0.49327 0.66864 0.95495 0.0
H233 H 0.49438 0.66747 0.07544 0.0
H234 H 0.52734 0.67473 0.00997 0.0
H235 H 0.46026 0.74036 0.04296 0.0
H236 H 0.46005 0.70792 0.11186 0.0
H237 H 0.4507 0.70628 0.99213 0.0
H238 H 0.52393 0.6359 0.29365 0.0
C239 C 0.5215 0.67784 0.23167 0.0
C240 C 0.31817 0.50746 0.3336 0.0
C241 C 0.33725 0.51927 0.40056 0.0
C242 C 0.33053 0.54636 0.43754 0.0
C243 C 0.28692 0.5498 0.34518 0.0
C244 C 0.29295 0.52326 0.30664 0.0
C245 C 0.26952 0.51528 0.2368 0.0
H246 H 0.13998 0.5586 0.03261 0.0
C247 C 0.25994 0.56146 0.30448 0.0
C248 C 0.24928 0.54172 0.23901 0.0
H249 H 0.18338 0.4781 0.97862 0.0
H250 H 0.22255 0.49165 0.08492 0.0
H251 H 0.14437 0.55975 0.22797 0.0
H252 H 0.19716 0.59611 0.01789 0.0
H253 H 0.1975 0.62221 0.10457 0.0
H254 H 0.16342 0.61132 0.05484 0.0
H255 H 0.13718 0.5949 0.18182 0.0
H256 H 0.15884 0.5897 0.28337 0.0
C257 C 0.25398 0.48777 0.27024 0.0
C258 C 0.28354 0.5115 0.14167 0.0
C259 C 0.21315 0.64999 0.44704 0.0
C260 C 0.18607 0.66329 0.43031 0.0
C261 C 0.17334 0.65908 0.34305 0.0
C262 C 0.18439 0.63869 0.28226 0.0
C263 C 0.20835 0.62196 0.30818 0.0
C264 C 0.22358 0.62908 0.38578 0.0
C265 C 0.24927 0.60943 0.39973 0.0
C266 C 0.24488 0.58761 0.32282 0.0
C267 C 0.22057 0.59494 0.27102 0.0
C268 C 0.2465 0.59513 0.49603 0.0
C269 C 0.27713 0.62768 0.38548 0.0
C270 C 0.1578 0.54368 0.04312 0.0
C271 C 0.15815 0.51722 0.99769 0.0
C272 C 0.18221 0.49864 0.01355 0.0
C273 C 0.2049 0.5065 0.07508 0.0
C274 C 0.2038 0.53335 0.12061 0.0
C275 C 0.18037 0.55124 0.10217 0.0
C276 C 0.18166 0.57912 0.15198 0.0
C277 C 0.20919 0.5753 0.20651 0.0
C278 C 0.22292 0.54854 0.18939 0.0
C279 C 0.15419 0.58128 0.21416 0.0
C280 C 0.18487 0.60362 0.07914 0.0
H281 H 0.30231 0.58192 0.44254 0.0
H282 H 0.32278 0.48663 0.30357 0.0
H283 H 0.29647 0.53091 0.12302 0.0
H284 H 0.26712 0.50857 0.08756 0.0
H285 H 0.29819 0.49245 0.14132 0.0
H286 H 0.24607 0.49053 0.34185 0.0
H287 H 0.26894 0.46896 0.26902 0.0
H288 H 0.23502 0.48266 0.22742 0.0
H289 H 0.22492 0.65372 0.50957 0.0
H290 H 0.15301 0.66911 0.32443 0.0
H291 H 0.17226 0.6352 0.22085 0.0
H292 H 0.25944 0.57524 0.50364 0.0
H293 H 0.22373 0.58848 0.50948 0.0
H294 H 0.25293 0.61036 0.5509 0.0
H295 H 0.29347 0.6163 0.343 0.0
H296 H 0.28704 0.63362 0.45211 0.0
H297 H 0.27277 0.64815 0.34748 0.0
H298 H 0.3446 0.55588 0.48846 0.0
C299 C 0.30585 0.56156 0.41031 0.0
C300 C 0.06038 0.23241 0.64298 0.0
C301 C 0.05846 0.20309 0.66824 0.0
C302 C 0.06682 0.18227 0.60199 0.0
C303 C 0.06562 0.21862 0.48396 0.0
C304 C 0.06354 0.23973 0.54977 0.0
C305 C 0.06029 0.26923 0.50737 0.0
H306 H 0.97833 0.34615 0.30831 0.0
C307 C 0.05891 0.23141 0.39407 0.0
C308 C 0.05816 0.26134 0.40498 0.0
H309 H 0.05853 0.37305 0.4364 0.0
H310 H 0.08071 0.32674 0.3934 0.0
H311 H 0.0238 0.30006 0.11605 0.0
H312 H 0.97621 0.27318 0.36035 0.0
H313 H 0.96803 0.2584 0.2493 0.0
H314 H 0.95767 0.29497 0.27575 0.0
H315 H 0.99015 0.31843 0.13905 0.0
H316 H 0.98952 0.28142 0.1079 0.0
C317 C 0.08734 0.28725 0.53129 0.0
C318 C 0.03213 0.28332 0.54427 0.0
C319 C 0.01699 0.16276 0.1615 0.0
C320 C 1.00759 0.16582 0.07061 0.0
C321 C 1.00332 0.19436 0.03646 0.0
C322 C 1.00814 0.21898 0.093 0.0
C323 C 0.0174 0.21517 0.18449 0.0
C324 C 0.02296 0.18723 0.2147 0.0
C325 C 0.04069 0.18649 0.30052 0.0
C326 C 0.04474 0.21853 0.31823 0.0
C327 C 0.02972 0.23574 0.25357 0.0
C328 C 0.07014 0.17191 0.2779 0.0
C329 C 0.02296 0.17073 0.37702 0.0
C330 C 1.00054 0.34204 0.32792 0.0
C331 C 0.0162 0.36265 0.38176 0.0
C332 C 0.04565 0.35726 0.40027 0.0
C333 C 0.05818 0.33073 0.37864 0.0
C334 C 0.04088 0.30934 0.34079 0.0
C335 C 0.01426 0.31538 0.30464 0.0
C336 C 1.00402 0.28908 0.24893 0.0
C337 C 0.02832 0.26658 0.268 0.0
C338 C 0.04677 0.27875 0.33374 0.0
C339 C 1.00191 0.2976 0.14699 0.0
C340 C 0.97472 0.27829 0.28579 0.0
H341 H 0.07551 0.17329 0.46238 0.0
H342 H 0.05729 0.2492 0.69287 0.0
H343 H 0.01293 0.27011 0.52608 0.0
H344 H 0.02886 0.30536 0.51683 0.0
H345 H 0.03275 0.28562 0.62004 0.0
H346 H 0.0959 0.28145 0.60027 0.0
H347 H 0.08228 0.31058 0.53536 0.0
H348 H 0.10498 0.28377 0.48048 0.0
H349 H 0.02195 0.14147 0.18857 0.0
H350 H 0.99716 0.19758 0.96545 0.0
H351 H 1.00661 0.24018 0.06286 0.0
H352 H 0.07748 0.17761 0.20722 0.0
H353 H 0.0685 0.14801 0.28223 0.0
H354 H 0.08783 0.17927 0.32305 0.0
H355 H 1.0027 0.16088 0.35065 0.0
H356 H 0.01606 0.18573 0.43213 0.0
H357 H 0.03525 0.15261 0.40838 0.0
H358 H 0.06762 0.15944 0.61793 0.0
C359 C 0.07063 0.19005 0.51024 0.0
C360 C 0.30661 0.01052 0.1144 0.0
C361 C 0.33502 1.00033 0.09261 0.0
C362 C 0.34629 0.97719 0.14373 0.0
C363 C 0.30235 0.97395 0.23498 0.0
C364 C 0.29055 0.99686 0.18667 0.0
C365 C 0.26012 1.00375 0.22326 0.0
H366 H 0.15366 0.96581 0.54232 0.0
C367 C 0.28112 0.96365 0.30413 0.0
C368 C 0.25582 0.9807 0.29895 0.0
H369 H 0.14736 0.03648 0.34983 0.0
H370 H 0.19547 0.02425 0.28726 0.0
H371 H 0.17769 0.92099 0.40369 0.0
H372 H 0.21806 0.97669 0.59974 0.0
H373 H 0.23558 0.94325 0.60948 0.0
H374 H 0.19732 0.94547 0.63182 0.0
H375 H 0.17803 0.9127 0.52412 0.0
H376 H 0.20676 0.90101 0.44844 0.0
C377 C 0.23805 1.00027 0.14522 0.0
C378 C 0.26021 0.03445 0.26309 0.0
C379 C 0.31317 0.8845 0.52234 0.0
C380 C 0.30001 0.87064 0.59786 0.0
C381 C 0.27002 0.8742 0.61124 0.0
C382 C 0.25432 0.89389 0.5568 0.0
C383 C 0.26871 0.90981 0.48749 0.0
C384 C 0.29729 0.90381 0.46873 0.0
C385 C 0.30905 0.92153 0.39064 0.0
C386 C 0.28325 0.94068 0.36876 0.0
C387 C 0.25987 0.93394 0.42601 0.0
C388 C 0.31612 0.90053 0.3108 0.0
C389 C 0.33524 0.93919 0.42672 0.0
C390 C 0.16254 0.97884 0.48693 0.0
C391 C 0.1468 1.00222 0.45211 0.0
C392 C 0.1592 0.01844 0.37893 0.0
C393 C 0.18704 0.01135 0.34276 0.0
C394 C 0.20262 0.98774 0.37983 0.0
C395 C 0.18979 0.97206 0.4506 0.0
C396 C 0.20816 0.94772 0.48391 0.0
C397 C 0.23449 0.95104 0.42314 0.0
C398 C 0.23191 0.9745 0.36073 0.0
C399 C 0.19192 0.91904 0.46497 0.0
C400 C 0.21513 0.95322 0.58662 0.0
H401 H 0.34087 0.94676 0.24918 0.0
H402 H 0.2973 0.02835 0.07623 0.0
H403 H 0.2781 0.03684 0.31336 0.0
H404 H 0.23986 0.03947 0.29955 0.0
H405 H 0.26334 0.05077 0.20769 0.0
H406 H 0.24036 0.97867 0.11308 0.0
H407 H 0.2415 0.01697 0.09115 0.0
H408 H 0.21555 1.00208 0.17035 0.0
H409 H 0.33599 0.88169 0.50798 0.0
H410 H 0.25881 0.86245 0.66496 0.0
H411 H 0.23183 0.89668 0.5731 0.0
H412 H 0.30219 0.88095 0.31339 0.0
H413 H 0.33897 0.89309 0.31366 0.0
H414 H 0.31177 0.91009 0.24236 0.0
H415 H 0.33749 0.96051 0.39289 0.0
H416 H 0.35583 0.92706 0.41867 0.0
H417 H 0.3327 0.94431 0.50087 0.0
H418 H 0.36782 0.96904 0.12896 0.0
C419 C 0.33036 0.96411 0.21379 0.0
C420 C 0.49115 0.31613 0.0405 0.0
C421 C 0.50263 0.34353 0.01299 0.0
C422 C 0.52722 0.35383 0.0583 0.0
C423 C 0.5293 0.31098 0.15492 0.0
C424 C 0.50495 0.30013 0.11261 0.0
C425 C 0.49697 0.27066 0.15463 0.0
H426 H 0.53063 0.16941 0.49505 0.0
C427 C 0.53928 0.2902 0.22585 0.0
C428 C 0.52061 0.26611 0.22795 0.0
H429 H 0.46077 0.16115 0.30188 0.0
H430 H 0.47465 0.20746 0.22966 0.0
H431 H 0.57605 0.18637 0.34935 0.0
H432 H 0.52387 0.23571 0.53571 0.0
H433 H 0.55862 0.25079 0.53911 0.0
H434 H 0.55372 0.21358 0.57177 0.0
H435 H 0.58518 0.18975 0.46833 0.0
H436 H 0.5981 0.21518 0.38297 0.0
C437 C 0.49867 0.24752 0.07947 0.0
C438 C 0.46665 0.27272 0.19815 0.0
C439 C 0.62334 0.32065 0.42486 0.0
C440 C 0.6367 0.30851 0.50296 0.0
C441 C 0.63051 0.27954 0.52567 0.0
C442 C 0.60917 0.26423 0.47768 0.0
C443 C 0.59399 0.27794 0.40566 0.0
C444 C 0.60215 0.30522 0.37824 0.0
C445 C 0.58433 0.31653 0.29996 0.0
C446 C 0.56306 0.29196 0.28697 0.0
C447 C 0.56865 0.26961 0.34926 0.0
C448 C 0.60484 0.32006 0.21591 0.0
C449 C 0.56896 0.34472 0.33168 0.0
C450 C 0.51804 0.17747 0.4376 0.0
C451 C 0.49439 0.1617 0.40564 0.0
C452 C 0.47894 0.17303 0.3292 0.0
C453 C 0.48702 0.19981 0.28729 0.0
C454 C 0.51104 0.21527 0.32115 0.0
C455 C 0.52605 0.2034 0.39472 0.0
C456 C 0.5517 0.22079 0.42165 0.0
C457 C 0.54982 0.2456 0.35423 0.0
C458 C 0.52585 0.24316 0.29424 0.0
C459 C 0.57927 0.20218 0.40562 0.0
C460 C 0.54708 0.2307 0.52234 0.0
H461 H 0.55908 0.34764 0.15808 0.0
H462 H 0.47224 0.3075 1.0067 0.0
H463 H 0.46569 0.29097 0.24729 0.0
H464 H 0.46093 0.25289 0.23654 0.0
H465 H 0.44996 0.27642 0.14454 0.0
H466 H 0.52005 0.24834 0.04426 0.0
H467 H 0.48155 0.25108 0.02715 0.0
H468 H 0.49614 0.22553 0.10807 0.0
H469 H 0.62773 0.34263 0.40357 0.0
H470 H 0.64149 0.26883 0.58171 0.0
H471 H 0.60459 0.2427 0.50104 0.0
H472 H 0.59382 0.31651 0.14964 0.0
H473 H 0.62247 0.30364 0.21709 0.0
H474 H 0.61524 0.34167 0.2151 0.0
H475 H 0.54659 0.3467 0.30542 0.0
H476 H 0.58136 0.36418 0.31052 0.0
H477 H 0.56634 0.34535 0.40762 0.0
H478 H 0.53646 0.37453 0.03908 0.0
C479 C 0.54048 0.33793 0.12785 0.0
Pr480 Pr 1.01047 0.98726 0.83765 0.0
Pr481 Pr 0.97444 0.01186 0.71161 0.0
C482 C 0.04147 0.95413 0.95404 0.0
C483 C 0.06554 0.93386 0.94052 0.0
C484 C 0.07169 0.91314 1.00805 0.0
C485 C 0.09395 0.8932 0.99432 0.0
C486 C 0.11032 0.89376 0.9129 0.0
C487 C 0.1045 0.91475 0.84564 0.0
C488 C 0.0821 0.93466 0.85926 0.0
C489 C 0.04385 1.00662 0.68488 0.0
C490 C 0.9837 0.94329 0.67803 0.0
C491 C 0.95137 0.05095 0.59661 0.0
C492 C 0.95274 0.08248 0.61159 0.0
C493 C 0.94328 0.09407 0.69581 0.0
C494 C 0.95546 0.11952 0.72906 0.0
C495 C 0.97715 0.13358 0.67874 0.0
C496 C 0.98352 0.12442 0.58929 0.0
C497 C 0.97121 0.0991 0.55556 0.0
C498 C 0.94092 0.99035 0.86075 0.0
C499 C 0.99945 0.05427 0.87801 0.0
O500 O 0.01647 0.94618 0.92115 0.0
O501 O 0.04732 0.98121 0.93743 0.0
O502 O 0.02002 0.99331 0.68049 0.0
O503 O 0.04982 0.0119 0.76976 0.0
O504 O 0.9773 0.96737 0.63362 0.0
O505 O 0.99182 0.94516 0.76475 0.0
O506 O 0.97656 0.039 0.58211 0.0
O507 O 0.93546 0.03586 0.65362 0.0
O508 O 0.96427 1.00466 0.86764 0.0
O509 O 0.93536 0.98597 0.77431 0.0
O510 O 1.00377 0.02988 0.92227 0.0
O511 O 0.99265 0.05314 0.79028 0.0
H512 H 0.05908 0.91218 0.07087 0.0
H513 H 0.09818 0.87701 0.04671 0.0
H514 H 0.11688 0.91534 0.78238 0.0
H515 H 0.07749 0.95047 0.80608 0.0
H516 H 0.92886 0.08202 0.74051 0.0
H517 H 0.94978 0.12689 0.79707 0.0
H518 H 1.00012 0.13526 0.54926 0.0
H519 H 0.97882 0.09078 0.49042 0.0
Pr520 Pr 0.50153 0.03834 0.82867 0.0
Pr521 Pr 0.48564 0.99642 0.72444 0.0
C522 C 0.52682 0.07867 0.9335 0.0
C523 C 0.54593 0.10316 0.91237 0.0
C524 C 0.54426 0.11796 0.8277 0.0
C525 C 0.56507 0.13873 0.80405 0.0
C526 C 0.58807 0.14438 0.864 0.0
C527 C 0.58876 0.13046 0.95007 0.0
C528 C 0.56787 0.1101 0.97413 0.0
C529 C 0.48386 0.06387 0.66005 0.0
C530 C 0.55205 0.01213 0.69236 0.0
C531 C 0.46062 0.95592 0.61945 0.0
C532 C 0.44139 0.93125 0.63795 0.0
C533 C 0.44627 0.91215 0.71214 0.0
C534 C 0.42599 0.89067 0.73378 0.0
C535 C 0.40057 0.88837 0.68202 0.0
C536 C 0.3963 0.90686 0.6065 0.0
C537 C 0.41653 0.92805 0.58448 0.0
C538 C 0.50383 0.97229 0.89562 0.0
C539 C 0.43501 0.02093 0.86002 0.0
O540 O 0.53804 0.0531 0.92062 0.0
O541 O 0.50021 0.08074 0.90456 0.0
O542 O 0.49946 0.0414 0.66699 0.0
O543 O 0.47432 0.07114 0.74016 0.0
O544 O 0.52904 1.00534 0.64464 0.0
O545 O 0.54762 0.0206 0.77759 0.0
O546 O 0.44931 0.98147 0.63204 0.0
O547 O 0.4871 0.95387 0.64948 0.0
O548 O 0.48732 0.99387 0.88622 0.0
O549 O 0.51307 0.96421 0.81601 0.0
O550 O 0.45805 0.02778 0.90789 0.0
O551 O 0.4395 0.01382 0.77377 0.0
H552 H 0.52751 0.11274 0.77861 0.0
H553 H 0.56388 0.1494 0.73779 0.0
H554 H 0.60636 0.13424 0.99715 0.0
H555 H 0.56961 0.09885 0.03937 0.0
H556 H 0.46529 0.91431 0.75481 0.0
H557 H 0.42957 0.87665 0.79248 0.0
H558 H 0.37672 0.90554 0.56629 0.0
H559 H 0.41229 0.94258 0.52742 0.0
Pr560 Pr 0.47514 0.51181 0.75641 0.0
Pr561 Pr 0.51074 0.49176 0.62721 0.0
C562 C 0.45368 0.54639 0.88588 0.0
C563 C 0.46757 0.57461 0.89684 0.0
C564 C 0.45083 0.59987 0.89414 0.0
C565 C 0.46246 0.62513 0.85574 0.0
C566 C 0.49011 0.62467 0.81414 0.0
C567 C 0.50741 0.60017 0.82583 0.0
C568 C 0.49695 0.57612 0.87223 0.0
C569 C 0.44032 0.49184 0.60902 0.0
C570 C 0.4984 0.55857 0.59828 0.0
C571 C 0.54476 0.46351 0.50764 0.0
C572 C 0.571 0.44623 0.52351 0.0
C573 C 0.58913 0.4519 0.59893 0.0
C574 C 0.61207 0.43326 0.62021 0.0
C575 C 0.61663 0.40843 0.56757 0.0
C576 C 0.59931 0.40362 0.4901 0.0
C577 C 0.57664 0.42232 0.4682 0.0
C578 C 0.54466 0.50904 0.78078 0.0
C579 C 0.4854 0.44299 0.77635 0.0
O580 O 0.4698 0.52415 0.90658 0.0
O581 O 0.44105 0.54343 0.80656 0.0
O582 O 0.46331 0.50672 0.60058 0.0
O583 O 0.43584 0.48622 0.69558 0.0
O584 O 0.50043 0.53518 0.54845 0.0
O585 O 0.49467 0.55496 0.6874 0.0
O586 O 0.52078 0.45253 0.54019 0.0
O587 O 0.5471 0.4911 0.52312 0.0
O588 O 0.52149 0.49457 0.78412 0.0
O589 O 0.5493 0.51713 0.69701 0.0
O590 O 0.47838 0.46582 0.82478 0.0
O591 O 0.49346 0.4471 0.69014 0.0
H592 H 0.42812 0.59931 0.91279 0.0
H593 H 0.44887 0.64415 0.85063 0.0
H594 H 0.52843 0.59885 0.79373 0.0
H595 H 0.51057 0.55706 0.874 0.0
H596 H 0.58497 0.47015 0.64318 0.0
H597 H 0.62527 0.43739 0.68004 0.0
H598 H 0.60265 0.38466 0.44865 0.0
H599 H 0.56288 0.41751 0.41017 0.0
Pr600 Pr 0.9825 0.49485 0.77226 0.0
Pr601 Pr 0.99787 0.53042 0.64964 0.0
C602 C 0.95889 0.45904 0.89838 0.0
C603 C 0.94247 0.43164 0.90024 0.0
C604 C 0.95664 0.40518 0.91762 0.0
C605 C 0.94064 0.37991 0.93264 0.0
C606 C 0.91033 0.38083 0.93032 0.0
C607 C 0.89643 0.40666 0.90475 0.0
C608 C 0.91226 0.43187 0.89139 0.0
C609 C 0.99889 0.46214 0.61465 0.0
C610 C 0.93079 0.51504 0.63351 0.0
C611 C 0.02366 0.56482 0.52325 0.0
C612 C 0.04454 0.58867 0.52851 0.0
C613 C 0.04944 0.60282 0.61211 0.0
C614 C 0.07101 0.62385 0.61874 0.0
C615 C 0.08845 0.63039 0.54236 0.0
C616 C 0.08297 0.61684 0.45818 0.0
C617 C 0.06111 0.59614 0.45127 0.0
C618 C 0.98135 0.56352 0.80544 0.0
C619 C 0.04885 0.50953 0.79462 0.0
O620 O 0.94578 0.48222 0.86787 0.0
O621 O 0.98584 0.45755 0.87243 0.0
O622 O 0.98277 0.48418 0.61347 0.0
O623 O 1.0089 0.45823 0.69646 0.0
O624 O 0.95361 0.51733 0.57988 0.0
O625 O 0.9364 0.51241 0.72186 0.0
O626 O 0.03362 0.53943 0.54642 0.0
O627 O 0.99794 0.56983 0.55672 0.0
O628 O 0.99782 0.5416 0.80705 0.0
O629 O 0.9695 0.56565 0.72533 0.0
O630 O 0.02599 0.50571 0.84643 0.0
O631 O 0.04418 0.51478 0.70669 0.0
H632 H 0.97995 0.40432 0.9248 0.0
H633 H 0.95176 0.36029 0.95311 0.0
H634 H 0.87299 0.40801 0.90426 0.0
H635 H 0.90059 0.45182 0.87982 0.0
H636 H 0.03726 0.59691 0.67296 0.0
H637 H 0.07504 0.63399 0.68428 0.0
H638 H 0.09629 0.6216 0.3986 0.0
H639 H 0.05773 0.58535 0.38641 0.0
C640 C 0.09531 0.98671 0.48274 0.0
C641 C 0.11719 1.00789 0.49317 0.0
C642 C 0.08594 0.03223 0.6069 0.0
C643 C 0.06692 1.00799 0.61012 0.0
N644 N 0.05667 0.95969 0.55437 0.0
N645 N 0.13401 0.05038 0.57079 0.0
C646 C 0.07212 0.98474 0.54786 0.0
C647 C 0.11253 0.03074 0.55608 0.0
N648 N 0.09687 0.96817 0.41029 0.0
N649 N 0.07826 0.05708 0.65084 0.0
H650 H 0.15338 0.05039 0.53381 0.0
H651 H 0.13338 0.06541 0.62366 0.0
H652 H 0.05862 0.05932 0.68558 0.0
H653 H 0.08978 0.0763 0.64435 0.0
H654 H 0.0802 0.9541 0.39304 0.0
H655 H 0.11352 0.96916 0.36174 0.0
H656 H 0.06214 0.94105 0.5186 0.0
H657 H 0.04014 0.9562 0.60127 0.0
C658 C 0.46281 0.12888 0.50771 0.0
C659 C 0.48794 0.13304 0.45259 0.0
C660 C 0.51057 0.09105 0.52925 0.0
C661 C 0.48482 0.08563 0.58125 0.0
N662 N 0.43375 0.09546 0.59821 0.0
N663 N 0.53143 0.112 0.39102 0.0
C664 C 0.46009 0.10331 0.56333 0.0
C665 C 0.51018 0.11186 0.45641 0.0
N666 N 0.44212 0.14993 0.51111 0.0
N667 N 0.53627 0.07866 0.55365 0.0
H668 H 0.53159 0.12679 0.3366 0.0
H669 H 0.54683 0.09562 0.38543 0.0
H670 H 0.53891 0.06589 0.61173 0.0
H671 H 0.55594 0.08419 0.52305 0.0
H672 H 0.42507 0.14964 0.55811 0.0
H673 H 0.44316 0.16875 0.47164 0.0
H674 H 0.41455 0.10598 0.58088 0.0
H675 H 0.43067 0.07657 0.63637 0.0
C676 C 0.39211 0.51472 0.40497 0.0
C677 C 0.36454 0.50467 0.43537 0.0
C678 C 0.38911 0.47728 0.55931 0.0
C679 C 0.41581 0.49129 0.53846 0.0
N680 N 0.44451 0.51074 0.41439 0.0
N681 N 0.33673 0.47615 0.54224 0.0
C682 C 0.41791 0.50637 0.45312 0.0
C683 C 0.36314 0.48543 0.51179 0.0
N684 N 0.39349 0.53331 0.33187 0.0
N685 N 0.38897 0.45465 0.61997 0.0
H686 H 0.31755 0.4806 0.5072 0.0
H687 H 0.33361 0.46542 0.60453 0.0
H688 H 0.40797 0.44605 0.64739 0.0
H689 H 0.37087 0.44193 0.63328 0.0
H690 H 0.41204 0.54478 0.31378 0.0
H691 H 0.37546 0.53838 0.29184 0.0
H692 H 0.44765 0.51987 0.34965 0.0
H693 H 0.46326 0.50143 0.44102 0.0
C694 C 1.01064 0.41692 0.39507 0.0
C695 C 1.00311 0.38889 0.42758 0.0
C696 C 0.98515 0.4109 0.57134 0.0
C697 C 0.99735 0.43796 0.54537 0.0
N698 N 0.02102 0.46723 0.43072 0.0
N699 N 0.9836 0.35898 0.54858 0.0
C700 C 1.00944 0.44122 0.4559 0.0
C701 C 0.99002 0.38594 0.51573 0.0
N702 N 0.01909 0.42008 0.30563 0.0
N703 N 0.96814 0.40923 0.64817 0.0
H704 H 0.98547 0.34045 0.50872 0.0
H705 H 0.97785 0.35479 0.61655 0.0
H706 H 0.96337 0.42715 0.68858 0.0
H707 H 0.95635 0.39094 0.66668 0.0
H708 H 0.0228 0.43993 0.27394 0.0
H709 H 0.01993 0.40263 0.26064 0.0
H710 H 0.03303 0.47055 0.37104 0.0
H711 H 0.01983 0.48542 0.47238 0.0
C712 C 0.89382 0.01245 0.06755 0.0
C713 C 0.86632 1.00185 0.03965 0.0
C714 C 0.89068 0.97456 0.91598 0.0
C715 C 0.91715 0.98919 0.9339 0.0
N716 N 0.94621 1.00945 0.05442 0.0
N717 N 0.83849 0.97217 0.93792 0.0
C718 C 0.91949 1.00446 0.01811 0.0
C719 C 0.86487 0.98222 0.96516 0.0
N720 N 0.89519 0.03126 0.13926 0.0
N721 N 0.89068 0.95199 0.85607 0.0
H722 H 0.81949 0.97624 0.97455 0.0
H723 H 0.83518 0.96107 0.87693 0.0
H724 H 0.9097 0.94402 0.82678 0.0
H725 H 0.87283 0.93881 0.84475 0.0
H726 H 0.91361 0.04307 0.1555 0.0
H727 H 0.87722 0.03608 0.18007 0.0
H728 H 0.94955 0.0189 0.11813 0.0
H729 H 0.96493 1.00022 0.02735 0.0
C730 C 0.48022 0.90812 0.04685 0.0
C731 C 0.50456 0.90476 0.10577 0.0
C732 C 0.52633 0.94866 0.03667 0.0
C733 C 0.50245 0.95144 0.97576 0.0
N734 N 0.45368 0.9377 0.93713 0.0
N735 N 0.54736 0.92509 0.17139 0.0
C736 C 0.47835 0.93253 0.98615 0.0
C737 C 0.5264 0.92632 0.10554 0.0
N738 N 0.45981 0.8868 0.04417 0.0
N739 N 0.54941 0.96684 0.02647 0.0
H740 H 0.54753 0.90902 0.22203 0.0
H741 H 0.5629 0.94101 0.18095 0.0
H742 H 0.54948 0.98399 0.97962 0.0
H743 H 0.56892 0.96431 0.06108 0.0
H744 H 0.44382 0.88554 0.99415 0.0
H745 H 0.45972 0.86935 0.08974 0.0
H746 H 0.43426 0.92687 0.94849 0.0
H747 H 0.45194 0.95433 0.88906 0.0
C748 C 0.61135 0.53077 0.92594 0.0
C749 C 0.61664 0.50538 0.97866 0.0
C750 C 0.57581 0.48169 0.89951 0.0
C751 C 0.56876 0.50785 0.8521 0.0
N752 N 0.57764 0.55887 0.83414 0.0
N753 N 0.59919 0.45913 0.03082 0.0
C754 C 0.58594 0.53283 0.86965 0.0
C755 C 0.59726 0.48172 0.97033 0.0
N756 N 0.63124 0.55256 0.92624 0.0
N757 N 0.56392 0.45614 0.87252 0.0
H758 H 0.61436 0.45849 0.08375 0.0
H759 H 0.5839 0.44264 0.03434 0.0
H760 H 0.55025 0.45434 0.81635 0.0
H761 H 0.57047 0.43616 0.89844 0.0
H762 H 0.63054 0.57009 0.88112 0.0
H763 H 0.64976 0.55207 0.96696 0.0
H764 H 0.58709 0.57841 0.85227 0.0
H765 H 0.55951 0.56115 0.7927 0.0
C766 C 0.98318 0.64049 0.91201 0.0
C767 C 0.99016 0.63431 1.00469 0.0
C768 C 0.98446 0.58222 0.97064 0.0
C769 C 0.98271 0.58821 0.87446 0.0
N770 N 0.98619 0.62498 0.7546 0.0
N771 N 0.99897 0.59878 0.12217 0.0
C772 C 0.98315 0.61788 0.84536 0.0
C773 C 0.99102 0.60498 0.034 0.0
N774 N 0.97729 0.66834 0.88685 0.0
N775 N 0.97902 0.55491 1.00218 0.0
H776 H 1.00229 0.61486 0.17089 0.0
H777 H 1.00365 0.57797 0.14536 0.0
H778 H 0.97323 0.53801 0.95903 0.0
H779 H 0.97735 0.54969 0.07165 0.0
H780 H 0.96911 0.67402 0.82261 0.0
H781 H 0.97762 0.68532 0.93358 0.0
H782 H 0.98995 0.646 0.73166 0.0
H783 H 0.98863 0.6101 0.70226 0.0
C784 C 0.01219 0.20318 0.75325 0.0
C785 C 0.04127 0.19357 0.75073 0.0
C786 C 0.02501 0.14404 0.75285 0.0
C787 C 0.99712 0.15384 0.72467 0.0
N788 N 0.96219 0.19277 0.72116 0.0
N789 N 0.0724 0.15751 0.8125 0.0
C790 C 0.98988 0.18337 0.73366 0.0
C791 C 0.04605 0.16485 0.77797 0.0
N792 N 1.00541 0.23092 0.77368 0.0
N793 N 0.03222 0.11556 0.74657 0.0
H794 H 0.08811 0.17331 0.82372 0.0
H795 H 0.07763 0.13675 0.83489 0.0
H796 H 0.01731 0.09973 0.72872 0.0
H797 H 0.05329 0.108 0.75473 0.0
H798 H 0.02083 0.24583 0.7953 0.0
H799 H 0.02083 0.24583 0.7953 0.0
H800 H 0.95661 0.21458 0.72551 0.0
H801 H 0.94517 0.17873 0.70686 0.0
C802 C 0.32531 0.87233 0.7471 0.0
C803 C 0.31933 0.85646 0.66661 0.0
C804 C 0.37054 0.84529 0.64986 0.0
C805 C 0.37661 0.86872 0.70818 0.0
N806 N 0.36171 0.89841 0.83427 0.0
N807 N 0.33509 0.81794 0.56822 0.0
C808 C 0.35458 0.87964 0.7662 0.0
C809 C 0.34141 0.83861 0.63069 0.0
N810 N 0.30306 0.88107 0.802 0.0
N811 N 0.3925 0.83121 0.60641 0.0
H812 H 0.31384 0.8131 0.54945 0.0
H813 H 0.31384 0.8131 0.54945 0.0
H814 H 0.41417 0.83611 0.61941 0.0
H815 H 0.38876 0.81449 0.56021 0.0
H816 H 0.30573 0.89228 0.86301 0.0
H817 H 0.28186 0.8745 0.79042 0.0
H818 H 0.34672 0.90952 0.87413 0.0
H819 H 0.38322 0.90273 0.85076 0.0
C820 C 0.63753 0.33535 0.64816 0.0
C821 C 0.65232 0.3283 0.56649 0.0
C822 C 0.66105 0.37937 0.53717 0.0
C823 C 0.63722 0.38539 0.59554 0.0
N824 N 0.60783 0.371 0.72512 0.0
N825 N 0.69038 0.34184 0.46454 0.0
C826 C 0.62769 0.36413 0.65928 0.0
C827 C 0.66929 0.35001 0.5245 0.0
N828 N 0.63275 0.31458 0.71301 0.0
N829 N 0.67368 0.40143 0.4893 0.0
H830 H 0.69493 0.31998 0.45419 0.0
H831 H 0.70362 0.35616 0.42883 0.0
H832 H 0.66743 0.42285 0.49961 0.0
H833 H 0.69039 0.39875 0.44206 0.0
H834 H 0.62318 0.31865 0.77644 0.0
H835 H 0.6417 0.29402 0.70701 0.0
H836 H 0.59737 0.35569 0.766 0.0
H837 H 0.60152 0.39222 0.73759 0.0
C838 C 0.16532 0.65542 0.58419 0.0
C839 C 0.16746 0.67413 0.50795 0.0
C840 C 0.11476 0.6764 0.50339 0.0
C841 C 0.11408 0.64946 0.55061 0.0
N842 N 0.1398 0.61397 0.64304 0.0
N843 N 0.14339 0.71398 0.43392 0.0
C844 C 0.1395 0.63945 0.59566 0.0
C845 C 0.14193 0.68926 0.48427 0.0
N846 N 0.18759 0.65325 0.64471 0.0
N847 N 0.08987 0.68889 0.47242 0.0
H848 H 0.16313 0.72343 0.41569 0.0
H849 H 0.16313 0.72343 0.41569 0.0
H850 H 0.06952 0.68004 0.48606 0.0
H851 H 0.0899 0.70827 0.43533 0.0
H852 H 0.1864 0.64072 0.70437 0.0
H853 H 0.20545 0.66697 0.63988 0.0
H854 H 0.1588 0.605 0.66926 0.0
H855 H 0.12165 0.60084 0.64969 0.0
C856 C 0.14107 0.81991 0.8771 0.0
C857 C 0.15893 0.82048 0.9553 0.0
C858 C 0.15917 0.87292 0.94766 0.0
C859 C 0.13261 0.87119 0.89906 0.0
N860 N 0.10127 0.84374 0.79992 0.0
N861 N 0.19865 0.84586 0.02006 0.0
C862 C 0.12485 0.845 0.85579 0.0
C863 C 0.17347 0.84667 0.97183 0.0
N864 N 0.14006 0.79582 0.82434 0.0
N865 N 0.16905 0.89913 0.97582 0.0
H866 H 0.20755 0.82609 0.04062 0.0
H867 H 0.21097 0.86399 0.03519 0.0
H868 H 0.15872 0.91832 0.95681 0.0
H869 H 0.18722 0.90187 0.01688 0.0
H870 H 0.1283 0.79473 0.7635 0.0
H871 H 0.15391 0.77841 0.83694 0.0
H872 H 0.09309 0.82438 0.7748 0.0
H873 H 0.08942 0.86207 0.78166 0.0
C874 C 0.66453 0.14728 0.8236 0.0
C875 C 0.67036 0.16556 0.89955 0.0
C876 C 0.62159 0.18531 0.88978 0.0
C877 C 0.61388 0.16138 0.83586 0.0
N878 N 0.62903 0.13124 0.71169 0.0
N879 N 0.65829 0.21055 0.97279 0.0
C880 C 0.63587 0.14645 0.78838 0.0
C881 C 0.65066 0.18833 0.91761 0.0
N882 N 0.6854 0.12926 0.79052 0.0
N883 N 0.60072 0.20361 0.92086 0.0
H884 H 0.6793 0.21294 0.99794 0.0
H885 H 0.6793 0.21294 0.99794 0.0
H886 H 0.5791 0.20124 0.90135 0.0
H887 H 0.60539 0.22096 0.96375 0.0
H888 H 0.68125 0.11232 0.74584 0.0
H889 H 0.70716 0.1317 0.80626 0.0
H890 H 0.64429 0.12128 0.66972 0.0
H891 H 0.60809 0.13118 0.68529 0.0
C892 C 0.53526 0.68394 0.70116 0.0
C893 C 0.51242 0.70328 0.68591 0.0
C894 C 0.48003 0.66208 0.69078 0.0
C895 C 0.49996 0.64877 0.75323 0.0
N896 N 0.54847 0.65086 0.82076 0.0
N897 N 0.46496 0.70823 0.62444 0.0
C898 C 0.52883 0.6598 0.75679 0.0
C899 C 0.48577 0.6909 0.66127 0.0
N900 N 0.56283 0.69146 0.67893 0.0
N901 N 0.45605 0.64766 0.66193 0.0
H902 H 0.46961 0.72968 0.60716 0.0
H903 H 0.44365 0.70172 0.61423 0.0
H904 H 0.45254 0.62598 0.67836 0.0
H905 H 0.44152 0.65622 0.61445 0.0
H906 H 0.58029 0.67756 0.69016 0.0
H907 H 0.56709 0.71033 0.64164 0.0
H908 H 0.56888 0.66029 0.82625 0.0
H909 H 0.54326 0.63731 0.87562 0.0
C910 C 0.84208 0.34322 0.97064 0.0
C911 C 0.83592 0.36044 0.04892 0.0
C912 C 0.88777 0.36576 0.07165 0.0
C913 C 0.89251 0.359 0.97912 0.0
N914 N 0.8754 0.33636 0.8426 0.0
N915 N 0.85538 0.39624 0.15365 0.0
C916 C 0.87016 0.34522 0.93005 0.0
C917 C 0.85941 0.37327 0.09691 0.0
N918 N 0.82117 0.32605 0.93428 0.0
N919 N 0.91049 0.37016 0.12916 0.0
H920 H 0.83605 0.40779 0.15541 0.0
H921 H 0.87252 0.40683 0.18545 0.0
H922 H 0.93172 0.36564 0.10919 0.0
H923 H 0.90751 0.37522 0.1983 0.0
H924 H 0.82507 0.31195 0.88016 0.0
H925 H 0.8007 0.32418 0.96428 0.0
H926 H 0.85927 0.32892 0.79888 0.0
H927 H 0.89615 0.33763 0.81407 0.0
C928 C 0.97813 0.12729 0.98679 0.0
C929 C 1.00556 0.13877 0.01183 0.0
C930 C 0.02917 0.09482 0.94838 0.0
C931 C 1.00164 0.08302 0.92657 0.0
N932 N 0.94982 0.08563 0.93908 0.0
N933 N 0.05739 0.13336 0.01776 0.0
C934 C 0.97612 0.09872 0.94924 0.0
C935 C 0.03111 0.12239 0.99284 0.0
N936 N 0.95386 0.14377 0.99879 0.0
N937 N 0.05356 0.08001 0.92333 0.0
H938 H 0.06006 0.15453 0.04015 0.0
H939 H 0.0766 0.12164 0.01802 0.0
H940 H 0.05291 0.05985 0.89194 0.0
H941 H 0.07449 0.08802 0.92837 0.0
H942 H 0.93364 0.13842 0.97268 0.0
H943 H 0.95423 0.16399 0.0297 0.0
H944 H 0.93042 0.09416 0.96329 0.0
H945 H 0.94751 0.06497 0.91195 0.0
C946 C 0.35874 0.9947 0.93786 0.0
C947 C 0.35425 0.01199 0.01666 0.0
C948 C 0.39728 0.04051 0.97194 0.0
C949 C 0.40527 0.01944 0.90536 0.0
N950 N 0.39321 0.97417 0.83124 0.0
N951 N 0.37002 0.05135 0.11072 0.0
C952 C 0.38561 0.9962 0.88855 0.0
C953 C 0.37357 0.03514 0.03355 0.0
N954 N 0.33731 0.97627 0.91144 0.0
N955 N 0.41175 0.06619 0.97451 0.0
H956 H 0.35231 0.0488 0.15467 0.0
H957 H 0.38535 0.06612 0.13344 0.0
H958 H 0.42797 0.07157 0.92748 0.0
H959 H 0.40545 0.08334 0.01598 0.0
H960 H 0.33766 0.9651 0.84961 0.0
H961 H 0.31772 0.97469 0.9471 0.0
H962 H 0.38096 0.95552 0.82392 0.0
H963 H 0.41287 0.97282 0.7969 0.0
C964 C 0.46861 0.38266 0.95197 0.0
C965 C 0.49122 0.36251 0.93594 0.0
C966 C 0.50811 0.39256 0.80546 0.0
C967 C 0.48549 0.41314 0.82159 0.0
N968 N 0.43858 0.42123 0.89025 0.0
N969 N 0.5262 0.34366 0.83025 0.0
C970 C 0.46397 0.4061 0.8887 0.0
C971 C 0.50858 0.3659 0.85613 0.0
N972 N 0.45226 0.38018 0.02981 0.0
N973 N 0.53059 0.39898 0.74763 0.0
H974 H 0.52697 0.32421 0.86683 0.0
H975 H 0.53742 0.3433 0.76812 0.0
H976 H 0.53278 0.41829 0.71181 0.0
H977 H 0.54887 0.38601 0.74138 0.0
H978 H 0.43788 0.3961 0.05153 0.0
H979 H 0.45432 0.36277 0.07517 0.0
H980 H 0.42116 0.41567 0.93233 0.0
H981 H 0.43368 0.43716 0.84173 0.0
C982 C 0.12714 0.53048 0.86032 0.0
C983 C 0.13315 0.51078 0.93326 0.0
C984 C 0.08701 0.48614 0.89783 0.0
C985 C 0.07892 0.50883 0.83631 0.0
N986 N 0.09028 0.55592 0.7741 0.0
N987 N 0.11624 0.47145 0.02854 0.0
C988 C 0.09886 0.53173 0.82069 0.0
C989 C 0.11249 0.48883 0.95342 0.0
N990 N 0.14862 0.54815 0.82847 0.0
N991 N 0.07074 0.46156 0.90174 0.0
H992 H 0.13435 0.47263 0.07081 0.0
H993 H 0.10033 0.45743 0.05297 0.0
H994 H 0.05267 0.45837 0.86028 0.0
H995 H 0.07694 0.44322 0.93858 0.0
H996 H 0.14631 0.5611 0.77016 0.0
H997 H 0.16963 0.54746 0.85456 0.0
H998 H 0.10256 0.57475 0.77258 0.0
H999 H 0.06967 0.55847 0.74646 0.0
C1000 C 0.96584 0.88275 0.50406 0.0
C1001 C 0.9876 0.86177 0.52315 0.0
C1002 C 1.00699 0.89398 0.64303 0.0
C1003 C 0.98405 0.91429 0.62867 0.0
N1004 N 0.93717 0.92293 0.56095 0.0
N1005 N 0.02335 0.84434 0.62985 0.0
C1006 C 0.96214 0.90714 0.56369 0.0
C1007 C 1.00622 0.86643 0.59915 0.0
N1008 N 0.94939 0.88021 0.42684 0.0
N1009 N 0.03083 0.90142 0.69291 0.0
H1010 H 0.02305 0.82385 0.60039 0.0
H1011 H 0.03534 0.84544 0.69026 0.0
H1012 H 0.0339 0.92164 0.72174 0.0
H1013 H 0.04934 0.88858 0.69646 0.0
H1014 H 0.93556 0.89646 0.40359 0.0
H1015 H 0.95124 0.86281 0.38216 0.0
H1016 H 0.9194 0.91723 0.5211 0.0
H1017 H 0.93291 0.93976 0.60627 0.0
C1018 C 0.61447 0.99054 0.52972 0.0
C1019 C 0.63494 0.01299 0.54318 0.0
C1020 C 0.60208 0.03451 0.65895 0.0
C1021 C 0.58197 0.01139 0.64817 0.0
N1022 N 0.57416 0.96309 0.59232 0.0
N1023 N 0.65142 0.05178 0.63851 0.0
C1024 C 0.58976 0.98812 0.58921 0.0
C1025 C 0.62974 0.03338 0.61398 0.0
N1026 N 0.61783 0.97213 0.45757 0.0
N1027 N 0.59432 0.05862 0.70673 0.0
H1028 H 0.67177 0.05148 0.60716 0.0
H1029 H 0.65028 0.06506 0.69587 0.0
H1030 H 0.57416 0.06153 0.73722 0.0
H1031 H 0.60693 0.07717 0.70865 0.0
H1032 H 0.60189 0.95762 0.43742 0.0
H1033 H 0.63568 0.97283 0.41361 0.0
H1034 H 0.58027 0.94448 0.55744 0.0
H1035 H 0.55703 0.95984 0.63804 0.0
C1036 C 0.47685 0.62772 0.4622 0.0
C1037 C 0.50311 0.64376 0.4622 0.0
C1038 C 0.52505 0.60586 0.56176 0.0
C1039 C 0.49968 0.58854 0.55456 0.0
N1040 N 0.45141 0.58272 0.49599 0.0
N1041 N 0.55259 0.64789 0.50979 0.0
C1042 C 0.47554 0.59954 0.50447 0.0
C1043 C 0.52716 0.63288 0.51267 0.0
N1044 N 0.45292 0.63984 0.42255 0.0
N1045 N 0.54743 0.59621 0.61482 0.0
H1046 H 0.55429 0.66825 0.47915 0.0
H1047 H 0.57217 0.64008 0.53492 0.0
H1048 H 0.54756 0.57576 0.64493 0.0
H1049 H 0.56509 0.6088 0.6332 0.0
H1050 H 0.43227 0.63101 0.42607 0.0
H1051 H 0.45328 0.66031 0.39219 0.0
H1052 H 0.43425 0.58744 0.4523 0.0
H1053 H 0.44901 0.56298 0.53 0.0
C1054 C 0.8478 0.50293 0.61211 0.0
C1055 C 0.84257 0.50775 0.51706 0.0
C1056 C 0.893 0.52566 0.5066 0.0
C1057 C 0.8999 0.51392 0.59506 0.0
N1058 N 0.88225 0.48304 0.71852 0.0
N1059 N 0.86417 0.51937 0.36957 0.0
C1060 C 0.8768 0.5005 0.64481 0.0
C1061 C 0.86623 0.51809 0.46293 0.0
N1062 N 0.82507 0.50011 0.67149 0.0
N1063 N 0.91117 0.54492 0.4649 0.0
H1064 H 0.8459 0.5128 0.33372 0.0
H1065 H 0.88186 0.52419 0.32757 0.0
H1066 H 0.92921 0.55353 0.49746 0.0
H1067 H 0.90594 0.55536 0.40347 0.0
H1068 H 0.8279 0.49841 0.74237 0.0
H1069 H 0.80365 0.50279 0.65039 0.0
H1070 H 0.86593 0.4716 0.75244 0.0
H1071 H 0.90295 0.47619 0.73594 0.0
loop_
_geom_bond_atom_site_label_1
_geom_bond_atom_site_label_2
_geom_bond_distance
_geom_bond_site_symmetry_2
_ccdc_geom_bond_type
C0 C1 1.391 . S
C0 C4 1.391 . S
C0 H42 0.948 . S
C1 C0 1.391 . S
C1 C2 1.391 . S
C2 C1 1.391 . S
C2 H58 0.947 . S
C2 C59 1.392 . S
C3 C4 1.391 . S
C3 C7 1.397 . S
C3 C59 1.419 . S
C4 C0 1.391 . S
C4 C3 1.391 . S
C4 C5 1.399 . S
C5 C4 1.399 . S
C5 C8 1.396 . S
C5 C17 1.453 . S
C5 C18 1.684 . S
H6 C30 0.948 . S
C7 C3 1.397 . S
C7 C8 1.394 . S
C7 C26 1.723 . S
C8 C5 1.396 . S
C8 C7 1.394 . S
C8 C38 1.723 . S
H9 C32 0.947 . S
H10 C33 0.948 . S
H11 C39 0.982 . S
H12 C40 0.979 . S
H13 C40 0.980 . S
H14 C40 0.983 . S
H15 C39 0.979 . S
H16 C39 0.977 . S
C17 C5 1.453 . S
C17 H46 0.982 . S
C17 H47 0.979 . S
C17 H48 0.977 . S
C18 C5 1.684 . S
C18 H43 0.979 . S
C18 H44 0.980 . S
C18 H45 0.983 . S
C19 C20 1.391 . S
C19 C24 1.391 . S
C19 H49 0.948 . S
C20 C19 1.391 . S
C20 C21 1.391 . S
C21 C20 1.391 . S
C21 C22 1.392 . S
C21 H50 0.947 . S
C22 C21 1.392 . S
C22 C23 1.419 . S
C22 H51 0.948 . S
C23 C22 1.419 . S
C23 C24 1.391 . S
C23 C27 1.397 . S
C24 C19 1.391 . S
C24 C23 1.391 . S
C24 C25 1.399 . S
C25 C24 1.399 . S
C25 C26 1.396 . S
C25 C28 1.453 . S
C25 C29 1.684 . S
C26 C7 1.723 . S
C26 C25 1.396 . S
C26 C27 1.394 . S
C27 C23 1.397 . S
C27 C26 1.394 . S
C27 C37 1.723 . S
C28 C25 1.453 . S
C28 H52 0.982 . S
C28 H53 0.979 . S
C28 H54 0.977 . S
C29 C25 1.684 . S
C29 H55 0.979 . S
C29 H56 0.980 . S
C29 H57 0.983 . S
C30 H6 0.948 . S
C30 C31 1.391 . S
C30 C35 1.391 . S
C31 C30 1.391 . S
C31 C32 1.391 . S
C32 H9 0.947 . S
C32 C31 1.391 . S
C32 C33 1.392 . S
C33 H10 0.948 . S
C33 C32 1.392 . S
C33 C34 1.419 . S
C34 C33 1.419 . S
C34 C35 1.391 . S
C34 C38 1.397 . S
C35 C30 1.391 . S
C35 C34 1.391 . S
C35 C36 1.399 . S
C36 C35 1.399 . S
C36 C37 1.396 . S
C36 C39 1.453 . S
C36 C40 1.684 . S
C37 C27 1.723 . S
C37 C36 1.396 . S
C37 C38 1.394 . S
C38 C8 1.723 . S
C38 C34 1.397 . S
C38 C37 1.394 . S
C39 H11 0.982 . S
C39 H15 0.979 . S
C39 H16 0.977 . S
C39 C36 1.453 . S
C40 H12 0.979 . S
C40 H13 0.980 . S
C40 H14 0.983 . S
C40 C36 1.684 . S
H41 C59 0.948 . S
H42 C0 0.948 . S
H43 C18 0.979 . S
H44 C18 0.980 . S
H45 C18 0.983 . S
H46 C17 0.982 . S
H47 C17 0.979 . S
H48 C17 0.977 . S
H49 C19 0.948 . S
H50 C21 0.947 . S
H51 C22 0.948 . S
H52 C28 0.982 . S
H53 C28 0.979 . S
H54 C28 0.977 . S
H55 C29 0.979 . S
H56 C29 0.980 . S
H57 C29 0.983 . S
H58 C2 0.947 . S
C59 C2 1.392 . S
C59 C3 1.419 . S
C59 H41 0.948 . S
C60 C61 1.391 . S
C60 C64 1.391 . S
C60 H102 0.948 . S
C61 C60 1.391 . S
C61 C62 1.391 . S
C62 C61 1.391 . S
C62 H118 0.947 . S
C62 C119 1.392 . S
C63 C64 1.391 . S
C63 C67 1.397 1_655 S
C63 C119 1.419 . S
C64 C60 1.391 . S
C64 C63 1.391 . S
C64 C65 1.399 . S
C65 C64 1.399 . S
C65 C68 1.396 1_655 S
C65 C77 1.453 1_655 S
C65 C78 1.684 . S
H66 C90 0.948 . S
C67 C63 1.397 1_455 S
C67 C68 1.394 . S
C67 C86 1.723 . S
C68 C65 1.396 1_455 S
C68 C67 1.394 . S
C68 C98 1.723 . S
H69 C92 0.947 . S
H70 C93 0.948 . S
H71 C99 0.982 . S
H72 C100 0.979 . S
H73 C100 0.980 . S
H74 C100 0.983 . S
H75 C99 0.979 . S
H76 C99 0.977 . S
C77 C65 1.453 1_455 S
C77 H106 0.982 . S
C77 H107 0.979 . S
C77 H108 0.977 . S
C78 C65 1.684 . S
C78 H103 0.979 . S
C78 H104 0.980 . S
C78 H105 0.983 . S
C79 C80 1.391 . S
C79 C84 1.391 . S
C79 H109 0.948 . S
C80 C79 1.391 . S
C80 C81 1.391 . S
C81 C80 1.391 . S
C81 C82 1.392 . S
C81 H110 0.947 . S
C82 C81 1.392 . S
C82 C83 1.419 . S
C82 H111 0.948 . S
C83 C82 1.419 . S
C83 C84 1.391 . S
C83 C87 1.397 1_655 S
C84 C79 1.391 . S
C84 C83 1.391 . S
C84 C85 1.399 . S
C85 C84 1.399 . S
C85 C86 1.396 1_655 S
C85 C88 1.453 1_655 S
C85 C89 1.684 . S
C86 C67 1.723 . S
C86 C85 1.396 1_455 S
C86 C87 1.394 . S
C87 C83 1.397 1_455 S
C87 C86 1.394 . S
C87 C97 1.723 . S
C88 C85 1.453 1_455 S
C88 H112 0.982 . S
C88 H113 0.979 . S
C88 H114 0.977 . S
C89 C85 1.684 . S
C89 H115 0.979 . S
C89 H116 0.980 . S
C89 H117 0.983 . S
C90 H66 0.948 . S
C90 C91 1.391 . S
C90 C95 1.391 . S
C91 C90 1.391 . S
C91 C92 1.391 . S
C92 H69 0.947 . S
C92 C91 1.391 . S
C92 C93 1.392 . S
C93 H70 0.948 . S
C93 C92 1.392 . S
C93 C94 1.419 . S
C94 C93 1.419 . S
C94 C95 1.391 . S
C94 C98 1.397 1_655 S
C95 C90 1.391 . S
C95 C94 1.391 . S
C95 C96 1.399 . S
C96 C95 1.399 . S
C96 C97 1.396 1_655 S
C96 C99 1.453 1_655 S
C96 C100 1.684 . S
C97 C87 1.723 . S
C97 C96 1.396 1_455 S
C97 C98 1.394 . S
C98 C68 1.723 . S
C98 C94 1.397 1_455 S
C98 C97 1.394 . S
C99 H71 0.982 . S
C99 H75 0.979 . S
C99 H76 0.977 . S
C99 C96 1.453 1_455 S
C100 H72 0.979 . S
C100 H73 0.980 . S
C100 H74 0.983 . S
C100 C96 1.684 . S
H101 C119 0.948 . S
H102 C60 0.948 . S
H103 C78 0.979 . S
H104 C78 0.980 . S
H105 C78 0.983 . S
H106 C77 0.982 . S
H107 C77 0.979 . S
H108 C77 0.977 . S
H109 C79 0.948 . S
H110 C81 0.947 . S
H111 C82 0.948 . S
H112 C88 0.982 . S
H113 C88 0.979 . S
H114 C88 0.977 . S
H115 C89 0.979 . S
H116 C89 0.980 . S
H117 C89 0.983 . S
H118 C62 0.947 . S
C119 C62 1.392 . S
C119 C63 1.419 . S
C119 H101 0.948 . S
C120 C121 1.391 . S
C120 C124 1.391 . S
C120 H162 0.948 . S
C121 C120 1.391 . S
C121 C122 1.391 . S
C122 C121 1.391 . S
C122 H178 0.947 . S
C122 C179 1.392 . S
C123 C124 1.391 . S
C123 C127 1.397 1_565 S
C123 C179 1.419 . S
C124 C120 1.391 . S
C124 C123 1.391 . S
C124 C125 1.399 . S
C125 C124 1.399 . S
C125 C128 1.396 1_565 S
C125 C137 1.453 1_565 S
C125 C138 1.684 . S
H126 C150 0.948 . S
C127 C123 1.397 1_545 S
C127 C128 1.394 . S
C127 C146 1.723 . S
C128 C125 1.396 1_545 S
C128 C127 1.394 . S
C128 C158 1.723 . S
H129 C152 0.947 . S
H130 C153 0.948 . S
H131 C159 0.982 . S
H132 C160 0.979 . S
H133 C160 0.980 . S
H134 C160 0.983 . S
H135 C159 0.979 . S
H136 C159 0.977 . S
C137 C125 1.453 1_545 S
C137 H166 0.982 . S
C137 H167 0.979 . S
C137 H168 0.977 . S
C138 C125 1.684 . S
C138 H163 0.979 . S
C138 H164 0.980 . S
C138 H165 0.983 . S
C139 C140 1.391 . S
C139 C144 1.391 . S
C139 H169 0.948 . S
C140 C139 1.391 . S
C140 C141 1.391 . S
C141 C140 1.391 . S
C141 C142 1.392 . S
C141 H170 0.947 . S
C142 C141 1.392 . S
C142 C143 1.419 . S
C142 H171 0.948 . S
C143 C142 1.419 . S
C143 C144 1.391 . S
C143 C147 1.397 1_565 S
C144 C139 1.391 . S
C144 C143 1.391 . S
C144 C145 1.399 . S
C145 C144 1.399 . S
C145 C146 1.396 1_565 S
C145 C148 1.453 1_565 S
C145 C149 1.684 . S
C146 C127 1.723 . S
C146 C145 1.396 1_545 S
C146 C147 1.394 . S
C147 C143 1.397 1_545 S
C147 C146 1.394 . S
C147 C157 1.723 . S
C148 C145 1.453 1_545 S
C148 H172 0.982 . S
C148 H173 0.979 . S
C148 H174 0.977 . S
C149 C145 1.684 . S
C149 H175 0.979 . S
C149 H176 0.980 . S
C149 H177 0.983 . S
C150 H126 0.948 . S
C150 C151 1.391 . S
C150 C155 1.391 . S
C151 C150 1.391 . S
C151 C152 1.391 . S
C152 H129 0.947 . S
C152 C151 1.391 . S
C152 C153 1.392 . S
C153 H130 0.948 . S
C153 C152 1.392 . S
C153 C154 1.419 . S
C154 C153 1.419 . S
C154 C155 1.391 . S
C154 C158 1.397 1_565 S
C155 C150 1.391 . S
C155 C154 1.391 . S
C155 C156 1.399 . S
C156 C155 1.399 . S
C156 C157 1.396 1_565 S
C156 C159 1.453 1_565 S
C156 C160 1.684 . S
C157 C147 1.723 . S
C157 C156 1.396 1_545 S
C157 C158 1.394 . S
C158 C128 1.723 . S
C158 C154 1.397 1_545 S
C158 C157 1.394 . S
C159 H131 0.982 . S
C159 H135 0.979 . S
C159 H136 0.977 . S
C159 C156 1.453 1_545 S
C160 H132 0.979 . S
C160 H133 0.980 . S
C160 H134 0.983 . S
C160 C156 1.684 . S
H161 C179 0.948 . S
H162 C120 0.948 . S
H163 C138 0.979 . S
H164 C138 0.980 . S
H165 C138 0.983 . S
H166 C137 0.982 . S
H167 C137 0.979 . S
H168 C137 0.977 . S
H169 C139 0.948 . S
H170 C141 0.947 . S
H171 C142 0.948 . S
H172 C148 0.982 . S
H173 C148 0.979 . S
H174 C148 0.977 . S
H175 C149 0.979 . S
H176 C149 0.980 . S
H177 C149 0.983 . S
H178 C122 0.947 . S
C179 C122 1.392 . S
C179 C123 1.419 . S
C179 H161 0.948 . S
C180 C181 1.391 . S
C180 C184 1.391 . S
C180 H222 0.948 . S
C181 C180 1.391 . S
C181 C182 1.391 . S
C182 C181 1.391 . S
C182 H238 0.947 . S
C182 C239 1.392 . S
C183 C184 1.391 . S
C183 C187 1.397 . S
C183 C239 1.419 . S
C184 C180 1.391 . S
C184 C183 1.391 . S
C184 C185 1.399 . S
C185 C184 1.399 . S
C185 C188 1.396 . S
C185 C197 1.453 . S
C185 C198 1.684 . S
H186 C210 0.948 . S
C187 C183 1.397 . S
C187 C188 1.394 . S
C187 C206 1.723 . S
C188 C185 1.396 . S
C188 C187 1.394 . S
C188 C218 1.723 . S
H189 C212 0.947 . S
H190 C213 0.948 . S
H191 C219 0.982 . S
H192 C220 0.979 . S
H193 C220 0.980 . S
H194 C220 0.983 . S
H195 C219 0.979 . S
H196 C219 0.977 . S
C197 C185 1.453 . S
C197 H226 0.982 . S
C197 H227 0.979 . S
C197 H228 0.977 . S
C198 C185 1.684 . S
C198 H223 0.979 . S
C198 H224 0.980 . S
C198 H225 0.983 . S
C199 C200 1.391 . S
C199 C204 1.391 . S
C199 H229 0.948 . S
C200 C199 1.391 . S
C200 C201 1.391 . S
C201 C200 1.391 . S
C201 C202 1.392 . S
C201 H230 0.947 . S
C202 C201 1.392 . S
C202 C203 1.419 . S
C202 H231 0.948 . S
C203 C202 1.419 . S
C203 C204 1.391 . S
C203 C207 1.397 . S
C204 C199 1.391 . S
C204 C203 1.391 . S
C204 C205 1.399 . S
C205 C204 1.399 . S
C205 C206 1.396 . S
C205 C208 1.453 . S
C205 C209 1.684 . S
C206 C187 1.723 . S
C206 C205 1.396 . S
C206 C207 1.394 . S
C207 C203 1.397 . S
C207 C206 1.394 . S
C207 C217 1.723 . S
C208 C205 1.453 . S
C208 H232 0.982 . S
C208 H233 0.979 . S
C208 H234 0.977 . S
C209 C205 1.684 . S
C209 H235 0.979 . S
C209 H236 0.980 . S
C209 H237 0.983 . S
C210 H186 0.948 . S
C210 C211 1.391 . S
C210 C215 1.391 . S
C211 C210 1.391 . S
C211 C212 1.391 . S
C212 H189 0.947 . S
C212 C211 1.391 . S
C212 C213 1.392 . S
C213 H190 0.948 . S
C213 C212 1.392 . S
C213 C214 1.419 . S
C214 C213 1.419 . S
C214 C215 1.391 . S
C214 C218 1.397 . S
C215 C210 1.391 . S
C215 C214 1.391 . S
C215 C216 1.399 . S
C216 C215 1.399 . S
C216 C217 1.396 . S
C216 C219 1.453 . S
C216 C220 1.684 . S
C217 C207 1.723 . S
C217 C216 1.396 . S
C217 C218 1.394 . S
C218 C188 1.723 . S
C218 C214 1.397 . S
C218 C217 1.394 . S
C219 H191 0.982 . S
C219 H195 0.979 . S
C219 H196 0.977 . S
C219 C216 1.453 . S
C220 H192 0.979 . S
C220 H193 0.980 . S
C220 H194 0.983 . S
C220 C216 1.684 . S
H221 C239 0.948 . S
H222 C180 0.948 . S
H223 C198 0.979 . S
H224 C198 0.980 . S
H225 C198 0.983 . S
H226 C197 0.982 . S
H227 C197 0.979 . S
H228 C197 0.977 . S
H229 C199 0.948 . S
H230 C201 0.947 . S
H231 C202 0.948 . S
H232 C208 0.982 . S
H233 C208 0.979 . S
H234 C208 0.977 . S
H235 C209 0.979 . S
H236 C209 0.980 . S
H237 C209 0.983 . S
H238 C182 0.947 . S
C239 C182 1.392 . S
C239 C183 1.419 . S
C239 H221 0.948 . S
C240 C241 1.391 . S
C240 C244 1.391 . S
C240 H282 0.948 . S
C241 C240 1.391 . S
C241 C242 1.391 . S
C242 C241 1.391 . S
C242 H298 0.947 . S
C242 C299 1.392 . S
C243 C244 1.391 . S
C243 C247 1.397 . S
C243 C299 1.419 . S
C244 C240 1.391 . S
C244 C243 1.391 . S
C244 C245 1.399 1_554 S
C245 C244 1.399 1_556 S
C245 C248 1.396 . S
C245 C257 1.453 . S
C245 C258 1.684 . S
H246 C270 0.948 . S
C247 C243 1.397 . S
C247 C248 1.394 1_554 S
C247 C266 1.723 . S
C248 C245 1.396 . S
C248 C247 1.394 1_556 S
C248 C278 1.723 . S
H249 C272 0.947 . S
H250 C273 0.948 . S
H251 C279 0.982 . S
H252 C280 0.979 . S
H253 C280 0.980 1_554 S
H254 C280 0.983 . S
H255 C279 0.979 . S
H256 C279 0.977 1_554 S
C257 C245 1.453 . S
C257 H286 0.982 . S
C257 H287 0.979 . S
C257 H288 0.977 . S
C258 C245 1.684 . S
C258 H283 0.979 . S
C258 H284 0.980 . S
C258 H285 0.983 . S
C259 C260 1.391 . S
C259 C264 1.391 . S
C259 H289 0.948 . S
C260 C259 1.391 . S
C260 C261 1.391 . S
C261 C260 1.391 . S
C261 C262 1.392 . S
C261 H290 0.947 . S
C262 C261 1.392 . S
C262 C263 1.419 . S
C262 H291 0.948 . S
C263 C262 1.419 . S
C263 C264 1.391 . S
C263 C267 1.397 . S
C264 C259 1.391 . S
C264 C263 1.391 . S
C264 C265 1.399 . S
C265 C264 1.399 . S
C265 C266 1.396 . S
C265 C268 1.453 . S
C265 C269 1.684 . S
C266 C247 1.723 . S
C266 C265 1.396 . S
C266 C267 1.394 . S
C267 C263 1.397 . S
C267 C266 1.394 . S
C267 C277 1.723 1_554 S
C268 C265 1.453 . S
C268 H292 0.982 . S
C268 H293 0.979 . S
C268 H294 0.977 . S
C269 C265 1.684 . S
C269 H295 0.979 . S
C269 H296 0.980 . S
C269 H297 0.983 . S
C270 H246 0.948 . S
C270 C271 1.391 . S
C270 C275 1.391 . S
C271 C270 1.391 . S
C271 C272 1.391 . S
C272 H249 0.947 . S
C272 C271 1.391 . S
C272 C273 1.392 . S
C273 H250 0.948 . S
C273 C272 1.392 . S
C273 C274 1.419 . S
C274 C273 1.419 . S
C274 C275 1.391 . S
C274 C278 1.397 . S
C275 C270 1.391 . S
C275 C274 1.391 . S
C275 C276 1.399 . S
C276 C275 1.399 . S
C276 C277 1.396 . S
C276 C279 1.453 . S
C276 C280 1.684 . S
C277 C267 1.723 1_556 S
C277 C276 1.396 . S
C277 C278 1.394 . S
C278 C248 1.723 . S
C278 C274 1.397 . S
C278 C277 1.394 . S
C279 H251 0.982 . S
C279 H255 0.979 . S
C279 H256 0.977 1_556 S
C279 C276 1.453 . S
C280 H252 0.979 . S
C280 H253 0.980 1_556 S
C280 H254 0.983 . S
C280 C276 1.684 . S
H281 C299 0.948 . S
H282 C240 0.948 . S
H283 C258 0.979 . S
H284 C258 0.980 . S
H285 C258 0.983 . S
H286 C257 0.982 . S
H287 C257 0.979 . S
H288 C257 0.977 . S
H289 C259 0.948 . S
H290 C261 0.947 . S
H291 C262 0.948 . S
H292 C268 0.982 . S
H293 C268 0.979 . S
H294 C268 0.977 . S
H295 C269 0.979 . S
H296 C269 0.980 . S
H297 C269 0.983 . S
H298 C242 0.947 . S
C299 C242 1.392 . S
C299 C243 1.419 . S
C299 H281 0.948 . S
C300 C301 1.391 . S
C300 C304 1.391 . S
C300 H342 0.948 . S
C301 C300 1.391 . S
C301 C302 1.391 . S
C302 C301 1.391 . S
C302 H358 0.947 . S
C302 C359 1.392 . S
C303 C304 1.391 . S
C303 C307 1.396 1_655 S
C303 C359 1.419 . S
C304 C300 1.391 . S
C304 C303 1.391 . S
C304 C305 1.399 . S
C305 C304 1.399 . S
C305 C308 1.396 1_655 S
C305 C317 1.453 1_655 S
C305 C318 1.684 . S
H306 C330 0.948 . S
C307 C303 1.396 1_455 S
C307 C308 1.395 . S
C307 C326 1.723 1_554 S
C308 C305 1.396 1_455 S
C308 C307 1.395 . S
C308 C338 1.723 . S
H309 C332 0.947 . S
H310 C333 0.948 . S
H311 C339 0.982 . S
H312 C340 0.979 . S
H313 C340 0.980 . S
H314 C340 0.983 . S
H315 C339 0.979 . S
H316 C339 0.977 . S
C317 C305 1.453 1_455 S
C317 H346 0.982 . S
C317 H347 0.979 . S
C317 H348 0.977 . S
C318 C305 1.684 . S
C318 H343 0.979 . S
C318 H344 0.980 . S
C318 H345 0.983 . S
C319 C320 1.391 . S
C319 C324 1.391 . S
C319 H349 0.948 . S
C320 C319 1.391 . S
C320 C321 1.391 . S
C321 C320 1.391 . S
C321 C322 1.392 . S
C321 H350 0.947 . S
C322 C321 1.392 . S
C322 C323 1.419 . S
C322 H351 0.948 . S
C323 C322 1.419 . S
C323 C324 1.391 . S
C323 C327 1.396 1_655 S
C324 C319 1.391 . S
C324 C323 1.391 . S
C324 C325 1.399 . S
C325 C324 1.399 . S
C325 C326 1.396 1_655 S
C325 C328 1.453 1_655 S
C325 C329 1.684 . S
C326 C307 1.723 1_556 S
C326 C325 1.396 1_455 S
C326 C327 1.395 . S
C327 C323 1.396 1_455 S
C327 C326 1.395 . S
C327 C337 1.723 . S
C328 C325 1.453 1_455 S
C328 H352 0.982 . S
C328 H353 0.979 . S
C328 H354 0.977 1_556 S
C329 C325 1.684 . S
C329 H355 0.979 . S
C329 H356 0.980 1_556 S
C329 H357 0.983 . S
C330 H306 0.948 . S
C330 C331 1.391 . S
C330 C335 1.391 . S
C331 C330 1.391 . S
C331 C332 1.391 . S
C332 H309 0.947 . S
C332 C331 1.391 . S
C332 C333 1.392 . S
C333 H310 0.948 . S
C333 C332 1.392 . S
C333 C334 1.419 . S
C334 C333 1.419 . S
C334 C335 1.391 . S
C334 C338 1.396 1_655 S
C335 C330 1.391 . S
C335 C334 1.391 . S
C335 C336 1.399 1_554 S
C336 C335 1.399 1_556 S
C336 C337 1.396 1_655 S
C336 C339 1.453 1_655 S
C336 C340 1.684 . S
C337 C327 1.723 . S
C337 C336 1.396 1_455 S
C337 C338 1.395 1_556 S
C338 C308 1.723 . S
C338 C334 1.396 1_455 S
C338 C337 1.395 1_554 S
C339 H311 0.982 . S
C339 H315 0.979 . S
C339 H316 0.977 . S
C339 C336 1.453 1_455 S
C340 H312 0.979 . S
C340 H313 0.980 . S
C340 H314 0.983 . S
C340 C336 1.684 . S
H341 C359 0.948 . S
H342 C300 0.948 . S
H343 C318 0.979 . S
H344 C318 0.980 . S
H345 C318 0.983 . S
H346 C317 0.982 . S
H347 C317 0.979 . S
H348 C317 0.977 . S
H349 C319 0.948 . S
H350 C321 0.947 . S
H351 C322 0.948 . S
H352 C328 0.982 . S
H353 C328 0.979 . S
H354 C328 0.977 1_554 S
H355 C329 0.979 . S
H356 C329 0.980 1_554 S
H357 C329 0.983 . S
H358 C302 0.947 . S
C359 C302 1.392 . S
C359 C303 1.419 . S
C359 H341 0.948 . S
C360 C361 1.391 . S
C360 C364 1.391 . S
C360 H402 0.948 . S
C361 C360 1.391 . S
C361 C362 1.391 . S
C362 C361 1.391 . S
C362 H418 0.947 . S
C362 C419 1.392 . S
C363 C364 1.391 . S
C363 C367 1.397 1_545 S
C363 C419 1.419 . S
C364 C360 1.391 . S
C364 C363 1.391 . S
C364 C365 1.399 . S
C365 C364 1.399 . S
C365 C368 1.396 1_545 S
C365 C377 1.453 1_545 S
C365 C378 1.684 . S
H366 C390 0.948 . S
C367 C363 1.397 1_565 S
C367 C368 1.394 . S
C367 C386 1.723 1_556 S
C368 C365 1.396 1_565 S
C368 C367 1.394 . S
C368 C398 1.723 1_556 S
H369 C392 0.947 1_556 S
H370 C393 0.948 . S
H371 C399 0.982 . S
H372 C400 0.979 . S
H373 C400 0.980 . S
H374 C400 0.983 . S
H375 C399 0.979 . S
H376 C399 0.977 . S
C377 C365 1.453 1_565 S
C377 H406 0.982 . S
C377 H407 0.979 . S
C377 H408 0.977 . S
C378 C365 1.684 . S
C378 H403 0.979 . S
C378 H404 0.980 . S
C378 H405 0.983 . S
C379 C380 1.391 . S
C379 C384 1.391 . S
C379 H409 0.948 . S
C380 C379 1.391 . S
C380 C381 1.391 . S
C381 C380 1.391 . S
C381 C382 1.392 . S
C381 H410 0.947 . S
C382 C381 1.392 . S
C382 C383 1.419 . S
C382 H411 0.948 . S
C383 C382 1.419 . S
C383 C384 1.391 . S
C383 C387 1.397 1_545 S
C384 C379 1.391 . S
C384 C383 1.391 . S
C384 C385 1.399 . S
C385 C384 1.399 . S
C385 C386 1.396 1_545 S
C385 C388 1.453 1_545 S
C385 C389 1.684 . S
C386 C367 1.723 1_554 S
C386 C385 1.396 1_565 S
C386 C387 1.394 . S
C387 C383 1.397 1_565 S
C387 C386 1.394 . S
C387 C397 1.723 . S
C388 C385 1.453 1_565 S
C388 H412 0.982 . S
C388 H413 0.979 . S
C388 H414 0.977 1_554 S
C389 C385 1.684 . S
C389 H415 0.979 . S
C389 H416 0.980 1_554 S
C389 H417 0.983 . S
C390 H366 0.948 . S
C390 C391 1.391 . S
C390 C395 1.391 . S
C391 C390 1.391 . S
C391 C392 1.391 . S
C392 H369 0.947 1_554 S
C392 C391 1.391 . S
C392 C393 1.392 1_554 S
C393 H370 0.948 . S
C393 C392 1.392 1_556 S
C393 C394 1.419 1_556 S
C394 C393 1.419 1_554 S
C394 C395 1.391 . S
C394 C398 1.397 1_545 S
C395 C390 1.391 . S
C395 C394 1.391 . S
C395 C396 1.399 . S
C396 C395 1.399 . S
C396 C397 1.396 1_545 S
C396 C399 1.453 1_545 S
C396 C400 1.684 . S
C397 C387 1.723 . S
C397 C396 1.396 1_565 S
C397 C398 1.394 . S
C398 C368 1.723 1_554 S
C398 C394 1.397 1_565 S
C398 C397 1.394 . S
C399 H371 0.982 . S
C399 H375 0.979 . S
C399 H376 0.977 . S
C399 C396 1.453 1_565 S
C400 H372 0.979 . S
C400 H373 0.980 . S
C400 H374 0.983 . S
C400 C396 1.684 . S
H401 C419 0.948 . S
H402 C360 0.948 . S
H403 C378 0.979 . S
H404 C378 0.980 . S
H405 C378 0.983 . S
H406 C377 0.982 . S
H407 C377 0.979 . S
H408 C377 0.977 . S
H409 C379 0.948 . S
H410 C381 0.947 . S
H411 C382 0.948 . S
H412 C388 0.982 . S
H413 C388 0.979 . S
H414 C388 0.977 1_556 S
H415 C389 0.979 . S
H416 C389 0.980 1_556 S
H417 C389 0.983 . S
H418 C362 0.947 . S
C419 C362 1.392 . S
C419 C363 1.419 . S
C419 H401 0.948 . S
C420 C421 1.391 . S
C420 C424 1.391 . S
C420 H462 0.948 . S
C421 C420 1.391 . S
C421 C422 1.391 . S
C422 C421 1.391 . S
C422 H478 0.947 . S
C422 C479 1.392 . S
C423 C424 1.391 . S
C423 C427 1.397 . S
C423 C479 1.419 . S
C424 C420 1.391 . S
C424 C423 1.391 . S
C424 C425 1.399 . S
C425 C424 1.399 . S
C425 C428 1.396 . S
C425 C437 1.453 . S
C425 C438 1.684 . S
H426 C450 0.948 . S
C427 C423 1.397 . S
C427 C428 1.394 . S
C427 C446 1.723 1_556 S
C428 C425 1.396 . S
C428 C427 1.394 . S
C428 C458 1.723 1_556 S
H429 C452 0.947 1_556 S
H430 C453 0.948 . S
H431 C459 0.982 . S
H432 C460 0.979 . S
H433 C460 0.980 . S
H434 C460 0.983 . S
H435 C459 0.979 . S
H436 C459 0.977 . S
C437 C425 1.453 . S
C437 H466 0.982 . S
C437 H467 0.979 . S
C437 H468 0.977 . S
C438 C425 1.684 . S
C438 H463 0.979 . S
C438 H464 0.980 . S
C438 H465 0.983 . S
C439 C440 1.391 . S
C439 C444 1.391 . S
C439 H469 0.948 . S
C440 C439 1.391 . S
C440 C441 1.391 . S
C441 C440 1.391 . S
C441 C442 1.392 . S
C441 H470 0.947 . S
C442 C441 1.392 . S
C442 C443 1.419 . S
C442 H471 0.948 . S
C443 C442 1.419 . S
C443 C444 1.391 . S
C443 C447 1.397 . S
C444 C439 1.391 . S
C444 C443 1.391 . S
C444 C445 1.399 . S
C445 C444 1.399 . S
C445 C446 1.396 . S
C445 C448 1.453 . S
C445 C449 1.684 . S
C446 C427 1.723 1_554 S
C446 C445 1.396 . S
C446 C447 1.394 . S
C447 C443 1.397 . S
C447 C446 1.394 . S
C447 C457 1.723 . S
C448 C445 1.453 . S
C448 H472 0.982 . S
C448 H473 0.979 . S
C448 H474 0.977 1_554 S
C449 C445 1.684 . S
C449 H475 0.979 . S
C449 H476 0.980 1_554 S
C449 H477 0.983 . S
C450 H426 0.948 . S
C450 C451 1.391 . S
C450 C455 1.391 . S
C451 C450 1.391 . S
C451 C452 1.391 . S
C452 H429 0.947 1_554 S
C452 C451 1.391 . S
C452 C453 1.392 1_554 S
C453 H430 0.948 . S
C453 C452 1.392 1_556 S
C453 C454 1.419 1_556 S
C454 C453 1.419 1_554 S
C454 C455 1.391 . S
C454 C458 1.397 . S
C455 C450 1.391 . S
C455 C454 1.391 . S
C455 C456 1.399 . S
C456 C455 1.399 . S
C456 C457 1.396 . S
C456 C459 1.453 . S
C456 C460 1.684 . S
C457 C447 1.723 . S
C457 C456 1.396 . S
C457 C458 1.394 . S
C458 C428 1.723 1_554 S
C458 C454 1.397 . S
C458 C457 1.394 . S
C459 H431 0.982 . S
C459 H435 0.979 . S
C459 H436 0.977 . S
C459 C456 1.453 . S
C460 H432 0.979 . S
C460 H433 0.980 . S
C460 H434 0.983 . S
C460 C456 1.684 . S
H461 C479 0.948 . S
H462 C420 0.948 . S
H463 C438 0.979 . S
H464 C438 0.980 . S
H465 C438 0.983 . S
H466 C437 0.982 . S
H467 C437 0.979 . S
H468 C437 0.977 . S
H469 C439 0.948 . S
H470 C441 0.947 . S
H471 C442 0.948 . S
H472 C448 0.982 . S
H473 C448 0.979 . S
H474 C448 0.977 1_556 S
H475 C449 0.979 . S
H476 C449 0.980 1_556 S
H477 C449 0.983 . S
H478 C422 0.947 . S
C479 C422 1.392 . S
C479 C423 1.419 . S
C479 H461 0.948 . S
Pr480 C482 2.880 . S
Pr480 O500 2.562 . S
Pr480 O501 2.490 . S
Pr480 O502 2.695 1_565 S
Pr480 O503 2.512 . S
Pr480 O505 2.437 . S
Pr480 O508 2.436 1_455 S
Pr480 O510 2.438 1_565 S
Pr481 C491 2.880 . S
Pr481 O502 2.436 1_655 S
Pr481 O504 2.438 1_545 S
Pr481 O506 2.562 . S
Pr481 O507 2.490 . S
Pr481 O508 2.695 1_545 S
Pr481 O509 2.512 . S
Pr481 O511 2.437 . S
C482 Pr480 2.880 . S
C482 C483 1.491 . S
C482 O500 1.254 . S
C482 O501 1.225 . S
C483 C482 1.491 . S
C483 C484 1.392 . S
C483 C488 1.354 1_556 S
C484 C483 1.392 . S
C484 C485 1.368 1_556 S
C484 H512 0.929 . S
C485 C484 1.368 1_554 S
C485 C486 1.386 . S
C485 H513 0.929 . S
C486 C485 1.386 . S
C486 C487 1.373 . S
C487 C486 1.373 . S
C487 C488 1.411 . S
C487 H514 0.931 . S
C488 C483 1.354 1_554 S
C488 C487 1.411 . S
C488 H515 0.929 1_454 S
C489 O502 1.270 1_565 S
C489 O503 1.248 . S
C490 O504 1.267 . S
C490 O505 1.278 1_655 S
C491 Pr481 2.880 . S
C491 C492 1.491 . S
C491 O506 1.254 . S
C491 O507 1.225 . S
C492 C491 1.491 . S
C492 C493 1.392 . S
C492 C497 1.356 . S
C493 C492 1.392 . S
C493 C494 1.368 . S
C493 H516 0.929 . S
C494 C493 1.368 . S
C494 C495 1.386 . S
C494 H517 0.929 . S
C495 C494 1.386 . S
C495 C496 1.373 . S
C496 C495 1.373 . S
C496 C497 1.409 . S
C496 H518 0.931 . S
C497 C492 1.356 . S
C497 C496 1.409 . S
C497 H519 0.930 1_655 S
C498 O508 1.270 1_545 S
C498 O509 1.248 . S
C499 O510 1.267 . S
C499 O511 1.278 1_455 S
O500 Pr480 2.562 . S
O500 C482 1.254 . S
O501 Pr480 2.490 . S
O501 C482 1.225 . S
O502 Pr480 2.695 1_545 S
O502 Pr481 2.436 1_455 S
O502 C489 1.270 1_545 S
O503 Pr480 2.512 . S
O503 C489 1.248 . S
O504 Pr481 2.438 1_565 S
O504 C490 1.267 . S
O505 Pr480 2.437 . S
O505 C490 1.278 1_455 S
O506 Pr481 2.562 . S
O506 C491 1.254 . S
O507 Pr481 2.490 . S
O507 C491 1.225 . S
O508 Pr480 2.436 1_655 S
O508 Pr481 2.695 1_565 S
O508 C498 1.270 1_565 S
O509 Pr481 2.512 . S
O509 C498 1.248 . S
O510 Pr480 2.438 1_545 S
O510 C499 1.267 . S
O511 Pr481 2.437 . S
O511 C499 1.278 1_655 S
H512 C484 0.929 . S
H513 C485 0.929 . S
H514 C487 0.931 . S
H515 C488 0.929 1_656 S
H516 C493 0.929 . S
H517 C494 0.929 . S
H518 C496 0.931 . S
H519 C497 0.930 1_455 S
Pr520 C522 2.880 . S
Pr520 O540 2.562 . S
Pr520 O541 2.490 . S
Pr520 O542 2.695 . S
Pr520 O543 2.512 . S
Pr520 O545 2.437 . S
Pr520 O548 2.436 1_545 S
Pr520 O550 2.438 . S
Pr521 C531 2.880 . S
Pr521 O542 2.436 1_565 S
Pr521 O544 2.438 . S
Pr521 O546 2.562 . S
Pr521 O547 2.490 . S
Pr521 O548 2.695 . S
Pr521 O549 2.512 . S
Pr521 O551 2.437 . S
C522 Pr520 2.880 . S
C522 C523 1.491 . S
C522 O540 1.254 . S
C522 O541 1.225 . S
C523 C522 1.491 . S
C523 C524 1.392 . S
C523 C528 1.356 1_556 S
C524 C523 1.392 . S
C524 C525 1.368 1_556 S
C524 H552 0.929 . S
C525 C524 1.368 1_554 S
C525 C526 1.386 . S
C525 H553 0.929 . S
C526 C525 1.386 . S
C526 C527 1.373 . S
C527 C526 1.373 . S
C527 C528 1.409 . S
C527 H554 0.931 . S
C528 C523 1.356 1_554 S
C528 C527 1.409 . S
C528 H555 0.930 1_544 S
C529 O542 1.270 . S
C529 O543 1.248 . S
C530 O544 1.267 . S
C530 O545 1.278 1_565 S
C531 Pr521 2.880 . S
C531 C532 1.491 . S
C531 O546 1.254 . S
C531 O547 1.225 . S
C532 C531 1.491 . S
C532 C533 1.392 . S
C532 C537 1.356 . S
C533 C532 1.392 . S
C533 C534 1.368 . S
C533 H556 0.929 . S
C534 C533 1.368 . S
C534 C535 1.386 . S
C534 H557 0.929 . S
C535 C534 1.386 . S
C535 C536 1.373 . S
C536 C535 1.373 . S
C536 C537 1.409 . S
C536 H558 0.931 . S
C537 C532 1.356 . S
C537 C536 1.409 . S
C537 H559 0.930 1_565 S
C538 O548 1.270 . S
C538 O549 1.248 . S
C539 O550 1.267 . S
C539 O551 1.278 1_545 S
O540 Pr520 2.562 . S
O540 C522 1.254 . S
O541 Pr520 2.490 . S
O541 C522 1.225 . S
O542 Pr520 2.695 . S
O542 Pr521 2.436 1_545 S
O542 C529 1.270 . S
O543 Pr520 2.512 . S
O543 C529 1.248 . S
O544 Pr521 2.438 . S
O544 C530 1.267 . S
O545 Pr520 2.437 . S
O545 C530 1.278 1_545 S
O546 Pr521 2.562 . S
O546 C531 1.254 . S
O547 Pr521 2.490 . S
O547 C531 1.225 . S
O548 Pr520 2.436 1_565 S
O548 Pr521 2.695 . S
O548 C538 1.270 . S
O549 Pr521 2.512 . S
O549 C538 1.248 . S
O550 Pr520 2.438 . S
O550 C539 1.267 . S
O551 Pr521 2.437 . S
O551 C539 1.278 1_565 S
H552 C524 0.929 . S
H553 C525 0.929 . S
H554 C527 0.931 . S
H555 C528 0.930 1_566 S
H556 C533 0.929 . S
H557 C534 0.929 . S
H558 C536 0.931 . S
H559 C537 0.930 1_545 S
Pr560 C562 2.880 . S
Pr560 O580 2.562 . S
Pr560 O581 2.490 . S
Pr560 O582 2.695 . S
Pr560 O583 2.512 . S
Pr560 O585 2.437 . S
Pr560 O588 2.436 . S
Pr560 O590 2.438 . S
Pr561 C571 2.880 . S
Pr561 O582 2.436 . S
Pr561 O584 2.438 . S
Pr561 O586 2.562 . S
Pr561 O587 2.490 . S
Pr561 O588 2.695 . S
Pr561 O589 2.512 . S
Pr561 O591 2.437 . S
C562 Pr560 2.880 . S
C562 C563 1.491 . S
C562 O580 1.254 . S
C562 O581 1.225 . S
C563 C562 1.491 . S
C563 C564 1.392 . S
C563 C568 1.356 1_556 S
C564 C563 1.392 . S
C564 C565 1.368 1_556 S
C564 H592 0.929 . S
C565 C564 1.368 1_554 S
C565 C566 1.386 . S
C565 H593 0.929 . S
C566 C565 1.386 . S
C566 C567 1.373 . S
C567 C566 1.373 . S
C567 C568 1.409 . S
C567 H594 0.931 . S
C568 C563 1.356 1_554 S
C568 C567 1.409 . S
C568 H595 0.930 1_554 S
C569 O582 1.270 . S
C569 O583 1.248 . S
C570 O584 1.267 . S
C570 O585 1.278 . S
C571 Pr561 2.880 . S
C571 C572 1.491 . S
C571 O586 1.254 . S
C571 O587 1.225 . S
C572 C571 1.491 . S
C572 C573 1.392 . S
C572 C577 1.356 . S
C573 C572 1.392 . S
C573 C574 1.368 . S
C573 H596 0.929 . S
C574 C573 1.368 . S
C574 C575 1.386 . S
C574 H597 0.929 . S
C575 C574 1.386 . S
C575 C576 1.373 . S
C576 C575 1.373 . S
C576 C577 1.409 . S
C576 H598 0.931 . S
C577 C572 1.356 . S
C577 C576 1.409 . S
C577 H599 0.930 . S
C578 O588 1.270 . S
C578 O589 1.248 . S
C579 O590 1.267 . S
C579 O591 1.278 . S
O580 Pr560 2.562 . S
O580 C562 1.254 . S
O581 Pr560 2.490 . S
O581 C562 1.225 . S
O582 Pr560 2.695 . S
O582 Pr561 2.436 . S
O582 C569 1.270 . S
O583 Pr560 2.512 . S
O583 C569 1.248 . S
O584 Pr561 2.438 . S
O584 C570 1.267 . S
O585 Pr560 2.437 . S
O585 C570 1.278 . S
O586 Pr561 2.562 . S
O586 C571 1.254 . S
O587 Pr561 2.490 . S
O587 C571 1.225 . S
O588 Pr560 2.436 . S
O588 Pr561 2.695 . S
O588 C578 1.270 . S
O589 Pr561 2.512 . S
O589 C578 1.248 . S
O590 Pr560 2.438 . S
O590 C579 1.267 . S
O591 Pr561 2.437 . S
O591 C579 1.278 . S
H592 C564 0.929 . S
H593 C565 0.929 . S
H594 C567 0.931 . S
H595 C568 0.930 1_556 S
H596 C573 0.929 . S
H597 C574 0.929 . S
H598 C576 0.931 . S
H599 C577 0.930 . S
Pr600 C602 2.880 . S
Pr600 O620 2.562 . S
Pr600 O621 2.490 . S
Pr600 O622 2.695 1_655 S
Pr600 O623 2.512 . S
Pr600 O625 2.437 . S
Pr600 O628 2.436 . S
Pr600 O630 2.438 1_655 S
Pr601 C611 2.880 . S
Pr601 O622 2.436 . S
Pr601 O624 2.438 1_455 S
Pr601 O626 2.562 . S
Pr601 O627 2.490 . S
Pr601 O628 2.695 1_455 S
Pr601 O629 2.512 . S
Pr601 O631 2.437 . S
C602 Pr600 2.880 . S
C602 C603 1.491 . S
C602 O620 1.254 . S
C602 O621 1.225 . S
C603 C602 1.491 . S
C603 C604 1.392 . S
C603 C608 1.356 1_556 S
C604 C603 1.392 . S
C604 C605 1.368 1_556 S
C604 H632 0.929 . S
C605 C604 1.368 1_554 S
C605 C606 1.386 . S
C605 H633 0.929 . S
C606 C605 1.386 . S
C606 C607 1.373 . S
C607 C606 1.373 . S
C607 C608 1.409 . S
C607 H634 0.931 . S
C608 C603 1.356 1_554 S
C608 C607 1.409 . S
C608 H635 0.930 1_554 S
C609 O622 1.266 1_655 S
C609 O623 1.256 . S
C610 O624 1.267 . S
C610 O625 1.278 . S
C611 Pr601 2.880 . S
C611 C612 1.491 . S
C611 O626 1.254 . S
C611 O627 1.225 . S
C612 C611 1.491 . S
C612 C613 1.392 . S
C612 C617 1.356 . S
C613 C612 1.392 . S
C613 C614 1.368 . S
C613 H636 0.929 . S
C614 C613 1.368 . S
C614 C615 1.386 . S
C614 H637 0.929 . S
C615 C614 1.386 . S
C615 C616 1.373 . S
C616 C615 1.373 . S
C616 C617 1.409 . S
C616 H638 0.931 . S
C617 C612 1.356 . S
C617 C616 1.409 . S
C617 H639 0.930 . S
C618 O628 1.263 1_455 S
C618 O629 1.261 . S
C619 O630 1.267 . S
C619 O631 1.278 . S
O620 Pr600 2.562 . S
O620 C602 1.254 . S
O621 Pr600 2.490 . S
O621 C602 1.225 . S
O622 Pr600 2.695 1_455 S
O622 Pr601 2.436 . S
O622 C609 1.266 1_455 S
O623 Pr600 2.512 . S
O623 C609 1.256 . S
O624 Pr601 2.438 1_655 S
O624 C610 1.267 . S
O625 Pr600 2.437 . S
O625 C610 1.278 . S
O626 Pr601 2.562 . S
O626 C611 1.254 . S
O627 Pr601 2.490 . S
O627 C611 1.225 . S
O628 Pr600 2.436 . S
O628 Pr601 2.695 1_655 S
O628 C618 1.263 1_655 S
O629 Pr601 2.512 . S
O629 C618 1.261 . S
O630 Pr600 2.438 1_455 S
O630 C619 1.267 . S
O631 Pr601 2.437 . S
O631 C619 1.278 . S
H632 C604 0.929 . S
H633 C605 0.929 . S
H634 C607 0.931 . S
H635 C608 0.930 1_556 S
H636 C613 0.929 . S
H637 C614 0.929 . S
H638 C616 0.931 . S
H639 C617 0.930 . S
C640 C641 1.354 1_565 S
C640 C646 1.379 . S
C640 N648 1.356 . S
C641 C640 1.354 1_545 S
C641 C647 1.372 . S
C642 C643 1.384 . S
C642 C647 1.379 . S
C642 N649 1.356 . S
C643 C642 1.384 . S
C643 C646 1.342 1_545 S
N644 C646 1.356 . S
N644 H656 0.984 . S
N644 H657 0.985 . S
N645 C647 1.356 . S
N645 H650 0.984 . S
N645 H651 0.985 . S
C646 C640 1.379 . S
C646 C643 1.342 1_565 S
C646 N644 1.356 . S
C647 C641 1.372 . S
C647 C642 1.379 . S
C647 N645 1.356 . S
N648 C640 1.356 . S
N648 H654 0.984 . S
N648 H655 0.984 . S
N649 C642 1.356 . S
N649 H652 0.984 . S
N649 H653 0.985 . S
H650 N645 0.984 . S
H651 N645 0.985 . S
H652 N649 0.984 . S
H653 N649 0.985 . S
H654 N648 0.984 . S
H655 N648 0.984 . S
H656 N644 0.984 . S
H657 N644 0.985 . S
C658 C659 1.363 . S
C658 C664 1.379 . S
C658 N666 1.356 . S
C659 C658 1.363 . S
C659 C665 1.363 . S
C660 C661 1.363 . S
C660 C665 1.379 . S
C660 N667 1.356 . S
C661 C660 1.363 . S
C661 C664 1.363 . S
N662 C664 1.356 . S
N662 H674 0.984 . S
N662 H675 0.985 . S
N663 C665 1.356 . S
N663 H668 0.984 . S
N663 H669 0.985 . S
C664 C658 1.379 . S
C664 C661 1.363 . S
C664 N662 1.356 . S
C665 C659 1.363 . S
C665 C660 1.379 . S
C665 N663 1.356 . S
N666 C658 1.356 . S
N666 H672 0.984 . S
N666 H673 0.984 . S
N667 C660 1.356 . S
N667 H670 0.984 . S
N667 H671 0.985 . S
H668 N663 0.984 . S
H669 N663 0.985 . S
H670 N667 0.984 . S
H671 N667 0.985 . S
H672 N666 0.984 . S
H673 N666 0.984 . S
H674 N662 0.984 . S
H675 N662 0.985 . S
C676 C677 1.363 . S
C676 C682 1.379 . S
C676 N684 1.356 . S
C677 C676 1.363 . S
C677 C683 1.363 . S
C678 C679 1.363 . S
C678 C683 1.379 . S
C678 N685 1.356 . S
C679 C678 1.363 . S
C679 C682 1.363 . S
N680 C682 1.356 . S
N680 H692 0.984 . S
N680 H693 0.985 . S
N681 C683 1.356 . S
N681 H686 0.984 . S
N681 H687 0.985 . S
C682 C676 1.379 . S
C682 C679 1.363 . S
C682 N680 1.356 . S
C683 C677 1.363 . S
C683 C678 1.379 . S
C683 N681 1.356 . S
N684 C676 1.356 . S
N684 H690 0.984 . S
N684 H691 0.984 . S
N685 C678 1.356 . S
N685 H688 0.984 . S
N685 H689 0.985 . S
H686 N681 0.984 . S
H687 N681 0.985 . S
H688 N685 0.984 . S
H689 N685 0.985 . S
H690 N684 0.984 . S
H691 N684 0.984 . S
H692 N680 0.984 . S
H693 N680 0.985 . S
C694 C695 1.377 . S
C694 C700 1.379 . S
C694 N702 1.356 . S
C695 C694 1.377 . S
C695 C701 1.350 1_455 S
C696 C697 1.363 1_655 S
C696 C701 1.379 . S
C696 N703 1.356 . S
C697 C696 1.363 1_455 S
C697 C700 1.363 . S
N698 C700 1.356 . S
N698 H710 0.984 . S
N698 H711 0.985 . S
N699 C701 1.356 . S
N699 H704 0.984 . S
N699 H705 0.985 . S
C700 C694 1.379 . S
C700 C697 1.363 . S
C700 N698 1.356 . S
C701 C695 1.350 1_655 S
C701 C696 1.379 . S
C701 N699 1.356 . S
N702 C694 1.356 . S
N702 H708 0.984 . S
N702 H709 0.984 . S
N703 C696 1.356 . S
N703 H706 0.984 . S
N703 H707 0.985 . S
H704 N699 0.984 . S
H705 N699 0.985 . S
H706 N703 0.984 . S
H707 N703 0.985 . S
H708 N702 0.984 . S
H709 N702 0.984 . S
H710 N698 0.984 . S
H711 N698 0.985 . S
C712 C713 1.361 1_545 S
C712 C718 1.379 . S
C712 N720 1.356 . S
C713 C712 1.361 1_565 S
C713 C719 1.365 . S
C714 C715 1.377 . S
C714 C719 1.379 . S
C714 N721 1.356 1_554 S
C715 C714 1.377 . S
C715 C718 1.349 1_565 S
N716 C718 1.356 1_556 S
N716 H728 0.984 . S
N716 H729 0.985 . S
N717 C719 1.356 . S
N717 H722 0.984 . S
N717 H723 0.985 . S
C718 C712 1.379 . S
C718 C715 1.349 1_545 S
C718 N716 1.356 1_554 S
C719 C713 1.365 . S
C719 C714 1.379 . S
C719 N717 1.356 . S
N720 C712 1.356 . S
N720 H726 0.984 . S
N720 H727 0.984 . S
N721 C714 1.356 1_556 S
N721 H724 0.984 . S
N721 H725 0.985 1_556 S
H722 N717 0.984 . S
H723 N717 0.985 . S
H724 N721 0.984 . S
H725 N721 0.985 1_554 S
H726 N720 0.984 . S
H727 N720 0.984 . S
H728 N716 0.984 . S
H729 N716 0.985 . S
C730 C731 1.363 . S
C730 C736 1.379 . S
C730 N738 1.356 . S
C731 C730 1.363 . S
C731 C737 1.363 . S
C732 C733 1.363 . S
C732 C737 1.379 . S
C732 N739 1.356 1_554 S
C733 C732 1.363 . S
C733 C736 1.363 . S
N734 C736 1.356 1_556 S
N734 H746 0.984 1_556 S
N734 H747 0.985 . S
N735 C737 1.356 . S
N735 H740 0.984 . S
N735 H741 0.985 . S
C736 C730 1.379 . S
C736 C733 1.363 . S
C736 N734 1.356 1_554 S
C737 C731 1.363 . S
C737 C732 1.379 . S
C737 N735 1.356 . S
N738 C730 1.356 . S
N738 H744 0.984 . S
N738 H745 0.984 . S
N739 C732 1.356 1_556 S
N739 H742 0.984 . S
N739 H743 0.985 . S
H740 N735 0.984 . S
H741 N735 0.985 . S
H742 N739 0.984 . S
H743 N739 0.985 . S
H744 N738 0.984 . S
H745 N738 0.984 . S
H746 N734 0.984 1_554 S
H747 N734 0.985 . S
C748 C749 1.363 . S
C748 C754 1.379 . S
C748 N756 1.356 . S
C749 C748 1.363 . S
C749 C755 1.363 . S
C750 C751 1.363 . S
C750 C755 1.379 . S
C750 N757 1.356 1_554 S
C751 C750 1.363 . S
C751 C754 1.363 . S
N752 C754 1.356 . S
N752 H764 0.984 . S
N752 H765 0.985 1_554 S
N753 C755 1.356 . S
N753 H758 0.984 . S
N753 H759 0.985 . S
C754 C748 1.379 . S
C754 C751 1.363 . S
C754 N752 1.356 . S
C755 C749 1.363 . S
C755 C750 1.379 . S
C755 N753 1.356 . S
N756 C748 1.356 . S
N756 H762 0.984 . S
N756 H763 0.984 . S
N757 C750 1.356 1_556 S
N757 H760 0.984 . S
N757 H761 0.985 . S
H758 N753 0.984 . S
H759 N753 0.985 . S
H760 N757 0.984 . S
H761 N757 0.985 . S
H762 N756 0.984 . S
H763 N756 0.984 . S
H764 N752 0.984 . S
H765 N752 0.985 1_556 S
C766 C767 1.378 . S
C766 C772 1.379 . S
C766 N774 1.356 . S
C767 C766 1.378 . S
C767 C773 1.350 1_655 S
C768 C769 1.363 1_455 S
C768 C773 1.379 . S
C768 N775 1.356 1_554 S
C769 C768 1.363 1_655 S
C769 C772 1.363 . S
N770 C772 1.356 1_556 S
N770 H782 0.984 . S
N770 H783 0.985 . S
N771 C773 1.356 . S
N771 H776 0.984 . S
N771 H777 0.985 . S
C772 C766 1.379 . S
C772 C769 1.363 . S
C772 N770 1.356 1_554 S
C773 C767 1.350 1_455 S
C773 C768 1.379 . S
C773 N771 1.356 . S
N774 C766 1.356 . S
N774 H780 0.984 . S
N774 H781 0.984 . S
N775 C768 1.356 1_556 S
N775 H778 0.984 . S
N775 H779 0.985 1_556 S
H776 N771 0.984 . S
H777 N771 0.985 . S
H778 N775 0.984 . S
H779 N775 0.985 1_554 S
H780 N774 0.984 . S
H781 N774 0.984 . S
H782 N770 0.984 . S
H783 N770 0.985 . S
C784 C785 1.363 . S
C784 C790 1.379 . S
C784 N792 1.356 . S
C785 C784 1.363 . S
C785 C791 1.363 . S
C786 C787 1.363 . S
C786 C791 1.379 . S
C786 N793 1.356 . S
C787 C786 1.363 . S
C787 C790 1.363 . S
N788 C790 1.356 . S
N788 H800 0.984 . S
N788 H801 0.985 . S
N789 C791 1.356 1_455 S
N789 H794 0.984 . S
N789 H795 0.985 . S
C790 C784 1.379 . S
C790 C787 1.363 . S
C790 N788 1.356 . S
C791 C785 1.363 . S
C791 C786 1.379 . S
C791 N789 1.356 1_655 S
N792 C784 1.356 . S
N792 H798 0.984 . S
N792 H799 0.949 1_655 S
N793 C786 1.356 . S
N793 H796 0.984 . S
N793 H797 0.985 . S
H794 N789 0.984 . S
H795 N789 0.985 . S
H796 N793 0.984 . S
H797 N793 0.985 . S
H798 N792 0.984 . S
H799 N792 0.949 1_455 S
H800 N788 0.984 . S
H801 N788 0.985 . S
C802 C803 1.363 1_545 S
C802 C808 1.379 1_545 S
C802 N810 1.356 . S
C803 C802 1.363 1_565 S
C803 C809 1.363 . S
C804 C805 1.363 . S
C804 C809 1.379 . S
C804 N811 1.356 . S
C805 C804 1.363 . S
C805 C808 1.363 . S
N806 C808 1.356 . S
N806 H818 0.984 . S
N806 H819 0.985 . S
N807 C809 1.356 . S
N807 H812 0.984 . S
N807 H813 0.985 . S
C808 C802 1.379 1_565 S
C808 C805 1.363 . S
C808 N806 1.356 . S
C809 C803 1.363 . S
C809 C804 1.379 . S
C809 N807 1.356 . S
N810 C802 1.356 . S
N810 H816 0.984 . S
N810 H817 0.984 . S
N811 C804 1.356 . S
N811 H814 0.984 . S
N811 H815 0.985 . S
H812 N807 0.984 . S
H813 N807 0.985 . S
H814 N811 0.984 . S
H815 N811 0.985 . S
H816 N810 0.984 . S
H817 N810 0.984 . S
H818 N806 0.984 . S
H819 N806 0.985 . S
C820 C821 1.363 . S
C820 C826 1.379 . S
C820 N828 1.356 . S
C821 C820 1.363 . S
C821 C827 1.363 . S
C822 C823 1.363 . S
C822 C827 1.379 . S
C822 N829 1.356 . S
C823 C822 1.363 . S
C823 C826 1.363 . S
N824 C826 1.356 . S
N824 H836 0.984 . S
N824 H837 0.985 . S
N825 C827 1.356 . S
N825 H830 0.984 . S
N825 H831 0.985 . S
C826 C820 1.379 . S
C826 C823 1.363 . S
C826 N824 1.356 . S
C827 C821 1.363 . S
C827 C822 1.379 . S
C827 N825 1.356 . S
N828 C820 1.356 . S
N828 H834 0.984 . S
N828 H835 0.984 . S
N829 C822 1.356 . S
N829 H832 0.984 . S
N829 H833 0.985 . S
H830 N825 0.984 . S
H831 N825 0.985 . S
H832 N829 0.984 . S
H833 N829 0.985 . S
H834 N828 0.984 . S
H835 N828 0.984 . S
H836 N824 0.984 . S
H837 N824 0.985 . S
C838 C839 1.363 . S
C838 C844 1.379 . S
C838 N846 1.356 . S
C839 C838 1.363 . S
C839 C845 1.363 . S
C840 C841 1.363 . S
C840 C845 1.379 . S
C840 N847 1.356 . S
C841 C840 1.363 . S
C841 C844 1.363 . S
N842 C844 1.356 . S
N842 H854 0.984 . S
N842 H855 0.985 . S
N843 C845 1.356 . S
N843 H848 0.984 . S
N843 H849 0.985 . S
C844 C838 1.379 . S
C844 C841 1.363 . S
C844 N842 1.356 . S
C845 C839 1.363 . S
C845 C840 1.379 . S
C845 N843 1.356 . S
N846 C838 1.356 . S
N846 H852 0.984 . S
N846 H853 0.984 . S
N847 C840 1.356 . S
N847 H850 0.984 . S
N847 H851 0.985 . S
H848 N843 0.984 . S
H849 N843 0.985 . S
H850 N847 0.984 . S
H851 N847 0.985 . S
H852 N846 0.984 . S
H853 N846 0.984 . S
H854 N842 0.984 . S
H855 N842 0.985 . S
C856 C857 1.363 . S
C856 C862 1.379 . S
C856 N864 1.356 1_455 S
C857 C856 1.363 . S
C857 C863 1.363 . S
C858 C859 1.363 . S
C858 C863 1.379 . S
C858 N865 1.356 1_554 S
C859 C858 1.363 . S
C859 C862 1.363 . S
N860 C862 1.356 . S
N860 H872 0.984 . S
N860 H873 0.985 . S
N861 C863 1.356 1_556 S
N861 H866 0.984 1_456 S
N861 H867 0.985 . S
C862 C856 1.379 . S
C862 C859 1.363 . S
C862 N860 1.356 . S
C863 C857 1.363 . S
C863 C858 1.379 . S
C863 N861 1.356 1_554 S
N864 C856 1.356 1_655 S
N864 H870 0.984 . S
N864 H871 0.984 . S
N865 C858 1.356 1_556 S
N865 H868 0.984 . S
N865 H869 0.985 . S
H866 N861 0.984 1_654 S
H867 N861 0.985 . S
H868 N865 0.984 . S
H869 N865 0.985 . S
H870 N864 0.984 . S
H871 N864 0.984 . S
H872 N860 0.984 . S
H873 N860 0.985 . S
C874 C875 1.363 . S
C874 C880 1.379 . S
C874 N882 1.356 1_544 S
C875 C874 1.363 . S
C875 C881 1.363 . S
C876 C877 1.363 . S
C876 C881 1.379 . S
C876 N883 1.356 . S
C877 C876 1.363 . S
C877 C880 1.363 . S
N878 C880 1.356 1_556 S
N878 H890 0.984 . S
N878 H891 0.985 . S
N879 C881 1.356 1_565 S
N879 H884 0.984 . S
N879 H885 0.985 1_565 S
C880 C874 1.379 . S
C880 C877 1.363 . S
C880 N878 1.356 1_554 S
C881 C875 1.363 . S
C881 C876 1.379 . S
C881 N879 1.356 1_545 S
N882 C874 1.356 1_566 S
N882 H888 0.990 . S
N882 H889 0.984 1_556 S
N883 C876 1.356 . S
N883 H886 0.984 . S
N883 H887 0.985 . S
H884 N879 0.984 . S
H885 N879 0.985 1_545 S
H886 N883 0.984 . S
H887 N883 0.985 . S
H888 N882 0.990 . S
H889 N882 0.984 1_554 S
H890 N878 0.984 . S
H891 N878 0.985 . S
C892 C893 1.363 . S
C892 C898 1.379 . S
C892 N900 1.356 . S
C893 C892 1.363 . S
C893 C899 1.363 . S
C894 C895 1.363 . S
C894 C899 1.379 . S
C894 N901 1.356 1_554 S
C895 C894 1.363 . S
C895 C898 1.363 . S
N896 C898 1.356 . S
N896 H908 0.984 . S
N896 H909 0.985 . S
N897 C899 1.356 . S
N897 H902 0.984 . S
N897 H903 0.985 1_554 S
C898 C892 1.379 . S
C898 C895 1.363 . S
C898 N896 1.356 . S
C899 C893 1.363 . S
C899 C894 1.379 . S
C899 N897 1.356 . S
N900 C892 1.356 . S
N900 H906 0.984 . S
N900 H907 0.984 . S
N901 C894 1.356 1_556 S
N901 H904 0.984 . S
N901 H905 0.985 . S
H902 N897 0.984 . S
H903 N897 0.985 1_556 S
H904 N901 0.984 . S
H905 N901 0.985 . S
H906 N900 0.984 . S
H907 N900 0.984 . S
H908 N896 0.984 . S
H909 N896 0.985 . S
C910 C911 1.363 . S
C910 C916 1.379 . S
C910 N918 1.356 1_554 S
C911 C910 1.363 . S
C911 C917 1.363 . S
C912 C913 1.363 . S
C912 C917 1.379 . S
C912 N919 1.356 . S
C913 C912 1.363 . S
C913 C916 1.363 . S
N914 C916 1.356 1_556 S
N914 H926 0.984 . S
N914 H927 0.985 . S
N915 C917 1.356 . S
N915 H920 0.984 . S
N915 H921 0.985 . S
C916 C910 1.379 . S
C916 C913 1.363 . S
C916 N914 1.356 1_554 S
C917 C911 1.363 . S
C917 C912 1.379 . S
C917 N915 1.356 . S
N918 C910 1.356 1_556 S
N918 H924 0.984 . S
N918 H925 0.984 1_556 S
N919 C912 1.356 . S
N919 H922 0.984 . S
N919 H923 0.985 . S
H920 N915 0.984 . S
H921 N915 0.985 . S
H922 N919 0.984 . S
H923 N919 0.985 . S
H924 N918 0.984 . S
H925 N918 0.984 1_554 S
H926 N914 0.984 . S
H927 N914 0.985 . S
C928 C929 1.363 1_655 S
C928 C934 1.379 . S
C928 N936 1.356 . S
C929 C928 1.363 1_455 S
C929 C935 1.363 . S
C930 C931 1.363 . S
C930 C935 1.379 . S
C930 N937 1.356 . S
C931 C930 1.363 . S
C931 C934 1.363 1_455 S
N932 C934 1.356 . S
N932 H944 0.984 . S
N932 H945 0.985 . S
N933 C935 1.356 . S
N933 H938 0.984 . S
N933 H939 0.985 . S
C934 C928 1.379 . S
C934 C931 1.363 1_655 S
C934 N932 1.356 . S
C935 C929 1.363 . S
C935 C930 1.379 . S
C935 N933 1.356 . S
N936 C928 1.356 . S
N936 H942 0.984 . S
N936 H943 0.984 . S
N937 C930 1.356 . S
N937 H940 0.984 . S
N937 H941 0.985 . S
H938 N933 0.984 . S
H939 N933 0.985 . S
H940 N937 0.984 . S
H941 N937 0.985 . S
H942 N936 0.984 . S
H943 N936 0.984 . S
H944 N932 0.984 . S
H945 N932 0.985 . S
C946 C947 1.363 1_565 S
C946 C952 1.379 . S
C946 N954 1.356 . S
C947 C946 1.363 1_545 S
C947 C953 1.363 . S
C948 C949 1.363 . S
C948 C953 1.379 . S
C948 N955 1.356 . S
C949 C948 1.363 . S
C949 C952 1.363 1_545 S
N950 C952 1.356 . S
N950 H962 0.984 . S
N950 H963 0.985 . S
N951 C953 1.356 . S
N951 H956 0.984 . S
N951 H957 0.985 . S
C952 C946 1.379 . S
C952 C949 1.363 1_565 S
C952 N950 1.356 . S
C953 C947 1.363 . S
C953 C948 1.379 . S
C953 N951 1.356 . S
N954 C946 1.356 . S
N954 H960 0.984 . S
N954 H961 0.984 . S
N955 C948 1.356 . S
N955 H958 0.984 . S
N955 H959 0.985 . S
H956 N951 0.984 . S
H957 N951 0.985 . S
H958 N955 0.984 . S
H959 N955 0.985 . S
H960 N954 0.984 . S
H961 N954 0.984 . S
H962 N950 0.984 . S
H963 N950 0.985 . S
C964 C965 1.363 . S
C964 C970 1.379 . S
C964 N972 1.356 . S
C965 C964 1.363 . S
C965 C971 1.363 . S
C966 C967 1.363 . S
C966 C971 1.379 . S
C966 N973 1.356 . S
C967 C966 1.363 . S
C967 C970 1.363 . S
N968 C970 1.356 . S
N968 H980 0.984 . S
N968 H981 0.985 . S
N969 C971 1.356 . S
N969 H974 0.984 . S
N969 H975 0.985 . S
C970 C964 1.379 . S
C970 C967 1.363 . S
C970 N968 1.356 . S
C971 C965 1.363 . S
C971 C966 1.379 . S
C971 N969 1.356 . S
N972 C964 1.356 . S
N972 H978 0.984 . S
N972 H979 0.984 . S
N973 C966 1.356 . S
N973 H976 0.984 . S
N973 H977 0.985 . S
H974 N969 0.984 . S
H975 N969 0.985 . S
H976 N973 0.984 . S
H977 N973 0.985 . S
H978 N972 0.984 . S
H979 N972 0.984 . S
H980 N968 0.984 . S
H981 N968 0.985 . S
C982 C983 1.363 . S
C982 C988 1.379 . S
C982 N990 1.356 . S
C983 C982 1.363 . S
C983 C989 1.363 . S
C984 C985 1.363 . S
C984 C989 1.379 . S
C984 N991 1.356 . S
C985 C984 1.363 . S
C985 C988 1.363 . S
N986 C988 1.356 . S
N986 H998 0.984 . S
N986 H999 0.985 . S
N987 C989 1.356 . S
N987 H992 0.984 . S
N987 H993 0.985 . S
C988 C982 1.379 . S
C988 C985 1.363 . S
C988 N986 1.356 . S
C989 C983 1.363 . S
C989 C984 1.379 . S
C989 N987 1.356 . S
N990 C982 1.356 . S
N990 H996 0.984 . S
N990 H997 0.984 . S
N991 C984 1.356 . S
N991 H994 0.984 . S
N991 H995 0.985 . S
H992 N987 0.984 . S
H993 N987 0.985 . S
H994 N991 0.984 . S
H995 N991 0.985 . S
H996 N990 0.984 . S
H997 N990 0.984 . S
H998 N986 0.984 . S
H999 N986 0.985 . S
C1000 C1001 1.363 . S
C1000 C1006 1.379 . S
C1000 N1008 1.356 . S
C1001 C1000 1.363 . S
C1001 C1007 1.363 1_655 S
C1002 C1003 1.363 1_455 S
C1002 C1007 1.379 . S
C1002 N1009 1.356 . S
C1003 C1002 1.363 1_655 S
C1003 C1006 1.363 . S
N1004 C1006 1.356 . S
N1004 H1016 0.984 . S
N1004 H1017 0.985 . S
N1005 C1007 1.356 . S
N1005 H1010 0.984 . S
N1005 H1011 0.985 . S
C1006 C1000 1.379 . S
C1006 C1003 1.363 . S
C1006 N1004 1.356 . S
C1007 C1001 1.363 1_455 S
C1007 C1002 1.379 . S
C1007 N1005 1.356 . S
N1008 C1000 1.356 . S
N1008 H1014 0.984 . S
N1008 H1015 0.984 . S
N1009 C1002 1.356 . S
N1009 H1012 0.984 . S
N1009 H1013 0.985 . S
H1010 N1005 0.984 . S
H1011 N1005 0.985 . S
H1012 N1009 0.984 . S
H1013 N1009 0.985 . S
H1014 N1008 0.984 . S
H1015 N1008 0.984 . S
H1016 N1004 0.984 . S
H1017 N1004 0.985 . S
C1018 C1019 1.363 . S
C1018 C1024 1.379 . S
C1018 N1026 1.356 . S
C1019 C1018 1.363 . S
C1019 C1025 1.363 1_565 S
C1020 C1021 1.363 1_545 S
C1020 C1025 1.379 . S
C1020 N1027 1.356 . S
C1021 C1020 1.363 1_565 S
C1021 C1024 1.363 . S
N1022 C1024 1.356 . S
N1022 H1034 0.984 . S
N1022 H1035 0.985 . S
N1023 C1025 1.356 . S
N1023 H1028 0.984 . S
N1023 H1029 0.985 . S
C1024 C1018 1.379 . S
C1024 C1021 1.363 . S
C1024 N1022 1.356 . S
C1025 C1019 1.363 1_545 S
C1025 C1020 1.379 . S
C1025 N1023 1.356 . S
N1026 C1018 1.356 . S
N1026 H1032 0.984 . S
N1026 H1033 0.984 . S
N1027 C1020 1.356 . S
N1027 H1030 0.984 . S
N1027 H1031 0.985 . S
H1028 N1023 0.984 . S
H1029 N1023 0.985 . S
H1030 N1027 0.984 . S
H1031 N1027 0.985 . S
H1032 N1026 0.984 . S
H1033 N1026 0.984 . S
H1034 N1022 0.984 . S
H1035 N1022 0.985 . S
C1036 C1037 1.363 . S
C1036 C1042 1.379 . S
C1036 N1044 1.356 . S
C1037 C1036 1.363 . S
C1037 C1043 1.363 . S
C1038 C1039 1.363 . S
C1038 C1043 1.379 . S
C1038 N1045 1.356 . S
C1039 C1038 1.363 . S
C1039 C1042 1.363 . S
N1040 C1042 1.356 . S
N1040 H1052 0.984 . S
N1040 H1053 0.985 . S
N1041 C1043 1.356 . S
N1041 H1046 0.984 . S
N1041 H1047 0.985 . S
C1042 C1036 1.379 . S
C1042 C1039 1.363 . S
C1042 N1040 1.356 . S
C1043 C1037 1.363 . S
C1043 C1038 1.379 . S
C1043 N1041 1.356 . S
N1044 C1036 1.356 . S
N1044 H1050 0.984 . S
N1044 H1051 0.984 . S
N1045 C1038 1.356 . S
N1045 H1048 0.984 . S
N1045 H1049 0.985 . S
H1046 N1041 0.984 . S
H1047 N1041 0.985 . S
H1048 N1045 0.984 . S
H1049 N1045 0.985 . S
H1050 N1044 0.984 . S
H1051 N1044 0.984 . S
H1052 N1040 0.984 . S
H1053 N1040 0.985 . S
C1054 C1055 1.363 . S
C1054 C1060 1.379 . S
C1054 N1062 1.356 . S
C1055 C1054 1.363 . S
C1055 C1061 1.363 . S
C1056 C1057 1.363 . S
C1056 C1061 1.379 . S
C1056 N1063 1.356 . S
C1057 C1056 1.363 . S
C1057 C1060 1.363 . S
N1058 C1060 1.356 . S
N1058 H1070 0.984 . S
N1058 H1071 0.985 . S
N1059 C1061 1.356 . S
N1059 H1064 0.984 . S
N1059 H1065 0.985 . S
C1060 C1054 1.379 . S
C1060 C1057 1.363 . S
C1060 N1058 1.356 . S
C1061 C1055 1.363 . S
C1061 C1056 1.379 . S
C1061 N1059 1.356 . S
N1062 C1054 1.356 . S
N1062 H1068 0.984 . S
N1062 H1069 0.984 . S
N1063 C1056 1.356 . S
N1063 H1066 0.984 . S
N1063 H1067 0.985 . S
H1064 N1059 0.984 . S
H1065 N1059 0.985 . S
H1066 N1063 0.984 . S
H1067 N1063 0.985 . S
H1068 N1062 0.984 . S
H1069 N1062 0.984 . S
H1070 N1058 0.984 . S
H1071 N1058 0.985 . S
C641 C391 2.664 . S
C643 C489 2.852 1_545 S
C661 C529 2.872 . S
C659 C451 2.677 . S
C679 C569 2.877 . S
C677 C241 2.339 . S
C697 C609 2.857 1_455 S
C695 C331 2.304 1_455 S
C715 C498 2.853 1_564 S
C713 C121 2.298 . S
C731 C211 2.696 . S
C733 C538 2.873 1_554 S
C749 C31 2.704 . S
C751 C578 2.878 1_554 S
C767 C91 2.303 . S
C769 C618 2.857 1_654 S
C787 C495 0.811 . S
C785 C301 0.789 . S
C805 C535 0.807 . S
C803 C380 0.834 1_565 S
C823 C575 0.774 . S
C821 C440 0.785 . S
C839 C260 0.769 . S
C841 C615 0.774 . S
C857 C61 0.823 1_455 S
C859 C486 0.815 . S
C877 C526 0.807 . S
C875 C140 0.817 1_545 S
C895 C566 0.774 . S
C893 C200 0.775 . S
C911 C20 0.780 . S
C913 C606 0.781 . S
C929 C320 3.431 1_455 S
C931 C499 3.749 . S
C947 C361 2.942 . S
C949 C539 3.719 . S
C967 C579 3.710 . S
C965 C421 2.927 . S
C985 C619 3.745 . S
C983 C271 3.424 . S
C1001 C80 3.410 . S
C1003 C490 3.757 . S
C1021 C530 3.719 . S
C1019 C151 3.374 . S
C1039 C570 3.710 . S
C1037 C181 2.969 . S
C1055 C1 3.003 . S
C1057 C610 3.749 . S
