# Generated by pormake.
# Topology zzz, (3,6)-cn, num edge types: 1
# Building blocks:
#     Node 0, Type 0, BuildingBlock: VETTIZ_charged_linker_0, # of connection points: 3
#     Node 1, Type 0, BuildingBlock: VETTIZ_charged_linker_0, # of connection points: 3
#     Node 2, Type 0, BuildingBlock: VETTIZ_charged_linker_0, # of connection points: 3
#     Node 3, Type 0, BuildingBlock: VETTIZ_charged_linker_0, # of connection points: 3
#     Node 4, Type 0, BuildingBlock: VETTIZ_charged_linker_0, # of connection points: 3
#     Node 5, Type 0, BuildingBlock: VETTIZ_charged_linker_0, # of connection points: 3
#     Node 6, Type 0, BuildingBlock: VETTIZ_charged_linker_0, # of connection points: 3
#     Node 7, Type 0, BuildingBlock: VETTIZ_charged_linker_0, # of connection points: 3
#     Node 8, Type 1, BuildingBlock: CIFDUS_clean_sbu_1, # of connection points: 6
#     Node 9, Type 1, BuildingBlock: CIFDUS_clean_sbu_1, # of connection points: 6
#     Node 10, Type 1, BuildingBlock: CIFDUS_clean_sbu_1, # of connection points: 6
#     Node 11, Type 1, BuildingBlock: CIFDUS_clean_sbu_1, # of connection points: 6
#     Edge 12, Type (0, 1), BuildingBlock: XIVTED_clean_linker_0, # of connection points: 2
#     Edge 13, Type (0, 1), BuildingBlock: XIVTED_clean_linker_0, # of connection points: 2
#     Edge 14, Type (0, 1), BuildingBlock: XIVTED_clean_linker_0, # of connection points: 2
#     Edge 15, Type (0, 1), BuildingBlock: XIVTED_clean_linker_0, # of connection points: 2
#     Edge 16, Type (0, 1), BuildingBlock: XIVTED_clean_linker_0, # of connection points: 2
#     Edge 17, Type (0, 1), BuildingBlock: XIVTED_clean_linker_0, # of connection points: 2
#     Edge 18, Type (0, 1), BuildingBlock: XIVTED_clean_linker_0, # of connection points: 2
#     Edge 19, Type (0, 1), BuildingBlock: XIVTED_clean_linker_0, # of connection points: 2
#     Edge 20, Type (0, 1), BuildingBlock: XIVTED_clean_linker_0, # of connection points: 2
#     Edge 21, Type (0, 1), BuildingBlock: XIVTED_clean_linker_0, # of connection points: 2
#     Edge 22, Type (0, 1), BuildingBlock: XIVTED_clean_linker_0, # of connection points: 2
#     Edge 23, Type (0, 1), BuildingBlock: XIVTED_clean_linker_0, # of connection points: 2
#     Edge 24, Type (0, 1), BuildingBlock: XIVTED_clean_linker_0, # of connection points: 2
#     Edge 25, Type (0, 1), BuildingBlock: XIVTED_clean_linker_0, # of connection points: 2
#     Edge 26, Type (0, 1), BuildingBlock: XIVTED_clean_linker_0, # of connection points: 2
#     Edge 27, Type (0, 1), BuildingBlock: XIVTED_clean_linker_0, # of connection points: 2
#     Edge 28, Type (0, 1), BuildingBlock: XIVTED_clean_linker_0, # of connection points: 2
#     Edge 29, Type (0, 1), BuildingBlock: XIVTED_clean_linker_0, # of connection points: 2
#     Edge 30, Type (0, 1), BuildingBlock: XIVTED_clean_linker_0, # of connection points: 2
#     Edge 31, Type (0, 1), BuildingBlock: XIVTED_clean_linker_0, # of connection points: 2
#     Edge 32, Type (0, 1), BuildingBlock: XIVTED_clean_linker_0, # of connection points: 2
#     Edge 33, Type (0, 1), BuildingBlock: XIVTED_clean_linker_0, # of connection points: 2
#     Edge 34, Type (0, 1), BuildingBlock: XIVTED_clean_linker_0, # of connection points: 2
#     Edge 35, Type (0, 1), BuildingBlock: XIVTED_clean_linker_0, # of connection points: 2
# Relax obj value: 0.315
# Max RMSD: 0.222
# Mean RMSD: 0.210
data_MOF--net-zzz--node1-CIFDUS_clean_sbu_1--node2-VETTIZ_charged_linker_0--edge1-XIVTED_clean_linker_0
_symmetry_space_group_name_H-M    P1
_symmetry_Int_Tables_number       1
_symmetry_cell_setting            triclinic
loop_
_symmetry_equiv_pos_as_xyz
'x, y, z'
_cell_length_a     53.63012
_cell_length_b     57.551811
_cell_length_c     20.788995
_cell_angle_alpha  89.930463
_cell_angle_beta   90.119477
_cell_angle_gamma 88.722304
loop_
_atom_site_label
_atom_site_type_symbol
_atom_site_fract_x
_atom_site_fract_y
_atom_site_fract_z
_atom_type_partial_charge
C0 C 0.81025 0.58738 0.34322 0.0
C1 C 0.83576 0.59145 0.35759 0.0
C2 C 0.85 0.60351 0.31234 0.0
C3 C 0.81509 0.6057 0.23868 0.0
C4 C 0.80015 0.59507 0.28338 0.0
C5 C 0.77363 0.59288 0.25743 0.0
H6 H 0.70072 0.59549 0.98354 0.0
C7 C 0.80076 0.60934 0.17885 0.0
C8 C 0.77621 0.60182 0.18821 0.0
H9 H 0.67445 0.57957 0.17447 0.0
H10 H 0.71592 0.58737 0.21815 0.0
H11 H 0.72671 0.6397 0.01843 0.0
H12 H 0.75218 0.56913 0.9963 0.0
H13 H 0.7757 0.58585 0.96278 0.0
H14 H 0.74464 0.58773 0.92947 0.0
H15 H 0.7328 0.62718 0.94096 0.0
H16 H 0.75664 0.64191 0.98568 0.0
C17 C 0.75623 0.60896 0.29704 0.0
C18 C 0.76613 0.56723 0.26002 0.0
C19 C 0.84952 0.62802 0.97943 0.0
C20 C 0.84388 0.62256 0.91553 0.0
C21 C 0.81884 0.62255 0.89561 0.0
C22 C 0.79979 0.62335 0.94141 0.0
C23 C 0.80616 0.62354 1.00719 0.0
C24 C 0.83062 0.62679 0.02508 0.0
C25 C 0.83488 0.62269 0.09553 0.0
C26 C 0.80882 0.61675 0.11743 0.0
C27 C 0.79227 0.61702 0.06556 0.0
C28 C 0.84394 0.64573 0.1254 0.0
C29 C 0.85335 0.60151 0.10261 0.0
C30 C 0.70338 0.59397 0.03505 0.0
C31 C 0.68393 0.58718 0.07522 0.0
C32 C 0.68905 0.58472 0.1419 0.0
C33 C 0.71311 0.58919 0.16723 0.0
C34 C 0.73234 0.59593 0.12545 0.0
C35 C 0.72681 0.59847 0.0607 0.0
C36 C 0.74833 0.60641 0.02198 0.0
C37 C 0.76767 0.60933 0.07382 0.0
C38 C 0.75905 0.60233 0.13483 0.0
C39 C 0.74087 0.62991 0.98955 0.0
C40 C 0.75564 0.58647 0.97471 0.0
H41 H 0.85232 0.61902 0.22157 0.0
H42 H 0.79868 0.57836 0.37729 0.0
H43 H 0.78052 0.55603 0.23621 0.0
H44 H 0.74829 0.56427 0.23522 0.0
H45 H 0.76424 0.56134 0.31066 0.0
H46 H 0.76384 0.62677 0.29954 0.0
H47 H 0.75435 0.60234 0.34698 0.0
H48 H 0.73747 0.61072 0.27551 0.0
H49 H 0.86875 0.62791 0.99567 0.0
H50 H 0.81422 0.6185 0.84617 0.0
H51 H 0.78118 0.62125 0.92382 0.0
H52 H 0.83785 0.66111 0.09639 0.0
H53 H 0.86461 0.64594 0.12853 0.0
H54 H 0.83592 0.649 0.17372 0.0
H55 H 0.85061 0.58867 0.06334 0.0
H56 H 0.85069 0.59132 0.14691 0.0
H57 H 0.87304 0.60703 0.10054 0.0
H58 H 0.86959 0.60658 0.32083 0.0
C59 C 0.83989 0.61066 0.25383 0.0
C60 C 0.99764 0.81162 0.94059 0.0
C61 C 0.99222 0.8355 0.94313 0.0
C62 C 0.99354 0.84724 1.00244 0.0
C63 C 1.00389 0.8113 0.0562 0.0
C64 C 1.0032 0.79982 0.99805 0.0
C65 C 1.00973 0.77447 1.00505 0.0
H66 H 0.99584 0.6798 0.17685 0.0
C67 C 1.00884 0.79413 0.10709 0.0
C68 C 0.01225 0.77248 0.07829 0.0
H69 H 0.02316 0.68755 0.98225 0.0
H70 H 0.03116 0.72766 1.00249 0.0
H71 H 0.04609 0.72131 0.22861 0.0
H72 H 0.96573 0.73153 0.208 0.0
H73 H 0.97902 0.7383 0.28481 0.0
H74 H 0.97806 0.70859 0.25877 0.0
H75 H 0.02513 0.70311 0.27231 0.0
H76 H 0.02996 0.73255 0.29697 0.0
C77 C 0.03479 0.76958 0.96956 0.0
C78 C 0.98757 0.76067 0.97803 0.0
C79 C 1.00335 0.82379 0.33304 0.0
C80 C 1.00351 0.81407 0.39438 0.0
C81 C 1.00519 0.7895 0.39987 0.0
C82 C 1.00622 0.77511 0.34398 0.0
C83 C 1.00621 0.78546 0.28237 0.0
C84 C 1.00491 0.80953 0.27896 0.0
C85 C 1.00483 0.81855 0.21213 0.0
C86 C 1.00745 0.79624 0.17461 0.0
C87 C 1.00814 0.77638 0.21458 0.0
C88 C 0.02811 0.83387 0.20363 0.0
C89 C 0.97922 0.8313 0.20074 0.0
C90 C 1.00311 0.69041 0.13854 0.0
C91 C 1.00741 0.68084 0.07614 0.0
C92 C 0.01857 0.69468 0.02913 0.0
C93 C 0.02283 0.71802 0.0403 0.0
C94 C 0.01512 0.72807 0.09818 0.0
C95 C 1.00782 0.71441 0.14888 0.0
C96 C 1.00649 0.72904 0.21047 0.0
C97 C 1.01038 0.75379 0.18464 0.0
C98 C 0.01431 0.75245 0.11763 0.0
C99 C 0.02805 0.7211 0.25488 0.0
C100 C 0.98087 0.72674 0.24251 0.0
H101 H 1.00124 0.84562 0.10107 0.0
H102 H 0.99819 0.80258 0.89493 0.0
H103 H 0.97007 0.7655 1.00384 0.0
H104 H 0.99015 0.74172 0.98208 0.0
H105 H 0.98474 0.76444 0.92608 0.0
H106 H 0.04333 0.78563 0.9505 0.0
H107 H 0.03224 0.75786 0.92775 0.0
H108 H 0.04909 0.76178 1.0023 0.0
H109 H 1.00233 0.84251 0.32697 0.0
H110 H 1.00545 0.78149 0.44702 0.0
H111 H 1.00683 0.75657 0.3502 0.0
H112 H 0.0444 0.82641 0.23046 0.0
H113 H 0.02454 0.85175 0.22198 0.0
H114 H 0.03448 0.83491 0.15316 0.0
H115 H 0.96505 0.82666 0.23734 0.0
H116 H 0.97048 0.82649 0.15448 0.0
H117 H 0.98107 0.85047 0.20272 0.0
H118 H 0.99104 0.86596 1.00509 0.0
C119 C 0.99968 0.83537 0.0585 0.0
C120 C 0.8225 0.91985 0.1162 0.0
C121 C 0.83362 0.91626 0.05479 0.0
C122 C 0.81938 0.90584 1.00629 0.0
C123 C 0.78351 0.90453 0.07636 0.0
C124 C 0.79739 0.91338 0.12626 0.0
C125 C 0.78163 0.91564 0.1871 0.0
H126 H 0.66268 0.91163 0.3129 0.0
C127 C 0.75767 0.90158 0.09821 0.0
C128 C 0.756 0.9078 0.1637 0.0
H129 H 0.72839 0.93228 0.41643 0.0
H130 H 0.75415 0.9228 0.32253 0.0
H131 H 0.67557 0.93795 0.18868 0.0
H132 H 0.6845 0.8675 0.25176 0.0
H133 H 0.67969 0.86498 0.16866 0.0
H134 H 0.65568 0.8783 0.21829 0.0
H135 H 0.65028 0.91823 0.19537 0.0
H136 H 0.66771 0.92109 0.12205 0.0
C137 C 0.78119 0.94123 0.20879 0.0
C138 C 0.79243 0.89891 0.23843 0.0
C139 C 0.6909 0.88773 0.93037 0.0
C140 C 0.66472 0.88803 0.93514 0.0
C141 C 0.65389 0.88483 0.99633 0.0
C142 C 0.66846 0.88488 0.0518 0.0
C143 C 0.69417 0.88823 0.04661 0.0
C144 C 0.70519 0.88827 0.9868 0.0
C145 C 0.73281 0.89177 0.99103 0.0
C146 C 0.73614 0.89526 0.06321 0.0
C147 C 0.71335 0.89362 0.09487 0.0
C148 C 0.7389 0.91404 0.95239 0.0
C149 C 0.7461 0.86921 0.96662 0.0
C150 C 0.68264 0.91378 0.31661 0.0
C151 C 0.69328 0.92261 0.37271 0.0
C152 C 0.71948 0.92565 0.37365 0.0
C153 C 0.73441 0.92033 0.31901 0.0
C154 C 0.72301 0.91239 0.26222 0.0
C155 C 0.69752 0.909 0.26295 0.0
C156 C 0.68764 0.90109 0.19991 0.0
C157 C 0.71126 0.89971 0.16054 0.0
C158 C 0.7323 0.90666 0.19591 0.0
C159 C 0.6692 0.92035 0.1749 0.0
C160 C 0.67609 0.87681 0.20977 0.0
H161 H 0.78499 0.89297 0.97655 0.0
H162 H 0.83297 0.92767 0.15479 0.0
H163 H 0.79464 0.88106 0.21839 0.0
H164 H 0.78014 0.89764 0.28074 0.0
H165 H 0.81104 0.90462 0.25484 0.0
H166 H 0.7767 0.95288 0.16746 0.0
H167 H 0.79965 0.94609 0.22837 0.0
H168 H 0.76697 0.94486 0.24579 0.0
H169 H 0.69992 0.88945 0.88412 0.0
H170 H 0.63386 0.88489 1.00273 0.0
H171 H 0.65871 0.88422 0.0966 0.0
H172 H 0.72482 0.92809 0.96226 0.0
H173 H 0.73875 0.91061 0.89984 0.0
H174 H 0.75701 0.92149 0.96506 0.0
H175 H 0.73341 0.85418 0.96547 0.0
H176 H 0.76161 0.86355 0.99882 0.0
H177 H 0.75339 0.87145 0.91708 0.0
H178 H 0.82696 0.90316 0.95854 0.0
C179 C 0.79468 0.90001 0.01669 0.0
C180 C 0.50431 0.71538 0.37149 0.0
C181 C 0.50612 0.69082 0.38009 0.0
C182 C 0.50785 0.67652 0.3258 0.0
C183 C 0.50469 0.70987 0.25548 0.0
C184 C 0.50389 0.72464 0.30778 0.0
C185 C 0.50303 0.75003 0.28518 0.0
H186 H 0.4997 0.82168 0.01532 0.0
C187 C 0.50315 0.7237 0.19607 0.0
C188 C 0.50261 0.74755 0.21152 0.0
H189 H 0.50413 0.84654 0.21024 0.0
H190 H 0.50309 0.80603 0.2503 0.0
H191 H 0.53851 0.78261 0.02773 0.0
H192 H 0.45888 0.78679 0.04006 0.0
H193 H 0.46486 0.75973 1.00429 0.0
H194 H 0.47483 0.78582 0.96443 0.0
H195 H 0.51868 0.78539 0.95843 0.0
H196 H 0.52844 0.75738 0.9896 0.0
C197 C 0.52675 0.76196 0.30865 0.0
C198 C 0.47906 0.76213 0.30992 0.0
C199 C 0.49499 0.6802 0.9872 0.0
C200 C 0.492 0.68732 0.92322 0.0
C201 C 0.49202 0.7109 0.90712 0.0
C202 C 0.49462 0.72748 0.95578 0.0
C203 C 0.49718 0.72009 0.02041 0.0
C204 C 0.49746 0.69677 0.03472 0.0
C205 C 0.50048 0.69177 0.10489 0.0
C206 C 0.50133 0.71622 0.1315 0.0
C207 C 0.49954 0.73249 0.08204 0.0
C208 C 0.52568 0.67821 0.11417 0.0
C209 C 0.47693 0.67873 0.12734 0.0
C210 C 0.50053 0.81866 0.06683 0.0
C211 C 0.50195 0.83722 0.1093 0.0
C212 C 0.50317 0.83238 0.17619 0.0
C213 C 0.50268 0.809 0.19924 0.0
C214 C 0.50141 0.79051 0.15477 0.0
C215 C 0.50028 0.79603 0.08987 0.0
C216 C 0.49874 0.77555 0.04726 0.0
C217 C 0.49975 0.75633 0.09595 0.0
C218 C 0.50123 0.76443 0.15998 0.0
C219 C 0.52211 0.77513 1.00296 0.0
C220 C 0.47317 0.77695 0.01165 0.0
H221 H 0.50808 0.67347 0.22602 0.0
H222 H 0.50311 0.72683 0.41268 0.0
H223 H 0.46241 0.75225 0.29518 0.0
H224 H 0.47687 0.77993 0.29028 0.0
H225 H 0.47927 0.76326 0.36327 0.0
H226 H 0.54363 0.75164 0.2944 0.0
H227 H 0.5267 0.76356 0.36192 0.0
H228 H 0.52856 0.77947 0.28783 0.0
H229 H 0.49532 0.66191 1.00001 0.0
H230 H 0.48997 0.7164 0.85751 0.0
H231 H 0.49452 0.74531 0.94091 0.0
H232 H 0.53875 0.6811 0.07355 0.0
H233 H 0.52284 0.6592 0.1176 0.0
H234 H 0.53607 0.68406 0.15715 0.0
H235 H 0.46 0.68516 0.10123 0.0
H236 H 0.47243 0.68146 0.17859 0.0
H237 H 0.47891 0.65978 0.11805 0.0
H238 H 0.50926 0.65777 0.33108 0.0
C239 C 0.50712 0.68578 0.26431 0.0
C240 C 0.32333 0.42388 0.33242 0.0
C241 C 0.33532 0.41938 0.39226 0.0
C242 C 0.32284 0.40655 0.43915 0.0
C243 C 0.28638 0.40459 0.37103 0.0
C244 C 0.29882 0.41574 0.3223 0.0
C245 C 0.28231 0.41816 0.26272 0.0
H246 H 0.16325 0.40912 0.13994 0.0
C247 C 0.2607 0.40026 0.34993 0.0
C248 C 0.2578 0.40771 0.28578 0.0
H249 H 0.22668 0.43644 0.04021 0.0
H250 H 0.25358 0.42607 0.13131 0.0
H251 H 0.18619 0.36551 0.19494 0.0
H252 H 0.17763 0.43396 0.27389 0.0
H253 H 0.16786 0.41429 0.33259 0.0
H254 H 0.1524 0.415 0.25615 0.0
H255 H 0.15819 0.37433 0.2359 0.0
H256 H 0.18422 0.36085 0.27826 0.0
C257 C 0.29411 0.40351 0.20827 0.0
C258 C 0.27935 0.44415 0.24579 0.0
C259 C 0.19644 0.38626 0.52005 0.0
C260 C 0.17044 0.38737 0.51514 0.0
C261 C 0.159 0.38097 0.45703 0.0
C262 C 0.17323 0.3787 0.40113 0.0
C263 C 0.19886 0.38305 0.40426 0.0
C264 C 0.21036 0.38467 0.46348 0.0
C265 C 0.23772 0.3889 0.45768 0.0
C266 C 0.24011 0.39216 0.38529 0.0
C267 C 0.21716 0.38933 0.35468 0.0
C268 C 0.25182 0.36671 0.48209 0.0
C269 C 0.24365 0.41148 0.49526 0.0
C270 C 0.18299 0.41256 0.13686 0.0
C271 C 0.19274 0.42347 0.08249 0.0
C272 C 0.21857 0.42813 0.08172 0.0
C273 C 0.23412 0.4223 0.13479 0.0
C274 C 0.22367 0.4123 0.19012 0.0
C275 C 0.19848 0.40741 0.18954 0.0
C276 C 0.18968 0.39787 0.25211 0.0
C277 C 0.21382 0.39663 0.29003 0.0
C278 C 0.23392 0.40564 0.2548 0.0
C279 C 0.17885 0.37345 0.24004 0.0
C280 C 0.1708 0.41599 0.28049 0.0
H281 H 0.29012 0.3904 0.46798 0.0
H282 H 0.33262 0.43363 0.29531 0.0
H283 H 0.27466 0.45445 0.28954 0.0
H284 H 0.2642 0.44765 0.21102 0.0
H285 H 0.29694 0.45085 0.22548 0.0
H286 H 0.2986 0.38559 0.22558 0.0
H287 H 0.31168 0.41132 0.19134 0.0
H288 H 0.28144 0.40171 0.1668 0.0
H289 H 0.20543 0.39058 0.56504 0.0
H290 H 0.13885 0.38127 0.45258 0.0
H291 H 0.16331 0.37622 0.35699 0.0
H292 H 0.23944 0.35151 0.48633 0.0
H293 H 0.26013 0.36949 0.53038 0.0
H294 H 0.26668 0.36093 0.44825 0.0
H295 H 0.22905 0.42514 0.48605 0.0
H296 H 0.26134 0.41939 0.48132 0.0
H297 H 0.24435 0.40821 0.54789 0.0
H298 H 0.33151 0.40307 0.48546 0.0
C299 C 0.29866 0.39918 0.4289 0.0
C300 C 0.022 0.19807 0.51649 0.0
C301 C 0.0246 0.17391 0.51411 0.0
C302 C 0.02099 0.16216 0.45546 0.0
C303 C 0.01501 0.1987 0.401 0.0
C304 C 0.01737 0.21008 0.45902 0.0
C305 C 0.01499 0.23584 0.45152 0.0
H306 H 1.01008 0.33237 0.27003 0.0
C307 C 0.01229 0.21628 0.35001 0.0
C308 C 0.01242 0.23803 0.37882 0.0
H309 H 0.01122 0.32339 0.47691 0.0
H310 H 0.01113 0.28276 0.46496 0.0
H311 H 0.05072 0.28375 0.23563 0.0
H312 H 0.9695 0.28484 0.23804 0.0
H313 H 0.98402 0.27494 0.16549 0.0
H314 H 0.98593 0.30496 0.18803 0.0
H315 H 0.03342 0.30429 0.1865 0.0
H316 H 0.03565 0.2742 0.16402 0.0
C317 C 0.03952 0.24647 0.47722 0.0
C318 C 0.9907 0.24382 0.48672 0.0
C319 C 0.01042 0.18645 0.12417 0.0
C320 C 1.00985 0.19609 0.06272 0.0
C321 C 1.00984 0.22066 0.05698 0.0
C322 C 1.0101 0.23513 0.11276 0.0
C323 C 0.01042 0.22486 0.17455 0.0
C324 C 0.01066 0.20078 0.17817 0.0
C325 C 0.01136 0.19181 0.24506 0.0
C326 C 0.01145 0.21418 0.28248 0.0
C327 C 0.01071 0.23405 0.24243 0.0
C328 C 0.03605 0.17731 0.25351 0.0
C329 C 0.98702 0.17823 0.25677 0.0
C330 C 0.01042 0.32129 0.31214 0.0
C331 C 0.0107 0.33114 0.37506 0.0
C332 C 0.01098 0.31634 0.42852 0.0
C333 C 0.01089 0.2925 0.42131 0.0
C334 C 0.01083 0.28267 0.35973 0.0
C335 C 0.01044 0.29661 0.30563 0.0
C336 C 1.01018 0.28157 0.24471 0.0
C337 C 0.01053 0.25674 0.27241 0.0
C338 C 0.01111 0.25821 0.34013 0.0
C339 C 0.03378 0.28619 0.20522 0.0
C340 C 0.98608 0.28686 0.20666 0.0
H341 H 0.01354 0.1643 0.3565 0.0
H342 H 0.02363 0.20732 0.56161 0.0
H343 H 0.97662 0.22989 0.4872 0.0
H344 H 0.981 0.25858 0.4624 0.0
H345 H 0.99451 0.24852 0.53753 0.0
H346 H 0.05558 0.23395 0.47361 0.0
H347 H 0.03774 0.25154 0.52854 0.0
H348 H 0.04553 0.26163 0.44894 0.0
H349 H 0.01041 0.16773 0.13038 0.0
H350 H 1.00914 0.22861 0.00977 0.0
H351 H 1.00985 0.25367 0.10631 0.0
H352 H 0.05057 0.18258 0.21856 0.0
H353 H 0.03296 0.15848 0.24619 0.0
H354 H 0.04496 0.17987 0.30091 0.0
H355 H 0.97106 0.18611 0.22951 0.0
H356 H 0.98089 0.17865 0.30753 0.0
H357 H 0.98915 0.15985 0.24112 0.0
H358 H 0.02153 0.14333 0.45343 0.0
C359 C 0.0161 0.17439 0.39912 0.0
C360 C 0.30901 0.08661 0.10501 0.0
C361 C 0.33429 0.09036 0.08823 0.0
C362 C 0.34934 0.10271 0.13086 0.0
C363 C 0.31585 0.10506 0.20846 0.0
C364 C 0.29996 0.09476 0.16532 0.0
C365 C 0.27382 0.09317 0.19366 0.0
H366 H 0.20352 0.09864 0.47105 0.0
C367 C 0.30261 0.10875 0.26978 0.0
C368 C 0.27766 0.1021 0.26245 0.0
H369 H 0.17656 0.08012 0.28241 0.0
H370 H 0.21733 0.08832 0.23669 0.0
H371 H 0.25428 0.07156 0.45873 0.0
H372 H 0.23234 0.14301 0.4298 0.0
H373 H 0.26219 0.14361 0.46449 0.0
H374 H 0.23692 0.13086 0.50857 0.0
H375 H 0.24692 0.09096 0.52379 0.0
H376 H 0.27806 0.08804 0.49213 0.0
C377 C 0.26578 0.06764 0.19215 0.0
C378 C 0.25624 0.1096 0.15525 0.0
C379 C 0.3553 0.12313 0.46589 0.0
C380 C 0.35021 0.12164 0.532 0.0
C381 C 0.32519 0.1234 0.55246 0.0
C382 C 0.30566 0.12346 0.50742 0.0
C383 C 0.31129 0.12143 0.44149 0.0
C384 C 0.33576 0.12234 0.42189 0.0
C385 C 0.33877 0.11893 0.35095 0.0
C386 C 0.31195 0.11517 0.33084 0.0
C387 C 0.29605 0.11626 0.38401 0.0
C388 C 0.35541 0.09676 0.34051 0.0
C389 C 0.34942 0.14164 0.32256 0.0
C390 C 0.20594 0.09668 0.41963 0.0
C391 C 0.18647 0.08872 0.3808 0.0
C392 C 0.19119 0.08594 0.3141 0.0
C393 C 0.21489 0.09064 0.28751 0.0
C394 C 0.23432 0.09788 0.32798 0.0
C395 C 0.22926 0.10111 0.39272 0.0
C396 C 0.25153 0.10856 0.43003 0.0
C397 C 0.27077 0.11011 0.37732 0.0
C398 C 0.26117 0.10334 0.31701 0.0
C399 C 0.25812 0.08899 0.47917 0.0
C400 C 0.24556 0.13267 0.46037 0.0
H401 H 0.3534 0.11824 0.22108 0.0
H402 H 0.29689 0.07739 0.07262 0.0
H403 H 0.26441 0.12714 0.15114 0.0
H404 H 0.23795 0.11207 0.1787 0.0
H405 H 0.25324 0.10285 0.10585 0.0
H406 H 0.28071 0.05613 0.21266 0.0
H407 H 0.26214 0.062 0.14197 0.0
H408 H 0.24886 0.06473 0.22071 0.0
H409 H 0.37419 0.12178 0.44783 0.0
H410 H 0.3207 0.1227 0.60319 0.0
H411 H 0.28702 0.12342 0.52601 0.0
H412 H 0.35032 0.08285 0.37504 0.0
H413 H 0.37544 0.10049 0.34791 0.0
H414 H 0.35335 0.08883 0.29267 0.0
H415 H 0.34725 0.15664 0.35599 0.0
H416 H 0.33941 0.14726 0.27825 0.0
H417 H 0.36965 0.13961 0.31198 0.0
H418 H 0.36873 0.10571 0.1195 0.0
C419 C 0.34035 0.10998 0.19036 0.0
C420 C 0.5188 0.29378 0.07854 0.0
C421 C 0.51798 0.3182 0.06701 0.0
C422 C 0.51652 0.33337 0.11955 0.0
C423 C 0.51718 0.30104 0.19379 0.0
C424 C 0.51831 0.28551 0.14324 0.0
C425 C 0.51828 0.26048 0.16865 0.0
H426 H 0.52262 0.19235 0.44499 0.0
C427 C 0.51743 0.28807 0.25478 0.0
C428 C 0.51856 0.26403 0.24195 0.0
H429 H 0.51018 0.16606 0.25402 0.0
H430 H 0.51538 0.20547 0.20949 0.0
H431 H 0.56321 0.23287 0.41478 0.0
H432 H 0.48433 0.22572 0.43317 0.0
H433 H 0.48864 0.25449 0.4556 0.0
H434 H 0.50339 0.23139 0.50183 0.0
H435 H 0.54728 0.2278 0.4892 0.0
H436 H 0.55248 0.25686 0.46016 0.0
C437 C 0.54176 0.24721 0.14539 0.0
C438 C 0.49404 0.24911 0.14634 0.0
C439 C 0.50591 0.33371 0.45954 0.0
C440 C 0.50512 0.32739 0.52469 0.0
C441 C 0.51082 0.30441 0.54291 0.0
C442 C 0.51615 0.28764 0.49592 0.0
C443 C 0.51567 0.29408 0.43041 0.0
C444 C 0.51129 0.31691 0.41365 0.0
C445 C 0.5131 0.32109 0.34281 0.0
C446 C 0.51671 0.29641 0.3187 0.0
C447 C 0.51855 0.2809 0.37002 0.0
C448 C 0.53669 0.33574 0.33108 0.0
C449 C 0.48806 0.33253 0.31979 0.0
C450 C 0.52135 0.19479 0.39332 0.0
C451 C 0.51567 0.17622 0.35343 0.0
C452 C 0.5143 0.18024 0.28619 0.0
C453 C 0.51699 0.20307 0.2606 0.0
C454 C 0.52054 0.2219 0.3029 0.0
C455 C 0.52271 0.21711 0.36812 0.0
C456 C 0.52234 0.23821 0.40898 0.0
C457 C 0.52039 0.25686 0.35852 0.0
C458 C 0.51989 0.2479 0.29528 0.0
C459 C 0.54751 0.23905 0.44577 0.0
C460 C 0.49867 0.23754 0.45252 0.0
H461 H 0.51523 0.33793 0.21896 0.0
H462 H 0.51994 0.28168 0.03879 0.0
H463 H 0.4776 0.26037 0.15854 0.0
H464 H 0.4912 0.23219 0.16981 0.0
H465 H 0.49418 0.24644 0.09341 0.0
H466 H 0.5588 0.25669 0.15917 0.0
H467 H 0.54153 0.24534 0.0922 0.0
H468 H 0.54321 0.22964 0.16687 0.0
H469 H 0.5032 0.35163 0.44446 0.0
H470 H 0.51151 0.29959 0.59328 0.0
H471 H 0.52048 0.27041 0.51264 0.0
H472 H 0.55146 0.33173 0.3674 0.0
H473 H 0.53227 0.35465 0.33419 0.0
H474 H 0.54578 0.33192 0.28444 0.0
H475 H 0.47234 0.32816 0.35216 0.0
H476 H 0.48205 0.32629 0.27204 0.0
H477 H 0.48919 0.35177 0.31851 0.0
H478 H 0.51593 0.35203 0.11204 0.0
C479 C 0.51627 0.32505 0.18211 0.0
O480 O 0.01257 0.03755 0.77464 0.0
Mn481 Mn 0.01084 0.00507 0.72648 0.0
O482 O 0.97342 0.05183 0.76497 0.0
Mn483 Mn 0.96017 0.02564 0.72606 0.0
O484 O 1.00961 0.97236 0.67831 0.0
O485 O 0.04663 0.00973 0.69231 0.0
Mn486 Mn 0.06334 0.985 0.72171 0.0
O487 O 0.02188 0.98803 0.80887 0.0
O488 O 0.04946 0.95921 0.68261 0.0
O489 O 1.00074 0.02192 0.64332 0.0
O490 O 0.96003 0.02451 0.63768 0.0
O491 O 0.08658 0.00114 0.67818 0.0
O492 O 0.06301 0.98529 0.81024 0.0
C493 C 0.95171 -0.00223 0.78491 0.0
C494 C 0.9959 0.05372 0.78428 0.0
C495 C 0.02667 0.95661 0.6665 0.0
C496 C 0.06793 0.01512 0.6658 0.0
C497 C 0.04217 0.98136 0.83602 0.0
C498 C 0.98104 0.02765 0.61253 0.0
O499 O 0.97453 0.00057 0.76241 0.0
O500 O 0.93456 0.01246 0.76577 0.0
O501 O 0.53335 -0.00043 0.80552 0.0
Mn502 Mn 0.51075 0.00519 0.72636 0.0
O503 O 0.55591 0.03094 0.82168 0.0
Mn504 Mn 0.55532 0.0379 0.7351 0.0
O505 O 0.48843 0.01122 0.64683 0.0
O506 O 0.49701 0.97276 0.74562 0.0
Mn507 Mn 0.46574 0.97427 0.71796 0.0
O508 O 0.48203 0.01998 0.78431 0.0
O509 O 0.46452 0.98088 0.63132 0.0
O510 O 0.53997 0.99075 0.66861 0.0
O511 O 0.57135 0.01589 0.68335 0.0
O512 O 0.46989 0.94462 0.74688 0.0
O513 O 0.44975 0.99584 0.77141 0.0
C514 C 0.52757 0.05803 0.68506 0.0
C515 C 0.54982 0.01051 0.83723 0.0
C516 C 0.47186 0.00074 0.61446 0.0
C517 C 0.4916 0.95174 0.76453 0.0
C518 C 0.45932 0.01403 0.79548 0.0
C519 C 0.56261 0.9974 0.65852 0.0
O520 O 0.52419 0.03736 0.70848 0.0
O521 O 0.54867 0.06688 0.70096 0.0
O522 O 0.50605 0.51999 0.80706 0.0
Mn523 Mn 0.51453 0.50314 0.72259 0.0
O524 O 0.46598 0.52858 0.80888 0.0
Mn525 Mn 0.46518 0.52424 0.72158 0.0
O526 O 0.52484 0.486 0.63935 0.0
O527 O 0.55056 0.50839 0.75279 0.0
Mn528 Mn 0.56807 0.48445 0.72292 0.0
O529 O 0.515 0.47067 0.77115 0.0
O530 O 0.56603 0.48634 0.63469 0.0
O531 O 0.5156 0.53552 0.67234 0.0
O532 O 0.47607 0.54845 0.67159 0.0
O533 O 0.59078 0.50169 0.76583 0.0
O534 O 0.55513 0.45825 0.76309 0.0
C535 C 0.45337 0.49464 0.67801 0.0
C536 C 0.48713 0.52878 0.83536 0.0
C537 C 0.54529 0.4811 0.61025 0.0
C538 C 0.57156 0.51484 0.77857 0.0
C539 C 0.53261 0.45534 0.78125 0.0
C540 C 0.49871 0.5507 0.65579 0.0
O541 O 0.4773 0.49675 0.69351 0.0
O542 O 0.43782 0.51129 0.69334 0.0
O543 O 0.04165 0.49067 0.77628 0.0
Mn544 Mn 1.00991 0.50522 0.72752 0.0
O545 O 0.07085 0.51827 0.77348 0.0
Mn546 Mn 0.05424 0.53853 0.71793 0.0
O547 O 0.97808 0.51979 0.67829 0.0
O548 O 0.99718 0.47223 0.71227 0.0
Mn549 Mn 0.96577 0.47314 0.73908 0.0
O550 O 0.9928 0.50864 0.81489 0.0
O551 O 0.94927 0.49197 0.6803 0.0
O552 O 0.02737 0.50226 0.64011 0.0
O553 O 0.05618 0.52936 0.6329 0.0
O554 O 0.97146 0.44298 0.71611 0.0
O555 O 0.96187 0.48368 0.82254 0.0
C556 C 0.02602 0.55905 0.76453 0.0
C557 C 0.06327 0.4985 0.79212 0.0
C558 C 0.95667 0.51172 0.66136 0.0
C559 C 0.99257 0.45076 0.69591 0.0
C560 C 0.97259 0.50205 0.8404 0.0
C561 C 0.04778 0.50966 0.61728 0.0
O562 O 0.02285 0.53793 0.74366 0.0
O563 O 0.04693 0.56798 0.74743 0.0
H564 H 0.15589 0.05216 0.35149 0.0
H565 H 0.08124 0.06037 0.68173 0.0
H566 H 0.16153 0.11011 0.48182 0.0
H567 H 0.06757 0.00876 0.53722 0.0
H568 H 0.1059 0.08208 0.60349 0.0
H569 H 0.11993 0.03877 0.41237 0.0
C570 C 0.14938 0.06235 0.3921 0.0
C571 C 0.16221 0.08218 0.41162 0.0
C572 C 0.09687 0.06638 0.58809 0.0
C573 C 0.12094 0.06659 0.48289 0.0
C574 C 0.08234 0.05423 0.63256 0.0
C575 C 0.07174 0.033 0.61563 0.0
C576 C 0.10143 0.05693 0.52661 0.0
C577 C 0.07484 0.02534 0.55189 0.0
C578 C 0.12883 0.05458 0.42727 0.0
C579 C 0.15279 0.0944 0.4655 0.0
N580 N 0.0897 0.037 0.51026 0.0
N581 N 0.13306 0.08629 0.49947 0.0
H582 H 0.47997 0.17045 0.44383 0.0
H583 H 0.53352 0.04636 0.56017 0.0
H584 H 0.53714 0.13211 0.34122 0.0
H585 H 0.49519 0.0953 0.68338 0.0
H586 H 0.52535 0.07221 0.46797 0.0
H587 H 0.47613 0.138 0.51869 0.0
C588 C 0.49124 0.15485 0.43593 0.0
C589 C 0.50896 0.15405 0.38604 0.0
C590 C 0.51808 0.077 0.51478 0.0
C591 C 0.50479 0.11668 0.47266 0.0
C592 C 0.52235 0.06207 0.56723 0.0
C593 C 0.51424 0.06831 0.62919 0.0
C594 C 0.50588 0.09855 0.5244 0.0
C595 C 0.50095 0.08942 0.63614 0.0
C596 C 0.48916 0.13639 0.47911 0.0
C597 C 0.52314 0.13344 0.37854 0.0
N598 N 0.49733 0.10382 0.58461 0.0
N599 N 0.52095 0.11566 0.42183 0.0
H600 H 0.37971 0.39656 0.41635 0.0
H601 H 0.40798 0.47673 0.69408 0.0
H602 H 0.34424 0.46435 0.42197 0.0
H603 H 0.47239 0.47089 0.57161 0.0
H604 H 0.38316 0.45778 0.61192 0.0
H605 H 0.4137 0.4111 0.4846 0.0
C606 C 0.37971 0.41478 0.4294 0.0
C607 C 0.35946 0.42948 0.41198 0.0
C608 C 0.40292 0.46001 0.60377 0.0
C609 C 0.39748 0.44575 0.4922 0.0
C610 C 0.41725 0.47058 0.65085 0.0
C611 C 0.44249 0.47545 0.63981 0.0
C612 C 0.41385 0.4536 0.54528 0.0
C613 C 0.45325 0.46716 0.58243 0.0
C614 C 0.39895 0.42294 0.46874 0.0
C615 C 0.35979 0.45265 0.43269 0.0
N616 N 0.4388 0.45677 0.53668 0.0
N617 N 0.37813 0.4599 0.47291 0.0
H618 H 0.05008 0.3605 0.38264 0.0
H619 H 1.00286 0.40462 0.69853 0.0
H620 H 0.97103 0.35703 0.41509 0.0
H621 H 1.00915 0.4647 0.57642 0.0
H622 H 1.00984 0.37954 0.60475 0.0
H623 H 0.05182 0.39339 0.45859 0.0
C624 C 0.03287 0.36754 0.40262 0.0
C625 C 1.01023 0.35636 0.39095 0.0
C626 C 0.0106 0.39823 0.59904 0.0
C627 C 0.01238 0.39298 0.48021 0.0
C628 C 1.0069 0.41257 0.65256 0.0
C629 C 1.00598 0.43687 0.64587 0.0
C630 C 0.01345 0.40814 0.53798 0.0
C631 C 0.01045 0.44613 0.58429 0.0
C632 C 0.03398 0.386 0.44683 0.0
C633 C 0.9887 0.36553 0.42102 0.0
N634 N 0.0137 0.43175 0.53241 0.0
N635 N 0.99042 0.3828 0.46546 0.0
H636 H 0.87039 0.89393 0.98436 0.0
H637 H 0.93276 0.0138 0.89569 0.0
H638 H 0.85383 0.95885 0.08001 0.0
H639 H 0.95353 0.94955 0.80199 0.0
H640 H 0.90928 0.99233 0.97506 0.0
H641 H 0.9055 0.91194 0.92985 0.0
C642 C 0.87447 0.91187 0.99511 0.0
C643 C 0.85879 0.92496 0.03647 0.0
C644 C 0.9194 0.9827 0.93837 0.0
C645 C 0.89916 0.94578 0.9735 0.0
C646 C 0.93306 0.99498 0.8931 0.0
C647 C 0.94522 0.98349 0.84197 0.0
C648 C 0.91751 0.95853 0.93279 0.0
C649 C 0.94459 0.95912 0.84069 0.0
C650 C 0.89454 0.92214 0.9637 0.0
C651 C 0.86528 0.94801 0.04883 0.0
N652 N 0.93063 0.94745 0.88489 0.0
N653 N 0.88465 0.95773 0.01679 0.0
H654 H 0.53981 0.86888 0.10441 0.0
H655 H 0.50228 0.90574 0.76405 0.0
H656 H 0.46488 0.85736 0.0388 0.0
H657 H 0.50553 0.9663 0.88449 0.0
H658 H 0.50688 0.88107 0.85971 0.0
H659 H 0.54357 0.89986 0.02235 0.0
C660 C 0.52381 0.87357 0.07491 0.0
C661 C 0.50181 0.86082 0.07942 0.0
C662 C 0.50774 0.89977 0.86482 0.0
C663 C 0.50647 0.89513 0.98395 0.0
C664 C 0.50547 0.91387 0.81025 0.0
C665 C 0.50457 0.93819 0.81588 0.0
C666 C 0.50928 0.90994 0.92587 0.0
C667 C 0.50746 0.94771 0.87765 0.0
C668 C 0.52611 0.89096 0.02759 0.0
C669 C 0.48199 0.86702 0.0379 0.0
N670 N 0.50947 0.93358 0.93053 0.0
N671 N 0.48499 0.88327 0.99116 0.0
H672 H 0.65103 0.55238 0.10536 0.0
H673 H 0.5886 0.55848 0.76143 0.0
H674 H 0.66005 0.61007 0.97533 0.0
H675 H 0.56513 0.5107 0.90736 0.0
H676 H 0.6102 0.58086 0.84381 0.0
H677 H 0.61544 0.53988 0.04073 0.0
C678 C 0.64533 0.56269 0.06408 0.0
C679 C 0.65917 0.58196 0.04512 0.0
C680 C 0.59964 0.56595 0.85847 0.0
C681 C 0.61863 0.56742 0.96976 0.0
C682 C 0.58697 0.55338 0.8114 0.0
C683 C 0.57458 0.53303 0.82778 0.0
C684 C 0.6006 0.5577 0.92227 0.0
C685 C 0.57402 0.52659 0.89297 0.0
C686 C 0.62503 0.55546 0.02683 0.0
C687 C 0.65064 0.5946 0.99087 0.0
N688 N 0.58723 0.53859 0.93759 0.0
N689 N 0.63137 0.58688 0.95463 0.0
H690 H 0.96899 0.67129 0.99694 0.0
H691 H 0.02604 0.54716 0.8915 0.0
H692 H 0.03029 0.6381 0.09761 0.0
H693 H 0.99702 0.59854 0.75893 0.0
H694 H 0.01509 0.57326 0.98161 0.0
H695 H 0.96643 0.6374 0.92615 0.0
C696 C 0.9811 0.65633 1.00626 0.0
C697 C 0.99962 0.65742 0.05414 0.0
C698 C 0.01045 0.5785 0.93291 0.0
C699 C 0.99722 0.61867 0.97177 0.0
C700 C 0.01638 0.56351 0.88154 0.0
C701 C 0.012 0.57053 0.81763 0.0
C702 C 0.99985 0.6006 0.92032 0.0
C703 C 1.00028 0.59226 0.80741 0.0
C704 C 0.97989 0.63715 0.96509 0.0
C705 C 0.01542 0.63783 0.06236 0.0
N706 N 0.99467 0.60651 0.85801 0.0
N707 N 0.01404 0.61936 0.02119 0.0
H708 H 0.99175 0.1702 0.61203 0.0
H709 H 0.01996 0.03831 0.5341 0.0
H710 H 0.06304 0.14429 0.54648 0.0
H711 H 0.94973 0.06548 0.60555 0.0
H712 H 0.03724 0.07699 0.54288 0.0
H713 H 0.9799 0.13069 0.63735 0.0
C714 C 1.00552 0.15628 0.60661 0.0
C715 C 0.0275 0.15988 0.57234 0.0
C716 C 0.01797 0.0745 0.55618 0.0
C717 C 0.01393 0.11521 0.59755 0.0
C718 C 1.00781 0.05264 0.54865 0.0
C719 C 0.9839 0.04845 0.57279 0.0
C720 C 1.00354 0.09228 0.58491 0.0
C721 C 0.96866 0.06769 0.58901 0.0
C722 C 0.99846 0.13362 0.61902 0.0
C723 C 0.04523 0.14168 0.56958 0.0
N724 N 0.97903 0.08871 0.59712 0.0
N725 N 0.03754 0.11965 0.57798 0.0
H726 H 0.34459 0.08776 0.62267 0.0
H727 H 0.48059 0.03903 0.54106 0.0
H728 H 0.4008 0.13001 0.53519 0.0
H729 H 0.42153 -0.00109 0.62219 0.0
H730 H 0.45287 0.0735 0.54184 0.0
H731 H 0.37584 0.05763 0.64193 0.0
C732 C 0.36369 0.0912 0.60957 0.0
C733 C 0.36977 0.11097 0.57375 0.0
C734 C 0.44595 0.05707 0.55887 0.0
C735 C 0.40531 0.07587 0.59255 0.0
C736 C 0.46159 0.03741 0.55718 0.0
C737 C 0.45361 0.01636 0.58304 0.0
C738 C 0.42209 0.05538 0.58592 0.0
C739 C 0.4286 0.0148 0.60197 0.0
C740 C 0.38147 0.07361 0.61918 0.0
C741 C 0.39507 0.11447 0.55998 0.0
N742 N 0.41389 0.0342 0.60427 0.0
N743 N 0.41184 0.09663 0.56697 0.0
H744 H 0.46838 0.3606 0.53513 0.0
H745 H 0.57789 0.44472 0.62281 0.0
H746 H 0.53846 0.33762 0.61758 0.0
H747 H 0.51067 0.46647 0.52349 0.0
H748 H 0.56263 0.4056 0.62872 0.0
H749 H 0.47949 0.40078 0.55523 0.0
C750 C 0.4855 0.36403 0.56091 0.0
C751 C 0.50319 0.34615 0.57184 0.0
C752 C 0.55126 0.41882 0.60492 0.0
C753 C 0.51633 0.39144 0.59239 0.0
C754 C 0.56031 0.44109 0.59947 0.0
C755 C 0.54477 0.45908 0.57549 0.0
C756 C 0.52701 0.41445 0.58369 0.0
C757 C 0.52256 0.45314 0.54491 0.0
C758 C 0.49213 0.38693 0.57073 0.0
C759 C 0.52477 0.35115 0.60642 0.0
N760 N 0.51388 0.43133 0.55152 0.0
N761 N 0.53129 0.37358 0.61336 0.0
H762 H 0.18245 0.43188 0.53578 0.0
H763 H 0.04757 0.46553 0.6621 0.0
H764 H 0.12665 0.38143 0.58007 0.0
H765 H 0.09191 0.51247 0.55018 0.0
H766 H 0.07984 0.43613 0.65359 0.0
H767 H 0.15352 0.46296 0.56761 0.0
C768 C 0.16446 0.42728 0.55508 0.0
C769 C 0.1568 0.40408 0.55574 0.0
C770 C 0.08242 0.45269 0.62995 0.0
C771 C 0.12366 0.43949 0.5901 0.0
C772 C 0.06369 0.46943 0.63331 0.0
C773 C 0.06639 0.49122 0.60368 0.0
C774 C 0.10436 0.45767 0.59744 0.0
C775 C 0.08877 0.49568 0.57189 0.0
C776 C 0.14788 0.44507 0.57198 0.0
C777 C 0.13316 0.3991 0.57927 0.0
N778 N 0.107 0.47891 0.56928 0.0
N779 N 0.11723 0.41678 0.59503 0.0
H780 H 0.95576 0.86695 0.90794 0.0
H781 H 0.07228 0.94296 0.8244 0.0
H782 H 0.0265 0.83775 0.84798 0.0
H783 H 1.00508 0.96846 0.91703 0.0
H784 H 0.05447 0.90469 0.81766 0.0
H785 H 0.96974 0.90543 0.87786 0.0
C786 C 0.97367 0.86847 0.88443 0.0
C787 C 0.99083 0.84973 0.88476 0.0
C788 C 0.04378 0.91858 0.84041 0.0
C789 C 1.00707 0.89308 0.8524 0.0
C790 C 0.05426 0.94032 0.84638 0.0
C791 C 0.03976 0.95915 0.86959 0.0
C792 C 0.01908 0.91557 0.85997 0.0
C793 C 0.01669 0.95447 0.89786 0.0
C794 C 0.98195 0.89051 0.86922 0.0
C795 C 0.01332 0.85221 0.85178 0.0
N796 N 1.00671 0.93322 0.89067 0.0
N797 N 0.02147 0.87387 0.83972 0.0
H798 H 0.67763 0.92195 0.84875 0.0
H799 H 0.54567 0.97472 0.92233 0.0
H800 H 0.61559 0.87955 0.90281 0.0
H801 H 0.59831 0.01007 0.80287 0.0
H802 H 0.57218 0.93955 0.91724 0.0
H803 H 0.64866 0.95261 0.81733 0.0
C804 C 0.6579 0.91855 0.85195 0.0
C805 C 0.64909 0.89871 0.88349 0.0
C806 C 0.57795 0.95506 0.8923 0.0
C807 C 0.61604 0.93435 0.8503 0.0
C808 C 0.56308 0.97515 0.89636 0.0
C809 C 0.56958 0.99506 0.86225 0.0
C810 C 0.59975 0.9552 0.85498 0.0
C811 C 0.59267 0.99512 0.83049 0.0
C812 C 0.64131 0.93643 0.83496 0.0
C813 C 0.62324 0.89527 0.88311 0.0
N814 N 0.60683 0.97537 0.827 0.0
N815 N 0.6075 0.91344 0.87008 0.0
H816 H 0.52863 0.66683 0.85383 0.0
H817 H 0.45411 0.55124 0.91604 0.0
H818 H 0.44998 0.66502 0.89367 0.0
H819 H 0.5302 0.55191 0.8502 0.0
H820 H 0.45462 0.59352 0.92476 0.0
H821 H 0.53001 0.62449 0.84841 0.0
C822 C 0.51135 0.65749 0.85747 0.0
C823 C 0.48931 0.66903 0.87592 0.0
C824 C 0.47134 0.58427 0.90921 0.0
C825 C 0.49088 0.62118 0.87398 0.0
C826 C 0.47129 0.56013 0.90619 0.0
C827 C 0.49174 0.54817 0.87921 0.0
C828 C 0.49207 0.59608 0.88564 0.0
C829 C 0.51379 0.56041 0.86943 0.0
C830 C 0.51228 0.63335 0.85678 0.0
C831 C 0.46737 0.65644 0.88014 0.0
N832 N 0.5131 0.58388 0.86992 0.0
N833 N 0.46884 0.63296 0.88179 0.0
H834 H 0.83732 0.5771 0.89773 0.0
H835 H 0.97312 0.54581 0.79749 0.0
H836 H 0.8913 0.63091 0.87396 0.0
H837 H 0.93262 0.50105 0.92438 0.0
H838 H 0.94318 0.57665 0.81542 0.0
H839 H 0.87064 0.54782 0.88982 0.0
C840 C 0.85608 0.58269 0.88768 0.0
C841 C 0.86164 0.6064 0.88501 0.0
C842 C 0.94123 0.56043 0.84131 0.0
C843 C 0.89968 0.57312 0.87878 0.0
C844 C 0.95886 0.54294 0.8329 0.0
C845 C 0.95647 0.52125 0.86316 0.0
C846 C 0.92014 0.55593 0.87765 0.0
C847 C 0.93557 0.51772 0.9018 0.0
C848 C 0.87509 0.56601 0.88521 0.0
C849 C 0.88633 0.61278 0.8748 0.0
N850 N 0.91789 0.53492 0.90742 0.0
N851 N 0.9046 0.59613 0.87208 0.0
H852 H 0.9696 0.17081 0.03385 0.0
H853 H 0.03635 0.08379 0.78027 0.0
H854 H 0.04507 0.18158 0.97263 0.0
H855 H 0.96709 0.07189 0.87837 0.0
H856 H 0.04031 0.12061 0.84112 0.0
H857 H 0.96788 0.13656 0.96542 0.0
C858 C 0.98558 0.16636 1.00413 0.0
C859 C 1.00724 0.1795 1.00784 0.0
C860 C 0.02439 0.10978 0.84953 0.0
C861 C 1.00588 0.13928 0.9302 0.0
C862 C 0.02223 0.08869 0.81517 0.0
C863 C 1.00129 0.07469 0.82412 0.0
C864 C 1.00552 0.11681 0.89308 0.0
C865 C 0.98341 0.08214 0.8693 0.0
C866 C 0.98478 0.14651 0.96566 0.0
C867 C 0.02775 0.17232 0.96991 0.0
N868 N 0.98592 0.10247 0.9016 0.0
N869 N 0.02663 0.15265 0.93283 0.0
H870 H 0.3578 0.11252 0.98943 0.0
H871 H 0.43787 -0.0021 0.90328 0.0
H872 H 0.34211 0.04436 0.06233 0.0
H873 H 0.44255 0.0599 0.78817 0.0
H874 H 0.40515 0.01661 0.96777 0.0
H875 H 0.38916 0.09517 0.91667 0.0
C876 C 0.36037 0.0938 0.98846 0.0
C877 C 0.34695 0.0798 0.0312 0.0
C878 C 0.4133 0.02627 0.92866 0.0
C879 C 0.38374 0.05993 0.95039 0.0
C880 C 0.43222 0.01567 0.89229 0.0
C881 C 0.44316 0.02744 0.84083 0.0
C882 C 0.40483 0.04888 0.91337 0.0
C883 C 0.43494 0.05037 0.82826 0.0
C884 C 0.37851 0.08395 0.94756 0.0
C885 C 0.35156 0.05574 0.02929 0.0
N886 N 0.41618 0.06034 0.86412 0.0
N887 N 0.36974 0.04665 0.99039 0.0
H888 H 0.48042 0.33111 0.98321 0.0
H889 H 0.56084 0.43825 0.87858 0.0
H890 H 0.55969 0.33466 0.0121 0.0
H891 H 0.49468 0.42301 0.77002 0.0
H892 H 0.55727 0.40144 0.93546 0.0
H893 H 0.48255 0.36382 0.90664 0.0
C894 C 0.49844 0.33799 0.97098 0.0
C895 C 0.52004 0.32966 1.00292 0.0
C896 C 0.54354 0.40594 0.899 0.0
C897 C 0.52235 0.36813 0.91888 0.0
C898 C 0.54546 0.42712 0.86677 0.0
C899 C 0.52803 0.43385 0.8195 0.0
C900 C 0.52406 0.39095 0.88417 0.0
C901 C 0.50835 0.41868 0.80677 0.0
C902 C 0.49957 0.35695 0.92817 0.0
C903 C 0.54271 0.34002 0.98741 0.0
N904 N 0.50688 0.3979 0.83889 0.0
N905 N 0.54318 0.35887 0.94778 0.0
H906 H 0.15416 0.40011 0.02447 0.0
H907 H 0.09492 0.5167 0.87851 0.0
H908 H 0.19057 0.46614 0.02424 0.0
H909 H 0.07151 0.45043 0.80615 0.0
H910 H 0.12668 0.4971 0.94311 0.0
H911 H 0.12182 0.41654 0.95218 0.0
C912 C 0.15555 0.41797 0.00861 0.0
C913 C 0.17523 0.43177 0.03064 0.0
C914 C 0.11475 0.48672 0.91308 0.0
C915 C 0.13793 0.45075 0.94904 0.0
C916 C 0.09644 0.49791 0.87615 0.0
C917 C 0.08054 0.48529 0.83609 0.0
C918 C 0.11754 0.46247 0.9108 0.0
C919 C 0.08325 0.46089 0.83646 0.0
C920 C 0.13707 0.42729 0.96737 0.0
C921 C 0.17603 0.45474 0.00826 0.0
N922 N 0.10149 0.45023 0.87312 0.0
N923 N 0.15756 0.46351 0.96962 0.0
H924 H 0.96632 0.84513 0.42743 0.0
H925 H 0.05928 0.92123 0.63573 0.0
H926 H 0.0404 0.82256 0.48228 0.0
H927 H 0.98124 0.94034 0.61822 0.0
H928 H 0.05165 0.88532 0.57957 0.0
H929 H 0.96991 0.87905 0.49846 0.0
C930 C 0.98305 0.84692 0.45614 0.0
C931 C 1.0029 0.83062 0.44992 0.0
C932 C 0.03605 0.89716 0.58821 0.0
C933 C 1.00758 0.87012 0.52943 0.0
C934 C 0.04036 0.91796 0.62044 0.0
C935 C 0.02089 0.93426 0.63233 0.0
C936 C 0.012 0.89211 0.56663 0.0
C937 C 0.99691 0.92851 0.61039 0.0
C938 C 0.98518 0.86646 0.49615 0.0
C939 C 0.02441 0.83426 0.48669 0.0
N940 N 0.99318 0.90801 0.57841 0.0
N941 N 0.02626 0.85366 0.52407 0.0
H942 H 0.69619 0.96191 0.44694 0.0
H943 H 0.56219 0.95078 0.61826 0.0
H944 H 0.6509 0.90169 0.41949 0.0
H945 H 0.60439 0.01353 0.60223 0.0
H946 H 0.59506 0.93018 0.55536 0.0
H947 H 0.66441 0.97811 0.51885 0.0
C948 C 0.67981 0.95184 0.45688 0.0
C949 C 0.67627 0.9305 0.42616 0.0
C950 C 0.59696 0.94848 0.56585 0.0
C951 C 0.63909 0.94935 0.50788 0.0
C952 C 0.57812 0.96027 0.60137 0.0
C953 C 0.58042 0.98398 0.61627 0.0
C954 C 0.61821 0.9605 0.54547 0.0
C955 C 0.60168 0.99525 0.59316 0.0
C956 C 0.6614 0.96126 0.49744 0.0
C957 C 0.65431 0.91845 0.44094 0.0
N958 N 0.61954 0.98349 0.55956 0.0
N959 N 0.63649 0.92809 0.48016 0.0
H960 H 0.46532 0.67263 0.43496 0.0
H961 H 0.5366 0.58272 0.66958 0.0
H962 H 0.5447 0.67731 0.45996 0.0
H963 H 0.47248 0.56691 0.55369 0.0
H964 H 0.53899 0.62076 0.61391 0.0
H965 H 0.46555 0.63855 0.50542 0.0
C966 C 0.48262 0.66723 0.45811 0.0
C967 C 0.50491 0.67827 0.44272 0.0
C968 C 0.52464 0.60875 0.60033 0.0
C969 C 0.50556 0.63839 0.5216 0.0
C970 C 0.52345 0.58697 0.6315 0.0
C971 C 0.50436 0.57155 0.61607 0.0
C972 C 0.50642 0.61514 0.55422 0.0
C973 C 0.48743 0.57825 0.56743 0.0
C974 C 0.48287 0.6474 0.49715 0.0
C975 C 0.52701 0.66972 0.47192 0.0
N976 N 0.48875 0.59944 0.53885 0.0
N977 N 0.52686 0.65019 0.50955 0.0
H978 H 0.8691 0.6135 0.43615 0.0
H979 H 0.91939 0.49389 0.58944 0.0
H980 H 0.83411 0.54749 0.40961 0.0
H981 H 0.95318 0.55938 0.63337 0.0
H982 H 0.88815 0.51406 0.52493 0.0
H983 H 0.89864 0.59523 0.51175 0.0
C984 C 0.86729 0.59522 0.44717 0.0
C985 C 0.84911 0.58198 0.41571 0.0
C986 C 0.90226 0.52417 0.54861 0.0
C987 C 0.88325 0.56085 0.50233 0.0
C988 C 0.92031 0.51262 0.58571 0.0
C989 C 0.93907 0.52487 0.61781 0.0
C990 C 0.90259 0.54841 0.54262 0.0
C991 C 0.9392 0.54914 0.60961 0.0
C992 C 0.8843 0.58479 0.49021 0.0
C993 C 0.84763 0.55845 0.43259 0.0
N994 N 0.9212 0.56012 0.57295 0.0
N995 N 0.86462 0.54864 0.474 0.0
loop_
_geom_bond_atom_site_label_1
_geom_bond_atom_site_label_2
_geom_bond_distance
_geom_bond_site_symmetry_2
_ccdc_geom_bond_type
C0 C1 1.391 . S
C0 C4 1.391 . S
C0 H42 0.948 . S
C1 C0 1.391 . S
C1 C2 1.391 . S
C2 C1 1.391 . S
C2 H58 0.947 . S
C2 C59 1.392 . S
C3 C4 1.391 . S
C3 C7 1.397 . S
C3 C59 1.419 . S
C4 C0 1.391 . S
C4 C3 1.391 . S
C4 C5 1.399 . S
C5 C4 1.399 . S
C5 C8 1.396 . S
C5 C17 1.453 . S
C5 C18 1.684 . S
H6 C30 0.948 1_556 S
C7 C3 1.397 . S
C7 C8 1.394 . S
C7 C26 1.723 . S
C8 C5 1.396 . S
C8 C7 1.394 . S
C8 C38 1.723 . S
H9 C32 0.947 . S
H10 C33 0.948 . S
H11 C39 0.982 . S
H12 C40 0.979 . S
H13 C40 0.980 . S
H14 C40 0.983 . S
H15 C39 0.979 . S
H16 C39 0.977 . S
C17 C5 1.453 . S
C17 H46 0.982 . S
C17 H47 0.979 . S
C17 H48 0.977 . S
C18 C5 1.684 . S
C18 H43 0.979 . S
C18 H44 0.980 . S
C18 H45 0.983 . S
C19 C20 1.391 . S
C19 C24 1.391 1_556 S
C19 H49 0.948 . S
C20 C19 1.391 . S
C20 C21 1.391 . S
C21 C20 1.391 . S
C21 C22 1.392 . S
C21 H50 0.947 . S
C22 C21 1.392 . S
C22 C23 1.419 . S
C22 H51 0.948 . S
C23 C22 1.419 . S
C23 C24 1.391 1_556 S
C23 C27 1.397 1_556 S
C24 C19 1.391 1_554 S
C24 C23 1.391 1_554 S
C24 C25 1.399 . S
C25 C24 1.399 . S
C25 C26 1.396 . S
C25 C28 1.453 . S
C25 C29 1.684 . S
C26 C7 1.723 . S
C26 C25 1.396 . S
C26 C27 1.394 . S
C27 C23 1.397 1_554 S
C27 C26 1.394 . S
C27 C37 1.723 . S
C28 C25 1.453 . S
C28 H52 0.982 . S
C28 H53 0.979 . S
C28 H54 0.977 . S
C29 C25 1.684 . S
C29 H55 0.979 . S
C29 H56 0.980 . S
C29 H57 0.983 . S
C30 H6 0.948 1_554 S
C30 C31 1.391 . S
C30 C35 1.391 . S
C31 C30 1.391 . S
C31 C32 1.391 . S
C32 H9 0.947 . S
C32 C31 1.391 . S
C32 C33 1.392 . S
C33 H10 0.948 . S
C33 C32 1.392 . S
C33 C34 1.419 . S
C34 C33 1.419 . S
C34 C35 1.391 . S
C34 C38 1.397 . S
C35 C30 1.391 . S
C35 C34 1.391 . S
C35 C36 1.399 1_554 S
C36 C35 1.399 1_556 S
C36 C37 1.396 1_556 S
C36 C39 1.453 . S
C36 C40 1.684 . S
C37 C27 1.723 . S
C37 C36 1.396 1_554 S
C37 C38 1.394 . S
C38 C8 1.723 . S
C38 C34 1.397 . S
C38 C37 1.394 . S
C39 H11 0.982 . S
C39 H15 0.979 . S
C39 H16 0.977 . S
C39 C36 1.453 . S
C40 H12 0.979 . S
C40 H13 0.980 . S
C40 H14 0.983 . S
C40 C36 1.684 . S
H41 C59 0.948 . S
H42 C0 0.948 . S
H43 C18 0.979 . S
H44 C18 0.980 . S
H45 C18 0.983 . S
H46 C17 0.982 . S
H47 C17 0.979 . S
H48 C17 0.977 . S
H49 C19 0.948 . S
H50 C21 0.947 . S
H51 C22 0.948 . S
H52 C28 0.982 . S
H53 C28 0.979 . S
H54 C28 0.977 . S
H55 C29 0.979 . S
H56 C29 0.980 . S
H57 C29 0.983 . S
H58 C2 0.947 . S
C59 C2 1.392 . S
C59 C3 1.419 . S
C59 H41 0.948 . S
C60 C61 1.391 . S
C60 C64 1.391 . S
C60 H102 0.948 . S
C61 C60 1.391 . S
C61 C62 1.391 . S
C62 C61 1.391 . S
C62 H118 0.947 1_556 S
C62 C119 1.392 1_556 S
C63 C64 1.391 1_554 S
C63 C67 1.397 1_655 S
C63 C119 1.419 . S
C64 C60 1.391 . S
C64 C63 1.391 1_556 S
C64 C65 1.399 . S
C65 C64 1.399 . S
C65 C68 1.396 1_656 S
C65 C77 1.453 1_655 S
C65 C78 1.684 . S
H66 C90 0.948 . S
C67 C63 1.397 1_455 S
C67 C68 1.394 . S
C67 C86 1.723 . S
C68 C65 1.396 1_454 S
C68 C67 1.394 . S
C68 C98 1.723 . S
H69 C92 0.947 . S
H70 C93 0.948 1_556 S
H71 C99 0.982 . S
H72 C100 0.979 . S
H73 C100 0.980 . S
H74 C100 0.983 . S
H75 C99 0.979 . S
H76 C99 0.977 . S
C77 C65 1.453 1_455 S
C77 H106 0.982 . S
C77 H107 0.979 . S
C77 H108 0.977 . S
C78 C65 1.684 . S
C78 H103 0.979 . S
C78 H104 0.980 . S
C78 H105 0.983 . S
C79 C80 1.391 . S
C79 C84 1.391 . S
C79 H109 0.948 . S
C80 C79 1.391 . S
C80 C81 1.391 . S
C81 C80 1.391 . S
C81 C82 1.392 . S
C81 H110 0.947 . S
C82 C81 1.392 . S
C82 C83 1.419 . S
C82 H111 0.948 . S
C83 C82 1.419 . S
C83 C84 1.391 . S
C83 C87 1.397 1_655 S
C84 C79 1.391 . S
C84 C83 1.391 . S
C84 C85 1.399 . S
C85 C84 1.399 . S
C85 C86 1.396 1_655 S
C85 C88 1.453 1_655 S
C85 C89 1.684 . S
C86 C67 1.723 . S
C86 C85 1.396 1_455 S
C86 C87 1.394 . S
C87 C83 1.397 1_455 S
C87 C86 1.394 . S
C87 C97 1.723 . S
C88 C85 1.453 1_455 S
C88 H112 0.982 . S
C88 H113 0.979 . S
C88 H114 0.977 . S
C89 C85 1.684 . S
C89 H115 0.979 . S
C89 H116 0.980 . S
C89 H117 0.983 . S
C90 H66 0.948 . S
C90 C91 1.391 . S
C90 C95 1.391 . S
C91 C90 1.391 . S
C91 C92 1.391 1_554 S
C92 H69 0.947 . S
C92 C91 1.391 1_556 S
C92 C93 1.392 1_556 S
C93 H70 0.948 1_554 S
C93 C92 1.392 1_554 S
C93 C94 1.419 . S
C94 C93 1.419 . S
C94 C95 1.391 . S
C94 C98 1.397 1_655 S
C95 C90 1.391 . S
C95 C94 1.391 . S
C95 C96 1.399 . S
C96 C95 1.399 . S
C96 C97 1.396 1_655 S
C96 C99 1.453 1_655 S
C96 C100 1.684 . S
C97 C87 1.723 . S
C97 C96 1.396 1_455 S
C97 C98 1.394 . S
C98 C68 1.723 . S
C98 C94 1.397 1_455 S
C98 C97 1.394 . S
C99 H71 0.982 . S
C99 H75 0.979 . S
C99 H76 0.977 . S
C99 C96 1.453 1_455 S
C100 H72 0.979 . S
C100 H73 0.980 . S
C100 H74 0.983 . S
C100 C96 1.684 . S
H101 C119 0.948 . S
H102 C60 0.948 . S
H103 C78 0.979 . S
H104 C78 0.980 . S
H105 C78 0.983 . S
H106 C77 0.982 . S
H107 C77 0.979 . S
H108 C77 0.977 . S
H109 C79 0.948 . S
H110 C81 0.947 . S
H111 C82 0.948 . S
H112 C88 0.982 . S
H113 C88 0.979 . S
H114 C88 0.977 . S
H115 C89 0.979 . S
H116 C89 0.980 . S
H117 C89 0.983 . S
H118 C62 0.947 1_554 S
C119 C62 1.392 1_554 S
C119 C63 1.419 . S
C119 H101 0.948 . S
C120 C121 1.391 . S
C120 C124 1.391 . S
C120 H162 0.948 . S
C121 C120 1.391 . S
C121 C122 1.391 1_554 S
C122 C121 1.391 1_556 S
C122 H178 0.947 . S
C122 C179 1.392 . S
C123 C124 1.391 . S
C123 C127 1.397 . S
C123 C179 1.419 1_554 S
C124 C120 1.391 . S
C124 C123 1.391 . S
C124 C125 1.399 . S
C125 C124 1.399 . S
C125 C128 1.396 . S
C125 C137 1.453 . S
C125 C138 1.684 . S
H126 C150 0.948 . S
C127 C123 1.397 . S
C127 C128 1.394 . S
C127 C146 1.723 . S
C128 C125 1.396 . S
C128 C127 1.394 . S
C128 C158 1.723 . S
H129 C152 0.947 . S
H130 C153 0.948 . S
H131 C159 0.982 . S
H132 C160 0.979 . S
H133 C160 0.980 . S
H134 C160 0.983 . S
H135 C159 0.979 . S
H136 C159 0.977 . S
C137 C125 1.453 . S
C137 H166 0.982 . S
C137 H167 0.979 . S
C137 H168 0.977 . S
C138 C125 1.684 . S
C138 H163 0.979 . S
C138 H164 0.980 . S
C138 H165 0.983 . S
C139 C140 1.391 . S
C139 C144 1.391 . S
C139 H169 0.948 . S
C140 C139 1.391 . S
C140 C141 1.391 . S
C141 C140 1.391 . S
C141 C142 1.392 1_556 S
C141 H170 0.947 . S
C142 C141 1.392 1_554 S
C142 C143 1.419 . S
C142 H171 0.948 . S
C143 C142 1.419 . S
C143 C144 1.391 1_554 S
C143 C147 1.397 . S
C144 C139 1.391 . S
C144 C143 1.391 1_556 S
C144 C145 1.399 . S
C145 C144 1.399 . S
C145 C146 1.396 1_556 S
C145 C148 1.453 . S
C145 C149 1.684 . S
C146 C127 1.723 . S
C146 C145 1.396 1_554 S
C146 C147 1.394 . S
C147 C143 1.397 . S
C147 C146 1.394 . S
C147 C157 1.723 . S
C148 C145 1.453 . S
C148 H172 0.982 . S
C148 H173 0.979 . S
C148 H174 0.977 . S
C149 C145 1.684 . S
C149 H175 0.979 . S
C149 H176 0.980 . S
C149 H177 0.983 . S
C150 H126 0.948 . S
C150 C151 1.391 . S
C150 C155 1.391 . S
C151 C150 1.391 . S
C151 C152 1.391 . S
C152 H129 0.947 . S
C152 C151 1.391 . S
C152 C153 1.392 . S
C153 H130 0.948 . S
C153 C152 1.392 . S
C153 C154 1.419 . S
C154 C153 1.419 . S
C154 C155 1.391 . S
C154 C158 1.397 . S
C155 C150 1.391 . S
C155 C154 1.391 . S
C155 C156 1.399 . S
C156 C155 1.399 . S
C156 C157 1.396 . S
C156 C159 1.453 . S
C156 C160 1.684 . S
C157 C147 1.723 . S
C157 C156 1.396 . S
C157 C158 1.394 . S
C158 C128 1.723 . S
C158 C154 1.397 . S
C158 C157 1.394 . S
C159 H131 0.982 . S
C159 H135 0.979 . S
C159 H136 0.977 . S
C159 C156 1.453 . S
C160 H132 0.979 . S
C160 H133 0.980 . S
C160 H134 0.983 . S
C160 C156 1.684 . S
H161 C179 0.948 . S
H162 C120 0.948 . S
H163 C138 0.979 . S
H164 C138 0.980 . S
H165 C138 0.983 . S
H166 C137 0.982 . S
H167 C137 0.979 . S
H168 C137 0.977 . S
H169 C139 0.948 . S
H170 C141 0.947 . S
H171 C142 0.948 . S
H172 C148 0.982 . S
H173 C148 0.979 . S
H174 C148 0.977 . S
H175 C149 0.979 . S
H176 C149 0.980 . S
H177 C149 0.983 . S
H178 C122 0.947 . S
C179 C122 1.392 . S
C179 C123 1.419 1_556 S
C179 H161 0.948 . S
C180 C181 1.391 . S
C180 C184 1.391 . S
C180 H222 0.948 . S
C181 C180 1.391 . S
C181 C182 1.391 . S
C182 C181 1.391 . S
C182 H238 0.947 . S
C182 C239 1.392 . S
C183 C184 1.391 . S
C183 C187 1.397 . S
C183 C239 1.419 . S
C184 C180 1.391 . S
C184 C183 1.391 . S
C184 C185 1.399 . S
C185 C184 1.399 . S
C185 C188 1.396 . S
C185 C197 1.453 . S
C185 C198 1.684 . S
H186 C210 0.948 1_556 S
C187 C183 1.397 . S
C187 C188 1.394 . S
C187 C206 1.723 . S
C188 C185 1.396 . S
C188 C187 1.394 . S
C188 C218 1.723 . S
H189 C212 0.947 . S
H190 C213 0.948 . S
H191 C219 0.982 . S
H192 C220 0.979 . S
H193 C220 0.980 . S
H194 C220 0.983 . S
H195 C219 0.979 . S
H196 C219 0.977 . S
C197 C185 1.453 . S
C197 H226 0.982 . S
C197 H227 0.979 . S
C197 H228 0.977 . S
C198 C185 1.684 . S
C198 H223 0.979 . S
C198 H224 0.980 . S
C198 H225 0.983 . S
C199 C200 1.391 . S
C199 C204 1.391 1_556 S
C199 H229 0.944 1_556 S
C200 C199 1.391 . S
C200 C201 1.391 . S
C201 C200 1.391 . S
C201 C202 1.392 . S
C201 H230 0.947 . S
C202 C201 1.392 . S
C202 C203 1.419 1_556 S
C202 H231 0.948 . S
C203 C202 1.419 1_554 S
C203 C204 1.391 . S
C203 C207 1.397 . S
C204 C199 1.391 1_554 S
C204 C203 1.391 . S
C204 C205 1.399 . S
C205 C204 1.399 . S
C205 C206 1.396 . S
C205 C208 1.453 . S
C205 C209 1.684 . S
C206 C187 1.723 . S
C206 C205 1.396 . S
C206 C207 1.394 . S
C207 C203 1.397 . S
C207 C206 1.394 . S
C207 C217 1.723 . S
C208 C205 1.453 . S
C208 H232 0.982 . S
C208 H233 0.979 . S
C208 H234 0.977 . S
C209 C205 1.684 . S
C209 H235 0.979 . S
C209 H236 0.980 . S
C209 H237 0.983 . S
C210 H186 0.948 1_554 S
C210 C211 1.391 . S
C210 C215 1.391 . S
C211 C210 1.391 . S
C211 C212 1.391 . S
C212 H189 0.947 . S
C212 C211 1.391 . S
C212 C213 1.392 . S
C213 H190 0.948 . S
C213 C212 1.392 . S
C213 C214 1.419 . S
C214 C213 1.419 . S
C214 C215 1.391 . S
C214 C218 1.397 . S
C215 C210 1.391 . S
C215 C214 1.391 . S
C215 C216 1.399 . S
C216 C215 1.399 . S
C216 C217 1.396 . S
C216 C219 1.453 1_554 S
C216 C220 1.684 1_554 S
C217 C207 1.723 . S
C217 C216 1.396 . S
C217 C218 1.394 . S
C218 C188 1.723 . S
C218 C214 1.397 . S
C218 C217 1.394 . S
C219 H191 0.982 . S
C219 H195 0.979 . S
C219 H196 0.977 . S
C219 C216 1.453 1_556 S
C220 H192 0.979 . S
C220 H193 0.980 . S
C220 H194 0.983 . S
C220 C216 1.684 1_556 S
H221 C239 0.948 . S
H222 C180 0.948 . S
H223 C198 0.979 . S
H224 C198 0.980 . S
H225 C198 0.983 . S
H226 C197 0.982 . S
H227 C197 0.979 . S
H228 C197 0.977 . S
H229 C199 0.944 1_554 S
H230 C201 0.947 . S
H231 C202 0.948 . S
H232 C208 0.982 . S
H233 C208 0.979 . S
H234 C208 0.977 . S
H235 C209 0.979 . S
H236 C209 0.980 . S
H237 C209 0.983 . S
H238 C182 0.947 . S
C239 C182 1.392 . S
C239 C183 1.419 . S
C239 H221 0.948 . S
C240 C241 1.391 . S
C240 C244 1.391 . S
C240 H282 0.948 . S
C241 C240 1.391 . S
C241 C242 1.391 . S
C242 C241 1.391 . S
C242 H298 0.947 . S
C242 C299 1.392 . S
C243 C244 1.391 . S
C243 C247 1.397 . S
C243 C299 1.419 . S
C244 C240 1.391 . S
C244 C243 1.391 . S
C244 C245 1.399 . S
C245 C244 1.399 . S
C245 C248 1.396 . S
C245 C257 1.453 . S
C245 C258 1.684 . S
H246 C270 0.948 . S
C247 C243 1.397 . S
C247 C248 1.394 . S
C247 C266 1.723 . S
C248 C245 1.396 . S
C248 C247 1.394 . S
C248 C278 1.723 . S
H249 C272 0.947 . S
H250 C273 0.948 . S
H251 C279 0.982 . S
H252 C280 0.979 . S
H253 C280 0.980 . S
H254 C280 0.983 . S
H255 C279 0.979 . S
H256 C279 0.977 . S
C257 C245 1.453 . S
C257 H286 0.982 . S
C257 H287 0.979 . S
C257 H288 0.977 . S
C258 C245 1.684 . S
C258 H283 0.979 . S
C258 H284 0.980 . S
C258 H285 0.983 . S
C259 C260 1.391 . S
C259 C264 1.391 . S
C259 H289 0.948 . S
C260 C259 1.391 . S
C260 C261 1.391 . S
C261 C260 1.391 . S
C261 C262 1.392 . S
C261 H290 0.947 . S
C262 C261 1.392 . S
C262 C263 1.419 . S
C262 H291 0.948 . S
C263 C262 1.419 . S
C263 C264 1.391 . S
C263 C267 1.397 . S
C264 C259 1.391 . S
C264 C263 1.391 . S
C264 C265 1.399 . S
C265 C264 1.399 . S
C265 C266 1.396 . S
C265 C268 1.453 . S
C265 C269 1.684 . S
C266 C247 1.723 . S
C266 C265 1.396 . S
C266 C267 1.394 . S
C267 C263 1.397 . S
C267 C266 1.394 . S
C267 C277 1.723 . S
C268 C265 1.453 . S
C268 H292 0.982 . S
C268 H293 0.979 . S
C268 H294 0.977 . S
C269 C265 1.684 . S
C269 H295 0.979 . S
C269 H296 0.980 . S
C269 H297 0.983 . S
C270 H246 0.948 . S
C270 C271 1.391 . S
C270 C275 1.391 . S
C271 C270 1.391 . S
C271 C272 1.391 . S
C272 H249 0.947 . S
C272 C271 1.391 . S
C272 C273 1.392 . S
C273 H250 0.948 . S
C273 C272 1.392 . S
C273 C274 1.419 . S
C274 C273 1.419 . S
C274 C275 1.391 . S
C274 C278 1.397 . S
C275 C270 1.391 . S
C275 C274 1.391 . S
C275 C276 1.399 . S
C276 C275 1.399 . S
C276 C277 1.396 . S
C276 C279 1.453 . S
C276 C280 1.684 . S
C277 C267 1.723 . S
C277 C276 1.396 . S
C277 C278 1.394 . S
C278 C248 1.723 . S
C278 C274 1.397 . S
C278 C277 1.394 . S
C279 H251 0.982 . S
C279 H255 0.979 . S
C279 H256 0.977 . S
C279 C276 1.453 . S
C280 H252 0.979 . S
C280 H253 0.980 . S
C280 H254 0.983 . S
C280 C276 1.684 . S
H281 C299 0.948 . S
H282 C240 0.948 . S
H283 C258 0.979 . S
H284 C258 0.980 . S
H285 C258 0.983 . S
H286 C257 0.982 . S
H287 C257 0.979 . S
H288 C257 0.977 . S
H289 C259 0.948 . S
H290 C261 0.947 . S
H291 C262 0.948 . S
H292 C268 0.982 . S
H293 C268 0.979 . S
H294 C268 0.977 . S
H295 C269 0.979 . S
H296 C269 0.980 . S
H297 C269 0.983 . S
H298 C242 0.947 . S
C299 C242 1.392 . S
C299 C243 1.419 . S
C299 H281 0.948 . S
C300 C301 1.391 . S
C300 C304 1.391 . S
C300 H342 0.948 . S
C301 C300 1.391 . S
C301 C302 1.391 . S
C302 C301 1.391 . S
C302 H358 0.947 . S
C302 C359 1.392 . S
C303 C304 1.391 . S
C303 C307 1.396 1_655 S
C303 C359 1.419 . S
C304 C300 1.391 . S
C304 C303 1.391 . S
C304 C305 1.399 . S
C305 C304 1.399 . S
C305 C308 1.396 1_655 S
C305 C317 1.453 1_655 S
C305 C318 1.684 . S
H306 C330 0.948 . S
C307 C303 1.396 1_455 S
C307 C308 1.395 . S
C307 C326 1.723 . S
C308 C305 1.396 1_455 S
C308 C307 1.395 . S
C308 C338 1.723 . S
H309 C332 0.947 . S
H310 C333 0.948 . S
H311 C339 0.982 . S
H312 C340 0.979 . S
H313 C340 0.980 . S
H314 C340 0.983 . S
H315 C339 0.979 . S
H316 C339 0.977 . S
C317 C305 1.453 1_455 S
C317 H346 0.982 . S
C317 H347 0.979 . S
C317 H348 0.977 . S
C318 C305 1.684 . S
C318 H343 0.979 . S
C318 H344 0.980 . S
C318 H345 0.983 . S
C319 C320 1.391 . S
C319 C324 1.391 . S
C319 H349 0.948 . S
C320 C319 1.391 . S
C320 C321 1.391 . S
C321 C320 1.391 . S
C321 C322 1.392 . S
C321 H350 0.947 . S
C322 C321 1.392 . S
C322 C323 1.419 . S
C322 H351 0.948 . S
C323 C322 1.419 . S
C323 C324 1.391 . S
C323 C327 1.396 1_655 S
C324 C319 1.391 . S
C324 C323 1.391 . S
C324 C325 1.399 . S
C325 C324 1.399 . S
C325 C326 1.396 1_655 S
C325 C328 1.453 1_655 S
C325 C329 1.684 . S
C326 C307 1.723 . S
C326 C325 1.396 1_455 S
C326 C327 1.394 . S
C327 C323 1.396 1_455 S
C327 C326 1.394 . S
C327 C337 1.723 . S
C328 C325 1.453 1_455 S
C328 H352 0.982 . S
C328 H353 0.979 . S
C328 H354 0.977 . S
C329 C325 1.684 . S
C329 H355 0.979 . S
C329 H356 0.980 . S
C329 H357 0.983 . S
C330 H306 0.948 . S
C330 C331 1.391 . S
C330 C335 1.391 . S
C331 C330 1.391 . S
C331 C332 1.391 . S
C332 H309 0.947 . S
C332 C331 1.391 . S
C332 C333 1.392 . S
C333 H310 0.948 . S
C333 C332 1.392 . S
C333 C334 1.419 . S
C334 C333 1.419 . S
C334 C335 1.391 . S
C334 C338 1.397 1_655 S
C335 C330 1.391 . S
C335 C334 1.391 . S
C335 C336 1.399 . S
C336 C335 1.399 . S
C336 C337 1.396 1_655 S
C336 C339 1.453 1_655 S
C336 C340 1.684 . S
C337 C327 1.723 . S
C337 C336 1.396 1_455 S
C337 C338 1.395 . S
C338 C308 1.723 . S
C338 C334 1.397 1_455 S
C338 C337 1.395 . S
C339 H311 0.982 . S
C339 H315 0.979 . S
C339 H316 0.977 . S
C339 C336 1.453 1_455 S
C340 H312 0.979 . S
C340 H313 0.980 . S
C340 H314 0.983 . S
C340 C336 1.684 . S
H341 C359 0.948 . S
H342 C300 0.948 . S
H343 C318 0.979 . S
H344 C318 0.980 . S
H345 C318 0.983 . S
H346 C317 0.982 . S
H347 C317 0.979 . S
H348 C317 0.977 . S
H349 C319 0.948 . S
H350 C321 0.947 . S
H351 C322 0.948 . S
H352 C328 0.982 . S
H353 C328 0.979 . S
H354 C328 0.977 . S
H355 C329 0.979 . S
H356 C329 0.980 . S
H357 C329 0.983 . S
H358 C302 0.947 . S
C359 C302 1.392 . S
C359 C303 1.419 . S
C359 H341 0.948 . S
C360 C361 1.391 . S
C360 C364 1.391 . S
C360 H402 0.948 . S
C361 C360 1.391 . S
C361 C362 1.391 . S
C362 C361 1.391 . S
C362 H418 0.947 . S
C362 C419 1.392 . S
C363 C364 1.391 . S
C363 C367 1.397 . S
C363 C419 1.419 . S
C364 C360 1.391 . S
C364 C363 1.391 . S
C364 C365 1.399 . S
C365 C364 1.399 . S
C365 C368 1.396 . S
C365 C377 1.453 . S
C365 C378 1.684 . S
H366 C390 0.948 . S
C367 C363 1.397 . S
C367 C368 1.394 . S
C367 C386 1.723 . S
C368 C365 1.396 . S
C368 C367 1.394 . S
C368 C398 1.723 . S
H369 C392 0.947 . S
H370 C393 0.948 . S
H371 C399 0.982 . S
H372 C400 0.979 . S
H373 C400 0.980 . S
H374 C400 0.983 . S
H375 C399 0.979 . S
H376 C399 0.977 . S
C377 C365 1.453 . S
C377 H406 0.982 . S
C377 H407 0.979 . S
C377 H408 0.977 . S
C378 C365 1.684 . S
C378 H403 0.979 . S
C378 H404 0.980 . S
C378 H405 0.983 . S
C379 C380 1.391 . S
C379 C384 1.391 . S
C379 H409 0.948 . S
C380 C379 1.391 . S
C380 C381 1.391 . S
C381 C380 1.391 . S
C381 C382 1.392 . S
C381 H410 0.947 . S
C382 C381 1.392 . S
C382 C383 1.419 . S
C382 H411 0.948 . S
C383 C382 1.419 . S
C383 C384 1.391 . S
C383 C387 1.397 . S
C384 C379 1.391 . S
C384 C383 1.391 . S
C384 C385 1.399 . S
C385 C384 1.399 . S
C385 C386 1.396 . S
C385 C388 1.453 . S
C385 C389 1.684 . S
C386 C367 1.723 . S
C386 C385 1.396 . S
C386 C387 1.394 . S
C387 C383 1.397 . S
C387 C386 1.394 . S
C387 C397 1.723 . S
C388 C385 1.453 . S
C388 H412 0.982 . S
C388 H413 0.979 . S
C388 H414 0.977 . S
C389 C385 1.684 . S
C389 H415 0.979 . S
C389 H416 0.980 . S
C389 H417 0.983 . S
C390 H366 0.948 . S
C390 C391 1.391 . S
C390 C395 1.391 . S
C391 C390 1.391 . S
C391 C392 1.391 . S
C392 H369 0.947 . S
C392 C391 1.391 . S
C392 C393 1.392 . S
C393 H370 0.948 . S
C393 C392 1.392 . S
C393 C394 1.419 . S
C394 C393 1.419 . S
C394 C395 1.391 . S
C394 C398 1.397 . S
C395 C390 1.391 . S
C395 C394 1.391 . S
C395 C396 1.399 . S
C396 C395 1.399 . S
C396 C397 1.396 . S
C396 C399 1.453 . S
C396 C400 1.684 . S
C397 C387 1.723 . S
C397 C396 1.396 . S
C397 C398 1.394 . S
C398 C368 1.723 . S
C398 C394 1.397 . S
C398 C397 1.394 . S
C399 H371 0.982 . S
C399 H375 0.979 . S
C399 H376 0.977 . S
C399 C396 1.453 . S
C400 H372 0.979 . S
C400 H373 0.980 . S
C400 H374 0.983 . S
C400 C396 1.684 . S
H401 C419 0.948 . S
H402 C360 0.948 . S
H403 C378 0.979 . S
H404 C378 0.980 . S
H405 C378 0.983 . S
H406 C377 0.982 . S
H407 C377 0.979 . S
H408 C377 0.977 . S
H409 C379 0.948 . S
H410 C381 0.947 . S
H411 C382 0.948 . S
H412 C388 0.982 . S
H413 C388 0.979 . S
H414 C388 0.977 . S
H415 C389 0.979 . S
H416 C389 0.980 . S
H417 C389 0.983 . S
H418 C362 0.947 . S
C419 C362 1.392 . S
C419 C363 1.419 . S
C419 H401 0.948 . S
C420 C421 1.391 . S
C420 C424 1.391 . S
C420 H462 0.948 . S
C421 C420 1.391 . S
C421 C422 1.391 . S
C422 C421 1.391 . S
C422 H478 0.947 . S
C422 C479 1.392 . S
C423 C424 1.391 . S
C423 C427 1.397 . S
C423 C479 1.419 . S
C424 C420 1.391 . S
C424 C423 1.391 . S
C424 C425 1.399 . S
C425 C424 1.399 . S
C425 C428 1.396 . S
C425 C437 1.453 . S
C425 C438 1.684 . S
H426 C450 0.948 . S
C427 C423 1.397 . S
C427 C428 1.394 . S
C427 C446 1.723 . S
C428 C425 1.396 . S
C428 C427 1.394 . S
C428 C458 1.723 . S
H429 C452 0.947 . S
H430 C453 0.948 . S
H431 C459 0.982 . S
H432 C460 0.979 . S
H433 C460 0.980 . S
H434 C460 0.983 . S
H435 C459 0.979 . S
H436 C459 0.977 . S
C437 C425 1.453 . S
C437 H466 0.982 . S
C437 H467 0.979 . S
C437 H468 0.977 . S
C438 C425 1.684 . S
C438 H463 0.979 . S
C438 H464 0.980 . S
C438 H465 0.983 . S
C439 C440 1.391 . S
C439 C444 1.391 . S
C439 H469 0.948 . S
C440 C439 1.391 . S
C440 C441 1.391 . S
C441 C440 1.391 . S
C441 C442 1.392 . S
C441 H470 0.947 . S
C442 C441 1.392 . S
C442 C443 1.419 . S
C442 H471 0.948 . S
C443 C442 1.419 . S
C443 C444 1.391 . S
C443 C447 1.397 . S
C444 C439 1.391 . S
C444 C443 1.391 . S
C444 C445 1.399 . S
C445 C444 1.399 . S
C445 C446 1.396 . S
C445 C448 1.453 . S
C445 C449 1.684 . S
C446 C427 1.723 . S
C446 C445 1.396 . S
C446 C447 1.394 . S
C447 C443 1.397 . S
C447 C446 1.394 . S
C447 C457 1.723 . S
C448 C445 1.453 . S
C448 H472 0.982 . S
C448 H473 0.979 . S
C448 H474 0.977 . S
C449 C445 1.684 . S
C449 H475 0.979 . S
C449 H476 0.980 . S
C449 H477 0.983 . S
C450 H426 0.948 . S
C450 C451 1.391 . S
C450 C455 1.391 . S
C451 C450 1.391 . S
C451 C452 1.391 . S
C452 H429 0.947 . S
C452 C451 1.391 . S
C452 C453 1.392 . S
C453 H430 0.948 . S
C453 C452 1.392 . S
C453 C454 1.419 . S
C454 C453 1.419 . S
C454 C455 1.391 . S
C454 C458 1.397 . S
C455 C450 1.391 . S
C455 C454 1.391 . S
C455 C456 1.399 . S
C456 C455 1.399 . S
C456 C457 1.396 . S
C456 C459 1.453 . S
C456 C460 1.684 . S
C457 C447 1.723 . S
C457 C456 1.396 . S
C457 C458 1.394 . S
C458 C428 1.723 . S
C458 C454 1.397 . S
C458 C457 1.394 . S
C459 H431 0.982 . S
C459 H435 0.979 . S
C459 H436 0.977 . S
C459 C456 1.453 . S
C460 H432 0.979 . S
C460 H433 0.980 . S
C460 H434 0.983 . S
C460 C456 1.684 . S
H461 C479 0.948 . S
H462 C420 0.948 . S
H463 C438 0.979 . S
H464 C438 0.980 . S
H465 C438 0.983 . S
H466 C437 0.982 . S
H467 C437 0.979 . S
H468 C437 0.977 . S
H469 C439 0.948 . S
H470 C441 0.947 . S
H471 C442 0.948 . S
H472 C448 0.982 . S
H473 C448 0.979 . S
H474 C448 0.977 . S
H475 C449 0.979 . S
H476 C449 0.980 . S
H477 C449 0.983 . S
H478 C422 0.947 . S
C479 C422 1.392 . S
C479 C423 1.419 . S
C479 H461 0.948 . S
O480 Mn481 2.163 1_455 S
O480 C494 1.244 . S
Mn481 O480 2.163 1_655 S
Mn481 O484 2.160 1_545 S
Mn481 O485 2.221 1_655 S
Mn481 O487 2.163 1_645 S
Mn481 O489 2.160 . S
Mn481 O499 2.221 . S
O482 Mn483 2.087 . S
O482 C494 1.256 1_655 S
Mn483 O482 2.087 . S
Mn483 O490 2.089 . S
Mn483 O499 2.290 . S
Mn483 O500 2.251 . S
O484 Mn481 2.160 1_565 S
O484 C495 1.239 . S
O485 Mn481 2.221 1_455 S
O485 Mn486 2.290 1_545 S
O485 C496 1.278 . S
Mn486 O485 2.290 1_565 S
Mn486 O488 2.089 . S
Mn486 O491 2.251 . S
Mn486 O492 2.087 . S
O487 Mn481 2.163 1_465 S
O487 C497 1.244 . S
O488 Mn486 2.089 . S
O488 C495 1.256 1_455 S
O489 Mn481 2.160 . S
O489 C498 1.239 . S
O490 Mn483 2.089 . S
O490 C498 1.256 . S
O491 Mn486 2.251 . S
O491 C496 1.241 1_565 S
O492 Mn486 2.087 . S
O492 C497 1.256 . S
C493 O499 1.278 . S
C493 O500 1.241 . S
C494 O480 1.244 . S
C494 O482 1.256 1_455 S
C495 O484 1.239 . S
C495 O488 1.256 1_655 S
C496 O485 1.278 . S
C496 O491 1.241 1_545 S
C497 O487 1.244 . S
C497 O492 1.256 . S
C498 O489 1.239 . S
C498 O490 1.256 . S
O499 Mn481 2.221 . S
O499 Mn483 2.290 . S
O499 C493 1.278 . S
O500 Mn483 2.251 . S
O500 C493 1.241 . S
O501 Mn502 2.163 1_565 S
O501 C515 1.244 1_565 S
Mn502 O501 2.163 1_545 S
Mn502 O505 2.160 . S
Mn502 O506 2.221 1_545 S
Mn502 O508 2.163 . S
Mn502 O510 2.160 1_545 S
Mn502 O520 2.221 . S
O503 Mn504 2.087 . S
O503 C515 1.256 . S
Mn504 O503 2.087 . S
Mn504 O511 2.085 1_545 S
Mn504 O520 2.290 . S
Mn504 O521 2.251 . S
O505 Mn502 2.160 . S
O505 C516 1.239 . S
O506 Mn502 2.221 1_565 S
O506 Mn507 2.290 . S
O506 C517 1.278 . S
Mn507 O506 2.290 . S
Mn507 O509 2.089 1_565 S
Mn507 O512 2.251 . S
Mn507 O513 2.087 1_565 S
O508 Mn502 2.163 . S
O508 C518 1.244 . S
O509 Mn507 2.089 1_545 S
O509 C516 1.256 . S
O510 Mn502 2.160 1_565 S
O510 C519 1.239 . S
O511 Mn504 2.085 1_565 S
O511 C519 1.258 . S
O512 Mn507 2.251 . S
O512 C517 1.241 . S
O513 Mn507 2.087 1_545 S
O513 C518 1.256 . S
C514 O520 1.278 . S
C514 O521 1.241 . S
C515 O501 1.244 1_545 S
C515 O503 1.256 . S
C516 O505 1.239 . S
C516 O509 1.256 . S
C517 O506 1.278 . S
C517 O512 1.241 . S
C518 O508 1.244 . S
C518 O513 1.256 . S
C519 O510 1.239 . S
C519 O511 1.258 . S
O520 Mn502 2.221 . S
O520 Mn504 2.290 . S
O520 C514 1.278 . S
O521 Mn504 2.251 . S
O521 C514 1.241 . S
O522 Mn523 2.163 . S
O522 C536 1.244 . S
Mn523 O522 2.163 . S
Mn523 O526 2.160 . S
Mn523 O527 2.221 . S
Mn523 O529 2.163 . S
Mn523 O531 2.160 . S
Mn523 O541 2.221 . S
O524 Mn525 2.087 . S
O524 C536 1.256 . S
Mn525 O524 2.087 . S
Mn525 O532 2.089 . S
Mn525 O541 2.290 . S
Mn525 O542 2.251 . S
O526 Mn523 2.160 . S
O526 C537 1.239 . S
O527 Mn523 2.221 . S
O527 Mn528 2.290 . S
O527 C538 1.278 . S
Mn528 O527 2.290 . S
Mn528 O530 2.089 . S
Mn528 O533 2.251 . S
Mn528 O534 2.087 . S
O529 Mn523 2.163 . S
O529 C539 1.244 . S
O530 Mn528 2.089 . S
O530 C537 1.256 . S
O531 Mn523 2.160 . S
O531 C540 1.239 . S
O532 Mn525 2.089 . S
O532 C540 1.256 . S
O533 Mn528 2.251 . S
O533 C538 1.241 . S
O534 Mn528 2.087 . S
O534 C539 1.256 . S
C535 O541 1.278 . S
C535 O542 1.241 . S
C536 O522 1.244 . S
C536 O524 1.256 . S
C537 O526 1.239 . S
C537 O530 1.256 . S
C538 O527 1.278 . S
C538 O533 1.241 . S
C539 O529 1.244 . S
C539 O534 1.256 . S
C540 O531 1.239 . S
C540 O532 1.256 . S
O541 Mn523 2.221 . S
O541 Mn525 2.290 . S
O541 C535 1.278 . S
O542 Mn525 2.251 . S
O542 C535 1.241 . S
O543 Mn544 2.163 . S
O543 C557 1.244 . S
Mn544 O543 2.163 . S
Mn544 O547 2.160 1_455 S
Mn544 O548 2.221 1_455 S
Mn544 O550 2.163 1_455 S
Mn544 O552 2.160 . S
Mn544 O562 2.221 . S
O545 Mn546 2.087 . S
O545 C557 1.256 . S
Mn546 O545 2.087 . S
Mn546 O553 2.089 . S
Mn546 O562 2.290 . S
Mn546 O563 2.251 . S
O547 Mn544 2.160 1_655 S
O547 C558 1.239 . S
O548 Mn544 2.221 1_655 S
O548 Mn549 2.290 . S
O548 C559 1.278 . S
Mn549 O548 2.290 . S
Mn549 O551 2.089 . S
Mn549 O554 2.251 . S
Mn549 O555 2.087 . S
O550 Mn544 2.163 1_655 S
O550 C560 1.244 . S
O551 Mn549 2.089 . S
O551 C558 1.256 . S
O552 Mn544 2.160 . S
O552 C561 1.239 . S
O553 Mn546 2.089 . S
O553 C561 1.256 . S
O554 Mn549 2.251 . S
O554 C559 1.241 . S
O555 Mn549 2.087 . S
O555 C560 1.256 . S
C556 O562 1.278 . S
C556 O563 1.241 . S
C557 O543 1.244 . S
C557 O545 1.256 . S
C558 O547 1.239 . S
C558 O551 1.256 . S
C559 O548 1.278 . S
C559 O554 1.241 . S
C560 O550 1.244 . S
C560 O555 1.256 . S
C561 O552 1.239 . S
C561 O553 1.256 . S
O562 Mn544 2.221 . S
O562 Mn546 2.290 . S
O562 C556 1.278 . S
O563 Mn546 2.251 . S
O563 C556 1.241 . S
H564 C570 0.930 . S
H565 C574 0.930 . S
H566 C579 0.929 . S
H567 C577 0.929 . S
H568 C572 0.929 . S
H569 C578 0.929 . S
C570 H564 0.930 . S
C570 C571 1.367 . S
C570 C578 1.378 . S
C571 C570 1.367 . S
C571 C579 1.433 . S
C572 H568 0.929 . S
C572 C574 1.378 . S
C572 C576 1.350 . S
C573 C576 1.463 . S
C573 C578 1.350 . S
C573 N581 1.427 . S
C574 H565 0.930 . S
C574 C572 1.378 . S
C574 C575 1.367 . S
C575 C574 1.367 . S
C575 C577 1.433 . S
C576 C572 1.350 . S
C576 C573 1.463 . S
C576 N580 1.427 . S
C577 H567 0.929 . S
C577 C575 1.433 . S
C577 N580 1.384 . S
C578 H569 0.929 . S
C578 C570 1.378 . S
C578 C573 1.350 . S
C579 H566 0.929 . S
C579 C571 1.433 . S
C579 N581 1.384 . S
N580 C576 1.427 . S
N580 C577 1.384 . S
N581 C573 1.427 . S
N581 C579 1.384 . S
H582 C588 0.930 . S
H583 C592 0.930 . S
H584 C597 0.929 . S
H585 C595 0.929 . S
H586 C590 0.929 . S
H587 C596 0.929 . S
C588 H582 0.930 . S
C588 C589 1.367 . S
C588 C596 1.378 . S
C589 C588 1.367 . S
C589 C597 1.433 . S
C590 H586 0.929 . S
C590 C592 1.378 . S
C590 C594 1.350 . S
C591 C594 1.463 . S
C591 C596 1.350 . S
C591 N599 1.427 . S
C592 H583 0.930 . S
C592 C590 1.378 . S
C592 C593 1.367 . S
C593 C592 1.367 . S
C593 C595 1.433 . S
C594 C590 1.350 . S
C594 C591 1.463 . S
C594 N598 1.427 . S
C595 H585 0.929 . S
C595 C593 1.433 . S
C595 N598 1.384 . S
C596 H587 0.929 . S
C596 C588 1.378 . S
C596 C591 1.350 . S
C597 H584 0.929 . S
C597 C589 1.433 . S
C597 N599 1.384 . S
N598 C594 1.427 . S
N598 C595 1.384 . S
N599 C591 1.427 . S
N599 C597 1.384 . S
H600 C606 0.930 . S
H601 C610 0.930 . S
H602 C615 0.929 . S
H603 C613 0.929 . S
H604 C608 0.929 . S
H605 C614 0.929 . S
C606 H600 0.930 . S
C606 C607 1.367 . S
C606 C614 1.378 . S
C607 C606 1.367 . S
C607 C615 1.433 . S
C608 H604 0.929 . S
C608 C610 1.378 . S
C608 C612 1.350 . S
C609 C612 1.463 . S
C609 C614 1.350 . S
C609 N617 1.427 . S
C610 H601 0.930 . S
C610 C608 1.378 . S
C610 C611 1.367 . S
C611 C610 1.367 . S
C611 C613 1.433 . S
C612 C608 1.350 . S
C612 C609 1.463 . S
C612 N616 1.427 . S
C613 H603 0.929 . S
C613 C611 1.433 . S
C613 N616 1.384 . S
C614 H605 0.929 . S
C614 C606 1.378 . S
C614 C609 1.350 . S
C615 H602 0.929 . S
C615 C607 1.433 . S
C615 N617 1.384 . S
N616 C612 1.427 . S
N616 C613 1.384 . S
N617 C609 1.427 . S
N617 C615 1.384 . S
H618 C624 0.930 . S
H619 C628 0.930 . S
H620 C633 0.929 . S
H621 C631 0.929 . S
H622 C626 0.929 . S
H623 C632 0.929 . S
C624 H618 0.930 . S
C624 C625 1.357 1_455 S
C624 C632 1.378 . S
C625 C624 1.357 1_655 S
C625 C633 1.444 . S
C626 H622 0.929 . S
C626 C628 1.378 . S
C626 C630 1.350 . S
C627 C630 1.463 . S
C627 C632 1.350 1_655 S
C627 N635 1.427 . S
C628 H619 0.930 . S
C628 C626 1.378 . S
C628 C629 1.367 . S
C629 C628 1.367 . S
C629 C631 1.433 1_655 S
C630 C626 1.350 . S
C630 C627 1.463 . S
C630 N634 1.427 1_655 S
C631 H621 0.929 . S
C631 C629 1.433 1_455 S
C631 N634 1.384 . S
C632 H623 0.929 . S
C632 C624 1.378 . S
C632 C627 1.350 1_455 S
C633 H620 0.929 . S
C633 C625 1.444 . S
C633 N635 1.384 . S
N634 C630 1.427 1_455 S
N634 C631 1.384 . S
N635 C627 1.427 . S
N635 C633 1.384 . S
H636 C642 0.930 . S
H637 C646 0.930 1_545 S
H638 C651 0.928 1_554 S
H639 C649 0.929 . S
H640 C644 0.929 . S
H641 C650 0.929 . S
C642 H636 0.930 . S
C642 C643 1.367 1_556 S
C642 C650 1.378 . S
C643 C642 1.367 1_554 S
C643 C651 1.433 1_554 S
C644 H640 0.929 . S
C644 C646 1.378 . S
C644 C648 1.350 . S
C645 C648 1.463 . S
C645 C650 1.350 . S
C645 N653 1.427 . S
C646 H637 0.930 1_565 S
C646 C644 1.378 . S
C646 C647 1.367 . S
C647 C646 1.367 . S
C647 C649 1.433 . S
C648 C644 1.350 . S
C648 C645 1.463 . S
C648 N652 1.427 . S
C649 H639 0.929 . S
C649 C647 1.433 . S
C649 N652 1.384 . S
C650 H641 0.929 . S
C650 C642 1.378 . S
C650 C645 1.350 . S
C651 H638 0.928 1_556 S
C651 C643 1.433 1_556 S
C651 N653 1.385 . S
N652 C648 1.427 . S
N652 C649 1.384 . S
N653 C645 1.427 . S
N653 C651 1.385 . S
H654 C660 0.930 . S
H655 C664 0.930 . S
H656 C669 0.929 . S
H657 C667 0.929 . S
H658 C662 0.929 . S
H659 C668 0.929 . S
C660 H654 0.930 . S
C660 C661 1.367 . S
C660 C668 1.378 1_554 S
C661 C660 1.367 . S
C661 C669 1.433 1_554 S
C662 H658 0.929 . S
C662 C664 1.378 . S
C662 C666 1.350 . S
C663 C666 1.463 . S
C663 C668 1.350 . S
C663 N671 1.427 . S
C664 H655 0.930 . S
C664 C662 1.378 . S
C664 C665 1.367 . S
C665 C664 1.367 . S
C665 C667 1.433 . S
C666 C662 1.350 . S
C666 C663 1.463 . S
C666 N670 1.427 . S
C667 H657 0.929 . S
C667 C665 1.433 . S
C667 N670 1.384 . S
C668 H659 0.929 . S
C668 C660 1.378 1_556 S
C668 C663 1.350 . S
C669 H656 0.929 . S
C669 C661 1.433 1_556 S
C669 N671 1.384 . S
N670 C666 1.427 . S
N670 C667 1.384 . S
N671 C663 1.427 . S
N671 C669 1.384 . S
H672 C678 0.930 . S
H673 C682 0.930 . S
H674 C687 0.929 . S
H675 C685 0.929 . S
H676 C680 0.929 . S
H677 C686 0.927 1_554 S
C678 H672 0.930 . S
C678 C679 1.361 1_554 S
C678 C686 1.378 1_554 S
C679 C678 1.361 1_556 S
C679 C687 1.449 . S
C680 H676 0.929 . S
C680 C682 1.378 . S
C680 C684 1.350 . S
C681 C684 1.463 . S
C681 C686 1.350 . S
C681 N689 1.427 . S
C682 H673 0.930 . S
C682 C680 1.378 . S
C682 C683 1.367 . S
C683 C682 1.367 . S
C683 C685 1.433 . S
C684 C680 1.350 . S
C684 C681 1.463 . S
C684 N688 1.427 . S
C685 H675 0.929 . S
C685 C683 1.433 . S
C685 N688 1.384 . S
C686 H677 0.927 1_556 S
C686 C678 1.378 1_556 S
C686 C681 1.350 . S
C687 H674 0.929 . S
C687 C679 1.449 . S
C687 N689 1.384 . S
N688 C684 1.427 . S
N688 C685 1.384 . S
N689 C681 1.427 . S
N689 C687 1.384 . S
H690 C696 0.930 . S
H691 C700 0.930 . S
H692 C705 0.929 . S
H693 C703 0.925 1_655 S
H694 C698 0.929 . S
H695 C704 0.929 . S
C696 H690 0.930 . S
C696 C697 1.365 1_656 S
C696 C704 1.378 . S
C697 C696 1.365 1_454 S
C697 C705 1.436 . S
C698 H694 0.929 . S
C698 C700 1.378 . S
C698 C702 1.350 . S
C699 C702 1.463 . S
C699 C704 1.350 1_455 S
C699 N707 1.427 1_556 S
C700 H691 0.930 . S
C700 C698 1.378 . S
C700 C701 1.367 . S
C701 C700 1.367 . S
C701 C703 1.439 . S
C702 C698 1.350 . S
C702 C699 1.463 . S
C702 N706 1.427 1_455 S
C703 H693 0.925 1_455 S
C703 C701 1.439 . S
C703 N706 1.384 1_455 S
C704 H695 0.929 . S
C704 C696 1.378 . S
C704 C699 1.350 1_655 S
C705 H692 0.929 . S
C705 C697 1.436 . S
C705 N707 1.384 . S
N706 C702 1.427 1_655 S
N706 C703 1.384 1_655 S
N707 C699 1.427 1_554 S
N707 C705 1.384 . S
H708 C714 0.930 . S
H709 C718 0.930 1_455 S
H710 C723 0.929 . S
H711 C721 0.929 . S
H712 C716 0.916 1_455 S
H713 C722 0.929 . S
C714 H708 0.930 . S
C714 C715 1.367 1_655 S
C714 C722 1.378 . S
C715 C714 1.367 1_455 S
C715 C723 1.433 . S
C716 H712 0.916 1_655 S
C716 C718 1.383 . S
C716 C720 1.359 . S
C717 C720 1.463 . S
C717 C722 1.350 . S
C717 N725 1.427 1_655 S
C718 H709 0.930 1_655 S
C718 C716 1.383 . S
C718 C719 1.367 . S
C719 C718 1.367 . S
C719 C721 1.433 . S
C720 C716 1.359 . S
C720 C717 1.463 . S
C720 N724 1.427 . S
C721 H711 0.929 . S
C721 C719 1.433 . S
C721 N724 1.384 . S
C722 H713 0.929 . S
C722 C714 1.378 . S
C722 C717 1.350 . S
C723 H710 0.929 . S
C723 C715 1.433 . S
C723 N725 1.384 . S
N724 C720 1.427 . S
N724 C721 1.384 . S
N725 C717 1.427 1_455 S
N725 C723 1.384 . S
H726 C732 0.930 . S
H727 C736 0.930 . S
H728 C741 0.929 . S
H729 C739 0.929 . S
H730 C734 0.929 . S
H731 C740 0.929 . S
C732 H726 0.930 . S
C732 C733 1.367 . S
C732 C740 1.378 . S
C733 C732 1.367 . S
C733 C741 1.433 . S
C734 H730 0.929 . S
C734 C736 1.378 . S
C734 C738 1.350 . S
C735 C738 1.463 . S
C735 C740 1.350 . S
C735 N743 1.427 . S
C736 H727 0.930 . S
C736 C734 1.378 . S
C736 C737 1.367 . S
C737 C736 1.367 . S
C737 C739 1.433 . S
C738 C734 1.350 . S
C738 C735 1.463 . S
C738 N742 1.427 . S
C739 H729 0.929 . S
C739 C737 1.433 . S
C739 N742 1.384 . S
C740 H731 0.929 . S
C740 C732 1.378 . S
C740 C735 1.350 . S
C741 H728 0.929 . S
C741 C733 1.433 . S
C741 N743 1.384 . S
N742 C738 1.427 . S
N742 C739 1.384 . S
N743 C735 1.427 . S
N743 C741 1.384 . S
H744 C750 0.930 . S
H745 C754 0.930 . S
H746 C759 0.929 . S
H747 C757 0.929 . S
H748 C752 0.929 . S
H749 C758 0.929 . S
C750 H744 0.930 . S
C750 C751 1.367 . S
C750 C758 1.378 . S
C751 C750 1.367 . S
C751 C759 1.433 . S
C752 H748 0.929 . S
C752 C754 1.378 . S
C752 C756 1.350 . S
C753 C756 1.463 . S
C753 C758 1.350 . S
C753 N761 1.427 . S
C754 H745 0.930 . S
C754 C752 1.378 . S
C754 C755 1.367 . S
C755 C754 1.367 . S
C755 C757 1.433 . S
C756 C752 1.350 . S
C756 C753 1.463 . S
C756 N760 1.427 . S
C757 H747 0.929 . S
C757 C755 1.433 . S
C757 N760 1.384 . S
C758 H749 0.929 . S
C758 C750 1.378 . S
C758 C753 1.350 . S
C759 H746 0.929 . S
C759 C751 1.433 . S
C759 N761 1.384 . S
N760 C756 1.427 . S
N760 C757 1.384 . S
N761 C753 1.427 . S
N761 C759 1.384 . S
H762 C768 0.930 . S
H763 C772 0.930 . S
H764 C777 0.929 . S
H765 C775 0.929 . S
H766 C770 0.929 . S
H767 C776 0.929 . S
C768 H762 0.930 . S
C768 C769 1.367 . S
C768 C776 1.378 . S
C769 C768 1.367 . S
C769 C777 1.433 . S
C770 H766 0.929 . S
C770 C772 1.378 . S
C770 C774 1.350 . S
C771 C774 1.463 . S
C771 C776 1.350 . S
C771 N779 1.427 . S
C772 H763 0.930 . S
C772 C770 1.378 . S
C772 C773 1.367 . S
C773 C772 1.367 . S
C773 C775 1.433 . S
C774 C770 1.350 . S
C774 C771 1.463 . S
C774 N778 1.427 . S
C775 H765 0.929 . S
C775 C773 1.433 . S
C775 N778 1.384 . S
C776 H767 0.929 . S
C776 C768 1.378 . S
C776 C771 1.350 . S
C777 H764 0.929 . S
C777 C769 1.433 . S
C777 N779 1.384 . S
N778 C774 1.427 . S
N778 C775 1.384 . S
N779 C771 1.427 . S
N779 C777 1.384 . S
H780 C786 0.930 . S
H781 C790 0.930 . S
H782 C795 0.929 . S
H783 C793 0.929 1_655 S
H784 C788 0.929 . S
H785 C794 0.929 . S
C786 H780 0.930 . S
C786 C787 1.367 . S
C786 C794 1.378 . S
C787 C786 1.367 . S
C787 C795 1.433 1_655 S
C788 H784 0.929 . S
C788 C790 1.378 . S
C788 C792 1.350 . S
C789 C792 1.463 . S
C789 C794 1.350 1_455 S
C789 N797 1.427 . S
C790 H781 0.930 . S
C790 C788 1.378 . S
C790 C791 1.367 . S
C791 C790 1.367 . S
C791 C793 1.434 . S
C792 C788 1.350 . S
C792 C789 1.463 . S
C792 N796 1.427 1_455 S
C793 H783 0.929 1_455 S
C793 C791 1.434 . S
C793 N796 1.383 1_455 S
C794 H785 0.929 . S
C794 C786 1.378 . S
C794 C789 1.350 1_655 S
C795 H782 0.929 . S
C795 C787 1.433 1_455 S
C795 N797 1.384 . S
N796 C792 1.427 1_655 S
N796 C793 1.383 1_655 S
N797 C789 1.427 . S
N797 C795 1.384 . S
H798 C804 0.930 . S
H799 C808 0.930 . S
H800 C813 0.929 . S
H801 C811 0.925 1_545 S
H802 C806 0.929 . S
H803 C812 0.929 . S
C804 H798 0.930 . S
C804 C805 1.367 . S
C804 C812 1.378 . S
C805 C804 1.367 . S
C805 C813 1.433 . S
C806 H802 0.929 . S
C806 C808 1.378 . S
C806 C810 1.350 . S
C807 C810 1.463 . S
C807 C812 1.350 . S
C807 N815 1.427 . S
C808 H799 0.930 . S
C808 C806 1.378 . S
C808 C809 1.367 . S
C809 C808 1.367 . S
C809 C811 1.433 . S
C810 C806 1.350 . S
C810 C807 1.463 . S
C810 N814 1.427 . S
C811 H801 0.925 1_565 S
C811 C809 1.433 . S
C811 N814 1.384 . S
C812 H803 0.929 . S
C812 C804 1.378 . S
C812 C807 1.350 . S
C813 H800 0.929 . S
C813 C805 1.433 . S
C813 N815 1.384 . S
N814 C810 1.427 . S
N814 C811 1.384 . S
N815 C807 1.427 . S
N815 C813 1.384 . S
H816 C822 0.930 . S
H817 C826 0.930 . S
H818 C831 0.929 . S
H819 C829 0.929 . S
H820 C824 0.929 . S
H821 C830 0.929 . S
C822 H816 0.930 . S
C822 C823 1.367 . S
C822 C830 1.378 . S
C823 C822 1.367 . S
C823 C831 1.433 . S
C824 H820 0.929 . S
C824 C826 1.378 . S
C824 C828 1.350 . S
C825 C828 1.463 . S
C825 C830 1.350 . S
C825 N833 1.427 . S
C826 H817 0.930 . S
C826 C824 1.378 . S
C826 C827 1.367 . S
C827 C826 1.367 . S
C827 C829 1.433 . S
C828 C824 1.350 . S
C828 C825 1.463 . S
C828 N832 1.427 . S
C829 H819 0.929 . S
C829 C827 1.433 . S
C829 N832 1.384 . S
C830 H821 0.929 . S
C830 C822 1.378 . S
C830 C825 1.350 . S
C831 H818 0.929 . S
C831 C823 1.433 . S
C831 N833 1.384 . S
N832 C828 1.427 . S
N832 C829 1.384 . S
N833 C825 1.427 . S
N833 C831 1.384 . S
H834 C840 0.930 . S
H835 C844 0.930 . S
H836 C849 0.929 . S
H837 C847 0.929 . S
H838 C842 0.929 . S
H839 C848 0.929 . S
C840 H834 0.930 . S
C840 C841 1.367 . S
C840 C848 1.378 . S
C841 C840 1.367 . S
C841 C849 1.433 . S
C842 H838 0.929 . S
C842 C844 1.378 . S
C842 C846 1.350 . S
C843 C846 1.463 . S
C843 C848 1.350 . S
C843 N851 1.427 . S
C844 H835 0.930 . S
C844 C842 1.378 . S
C844 C845 1.367 . S
C845 C844 1.367 . S
C845 C847 1.433 . S
C846 C842 1.350 . S
C846 C843 1.463 . S
C846 N850 1.427 . S
C847 H837 0.929 . S
C847 C845 1.433 . S
C847 N850 1.384 . S
C848 H839 0.929 . S
C848 C840 1.378 . S
C848 C843 1.350 . S
C849 H836 0.929 . S
C849 C841 1.433 . S
C849 N851 1.384 . S
N850 C846 1.427 . S
N850 C847 1.384 . S
N851 C843 1.427 . S
N851 C849 1.384 . S
H852 C858 0.930 . S
H853 C862 0.930 . S
H854 C867 0.929 . S
H855 C865 0.929 . S
H856 C860 0.929 . S
H857 C866 0.929 1_554 S
C858 H852 0.930 . S
C858 C859 1.367 1_655 S
C858 C866 1.378 1_554 S
C859 C858 1.367 1_455 S
C859 C867 1.433 1_554 S
C860 H856 0.929 . S
C860 C862 1.378 . S
C860 C864 1.350 . S
C861 C864 1.463 . S
C861 C866 1.350 1_455 S
C861 N869 1.427 . S
C862 H853 0.930 . S
C862 C860 1.378 . S
C862 C863 1.367 . S
C863 C862 1.367 . S
C863 C865 1.433 1_455 S
C864 C860 1.350 . S
C864 C861 1.463 . S
C864 N868 1.427 1_455 S
C865 H855 0.929 . S
C865 C863 1.433 1_655 S
C865 N868 1.384 . S
C866 H857 0.929 1_556 S
C866 C858 1.378 1_556 S
C866 C861 1.350 1_655 S
C867 H854 0.929 . S
C867 C859 1.433 1_556 S
C867 N869 1.384 . S
N868 C864 1.427 1_655 S
N868 C865 1.384 . S
N869 C861 1.427 . S
N869 C867 1.384 . S
H870 C876 0.930 . S
H871 C880 0.930 . S
H872 C885 0.929 . S
H873 C883 0.929 . S
H874 C878 0.929 . S
H875 C884 0.929 . S
C876 H870 0.930 . S
C876 C877 1.367 1_556 S
C876 C884 1.378 . S
C877 C876 1.367 1_554 S
C877 C885 1.433 . S
C878 H874 0.929 . S
C878 C880 1.378 . S
C878 C882 1.350 . S
C879 C882 1.463 . S
C879 C884 1.350 . S
C879 N887 1.427 . S
C880 H871 0.930 . S
C880 C878 1.378 . S
C880 C881 1.367 . S
C881 C880 1.367 . S
C881 C883 1.433 . S
C882 C878 1.350 . S
C882 C879 1.463 . S
C882 N886 1.427 . S
C883 H873 0.929 . S
C883 C881 1.433 . S
C883 N886 1.384 . S
C884 H875 0.929 . S
C884 C876 1.378 . S
C884 C879 1.350 . S
C885 H872 0.929 . S
C885 C877 1.433 . S
C885 N887 1.384 1_554 S
N886 C882 1.427 . S
N886 C883 1.384 . S
N887 C879 1.427 . S
N887 C885 1.384 1_556 S
H888 C894 0.930 . S
H889 C898 0.930 . S
H890 C903 0.929 . S
H891 C901 0.929 . S
H892 C896 0.929 . S
H893 C902 0.929 . S
C894 H888 0.930 . S
C894 C895 1.367 1_556 S
C894 C902 1.378 . S
C895 C894 1.367 1_554 S
C895 C903 1.433 . S
C896 H892 0.929 . S
C896 C898 1.378 . S
C896 C900 1.350 . S
C897 C900 1.463 . S
C897 C902 1.350 . S
C897 N905 1.427 . S
C898 H889 0.930 . S
C898 C896 1.378 . S
C898 C899 1.367 . S
C899 C898 1.367 . S
C899 C901 1.433 . S
C900 C896 1.350 . S
C900 C897 1.463 . S
C900 N904 1.427 . S
C901 H891 0.929 . S
C901 C899 1.433 . S
C901 N904 1.384 . S
C902 H893 0.929 . S
C902 C894 1.378 . S
C902 C897 1.350 . S
C903 H890 0.929 . S
C903 C895 1.433 . S
C903 N905 1.384 1_554 S
N904 C900 1.427 . S
N904 C901 1.384 . S
N905 C897 1.427 . S
N905 C903 1.384 1_556 S
H906 C912 0.930 . S
H907 C916 0.930 . S
H908 C921 0.929 . S
H909 C919 0.929 . S
H910 C914 0.929 . S
H911 C920 0.929 . S
C912 H906 0.930 . S
C912 C913 1.367 1_556 S
C912 C920 1.378 . S
C913 C912 1.367 1_554 S
C913 C921 1.433 . S
C914 H910 0.929 . S
C914 C916 1.378 . S
C914 C918 1.350 . S
C915 C918 1.463 . S
C915 C920 1.350 . S
C915 N923 1.427 . S
C916 H907 0.930 . S
C916 C914 1.378 . S
C916 C917 1.367 . S
C917 C916 1.367 . S
C917 C919 1.433 . S
C918 C914 1.350 . S
C918 C915 1.463 . S
C918 N922 1.427 . S
C919 H909 0.929 . S
C919 C917 1.433 . S
C919 N922 1.384 . S
C920 H911 0.929 . S
C920 C912 1.378 . S
C920 C915 1.350 . S
C921 H908 0.929 . S
C921 C913 1.433 . S
C921 N923 1.384 1_554 S
N922 C918 1.427 . S
N922 C919 1.384 . S
N923 C915 1.427 . S
N923 C921 1.384 1_556 S
H924 C930 0.930 . S
H925 C934 0.930 . S
H926 C939 0.929 . S
H927 C937 0.929 . S
H928 C932 0.929 . S
H929 C938 0.929 . S
C930 H924 0.930 . S
C930 C931 1.367 . S
C930 C938 1.378 . S
C931 C930 1.367 . S
C931 C939 1.433 1_655 S
C932 H928 0.929 . S
C932 C934 1.378 . S
C932 C936 1.350 1_455 S
C933 C936 1.463 . S
C933 C938 1.350 . S
C933 N941 1.427 1_655 S
C934 H925 0.930 . S
C934 C932 1.378 . S
C934 C935 1.367 1_455 S
C935 C934 1.367 1_655 S
C935 C937 1.433 . S
C936 C932 1.350 1_655 S
C936 C933 1.463 . S
C936 N940 1.427 . S
C937 H927 0.929 . S
C937 C935 1.433 . S
C937 N940 1.384 . S
C938 H929 0.929 . S
C938 C930 1.378 . S
C938 C933 1.350 . S
C939 H926 0.929 . S
C939 C931 1.433 1_455 S
C939 N941 1.384 . S
N940 C936 1.427 . S
N940 C937 1.384 . S
N941 C933 1.427 1_455 S
N941 C939 1.384 . S
H942 C948 0.930 . S
H943 C952 0.930 . S
H944 C957 0.929 . S
H945 C955 0.929 . S
H946 C950 0.929 . S
H947 C956 0.929 . S
C948 H942 0.930 . S
C948 C949 1.367 . S
C948 C956 1.378 . S
C949 C948 1.367 . S
C949 C957 1.433 . S
C950 H946 0.929 . S
C950 C952 1.378 . S
C950 C954 1.350 . S
C951 C954 1.463 . S
C951 C956 1.350 . S
C951 N959 1.427 . S
C952 H943 0.930 . S
C952 C950 1.378 . S
C952 C953 1.367 . S
C953 C952 1.367 . S
C953 C955 1.433 . S
C954 C950 1.350 . S
C954 C951 1.463 . S
C954 N958 1.427 . S
C955 H945 0.929 . S
C955 C953 1.433 . S
C955 N958 1.384 . S
C956 H947 0.929 . S
C956 C948 1.378 . S
C956 C951 1.350 . S
C957 H944 0.929 . S
C957 C949 1.433 . S
C957 N959 1.384 . S
N958 C954 1.427 . S
N958 C955 1.384 . S
N959 C951 1.427 . S
N959 C957 1.384 . S
H960 C966 0.930 . S
H961 C970 0.930 . S
H962 C975 0.929 . S
H963 C973 0.929 . S
H964 C968 0.929 . S
H965 C974 0.929 . S
C966 H960 0.930 . S
C966 C967 1.367 . S
C966 C974 1.378 . S
C967 C966 1.367 . S
C967 C975 1.433 . S
C968 H964 0.929 . S
C968 C970 1.378 . S
C968 C972 1.350 . S
C969 C972 1.463 . S
C969 C974 1.350 . S
C969 N977 1.427 . S
C970 H961 0.930 . S
C970 C968 1.378 . S
C970 C971 1.367 . S
C971 C970 1.367 . S
C971 C973 1.433 . S
C972 C968 1.350 . S
C972 C969 1.463 . S
C972 N976 1.427 . S
C973 H963 0.929 . S
C973 C971 1.433 . S
C973 N976 1.384 . S
C974 H965 0.929 . S
C974 C966 1.378 . S
C974 C969 1.350 . S
C975 H962 0.929 . S
C975 C967 1.433 . S
C975 N977 1.384 . S
N976 C972 1.427 . S
N976 C973 1.384 . S
N977 C969 1.427 . S
N977 C975 1.384 . S
H978 C984 0.930 . S
H979 C988 0.930 . S
H980 C993 0.929 . S
H981 C991 0.929 . S
H982 C986 0.929 . S
H983 C992 0.929 . S
C984 H978 0.930 . S
C984 C985 1.367 . S
C984 C992 1.378 . S
C985 C984 1.367 . S
C985 C993 1.433 . S
C986 H982 0.929 . S
C986 C988 1.378 . S
C986 C990 1.350 . S
C987 C990 1.463 . S
C987 C992 1.350 . S
C987 N995 1.427 . S
C988 H979 0.930 . S
C988 C986 1.378 . S
C988 C989 1.367 . S
C989 C988 1.367 . S
C989 C991 1.433 . S
C990 C986 1.350 . S
C990 C987 1.463 . S
C990 N994 1.427 . S
C991 H981 0.929 . S
C991 C989 1.433 . S
C991 N994 1.384 . S
C992 H983 0.929 . S
C992 C984 1.378 . S
C992 C987 1.350 . S
C993 H980 0.929 . S
C993 C985 1.433 . S
C993 N995 1.384 . S
N994 C990 1.427 . S
N994 C991 1.384 . S
N995 C987 1.427 . S
N995 C993 1.384 . S
C571 C391 2.069 . S
C575 C496 1.939 . S
C593 C514 1.403 . S
C589 C451 1.646 . S
C611 C535 1.896 . S
C607 C241 1.819 . S
C629 C559 1.441 . S
C625 C331 1.525 . S
C647 C493 1.802 1_565 S
C643 C121 1.815 . S
C661 C211 1.510 . S
C665 C517 1.284 . S
C679 C31 1.812 1_556 S
C683 C538 1.789 . S
C697 C91 1.383 1_455 S
C701 C556 1.312 . S
C719 C498 0.477 . S
C715 C301 0.610 1_455 S
C737 C516 0.746 . S
C733 C380 0.730 . S
C755 C537 0.430 . S
C751 C440 0.254 . S
C769 C260 0.716 . S
C773 C561 0.713 . S
C787 C61 0.512 . S
C791 C497 0.386 . S
C809 C515 0.789 1_565 S
C805 C140 0.786 . S
C827 C536 0.440 . S
C823 C200 0.373 . S
C841 C20 0.747 . S
C845 C560 0.760 . S
C859 C320 1.977 1_455 S
C863 C494 1.920 . S
C877 C361 2.023 . S
C881 C518 2.168 . S
C899 C539 1.887 . S
C895 C421 1.725 . S
C917 C557 2.188 . S
C913 C271 2.177 . S
C931 C80 1.852 . S
C935 C495 1.778 . S
C953 C519 2.040 . S
C949 C151 2.112 . S
C971 C540 1.759 . S
C967 C181 1.614 . S
C985 C1 1.836 . S
C989 C558 2.048 . S
